drugbank_target|P31645 Sodium-dependent serotonin transporter (DB00176; DB00182; DB00191; DB00193; DB00215; DB00245; DB00285; DB00289; DB00321; DB00344; DB00408; DB00454; DB00458; DB00472; DB00476; DB00514; DB00540; DB00543; DB00574; DB00579; DB00656; DB00661; DB00715; DB00726; DB00805; DB00852; DB00907; DB00924; DB00988; DB01104; DB01105; DB01114; DB01142; DB01149; DB01151; DB01175; DB01191; DB01238; DB01242; DB01363; DB01442; DB01454; DB01472; DB01577; DB04821; DB04832; DB04836; DB04889; DB04896; DB05422; DB05688; DB05964; DB06077; DB06148; DB06156; DB06204; DB06684; DB06700; DB06701; DB08839; DB08918; DB09016; DB09068; DB09167; DB09186; DB09195; DB09225; DB12305)
 OpenBabel12092119393D

  0  0  0     0  0            999 V3000
M  V30 BEGIN CTAB
M  V30 COUNTS 9912 10060 0 0 0
M  V30 BEGIN ATOM
M  V30 1 H -0.908 1.98254 -0.117106 0
M  V30 2 N 0 1.576 0 0
M  V30 3 C 0.933 2.03868 1.02534 0
M  V30 4 C 1.911 0.928543 1.3348 0
M  V30 5 O 3.095 1.19667 1.45644 0
M  V30 6 C 0.222 2.43627 2.35294 0
M  V30 7 C -0.732 3.65373 2.2001 0
M  V30 8 S 0.101 5.13292 1.52614 0
M  V30 9 C 1.257 5.56322 2.86805 0
M  V30 10 H 1.49 2.90518 0.631377 0
M  V30 11 H -0.977 1.52953 0.210867 0
M  V30 12 H 0.981 2.67203 3.11629 0
M  V30 13 H -0.358 1.57376 2.7183 0
M  V30 14 H -1.165 3.90944 3.18086 0
M  V30 15 H -1.563 3.418 1.51819 0
M  V30 16 H 0.729 5.58782 3.83104 0
M  V30 17 H 1.672 6.56266 2.65933 0
M  V30 18 H 2.08 4.83886 2.90714 0
M  V30 19 N 1.4781 -0.272755 1.55222 0
M  V30 20 C 2.3881 -1.35918 1.91216 0
M  V30 21 C 3.4041 -1.54026 0.809436 0
M  V30 22 O 4.5801 -1.68148 1.10852 0
M  V30 23 C 1.6451 -2.69834 2.17693 0
M  V30 24 C 0.7061 -2.6047 3.41253 0
M  V30 25 C -0.0609 -3.88 3.66458 0
M  V30 26 O 0.1621 -4.88693 2.94169 0
M  V30 27 O -0.9039 -3.88189 4.59992 0
M  V30 28 H 2.9221 -1.0839 2.83699 0
M  V30 29 H 0.5071 -0.471301 1.41771 0
M  V30 30 H 2.3891 -3.49017 2.36147 0
M  V30 31 H 1.0641 -2.97148 1.28392 0
M  V30 32 H -0.0289 -1.79663 3.28134 0
M  V30 33 H 1.3041 -2.38106 4.30774 0
M  V30 34 N 2.9562 -1.48159 -0.537278 0
M  V30 35 C 4.1842 -1.59454 -1.31841 0
M  V30 36 C 4.5992 -0.252065 -1.8711 0
M  V30 37 O 3.9562 0.757621 -1.66031 0
M  V30 38 C 4.0072 -2.63546 -2.47439 0
M  V30 39 O 3.7282 -3.92583 -1.94449 0
M  V30 40 C 5.2292 -2.85212 -3.39366 0
M  V30 41 H 2.4492 -0.53785 -0.401196 0
M  V30 42 H 4.9932 -1.93932 -0.648891 0
M  V30 43 H 3.1482 -2.31946 -3.1029 0
M  V30 44 H 3.5622 -4.49629 -2.70063 0
M  V30 45 H 5.0362 -3.61863 -4.16844 0
M  V30 46 H 5.5132 -1.93765 -3.94147 0
M  V30 47 H 6.1192 -3.18086 -2.82314 0
M  V30 48 N 4.4343 0.785586 -1.36625 0
M  V30 49 C 5.6623 1.57448 -1.3423 0
M  V30 50 C 6.0773 1.88649 0.0755653 0
M  V30 51 O 5.4343 1.50414 1.03354 0
M  V30 52 C 5.4853 2.89316 -2.16745 0
M  V30 53 O 5.2063 2.59459 -3.53005 0
M  V30 54 C 6.7073 3.83606 -2.22174 0
M  V30 55 H 3.9273 0.488226 -0.4603 0
M  V30 56 H 6.4713 0.974733 -1.79775 0
M  V30 57 H 4.6263 3.4575 -1.74745 0
M  V30 58 H 5.0403 3.43804 -3.96105 0
M  V30 59 H 6.5143 4.73181 -2.8426 0
M  V30 60 H 6.9913 4.21734 -1.22627 0
M  V30 61 H 7.5973 3.33104 -2.64427 0
M  V30 62 N 5.9124 1.20967 1.01018 0
M  V30 63 C 7.3234 1.02319 1.56165 0
M  V30 64 C 7.6744 -0.418546 1.91684 0
M  V30 65 O 6.7994 -1.30096 1.72928 0
M  V30 66 C 7.3944 1.85109 2.8376 0
M  V30 67 C 5.9534 1.70809 3.35412 0
M  V30 68 C 5.1004 1.82643 2.08655 0
M  V30 69 H 8.0514 1.35065 0.833255 0
M  V30 70 H 8.0724 1.35827 3.55431 0
M  V30 71 H 7.5844 2.90035 2.57878 0
M  V30 72 H 5.6854 0.685464 3.66241 0
M  V30 73 H 5.7984 2.52467 4.07182 0
M  V30 74 H 4.1624 1.25896 2.21409 0
M  V30 75 H 4.9454 2.89066 1.85191 0
M  V30 76 N 7.3905 -1.2043 1.01659 0
M  V30 77 C 8.3205 -2.25466 0.607226 0
M  V30 78 C 9.3015 -1.65853 -0.377716 0
M  V30 79 O 10.4865 -1.92409 -0.263149 0
M  V30 80 C 7.6165 -3.47256 -0.0552949 0
M  V30 81 C 6.5705 -4.19462 0.850632 0
M  V30 82 C 5.8965 -5.34673 0.0538859 0
M  V30 83 C 7.1965 -4.75603 2.15868 0
M  V30 84 H 8.8905 -2.59962 1.48526 0
M  V30 85 H 6.4365 -1.2496 0.715605 0
M  V30 86 H 8.3895 -4.19917 -0.353233 0
M  V30 87 H 7.1135 -3.11924 -0.968045 0
M  V30 88 H 5.7725 -3.48667 1.13257 0
M  V30 89 H 5.4205 -4.95585 -0.860514 0
M  V30 90 H 5.1205 -5.83913 0.657192 0
M  V30 91 H 6.6445 -6.10138 -0.237598 0
M  V30 92 H 8.0585 -5.40083 1.92311 0
M  V30 93 H 6.4555 -5.3528 2.71284 0
M  V30 94 H 7.5255 -3.94346 2.82169 0
M  V30 95 N 8.8686 -0.792821 -1.36206 0
M  V30 96 C 9.8166 -0.181555 -2.3189 0
M  V30 97 C 10.8106 0.661025 -1.55971 0
M  V30 98 O 12.0166 0.555728 -1.71206 0
M  V30 99 H 8.3916 -0.0399382 -0.750939 0
M  V30 100 H 10.3626 -1.00394 -2.81005 0
M  V30 101 C 9.1116 0.666444 -3.41253 0
M  V30 102 H 8.4346 0.0274489 -3.99791 0
M  V30 103 H 9.8746 1.06076 -4.10517 0
M  V30 104 C 8.3336 1.82614 -2.83114 0
M  V30 105 O 8.8636 2.9229 -2.75553 0
M  V30 106 N 7.0696 1.63333 -2.40356 0
M  V30 107 H 6.6166 0.741217 -2.46706 0
M  V30 108 H 6.5746 2.41087 -2.01803 0
M  V30 109 N 10.3467 1.47872 -0.545128 0
M  V30 110 C 11.5717 2.07391 -0.0190611 0
M  V30 111 C 11.9967 1.39688 1.25971 0
M  V30 112 O 11.3547 0.467816 1.7516 0
M  V30 113 C 11.4027 3.60188 0.172335 0
M  V30 114 O 10.5067 3.9339 1.23766 0
M  V30 115 H 9.8477 0.662411 -0.0459059 0
M  V30 116 H 12.3777 1.90066 -0.757365 0
M  V30 117 H 12.3877 4.06129 0.390305 0
M  V30 118 H 11.0627 4.08865 -0.761725 0
M  V30 119 H 9.6397 3.5921 1.00114 0
M  V30 120 N 11.8248 0.280983 1.55075 0
M  V30 121 C 12.7568 -0.637268 2.20163 0
M  V30 122 C 13.7698 -1.11298 1.18813 0
M  V30 123 O 14.9588 -1.03388 1.4551 0
M  V30 124 C 12.0588 -1.88199 2.81841 0
M  V30 125 C 11.2318 -1.55211 4.08936 0
M  V30 126 C 10.2908 -2.64991 4.54606 0
M  V30 127 O 9.3168 -2.30929 5.2025 0
M  V30 128 N 10.5188 -3.95161 4.25238 0
M  V30 129 H 13.2838 -0.0801694 2.99593 0
M  V30 130 H 10.8448 0.102329 1.61576 0
M  V30 131 H 12.8368 -2.60948 3.09335 0
M  V30 132 H 11.4068 -2.34799 2.06369 0
M  V30 133 H 10.6268 -0.658185 3.88666 0
M  V30 134 H 11.9148 -1.30681 4.91732 0
M  V30 135 H 11.3128 -4.25653 3.72607 0
M  V30 136 H 9.8698 -4.6427 4.5749 0
M  V30 137 N 13.3029 -1.57598 0.00835791 0
M  V30 138 C 14.2499 -2.08945 -0.980346 0
M  V30 139 C 15.2199 -0.986738 -1.33614 0
M  V30 140 O 16.4049 -1.25968 -1.43306 0
M  V30 141 C 13.5449 -2.60425 -2.26435 0
M  V30 142 C 12.6579 -3.84628 -1.96685 0
M  V30 143 C 11.7929 -4.24579 -3.19228 0
M  V30 144 C 10.8319 -5.41596 -2.85202 0
M  V30 145 N 9.9689 -5.768 -4.00307 0
M  V30 146 H 14.8089 -2.93148 -0.535551 0
M  V30 147 H 12.3459 -1.44912 -0.252776 0
M  V30 148 H 14.3039 -2.88354 -3.01509 0
M  V30 149 H 12.9339 -1.79083 -2.68568 0
M  V30 150 H 11.9859 -3.63556 -1.11942 0
M  V30 151 H 13.2979 -4.69796 -1.67611 0
M  V30 152 H 12.4519 -4.53834 -4.02641 0
M  V30 153 H 11.1909 -3.38137 -3.51447 0
M  V30 154 H 10.1959 -5.12056 -2.00198 0
M  V30 155 H 11.4209 -6.29721 -2.54222 0
M  V30 156 H 9.3669 -4.93316 -4.32407 0
M  V30 157 H 9.2839 -6.5656 -3.74786 0
M  V30 158 H 10.5519 -6.10652 -4.84484 0
M  V30 159 N 14.781 0.264519 -1.55364 0
M  V30 160 C 15.713 1.34965 -1.85248 0
M  V30 161 C 16.726 1.45136 -0.737525 0
M  V30 162 O 17.915 1.46801 -1.01547 0
M  V30 163 C 15.015 2.73008 -2.00797 0
M  V30 164 C 14.188 2.85324 -3.31525 0
M  V30 165 C 13.247 4.04097 -3.37034 0
M  V30 166 O 12.273 3.94455 -4.10358 0
M  V30 167 N 13.475 5.16458 -2.65049 0
M  V30 168 H 16.24 1.09672 -2.78913 0
M  V30 169 H 13.801 0.454635 -1.55386 0
M  V30 170 H 15.793 3.50772 -2.01844 0
M  V30 171 H 14.363 2.91087 -1.1396 0
M  V30 172 H 13.583 1.94377 -3.42945 0
M  V30 173 H 14.871 2.9049 -4.17724 0
M  V30 174 H 14.269 5.27181 -2.05175 0
M  V30 175 H 12.826 5.92422 -2.71809 0
M  V30 176 N 16.2591 1.48442 0.529413 0
M  V30 177 C 17.1891 1.65902 1.64313 0
M  V30 178 C 18.1701 0.507897 1.6234 0
M  V30 179 O 19.3551 0.740503 1.79528 0
M  V30 180 C 16.4851 1.69911 3.02898 0
M  V30 181 C 15.4391 2.8453 3.19729 0
M  V30 182 C 14.7651 2.73629 4.59381 0
M  V30 183 C 16.0651 4.25821 3.02447 0
M  V30 184 H 17.7591 2.5914 1.49955 0
M  V30 185 H 15.3051 1.24709 0.719982 0
M  V30 186 H 17.2581 1.80715 3.80684 0
M  V30 187 H 15.9821 0.732524 3.18279 0
M  V30 188 H 14.6411 2.73283 2.44361 0
M  V30 189 H 14.2891 1.74938 4.71599 0
M  V30 190 H 13.9891 3.50541 4.71588 0
M  V30 191 H 15.5131 2.86401 5.39265 0
M  V30 192 H 16.9271 4.37898 3.70024 0
M  V30 193 H 15.3241 5.03735 3.26146 0
M  V30 194 H 16.3941 4.42244 1.98867 0
M  V30 195 N 17.7372 -0.778329 1.37039 0
M  V30 196 C 18.9622 -1.57248 1.35233 0
M  V30 197 C 19.3872 -1.87999 -0.0615568 0
M  V30 198 O 18.7452 -1.48734 -1.03672 0
M  V30 199 C 18.7932 -2.86353 2.19167 0
M  V30 200 O 17.8972 -3.80442 1.59178 0
M  V30 201 H 17.2382 -0.476569 0.462362 0
M  V30 202 H 19.7682 -0.963853 1.80474 0
M  V30 203 H 19.7782 -3.35519 2.32145 0
M  V30 204 H 18.4532 -2.63299 3.21942 0
M  V30 205 H 17.0302 -3.39067 1.55203 0
M  V30 206 N 19.2153 -1.21501 -1.00376 0
M  V30 207 C 20.1783 -0.976927 -2.07337 0
M  V30 208 C 21.1783 0.0525322 -1.60714 0
M  V30 209 O 22.3683 -0.184869 -1.73216 0
M  V30 210 C 19.5003 -0.473423 -3.37597 0
M  V30 211 H 20.6933 -1.92587 -2.29892 0
M  V30 212 H 18.2463 -1.03217 -1.17371 0
M  V30 213 H 18.9813 0.480379 -3.20722 0
M  V30 214 H 18.7663 -1.216 -3.72768 0
M  V30 215 H 20.2563 -0.32675 -4.1632 0
M  V30 216 N 20.6934 1.19889 -1.02296 0
M  V30 217 C 21.9334 1.91125 -0.724602 0
M  V30 218 C 22.2974 1.77464 0.732835 0
M  V30 219 O 23.4984 2.43241 1.144 0
M  V30 220 C 21.7694 3.38187 -1.15604 0
M  V30 221 S 23.3284 4.27702 -0.980621 0
M  V30 222 H 20.1464 0.66018 -0.263976 0
M  V30 223 H 22.7484 1.44978 -1.31155 0
M  V30 224 H 21.4524 3.45653 -2.21251 0
M  V30 225 H 20.9834 3.89363 -0.562131 0
M  V30 226 H 22.9984 4.96073 0.112225 0
M  V30 227 N 22.1715 0.800033 1.35784 0
M  V30 228 C 23.0815 0.207204 2.33683 0
M  V30 229 C 24.0975 -0.64631 1.61551 0
M  V30 230 O 25.2735 -0.559604 1.93469 0
M  V30 231 C 22.3385 -0.639659 3.40748 0
M  V30 232 C 21.3995 0.233585 4.28664 0
M  V30 233 C 20.6325 -0.572954 5.30616 0
M  V30 234 O 20.8555 -1.80816 5.40982 0
M  V30 235 O 19.7895 0.0327285 6.01891 0
M  V30 236 H 23.6155 1.01692 2.86169 0
M  V30 237 H 21.2005 0.561691 1.38439 0
M  V30 238 H 23.0825 -1.12223 4.06182 0
M  V30 239 H 21.7575 -1.42708 2.90544 0
M  V30 240 H 20.6645 0.763147 3.66233 0
M  V30 241 H 21.9975 0.984784 4.82248 0
M  V30 242 N 23.6496 -1.47581 0.552962 0
M  V30 243 C 24.9266 -1.95563 -0.0381515 0
M  V30 244 C 25.3066 -1.49552 -1.48988 0
M  V30 245 O 24.6546 -0.732414 -2.16444 0
M  V30 246 C 24.8646 -3.48848 0.102919 0
M  V30 247 C 26.2126 -4.24577 -0.0446082 0
M  V30 248 O 27.2366 -3.56187 0.0302548 0
M  V30 249 O 26.0956 -5.46116 -0.204923 0
M  V30 250 H 23.1896 -0.824321 -0.0665067 0
M  V30 251 H 25.7356 -1.58001 0.619186 0
M  V30 252 H 24.5076 -3.75129 1.11328 0
M  V30 253 H 24.1306 -3.93165 -0.592224 0
M  V30 254 N 25.1277 -0.289203 -1.54924 0
M  V30 255 C 26.3757 0.322879 -1.99504 0
M  V30 256 C 26.6967 1.55313 -1.1791 0
M  V30 257 O 25.9667 1.94001 -0.272097 0
M  V30 258 H 24.5467 0.122291 -0.736922 0
M  V30 259 H 27.2087 -0.397802 -1.90797 0
M  V30 260 H 26.3047 0.603061 -3.06218 0
M  V30 261 N 26.6058 1.57591 -0.0167156 0
M  V30 262 C 27.5158 2.1291 0.98521 0
M  V30 263 C 28.5318 1.07834 1.36557 0
M  V30 264 O 29.7078 1.39826 1.44951 0
M  V30 265 C 26.7728 2.63512 2.25305 0
M  V30 266 C 25.8338 3.83256 1.93426 0
M  V30 267 C 25.0668 4.31435 3.14165 0
M  V30 268 O 25.2898 3.78851 4.26413 0
M  V30 269 O 24.2238 5.23416 2.97186 0
M  V30 270 H 28.0498 2.98772 0.544888 0
M  V30 271 H 25.6348 1.48012 0.203141 0
M  V30 272 H 27.5168 2.96183 2.99756 0
M  V30 273 H 26.1918 1.8074 2.68542 0
M  V30 274 H 25.0988 3.55531 1.16398 0
M  V30 275 H 26.4318 4.67153 1.55013 0
M  V30 276 N 28.0839 -0.256276 1.55502 0
M  V30 277 C 29.3609 -1.00789 1.67633 0
M  V30 278 C 29.7409 -2.03706 0.553826 0
M  V30 279 O 29.0889 -2.24145 -0.443969 0
M  V30 280 C 29.2989 -1.64968 3.07549 0
M  V30 281 C 30.6469 -2.15505 3.65845 0
M  V30 282 O 31.6709 -1.74925 3.1029 0
M  V30 283 O 30.5299 -2.89986 4.63217 0
M  V30 284 H 27.6239 -0.468553 0.681459 0
M  V30 285 H 30.1699 -0.250806 1.67836 0
M  V30 286 H 28.9419 -0.904785 3.80696 0
M  V30 287 H 28.5649 -2.47321 3.11317 0
M  V30 288 N 29.562 -1.4872 -0.521534 0
M  V30 289 C 30.802 -1.58771 -1.28729 0
M  V30 290 C 31.166 -0.259394 -1.9024 0
M  V30 291 O 32.367 -0.234942 -2.67771 0
M  V30 292 C 30.638 -2.70039 -2.34124 0
M  V30 293 S 32.197 -2.9991 -3.20312 0
M  V30 294 H 29.015 -0.560251 -0.437767 0
M  V30 295 H 31.617 -1.86283 -0.593188 0
M  V30 296 H 30.321 -3.65101 -1.87429 0
M  V30 297 H 29.852 -2.44455 -3.08229 0
M  V30 298 H 31.867 -2.39855 -4.34378 0
M  V30 299 N 31.0401 0.771051 -1.3745 0
M  V30 300 C 31.9721 1.89352 -1.29146 0
M  V30 301 C 32.9851 1.61477 -0.207124 0
M  V30 302 O 34.1741 1.72382 -0.463324 0
M  V30 303 C 31.2741 3.24596 -0.974195 0
M  V30 304 C 30.4471 3.80111 -2.16413 0
M  V30 305 C 29.5061 4.93832 -1.81703 0
M  V30 306 O 28.5321 5.09382 -2.54006 0
M  V30 307 N 29.7341 5.75483 -0.761573 0
M  V30 308 H 32.4991 1.96991 -2.25864 0
M  V30 309 H 30.0601 0.950191 -1.31084 0
M  V30 310 H 32.0521 3.98193 -0.722828 0
M  V30 311 H 30.6221 3.12454 -0.0955527 0
M  V30 312 H 29.8421 2.98284 -2.57721 0
M  V30 313 H 31.1301 4.13932 -2.95867 0
M  V30 314 H 30.5281 5.65469 -0.161609 0
M  V30 315 H 29.0851 6.49302 -0.570064 0
M  V30 316 N 32.5182 1.22032 0.997298 0
M  V30 317 C 33.4282 1.00271 2.12092 0
M  V30 318 C 34.4442 -0.047621 1.73935 0
M  V30 319 O 35.6202 0.144136 2.00884 0
M  V30 320 C 32.6852 0.578449 3.4184 0
M  V30 321 C 31.7462 1.70189 3.94125 0
M  V30 322 C 30.9792 1.29778 5.17681 0
M  V30 323 O 31.2022 0.174676 5.70132 0
M  V30 324 O 30.1362 2.11261 5.63607 0
M  V30 325 H 33.9622 1.94398 2.3333 0
M  V30 326 H 31.5472 1.00587 1.10465 0
M  V30 327 H 33.4292 0.351998 4.19927 0
M  V30 328 H 32.1042 -0.334019 3.21972 0
M  V30 329 H 31.0112 1.98282 3.1723 0
M  V30 330 H 32.3442 2.59206 4.18417 0
M  V30 331 N 33.9963 -1.19345 1.0293 0
M  V30 332 C 34.9443 -2.24621 0.604001 0
M  V30 333 C 35.9383 -1.65452 -0.363587 0
M  V30 334 O 37.1443 -1.78497 -0.23212 0
M  V30 335 H 33.5193 -0.730858 0.177061 0
M  V30 336 H 35.4903 -2.5781 1.50255 0
M  V30 337 C 34.2393 -3.47688 -0.0289127 0
M  V30 338 H 33.5623 -3.93505 0.706651 0
M  V30 339 H 35.0023 -4.23011 -0.289432 0
M  V30 340 C 33.4613 -3.11817 -1.2756 0
M  V30 341 O 33.9913 -3.2451 -2.36762 0
M  V30 342 N 32.1973 -2.66246 -1.16453 0
M  V30 343 H 31.7443 -2.56118 -0.275914 0
M  V30 344 H 31.7023 -2.42617 -1.99961 0
M  V30 345 N 35.4744 -0.807222 -1.35358 0
M  V30 346 C 36.7224 -0.387122 -1.98358 0
M  V30 347 C 37.0434 1.04942 -1.64354 0
M  V30 348 O 36.3134 1.72615 -0.926339 0
M  V30 349 H 34.8934 -0.140154 -0.733734 0
M  V30 350 H 37.5554 -1.0332 -1.6526 0
M  V30 351 H 36.6514 -0.493352 -3.08176 0
M  V30 352 N 36.9525 1.47285 -0.560781 0
M  V30 353 C 38.1985 2.02764 -0.0381184 0
M  V30 354 C 38.5315 1.43384 1.30976 0
M  V30 355 O 37.8065 0.590733 1.85312 0
M  V30 356 C 38.0895 3.60064 0.0511427 0
M  V30 357 C 37.9425 4.2987 -1.32408 0
M  V30 358 C 39.2615 4.33439 0.762795 0
M  V30 359 H 36.3805 0.736841 -0.0153264 0
M  V30 360 H 39.0225 1.75675 -0.723759 0
M  V30 361 H 37.1725 3.83274 0.635065 0
M  V30 362 H 38.8445 4.17989 -1.95148 0
M  V30 363 H 37.0875 3.90085 -1.8978 0
M  V30 364 H 37.7585 5.38478 -1.21431 0
M  V30 365 H 40.2345 4.15243 0.266965 0
M  V30 366 H 39.1105 5.43124 0.794221 0
M  V30 367 H 39.3715 4.02915 1.81966 0
M  V30 368 N 38.4306 0.297415 1.54768 0
M  V30 369 C 39.3606 -0.573494 2.26348 0
M  V30 370 C 40.3416 -1.14085 1.26169 0
M  V30 371 O 41.5266 -1.17086 1.54934 0
M  V30 372 C 38.6566 -1.74716 3.00153 0
M  V30 373 C 37.6106 -1.31032 4.07449 0
M  V30 374 C 36.9366 -2.56887 4.68949 0
M  V30 375 C 38.2366 -0.444183 5.20408 0
M  V30 376 H 39.9306 0.0235131 2.99391 0
M  V30 377 H 37.4766 0.0127488 1.43994 0
M  V30 378 H 39.4296 -2.3625 3.48947 0
M  V30 379 H 38.1536 -2.37035 2.24682 0
M  V30 380 H 36.8126 -0.718066 3.59499 0
M  V30 381 H 36.4606 -3.17512 3.90122 0
M  V30 382 H 36.1606 -2.2836 5.41411 0
M  V30 383 H 37.6846 -3.19229 5.20505 0
M  V30 384 H 39.0986 -0.9651 5.65118 0
M  V30 385 H 37.4956 -0.252846 5.99567 0
M  V30 386 H 38.5656 0.531609 4.81977 0
M  V30 387 N 39.9087 -1.5758 0.0250728 0
M  V30 388 C 40.8407 -2.06869 -0.986796 0
M  V30 389 C 41.8537 -0.991332 -1.29137 0
M  V30 390 O 43.0427 -1.26761 -1.25674 0
M  V30 391 C 40.1427 -2.47486 -2.31525 0
M  V30 392 C 39.3157 -3.78253 -2.19643 0
M  V30 393 C 38.3747 -4.05464 -3.35388 0
M  V30 394 O 37.4007 -4.75774 -3.12454 0
M  V30 395 N 38.6027 -3.55321 -4.59051 0
M  V30 396 H 41.3677 -2.94302 -0.566276 0
M  V30 397 H 38.9287 -1.6109 -0.161776 0
M  V30 398 H 40.9207 -2.62785 -3.07776 0
M  V30 399 H 39.4907 -1.65441 -2.65232 0
M  V30 400 H 38.7107 -3.7279 -1.28144 0
M  V30 401 H 39.9987 -4.63936 -2.08903 0
M  V30 402 H 39.3967 -2.98431 -4.80578 0
M  V30 403 H 37.9537 -3.75905 -5.32483 0
M  V30 404 N 41.3868 0.248026 -1.55636 0
M  V30 405 C 42.3338 1.30707 -1.90222 0
M  V30 406 C 43.3038 1.47881 -0.756332 0
M  V30 407 O 44.4888 1.61883 -1.00988 0
M  V30 408 C 41.6288 2.65769 -2.20138 0
M  V30 409 C 40.7418 2.56612 -3.47526 0
M  V30 410 C 39.8768 3.8402 -3.67017 0
M  V30 411 C 38.9158 3.69476 -4.8801 0
M  V30 412 N 38.0528 4.88774 -5.04029 0
M  V30 413 H 42.8928 1.00512 -2.80538 0
M  V30 414 H 40.4298 0.485055 -1.38873 0
M  V30 415 H 42.3878 3.44386 -2.35487 0
M  V30 416 H 41.0178 2.94115 -1.33027 0
M  V30 417 H 40.0698 1.69571 -3.40514 0
M  V30 418 H 41.3818 2.41774 -4.36287 0
M  V30 419 H 40.5358 4.7108 -3.8232 0
M  V30 420 H 39.2748 4.01754 -2.76487 0
M  V30 421 H 38.2798 2.80799 -4.72686 0
M  V30 422 H 39.5048 3.53238 -5.8 0
M  V30 423 H 37.4508 5.0687 -4.16435 0
M  V30 424 H 37.3678 4.76562 -5.86877 0
M  V30 425 H 38.6358 5.77335 -5.23741 0
M  V30 426 N 42.8649 1.48995 0.513639 0
M  V30 427 C 44.1109 1.58076 1.27042 0
M  V30 428 C 44.4439 0.261026 1.92438 0
M  V30 429 O 43.7189 -0.734393 1.80103 0
M  V30 430 C 44.0019 2.73091 2.34719 0
M  V30 431 C 43.8549 4.14821 1.73907 0
M  V30 432 C 45.1739 2.83796 3.36375 0
M  V30 433 H 42.2929 0.575391 0.460536 0
M  V30 434 H 44.9349 1.81232 0.570516 0
M  V30 435 H 43.0849 2.53479 2.94416 0
M  V30 436 H 44.7569 4.45917 1.18135 0
M  V30 437 H 42.9999 4.21058 1.0437 0
M  V30 438 H 43.6709 4.91147 2.51949 0
M  V30 439 H 46.1469 3.01611 2.86653 0
M  V30 440 H 45.0229 3.65971 4.09093 0
M  V30 441 H 45.2839 1.92624 3.9793 0
M  V30 442 N 44.343 -0.763751 1.37857 0
M  V30 443 C 45.589 -1.52483 1.33704 0
M  V30 444 C 45.922 -1.94051 -0.0759612 0
M  V30 445 O 45.197 -1.64675 -1.03501 0
M  V30 446 C 45.48 -2.78441 2.28348 0
M  V30 447 C 45.333 -2.43075 3.78463 0
M  V30 448 C 46.652 -3.80415 2.21298 0
M  V30 449 H 43.771 -0.553169 0.487005 0
M  V30 450 H 46.413 -0.875562 1.68624 0
M  V30 451 H 44.563 -3.33842 1.987 0
M  V30 452 H 46.235 -1.93527 4.18742 0
M  V30 453 H 44.478 -1.75666 3.96641 0
M  V30 454 H 45.149 -3.33149 4.40132 0
M  V30 455 H 47.625 -3.34527 2.47449 0
M  V30 456 H 46.501 -4.66257 2.89647 0
M  V30 457 H 46.762 -4.25262 1.20849 0
M  V30 458 N 45.8211 -1.22559 -0.990812 0
M  V30 459 C 47.2321 -1.04791 -1.54518 0
M  V30 460 C 47.5831 0.387998 -1.92325 0
M  V30 461 O 46.7081 1.27328 -1.74976 0
M  V30 462 C 47.3031 -1.896 -2.80779 0
M  V30 463 C 45.8621 -1.76124 -3.32652 0
M  V30 464 C 45.0091 -1.8594 -2.05722 0
M  V30 465 H 47.9601 -1.36374 -0.811662 0
M  V30 466 H 47.9811 -1.41464 -3.53225 0
M  V30 467 H 47.4931 -2.94101 -2.53231 0
M  V30 468 H 45.5941 -0.743643 -3.65104 0
M  V30 469 H 45.7071 -2.58913 -4.03114 0
M  V30 470 H 44.0711 -1.29403 -2.19379 0
M  V30 471 H 44.8541 -2.91976 -1.80568 0
M  V30 472 N 47.2992 1.18797 -1.03562 0
M  V30 473 C 48.5272 1.92599 -0.755869 0
M  V30 474 C 48.9422 1.75886 0.686271 0
M  V30 475 O 48.2992 1.08517 1.46732 0
M  V30 476 C 48.3502 3.44159 -1.10619 0
M  V30 477 O 48.0712 3.60341 -2.4917 0
M  V30 478 C 49.5722 4.3507 -0.850214 0
M  V30 479 H 46.7922 0.611587 -0.276048 0
M  V30 480 H 49.3362 1.50742 -1.38192 0
M  V30 481 H 47.4912 3.83823 -0.525194 0
M  V30 482 H 47.9052 4.54128 -2.62427 0
M  V30 483 H 49.3792 5.39989 -1.14523 0
M  V30 484 H 49.8562 4.38673 0.215176 0
M  V30 485 H 50.4622 4.01097 -1.41426 0
M  V30 486 N 48.7773 0.814389 1.34928 0
M  V30 487 C 50.1883 0.458364 1.80986 0
M  V30 488 C 50.5393 -1.02042 1.67577 0
M  V30 489 O 49.6643 -1.79352 1.21086 0
M  V30 490 C 50.2593 0.825212 3.28597 0
M  V30 491 C 48.8183 0.521677 3.72767 0
M  V30 492 C 47.9653 1.04668 2.56788 0
M  V30 493 H 50.9163 1.00533 1.22795 0
M  V30 494 H 50.9373 0.12571 3.80292 0
M  V30 495 H 50.4493 1.90154 3.38324 0
M  V30 496 H 48.5503 -0.545589 3.68584 0
M  V30 497 H 48.6633 1.05977 4.67232 0
M  V30 498 H 47.0273 0.468622 2.50352 0
M  V30 499 H 47.8103 2.12927 2.6929 0
M  V30 500 N 50.2554 -1.46986 0.568584 0
M  V30 501 C 51.5034 -2.02041 0.0487022 0
M  V30 502 C 51.8244 -1.44408 -1.31039 0
M  V30 503 O 51.0944 -0.623477 -1.85714 0
M  V30 504 H 49.6744 -0.746849 0.015014 0
M  V30 505 H 52.3364 -1.80257 0.741168 0
M  V30 506 H 51.4324 -3.12085 -0.0308961 0
M  V30 507 N 51.7335 -0.305618 -1.54608 0
M  V30 508 C 53.0105 0.355652 -1.92339 0
M  V30 509 C 53.3905 1.71324 -1.23335 0
M  V30 510 O 52.7385 2.25473 -0.370702 0
M  V30 511 C 52.9485 0.46572 -3.45879 0
M  V30 512 C 54.2965 0.734426 -4.182 0
M  V30 513 O 55.3205 0.54935 -3.51938 0
M  V30 514 O 54.1795 1.09024 -5.35515 0
M  V30 515 H 51.2735 0.199666 -0.802535 0
M  V30 516 H 53.8195 -0.354017 -1.65966 0
M  V30 517 H 52.5915 -0.488461 -3.88239 0
M  V30 518 H 52.2145 1.22367 -3.78301 0
M  V30 519 N 53.2116 1.57565 -0.0334293 0
M  V30 520 C 54.1586 2.10478 0.946981 0
M  V30 521 C 55.1286 1.00787 1.32027 0
M  V30 522 O 56.3136 1.28232 1.41284 0
M  V30 523 C 53.4536 2.63994 2.22263 0
M  V30 524 C 52.5666 3.87709 1.90541 0
M  V30 525 C 51.7016 4.29604 3.12433 0
M  V30 526 C 50.7406 5.46065 2.76549 0
M  V30 527 N 49.8776 5.83096 3.9108 0
M  V30 528 H 54.7176 2.93963 0.488846 0
M  V30 529 H 52.2546 1.45296 0.22969 0
M  V30 530 H 54.2126 2.93114 2.96884 0
M  V30 531 H 52.8426 1.83333 2.65685 0
M  V30 532 H 51.8946 3.65291 1.06144 0
M  V30 533 H 53.2066 4.72403 1.60116 0
M  V30 534 H 52.3606 4.60182 3.9537 0
M  V30 535 H 51.0996 3.43685 3.46023 0
M  V30 536 H 50.1046 5.15176 1.92026 0
M  V30 537 H 51.3296 6.33685 2.44171 0
M  V30 538 H 49.2756 5.00132 4.24504 0
M  V30 539 H 49.1926 6.6244 3.64293 0
M  V30 540 H 50.4606 6.18282 4.74708 0
M  V30 541 N 54.6897 -0.239769 1.55765 0
M  V30 542 C 55.9357 -0.968234 1.78194 0
M  V30 543 C 56.2687 -1.84701 0.599938 0
M  V30 544 O 55.5437 -1.9031 -0.401524 0
M  V30 545 C 55.8267 -1.8227 3.10564 0
M  V30 546 C 55.6797 -0.971633 4.3918 0
M  V30 547 C 56.9987 -2.80388 3.39221 0
M  V30 548 H 54.1177 -0.350572 0.648281 0
M  V30 549 H 56.7597 -0.238259 1.885 0
M  V30 550 H 54.9097 -2.44507 3.01908 0
M  V30 551 H 56.5817 -0.367408 4.59835 0
M  V30 552 H 54.8247 -0.276276 4.32919 0
M  V30 553 H 55.4957 -1.60346 5.28198 0
M  V30 554 H 57.9717 -2.28287 3.47885 0
M  V30 555 H 56.8477 -3.3729 4.33044 0
M  V30 556 H 57.1087 -3.57212 2.60484 0
M  V30 557 N 56.1678 -1.49265 -0.50573 0
M  V30 558 C 57.0778 -1.68312 -1.63427 0
M  V30 559 C 58.0938 -0.565682 -1.64548 0
M  V30 560 O 59.2698 -0.839801 -1.83055 0
M  V30 561 C 56.3348 -1.74107 -2.99813 0
M  V30 562 C 55.3958 -2.97653 -3.09356 0
M  V30 563 C 54.6288 -3.03163 -4.39236 0
M  V30 564 O 54.8518 -2.16396 -5.27758 0
M  V30 565 O 53.7858 -3.9558 -4.53652 0
M  V30 566 H 57.6118 -2.63907 -1.50289 0
M  V30 567 H 55.1968 -1.32951 -0.681502 0
M  V30 568 H 57.0788 -1.803 -3.80881 0
M  V30 569 H 55.7538 -0.816901 -3.13223 0
M  V30 570 H 54.6608 -2.96981 -2.27493 0
M  V30 571 H 55.9938 -3.89535 -3.00871 0
M  V30 572 N 57.6459 0.756429 -1.3826 0
M  V30 573 C 58.8709 1.55077 -1.37717 0
M  V30 574 C 59.2959 1.88073 0.03164 0
M  V30 575 O 58.6539 1.50364 1.01293 0
M  V30 576 C 58.7019 2.8283 -2.23695 0
M  V30 577 O 57.8059 3.77862 -1.6521 0
M  V30 578 H 57.1469 0.469152 -0.469885 0
M  V30 579 H 59.6769 0.935019 -1.81985 0
M  V30 580 H 59.6869 3.31783 -2.37453 0
M  V30 581 H 58.3619 2.58144 -3.2609 0
M  V30 582 H 56.9389 3.36555 -1.60578 0
M  V30 583 N 59.124 1.23083 0.984299 0
M  V30 584 C 60.372 1.05848 1.72165 0
M  V30 585 C 60.693 -0.406049 1.90726 0
M  V30 586 O 59.963 -1.29139 1.47309 0
M  V30 587 H 58.543 0.388685 0.637913 0
M  V30 588 H 61.205 1.54736 1.18503 0
M  V30 589 H 60.301 1.54327 2.71274 0
M  V30 590 N 60.6021 -1.18246 1.0419 0
M  V30 591 C 61.5341 -2.2142 0.592088 0
M  V30 592 C 62.5471 -1.59233 -0.338909 0
M  V30 593 O 63.7361 -1.78002 -0.133231 0
M  V30 594 C 60.8361 -3.38546 -0.154854 0
M  V30 595 C 60.0091 -4.3031 0.784328 0
M  V30 596 C 59.0681 -5.26138 0.0804583 0
M  V30 597 O 58.0941 -5.64738 0.711292 0
M  V30 598 N 59.2961 -5.68261 -1.18574 0
M  V30 599 H 62.0611 -2.60636 1.47949 0
M  V30 600 H 59.6221 -1.33044 0.922544 0
M  V30 601 H 61.6141 -3.99678 -0.635606 0
M  V30 602 H 60.1841 -2.98012 -0.943811 0
M  V30 603 H 59.4041 -3.66764 1.44491 0
M  V30 604 H 60.6921 -4.8852 1.42218 0
M  V30 605 H 60.0901 -5.38957 -1.71876 0
M  V30 606 H 58.6471 -6.31584 -1.61074 0
M  V30 607 N 62.0802 -0.821533 -1.34494 0
M  V30 608 C 63.3292 -0.405355 -1.97585 0
M  V30 609 C 63.6422 1.03677 -1.65863 0
M  V30 610 O 64.8482 1.55679 -2.22433 0
M  V30 611 C 63.3042 -0.673861 -3.53535 0
M  V30 612 C 62.9122 -2.12951 -3.94152 0
M  V30 613 C 64.6562 -0.32378 -4.23263 0
M  V30 614 C 62.5632 -2.34298 -5.43009 0
M  V30 615 H 61.4932 -0.147836 -0.739365 0
M  V30 616 H 64.1442 -1.00769 -1.53355 0
M  V30 617 H 62.5262 -0.00137554 -3.96 0
M  V30 618 H 63.7002 -2.84104 -3.62797 0
M  V30 619 H 62.0152 -2.44089 -3.37356 0
M  V30 620 H 64.6122 -0.461126 -5.32708 0
M  V30 621 H 64.9552 0.731586 -4.09821 0
M  V30 622 H 65.4882 -0.950786 -3.8627 0
M  V30 623 H 62.2272 -3.38335 -5.61435 0
M  V30 624 H 61.7472 -1.67687 -5.75883 0
M  V30 625 H 63.4262 -2.16588 -6.09671 0
M  V30 626 N 63.5583 1.46682 -0.576371 0
M  V30 627 C 64.7833 2.07304 -0.0630475 0
M  V30 628 C 65.2083 1.42329 1.2298 0
M  V30 629 O 64.5663 0.504865 1.74129 0
M  V30 630 C 64.6143 3.60472 0.095895 0
M  V30 631 O 63.7183 3.95927 1.15394 0
M  V30 632 H 63.0593 0.661288 -0.0599463 0
M  V30 633 H 65.5893 1.88417 -0.797511 0
M  V30 634 H 65.5993 4.06865 0.304071 0
M  V30 635 H 64.2743 4.07157 -0.84828 0
M  V30 636 H 62.8513 3.61252 0.924724 0
M  V30 637 N 65.0364 0.313813 1.54444 0
M  V30 638 C 65.9844 -0.572171 2.25453 0
M  V30 639 C 66.9784 -1.12657 1.2651 0
M  V30 640 O 68.1844 -1.07573 1.44319 0
M  V30 641 H 64.5594 -0.203146 0.724041 0
M  V30 642 H 66.5304 0.0491145 2.9836 0
M  V30 643 C 65.2794 -1.72626 3.0182 0
M  V30 644 H 64.6024 -1.30891 3.77767 0
M  V30 645 H 66.0424 -2.32199 3.54767 0
M  V30 646 C 64.5014 -2.63806 2.09542 0
M  V30 647 O 65.0314 -3.65256 1.67185 0
M  V30 648 N 63.2374 -2.31824 1.75232 0
M  V30 649 H 62.7844 -1.49368 2.09873 0
M  V30 650 H 62.7424 -2.93095 1.13767 0
M  V30 651 N 66.5145 -1.57545 0.0417849 0
M  V30 652 C 67.7625 -1.91937 -0.632829 0
M  V30 653 C 68.0835 -0.919978 -1.71934 0
M  V30 654 O 67.3535 0.0366064 -1.95866 0
M  V30 655 H 65.9335 -0.708493 -0.236742 0
M  V30 656 H 68.5955 -1.9468 0.0925745 0
M  V30 657 H 67.6915 -2.92912 -1.07746 0
M  V30 658 N 67.9926 0.231505 -1.5589 0
M  V30 659 C 69.2226 0.973092 -1.82248 0
M  V30 660 C 69.6306 1.78845 -0.617328 0
M  V30 661 O 68.9736 1.78752 0.423499 0
M  V30 662 C 69.0356 1.94732 -3.02192 0
M  V30 663 C 68.6996 1.31743 -4.37599 0
M  V30 664 C 69.6966 0.712238 -5.14998 0
M  V30 665 C 67.3816 1.33218 -4.84312 0
M  V30 666 C 69.3756 0.130195 -6.37267 0
M  V30 667 C 67.0626 0.746286 -6.06526 0
M  V30 668 C 68.0606 0.146337 -6.82843 0
M  V30 669 O 67.7486 -0.430465 -8.02747 0
M  V30 670 H 67.4806 0.29125 -0.61004 0
M  V30 671 H 70.0346 0.254915 -2.03812 0
M  V30 672 H 68.2646 2.70422 -2.76422 0
M  V30 673 H 69.9536 2.55362 -3.15508 0
M  V30 674 H 70.7196 0.69324 -4.8002 0
M  V30 675 H 66.5986 1.78854 -4.24891 0
M  V30 676 H 70.1426 -0.33871 -6.96777 0
M  V30 677 H 66.0396 0.762663 -6.40979 0
M  V30 678 H 66.8076 -0.323818 -8.17859 0
M  V30 679 N 69.4707 1.49531 0.497807 0
M  V30 680 C 70.6957 1.63159 1.28039 0
M  V30 681 C 71.1207 0.30418 1.85624 0
M  V30 682 O 70.4787 -0.728618 1.66015 0
M  V30 683 C 70.5267 2.70537 2.38416 0
M  V30 684 O 69.6307 2.29931 3.42353 0
M  V30 685 H 68.9717 0.546001 0.377861 0
M  V30 686 H 71.5017 1.9574 0.59558 0
M  V30 687 H 71.5117 2.92802 2.84132 0
M  V30 688 H 70.1867 3.6689 1.95869 0
M  V30 689 H 68.7637 2.18009 3.02533 0
M  V30 690 N 70.9488 -0.749086 1.3866 0
M  V30 691 C 71.9118 -1.84457 1.36045 0
M  V30 692 C 72.9118 -1.58682 0.260122 0
M  V30 693 O 74.1018 -1.66343 0.517261 0
M  V30 694 C 71.2338 -3.22008 1.11911 0
M  V30 695 H 72.4268 -1.88182 2.33512 0
M  V30 696 H 69.9798 -0.951266 1.24019 0
M  V30 697 H 70.7148 -3.2395 0.150686 0
M  V30 698 H 70.4998 -3.42111 1.91579 0
M  V30 699 H 71.9898 -4.0208 1.12788 0
M  V30 700 N 72.4269 -1.23603 -0.977757 0
M  V30 701 C 73.6729 -1.07129 -1.72195 0
M  V30 702 C 74.0059 0.390501 -1.90233 0
M  V30 703 O 73.2809 1.28902 -1.45653 0
M  V30 704 C 73.5639 -1.80031 -3.11867 0
M  V30 705 C 73.4169 -3.33899 -3.01383 0
M  V30 706 C 74.7359 -1.56492 -4.11337 0
M  V30 707 H 71.8549 -0.390571 -0.624999 0
M  V30 708 H 74.4969 -1.52142 -1.13811 0
M  V30 709 H 72.6469 -1.41768 -3.6171 0
M  V30 710 H 74.3189 -3.81699 -2.59043 0
M  V30 711 H 72.5619 -3.62796 -2.37827 0
M  V30 712 H 73.2329 -3.801 -4.00285 0
M  V30 713 H 75.7089 -1.89757 -3.70313 0
M  V30 714 H 74.5849 -2.09973 -5.07151 0
M  V30 715 H 74.8459 -0.500874 -4.39254 0
M  V30 716 N 73.905 1.17692 -1.04816 0
M  V30 717 C 75.316 1.69501 -0.782698 0
M  V30 718 C 75.667 1.83456 0.695577 0
M  V30 719 O 74.792 1.51942 1.54086 0
M  V30 720 C 75.387 3.07874 -1.41419 0
M  V30 721 C 73.946 3.56864 -1.19686 0
M  V30 722 C 73.093 2.3322 -1.50012 0
M  V30 723 H 76.044 1.02262 -1.2136 0
M  V30 724 H 76.065 3.71528 -0.821428 0
M  V30 725 H 75.577 2.97685 -2.49009 0
M  V30 726 H 73.678 3.72337 -0.140043 0
M  V30 727 H 73.791 4.39851 -1.89916 0
M  V30 728 H 72.155 2.37501 -0.920071 0
M  V30 729 H 72.938 2.25644 -2.58727 0
M  V30 730 N 75.3831 0.828654 1.34056 0
M  V30 731 C 76.6081 0.431637 2.02859 0
M  V30 732 C 77.0331 -0.956339 1.61975 0
M  V30 733 O 76.3911 -1.62338 0.807228 0
M  V30 734 C 76.4391 0.548323 3.56407 0
M  V30 735 O 75.5431 -0.429556 4.10157 0
M  V30 736 H 74.8841 0.176886 0.640006 0
M  V30 737 H 77.4141 1.12066 1.71179 0
M  V30 738 H 77.4241 0.426196 4.05768 0
M  V30 739 H 76.0991 1.5606 3.8551 0
M  V30 740 H 74.6761 -0.265836 3.71951 0
M  V30 741 N 76.8612 -1.46375 0.584142 0
M  V30 742 C 78.2722 -1.86031 0.157959 0
M  V30 743 C 78.6232 -1.48753 -1.27933 0
M  V30 744 O 77.7482 -0.903098 -1.96655 0
M  V30 745 C 78.3432 -3.37642 0.279892 0
M  V30 746 C 76.9022 -3.76289 -0.09143 0
M  V30 747 C 76.0492 -2.7039 0.615178 0
M  V30 748 H 79.0002 -1.37509 0.792274 0
M  V30 749 H 79.0212 -3.77275 -0.494364 0
M  V30 750 H 78.5332 -3.64742 1.32607 0
M  V30 751 H 76.6342 -3.54806 -1.13769 0
M  V30 752 H 76.7472 -4.78246 0.285886 0
M  V30 753 H 75.1112 -2.5464 0.0552833 0
M  V30 754 H 75.8942 -3.0033 1.66303 0
M  V30 755 N 78.3393 -0.321999 -1.54275 0
M  V30 756 C 79.5873 0.280489 -2.00144 0
M  V30 757 C 79.9083 1.52777 -1.21178 0
M  V30 758 O 79.1783 1.9338 -0.313187 0
M  V30 759 H 77.7583 0.106632 -0.73935 0
M  V30 760 H 80.4203 -0.438184 -1.8991 0
M  V30 761 H 79.5163 0.537972 -3.07428 0
M  V30 762 N 79.8174 1.5752 -0.0501392 0
M  V30 763 C 80.7804 2.1037 0.909786 0
M  V30 764 C 81.7804 1.02308 1.24056 0
M  V30 765 O 82.9704 1.28385 1.17741 0
M  V30 766 C 80.1024 2.58708 2.21998 0
M  V30 767 H 81.2954 2.96479 0.451665 0
M  V30 768 H 78.8484 1.55038 0.198248 0
M  V30 769 H 79.5834 1.75989 2.72394 0
M  V30 770 H 79.3684 3.37675 1.99295 0
M  V30 771 H 80.8584 2.99747 2.9076 0
M  V30 772 N 81.2955 -0.223234 1.56011 0
M  V30 773 C 82.5435 -0.946003 1.78592 0
M  V30 774 C 82.8645 -1.84936 0.618349 0
M  V30 775 O 82.1345 -1.92473 -0.364833 0
M  V30 776 H 80.7145 -0.352298 0.658707 0
M  V30 777 H 83.3765 -0.235494 1.93472 0
M  V30 778 H 82.4725 -1.55381 2.70672 0
M  V30 779 N 82.7736 -1.49793 -0.48987 0
M  V30 780 C 84.0506 -1.50348 -1.25119 0
M  V30 781 C 84.4306 -0.237466 -2.0976 0
M  V30 782 O 83.7786 0.77981 -2.14782 0
M  V30 783 C 83.9886 -2.78872 -2.09837 0
M  V30 784 C 85.3366 -3.288 -2.68655 0
M  V30 785 O 86.3606 -2.80065 -2.20096 0
M  V30 786 O 85.2196 -4.13707 -3.57083 0
M  V30 787 H 82.3136 -0.602242 -0.566775 0
M  V30 788 H 84.8596 -1.62067 -0.503229 0
M  V30 789 H 83.6316 -3.62499 -1.47343 0
M  V30 790 H 83.2546 -2.70066 -2.91805 0
M  V30 791 N 84.2517 0.741722 -1.39055 0
M  V30 792 C 85.5287 1.49252 -1.26425 0
M  V30 793 C 85.9087 2.10705 0.129144 0
M  V30 794 O 85.2567 1.98045 1.13976 0
M  V30 795 C 85.4667 2.54934 -2.38347 0
M  V30 796 C 86.8147 3.21506 -2.77343 0
M  V30 797 O 87.8387 2.65245 -2.37747 0
M  V30 798 O 86.6977 4.23294 -3.45665 0
M  V30 799 H 83.7917 0.662451 -0.495064 0
M  V30 800 H 86.3377 0.776121 -1.50912 0
M  V30 801 H 85.1097 2.07857 -3.31529 0
M  V30 802 H 84.7327 3.34141 -2.15489 0
M  V30 803 N 85.7298 1.2412 0.971189 0
M  V30 804 C 86.9578 1.10575 1.74874 0
M  V30 805 C 87.3728 -0.342017 1.85676 0
M  V30 806 O 86.7298 -1.23617 1.34258 0
M  V30 807 C 86.7808 1.73579 3.171 0
M  V30 808 O 86.5018 3.12695 3.06844 0
M  V30 809 C 88.0028 1.65598 4.11208 0
M  V30 810 H 85.2228 0.386504 0.548503 0
M  V30 811 H 87.7668 1.64156 1.21955 0
M  V30 812 H 85.9218 1.24009 3.67016 0
M  V30 813 H 86.3358 3.43412 3.96445 0
M  V30 814 H 87.8098 2.1437 5.08674 0
M  V30 815 H 88.2868 0.616532 4.34851 0
M  V30 816 H 88.8928 2.14578 3.67201 0
M  V30 817 N 87.2079 -1.17134 1.05439 0
M  V30 818 C 88.6239 -1.39454 0.776201 0
M  V30 819 C 88.8239 -1.91454 -0.628307 0
M  V30 820 O 87.8799 -2.10777 -1.39031 0
M  V30 821 C 89.1929 -2.38305 1.83388 0
M  V30 822 C 90.7409 -2.52006 1.85639 0
M  V30 823 C 91.2159 -3.54133 2.90437 0
M  V30 824 N 92.7069 -3.61653 2.89415 0
M  V30 825 C 93.4419 -4.4044 3.67152 0
M  V30 826 N 92.9379 -5.22721 4.54681 0
M  V30 827 N 94.7309 -4.35337 3.55581 0
M  V30 828 H 86.8819 -0.817134 1.96053 0
M  V30 829 H 89.1449 -0.421626 0.849079 0
M  V30 830 H 88.8509 -2.07173 2.84204 0
M  V30 831 H 88.7249 -3.37841 1.67761 0
M  V30 832 H 91.1119 -2.82447 0.85486 0
M  V30 833 H 91.1929 -1.52537 2.05344 0
M  V30 834 H 90.8369 -3.24431 3.90777 0
M  V30 835 H 90.7669 -4.53313 2.67983 0
M  V30 836 H 93.2579 -3.02909 2.25952 0
M  V30 837 H 93.5709 -5.80027 5.10674 0
M  V30 838 H 91.9159 -5.22093 4.58741 0
M  V30 839 H 95.1069 -3.70112 2.86592 0
M  V30 840 H 95.2799 -4.96494 4.1641 0
M  V30 841 N 88.686 -0.835752 -1.33615 0
M  V30 842 C 89.636 -0.238856 -2.26745 0
M  V30 843 C 90.62 0.604343 -1.49119 0
M  V30 844 O 91.812 0.456822 -1.71003 0
M  V30 845 C 88.941 0.587725 -3.38232 0
M  V30 846 C 88.027 -0.266811 -4.2326 0
M  V30 847 N 88.418 -1.34403 -4.87616 0
M  V30 848 C 86.716 -0.0533131 -4.45968 0
M  V30 849 C 87.417 -1.86819 -5.50884 0
M  V30 850 N 86.393 -1.17013 -5.30857 0
M  V30 851 H 90.195 -1.06266 -2.74016 0
M  V30 852 H 87.709 -0.679881 -1.47483 0
M  V30 853 H 89.706 1.03161 -4.03935 0
M  V30 854 H 88.366 1.40954 -2.9251 0
M  V30 855 H 89.377 -1.7269 -4.88261 0
M  V30 856 H 86.054 0.735312 -4.10974 0
M  V30 857 H 87.444 -2.7701 -6.1214 0
M  V30 858 N 90.1641 1.46063 -0.591896 0
M  V30 859 C 91.3891 2.07226 -0.0850314 0
M  V30 860 C 91.8141 1.43625 1.21463 0
M  V30 861 O 91.1721 0.523305 1.73583 0
M  V30 862 C 91.2201 3.60554 0.0576567 0
M  V30 863 O 90.3241 3.97128 1.11188 0
M  V30 864 H 89.6651 0.660615 -0.0669568 0
M  V30 865 H 92.1951 1.8756 -0.81745 0
M  V30 866 H 92.2051 4.07165 0.2609 0
M  V30 867 H 90.8801 4.06235 -0.891416 0
M  V30 868 H 89.4571 3.62213 0.886356 0
M  V30 869 N 91.6422 0.330177 1.54103 0
M  V30 870 C 92.8912 -0.271336 1.99867 0
M  V30 871 C 93.2042 -1.52723 1.22209 0
M  V30 872 O 94.4102 -2.20515 1.58383 0
M  V30 873 C 92.8662 -0.534032 3.55916 0
M  V30 874 C 92.4742 0.705193 4.42415 0
M  V30 875 C 94.2182 -1.09514 4.1013 0
M  V30 876 C 92.1252 0.414035 5.89949 0
M  V30 877 H 91.0552 -0.105166 0.74663 0
M  V30 878 H 93.7062 0.443429 1.78062 0
M  V30 879 H 92.0882 -1.30915 3.73734 0
M  V30 880 H 93.2622 1.4804 4.36372 0
M  V30 881 H 91.5772 1.18698 3.99124 0
M  V30 882 H 94.1742 -1.3277 5.17954 0
M  V30 883 H 94.5172 -2.04656 3.62521 0
M  V30 884 H 95.0502 -0.381038 3.95971 0
M  V30 885 H 91.7892 1.33481 6.41766 0
M  V30 886 H 91.3092 -0.323336 5.98928 0
M  V30 887 H 92.9882 0.0263105 6.46995 0
M  V30 888 N 93.1203 -1.57491 0.0584922 0
M  V30 889 C 94.5313 -1.80526 -0.476138 0
M  V30 890 C 94.8823 -0.971334 -1.70469 0
M  V30 891 O 94.0073 -0.190012 -2.15564 0
M  V30 892 C 94.6023 -3.27424 -0.870587 0
M  V30 893 C 93.1613 -3.51351 -1.35015 0
M  V30 894 C 92.3083 -2.75343 -0.32887 0
M  V30 895 H 95.2593 -1.56133 0.284312 0
M  V30 896 H 95.2803 -3.38745 -1.73299 0
M  V30 897 H 94.7923 -3.88093 0.0237627 0
M  V30 898 H 92.8933 -2.95971 -2.26345 0
M  V30 899 H 93.0063 -4.60059 -1.33726 0
M  V30 900 H 91.3703 -2.417 -0.803321 0
M  V30 901 H 92.1533 -3.38743 0.557521 0
M  V30 902 N 94.5984 0.214957 -1.56127 0
M  V30 903 C 95.5614 1.24997 -1.92116 0
M  V30 904 C 96.5614 1.39467 -0.800344 0
M  V30 905 O 97.7514 1.37619 -1.06802 0
M  V30 906 C 94.8834 2.62271 -2.17777 0
M  V30 907 H 96.0764 0.942875 -2.84693 0
M  V30 908 H 93.6294 0.455654 -1.49511 0
M  V30 909 H 94.3644 2.98068 -1.27773 0
M  V30 910 H 94.1494 2.53143 -2.99434 0
M  V30 911 H 95.6394 3.36946 -2.46693 0
M  V30 912 N 96.0765 1.50051 0.48192 0
M  V30 913 C 97.3045 1.64237 1.25832 0
M  V30 914 C 97.7195 0.321336 1.86045 0
M  V30 915 O 97.0765 -0.695478 1.68729 0
M  V30 916 C 97.1275 2.72548 2.37487 0
M  V30 917 O 96.8485 3.99529 1.79745 0
M  V30 918 C 98.3495 2.9761 3.28547 0
M  V30 919 H 95.5695 0.55237 0.380957 0
M  V30 920 H 98.1135 1.96207 0.576467 0
M  V30 921 H 96.2685 2.43303 3.01467 0
M  V30 922 H 96.6825 4.59342 2.5319 0
M  V30 923 H 98.1565 3.77084 4.03127 0
M  V30 924 H 98.6335 2.0826 3.86684 0
M  V30 925 H 99.2395 3.28345 2.70314 0
M  V30 926 N 97.5546 -0.734337 1.39446 0
M  V30 927 C 98.7826 -1.52358 1.39981 0
M  V30 928 C 99.1976 -1.88799 -0.0054975 0
M  V30 929 O 98.5546 -1.54146 -0.976998 0
M  V30 930 C 98.6056 -2.81072 2.27333 0
M  V30 931 O 98.3266 -2.46178 3.62392 0
M  V30 932 C 99.8276 -3.75096 2.36259 0
M  V30 933 H 97.0476 -0.470806 0.478103 0
M  V30 934 H 99.5916 -0.907339 1.83269 0
M  V30 935 H 97.7466 -3.39026 1.87457 0
M  V30 936 H 98.1606 -3.28866 4.08592 0
M  V30 937 H 99.6346 -4.62305 3.01626 0
M  V30 938 H 100.112 -4.16892 1.38194 0
M  V30 939 H 100.718 -3.23061 2.76608 0
M  V30 940 N 99.0327 -1.24633 -0.964593 0
M  V30 941 C 100.261 -1.11501 -1.74285 0
M  V30 942 C 100.676 0.332165 -1.85855 0
M  V30 943 O 100.033 1.22903 -1.34911 0
M  V30 944 C 100.084 -1.75258 -3.16175 0
M  V30 945 O 99.8047 -3.14318 -3.05182 0
M  V30 946 C 101.306 -1.67776 -4.10324 0
M  V30 947 H 98.5257 -0.389407 -0.546446 0
M  V30 948 H 101.07 -1.64801 -1.21083 0
M  V30 949 H 99.2247 -1.25954 -3.66353 0
M  V30 950 H 99.6387 -3.4551 -3.94618 0
M  V30 951 H 101.113 -2.17064 -5.0753 0
M  V30 952 H 101.59 -0.639584 -4.34518 0
M  V30 953 H 102.196 -2.16522 -3.66058 0
M  V30 954 N 100.511 1.16574 -1.06058 0
M  V30 955 C 101.739 1.90952 -0.796552 0
M  V30 956 C 102.154 1.77302 0.648808 0
M  V30 957 O 101.511 1.11605 1.44397 0
M  V30 958 C 101.562 3.41736 -1.17894 0
M  V30 959 O 101.283 3.54975 -2.56758 0
M  V30 960 C 102.784 4.33169 -0.942308 0
M  V30 961 H 100.004 0.605594 -0.288959 0
M  V30 962 H 102.548 1.47777 -1.41358 0
M  V30 963 H 100.703 3.82623 -0.606491 0
M  V30 964 H 101.117 4.4846 -2.72 0
M  V30 965 H 102.591 5.37439 -1.25952 0
M  V30 966 H 103.068 4.3903 0.122078 0
M  V30 967 H 103.674 3.98007 -1.49902 0
M  V30 968 N 101.989 0.842826 1.3317 0
M  V30 969 C 102.919 0.294028 2.31641 0
M  V30 970 C 103.9 -0.600401 1.59151 0
M  V30 971 O 105.085 -0.523124 1.87022 0
M  V30 972 C 102.215 -0.528416 3.43257 0
M  V30 973 C 101.169 0.27056 4.27144 0
M  V30 974 C 100.495 -0.675881 5.30411 0
M  V30 975 C 101.795 1.48981 5.00602 0
M  V30 976 H 103.489 1.11681 2.77791 0
M  V30 977 H 101.035 0.538478 1.33553 0
M  V30 978 H 102.988 -0.922674 4.11175 0
M  V30 979 H 101.712 -1.38445 2.95805 0
M  V30 980 H 100.371 0.646427 3.60856 0
M  V30 981 H 100.019 -1.52842 4.79216 0
M  V30 982 H 99.7189 -0.145374 5.8742 0
M  V30 983 H 101.243 -1.06757 6.01195 0
M  V30 984 H 102.657 1.16849 5.61266 0
M  V30 985 H 101.054 1.95739 5.6728 0
M  V30 986 H 102.124 2.25746 4.29147 0
M  V30 987 N 103.467 -1.45747 0.599634 0
M  V30 988 C 104.713 -2.02592 0.0918643 0
M  V30 989 C 105.046 -1.46806 -1.27128 0
M  V30 990 O 104.321 -0.639658 -1.83681 0
M  V30 991 C 104.604 -3.60073 0.0443398 0
M  V30 992 C 104.457 -4.26208 1.43759 0
M  V30 993 C 105.776 -4.35309 -0.647608 0
M  V30 994 H 102.895 -0.736175 0.034857 0
M  V30 995 H 105.537 -1.73694 0.770081 0
M  V30 996 H 103.687 -3.84823 -0.533224 0
M  V30 997 H 105.359 -4.12668 2.06162 0
M  V30 998 H 103.602 -3.84916 2.00056 0
M  V30 999 H 104.273 -5.35069 1.35665 0
M  V30 1000 H 106.749 -4.15805 -0.156776 0
M  V30 1001 H 105.625 -5.45038 -0.649942 0
M  V30 1002 H 105.886 -4.07598 -1.71219 0
M  V30 1003 N 104.945 -0.338344 -1.53925 0
M  V30 1004 C 105.908 0.508299 -2.23493 0
M  V30 1005 C 106.908 1.03175 -1.23335 0
M  V30 1006 O 108.098 0.921826 -1.47811 0
M  V30 1007 C 105.23 1.70754 -2.95052 0
M  V30 1008 H 106.423 -0.100058 -2.99733 0
M  V30 1009 H 103.976 -0.0896198 -1.56043 0
M  V30 1010 H 104.711 2.35474 -2.22986 0
M  V30 1011 H 104.496 1.33946 -3.68512 0
M  V30 1012 H 105.986 2.30818 -3.48013 0
M  V30 1013 N 106.423 1.57458 -0.0668435 0
M  V30 1014 C 107.333 2.15937 0.916975 0
M  V30 1015 C 108.349 1.12123 1.33058 0
M  V30 1016 O 109.525 1.44366 1.40429 0
M  V30 1017 C 106.59 2.70547 2.16807 0
M  V30 1018 C 105.651 3.89215 1.81135 0
M  V30 1019 C 104.884 4.41211 3.0028 0
M  V30 1020 O 105.107 3.92225 4.14144 0
M  V30 1021 O 104.041 5.32605 2.80384 0
M  V30 1022 H 107.867 3.00354 0.449561 0
M  V30 1023 H 105.452 1.48584 0.155949 0
M  V30 1024 H 107.334 3.0557 2.90181 0
M  V30 1025 H 106.009 1.89192 2.62656 0
M  V30 1026 H 104.916 3.59054 1.05028 0
M  V30 1027 H 106.249 4.71848 1.40073 0
M  V30 1028 N 107.901 -0.206675 1.56239 0
M  V30 1029 C 108.831 -1.25909 1.96645 0
M  V30 1030 C 109.812 -1.48097 0.836734 0
M  V30 1031 O 110.997 -1.6003 1.10019 0
M  V30 1032 C 108.127 -2.6058 2.29599 0
M  V30 1033 C 107.081 -2.53024 3.452 0
M  V30 1034 C 106.407 -3.91861 3.63798 0
M  V30 1035 C 107.707 -2.06524 4.79734 0
M  V30 1036 H 109.401 -0.923369 2.84806 0
M  V30 1037 H 106.947 -0.442735 1.37025 0
M  V30 1038 H 108.9 -3.34375 2.56459 0
M  V30 1039 H 107.624 -2.95869 1.38307 0
M  V30 1040 H 106.283 -1.81684 3.18412 0
M  V30 1041 H 105.931 -4.24483 2.69857 0
M  V30 1042 H 105.631 -3.87683 4.4156 0
M  V30 1043 H 107.155 -4.67296 3.93022 0
M  V30 1044 H 108.569 -2.70072 5.05702 0
M  V30 1045 H 106.966 -2.13374 5.60885 0
M  V30 1046 H 108.036 -1.01802 4.74093 0
M  V30 1047 N 109.379 -1.50304 -0.473955 0
M  V30 1048 C 110.329 -1.65347 -1.56985 0
M  V30 1049 C 111.313 -0.508176 -1.52664 0
M  V30 1050 O 112.505 -0.762446 -1.59737 0
M  V30 1051 C 109.634 -1.74832 -2.95447 0
M  V30 1052 C 108.72 -2.95028 -3.04662 0
M  V30 1053 N 109.111 -4.18747 -2.83698 0
M  V30 1054 C 107.409 -2.93527 -3.35795 0
M  V30 1055 C 108.11 -4.99687 -2.97805 0
M  V30 1056 N 107.086 -4.33585 -3.2788 0
M  V30 1057 H 110.888 -2.58698 -1.39472 0
M  V30 1058 H 108.402 -1.47449 -0.680629 0
M  V30 1059 H 110.399 -1.83712 -3.7424 0
M  V30 1060 H 109.059 -0.826376 -3.14008 0
M  V30 1061 H 110.07 -4.48291 -2.59337 0
M  V30 1062 H 106.747 -2.10821 -3.60362 0
M  V30 1063 H 108.137 -6.08057 -2.85861 0
M  V30 1064 N 110.857 0.726932 -1.39834 0
M  V30 1065 C 111.789 1.85147 -1.35104 0
M  V30 1066 C 112.802 1.60736 -0.258392 0
M  V30 1067 O 113.991 1.70821 -0.517931 0
M  V30 1068 C 111.091 3.21332 -1.07697 0
M  V30 1069 C 110.264 3.73033 -2.28396 0
M  V30 1070 C 109.323 4.87802 -1.97322 0
M  V30 1071 O 108.349 5.01043 -2.70083 0
M  V30 1072 N 109.551 5.72768 -0.944273 0
M  V30 1073 H 112.316 1.89706 -2.32017 0
M  V30 1074 H 109.877 0.908006 -1.3404 0
M  V30 1075 H 111.869 3.95691 -0.849144 0
M  V30 1076 H 110.439 3.11992 -0.194909 0
M  V30 1077 H 109.659 2.89934 -2.6708 0
M  V30 1078 H 110.947 4.0431 -3.08887 0
M  V30 1079 H 110.345 5.64669 -0.341427 0
M  V30 1080 H 108.902 6.4716 -0.776346 0
M  V30 1081 N 112.336 1.25143 0.95797 0
M  V30 1082 C 113.584 1.09476 1.69881 0
M  V30 1083 C 113.905 -0.365502 1.91544 0
M  V30 1084 O 113.175 -1.25985 1.50015 0
M  V30 1085 H 111.755 0.402128 0.629525 0
M  V30 1086 H 114.417 1.57214 1.15194 0
M  V30 1087 H 113.513 1.60046 2.6794 0
M  V30 1088 N 113.814 -1.1601 1.06675 0
M  V30 1089 C 114.724 -2.24156 0.692179 0
M  V30 1090 C 115.74 -1.71507 -0.293513 0
M  V30 1091 O 116.916 -2.009 -0.141861 0
M  V30 1092 C 113.981 -3.46587 0.0884131 0
M  V30 1093 C 113.042 -4.14257 1.12646 0
M  V30 1094 C 112.275 -5.30844 0.551416 0
M  V30 1095 O 112.498 -5.66858 -0.634656 0
M  V30 1096 O 111.432 -5.87848 1.29298 0
M  V30 1097 H 115.258 -2.58513 1.59388 0
M  V30 1098 H 112.843 -1.23599 0.83926 0
M  V30 1099 H 114.725 -4.20679 -0.246361 0
M  V30 1100 H 113.4 -3.13994 -0.786712 0
M  V30 1101 H 112.307 -3.42118 1.51348 0
M  V30 1102 H 113.64 -4.50914 1.97325 0
M  V30 1103 N 115.292 -0.849877 -1.32721 0
M  V30 1104 C 116.708 -0.539102 -1.50219 0
M  V30 1105 C 116.908 0.931271 -1.78689 0
M  V30 1106 O 115.964 1.71455 -1.85363 0
M  V30 1107 C 117.277 -1.42196 -2.64954 0
M  V30 1108 C 118.825 -1.42189 -2.78839 0
M  V30 1109 C 119.3 -2.28985 -3.96648 0
M  V30 1110 N 120.791 -2.26754 -4.03902 0
M  V30 1111 C 121.526 -2.90644 -4.94281 0
M  V30 1112 N 121.022 -3.63629 -5.897 0
M  V30 1113 N 122.815 -2.80057 -4.87365 0
M  V30 1114 H 114.966 -1.80156 -1.12506 0
M  V30 1115 H 117.229 -0.769217 -0.554085 0
M  V30 1116 H 116.935 -2.46733 -2.50631 0
M  V30 1117 H 116.809 -1.10591 -3.60624 0
M  V30 1118 H 119.196 -0.38419 -2.92588 0
M  V30 1119 H 119.277 -1.77807 -1.83898 0
M  V30 1120 H 118.921 -3.32819 -3.83658 0
M  V30 1121 H 118.851 -1.90702 -4.90857 0
M  V30 1122 H 121.342 -1.73688 -3.3562 0
M  V30 1123 H 121.655 -4.09558 -6.55349 0
M  V30 1124 H 120 -3.67737 -5.89741 0
M  V30 1125 H 123.191 -2.22593 -4.11789 0
M  V30 1126 H 123.364 -3.30132 -5.57599 0
M  V30 1127 N 116.77 1.45427 -0.607355 0
M  V30 1128 C 117.68 2.34325 0.113463 0
M  V30 1129 C 118.696 1.51226 0.860617 0
M  V30 1130 O 119.872 1.84029 0.818255 0
M  V30 1131 C 116.937 3.28839 1.09844 0
M  V30 1132 C 115.998 4.27844 0.353271 0
M  V30 1133 C 115.231 5.17842 1.29133 0
M  V30 1134 O 115.454 5.11264 2.52913 0
M  V30 1135 O 114.388 5.96713 0.788523 0
M  V30 1136 H 118.214 2.97364 -0.617094 0
M  V30 1137 H 115.799 1.44807 -0.367619 0
M  V30 1138 H 117.681 3.8708 1.66575 0
M  V30 1139 H 116.356 2.68365 1.81003 0
M  V30 1140 H 115.263 3.7322 -0.256494 0
M  V30 1141 H 116.596 4.91173 -0.317822 0
M  V30 1142 N 118.248 0.346503 1.53744 0
M  V30 1143 C 119.476 -0.25041 2.05379 0
M  V30 1144 C 119.891 -1.43979 1.22129 0
M  V30 1145 O 119.248 -1.80677 0.257321 0
M  V30 1146 C 119.299 -0.662575 3.55376 0
M  V30 1147 O 119.02 0.479515 4.35468 0
M  V30 1148 C 120.521 -1.31989 4.23195 0
M  V30 1149 H 117.741 -0.0478198 0.669294 0
M  V30 1150 H 120.285 0.499346 1.9831 0
M  V30 1151 H 118.44 -1.36227 3.62658 0
M  V30 1152 H 118.854 0.15037 5.24284 0
M  V30 1153 H 120.328 -1.55902 5.29527 0
M  V30 1154 H 120.805 -2.27436 3.75725 0
M  V30 1155 H 121.411 -0.662154 4.20114 0
M  V30 1156 N 119.726 -1.57421 0.075193 0
M  V30 1157 C 120.972 -1.94716 -0.587998 0
M  V30 1158 C 121.327 -0.955205 -1.67014 0
M  V30 1159 O 120.62 0.0219842 -1.91587 0
M  V30 1160 C 120.814 -3.36428 -1.20626 0
M  V30 1161 C 120.643 -4.49317 -0.185541 0
M  V30 1162 C 119.413 -5.04772 0.23099 0
M  V30 1163 C 121.611 -5.11036 0.57854 0
M  V30 1164 N 119.593 -6.01204 1.24206 0
M  V30 1165 C 120.964 -6.02998 1.44199 0
M  V30 1166 C 123.019 -4.93844 0.634237 0
M  V30 1167 C 121.722 -6.79614 2.3562 0
M  V30 1168 C 123.748 -5.71106 1.53597 0
M  V30 1169 C 123.11 -6.6272 2.38709 0
M  V30 1170 H 119.209 -0.759536 -0.186089 0
M  V30 1171 H 121.793 -1.94097 0.153128 0
M  V30 1172 H 119.964 -3.37778 -1.9173 0
M  V30 1173 H 121.696 -3.60951 -1.8302 0
M  V30 1174 H 118.451 -4.73353 -0.152807 0
M  V30 1175 H 118.875 -6.54119 1.74521 0
M  V30 1176 H 123.517 -4.22799 -0.00960004 0
M  V30 1177 H 121.235 -7.49934 3.01038 0
M  V30 1178 H 124.821 -5.59824 1.58394 0
M  V30 1179 H 123.701 -7.2146 3.07352 0
M  V30 1180 N 121.204 0.198386 -1.56346 0
M  V30 1181 C 122.452 0.91747 -1.80075 0
M  V30 1182 C 122.773 1.83929 -0.647692 0
M  V30 1183 O 122.043 1.93029 0.334166 0
M  V30 1184 H 120.623 0.341774 -0.664228 0
M  V30 1185 H 123.285 0.204684 -1.93822 0
M  V30 1186 H 122.381 1.51055 -2.7311 0
M  V30 1187 N 122.682 1.50554 0.465978 0
M  V30 1188 C 123.629 1.6979 1.56333 0
M  V30 1189 C 124.599 0.539239 1.57103 0
M  V30 1190 O 125.784 0.770401 1.74555 0
M  V30 1191 C 122.924 1.80273 2.94271 0
M  V30 1192 C 122.037 3.07674 3.0325 0
M  V30 1193 C 121.172 3.08922 4.32135 0
M  V30 1194 C 120.211 4.30755 4.34875 0
M  V30 1195 N 119.348 4.29714 5.55239 0
M  V30 1196 H 124.188 2.63472 1.39235 0
M  V30 1197 H 121.725 1.30602 0.676873 0
M  V30 1198 H 123.683 1.84332 3.74269 0
M  V30 1199 H 122.313 0.900258 3.09992 0
M  V30 1200 H 121.365 3.13062 2.16094 0
M  V30 1201 H 122.677 3.97642 3.01135 0
M  V30 1202 H 121.831 3.11738 5.20485 0
M  V30 1203 H 120.57 2.16792 4.36866 0
M  V30 1204 H 119.575 4.28146 3.44922 0
M  V30 1205 H 120.8 5.24117 4.31831 0
M  V30 1206 H 118.746 3.4044 5.60746 0
M  V30 1207 H 118.663 5.13456 5.54886 0
M  V30 1208 H 119.931 4.36683 6.457 0
M  V30 1209 N 124.16 -0.719506 1.40217 0
M  V30 1210 C 125.107 -1.83359 1.40172 0
M  V30 1211 C 126.077 -1.64065 0.259206 0
M  V30 1212 O 127.262 -1.85254 0.456677 0
M  V30 1213 C 124.402 -3.2103 1.26624 0
M  V30 1214 C 123.515 -3.51923 2.50548 0
M  V30 1215 C 122.65 -4.79079 2.29471 0
M  V30 1216 C 121.689 -5.02863 3.48992 0
M  V30 1217 N 120.826 -6.2123 3.27135 0
M  V30 1218 H 125.666 -1.82733 2.35399 0
M  V30 1219 H 123.203 -0.892688 1.16917 0
M  V30 1220 H 125.161 -4.00524 1.16776 0
M  V30 1221 H 123.791 -3.20895 0.350176 0
M  V30 1222 H 122.843 -2.67014 2.70939 0
M  V30 1223 H 124.155 -3.6541 3.39525 0
M  V30 1224 H 123.309 -5.66582 2.16955 0
M  V30 1225 H 122.048 -4.67794 1.37913 0
M  V30 1226 H 121.053 -4.13816 3.6199 0
M  V30 1227 H 122.278 -5.16023 4.41472 0
M  V30 1228 H 120.224 -6.11204 2.38256 0
M  V30 1229 H 120.141 -6.35375 4.09675 0
M  V30 1230 H 121.409 -7.11532 3.18344 0
M  V30 1231 N 125.638 -1.25649 -0.95132 0
M  V30 1232 C 126.884 -1.10757 -1.69884 0
M  V30 1233 C 127.217 0.350061 -1.91019 0
M  V30 1234 O 126.492 1.25783 -1.48354 0
M  V30 1235 C 126.775 -1.86606 -3.07978 0
M  V30 1236 C 126.628 -3.40217 -2.94232 0
M  V30 1237 C 127.947 -1.65182 -4.07925 0
M  V30 1238 H 125.066 -0.40374 -0.616574 0
M  V30 1239 H 127.708 -1.54521 -1.10558 0
M  V30 1240 H 125.858 -1.49409 -3.58621 0
M  V30 1241 H 127.53 -3.87108 -2.50889 0
M  V30 1242 H 125.773 -3.67759 -2.30078 0
M  V30 1243 H 126.444 -3.88505 -3.92133 0
M  V30 1244 H 128.92 -1.9757 -3.66204 0
M  V30 1245 H 127.796 -2.20683 -5.02583 0
M  V30 1246 H 128.057 -0.593933 -4.38092 0
M  V30 1247 N 127.117 1.15442 -1.07289 0
M  V30 1248 C 128.394 1.82306 -0.708792 0
M  V30 1249 C 128.774 1.94991 0.808807 0
M  V30 1250 O 128.122 1.50085 1.72298 0
M  V30 1251 C 128.332 3.18695 -1.42247 0
M  V30 1252 C 129.68 3.94341 -1.57417 0
M  V30 1253 O 130.704 3.28247 -1.38319 0
M  V30 1254 O 129.563 5.12839 -1.88834 0
M  V30 1255 H 126.657 0.787628 -0.252132 0
M  V30 1256 H 129.203 1.22559 -1.17377 0
M  V30 1257 H 127.975 3.04557 -2.45684 0
M  V30 1258 H 127.598 3.86128 -0.948223 0
M  V30 1259 N 128.595 0.856903 1.32268 0
M  V30 1260 C 129.842 0.461386 1.97174 0
M  V30 1261 C 130.17 -0.983491 1.67803 0
M  V30 1262 O 129.425 -1.70541 0.959903 0
M  V30 1263 C 129.724 0.649919 3.51441 0
M  V30 1264 C 129.39 2.0656 4.00804 0
M  V30 1265 C 128.052 2.45279 4.13995 0
M  V30 1266 C 130.404 2.98947 4.26943 0
M  V30 1267 C 127.732 3.75653 4.50668 0
M  V30 1268 C 130.084 4.28822 4.65075 0
M  V30 1269 C 128.748 4.67472 4.76472 0
M  V30 1270 H 128.018 0.168833 0.72151 0
M  V30 1271 H 130.665 1.08739 1.57633 0
M  V30 1272 H 128.97 -0.0593018 3.91755 0
M  V30 1273 H 130.667 0.32391 3.9969 0
M  V30 1274 H 127.257 1.75495 3.91024 0
M  V30 1275 H 131.441 2.70265 4.16258 0
M  V30 1276 H 126.697 4.05379 4.57688 0
M  V30 1277 H 130.871 5.0047 4.84255 0
M  V30 1278 H 128.498 5.68539 5.04646 0
M  V30 1279 N 130.073 -1.45103 0.615059 0
M  V30 1280 C 131.003 -2.33339 -0.0865619 0
M  V30 1281 C 131.984 -1.4727 -0.851209 0
M  V30 1282 O 133.169 -1.76026 -0.820281 0
M  V30 1283 C 130.299 -3.30095 -1.07956 0
M  V30 1284 C 129.253 -4.25858 -0.427628 0
M  V30 1285 C 128.579 -5.12361 -1.5294 0
M  V30 1286 C 129.879 -5.18165 0.655944 0
M  V30 1287 H 131.573 -2.92254 0.650224 0
M  V30 1288 H 129.119 -1.40532 0.314138 0
M  V30 1289 H 131.072 -3.90698 -1.57901 0
M  V30 1290 H 129.796 -2.69355 -1.84703 0
M  V30 1291 H 128.455 -3.66564 0.0510292 0
M  V30 1292 H 128.103 -4.47984 -2.28734 0
M  V30 1293 H 127.803 -5.77238 -1.09865 0
M  V30 1294 H 129.327 -5.75833 -2.03098 0
M  V30 1295 H 130.741 -5.72796 0.240257 0
M  V30 1296 H 129.138 -5.91559 1.00888 0
M  V30 1297 H 130.208 -4.60144 1.52957 0
M  V30 1298 N 131.551 -0.354651 -1.53558 0
M  V30 1299 C 132.481 0.489091 -2.2832 0
M  V30 1300 C 133.462 1.09324 -1.30316 0
M  V30 1301 O 134.647 1.11255 -1.59173 0
M  V30 1302 C 131.777 1.63456 -3.0643 0
M  V30 1303 C 130.731 1.1582 -4.12031 0
M  V30 1304 C 130.057 2.39305 -4.7816 0
M  V30 1305 C 131.357 0.250731 -5.21698 0
M  V30 1306 H 133.051 -0.134614 -2.99097 0
M  V30 1307 H 130.597 -0.0661826 -1.43848 0
M  V30 1308 H 132.55 2.23136 -3.57475 0
M  V30 1309 H 131.274 2.28533 -2.33325 0
M  V30 1310 H 129.933 0.584146 -3.61916 0
M  V30 1311 H 129.581 3.02814 -4.01637 0
M  V30 1312 H 129.281 2.08109 -5.49513 0
M  V30 1313 H 130.805 2.99691 -5.31994 0
M  V30 1314 H 132.219 0.754695 -5.68311 0
M  V30 1315 H 130.616 0.0301468 -6.00092 0
M  V30 1316 H 131.686 -0.710125 -4.79672 0
M  V30 1317 N 133.029 1.57378 -0.0835403 0
M  V30 1318 C 134.254 1.98682 0.594987 0
M  V30 1319 C 134.679 0.961969 1.61641 0
M  V30 1320 O 134.037 -0.0709989 1.81161 0
M  V30 1321 C 134.085 3.38988 1.2296 0
M  V30 1322 O 133.189 3.39208 2.34546 0
M  V30 1323 H 132.53 0.646368 0.152002 0
M  V30 1324 H 135.06 2.03961 -0.161533 0
M  V30 1325 H 135.07 3.76431 1.57366 0
M  V30 1326 H 133.745 4.13107 0.481228 0
M  V30 1327 H 132.322 3.13548 2.01846 0
M  V30 1328 N 134.507 -0.190092 1.56449 0
M  V30 1329 C 135.753 -0.911052 1.81184 0
M  V30 1330 C 136.086 -1.82699 0.658396 0
M  V30 1331 O 135.361 -1.91491 -0.340775 0
M  V30 1332 C 135.644 -1.72297 3.16205 0
M  V30 1333 C 135.497 -0.831419 4.42049 0
M  V30 1334 C 136.816 -2.69454 3.47969 0
M  V30 1335 H 133.935 -0.32977 0.659106 0
M  V30 1336 H 136.577 -0.178169 1.89163 0
M  V30 1337 H 134.727 -2.34778 3.09534 0
M  V30 1338 H 136.399 -0.220929 4.60771 0
M  V30 1339 H 134.642 -0.138406 4.33579 0
M  V30 1340 H 135.313 -1.43461 5.33032 0
M  V30 1341 H 137.789 -2.17104 3.54972 0
M  V30 1342 H 136.665 -3.23342 4.43555 0
M  V30 1343 H 136.926 -3.48744 2.71717 0
M  V30 1344 N 135.985 -1.50799 -0.457987 0
M  V30 1345 C 137.234 -1.6168 -1.20593 0
M  V30 1346 C 137.547 -0.32888 -1.92815 0
M  V30 1347 O 138.753 -0.316773 -2.69646 0
M  V30 1348 C 137.209 -2.8545 -2.19195 0
M  V30 1349 C 136.817 -4.21168 -1.52715 0
M  V30 1350 C 138.561 -3.05681 -2.94549 0
M  V30 1351 C 136.468 -5.3611 -2.4968 0
M  V30 1352 H 135.398 -0.602134 -0.453818 0
M  V30 1353 H 138.049 -1.77245 -0.475031 0
M  V30 1354 H 136.431 -2.63472 -2.95632 0
M  V30 1355 H 137.605 -4.53449 -0.819775 0
M  V30 1356 H 135.92 -4.06648 -0.895922 0
M  V30 1357 H 138.517 -3.88727 -3.67145 0
M  V30 1358 H 138.86 -2.17929 -3.54701 0
M  V30 1359 H 139.393 -3.27901 -2.25223 0
M  V30 1360 H 136.132 -6.26057 -1.94249 0
M  V30 1361 H 135.652 -5.0823 -3.18532 0
M  V30 1362 H 137.331 -5.6722 -3.11241 0
M  V30 1363 N 137.463 0.71206 -1.40597 0
M  V30 1364 C 138.711 1.46907 -1.38791 0
M  V30 1365 C 139.032 1.94998 0.00780391 0
M  V30 1366 O 138.302 1.70587 0.963174 0
M  V30 1367 H 136.882 0.545043 -0.51082 0
M  V30 1368 H 139.544 0.843882 -1.75683 0
M  V30 1369 H 138.64 2.34021 -2.06496 0
M  V30 1370 N 138.941 1.26152 0.944643 0
M  V30 1371 C 140.171 1.14094 1.72239 0
M  V30 1372 C 140.579 -0.306931 1.86694 0
M  V30 1373 O 139.922 -1.22222 1.3714 0
M  V30 1374 C 139.984 1.73316 3.14963 0
M  V30 1375 C 139.648 3.2239 3.23904 0
M  V30 1376 C 140.645 4.19252 3.07447 0
M  V30 1377 C 138.33 3.62788 3.47405 0
M  V30 1378 C 140.324 5.54491 3.14353 0
M  V30 1379 C 138.011 4.98162 3.53947 0
M  V30 1380 C 139.009 5.93823 3.37436 0
M  V30 1381 O 138.697 7.26732 3.43679 0
M  V30 1382 H 138.429 0.398292 0.546205 0
M  V30 1383 H 140.983 1.67201 1.19301 0
M  V30 1384 H 139.213 1.14667 3.69308 0
M  V30 1385 H 140.902 1.56214 3.74636 0
M  V30 1386 H 141.668 3.8938 2.8915 0
M  V30 1387 H 137.547 2.88816 3.59313 0
M  V30 1388 H 141.091 6.29137 3.01384 0
M  V30 1389 H 136.988 5.27695 3.71763 0
M  V30 1390 H 137.756 7.3496 3.60245 0
M  V30 1391 N 140.419 -1.14872 1.07899 0
M  V30 1392 C 141.382 -2.17986 0.708161 0
M  V30 1393 C 142.382 -1.58775 -0.25442 0
M  V30 1394 O 143.572 -1.74166 -0.034645 0
M  V30 1395 C 140.704 -3.40871 0.0446929 0
M  V30 1396 H 141.897 -2.52306 1.62116 0
M  V30 1397 H 139.45 -1.2943 0.876218 0
M  V30 1398 H 140.185 -3.12124 -0.880281 0
M  V30 1399 H 139.97 -3.8511 0.737091 0
M  V30 1400 H 141.46 -4.17121 -0.19991 0
M  V30 1401 N 141.898 -0.863906 -1.31812 0
M  V30 1402 C 143.144 -0.472535 -1.97218 0
M  V30 1403 C 143.477 0.971394 -1.68159 0
M  V30 1404 O 142.752 1.68309 -0.974798 0
M  V30 1405 C 143.035 -0.723054 -3.52766 0
M  V30 1406 C 142.888 -2.21608 -3.91421 0
M  V30 1407 C 144.207 -0.185522 -4.39709 0
M  V30 1408 H 141.326 -0.173158 -0.71637 0
M  V30 1409 H 143.968 -1.08403 -1.56041 0
M  V30 1410 H 142.118 -0.202577 -3.87971 0
M  V30 1411 H 143.79 -2.80334 -3.66347 0
M  V30 1412 H 142.033 -2.691 -3.40246 0
M  V30 1413 H 142.704 -2.34203 -4.99853 0
M  V30 1414 H 145.18 -0.630726 -4.11292 0
M  V30 1415 H 144.056 -0.390306 -5.47511 0
M  V30 1416 H 144.317 0.912229 -4.32586 0
M  V30 1417 N 143.376 1.44774 -0.622745 0
M  V30 1418 C 144.653 1.95522 -0.0551974 0
M  V30 1419 C 145.033 1.5649 1.41683 0
M  V30 1420 O 144.381 0.834848 2.12703 0
M  V30 1421 C 144.591 3.4796 -0.269242 0
M  V30 1422 C 145.939 4.24306 -0.158014 0
M  V30 1423 O 146.963 3.55637 -0.200162 0
M  V30 1424 O 145.822 5.46471 -0.0558693 0
M  V30 1425 H 142.916 0.826556 0.0271015 0
M  V30 1426 H 145.462 1.54866 -0.693864 0
M  V30 1427 H 144.234 3.6939 -1.29099 0
M  V30 1428 H 143.857 3.95543 0.403966 0
M  V30 1429 N 144.854 0.36279 1.53368 0
M  V30 1430 C 145.784 -0.476976 2.28576 0
M  V30 1431 C 146.765 -1.08631 1.30894 0
M  V30 1432 O 147.95 -1.10409 1.59761 0
M  V30 1433 C 145.08 -1.61828 3.07293 0
M  V30 1434 C 144.034 -1.13633 4.1264 0
M  V30 1435 C 143.36 -2.36766 4.79423 0
M  V30 1436 C 144.66 -0.223061 5.21823 0
M  V30 1437 H 146.354 0.150474 2.99022 0
M  V30 1438 H 143.9 0.0738103 1.43811 0
M  V30 1439 H 145.853 -2.21237 3.58653 0
M  V30 1440 H 144.577 -2.27292 2.34533 0
M  V30 1441 H 143.236 -0.564945 3.62221 0
M  V30 1442 H 142.884 -3.0068 4.03238 0
M  V30 1443 H 142.584 -2.05192 5.50609 0
M  V30 1444 H 144.108 -2.96865 5.33576 0
M  V30 1445 H 145.522 -0.724545 5.68703 0
M  V30 1446 H 143.919 0.001678 6.001 0
M  V30 1447 H 144.989 0.735553 4.79289 0
M  V30 1448 N 146.332 -1.57332 0.0918853 0
M  V30 1449 C 147.58 -1.93853 -0.571446 0
M  V30 1450 C 147.901 -0.974212 -1.6892 0
M  V30 1451 O 147.171 -0.0257254 -1.95883 0
M  V30 1452 H 145.751 -0.715666 -0.214082 0
M  V30 1453 H 148.413 -1.94287 0.154464 0
M  V30 1454 H 147.509 -2.96191 -0.983729 0
M  V30 1455 N 147.81 0.181792 -1.56548 0
M  V30 1456 C 148.758 1.24461 -1.965 0
M  V30 1457 C 149.752 1.464 -0.852261 0
M  V30 1458 O 150.958 1.47103 -1.03733 0
M  V30 1459 H 147.333 0.418138 -0.625031 0
M  V30 1460 H 149.304 0.880714 -2.85107 0
M  V30 1461 C 148.053 2.57891 -2.33212 0
M  V30 1462 H 147.376 2.41829 -3.18369 0
M  V30 1463 H 148.816 3.3097 -2.65019 0
M  V30 1464 C 147.275 3.15871 -1.17163 0
M  V30 1465 O 147.805 3.9913 -0.453708 0
M  V30 1466 N 146.011 2.74808 -0.944936 0
M  V30 1467 H 145.558 2.07205 -1.53049 0
M  V30 1468 H 145.516 3.13939 -0.170286 0
M  V30 1469 N 149.288 1.51039 0.449983 0
M  V30 1470 C 150.534 1.63322 1.20223 0
M  V30 1471 C 150.867 0.34241 1.91158 0
M  V30 1472 O 150.142 -0.657344 1.83055 0
M  V30 1473 C 150.425 2.82801 2.22925 0
M  V30 1474 C 150.278 4.21823 1.56157 0
M  V30 1475 C 151.597 2.97807 3.24035 0
M  V30 1476 H 148.716 0.594407 0.435718 0
M  V30 1477 H 151.358 1.83489 0.493136 0
M  V30 1478 H 149.508 2.65738 2.834 0
M  V30 1479 H 151.18 4.50526 0.991162 0
M  V30 1480 H 149.423 4.25105 0.864172 0
M  V30 1481 H 150.094 5.01391 2.30891 0
M  V30 1482 H 152.57 3.13497 2.73603 0
M  V30 1483 H 151.446 3.82992 3.93202 0
M  V30 1484 H 151.707 2.09328 3.89402 0
M  V30 1485 N 150.766 -0.704594 1.40972 0
M  V30 1486 C 152.012 -1.46546 1.41053 0
M  V30 1487 C 152.367 -1.92393 0.0159714 0
M  V30 1488 O 151.66 -1.66017 -0.956506 0
M  V30 1489 C 151.854 -2.698 2.34399 0
M  V30 1490 C 151.683 -2.36008 3.82793 0
M  V30 1491 C 150.453 -2.26812 4.51536 0
M  V30 1492 C 152.651 -1.99565 4.74003 0
M  V30 1493 N 150.633 -1.8581 5.85105 0
M  V30 1494 C 152.004 -1.69251 5.96451 0
M  V30 1495 C 154.059 -1.86296 4.61734 0
M  V30 1496 C 152.762 -1.27003 7.07999 0
M  V30 1497 C 154.788 -1.45452 5.73234 0
M  V30 1498 C 154.15 -1.16043 6.94776 0
M  V30 1499 H 150.249 -0.533896 0.571383 0
M  V30 1500 H 152.833 -0.816061 1.76773 0
M  V30 1501 H 151.004 -3.32473 2.00789 0
M  V30 1502 H 152.736 -3.36214 2.25261 0
M  V30 1503 H 149.491 -2.44913 4.05357 0
M  V30 1504 H 149.915 -1.67817 6.55871 0
M  V30 1505 H 154.557 -2.0769 3.68273 0
M  V30 1506 H 152.275 -1.04353 8.01334 0
M  V30 1507 H 155.861 -1.35748 5.65742 0
M  V30 1508 H 154.741 -0.84915 7.79589 0
M  V30 1509 N 152.244 -1.26651 -0.937939 0
M  V30 1510 C 153.66 -1.03834 -1.21205 0
M  V30 1511 C 153.86 0.234502 -2.00131 0
M  V30 1512 O 152.916 0.942767 -2.3424 0
M  V30 1513 C 154.229 -2.27167 -1.97017 0
M  V30 1514 C 155.777 -2.32101 -2.09996 0
M  V30 1515 C 156.252 -3.55136 -2.8921 0
M  V30 1516 N 157.743 -3.55632 -2.96783 0
M  V30 1517 C 158.478 -4.475 -3.58512 0
M  V30 1518 N 157.974 -5.4966 -4.21717 0
M  V30 1519 N 159.767 -4.35145 -3.55816 0
M  V30 1520 H 151.918 -2.08398 -0.410391 0
M  V30 1521 H 154.181 -0.916031 -0.244114 0
M  V30 1522 H 153.887 -3.19765 -1.46434 0
M  V30 1523 H 153.761 -2.31672 -2.97671 0
M  V30 1524 H 156.148 -1.40015 -2.59769 0
M  V30 1525 H 156.229 -2.31605 -1.08594 0
M  V30 1526 H 155.873 -4.47553 -2.40123 0
M  V30 1527 H 155.803 -3.5288 -3.90875 0
M  V30 1528 H 158.294 -2.81743 -2.51852 0
M  V30 1529 H 158.607 -6.15943 -4.66727 0
M  V30 1530 H 156.952 -5.53514 -4.20294 0
M  V30 1531 H 160.143 -3.5455 -3.05634 0
M  V30 1532 H 160.316 -5.06934 -4.03636 0
M  V30 1533 N 153.722 1.14298 -1.08507 0
M  V30 1534 C 154.969 1.85359 -0.815373 0
M  V30 1535 C 155.297 1.83001 0.658865 0
M  V30 1536 O 154.552 1.25655 1.50031 0
M  V30 1537 C 154.851 3.33547 -1.28379 0
M  V30 1538 C 154.517 3.56093 -2.76602 0
M  V30 1539 C 153.179 3.61955 -3.17084 0
M  V30 1540 C 155.531 3.64834 -3.72217 0
M  V30 1541 C 152.859 3.74082 -4.51973 0
M  V30 1542 C 155.211 3.78487 -5.06883 0
M  V30 1543 C 153.875 3.82598 -5.46969 0
M  V30 1544 H 153.145 0.678276 -0.298366 0
M  V30 1545 H 155.792 1.35002 -1.35819 0
M  V30 1546 H 154.097 3.86191 -0.660593 0
M  V30 1547 H 155.794 3.86959 -1.05186 0
M  V30 1548 H 152.384 3.52179 -2.4427 0
M  V30 1549 H 156.568 3.59595 -3.42061 0
M  V30 1550 H 151.824 3.75527 -4.82483 0
M  V30 1551 H 155.998 3.84193 -5.80834 0
M  V30 1552 H 153.625 3.91747 -6.51489 0
M  V30 1553 N 155.201 0.870884 1.31352 0
M  V30 1554 C 156.612 0.534714 1.78879 0
M  V30 1555 C 156.963 -0.948423 1.71754 0
M  V30 1556 O 156.088 -1.74055 1.28584 0
M  V30 1557 C 156.683 0.963839 3.24801 0
M  V30 1558 C 155.242 0.679311 3.70219 0
M  V30 1559 C 154.389 1.15465 2.52117 0
M  V30 1560 H 157.34 1.05651 1.18421 0
M  V30 1561 H 157.361 0.286892 3.79417 0
M  V30 1562 H 156.873 2.04332 3.29955 0
M  V30 1563 H 154.974 -0.388769 3.70566 0
M  V30 1564 H 155.087 1.25698 4.62317 0
M  V30 1565 H 153.451 0.574383 2.48139 0
M  V30 1566 H 154.234 2.24157 2.60016 0
M  V30 1567 N 156.679 -1.44442 0.630414 0
M  V30 1568 C 157.909 -2.06115 0.141465 0
M  V30 1569 C 158.317 -1.47179 -1.1889 0
M  V30 1570 O 157.66 -0.588873 -1.74006 0
M  V30 1571 C 157.722 -3.59467 -0.0484355 0
M  V30 1572 C 157.386 -4.40864 1.20366 0
M  V30 1573 C 158.383 -4.74391 2.12719 0
M  V30 1574 C 156.068 -4.8125 1.43887 0
M  V30 1575 C 158.062 -5.47186 3.26904 0
M  V30 1576 C 155.749 -5.53795 2.5837 0
M  V30 1577 C 156.747 -5.86682 3.49705 0
M  V30 1578 O 156.435 -6.57749 4.62191 0
M  V30 1579 H 156.167 -0.671648 0.0765792 0
M  V30 1580 H 158.721 -1.86312 0.864695 0
M  V30 1581 H 156.951 -3.77758 -0.826803 0
M  V30 1582 H 158.64 -4.02909 -0.491849 0
M  V30 1583 H 159.406 -4.43728 1.95781 0
M  V30 1584 H 155.285 -4.55073 0.736853 0
M  V30 1585 H 158.829 -5.72773 3.98217 0
M  V30 1586 H 154.726 -5.83872 2.75251 0
M  V30 1587 H 155.494 -6.76217 4.61164 0
M  V30 1588 N 158.157 -0.370918 -1.53173 0
M  V30 1589 C 159.406 0.218249 -2.00516 0
M  V30 1590 C 159.719 1.49429 -1.26215 0
M  V30 1591 O 160.925 2.16239 -1.64174 0
M  V30 1592 C 159.381 0.43948 -3.57207 0
M  V30 1593 C 158.989 -0.822244 -4.4039 0
M  V30 1594 C 160.733 0.986012 -4.1289 0
M  V30 1595 C 158.64 -0.570304 -5.88644 0
M  V30 1596 H 157.57 0.0853333 -0.749156 0
M  V30 1597 H 160.221 -0.490483 -1.76823 0
M  V30 1598 H 158.603 1.20961 -3.77074 0
M  V30 1599 H 159.777 -1.59557 -4.32294 0
M  V30 1600 H 158.092 -1.29238 -3.95836 0
M  V30 1601 H 160.689 1.18991 -5.21292 0
M  V30 1602 H 161.032 1.94972 -3.6782 0
M  V30 1603 H 161.565 0.27592 -3.96842 0
M  V30 1604 H 158.304 -1.50449 -6.38001 0
M  V30 1605 H 157.824 0.164427 -5.99575 0
M  V30 1606 H 159.503 -0.19784 -6.46697 0
M  V30 1607 N 159.635 1.57281 -0.100228 0
M  V30 1608 C 160.875 1.96419 0.56558 0
M  V30 1609 C 161.239 0.981265 1.65031 0
M  V30 1610 O 162.44 1.26133 2.37369 0
M  V30 1611 C 160.711 3.39996 1.10171 0
M  V30 1612 S 162.27 4.01134 1.77867 0
M  V30 1613 H 159.088 0.68667 0.184406 0
M  V30 1614 H 161.69 1.94662 -0.180851 0
M  V30 1615 H 160.394 4.09296 0.300803 0
M  V30 1616 H 159.925 3.45361 1.88385 0
M  V30 1617 H 161.94 3.90358 3.06326 0
M  V30 1618 N 161.113 -0.173488 1.56642 0
M  V30 1619 C 162.343 -0.904781 1.85734 0
M  V30 1620 C 162.751 -1.76431 0.68328 0
M  V30 1621 O 162.094 -1.802 -0.356865 0
M  V30 1622 C 162.156 -1.83382 3.09211 0
M  V30 1623 C 161.82 -1.15411 4.42187 0
M  V30 1624 C 162.817 -0.520609 5.17287 0
M  V30 1625 C 160.502 -1.15151 4.88923 0
M  V30 1626 C 162.496 0.106412 6.37311 0
M  V30 1627 C 160.183 -0.520664 6.08878 0
M  V30 1628 C 161.181 0.107196 6.82916 0
M  V30 1629 O 160.869 0.728102 8.00596 0
M  V30 1630 H 160.601 -0.268408 0.62043 0
M  V30 1631 H 163.155 -0.179096 2.04618 0
M  V30 1632 H 161.385 -2.59976 2.86268 0
M  V30 1633 H 163.074 -2.43476 3.24768 0
M  V30 1634 H 163.84 -0.514606 4.82262 0
M  V30 1635 H 159.719 -1.62961 4.31236 0
M  V30 1636 H 163.263 0.597081 6.9504 0
M  V30 1637 H 159.16 -0.524242 6.43368 0
M  V30 1638 H 159.928 0.627138 8.16094 0
M  V30 1639 N 162.591 -1.51276 -0.441967 0
M  V30 1640 C 163.523 -1.68444 -1.55433 0
M  V30 1641 C 164.536 -0.565187 -1.52674 0
M  V30 1642 O 165.725 -0.839356 -1.57534 0
M  V30 1643 C 162.825 -1.67966 -2.94348 0
M  V30 1644 C 161.998 -2.964 -3.21661 0
M  V30 1645 C 161.057 -2.88171 -4.40277 0
M  V30 1646 O 160.083 -3.62119 -4.39157 0
M  V30 1647 N 161.285 -2.03706 -5.43584 0
M  V30 1648 H 164.05 -2.644 -1.41112 0
M  V30 1649 H 161.611 -1.49104 -0.630838 0
M  V30 1650 H 163.603 -1.60035 -3.71713 0
M  V30 1651 H 162.173 -0.796225 -3.0229 0
M  V30 1652 H 161.393 -3.18234 -2.32638 0
M  V30 1653 H 162.681 -3.81427 -3.36736 0
M  V30 1654 H 162.079 -1.42995 -5.47329 0
M  V30 1655 H 160.636 -2.01658 -6.1982 0
M  V30 1656 N 164.069 0.697108 -1.41344 0
M  V30 1657 C 165.017 1.83237 -1.43272 0
M  V30 1658 C 166.011 1.66522 -0.310947 0
M  V30 1659 O 167.217 1.73402 -0.482899 0
M  V30 1660 H 163.592 0.603802 -0.448249 0
M  V30 1661 H 165.563 1.78727 -2.38954 0
M  V30 1662 C 164.312 3.21245 -1.33029 0
M  V30 1663 H 163.635 3.34723 -2.18633 0
M  V30 1664 H 165.075 4.00763 -1.38439 0
M  V30 1665 C 163.534 3.36873 -0.0424635 0
M  V30 1666 O 164.064 3.91177 0.913421 0
M  V30 1667 N 162.27 2.90581 0.0331145 0
M  V30 1668 H 161.817 2.46577 -0.745506 0
M  V30 1669 H 161.775 3.01416 0.894199 0
M  V30 1670 N 165.547 1.27147 0.931209 0
M  V30 1671 C 166.795 1.13055 1.6752 0
M  V30 1672 C 167.116 -0.324791 1.92276 0
M  V30 1673 O 166.386 -1.22775 1.52654 0
M  V30 1674 H 164.966 0.415391 0.620854 0
M  V30 1675 H 167.628 1.59623 1.11833 0
M  V30 1676 H 166.724 1.65694 2.64485 0
M  V30 1677 N 167.025 -1.13721 1.09112 0
M  V30 1678 C 168.273 -1.84559 0.823562 0
M  V30 1679 C 168.594 -1.83754 -0.652658 0
M  V30 1680 O 167.864 -1.29102 -1.47342 0
M  V30 1681 H 166.444 -0.683376 0.301673 0
M  V30 1682 H 169.106 -1.37771 1.37859 0
M  V30 1683 H 168.202 -2.8917 1.17419 0
M  V30 1684 N 168.503 -0.877838 -1.30888 0
M  V30 1685 C 169.751 -0.491723 -1.96027 0
M  V30 1686 C 170.072 0.960827 -1.69685 0
M  V30 1687 O 169.342 1.67462 -1.01654 0
M  V30 1688 H 167.922 -0.17885 -0.725273 0
M  V30 1689 H 170.584 -1.11935 -1.59551 0
M  V30 1690 H 169.68 -0.656016 -3.05128 0
M  V30 1691 N 169.982 1.44106 -0.638065 0
M  V30 1692 C 170.945 2.29138 0.0531013 0
M  V30 1693 C 171.945 1.41409 0.765506 0
M  V30 1694 O 173.135 1.63206 0.609046 0
M  V30 1695 C 170.267 3.23144 1.08584 0
M  V30 1696 H 171.46 2.91739 -0.694883 0
M  V30 1697 H 169.013 1.51134 -0.398538 0
M  V30 1698 H 169.748 2.65408 1.86357 0
M  V30 1699 H 169.533 3.87804 0.578852 0
M  V30 1700 H 171.023 3.87004 1.56899 0
M  V30 1701 N 171.46 0.379036 1.52974 0
M  V30 1702 C 172.707 -0.206421 2.01445 0
M  V30 1703 C 173.035 -1.47668 1.26587 0
M  V30 1704 O 172.29 -1.92514 0.351675 0
M  V30 1705 C 172.589 -0.53096 3.53434 0
M  V30 1706 C 172.255 0.646546 4.46241 0
M  V30 1707 C 170.917 0.969604 4.7133 0
M  V30 1708 C 173.269 1.43479 5.01062 0
M  V30 1709 C 170.597 2.08263 5.48492 0
M  V30 1710 C 172.949 2.53834 5.7944 0
M  V30 1711 C 171.613 2.86659 6.02812 0
M  V30 1712 H 170.883 -0.0755349 0.73714 0
M  V30 1713 H 173.53 0.514271 1.84465 0
M  V30 1714 H 171.835 -1.33285 3.68432 0
M  V30 1715 H 173.532 -0.996417 3.88423 0
M  V30 1716 H 170.122 0.384734 4.2687 0
M  V30 1717 H 174.306 1.19844 4.81613 0
M  V30 1718 H 169.562 2.34078 5.64816 0
M  V30 1719 H 173.736 3.15319 6.20924 0
M  V30 1720 H 171.363 3.73026 6.62387 0
M  V30 1721 N 172.938 -1.57226 0.108567 0
M  V30 1722 C 173.868 -2.17778 -0.84232 0
M  V30 1723 C 174.849 -1.11487 -1.2847 0
M  V30 1724 O 176.034 -1.39681 -1.34918 0
M  V30 1725 C 173.164 -2.76888 -2.09644 0
M  V30 1726 C 172.118 -3.88669 -1.79221 0
M  V30 1727 C 171.444 -4.34541 -3.11574 0
M  V30 1728 C 172.744 -5.11251 -1.06864 0
M  V30 1729 H 174.438 -2.97489 -0.337774 0
M  V30 1730 H 171.984 -1.43097 -0.161025 0
M  V30 1731 H 173.937 -3.17904 -2.76614 0
M  V30 1732 H 172.661 -1.94451 -2.62405 0
M  V30 1733 H 171.32 -3.48213 -1.14644 0
M  V30 1734 H 170.968 -3.48977 -3.62249 0
M  V30 1735 H 170.668 -5.09914 -2.91996 0
M  V30 1736 H 172.192 -4.782 -3.7968 0
M  V30 1737 H 173.606 -5.49352 -1.63968 0
M  V30 1738 H 172.003 -5.9214 -0.974178 0
M  V30 1739 H 173.073 -4.8487 -0.0536168 0
M  V30 1740 N 174.416 0.165178 -1.56732 0
M  V30 1741 C 175.346 1.20651 -1.99914 0
M  V30 1742 C 176.327 1.45827 -0.875705 0
M  V30 1743 O 177.512 1.57057 -1.14223 0
M  V30 1744 C 174.642 2.54401 -2.36427 0
M  V30 1745 C 173.596 2.43782 -3.51787 0
M  V30 1746 C 172.922 3.82078 -3.7406 0
M  V30 1747 C 174.222 1.93732 -4.85041 0
M  V30 1748 H 175.916 0.847534 -2.87154 0
M  V30 1749 H 173.462 0.40625 -1.38151 0
M  V30 1750 H 175.415 3.27458 -2.65234 0
M  V30 1751 H 174.139 2.92098 -1.46103 0
M  V30 1752 H 172.798 1.73178 -3.23117 0
M  V30 1753 H 172.446 4.17179 -2.81017 0
M  V30 1754 H 172.146 3.7584 -4.51684 0
M  V30 1755 H 173.67 4.56712 -4.05274 0
M  V30 1756 H 175.084 2.56569 -5.12684 0
M  V30 1757 H 173.481 1.98428 -5.66345 0
M  V30 1758 H 174.551 0.891962 -4.76626 0
M  V30 1759 N 175.894 1.51508 0.433938 0
M  V30 1760 C 177.305 1.56784 1.01369 0
M  V30 1761 C 177.656 0.393349 1.92217 0
M  V30 1762 O 176.781 -0.489441 2.10792 0
M  V30 1763 C 177.376 2.84144 1.8452 0
M  V30 1764 C 175.935 2.9198 2.37539 0
M  V30 1765 C 175.082 2.51482 1.16843 0
M  V30 1766 H 178.033 1.57236 0.215081 0
M  V30 1767 H 178.054 2.68098 2.70007 0
M  V30 1768 H 177.566 3.69607 1.18373 0
M  V30 1769 H 175.667 2.10955 3.0713 0
M  V30 1770 H 175.78 3.95704 2.70103 0
M  V30 1771 H 174.144 2.04758 1.51481 0
M  V30 1772 H 174.927 3.39293 0.523015 0
M  V30 1773 N 177.372 -0.689602 1.41712 0
M  V30 1774 C 178.602 -1.47613 1.44548 0
M  V30 1775 C 179.01 -1.89132 0.0509034 0
M  V30 1776 O 178.353 -1.57741 -0.94146 0
M  V30 1777 C 178.415 -2.76596 2.2964 0
M  V30 1778 C 178.079 -2.57245 3.77722 0
M  V30 1779 C 179.076 -2.22804 4.69739 0
M  V30 1780 C 176.761 -2.727 4.2183 0
M  V30 1781 C 178.755 -2.04064 6.03851 0
M  V30 1782 C 176.442 -2.53576 5.56006 0
M  V30 1783 C 177.44 -2.1931 6.46832 0
M  V30 1784 O 177.128 -2.00359 7.78532 0
M  V30 1785 H 176.86 -0.461227 0.494212 0
M  V30 1786 H 179.414 -0.856045 1.86711 0
M  V30 1787 H 177.644 -3.41033 1.82301 0
M  V30 1788 H 179.333 -3.38424 2.24107 0
M  V30 1789 H 180.099 -2.10473 4.36951 0
M  V30 1790 H 175.978 -2.98353 3.51435 0
M  V30 1791 H 179.522 -1.77241 6.74708 0
M  V30 1792 H 175.419 -2.65499 5.88371 0
M  V30 1793 H 176.187 -2.15075 7.89737 0
M  V30 1794 N 178.85 -1.27639 -0.924453 0
M  V30 1795 C 180.078 -1.16989 -1.70649 0
M  V30 1796 C 180.493 0.272869 -1.86818 0
M  V30 1797 O 179.85 1.18549 -1.38753 0
M  V30 1798 C 179.901 -1.85229 -3.10439 0
M  V30 1799 O 179.622 -3.23868 -2.95028 0
M  V30 1800 C 181.123 -1.80746 -4.04779 0
M  V30 1801 H 178.343 -0.406595 -0.53378 0
M  V30 1802 H 180.887 -1.68569 -1.15778 0
M  V30 1803 H 179.042 -1.37545 -3.6216 0
M  V30 1804 H 179.456 -3.57889 -3.83426 0
M  V30 1805 H 180.93 -2.33101 -5.00368 0
M  V30 1806 H 181.407 -0.777499 -4.32263 0
M  V30 1807 H 182.013 -2.28059 -3.58984 0
M  V30 1808 N 180.328 1.1314 -1.09713 0
M  V30 1809 C 181.577 1.83838 -0.829851 0
M  V30 1810 C 181.89 1.84599 0.646728 0
M  V30 1811 O 183.096 2.51218 1.02965 0
M  V30 1812 C 181.552 3.30069 -1.43466 0
M  V30 1813 C 181.16 3.37688 -2.94399 0
M  V30 1814 C 182.904 4.05788 -1.24645 0
M  V30 1815 C 180.811 4.78209 -3.47952 0
M  V30 1816 H 179.741 0.68877 -0.306777 0
M  V30 1817 H 182.392 1.27448 -1.3202 0
M  V30 1818 H 180.774 3.8628 -0.871996 0
M  V30 1819 H 181.948 2.91456 -3.56918 0
M  V30 1820 H 180.263 2.75436 -3.12289 0
M  V30 1821 H 182.86 5.09535 -1.62107 0
M  V30 1822 H 183.203 4.15878 -0.187357 0
M  V30 1823 H 183.736 3.55915 -1.77678 0
M  V30 1824 H 180.475 4.73311 -4.53495 0
M  V30 1825 H 179.995 5.24924 -2.90198 0
M  V30 1826 H 181.674 5.47133 -3.45332 0
M  V30 1827 N 181.806 0.884767 1.30421 0
M  V30 1828 C 182.739 0.295999 2.26272 0
M  V30 1829 C 183.717 -0.58332 1.51777 0
M  V30 1830 O 184.901 -0.53346 1.80794 0
M  V30 1831 C 182.028 -0.57944 3.33707 0
M  V30 1832 C 181.074 0.230525 4.25877 0
M  V30 1833 S 181.907 1.61867 5.1045 0
M  V30 1834 C 183.063 0.749756 6.21393 0
M  V30 1835 H 183.296 1.10848 2.75862 0
M  V30 1836 H 180.829 0.684178 1.38414 0
M  V30 1837 H 182.787 -1.07879 3.96071 0
M  V30 1838 H 181.448 -1.36601 2.82841 0
M  V30 1839 H 180.641 -0.437542 5.02097 0
M  V30 1840 H 180.243 0.662493 3.68086 0
M  V30 1841 H 182.535 -0.0333547 6.77492 0
M  V30 1842 H 183.478 1.48356 6.92384 0
M  V30 1843 H 183.886 0.310751 5.63644 0
M  V30 1844 N 183.284 -1.43765 0.645699 0
M  V30 1845 C 184.247 -2.29163 -0.0409488 0
M  V30 1846 C 185.247 -1.41813 -0.757996 0
M  V30 1847 O 186.437 -1.63527 -0.600382 0
M  V30 1848 C 183.569 -3.23716 -1.06869 0
M  V30 1849 H 184.762 -2.91366 0.710345 0
M  V30 1850 H 182.315 -1.5092 0.406547 0
M  V30 1851 H 183.05 -2.66393 -1.84947 0
M  V30 1852 H 182.835 -3.88105 -0.558277 0
M  V30 1853 H 184.325 -3.87831 -1.54845 0
M  V30 1854 N 184.763 -0.387143 -1.52771 0
M  V30 1855 C 186.012 0.19697 -2.00736 0
M  V30 1856 C 186.325 1.48082 -1.27793 0
M  V30 1857 O 187.531 2.14485 -1.66458 0
M  V30 1858 C 185.987 0.401568 -3.57653 0
M  V30 1859 C 185.595 -0.868907 -4.39493 0
M  V30 1860 C 187.339 0.942164 -4.13912 0
M  V30 1861 C 185.246 -0.632705 -5.88006 0
M  V30 1862 H 184.176 0.0773827 -0.750019 0
M  V30 1863 H 186.827 -0.50921 -1.76293 0
M  V30 1864 H 185.209 1.16954 -3.78335 0
M  V30 1865 H 186.383 -1.64133 -4.30577 0
M  V30 1866 H 184.698 -1.33429 -3.94443 0
M  V30 1867 H 187.295 1.13455 -5.22525 0
M  V30 1868 H 187.638 1.9106 -3.69867 0
M  V30 1869 H 188.171 0.233814 -3.97112 0
M  V30 1870 H 184.91 -1.57208 -6.36369 0
M  V30 1871 H 184.43 0.100825 -5.99715 0
M  V30 1872 H 186.109 -0.26642 -6.46451 0
M  V30 1873 N 186.241 1.57166 -0.116904 0
M  V30 1874 C 187.488 1.95123 0.541603 0
M  V30 1875 C 187.816 1.00006 1.6682 0
M  V30 1876 O 187.071 0.0235658 1.95686 0
M  V30 1877 C 187.37 3.39508 1.11664 0
M  V30 1878 C 187.036 4.50762 0.111606 0
M  V30 1879 C 185.698 4.80918 -0.164758 0
M  V30 1880 C 188.05 5.18036 -0.573438 0
M  V30 1881 C 185.378 5.75666 -1.13249 0
M  V30 1882 C 187.73 6.13824 -1.52978 0
M  V30 1883 C 186.394 6.42374 -1.81415 0
M  V30 1884 H 185.664 0.714005 0.198187 0
M  V30 1885 H 188.311 1.9048 -0.197365 0
M  V30 1886 H 186.616 3.40835 1.93232 0
M  V30 1887 H 188.313 3.66189 1.63422 0
M  V30 1888 H 184.903 4.27272 0.337192 0
M  V30 1889 H 189.087 4.94896 -0.373092 0
M  V30 1890 H 184.343 5.96092 -1.35958 0
M  V30 1891 H 188.517 6.65039 -2.06629 0
M  V30 1892 H 186.144 7.15599 -2.56557 0
M  V30 1893 N 187.719 -0.156864 1.56817 0
M  V30 1894 C 188.967 -0.869404 1.82444 0
M  V30 1895 C 189.288 -1.82147 0.69623 0
M  V30 1896 O 188.558 -1.93847 -0.28287 0
M  V30 1897 H 187.138 -0.324043 0.673056 0
M  V30 1898 H 189.8 -0.153224 1.94297 0
M  V30 1899 H 188.896 -1.43761 2.77019 0
M  V30 1900 N 189.197 -1.51736 -0.425897 0
M  V30 1901 C 190.445 -1.64644 -1.17204 0
M  V30 1902 C 190.766 -0.370486 -1.91448 0
M  V30 1903 O 190.036 0.614088 -1.86026 0
M  V30 1904 H 188.616 -0.606819 -0.435638 0
M  V30 1905 H 191.278 -1.88713 -0.487177 0
M  V30 1906 H 190.374 -2.47958 -1.89534 0
M  V30 1907 N 190.675 0.682077 -1.42076 0
M  V30 1908 C 191.924 1.43786 -1.41451 0
M  V30 1909 C 192.237 1.95574 -0.0317074 0
M  V30 1910 O 193.443 2.71326 0.0971462 0
M  V30 1911 C 191.899 2.60071 -2.48779 0
M  V30 1912 C 191.507 2.15013 -3.93031 0
M  V30 1913 C 193.251 3.37626 -2.57311 0
M  V30 1914 C 191.158 3.28336 -4.91883 0
M  V30 1915 H 190.088 0.540143 -0.526082 0
M  V30 1916 H 192.739 0.739157 -1.67955 0
M  V30 1917 H 191.121 3.32275 -2.15429 0
M  V30 1918 H 192.295 1.5001 -4.35699 0
M  V30 1919 H 190.61 1.50416 -3.88284 0
M  V30 1920 H 193.207 4.22012 -3.28345 0
M  V30 1921 H 193.55 3.83727 -1.61429 0
M  V30 1922 H 194.083 2.72488 -2.89819 0
M  V30 1923 H 190.822 2.87234 -5.89217 0
M  V30 1924 H 190.342 3.92145 -4.53853 0
M  V30 1925 H 192.021 3.93913 -5.13265 0
M  V30 1926 N 192.153 1.28127 0.917671 0
M  V30 1927 C 193.564 1.13622 1.48145 0
M  V30 1928 C 193.915 -0.275207 1.9426 0
M  V30 1929 O 193.04 -1.1691 1.82102 0
M  V30 1930 C 193.635 2.05648 2.69248 0
M  V30 1931 C 192.194 1.95219 3.21818 0
M  V30 1932 C 191.341 1.97618 1.94532 0
M  V30 1933 H 194.292 1.40874 0.730772 0
M  V30 1934 H 194.313 1.61818 3.44377 0
M  V30 1935 H 193.825 3.08365 2.35653 0
M  V30 1936 H 191.926 0.955244 3.60147 0
M  V30 1937 H 192.039 2.81976 3.87333 0
M  V30 1938 H 190.403 1.41973 2.11461 0
M  V30 1939 H 191.186 3.02007 1.63238 0
M  V30 1940 N 193.631 -1.12557 1.10312 0
M  V30 1941 C 194.561 -2.20341 0.772798 0
M  V30 1942 C 195.542 -1.68198 -0.25365 0
M  V30 1943 O 196.727 -1.93831 -0.119699 0
M  V30 1944 C 193.857 -3.46709 0.202443 0
M  V30 1945 C 192.811 -4.11996 1.15943 0
M  V30 1946 C 192.137 -5.328 0.450345 0
M  V30 1947 C 193.437 -4.5828 2.50552 0
M  V30 1948 H 195.131 -2.48229 1.674 0
M  V30 1949 H 192.677 -1.19308 0.806326 0
M  V30 1950 H 194.63 -4.2138 -0.0407752 0
M  V30 1951 H 193.354 -3.18245 -0.734001 0
M  V30 1952 H 192.013 -3.39305 1.38808 0
M  V30 1953 H 191.661 -5.00602 -0.490531 0
M  V30 1954 H 191.361 -5.7743 1.08851 0
M  V30 1955 H 192.885 -6.10219 0.215642 0
M  V30 1956 H 194.299 -5.2433 2.31843 0
M  V30 1957 H 192.696 -5.13683 3.10242 0
M  V30 1958 H 193.766 -3.72329 3.10643 0
M  V30 1959 N 195.109 -0.891671 -1.2995 0
M  V30 1960 C 196.356 -0.513501 -1.95881 0
M  V30 1961 C 196.684 0.938655 -1.70351 0
M  V30 1962 O 195.939 1.67936 -1.00478 0
M  V30 1963 C 196.238 -0.742868 -3.49594 0
M  V30 1964 C 195.904 -2.17114 -3.95186 0
M  V30 1965 C 194.566 -2.56169 -4.07346 0
M  V30 1966 C 196.918 -3.10162 -4.18866 0
M  V30 1967 C 194.246 -3.87469 -4.4055 0
M  V30 1968 C 196.598 -4.41001 -4.53542 0
M  V30 1969 C 195.262 -4.79941 -4.63911 0
M  V30 1970 H 194.532 -0.187903 -0.71678 0
M  V30 1971 H 197.179 -1.1288 -1.54694 0
M  V30 1972 H 195.484 -0.044586 -3.91775 0
M  V30 1973 H 197.181 -0.429767 -3.9869 0
M  V30 1974 H 193.771 -1.85801 -3.86233 0
M  V30 1975 H 197.955 -2.81206 -4.08946 0
M  V30 1976 H 193.211 -4.17371 -4.46779 0
M  V30 1977 H 197.385 -5.13133 -4.70815 0
M  V30 1978 H 195.012 -5.81719 -4.89395 0
M  V30 1979 N 196.587 1.43421 -0.653314 0
M  V30 1980 C 197.817 2.05864 -0.174238 0
M  V30 1981 C 198.225 1.49052 1.16534 0
M  V30 1982 O 197.568 0.616481 1.73047 0
M  V30 1983 C 197.63 3.59499 -0.00875873 0
M  V30 1984 C 197.294 4.38893 -1.27364 0
M  V30 1985 C 198.291 4.70947 -2.20239 0
M  V30 1986 C 195.976 4.789 -1.51525 0
M  V30 1987 C 197.97 5.41916 -3.35568 0
M  V30 1988 C 195.657 5.49614 -2.67147 0
M  V30 1989 C 196.655 5.81044 -3.58994 0
M  V30 1990 O 196.343 6.50313 -4.72597 0
M  V30 1991 H 196.075 0.670345 -0.0872549 0
M  V30 1992 H 198.629 1.84913 -0.894226 0
M  V30 1993 H 196.859 3.79025 0.7666 0
M  V30 1994 H 198.548 4.0364 0.427687 0
M  V30 1995 H 199.314 4.40558 -2.02815 0
M  V30 1996 H 195.193 4.53843 -0.809158 0
M  V30 1997 H 198.737 5.66365 -4.07279 0
M  V30 1998 H 194.634 5.79419 -2.84505 0
M  V30 1999 H 195.402 6.68795 -4.71864 0
M  V30 2000 N 198.065 0.39524 1.52563 0
M  V30 2001 C 198.998 -0.4813 2.23067 0
M  V30 2002 C 199.976 -1.05927 1.23362 0
M  V30 2003 O 201.16 -1.10979 1.52368 0
M  V30 2004 C 198.287 -1.66676 2.9485 0
M  V30 2005 C 197.333 -1.21348 4.08873 0
M  V30 2006 S 198.166 -0.190102 5.35162 0
M  V30 2007 C 199.322 -1.38121 6.1047 0
M  V30 2008 H 199.555 0.117381 2.97068 0
M  V30 2009 H 197.088 0.179458 1.53354 0
M  V30 2010 H 199.046 -2.3466 3.36816 0
M  V30 2011 H 197.707 -2.23676 2.20518 0
M  V30 2012 H 196.9 -2.09877 4.58222 0
M  V30 2013 H 196.502 -0.612486 3.68951 0
M  V30 2014 H 198.794 -2.30726 6.37002 0
M  V30 2015 H 199.737 -0.928521 7.01986 0
M  V30 2016 H 200.145 -1.60071 5.41329 0
M  V30 2017 N 199.544 -1.57102 0.125237 0
M  V30 2018 C 200.454 -2.19191 -0.8362 0
M  V30 2019 C 201.47 -1.16985 -1.28805 0
M  V30 2020 O 202.646 -1.49479 -1.34974 0
M  V30 2021 C 199.711 -2.78407 -2.06617 0
M  V30 2022 C 198.772 -3.9567 -1.66565 0
M  V30 2023 C 198.005 -4.52052 -2.83698 0
M  V30 2024 O 198.228 -4.07326 -3.99302 0
M  V30 2025 O 197.162 -5.42645 -2.60423 0
M  V30 2026 H 200.988 -3.01816 -0.337776 0
M  V30 2027 H 198.573 -1.4906 -0.100695 0
M  V30 2028 H 200.455 -3.16129 -2.7864 0
M  V30 2029 H 199.13 -1.9881 -2.55453 0
M  V30 2030 H 198.037 -3.62705 -0.916296 0
M  V30 2031 H 199.37 -4.76722 -1.22464 0
M  V30 2032 N 201.022 0.148545 -1.56898 0
M  V30 2033 C 201.952 1.18524 -2.01182 0
M  V30 2034 C 202.933 1.4489 -0.891123 0
M  V30 2035 O 204.118 1.55836 -1.15882 0
M  V30 2036 C 201.248 2.51879 -2.39112 0
M  V30 2037 C 200.202 2.40038 -3.54353 0
M  V30 2038 C 199.528 3.78089 -3.78091 0
M  V30 2039 C 200.828 1.88577 -4.87069 0
M  V30 2040 H 202.522 0.817029 -2.88036 0
M  V30 2041 H 200.068 0.391575 -1.38574 0
M  V30 2042 H 202.021 3.24627 -2.68692 0
M  V30 2043 H 200.745 2.90532 -1.49193 0
M  V30 2044 H 199.404 1.69742 -3.24936 0
M  V30 2045 H 199.052 4.14175 -2.85426 0
M  V30 2046 H 198.752 3.71028 -4.55645 0
M  V30 2047 H 200.276 4.52387 -4.10095 0
M  V30 2048 H 201.69 2.51117 -5.15377 0
M  V30 2049 H 200.087 1.9241 -5.68417 0
M  V30 2050 H 201.157 0.84136 -4.77545 0
M  V30 2051 N 202.5 1.5196 0.417844 0
M  V30 2052 C 203.463 1.74065 1.49111 0
M  V30 2053 C 204.463 0.610537 1.48758 0
M  V30 2054 O 205.653 0.87832 1.50437 0
M  V30 2055 C 202.785 1.81502 2.88565 0
M  V30 2056 H 203.978 2.69869 1.30807 0
M  V30 2057 H 201.531 1.42244 0.647785 0
M  V30 2058 H 202.266 0.875813 3.1225 0
M  V30 2059 H 202.051 2.63651 2.90225 0
M  V30 2060 H 203.541 2.00376 3.66387 0
M  V30 2061 N 203.978 -0.674533 1.42435 0
M  V30 2062 C 204.908 -1.80009 1.48724 0
M  V30 2063 C 205.889 -1.6659 0.343793 0
M  V30 2064 O 207.074 -1.86007 0.558137 0
M  V30 2065 C 204.204 -3.18306 1.38919 0
M  V30 2066 C 203.158 -3.46461 2.51294 0
M  V30 2067 C 202.484 -4.84335 2.26547 0
M  V30 2068 C 203.784 -3.43328 3.93603 0
M  V30 2069 H 205.478 -1.75004 2.42928 0
M  V30 2070 H 203.024 -0.840533 1.16923 0
M  V30 2071 H 204.977 -3.9678 1.41927 0
M  V30 2072 H 203.701 -3.2399 0.412094 0
M  V30 2073 H 202.36 -2.70348 2.47604 0
M  V30 2074 H 202.008 -4.86669 1.2713 0
M  V30 2075 H 201.708 -5.04136 3.01861 0
M  V30 2076 H 203.232 -5.65094 2.31304 0
M  V30 2077 H 204.646 -4.11772 3.98894 0
M  V30 2078 H 203.043 -3.74664 4.68771 0
M  V30 2079 H 204.113 -2.41897 4.20255 0
M  V30 2080 N 205.456 -1.28612 -0.910864 0
M  V30 2081 C 206.704 -1.15705 -1.65701 0
M  V30 2082 C 207.025 0.29416 -1.92769 0
M  V30 2083 O 206.295 1.20331 -1.54588 0
M  V30 2084 H 204.875 -0.425216 -0.614167 0
M  V30 2085 H 207.537 -1.61381 -1.0928 0
M  V30 2086 H 206.633 -1.6988 -2.61815 0
M  V30 2087 N 206.934 1.1197 -1.10907 0
M  V30 2088 C 207.866 2.17592 -0.720175 0
M  V30 2089 C 208.879 1.60938 0.245495 0
M  V30 2090 O 210.068 1.78476 0.0292245 0
M  V30 2091 C 207.168 3.38873 -0.0427917 0
M  V30 2092 C 206.341 4.25006 -1.03388 0
M  V30 2093 C 205.4 5.24774 -0.387075 0
M  V30 2094 O 204.426 5.59631 -1.03934 0
M  V30 2095 N 205.628 5.74208 0.852407 0
M  V30 2096 H 208.393 2.51567 -1.62893 0
M  V30 2097 H 205.954 1.27439 -0.998543 0
M  V30 2098 H 207.946 4.02703 0.401501 0
M  V30 2099 H 206.516 3.03007 0.768456 0
M  V30 2100 H 205.736 3.57716 -1.65629 0
M  V30 2101 H 207.024 4.79397 -1.70458 0
M  V30 2102 H 206.422 5.48062 1.40161 0
M  V30 2103 H 204.979 6.39901 1.23977 0
M  V30 2104 N 208.412 0.89855 1.29475 0
M  V30 2105 C 209.642 0.538479 1.99459 0
M  V30 2106 C 210.05 -0.880922 1.67441 0
M  V30 2107 O 209.393 -1.59283 0.915127 0
M  V30 2108 C 209.455 0.649564 3.53583 0
M  V30 2109 C 209.119 2.03573 4.09154 0
M  V30 2110 C 210.116 3.00675 4.24135 0
M  V30 2111 C 207.801 2.3448 4.44212 0
M  V30 2112 C 209.795 4.26809 4.73405 0
M  V30 2113 C 207.482 3.60857 4.93179 0
M  V30 2114 C 208.48 4.56836 5.0773 0
M  V30 2115 O 208.168 5.80969 5.55635 0
M  V30 2116 H 207.9 0.205372 0.644048 0
M  V30 2117 H 210.454 1.20958 1.66007 0
M  V30 2118 H 208.684 -0.0785592 3.8662 0
M  V30 2119 H 210.373 0.29881 4.04799 0
M  V30 2120 H 211.139 2.78112 3.97339 0
M  V30 2121 H 207.018 1.60534 4.32145 0
M  V30 2122 H 210.562 5.0173 4.84678 0
M  V30 2123 H 206.459 3.83251 5.19412 0
M  V30 2124 H 207.227 5.83542 5.73952 0
M  V30 2125 N 209.89 -1.43072 0.660911 0
M  V30 2126 C 210.84 -2.27948 -0.04847 0
M  V30 2127 C 211.824 -1.40325 -0.787246 0
M  V30 2128 O 213.016 -1.63893 -0.668446 0
M  V30 2129 C 210.145 -3.28143 -1.00881 0
M  V30 2130 C 209.231 -4.23252 -0.268108 0
M  V30 2131 N 209.622 -5.00656 0.719528 0
M  V30 2132 C 207.92 -4.43092 -0.508493 0
M  V30 2133 C 208.621 -5.70019 1.15988 0
M  V30 2134 N 207.597 -5.41364 0.492584 0
M  V30 2135 H 211.399 -2.85213 0.709279 0
M  V30 2136 H 208.913 -1.54869 0.488822 0
M  V30 2137 H 210.91 -3.87736 -1.53188 0
M  V30 2138 H 209.57 -2.7244 -1.76654 0
M  V30 2139 H 210.581 -5.06115 1.09855 0
M  V30 2140 H 207.258 -3.98449 -1.24679 0
M  V30 2141 H 208.648 -6.4214 1.97751 0
M  V30 2142 N 211.368 -0.403325 -1.52352 0
M  V30 2143 C 212.784 -0.0539281 -1.59509 0
M  V30 2144 C 212.984 1.43307 -1.41652 0
M  V30 2145 O 212.04 2.19924 -1.24056 0
M  V30 2146 C 213.353 -0.543654 -2.95745 0
M  V30 2147 C 214.901 -0.501125 -3.08962 0
M  V30 2148 C 215.376 -0.967267 -4.47669 0
M  V30 2149 N 216.867 -0.923849 -4.53893 0
M  V30 2150 C 217.602 -1.25578 -5.5948 0
M  V30 2151 N 217.098 -1.65889 -6.72646 0
M  V30 2152 N 218.891 -1.17613 -5.49658 0
M  V30 2153 H 211.042 -1.37123 -1.62206 0
M  V30 2154 H 213.305 -0.56294 -0.76276 0
M  V30 2155 H 213.011 -1.58275 -3.14073 0
M  V30 2156 H 212.885 0.0498042 -3.77167 0
M  V30 2157 H 215.272 0.528909 -2.90321 0
M  V30 2158 H 215.353 -1.13056 -2.2946 0
M  V30 2159 H 214.997 -1.9956 -4.67053 0
M  V30 2160 H 214.927 -0.314698 -5.25659 0
M  V30 2161 H 217.418 -0.627403 -3.72655 0
M  V30 2162 H 217.731 -1.89543 -7.49195 0
M  V30 2163 H 216.076 -1.69787 -6.73942 0
M  V30 2164 H 219.267 -0.860115 -4.6013 0
M  V30 2165 H 219.44 -1.43812 -6.3184 0
M  V30 2166 N 212.846 1.57033 -0.133567 0
M  V30 2167 C 213.794 2.17348 0.828412 0
M  V30 2168 C 214.788 1.12671 1.26498 0
M  V30 2169 O 215.994 1.30947 1.23502 0
M  V30 2170 H 212.369 0.695775 0.285309 0
M  V30 2171 H 214.34 2.96935 0.295372 0
M  V30 2172 C 213.089 2.79893 2.06289 0
M  V30 2173 H 212.412 3.60147 1.73592 0
M  V30 2174 H 213.852 3.25615 2.71572 0
M  V30 2175 C 212.311 1.77713 2.86216 0
M  V30 2176 O 212.841 1.23937 3.82103 0
M  V30 2177 N 211.047 1.47321 2.50489 0
M  V30 2178 H 210.594 1.91243 1.7258 0
M  V30 2179 H 210.552 0.79199 3.04261 0
M  V30 2180 N 214.325 -0.140222 1.56975 0
M  V30 2181 C 215.573 -0.850005 1.83356 0
M  V30 2182 C 215.894 -1.81399 0.71551 0
M  V30 2183 O 215.164 -1.94136 -0.262294 0
M  V30 2184 H 213.744 -0.316886 0.676456 0
M  V30 2185 H 216.406 -0.132608 1.94448 0
M  V30 2186 H 215.502 -1.40814 2.78528 0
M  V30 2187 N 215.803 -1.52179 -0.40978 0
M  V30 2188 C 217.043 -1.67882 -1.16597 0
M  V30 2189 C 217.407 -0.399795 -1.87791 0
M  V30 2190 O 218.608 -0.43292 -2.65291 0
M  V30 2191 C 216.879 -2.86662 -2.13448 0
M  V30 2192 S 218.438 -3.22843 -2.97183 0
M  V30 2193 H 215.256 -0.59118 -0.395002 0
M  V30 2194 H 217.858 -1.9017 -0.453373 0
M  V30 2195 H 216.562 -3.77998 -1.59831 0
M  V30 2196 H 216.093 -2.66645 -2.89247 0
M  V30 2197 H 218.108 -2.71415 -4.15389 0
M  V30 2198 N 217.281 0.66697 -1.42791 0
M  V30 2199 C 218.53 1.42278 -1.42968 0
M  V30 2200 C 218.843 1.9553 -0.0524489 0
M  V30 2201 O 220.049 2.71414 0.068363 0
M  V30 2202 C 218.505 2.57418 -2.51524 0
M  V30 2203 C 218.113 2.10832 -3.9529 0
M  V30 2204 C 219.857 3.34878 -2.60877 0
M  V30 2205 C 217.764 3.23101 -4.95338 0
M  V30 2206 H 216.694 0.534533 -0.531781 0
M  V30 2207 H 219.345 0.721302 -1.68729 0
M  V30 2208 H 217.727 3.29971 -2.18941 0
M  V30 2209 H 218.901 1.4538 -4.37266 0
M  V30 2210 H 217.216 1.46289 -3.89857 0
M  V30 2211 H 219.813 4.18505 -3.32802 0
M  V30 2212 H 220.156 3.81993 -1.6549 0
M  V30 2213 H 220.689 2.69398 -2.92693 0
M  V30 2214 H 217.428 2.80969 -5.9223 0
M  V30 2215 H 216.948 3.87309 -4.57987 0
M  V30 2216 H 218.627 3.88447 -5.17415 0
M  V30 2217 N 218.759 1.29093 0.90403 0
M  V30 2218 C 219.984 1.19809 1.69294 0
M  V30 2219 C 220.409 -0.238481 1.86582 0
M  V30 2220 O 219.767 -1.1723 1.383 0
M  V30 2221 C 219.815 1.91202 3.05736 0
M  V30 2222 O 218.919 1.22611 3.93752 0
M  V30 2223 H 218.26 0.415385 0.518027 0
M  V30 2224 H 220.79 1.70586 1.12967 0
M  V30 2225 H 220.8 1.99487 3.55906 0
M  V30 2226 H 219.475 2.95692 2.92471 0
M  V30 2227 H 218.052 1.22554 3.52186 0
M  V30 2228 N 220.237 -1.11381 1.11499 0
M  V30 2229 C 221.486 -1.82494 0.858993 0
M  V30 2230 C 221.799 -1.85605 -0.617278 0
M  V30 2231 O 223.005 -2.52824 -0.989552 0
M  V30 2232 C 221.461 -3.27745 1.48699 0
M  V30 2233 C 221.069 -3.32961 2.99735 0
M  V30 2234 C 222.813 -4.03754 1.31085 0
M  V30 2235 C 220.72 -4.72612 3.55516 0
M  V30 2236 H 219.65 -0.683802 0.317696 0
M  V30 2237 H 222.301 -1.25331 1.34031 0
M  V30 2238 H 220.683 -3.84844 0.933339 0
M  V30 2239 H 221.857 -2.85741 3.61509 0
M  V30 2240 H 220.172 -2.70433 3.16631 0
M  V30 2241 H 222.769 -5.06891 1.70192 0
M  V30 2242 H 223.112 -4.15527 0.253496 0
M  V30 2243 H 223.645 -3.53043 1.83318 0
M  V30 2244 H 220.384 -4.66036 4.60967 0
M  V30 2245 H 219.904 -5.2024 2.98513 0
M  V30 2246 H 221.583 -5.4157 3.53992 0
M  V30 2247 N 221.715 -0.905404 -1.28997 0
M  V30 2248 C 222.961 -0.544465 -1.95977 0
M  V30 2249 C 223.316 0.90041 -1.70031 0
M  V30 2250 O 222.609 1.63064 -1.00601 0
M  V30 2251 C 222.803 -0.779906 -3.48787 0
M  V30 2252 C 222.632 -2.24612 -3.89589 0
M  V30 2253 C 221.402 -2.89464 -4.14172 0
M  V30 2254 C 223.6 -3.22182 -4.00878 0
M  V30 2255 N 221.582 -4.26469 -4.41585 0
M  V30 2256 C 222.953 -4.44323 -4.32409 0
M  V30 2257 C 225.008 -3.17694 -3.83373 0
M  V30 2258 C 223.711 -5.62546 -4.48258 0
M  V30 2259 C 225.737 -4.35208 -4.00435 0
M  V30 2260 C 225.099 -5.56121 -4.3233 0
M  V30 2261 H 221.198 -0.248948 -0.741316 0
M  V30 2262 H 223.782 -1.1674 -1.5582 0
M  V30 2263 H 221.953 -0.186308 -3.87953 0
M  V30 2264 H 223.685 -0.383833 -4.02876 0
M  V30 2265 H 220.44 -2.40232 -4.08149 0
M  V30 2266 H 220.864 -4.97283 -4.5939 0
M  V30 2267 H 225.506 -2.25297 -3.57773 0
M  V30 2268 H 223.224 -6.55429 -4.72692 0
M  V30 2269 H 226.81 -4.33228 -3.88336 0
M  V30 2270 H 225.69 -6.45537 -4.45255 0
M  V30 2271 N 223.193 1.4272 -0.668489 0
M  V30 2272 C 224.609 1.55992 -0.33745 0
M  V30 2273 C 224.809 1.64933 1.15756 0
M  V30 2274 O 223.865 1.61278 1.94282 0
M  V30 2275 C 225.178 2.81314 -1.06222 0
M  V30 2276 C 226.726 2.95078 -1.04394 0
M  V30 2277 C 227.201 4.23252 -1.74991 0
M  V30 2278 N 228.692 4.3015 -1.71829 0
M  V30 2279 C 229.427 5.28127 -2.23315 0
M  V30 2280 N 228.923 6.32293 -2.83156 0
M  V30 2281 N 230.716 5.19882 -2.13726 0
M  V30 2282 H 222.867 1.3516 -1.63846 0
M  V30 2283 H 225.13 0.650174 -0.689912 0
M  V30 2284 H 224.836 2.80823 -2.11734 0
M  V30 2285 H 224.71 3.72012 -0.62344 0
M  V30 2286 H 227.097 2.951 0.0028244 0
M  V30 2287 H 227.178 2.05627 -1.52155 0
M  V30 2288 H 226.822 4.2399 -2.79633 0
M  V30 2289 H 226.752 5.11626 -1.24685 0
M  V30 2290 H 229.243 3.55499 -1.28175 0
M  V30 2291 H 229.556 7.03398 -3.20079 0
M  V30 2292 H 227.901 6.32873 -2.87223 0
M  V30 2293 H 231.092 4.37423 -1.66669 0
M  V30 2294 H 231.265 5.96077 -2.54158 0
M  V30 2295 N 224.671 0.411399 1.52136 0
M  V30 2296 C 225.618 -0.412975 2.27075 0
M  V30 2297 C 226.588 -1.03912 1.29582 0
M  V30 2298 O 227.773 -1.06296 1.58448 0
M  V30 2299 C 224.913 -1.52247 3.09701 0
M  V30 2300 C 224.026 -0.917021 4.22155 0
M  V30 2301 C 223.161 -1.9994 4.92135 0
M  V30 2302 C 222.2 -1.37101 5.96548 0
M  V30 2303 N 221.337 -2.39364 6.60038 0
M  V30 2304 H 226.177 0.232499 2.97092 0
M  V30 2305 H 223.714 0.126496 1.46555 0
M  V30 2306 H 225.672 -2.17674 3.55913 0
M  V30 2307 H 224.302 -2.13794 2.41851 0
M  V30 2308 H 223.354 -0.151742 3.80097 0
M  V30 2309 H 224.666 -0.418006 4.97045 0
M  V30 2310 H 223.82 -2.73088 5.41763 0
M  V30 2311 H 222.559 -2.53208 4.16818 0
M  V30 2312 H 221.564 -0.624873 5.46237 0
M  V30 2313 H 222.789 -0.845998 6.7381 0
M  V30 2314 H 220.735 -2.91759 5.87548 0
M  V30 2315 H 220.652 -1.9428 7.3061 0
M  V30 2316 H 221.92 -3.12074 7.14304 0
M  V30 2317 N 226.149 -1.5696 0.141893 0
M  V30 2318 C 227.398 -1.95135 -0.510427 0
M  V30 2319 C 227.711 -1.02896 -1.66348 0
M  V30 2320 O 228.917 -1.30629 -2.38009 0
M  V30 2321 C 227.373 -3.46876 -0.959427 0
M  V30 2322 C 226.981 -4.47691 0.166419 0
M  V30 2323 C 228.725 -3.93927 -1.58183 0
M  V30 2324 C 226.632 -5.90636 -0.300565 0
M  V30 2325 H 225.562 -0.728494 -0.194454 0
M  V30 2326 H 228.213 -1.8211 0.22542 0
M  V30 2327 H 226.595 -3.55215 -1.75038 0
M  V30 2328 H 227.769 -4.51043 0.94325 0
M  V30 2329 H 226.084 -4.10527 0.696905 0
M  V30 2330 H 228.681 -4.98158 -1.94275 0
M  V30 2331 H 229.024 -3.3519 -2.46888 0
M  V30 2332 H 229.557 -3.88484 -0.855863 0
M  V30 2333 H 226.296 -6.5318 0.550989 0
M  V30 2334 H 225.816 -5.90655 -1.04338 0
M  V30 2335 H 227.495 -6.42588 -0.754265 0
M  V30 2336 N 227.627 0.131896 -1.57047 0
M  V30 2337 C 228.867 0.847972 -1.85981 0
M  V30 2338 C 229.231 1.77655 -0.7282 0
M  V30 2339 O 230.432 2.53322 -0.898968 0
M  V30 2340 C 228.703 1.58919 -3.20124 0
M  V30 2341 S 230.262 2.34862 -3.70655 0
M  V30 2342 H 227.08 0.283273 -0.652133 0
M  V30 2343 H 229.682 0.107057 -1.95207 0
M  V30 2344 H 228.386 0.898771 -4.00438 0
M  V30 2345 H 227.917 2.37073 -3.13942 0
M  V30 2346 H 229.932 3.60344 -3.41126 0
M  V30 2347 N 229.106 1.52395 0.401703 0
M  V30 2348 C 230.517 1.58899 0.980202 0
M  V30 2349 C 230.868 0.434032 1.91339 0
M  V30 2350 O 229.993 -0.444619 2.11783 0
M  V30 2351 C 230.588 2.87994 1.78451 0
M  V30 2352 C 229.147 2.96953 2.31292 0
M  V30 2353 C 228.294 2.53903 1.11483 0
M  V30 2354 H 231.245 1.57657 0.18168 0
M  V30 2355 H 231.266 2.73765 2.64259 0
M  V30 2356 H 230.778 3.72035 1.10506 0
M  V30 2357 H 228.879 2.17422 3.02586 0
M  V30 2358 H 228.992 4.01344 2.61649 0
M  V30 2359 H 227.356 2.07925 1.47104 0
M  V30 2360 H 228.139 3.40326 0.450928 0
M  V30 2361 N 230.584 -0.659388 1.43143 0
M  V30 2362 C 231.833 -1.41518 1.43721 0
M  V30 2363 C 232.146 -1.95499 0.0628176 0
M  V30 2364 O 233.352 -2.71446 -0.0539683 0
M  V30 2365 C 231.808 -2.5608 2.52885 0
M  V30 2366 C 231.416 -2.08733 3.96402 0
M  V30 2367 C 233.16 -3.3349 2.62649 0
M  V30 2368 C 231.067 -3.20469 4.97045 0
M  V30 2369 H 229.997 -0.531705 0.534608 0
M  V30 2370 H 232.648 -0.712343 1.69109 0
M  V30 2371 H 231.03 -3.28805 2.20688 0
M  V30 2372 H 232.204 -1.43059 4.3803 0
M  V30 2373 H 230.519 -1.44219 3.90627 0
M  V30 2374 H 233.116 -4.16734 3.35017 0
M  V30 2375 H 233.459 -3.8111 1.67513 0
M  V30 2376 H 233.992 -2.67842 2.94118 0
M  V30 2377 H 230.731 -2.77824 5.93712 0
M  V30 2378 H 230.251 -3.84874 4.60034 0
M  V30 2379 H 231.93 -3.85698 5.19467 0
M  V30 2380 N 232.062 -1.29571 -0.897171 0
M  V30 2381 C 233.309 -1.17689 -1.6479 0
M  V30 2382 C 233.637 0.27107 -1.92602 0
M  V30 2383 O 232.892 1.21193 -1.53658 0
M  V30 2384 C 233.191 -1.9382 -3.00281 0
M  V30 2385 C 232.857 -3.43522 -2.92068 0
M  V30 2386 C 231.519 -3.84348 -2.89535 0
M  V30 2387 C 233.871 -4.38906 -2.81089 0
M  V30 2388 C 231.199 -5.18869 -2.73846 0
M  V30 2389 C 233.551 -5.73521 -2.66939 0
M  V30 2390 C 232.215 -6.13601 -2.62774 0
M  V30 2391 H 231.485 -0.430654 -0.603008 0
M  V30 2392 H 234.132 -1.60536 -1.04404 0
M  V30 2393 H 232.437 -1.4357 -3.64547 0
M  V30 2394 H 234.134 -1.82028 -3.57305 0
M  V30 2395 H 230.724 -3.11072 -2.94842 0
M  V30 2396 H 234.908 -4.08315 -2.82121 0
M  V30 2397 H 230.164 -5.4903 -2.69027 0
M  V30 2398 H 234.338 -6.47078 -2.57416 0
M  V30 2399 H 231.965 -7.17786 -2.50375 0
M  V30 2400 N 233.54 1.10788 -1.12088 0
M  V30 2401 C 234.487 2.17025 -0.785407 0
M  V30 2402 C 235.457 1.64265 0.246191 0
M  V30 2403 O 236.642 1.90412 0.121584 0
M  V30 2404 C 233.782 3.44249 -0.242177 0
M  V30 2405 C 232.895 4.1098 -1.33115 0
M  V30 2406 C 232.03 5.25911 -0.747741 0
M  V30 2407 C 231.069 5.84538 -1.81609 0
M  V30 2408 N 230.206 6.90853 -1.25167 0
M  V30 2409 H 235.046 2.45066 -1.69548 0
M  V30 2410 H 232.583 1.20297 -0.846582 0
M  V30 2411 H 234.541 4.17101 0.0908026 0
M  V30 2412 H 233.171 3.16571 0.631072 0
M  V30 2413 H 232.223 3.36133 -1.78097 0
M  V30 2414 H 233.535 4.50601 -2.13917 0
M  V30 2415 H 232.689 6.056 -0.365216 0
M  V30 2416 H 231.428 4.87614 0.0915188 0
M  V30 2417 H 230.433 5.03522 -2.20785 0
M  V30 2418 H 231.658 6.249 -2.6585 0
M  V30 2419 H 229.604 6.54562 -0.434174 0
M  V30 2420 H 229.521 7.29166 -1.99633 0
M  V30 2421 H 230.789 7.7433 -0.896259 0
M  V30 2422 N 235.018 0.912232 1.28515 0
M  V30 2423 C 236.266 0.543523 1.94654 0
M  V30 2424 C 236.587 -0.9155 1.72173 0
M  V30 2425 O 235.857 -1.64708 1.06058 0
M  V30 2426 H 234.437 0.198017 0.720277 0
M  V30 2427 H 237.099 1.16126 1.56527 0
M  V30 2428 H 236.195 0.736684 3.03281 0
M  V30 2429 N 236.496 -1.42363 0.676048 0
M  V30 2430 C 237.745 -2.00745 0.196037 0
M  V30 2431 C 238.058 -1.54083 -1.20489 0
M  V30 2432 O 239.264 -2.04891 -1.78134 0
M  V30 2433 C 237.72 -3.58651 0.299616 0
M  V30 2434 C 237.328 -4.143 1.70468 0
M  V30 2435 C 239.072 -4.24326 -0.121619 0
M  V30 2436 C 236.979 -5.64574 1.76096 0
M  V30 2437 H 235.909 -0.750787 0.0695301 0
M  V30 2438 H 238.56 -1.63072 0.841412 0
M  V30 2439 H 236.942 -3.93833 -0.413673 0
M  V30 2440 H 238.116 -3.90575 2.44515 0
M  V30 2441 H 236.431 -3.61081 2.07387 0
M  V30 2442 H 239.028 -5.34607 -0.0997362 0
M  V30 2443 H 239.371 -3.99897 -1.15708 0
M  V30 2444 H 239.904 -3.94108 0.540706 0
M  V30 2445 H 236.643 -5.93804 2.77628 0
M  V30 2446 H 236.163 -5.90286 1.06406 0
M  V30 2447 H 237.842 -6.29013 1.51496 0
M  V30 2448 N 237.974 -0.419461 -1.51915 0
M  V30 2449 C 239.222 0.152637 -2.01523 0
M  V30 2450 C 239.543 1.44762 -1.30649 0
M  V30 2451 O 238.813 1.90997 -0.435535 0
M  V30 2452 H 237.393 0.0593966 -0.744635 0
M  V30 2453 H 240.055 -0.558073 -1.86739 0
M  V30 2454 H 239.151 0.341369 -3.10227 0
M  V30 2455 N 239.452 1.56882 -0.150215 0
M  V30 2456 C 240.682 2.00302 0.506213 0
M  V30 2457 C 241.09 1.02934 1.58749 0
M  V30 2458 O 240.433 0.0188384 1.8369 0
M  V30 2459 C 240.495 3.40156 1.16337 0
M  V30 2460 C 240.159 4.56439 0.226311 0
M  V30 2461 C 241.156 5.17012 -0.547265 0
M  V30 2462 C 238.841 5.02136 0.128279 0
M  V30 2463 C 240.835 6.21693 -1.40629 0
M  V30 2464 C 238.522 6.06672 -0.734345 0
M  V30 2465 C 239.52 6.6632 -1.50023 0
M  V30 2466 O 239.208 7.68831 -2.34848 0
M  V30 2467 H 238.94 0.662182 0.135984 0
M  V30 2468 H 241.494 2.03961 -0.242746 0
M  V30 2469 H 239.724 3.33346 1.96004 0
M  V30 2470 H 241.413 3.67663 1.71985 0
M  V30 2471 H 242.179 4.82603 -0.48158 0
M  V30 2472 H 238.058 4.55435 0.714157 0
M  V30 2473 H 241.602 6.68179 -2.00455 0
M  V30 2474 H 237.499 6.40507 -0.801309 0
M  V30 2475 H 238.267 7.86065 -2.28131 0
M  V30 2476 N 240.93 -0.123565 1.57115 0
M  V30 2477 C 241.893 -1.13583 1.99076 0
M  V30 2478 C 242.893 -1.34564 0.880296 0
M  V30 2479 O 244.083 -1.31158 1.14644 0
M  V30 2480 C 241.215 -2.49128 2.32698 0
M  V30 2481 H 242.408 -0.775287 2.89706 0
M  V30 2482 H 239.961 -0.36771 1.51913 0
M  V30 2483 H 240.696 -2.90111 1.44934 0
M  V30 2484 H 240.481 -2.35255 3.13684 0
M  V30 2485 H 241.971 -3.2199 2.65918 0
M  V30 2486 N 242.408 -1.52605 -0.393616 0
M  V30 2487 C 243.657 -1.66649 -1.13627 0
M  V30 2488 C 243.97 -0.410364 -1.91247 0
M  V30 2489 O 245.176 -0.430854 -2.68059 0
M  V30 2490 C 243.632 -2.9449 -2.06891 0
M  V30 2491 C 243.24 -4.27266 -1.34714 0
M  V30 2492 C 244.984 -3.17899 -2.81319 0
M  V30 2493 C 242.891 -5.46217 -2.26717 0
M  V30 2494 H 241.821 -0.62084 -0.427871 0
M  V30 2495 H 244.472 -1.791 -0.399428 0
M  V30 2496 H 242.854 -2.75774 -2.84191 0
M  V30 2497 H 244.028 -4.56518 -0.626714 0
M  V30 2498 H 242.343 -4.10081 -0.722643 0
M  V30 2499 H 244.94 -4.03949 -3.50328 0
M  V30 2500 H 245.283 -2.32777 -3.45139 0
M  V30 2501 H 245.816 -3.37159 -2.11113 0
M  V30 2502 H 242.555 -6.33733 -1.67521 0
M  V30 2503 H 242.075 -5.21283 -2.96689 0
M  V30 2504 H 243.754 -5.7991 -2.86903 0
M  V30 2505 N 243.887 0.651787 -1.4349 0
M  V30 2506 C 245.127 1.42345 -1.46688 0
M  V30 2507 C 245.491 1.91793 -0.0891023 0
M  V30 2508 O 246.692 2.688 0.00423594 0
M  V30 2509 C 244.963 2.57221 -2.48137 0
M  V30 2510 S 246.522 3.45725 -2.70221 0
M  V30 2511 H 243.34 0.485878 -0.51908 0
M  V30 2512 H 245.942 0.756578 -1.80267 0
M  V30 2513 H 244.646 2.1917 -3.46976 0
M  V30 2514 H 244.177 3.28757 -2.16061 0
M  V30 2515 H 246.192 4.53996 -2.00255 0
M  V30 2516 N 245.365 1.30045 0.890287 0
M  V30 2517 C 246.614 1.17929 1.63633 0
M  V30 2518 C 246.927 -0.266204 1.9378 0
M  V30 2519 O 248.133 -0.508804 2.6669 0
M  V30 2520 C 246.589 2.06317 2.94892 0
M  V30 2521 C 246.197 3.55745 2.72305 0
M  V30 2522 C 247.941 2.0295 3.72843 0
M  V30 2523 C 245.848 4.36205 3.99348 0
M  V30 2524 H 244.778 0.437782 0.613892 0
M  V30 2525 H 247.429 1.54754 0.986075 0
M  V30 2526 H 245.811 1.6237 3.61182 0
M  V30 2527 H 246.985 4.07805 2.1455 0
M  V30 2528 H 245.3 3.6088 2.07737 0
M  V30 2529 H 247.897 2.60319 4.67053 0
M  V30 2530 H 248.24 1.0117 4.0382 0
M  V30 2531 H 248.773 2.4499 3.13408 0
M  V30 2532 H 245.512 5.38659 3.73533 0
M  V30 2533 H 245.032 3.8891 4.56628 0
M  V30 2534 H 246.711 4.47362 4.67415 0
M  V30 2535 N 246.843 -1.10192 1.12674 0
M  V30 2536 C 248.092 -1.81573 0.8783 0
M  V30 2537 C 248.405 -1.86249 -0.597557 0
M  V30 2538 O 249.611 -2.5386 -0.962681 0
M  V30 2539 C 248.067 -3.26149 1.52167 0
M  V30 2540 C 247.675 -3.29763 3.03249 0
M  V30 2541 C 249.419 -4.0234 1.3536 0
M  V30 2542 C 247.326 -4.68815 3.60508 0
M  V30 2543 H 246.256 -0.680394 0.324931 0
M  V30 2544 H 248.907 -1.23902 1.35353 0
M  V30 2545 H 247.289 -3.83832 0.974104 0
M  V30 2546 H 248.463 -2.8189 3.6452 0
M  V30 2547 H 246.778 -2.67059 3.19481 0
M  V30 2548 H 249.375 -5.05058 1.75559 0
M  V30 2549 H 249.718 -4.15235 0.297554 0
M  V30 2550 H 250.251 -3.51079 1.87052 0
M  V30 2551 H 246.99 -4.61121 4.65884 0
M  V30 2552 H 246.51 -5.17045 3.04014 0
M  V30 2553 H 248.189 -5.37785 3.59717 0
M  V30 2554 N 248.321 -0.919034 -1.28029 0
M  V30 2555 C 249.284 -0.416182 -2.2539 0
M  V30 2556 C 250.284 0.460438 -1.54067 0
M  V30 2557 O 251.474 0.262744 -1.72207 0
M  V30 2558 C 248.606 0.402707 -3.38513 0
M  V30 2559 H 249.799 -1.27629 -2.71387 0
M  V30 2560 H 247.352 -0.698919 -1.39803 0
M  V30 2561 H 248.087 1.282 -2.97885 0
M  V30 2562 H 247.872 -0.225698 -3.9145 0
M  V30 2563 H 249.362 0.745191 -4.10897 0
M  V30 2564 N 249.799 1.42003 -0.683588 0
M  V30 2565 C 251.046 2.01413 -0.209514 0
M  V30 2566 C 251.374 1.54088 1.1869 0
M  V30 2567 O 250.629 0.737591 1.81268 0
M  V30 2568 C 250.928 3.56827 -0.202357 0
M  V30 2569 C 250.594 4.23617 -1.54464 0
M  V30 2570 C 249.256 4.41577 -1.91215 0
M  V30 2571 C 251.608 4.61178 -2.42826 0
M  V30 2572 C 248.936 4.9437 -3.15935 0
M  V30 2573 C 251.288 5.15355 -3.66867 0
M  V30 2574 C 249.952 5.31528 -4.03776 0
M  V30 2575 H 249.222 0.737023 -0.0766668 0
M  V30 2576 H 251.869 1.70067 -0.880312 0
M  V30 2577 H 250.174 3.87892 0.551969 0
M  V30 2578 H 251.871 4.00588 0.181793 0
M  V30 2579 H 248.461 4.10004 -1.24877 0
M  V30 2580 H 252.645 4.46968 -2.15717 0
M  V30 2581 H 247.901 5.05076 -3.44541 0
M  V30 2582 H 252.075 5.43402 -4.35531 0
M  V30 2583 H 249.702 5.72199 -5.00492 0
M  V30 2584 N 251.277 0.427512 1.51691 0
M  V30 2585 C 252.507 -0.140986 2.06118 0
M  V30 2586 C 252.915 -1.37854 1.29588 0
M  V30 2587 O 252.258 -1.80411 0.346036 0
M  V30 2588 C 252.32 -0.538276 3.55447 0
M  V30 2589 C 251.984 0.591095 4.53161 0
M  V30 2590 C 252.981 1.46027 4.98971 0
M  V30 2591 C 250.666 0.769028 4.96378 0
M  V30 2592 C 252.66 2.49216 5.8666 0
M  V30 2593 C 250.347 1.80421 5.83859 0
M  V30 2594 C 251.345 2.66417 6.28897 0
M  V30 2595 O 251.033 3.68159 7.14643 0
M  V30 2596 H 250.765 -0.0157455 0.675817 0
M  V30 2597 H 253.319 0.602495 1.96365 0
M  V30 2598 H 251.549 -1.33432 3.6295 0
M  V30 2599 H 253.238 -1.0368 3.92435 0
M  V30 2600 H 254.004 1.33429 4.66285 0
M  V30 2601 H 249.883 0.109273 4.6087 0
M  V30 2602 H 253.427 3.16372 6.21735 0
M  V30 2603 H 249.324 1.93042 6.15959 0
M  V30 2604 H 250.092 3.64622 7.32798 0
M  V30 2605 N 252.755 -1.56801 0.158532 0
M  V30 2606 C 254.004 -1.95665 -0.489702 0
M  V30 2607 C 254.317 -1.04654 -1.65248 0
M  V30 2608 O 255.523 -1.33146 -2.3661 0
M  V30 2609 C 253.979 -3.47874 -0.922582 0
M  V30 2610 C 253.587 -4.47489 0.213893 0
M  V30 2611 C 255.331 -3.95583 -1.53996 0
M  V30 2612 C 253.238 -5.90921 -0.237903 0
M  V30 2613 H 252.168 -0.730516 -0.186716 0
M  V30 2614 H 254.819 -1.81861 0.244722 0
M  V30 2615 H 253.201 -3.57051 -1.71261 0
M  V30 2616 H 254.375 -4.50017 0.991036 0
M  V30 2617 H 252.69 -4.09764 0.740407 0
M  V30 2618 H 255.287 -5.0019 -1.8898 0
M  V30 2619 H 255.63 -3.37789 -2.43319 0
M  V30 2620 H 256.163 -3.8937 -0.814611 0
M  V30 2621 H 252.902 -6.52559 0.620236 0
M  V30 2622 H 252.422 -5.91729 -0.980676 0
M  V30 2623 H 254.101 -6.43352 -0.686067 0
M  V30 2624 N 254.233 0.115231 -1.57178 0
M  V30 2625 C 255.196 1.12526 -1.99676 0
M  V30 2626 C 256.196 1.34095 -0.88742 0
M  V30 2627 O 257.386 1.30548 -1.15337 0
M  V30 2628 C 254.518 2.4789 -2.34015 0
M  V30 2629 H 255.711 0.759912 -2.90113 0
M  V30 2630 H 253.264 0.359648 -1.52106 0
M  V30 2631 H 253.999 2.89339 -1.4647 0
M  V30 2632 H 253.784 2.33588 -3.14927 0
M  V30 2633 H 255.274 3.20575 -2.67622 0
M  V30 2634 N 255.711 1.52812 0.385517 0
M  V30 2635 C 256.936 1.72207 1.15583 0
M  V30 2636 C 257.361 0.441034 1.82857 0
M  V30 2637 O 256.719 -0.603465 1.70962 0
M  V30 2638 C 256.767 2.87476 2.17692 0
M  V30 2639 O 255.871 2.54693 3.24354 0
M  V30 2640 H 255.212 0.572526 0.336319 0
M  V30 2641 H 257.742 1.99618 0.448744 0
M  V30 2642 H 257.752 3.13072 2.6163 0
M  V30 2643 H 256.427 3.80408 1.68115 0
M  V30 2644 H 255.004 2.3985 2.85529 0
M  V30 2645 N 257.189 -0.644168 1.43834 0
M  V30 2646 C 258.419 -1.42939 1.49171 0
M  V30 2647 C 258.827 -1.88874 0.111048 0
M  V30 2648 O 258.17 -1.60656 -0.8908 0
M  V30 2649 C 258.232 -2.69151 2.38324 0
M  V30 2650 C 257.896 -2.45097 3.85715 0
M  V30 2651 C 258.893 -2.07747 4.76589 0
M  V30 2652 C 256.578 -2.59141 4.30292 0
M  V30 2653 C 258.572 -1.8475 6.10038 0
M  V30 2654 C 256.259 -2.35759 5.63792 0
M  V30 2655 C 257.257 -1.9862 6.53482 0
M  V30 2656 O 256.945 -1.75489 7.84512 0
M  V30 2657 H 256.677 -0.445271 0.508635 0
M  V30 2658 H 259.231 -0.79621 1.8934 0
M  V30 2659 H 257.461 -3.3506 1.93058 0
M  V30 2660 H 259.15 -3.31123 2.3476 0
M  V30 2661 H 259.916 -1.96465 4.43426 0
M  V30 2662 H 255.795 -2.87022 3.60749 0
M  V30 2663 H 259.339 -1.55686 6.80006 0
M  V30 2664 H 255.236 -2.46646 5.9652 0
M  V30 2665 H 256.004 -1.89841 7.9618 0
M  V30 2666 N 258.668 -1.30515 -0.883378 0
M  V30 2667 C 259.898 -1.22182 -1.66599 0
M  V30 2668 C 260.306 0.217507 -1.87946 0
M  V30 2669 O 259.649 1.1554 -1.42815 0
M  V30 2670 C 259.711 -1.88146 -3.06335 0
M  V30 2671 C 259.375 -3.37476 -3.08154 0
M  V30 2672 C 260.372 -4.33443 -2.87094 0
M  V30 2673 C 258.057 -3.7895 -3.29701 0
M  V30 2674 C 260.051 -5.68858 -2.8754 0
M  V30 2675 C 257.738 -5.14482 -3.29776 0
M  V30 2676 C 258.736 -6.09246 -3.0872 0
M  V30 2677 O 258.424 -7.42302 -3.08615 0
M  V30 2678 H 258.156 -0.423898 -0.52658 0
M  V30 2679 H 260.71 -1.72703 -1.11188 0
M  V30 2680 H 258.94 -1.32157 -3.63416 0
M  V30 2681 H 260.629 -1.7391 -3.66756 0
M  V30 2682 H 261.395 -4.02733 -2.70243 0
M  V30 2683 H 257.274 -3.05631 -3.45124 0
M  V30 2684 H 260.818 -6.428 -2.71024 0
M  V30 2685 H 256.715 -5.44832 -3.46163 0
M  V30 2686 H 257.483 -7.5131 -3.24769 0
M  V30 2687 N 260.146 1.09593 -1.13257 0
M  V30 2688 C 261.094 2.18271 -0.803783 0
M  V30 2689 C 262.088 1.68054 0.213148 0
M  V30 2690 O 263.294 1.79862 0.0704699 0
M  V30 2691 H 259.669 0.711949 -0.242143 0
M  V30 2692 H 261.64 2.43235 -1.72856 0
M  V30 2693 C 260.389 3.46536 -0.28424 0
M  V30 2694 H 259.712 3.85545 -1.05807 0
M  V30 2695 H 261.152 4.23899 -0.0925945 0
M  V30 2696 C 259.611 3.22036 0.989684 0
M  V30 2697 O 260.141 3.44509 2.06584 0
M  V30 2698 N 258.347 2.7565 0.920086 0
M  V30 2699 H 257.894 2.57562 0.0442019 0
M  V30 2700 H 257.852 2.59635 1.77306 0
M  V30 2701 N 261.624 0.925811 1.2754 0
M  V30 2702 C 262.852 0.581509 1.9856 0
M  V30 2703 C 263.267 -0.840041 1.69082 0
M  V30 2704 O 262.624 -1.55805 0.950312 0
M  V30 2705 C 262.675 0.795589 3.52637 0
M  V30 2706 O 262.396 2.16121 3.81082 0
M  V30 2707 C 263.897 0.459744 4.4091 0
M  V30 2708 H 261.117 0.220538 0.633722 0
M  V30 2709 H 263.661 1.24232 1.6244 0
M  V30 2710 H 261.816 0.18161 3.86974 0
M  V30 2711 H 262.23 2.2098 4.75676 0
M  V30 2712 H 263.704 0.660244 5.48037 0
M  V30 2713 H 264.181 -0.604625 4.35018 0
M  V30 2714 H 264.787 1.05178 4.12089 0
M  V30 2715 N 263.102 -1.41638 0.69111 0
M  V30 2716 C 264.351 -2.00526 0.217318 0
M  V30 2717 C 264.664 -1.55353 -1.18848 0
M  V30 2718 O 265.87 -2.06769 -1.75951 0
M  V30 2719 C 264.326 -3.58313 0.337639 0
M  V30 2720 C 263.934 -4.12469 1.74852 0
M  V30 2721 C 265.678 -4.24431 -0.0766066 0
M  V30 2722 C 263.585 -5.62675 1.82074 0
M  V30 2723 H 262.515 -0.750008 0.0774893 0
M  V30 2724 H 265.166 -1.6217 0.858661 0
M  V30 2725 H 263.548 -3.9425 -0.371879 0
M  V30 2726 H 264.722 -3.8796 2.48644 0
M  V30 2727 H 263.037 -3.58861 2.11205 0
M  V30 2728 H 265.634 -5.34683 -0.0430284 0
M  V30 2729 H 265.977 -4.01101 -1.1146 0
M  V30 2730 H 266.51 -3.93512 0.582476 0
M  V30 2731 H 263.249 -5.90826 2.83911 0
M  V30 2732 H 262.769 -5.89124 1.12661 0
M  V30 2733 H 264.448 -6.27371 1.58159 0
M  V30 2734 N 264.58 -0.43555 -1.51462 0
M  V30 2735 C 265.513 0.421989 -2.24264 0
M  V30 2736 C 266.491 1.02619 -1.26127 0
M  V30 2737 O 267.675 1.069 -1.55257 0
M  V30 2738 C 264.802 1.588 -2.99166 0
M  V30 2739 C 263.848 1.10465 -4.11946 0
M  V30 2740 S 264.681 0.048146 -5.35478 0
M  V30 2741 C 265.837 1.21887 -6.13917 0
M  V30 2742 H 266.07 -0.196102 -2.96653 0
M  V30 2743 H 263.603 -0.220054 -1.52824 0
M  V30 2744 H 265.561 2.25647 -3.42919 0
M  V30 2745 H 264.222 2.1775 -2.26371 0
M  V30 2746 H 263.415 1.97654 -4.63626 0
M  V30 2747 H 263.017 0.51445 -3.70445 0
M  V30 2748 H 265.309 2.13756 -6.42895 0
M  V30 2749 H 266.252 0.742076 -7.04201 0
M  V30 2750 H 266.66 1.45663 -5.45383 0
M  V30 2751 N 266.058 1.56714 -0.166846 0
M  V30 2752 C 267.021 2.16539 0.751232 0
M  V30 2753 C 268.021 1.11228 1.16125 0
M  V30 2754 O 269.211 1.36765 1.07894 0
M  V30 2755 C 266.343 2.74462 2.02196 0
M  V30 2756 H 267.536 2.99013 0.230499 0
M  V30 2757 H 265.089 1.56081 0.0826982 0
M  V30 2758 H 265.824 1.95709 2.58589 0
M  V30 2759 H 265.609 3.51527 1.73698 0
M  V30 2760 H 267.099 3.20489 2.67725 0
M  V30 2761 N 267.536 -0.106894 1.57237 0
M  V30 2762 C 268.782 -0.808678 1.86633 0
M  V30 2763 C 269.137 -1.76917 0.756178 0
M  V30 2764 O 268.43 -1.90055 -0.242834 0
M  V30 2765 C 268.624 -1.58628 3.20268 0
M  V30 2766 C 268.453 -0.702592 4.44178 0
M  V30 2767 C 267.223 -0.352808 5.04067 0
M  V30 2768 C 269.421 -0.0148031 5.14298 0
M  V30 2769 N 267.403 0.540279 6.11518 0
M  V30 2770 C 268.774 0.736809 6.15606 0
M  V30 2771 C 270.829 0.0603524 4.97863 0
M  V30 2772 C 269.532 1.55654 7.02257 0
M  V30 2773 C 271.558 0.866942 5.85011 0
M  V30 2774 C 270.92 1.60671 6.85831 0
M  V30 2775 H 267.019 -0.27246 0.733001 0
M  V30 2776 H 269.603 -0.0717858 1.94568 0
M  V30 2777 H 267.774 -2.29413 3.13408 0
M  V30 2778 H 269.506 -2.23434 3.3743 0
M  V30 2779 H 266.261 -0.697802 4.68431 0
M  V30 2780 H 266.685 0.979029 6.69884 0
M  V30 2781 H 271.327 -0.497236 4.19866 0
M  V30 2782 H 269.045 2.12524 7.79653 0
M  V30 2783 H 272.631 0.927612 5.74358 0
M  V30 2784 H 271.511 2.2208 7.52097 0
M  V30 2785 N 269.014 -1.53014 -0.377408 0
M  V30 2786 C 269.977 -1.77957 -1.44444 0
M  V30 2787 C 270.977 -0.649763 -1.47087 0
M  V30 2788 O 272.167 -0.917897 -1.48055 0
M  V30 2789 C 269.299 -1.89089 -2.83651 0
M  V30 2790 H 270.492 -2.73243 -1.23606 0
M  V30 2791 H 268.045 -1.43912 -0.609844 0
M  V30 2792 H 268.78 -0.958293 -3.09818 0
M  V30 2793 H 268.565 -2.71254 -2.83132 0
M  V30 2794 H 270.055 -2.1002 -3.60945 0
M  V30 2795 N 270.492 0.636531 -1.44174 0
M  V30 2796 C 271.422 1.76003 -1.53444 0
M  V30 2797 C 272.403 1.65619 -0.387841 0
M  V30 2798 O 273.588 1.84461 -0.607257 0
M  V30 2799 C 270.718 3.14511 -1.4731 0
M  V30 2800 C 269.672 3.39677 -2.60391 0
M  V30 2801 C 268.998 4.78159 -2.39308 0
M  V30 2802 C 270.298 3.32772 -4.02567 0
M  V30 2803 H 271.992 1.68501 -2.47483 0
M  V30 2804 H 269.538 0.809237 -1.19111 0
M  V30 2805 H 271.491 3.92878 -1.52397 0
M  V30 2806 H 270.215 3.22783 -0.49785 0
M  V30 2807 H 268.874 2.63688 -2.54684 0
M  V30 2808 H 268.522 4.83128 -1.39988 0
M  V30 2809 H 268.222 4.95956 -3.15122 0
M  V30 2810 H 269.746 5.58762 -2.46205 0
M  V30 2811 H 271.16 4.01051 -4.09672 0
M  V30 2812 H 269.557 3.62104 -4.7854 0
M  V30 2813 H 270.627 2.30669 -4.2652 0
M  V30 2814 N 271.97 1.30982 0.876444 0
M  V30 2815 C 273.2 1.23063 1.65949 0
M  V30 2816 C 273.608 -0.207537 1.88058 0
M  V30 2817 O 272.951 -1.14781 1.43426 0
M  V30 2818 C 273.013 1.89768 3.05333 0
M  V30 2819 C 272.677 3.39106 3.0636 0
M  V30 2820 C 273.674 4.3496 2.84791 0
M  V30 2821 C 271.359 3.80693 3.27686 0
M  V30 2822 C 273.353 5.70375 2.84519 0
M  V30 2823 C 271.04 5.16223 3.27043 0
M  V30 2824 C 272.038 6.10875 3.05485 0
M  V30 2825 O 271.726 7.43928 3.04674 0
M  V30 2826 H 271.458 0.426685 0.524324 0
M  V30 2827 H 274.012 1.7329 1.10271 0
M  V30 2828 H 272.242 1.34082 3.6271 0
M  V30 2829 H 273.931 1.75853 3.65829 0
M  V30 2830 H 274.697 4.0416 2.68103 0
M  V30 2831 H 270.576 3.07457 3.43499 0
M  V30 2832 H 274.12 6.44228 2.67611 0
M  V30 2833 H 270.017 5.4666 3.43269 0
M  V30 2834 H 270.785 7.53022 3.2078 0
M  V30 2835 N 273.449 -1.08991 1.13837 0
M  V30 2836 C 274.679 -1.84743 0.924859 0
M  V30 2837 C 275.087 -1.81629 -0.529874 0
M  V30 2838 O 274.43 -1.21397 -1.37872 0
M  V30 2839 C 274.492 -3.33568 1.34061 0
M  V30 2840 C 274.156 -3.60425 2.80968 0
M  V30 2841 C 275.153 -3.55771 3.79108 0
M  V30 2842 C 272.838 -3.88627 3.18236 0
M  V30 2843 C 274.832 -3.78939 5.12527 0
M  V30 2844 C 272.519 -4.11449 4.51833 0
M  V30 2845 C 273.517 -4.06598 5.48787 0
M  V30 2846 O 273.205 -4.28826 6.79973 0
M  V30 2847 H 272.937 -0.590258 0.329502 0
M  V30 2848 H 275.491 -1.38598 1.51591 0
M  V30 2849 H 273.721 -3.80442 0.692853 0
M  V30 2850 H 275.41 -3.90743 1.09886 0
M  V30 2851 H 276.176 -3.34005 3.51661 0
M  V30 2852 H 272.055 -3.91526 2.43369 0
M  V30 2853 H 275.599 -3.75068 5.88192 0
M  V30 2854 H 271.496 -4.32698 4.79002 0
M  V30 2855 H 272.264 -4.46264 6.86142 0
M  V30 2856 N 274.927 -0.932562 -1.27047 0
M  V30 2857 C 275.857 -0.452902 -2.29066 0
M  V30 2858 C 276.838 0.489338 -1.62909 0
M  V30 2859 O 278.023 0.393046 -1.90181 0
M  V30 2860 C 275.153 0.290698 -3.46081 0
M  V30 2861 C 274.107 -0.564168 -4.24265 0
M  V30 2862 C 273.433 0.308886 -5.33807 0
M  V30 2863 C 274.733 -1.83112 -4.89149 0
M  V30 2864 H 276.427 -1.30552 -2.69437 0
M  V30 2865 H 273.973 -0.629201 -1.29526 0
M  V30 2866 H 275.926 0.637233 -4.16554 0
M  V30 2867 H 274.65 1.17738 -3.0464 0
M  V30 2868 H 273.309 -0.893477 -3.55545 0
M  V30 2869 H 272.957 1.19467 -4.88607 0
M  V30 2870 H 272.657 -0.259633 -5.87026 0
M  V30 2871 H 274.181 0.650884 -6.07121 0
M  V30 2872 H 275.595 -1.55236 -5.51883 0
M  V30 2873 H 273.992 -2.34353 -5.52448 0
M  V30 2874 H 275.062 -2.54772 -4.12576 0
M  V30 2875 N 276.405 1.4127 -0.698611 0
M  V30 2876 C 277.654 2.00408 -0.227949 0
M  V30 2877 C 277.967 1.55981 1.18023 0
M  V30 2878 O 279.173 2.07699 1.74852 0
M  V30 2879 C 277.629 3.58129 -0.356636 0
M  V30 2880 C 277.237 4.11536 -1.77037 0
M  V30 2881 C 278.981 4.24466 0.0540969 0
M  V30 2882 C 276.888 5.61701 -1.85055 0
M  V30 2883 H 275.818 0.749586 -0.0814657 0
M  V30 2884 H 278.469 1.61713 -0.867249 0
M  V30 2885 H 276.851 3.94442 0.350965 0
M  V30 2886 H 278.025 3.86636 -2.50698 0
M  V30 2887 H 276.34 3.57736 -2.13105 0
M  V30 2888 H 278.937 5.34698 0.0146723 0
M  V30 2889 H 279.28 4.01687 1.09332 0
M  V30 2890 H 279.813 3.93198 -0.603337 0
M  V30 2891 H 276.552 5.89312 -2.8704 0
M  V30 2892 H 276.072 5.88519 -1.15783 0
M  V30 2893 H 277.751 6.26524 -1.61484 0
M  V30 2894 N 277.883 0.443576 1.51229 0
M  V30 2895 C 279.108 -0.121648 2.07043 0
M  V30 2896 C 279.533 -1.35156 1.30823 0
M  V30 2897 O 278.891 -1.7793 0.347934 0
M  V30 2898 C 278.939 -0.41624 3.5819 0
M  V30 2899 O 278.043 -1.50163 3.8409 0
M  V30 2900 H 277.384 0.000871367 0.663999 0
M  V30 2901 H 279.914 0.626706 1.94765 0
M  V30 2902 H 279.924 -0.664867 4.02546 0
M  V30 2903 H 278.599 0.482653 4.1309 0
M  V30 2904 H 277.176 -1.24248 3.51592 0
M  V30 2905 N 279.361 -1.56624 0.175154 0
M  V30 2906 C 280.586 -2.01813 -0.478137 0
M  V30 2907 C 281.011 -1.05457 -1.55757 0
M  V30 2908 O 280.369 -0.0347439 -1.81267 0
M  V30 2909 C 280.417 -3.45581 -1.02987 0
M  V30 2910 O 279.521 -3.52305 -2.14371 0
M  V30 2911 H 278.862 -0.65413 -0.114059 0
M  V30 2912 H 281.392 -2.02673 0.280173 0
M  V30 2913 H 281.402 -3.84965 -1.35151 0
M  V30 2914 H 280.077 -4.1521 -0.239556 0
M  V30 2915 H 278.654 -3.24783 -1.83222 0
M  V30 2916 N 280.839 0.0985539 -1.57292 0
M  V30 2917 C 282.086 0.802678 -1.85912 0
M  V30 2918 C 282.414 1.78901 -0.763186 0
M  V30 2919 O 281.669 1.94178 0.243559 0
M  V30 2920 C 281.968 1.56927 -3.21105 0
M  V30 2921 C 281.634 0.725376 -4.45027 0
M  V30 2922 C 280.296 0.492726 -4.78671 0
M  V30 2923 C 282.648 0.138493 -5.21016 0
M  V30 2924 C 279.976 -0.336727 -5.85733 0
M  V30 2925 C 282.328 -0.678264 -6.28953 0
M  V30 2926 C 280.992 -0.921039 -6.61115 0
M  V30 2927 H 280.262 0.293721 -0.680301 0
M  V30 2928 H 282.909 0.0642841 -1.91392 0
M  V30 2929 H 281.214 2.37914 -3.11294 0
M  V30 2930 H 282.911 2.11841 -3.40477 0
M  V30 2931 H 279.501 0.916815 -4.18679 0
M  V30 2932 H 283.685 0.305404 -4.95359 0
M  V30 2933 H 278.941 -0.533836 -6.09065 0
M  V30 2934 H 283.115 -1.1399 -6.87007 0
M  V30 2935 H 280.742 -1.56556 -7.43905 0
M  V30 2936 N 282.317 1.53212 0.369288 0
M  V30 2937 C 283.545 1.73119 1.13303 0
M  V30 2938 C 283.96 0.458455 1.83149 0
M  V30 2939 O 283.317 -0.568403 1.73423 0
M  V30 2940 C 283.368 2.89413 2.16616 0
M  V30 2941 O 283.089 4.11761 1.49614 0
M  V30 2942 C 284.59 3.21161 3.05566 0
M  V30 2943 H 281.81 0.579107 0.338934 0
M  V30 2944 H 284.354 1.99942 0.429338 0
M  V30 2945 H 282.509 2.64994 2.82589 0
M  V30 2946 H 282.923 4.76858 2.18419 0
M  V30 2947 H 284.397 4.05949 3.74045 0
M  V30 2948 H 284.874 2.36369 3.70171 0
M  V30 2949 H 285.48 3.47492 2.45213 0
M  V30 2950 N 283.795 -0.628877 1.44509 0
M  V30 2951 C 285.072 -1.38733 1.37886 0
M  V30 2952 C 285.452 -2.11065 0.0387008 0
M  V30 2953 O 284.8 -2.06476 -0.97878 0
M  V30 2954 C 285.01 -2.35188 2.57852 0
M  V30 2955 C 286.358 -2.9845 3.02014 0
M  V30 2956 O 287.382 -2.45513 2.58073 0
M  V30 2957 O 286.241 -3.94487 3.78209 0
M  V30 2958 H 283.335 -0.621015 0.54614 0
M  V30 2959 H 285.881 -0.653744 1.56602 0
M  V30 2960 H 284.653 -1.80855 3.46998 0
M  V30 2961 H 284.276 -3.1596 2.4136 0
M  V30 2962 N 285.273 -1.31445 -0.869486 0
M  V30 2963 C 286.205 -1.14955 -1.98287 0
M  V30 2964 C 287.218 -0.0885037 -1.62559 0
M  V30 2965 O 288.407 -0.336044 -1.75308 0
M  V30 2966 C 285.507 -0.734255 -3.3085 0
M  V30 2967 C 284.68 -1.88042 -3.94917 0
M  V30 2968 C 283.739 -1.4511 -5.05796 0
M  V30 2969 O 282.765 -2.16082 -5.2659 0
M  V30 2970 N 283.967 -0.338763 -5.79511 0
M  V30 2971 H 286.732 -2.10856 -2.12979 0
M  V30 2972 H 284.293 -1.23786 -1.04349 0
M  V30 2973 H 286.285 -0.42975 -4.02412 0
M  V30 2974 H 284.855 0.133158 -3.12316 0
M  V30 2975 H 284.075 -2.35222 -3.1633 0
M  V30 2976 H 285.363 -2.6481 -4.34457 0
M  V30 2977 H 284.761 0.252274 -5.65137 0
M  V30 2978 H 283.318 -0.0937925 -6.51733 0
M  V30 2979 N 286.751 1.08385 -1.14413 0
M  V30 2980 C 287.681 2.17321 -0.854044 0
M  V30 2981 C 288.662 1.69024 0.191049 0
M  V30 2982 O 289.847 1.94141 0.0476779 0
M  V30 2983 C 286.977 3.45719 -0.330983 0
M  V30 2984 C 285.931 4.07409 -1.31155 0
M  V30 2985 C 285.257 5.30762 -0.64778 0
M  V30 2986 C 286.557 4.48665 -2.67388 0
M  V30 2987 H 288.251 2.41845 -1.76498 0
M  V30 2988 H 285.797 1.16233 -0.850051 0
M  V30 2989 H 287.75 4.21241 -0.115645 0
M  V30 2990 H 286.474 3.2075 0.615381 0
M  V30 2991 H 285.133 3.33919 -1.51306 0
M  V30 2992 H 284.781 5.02078 0.304398 0
M  V30 2993 H 284.481 5.72992 -1.30207 0
M  V30 2994 H 286.005 6.08998 -0.441972 0
M  V30 2995 H 287.419 5.15364 -2.51143 0
M  V30 2996 H 285.816 5.01814 -3.29093 0
M  V30 2997 H 286.886 3.60543 -3.24248 0
M  V30 2998 N 288.23 0.939286 1.26551 0
M  V30 2999 C 289.641 0.628782 1.75793 0
M  V30 3000 C 289.992 -0.856046 1.7654 0
M  V30 3001 O 289.117 -1.66994 1.3763 0
M  V30 3002 C 289.712 1.13465 3.19235 0
M  V30 3003 C 288.271 0.874601 3.66098 0
M  V30 3004 C 287.418 1.28667 2.45642 0
M  V30 3005 H 290.369 1.1178 1.12654 0
M  V30 3006 H 290.39 0.487609 3.77363 0
M  V30 3007 H 289.902 2.21535 3.1866 0
M  V30 3008 H 288.003 -0.191793 3.72106 0
M  V30 3009 H 288.116 1.50028 4.55004 0
M  V30 3010 H 286.48 0.705109 2.44745 0
M  V30 3011 H 287.263 2.37625 2.47769 0
M  V30 3012 N 289.708 -1.40897 0.706093 0
M  V30 3013 C 290.954 -2.01849 0.250681 0
M  V30 3014 C 291.309 -1.5496 -1.14041 0
M  V30 3015 O 290.602 -0.755566 -1.76073 0
M  V30 3016 C 290.796 -3.5646 0.259099 0
M  V30 3017 C 290.625 -4.18357 1.64947 0
M  V30 3018 C 289.395 -4.522 2.25485 0
M  V30 3019 C 291.593 -4.43856 2.598 0
M  V30 3020 N 289.575 -4.9944 3.56977 0
M  V30 3021 C 290.946 -4.92986 3.75985 0
M  V30 3022 C 293.001 -4.25882 2.57933 0
M  V30 3023 C 291.704 -5.2603 4.90597 0
M  V30 3024 C 293.73 -4.6002 3.71665 0
M  V30 3025 C 293.092 -5.09331 4.86581 0
M  V30 3026 H 289.191 -0.769843 0.137353 0
M  V30 3027 H 291.775 -1.71278 0.925845 0
M  V30 3028 H 289.946 -3.86481 -0.385592 0
M  V30 3029 H 291.678 -4.04144 -0.21213 0
M  V30 3030 H 288.433 -4.3901 1.77671 0
M  V30 3031 H 288.857 -5.27454 4.24407 0
M  V30 3032 H 293.499 -3.86986 1.70298 0
M  V30 3033 H 291.217 -5.63843 5.78884 0
M  V30 3034 H 294.803 -4.47762 3.71484 0
M  V30 3035 H 293.683 -5.35251 5.73129 0
M  V30 3036 N 291.186 -0.45159 -1.50991 0
M  V30 3037 C 292.414 0.108334 -2.06616 0
M  V30 3038 C 292.829 1.35224 -1.31757 0
M  V30 3039 O 292.186 1.78475 -0.381174 0
M  V30 3040 C 292.237 0.41619 -3.59096 0
M  V30 3041 O 291.958 -0.778361 -4.3113 0
M  V30 3042 C 293.459 1.02523 -4.31282 0
M  V30 3043 H 290.679 0.00159995 -0.670998 0
M  V30 3044 H 293.223 -0.634771 -1.94399 0
M  V30 3045 H 291.378 1.10921 -3.71181 0
M  V30 3046 H 291.792 -0.511181 -5.22003 0
M  V30 3047 H 293.266 1.19053 -5.39009 0
M  V30 3048 H 293.743 2.01013 -3.905 0
M  V30 3049 H 294.349 0.371173 -4.23677 0
M  V30 3050 N 292.664 1.56529 -0.183458 0
M  V30 3051 C 293.889 2.02064 0.467428 0
M  V30 3052 C 294.314 1.06282 1.55196 0
M  V30 3053 O 293.672 0.0443565 1.81246 0
M  V30 3054 C 293.72 3.46122 1.01153 0
M  V30 3055 O 292.824 3.53437 2.12499 0
M  V30 3056 H 292.165 0.654726 0.110588 0
M  V30 3057 H 294.695 2.02521 -0.290917 0
M  V30 3058 H 294.705 3.85676 1.33108 0
M  V30 3059 H 293.38 4.15331 0.217533 0
M  V30 3060 H 291.957 3.2575 1.81497 0
M  V30 3061 N 294.142 -0.090211 1.57342 0
M  V30 3062 C 295.382 -0.798365 1.88163 0
M  V30 3063 C 295.746 -1.75662 0.775046 0
M  V30 3064 O 296.947 -2.50849 0.965816 0
M  V30 3065 C 295.218 -1.50376 3.24225 0
M  V30 3066 S 296.777 -2.24952 3.76752 0
M  V30 3067 H 293.595 -0.265883 0.659414 0
M  V30 3068 H 296.197 -0.055264 1.95422 0
M  V30 3069 H 294.901 -0.792286 4.0268 0
M  V30 3070 H 294.432 -2.28666 3.20118 0
M  V30 3071 H 296.447 -3.51173 3.5056 0
M  V30 3072 N 295.62 -1.53406 -0.361157 0
M  V30 3073 C 296.567 -1.80156 -1.44265 0
M  V30 3074 C 297.537 -0.646183 -1.53015 0
M  V30 3075 O 298.722 -0.888818 -1.68833 0
M  V30 3076 C 295.862 -2.00116 -2.81154 0
M  V30 3077 C 294.975 -3.27833 -2.81335 0
M  V30 3078 C 294.11 -3.37957 -4.09828 0
M  V30 3079 C 293.149 -4.59689 -4.04168 0
M  V30 3080 N 292.286 -4.66942 -5.24318 0
M  V30 3081 H 297.126 -2.72438 -1.20754 0
M  V30 3082 H 294.663 -1.34954 -0.585296 0
M  V30 3083 H 296.621 -2.09677 -3.60682 0
M  V30 3084 H 295.251 -1.11167 -3.03054 0
M  V30 3085 H 294.303 -3.27204 -1.94014 0
M  V30 3086 H 295.615 -4.17442 -2.73027 0
M  V30 3087 H 294.769 -3.46853 -4.97773 0
M  V30 3088 H 293.508 -2.46372 -4.20894 0
M  V30 3089 H 292.513 -4.50889 -3.14609 0
M  V30 3090 H 293.738 -5.5262 -3.947 0
M  V30 3091 H 291.684 -3.7826 -5.35962 0
M  V30 3092 H 291.601 -5.50462 -5.18197 0
M  V30 3093 H 292.869 -4.80127 -6.14084 0
M  V30 3094 N 297.098 0.621204 -1.44841 0
M  V30 3095 C 298.046 1.75385 -1.52784 0
M  V30 3096 C 299.04 1.64639 -0.398779 0
M  V30 3097 O 300.246 1.70598 -0.574137 0
M  V30 3098 H 296.621 0.579193 -0.479625 0
M  V30 3099 H 298.592 1.6581 -2.48092 0
M  V30 3100 C 297.341 3.13742 -1.4987 0
M  V30 3101 H 296.664 3.22663 -2.36069 0
M  V30 3102 H 298.104 3.92861 -1.59487 0
M  V30 3103 C 296.563 3.36175 -0.220973 0
M  V30 3104 O 297.093 3.95469 0.704782 0
M  V30 3105 N 295.299 2.90348 -0.120963 0
M  V30 3106 H 294.846 2.42278 -0.875162 0
M  V30 3107 H 294.804 3.05732 0.733168 0
M  V30 3108 N 298.576 1.31904 0.862503 0
M  V30 3109 C 299.801 1.25135 1.65397 0
M  V30 3110 C 300.226 -0.179 1.87246 0
M  V30 3111 O 299.584 -1.1277 1.4196 0
M  V30 3112 C 299.632 2.00832 2.99498 0
M  V30 3113 O 298.736 1.35075 3.89652 0
M  V30 3114 H 298.077 0.431655 0.504549 0
M  V30 3115 H 300.607 1.74094 1.07483 0
M  V30 3116 H 300.617 2.10709 3.49379 0
M  V30 3117 H 299.292 3.04847 2.82916 0
M  V30 3118 H 297.869 1.33696 3.48109 0
M  V30 3119 N 300.054 -1.07777 1.14986 0
M  V30 3120 C 301.3 -1.80719 0.93339 0
M  V30 3121 C 301.655 -1.8484 -0.534019 0
M  V30 3122 O 300.948 -1.31795 -1.3907 0
M  V30 3123 C 301.142 -3.25495 1.47608 0
M  V30 3124 C 300.971 -3.3548 2.99472 0
M  V30 3125 C 299.741 -3.46293 3.6798 0
M  V30 3126 C 301.939 -3.26596 3.97291 0
M  V30 3127 N 299.921 -3.45136 5.07695 0
M  V30 3128 C 301.292 -3.32506 5.23297 0
M  V30 3129 C 303.347 -3.10376 3.89321 0
M  V30 3130 C 302.05 -3.23866 6.42264 0
M  V30 3131 C 304.076 -3.03069 5.07842 0
M  V30 3132 C 303.438 -3.09587 6.32721 0
M  V30 3133 H 299.537 -0.674814 0.395158 0
M  V30 3134 H 302.121 -1.28681 1.46114 0
M  V30 3135 H 300.292 -3.75963 0.975022 0
M  V30 3136 H 302.024 -3.86535 1.19887 0
M  V30 3137 H 298.779 -3.50456 3.18555 0
M  V30 3138 H 299.203 -3.48097 5.80653 0
M  V30 3139 H 303.845 -3.04194 2.93642 0
M  V30 3140 H 301.563 -3.28807 7.38181 0
M  V30 3141 H 305.149 -2.91629 5.03432 0
M  V30 3142 H 304.029 -3.0397 7.22891 0
M  V30 3143 N 301.532 -0.945985 -1.26051 0
M  V30 3144 C 302.48 -0.450259 -2.282 0
M  V30 3145 C 303.474 0.47497 -1.62605 0
M  V30 3146 O 304.68 0.352653 -1.76512 0
M  V30 3147 H 301.055 -0.127081 -0.741184 0
M  V30 3148 H 303.026 -1.32422 -2.67408 0
M  V30 3149 C 301.775 0.26467 -3.46691 0
M  V30 3150 H 301.098 -0.438123 -3.97392 0
M  V30 3151 H 302.538 0.575678 -4.20074 0
M  V30 3152 C 300.997 1.48416 -3.02447 0
M  V30 3153 O 301.527 2.58227 -3.07704 0
M  V30 3154 N 299.733 1.34243 -2.57735 0
M  V30 3155 H 299.28 0.448994 -2.53657 0
M  V30 3156 H 299.238 2.15957 -2.28495 0
M  V30 3157 N 303.011 1.40521 -0.713556 0
M  V30 3158 C 304.239 2.05237 -0.261775 0
M  V30 3159 C 304.654 1.53755 1.09567 0
M  V30 3160 O 304.011 0.693268 1.6882 0
M  V30 3161 C 304.062 3.60763 -0.230706 0
M  V30 3162 O 303.783 4.10345 -1.53455 0
M  V30 3163 C 305.284 4.42651 0.239874 0
M  V30 3164 H 302.504 0.660533 -0.118057 0
M  V30 3165 H 305.048 1.79967 -0.971192 0
M  V30 3166 H 303.203 3.8501 0.429661 0
M  V30 3167 H 303.617 5.04526 -1.43366 0
M  V30 3168 H 305.091 5.51599 0.210468 0
M  V30 3169 H 305.568 4.20082 1.28171 0
M  V30 3170 H 306.174 4.23507 -0.390142 0
M  V30 3171 N 304.489 0.459591 1.5075 0
M  V30 3172 C 305.737 -0.0991532 2.01857 0
M  V30 3173 C 306.058 -1.41247 1.34441 0
M  V30 3174 O 305.328 -1.89775 0.486022 0
M  V30 3175 H 303.908 -0.039633 0.745948 0
M  V30 3176 H 306.57 0.607387 1.85194 0
M  V30 3177 H 305.666 -0.258998 3.11023 0
M  V30 3178 N 305.967 -1.56429 0.191757 0
M  V30 3179 C 306.915 -2.20273 -0.747174 0
M  V30 3180 C 307.909 -1.17288 -1.22229 0
M  V30 3181 O 309.115 -1.35441 -1.18557 0
M  V30 3182 H 305.49 -0.705885 -0.259289 0
M  V30 3183 H 307.461 -2.97826 -0.184963 0
M  V30 3184 C 306.21 -2.87356 -1.95759 0
M  V30 3185 H 305.533 -3.66341 -1.60106 0
M  V30 3186 H 306.973 -3.3547 -2.59299 0
M  V30 3187 C 305.432 -1.88213 -2.79423 0
M  V30 3188 O 305.962 -1.38033 -3.7724 0
M  V30 3189 N 304.168 -1.56516 -2.44849 0
M  V30 3190 H 303.715 -1.97516 -1.65364 0
M  V30 3191 H 303.673 -0.904369 -3.01112 0
M  V30 3192 N 307.445 0.0818655 -1.57387 0
M  V30 3193 C 308.685 0.788375 -1.88584 0
M  V30 3194 C 309.049 1.75248 -0.784351 0
M  V30 3195 O 310.25 2.50334 -0.979105 0
M  V30 3196 C 308.521 1.48654 -3.25018 0
M  V30 3197 S 310.08 2.22951 -3.7794 0
M  V30 3198 H 306.898 0.262383 -0.660815 0
M  V30 3199 H 309.5 0.0448995 -1.95448 0
M  V30 3200 H 308.204 0.770919 -4.03094 0
M  V30 3201 H 307.735 2.26965 -3.21326 0
M  V30 3202 H 309.75 3.49309 -3.52417 0
M  V30 3203 N 308.923 1.53595 0.353017 0
M  V30 3204 C 310.151 1.74311 1.1146 0
M  V30 3205 C 310.566 0.477854 1.82653 0
M  V30 3206 O 309.923 -0.549977 1.74016 0
M  V30 3207 C 309.974 2.91694 2.13534 0
M  V30 3208 O 309.695 4.13325 1.45238 0
M  V30 3209 C 311.196 3.24384 3.02142 0
M  V30 3210 H 308.416 0.582669 0.332773 0
M  V30 3211 H 310.96 2.00386 0.408107 0
M  V30 3212 H 309.115 2.67977 2.79763 0
M  V30 3213 H 309.529 4.79148 2.13349 0
M  V30 3214 H 311.003 4.09893 3.69718 0
M  V30 3215 H 311.48 2.40282 3.67643 0
M  V30 3216 H 312.086 3.50073 2.41514 0
M  V30 3217 N 310.401 -0.613514 1.45168 0
M  V30 3218 C 311.349 -1.74572 1.53712 0
M  V30 3219 C 312.343 -1.64426 0.407505 0
M  V30 3220 O 313.549 -1.70291 0.583176 0
M  V30 3221 H 309.924 -0.576641 0.48269 0
M  V30 3222 H 311.895 -1.64492 2.48968 0
M  V30 3223 C 310.644 -3.12943 1.51532 0
M  V30 3224 H 309.967 -3.21407 2.37776 0
M  V30 3225 H 311.407 -3.9201 1.61569 0
M  V30 3226 C 309.866 -3.36053 0.238798 0
M  V30 3227 O 310.396 -3.95837 -0.6838 0
M  V30 3228 N 308.602 -2.9028 0.136359 0
M  V30 3229 H 308.149 -2.41811 0.887999 0
M  V30 3230 H 308.107 -3.06116 -0.716944 0
M  V30 3231 N 311.879 -1.3236 -0.855495 0
M  V30 3232 C 313.109 -1.25688 -1.6397 0
M  V30 3233 C 313.517 0.177592 -1.88365 0
M  V30 3234 O 312.86 1.12485 -1.45234 0
M  V30 3235 C 312.922 -1.94602 -3.02275 0
M  V30 3236 C 312.586 -3.43937 -3.00926 0
M  V30 3237 C 313.583 -4.39435 -2.77835 0
M  V30 3238 C 311.268 -3.85858 -3.21588 0
M  V30 3239 C 313.262 -5.74829 -2.75409 0
M  V30 3240 C 310.949 -5.21361 -3.18789 0
M  V30 3241 C 311.947 -6.15658 -2.95727 0
M  V30 3242 O 311.635 -7.48681 -2.928 0
M  V30 3243 H 311.367 -0.434972 -0.51747 0
M  V30 3244 H 313.921 -1.75023 -1.075 0
M  V30 3245 H 312.151 -1.39836 -3.60531 0
M  V30 3246 H 313.84 -1.81651 -3.62985 0
M  V30 3247 H 314.606 -4.08374 -2.6164 0
M  V30 3248 H 310.485 -3.12883 -3.38564 0
M  V30 3249 H 314.029 -6.48404 -2.57328 0
M  V30 3250 H 309.926 -5.52052 -3.34528 0
M  V30 3251 H 310.694 -7.5803 -3.0876 0
M  V30 3252 N 313.357 1.07166 -1.15556 0
M  V30 3253 C 314.604 1.79798 -0.931604 0
M  V30 3254 C 314.932 1.8682 0.54115 0
M  V30 3255 O 314.187 1.34942 1.41736 0
M  V30 3256 C 314.486 3.24707 -1.49332 0
M  V30 3257 C 314.152 3.37781 -2.98688 0
M  V30 3258 C 312.814 3.41057 -3.39461 0
M  V30 3259 C 315.166 3.40424 -3.94665 0
M  V30 3260 C 312.494 3.4458 -4.74849 0
M  V30 3261 C 314.846 3.45485 -5.29927 0
M  V30 3262 C 313.51 3.47039 -5.70193 0
M  V30 3263 H 312.78 0.657928 -0.340898 0
M  V30 3264 H 315.427 1.26091 -1.44129 0
M  V30 3265 H 313.732 3.81208 -0.904859 0
M  V30 3266 H 315.429 3.79486 -1.29582 0
M  V30 3267 H 312.019 3.35932 -2.66172 0
M  V30 3268 H 316.203 3.37113 -3.64237 0
M  V30 3269 H 311.459 3.44083 -5.05388 0
M  V30 3270 H 315.633 3.46476 -6.04092 0
M  V30 3271 H 313.26 3.49522 -6.75084 0
M  V30 3272 N 314.835 0.952656 1.25548 0
M  V30 3273 C 316.06 0.623025 1.97821 0
M  V30 3274 C 316.485 -0.7976 1.70352 0
M  V30 3275 O 315.843 -1.53905 0.958283 0
M  V30 3276 C 315.891 0.885532 3.49558 0
M  V30 3277 O 314.995 -0.0366641 4.12384 0
M  V30 3278 H 314.336 0.237082 0.620232 0
M  V30 3279 H 316.866 1.27871 1.59719 0
M  V30 3280 H 316.876 0.811009 3.99858 0
M  V30 3281 H 315.551 1.92094 3.6888 0
M  V30 3282 H 314.128 0.0898954 3.72792 0
M  V30 3283 N 316.313 -1.40141 0.720998 0
M  V30 3284 C 317.223 -2.34486 0.0731031 0
M  V30 3285 C 318.239 -1.57587 -0.737723 0
M  V30 3286 O 319.415 -1.89949 -0.669429 0
M  V30 3287 C 316.48 -3.36528 -0.833656 0
M  V30 3288 C 315.541 -4.29298 -0.0121673 0
M  V30 3289 C 314.774 -5.26466 -0.875742 0
M  V30 3290 O 314.997 -5.29745 -2.11485 0
M  V30 3291 O 313.931 -6.01092 -0.31185 0
M  V30 3292 H 317.757 -2.9152 0.851444 0
M  V30 3293 H 315.342 -1.41427 0.481527 0
M  V30 3294 H 317.224 -3.99093 -1.35289 0
M  V30 3295 H 315.899 -2.81899 -1.59105 0
M  V30 3296 H 314.806 -3.70001 0.552262 0
M  V30 3297 H 316.139 -4.87094 0.707129 0
M  V30 3298 N 317.792 -0.46758 -1.50504 0
M  V30 3299 C 319.069 0.15003 -1.95024 0
M  V30 3300 C 319.449 1.57304 -1.40779 0
M  V30 3301 O 318.797 2.20281 -0.607319 0
M  V30 3302 C 319.007 0.0969324 -3.48865 0
M  V30 3303 C 320.355 0.287565 -4.23625 0
M  V30 3304 O 321.379 0.173678 -3.55776 0
M  V30 3305 O 320.238 0.517186 -5.44047 0
M  V30 3306 H 317.332 0.113582 -0.819163 0
M  V30 3307 H 319.878 -0.52773 -1.61286 0
M  V30 3308 H 318.65 -0.896732 -3.80886 0
M  V30 3309 H 318.273 0.816303 -3.8913 0
M  V30 3310 N 319.27 1.56325 -0.20005 0
M  V30 3311 C 320.218 2.20666 0.735482 0
M  V30 3312 C 321.212 1.17934 1.21605 0
M  V30 3313 O 322.418 1.36068 1.17837 0
M  V30 3314 H 318.793 0.70725 0.255542 0
M  V30 3315 H 320.764 2.9792 0.169166 0
M  V30 3316 C 319.513 2.88391 1.94232 0
M  V30 3317 H 318.836 3.67185 1.58161 0
M  V30 3318 H 320.276 3.3684 2.57517 0
M  V30 3319 C 318.735 1.89692 2.78421 0
M  V30 3320 O 319.265 1.40032 3.76502 0
M  V30 3321 N 317.471 1.57813 2.44015 0
M  V30 3322 H 317.018 1.9839 1.64314 0
M  V30 3323 H 316.976 0.920325 3.00628 0
M  V30 3324 N 320.748 -0.0735177 1.57428 0
M  V30 3325 C 321.997 -0.771809 1.86349 0
M  V30 3326 C 322.31 -1.78828 0.792452 0
M  V30 3327 O 323.516 -2.53602 0.96945 0
M  V30 3328 C 321.972 -1.42358 3.30548 0
M  V30 3329 C 321.58 -0.445761 4.45777 0
M  V30 3330 C 323.324 -2.10434 3.6867 0
M  V30 3331 C 321.231 -1.10335 5.81016 0
M  V30 3332 H 320.161 -0.291999 0.695164 0
M  V30 3333 H 322.812 -0.0250749 1.83483 0
M  V30 3334 H 321.194 -2.21852 3.28021 0
M  V30 3335 H 322.368 0.319239 4.59693 0
M  V30 3336 H 320.683 0.130457 4.16196 0
M  V30 3337 H 323.28 -2.60405 4.67004 0
M  V30 3338 H 323.623 -2.90298 2.98383 0
M  V30 3339 H 324.156 -1.37773 3.7318 0
M  V30 3340 H 320.895 -0.345061 6.54591 0
M  V30 3341 H 320.415 -1.83925 5.70904 0
M  V30 3342 H 322.094 -1.62367 6.26295 0
M  V30 3343 N 322.226 -1.5378 -0.344866 0
M  V30 3344 C 323.454 -1.74899 -1.10534 0
M  V30 3345 C 323.869 -0.487534 -1.82397 0
M  V30 3346 O 323.226 0.540741 -1.74305 0
M  V30 3347 C 323.277 -2.92822 -2.11984 0
M  V30 3348 O 322.998 -4.14089 -1.43044 0
M  V30 3349 C 324.499 -3.25982 -3.00417 0
M  V30 3350 H 321.719 -0.584426 -0.329678 0
M  V30 3351 H 324.263 -2.006 -0.397474 0
M  V30 3352 H 322.418 -2.69457 -2.78338 0
M  V30 3353 H 322.832 -4.80272 -2.10805 0
M  V30 3354 H 324.306 -4.11848 -3.67539 0
M  V30 3355 H 324.783 -2.42228 -3.66363 0
M  V30 3356 H 325.389 -3.51349 -2.39654 0
M  V30 3357 N 323.704 0.605807 -1.45491 0
M  V30 3358 C 324.95 1.36481 -1.50813 0
M  V30 3359 C 325.305 1.91826 -0.148469 0
M  V30 3360 O 324.598 1.72211 0.839869 0
M  V30 3361 C 324.792 2.53012 -2.52428 0
M  V30 3362 C 324.621 2.09078 -3.98141 0
M  V30 3363 C 323.391 1.95167 -4.66088 0
M  V30 3364 C 325.589 1.66438 -4.86624 0
M  V30 3365 N 323.571 1.45062 -5.96515 0
M  V30 3366 C 324.942 1.27761 -6.06694 0
M  V30 3367 C 326.997 1.54046 -4.7347 0
M  V30 3368 C 325.7 0.779286 -7.15066 0
M  V30 3369 C 327.726 1.05618 -5.81892 0
M  V30 3370 C 327.088 0.67906 -7.01119 0
M  V30 3371 H 323.187 0.493267 -0.606805 0
M  V30 3372 H 325.771 0.692347 -1.81974 0
M  V30 3373 H 323.942 3.17851 -2.23215 0
M  V30 3374 H 325.674 3.19897 -2.47887 0
M  V30 3375 H 322.429 2.16407 -4.21266 0
M  V30 3376 H 322.853 1.22237 -6.65873 0
M  V30 3377 H 327.495 1.81827 -3.81705 0
M  V30 3378 H 325.213 0.489026 -8.06619 0
M  V30 3379 H 328.799 0.964529 -5.73749 0
M  V30 3380 H 327.679 0.310091 -7.83587 0
M  V30 3381 N 325.182 1.32811 0.848464 0
M  V30 3382 C 326.41 1.26739 1.63538 0
M  V30 3383 C 326.825 -0.163484 1.88091 0
M  V30 3384 O 326.182 -1.10258 1.45429 0
M  V30 3385 C 326.233 2.03013 2.99112 0
M  V30 3386 O 325.954 3.40518 2.75643 0
M  V30 3387 C 327.455 2.04038 3.93552 0
M  V30 3388 H 324.675 0.437024 0.509167 0
M  V30 3389 H 327.219 1.75033 1.05753 0
M  V30 3390 H 325.374 1.58426 3.53525 0
M  V30 3391 H 325.788 3.79635 3.61908 0
M  V30 3392 H 327.262 2.61877 4.85926 0
M  V30 3393 H 327.739 1.0282 4.26995 0
M  V30 3394 H 328.345 2.486 3.45077 0
M  V30 3395 N 326.66 -1.06551 1.16123 0
M  V30 3396 C 327.59 -2.15935 0.88851 0
M  V30 3397 C 328.571 -1.69306 -0.164135 0
M  V30 3398 O 329.756 -1.94193 -0.0167857 0
M  V30 3399 C 326.886 -3.45149 0.385942 0
M  V30 3400 C 325.84 -4.05271 1.3762 0
M  V30 3401 C 325.166 -5.29664 0.732137 0
M  V30 3402 C 326.466 -4.44355 2.74493 0
M  V30 3403 H 328.16 -2.39006 1.80323 0
M  V30 3404 H 325.706 -1.14866 0.868435 0
M  V30 3405 H 327.659 -4.21004 0.182647 0
M  V30 3406 H 326.383 -3.21689 -0.564274 0
M  V30 3407 H 325.042 -3.3147 1.56599 0
M  V30 3408 H 324.69 -5.02499 -0.224483 0
M  V30 3409 H 324.39 -5.70848 1.39307 0
M  V30 3410 H 325.914 -6.08218 0.538802 0
M  V30 3411 H 327.328 -5.11303 2.59311 0
M  V30 3412 H 325.725 -4.96515 3.37035 0
M  V30 3413 H 326.795 -3.55339 3.29943 0
M  V30 3414 N 328.138 -0.959301 -1.25041 0
M  V30 3415 C 329.088 -0.453888 -2.23436 0
M  V30 3416 C 330.072 0.459461 -1.542 0
M  V30 3417 O 331.264 0.291752 -1.74579 0
M  V30 3418 C 328.393 0.262667 -3.42294 0
M  V30 3419 C 327.479 -0.669022 -4.1879 0
M  V30 3420 N 327.87 -1.80267 -4.72586 0
M  V30 3421 C 326.168 -0.47814 -4.4343 0
M  V30 3422 C 326.869 -2.38475 -5.3057 0
M  V30 3423 N 325.845 -1.67078 -5.17287 0
M  V30 3424 H 329.647 -1.319 -2.6264 0
M  V30 3425 H 327.161 -0.817358 -1.40332 0
M  V30 3426 H 329.158 0.641911 -4.11929 0
M  V30 3427 H 327.818 1.12432 -3.04613 0
M  V30 3428 H 328.829 -2.18442 -4.69578 0
M  V30 3429 H 325.506 0.340249 -4.16111 0
M  V30 3430 H 326.896 -3.34094 -5.8295 0
M  V30 3431 N 329.616 1.39756 -0.72842 0
M  V30 3432 C 330.841 2.05472 -0.282159 0
M  V30 3433 C 331.266 1.54549 1.07221 0
M  V30 3434 O 330.624 0.686372 1.67805 0
M  V30 3435 C 330.672 3.59462 -0.286264 0
M  V30 3436 O 329.776 4.05918 0.728298 0
M  V30 3437 H 329.117 0.651226 -0.129618 0
M  V30 3438 H 331.647 1.78915 -0.992499 0
M  V30 3439 H 331.657 4.07798 -0.128373 0
M  V30 3440 H 330.332 3.95889 -1.27456 0
M  V30 3441 H 328.909 3.69012 0.537081 0
M  V30 3442 N 331.094 0.475555 1.50254 0
M  V30 3443 C 332.322 -0.0754493 2.06762 0
M  V30 3444 C 332.737 -1.33111 1.33891 0
M  V30 3445 O 332.094 -1.77846 0.40952 0
M  V30 3446 C 332.145 -0.359008 3.59713 0
M  V30 3447 O 331.866 0.846851 4.29837 0
M  V30 3448 C 333.367 -0.956484 4.32858 0
M  V30 3449 H 330.587 0.00907525 0.670939 0
M  V30 3450 H 333.131 0.665618 1.93364 0
M  V30 3451 H 331.286 -1.05001 3.72899 0
M  V30 3452 H 331.7 0.594162 5.21124 0
M  V30 3453 H 333.174 -1.10463 5.40834 0
M  V30 3454 H 333.651 -1.94775 3.93649 0
M  V30 3455 H 334.257 -0.303723 4.24214 0
M  V30 3456 N 332.573 -1.56217 0.208337 0
M  V30 3457 C 333.798 -2.02782 -0.435222 0
M  V30 3458 C 334.223 -1.08738 -1.53485 0
M  V30 3459 O 333.581 -0.0731855 -1.81152 0
M  V30 3460 C 333.629 -3.47687 -0.956335 0
M  V30 3461 O 332.733 -3.56773 -2.06849 0
M  V30 3462 H 332.074 -0.656403 -0.100158 0
M  V30 3463 H 334.604 -2.02033 0.3231 0
M  V30 3464 H 334.614 -3.87745 -1.26955 0
M  V30 3465 H 333.289 -4.15624 -0.15143 0
M  V30 3466 H 331.866 -3.28597 -1.76292 0
M  V30 3467 N 334.051 0.0651679 -1.57465 0
M  V30 3468 C 335.462 0.616213 -1.76238 0
M  V30 3469 C 335.813 1.7756 -0.834689 0
M  V30 3470 O 334.938 2.1639 -0.0204156 0
M  V30 3471 C 335.533 1.12462 -3.1959 0
M  V30 3472 C 334.092 1.62147 -3.39684 0
M  V30 3473 C 333.239 0.543739 -2.71917 0
M  V30 3474 H 336.19 -0.161022 -1.57881 0
M  V30 3475 H 336.211 1.99324 -3.24114 0
M  V30 3476 H 335.723 0.280592 -3.87084 0
M  V30 3477 H 333.824 2.48854 -2.77313 0
M  V30 3478 H 333.937 1.69385 -4.48158 0
M  V30 3479 H 332.301 0.990352 -2.34657 0
M  V30 3480 H 333.084 -0.290216 -3.42071 0
M  V30 3481 N 335.529 1.53961 0.336706 0
M  V30 3482 C 336.492 1.81724 1.39675 0
M  V30 3483 C 337.492 0.688532 1.45313 0
M  V30 3484 O 338.682 0.956829 1.45569 0
M  V30 3485 C 335.814 1.96543 2.78538 0
M  V30 3486 H 337.007 2.76424 1.16318 0
M  V30 3487 H 334.56 1.45478 0.571474 0
M  V30 3488 H 335.295 1.0401 3.07168 0
M  V30 3489 H 335.08 2.78665 2.75841 0
M  V30 3490 H 336.57 2.19516 3.5525 0
M  V30 3491 N 337.007 -0.598083 1.45811 0
M  V30 3492 C 337.917 -1.73632 1.57763 0
M  V30 3493 C 338.933 -1.67763 0.461676 0
M  V30 3494 O 340.109 -1.87949 0.723685 0
M  V30 3495 C 337.174 -3.10114 1.55018 0
M  V30 3496 C 336.235 -3.27364 2.77726 0
M  V30 3497 C 335.468 -4.57334 2.75102 0
M  V30 3498 O 335.691 -5.40258 1.8297 0
M  V30 3499 O 334.625 -4.77502 3.66437 0
M  V30 3500 H 338.451 -1.66498 2.53992 0
M  V30 3501 H 336.036 -0.763308 1.28429 0
M  V30 3502 H 337.918 -3.9141 1.56129 0
M  V30 3503 H 336.593 -3.17718 0.619431 0
M  V30 3504 H 335.5 -2.45619 2.82174 0
M  V30 3505 H 336.833 -3.24641 3.69958 0
M  V30 3506 N 338.485 -1.33259 -0.841409 0
M  V30 3507 C 339.395 -1.25332 -1.98316 0
M  V30 3508 C 340.411 -0.164364 -1.73222 0
M  V30 3509 O 341.587 -0.387486 -1.97637 0
M  V30 3510 C 338.652 -0.990078 -3.32262 0
M  V30 3511 C 337.713 -2.16879 -3.70489 0
M  V30 3512 C 336.946 -1.91801 -4.98044 0
M  V30 3513 O 337.169 -0.867075 -5.63771 0
M  V30 3514 O 336.103 -2.78267 -5.33714 0
M  V30 3515 H 339.929 -2.21344 -2.07944 0
M  V30 3516 H 337.514 -1.1328 -0.974058 0
M  V30 3517 H 339.396 -0.860321 -4.12524 0
M  V30 3518 H 338.071 -0.0602155 -3.23644 0
M  V30 3519 H 336.978 -2.35407 -2.90748 0
M  V30 3520 H 338.311 -3.0819 -3.8377 0
M  V30 3521 N 339.963 1.05934 -1.16686 0
M  V30 3522 C 341.21 1.788 -0.950622 0
M  V30 3523 C 341.538 1.87384 0.521305 0
M  V30 3524 O 340.793 1.36438 1.40297 0
M  V30 3525 C 341.092 3.23105 -1.52767 0
M  V30 3526 C 340.758 3.34594 -3.02254 0
M  V30 3527 C 339.42 3.37437 -3.43059 0
M  V30 3528 C 341.772 3.36219 -3.98254 0
M  V30 3529 C 339.1 3.39525 -4.78477 0
M  V30 3530 C 341.452 3.39845 -5.33562 0
M  V30 3531 C 340.116 3.40971 -5.73842 0
M  V30 3532 H 339.386 0.654275 -0.347857 0
M  V30 3533 H 342.033 1.24555 -1.45459 0
M  V30 3534 H 340.338 3.80227 -0.94524 0
M  V30 3535 H 342.035 3.7809 -1.336 0
M  V30 3536 H 338.625 3.3309 -2.6972 0
M  V30 3537 H 342.809 3.33231 -3.67792 0
M  V30 3538 H 338.065 3.38703 -5.09009 0
M  V30 3539 H 342.239 3.4005 -6.07733 0
M  V30 3540 H 339.866 3.42342 -6.78753 0
M  V30 3541 N 341.441 0.965919 1.2453 0
M  V30 3542 C 342.671 0.643451 1.96324 0
M  V30 3543 C 343.079 -0.790927 1.71875 0
M  V30 3544 O 342.422 -1.54208 0.998273 0
M  V30 3545 C 342.484 0.836078 3.49643 0
M  V30 3546 C 342.148 2.24975 3.97788 0
M  V30 3547 C 343.145 3.22735 4.07601 0
M  V30 3548 C 340.83 2.57697 4.31158 0
M  V30 3549 C 342.824 4.51303 4.50116 0
M  V30 3550 C 340.511 3.86492 4.73357 0
M  V30 3551 C 341.509 4.83107 4.828 0
M  V30 3552 O 341.197 6.09605 5.24058 0
M  V30 3553 H 340.929 0.239223 0.632257 0
M  V30 3554 H 343.483 1.29587 1.59362 0
M  V30 3555 H 341.713 0.12649 3.86493 0
M  V30 3556 H 343.402 0.512965 4.02646 0
M  V30 3557 H 344.168 2.98783 3.82039 0
M  V30 3558 H 340.047 1.83216 4.23028 0
M  V30 3559 H 343.591 5.26716 4.57401 0
M  V30 3560 H 339.488 4.10245 4.98366 0
M  V30 3561 H 340.256 6.13146 5.42213 0
M  V30 3562 N 342.919 -1.39368 0.735821 0
M  V30 3563 C 344.147 -2.04795 0.294393 0
M  V30 3564 C 344.562 -1.55478 -1.07107 0
M  V30 3565 O 343.919 -0.720038 -1.67695 0
M  V30 3566 C 343.97 -3.6035 0.288071 0
M  V30 3567 O 343.691 -4.07852 1.59963 0
M  V30 3568 C 345.192 -4.42976 -0.169422 0
M  V30 3569 H 342.412 -0.658571 0.128551 0
M  V30 3570 H 344.956 -1.78399 0.999701 0
M  V30 3571 H 343.111 -3.85645 -0.368355 0
M  V30 3572 H 343.525 -5.02181 1.51375 0
M  V30 3573 H 344.999 -5.51864 -0.122687 0
M  V30 3574 H 345.476 -4.22068 -1.21472 0
M  V30 3575 H 346.082 -4.22832 0.457469 0
M  V30 3576 N 344.397 -0.483516 -1.5 0
M  V30 3577 C 345.813 -0.138404 -1.58999 0
M  V30 3578 C 346.013 1.35597 -1.4905 0
M  V30 3579 O 345.069 2.13039 -1.35539 0
M  V30 3580 C 346.382 -0.699658 -2.92447 0
M  V30 3581 C 347.93 -0.664195 -3.05872 0
M  V30 3582 C 348.405 -1.20321 -4.41913 0
M  V30 3583 N 349.896 -1.16315 -4.48358 0
M  V30 3584 C 350.631 -1.55058 -5.52037 0
M  V30 3585 N 350.127 -2.01311 -6.62907 0
M  V30 3586 N 351.92 -1.46584 -5.42651 0
M  V30 3587 H 344.071 -1.45529 -1.5471 0
M  V30 3588 H 346.334 -0.60258 -0.731848 0
M  V30 3589 H 346.04 -1.747 -3.05242 0
M  V30 3590 H 345.914 -0.150194 -3.76901 0
M  V30 3591 H 348.301 0.374272 -2.92717 0
M  V30 3592 H 348.382 -1.25061 -2.23144 0
M  V30 3593 H 348.026 -2.24037 -4.55818 0
M  V30 3594 H 347.956 -0.592896 -5.23252 0
M  V30 3595 H 350.447 -0.824058 -3.68806 0
M  V30 3596 H 350.76 -2.2899 -7.38095 0
M  V30 3597 H 349.105 -2.05273 -6.63994 0
M  V30 3598 H 352.296 -1.10281 -4.54924 0
M  V30 3599 H 352.469 -1.77103 -6.23329 0
M  V30 3600 N 345.875 1.56104 -0.216619 0
M  V30 3601 C 346.825 2.16703 0.708798 0
M  V30 3602 C 347.809 1.11392 1.16106 0
M  V30 3603 O 349.001 1.37395 1.11587 0
M  V30 3604 C 346.13 2.84666 1.91886 0
M  V30 3605 C 345.216 3.97195 1.48651 0
M  V30 3606 N 345.607 4.99959 0.766434 0
M  V30 3607 C 343.905 4.09193 1.77418 0
M  V30 3608 C 344.606 5.79126 0.546659 0
M  V30 3609 N 343.582 5.32315 1.10188 0
M  V30 3610 H 347.384 2.93516 0.150162 0
M  V30 3611 H 344.898 1.6239 -0.0176768 0
M  V30 3612 H 346.895 3.26486 2.59253 0
M  V30 3613 H 345.555 2.09347 2.48202 0
M  V30 3614 H 346.566 5.16197 0.419634 0
M  V30 3615 H 343.243 3.45021 2.35088 0
M  V30 3616 H 344.633 6.71895 -0.026103 0
M  V30 3617 N 347.353 -0.0568162 1.57498 0
M  V30 3618 C 348.599 -0.75422 1.88253 0
M  V30 3619 C 348.932 -1.76461 0.810865 0
M  V30 3620 O 348.207 -1.93691 -0.177259 0
M  V30 3621 C 348.49 -1.44878 3.2967 0
M  V30 3622 C 348.343 -0.453789 4.47505 0
M  V30 3623 C 349.662 -2.38994 3.69554 0
M  V30 3624 H 346.781 -0.272724 0.684683 0
M  V30 3625 H 349.423 -0.0172113 1.89992 0
M  V30 3626 H 347.573 -2.077 3.28318 0
M  V30 3627 H 349.245 0.170371 4.60985 0
M  V30 3628 H 347.488 0.229552 4.33192 0
M  V30 3629 H 348.159 -0.977699 5.43273 0
M  V30 3630 H 350.635 -1.86239 3.72095 0
M  V30 3631 H 349.511 -2.84587 4.69363 0
M  V30 3632 H 349.772 -3.24461 3.00296 0
M  V30 3633 N 348.832 -1.54138 -0.328536 0
M  V30 3634 C 349.762 -1.86167 -1.40939 0
M  V30 3635 C 350.743 -0.718044 -1.54202 0
M  V30 3636 O 351.928 -0.971328 -1.68163 0
M  V30 3637 C 349.058 -2.08461 -2.77779 0
M  V30 3638 C 348.012 -3.24299 -2.7931 0
M  V30 3639 C 347.338 -3.31955 -4.19178 0
M  V30 3640 C 348.638 -4.62065 -2.43502 0
M  V30 3641 H 350.332 -2.76689 -1.14383 0
M  V30 3642 H 347.878 -1.33132 -0.548806 0
M  V30 3643 H 349.831 -2.29453 -3.53454 0
M  V30 3644 H 348.555 -1.14684 -3.05802 0
M  V30 3645 H 347.214 -3.03187 -2.0609 0
M  V30 3646 H 346.862 -2.35745 -4.44335 0
M  V30 3647 H 346.562 -4.09805 -4.2111 0
M  V30 3648 H 348.086 -3.55175 -4.96672 0
M  V30 3649 H 349.5 -4.8297 -3.08889 0
M  V30 3650 H 347.897 -5.42429 -2.56693 0
M  V30 3651 H 348.967 -4.64652 -1.38659 0
M  V30 3652 N 350.31 0.590341 -1.46126 0
M  V30 3653 C 351.242 1.71427 -1.52136 0
M  V30 3654 C 352.255 1.57542 -0.41042 0
M  V30 3655 O 353.444 1.65106 -0.678389 0
M  V30 3656 C 350.544 3.09605 -1.37834 0
M  V30 3657 C 349.717 3.49566 -2.62912 0
M  V30 3658 C 348.776 4.66773 -2.42918 0
M  V30 3659 O 347.802 4.73019 -3.1661 0
M  V30 3660 N 349.004 5.61161 -1.4859 0
M  V30 3661 H 351.769 1.66728 -2.49042 0
M  V30 3662 H 349.33 0.776113 -1.42085 0
M  V30 3663 H 351.322 3.85796 -1.22243 0
M  V30 3664 H 349.892 3.08714 -0.491393 0
M  V30 3665 H 349.112 2.63158 -2.93499 0
M  V30 3666 H 350.4 3.73028 -3.46017 0
M  V30 3667 H 349.798 5.58844 -0.87808 0
M  V30 3668 H 348.355 6.36814 -1.38965 0
M  V30 3669 N 351.788 1.33704 0.83433 0
M  V30 3670 C 353.037 1.24763 1.58484 0
M  V30 3671 C 353.35 -0.183775 1.94735 0
M  V30 3672 O 354.556 -0.395234 2.68608 0
M  V30 3673 C 353.012 2.18638 2.85876 0
M  V30 3674 C 352.62 3.66974 2.56971 0
M  V30 3675 C 354.364 2.18581 3.63899 0
M  V30 3676 C 352.271 4.5275 3.80488 0
M  V30 3677 H 351.201 0.463425 0.594772 0
M  V30 3678 H 353.852 1.58797 0.919551 0
M  V30 3679 H 352.234 1.77542 3.5397 0
M  V30 3680 H 353.408 4.16538 1.9706 0
M  V30 3681 H 351.723 3.69366 1.92244 0
M  V30 3682 H 354.32 2.79894 4.55591 0
M  V30 3683 H 354.663 1.18207 3.99165 0
M  V30 3684 H 355.196 2.58062 3.02735 0
M  V30 3685 H 351.935 5.54017 3.5035 0
M  V30 3686 H 351.455 4.07927 4.39722 0
M  V30 3687 H 353.134 4.66784 4.4802 0
M  V30 3688 N 353.266 -1.05314 1.17247 0
M  V30 3689 C 354.216 -2.11313 0.856196 0
M  V30 3690 C 355.2 -1.60013 -0.168694 0
M  V30 3691 O 356.392 -1.76968 0.0335624 0
M  V30 3692 C 353.521 -3.41301 0.369917 0
M  V30 3693 C 352.607 -3.99401 1.42616 0
M  V30 3694 N 352.998 -4.31481 2.63928 0
M  V30 3695 C 351.296 -4.27126 1.28373 0
M  V30 3696 C 351.997 -4.77799 3.31787 0
M  V30 3697 N 350.973 -4.77843 2.59166 0
M  V30 3698 H 354.775 -2.33976 1.77856 0
M  V30 3699 H 352.289 -1.2295 1.06099 0
M  V30 3700 H 354.286 -4.16713 0.124897 0
M  V30 3701 H 352.946 -3.20072 -0.546253 0
M  V30 3702 H 353.957 -4.21519 3.00902 0
M  V30 3703 H 350.634 -4.15289 0.429111 0
M  V30 3704 H 352.024 -5.11743 4.35395 0
M  V30 3705 N 354.744 -0.972509 -1.24016 0
M  V30 3706 C 356.16 -0.679827 -1.44397 0
M  V30 3707 C 356.36 0.756716 -1.86751 0
M  V30 3708 O 355.416 1.53007 -2.00861 0
M  V30 3709 C 356.729 -1.66803 -2.50195 0
M  V30 3710 C 358.277 -1.68119 -2.64017 0
M  V30 3711 C 358.752 -2.65748 -3.73017 0
M  V30 3712 N 360.243 -2.64219 -3.8045 0
M  V30 3713 C 360.978 -3.36433 -4.64328 0
M  V30 3714 N 360.474 -4.1818 -5.52356 0
M  V30 3715 N 362.267 -3.25235 -4.58453 0
M  V30 3716 H 354.418 -1.90059 -0.948228 0
M  V30 3717 H 356.681 -0.818527 -0.478245 0
M  V30 3718 H 356.387 -2.69498 -2.25973 0
M  V30 3719 H 356.261 -1.4446 -3.48441 0
M  V30 3720 H 358.648 -0.661319 -2.87594 0
M  V30 3721 H 358.729 -1.94525 -1.66113 0
M  V30 3722 H 358.373 -3.67872 -3.50189 0
M  V30 3723 H 358.303 -2.36619 -4.70446 0
M  V30 3724 H 360.794 -2.04887 -3.17537 0
M  V30 3725 H 361.107 -4.70157 -6.13329 0
M  V30 3726 H 359.452 -4.22273 -5.52006 0
M  V30 3727 H 362.643 -2.60829 -3.88698 0
M  V30 3728 H 362.816 -3.81776 -5.23594 0
M  V30 3729 N 356.222 1.38976 -0.743202 0
M  V30 3730 C 357.447 2.05161 -0.303936 0
M  V30 3731 C 357.872 1.55677 1.05576 0
M  V30 3732 O 357.23 0.704131 1.67068 0
M  V30 3733 C 357.278 3.59138 -0.324373 0
M  V30 3734 O 356.382 4.06668 0.685204 0
M  V30 3735 H 355.723 0.649815 -0.136518 0
M  V30 3736 H 358.253 1.77852 -1.01142 0
M  V30 3737 H 358.263 4.07639 -0.171618 0
M  V30 3738 H 356.938 3.94515 -1.31647 0
M  V30 3739 H 355.515 3.69561 0.497913 0
M  V30 3740 N 357.7 0.491464 1.49741 0
M  V30 3741 C 358.647 -0.292027 2.28945 0
M  V30 3742 C 359.617 -0.968973 1.34908 0
M  V30 3743 O 360.802 -0.97748 1.6386 0
M  V30 3744 C 357.942 -1.35617 3.17336 0
M  V30 3745 C 357.055 -0.691957 4.26422 0
M  V30 3746 C 356.19 -1.73572 5.02042 0
M  V30 3747 C 355.229 -1.05286 6.02977 0
M  V30 3748 N 354.366 -2.0404 6.71798 0
M  V30 3749 H 359.206 0.389654 2.95442 0
M  V30 3750 H 356.743 0.204003 1.45679 0
M  V30 3751 H 358.701 -1.98502 3.66951 0
M  V30 3752 H 357.331 -2.00674 2.52844 0
M  V30 3753 H 356.383 0.0499523 3.80367 0
M  V30 3754 H 357.695 -0.153946 4.98562 0
M  V30 3755 H 356.849 -2.43987 5.55478 0
M  V30 3756 H 355.588 -2.30757 4.29654 0
M  V30 3757 H 354.593 -0.334446 5.48782 0
M  V30 3758 H 355.818 -0.487636 6.77347 0
M  V30 3759 H 353.764 -2.60205 6.02187 0
M  V30 3760 H 353.681 -1.55279 7.39881 0
M  V30 3761 H 354.949 -2.73772 7.29842 0
M  V30 3762 N 359.178 -1.55987 0.224894 0
M  V30 3763 C 360.426 -1.97998 -0.405099 0
M  V30 3764 C 360.747 -1.11387 -1.60056 0
M  V30 3765 O 360.017 -0.191645 -1.9496 0
M  V30 3766 H 358.597 -0.731235 -0.152658 0
M  V30 3767 H 361.259 -1.92279 0.318567 0
M  V30 3768 H 360.355 -3.03463 -0.729167 0
M  V30 3769 N 360.656 0.0484629 -1.57525 0
M  V30 3770 C 361.586 1.0549 -2.08313 0
M  V30 3771 C 362.567 1.38929 -0.981463 0
M  V30 3772 O 363.752 1.48151 -1.25558 0
M  V30 3773 C 360.882 2.36162 -2.54646 0
M  V30 3774 C 359.836 2.17016 -3.68901 0
M  V30 3775 C 359.162 3.53278 -4.01371 0
M  V30 3776 C 360.462 1.57219 -4.98076 0
M  V30 3777 H 362.156 0.632195 -2.92649 0
M  V30 3778 H 359.702 0.302654 -1.40784 0
M  V30 3779 H 361.655 3.06882 -2.88793 0
M  V30 3780 H 360.379 2.80456 -1.67368 0
M  V30 3781 H 359.038 1.48733 -3.35073 0
M  V30 3782 H 358.686 3.95185 -3.11188 0
M  V30 3783 H 358.386 3.41299 -4.78318 0
M  V30 3784 H 359.91 4.25391 -4.38035 0
M  V30 3785 H 361.324 2.17832 -5.30304 0
M  V30 3786 H 359.721 1.55871 -5.79503 0
M  V30 3787 H 360.791 0.535956 -4.81929 0
M  V30 3788 N 362.134 1.5431 0.320358 0
M  V30 3789 C 363.066 1.80262 1.41556 0
M  V30 3790 C 364.079 0.684723 1.477 0
M  V30 3791 O 365.268 0.961886 1.50366 0
M  V30 3792 C 362.368 1.90825 2.8007 0
M  V30 3793 C 361.541 3.21023 2.97091 0
M  V30 3794 C 360.6 3.22247 4.15985 0
M  V30 3795 O 359.626 3.95871 4.08992 0
M  V30 3796 N 360.828 2.46258 5.25678 0
M  V30 3797 H 363.593 2.74778 1.19655 0
M  V30 3798 H 361.154 1.53646 0.510358 0
M  V30 3799 H 363.146 1.89067 3.57821 0
M  V30 3800 H 361.716 1.03392 2.95006 0
M  V30 3801 H 360.936 3.35715 2.06614 0
M  V30 3802 H 362.224 4.0698 3.05361 0
M  V30 3803 H 361.622 1.86037 5.34235 0
M  V30 3804 H 360.179 2.50275 6.01835 0
M  V30 3805 N 363.613 -0.582584 1.46437 0
M  V30 3806 C 364.89 -1.34276 1.4223 0
M  V30 3807 C 365.27 -2.10835 0.10583 0
M  V30 3808 O 364.618 -2.09485 -0.912596 0
M  V30 3809 C 364.828 -2.26865 2.65204 0
M  V30 3810 C 366.176 -2.88691 3.11356 0
M  V30 3811 O 367.2 -2.37178 2.65753 0
M  V30 3812 O 366.059 -3.82255 3.90568 0
M  V30 3813 H 363.153 -0.603326 0.565621 0
M  V30 3814 H 365.699 -0.603591 1.58603 0
M  V30 3815 H 364.471 -1.69724 3.52576 0
M  V30 3816 H 364.094 -3.08122 2.5129 0
M  V30 3817 N 365.091 -1.34144 -0.827227 0
M  V30 3818 C 366.021 -1.28005 -1.95287 0
M  V30 3819 C 367.002 -0.158321 -1.69362 0
M  V30 3820 O 368.187 -0.349987 -1.9102 0
M  V30 3821 C 365.317 -1.03036 -3.31664 0
M  V30 3822 C 364.271 -2.11628 -3.72019 0
M  V30 3823 C 363.597 -1.71854 -5.0633 0
M  V30 3824 C 364.897 -3.53417 -3.8457 0
M  V30 3825 H 366.591 -2.22187 -2.00682 0
M  V30 3826 H 364.137 -1.0696 -0.964135 0
M  V30 3827 H 366.09 -0.973863 -4.09993 0
M  V30 3828 H 364.814 -0.0529391 -3.26557 0
M  V30 3829 H 363.473 -2.16339 -2.95961 0
M  V30 3830 H 363.121 -0.727841 -4.97706 0
M  V30 3831 H 362.821 -2.44531 -5.34302 0
M  V30 3832 H 364.345 -1.67692 -5.87122 0
M  V30 3833 H 365.759 -3.51142 -4.5318 0
M  V30 3834 H 364.156 -4.24679 -4.2399 0
M  V30 3835 H 365.226 -3.91072 -2.86689 0
M  V30 3836 N 366.569 1.04691 -1.17803 0
M  V30 3837 C 367.817 1.7743 -0.967617 0
M  V30 3838 C 368.138 1.88359 0.504574 0
M  V30 3839 O 367.408 1.40402 1.36617 0
M  V30 3840 H 365.988 0.657242 -0.355024 0
M  V30 3841 H 368.65 1.2638 -1.48371 0
M  V30 3842 H 367.746 2.78924 -1.40027 0
M  V30 3843 N 368.047 0.979072 1.23499 0
M  V30 3844 C 369.295 0.645941 1.91499 0
M  V30 3845 C 369.616 -0.822948 1.76784 0
M  V30 3846 O 368.886 -1.58854 1.14639 0
M  V30 3847 H 367.466 0.235919 0.708767 0
M  V30 3848 H 370.128 1.2426 1.50152 0
M  V30 3849 H 369.224 0.896411 2.9895 0
M  V30 3850 N 369.525 -1.3858 0.750561 0
M  V30 3851 C 370.774 -1.99424 0.302172 0
M  V30 3852 C 371.087 -1.60254 -1.12152 0
M  V30 3853 O 372.293 -2.14046 -1.67023 0
M  V30 3854 C 370.749 -3.56558 0.489307 0
M  V30 3855 C 370.357 -4.04682 1.92189 0
M  V30 3856 C 372.101 -4.24374 0.103478 0
M  V30 3857 C 370.008 -5.54446 2.05775 0
M  V30 3858 H 368.938 -0.746046 0.10923 0
M  V30 3859 H 371.589 -1.58383 0.92667 0
M  V30 3860 H 369.971 -3.95472 -0.204329 0
M  V30 3861 H 371.145 -3.77065 2.64875 0
M  V30 3862 H 369.46 -3.4958 2.26236 0
M  V30 3863 H 372.057 -5.34384 0.183787 0
M  V30 3864 H 372.4 -4.05468 -0.943481 0
M  V30 3865 H 372.933 -3.90688 0.748854 0
M  V30 3866 H 369.672 -5.78252 3.08714 0
M  V30 3867 H 369.192 -5.83816 1.37546 0
M  V30 3868 H 370.871 -6.20099 1.84626 0
M  V30 3869 N 371.003 -0.499398 -1.49478 0
M  V30 3870 C 372.228 0.044722 -2.07352 0
M  V30 3871 C 372.653 1.30207 -1.35749 0
M  V30 3872 O 372.011 1.76516 -0.413732 0
M  V30 3873 C 372.059 0.283013 -3.59488 0
M  V30 3874 O 371.163 1.35804 -3.89398 0
M  V30 3875 H 370.504 -0.0255147 -0.66351 0
M  V30 3876 H 373.034 -0.698561 -1.92305 0
M  V30 3877 H 373.044 0.515007 -4.04737 0
M  V30 3878 H 371.719 -0.635636 -4.11014 0
M  V30 3879 H 370.296 1.11113 -3.55961 0
M  V30 3880 N 372.481 1.55866 -0.233164 0
M  V30 3881 C 373.727 1.99643 0.389148 0
M  V30 3882 C 374.082 1.11836 1.56558 0
M  V30 3883 O 373.375 0.170848 1.90837 0
M  V30 3884 C 373.569 3.46856 0.861724 0
M  V30 3885 C 373.398 4.48904 -0.267376 0
M  V30 3886 C 372.168 4.99888 -0.737577 0
M  V30 3887 C 374.366 5.02624 -1.08966 0
M  V30 3888 N 372.348 5.8566 -1.84052 0
M  V30 3889 C 373.719 5.85434 -2.04125 0
M  V30 3890 C 375.774 4.84959 -1.12779 0
M  V30 3891 C 374.477 6.52466 -3.02789 0
M  V30 3892 C 376.503 5.52759 -2.10266 0
M  V30 3893 C 375.865 6.35346 -3.04162 0
M  V30 3894 H 371.964 0.774402 0.108742 0
M  V30 3895 H 374.548 1.91572 -0.347596 0
M  V30 3896 H 372.719 3.55352 1.5678 0
M  V30 3897 H 374.451 3.77531 1.45783 0
M  V30 3898 H 371.206 4.7249 -0.324122 0
M  V30 3899 H 371.63 6.33246 -2.39434 0
M  V30 3900 H 376.272 4.20751 -0.415749 0
M  V30 3901 H 373.99 7.15849 -3.74948 0
M  V30 3902 H 377.576 5.41051 -2.13905 0
M  V30 3903 H 376.456 6.86883 -3.78366 0
M  V30 3904 N 373.959 -0.0401083 1.57549 0
M  V30 3905 C 374.891 -1.07149 2.02612 0
M  V30 3906 C 375.904 -1.33126 0.937085 0
M  V30 3907 O 377.093 -1.30808 1.21456 0
M  V30 3908 C 374.193 -2.41561 2.37701 0
M  V30 3909 C 373.366 -2.35096 3.68848 0
M  V30 3910 C 372.425 -3.51867 3.91249 0
M  V30 3911 O 371.451 -3.3186 4.62447 0
M  V30 3912 N 372.653 -4.73351 3.36035 0
M  V30 3913 H 375.418 -0.687485 2.91708 0
M  V30 3914 H 372.979 -0.228248 1.60283 0
M  V30 3915 H 374.971 -3.18379 2.49833 0
M  V30 3916 H 373.541 -2.71846 1.54332 0
M  V30 3917 H 372.761 -1.4345 3.67173 0
M  V30 3918 H 374.049 -2.27908 4.54901 0
M  V30 3919 H 373.447 -4.92507 2.78304 0
M  V30 3920 H 372.004 -5.47572 3.53565 0
M  V30 3921 N 375.437 -1.54477 -0.31217 0
M  V30 3922 C 376.367 -1.87652 -1.38957 0
M  V30 3923 C 377.348 -0.734358 -1.53431 0
M  V30 3924 O 378.533 -0.98911 -1.67123 0
M  V30 3925 C 375.663 -2.11396 -2.75552 0
M  V30 3926 C 374.617 -3.27243 -2.75855 0
M  V30 3927 C 373.943 -3.36382 -4.15633 0
M  V30 3928 C 375.243 -4.64622 -2.38587 0
M  V30 3929 H 376.937 -2.77887 -1.11442 0
M  V30 3930 H 374.483 -1.33707 -0.534655 0
M  V30 3931 H 376.436 -2.33189 -3.51 0
M  V30 3932 H 375.16 -1.17921 -3.04569 0
M  V30 3933 H 373.819 -3.05356 -2.02863 0
M  V30 3934 H 373.467 -2.40445 -4.41809 0
M  V30 3935 H 373.167 -4.14249 -4.1674 0
M  V30 3936 H 374.691 -3.60422 -4.92877 0
M  V30 3937 H 376.105 -4.86219 -3.03749 0
M  V30 3938 H 374.502 -5.45121 -2.50925 0
M  V30 3939 H 375.572 -4.66097 -1.33723 0
M  V30 3940 N 376.915 0.57481 -1.46744 0
M  V30 3941 C 377.878 1.66533 -1.57478 0
M  V30 3942 C 378.878 1.54338 -0.451263 0
M  V30 3943 O 380.068 1.58814 -0.715813 0
M  V30 3944 C 377.2 3.05999 -1.50259 0
M  V30 3945 H 378.393 1.58372 -2.54673 0
M  V30 3946 H 375.946 0.793301 -1.34672 0
M  V30 3947 H 376.681 3.19709 -0.543725 0
M  V30 3948 H 376.466 3.16259 -2.31781 0
M  V30 3949 H 377.956 3.8537 -1.60872 0
M  V30 3950 N 378.394 1.34581 0.820102 0
M  V30 3951 C 379.324 1.29038 1.94606 0
M  V30 3952 C 380.305 0.1673 1.69275 0
M  V30 3953 O 381.49 0.360112 1.90832 0
M  V30 3954 C 378.62 1.04793 3.31113 0
M  V30 3955 C 377.574 2.13597 3.70891 0
M  V30 3956 C 376.9 1.74537 5.05412 0
M  V30 3957 C 378.2 3.55451 3.8269 0
M  V30 3958 H 379.894 2.23248 1.99501 0
M  V30 3959 H 377.44 1.0747 0.958449 0
M  V30 3960 H 379.393 0.995592 4.0947 0
M  V30 3961 H 378.117 0.0702565 3.26524 0
M  V30 3962 H 376.776 2.17905 2.9481 0
M  V30 3963 H 376.424 0.754226 4.97313 0
M  V30 3964 H 376.124 2.47361 5.32997 0
M  V30 3965 H 377.648 1.70803 5.86224 0
M  V30 3966 H 379.062 3.5354 4.51312 0
M  V30 3967 H 377.459 4.26922 4.21732 0
M  V30 3968 H 378.529 3.92587 2.84611 0
M  V30 3969 N 379.872 -1.04064 1.18357 0
M  V30 3970 C 381.112 -1.78829 0.989921 0
M  V30 3971 C 381.476 -1.86106 -0.472095 0
M  V30 3972 O 382.677 -2.57076 -0.785187 0
M  V30 3973 C 380.948 -3.1823 1.6268 0
M  V30 3974 S 382.507 -4.09332 1.58091 0
M  V30 3975 H 379.325 -0.615754 0.355482 0
M  V30 3976 H 381.927 -1.24778 1.50501 0
M  V30 3977 H 380.631 -3.10543 2.68311 0
M  V30 3978 H 380.162 -3.77357 1.112 0
M  V30 3979 H 382.177 -4.92598 0.596817 0
M  V30 3980 N 381.35 -0.985608 -1.22978 0
M  V30 3981 C 382.599 -0.652881 -1.90841 0
M  V30 3982 C 382.912 0.817842 -1.77681 0
M  V30 3983 O 384.118 1.26185 -2.40395 0
M  V30 3984 C 382.574 -1.11717 -3.42122 0
M  V30 3985 C 382.182 -2.6126 -3.63933 0
M  V30 3986 C 383.926 -0.85843 -4.1573 0
M  V30 3987 C 381.833 -3.0133 -5.08876 0
M  V30 3988 H 380.763 -0.240491 -0.714619 0
M  V30 3989 H 383.414 -1.1942 -1.39324 0
M  V30 3990 H 381.796 -0.504027 -3.92779 0
M  V30 3991 H 382.97 -3.27858 -3.23799 0
M  V30 3992 H 381.285 -2.84937 -3.03644 0
M  V30 3993 H 383.882 -1.13359 -5.22546 0
M  V30 3994 H 384.225 0.205461 -4.15793 0
M  V30 3995 H 384.758 -1.43341 -3.71077 0
M  V30 3996 H 381.497 -4.06864 -5.13947 0
M  V30 3997 H 381.017 -2.3943 -5.49939 0
M  V30 3998 H 382.696 -2.92224 -5.77247 0
M  V30 3999 N 382.828 1.3818 -0.7579 0
M  V30 4000 C 383.761 2.28055 -0.0814093 0
M  V30 4001 C 384.739 1.45603 0.723779 0
M  V30 4002 O 385.923 1.74961 0.701491 0
M  V30 4003 C 383.05 3.2676 0.891394 0
M  V30 4004 C 382.096 4.26153 0.171909 0
M  V30 4005 S 382.929 5.23434 -1.13035 0
M  V30 4006 C 384.085 6.25694 -0.160727 0
M  V30 4007 H 384.318 2.85082 -0.84353 0
M  V30 4008 H 381.851 1.44246 -0.550671 0
M  V30 4009 H 383.809 3.8414 1.44731 0
M  V30 4010 H 382.47 2.68706 1.62652 0
M  V30 4011 H 381.663 4.95738 0.908843 0
M  V30 4012 H 381.265 3.72691 -0.312606 0
M  V30 4013 H 383.557 6.74161 0.671773 0
M  V30 4014 H 384.5 7.03285 -0.824353 0
M  V30 4015 H 384.908 5.64064 0.221892 0
M  V30 4016 N 384.306 0.507319 1.49211 0
M  V30 4017 C 385.236 -0.256939 2.32082 0
M  V30 4018 C 386.217 -0.956609 1.40652 0
M  V30 4019 O 387.402 -0.946788 1.69557 0
M  V30 4020 C 384.532 -1.31802 3.21318 0
M  V30 4021 C 383.486 -0.737855 4.21592 0
M  V30 4022 C 382.812 -1.89992 4.99807 0
M  V30 4023 C 384.112 0.275325 5.21574 0
M  V30 4024 H 385.806 0.434798 2.96226 0
M  V30 4025 H 383.352 0.210546 1.42452 0
M  V30 4026 H 385.305 -1.86045 3.78107 0
M  V30 4027 H 384.029 -2.03903 2.5513 0
M  V30 4028 H 382.688 -0.217126 3.65956 0
M  V30 4029 H 382.336 -2.60877 4.30061 0
M  V30 4030 H 382.036 -1.51777 5.6766 0
M  V30 4031 H 383.56 -2.44657 5.59442 0
M  V30 4032 H 384.974 -0.179193 5.7302 0
M  V30 4033 H 383.371 0.573649 5.97352 0
M  V30 4034 H 384.441 1.18903 4.70096 0
M  V30 4035 N 385.784 -1.5574 0.241426 0
M  V30 4036 C 387.033 -1.97986 -0.385295 0
M  V30 4037 C 387.346 -1.13267 -1.59468 0
M  V30 4038 O 388.552 -1.45501 -2.2922 0
M  V30 4039 C 387.008 -3.52275 -0.736884 0
M  V30 4040 C 386.616 -4.45726 0.450796 0
M  V30 4041 C 388.36 -4.03189 -1.3281 0
M  V30 4042 C 386.267 -5.91352 0.0756662 0
M  V30 4043 H 385.197 -0.739386 -0.147731 0
M  V30 4044 H 387.848 -1.80308 0.340779 0
M  V30 4045 H 386.23 -3.65628 -1.52094 0
M  V30 4046 H 387.404 -4.44131 1.22819 0
M  V30 4047 H 385.719 -4.05264 0.956573 0
M  V30 4048 H 388.316 -5.09505 -1.62201 0
M  V30 4049 H 388.659 -3.50212 -2.25071 0
M  V30 4050 H 389.192 -3.93141 -0.607069 0
M  V30 4051 H 385.931 -6.48354 0.965272 0
M  V30 4052 H 385.451 -5.96095 -0.665635 0
M  V30 4053 H 387.13 -6.46084 -0.344075 0
M  V30 4054 N 387.262 0.0317525 -1.57568 0
M  V30 4055 C 388.509 0.723104 -1.89149 0
M  V30 4056 C 388.837 1.75504 -0.838377 0
M  V30 4057 O 388.092 1.95037 0.160982 0
M  V30 4058 C 388.391 1.43167 -3.27472 0
M  V30 4059 C 388.057 0.535972 -4.47703 0
M  V30 4060 C 386.719 0.289262 -4.8033 0
M  V30 4061 C 389.071 -0.0826125 -5.21135 0
M  V30 4062 C 386.399 -0.584853 -5.83778 0
M  V30 4063 C 388.751 -0.944414 -6.25511 0
M  V30 4064 C 387.415 -1.20061 -6.56614 0
M  V30 4065 H 386.685 0.264602 -0.692146 0
M  V30 4066 H 389.332 -0.0169496 -1.91492 0
M  V30 4067 H 387.637 2.24497 -3.21105 0
M  V30 4068 H 389.334 1.97209 -3.49155 0
M  V30 4069 H 385.924 0.738414 -4.22191 0
M  V30 4070 H 390.108 0.0950302 -4.96209 0
M  V30 4071 H 385.364 -0.79168 -6.06253 0
M  V30 4072 H 389.538 -1.43026 -6.81554 0
M  V30 4073 H 387.165 -1.87967 -7.36595 0
M  V30 4074 N 388.74 1.54641 0.303973 0
M  V30 4075 C 389.968 1.77768 1.05858 0
M  V30 4076 C 390.383 0.535722 1.8104 0
M  V30 4077 O 389.74 -0.494337 1.75677 0
M  V30 4078 C 389.791 2.9834 2.04146 0
M  V30 4079 O 389.512 4.17736 1.32015 0
M  V30 4080 C 391.013 3.33832 2.91669 0
M  V30 4081 H 388.233 0.592961 0.314067 0
M  V30 4082 H 390.777 2.01583 0.344149 0
M  V30 4083 H 388.932 2.76742 2.71096 0
M  V30 4084 H 389.346 4.85693 1.97998 0
M  V30 4085 H 390.82 4.21448 3.56491 0
M  V30 4086 H 391.297 2.51857 3.59812 0
M  V30 4087 H 391.903 3.57579 2.30254 0
M  V30 4088 N 390.218 -0.567019 1.47046 0
M  V30 4089 C 391.464 -1.32658 1.53394 0
M  V30 4090 C 391.797 -1.93254 0.19148 0
M  V30 4091 O 391.072 -1.77338 -0.798844 0
M  V30 4092 C 391.355 -2.44412 2.64452 0
M  V30 4093 C 391.208 -1.88749 4.08282 0
M  V30 4094 C 392.527 -3.46387 2.71485 0
M  V30 4095 H 389.646 -0.48098 0.558415 0
M  V30 4096 H 392.288 -0.635481 1.79058 0
M  V30 4097 H 390.438 -3.03363 2.427 0
M  V30 4098 H 392.11 -1.34134 4.41368 0
M  V30 4099 H 390.353 -1.19481 4.17021 0
M  V30 4100 H 391.024 -2.69491 4.81745 0
M  V30 4101 H 393.5 -2.9734 2.91081 0
M  V30 4102 H 392.376 -4.2202 3.50985 0
M  V30 4103 H 392.637 -4.04616 1.78153 0
M  V30 4104 N 391.696 -1.35014 -0.812953 0
M  V30 4105 C 392.945 -1.27269 -1.56479 0
M  V30 4106 C 393.258 0.152771 -1.95002 0
M  V30 4107 O 394.464 0.352451 -2.69203 0
M  V30 4108 C 392.92 -2.23159 -2.82362 0
M  V30 4109 C 392.528 -3.71016 -2.511 0
M  V30 4110 C 394.272 -2.24342 -3.60376 0
M  V30 4111 C 392.179 -4.58746 -3.73237 0
M  V30 4112 H 391.109 -0.472829 -0.587324 0
M  V30 4113 H 393.76 -1.6024 -0.894171 0
M  V30 4114 H 392.142 -1.83151 -3.51101 0
M  V30 4115 H 393.316 -4.1962 -1.90409 0
M  V30 4116 H 391.631 -3.72378 -1.86343 0
M  V30 4117 H 394.228 -2.87107 -4.51081 0
M  V30 4118 H 394.571 -1.24542 -3.97234 0
M  V30 4119 H 395.104 -2.62846 -2.98591 0
M  V30 4120 H 391.843 -5.59521 -3.41492 0
M  V30 4121 H 391.363 -4.14871 -4.33176 0
M  V30 4122 H 393.042 -4.73852 -4.40537 0
M  V30 4123 N 393.175 1.03435 -1.18907 0
M  V30 4124 C 394.405 1.8012 -1.01195 0
M  V30 4125 C 394.813 1.8395 0.442613 0
M  V30 4126 O 394.156 1.27836 1.31923 0
M  V30 4127 C 394.218 3.26792 -1.49823 0
M  V30 4128 C 393.882 3.46609 -2.97844 0
M  V30 4129 C 394.879 3.37278 -3.95651 0
M  V30 4130 C 392.564 3.73001 -3.36416 0
M  V30 4131 C 394.558 3.54054 -5.30023 0
M  V30 4132 C 392.245 3.89423 -4.70949 0
M  V30 4133 C 393.243 3.79951 -5.67562 0
M  V30 4134 O 392.931 3.95895 -6.99659 0
M  V30 4135 H 392.663 0.573865 -0.357289 0
M  V30 4136 H 395.217 1.31207 -1.58031 0
M  V30 4137 H 393.447 3.76703 -0.873578 0
M  V30 4138 H 395.136 3.85055 -1.28404 0
M  V30 4139 H 395.902 3.16846 -3.67197 0
M  V30 4140 H 391.781 3.79469 -2.61772 0
M  V30 4141 H 395.325 3.46577 -6.05417 0
M  V30 4142 H 391.222 4.09351 -4.99101 0
M  V30 4143 H 391.99 4.13019 -7.06653 0
M  V30 4144 N 394.653 0.992116 1.22453 0
M  V30 4145 C 395.9 0.667534 1.91181 0
M  V30 4146 C 396.228 -0.800317 1.77271 0
M  V30 4147 O 395.483 -1.59421 1.13505 0
M  V30 4148 C 395.782 1.01832 3.42586 0
M  V30 4149 C 395.448 2.47831 3.76684 0
M  V30 4150 C 394.11 2.87729 3.85701 0
M  V30 4151 C 396.462 3.42466 3.92895 0
M  V30 4152 C 393.79 4.21252 4.08367 0
M  V30 4153 C 396.142 4.75648 4.17064 0
M  V30 4154 C 394.806 5.15288 4.24305 0
M  V30 4155 H 394.076 0.244268 0.699581 0
M  V30 4156 H 396.723 1.24816 1.45235 0
M  V30 4157 H 395.028 0.355769 3.90181 0
M  V30 4158 H 396.725 0.745228 3.94014 0
M  V30 4159 H 393.315 2.15905 3.70247 0
M  V30 4160 H 397.499 3.12814 3.85307 0
M  V30 4161 H 392.755 4.51554 4.122 0
M  V30 4162 H 396.929 5.48924 4.2855 0
M  V30 4163 H 394.556 6.18769 4.41621 0
M  V30 4164 N 396.131 -1.37776 0.765217 0
M  V30 4165 C 397.356 -2.04651 0.336537 0
M  V30 4166 C 397.781 -1.57337 -1.03086 0
M  V30 4167 O 397.139 -0.730621 -1.65927 0
M  V30 4168 C 397.187 -3.58577 0.381468 0
M  V30 4169 O 396.291 -4.07706 -0.62042 0
M  V30 4170 H 395.632 -0.64756 0.146838 0
M  V30 4171 H 398.162 -1.76221 1.03959 0
M  V30 4172 H 398.172 -4.07314 0.236448 0
M  V30 4173 H 396.847 -3.9237 1.37907 0
M  V30 4174 H 395.424 -3.70306 -0.439056 0
M  V30 4175 N 397.609 -0.515225 -1.4894 0
M  V30 4176 C 398.858 0.0261361 -2.01683 0
M  V30 4177 C 399.171 1.36719 -1.39883 0
M  V30 4178 O 400.377 1.99606 -1.84037 0
M  V30 4179 C 398.833 0.0970111 -3.59769 0
M  V30 4180 C 398.441 -1.23825 -4.30548 0
M  V30 4181 C 400.185 0.587981 -4.20408 0
M  V30 4182 C 398.092 -1.12877 -5.80528 0
M  V30 4183 H 397.022 0.0135398 -0.753878 0
M  V30 4184 H 399.673 -0.656787 -1.71343 0
M  V30 4185 H 398.055 0.844694 -3.86886 0
M  V30 4186 H 399.229 -2.00034 -4.15118 0
M  V30 4187 H 397.544 -1.66379 -3.81716 0
M  V30 4188 H 400.141 0.68763 -5.3026 0
M  V30 4189 H 400.484 1.59026 -3.84729 0
M  V30 4190 H 401.017 -0.103582 -3.97665 0
M  V30 4191 H 397.756 -2.10575 -6.20756 0
M  V30 4192 H 397.276 -0.407799 -5.98412 0
M  V30 4193 H 398.955 -0.813332 -6.41868 0
M  V30 4194 N 399.087 1.5561 -0.249682 0
M  V30 4195 C 400.333 2.00044 0.367952 0
M  V30 4196 C 400.688 1.1349 1.55363 0
M  V30 4197 O 399.981 0.191079 1.90645 0
M  V30 4198 C 400.175 3.4775 0.824887 0
M  V30 4199 C 400.004 4.48596 -0.314973 0
M  V30 4200 C 398.774 4.99077 -0.790555 0
M  V30 4201 C 400.972 5.0144 -1.14291 0
M  V30 4202 N 398.954 5.83675 -1.90254 0
M  V30 4203 C 400.325 5.83236 -2.10322 0
M  V30 4204 C 402.38 4.83736 -1.17916 0
M  V30 4205 C 401.083 6.49217 -3.09692 0
M  V30 4206 C 403.109 5.50497 -2.16117 0
M  V30 4207 C 402.471 6.32084 -3.10884 0
M  V30 4208 H 398.57 0.775512 0.100522 0
M  V30 4209 H 401.154 1.91193 -0.367896 0
M  V30 4210 H 399.325 3.56994 1.53002 0
M  V30 4211 H 401.057 3.79056 1.4177 0
M  V30 4212 H 397.812 4.72119 -0.374218 0
M  V30 4213 H 398.236 6.30671 -2.46137 0
M  V30 4214 H 402.878 4.20286 -0.460352 0
M  V30 4215 H 400.596 7.11832 -3.8252 0
M  V30 4216 H 404.182 5.38752 -2.19631 0
M  V30 4217 H 403.062 6.82832 -3.8563 0
M  V30 4218 N 400.565 -0.0233959 1.57583 0
M  V30 4219 C 401.512 -1.02224 2.06927 0
M  V30 4220 C 402.482 -1.35575 0.959617 0
M  V30 4221 O 403.667 -1.45815 1.23055 0
M  V30 4222 C 400.807 -2.31636 2.5581 0
M  V30 4223 C 399.92 -2.04394 3.80588 0
M  V30 4224 C 399.055 -3.27717 4.18061 0
M  V30 4225 C 398.094 -2.96056 5.3574 0
M  V30 4226 N 397.231 -4.11847 5.68618 0
M  V30 4227 H 402.071 -0.594504 2.9201 0
M  V30 4228 H 399.608 -0.281921 1.44373 0
M  V30 4229 H 401.566 -3.07258 2.82221 0
M  V30 4230 H 400.196 -2.72122 1.73636 0
M  V30 4231 H 399.248 -1.19244 3.61227 0
M  V30 4232 H 400.56 -1.77042 4.66323 0
M  V30 4233 H 399.714 -4.11702 4.4563 0
M  V30 4234 H 398.453 -3.58188 3.30988 0
M  V30 4235 H 397.458 -2.10474 5.07918 0
M  V30 4236 H 398.683 -2.66857 6.24471 0
M  V30 4237 H 396.629 -4.42258 4.84504 0
M  V30 4238 H 396.546 -3.87938 6.48876 0
M  V30 4239 H 397.814 -4.96689 6.00766 0
M  V30 4240 N 402.043 -1.548 -0.295768 0
M  V30 4241 C 403.291 -1.73985 -1.02828 0
M  V30 4242 C 403.612 -0.531406 -1.87619 0
M  V30 4243 O 402.882 0.454221 -1.90561 0
M  V30 4244 H 401.462 -0.641556 -0.382642 0
M  V30 4245 H 404.124 -1.92163 -0.325489 0
M  V30 4246 H 403.22 -2.63129 -1.67838 0
M  V30 4247 N 403.521 0.559213 -1.47345 0
M  V30 4248 C 404.767 1.31843 -1.54095 0
M  V30 4249 C 405.1 1.93149 -0.201726 0
M  V30 4250 O 404.375 1.77759 0.789428 0
M  V30 4251 C 404.658 2.43006 -2.65744 0
M  V30 4252 C 404.511 1.86581 -4.09277 0
M  V30 4253 C 405.83 3.44943 -2.73318 0
M  V30 4254 H 402.949 0.478012 -0.560957 0
M  V30 4255 H 405.591 0.625977 -1.79392 0
M  V30 4256 H 403.741 3.02072 -2.44305 0
M  V30 4257 H 405.413 1.31792 -4.42073 0
M  V30 4258 H 403.656 1.17268 -4.17649 0
M  V30 4259 H 404.327 2.66933 -4.83168 0
M  V30 4260 H 406.803 2.95793 -2.92653 0
M  V30 4261 H 405.679 4.20153 -3.53218 0
M  V30 4262 H 405.94 4.03665 -1.80296 0
M  V30 4263 N 404.999 1.35443 0.805782 0
M  V30 4264 C 405.946 1.28431 1.91766 0
M  V30 4265 C 406.916 0.156102 1.65365 0
M  V30 4266 O 408.101 0.339936 1.87747 0
M  V30 4267 C 405.241 1.06301 3.2832 0
M  V30 4268 C 404.354 2.2805 3.66902 0
M  V30 4269 C 403.489 1.99064 4.92491 0
M  V30 4270 C 402.528 3.16863 5.23703 0
M  V30 4271 N 401.665 2.87647 6.40471 0
M  V30 4272 H 406.505 2.23511 1.97096 0
M  V30 4273 H 404.042 1.11105 0.964054 0
M  V30 4274 H 406 0.915012 4.07042 0
M  V30 4275 H 404.63 0.148822 3.22457 0
M  V30 4276 H 403.682 2.53711 2.83434 0
M  V30 4277 H 404.994 3.1601 3.85927 0
M  V30 4278 H 404.148 1.81099 5.7904 0
M  V30 4279 H 402.887 1.0839 4.75503 0
M  V30 4280 H 401.892 3.35404 4.35642 0
M  V30 4281 H 403.117 4.08339 5.4262 0
M  V30 4282 H 401.063 1.99568 6.24907 0
M  V30 4283 H 400.98 3.69141 6.59751 0
M  V30 4284 H 402.248 2.73226 7.30047 0
M  V30 4285 N 406.477 -1.02803 1.19454 0
M  V30 4286 C 407.705 -1.79841 1.02297 0
M  V30 4287 C 408.12 -1.83879 -0.428259 0
M  V30 4288 O 407.477 -1.28345 -1.29745 0
M  V30 4289 C 407.528 -3.24852 1.58598 0
M  V30 4290 O 407.249 -3.21097 2.98041 0
M  V30 4291 C 408.75 -4.18485 1.46236 0
M  V30 4292 H 405.97 -0.565936 0.360496 0
M  V30 4293 H 408.514 -1.2948 1.58288 0
M  V30 4294 H 406.669 -3.72401 1.06753 0
M  V30 4295 H 407.083 -4.12033 3.24545 0
M  V30 4296 H 408.557 -5.18121 1.90407 0
M  V30 4297 H 409.034 -4.37254 0.41301 0
M  V30 4298 H 409.64 -3.76811 1.97215 0
M  V30 4299 N 407.956 -0.998596 -1.21925 0
M  V30 4300 C 409.181 -0.696015 -1.95372 0
M  V30 4301 C 409.606 0.733826 -1.73195 0
M  V30 4302 O 408.964 1.50242 -1.01474 0
M  V30 4303 C 409.012 -1.01466 -3.4603 0
M  V30 4304 O 408.116 -0.116415 -4.12236 0
M  V30 4305 H 407.457 -0.259938 -0.611006 0
M  V30 4306 H 409.987 -1.33711 -1.54863 0
M  V30 4307 H 409.997 -0.958855 -3.96573 0
M  V30 4308 H 408.672 -2.05653 -3.61497 0
M  V30 4309 H 407.249 -0.228193 -3.72201 0
M  V30 4310 N 409.434 1.37368 -0.772513 0
M  V30 4311 C 410.682 1.99279 -0.336516 0
M  V30 4312 C 411.003 1.6163 1.09091 0
M  V30 4313 O 410.273 0.882109 1.74916 0
M  V30 4314 H 408.853 0.737063 -0.121435 0
M  V30 4315 H 411.515 1.67836 -0.990809 0
M  V30 4316 H 410.611 3.09332 -0.414763 0
M  V30 4317 N 410.912 0.523116 1.48665 0
M  V30 4318 C 411.859 -0.243398 2.29513 0
M  V30 4319 C 412.829 -0.940139 1.36933 0
M  V30 4320 O 414.014 -0.942503 1.65896 0
M  V30 4321 C 411.154 -1.28855 3.20141 0
M  V30 4322 C 410.267 -0.60135 4.27794 0
M  V30 4323 C 409.402 -1.62884 5.05611 0
M  V30 4324 C 408.441 -0.924726 6.05075 0
M  V30 4325 N 407.578 -1.89744 6.75975 0
M  V30 4326 H 412.418 0.452234 2.94549 0
M  V30 4327 H 409.955 0.234858 1.45213 0
M  V30 4328 H 411.913 -1.90674 3.71079 0
M  V30 4329 H 410.543 -1.95266 2.57043 0
M  V30 4330 H 409.595 0.130623 3.80176 0
M  V30 4331 H 410.907 -0.0481585 4.98777 0
M  V30 4332 H 410.061 -2.32149 5.60528 0
M  V30 4333 H 408.8 -2.21592 4.34452 0
M  V30 4334 H 407.805 -0.217966 5.49368 0
M  V30 4335 H 409.03 -0.343851 6.78229 0
M  V30 4336 H 406.976 -2.47373 6.07571 0
M  V30 4337 H 406.893 -1.3955 7.43009 0
M  V30 4338 H 408.161 -2.58229 7.35485 0
M  V30 4339 N 412.39 -1.55475 0.257931 0
M  V30 4340 C 413.636 -1.99502 -0.364266 0
M  V30 4341 C 413.969 -1.146 -1.56782 0
M  V30 4342 O 413.244 -0.211968 -1.93342 0
M  V30 4343 C 413.527 -3.51917 -0.763333 0
M  V30 4344 C 413.38 -4.4758 0.446371 0
M  V30 4345 C 414.699 -4.09742 -1.60623 0
M  V30 4346 H 411.818 -0.725277 -0.130929 0
M  V30 4347 H 414.46 -1.8653 0.361446 0
M  V30 4348 H 412.61 -3.63101 -1.38166 0
M  V30 4349 H 414.282 -4.48362 1.08487 0
M  V30 4350 H 412.525 -4.19947 1.08753 0
M  V30 4351 H 413.196 -5.51862 0.123645 0
M  V30 4352 H 415.672 -4.01727 -1.08418 0
M  V30 4353 H 414.548 -5.16631 -1.85429 0
M  V30 4354 H 414.809 -3.58889 -2.58169 0
M  V30 4355 N 413.868 0.0150385 -1.57593 0
M  V30 4356 C 415.114 0.704043 -1.90187 0
M  V30 4357 C 415.447 1.74249 -0.857366 0
M  V30 4358 O 414.722 1.94092 0.125843 0
M  V30 4359 C 415.005 1.36087 -3.33395 0
M  V30 4360 C 414.858 0.334981 -4.48551 0
M  V30 4361 C 416.177 2.29112 -3.7576 0
M  V30 4362 H 413.296 0.254475 -0.691673 0
M  V30 4363 H 415.938 -0.0331678 -1.89971 0
M  V30 4364 H 414.088 1.98922 -3.3371 0
M  V30 4365 H 415.76 -0.292534 -4.60372 0
M  V30 4366 H 414.003 -0.344325 -4.32431 0
M  V30 4367 H 414.674 0.833316 -5.45674 0
M  V30 4368 H 417.15 1.76308 -3.76902 0
M  V30 4369 H 416.026 2.72043 -4.76743 0
M  V30 4370 H 416.287 3.16385 -3.08793 0
M  V30 4371 N 415.346 1.54954 0.287554 0
M  V30 4372 C 416.592 1.76059 1.01856 0
M  V30 4373 C 416.947 0.547056 1.84459 0
M  V30 4374 O 416.24 -0.460442 1.85985 0
M  V30 4375 C 416.434 2.99833 1.94512 0
M  V30 4376 C 416.263 4.33108 1.21026 0
M  V30 4377 C 415.033 4.96632 0.931896 0
M  V30 4378 C 417.231 5.10694 0.607949 0
M  V30 4379 N 415.213 6.13668 0.168716 0
M  V30 4380 C 416.584 6.19996 -0.0217865 0
M  V30 4381 C 418.639 4.95236 0.514338 0
M  V30 4382 C 417.342 7.15524 -0.736092 0
M  V30 4383 C 419.368 5.91106 -0.186343 0
M  V30 4384 C 418.73 6.99786 -0.804875 0
M  V30 4385 H 414.829 0.696679 0.355193 0
M  V30 4386 H 417.413 1.92441 0.295741 0
M  V30 4387 H 415.584 2.84853 2.64033 0
M  V30 4388 H 417.316 3.09405 2.60865 0
M  V30 4389 H 414.071 4.57255 1.23348 0
M  V30 4390 H 414.495 6.76705 -0.199781 0
M  V30 4391 H 419.137 4.11328 0.978234 0
M  V30 4392 H 416.855 7.98964 -1.21172 0
M  V30 4393 H 420.441 5.81224 -0.258897 0
M  V30 4394 H 419.321 7.72694 -1.33843 0
M  V30 4395 N 416.824 -0.551391 1.4764 0
M  V30 4396 C 418.07 -1.31024 1.54792 0
M  V30 4397 C 418.403 -1.9304 0.211967 0
M  V30 4398 O 417.678 -1.78175 -0.77999 0
M  V30 4399 C 417.961 -2.41593 2.67029 0
M  V30 4400 C 417.814 -1.84408 4.10261 0
M  V30 4401 C 419.133 -3.43488 2.75143 0
M  V30 4402 H 416.252 -0.475031 0.563485 0
M  V30 4403 H 418.894 -0.616454 1.79722 0
M  V30 4404 H 417.044 -3.00772 2.45904 0
M  V30 4405 H 418.716 -1.29445 4.42766 0
M  V30 4406 H 416.959 -1.15051 4.18265 0
M  V30 4407 H 417.63 -2.64367 4.84576 0
M  V30 4408 H 420.106 -2.94236 2.94218 0
M  V30 4409 H 418.982 -4.18274 3.55441 0
M  V30 4410 H 419.243 -4.02703 1.82435 0
M  V30 4411 N 418.302 -1.35869 -0.798587 0
M  V30 4412 C 419.53 -1.32722 -1.58722 0
M  V30 4413 C 419.945 0.0935631 -1.88568 0
M  V30 4414 O 419.302 1.04784 -1.49421 0
M  V30 4415 C 419.353 -2.13974 -2.91371 0
M  V30 4416 O 419.074 -3.50514 -2.62815 0
M  V30 4417 C 420.575 -2.18504 -3.85708 0
M  V30 4418 H 417.795 -0.45562 -0.492596 0
M  V30 4419 H 420.339 -1.78837 -0.991843 0
M  V30 4420 H 418.494 -1.71438 -3.47402 0
M  V30 4421 H 418.908 -3.92806 -3.47568 0
M  V30 4422 H 420.382 -2.79732 -4.75872 0
M  V30 4423 H 420.859 -1.18597 -4.22885 0
M  V30 4424 H 421.465 -2.61236 -3.35612 0
M  V30 4425 N 419.78 1.02168 -1.19998 0
M  V30 4426 C 420.743 2.08765 -0.94604 0
M  V30 4427 C 421.743 1.60618 0.0763846 0
M  V30 4428 O 422.933 1.73472 -0.159135 0
M  V30 4429 C 420.065 3.38262 -0.423255 0
M  V30 4430 H 421.258 2.32726 -1.89153 0
M  V30 4431 H 418.811 1.1889 -1.01464 0
M  V30 4432 H 419.546 3.19974 0.527938 0
M  V30 4433 H 419.331 3.74532 -1.16053 0
M  V30 4434 H 420.821 4.16759 -0.264911 0
M  V30 4435 N 421.258 1.00505 1.21394 0
M  V30 4436 C 422.486 0.706609 1.9446 0
M  V30 4437 C 422.901 -0.73081 1.74082 0
M  V30 4438 O 422.258 -1.49446 1.04747 0
M  V30 4439 C 422.309 1.01824 3.46863 0
M  V30 4440 O 422.03 2.39919 3.66566 0
M  V30 4441 C 423.531 0.739216 4.37093 0
M  V30 4442 H 420.751 0.260394 0.618414 0
M  V30 4443 H 423.295 1.34311 1.54211 0
M  V30 4444 H 421.45 0.427343 3.85036 0
M  V30 4445 H 421.864 2.50784 4.6066 0
M  V30 4446 H 423.338 1.00744 5.42729 0
M  V30 4447 H 423.815 -0.326746 4.37983 0
M  V30 4448 H 424.421 1.31173 4.04566 0
M  V30 4449 N 422.737 -1.36956 0.779787 0
M  V30 4450 C 423.984 -1.99491 0.347766 0
M  V30 4451 C 424.312 -1.61898 -1.07793 0
M  V30 4452 O 423.567 -0.86071 -1.75756 0
M  V30 4453 C 423.866 -3.54585 0.447686 0
M  V30 4454 C 423.532 -4.1197 1.83279 0
M  V30 4455 C 422.194 -4.27356 2.2118 0
M  V30 4456 C 424.546 -4.43354 2.74019 0
M  V30 4457 C 421.874 -4.71432 3.4924 0
M  V30 4458 C 424.226 -4.88858 4.01497 0
M  V30 4459 C 422.89 -5.0245 4.39432 0
M  V30 4460 H 422.16 -0.729991 0.127257 0
M  V30 4461 H 424.807 -1.63599 0.995376 0
M  V30 4462 H 423.112 -3.90773 -0.283447 0
M  V30 4463 H 424.809 -4.00888 0.0945948 0
M  V30 4464 H 421.399 -4.00428 1.52825 0
M  V30 4465 H 425.583 -4.31045 2.45995 0
M  V30 4466 H 420.839 -4.80141 3.78516 0
M  V30 4467 H 425.013 -5.12108 4.71931 0
M  V30 4468 H 422.64 -5.36362 5.38721 0
M  V30 4469 N 424.215 -0.530993 -1.48385 0
M  V30 4470 C 425.626 -0.0907905 -1.86479 0
M  V30 4471 C 425.977 1.33213 -1.44044 0
M  V30 4472 O 425.102 1.99783 -0.831615 0
M  V30 4473 C 425.697 -0.157987 -3.38431 0
M  V30 4474 C 424.256 0.227026 -3.75715 0
M  V30 4475 C 423.403 -0.5173 -2.72432 0
M  V30 4476 H 426.354 -0.742186 -1.40276 0
M  V30 4477 H 426.375 0.630053 -3.75247 0
M  V30 4478 H 425.887 -1.19372 -3.69286 0
M  V30 4479 H 423.988 1.26486 -3.50474 0
M  V30 4480 H 424.101 -0.113288 -4.78966 0
M  V30 4481 H 422.465 0.0365527 -2.54674 0
M  V30 4482 H 423.248 -1.55368 -3.0613 0
M  V30 4483 N 425.693 1.55336 -0.266172 0
M  V30 4484 C 426.923 2.03506 0.356239 0
M  V30 4485 C 427.331 1.14426 1.50676 0
M  V30 4486 O 426.674 0.155043 1.83045 0
M  V30 4487 C 426.736 3.47848 0.90785 0
M  V30 4488 C 426.4 4.56861 -0.112888 0
M  V30 4489 C 427.397 5.11528 -0.929264 0
M  V30 4490 C 425.082 5.01704 -0.244546 0
M  V30 4491 C 427.076 6.09549 -1.86357 0
M  V30 4492 C 424.763 5.99553 -1.18234 0
M  V30 4493 C 425.761 6.53356 -1.99036 0
M  V30 4494 O 425.449 7.49293 -2.91231 0
M  V30 4495 H 425.181 0.670444 0.08649 0
M  V30 4496 H 427.735 2.01598 -0.39337 0
M  V30 4497 H 425.965 3.46967 1.70737 0
M  V30 4498 H 427.654 3.79407 1.44239 0
M  V30 4499 H 428.42 4.77701 -0.838237 0
M  V30 4500 H 424.299 4.59477 0.374359 0
M  V30 4501 H 427.843 6.51469 -2.49467 0
M  V30 4502 H 423.74 6.32799 -1.27421 0
M  V30 4503 H 424.508 7.66978 -2.8581 0
M  V30 4504 N 427.171 -0.0066808 1.57599 0
M  V30 4505 C 428.42 -0.692078 1.89455 0
M  V30 4506 C 428.733 -1.75306 0.867586 0
M  V30 4507 O 429.939 -2.49262 1.07614 0
M  V30 4508 C 428.395 -1.2821 3.36289 0
M  V30 4509 C 428.003 -0.256291 4.47266 0
M  V30 4510 C 429.747 -1.94608 3.77264 0
M  V30 4511 C 427.654 -0.855927 5.85173 0
M  V30 4512 H 426.584 -0.262252 0.706923 0
M  V30 4513 H 429.235 0.052769 1.83424 0
M  V30 4514 H 427.617 -2.0774 3.37135 0
M  V30 4515 H 428.791 0.513923 4.57925 0
M  V30 4516 H 427.106 0.306862 4.15268 0
M  V30 4517 H 429.703 -2.40364 4.77629 0
M  V30 4518 H 430.046 -2.77382 3.10427 0
M  V30 4519 H 430.579 -1.21822 3.78688 0
M  V30 4520 H 427.318 -0.0671161 6.55466 0
M  V30 4521 H 426.838 -1.59546 5.78191 0
M  V30 4522 H 428.517 -1.35658 6.32618 0
M  V30 4523 N 428.649 -1.55105 -0.279332 0
M  V30 4524 C 429.898 -1.74618 -1.00952 0
M  V30 4525 C 430.211 -0.551096 -1.87676 0
M  V30 4526 O 431.417 -0.628507 -2.64125 0
M  V30 4527 C 429.873 -3.09025 -1.84476 0
M  V30 4528 C 429.481 -4.36081 -1.0265 0
M  V30 4529 C 431.225 -3.37891 -2.56963 0
M  V30 4530 C 429.132 -5.6153 -1.85576 0
M  V30 4531 H 428.062 -0.650868 -0.38064 0
M  V30 4532 H 430.713 -1.81569 -0.265475 0
M  V30 4533 H 429.095 -2.96095 -2.62952 0
M  V30 4534 H 430.269 -4.59909 -0.286354 0
M  V30 4535 H 428.584 -4.14312 -0.416464 0
M  V30 4536 H 431.181 -4.28822 -3.19399 0
M  V30 4537 H 431.524 -2.57737 -3.26921 0
M  V30 4538 H 432.057 -3.5189 -1.85522 0
M  V30 4539 H 428.796 -6.44413 -1.2005 0
M  V30 4540 H 428.316 -5.41854 -2.57204 0
M  V30 4541 H 429.995 -5.99594 -2.43096 0
M  V30 4542 N 430.127 0.543554 -1.4793 0
M  V30 4543 C 431.057 1.65888 -1.64327 0
M  V30 4544 C 432.038 1.62818 -0.492383 0
M  V30 4545 O 433.223 1.80226 -0.723338 0
M  V30 4546 C 430.353 3.04506 -1.67013 0
M  V30 4547 C 429.307 3.2243 -2.81466 0
M  V30 4548 C 428.633 4.61972 -2.69233 0
M  V30 4549 C 429.933 3.06496 -4.22915 0
M  V30 4550 H 431.627 1.52421 -2.57698 0
M  V30 4551 H 429.173 0.731849 -1.24016 0
M  V30 4552 H 431.126 3.82391 -1.77074 0
M  V30 4553 H 429.85 3.18964 -0.70212 0
M  V30 4554 H 428.509 2.46957 -2.70938 0
M  V30 4555 H 428.157 4.73247 -1.7043 0
M  V30 4556 H 427.857 4.74911 -3.46025 0
M  V30 4557 H 429.381 5.41974 -2.81242 0
M  V30 4558 H 430.795 3.74186 -4.34348 0
M  V30 4559 H 429.192 3.30938 -5.006 0
M  V30 4560 H 430.262 2.03077 -4.40327 0
M  V30 4561 N 431.605 1.3629 0.791371 0
M  V30 4562 C 432.83 1.33726 1.58531 0
M  V30 4563 C 433.255 -0.0794933 1.87932 0
M  V30 4564 O 432.613 -1.05087 1.47738 0
M  V30 4565 C 432.661 2.16425 2.88431 0
M  V30 4566 O 431.765 1.5554 3.81944 0
M  V30 4567 H 431.106 0.457793 0.480959 0
M  V30 4568 H 433.636 1.79547 0.981031 0
M  V30 4569 H 433.646 2.28933 3.37718 0
M  V30 4570 H 432.321 3.19415 2.66359 0
M  V30 4571 H 430.898 1.51961 3.40532 0
M  V30 4572 N 433.083 -1.0153 1.20538 0
M  V30 4573 C 434.329 -1.75408 1.01783 0
M  V30 4574 C 434.662 -1.88943 -0.448814 0
M  V30 4575 O 433.937 -1.4162 -1.33319 0
M  V30 4576 C 434.22 -3.17255 1.70356 0
M  V30 4577 C 434.073 -3.11508 3.24473 0
M  V30 4578 C 435.392 -4.15955 1.43769 0
M  V30 4579 H 432.511 -0.636713 0.371167 0
M  V30 4580 H 435.153 -1.18436 1.4857 0
M  V30 4581 H 433.303 -3.65898 1.30578 0
M  V30 4582 H 434.975 -2.70658 3.73553 0
M  V30 4583 H 433.218 -2.4887 3.55311 0
M  V30 4584 H 433.889 -4.11784 3.67611 0
M  V30 4585 H 436.365 -3.75973 1.7828 0
M  V30 4586 H 435.241 -5.13368 1.94279 0
M  V30 4587 H 435.502 -4.40586 0.365564 0
M  V30 4588 N 434.561 -1.01147 -1.20859 0
M  V30 4589 C 435.491 -0.597663 -2.25722 0
M  V30 4590 C 436.472 0.384744 -1.65692 0
M  V30 4591 O 437.657 0.271303 -1.92296 0
M  V30 4592 C 434.787 0.0700149 -3.47229 0
M  V30 4593 C 433.741 -0.832843 -4.19819 0
M  V30 4594 C 433.067 -0.0312202 -5.34691 0
M  V30 4595 C 434.367 -2.1385 -4.76514 0
M  V30 4596 H 436.061 -1.47423 -2.60589 0
M  V30 4597 H 433.607 -0.710301 -1.25263 0
M  V30 4598 H 435.56 0.37103 -4.19763 0
M  V30 4599 H 434.284 0.981259 -3.11511 0
M  V30 4600 H 432.943 -1.11778 -3.49144 0
M  V30 4601 H 432.591 0.881515 -4.95215 0
M  V30 4602 H 432.291 -0.632434 -5.84187 0
M  V30 4603 H 433.815 0.26346 -6.10031 0
M  V30 4604 H 435.229 -1.9002 -5.40893 0
M  V30 4605 H 433.626 -2.69012 -5.36426 0
M  V30 4606 H 434.696 -2.80495 -3.95538 0
M  V30 4607 N 436.039 1.36541 -0.78704 0
M  V30 4608 C 436.969 2.32659 -0.197992 0
M  V30 4609 C 437.95 1.56533 0.665697 0
M  V30 4610 O 439.135 1.84698 0.60001 0
M  V30 4611 C 436.265 3.40778 0.669901 0
M  V30 4612 C 435.219 4.27897 -0.0937039 0
M  V30 4613 C 434.545 5.27163 0.894629 0
M  V30 4614 C 435.845 5.06334 -1.28154 0
M  V30 4615 H 437.539 2.82171 -1.00099 0
M  V30 4616 H 435.085 1.35665 -0.482793 0
M  V30 4617 H 437.038 4.07008 1.09191 0
M  V30 4618 H 435.762 2.89827 1.50558 0
M  V30 4619 H 434.421 3.6322 -0.49666 0
M  V30 4620 H 434.069 4.72486 1.72527 0
M  V30 4621 H 433.769 5.86317 0.388149 0
M  V30 4622 H 435.293 5.96266 1.31525 0
M  V30 4623 H 436.707 5.65617 -0.93541 0
M  V30 4624 H 435.104 5.74888 -1.72115 0
M  V30 4625 H 436.174 4.38114 -2.07807 0
M  V30 4626 N 437.518 0.538854 1.48102 0
M  V30 4627 C 438.764 0.00801365 2.02798 0
M  V30 4628 C 439.097 -1.3309 1.41424 0
M  V30 4629 O 438.372 -1.86169 0.563158 0
M  V30 4630 C 438.655 -0.104589 3.59948 0
M  V30 4631 C 438.508 1.26012 4.31788 0
M  V30 4632 C 439.827 -0.827055 4.32259 0
M  V30 4633 H 436.946 0.00438624 0.736987 0
M  V30 4634 H 439.588 0.6976 1.7673 0
M  V30 4635 H 437.738 -0.691893 3.82289 0
M  V30 4636 H 439.41 1.88922 4.2084 0
M  V30 4637 H 437.653 1.83968 3.92859 0
M  V30 4638 H 438.324 1.13424 5.40221 0
M  V30 4639 H 440.8 -0.328578 4.14801 0
M  V30 4640 H 439.676 -0.87476 5.41885 0
M  V30 4641 H 439.937 -1.87927 4.0017 0
M  V30 4642 N 438.996 -1.55193 0.274407 0
M  V30 4643 C 440.412 -1.59401 -0.0797543 0
M  V30 4644 C 440.612 -1.29162 -1.54659 0
M  V30 4645 O 439.668 -1.05215 -2.29534 0
M  V30 4646 C 440.981 -2.99257 0.294238 0
M  V30 4647 C 442.529 -3.12072 0.240796 0
M  V30 4648 C 443.004 -4.54194 0.589218 0
M  V30 4649 N 444.495 -4.60033 0.540744 0
M  V30 4650 C 445.23 -5.68027 0.783147 0
M  V30 4651 N 444.726 -6.8417 1.09013 0
M  V30 4652 N 446.519 -5.57572 0.711993 0
M  V30 4653 H 438.67 -1.73113 1.23067 0
M  V30 4654 H 440.933 -0.807197 0.497129 0
M  V30 4655 H 440.639 -3.26217 1.31435 0
M  V30 4656 H 440.513 -3.75427 -0.365281 0
M  V30 4657 H 442.9 -2.84877 -0.770024 0
M  V30 4658 H 442.981 -2.38117 0.934563 0
M  V30 4659 H 442.625 -4.82115 1.59772 0
M  V30 4660 H 442.555 -5.26448 -0.126331 0
M  V30 4661 H 445.046 -3.76599 0.313327 0
M  V30 4662 H 445.359 -7.6243 1.26178 0
M  V30 4663 H 443.704 -6.85787 1.12789 0
M  V30 4664 H 446.895 -4.65714 0.472014 0
M  V30 4665 H 447.068 -6.41659 0.90429 0
M  V30 4666 N 440.474 -0.00167713 -1.576 0
M  V30 4667 C 441.722 0.681471 -1.90264 0
M  V30 4668 C 442.043 1.7422 -0.875924 0
M  V30 4669 O 441.313 1.95709 0.0864412 0
M  V30 4670 H 439.893 0.254696 -0.702239 0
M  V30 4671 H 442.555 -0.0429996 -1.94853 0
M  V30 4672 H 441.651 1.15166 -2.90075 0
M  V30 4673 N 441.952 1.55251 0.271103 0
M  V30 4674 C 442.915 1.87484 1.31842 0
M  V30 4675 C 443.915 0.749545 1.42262 0
M  V30 4676 O 445.105 1.01771 1.4138 0
M  V30 4677 C 442.237 2.0818 2.69951 0
M  V30 4678 H 443.43 2.81108 1.0449 0
M  V30 4679 H 440.983 1.47771 0.509258 0
M  V30 4680 H 441.718 1.16944 3.02481 0
M  V30 4681 H 441.503 2.90114 2.63774 0
M  V30 4682 H 442.993 2.34385 3.4562 0
M  V30 4683 N 443.43 -0.535701 1.48216 0
M  V30 4684 C 444.658 -1.31671 1.59594 0
M  V30 4685 C 445.073 -1.87083 0.254056 0
M  V30 4686 O 444.43 -1.66112 -0.755854 0
M  V30 4687 C 444.481 -2.47158 2.63809 0
M  V30 4688 O 444.202 -1.94032 3.92789 0
M  V30 4689 C 445.703 -3.39062 2.85573 0
M  V30 4690 H 442.923 -0.400623 0.538277 0
M  V30 4691 H 445.467 -0.646827 1.94001 0
M  V30 4692 H 443.622 -3.10043 2.32276 0
M  V30 4693 H 444.036 -2.69585 4.49916 0
M  V30 4694 H 445.51 -4.16459 3.62306 0
M  V30 4695 H 445.987 -3.93941 1.94184 0
M  V30 4696 H 446.593 -2.81975 3.18387 0
M  V30 4697 N 444.908 -1.36708 -0.784132 0
M  V30 4698 C 445.838 -1.34153 -1.91116 0
M  V30 4699 C 446.819 -0.212121 -1.68772 0
M  V30 4700 O 448.004 -0.410581 -1.8981 0
M  V30 4701 C 445.134 -1.13535 -3.28218 0
M  V30 4702 C 444.088 -2.23356 -3.65097 0
M  V30 4703 C 443.414 -1.87875 -5.00607 0
M  V30 4704 C 444.714 -3.65473 -3.73131 0
M  V30 4705 H 446.408 -2.28459 -1.93512 0
M  V30 4706 H 443.954 -1.09973 -0.929618 0
M  V30 4707 H 445.907 -1.10381 -4.06687 0
M  V30 4708 H 444.631 -0.156804 -3.26223 0
M  V30 4709 H 443.29 -2.25645 -2.88929 0
M  V30 4710 H 442.938 -0.885814 -4.95139 0
M  V30 4711 H 442.638 -2.61406 -5.26252 0
M  V30 4712 H 444.162 -1.86286 -5.81489 0
M  V30 4713 H 445.576 -3.65382 -4.41779 0
M  V30 4714 H 443.973 -4.37953 -4.10265 0
M  V30 4715 H 445.043 -3.99995 -2.74102 0
M  V30 4716 N 446.386 1.0089 -1.21074 0
M  V30 4717 C 447.797 1.56056 -1.02486 0
M  V30 4718 C 448.148 1.91728 0.416506 0
M  V30 4719 O 447.273 1.73066 1.29912 0
M  V30 4720 C 447.868 2.83563 -1.85411 0
M  V30 4721 C 446.427 3.3523 -1.71166 0
M  V30 4722 C 445.574 2.0846 -1.82865 0
M  V30 4723 H 448.525 0.831818 -1.35154 0
M  V30 4724 H 448.546 3.55286 -1.36205 0
M  V30 4725 H 448.058 2.57569 -2.9031 0
M  V30 4726 H 446.159 3.66167 -0.689361 0
M  V30 4727 H 446.272 4.06913 -2.52901 0
M  V30 4728 H 444.636 2.21275 -1.26132 0
M  V30 4729 H 445.419 1.84883 -2.89263 0
M  V30 4730 N 447.864 1.01787 1.20321 0
M  V30 4731 C 449.112 0.706538 1.89347 0
M  V30 4732 C 449.433 -0.766289 1.79313 0
M  V30 4733 O 448.703 -1.55126 1.19635 0
M  V30 4734 H 447.283 0.258348 0.700903 0
M  V30 4735 H 449.945 1.28974 1.46122 0
M  V30 4736 H 449.041 0.991066 2.95946 0
M  V30 4737 N 449.342 -1.36122 0.79427 0
M  V30 4738 C 450.305 -2.28309 0.201889 0
M  V30 4739 C 451.305 -1.49041 -0.603603 0
M  V30 4740 O 452.495 -1.68964 -0.423888 0
M  V30 4741 C 449.627 -3.3321 -0.719978 0
M  V30 4742 H 450.82 -2.82208 1.01481 0
M  V30 4743 H 448.373 -1.45768 0.564037 0
M  V30 4744 H 449.108 -2.84475 -1.55706 0
M  V30 4745 H 448.893 -3.91835 -0.144266 0
M  V30 4746 H 450.383 -4.02044 -1.12916 0
M  V30 4747 N 450.82 -0.546701 -1.47814 0
M  V30 4748 C 452.066 -0.0269594 -2.03382 0
M  V30 4749 C 452.421 1.30406 -1.41464 0
M  V30 4750 O 451.714 1.8332 -0.557151 0
M  V30 4751 C 451.908 0.134869 -3.57145 0
M  V30 4752 C 451.737 -1.17891 -4.33972 0
M  V30 4753 C 450.507 -1.74336 -4.74273 0
M  V30 4754 C 452.705 -2.09361 -4.69758 0
M  V30 4755 N 450.687 -2.99829 -5.35701 0
M  V30 4756 C 452.058 -3.19431 -5.31379 0
M  V30 4757 C 454.113 -2.09484 -4.51687 0
M  V30 4758 C 452.816 -4.2971 -5.76838 0
M  V30 4759 C 454.842 -3.18767 -4.98138 0
M  V30 4760 C 454.204 -4.27557 -5.59799 0
M  V30 4761 H 450.303 -0.0517733 -0.780284 0
M  V30 4762 H 452.887 -0.731673 -1.80429 0
M  V30 4763 H 451.058 0.80869 -3.79888 0
M  V30 4764 H 452.79 0.655726 -3.99352 0
M  V30 4765 H 449.545 -1.28265 -4.559 0
M  V30 4766 H 449.969 -3.63765 -5.70968 0
M  V30 4767 H 454.611 -1.26663 -4.03381 0
M  V30 4768 H 452.329 -5.13297 -6.24141 0
M  V30 4769 H 455.915 -3.19937 -4.85934 0
M  V30 4770 H 454.795 -5.10725 -5.95088 0
M  V30 4771 N 452.299 1.55045 -0.282633 0
M  V30 4772 C 453.715 1.59441 0.0712997 0
M  V30 4773 C 453.915 1.2998 1.53972 0
M  V30 4774 O 452.971 1.06431 2.28973 0
M  V30 4775 C 454.284 2.99097 -0.310104 0
M  V30 4776 C 455.832 3.1194 -0.257343 0
M  V30 4777 C 456.307 4.53875 -0.613297 0
M  V30 4778 N 457.798 4.5974 -0.565134 0
M  V30 4779 C 458.533 5.67603 -0.81326 0
M  V30 4780 N 458.029 6.83582 -1.1264 0
M  V30 4781 N 459.822 5.57187 -0.741553 0
M  V30 4782 H 451.973 1.72458 -1.23984 0
M  V30 4783 H 454.236 0.804549 -0.501403 0
M  V30 4784 H 453.942 3.25516 -1.33163 0
M  V30 4785 H 453.816 3.75616 0.345366 0
M  V30 4786 H 456.203 2.85281 0.754905 0
M  V30 4787 H 456.284 2.37618 -0.947178 0
M  V30 4788 H 455.928 4.81261 -1.62327 0
M  V30 4789 H 455.858 5.26508 0.09841 0
M  V30 4790 H 458.349 3.76427 -0.333294 0
M  V30 4791 H 458.662 7.6175 -1.30219 0
M  V30 4792 H 457.007 6.85179 -1.16425 0
M  V30 4793 H 460.198 4.65457 -0.496705 0
M  V30 4794 H 460.371 6.41171 -0.938306 0
M  V30 4795 N 453.777 0.010035 1.57597 0
M  V30 4796 C 455.025 -0.671371 1.90623 0
M  V30 4797 C 455.346 -1.73753 0.885151 0
M  V30 4798 O 454.616 -1.95752 -0.0760611 0
M  V30 4799 H 453.196 -0.250968 0.703579 0
M  V30 4800 H 455.858 0.0533325 1.94827 0
M  V30 4801 H 454.954 -1.13626 2.90681 0
M  V30 4802 N 455.255 -1.55392 -0.262866 0
M  V30 4803 C 456.501 -1.76737 -0.99458 0
M  V30 4804 C 456.834 -0.572453 -1.85571 0
M  V30 4805 O 456.109 0.429732 -1.89693 0
M  V30 4806 C 456.392 -3.07824 -1.8686 0
M  V30 4807 C 456.245 -4.3769 -1.03672 0
M  V30 4808 C 457.564 -3.35021 -2.85393 0
M  V30 4809 H 454.683 -0.643005 -0.360157 0
M  V30 4810 H 457.325 -1.88126 -0.266216 0
M  V30 4811 H 455.475 -2.98245 -2.48962 0
M  V30 4812 H 457.147 -4.59238 -0.43563 0
M  V30 4813 H 455.39 -4.32461 -0.340513 0
M  V30 4814 H 456.061 -5.25759 -1.6817 0
M  V30 4815 H 458.537 -3.44458 -2.33426 0
M  V30 4816 H 457.413 -4.27989 -3.43681 0
M  V30 4817 H 457.674 -2.55153 -3.61039 0
M  V30 4818 N 456.733 0.527833 -1.48498 0
M  V30 4819 C 457.663 1.64136 -1.66077 0
M  V30 4820 C 458.644 1.62286 -0.509625 0
M  V30 4821 O 459.829 1.79449 -0.742413 0
M  V30 4822 C 456.959 3.02717 -1.70234 0
M  V30 4823 C 455.913 3.19426 -2.8487 0
M  V30 4824 C 455.239 4.5909 -2.74118 0
M  V30 4825 C 456.539 3.01993 -4.26142 0
M  V30 4826 H 458.233 1.4968 -2.593 0
M  V30 4827 H 455.779 0.718654 -1.24785 0
M  V30 4828 H 457.732 3.80491 -1.8112 0
M  V30 4829 H 456.456 3.18201 -0.735911 0
M  V30 4830 H 455.115 2.4407 -2.73542 0
M  V30 4831 H 454.763 4.71413 -1.7544 0
M  V30 4832 H 454.463 4.71214 -3.51042 0
M  V30 4833 H 455.987 5.3896 -2.86974 0
M  V30 4834 H 457.401 3.69558 -4.38292 0
M  V30 4835 H 455.798 3.2561 -5.04082 0
M  V30 4836 H 456.868 1.98396 -4.42456 0
M  V30 4837 N 458.211 1.37122 0.776871 0
M  V30 4838 C 459.458 1.32047 1.53524 0
M  V30 4839 C 459.786 -0.0965631 1.9426 0
M  V30 4840 O 459.041 -1.06866 1.63945 0
M  V30 4841 C 459.34 2.20068 2.81611 0
M  V30 4842 C 459.006 3.68423 2.59953 0
M  V30 4843 C 457.668 4.08854 2.53755 0
M  V30 4844 C 460.02 4.62431 2.40431 0
M  V30 4845 C 457.348 5.41417 2.26018 0
M  V30 4846 C 459.7 5.95225 2.14219 0
M  V30 4847 C 458.364 6.34767 2.06462 0
M  V30 4848 H 457.634 0.483196 0.561785 0
M  V30 4849 H 460.281 1.69284 0.895268 0
M  V30 4850 H 458.586 1.75809 3.50141 0
M  V30 4851 H 460.283 2.13458 3.39465 0
M  V30 4852 H 456.873 3.36354 2.65638 0
M  V30 4853 H 461.057 4.32057 2.44213 0
M  V30 4854 H 456.313 5.71022 2.18504 0
M  V30 4855 H 460.487 6.67626 1.98112 0
M  V30 4856 H 458.114 7.37413 1.84733 0
M  V30 4857 N 459.689 -1.00246 1.21608 0
M  V30 4858 C 460.919 -1.77373 1.05935 0
M  V30 4859 C 461.327 -1.85059 -0.393686 0
M  V30 4860 O 460.67 -1.31289 -1.28487 0
M  V30 4861 C 460.732 -3.22705 1.58435 0
M  V30 4862 C 460.396 -3.38591 3.06929 0
M  V30 4863 C 461.393 -3.2667 4.04454 0
M  V30 4864 C 459.078 -3.6395 3.46187 0
M  V30 4865 C 461.072 -3.39877 5.39224 0
M  V30 4866 C 458.759 -3.768 4.81108 0
M  V30 4867 C 459.757 -3.6477 5.77436 0
M  V30 4868 O 459.445 -3.77206 7.09909 0
M  V30 4869 H 459.177 -0.56419 0.372378 0
M  V30 4870 H 461.731 -1.26971 1.61454 0
M  V30 4871 H 459.961 -3.74255 0.973147 0
M  V30 4872 H 461.65 -3.81515 1.38568 0
M  V30 4873 H 462.416 -3.06999 3.75468 0
M  V30 4874 H 458.295 -3.72395 2.71741 0
M  V30 4875 H 461.839 -3.30404 6.14393 0
M  V30 4876 H 457.736 -3.95975 5.09779 0
M  V30 4877 H 458.504 -3.94138 7.17355 0
M  V30 4878 N 461.167 -1.02423 -1.1978 0
M  V30 4879 C 462.097 -0.62157 -2.25075 0
M  V30 4880 C 463.078 0.367148 -1.6609 0
M  V30 4881 O 464.263 0.250892 -1.92573 0
M  V30 4882 C 461.393 0.0331826 -3.47284 0
M  V30 4883 C 460.347 -0.877323 -4.18912 0
M  V30 4884 C 459.673 -0.0879296 -5.34628 0
M  V30 4885 C 460.973 -2.18892 -4.74219 0
M  V30 4886 H 462.667 -1.50179 -2.59011 0
M  V30 4887 H 460.213 -0.723547 -1.24502 0
M  V30 4888 H 462.166 0.326488 -4.20133 0
M  V30 4889 H 460.89 0.948164 -3.12534 0
M  V30 4890 H 459.549 -1.15475 -3.47938 0
M  V30 4891 H 459.197 0.828941 -4.96123 0
M  V30 4892 H 458.897 -0.694359 -5.83483 0
M  V30 4893 H 460.421 0.198743 -6.10276 0
M  V30 4894 H 461.835 -1.95746 -5.38847 0
M  V30 4895 H 460.232 -2.74686 -5.33542 0
M  V30 4896 H 461.302 -2.84674 -3.92541 0
M  V30 4897 N 462.645 1.35699 -0.801477 0
M  V30 4898 C 463.592 2.29876 -0.206294 0
M  V30 4899 C 464.562 1.52565 0.656752 0
M  V30 4900 O 465.747 1.81024 0.602906 0
M  V30 4901 C 462.887 3.39052 0.643272 0
M  V30 4902 C 462 4.31335 -0.239644 0
M  V30 4903 C 461.135 5.27599 0.61744 0
M  V30 4904 C 460.174 6.11521 -0.26619 0
M  V30 4905 N 459.311 6.99938 0.550571 0
M  V30 4906 H 464.151 2.80187 -1.01484 0
M  V30 4907 H 461.688 1.37902 -0.511997 0
M  V30 4908 H 463.646 4.0101 1.15094 0
M  V30 4909 H 462.276 2.9003 1.41713 0
M  V30 4910 H 461.328 3.70426 -0.865381 0
M  V30 4911 H 462.64 4.90243 -0.919985 0
M  V30 4912 H 461.794 5.94906 1.19045 0
M  V30 4913 H 460.533 4.69176 1.33137 0
M  V30 4914 H 459.538 5.43166 -0.851507 0
M  V30 4915 H 460.763 6.72022 -0.9779 0
M  V30 4916 H 458.709 6.44008 1.24856 0
M  V30 4917 H 458.626 7.55966 -0.071832 0
M  V30 4918 H 459.894 7.71599 1.10702 0
M  V30 4919 N 464.123 0.554532 1.47522 0
M  V30 4920 C 465.534 0.120446 1.86311 0
M  V30 4921 C 465.885 -1.30904 1.46145 0
M  V30 4922 O 465.01 -1.98434 0.863294 0
M  V30 4923 C 465.605 0.211808 3.38137 0
M  V30 4924 C 464.164 -0.167224 3.76028 0
M  V30 4925 C 463.311 0.560576 2.71575 0
M  V30 4926 H 466.262 0.764408 1.39077 0
M  V30 4927 H 466.283 -0.570275 3.76202 0
M  V30 4928 H 465.795 1.25232 3.6734 0
M  V30 4929 H 463.896 -1.20894 3.52442 0
M  V30 4930 H 464.009 0.189473 4.78725 0
M  V30 4931 H 462.373 0.00396836 2.547 0
M  V30 4932 H 463.156 1.60219 3.0362 0
M  V30 4933 N 465.601 -1.54893 0.290851 0
M  V30 4934 C 466.549 -2.24579 -0.605576 0
M  V30 4935 C 467.543 -1.24824 -1.14522 0
M  V30 4936 O 468.749 -1.42706 -1.09704 0
M  V30 4937 H 465.124 -0.720946 -0.213872 0
M  V30 4938 H 467.095 -2.984 0.0048173 0
M  V30 4939 C 465.844 -2.99224 -1.77088 0
M  V30 4940 H 465.167 -3.75782 -1.36484 0
M  V30 4941 H 466.607 -3.51281 -2.3744 0
M  V30 4942 C 465.066 -2.05602 -2.66888 0
M  V30 4943 O 465.596 -1.61745 -3.67698 0
M  V30 4944 N 463.802 -1.71771 -2.34399 0
M  V30 4945 H 463.349 -2.07633 -1.52468 0
M  V30 4946 H 463.307 -1.09403 -2.94751 0
M  V30 4947 N 467.08 -0.0183926 -1.57589 0
M  V30 4948 C 468.326 0.657813 -1.92469 0
M  V30 4949 C 468.681 1.70349 -0.894375 0
M  V30 4950 O 467.974 1.91384 0.0910389 0
M  V30 4951 C 468.168 1.32676 -3.31861 0
M  V30 4952 C 467.997 0.347403 -4.48356 0
M  V30 4953 C 466.767 -0.0488653 -5.05276 0
M  V30 4954 C 468.965 -0.393931 -5.12789 0
M  V30 4955 N 466.947 -1.02451 -6.05291 0
M  V30 4956 C 468.318 -1.22367 -6.07804 0
M  V30 4957 C 470.373 -0.455789 -4.95809 0
M  V30 4958 C 469.076 -2.10966 -6.87667 0
M  V30 4959 C 471.102 -1.32908 -5.76272 0
M  V30 4960 C 470.464 -2.14662 -6.70894 0
M  V30 4961 H 466.563 0.21335 -0.752334 0
M  V30 4962 H 469.147 -0.0830547 -1.94523 0
M  V30 4963 H 467.318 2.03782 -3.30647 0
M  V30 4964 H 469.05 1.95913 -3.54119 0
M  V30 4965 H 465.805 0.323356 -4.72495 0
M  V30 4966 H 466.229 -1.50826 -6.59985 0
M  V30 4967 H 470.871 0.162017 -4.22489 0
M  V30 4968 H 468.589 -2.73807 -7.603 0
M  V30 4969 H 472.175 -1.38109 -5.6517 0
M  V30 4970 H 471.055 -2.81143 -7.32071 0
M  V30 4971 N 468.558 1.5553 0.254621 0
M  V30 4972 C 469.49 1.86104 1.33783 0
M  V30 4973 C 470.503 0.746752 1.44663 0
M  V30 4974 O 471.692 1.0248 1.46151 0
M  V30 4975 C 468.792 2.02532 2.71724 0
M  V30 4976 C 467.965 3.33335 2.83208 0
M  V30 4977 C 467.024 3.396 4.01943 0
M  V30 4978 O 466.05 4.12862 3.91834 0
M  V30 4979 N 467.252 2.68332 5.1476 0
M  V30 4980 H 470.017 2.79605 1.07893 0
M  V30 4981 H 467.578 1.55672 0.444732 0
M  V30 4982 H 469.57 2.04074 3.4948 0
M  V30 4983 H 468.14 1.15811 2.90356 0
M  V30 4984 H 467.36 3.44176 1.92189 0
M  V30 4985 H 468.648 4.19565 2.87824 0
M  V30 4986 H 468.046 2.08528 5.25864 0
M  V30 4987 H 466.603 2.75575 5.90679 0
M  V30 4988 N 470.036 -0.519951 1.48776 0
M  V30 4989 C 470.983 -1.62352 1.64044 0
M  V30 4990 C 471.953 -1.58945 0.482251 0
M  V30 4991 O 473.138 -1.77219 0.706971 0
M  V30 4992 C 470.278 -3.00579 1.69547 0
M  V30 4993 C 469.391 -3.14145 2.96541 0
M  V30 4994 C 468.526 -4.42991 2.93142 0
M  V30 4995 C 467.565 -4.50122 4.14797 0
M  V30 4996 N 466.702 -5.7037 4.09418 0
M  V30 4997 H 471.542 -1.48643 2.58281 0
M  V30 4998 H 469.079 -0.723516 1.28077 0
M  V30 4999 H 471.037 -3.80671 1.70719 0
M  V30 5000 H 469.667 -3.13036 0.787918 0
M  V30 5001 H 468.719 -2.27239 3.05068 0
M  V30 5002 H 470.031 -3.15275 3.86527 0
M  V30 5003 H 469.185 -5.31385 2.92772 0
M  V30 5004 H 467.924 -4.44398 2.00902 0
M  V30 5005 H 466.929 -3.60133 4.15433 0
M  V30 5006 H 468.154 -4.50445 5.08208 0
M  V30 5007 H 466.1 -5.72655 3.20004 0
M  V30 5008 H 466.017 -5.73036 4.93119 0
M  V30 5009 H 467.285 -6.61023 4.13121 0
M  V30 5010 N 471.514 -1.37532 -0.769588 0
M  V30 5011 C 472.444 -1.36172 -1.89682 0
M  V30 5012 C 473.425 -0.23001 -1.68538 0
M  V30 5013 O 474.61 -0.43069 -1.89364 0
M  V30 5014 C 471.74 -1.1701 -3.26995 0
M  V30 5015 C 470.694 -2.27216 -3.62708 0
M  V30 5016 C 470.02 -1.93174 -4.98586 0
M  V30 5017 C 471.32 -3.6941 -3.69234 0
M  V30 5018 H 473.014 -2.30499 -1.91078 0
M  V30 5019 H 470.56 -1.10953 -0.917902 0
M  V30 5020 H 472.513 -1.14688 -4.05493 0
M  V30 5021 H 471.237 -0.191395 -3.26039 0
M  V30 5022 H 469.896 -2.28697 -2.86519 0
M  V30 5023 H 469.544 -0.938281 -4.94171 0
M  V30 5024 H 469.244 -2.66973 -5.23449 0
M  V30 5025 H 470.768 -1.92443 -5.79481 0
M  V30 5026 H 472.182 -3.70047 -4.37879 0
M  V30 5027 H 470.579 -4.4228 -4.05597 0
M  V30 5028 H 471.649 -4.0288 -2.69844 0
M  V30 5029 N 472.992 0.995999 -1.22138 0
M  V30 5030 C 473.922 2.10387 -1.01289 0
M  V30 5031 C 474.903 1.69975 0.0651454 0
M  V30 5032 O 476.088 1.9396 -0.0964628 0
M  V30 5033 C 473.218 3.42312 -0.586517 0
M  V30 5034 C 472.172 3.96558 -1.61014 0
M  V30 5035 C 471.498 5.24494 -1.0397 0
M  V30 5036 C 472.798 4.27595 -2.99933 0
M  V30 5037 H 474.492 2.28086 -1.93951 0
M  V30 5038 H 472.038 1.09607 -0.933928 0
M  V30 5039 H 473.991 4.19223 -0.427793 0
M  V30 5040 H 472.715 3.24431 0.375761 0
M  V30 5041 H 471.374 3.21776 -1.75658 0
M  V30 5042 H 471.022 5.02953 -0.0688703 0
M  V30 5043 H 470.722 5.61755 -1.72352 0
M  V30 5044 H 472.246 6.04042 -0.892494 0
M  V30 5045 H 473.66 4.95315 -2.8868 0
M  V30 5046 H 472.057 4.76021 -3.6541 0
M  V30 5047 H 473.127 3.35498 -3.50099 0
M  V30 5048 N 474.47 1.03057 1.19235 0
M  V30 5049 C 475.38 0.622922 2.26179 0
M  V30 5050 C 476.396 -0.346113 1.70523 0
M  V30 5051 O 477.572 -0.203572 2.00369 0
M  V30 5052 C 474.637 -0.0182063 3.46695 0
M  V30 5053 C 473.698 0.998546 4.17526 0
M  V30 5054 C 472.931 0.387917 5.32288 0
M  V30 5055 O 473.154 -0.808668 5.64639 0
M  V30 5056 O 472.088 1.1116 5.91546 0
M  V30 5057 H 475.914 1.51363 2.63292 0
M  V30 5058 H 473.499 0.800856 1.26122 0
M  V30 5059 H 475.381 -0.375606 4.19723 0
M  V30 5060 H 474.056 -0.882895 3.11427 0
M  V30 5061 H 472.963 1.40756 3.4661 0
M  V30 5062 H 474.296 1.83366 4.56769 0
M  V30 5063 N 475.948 -1.35272 0.808662 0
M  V30 5064 C 477.176 -2.02946 0.402537 0
M  V30 5065 C 477.591 -1.60937 -0.987147 0
M  V30 5066 O 476.948 -0.807917 -1.63643 0
M  V30 5067 C 476.999 -3.58317 0.47868 0
M  V30 5068 O 476.72 -3.98799 1.81358 0
M  V30 5069 C 478.221 -4.43251 0.0656281 0
M  V30 5070 H 475.441 -0.650831 0.163279 0
M  V30 5071 H 477.985 -1.72849 1.09286 0
M  V30 5072 H 476.14 -3.87055 -0.163415 0
M  V30 5073 H 476.554 -4.93451 1.77781 0
M  V30 5074 H 478.028 -5.51738 0.170017 0
M  V30 5075 H 478.505 -4.27913 -0.989278 0
M  V30 5076 H 479.111 -4.19813 0.68096 0
M  V30 5077 N 477.426 -0.562348 -1.47226 0
M  V30 5078 C 478.674 -0.0401371 -2.0206 0
M  V30 5079 C 478.995 1.3165 -1.43852 0
M  V30 5080 O 478.265 1.85976 -0.615599 0
M  V30 5081 H 476.845 -0.0118479 -0.746906 0
M  V30 5082 H 479.507 -0.73352 -1.8057 0
M  V30 5083 H 478.603 0.0441254 -3.12069 0
M  V30 5084 N 478.904 1.54736 -0.299062 0
M  V30 5085 C 480.15 2.00397 0.311244 0
M  V30 5086 C 480.483 1.18716 1.53688 0
M  V30 5087 O 479.758 0.263154 1.92712 0
M  V30 5088 C 480.041 3.53817 0.669761 0
M  V30 5089 C 479.894 4.46239 -0.564882 0
M  V30 5090 C 481.213 4.13856 1.49702 0
M  V30 5091 H 478.332 0.728493 0.111653 0
M  V30 5092 H 480.974 1.85506 -0.410774 0
M  V30 5093 H 479.124 3.66637 1.28491 0
M  V30 5094 H 480.796 4.45328 -1.20337 0
M  V30 5095 H 479.039 4.16916 -1.19849 0
M  V30 5096 H 479.71 5.5134 -0.269918 0
M  V30 5097 H 482.186 4.04461 0.977284 0
M  V30 5098 H 481.062 5.21365 1.71666 0
M  V30 5099 H 481.323 3.65608 2.48563 0
M  V30 5100 N 480.382 0.0267497 1.57577 0
M  V30 5101 C 481.628 -0.647596 1.92815 0
M  V30 5102 C 481.983 -1.69872 0.903396 0
M  V30 5103 O 481.276 -1.91429 -0.0808881 0
M  V30 5104 C 481.47 -1.30914 3.3256 0
M  V30 5105 C 481.299 -0.323621 4.48534 0
M  V30 5106 C 480.069 0.0756607 5.05243 0
M  V30 5107 C 482.267 0.42112 5.12573 0
M  V30 5108 N 480.249 1.0566 6.04739 0
M  V30 5109 C 481.62 1.25589 6.07147 0
M  V30 5110 C 483.675 0.482077 4.95561 0
M  V30 5111 C 482.378 2.1461 6.86538 0
M  V30 5112 C 484.404 1.35962 5.75559 0
M  V30 5113 C 483.766 2.18217 6.69747 0
M  V30 5114 H 479.865 -0.209357 0.753454 0
M  V30 5115 H 482.449 0.0933695 1.94476 0
M  V30 5116 H 480.62 -2.02026 3.31723 0
M  V30 5117 H 482.352 -1.94033 3.55153 0
M  V30 5118 H 479.107 -0.298294 4.7266 0
M  V30 5119 H 479.531 1.54324 6.59176 0
M  V30 5120 H 484.173 -0.139609 4.22569 0
M  V30 5121 H 481.891 2.77835 7.58837 0
M  V30 5122 H 485.477 1.41105 5.6443 0
M  V30 5123 H 484.357 2.85022 7.3057 0
M  V30 5124 N 481.861 -1.55662 -0.24637 0
M  V30 5125 C 483.11 -1.7672 -0.972254 0
M  V30 5126 C 483.423 -0.59078 -1.86465 0
M  V30 5127 O 484.629 -0.684391 -2.62732 0
M  V30 5128 C 483.085 -3.12869 -1.7788 0
M  V30 5129 C 482.693 -4.38161 -0.933768 0
M  V30 5130 C 484.437 -3.43265 -2.49738 0
M  V30 5131 C 482.344 -5.6534 -1.73623 0
M  V30 5132 H 481.274 -0.658795 -0.366749 0
M  V30 5133 H 483.925 -1.82092 -0.226902 0
M  V30 5134 H 482.307 -3.01606 -2.56612 0
M  V30 5135 H 483.481 -4.60413 -0.188736 0
M  V30 5136 H 481.796 -4.15102 -0.328488 0
M  V30 5137 H 484.393 -4.35501 -3.10231 0
M  V30 5138 H 484.736 -2.64614 -3.2138 0
M  V30 5139 H 485.269 -3.55746 -1.78016 0
M  V30 5140 H 482.008 -6.46814 -1.06354 0
M  V30 5141 H 481.528 -5.47188 -2.45653 0
M  V30 5142 H 483.207 -6.04616 -2.30323 0
M  V30 5143 N 483.339 0.512053 -1.4905 0
M  V30 5144 C 484.616 1.27337 -1.48474 0
M  V30 5145 C 484.996 2.1009 -0.206301 0
M  V30 5146 O 484.344 2.136 0.811609 0
M  V30 5147 C 484.554 2.13954 -2.75726 0
M  V30 5148 C 485.902 2.73507 -3.24776 0
M  V30 5149 O 486.926 2.24229 -2.76767 0
M  V30 5150 O 485.785 3.63186 -4.08361 0
M  V30 5151 H 482.879 0.575652 -0.593762 0
M  V30 5152 H 485.425 0.527232 -1.61302 0
M  V30 5153 H 484.197 1.52709 -3.60272 0
M  V30 5154 H 483.82 2.95782 -2.65705 0
M  V30 5155 N 484.817 1.37938 0.762283 0
M  V30 5156 C 485.78 1.34279 1.85747 0
M  V30 5157 C 486.78 0.244969 1.58923 0
M  V30 5158 O 487.97 0.501365 1.66829 0
M  V30 5159 C 485.102 1.08833 3.23061 0
M  V30 5160 H 486.295 2.31705 1.90401 0
M  V30 5161 H 483.848 1.23105 0.963057 0
M  V30 5162 H 484.583 0.119767 3.24079 0
M  V30 5163 H 484.368 1.88306 3.43923 0
M  V30 5164 H 485.858 1.08946 4.03138 0
M  V30 5165 N 486.295 -0.989507 1.22664 0
M  V30 5166 C 487.258 -2.06183 1.00106 0
M  V30 5167 C 488.258 -1.60765 -0.0337726 0
M  V30 5168 O 489.448 -1.72989 0.205072 0
M  V30 5169 C 486.58 -3.37021 0.51279 0
M  V30 5170 H 487.773 -2.27629 1.95256 0
M  V30 5171 H 485.326 -1.16158 1.0458 0
M  V30 5172 H 486.061 -3.21261 -0.442917 0
M  V30 5173 H 485.846 -3.71323 1.25942 0
M  V30 5174 H 487.336 -4.1591 0.375315 0
M  V30 5175 N 487.773 -1.03688 -1.18687 0
M  V30 5176 C 488.736 -0.629115 -2.20397 0
M  V30 5177 C 489.736 0.311495 -1.57754 0
M  V30 5178 O 490.926 0.0974107 -1.73927 0
M  V30 5179 C 488.058 0.0782231 -3.4081 0
M  V30 5180 H 489.251 -1.52915 -2.57987 0
M  V30 5181 H 486.804 -0.828988 -1.32505 0
M  V30 5182 H 487.539 0.992233 -3.08748 0
M  V30 5183 H 487.324 -0.597776 -3.87517 0
M  V30 5184 H 488.814 0.350156 -4.16129 0
M  V30 5185 N 489.251 1.34841 -0.815825 0
M  V30 5186 C 490.183 2.28409 -0.190265 0
M  V30 5187 C 491.196 1.50705 0.615771 0
M  V30 5188 O 492.385 1.72822 0.446616 0
M  V30 5189 C 489.485 3.30441 0.752446 0
M  V30 5190 C 488.658 4.37399 -0.00922152 0
M  V30 5191 C 487.717 5.19234 0.853351 0
M  V30 5192 O 486.743 5.68404 0.300919 0
M  V30 5193 N 487.945 5.38248 2.17416 0
M  V30 5194 H 490.71 2.82732 -0.994114 0
M  V30 5195 H 488.271 1.47289 -0.672129 0
M  V30 5196 H 490.263 3.82084 1.33394 0
M  V30 5197 H 488.833 2.76565 1.45707 0
M  V30 5198 H 488.053 3.86567 -0.771979 0
M  V30 5199 H 489.341 5.05992 -0.533807 0
M  V30 5200 H 488.739 4.99961 2.6468 0
M  V30 5201 H 487.296 5.93035 2.70467 0
M  V30 5202 N 490.729 0.570148 1.46925 0
M  V30 5203 C 491.978 0.0487352 2.01641 0
M  V30 5204 C 492.291 -1.31433 1.44861 0
M  V30 5205 O 493.497 -1.92638 1.91318 0
M  V30 5206 C 491.953 0.0365817 3.59881 0
M  V30 5207 C 491.561 1.39719 4.25655 0
M  V30 5208 C 493.305 -0.431545 4.22301 0
M  V30 5209 C 491.212 1.34345 5.75939 0
M  V30 5210 H 490.142 0.0144492 0.753862 0
M  V30 5211 H 492.793 0.719928 1.68788 0
M  V30 5212 H 491.175 -0.700522 3.89755 0
M  V30 5213 H 492.349 2.15303 4.07408 0
M  V30 5214 H 490.664 1.80431 3.75278 0
M  V30 5215 H 493.261 -0.490354 5.32447 0
M  V30 5216 H 493.604 -1.44638 3.90366 0
M  V30 5217 H 494.137 0.251102 3.97007 0
M  V30 5218 H 490.876 2.33469 6.12513 0
M  V30 5219 H 490.396 0.629615 5.96486 0
M  V30 5220 H 492.075 1.051 6.38407 0
M  V30 5221 N 492.207 -1.54576 0.307264 0
M  V30 5222 C 493.454 -2.00263 -0.300167 0
M  V30 5223 C 493.782 -1.19561 -1.53413 0
M  V30 5224 O 493.037 -0.261487 -1.93945 0
M  V30 5225 C 493.336 -3.50572 -0.695253 0
M  V30 5226 C 493.002 -4.48771 0.437679 0
M  V30 5227 C 491.664 -4.7534 0.748681 0
M  V30 5228 C 494.016 -5.0721 1.19949 0
M  V30 5229 C 491.344 -5.5761 1.8245 0
M  V30 5230 C 493.696 -5.90651 2.26527 0
M  V30 5231 C 492.36 -6.15528 2.58227 0
M  V30 5232 H 491.63 -0.732814 -0.109839 0
M  V30 5233 H 494.277 -1.86664 0.427661 0
M  V30 5234 H 492.582 -3.61814 -1.50326 0
M  V30 5235 H 494.279 -3.83352 -1.17653 0
M  V30 5236 H 490.869 -4.282 0.185187 0
M  V30 5237 H 495.053 -4.86679 0.972474 0
M  V30 5238 H 490.309 -5.75121 2.07476 0
M  V30 5239 H 494.483 -6.34957 2.86011 0
M  V30 5240 H 492.11 -6.79066 3.4172 0
M  V30 5241 N 493.685 -0.035106 -1.57561 0
M  V30 5242 C 494.932 0.642229 -1.92046 0
M  V30 5243 C 495.26 1.7179 -0.91206 0
M  V30 5244 O 494.515 1.95544 0.0781153 0
M  V30 5245 C 494.814 1.29149 -3.3325 0
M  V30 5246 C 494.48 0.345604 -4.49574 0
M  V30 5247 C 493.142 0.0852775 -4.81124 0
M  V30 5248 C 495.494 -0.303569 -5.20315 0
M  V30 5249 C 492.822 -0.831927 -5.80772 0
M  V30 5250 C 495.174 -1.20886 -6.20942 0
M  V30 5251 C 493.838 -1.47802 -6.50931 0
M  V30 5252 H 493.108 0.235008 -0.702746 0
M  V30 5253 H 495.755 -0.0981529 -1.91248 0
M  V30 5254 H 494.06 2.10676 -3.30337 0
M  V30 5255 H 495.757 1.82223 -3.57205 0
M  V30 5256 H 492.347 0.558683 -4.24943 0
M  V30 5257 H 496.531 -0.115515 -4.96166 0
M  V30 5258 H 491.787 -1.0481 -6.02349 0
M  V30 5259 H 495.961 -1.71804 -6.74875 0
M  V30 5260 H 493.588 -2.19039 -7.2796 0
M  V30 5261 N 495.163 1.55791 0.238111 0
M  V30 5262 C 496.388 1.8244 0.986432 0
M  V30 5263 C 496.813 0.613314 1.7782 0
M  V30 5264 O 496.171 -0.437767 1.75935 0
M  V30 5265 C 496.219 3.06917 1.893 0
M  V30 5266 O 495.323 2.84449 2.98601 0
M  V30 5267 H 494.664 0.601975 0.280218 0
M  V30 5268 H 497.194 2.02987 0.256437 0
M  V30 5269 H 497.204 3.36583 2.30598 0
M  V30 5270 H 495.879 3.947 1.31091 0
M  V30 5271 H 494.456 2.65972 2.61368 0
M  V30 5272 N 496.642 -0.504142 1.49319 0
M  V30 5273 C 497.572 -1.61473 1.68667 0
M  V30 5274 C 498.553 -1.61455 0.535378 0
M  V30 5275 O 499.738 -1.78245 0.770868 0
M  V30 5276 C 496.868 -2.99971 1.75028 0
M  V30 5277 C 495.822 -3.14854 2.89916 0
M  V30 5278 C 495.148 -4.54671 2.81387 0
M  V30 5279 C 496.448 -2.95176 4.30893 0
M  V30 5280 H 498.142 -1.45535 2.61648 0
M  V30 5281 H 495.688 -0.698711 1.25913 0
M  V30 5282 H 497.641 -3.77562 1.8715 0
M  V30 5283 H 496.365 -3.1699 0.786441 0
M  V30 5284 H 495.024 -2.39687 2.77391 0
M  V30 5285 H 494.672 -4.68562 1.82917 0
M  V30 5286 H 494.372 -4.6557 3.58494 0
M  V30 5287 H 495.896 -5.34327 2.95512 0
M  V30 5288 H 497.31 -3.62538 4.44116 0
M  V30 5289 H 495.707 -3.17549 5.09198 0
M  V30 5290 H 496.777 -1.91332 4.45556 0
M  V30 5291 N 498.12 -1.38341 -0.754957 0
M  V30 5292 C 499.368 -1.34208 -1.51105 0
M  V30 5293 C 499.689 0.0677634 -1.94882 0
M  V30 5294 O 498.959 1.01517 -1.67544 0
M  V30 5295 H 497.539 -0.493819 -0.560493 0
M  V30 5296 H 500.201 -1.73005 -0.897507 0
M  V30 5297 H 499.297 -1.99203 -2.4026 0
M  V30 5298 N 499.598 0.982988 -1.23187 0
M  V30 5299 C 501.009 1.53847 -1.05773 0
M  V30 5300 C 501.36 1.92568 0.375744 0
M  V30 5301 O 500.485 1.75783 1.26211 0
M  V30 5302 C 501.08 2.79567 -1.91384 0
M  V30 5303 C 499.639 3.31524 -1.78238 0
M  V30 5304 C 498.786 2.04534 -1.87246 0
M  V30 5305 H 501.737 0.802962 -1.36888 0
M  V30 5306 H 501.758 3.52317 -1.43711 0
M  V30 5307 H 501.27 2.51353 -2.95708 0
M  V30 5308 H 499.371 3.64623 -0.766875 0
M  V30 5309 H 499.484 4.01457 -2.61475 0
M  V30 5310 H 497.848 2.1855 -1.30797 0
M  V30 5311 H 498.631 1.78706 -2.9312 0
M  V30 5312 N 501.076 1.04316 1.18135 0
M  V30 5313 C 502.324 0.746542 1.87806 0
M  V30 5314 C 502.645 -0.728082 1.80898 0
M  V30 5315 O 501.915 -1.52554 1.22899 0
M  V30 5316 H 500.495 0.273157 0.695265 0
M  V30 5317 H 503.157 1.32044 1.43354 0
M  V30 5318 H 502.253 1.05362 2.93778 0
M  V30 5319 N 502.554 -1.34406 0.822964 0
M  V30 5320 C 503.801 -1.98284 0.411057 0
M  V30 5321 C 504.129 -1.65245 -1.02588 0
M  V30 5322 O 503.384 -0.91619 -1.72929 0
M  V30 5323 C 503.683 -3.52981 0.560268 0
M  V30 5324 C 503.349 -4.05931 1.96293 0
M  V30 5325 C 502.011 -4.20103 2.34664 0
M  V30 5326 C 504.363 -4.34412 2.87985 0
M  V30 5327 C 501.691 -4.60082 3.64062 0
M  V30 5328 C 504.043 -4.75838 4.16847 0
M  V30 5329 C 502.707 -4.88215 4.55195 0
M  V30 5330 H 501.977 -0.725573 0.150416 0
M  V30 5331 H 504.624 -1.60349 1.04692 0
M  V30 5332 H 502.929 -3.91477 -0.158982 0
M  V30 5333 H 504.626 -4.00385 0.222087 0
M  V30 5334 H 501.216 -3.95363 1.65487 0
M  V30 5335 H 505.4 -4.23001 2.59584 0
M  V30 5336 H 500.656 -4.67856 3.93599 0
M  V30 5337 H 504.83 -4.96834 4.87984 0
M  V30 5338 H 502.457 -5.18952 5.55512 0
M  V30 5339 N 504.032 -0.577932 -1.46621 0
M  V30 5340 C 505.28 -0.061566 -2.02006 0
M  V30 5341 C 505.601 1.30117 -1.4524 0
M  V30 5342 O 504.871 1.85313 -0.63529 0
M  V30 5343 H 503.451 -0.0197692 -0.746738 0
M  V30 5344 H 506.113 -0.752631 -1.79782 0
M  V30 5345 H 505.209 0.0110238 -3.12098 0
M  V30 5346 N 505.51 1.54411 -0.315457 0
M  V30 5347 C 506.756 2.00716 0.289972 0
M  V30 5348 C 507.089 1.2034 1.5242 0
M  V30 5349 O 506.364 0.283579 1.92422 0
M  V30 5350 C 506.647 3.54507 0.632196 0
M  V30 5351 C 506.5 4.45615 -0.61218 0
M  V30 5352 C 507.819 4.15421 1.45305 0
M  V30 5353 H 504.938 0.729637 0.10392 0
M  V30 5354 H 507.58 1.8506 -0.430427 0
M  V30 5355 H 505.73 3.67979 1.24595 0
M  V30 5356 H 507.402 4.44026 -1.25053 0
M  V30 5357 H 505.645 4.15621 -1.24264 0
M  V30 5358 H 506.316 5.51022 -0.328379 0
M  V30 5359 H 508.792 4.05474 0.934331 0
M  V30 5360 H 507.668 5.23157 1.66127 0
M  V30 5361 H 507.929 3.68223 2.44671 0
M  V30 5362 N 506.988 0.0434614 1.5754 0
M  V30 5363 C 507.918 -0.931651 2.14109 0
M  V30 5364 C 508.899 -1.32971 1.06079 0
M  V30 5365 O 510.084 -1.40579 1.33982 0
M  V30 5366 C 507.214 -2.20914 2.67982 0
M  V30 5367 C 506.168 -1.95139 3.80926 0
M  V30 5368 C 505.494 -3.29276 4.21285 0
M  V30 5369 C 506.794 -1.27913 5.06395 0
M  V30 5370 H 508.488 -0.460497 2.95837 0
M  V30 5371 H 506.034 -0.220058 1.42309 0
M  V30 5372 H 507.987 -2.89522 3.06194 0
M  V30 5373 H 506.711 -2.70221 1.83434 0
M  V30 5374 H 505.37 -1.28945 3.43175 0
M  V30 5375 H 505.018 -3.76369 3.33699 0
M  V30 5376 H 504.718 -3.12831 4.97404 0
M  V30 5377 H 506.242 -3.99129 4.62091 0
M  V30 5378 H 507.656 -1.86544 5.42102 0
M  V30 5379 H 506.053 -1.2182 5.87605 0
M  V30 5380 H 507.123 -0.254066 4.84234 0
M  V30 5381 N 508.466 -1.55915 -0.229846 0
M  V30 5382 C 509.396 -1.94754 -1.28815 0
M  V30 5383 C 510.377 -0.814657 -1.49323 0
M  V30 5384 O 511.562 -1.07631 -1.61645 0
M  V30 5385 C 508.692 -2.25705 -2.63959 0
M  V30 5386 C 507.646 -3.41406 -2.5812 0
M  V30 5387 C 506.972 -3.57941 -3.97218 0
M  V30 5388 C 508.272 -4.76616 -2.13623 0
M  V30 5389 H 509.966 -2.83404 -0.965547 0
M  V30 5390 H 507.512 -1.36353 -0.463028 0
M  V30 5391 H 509.465 -2.51467 -3.38146 0
M  V30 5392 H 508.189 -1.339 -2.9789 0
M  V30 5393 H 506.848 -3.1568 -1.86391 0
M  V30 5394 H 506.496 -2.63526 -4.28443 0
M  V30 5395 H 506.196 -4.35757 -3.94195 0
M  V30 5396 H 507.72 -3.86042 -4.73079 0
M  V30 5397 H 509.134 -5.01637 -2.77549 0
M  V30 5398 H 507.531 -5.57655 -2.21677 0
M  V30 5399 H 508.601 -4.7253 -1.08829 0
M  V30 5400 N 509.944 0.496216 -1.49584 0
M  V30 5401 C 510.907 1.57952 -1.66084 0
M  V30 5402 C 511.907 1.51729 -0.53244 0
M  V30 5403 O 513.097 1.54796 -0.79899 0
M  V30 5404 C 510.229 2.97604 -1.66268 0
M  V30 5405 H 511.422 1.44649 -2.6271 0
M  V30 5406 H 508.975 0.7208 -1.38687 0
M  V30 5407 H 509.71 3.16378 -0.712432 0
M  V30 5408 H 509.495 3.03528 -2.4822 0
M  V30 5409 H 510.985 3.76301 -1.81073 0
M  V30 5410 N 511.423 1.38739 0.74761 0
M  V30 5411 C 512.67 1.35274 1.50689 0
M  V30 5412 C 512.998 -0.0553359 1.94421 0
M  V30 5413 O 512.253 -1.03365 1.66175 0
M  V30 5414 C 512.552 2.25992 2.7688 0
M  V30 5415 C 512.218 3.73854 2.5208 0
M  V30 5416 C 510.88 4.14145 2.45025 0
M  V30 5417 C 513.232 4.67427 2.30568 0
M  V30 5418 C 510.56 5.4609 2.14483 0
M  V30 5419 C 512.912 5.99635 2.01545 0
M  V30 5420 C 511.576 6.39004 1.92951 0
M  V30 5421 H 510.846 0.495003 0.55141 0
M  V30 5422 H 513.493 1.71145 0.859158 0
M  V30 5423 H 511.798 1.83196 3.46333 0
M  V30 5424 H 513.495 2.20611 3.34861 0
M  V30 5425 H 510.085 3.41913 2.58444 0
M  V30 5426 H 514.269 4.3714 2.34994 0
M  V30 5427 H 509.525 5.75528 2.06342 0
M  V30 5428 H 513.699 6.71678 1.83906 0
M  V30 5429 H 511.326 7.41165 1.6905 0
M  V30 5430 N 512.901 -0.976442 1.23707 0
M  V30 5431 C 513.864 -2.0511 1.02287 0
M  V30 5432 C 514.864 -1.60791 -0.0167195 0
M  V30 5433 O 516.054 -1.72761 0.223408 0
M  V30 5434 C 513.186 -3.36458 0.548507 0
M  V30 5435 H 514.379 -2.25545 1.9766 0
M  V30 5436 H 511.932 -1.15042 1.05806 0
M  V30 5437 H 512.667 -3.21713 -0.408818 0
M  V30 5438 H 512.452 -3.69967 1.29874 0
M  V30 5439 H 513.942 -4.15489 0.419406 0
M  V30 5440 N 514.379 -1.04941 -1.1758 0
M  V30 5441 C 515.604 -0.778253 -1.92245 0
M  V30 5442 C 516.029 0.659707 -1.76152 0
M  V30 5443 O 515.387 1.45803 -1.07755 0
M  V30 5444 C 515.435 -1.16051 -3.41416 0
M  V30 5445 O 514.539 -0.291153 -4.11371 0
M  V30 5446 H 513.88 -0.285619 -0.599431 0
M  V30 5447 H 516.41 -1.40159 -1.49052 0
M  V30 5448 H 516.42 -1.12619 -3.92149 0
M  V30 5449 H 515.095 -2.208 -3.52449 0
M  V30 5450 H 513.672 -0.385851 -3.70898 0
M  V30 5451 N 515.857 1.33968 -0.830081 0
M  V30 5452 C 517.087 2.01987 -0.434142 0
M  V30 5453 C 517.495 1.62639 0.96671 0
M  V30 5454 O 516.838 0.831151 1.63822 0
M  V30 5455 C 516.9 3.5648 -0.465018 0
M  V30 5456 C 516.564 4.19176 -1.82045 0
M  V30 5457 C 517.561 4.39181 -2.78237 0
M  V30 5458 C 515.246 4.55792 -2.11089 0
M  V30 5459 C 517.24 4.94937 -4.01642 0
M  V30 5460 C 514.927 5.11258 -3.34752 0
M  V30 5461 C 515.925 5.30775 -4.29845 0
M  V30 5462 O 515.613 5.85064 -5.51322 0
M  V30 5463 H 515.345 0.653847 -0.171639 0
M  V30 5464 H 517.899 1.72066 -1.12171 0
M  V30 5465 H 516.129 3.8569 0.279284 0
M  V30 5466 H 517.818 4.05804 -0.0881334 0
M  V30 5467 H 518.584 4.11249 -2.57097 0
M  V30 5468 H 514.463 4.39901 -1.3787 0
M  V30 5469 H 518.007 5.10086 -4.75876 0
M  V30 5470 H 513.904 5.38619 -3.55753 0
M  V30 5471 H 514.672 6.03489 -5.5294 0
M  V30 5472 N 517.335 0.585699 1.46312 0
M  V30 5473 C 518.283 -0.158577 2.32059 0
M  V30 5474 C 519.277 -0.881427 1.44662 0
M  V30 5475 O 520.483 -0.799476 1.61271 0
M  V30 5476 H 516.858 -0.0700066 0.748734 0
M  V30 5477 H 518.829 0.583383 2.92642 0
M  V30 5478 C 517.578 -1.15701 3.27885 0
M  V30 5479 H 516.901 -0.610215 3.95116 0
M  V30 5480 H 518.341 -1.64812 3.90657 0
M  V30 5481 C 516.8 -2.21951 2.53455 0
M  V30 5482 O 517.33 -3.29352 2.29978 0
M  V30 5483 N 515.536 -1.9664 2.13965 0
M  V30 5484 H 515.083 -1.09309 2.33258 0
M  V30 5485 H 515.041 -2.6794 1.64485 0
M  V30 5486 N 518.813 -1.54241 0.323641 0
M  V30 5487 C 519.76 -2.24339 -0.542277 0
M  V30 5488 C 520.73 -1.23421 -1.11159 0
M  V30 5489 O 521.915 -1.52104 -1.15192 0
M  V30 5490 C 519.055 -3.00479 -1.69725 0
M  V30 5491 C 518.168 -4.16214 -1.15716 0
M  V30 5492 C 517.303 -4.79884 -2.27783 0
M  V30 5493 C 516.342 -5.87722 -1.71023 0
M  V30 5494 N 515.479 -6.45254 -2.76752 0
M  V30 5495 H 520.319 -2.97935 0.0620613 0
M  V30 5496 H 517.856 -1.47039 0.0423993 0
M  V30 5497 H 519.814 -3.42869 -2.3769 0
M  V30 5498 H 518.444 -2.29217 -2.27288 0
M  V30 5499 H 517.496 -3.78605 -0.369063 0
M  V30 5500 H 518.808 -4.93838 -0.701832 0
M  V30 5501 H 517.962 -5.25243 -3.03651 0
M  V30 5502 H 516.701 -4.01641 -2.76652 0
M  V30 5503 H 515.706 -5.41765 -0.936518 0
M  V30 5504 H 516.931 -6.67863 -1.2303 0
M  V30 5505 H 514.877 -5.69884 -3.24912 0
M  V30 5506 H 514.794 -7.18292 -2.35782 0
M  V30 5507 H 516.062 -6.95269 -3.5245 0
M  V30 5508 N 520.291 -0.0518155 -1.57515 0
M  V30 5509 C 521.538 0.621823 -1.92716 0
M  V30 5510 C 521.866 1.70813 -0.930229 0
M  V30 5511 O 521.121 1.95616 0.0573708 0
M  V30 5512 C 521.42 1.25607 -3.34601 0
M  V30 5513 C 521.086 0.297901 -4.49915 0
M  V30 5514 C 519.748 0.034243 -4.81188 0
M  V30 5515 C 522.1 -0.358738 -5.19964 0
M  V30 5516 C 519.428 -0.893479 -5.79857 0
M  V30 5517 C 521.78 -1.27466 -6.19625 0
M  V30 5518 C 520.444 -1.54698 -6.49326 0
M  V30 5519 H 519.714 0.227541 -0.705199 0
M  V30 5520 H 522.361 -0.118432 -1.91133 0
M  V30 5521 H 520.666 2.07161 -3.32553 0
M  V30 5522 H 522.363 1.78424 -3.59118 0
M  V30 5523 H 518.953 0.513581 -4.25512 0
M  V30 5524 H 523.137 -0.168133 -4.96015 0
M  V30 5525 H 518.393 -1.11193 -6.01204 0
M  V30 5526 H 522.567 -1.78953 -6.73015 0
M  V30 5527 H 520.194 -2.26748 -7.25596 0
M  V30 5528 N 521.769 1.56035 0.221574 0
M  V30 5529 C 522.717 1.93269 1.29421 0
M  V30 5530 C 523.711 0.814727 1.48521 0
M  V30 5531 O 524.917 0.999559 1.49696 0
M  V30 5532 H 521.292 0.614188 0.43391 0
M  V30 5533 H 523.263 2.82773 0.952987 0
M  V30 5534 C 522.012 2.26573 2.63742 0
M  V30 5535 H 521.335 3.12112 2.49853 0
M  V30 5536 H 522.775 2.5651 3.37607 0
M  V30 5537 C 521.234 1.09086 3.1875 0
M  V30 5538 O 521.764 0.351985 4.00155 0
M  V30 5539 N 519.97 0.874693 2.77124 0
M  V30 5540 H 519.517 1.47726 2.11033 0
M  V30 5541 H 519.475 0.0903349 3.1427 0
M  V30 5542 N 523.247 -0.488276 1.49845 0
M  V30 5543 C 524.195 -1.60917 1.67954 0
M  V30 5544 C 525.189 -1.6038 0.54539 0
M  V30 5545 O 526.395 -1.64736 0.7254 0
M  V30 5546 H 522.77 -0.533658 0.529824 0
M  V30 5547 H 524.741 -1.428 2.62013 0
M  V30 5548 C 523.49 -2.98975 1.77509 0
M  V30 5549 H 522.813 -3.00099 2.6416 0
M  V30 5550 H 524.253 -3.76906 1.9421 0
M  V30 5551 C 522.712 -3.3282 0.522745 0
M  V30 5552 O 523.242 -4.00208 -0.345866 0
M  V30 5553 N 521.448 -2.8808 0.381882 0
M  V30 5554 H 520.995 -2.33415 1.08974 0
M  V30 5555 H 520.953 -3.11091 -0.454929 0
M  V30 5556 N 524.725 -1.39134 -0.740242 0
M  V30 5557 C 525.673 -1.3757 -1.87556 0
M  V30 5558 C 526.667 -0.259593 -1.67399 0
M  V30 5559 O 527.873 -0.429349 -1.74804 0
M  V30 5560 H 524.248 -0.42947 -0.6173 0
M  V30 5561 H 526.219 -2.33345 -1.85991 0
M  V30 5562 C 524.968 -1.23087 -3.25184 0
M  V30 5563 H 524.291 -2.08237 -3.41288 0
M  V30 5564 H 525.731 -1.26049 -4.0483 0
M  V30 5565 C 524.19 0.0611471 -3.36845 0
M  V30 5566 O 524.72 1.03328 -3.88183 0
M  V30 5567 N 522.926 0.122454 -2.90342 0
M  V30 5568 H 522.473 -0.669329 -2.48752 0
M  V30 5569 H 522.431 0.986463 -2.98523 0
M  V30 5570 N 526.204 0.969867 -1.24223 0
M  V30 5571 C 527.444 1.72754 -1.0925 0
M  V30 5572 C 527.808 1.88541 0.362787 0
M  V30 5573 O 529.009 2.61217 0.633969 0
M  V30 5574 C 527.28 3.08204 -1.80957 0
M  V30 5575 S 528.839 3.99418 -1.81688 0
M  V30 5576 H 525.657 0.593981 -0.390778 0
M  V30 5577 H 528.259 1.15792 -1.5752 0
M  V30 5578 H 526.963 2.94372 -2.85961 0
M  V30 5579 H 526.494 3.70232 -1.33012 0
M  V30 5580 H 528.509 4.8828 -0.883001 0
M  V30 5581 N 527.682 1.05563 1.17022 0
M  V30 5582 C 528.912 0.787307 1.91011 0
M  V30 5583 C 529.32 -0.661256 1.77268 0
M  V30 5584 O 528.663 -1.46379 1.10991 0
M  V30 5585 C 528.725 1.09313 3.42478 0
M  V30 5586 C 528.389 2.53863 3.80004 0
M  V30 5587 C 529.386 3.52081 3.82538 0
M  V30 5588 C 527.071 2.88969 4.10855 0
M  V30 5589 C 529.065 4.83449 4.15399 0
M  V30 5590 C 526.752 4.2054 4.43384 0
M  V30 5591 C 527.75 5.17589 4.45635 0
M  V30 5592 O 527.438 6.46799 4.77395 0
M  V30 5593 H 527.17 0.285463 0.61277 0
M  V30 5594 H 529.724 1.41051 1.49311 0
M  V30 5595 H 527.954 0.412833 3.8449 0
M  V30 5596 H 529.643 0.810224 3.97731 0
M  V30 5597 H 530.409 3.26299 3.58823 0
M  V30 5598 H 526.288 2.1409 4.08272 0
M  V30 5599 H 529.832 5.59194 4.1707 0
M  V30 5600 H 525.729 4.46083 4.66563 0
M  V30 5601 H 526.497 6.51677 4.95237 0
M  V30 5602 N 529.16 -1.33526 0.837174 0
M  V30 5603 C 530.092 -2.28077 0.226579 0
M  V30 5604 C 531.105 -1.51666 -0.591717 0
M  V30 5605 O 532.294 -1.73511 -0.419064 0
M  V30 5606 C 529.394 -3.31597 -0.69978 0
M  V30 5607 C 528.567 -4.37329 0.0788067 0
M  V30 5608 C 527.626 -5.20526 -0.770637 0
M  V30 5609 O 526.652 -5.68811 -0.210453 0
M  V30 5610 N 527.854 -5.41639 -2.08825 0
M  V30 5611 H 530.619 -2.81115 1.03897 0
M  V30 5612 H 528.18 -1.46201 0.695476 0
M  V30 5613 H 530.172 -3.84158 -1.27298 0
M  V30 5614 H 528.742 -2.78848 -1.41288 0
M  V30 5615 H 527.962 -3.8529 0.833381 0
M  V30 5616 H 529.25 -5.05079 0.614238 0
M  V30 5617 H 528.648 -5.04108 -2.56693 0
M  V30 5618 H 527.205 -5.97263 -2.60998 0
M  V30 5619 N 530.638 -0.59345 -1.46 0
M  V30 5620 C 531.915 -0.0157933 -1.95594 0
M  V30 5621 C 532.295 1.44807 -1.53604 0
M  V30 5622 O 531.643 2.14342 -0.791824 0
M  V30 5623 C 531.853 -0.199081 -3.48432 0
M  V30 5624 C 533.201 -0.0724943 -4.24538 0
M  V30 5625 O 534.225 -0.128469 -3.55968 0
M  V30 5626 O 533.084 0.0542426 -5.46473 0
M  V30 5627 H 530.178 0.043749 -0.825842 0
M  V30 5628 H 532.724 -0.662522 -1.56233 0
M  V30 5629 H 531.496 -1.21631 -3.71916 0
M  V30 5630 H 531.119 0.483576 -3.94648 0
M  V30 5631 N 532.116 1.54067 -0.331816 0
M  V30 5632 C 533.079 2.23275 0.517768 0
M  V30 5633 C 534.079 1.22897 1.03697 0
M  V30 5634 O 535.269 1.47419 0.928084 0
M  V30 5635 C 532.401 2.94326 1.72004 0
M  V30 5636 H 533.594 2.99773 -0.0873507 0
M  V30 5637 H 531.147 1.56079 -0.0830042 0
M  V30 5638 H 531.882 2.21986 2.36417 0
M  V30 5639 H 531.667 3.67941 1.35507 0
M  V30 5640 H 533.157 3.47031 2.32291 0
M  V30 5641 N 533.594 0.0601682 1.57485 0
M  V30 5642 C 534.524 -0.90889 2.15085 0
M  V30 5643 C 535.505 -1.31838 1.07484 0
M  V30 5644 O 536.69 -1.3915 1.35466 0
M  V30 5645 C 533.82 -2.18059 2.7031 0
M  V30 5646 C 532.774 -1.91088 3.82974 0
M  V30 5647 C 532.1 -3.24789 4.24754 0
M  V30 5648 C 533.4 -1.22535 5.07723 0
M  V30 5649 H 535.094 -0.429093 2.96309 0
M  V30 5650 H 532.64 -0.204952 1.42534 0
M  V30 5651 H 534.593 -2.86258 3.09248 0
M  V30 5652 H 533.317 -2.6826 1.8629 0
M  V30 5653 H 531.976 -1.25297 3.44523 0
M  V30 5654 H 531.624 -3.72809 3.37672 0
M  V30 5655 H 531.324 -3.07538 5.00694 0
M  V30 5656 H 532.848 -3.94205 4.66299 0
M  V30 5657 H 534.262 -1.80783 5.4405 0
M  V30 5658 H 532.659 -1.1558 5.88864 0
M  V30 5659 H 533.729 -0.202692 4.84476 0
M  V30 5660 N 535.072 -1.5615 -0.213296 0
M  V30 5661 C 536.318 -1.79812 -0.937849 0
M  V30 5662 C 536.651 -0.631201 -1.83656 0
M  V30 5663 O 535.926 0.369165 -1.90964 0
M  V30 5664 C 536.209 -3.13613 -1.76972 0
M  V30 5665 C 536.062 -4.40766 -0.89695 0
M  V30 5666 C 537.381 -3.43931 -2.7459 0
M  V30 5667 H 534.5 -0.654138 -0.339518 0
M  V30 5668 H 537.142 -1.88877 -0.20623 0
M  V30 5669 H 535.292 -3.06015 -2.39347 0
M  V30 5670 H 536.964 -4.60392 -0.289306 0
M  V30 5671 H 535.207 -4.33326 -0.202756 0
M  V30 5672 H 535.878 -5.30843 -1.51358 0
M  V30 5673 H 538.354 -3.5171 -2.22349 0
M  V30 5674 H 537.23 -4.38706 -3.29891 0
M  V30 5675 H 537.491 -2.6651 -3.52739 0
M  V30 5676 N 536.55 0.480323 -1.50102 0
M  V30 5677 C 537.778 1.25657 -1.64371 0
M  V30 5678 C 538.193 1.86011 -0.323316 0
M  V30 5679 O 537.55 1.68803 0.693682 0
M  V30 5680 C 537.601 2.37197 -2.728 0
M  V30 5681 O 537.322 1.7932 -3.9972 0
M  V30 5682 C 538.823 3.2823 -2.9796 0
M  V30 5683 H 536.043 0.380369 -0.552775 0
M  V30 5684 H 538.587 0.574379 -1.96268 0
M  V30 5685 H 536.742 3.01208 -2.43623 0
M  V30 5686 H 537.156 2.52701 -4.59611 0
M  V30 5687 H 538.63 4.02725 -3.77513 0
M  V30 5688 H 539.107 3.86462 -2.08671 0
M  V30 5689 H 539.713 2.69964 -3.28633 0
M  V30 5690 N 538.028 1.39524 0.732853 0
M  V30 5691 C 539.253 1.40329 1.52717 0
M  V30 5692 C 539.678 0.000286574 1.881 0
M  V30 5693 O 539.036 -0.987262 1.52062 0
M  V30 5694 C 539.084 2.28464 2.78992 0
M  V30 5695 O 538.188 1.716 3.75003 0
M  V30 5696 H 537.529 0.47778 0.461109 0
M  V30 5697 H 540.059 1.83546 0.903996 0
M  V30 5698 H 540.069 2.43051 3.27705 0
M  V30 5699 H 538.744 3.30425 2.52572 0
M  V30 5700 H 537.321 1.66267 3.33781 0
M  V30 5701 N 539.506 -0.963266 1.24736 0
M  V30 5702 C 540.752 -1.70933 1.09131 0
M  V30 5703 C 541.085 -1.90676 -0.368273 0
M  V30 5704 O 540.36 -1.47147 -1.27193 0
M  V30 5705 C 540.643 -3.09744 1.83658 0
M  V30 5706 C 540.496 -2.97465 3.37394 0
M  V30 5707 C 541.815 -4.09483 1.61282 0
M  V30 5708 H 538.934 -0.620398 0.397838 0
M  V30 5709 H 541.576 -1.12028 1.53459 0
M  V30 5710 H 539.726 -3.60031 1.4598 0
M  V30 5711 H 541.398 -2.54571 3.84696 0
M  V30 5712 H 539.641 -2.33576 3.65547 0
M  V30 5713 H 540.312 -3.95822 3.84745 0
M  V30 5714 H 542.788 -3.68073 1.94066 0
M  V30 5715 H 541.664 -5.04666 2.15878 0
M  V30 5716 H 541.925 -4.38639 0.552102 0
M  V30 5717 N 540.985 -1.06182 -1.16461 0
M  V30 5718 C 542.231 -0.779015 -1.87241 0
M  V30 5719 C 542.564 0.692715 -1.81425 0
M  V30 5720 O 541.839 1.5074 -1.22913 0
M  V30 5721 C 542.122 -1.2728 -3.36856 0
M  V30 5722 C 541.975 -2.80821 -3.51368 0
M  V30 5723 C 543.294 -0.879799 -4.31216 0
M  V30 5724 H 540.413 -0.284464 -0.679889 0
M  V30 5725 H 543.055 -1.31755 -1.36896 0
M  V30 5726 H 541.205 -0.814673 -3.79862 0
M  V30 5727 H 542.877 -3.34833 -3.17308 0
M  V30 5728 H 541.12 -3.19606 -2.93316 0
M  V30 5729 H 541.791 -3.10435 -4.56436 0
M  V30 5730 H 544.267 -1.27436 -3.96105 0
M  V30 5731 H 543.143 -1.25278 -5.34412 0
M  V30 5732 H 543.404 0.215372 -4.41575 0
M  V30 5733 N 542.463 1.3308 -0.844243 0
M  V30 5734 C 543.411 2.31028 -0.269954 0
M  V30 5735 C 544.405 1.58381 0.600997 0
M  V30 5736 O 545.611 1.73203 0.48996 0
M  V30 5737 H 541.986 0.748866 -0.0685782 0
M  V30 5738 H 543.957 2.76967 -1.11049 0
M  V30 5739 C 542.706 3.43549 0.535676 0
M  V30 5740 H 542.029 3.99604 -0.125202 0
M  V30 5741 H 543.469 4.14267 0.903262 0
M  V30 5742 C 541.928 2.8988 1.71672 0
M  V30 5743 O 542.458 2.86511 2.81557 0
M  V30 5744 N 540.664 2.46416 1.54037 0
M  V30 5745 H 540.211 2.49356 0.64649 0
M  V30 5746 H 540.169 2.1086 2.33207 0
M  V30 5747 N 543.941 0.601185 1.45683 0
M  V30 5748 C 545.181 0.0968037 2.04171 0
M  V30 5749 C 545.545 -1.2466 1.46027 0
M  V30 5750 O 546.746 -1.84132 1.95829 0
M  V30 5751 C 545.017 0.051384 3.57363 0
M  V30 5752 S 546.576 -0.392737 4.37039 0
M  V30 5753 H 543.394 0.0464504 0.709481 0
M  V30 5754 H 545.996 0.797846 1.78479 0
M  V30 5755 H 544.7 1.03274 3.97193 0
M  V30 5756 H 544.231 -0.671853 3.87621 0
M  V30 5757 H 546.246 -1.64364 4.68187 0
M  V30 5758 N 545.419 -1.53889 0.339982 0
M  V30 5759 C 546.352 -2.21187 -0.561405 0
M  V30 5760 C 547.33 -1.19463 -1.10306 0
M  V30 5761 O 548.514 -1.48268 -1.164 0
M  V30 5762 C 545.641 -2.8865 -1.77198 0
M  V30 5763 C 544.687 -4.04232 -1.3601 0
M  V30 5764 S 545.52 -5.34129 -0.382909 0
M  V30 5765 C 546.676 -6.05094 -1.60039 0
M  V30 5766 H 546.909 -2.97298 0.0102092 0
M  V30 5767 H 544.442 -1.53901 0.124056 0
M  V30 5768 H 546.4 -3.28138 -2.4665 0
M  V30 5769 H 545.061 -2.12311 -2.3148 0
M  V30 5770 H 544.254 -4.50358 -2.2626 0
M  V30 5771 H 543.856 -3.66503 -0.745098 0
M  V30 5772 H 546.148 -6.2827 -2.53541 0
M  V30 5773 H 547.091 -6.98182 -1.18099 0
M  V30 5774 H 547.499 -5.35207 -1.79483 0
M  V30 5775 N 546.897 -0.0685191 -1.57451 0
M  V30 5776 C 548.125 0.610462 -1.97689 0
M  V30 5777 C 548.54 1.63346 -0.946758 0
M  V30 5778 O 547.897 1.82377 0.0669868 0
M  V30 5779 C 547.948 1.28196 -3.38006 0
M  V30 5780 O 547.669 0.299906 -4.37072 0
M  V30 5781 C 549.17 2.04907 -3.931 0
M  V30 5782 H 546.39 0.165689 -0.650222 0
M  V30 5783 H 548.934 -0.139953 -2.04021 0
M  V30 5784 H 547.089 1.98348 -3.32771 0
M  V30 5785 H 547.503 0.78126 -5.18649 0
M  V30 5786 H 548.977 2.47287 -4.93511 0
M  V30 5787 H 549.454 2.9043 -3.29465 0
M  V30 5788 H 550.06 1.39629 -4.01726 0
M  V30 5789 N 548.375 1.56261 0.205012 0
M  V30 5790 C 549.6 1.84491 0.947512 0
M  V30 5791 C 550.025 0.650894 1.76479 0
M  V30 5792 O 549.383 -0.40035 1.76824 0
M  V30 5793 C 549.431 3.10863 1.82747 0
M  V30 5794 O 548.535 2.90719 2.925 0
M  V30 5795 H 547.876 0.607783 0.267386 0
M  V30 5796 H 550.406 2.03485 0.213323 0
M  V30 5797 H 550.416 3.41399 2.23407 0
M  V30 5798 H 549.091 3.97392 1.2269 0
M  V30 5799 H 547.668 2.71457 2.55667 0
M  V30 5800 N 549.853 -0.472356 1.50355 0
M  V30 5801 C 551.1 -1.22453 1.61281 0
M  V30 5802 C 551.428 -1.91972 0.31256 0
M  V30 5803 O 550.683 -1.82696 -0.701475 0
M  V30 5804 C 550.982 -2.29257 2.74182 0
M  V30 5805 C 550.648 -1.76999 4.14708 0
M  V30 5806 C 549.31 -1.62467 4.52944 0
M  V30 5807 C 551.662 -1.38215 5.0254 0
M  V30 5808 C 548.99 -1.07574 5.76754 0
M  V30 5809 C 551.342 -0.847638 6.26895 0
M  V30 5810 C 550.006 -0.688946 6.63935 0
M  V30 5811 H 549.276 -0.448087 0.590168 0
M  V30 5812 H 551.923 -0.520744 1.84284 0
M  V30 5813 H 550.228 -3.05538 2.45263 0
M  V30 5814 H 551.925 -2.87212 2.7984 0
M  V30 5815 H 548.515 -1.89276 3.84542 0
M  V30 5816 H 552.699 -1.48276 4.73633 0
M  V30 5817 H 547.955 -0.940237 6.04127 0
M  V30 5818 H 552.129 -0.538455 6.94315 0
M  V30 5819 H 549.756 -0.261435 7.5975 0
M  V30 5820 N 551.331 -1.39911 -0.725443 0
M  V30 5821 C 552.577 -1.37858 -1.48738 0
M  V30 5822 C 552.91 0.0224187 -1.94187 0
M  V30 5823 O 552.185 0.989204 -1.67466 0
M  V30 5824 C 552.468 -2.3594 -2.72038 0
M  V30 5825 C 552.321 -3.85023 -2.32546 0
M  V30 5826 C 553.64 -2.31704 -3.74167 0
M  V30 5827 H 550.759 -0.502074 -0.539528 0
M  V30 5828 H 553.401 -1.70974 -0.828728 0
M  V30 5829 H 551.551 -2.0783 -3.28236 0
M  V30 5830 H 553.223 -4.2392 -1.81905 0
M  V30 5831 H 551.466 -4.01334 -1.64661 0
M  V30 5832 H 552.137 -4.49152 -3.20884 0
M  V30 5833 H 554.613 -2.5658 -3.27576 0
M  V30 5834 H 553.489 -3.02395 -4.58092 0
M  V30 5835 H 553.75 -1.3253 -4.21768 0
M  V30 5836 N 552.809 0.956637 -1.25245 0
M  V30 5837 C 554.034 1.74104 -1.12706 0
M  V30 5838 C 554.459 1.85436 0.315429 0
M  V30 5839 O 553.817 1.33334 1.22848 0
M  V30 5840 C 553.865 3.1338 -1.78396 0
M  V30 5841 O 552.969 3.98485 -1.06224 0
M  V30 5842 H 552.31 0.53476 -0.393609 0
M  V30 5843 H 554.84 1.19924 -1.65769 0
M  V30 5844 H 554.85 3.6385 -1.846 0
M  V30 5845 H 553.525 3.04448 -2.83345 0
M  V30 5846 H 552.102 3.56952 -1.07886 0
M  V30 5847 N 554.287 1.06798 1.15896 0
M  V30 5848 C 555.535 0.786211 1.8618 0
M  V30 5849 C 555.856 -0.689547 1.82401 0
M  V30 5850 O 555.126 -1.49913 1.26107 0
M  V30 5851 H 553.706 0.287843 0.689315 0
M  V30 5852 H 556.368 1.35055 1.40521 0
M  V30 5853 H 555.464 1.1157 2.91477 0
M  V30 5854 N 555.766 -1.3263 0.851289 0
M  V30 5855 C 557.013 -1.97368 0.453023 0
M  V30 5856 C 557.341 -1.67384 -0.990596 0
M  V30 5857 O 556.596 -0.952665 -1.70947 0
M  V30 5858 C 556.895 -3.51713 0.635015 0
M  V30 5859 C 556.561 -4.01676 2.04859 0
M  V30 5860 C 555.223 -4.15031 2.43522 0
M  V30 5861 C 557.575 -4.28206 2.97135 0
M  V30 5862 C 554.903 -4.52257 3.73739 0
M  V30 5863 C 557.255 -4.66889 4.26846 0
M  V30 5864 C 555.919 -4.7845 4.65448 0
M  V30 5865 H 555.189 -0.722219 0.165773 0
M  V30 5866 H 557.836 -1.58092 1.0807 0
M  V30 5867 H 556.141 -3.91726 -0.0759081 0
M  V30 5868 H 557.838 -3.99823 0.306964 0
M  V30 5869 H 554.428 -3.91764 1.73836 0
M  V30 5870 H 558.612 -4.174 2.68498 0
M  V30 5871 H 553.868 -4.59402 4.03435 0
M  V30 5872 H 558.042 -4.86372 4.98413 0
M  V30 5873 H 555.669 -5.07052 5.66395 0
M  V30 5874 N 557.244 -0.608902 -1.45362 0
M  V30 5875 C 558.49 -0.104762 -2.02529 0
M  V30 5876 C 558.823 1.26191 -1.47613 0
M  V30 5877 O 558.098 1.8327 -0.65134 0
M  V30 5878 C 558.381 -0.0672661 -3.60037 0
M  V30 5879 C 558.234 -1.4647 -4.25284 0
M  V30 5880 C 559.553 0.619877 -4.35713 0
M  V30 5881 H 556.672 -0.0395438 -0.735938 0
M  V30 5882 H 559.314 -0.781126 -1.73201 0
M  V30 5883 H 557.464 0.50871 -3.85155 0
M  V30 5884 H 559.136 -2.08785 -4.11347 0
M  V30 5885 H 557.379 -2.02502 -3.83634 0
M  V30 5886 H 558.05 -1.39069 -5.34195 0
M  V30 5887 H 560.526 0.130297 -4.15896 0
M  V30 5888 H 559.402 0.615224 -5.45441 0
M  V30 5889 H 559.663 1.68621 -4.0868 0
M  V30 5890 N 558.722 1.53707 -0.348139 0
M  V30 5891 C 559.971 2.0017 0.247992 0
M  V30 5892 C 560.284 1.23983 1.51286 0
M  V30 5893 O 561.49 1.60946 2.18652 0
M  V30 5894 C 559.946 3.56515 0.492459 0
M  V30 5895 C 559.554 4.41562 -0.756777 0
M  V30 5896 C 561.298 4.11381 1.0472 0
M  V30 5897 C 559.205 5.89426 -0.482856 0
M  V30 5898 H 558.135 0.747806 0.0964452 0
M  V30 5899 H 560.786 1.77532 -0.464179 0
M  V30 5900 H 559.168 3.75236 1.26545 0
M  V30 5901 H 560.342 4.34615 -1.53122 0
M  V30 5902 H 558.657 3.97711 -1.23348 0
M  V30 5903 H 561.254 5.19468 1.26717 0
M  V30 5904 H 561.597 3.64885 2.00411 0
M  V30 5905 H 562.13 3.96389 0.334801 0
M  V30 5906 H 558.869 6.40164 -1.40962 0
M  V30 5907 H 558.389 5.99264 0.253416 0
M  V30 5908 H 560.068 6.4692 -0.101816 0
M  V30 5909 N 560.2 0.0768682 1.57412 0
M  V30 5910 C 561.447 -0.591085 1.93681 0
M  V30 5911 C 561.775 -1.69311 0.957286 0
M  V30 5912 O 561.03 -1.95682 -0.0262428 0
M  V30 5913 C 561.329 -1.20268 3.36557 0
M  V30 5914 C 560.995 -0.226286 4.50332 0
M  V30 5915 C 559.657 0.0423142 4.81181 0
M  V30 5916 C 562.009 0.441415 5.19327 0
M  V30 5917 C 559.337 0.985616 5.78362 0
M  V30 5918 C 561.689 1.37307 6.17519 0
M  V30 5919 C 560.353 1.65009 6.46783 0
M  V30 5920 H 559.623 -0.216293 0.70873 0
M  V30 5921 H 562.27 0.148824 1.90921 0
M  V30 5922 H 560.575 -2.01844 3.35807 0
M  V30 5923 H 562.272 -1.72688 3.61911 0
M  V30 5924 H 558.862 -0.445821 4.26275 0
M  V30 5925 H 563.046 0.247023 4.95685 0
M  V30 5926 H 558.302 1.20743 5.99359 0
M  V30 5927 H 562.476 1.89637 6.70083 0
M  V30 5928 H 560.103 2.38263 7.21897 0
M  V30 5929 N 561.678 -1.56367 -0.196722 0
M  V30 5930 C 562.906 -1.84639 -0.933608 0
M  V30 5931 C 563.321 -0.659164 -1.76919 0
M  V30 5932 O 562.678 0.372142 -1.78665 0
M  V30 5933 C 562.729 -3.11694 -1.83109 0
M  V30 5934 O 562.45 -4.25838 -1.02924 0
M  V30 5935 C 563.951 -3.53132 -2.67979 0
M  V30 5936 H 561.171 -0.613188 -0.272473 0
M  V30 5937 H 563.715 -2.03475 -0.204465 0
M  V30 5938 H 561.87 -2.94759 -2.51387 0
M  V30 5939 H 562.284 -4.98178 -1.64069 0
M  V30 5940 H 563.758 -4.45005 -3.26611 0
M  V30 5941 H 564.235 -2.76045 -3.41608 0
M  V30 5942 H 564.841 -3.72592 -2.05074 0
M  V30 5943 N 563.156 0.464375 -1.50603 0
M  V30 5944 C 564.402 1.21776 -1.62168 0
M  V30 5945 C 564.735 1.91476 -0.324154 0
M  V30 5946 O 564.01 1.8242 0.674782 0
M  V30 5947 C 564.293 2.25614 -2.80661 0
M  V30 5948 C 564.146 1.60175 -4.20314 0
M  V30 5949 C 565.465 3.26862 -2.94702 0
M  V30 5950 H 562.584 0.44137 -0.590222 0
M  V30 5951 H 565.226 0.510623 -1.8301 0
M  V30 5952 H 563.376 2.85923 -2.63021 0
M  V30 5953 H 565.048 1.03411 -4.4956 0
M  V30 5954 H 563.291 0.904697 -4.24261 0
M  V30 5955 H 563.962 2.35665 -4.99165 0
M  V30 5956 H 566.438 2.76582 -3.10872 0
M  V30 5957 H 565.314 3.96839 -3.79223 0
M  V30 5958 H 565.575 3.91382 -2.05603 0
M  V30 5959 N 564.634 1.40294 0.718013 0
M  V30 5960 C 565.564 1.43118 1.84498 0
M  V30 5961 C 566.545 0.292403 1.67568 0
M  V30 5962 O 567.73 0.500675 1.87635 0
M  V30 5963 C 564.86 1.29065 3.22427 0
M  V30 5964 C 563.814 2.40521 3.54025 0
M  V30 5965 C 563.14 2.11546 4.91073 0
M  V30 5966 C 564.44 3.82859 3.55269 0
M  V30 5967 H 566.134 2.37432 1.82391 0
M  V30 5968 H 563.68 1.14283 0.87609 0
M  V30 5969 H 565.633 1.29658 4.00957 0
M  V30 5970 H 564.357 0.312271 3.25104 0
M  V30 5971 H 563.016 2.39173 2.77834 0
M  V30 5972 H 562.664 1.12104 4.90348 0
M  V30 5973 H 562.364 2.86216 5.1318 0
M  V30 5974 H 563.888 2.13817 5.71939 0
M  V30 5975 H 565.302 3.86044 4.23843 0
M  V30 5976 H 563.699 4.57029 3.88902 0
M  V30 5977 H 564.769 4.12617 2.54706 0
M  V30 5978 N 566.112 -0.949982 1.2575 0
M  V30 5979 C 567.36 -1.6918 1.10555 0
M  V30 5980 C 567.681 -1.91773 -0.353298 0
M  V30 5981 O 566.951 -1.50814 -1.25027 0
M  V30 5982 H 565.531 -0.626952 0.406129 0
M  V30 5983 H 568.193 -1.1419 1.57945 0
M  V30 5984 H 567.289 -2.66915 1.61749 0
M  V30 5985 N 567.59 -1.07411 -1.15328 0
M  V30 5986 C 568.82 -0.817595 -1.89734 0
M  V30 5987 C 569.228 0.63297 -1.78298 0
M  V30 5988 O 568.571 1.44594 -1.13306 0
M  V30 5989 C 568.633 -1.14748 -3.40695 0
M  V30 5990 C 568.297 -2.59876 -3.75917 0
M  V30 5991 C 569.294 -3.58122 -3.76888 0
M  V30 5992 C 566.979 -2.95469 -4.06206 0
M  V30 5993 C 568.973 -4.89996 -4.07655 0
M  V30 5994 C 566.66 -4.2754 -4.36638 0
M  V30 5995 C 567.658 -5.24614 -4.37344 0
M  V30 5996 O 567.346 -6.54312 -4.67045 0
M  V30 5997 H 567.078 -0.295175 -0.608151 0
M  V30 5998 H 569.632 -1.43409 -1.47048 0
M  V30 5999 H 567.862 -0.47395 -3.83785 0
M  V30 6000 H 569.551 -0.873397 -3.96392 0
M  V30 6001 H 570.317 -3.31966 -3.53587 0
M  V30 6002 H 566.196 -2.20558 -4.04815 0
M  V30 6003 H 569.74 -5.65759 -4.08121 0
M  V30 6004 H 565.637 -4.53449 -4.59407 0
M  V30 6005 H 566.405 -6.59473 -4.84807 0
M  V30 6006 N 569.068 1.32177 -0.85831 0
M  V30 6007 C 570.001 2.26823 -0.25035 0
M  V30 6008 C 570.979 1.50571 0.61378 0
M  V30 6009 O 572.163 1.79682 0.569777 0
M  V30 6010 C 569.29 3.32472 0.646556 0
M  V30 6011 C 568.336 4.26255 -0.144675 0
M  V30 6012 S 569.169 5.13608 -1.5155 0
M  V30 6013 C 570.325 6.22778 -0.624408 0
M  V30 6014 H 570.558 2.7804 -1.05267 0
M  V30 6015 H 568.091 1.39764 -0.656152 0
M  V30 6016 H 570.049 3.93817 1.15837 0
M  V30 6017 H 568.71 2.80031 1.42272 0
M  V30 6018 H 567.903 5.01114 0.538613 0
M  V30 6019 H 567.505 3.69346 -0.588198 0
M  V30 6020 H 569.797 6.77287 0.169846 0
M  V30 6021 H 570.74 6.95233 -1.34376 0
M  V30 6022 H 571.148 5.64156 -0.197128 0
M  V30 6023 N 570.547 0.616602 1.45037 0
M  V30 6024 C 571.51 -0.0871112 2.29034 0
M  V30 6025 C 572.51 -0.786414 1.40258 0
M  V30 6026 O 573.7 -0.633207 1.62284 0
M  V30 6027 C 570.832 -1.13369 3.21497 0
M  V30 6028 H 572.025 0.651497 2.92738 0
M  V30 6029 H 569.578 0.376058 1.51709 0
M  V30 6030 H 570.313 -1.90277 2.62612 0
M  V30 6031 H 570.098 -0.636358 3.86902 0
M  V30 6032 H 571.588 -1.62627 3.84633 0
M  V30 6033 N 572.025 -1.5352 0.356285 0
M  V30 6034 C 572.935 -2.29151 -0.502712 0
M  V30 6035 C 573.951 -1.34753 -1.1008 0
M  V30 6036 O 575.127 -1.67803 -1.11374 0
M  V30 6037 C 572.192 -3.05911 -1.63154 0
M  V30 6038 C 571.253 -4.15958 -1.06194 0
M  V30 6039 C 570.486 -4.8905 -2.13696 0
M  V30 6040 O 570.709 -4.61919 -3.34645 0
M  V30 6041 O 569.643 -5.75202 -1.77275 0
M  V30 6042 H 573.469 -3.03492 0.112466 0
M  V30 6043 H 571.054 -1.4891 0.120942 0
M  V30 6044 H 572.936 -3.53874 -2.28804 0
M  V30 6045 H 571.611 -2.34415 -2.23229 0
M  V30 6046 H 570.518 -3.7227 -0.369603 0
M  V30 6047 H 571.851 -4.89593 -0.505872 0
M  V30 6048 N 573.503 -0.0852151 -1.57369 0
M  V30 6049 C 574.436 0.913608 -2.09113 0
M  V30 6050 C 575.414 1.28264 -0.999358 0
M  V30 6051 O 576.598 1.3896 -1.27367 0
M  V30 6052 C 573.725 2.21777 -2.55993 0
M  V30 6053 C 572.771 1.99932 -3.76735 0
M  V30 6054 S 573.604 1.24637 -5.20794 0
M  V30 6055 C 574.76 2.56304 -5.71016 0
M  V30 6056 H 574.993 0.473369 -2.93507 0
M  V30 6057 H 572.526 0.127856 -1.5387 0
M  V30 6058 H 574.484 2.96726 -2.83662 0
M  V30 6059 H 573.145 2.62923 -1.71843 0
M  V30 6060 H 572.338 2.96482 -4.07571 0
M  V30 6061 H 571.94 1.33116 -3.49509 0
M  V30 6062 H 574.232 3.5233 -5.78679 0
M  V30 6063 H 575.175 2.3006 -6.69685 0
M  V30 6064 H 575.583 2.64125 -4.98897 0
M  V30 6065 N 574.981 1.5647 0.188427 0
M  V30 6066 C 576.397 1.50204 0.539532 0
M  V30 6067 C 576.597 0.78644 1.85519 0
M  V30 6068 O 575.653 0.339714 2.50204 0
M  V30 6069 C 576.966 2.94893 0.588103 0
M  V30 6070 C 578.514 3.05602 0.67648 0
M  V30 6071 C 578.989 4.51716 0.756101 0
M  V30 6072 N 580.48 4.55894 0.819451 0
M  V30 6073 C 581.215 5.66272 0.90134 0
M  V30 6074 N 580.711 6.86323 0.945118 0
M  V30 6075 N 582.504 5.54201 0.939043 0
M  V30 6076 H 574.655 2.01406 -0.674493 0
M  V30 6077 H 576.918 0.916828 -0.241103 0
M  V30 6078 H 576.624 3.50334 -0.309633 0
M  V30 6079 H 576.498 3.4861 1.44051 0
M  V30 6080 H 578.885 2.50206 1.56465 0
M  V30 6081 H 578.966 2.54999 -0.202262 0
M  V30 6082 H 578.61 5.07739 -0.12774 0
M  V30 6083 H 578.54 5.00058 1.65074 0
M  V30 6084 H 581.031 3.69452 0.794594 0
M  V30 6085 H 581.344 7.66194 1.0083 0
M  V30 6086 H 579.689 6.88968 0.913683 0
M  V30 6087 H 582.88 4.59333 0.901725 0
M  V30 6088 H 583.053 6.40247 0.999402 0
M  V30 6089 N 576.459 -0.456382 1.50847 0
M  V30 6090 C 577.407 -1.57318 1.71329 0
M  V30 6091 C 578.401 -1.59187 0.579287 0
M  V30 6092 O 579.607 -1.6316 0.76018 0
M  V30 6093 H 575.982 -0.5223 0.541024 0
M  V30 6094 H 577.953 -1.3721 2.64983 0
M  V30 6095 C 576.702 -2.95142 1.83811 0
M  V30 6096 H 576.025 -2.94428 2.70467 0
M  V30 6097 H 577.465 -3.72702 2.02161 0
M  V30 6098 C 575.924 -3.31636 0.593224 0
M  V30 6099 O 576.454 -4.00852 -0.260898 0
M  V30 6100 N 574.66 -2.87205 0.442902 0
M  V30 6101 H 574.207 -2.31051 1.13901 0
M  V30 6102 H 574.165 -3.11986 -0.38884 0
M  V30 6103 N 577.937 -1.40673 -0.710563 0
M  V30 6104 C 578.847 -1.43663 -1.85467 0
M  V30 6105 C 579.863 -0.328721 -1.70867 0
M  V30 6106 O 581.039 -0.574098 -1.93044 0
M  V30 6107 C 578.104 -1.30226 -3.21313 0
M  V30 6108 C 577.165 -2.51204 -3.48131 0
M  V30 6109 C 576.398 -2.38398 -4.77495 0
M  V30 6110 O 576.621 -1.40048 -5.5294 0
M  V30 6111 O 575.555 -3.2787 -5.04762 0
M  V30 6112 H 579.381 -2.40156 -1.859 0
M  V30 6113 H 576.966 -1.22049 -0.861652 0
M  V30 6114 H 578.848 -1.2496 -4.02446 0
M  V30 6115 H 577.523 -0.368419 -3.21597 0
M  V30 6116 H 576.43 -2.62048 -2.66987 0
M  V30 6117 H 577.763 -3.43366 -3.52648 0
M  V30 6118 N 579.415 0.9433 -1.26252 0
M  V30 6119 C 580.692 1.66639 -1.02424 0
M  V30 6120 C 581.072 2.06335 0.446006 0
M  V30 6121 O 580.42 1.78551 1.42589 0
M  V30 6122 C 580.63 2.88019 -1.97094 0
M  V30 6123 C 581.978 3.59718 -2.25584 0
M  V30 6124 O 583.002 2.9812 -1.94943 0
M  V30 6125 O 581.861 4.7066 -2.77743 0
M  V30 6126 H 578.955 0.729643 -0.389294 0
M  V30 6127 H 581.501 0.995218 -1.37454 0
M  V30 6128 H 580.273 2.5556 -2.96319 0
M  V30 6129 H 579.896 3.62863 -1.62532 0
M  V30 6130 N 580.893 1.08022 1.14757 0
M  V30 6131 C 582.139 0.808705 1.85978 0
M  V30 6132 C 582.472 -0.663764 1.82504 0
M  V30 6133 O 581.747 -1.48765 1.25296 0
M  V30 6134 C 582.03 1.32623 3.34788 0
M  V30 6135 C 581.883 2.86375 3.46856 0
M  V30 6136 C 583.202 0.948291 4.29762 0
M  V30 6137 H 580.321 0.295244 0.675278 0
M  V30 6138 H 582.963 1.33917 1.34783 0
M  V30 6139 H 581.113 0.875002 3.78518 0
M  V30 6140 H 582.785 3.39839 3.11941 0
M  V30 6141 H 581.028 3.24232 2.88194 0
M  V30 6142 H 581.699 3.17658 4.51439 0
M  V30 6143 H 584.175 1.33722 3.94028 0
M  V30 6144 H 583.051 1.33765 5.32352 0
M  V30 6145 H 583.312 -0.145094 4.41862 0
M  V30 6146 N 582.371 -1.3172 0.865308 0
M  V30 6147 C 583.596 -2.01591 0.487415 0
M  V30 6148 C 584.021 -1.6455 -0.911307 0
M  V30 6149 O 583.379 -0.851689 -1.6005 0
M  V30 6150 C 583.427 -3.54759 0.646401 0
M  V30 6151 O 582.531 -4.11185 -0.316284 0
M  V30 6152 H 581.872 -0.634884 0.194468 0
M  V30 6153 H 584.402 -1.68024 1.16744 0
M  V30 6154 H 584.412 -4.04438 0.537932 0
M  V30 6155 H 583.087 -3.8106 1.66632 0
M  V30 6156 H 581.664 -3.72543 -0.163162 0
M  V30 6157 N 583.85 -0.624285 -1.44708 0
M  V30 6158 C 584.76 0.0861083 -2.34442 0
M  V30 6159 C 585.776 0.84291 -1.5222 0
M  V30 6160 O 586.952 0.796723 -1.84971 0
M  V30 6161 C 584.017 1.05999 -3.30099 0
M  V30 6162 C 583.077 0.303316 -4.28227 0
M  V30 6163 C 582.311 1.23081 -5.19314 0
M  V30 6164 O 582.534 2.46929 -5.14181 0
M  V30 6165 O 581.468 0.71883 -5.97592 0
M  V30 6166 H 585.293 -0.651756 -2.96624 0
M  V30 6167 H 582.879 -0.384493 -1.44368 0
M  V30 6168 H 584.76 1.62046 -3.88997 0
M  V30 6169 H 583.436 1.77859 -2.70459 0
M  V30 6170 H 582.343 -0.300033 -3.72895 0
M  V30 6171 H 583.676 -0.375123 -4.90768 0
M  V30 6172 N 585.328 1.53329 -0.364422 0
M  V30 6173 C 586.574 2.01537 0.225969 0
M  V30 6174 C 586.907 1.25128 1.48515 0
M  V30 6175 O 586.182 0.344653 1.91422 0
M  V30 6176 C 586.465 3.56339 0.519092 0
M  V30 6177 C 586.318 4.43441 -0.753639 0
M  V30 6178 C 587.637 4.19833 1.32015 0
M  V30 6179 H 584.756 0.732573 0.0806548 0
M  V30 6180 H 587.398 1.83597 -0.489084 0
M  V30 6181 H 585.548 3.71756 1.12825 0
M  V30 6182 H 587.22 4.39823 -1.39116 0
M  V30 6183 H 585.463 4.11457 -1.37424 0
M  V30 6184 H 586.134 5.49699 -0.503517 0
M  V30 6185 H 588.61 4.08242 0.804859 0
M  V30 6186 H 587.486 5.28177 1.49399 0
M  V30 6187 H 587.747 3.75821 2.32832 0
M  V30 6188 N 586.806 0.0935595 1.57322 0
M  V30 6189 C 587.769 -0.851426 2.12799 0
M  V30 6190 C 588.769 -1.21187 1.0569 0
M  V30 6191 O 589.959 -1.14156 1.31583 0
M  V30 6192 C 587.091 -2.14779 2.64731 0
M  V30 6193 H 588.284 -0.369733 2.97612 0
M  V30 6194 H 585.837 -0.155417 1.55525 0
M  V30 6195 H 586.572 -2.67437 1.83434 0
M  V30 6196 H 586.357 -1.89907 3.43042 0
M  V30 6197 H 587.847 -2.82383 3.07651 0
M  V30 6198 N 588.284 -1.56567 -0.180126 0
M  V30 6199 C 589.231 -1.95725 -1.22313 0
M  V30 6200 C 590.201 -0.819911 -1.44453 0
M  V30 6201 O 591.386 -1.07931 -1.57339 0
M  V30 6202 C 588.526 -2.31484 -2.55947 0
M  V30 6203 C 587.639 -3.58354 -2.4126 0
M  V30 6204 C 586.774 -3.83366 -3.67701 0
M  V30 6205 C 585.813 -5.03612 -3.47909 0
M  V30 6206 N 584.95 -5.24802 -4.66398 0
M  V30 6207 H 589.79 -2.84642 -0.882198 0
M  V30 6208 H 587.327 -1.4085 -0.42422 0
M  V30 6209 H 589.285 -2.50237 -3.33822 0
M  V30 6210 H 587.915 -1.45689 -2.88053 0
M  V30 6211 H 586.967 -3.47565 -1.54606 0
M  V30 6212 H 588.279 -4.46386 -2.22577 0
M  V30 6213 H 587.433 -4.02439 -4.54013 0
M  V30 6214 H 586.172 -2.93692 -3.89353 0
M  V30 6215 H 585.177 -4.84447 -2.59983 0
M  V30 6216 H 586.402 -5.94809 -3.27688 0
M  V30 6217 H 584.348 -4.38079 -4.88286 0
M  V30 6218 H 584.265 -6.07041 -4.50596 0
M  V30 6219 H 585.533 -5.48346 -5.54019 0
M  V30 6220 N 589.762 0.448376 -1.51087 0
M  V30 6221 C 591.039 1.20926 -1.53741 0
M  V30 6222 C 591.419 2.09025 -0.295222 0
M  V30 6223 O 590.767 2.16851 0.720283 0
M  V30 6224 C 590.977 2.02067 -2.84552 0
M  V30 6225 C 592.325 2.59486 -3.36084 0
M  V30 6226 O 593.349 2.12289 -2.86028 0
M  V30 6227 O 592.208 3.45539 -4.23397 0
M  V30 6228 H 589.302 0.549951 -0.617643 0
M  V30 6229 H 591.848 0.458344 -1.63393 0
M  V30 6230 H 590.62 1.37291 -3.66425 0
M  V30 6231 H 590.243 2.84246 -2.78011 0
M  V30 6232 N 591.24 1.41047 0.703093 0
M  V30 6233 C 592.203 1.42036 1.79884 0
M  V30 6234 C 593.203 0.312153 1.57741 0
M  V30 6235 O 594.393 0.571672 1.64553 0
M  V30 6236 C 591.525 1.22437 3.18154 0
M  V30 6237 H 592.718 2.39572 1.80403 0
M  V30 6238 H 590.271 1.27079 0.909977 0
M  V30 6239 H 591.006 0.257112 3.23279 0
M  V30 6240 H 590.791 2.02723 3.35627 0
M  V30 6241 H 592.281 1.25946 3.98155 0
M  V30 6242 N 592.718 -0.936591 1.26751 0
M  V30 6243 C 593.966 -1.67998 1.12343 0
M  V30 6244 C 594.287 -1.92137 -0.332938 0
M  V30 6245 O 593.557 -1.52132 -1.23421 0
M  V30 6246 H 592.137 -0.622609 0.412756 0
M  V30 6247 H 594.799 -1.12509 1.59147 0
M  V30 6248 H 593.895 -2.65185 1.64571 0
M  V30 6249 N 594.196 -1.08629 -1.14182 0
M  V30 6250 C 595.607 -0.838003 -1.66836 0
M  V30 6251 C 595.958 0.634885 -1.85644 0
M  V30 6252 O 595.083 1.49008 -1.56926 0
M  V30 6253 C 595.678 -1.51465 -3.03058 0
M  V30 6254 C 594.237 -1.31355 -3.52736 0
M  V30 6255 C 593.384 -1.57599 -2.28162 0
M  V30 6256 H 596.335 -1.24656 -0.982165 0
M  V30 6257 H 596.356 -0.943134 -3.68626 0
M  V30 6258 H 595.868 -2.58661 -2.89337 0
M  V30 6259 H 593.969 -0.262384 -3.71675 0
M  V30 6260 H 594.082 -2.04275 -4.33369 0
M  V30 6261 H 592.446 -0.997659 -2.34348 0
M  V30 6262 H 593.229 -2.66006 -2.17015 0
M  V30 6263 N 595.674 1.31259 -0.872281 0
M  V30 6264 C 596.899 2.0133 -0.498099 0
M  V30 6265 C 597.324 1.65031 0.902568 0
M  V30 6266 O 596.682 0.860164 1.59596 0
M  V30 6267 C 596.73 3.54411 -0.665205 0
M  V30 6268 O 595.834 4.11347 0.294473 0
M  V30 6269 H 595.175 0.633844 -0.197832 0
M  V30 6270 H 597.705 1.67402 -1.17633 0
M  V30 6271 H 597.715 4.04147 -0.559373 0
M  V30 6272 H 596.39 3.80171 -1.68651 0
M  V30 6273 H 594.967 3.72624 0.143403 0
M  V30 6274 N 597.152 0.631951 1.44375 0
M  V30 6275 C 598.082 -0.0593243 2.33425 0
M  V30 6276 C 599.063 -0.833964 1.48253 0
M  V30 6277 O 600.248 -0.799682 1.76971 0
M  V30 6278 C 597.378 -1.04096 3.31333 0
M  V30 6279 C 596.332 -0.377899 4.26328 0
M  V30 6280 C 595.658 -1.4695 5.14111 0
M  V30 6281 C 596.958 0.716371 5.17364 0
M  V30 6282 H 598.652 0.684287 2.91475 0
M  V30 6283 H 596.198 0.330518 1.40156 0
M  V30 6284 H 598.151 -1.53331 3.92514 0
M  V30 6285 H 596.875 -1.81547 2.71493 0
M  V30 6286 H 595.534 0.0938054 3.6648 0
M  V30 6287 H 595.182 -2.2349 4.50623 0
M  V30 6288 H 594.882 -1.03121 5.78481 0
M  V30 6289 H 596.406 -1.96363 5.78164 0
M  V30 6290 H 597.82 0.307089 5.72477 0
M  V30 6291 H 596.217 1.07784 5.90341 0
M  V30 6292 H 597.287 1.58316 4.58327 0
M  V30 6293 N 598.631 -1.53133 0.372548 0
M  V30 6294 C 599.561 -2.28876 -0.462412 0
M  V30 6295 C 600.542 -1.31583 -1.07796 0
M  V30 6296 O 601.727 -1.60461 -1.09389 0
M  V30 6297 C 598.857 -3.08317 -1.59868 0
M  V30 6298 C 597.811 -4.13355 -1.11003 0
M  V30 6299 C 597.137 -4.8092 -2.33708 0
M  V30 6300 C 598.437 -5.21955 -0.18983 0
M  V30 6301 H 600.131 -2.9892 0.169511 0
M  V30 6302 H 597.677 -1.43761 0.0829658 0
M  V30 6303 H 599.63 -3.60055 -2.18949 0
M  V30 6304 H 598.354 -2.35976 -2.25794 0
M  V30 6305 H 597.013 -3.62573 -0.541869 0
M  V30 6306 H 596.661 -4.05144 -2.98106 0
M  V30 6307 H 596.361 -5.51904 -2.01682 0
M  V30 6308 H 597.885 -5.35455 -2.93462 0
M  V30 6309 H 599.299 -5.69153 -0.688319 0
M  V30 6310 H 597.696 -6.00087 0.0398887 0
M  V30 6311 H 598.766 -4.78811 0.766057 0
M  V30 6312 N 600.109 -0.101901 -1.5727 0
M  V30 6313 C 601.356 0.560197 -1.94597 0
M  V30 6314 C 601.684 1.67767 -0.984101 0
M  V30 6315 O 600.939 1.95699 -0.00489193 0
M  V30 6316 C 601.238 1.14898 -3.38427 0
M  V30 6317 C 600.904 0.154613 -4.50635 0
M  V30 6318 C 599.566 -0.118861 -4.81053 0
M  V30 6319 C 601.918 -0.523979 -5.18559 0
M  V30 6320 C 599.246 -1.0775 -5.76721 0
M  V30 6321 C 601.598 -1.47114 -6.15256 0
M  V30 6322 C 600.262 -1.75278 -6.44076 0
M  V30 6323 H 599.532 0.204991 -0.712081 0
M  V30 6324 H 602.179 -0.17918 -1.9066 0
M  V30 6325 H 600.484 1.96476 -3.38976 0
M  V30 6326 H 602.181 1.66909 -3.64613 0
M  V30 6327 H 598.771 0.377948 -4.2693 0
M  V30 6328 H 602.955 -0.325851 -4.95229 0
M  V30 6329 H 598.211 -1.30263 -5.97362 0
M  V30 6330 H 602.385 -2.00274 -6.66981 0
M  V30 6331 H 600.012 -2.49717 -7.18015 0
M  V30 6332 N 601.587 1.56661 0.17182 0
M  V30 6333 C 602.836 1.81158 0.886831 0
M  V30 6334 C 603.149 0.679072 1.83434 0
M  V30 6335 O 604.355 0.808964 2.59168 0
M  V30 6336 C 602.811 3.20999 1.6275 0
M  V30 6337 C 602.419 4.42117 0.723652 0
M  V30 6338 C 604.163 3.5479 2.33076 0
M  V30 6339 C 602.07 5.7298 1.46452 0
M  V30 6340 H 601 0.675543 0.334899 0
M  V30 6341 H 603.651 1.82967 0.139765 0
M  V30 6342 H 602.033 3.13506 2.4193 0
M  V30 6343 H 603.207 4.60789 -0.0311485 0
M  V30 6344 H 601.522 4.16197 0.130063 0
M  V30 6345 H 604.119 4.49806 2.89099 0
M  V30 6346 H 604.462 2.79646 3.08389 0
M  V30 6347 H 604.995 3.63834 1.6084 0
M  V30 6348 H 601.734 6.51152 0.753729 0
M  V30 6349 H 601.254 5.58285 2.19266 0
M  V30 6350 H 602.933 6.14916 2.01214 0
M  V30 6351 N 603.065 -0.440357 1.51323 0
M  V30 6352 C 604.293 -1.21255 1.67645 0
M  V30 6353 C 604.708 -1.85088 0.37252 0
M  V30 6354 O 604.065 -1.70582 -0.648683 0
M  V30 6355 C 604.116 -2.29881 2.78993 0
M  V30 6356 O 603.837 -1.68659 4.04334 0
M  V30 6357 C 605.338 -3.20214 3.06558 0
M  V30 6358 H 602.558 -0.36558 0.562666 0
M  V30 6359 H 605.102 -0.52214 1.97722 0
M  V30 6360 H 603.257 -2.94643 2.51524 0
M  V30 6361 H 603.671 -2.40426 4.6615 0
M  V30 6362 H 605.145 -3.92575 3.88058 0
M  V30 6363 H 605.622 -3.80794 2.18844 0
M  V30 6364 H 606.228 -2.61156 3.35675 0
M  V30 6365 N 604.543 -1.41418 -0.695603 0
M  V30 6366 C 605.773 -1.43921 -1.48224 0
M  V30 6367 C 606.181 -0.0428855 -1.89151 0
M  V30 6368 O 605.524 0.948138 -1.5734 0
M  V30 6369 C 605.586 -2.28466 -2.77567 0
M  V30 6370 C 605.25 -3.76629 -2.58844 0
M  V30 6371 C 606.247 -4.6879 -2.24793 0
M  V30 6372 C 603.932 -4.2067 -2.74485 0
M  V30 6373 C 605.926 -6.02981 -2.06622 0
M  V30 6374 C 603.613 -5.54926 -2.55931 0
M  V30 6375 C 604.611 -6.45897 -2.2205 0
M  V30 6376 O 604.299 -7.77675 -2.03657 0
M  V30 6377 H 604.031 -0.492252 -0.463318 0
M  V30 6378 H 606.585 -1.86347 -0.863952 0
M  V30 6379 H 604.815 -1.80853 -3.41802 0
M  V30 6380 H 606.504 -2.2267 -3.39371 0
M  V30 6381 H 607.27 -4.36055 -2.12323 0
M  V30 6382 H 603.149 -3.50167 -2.9984 0
M  V30 6383 H 606.693 -6.73951 -1.80099 0
M  V30 6384 H 602.59 -5.8724 -2.67991 0
M  V30 6385 H 603.358 -7.88819 -2.1842 0
M  V30 6386 N 606.021 0.929856 -1.27246 0
M  V30 6387 C 606.984 2.01172 -1.09829 0
M  V30 6388 C 607.984 1.60743 -0.0429687 0
M  V30 6389 O 609.174 1.71813 -0.287373 0
M  V30 6390 C 606.306 3.34191 -0.673003 0
M  V30 6391 H 607.499 2.18054 -2.05895 0
M  V30 6392 H 605.052 1.11036 -1.10003 0
M  V30 6393 H 605.787 3.23009 0.289134 0
M  V30 6394 H 605.572 3.64892 -1.43515 0
M  V30 6395 H 607.062 4.13646 -0.573323 0
M  V30 6396 N 607.499 1.09233 1.13605 0
M  V30 6397 C 608.409 0.741939 2.22559 0
M  V30 6398 C 609.425 -0.255236 1.72118 0
M  V30 6399 O 610.601 -0.0970747 2.01166 0
M  V30 6400 C 607.666 0.165595 3.46304 0
M  V30 6401 C 606.727 1.21846 4.11645 0
M  V30 6402 C 605.96 0.669526 5.29484 0
M  V30 6403 O 606.183 -0.508228 5.68131 0
M  V30 6404 O 605.117 1.42361 5.84822 0
M  V30 6405 H 608.943 1.65107 2.54899 0
M  V30 6406 H 606.528 0.866584 1.21699 0
M  V30 6407 H 608.41 -0.152592 4.21124 0
M  V30 6408 H 607.085 -0.716573 3.15669 0
M  V30 6409 H 605.992 1.58931 3.38662 0
M  V30 6410 H 607.325 2.07321 4.46407 0
M  V30 6411 N 608.977 -1.30795 0.87923 0
M  V30 6412 C 609.94 -2.26563 0.346676 0
M  V30 6413 C 610.94 -1.52578 -0.507597 0
M  V30 6414 O 612.13 -1.71318 -0.315575 0
M  V30 6415 C 609.262 -3.37115 -0.506611 0
M  V30 6416 H 610.455 -2.75183 1.19223 0
M  V30 6417 H 608.008 -1.41886 0.655598 0
M  V30 6418 H 608.743 -2.93802 -1.37299 0
M  V30 6419 H 608.528 -3.91959 0.105218 0
M  V30 6420 H 610.018 -4.08412 -0.871192 0
M  V30 6421 N 610.455 -0.639598 -1.44038 0
M  V30 6422 C 611.704 -0.144885 -2.01179 0
M  V30 6423 C 612.017 1.24372 -1.50967 0
M  V30 6424 O 613.223 1.83291 -2.00292 0
M  V30 6425 C 611.679 -0.208244 -3.59297 0
M  V30 6426 C 611.287 -1.59869 -4.18504 0
M  V30 6427 C 613.031 0.229568 -4.23879 0
M  V30 6428 C 610.938 -1.61671 -5.68873 0
M  V30 6429 H 609.868 -0.0504005 -0.752314 0
M  V30 6430 H 612.519 -0.799639 -1.65161 0
M  V30 6431 H 610.901 0.513767 -3.92653 0
M  V30 6432 H 612.075 -2.34496 -3.96671 0
M  V30 6433 H 610.39 -1.98131 -3.66242 0
M  V30 6434 H 612.987 0.235758 -5.3418 0
M  V30 6435 H 613.33 1.25848 -3.96822 0
M  V30 6436 H 613.863 -0.440233 -3.95357 0
M  V30 6437 H 610.602 -2.62427 -6.00677 0
M  V30 6438 H 610.122 -0.913489 -5.92803 0
M  V30 6439 H 611.801 -1.35439 -6.32665 0
M  V30 6440 N 611.933 1.52934 -0.380664 0
M  V30 6441 C 612.896 2.24809 0.446473 0
M  V30 6442 C 613.896 1.26133 0.997347 0
M  V30 6443 O 615.086 1.50297 0.880714 0
M  V30 6444 C 612.218 2.99649 1.62553 0
M  V30 6445 H 613.411 2.99343 -0.182677 0
M  V30 6446 H 610.964 1.55736 -0.132618 0
M  V30 6447 H 611.699 2.29395 2.29235 0
M  V30 6448 H 611.484 3.72066 1.23732 0
M  V30 6449 H 612.974 3.54246 2.21133 0
M  V30 6450 N 613.412 0.11024 1.57214 0
M  V30 6451 C 614.36 -0.860586 2.16094 0
M  V30 6452 C 615.354 -1.28156 1.1078 0
M  V30 6453 O 616.56 -1.25433 1.29099 0
M  V30 6454 H 612.935 -0.295606 0.691463 0
M  V30 6455 H 614.906 -0.33942 2.96463 0
M  V30 6456 C 613.655 -2.10421 2.768 0
M  V30 6457 H 612.978 -1.7892 3.5753 0
M  V30 6458 H 614.418 -2.76375 3.21547 0
M  V30 6459 C 612.877 -2.88823 1.73444 0
M  V30 6460 O 613.407 -3.839 1.18251 0
M  V30 6461 N 611.613 -2.52649 1.43586 0
M  V30 6462 H 611.16 -1.754 1.8866 0
M  V30 6463 H 611.118 -3.05403 0.746735 0
M  V30 6464 N 614.89 -1.56749 -0.16351 0
M  V30 6465 C 615.823 -1.9213 -1.23132 0
M  V30 6466 C 616.801 -0.785047 -1.42393 0
M  V30 6467 O 617.985 -1.0391 -1.57273 0
M  V30 6468 C 615.112 -2.17901 -2.59301 0
M  V30 6469 C 614.158 -3.40576 -2.5673 0
M  V30 6470 S 614.991 -4.94689 -2.05045 0
M  V30 6471 C 616.147 -5.23564 -3.42975 0
M  V30 6472 H 616.38 -2.824 -0.929383 0
M  V30 6473 H 613.913 -1.4994 -0.368418 0
M  V30 6474 H 615.871 -2.33429 -3.3767 0
M  V30 6475 H 614.532 -1.28324 -2.86691 0
M  V30 6476 H 613.725 -3.55833 -3.5693 0
M  V30 6477 H 613.327 -3.24204 -1.86462 0
M  V30 6478 H 615.619 -5.16019 -4.3901 0
M  V30 6479 H 616.562 -6.25134 -3.32586 0
M  V30 6480 H 616.97 -4.51113 -3.39348 0
M  V30 6481 N 616.368 0.432326 -1.51554 0
M  V30 6482 C 617.779 1.01202 -1.56892 0
M  V30 6483 C 618.13 1.92175 -0.395394 0
M  V30 6484 O 617.255 2.10844 0.487198 0
M  V30 6485 C 617.85 1.84217 -2.8434 0
M  V30 6486 C 616.409 2.37228 -2.92233 0
M  V30 6487 C 615.556 1.16576 -2.51606 0
M  V30 6488 H 618.507 0.213407 -1.57259 0
M  V30 6489 H 618.528 2.69721 -2.68385 0
M  V30 6490 H 618.04 1.17979 -3.69733 0
M  V30 6491 H 616.141 3.06905 -2.11282 0
M  V30 6492 H 616.254 2.69682 -3.95991 0
M  V30 6493 H 614.618 1.51263 -2.04919 0
M  V30 6494 H 615.401 0.519404 -3.39348 0
M  V30 6495 N 617.846 1.41785 0.688094 0
M  V30 6496 C 618.809 1.43936 1.78368 0
M  V30 6497 C 619.809 0.328866 1.57401 0
M  V30 6498 O 620.999 0.589093 1.63937 0
M  V30 6499 C 618.131 1.25804 3.16838 0
M  V30 6500 H 619.324 2.41472 1.77852 0
M  V30 6501 H 616.877 1.28037 0.896448 0
M  V30 6502 H 617.612 0.291386 3.22988 0
M  V30 6503 H 617.397 2.06272 3.33458 0
M  V30 6504 H 618.887 1.30162 3.96797 0
M  V30 6505 N 619.324 -0.923095 1.27737 0
M  V30 6506 C 620.549 -1.71054 1.17283 0
M  V30 6507 C 620.974 -1.86208 -0.266153 0
M  V30 6508 O 620.332 -1.36545 -1.1927 0
M  V30 6509 C 620.38 -3.0854 1.86642 0
M  V30 6510 O 619.484 -3.95528 1.16752 0
M  V30 6511 H 618.825 -0.524136 0.407649 0
M  V30 6512 H 621.355 -1.15487 1.6889 0
M  V30 6513 H 621.365 -3.58828 1.94182 0
M  V30 6514 H 620.04 -2.96828 2.91317 0
M  V30 6515 H 618.617 -3.53967 1.17312 0
M  V30 6516 N 620.802 -1.09834 -1.13024 0
M  V30 6517 C 622.03 -0.858902 -1.8823 0
M  V30 6518 C 622.445 0.590164 -1.79339 0
M  V30 6519 O 621.802 1.4065 -1.16292 0
M  V30 6520 C 621.853 -1.29066 -3.37675 0
M  V30 6521 O 621.574 -2.6829 -3.46341 0
M  V30 6522 C 623.075 -1.08421 -4.29837 0
M  V30 6523 H 620.295 -0.308713 -0.595766 0
M  V30 6524 H 622.839 -1.4614 -1.4305 0
M  V30 6525 H 620.994 -0.731961 -3.80422 0
M  V30 6526 H 621.408 -2.86598 -4.39274 0
M  V30 6527 H 622.882 -1.43553 -5.33007 0
M  V30 6528 H 623.359 -0.0223315 -4.39194 0
M  V30 6529 H 623.965 -1.62907 -3.92863 0
M  V30 6530 N 622.28 1.30327 -0.886154 0
M  V30 6531 C 623.527 1.96097 -0.505192 0
M  V30 6532 C 623.855 1.69952 0.945868 0
M  V30 6533 O 623.11 0.997653 1.68361 0
M  V30 6534 C 623.409 3.49906 -0.728042 0
M  V30 6535 C 623.075 3.96103 -2.15437 0
M  V30 6536 C 621.737 4.08428 -2.5444 0
M  V30 6537 C 624.089 4.20177 -3.08384 0
M  V30 6538 C 621.417 4.42189 -3.85598 0
M  V30 6539 C 623.769 4.55407 -4.39075 0
M  V30 6540 C 622.433 4.65941 -4.7797 0
M  V30 6541 H 621.703 0.71757 -0.184863 0
M  V30 6542 H 624.35 1.55171 -1.12223 0
M  V30 6543 H 622.655 3.9179 -0.027978 0
M  V30 6544 H 624.352 3.98869 -0.412862 0
M  V30 6545 H 620.942 3.87017 -1.84162 0
M  V30 6546 H 625.126 4.10134 -2.7947 0
M  V30 6547 H 620.382 4.48544 -4.15473 0
M  V30 6548 H 624.556 4.72986 -5.11133 0
M  V30 6549 H 622.183 4.91856 -5.79639 0
M  V30 6550 N 623.758 0.647228 1.43697 0
M  V30 6551 C 625.005 0.158188 2.01881 0
M  V30 6552 C 625.333 -1.22573 1.51017 0
M  V30 6553 O 624.588 -1.83086 0.69122 0
M  V30 6554 C 624.887 0.111481 3.57226 0
M  V30 6555 C 624.553 1.43633 4.27411 0
M  V30 6556 C 623.215 1.79915 4.463 0
M  V30 6557 C 625.567 2.31011 4.67208 0
M  V30 6558 C 622.895 3.03251 5.02251 0
M  V30 6559 C 625.247 3.53633 5.24525 0
M  V30 6560 C 623.911 3.90118 5.41631 0
M  V30 6561 H 623.181 0.0578851 0.738736 0
M  V30 6562 H 625.828 0.836746 1.72252 0
M  V30 6563 H 624.133 -0.650507 3.86362 0
M  V30 6564 H 625.83 -0.283682 3.99995 0
M  V30 6565 H 622.42 1.14403 4.1305 0
M  V30 6566 H 626.604 2.04272 4.52313 0
M  V30 6567 H 621.86 3.31575 5.13681 0
M  V30 6568 H 626.034 4.21561 5.5431 0
M  V30 6569 H 623.661 4.85768 5.84751 0
M  V30 6570 N 625.236 -1.5273 0.388769 0
M  V30 6571 C 626.199 -2.25043 -0.434544 0
M  V30 6572 C 627.199 -1.26661 -0.990644 0
M  V30 6573 O 628.389 -1.50762 -0.872731 0
M  V30 6574 C 625.521 -3.00507 -1.60961 0
M  V30 6575 H 626.714 -2.99242 0.198549 0
M  V30 6576 H 624.267 -1.55664 0.140875 0
M  V30 6577 H 625.002 -2.30607 -2.28015 0
M  V30 6578 H 624.787 -3.72716 -1.21757 0
M  V30 6579 H 626.277 -3.55413 -2.19251 0
M  V30 6580 N 626.714 -0.118576 -1.57153 0
M  V30 6581 C 627.963 0.539339 -1.94355 0
M  V30 6582 C 628.276 1.67858 -1.00415 0
M  V30 6583 O 629.482 2.39922 -1.27081 0
M  V30 6584 C 627.938 1.01082 -3.45414 0
M  V30 6585 C 627.546 -0.0999402 -4.47889 0
M  V30 6586 C 629.29 1.64013 -3.91535 0
M  V30 6587 C 627.197 0.388212 -5.90124 0
M  V30 6588 H 626.127 0.205247 -0.725527 0
M  V30 6589 H 628.778 -0.19836 -1.82425 0
M  V30 6590 H 627.16 1.80292 -3.52577 0
M  V30 6591 H 628.334 -0.876189 -4.52393 0
M  V30 6592 H 626.649 -0.635885 -4.11516 0
M  V30 6593 H 629.246 2.01649 -4.95219 0
M  V30 6594 H 629.589 2.51836 -3.31488 0
M  V30 6595 H 630.122 0.913439 -3.87171 0
M  V30 6596 H 626.861 -0.453963 -6.53926 0
M  V30 6597 H 626.381 1.13095 -5.89041 0
M  V30 6598 H 628.06 0.849574 -6.41398 0
M  V30 6599 N 628.193 1.56834 0.155195 0
M  V30 6600 C 629.442 1.82088 0.867567 0
M  V30 6601 C 629.755 0.69849 1.82703 0
M  V30 6602 O 630.961 0.836407 2.58295 0
M  V30 6603 C 629.417 3.22707 1.59336 0
M  V30 6604 C 629.025 4.42859 0.676719 0
M  V30 6605 C 630.769 3.57242 2.293 0
M  V30 6606 C 628.676 5.74501 1.40367 0
M  V30 6607 H 627.606 0.679057 0.327715 0
M  V30 6608 H 630.257 1.83105 0.120351 0
M  V30 6609 H 628.639 3.16054 2.38591 0
M  V30 6610 H 629.813 4.60731 -0.0800196 0
M  V30 6611 H 628.128 4.16311 0.0859129 0
M  V30 6612 H 630.725 4.52847 2.84312 0
M  V30 6613 H 631.068 2.82901 3.05406 0
M  V30 6614 H 631.601 3.6552 1.56972 0
M  V30 6615 H 628.34 6.51915 0.684623 0
M  V30 6616 H 627.86 5.60579 2.13332 0
M  V30 6617 H 629.539 6.17016 1.94681 0
M  V30 6618 N 629.671 -0.424282 1.51781 0
M  V30 6619 C 630.918 -1.1726 1.65095 0
M  V30 6620 C 631.246 -1.90881 0.373477 0
M  V30 6621 O 630.501 -1.84835 -0.642997 0
M  V30 6622 C 630.8 -2.20418 2.81337 0
M  V30 6623 C 630.466 -1.63715 4.20129 0
M  V30 6624 C 629.128 -1.47975 4.57883 0
M  V30 6625 C 631.48 -1.22157 5.06682 0
M  V30 6626 C 628.808 -0.891703 5.79884 0
M  V30 6627 C 631.16 -0.647767 6.29275 0
M  V30 6628 C 629.824 -0.477371 6.65791 0
M  V30 6629 H 629.094 -0.429085 0.604125 0
M  V30 6630 H 631.741 -0.461852 1.85847 0
M  V30 6631 H 630.046 -2.97581 2.54859 0
M  V30 6632 H 631.743 -2.78163 2.88836 0
M  V30 6633 H 628.333 -1.76946 3.90369 0
M  V30 6634 H 632.517 -1.33133 4.7811 0
M  V30 6635 H 627.773 -0.747563 6.06813 0
M  V30 6636 H 631.947 -0.317291 6.95677 0
M  V30 6637 H 629.574 -0.0195936 7.60197 0
M  V30 6638 N 631.149 -1.42148 -0.680565 0
M  V30 6639 C 632.396 -1.4231 -1.44063 0
M  V30 6640 C 632.724 -0.037488 -1.94464 0
M  V30 6641 O 631.979 0.953184 -1.70918 0
M  V30 6642 C 632.278 -2.38945 -2.65782 0
M  V30 6643 C 631.944 -3.85455 -2.33956 0
M  V30 6644 C 630.606 -4.25364 -2.24987 0
M  V30 6645 C 632.958 -4.77895 -2.08004 0
M  V30 6646 C 630.286 -5.55701 -1.88184 0
M  V30 6647 C 632.638 -6.08568 -1.72706 0
M  V30 6648 C 631.302 -6.47482 -1.62244 0
M  V30 6649 H 630.572 -0.520748 -0.527164 0
M  V30 6650 H 633.219 -1.7505 -0.776524 0
M  V30 6651 H 631.524 -1.99511 -3.37198 0
M  V30 6652 H 633.221 -2.36336 -3.23954 0
M  V30 6653 H 629.811 -3.53855 -2.41836 0
M  V30 6654 H 633.995 -4.47854 -2.1387 0
M  V30 6655 H 629.251 -5.84718 -1.78648 0
M  V30 6656 H 633.425 -6.79688 -1.5165 0
M  V30 6657 H 631.052 -7.48387 -1.33496 0
M  V30 6658 N 632.627 0.916307 -1.28225 0
M  V30 6659 C 633.557 2.0352 -1.14464 0
M  V30 6660 C 634.538 1.70045 -0.0430844 0
M  V30 6661 O 635.723 1.92954 -0.219619 0
M  V30 6662 C 632.853 3.37889 -0.803027 0
M  V30 6663 C 631.807 3.85516 -1.85908 0
M  V30 6664 C 631.133 5.1682 -1.37116 0
M  V30 6665 C 632.433 4.07655 -3.26519 0
M  V30 6666 H 634.127 2.1529 -2.08064 0
M  V30 6667 H 631.673 1.03446 -1.00174 0
M  V30 6668 H 633.626 4.15654 -0.693537 0
M  V30 6669 H 632.35 3.26164 0.168674 0
M  V30 6670 H 631.009 3.09953 -1.95767 0
M  V30 6671 H 630.657 5.01497 -0.38859 0
M  V30 6672 H 630.357 5.49657 -2.07728 0
M  V30 6673 H 631.881 5.97143 -1.27484 0
M  V30 6674 H 633.295 4.75953 -3.19596 0
M  V30 6675 H 631.692 4.51818 -3.94943 0
M  V30 6676 H 632.762 3.12553 -3.70727 0
M  V30 6677 N 634.105 1.10431 1.1244 0
M  V30 6678 C 635.038 0.696987 2.17296 0
M  V30 6679 C 636.016 -0.301673 1.59777 0
M  V30 6680 O 637.2 -0.200583 1.8743 0
M  V30 6681 C 634.327 0.0284094 3.38688 0
M  V30 6682 C 633.373 0.990536 4.14838 0
M  V30 6683 S 634.206 2.50785 4.73146 0
M  V30 6684 C 635.362 1.85198 5.97873 0
M  V30 6685 H 635.595 1.58523 2.51511 0
M  V30 6686 H 633.128 0.921312 1.239 0
M  V30 6687 H 635.086 -0.351009 4.08997 0
M  V30 6688 H 633.747 -0.836629 3.02753 0
M  V30 6689 H 632.94 0.469991 5.01804 0
M  V30 6690 H 632.542 1.31186 3.50237 0
M  V30 6691 H 634.834 1.18217 6.67106 0
M  V30 6692 H 635.777 2.7012 6.54554 0
M  V30 6693 H 636.185 1.31653 5.48933 0
M  V30 6694 N 635.583 -1.29855 0.893053 0
M  V30 6695 C 636.513 -2.3035 0.382249 0
M  V30 6696 C 637.494 -1.61328 -0.539203 0
M  V30 6697 O 638.679 -1.88882 -0.451342 0
M  V30 6698 C 635.809 -3.45024 -0.396983 0
M  V30 6699 C 634.763 -4.258 0.433437 0
M  V30 6700 C 634.089 -5.32605 -0.472889 0
M  V30 6701 C 635.389 -4.94549 1.67984 0
M  V30 6702 H 637.083 -2.73325 1.22205 0
M  V30 6703 H 634.629 -1.314 0.589073 0
M  V30 6704 H 636.582 -4.14398 -0.765024 0
M  V30 6705 H 635.306 -3.00875 -1.2705 0
M  V30 6706 H 633.965 -3.58125 0.783723 0
M  V30 6707 H 633.613 -4.84702 -1.34435 0
M  V30 6708 H 633.313 -5.87547 0.0789958 0
M  V30 6709 H 634.837 -6.04832 -0.837269 0
M  V30 6710 H 636.251 -5.56395 1.38192 0
M  V30 6711 H 634.648 -5.59393 2.17254 0
M  V30 6712 H 635.718 -4.20215 2.41965 0
M  V30 6713 N 637.061 -0.65484 -1.43351 0
M  V30 6714 C 638.31 -0.166215 -2.01014 0
M  V30 6715 C 638.623 1.22764 -1.52278 0
M  V30 6716 O 639.829 1.81156 -2.02224 0
M  V30 6717 C 638.285 -0.246341 -3.59056 0
M  V30 6718 C 637.893 -1.64299 -4.16785 0
M  V30 6719 C 639.637 0.184597 -4.24098 0
M  V30 6720 C 637.544 -1.67695 -5.67126 0
M  V30 6721 H 636.474 -0.0583769 -0.751737 0
M  V30 6722 H 639.125 -0.817111 -1.64303 0
M  V30 6723 H 637.507 0.472092 -3.93176 0
M  V30 6724 H 638.681 -2.3869 -3.94162 0
M  V30 6725 H 636.996 -2.02004 -3.6412 0
M  V30 6726 H 639.593 0.179088 -5.344 0
M  V30 6727 H 639.936 1.21632 -3.98135 0
M  V30 6728 H 640.469 -0.482141 -3.94867 0
M  V30 6729 H 637.208 -2.68783 -5.9786 0
M  V30 6730 H 636.728 -0.976313 -5.91801 0
M  V30 6731 H 638.407 -1.42142 -6.31193 0
M  V30 6732 N 638.539 1.52521 -0.396863 0
M  V30 6733 C 639.767 2.06091 0.18275 0
M  V30 6734 C 640.182 1.26796 1.39886 0
M  V30 6735 O 639.539 0.316585 1.79733 0
M  V30 6736 C 639.59 3.57362 0.545377 0
M  V30 6737 O 639.311 4.33656 -0.622428 0
M  V30 6738 C 640.812 4.27305 1.18004 0
M  V30 6739 H 638.032 0.670504 0.025789 0
M  V30 6740 H 640.576 1.96561 -0.564276 0
M  V30 6741 H 638.731 3.66941 1.2423 0
M  V30 6742 H 639.145 5.23507 -0.322662 0
M  V30 6743 H 640.619 5.34366 1.38408 0
M  V30 6744 H 641.096 3.83 2.1496 0
M  V30 6745 H 641.702 4.22064 0.523671 0
M  V30 6746 N 640.017 0.126909 1.57088 0
M  V30 6747 C 640.947 -0.816847 2.18746 0
M  V30 6748 C 641.928 -1.27161 1.12979 0
M  V30 6749 O 643.113 -1.33279 1.41246 0
M  V30 6750 C 640.243 -2.06398 2.79315 0
M  V30 6751 C 639.197 -1.74673 3.90735 0
M  V30 6752 C 638.523 -3.06482 4.38147 0
M  V30 6753 C 639.823 -1.0089 5.12463 0
M  V30 6754 H 641.517 -0.303032 2.97863 0
M  V30 6755 H 639.063 -0.144314 1.43275 0
M  V30 6756 H 641.016 -2.72885 3.2111 0
M  V30 6757 H 639.74 -2.60118 1.975 0
M  V30 6758 H 638.399 -1.10572 3.49527 0
M  V30 6759 H 638.047 -3.58152 3.5318 0
M  V30 6760 H 637.747 -2.86025 5.13287 0
M  V30 6761 H 639.271 -3.74073 4.82599 0
M  V30 6762 H 640.685 -1.57546 5.51228 0
M  V30 6763 H 639.082 -0.905006 5.93237 0
M  V30 6764 H 640.152 0.00297335 4.849 0
M  V30 6765 N 641.495 -1.56914 -0.146875 0
M  V30 6766 C 642.743 -1.82994 -0.85777 0
M  V30 6767 C 643.064 -0.707814 -1.817 0
M  V30 6768 O 642.334 0.270521 -1.94023 0
M  V30 6769 H 640.914 -0.675106 -0.319751 0
M  V30 6770 H 643.576 -1.9439 -0.140849 0
M  V30 6771 H 642.672 -2.77928 -1.41994 0
M  V30 6772 N 642.974 0.416227 -1.52004 0
M  V30 6773 C 643.904 1.51365 -1.77795 0
M  V30 6774 C 644.885 1.58059 -0.628601 0
M  V30 6775 O 646.07 1.73447 -0.873478 0
M  V30 6776 C 643.2 2.89256 -1.92219 0
M  V30 6777 C 642.154 2.97415 -3.0778 0
M  V30 6778 C 641.48 4.37492 -3.07417 0
M  V30 6779 C 642.78 2.69551 -4.47369 0
M  V30 6780 H 644.474 1.30033 -2.69688 0
M  V30 6781 H 642.02 0.624112 -1.29772 0
M  V30 6782 H 643.973 3.66008 -2.08845 0
M  V30 6783 H 642.697 3.11866 -0.969917 0
M  V30 6784 H 641.356 2.23107 -2.90893 0
M  V30 6785 H 641.004 4.571 -2.09925 0
M  V30 6786 H 640.704 4.43877 -3.85029 0
M  V30 6787 H 642.228 5.16188 -3.26162 0
M  V30 6788 H 643.642 3.36028 -4.64497 0
M  V30 6789 H 642.039 2.87321 -5.26846 0
M  V30 6790 H 643.109 1.65029 -4.55953 0
M  V30 6791 N 644.452 1.42507 0.673017 0
M  V30 6792 C 645.729 1.33554 1.42908 0
M  V30 6793 C 646.109 -0.0262211 2.11084 0
M  V30 6794 O 645.457 -1.04181 2.03368 0
M  V30 6795 C 645.667 2.50498 2.43006 0
M  V30 6796 C 647.015 2.92694 3.07596 0
M  V30 6797 O 648.039 2.50401 2.53333 0
M  V30 6798 O 646.898 3.65899 4.05931 0
M  V30 6799 H 643.992 0.526785 0.637516 0
M  V30 6800 H 646.538 1.54518 0.701591 0
M  V30 6801 H 645.31 3.41272 1.9144 0
M  V30 6802 H 644.933 2.3153 3.23233 0
M  V30 6803 N 645.93 -0.909495 1.28709 0
M  V30 6804 C 647.155 -1.69801 1.1909 0
M  V30 6805 C 647.58 -1.86479 -0.246388 0
M  V30 6806 O 646.938 -1.37802 -1.17815 0
M  V30 6807 C 646.986 -3.06543 1.89904 0
M  V30 6808 O 646.09 -3.94268 1.2094 0
M  V30 6809 H 645.431 -0.519783 0.413185 0
M  V30 6810 H 647.961 -1.13689 1.70106 0
M  V30 6811 H 647.971 -3.56748 1.97977 0
M  V30 6812 H 646.646 -2.93722 2.94449 0
M  V30 6813 H 645.223 -3.52702 1.2106 0
M  V30 6814 N 647.408 -1.11026 -1.11852 0
M  V30 6815 C 648.636 -0.878818 -1.87308 0
M  V30 6816 C 649.051 0.57111 -1.79955 0
M  V30 6817 O 648.408 1.39409 -1.17777 0
M  V30 6818 C 648.459 -1.3264 -3.36287 0
M  V30 6819 O 648.18 -2.71948 -3.43476 0
M  V30 6820 C 649.681 -1.12974 -4.28663 0
M  V30 6821 H 646.901 -0.315015 -0.592458 0
M  V30 6822 H 649.445 -1.47649 -1.41492 0
M  V30 6823 H 647.6 -0.772269 -3.79625 0
M  V30 6824 H 648.014 -2.91241 -4.3621 0
M  V30 6825 H 649.488 -1.49198 -5.31454 0
M  V30 6826 H 649.965 -0.0689127 -4.39146 0
M  V30 6827 H 650.571 -1.67064 -3.91113 0
M  V30 6828 N 648.886 1.2938 -0.899927 0
M  V30 6829 C 650.133 1.9555 -0.525963 0
M  V30 6830 C 650.461 1.70945 0.927789 0
M  V30 6831 O 649.716 1.01545 1.67293 0
M  V30 6832 C 650.015 3.49114 -0.765113 0
M  V30 6833 C 649.681 3.93796 -2.19626 0
M  V30 6834 C 648.343 4.05707 -2.58758 0
M  V30 6835 C 650.695 4.16883 -3.12823 0
M  V30 6836 C 648.023 4.38074 -3.90267 0
M  V30 6837 C 650.375 4.50725 -4.4388 0
M  V30 6838 C 649.039 4.60845 -4.82885 0
M  V30 6839 H 648.309 0.715569 -0.192463 0
M  V30 6840 H 650.956 1.53972 -1.13863 0
M  V30 6841 H 649.261 3.91738 -0.069531 0
M  V30 6842 H 650.958 3.98409 -0.455144 0
M  V30 6843 H 647.548 3.85042 -1.88256 0
M  V30 6844 H 651.732 4.07147 -2.83804 0
M  V30 6845 H 646.988 4.44112 -4.20207 0
M  V30 6846 H 651.162 4.67538 -5.16121 0
M  V30 6847 H 648.789 4.85681 -5.84823 0
M  V30 6848 N 650.364 0.662433 1.43002 0
M  V30 6849 C 651.327 -0.0142016 2.29196 0
M  V30 6850 C 652.327 -0.741394 1.42688 0
M  V30 6851 O 653.517 -0.581257 1.64216 0
M  V30 6852 C 650.649 -1.03084 3.24941 0
M  V30 6853 H 651.842 0.7443 2.90517 0
M  V30 6854 H 649.395 0.424133 1.50435 0
M  V30 6855 H 650.13 -1.81826 2.68533 0
M  V30 6856 H 649.915 -0.512946 3.8873 0
M  V30 6857 H 651.405 -1.50308 3.89612 0
M  V30 6858 N 651.842 -1.52309 0.404946 0
M  V30 6859 C 653.09 -2.01368 -0.17186 0
M  V30 6860 C 653.411 -1.29261 -1.46002 0
M  V30 6861 O 652.681 -0.41729 -1.91404 0
M  V30 6862 H 651.261 -0.744034 -0.0664993 0
M  V30 6863 H 653.923 -1.87263 0.540228 0
M  V30 6864 H 653.019 -3.09888 -0.370957 0
M  V30 6865 N 653.32 -0.135238 -1.57019 0
M  V30 6866 C 654.25 0.805235 -2.19176 0
M  V30 6867 C 655.231 1.2656 -1.13651 0
M  V30 6868 O 656.416 1.32528 -1.4195 0
M  V30 6869 C 653.546 2.04914 -2.80406 0
M  V30 6870 C 652.5 1.72598 -3.91655 0
M  V30 6871 C 651.826 3.04154 -4.39766 0
M  V30 6872 C 653.126 0.981709 -5.12991 0
M  V30 6873 H 654.82 0.287232 -2.98019 0
M  V30 6874 H 652.366 0.136714 -1.4335 0
M  V30 6875 H 654.319 2.71178 -3.22553 0
M  V30 6876 H 653.043 2.59067 -1.98877 0
M  V30 6877 H 651.702 1.08717 -3.50109 0
M  V30 6878 H 651.35 3.56274 -3.55075 0
M  V30 6879 H 651.05 2.83299 -5.14796 0
M  V30 6880 H 652.574 3.71509 -4.84576 0
M  V30 6881 H 653.988 1.5462 -5.52056 0
M  V30 6882 H 652.385 0.873533 -5.93708 0
M  V30 6883 H 653.455 -0.0286887 -4.84892 0
M  V30 6884 N 654.798 1.5699 0.138552 0
M  V30 6885 C 655.708 2.02174 1.19008 0
M  V30 6886 C 656.724 0.938622 1.46512 0
M  V30 6887 O 657.9 1.24872 1.58016 0
M  V30 6888 C 654.965 2.40045 2.50159 0
M  V30 6889 C 654.026 3.62346 2.30226 0
M  V30 6890 C 653.259 3.98401 3.55123 0
M  V30 6891 O 653.482 3.35019 4.61647 0
M  V30 6892 O 652.416 4.91606 3.47285 0
M  V30 6893 H 656.242 2.91954 0.836452 0
M  V30 6894 H 653.827 1.45293 0.347907 0
M  V30 6895 H 655.709 2.65225 3.27465 0
M  V30 6896 H 654.384 1.53417 2.85035 0
M  V30 6897 H 653.291 3.42341 1.50843 0
M  V30 6898 H 654.624 4.49617 2.00262 0
M  V30 6899 N 656.276 -0.40816 1.52223 0
M  V30 6900 C 657.524 -1.15274 1.66001 0
M  V30 6901 C 657.845 -1.91003 0.392803 0
M  V30 6902 O 657.115 -1.8673 -0.592336 0
M  V30 6903 H 655.695 -0.428526 0.611861 0
M  V30 6904 H 658.357 -0.46512 1.89269 0
M  V30 6905 H 657.453 -1.86628 2.50153 0
M  V30 6906 N 657.755 -1.42862 -0.66545 0
M  V30 6907 C 659.001 -1.44043 -1.42757 0
M  V30 6908 C 659.334 -0.0599629 -1.94107 0
M  V30 6909 O 658.609 0.917286 -1.71511 0
M  V30 6910 C 658.892 -2.47266 -2.61786 0
M  V30 6911 C 658.745 -3.94539 -2.16007 0
M  V30 6912 C 660.064 -2.47365 -3.64003 0
M  V30 6913 H 657.183 -0.524506 -0.517748 0
M  V30 6914 H 659.825 -1.74335 -0.755466 0
M  V30 6915 H 657.975 -2.21565 -3.19126 0
M  V30 6916 H 659.647 -4.31254 -1.63762 0
M  V30 6917 H 657.89 -4.07957 -1.47491 0
M  V30 6918 H 658.561 -4.62357 -3.01546 0
M  V30 6919 H 661.037 -2.70243 -3.16399 0
M  V30 6920 H 659.913 -3.21552 -4.44854 0
M  V30 6921 H 660.174 -1.50299 -4.15767 0
M  V30 6922 N 659.233 0.902656 -1.29189 0
M  V30 6923 C 660.482 1.6475 -1.16362 0
M  V30 6924 C 660.795 1.93517 0.284682 0
M  V30 6925 O 662.001 2.66192 0.534229 0
M  V30 6926 C 660.457 2.96848 -2.03493 0
M  V30 6927 C 660.065 2.75687 -3.5313 0
M  V30 6928 C 661.809 3.74762 -1.99383 0
M  V30 6929 C 659.716 4.03492 -4.32375 0
M  V30 6930 H 658.646 0.618041 -0.431904 0
M  V30 6931 H 661.297 1.0008 -1.53806 0
M  V30 6932 H 659.679 3.62715 -1.58916 0
M  V30 6933 H 660.853 2.18431 -4.05739 0
M  V30 6934 H 659.168 2.11171 -3.58881 0
M  V30 6935 H 661.765 4.69515 -2.5585 0
M  V30 6936 H 662.108 4.04767 -0.973123 0
M  V30 6937 H 662.641 3.15732 -2.41988 0
M  V30 6938 H 659.38 3.78656 -5.3507 0
M  V30 6939 H 658.9 4.60318 -3.84535 0
M  V30 6940 H 660.579 4.71662 -4.42881 0
M  V30 6941 N 660.711 1.11618 1.11262 0
M  V30 6942 C 661.939 0.888739 1.8684 0
M  V30 6943 C 662.354 -0.561558 1.80255 0
M  V30 6944 O 661.711 -1.38782 1.18515 0
M  V30 6945 C 661.762 1.34422 3.35579 0
M  V30 6946 O 661.483 2.73766 3.42029 0
M  V30 6947 C 662.984 1.15246 4.28058 0
M  V30 6948 H 660.204 0.318152 0.590779 0
M  V30 6949 H 662.748 1.48398 1.40707 0
M  V30 6950 H 660.903 0.79239 3.7921 0
M  V30 6951 H 661.317 2.9355 4.34659 0
M  V30 6952 H 662.791 1.52015 5.30656 0
M  V30 6953 H 663.268 0.0922007 4.39103 0
M  V30 6954 H 663.874 1.69136 3.90222 0
M  V30 6955 N 662.189 -1.289 0.906776 0
M  V30 6956 C 663.152 -2.25777 0.394656 0
M  V30 6957 C 664.152 -1.53621 -0.475119 0
M  V30 6958 O 665.342 -1.71949 -0.279165 0
M  V30 6959 C 662.474 -3.38113 -0.43499 0
M  V30 6960 H 663.667 -2.72592 1.25033 0
M  V30 6961 H 661.22 -1.40463 0.685547 0
M  V30 6962 H 661.955 -2.96648 -1.31036 0
M  V30 6963 H 661.74 -3.91647 0.188334 0
M  V30 6964 H 663.23 -4.10168 -0.784365 0
M  V30 6965 N 663.667 -0.670007 -1.42649 0
M  V30 6966 C 664.913 -0.190568 -2.01903 0
M  V30 6967 C 665.246 1.19817 -1.52832 0
M  V30 6968 O 664.521 1.80342 -0.728485 0
M  V30 6969 C 664.804 -0.21991 -3.59428 0
M  V30 6970 C 664.657 -1.64376 -4.18689 0
M  V30 6971 C 665.976 0.434519 -4.3795 0
M  V30 6972 H 663.095 -0.0707219 -0.733599 0
M  V30 6973 H 665.737 -0.853883 -1.69732 0
M  V30 6974 H 663.887 0.344894 -3.86966 0
M  V30 6975 H 665.559 -2.26044 -4.02122 0
M  V30 6976 H 663.802 -2.18591 -3.747 0
M  V30 6977 H 664.473 -1.61601 -5.27815 0
M  V30 6978 H 666.949 -0.0462156 -4.16074 0
M  V30 6979 H 665.825 0.38333 -5.4756 0
M  V30 6980 H 666.086 1.51135 -4.15464 0
M  V30 6981 N 665.145 1.52092 -0.413018 0
M  V30 6982 C 666.075 2.30021 0.401567 0
M  V30 6983 C 667.056 1.34395 1.04269 0
M  V30 6984 O 668.241 1.63304 1.05097 0
M  V30 6985 C 665.371 3.12447 1.51638 0
M  V30 6986 C 664.325 4.16153 1.00005 0
M  V30 6987 C 663.651 4.86948 2.20875 0
M  V30 6988 C 664.951 5.22275 0.0513757 0
M  V30 6989 H 666.645 2.98365 -0.248704 0
M  V30 6990 H 664.191 1.4349 -0.121052 0
M  V30 6991 H 666.144 3.65733 2.09326 0
M  V30 6992 H 664.868 2.41879 2.19458 0
M  V30 6993 H 663.527 3.63882 0.445549 0
M  V30 6994 H 663.175 4.12905 2.8726 0
M  V30 6995 H 662.875 5.57057 1.86978 0
M  V30 6996 H 664.399 5.43048 2.79162 0
M  V30 6997 H 665.813 5.70778 0.537176 0
M  V30 6998 H 664.21 5.9977 -0.198977 0
M  V30 6999 H 665.28 4.76611 -0.892736 0
M  V30 7000 N 666.623 0.143563 1.56945 0
M  V30 7001 C 667.9 -0.553285 1.87612 0
M  V30 7002 C 668.28 -1.83195 1.04894 0
M  V30 7003 O 667.628 -2.28102 0.134773 0
M  V30 7004 C 667.838 -0.822055 3.3918 0
M  V30 7005 C 669.186 -1.16435 4.08324 0
M  V30 7006 O 670.21 -0.911522 3.4434 0
M  V30 7007 O 669.069 -1.63996 5.21313 0
M  V30 7008 H 666.163 -0.281851 0.777489 0
M  V30 7009 H 668.709 0.179916 1.68744 0
M  V30 7010 H 667.481 0.0830265 3.91212 0
M  V30 7011 H 667.104 -1.60956 3.63564 0
M  V30 7012 N 668.101 -1.57061 -0.130224 0
M  V30 7013 C 669.011 -2.02802 -1.17934 0
M  V30 7014 C 670.027 -0.946378 -1.46013 0
M  V30 7015 O 671.203 -1.25708 -1.57351 0
M  V30 7016 C 668.268 -2.41368 -2.48882 0
M  V30 7017 C 667.329 -3.63561 -2.28301 0
M  V30 7018 C 666.562 -4.00279 -3.53005 0
M  V30 7019 O 666.785 -3.37463 -4.59864 0
M  V30 7020 O 665.719 -4.93441 -3.44673 0
M  V30 7021 H 669.545 -2.92394 -0.820958 0
M  V30 7022 H 667.13 -1.45475 -0.340197 0
M  V30 7023 H 669.012 -2.66958 -3.26054 0
M  V30 7024 H 667.687 -1.54926 -2.84217 0
M  V30 7025 H 666.594 -3.43136 -1.49025 0
M  V30 7026 H 667.927 -4.50673 -1.97875 0
M  V30 7027 N 669.579 0.400081 -1.52437 0
M  V30 7028 C 670.826 1.14619 -1.6694 0
M  V30 7029 C 671.154 1.90262 -0.403797 0
M  V30 7030 O 670.409 1.85835 0.61351 0
M  V30 7031 C 670.708 2.15914 -2.84808 0
M  V30 7032 C 670.374 1.57011 -4.2268 0
M  V30 7033 C 669.036 1.40672 -4.60179 0
M  V30 7034 C 671.388 1.14081 -5.08562 0
M  V30 7035 C 668.716 0.799335 -5.81229 0
M  V30 7036 C 671.068 0.547573 -6.30226 0
M  V30 7037 C 669.732 0.371389 -6.66466 0
M  V30 7038 H 669.002 0.419419 -0.610875 0
M  V30 7039 H 671.649 0.432227 -1.86558 0
M  V30 7040 H 669.954 2.93488 -2.59561 0
M  V30 7041 H 671.651 2.73533 -2.93225 0
M  V30 7042 H 668.241 1.70713 -3.93135 0
M  V30 7043 H 672.425 1.2551 -4.80168 0
M  V30 7044 H 667.681 0.65093 -6.07925 0
M  V30 7045 H 671.855 0.206575 -6.96094 0
M  V30 7046 H 669.482 -0.10135 -7.60132 0
M  V30 7047 N 671.057 1.43213 0.657864 0
M  V30 7048 C 672.468 1.39669 1.23893 0
M  V30 7049 C 672.819 0.0984217 1.95953 0
M  V30 7050 O 671.944 -0.8023 2.00978 0
M  V30 7051 C 672.539 2.53004 2.25332 0
M  V30 7052 C 671.098 2.5274 2.78926 0
M  V30 7053 C 670.245 2.30941 1.53497 0
M  V30 7054 H 673.196 1.52181 0.450172 0
M  V30 7055 H 673.217 2.24226 3.07413 0
M  V30 7056 H 672.729 3.4748 1.72856 0
M  V30 7057 H 670.83 1.6213 3.35477 0
M  V30 7058 H 670.943 3.50352 3.26787 0
M  V30 7059 H 669.307 1.7952 1.80678 0
M  V30 7060 H 670.09 3.27496 1.02963 0
M  V30 7061 N 672.536 -0.895792 1.29666 0
M  V30 7062 C 673.486 -1.98736 1.1175 0
M  V30 7063 C 674.47 -1.6086 0.0357834 0
M  V30 7064 O 675.662 -1.75111 0.257926 0
M  V30 7065 C 672.791 -3.33845 0.800156 0
M  V30 7066 C 671.877 -3.78068 1.9216 0
M  V30 7067 N 672.268 -3.94489 3.16563 0
M  V30 7068 C 670.566 -4.07376 1.81552 0
M  V30 7069 C 671.267 -4.31819 3.89753 0
M  V30 7070 N 670.243 -4.41081 3.17724 0
M  V30 7071 H 674.045 -2.09507 2.06117 0
M  V30 7072 H 671.559 -1.08488 1.20848 0
M  V30 7073 H 673.556 -4.11757 0.652841 0
M  V30 7074 H 672.216 -3.24417 -0.135551 0
M  V30 7075 H 673.227 -3.79914 3.51974 0
M  V30 7076 H 669.904 -4.06483 0.952787 0
M  V30 7077 H 671.294 -4.52337 4.96831 0
M  V30 7078 N 674.014 -1.12206 -1.10668 0
M  V30 7079 C 675.26 -0.877172 -1.82848 0
M  V30 7080 C 675.593 0.595571 -1.84842 0
M  V30 7081 O 674.868 1.44013 -1.30731 0
M  V30 7082 C 675.151 -1.44957 -3.29635 0
M  V30 7083 C 675.004 -2.99051 -3.35989 0
M  V30 7084 C 676.323 -1.10714 -4.25946 0
M  V30 7085 H 673.442 -0.320103 -0.663854 0
M  V30 7086 H 676.084 -1.38827 -1.2972 0
M  V30 7087 H 674.234 -1.01488 -3.7501 0
M  V30 7088 H 675.906 -3.51182 -2.99113 0
M  V30 7089 H 674.149 -3.34705 -2.75962 0
M  V30 7090 H 674.82 -3.34194 -4.39339 0
M  V30 7091 H 677.296 -1.48254 -3.88793 0
M  V30 7092 H 676.172 -1.5343 -5.2702 0
M  V30 7093 H 676.433 -0.019 -4.42096 0
M  V30 7094 N 675.492 1.28418 -0.913599 0
M  V30 7095 C 676.738 1.95627 -0.556933 0
M  V30 7096 C 677.093 1.706 0.889565 0
M  V30 7097 O 676.386 1.01637 1.6242 0
M  V30 7098 C 676.58 3.48283 -0.802099 0
M  V30 7099 C 676.409 3.88151 -2.27088 0
M  V30 7100 C 675.179 4.1232 -2.92096 0
M  V30 7101 C 677.377 3.98819 -3.24728 0
M  V30 7102 N 675.359 4.3886 -4.29272 0
M  V30 7103 C 676.73 4.29571 -4.47067 0
M  V30 7104 C 678.785 3.81342 -3.20129 0
M  V30 7105 C 677.488 4.44667 -5.65388 0
M  V30 7106 C 679.514 3.97656 -4.37749 0
M  V30 7107 C 678.876 4.2878 -5.58862 0
M  V30 7108 H 674.975 0.739715 -0.253664 0
M  V30 7109 H 677.559 1.55074 -1.1773 0
M  V30 7110 H 675.73 3.87826 -0.211007 0
M  V30 7111 H 677.462 4.02623 -0.409478 0
M  V30 7112 H 674.217 4.06611 -2.42826 0
M  V30 7113 H 674.641 4.56214 -5.00198 0
M  V30 7114 H 679.283 3.56331 -2.2757 0
M  V30 7115 H 677.001 4.68509 -6.58426 0
M  V30 7116 H 680.587 3.85569 -4.35692 0
M  V30 7117 H 679.467 4.41136 -6.48359 0
M  V30 7118 N 676.97 0.677563 1.42291 0
M  V30 7119 C 677.933 0.0101085 2.29198 0
M  V30 7120 C 678.933 -0.726219 1.43467 0
M  V30 7121 O 680.123 -0.563807 1.64824 0
M  V30 7122 C 677.255 -0.996316 3.26016 0
M  V30 7123 H 678.448 0.775071 2.89711 0
M  V30 7124 H 676.001 0.440065 1.49977 0
M  V30 7125 H 676.736 -1.78967 2.70446 0
M  V30 7126 H 676.521 -0.471687 3.89253 0
M  V30 7127 H 678.011 -1.46167 3.91184 0
M  V30 7128 N 678.448 -1.51871 0.421078 0
M  V30 7129 C 679.395 -2.27334 -0.398508 0
M  V30 7130 C 680.365 -1.30241 -1.03085 0
M  V30 7131 O 681.55 -1.59121 -1.05285 0
M  V30 7132 C 678.69 -3.10664 -1.50272 0
M  V30 7133 C 677.803 -4.2273 -0.890122 0
M  V30 7134 C 676.938 -4.93399 -1.96803 0
M  V30 7135 C 675.977 -5.97409 -1.333 0
M  V30 7136 N 675.114 -6.61548 -2.35156 0
M  V30 7137 H 679.954 -2.96938 0.251411 0
M  V30 7138 H 677.491 -1.46472 0.135825 0
M  V30 7139 H 679.449 -3.57292 -2.15403 0
M  V30 7140 H 678.079 -2.43207 -2.1225 0
M  V30 7141 H 677.131 -3.80186 -0.127537 0
M  V30 7142 H 678.443 -4.97302 -0.386349 0
M  V30 7143 H 677.597 -5.43491 -2.69633 0
M  V30 7144 H 676.336 -4.18421 -2.50549 0
M  V30 7145 H 675.341 -5.46624 -0.59008 0
M  V30 7146 H 676.566 -6.74335 -0.803076 0
M  V30 7147 H 674.512 -5.89394 -2.88012 0
M  V30 7148 H 674.429 -7.31832 -1.89624 0
M  V30 7149 H 675.697 -7.16276 -3.0752 0
M  V30 7150 N 679.926 -0.151884 -1.56866 0
M  V30 7151 C 681.342 0.204486 -1.58285 0
M  V30 7152 C 681.542 1.6431 -1.16639 0
M  V30 7153 O 680.598 2.37077 -0.868946 0
M  V30 7154 C 681.911 -0.0587019 -3.00643 0
M  V30 7155 C 683.459 0.00462303 -3.13 0
M  V30 7156 C 683.934 -0.231297 -4.57416 0
M  V30 7157 N 685.425 -0.178394 -4.62856 0
M  V30 7158 C 686.16 -0.335379 -5.72418 0
M  V30 7159 N 685.656 -0.550355 -6.90611 0
M  V30 7160 N 687.449 -0.272641 -5.61438 0
M  V30 7161 H 679.6 -1.09116 -1.82229 0
M  V30 7162 H 681.863 -0.432311 -0.843689 0
M  V30 7163 H 681.569 -1.05453 -3.35518 0
M  V30 7164 H 681.443 0.658508 -3.71407 0
M  V30 7165 H 683.83 0.991009 -2.77962 0
M  V30 7166 H 683.911 -0.744992 -2.44711 0
M  V30 7167 H 683.555 -1.2148 -4.93158 0
M  V30 7168 H 683.485 0.5387 -5.23837 0
M  V30 7169 H 685.976 -0.0170923 -3.77896 0
M  V30 7170 H 686.289 -0.660116 -7.69976 0
M  V30 7171 H 684.634 -0.586736 -6.92519 0
M  V30 7172 H 687.825 -0.105421 -4.67981 0
M  V30 7173 H 687.998 -0.398418 -6.46774 0
M  V30 7174 N 681.404 1.57128 0.121893 0
M  V30 7175 C 682.82 1.52357 0.47534 0
M  V30 7176 C 683.02 0.864417 1.82017 0
M  V30 7177 O 682.076 0.445529 2.48538 0
M  V30 7178 C 683.389 2.97122 0.4625 0
M  V30 7179 C 684.937 3.08196 0.546255 0
M  V30 7180 C 685.412 4.54516 0.563833 0
M  V30 7181 N 686.903 4.58959 0.625353 0
M  V30 7182 C 687.638 5.69585 0.660354 0
M  V30 7183 N 687.134 6.89714 0.653175 0
M  V30 7184 N 688.927 5.57685 0.703143 0
M  V30 7185 H 681.078 1.98364 -0.75931 0
M  V30 7186 H 683.341 0.905777 -0.279772 0
M  V30 7187 H 683.047 3.48706 -0.457943 0
M  V30 7188 H 682.921 3.54406 1.29136 0
M  V30 7189 H 685.308 2.56617 1.45712 0
M  V30 7190 H 685.389 2.53912 -0.310234 0
M  V30 7191 H 685.033 5.06741 -0.342974 0
M  V30 7192 H 684.963 5.06609 1.43716 0
M  V30 7193 H 687.454 3.72489 0.637182 0
M  V30 7194 H 687.767 7.69781 0.682425 0
M  V30 7195 H 686.112 6.92223 0.620646 0
M  V30 7196 H 689.303 4.62744 0.706095 0
M  V30 7197 H 689.476 6.43909 0.726952 0
M  V30 7198 N 682.882 -0.391992 1.52647 0
M  V30 7199 C 683.792 -1.503 1.80131 0
M  V30 7200 C 684.808 -1.59825 0.687882 0
M  V30 7201 O 685.984 -1.76218 0.975149 0
M  V30 7202 C 683.049 -2.85863 1.96171 0
M  V30 7203 C 682.11 -2.86084 3.20085 0
M  V30 7204 C 681.343 -4.15181 3.35351 0
M  V30 7205 O 681.566 -5.09981 2.55491 0
M  V30 7206 O 680.5 -4.22603 4.28591 0
M  V30 7207 H 684.326 -1.30007 2.74466 0
M  V30 7208 H 681.911 -0.579539 1.37701 0
M  V30 7209 H 683.793 -3.66236 2.08445 0
M  V30 7210 H 682.468 -3.06189 1.05025 0
M  V30 7211 H 681.375 -2.04504 3.13256 0
M  V30 7212 H 682.708 -2.7071 4.11068 0
M  V30 7213 N 684.36 -1.4356 -0.65026 0
M  V30 7214 C 685.776 -1.27025 -0.966269 0
M  V30 7215 C 685.976 -0.192117 -2.00582 0
M  V30 7216 O 685.032 0.428459 -2.48838 0
M  V30 7217 C 686.345 -2.63556 -1.44772 0
M  V30 7218 C 687.893 -2.71111 -1.56421 0
M  V30 7219 C 688.368 -4.08067 -2.07956 0
M  V30 7220 N 689.859 -4.10146 -2.15254 0
M  V30 7221 C 690.594 -5.12952 -2.56258 0
M  V30 7222 N 690.09 -6.26129 -2.96537 0
M  V30 7223 N 691.883 -5.00306 -2.56224 0
M  V30 7224 H 684.034 -2.12367 0.0375758 0
M  V30 7225 H 686.297 -0.946894 -0.0457782 0
M  V30 7226 H 686.003 -3.43429 -0.758271 0
M  V30 7227 H 685.877 -2.89152 -2.42221 0
M  V30 7228 H 688.264 -1.91569 -2.24467 0
M  V30 7229 H 688.345 -2.49277 -0.573967 0
M  V30 7230 H 687.989 -4.88077 -1.40511 0
M  V30 7231 H 687.919 -4.27266 -3.07817 0
M  V30 7232 H 690.41 -3.28453 -1.86887 0
M  V30 7233 H 690.723 -7.00403 -3.26582 0
M  V30 7234 H 689.068 -6.29597 -2.94334 0
M  V30 7235 H 692.259 -4.10952 -2.24135 0
M  V30 7236 H 692.432 -5.80553 -2.87857 0
M  V30 7237 N 685.838 0.888903 -1.30139 0
M  V30 7238 C 687.085 1.64037 -1.18736 0
M  V30 7239 C 687.413 1.92771 0.258801 0
M  V30 7240 O 686.668 1.54427 1.20212 0
M  V30 7241 C 686.967 2.99041 -1.95728 0
M  V30 7242 C 686.633 2.89874 -3.45375 0
M  V30 7243 C 685.295 2.87082 -3.86183 0
M  V30 7244 C 687.647 2.78289 -4.40687 0
M  V30 7245 C 684.975 2.70536 -5.20603 0
M  V30 7246 C 687.327 2.63282 -5.75209 0
M  V30 7247 C 685.991 2.58861 -6.15262 0
M  V30 7248 H 685.261 0.600253 -0.434485 0
M  V30 7249 H 687.908 1.0338 -1.61198 0
M  V30 7250 H 686.213 3.63626 -1.45888 0
M  V30 7251 H 687.91 3.56139 -1.843 0
M  V30 7252 H 684.5 2.92856 -3.12943 0
M  V30 7253 H 688.684 2.79516 -4.10103 0
M  V30 7254 H 683.94 2.65526 -5.50732 0
M  V30 7255 H 688.114 2.5329 -6.48704 0
M  V30 7256 H 685.741 2.45799 -7.19366 0
M  V30 7257 N 687.317 1.12792 1.10072 0
M  V30 7258 C 688.563 0.886857 1.82381 0
M  V30 7259 C 688.896 -0.58576 1.85155 0
M  V30 7260 O 688.171 -1.43317 1.31493 0
M  V30 7261 C 688.454 1.46703 3.28862 0
M  V30 7262 C 688.307 3.00829 3.34398 0
M  V30 7263 C 689.626 1.12971 4.25353 0
M  V30 7264 H 686.745 0.32362 0.662148 0
M  V30 7265 H 689.387 1.39513 1.28982 0
M  V30 7266 H 687.537 1.03476 3.74466 0
M  V30 7267 H 689.209 3.52764 2.97247 0
M  V30 7268 H 687.452 3.36164 2.74183 0
M  V30 7269 H 688.123 3.36519 4.3756 0
M  V30 7270 H 690.599 1.50313 3.88001 0
M  V30 7271 H 689.475 1.56223 5.26199 0
M  V30 7272 H 689.736 0.0424452 4.4208 0
M  V30 7273 N 688.795 -1.27931 0.920396 0
M  V30 7274 C 689.725 -2.29487 0.431024 0
M  V30 7275 C 690.706 -1.62435 -0.504861 0
M  V30 7276 O 691.891 -1.89797 -0.411176 0
M  V30 7277 C 689.021 -3.45788 -0.323709 0
M  V30 7278 C 687.975 -4.24784 0.523658 0
M  V30 7279 C 687.301 -5.33488 -0.359809 0
M  V30 7280 C 688.601 -4.90874 1.78437 0
M  V30 7281 H 690.295 -2.70671 1.27975 0
M  V30 7282 H 687.841 -1.30121 0.616813 0
M  V30 7283 H 689.794 -4.15927 -0.676952 0
M  V30 7284 H 688.518 -3.03502 -1.2064 0
M  V30 7285 H 687.177 -3.56382 0.85951 0
M  V30 7286 H 686.825 -4.87445 -1.24124 0
M  V30 7287 H 686.525 -5.87247 0.203605 0
M  V30 7288 H 688.049 -6.06472 -0.708787 0
M  V30 7289 H 689.463 -5.53339 1.49963 0
M  V30 7290 H 687.86 -5.54659 2.29071 0
M  V30 7291 H 688.93 -4.14988 2.50824 0
M  V30 7292 N 690.273 -0.685099 -1.4193 0
M  V30 7293 C 691.236 -0.0222632 -2.29189 0
M  V30 7294 C 692.236 0.7186 -1.4385 0
M  V30 7295 O 693.426 0.555058 -1.6512 0
M  V30 7296 C 690.558 0.979013 -3.2654 0
M  V30 7297 H 691.751 -0.790424 -2.89296 0
M  V30 7298 H 689.304 -0.448012 -1.49742 0
M  V30 7299 H 690.039 1.77531 -2.71392 0
M  V30 7300 H 689.824 0.451037 -3.89497 0
M  V30 7301 H 691.314 1.44091 -3.91954 0
M  V30 7302 N 691.751 1.51645 -0.429126 0
M  V30 7303 C 692.997 2.02314 0.140286 0
M  V30 7304 C 693.33 1.31314 1.43074 0
M  V30 7305 O 692.605 0.425531 1.89788 0
M  V30 7306 C 692.888 3.5822 0.36749 0
M  V30 7307 C 692.741 4.39846 -0.941039 0
M  V30 7308 C 694.06 4.25055 1.14089 0
M  V30 7309 H 691.179 0.735335 0.0495112 0
M  V30 7310 H 693.821 1.81358 -0.566514 0
M  V30 7311 H 691.971 3.76207 0.969556 0
M  V30 7312 H 693.643 4.33527 -1.57646 0
M  V30 7313 H 691.886 4.05259 -1.54751 0
M  V30 7314 H 692.557 5.47069 -0.73621 0
M  V30 7315 H 695.033 4.11288 0.630986 0
M  V30 7316 H 693.909 5.34038 1.26863 0
M  V30 7317 H 694.17 3.85358 2.16683 0
M  V30 7318 N 693.229 0.160201 1.56784 0
M  V30 7319 C 694.475 -0.48831 1.96833 0
M  V30 7320 C 694.808 -1.63641 1.04571 0
M  V30 7321 O 694.083 -1.94289 0.0906481 0
M  V30 7322 C 694.366 -0.981908 3.46454 0
M  V30 7323 C 694.219 0.165607 4.49495 0
M  V30 7324 C 695.538 -1.85931 3.98896 0
M  V30 7325 H 692.657 -0.176027 0.71567 0
M  V30 7326 H 695.299 0.244093 1.88426 0
M  V30 7327 H 693.449 -1.60602 3.5375 0
M  V30 7328 H 695.121 0.802372 4.54268 0
M  V30 7329 H 693.364 0.822789 4.25926 0
M  V30 7330 H 694.035 -0.221699 5.51555 0
M  V30 7331 H 696.511 -1.33327 3.94161 0
M  V30 7332 H 695.387 -2.17373 5.04024 0
M  V30 7333 H 695.648 -2.80106 3.42042 0
M  V30 7334 N 694.707 -1.5719 -0.113559 0
M  V30 7335 C 695.956 -1.84325 -0.818984 0
M  V30 7336 C 696.269 -0.746685 -1.80787 0
M  V30 7337 O 697.475 -0.904596 -2.55987 0
M  V30 7338 C 695.931 -3.26818 -1.50724 0
M  V30 7339 C 695.539 -4.44498 -0.559065 0
M  V30 7340 C 697.283 -3.63196 -2.19748 0
M  V30 7341 C 695.19 -5.7802 -1.25086 0
M  V30 7342 H 694.12 -0.687507 -0.309596 0
M  V30 7343 H 696.771 -1.8336 -0.0717621 0
M  V30 7344 H 695.153 -3.22269 -2.30128 0
M  V30 7345 H 696.327 -4.60356 0.202146 0
M  V30 7346 H 694.642 -4.16393 0.024495 0
M  V30 7347 H 697.239 -4.60226 -2.72206 0
M  V30 7348 H 697.582 -2.90899 -2.97798 0
M  V30 7349 H 698.115 -3.69553 -1.47226 0
M  V30 7350 H 694.854 -6.53501 -0.511539 0
M  V30 7351 H 694.374 -5.66038 -1.98395 0
M  V30 7352 H 696.053 -6.2196 -1.78253 0
M  V30 7353 N 696.185 0.383891 -1.52853 0
M  V30 7354 C 697.413 1.1495 -1.7203 0
M  V30 7355 C 697.828 1.83578 -0.440957 0
M  V30 7356 O 697.185 1.72872 0.584925 0
M  V30 7357 C 697.236 2.19368 -2.87333 0
M  V30 7358 O 696.957 1.53536 -4.10315 0
M  V30 7359 C 698.458 3.08616 -3.18231 0
M  V30 7360 H 695.678 0.344445 -0.575846 0
M  V30 7361 H 698.222 0.448397 -1.99524 0
M  V30 7362 H 696.377 2.85105 -2.62286 0
M  V30 7363 H 696.791 2.2296 -4.74752 0
M  V30 7364 H 698.265 3.77902 -4.02361 0
M  V30 7365 H 698.742 3.72409 -2.32826 0
M  V30 7366 H 699.348 2.48518 -3.45136 0
M  V30 7367 N 697.663 1.43903 0.642637 0
M  V30 7368 C 698.903 1.47591 1.41408 0
M  V30 7369 C 699.267 0.101313 1.91733 0
M  V30 7370 O 700.468 0.0128797 2.68797 0
M  V30 7371 C 698.739 2.4977 2.55636 0
M  V30 7372 S 700.298 2.72417 3.43998 0
M  V30 7373 H 697.116 0.522163 0.482563 0
M  V30 7374 H 699.718 1.80745 0.745085 0
M  V30 7375 H 698.422 3.48365 2.16956 0
M  V30 7376 H 697.953 2.1815 3.27375 0
M  V30 7377 H 699.968 2.03142 4.52712 0
M  V30 7378 N 699.141 -0.881989 1.30609 0
M  V30 7379 C 700.388 -1.63405 1.19604 0
M  V30 7380 C 700.716 -1.92905 -0.248574 0
M  V30 7381 O 699.971 -1.55062 -1.19391 0
M  V30 7382 C 700.27 -2.97999 1.97311 0
M  V30 7383 C 699.936 -2.88039 3.46907 0
M  V30 7384 C 698.598 -2.85029 3.877 0
M  V30 7385 C 700.95 -2.75948 4.42156 0
M  V30 7386 C 698.278 -2.67772 5.2203 0
M  V30 7387 C 700.63 -2.60228 5.76597 0
M  V30 7388 C 699.294 -2.55595 6.16626 0
M  V30 7389 H 698.564 -0.597941 0.437662 0
M  V30 7390 H 701.211 -1.02524 1.61744 0
M  V30 7391 H 699.516 -3.62847 1.47815 0
M  V30 7392 H 701.213 -3.55156 1.86186 0
M  V30 7393 H 697.803 -2.91192 3.14492 0
M  V30 7394 H 701.987 -2.77337 4.1158 0
M  V30 7395 H 697.243 -2.62601 5.52133 0
M  V30 7396 H 701.417 -2.49847 6.50038 0
M  V30 7397 H 699.044 -2.41981 7.20659 0
M  V30 7398 N 700.619 -1.13374 -1.09472 0
M  V30 7399 C 701.866 -0.89519 -1.81639 0
M  V30 7400 C 702.194 0.57868 -1.85692 0
M  V30 7401 O 701.449 1.44426 -1.32059 0
M  V30 7402 C 701.748 -1.42759 -3.2765 0
M  V30 7403 C 701.414 -2.91822 -3.43731 0
M  V30 7404 C 700.076 -3.32521 -3.47827 0
M  V30 7405 C 702.428 -3.87727 -3.48307 0
M  V30 7406 C 699.756 -4.6781 -3.54078 0
M  V30 7407 C 702.108 -5.22859 -3.56091 0
M  V30 7408 C 700.772 -5.63086 -3.58456 0
M  V30 7409 H 700.042 -0.327573 -0.664663 0
M  V30 7410 H 702.689 -1.4156 -1.28969 0
M  V30 7411 H 700.994 -0.827871 -3.82954 0
M  V30 7412 H 702.691 -1.2191 -3.8202 0
M  V30 7413 H 699.281 -2.5935 -3.41226 0
M  V30 7414 H 703.465 -3.57371 -3.44383 0
M  V30 7415 H 698.721 -4.98353 -3.54195 0
M  V30 7416 H 702.895 -5.96989 -3.58577 0
M  V30 7417 H 700.522 -6.67905 -3.63052 0
M  V30 7418 N 702.098 1.27442 -0.927168 0
M  V30 7419 C 703.346 1.94007 -0.566203 0
M  V30 7420 C 703.667 1.7323 0.895345 0
M  V30 7421 O 702.937 1.07973 1.63459 0
M  V30 7422 H 701.517 0.717917 -0.206409 0
M  V30 7423 H 704.179 1.55161 -1.17945 0
M  V30 7424 H 703.275 3.02401 -0.772028 0
M  V30 7425 N 703.576 0.692616 1.41565 0
M  V30 7426 C 704.801 0.229776 2.06123 0
M  V30 7427 C 705.226 -1.11119 1.5177 0
M  V30 7428 O 704.584 -1.69498 0.643444 0
M  V30 7429 C 704.632 0.19469 3.60074 0
M  V30 7430 O 703.736 -0.831366 4.03933 0
M  V30 7431 H 703.077 0.113002 0.654314 0
M  V30 7432 H 705.607 0.946645 1.81383 0
M  V30 7433 H 705.617 0.0245487 4.07993 0
M  V30 7434 H 704.292 1.17339 3.99004 0
M  V30 7435 H 702.869 -0.630819 3.67526 0
M  V30 7436 N 705.054 -1.51416 0.437162 0
M  V30 7437 C 705.984 -2.30631 -0.364922 0
M  V30 7438 C 706.965 -1.36037 -1.02118 0
M  V30 7439 O 708.15 -1.64956 -1.02485 0
M  V30 7440 C 705.28 -3.1482 -1.46648 0
M  V30 7441 C 704.234 -4.17691 -0.933717 0
M  V30 7442 C 703.56 -4.904 -2.13101 0
M  V30 7443 C 704.86 -5.2229 0.0317201 0
M  V30 7444 H 706.554 -2.97932 0.29614 0
M  V30 7445 H 704.1 -1.4328 0.143865 0
M  V30 7446 H 706.053 -3.69017 -2.03481 0
M  V30 7447 H 704.777 -2.4534 -2.15583 0
M  V30 7448 H 703.436 -3.64545 -0.387602 0
M  V30 7449 H 703.084 -4.17423 -2.80654 0
M  V30 7450 H 702.784 -5.59962 -1.78092 0
M  V30 7451 H 704.308 -5.4742 -2.70487 0
M  V30 7452 H 705.722 -5.7156 -0.446302 0
M  V30 7453 H 704.119 -5.99378 0.29437 0
M  V30 7454 H 705.189 -4.75131 0.968447 0
M  V30 7455 N 706.532 -0.168513 -1.56696 0
M  V30 7456 C 707.778 0.477865 -1.9709 0
M  V30 7457 C 708.111 1.63084 -1.05438 0
M  V30 7458 O 707.386 1.94238 -0.10095 0
M  V30 7459 C 707.669 0.963521 -3.4697 0
M  V30 7460 C 707.522 -0.189443 -4.49401 0
M  V30 7461 C 708.841 1.83813 -3.99876 0
M  V30 7462 H 705.96 0.172229 -0.716593 0
M  V30 7463 H 708.602 -0.254083 -1.88293 0
M  V30 7464 H 706.752 1.58724 -3.54597 0
M  V30 7465 H 708.424 -0.826451 -4.53836 0
M  V30 7466 H 706.667 -0.845366 -4.25483 0
M  V30 7467 H 707.338 0.192446 -5.51664 0
M  V30 7468 H 709.814 1.31235 -3.94863 0
M  V30 7469 H 708.69 2.14697 -5.0517 0
M  V30 7470 H 708.951 2.78289 -3.43523 0
M  V30 7471 N 708.01 1.57248 0.105221 0
M  V30 7472 C 709.238 1.89768 0.82437 0
M  V30 7473 C 709.653 0.761192 1.72775 0
M  V30 7474 O 709.01 -0.267342 1.80531 0
M  V30 7475 C 709.061 3.2184 1.64625 0
M  V30 7476 O 708.782 4.31115 0.779217 0
M  V30 7477 C 710.283 3.68155 2.46935 0
M  V30 7478 H 707.503 0.628031 0.236259 0
M  V30 7479 H 710.047 2.04321 0.085485 0
M  V30 7480 H 708.202 3.08915 2.33775 0
M  V30 7481 H 708.616 5.06897 1.34745 0
M  V30 7482 H 710.09 4.6329 3.00111 0
M  V30 7483 H 710.567 2.95492 3.24932 0
M  V30 7484 H 711.173 3.83914 1.83002 0
M  V30 7485 N 709.488 -0.375779 1.53054 0
M  V30 7486 C 710.418 -1.46598 1.81745 0
M  V30 7487 C 711.399 -1.56337 0.670286 0
M  V30 7488 O 712.584 -1.71071 0.919158 0
M  V30 7489 C 709.714 -2.84058 1.99821 0
M  V30 7490 C 708.668 -2.8915 3.15557 0
M  V30 7491 C 707.994 -4.29187 3.18908 0
M  V30 7492 C 709.294 -2.57595 4.54359 0
M  V30 7493 H 710.988 -1.22837 2.73041 0
M  V30 7494 H 708.534 -0.589485 1.31381 0
M  V30 7495 H 710.487 -3.60342 2.18475 0
M  V30 7496 H 709.211 -3.09184 1.05226 0
M  V30 7497 H 707.87 -2.15316 2.96706 0
M  V30 7498 H 707.518 -4.51374 2.2197 0
M  V30 7499 H 707.218 -4.33512 3.96662 0
M  V30 7500 H 708.742 -5.07359 3.39734 0
M  V30 7501 H 710.156 -3.23595 4.73243 0
M  V30 7502 H 708.553 -2.73252 5.34279 0
M  V30 7503 H 709.623 -1.52882 4.60169 0
M  V30 7504 N 710.966 -1.44241 -0.634997 0
M  V30 7505 C 712.194 -1.50296 -1.42193 0
M  V30 7506 C 712.609 -0.12658 -1.88375 0
M  V30 7507 O 711.966 0.86678 -1.60603 0
M  V30 7508 C 712.017 -2.46437 -2.64482 0
M  V30 7509 O 711.738 -3.78724 -2.20226 0
M  V30 7510 C 713.239 -2.61918 -3.57651 0
M  V30 7511 H 710.459 -0.509865 -0.43621 0
M  V30 7512 H 713.003 -1.89167 -0.776921 0
M  V30 7513 H 711.158 -2.10712 -3.25083 0
M  V30 7514 H 711.572 -4.30595 -2.9948 0
M  V30 7515 H 713.046 -3.33225 -4.40074 0
M  V30 7516 H 713.523 -1.67017 -4.06204 0
M  V30 7517 H 714.129 -2.98528 -3.02921 0
M  V30 7518 N 712.444 0.87505 -1.31075 0
M  V30 7519 C 713.691 1.62768 -1.20469 0
M  V30 7520 C 714.019 1.93034 0.23834 0
M  V30 7521 O 713.274 1.55693 1.18567 0
M  V30 7522 C 713.573 2.96948 -1.98888 0
M  V30 7523 C 713.239 2.86195 -3.4843 0
M  V30 7524 C 711.901 2.82969 -3.89207 0
M  V30 7525 C 714.253 2.73599 -4.43614 0
M  V30 7526 C 711.581 2.64999 -5.23443 0
M  V30 7527 C 713.933 2.57166 -5.77969 0
M  V30 7528 C 712.597 2.52321 -6.17973 0
M  V30 7529 H 711.867 0.595611 -0.440827 0
M  V30 7530 H 714.514 1.01665 -1.62285 0
M  V30 7531 H 712.819 3.62058 -1.49737 0
M  V30 7532 H 714.516 3.54164 -1.88067 0
M  V30 7533 H 711.106 2.8952 -3.16032 0
M  V30 7534 H 715.29 2.7515 -4.13045 0
M  V30 7535 H 710.546 2.5967 -5.53517 0
M  V30 7536 H 714.72 2.46396 -6.51354 0
M  V30 7537 H 712.347 2.38156 -7.21932 0
M  V30 7538 N 713.922 1.13953 1.08869 0
M  V30 7539 C 715.17 0.903023 1.80803 0
M  V30 7540 C 715.491 -0.572151 1.86417 0
M  V30 7541 O 714.761 -1.41589 1.35386 0
M  V30 7542 H 713.341 0.331099 0.669614 0
M  V30 7543 H 716.003 1.43719 1.31647 0
M  V30 7544 H 715.099 1.29881 2.83791 0
M  V30 7545 N 715.4 -1.26948 0.933913 0
M  V30 7546 C 716.648 -1.93704 0.576484 0
M  V30 7547 C 716.969 -1.73702 -0.886145 0
M  V30 7548 O 716.239 -1.08838 -1.62884 0
M  V30 7549 H 714.819 -0.716812 0.210214 0
M  V30 7550 H 717.481 -1.54534 1.18766 0
M  V30 7551 H 716.577 -3.01987 0.788055 0
M  V30 7552 N 716.879 -0.700114 -1.41195 0
M  V30 7553 C 717.842 -0.0465706 -2.29153 0
M  V30 7554 C 718.842 0.703302 -1.44604 0
M  V30 7555 O 720.032 0.537513 -1.657 0
M  V30 7556 C 717.164 0.944324 -3.2756 0
M  V30 7557 H 718.357 -0.821064 -2.88442 0
M  V30 7558 H 715.91 -0.463869 -1.49258 0
M  V30 7559 H 716.645 1.74642 -2.73259 0
M  V30 7560 H 716.43 0.409701 -3.89954 0
M  V30 7561 H 717.92 1.39925 -3.9346 0
M  V30 7562 N 718.357 1.51182 -0.445186 0
M  V30 7563 C 719.587 2.06269 0.116922 0
M  V30 7564 C 719.995 1.31188 1.36332 0
M  V30 7565 O 719.338 0.367067 1.79995 0
M  V30 7566 C 719.4 3.56051 0.496757 0
M  V30 7567 C 719.064 4.52441 -0.64394 0
M  V30 7568 C 720.061 4.97233 -1.5184 0
M  V30 7569 C 717.746 4.95447 -0.826905 0
M  V30 7570 C 719.74 5.83712 -2.56046 0
M  V30 7571 C 717.427 5.81714 -1.87222 0
M  V30 7572 C 718.425 6.25745 -2.73738 0
M  V30 7573 O 718.113 7.10298 -3.76474 0
M  V30 7574 H 717.845 0.675954 0.00785733 0
M  V30 7575 H 720.399 1.95648 -0.625371 0
M  V30 7576 H 718.629 3.64483 1.29187 0
M  V30 7577 H 720.318 3.93618 0.990928 0
M  V30 7578 H 721.084 4.64696 -1.38862 0
M  V30 7579 H 716.963 4.60712 -0.163052 0
M  V30 7580 H 720.507 6.18 -3.23607 0
M  V30 7581 H 716.404 6.13664 -2.00218 0
M  V30 7582 H 717.172 7.28493 -3.73149 0
M  V30 7583 N 719.835 0.176821 1.56605 0
M  V30 7584 C 721.081 -0.467406 1.9734 0
M  V30 7585 C 721.414 -1.62523 1.06301 0
M  V30 7586 O 720.689 -1.94182 0.11125 0
M  V30 7587 C 720.972 -0.945106 3.47476 0
M  V30 7588 C 720.825 0.213273 4.49294 0
M  V30 7589 C 722.144 -1.8169 4.00845 0
M  V30 7590 H 719.263 -0.168426 0.717497 0
M  V30 7591 H 721.905 0.264065 1.88156 0
M  V30 7592 H 720.055 -1.56841 3.55434 0
M  V30 7593 H 721.727 0.850508 4.53392 0
M  V30 7594 H 719.97 0.867918 4.25029 0
M  V30 7595 H 720.641 -0.163187 5.51759 0
M  V30 7596 H 723.117 -1.29139 3.95553 0
M  V30 7597 H 721.993 -2.12015 5.06301 0
M  V30 7598 H 722.254 -2.76463 3.44994 0
M  V30 7599 N 721.313 -1.57302 -0.09688 0
M  V30 7600 C 722.559 -1.86273 -0.801885 0
M  V30 7601 C 722.892 -0.765694 -1.78468 0
M  V30 7602 O 722.167 0.226495 -1.93177 0
M  V30 7603 C 722.45 -3.25876 -1.53221 0
M  V30 7604 C 722.303 -4.46205 -0.567529 0
M  V30 7605 C 723.622 -3.63352 -2.48321 0
M  V30 7606 H 720.741 -0.67752 -0.29006 0
M  V30 7607 H 723.383 -1.89887 -0.0655577 0
M  V30 7608 H 721.533 -3.22926 -2.15988 0
M  V30 7609 H 723.205 -4.6127 0.0529982 0
M  V30 7610 H 721.448 -4.33636 0.119233 0
M  V30 7611 H 722.119 -5.40608 -1.11564 0
M  V30 7612 H 724.595 -3.67234 -1.95648 0
M  V30 7613 H 723.471 -4.61968 -2.9644 0
M  V30 7614 H 723.732 -2.91941 -3.31998 0
M  V30 7615 N 722.791 0.367657 -1.53252 0
M  V30 7616 C 723.738 1.45028 -1.79543 0
M  V30 7617 C 724.708 1.53288 -0.63969 0
M  V30 7618 O 725.893 1.69209 -0.881653 0
M  V30 7619 C 723.033 2.82 -1.98923 0
M  V30 7620 C 722.146 2.82722 -3.26638 0
M  V30 7621 C 721.281 4.11257 -3.36216 0
M  V30 7622 C 720.32 4.06113 -4.57972 0
M  V30 7623 N 719.457 5.26293 -4.64715 0
M  V30 7624 H 724.297 1.21908 -2.71923 0
M  V30 7625 H 721.834 0.591011 -1.34705 0
M  V30 7626 H 723.792 3.61568 -2.08146 0
M  V30 7627 H 722.422 3.03523 -1.09881 0
M  V30 7628 H 721.474 1.95399 -3.26379 0
M  V30 7629 H 722.786 2.74794 -4.16281 0
M  V30 7630 H 721.94 4.99239 -3.44739 0
M  V30 7631 H 720.679 4.21935 -2.44586 0
M  V30 7632 H 719.684 3.16517 -4.49552 0
M  V30 7633 H 720.909 3.97039 -5.50942 0
M  V30 7634 H 718.855 5.37561 -3.75985 0
M  V30 7635 H 718.772 5.20526 -5.4826 0
M  V30 7636 H 720.04 6.16113 -4.77519 0
M  V30 7637 N 724.269 1.44576 0.627338 0
M  V30 7638 C 725.199 1.54562 1.75022 0
M  V30 7639 C 726.18 0.398378 1.65369 0
M  V30 7640 O 727.365 0.61899 1.84071 0
M  V30 7641 C 724.495 1.49309 3.13567 0
M  V30 7642 C 723.449 2.62549 3.38012 0
M  V30 7643 C 722.775 2.42348 4.76625 0
M  V30 7644 C 724.075 4.04678 3.30202 0
M  V30 7645 H 725.769 2.4855 1.66922 0
M  V30 7646 H 723.315 1.19624 0.801636 0
M  V30 7647 H 725.268 1.54895 3.919 0
M  V30 7648 H 723.992 0.518392 3.2246 0
M  V30 7649 H 722.651 2.56358 2.62061 0
M  V30 7650 H 722.299 1.43062 4.82226 0
M  V30 7651 H 721.999 3.18273 4.93939 0
M  V30 7652 H 723.523 2.49758 5.57183 0
M  V30 7653 H 724.937 4.12217 3.98435 0
M  V30 7654 H 723.334 4.80836 3.5905 0
M  V30 7655 H 724.404 4.2798 2.27949 0
M  V30 7656 N 725.747 -0.868086 1.31537 0
M  V30 7657 C 726.677 -1.99131 1.21939 0
M  V30 7658 C 727.658 -1.69768 0.106166 0
M  V30 7659 O 728.843 -1.92006 0.291081 0
M  V30 7660 C 725.973 -3.34676 0.927879 0
M  V30 7661 C 724.927 -3.7835 2.00088 0
M  V30 7662 C 724.253 -5.11375 1.56203 0
M  V30 7663 C 725.553 -3.95256 3.41424 0
M  V30 7664 H 727.247 -2.07419 2.15911 0
M  V30 7665 H 724.793 -0.996569 1.03945 0
M  V30 7666 H 726.746 -4.12793 0.847327 0
M  V30 7667 H 725.47 -3.26565 -0.0475042 0
M  V30 7668 H 724.129 -3.02474 2.07135 0
M  V30 7669 H 723.777 -4.99709 0.57445 0
M  V30 7670 H 723.477 -5.41568 2.27985 0
M  V30 7671 H 725.001 -5.92001 1.49558 0
M  V30 7672 H 726.415 -4.63764 3.3704 0
M  V30 7673 H 724.812 -4.36849 4.1144 0
M  V30 7674 H 725.882 -2.98579 3.82072 0
M  V30 7675 N 727.225 -1.14528 -1.08264 0
M  V30 7676 C 728.135 -0.84728 -2.18765 0
M  V30 7677 C 729.151 0.172826 -1.7314 0
M  V30 7678 O 730.327 0.000985336 -2.014 0
M  V30 7679 C 727.392 -0.330633 -3.4512 0
M  V30 7680 C 726.453 -1.41348 -4.05363 0
M  V30 7681 C 725.686 -0.921387 -5.25686 0
M  V30 7682 O 725.909 0.236587 -5.69909 0
M  V30 7683 O 724.843 -1.70101 -5.77364 0
M  V30 7684 H 728.669 -1.7708 -2.46731 0
M  V30 7685 H 726.254 -0.923661 -1.17426 0
M  V30 7686 H 728.136 -0.0485053 -4.21372 0
M  V30 7687 H 726.811 0.565147 -3.18728 0
M  V30 7688 H 725.718 -1.74908 -3.30693 0
M  V30 7689 H 727.051 -2.28383 -4.36007 0
M  V30 7690 N 728.703 1.26451 -0.940633 0
M  V30 7691 C 729.613 2.30128 -0.455881 0
M  V30 7692 C 730.629 1.67536 0.469867 0
M  V30 7693 O 731.805 1.98344 0.349529 0
M  V30 7694 C 728.87 3.45634 0.271648 0
M  V30 7695 C 727.931 4.23709 -0.690594 0
M  V30 7696 C 727.164 5.337 0.00231047 0
M  V30 7697 O 727.387 5.57215 1.21935 0
M  V30 7698 O 726.321 5.98091 -0.676111 0
M  V30 7699 H 730.147 2.73655 -1.31707 0
M  V30 7700 H 727.732 1.3164 -0.706497 0
M  V30 7701 H 729.614 4.15853 0.681486 0
M  V30 7702 H 728.289 3.04138 1.10824 0
M  V30 7703 H 727.196 3.55974 -1.15037 0
M  V30 7704 H 728.529 4.68953 -1.49478 0
M  V30 7705 N 730.181 0.707592 1.40822 0
M  V30 7706 C 731.411 0.252706 2.05049 0
M  V30 7707 C 731.819 -1.10758 1.53393 0
M  V30 7708 O 731.162 -1.70567 0.682097 0
M  V30 7709 C 731.224 0.146001 3.59203 0
M  V30 7710 C 730.888 1.44027 4.33711 0
M  V30 7711 C 731.885 2.38058 4.62195 0
M  V30 7712 C 729.57 1.69698 4.72766 0
M  V30 7713 C 731.564 3.56013 5.28709 0
M  V30 7714 C 729.251 2.87936 5.39014 0
M  V30 7715 C 730.249 3.80915 5.66915 0
M  V30 7716 O 729.937 4.9708 6.31796 0
M  V30 7717 H 729.669 0.112784 0.666525 0
M  V30 7718 H 732.223 0.96417 1.81364 0
M  V30 7719 H 730.453 -0.621338 3.81676 0
M  V30 7720 H 732.142 -0.273275 4.04979 0
M  V30 7721 H 732.908 2.19487 4.32493 0
M  V30 7722 H 728.787 0.981835 4.50423 0
M  V30 7723 H 732.331 4.28604 5.50404 0
M  V30 7724 H 728.228 3.06419 5.68135 0
M  V30 7725 H 728.996 4.97053 6.50293 0
M  V30 7726 N 731.66 -1.50943 0.453197 0
M  V30 7727 C 732.623 -2.26684 -0.338705 0
M  V30 7728 C 733.623 -1.30748 -0.936032 0
M  V30 7729 O 734.813 -1.54327 -0.808002 0
M  V30 7730 C 731.945 -3.07063 -1.48071 0
M  V30 7731 H 733.138 -2.98131 0.325289 0
M  V30 7732 H 730.691 -1.54926 0.206771 0
M  V30 7733 H 731.426 -2.4007 -2.18029 0
M  V30 7734 H 731.211 -3.77545 -1.0584 0
M  V30 7735 H 732.701 -3.64393 -2.0398 0
M  V30 7736 N 733.138 -0.185124 -1.56509 0
M  V30 7737 C 734.366 0.462139 -2.01673 0
M  V30 7738 C 734.781 1.55873 -1.06532 0
M  V30 7739 O 734.138 1.82371 -0.0684805 0
M  V30 7740 C 734.189 1.0277 -3.46584 0
M  V30 7741 O 733.91 -0.0251296 -4.38093 0
M  V30 7742 C 735.411 1.75183 -4.07217 0
M  V30 7743 H 732.631 0.117001 -0.660721 0
M  V30 7744 H 735.175 -0.290905 -2.0242 0
M  V30 7745 H 733.33 1.73118 -3.46568 0
M  V30 7746 H 733.744 0.394387 -5.23015 0
M  V30 7747 H 735.218 2.09999 -5.10494 0
M  V30 7748 H 735.695 2.6519 -3.50101 0
M  V30 7749 H 736.301 1.09445 -4.10977 0
M  V30 7750 N 734.616 1.57351 0.0885366 0
M  V30 7751 C 735.864 1.86051 0.789262 0
M  V30 7752 C 736.185 0.774763 1.78948 0
M  V30 7753 O 735.455 -0.198324 1.94894 0
M  V30 7754 H 734.035 0.686508 0.294475 0
M  V30 7755 H 736.697 1.94779 0.0686055 0
M  V30 7756 H 735.793 2.83007 1.31581 0
M  V30 7757 N 736.094 -0.359525 1.53444 0
M  V30 7758 C 737.505 -0.936009 1.61542 0
M  V30 7759 C 737.856 -1.90069 0.486633 0
M  V30 7760 O 736.981 -2.12929 -0.386047 0
M  V30 7761 C 737.576 -1.70441 2.92806 0
M  V30 7762 C 736.135 -2.23015 3.03218 0
M  V30 7763 C 735.282 -1.04438 2.56881 0
M  V30 7764 H 738.233 -0.138134 1.58098 0
M  V30 7765 H 738.254 -2.56609 2.80948 0
M  V30 7766 H 737.766 -1.00205 3.74941 0
M  V30 7767 H 735.867 -2.96475 2.25684 0
M  V30 7768 H 735.98 -2.50481 4.08407 0
M  V30 7769 H 734.344 -1.41314 2.11902 0
M  V30 7770 H 735.127 -0.356905 3.4144 0
M  V30 7771 N 737.572 -1.44907 -0.619662 0
M  V30 7772 C 738.535 -1.52282 -1.71297 0
M  V30 7773 C 739.535 -0.40359 -1.55653 0
M  V30 7774 O 740.725 -0.666638 -1.6094 0
M  V30 7775 C 737.857 -1.40778 -3.10474 0
M  V30 7776 H 739.05 -2.49683 -1.66128 0
M  V30 7777 H 736.603 -1.32168 -0.834339 0
M  V30 7778 H 737.338 -0.445156 -3.2123 0
M  V30 7779 H 737.123 -2.21947 -3.23237 0
M  V30 7780 H 738.613 -1.48946 -3.90135 0
M  V30 7781 N 739.05 0.861098 -1.31996 0
M  V30 7782 C 740.296 1.61721 -1.22369 0
M  V30 7783 C 740.629 1.93 0.215587 0
M  V30 7784 O 739.904 1.56789 1.15098 0
M  V30 7785 C 740.187 2.9417 -2.07691 0
M  V30 7786 C 740.04 2.69714 -3.59965 0
M  V30 7787 C 741.359 3.95372 -1.93312 0
M  V30 7788 H 738.478 0.586822 -0.44588 0
M  V30 7789 H 741.12 0.994788 -1.61876 0
M  V30 7790 H 739.27 3.47292 -1.74128 0
M  V30 7791 H 740.942 2.23196 -4.03709 0
M  V30 7792 H 739.185 2.03789 -3.82952 0
M  V30 7793 H 739.856 3.63996 -4.14983 0
M  V30 7794 H 742.332 3.51487 -2.22701 0
M  V30 7795 H 741.208 4.85916 -2.55298 0
M  V30 7796 H 741.469 4.32865 -0.898922 0
M  V30 7797 N 740.528 1.15101 1.07655 0
M  V30 7798 C 741.458 0.867864 2.16773 0
M  V30 7799 C 742.439 -0.180283 1.69142 0
M  V30 7800 O 743.624 -0.0353152 1.94168 0
M  V30 7801 C 740.754 0.35299 3.45501 0
M  V30 7802 C 739.708 1.33746 4.06566 0
M  V30 7803 C 739.034 0.681562 5.30338 0
M  V30 7804 C 740.334 2.7024 4.46954 0
M  V30 7805 H 742.028 1.78034 2.40716 0
M  V30 7806 H 739.574 0.857435 1.15689 0
M  V30 7807 H 741.527 0.142465 4.21159 0
M  V30 7808 H 740.251 -0.594945 3.21135 0
M  V30 7809 H 738.91 1.53429 3.32949 0
M  V30 7810 H 738.558 -0.272422 5.02262 0
M  V30 7811 H 738.258 1.33853 5.72151 0
M  V30 7812 H 739.782 0.48074 6.08705 0
M  V30 7813 H 741.196 2.5442 5.13754 0
M  V30 7814 H 739.593 3.32282 4.99709 0
M  V30 7815 H 740.663 3.26537 3.58471 0
M  V30 7816 N 742.006 -1.2595 0.947325 0
M  V30 7817 C 743.234 -1.97544 0.615127 0
M  V30 7818 C 743.649 -1.70484 -0.811221 0
M  V30 7819 O 743.006 -0.97662 -1.5417 0
M  V30 7820 C 743.057 -3.51236 0.855328 0
M  V30 7821 O 742.778 -3.77359 2.22558 0
M  V30 7822 C 744.279 -4.40066 0.534515 0
M  V30 7823 H 741.499 -0.629888 0.231263 0
M  V30 7824 H 744.043 -1.60308 1.26971 0
M  V30 7825 H 742.198 -3.8661 0.247266 0
M  V30 7826 H 742.612 -4.71857 2.29022 0
M  V30 7827 H 744.086 -5.46838 0.753168 0
M  V30 7828 H 744.563 -4.35982 -0.530701 0
M  V30 7829 H 745.169 -4.10245 1.12158 0
M  V30 7830 N 743.484 -0.715051 -1.40445 0
M  V30 7831 C 744.73 -0.254705 -2.01194 0
M  V30 7832 C 745.063 1.14894 -1.56567 0
M  V30 7833 O 744.338 1.77933 -0.785491 0
M  V30 7834 C 744.621 -0.334148 -3.58546 0
M  V30 7835 C 744.474 -1.77613 -4.13248 0
M  V30 7836 C 745.793 0.294968 -4.3911 0
M  V30 7837 H 742.912 -0.094025 -0.730978 0
M  V30 7838 H 745.554 -0.907449 -1.66929 0
M  V30 7839 H 743.704 0.221609 -3.87867 0
M  V30 7840 H 745.376 -2.38723 -3.94727 0
M  V30 7841 H 743.619 -2.30402 -3.67556 0
M  V30 7842 H 744.29 -1.78311 -5.22407 0
M  V30 7843 H 746.766 -0.178563 -4.15717 0
M  V30 7844 H 745.642 0.208934 -5.48502 0
M  V30 7845 H 745.903 1.37841 -4.20062 0
M  V30 7846 N 744.962 1.50701 -0.461195 0
M  V30 7847 C 745.925 2.2686 0.326679 0
M  V30 7848 C 746.925 1.31243 0.929085 0
M  V30 7849 O 748.115 1.54754 0.799807 0
M  V30 7850 C 745.247 3.07844 1.46441 0
M  V30 7851 H 746.44 2.97954 -0.341095 0
M  V30 7852 H 743.993 1.54814 -0.214984 0
M  V30 7853 H 744.728 2.41223 2.16753 0
M  V30 7854 H 744.513 3.78101 1.03836 0
M  V30 7855 H 746.003 3.65469 2.02044 0
M  V30 7856 N 746.441 0.193421 1.56409 0
M  V30 7857 C 747.371 -0.723334 2.22014 0
M  V30 7858 C 748.352 -1.22254 1.1827 0
M  V30 7859 O 749.537 -1.27168 1.46771 0
M  V30 7860 C 746.667 -1.94366 2.87818 0
M  V30 7861 C 745.621 -1.57943 3.97791 0
M  V30 7862 C 744.947 -2.87623 4.50752 0
M  V30 7863 C 746.247 -0.790639 5.16281 0
M  V30 7864 H 747.941 -0.176426 2.9888 0
M  V30 7865 H 745.487 -0.0834166 1.43758 0
M  V30 7866 H 747.44 -2.5902 3.32396 0
M  V30 7867 H 746.164 -2.51507 2.08355 0
M  V30 7868 H 744.823 -0.956482 3.53903 0
M  V30 7869 H 744.471 -3.4285 3.68053 0
M  V30 7870 H 744.171 -2.63998 5.24956 0
M  V30 7871 H 745.695 -3.53268 4.9803 0
M  V30 7872 H 747.109 -1.34024 5.57414 0
M  V30 7873 H 745.506 -0.65258 5.96541 0
M  V30 7874 H 746.576 0.208633 4.84451 0
M  V30 7875 N 747.919 -1.57396 -0.0801906 0
M  V30 7876 C 749.168 -1.8602 -0.779702 0
M  V30 7877 C 749.481 -0.784864 -1.79163 0
M  V30 7878 O 750.687 -0.958691 -2.54011 0
M  V30 7879 C 749.143 -3.29942 -1.43758 0
M  V30 7880 C 748.751 -4.45584 -0.464654 0
M  V30 7881 C 750.495 -3.67775 -2.11995 0
M  V30 7882 C 748.402 -5.80544 -1.12797 0
M  V30 7883 H 747.332 -0.69392 -0.294943 0
M  V30 7884 H 749.983 -1.83471 -0.0328527 0
M  V30 7885 H 748.365 -3.27078 -2.2324 0
M  V30 7886 H 749.539 -4.59824 0.299749 0
M  V30 7887 H 747.854 -4.16247 0.112813 0
M  V30 7888 H 750.451 -4.65896 -2.62383 0
M  V30 7889 H 750.794 -2.9715 -2.91561 0
M  V30 7890 H 751.327 -3.72593 -1.39354 0
M  V30 7891 H 748.066 -6.54439 -0.372807 0
M  V30 7892 H 747.586 -5.70119 -1.86344 0
M  V30 7893 H 749.265 -6.25602 -1.6502 0
M  V30 7894 N 749.397 0.351382 -1.53633 0
M  V30 7895 C 750.307 1.45471 -1.84052 0
M  V30 7896 C 751.323 1.57945 -0.730015 0
M  V30 7897 O 752.499 1.73571 -1.02153 0
M  V30 7898 C 749.564 2.80562 -2.03681 0
M  V30 7899 C 748.625 2.77497 -3.27558 0
M  V30 7900 C 747.858 4.06144 -3.46241 0
M  V30 7901 O 748.081 5.03028 -2.68922 0
M  V30 7902 O 747.015 4.11092 -4.39645 0
M  V30 7903 H 750.841 1.22684 -2.77817 0
M  V30 7904 H 748.426 0.542827 -1.3919 0
M  V30 7905 H 750.308 3.6058 -2.18082 0
M  V30 7906 H 748.983 3.03296 -1.13106 0
M  V30 7907 H 747.89 1.96126 -3.18568 0
M  V30 7908 H 749.223 2.59716 -4.18101 0
M  V30 7909 N 750.875 1.45233 0.611969 0
M  V30 7910 C 751.838 1.53189 1.70487 0
M  V30 7911 C 752.838 0.411839 1.55437 0
M  V30 7912 O 754.028 0.675164 1.60584 0
M  V30 7913 C 751.16 1.42422 3.09723 0
M  V30 7914 H 752.353 2.5056 1.64802 0
M  V30 7915 H 749.906 1.32609 0.827318 0
M  V30 7916 H 750.641 0.462185 3.2099 0
M  V30 7917 H 750.426 2.23658 3.22055 0
M  V30 7918 H 751.916 1.51012 3.89339 0
M  V30 7919 N 752.353 -0.854086 1.3245 0
M  V30 7920 C 753.599 -1.61069 1.23225 0
M  V30 7921 C 753.932 -1.93111 -0.205349 0
M  V30 7922 O 753.207 -1.57397 -1.14265 0
M  V30 7923 C 753.49 -2.93065 2.09249 0
M  V30 7924 C 753.343 -2.67801 3.6139 0
M  V30 7925 C 754.662 -3.94341 1.95406 0
M  V30 7926 H 751.781 -0.584449 0.448986 0
M  V30 7927 H 754.423 -0.986189 1.62402 0
M  V30 7928 H 752.573 -3.46364 1.75967 0
M  V30 7929 H 754.245 -2.21052 4.04887 0
M  V30 7930 H 752.488 -2.01756 3.84027 0
M  V30 7931 H 753.159 -3.6179 4.16907 0
M  V30 7932 H 755.635 -3.50301 2.24562 0
M  V30 7933 H 754.511 -4.84555 2.57872 0
M  V30 7934 H 754.772 -4.32382 0.921865 0
M  V30 7935 N 753.831 -1.1567 -1.07043 0
M  V30 7936 C 754.794 -0.858906 -2.12498 0
M  V30 7937 C 755.794 0.142735 -1.60165 0
M  V30 7938 O 756.984 -0.0872678 -1.73981 0
M  V30 7939 C 754.116 -0.283021 -3.39723 0
M  V30 7940 H 755.309 -1.79368 -2.40348 0
M  V30 7941 H 752.862 -0.964608 -1.22984 0
M  V30 7942 H 753.597 0.659796 -3.17517 0
M  V30 7943 H 753.382 -1.00467 -3.7901 0
M  V30 7944 H 754.872 -0.0923543 -4.17498 0
M  V30 7945 N 755.309 1.25446 -0.953992 0
M  V30 7946 C 756.555 1.9343 -0.60933 0
M  V30 7947 C 756.888 1.74542 0.851388 0
M  V30 7948 O 756.163 1.09014 1.61078 0
M  V30 7949 C 756.446 3.46844 -0.968041 0
M  V30 7950 C 756.299 3.74961 -2.48444 0
M  V30 7951 C 757.618 4.37334 -0.492641 0
M  V30 7952 H 754.737 0.702502 -0.222844 0
M  V30 7953 H 757.379 1.48076 -1.19053 0
M  V30 7954 H 755.529 3.85604 -0.473465 0
M  V30 7955 H 757.201 3.45841 -3.05273 0
M  V30 7956 H 755.444 3.20589 -2.92241 0
M  V30 7957 H 756.115 4.82246 -2.68594 0
M  V30 7958 H 758.591 4.05873 -0.916878 0
M  V30 7959 H 757.467 5.43439 -0.772331 0
M  V30 7960 H 757.728 4.37908 0.607403 0
M  V30 7961 N 756.787 0.722489 1.40064 0
M  V30 7962 C 758.012 0.273446 2.05589 0
M  V30 7963 C 758.437 -1.07875 1.54093 0
M  V30 7964 O 757.795 -1.68095 0.679252 0
M  V30 7965 C 757.843 0.271023 3.5958 0
M  V30 7966 O 756.947 -0.745499 4.05606 0
M  V30 7967 H 756.288 0.126856 0.65177 0
M  V30 7968 H 758.818 0.984906 1.79334 0
M  V30 7969 H 758.828 0.111084 4.07849 0
M  V30 7970 H 757.503 1.25776 3.96425 0
M  V30 7971 H 756.08 -0.552719 3.68781 0
M  V30 7972 N 758.265 -1.50454 0.469181 0
M  V30 7973 C 759.511 -2.03248 -0.0787241 0
M  V30 7974 C 759.866 -1.34499 -1.37578 0
M  V30 7975 O 759.159 -0.461173 -1.85967 0
M  V30 7976 C 759.353 -3.55963 -0.320207 0
M  V30 7977 C 759.182 -4.3951 0.951893 0
M  V30 7978 C 757.952 -4.82689 1.49465 0
M  V30 7979 C 760.15 -4.79999 1.84677 0
M  V30 7980 N 758.132 -5.50553 2.71597 0
M  V30 7981 C 759.503 -5.47254 2.91398 0
M  V30 7982 C 761.558 -4.61959 1.85738 0
M  V30 7983 C 760.261 -5.98381 3.99166 0
M  V30 7984 C 762.287 -5.14024 2.92461 0
M  V30 7985 C 761.649 -5.81253 3.97901 0
M  V30 7986 H 757.748 -0.78192 0.0111715 0
M  V30 7987 H 760.332 -1.83986 0.636961 0
M  V30 7988 H 758.503 -3.75174 -1.00493 0
M  V30 7989 H 760.235 -3.95407 -0.862285 0
M  V30 7990 H 756.99 -4.61948 1.0441 0
M  V30 7991 H 757.414 -5.89093 3.33615 0
M  V30 7992 H 762.056 -4.09416 1.05539 0
M  V30 7993 H 759.774 -6.49961 4.80183 0
M  V30 7994 H 763.36 -5.01897 2.94263 0
M  V30 7995 H 762.24 -6.20814 4.79123 0
M  V30 7996 N 759.743 -0.201713 -1.56304 0
M  V30 7997 C 760.99 0.435307 -1.97766 0
M  V30 7998 C 761.318 1.61169 -1.0888 0
M  V30 7999 O 760.573 1.95272 -0.12934 0
M  V30 8000 C 760.872 0.931432 -3.45049 0
M  V30 8001 C 760.538 -0.132287 -4.50706 0
M  V30 8002 C 759.2 -0.424552 -4.79323 0
M  V30 8003 C 761.552 -0.852703 -5.14177 0
M  V30 8004 C 758.88 -1.4421 -5.68701 0
M  V30 8005 C 761.232 -1.85944 -6.04655 0
M  V30 8006 C 759.896 -2.15884 -6.31625 0
M  V30 8007 H 759.166 0.15929 -0.723676 0
M  V30 8008 H 761.813 -0.300069 -1.89134 0
M  V30 8009 H 760.118 1.7452 -3.50785 0
M  V30 8010 H 761.815 1.43383 -3.74489 0
M  V30 8011 H 758.405 0.105671 -4.2847 0
M  V30 8012 H 762.589 -0.640139 -4.92154 0
M  V30 8013 H 757.845 -1.6799 -5.87869 0
M  V30 8014 H 762.019 -2.42286 -6.52894 0
M  V30 8015 H 759.646 -2.94875 -7.0068 0
M  V30 8016 N 761.222 1.57436 0.0718424 0
M  V30 8017 C 762.452 1.91196 0.782795 0
M  V30 8018 C 762.86 0.795927 1.71644 0
M  V30 8019 O 762.203 -0.239604 1.82131 0
M  V30 8020 C 762.265 3.20421 1.63005 0
M  V30 8021 C 761.929 4.48724 0.865782 0
M  V30 8022 C 762.926 5.19571 0.185051 0
M  V30 8023 C 760.611 4.95345 0.832971 0
M  V30 8024 C 762.605 6.3529 -0.518264 0
M  V30 8025 C 760.292 6.1097 0.125884 0
M  V30 8026 C 761.29 6.80794 -0.548533 0
M  V30 8027 O 760.978 7.94213 -1.24423 0
M  V30 8028 H 760.71 0.636486 0.227731 0
M  V30 8029 H 763.264 2.05348 0.0464187 0
M  V30 8030 H 761.494 3.02478 2.40923 0
M  V30 8031 H 763.183 3.39831 2.21968 0
M  V30 8032 H 763.949 4.8458 0.201707 0
M  V30 8033 H 759.828 4.40871 1.34737 0
M  V30 8034 H 763.372 6.89725 -1.04523 0
M  V30 8035 H 759.269 6.45411 0.107155 0
M  V30 8036 H 760.037 8.10331 -1.1535 0
M  V30 8037 N 762.7 -0.34323 1.53817 0
M  V30 8038 C 763.948 -1.0813 1.70741 0
M  V30 8039 C 764.269 -1.89165 0.473461 0
M  V30 8040 O 763.539 -1.89075 -0.512605 0
M  V30 8041 H 762.119 -0.40219 0.629486 0
M  V30 8042 H 764.781 -0.384426 1.91071 0
M  V30 8043 H 763.877 -1.7585 2.57843 0
M  V30 8044 N 764.178 -1.45556 -0.604258 0
M  V30 8045 C 765.427 -1.49019 -1.35928 0
M  V30 8046 C 765.74 -0.137409 -1.95117 0
M  V30 8047 O 766.946 -0.0497032 -2.71455 0
M  V30 8048 C 765.402 -2.62477 -2.46239 0
M  V30 8049 C 765.01 -4.04082 -1.93447 0
M  V30 8050 C 766.754 -2.7519 -3.23219 0
M  V30 8051 C 764.661 -5.08917 -3.0126 0
M  V30 8052 H 763.591 -0.554518 -0.510907 0
M  V30 8053 H 766.242 -1.71705 -0.647262 0
M  V30 8054 H 764.624 -2.3308 -3.2014 0
M  V30 8055 H 765.798 -4.43173 -1.26232 0
M  V30 8056 H 764.113 -3.95849 -1.29201 0
M  V30 8057 H 766.71 -3.50683 -4.0364 0
M  V30 8058 H 767.053 -1.81941 -3.74437 0
M  V30 8059 H 767.586 -3.04129 -2.56418 0
M  V30 8060 H 764.325 -6.03886 -2.54955 0
M  V30 8061 H 763.845 -4.74393 -3.67031 0
M  V30 8062 H 765.524 -5.33814 -3.65584 0
M  V30 8063 N 765.656 0.84705 -1.32902 0
M  V30 8064 C 766.884 1.63403 -1.26913 0
M  V30 8065 C 767.299 1.88108 0.161483 0
M  V30 8066 O 766.656 1.45546 1.10103 0
M  V30 8067 C 766.707 2.98896 -2.03331 0
M  V30 8068 O 766.428 2.75281 -3.40811 0
M  V30 8069 C 767.929 3.93335 -2.04457 0
M  V30 8070 H 765.149 0.508701 -0.437566 0
M  V30 8071 H 767.693 1.05567 -1.75145 0
M  V30 8072 H 765.848 3.53356 -1.58802 0
M  V30 8073 H 766.262 3.61504 -3.8002 0
M  V30 8074 H 767.736 4.85647 -2.62394 0
M  V30 8075 H 768.213 4.26885 -1.03274 0
M  V30 8076 H 768.819 3.44812 -2.48967 0
M  V30 8077 N 767.134 1.16236 1.06428 0
M  V30 8078 C 768.066 0.825446 2.1382 0
M  V30 8079 C 769.079 -0.166707 1.61944 0
M  V30 8080 O 770.268 0.0578606 1.78406 0
M  V30 8081 C 767.368 0.208023 3.38261 0
M  V30 8082 C 766.541 1.23994 4.19457 0
M  V30 8083 C 765.6 0.642569 5.22262 0
M  V30 8084 O 764.626 1.31106 5.53895 0
M  V30 8085 N 765.828 -0.571327 5.77682 0
M  V30 8086 H 768.593 1.7497 2.43322 0
M  V30 8087 H 766.154 1.05951 1.22417 0
M  V30 8088 H 768.146 -0.204608 4.04182 0
M  V30 8089 H 766.716 -0.619752 3.06395 0
M  V30 8090 H 765.936 1.82879 3.49212 0
M  V30 8091 H 767.224 1.93638 4.70512 0
M  V30 8092 H 766.622 -1.13263 5.54245 0
M  V30 8093 H 765.179 -0.926187 6.45186 0
M  V30 8094 N 768.612 -1.24939 0.960631 0
M  V30 8095 C 769.859 -1.92818 0.618663 0
M  V30 8096 C 770.187 -1.75177 -0.845173 0
M  V30 8097 O 769.442 -1.09412 -1.62258 0
M  V30 8098 C 769.741 -3.45066 0.930809 0
M  V30 8099 C 769.407 -3.82869 2.38164 0
M  V30 8100 C 768.069 -3.92899 2.7782 0
M  V30 8101 C 770.421 -4.01483 3.32356 0
M  V30 8102 C 767.749 -4.18955 4.10723 0
M  V30 8103 C 770.101 -4.29033 4.6488 0
M  V30 8104 C 768.765 -4.37282 5.04322 0
M  V30 8105 H 768.035 -0.705571 0.226385 0
M  V30 8106 H 770.682 -1.48365 1.21079 0
M  V30 8107 H 768.987 -3.9096 0.256355 0
M  V30 8108 H 770.684 -3.95783 0.644712 0
M  V30 8109 H 767.274 -3.75622 2.06413 0
M  V30 8110 H 771.458 -3.93143 3.02907 0
M  V30 8111 H 766.714 -4.23558 4.40918 0
M  V30 8112 H 770.888 -4.42381 5.3784 0
M  V30 8113 H 768.515 -4.57225 6.0733 0
M  V30 8114 N 770.09 -0.729906 -1.39679 0
M  V30 8115 C 771.33 -0.280232 -2.0247 0
M  V30 8116 C 771.694 1.11006 -1.56658 0
M  V30 8117 O 772.895 1.65753 -2.11612 0
M  V30 8118 C 771.166 -0.372922 -3.55449 0
M  V30 8119 S 772.725 -0.00233974 -4.388 0
M  V30 8120 H 769.543 -0.110139 -0.702418 0
M  V30 8121 H 772.145 -0.955296 -1.70571 0
M  V30 8122 H 770.849 -1.38616 -3.86282 0
M  V30 8123 H 770.38 0.320136 -3.92095 0
M  V30 8124 H 772.395 1.21544 -4.81084 0
M  V30 8125 N 771.568 1.50203 -0.477153 0
M  V30 8126 C 772.984 1.59056 -0.131663 0
M  V30 8127 C 773.184 1.48473 1.36227 0
M  V30 8128 O 772.24 1.34635 2.13611 0
M  V30 8129 C 773.553 2.92741 -0.687254 0
M  V30 8130 C 775.101 3.0615 -0.651223 0
M  V30 8131 C 775.576 4.42419 -1.18446 0
M  V30 8132 N 777.067 4.48847 -1.14413 0
M  V30 8133 C 777.802 5.52689 -1.52717 0
M  V30 8134 N 777.298 6.63754 -1.98499 0
M  V30 8135 N 779.091 5.43267 -1.44282 0
M  V30 8136 H 771.242 1.55325 -1.44872 0
M  V30 8137 H 773.505 0.734395 -0.599473 0
M  V30 8138 H 773.211 3.0598 -1.73405 0
M  V30 8139 H 773.085 3.76961 -0.134215 0
M  V30 8140 H 775.472 2.92556 0.386677 0
M  V30 8141 H 775.553 2.23673 -1.24114 0
M  V30 8142 H 775.197 4.56763 -2.22103 0
M  V30 8143 H 775.127 5.23498 -0.570709 0
M  V30 8144 H 777.618 3.69152 -0.808416 0
M  V30 8145 H 777.931 7.39059 -2.25859 0
M  V30 8146 H 776.276 6.64858 -2.02456 0
M  V30 8147 H 779.467 4.55387 -1.08352 0
M  V30 8148 H 779.64 6.24074 -1.74459 0
M  V30 8149 N 773.046 0.209999 1.56195 0
M  V30 8150 C 774.323 -0.473214 1.89789 0
M  V30 8151 C 774.703 -1.78581 1.1257 0
M  V30 8152 O 774.051 -2.27325 0.231398 0
M  V30 8153 C 774.261 -0.677458 3.42362 0
M  V30 8154 C 775.609 -0.990114 4.12895 0
M  V30 8155 O 776.633 -0.764655 3.47896 0
M  V30 8156 O 775.492 -1.41737 5.278 0
M  V30 8157 H 772.586 -0.248622 0.788743 0
M  V30 8158 H 775.132 0.251324 1.67829 0
M  V30 8159 H 773.904 0.248878 3.90508 0
M  V30 8160 H 773.527 -1.45391 3.70064 0
M  V30 8161 N 774.524 -1.57472 -0.0634922 0
M  V30 8162 C 775.77 -1.87932 -0.762194 0
M  V30 8163 C 776.103 -0.803377 -1.76804 0
M  V30 8164 O 775.378 0.185468 -1.93614 0
M  V30 8165 C 775.661 -3.29053 -1.46275 0
M  V30 8166 C 775.514 -4.47309 -0.472755 0
M  V30 8167 C 776.833 -3.68537 -2.40558 0
M  V30 8168 H 773.952 -0.683521 -0.275624 0
M  V30 8169 H 776.594 -1.89983 -0.0252651 0
M  V30 8170 H 774.744 -3.27435 -2.0909 0
M  V30 8171 H 776.416 -4.61053 0.150828 0
M  V30 8172 H 774.659 -4.33286 0.211187 0
M  V30 8173 H 775.33 -5.42853 -1.00072 0
M  V30 8174 H 777.806 -3.71302 -1.87814 0
M  V30 8175 H 776.682 -4.68152 -2.86574 0
M  V30 8176 H 776.943 -2.98917 -3.25731 0
M  V30 8177 N 776.003 0.335068 -1.53997 0
M  V30 8178 C 776.95 1.41187 -1.82579 0
M  V30 8179 C 777.92 1.51897 -0.672061 0
M  V30 8180 O 779.105 1.673 -0.917346 0
M  V30 8181 C 776.245 2.77717 -2.0486 0
M  V30 8182 C 775.358 2.7573 -3.32561 0
M  V30 8183 C 774.493 4.04032 -3.44864 0
M  V30 8184 C 773.532 3.96308 -4.66483 0
M  V30 8185 N 772.669 5.16317 -4.75774 0
M  V30 8186 H 777.509 1.16113 -2.74448 0
M  V30 8187 H 775.046 0.562305 -1.35928 0
M  V30 8188 H 777.004 3.57071 -2.15768 0
M  V30 8189 H 775.634 3.01124 -1.16294 0
M  V30 8190 H 774.686 1.88432 -3.3045 0
M  V30 8191 H 775.998 2.65902 -4.22016 0
M  V30 8192 H 775.152 4.91814 -3.55251 0
M  V30 8193 H 773.891 4.16652 -2.53481 0
M  V30 8194 H 772.896 3.06911 -4.56164 0
M  V30 8195 H 774.121 3.85263 -5.5924 0
M  V30 8196 H 772.067 5.29464 -3.87303 0
M  V30 8197 H 771.984 5.08779 -5.59178 0
M  V30 8198 H 773.252 6.05846 -4.9048 0
M  V30 8199 N 777.481 1.45874 0.596531 0
M  V30 8200 C 778.391 1.57947 1.73464 0
M  V30 8201 C 779.407 0.463461 1.67714 0
M  V30 8202 O 780.583 0.725685 1.87872 0
M  V30 8203 C 777.648 1.55348 3.09948 0
M  V30 8204 C 776.709 2.78074 3.27068 0
M  V30 8205 C 775.942 2.75589 4.57041 0
M  V30 8206 O 776.165 1.83545 5.40063 0
M  V30 8207 O 775.099 3.66945 4.77111 0
M  V30 8208 H 778.925 2.54169 1.66228 0
M  V30 8209 H 776.51 1.2851 0.76194 0
M  V30 8210 H 778.392 1.56545 3.91244 0
M  V30 8211 H 777.067 0.622811 3.17652 0
M  V30 8212 H 775.974 2.82435 2.45319 0
M  V30 8213 H 777.307 3.70303 3.24248 0
M  V30 8214 N 778.959 -0.83999 1.33349 0
M  V30 8215 C 779.892 -1.95415 1.17848 0
M  V30 8216 C 780.87 -1.6243 0.0742296 0
M  V30 8217 O 782.054 -1.87014 0.23626 0
M  V30 8218 C 779.181 -3.28938 0.807295 0
M  V30 8219 C 778.227 -3.80895 1.91888 0
M  V30 8220 S 779.06 -4.02709 3.52967 0
M  V30 8221 C 780.216 -5.39185 3.17853 0
M  V30 8222 H 780.449 -2.08265 2.12162 0
M  V30 8223 H 777.982 -0.993643 1.18178 0
M  V30 8224 H 779.94 -4.06093 0.599914 0
M  V30 8225 H 778.601 -3.13881 -0.117234 0
M  V30 8226 H 777.794 -4.77508 1.6125 0
M  V30 8227 H 777.396 -3.10633 2.08286 0
M  V30 8228 H 779.688 -6.21978 2.68608 0
M  V30 8229 H 780.631 -5.74795 4.13542 0
M  V30 8230 H 781.039 -5.03885 2.5448 0
M  V30 8231 N 780.437 -1.16799 -1.0581 0
M  V30 8232 C 781.367 -0.902241 -2.15364 0
M  V30 8233 C 782.348 0.153351 -1.69407 0
M  V30 8234 O 783.533 0.00442032 -1.94199 0
M  V30 8235 C 780.663 -0.407911 -3.44896 0
M  V30 8236 C 779.617 -1.40197 -4.04387 0
M  V30 8237 C 778.943 -0.765848 -5.29187 0
M  V30 8238 C 780.243 -2.77316 -4.42598 0
M  V30 8239 H 781.937 -1.81841 -2.37853 0
M  V30 8240 H 779.483 -0.875731 -1.14311 0
M  V30 8241 H 781.436 -0.20945 -4.20879 0
M  V30 8242 H 780.16 0.54378 -3.22041 0
M  V30 8243 H 778.819 -1.58707 -3.30466 0
M  V30 8244 H 778.467 0.192482 -5.02632 0
M  V30 8245 H 778.167 -1.42939 -5.69949 0
M  V30 8246 H 779.691 -0.577519 -6.07863 0
M  V30 8247 H 781.105 -2.62561 -5.09642 0
M  V30 8248 H 779.502 -3.4019 -4.94359 0
M  V30 8249 H 780.572 -3.32199 -3.53231 0
M  V30 8250 N 781.915 1.24427 -0.967243 0
M  V30 8251 C 783.163 1.92107 -0.627638 0
M  V30 8252 C 783.484 1.75991 0.83978 0
M  V30 8253 O 782.754 1.13118 1.59941 0
M  V30 8254 H 781.334 0.710986 -0.229145 0
M  V30 8255 H 783.996 1.51331 -1.22821 0
M  V30 8256 H 783.092 2.99791 -0.867844 0
M  V30 8257 N 783.393 0.737304 1.3929 0
M  V30 8258 C 784.64 0.286257 2.00467 0
M  V30 8259 C 784.968 -1.1272 1.58507 0
M  V30 8260 O 784.223 -1.7832 0.806257 0
M  V30 8261 C 784.522 0.338438 3.55794 0
M  V30 8262 C 784.188 1.70524 4.17411 0
M  V30 8263 C 782.85 2.07934 4.33955 0
M  V30 8264 C 785.202 2.60256 4.51571 0
M  V30 8265 C 782.53 3.34578 4.81948 0
M  V30 8266 C 784.882 3.86275 5.00974 0
M  V30 8267 C 783.546 4.23774 5.15725 0
M  V30 8268 H 782.816 0.104749 0.733559 0
M  V30 8269 H 785.463 0.944598 1.66582 0
M  V30 8270 H 783.768 -0.403478 3.89717 0
M  V30 8271 H 785.465 -0.0287255 4.0099 0
M  V30 8272 H 782.055 1.40439 4.04938 0
M  V30 8273 H 786.239 2.32624 4.38406 0
M  V30 8274 H 781.495 3.63572 4.91554 0
M  V30 8275 H 785.669 4.5596 5.26378 0
M  V30 8276 H 783.296 5.21972 5.52674 0
M  V30 8277 N 784.871 -1.49948 0.485112 0
M  V30 8278 C 786.096 -2.073 -0.0645059 0
M  V30 8279 C 786.521 -1.345 -1.31497 0
M  V30 8280 O 785.879 -0.39687 -1.76903 0
M  V30 8281 C 785.927 -3.59201 -0.317304 0
M  V30 8282 O 785.031 -3.88085 -1.39514 0
M  V30 8283 H 784.372 -0.663723 0.0191822 0
M  V30 8284 H 786.902 -1.92963 0.680179 0
M  V30 8285 H 786.912 -4.04227 -0.553604 0
M  V30 8286 H 785.587 -4.11602 0.596387 0
M  V30 8287 H 784.164 -3.54885 -1.14504 0
M  V30 8288 N 786.349 -0.21828 -1.56081 0
M  V30 8289 C 787.76 0.290166 -1.84431 0
M  V30 8290 C 788.111 1.59712 -1.13958 0
M  V30 8291 O 787.236 2.12516 -0.40815 0
M  V30 8292 C 787.831 0.53325 -3.34577 0
M  V30 8293 C 786.39 0.986011 -3.63256 0
M  V30 8294 C 785.537 0.0472798 -2.7726 0
M  V30 8295 H 788.488 -0.441548 -1.52434 0
M  V30 8296 H 788.509 1.37967 -3.54606 0
M  V30 8297 H 788.021 -0.418137 -3.85841 0
M  V30 8298 H 786.122 1.95087 -3.17446 0
M  V30 8299 H 786.235 0.862684 -4.71269 0
M  V30 8300 H 784.599 0.553471 -2.48614 0
M  V30 8301 H 785.382 -0.898966 -3.31321 0
M  V30 8302 N 787.827 1.57504 0.0551401 0
M  V30 8303 C 789.075 1.87684 0.74962 0
M  V30 8304 C 789.396 0.812547 1.77264 0
M  V30 8305 O 788.666 -0.15694 1.9527 0
M  V30 8306 H 787.246 0.6926 0.279846 0
M  V30 8307 H 789.908 1.94881 0.0272745 0
M  V30 8308 H 789.004 2.85734 1.25548 0
M  V30 8309 N 789.305 -0.326896 1.54172 0
M  V30 8310 C 790.551 -1.06304 1.7341 0
M  V30 8311 C 790.906 -1.85791 0.499935 0
M  V30 8312 O 790.199 -1.84753 -0.507625 0
M  V30 8313 C 790.393 -2.0208 2.94785 0
M  V30 8314 C 790.222 -1.32009 4.29888 0
M  V30 8315 C 788.992 -1.05798 4.941 0
M  V30 8316 C 791.19 -0.737721 5.08982 0
M  V30 8317 N 789.172 -0.324836 6.1304 0
M  V30 8318 C 790.543 -0.136006 6.19851 0
M  V30 8319 C 792.598 -0.640206 4.93767 0
M  V30 8320 C 791.301 0.553757 7.17165 0
M  V30 8321 C 793.327 0.0358492 5.91389 0
M  V30 8322 C 792.689 0.626522 7.01608 0
M  V30 8323 H 788.788 -0.372808 0.687414 0
M  V30 8324 H 791.372 -0.34462 1.91626 0
M  V30 8325 H 789.543 -2.71197 2.78041 0
M  V30 8326 H 791.275 -2.68655 3.02666 0
M  V30 8327 H 788.03 -1.34945 4.53968 0
M  V30 8328 H 788.454 0.0274982 6.76994 0
M  V30 8329 H 793.096 -1.0826 4.08705 0
M  V30 8330 H 790.814 1.00799 8.01789 0
M  V30 8331 H 794.4 0.110895 5.81694 0
M  V30 8332 H 793.28 1.14135 7.7585 0
M  V30 8333 N 790.784 -1.46188 -0.588786 0
M  V30 8334 C 792.031 -1.51184 -1.34721 0
M  V30 8335 C 792.359 -0.161084 -1.93832 0
M  V30 8336 O 791.614 0.842557 -1.76634 0
M  V30 8337 C 791.913 -2.55364 -2.50048 0
M  V30 8338 C 791.579 -3.99553 -2.08969 0
M  V30 8339 C 790.241 -4.38811 -1.9748 0
M  V30 8340 C 792.593 -4.90156 -1.77191 0
M  V30 8341 C 789.921 -5.66544 -1.52463 0
M  V30 8342 C 792.273 -6.1832 -1.33654 0
M  V30 8343 C 790.937 -6.5649 -1.20738 0
M  V30 8344 H 790.207 -0.55322 -0.49298 0
M  V30 8345 H 792.854 -1.79634 -0.663627 0
M  V30 8346 H 791.159 -2.20552 -3.23827 0
M  V30 8347 H 792.856 -2.5646 -3.08268 0
M  V30 8348 H 789.446 -3.68518 -2.18843 0
M  V30 8349 H 793.63 -4.60549 -1.84955 0
M  V30 8350 H 788.886 -5.94895 -1.411 0
M  V30 8351 H 793.06 -6.87956 -1.08117 0
M  V30 8352 H 790.687 -7.55362 -0.856307 0
M  V30 8353 N 792.262 0.832906 -1.33792 0
M  V30 8354 C 793.508 1.59053 -1.26782 0
M  V30 8355 C 793.863 1.91705 0.163399 0
M  V30 8356 O 793.156 1.5638 1.10706 0
M  V30 8357 C 793.35 2.9047 -2.08235 0
M  V30 8358 C 793.179 2.70656 -3.59132 0
M  V30 8359 C 791.949 2.67905 -4.28433 0
M  V30 8360 C 794.147 2.42871 -4.53341 0
M  V30 8361 N 792.129 2.39531 -5.65242 0
M  V30 8362 C 793.5 2.24101 -5.78082 0
M  V30 8363 C 795.555 2.28517 -4.42362 0
M  V30 8364 C 794.258 1.92432 -6.93082 0
M  V30 8365 C 796.284 1.98242 -5.57184 0
M  V30 8366 C 795.646 1.80288 -6.80937 0
M  V30 8367 H 791.745 0.584823 -0.51914 0
M  V30 8368 H 794.329 0.977252 -1.68398 0
M  V30 8369 H 792.5 3.49739 -1.6893 0
M  V30 8370 H 794.232 3.55744 -1.92947 0
M  V30 8371 H 790.987 2.81624 -3.80768 0
M  V30 8372 H 791.411 2.28211 -6.37377 0
M  V30 8373 H 796.053 2.41107 -3.47314 0
M  V30 8374 H 793.771 1.78579 -7.88121 0
M  V30 8375 H 797.357 1.87882 -5.50628 0
M  V30 8376 H 796.237 1.57199 -7.68283 0
M  V30 8377 N 793.74 1.17359 1.05189 0
M  V30 8378 C 795.156 0.920861 1.30355 0
M  V30 8379 C 795.356 -0.419993 1.97074 0
M  V30 8380 O 794.412 -1.15696 2.24434 0
M  V30 8381 C 795.725 2.07818 2.1733 0
M  V30 8382 C 797.273 2.1152 2.30712 0
M  V30 8383 C 797.748 3.26637 3.21048 0
M  V30 8384 N 799.239 3.26426 3.28634 0
M  V30 8385 C 799.974 4.12141 3.98657 0
M  V30 8386 N 799.47 5.07966 4.71107 0
M  V30 8387 N 801.263 4.00091 3.94821 0
M  V30 8388 H 793.414 2.03666 0.602821 0
M  V30 8389 H 795.677 0.889294 0.328421 0
M  V30 8390 H 795.383 3.04727 1.75597 0
M  V30 8391 H 795.257 2.02922 3.17966 0
M  V30 8392 H 797.644 1.15196 2.71687 0
M  V30 8393 H 797.725 2.20477 1.29706 0
M  V30 8394 H 797.369 4.23227 2.80788 0
M  V30 8395 H 797.299 3.14917 4.2206 0
M  V30 8396 H 799.79 2.57045 2.77013 0
M  V30 8397 H 800.103 5.69766 5.22099 0
M  V30 8398 H 798.448 5.11936 4.7005 0
M  V30 8399 H 801.639 3.24523 3.37346 0
M  V30 8400 H 801.812 4.6711 4.49123 0
M  V30 8401 N 795.218 -1.23913 0.973828 0
M  V30 8402 C 796.467 -1.91455 0.63464 0
M  V30 8403 C 796.78 -1.76893 -0.834759 0
M  V30 8404 O 797.986 -2.3918 -1.28473 0
M  V30 8405 C 796.442 -3.43172 1.08447 0
M  V30 8406 C 796.05 -3.66409 2.57776 0
M  V30 8407 C 797.794 -4.1653 0.818721 0
M  V30 8408 C 795.701 -5.11728 2.9646 0
M  V30 8409 H 794.631 -0.716881 0.233661 0
M  V30 8410 H 797.282 -1.40457 1.18085 0
M  V30 8411 H 795.664 -3.93242 0.466524 0
M  V30 8412 H 796.838 -3.26913 3.24753 0
M  V30 8413 H 795.153 -3.06349 2.82027 0
M  V30 8414 H 797.75 -5.23603 1.08367 0
M  V30 8415 H 798.093 -4.15578 -0.245128 0
M  V30 8416 H 798.626 -3.72428 1.39793 0
M  V30 8417 H 795.365 -5.17806 4.01941 0
M  V30 8418 H 794.885 -5.52199 2.34172 0
M  V30 8419 H 796.564 -5.80009 2.86703 0
M  V30 8420 N 796.696 -0.74468 -1.38897 0
M  V30 8421 C 797.936 -0.301691 -2.02161 0
M  V30 8422 C 798.3 1.09338 -1.57826 0
M  V30 8423 O 799.501 1.63499 -2.13358 0
M  V30 8424 C 797.772 -0.410601 -3.55034 0
M  V30 8425 S 799.331 -0.0488802 -4.38773 0
M  V30 8426 H 796.149 -0.117583 -0.70121 0
M  V30 8427 H 798.751 -0.973334 -1.69548 0
M  V30 8428 H 797.455 -1.42705 -3.8479 0
M  V30 8429 H 796.986 0.278531 -3.92413 0
M  V30 8430 H 799.001 1.16434 -4.82346 0
M  V30 8431 N 798.174 1.49689 -0.493057 0
M  V30 8432 C 799.42 2.03347 0.0463792 0
M  V30 8433 C 799.775 1.36671 1.35421 0
M  V30 8434 O 799.068 0.4907 1.8521 0
M  V30 8435 C 799.262 3.56427 0.263536 0
M  V30 8436 C 799.091 4.3794 -1.02169 0
M  V30 8437 C 797.861 4.8025 -1.57125 0
M  V30 8438 C 800.059 4.77 -1.9229 0
M  V30 8439 N 798.041 5.46162 -2.80321 0
M  V30 8440 C 799.412 5.42549 -3.00067 0
M  V30 8441 C 801.467 4.58945 -1.93064 0
M  V30 8442 C 800.17 5.91954 -4.08635 0
M  V30 8443 C 802.196 5.09306 -3.00602 0
M  V30 8444 C 801.558 5.74849 -4.07097 0
M  V30 8445 H 797.657 0.781644 -0.0236097 0
M  V30 8446 H 800.241 1.82949 -0.666151 0
M  V30 8447 H 798.412 3.76725 0.945118 0
M  V30 8448 H 800.144 3.96729 0.79927 0
M  V30 8449 H 796.899 4.60228 -1.11746 0
M  V30 8450 H 797.323 5.83711 -3.42944 0
M  V30 8451 H 801.965 4.07685 -1.12039 0
M  V30 8452 H 799.683 6.4224 -4.90463 0
M  V30 8453 H 803.269 4.97152 -3.0221 0
M  V30 8454 H 802.149 6.13113 -4.88939 0
M  V30 8455 N 799.652 0.226554 1.55963 0
M  V30 8456 C 800.898 -0.404387 1.98727 0
M  V30 8457 C 801.231 -1.59059 1.11418 0
M  V30 8458 O 800.506 -1.93729 0.172971 0
M  V30 8459 C 800.789 -0.834081 3.50307 0
M  V30 8460 C 800.642 0.356104 4.48388 0
M  V30 8461 C 801.961 -1.68845 4.06423 0
M  V30 8462 H 799.08 -0.145515 0.722492 0
M  V30 8463 H 801.722 0.323791 1.87221 0
M  V30 8464 H 799.872 -1.45454 3.60244 0
M  V30 8465 H 801.544 0.99432 4.50456 0
M  V30 8466 H 799.787 1.0027 4.22053 0
M  V30 8467 H 800.458 0.0124333 5.51999 0
M  V30 8468 H 802.934 -1.16489 3.99461 0
M  V30 8469 H 801.81 -1.958 5.1279 0
M  V30 8470 H 802.071 -2.65347 3.53615 0
M  V30 8471 N 801.13 -1.57531 -0.0467866 0
M  V30 8472 C 802.093 -2.04379 -1.03738 0
M  V30 8473 C 803.093 -0.944881 -1.3011 0
M  V30 8474 O 804.283 -1.20904 -1.25411 0
M  V30 8475 C 801.415 -2.44572 -2.37482 0
M  V30 8476 H 802.608 -2.93142 -0.633063 0
M  V30 8477 H 800.161 -1.53526 -0.293177 0
M  V30 8478 H 800.896 -1.58911 -2.82697 0
M  V30 8479 H 800.681 -3.24785 -2.19675 0
M  V30 8480 H 802.171 -2.81307 -3.08636 0
M  V30 8481 N 802.608 0.318715 -1.54344 0
M  V30 8482 C 803.857 1.05363 -1.71993 0
M  V30 8483 C 804.17 1.89018 -0.503155 0
M  V30 8484 O 805.376 2.65639 -0.561085 0
M  V30 8485 C 803.832 1.92281 -3.0423 0
M  V30 8486 C 803.44 1.13715 -4.33328 0
M  V30 8487 C 805.184 2.65479 -3.31242 0
M  V30 8488 C 803.091 1.99806 -5.56625 0
M  V30 8489 H 802.021 0.397081 -0.64097 0
M  V30 8490 H 804.672 0.311598 -1.80835 0
M  V30 8491 H 803.054 2.70402 -2.89307 0
M  V30 8492 H 804.228 0.403305 -4.59032 0
M  V30 8493 H 802.543 0.521769 -4.13118 0
M  V30 8494 H 805.14 3.30209 -4.20555 0
M  V30 8495 H 805.483 3.33374 -2.49334 0
M  V30 8496 H 806.016 1.94417 -3.47054 0
M  V30 8497 H 802.755 1.36411 -6.41149 0
M  V30 8498 H 802.275 2.70911 -5.35133 0
M  V30 8499 H 803.954 2.58277 -5.93213 0
M  V30 8500 N 804.086 1.46499 0.581025 0
M  V30 8501 C 805.311 1.55708 1.37002 0
M  V30 8502 C 805.736 0.19942 1.8704 0
M  V30 8503 O 805.094 -0.820731 1.61659 0
M  V30 8504 C 805.142 2.56716 2.53238 0
M  V30 8505 O 804.246 2.10336 3.54729 0
M  V30 8506 H 803.587 0.523912 0.407937 0
M  V30 8507 H 806.117 1.92085 0.704602 0
M  V30 8508 H 806.127 2.76378 3.00132 0
M  V30 8509 H 804.802 3.55307 2.16171 0
M  V30 8510 H 803.379 2.00669 3.14303 0
M  V30 8511 N 805.565 -0.825799 1.34232 0
M  V30 8512 C 806.976 -1.39835 1.23706 0
M  V30 8513 C 807.327 -1.95709 -0.138649 0
M  V30 8514 O 806.452 -1.89833 -1.03886 0
M  V30 8515 C 807.047 -2.54203 2.23978 0
M  V30 8516 C 805.606 -3.07374 2.17251 0
M  V30 8517 C 804.753 -1.80232 2.10741 0
M  V30 8518 H 807.704 -0.630442 1.4564 0
M  V30 8519 H 807.725 -3.32214 1.8551 0
M  V30 8520 H 807.237 -2.13506 3.24094 0
M  V30 8521 H 805.338 -3.52583 1.20483 0
M  V30 8522 H 805.451 -3.6666 3.08379 0
M  V30 8523 H 803.815 -2.01012 1.56417 0
M  V30 8524 H 804.598 -1.41713 3.12686 0
M  V30 8525 N 807.043 -1.17915 -1.04565 0
M  V30 8526 C 807.973 -0.925033 -2.14395 0
M  V30 8527 C 808.954 0.135375 -1.6956 0
M  V30 8528 O 810.139 -0.0161774 -1.94193 0
M  V30 8529 C 807.269 -0.444469 -3.44444 0
M  V30 8530 C 806.223 -1.44478 -4.02877 0
M  V30 8531 C 805.549 -0.821933 -5.28345 0
M  V30 8532 C 806.849 -2.81995 -4.39632 0
M  V30 8533 H 808.543 -1.84354 -2.35911 0
M  V30 8534 H 806.089 -0.887806 -1.13375 0
M  V30 8535 H 808.042 -0.254078 -4.20633 0
M  V30 8536 H 806.766 0.509592 -3.226 0
M  V30 8537 H 805.425 -1.62203 -3.28764 0
M  V30 8538 H 805.073 0.139161 -5.02807 0
M  V30 8539 H 804.773 -1.48976 -5.68401 0
M  V30 8540 H 806.297 -0.641959 -6.07216 0
M  V30 8541 H 807.711 -2.67952 -5.06828 0
M  V30 8542 H 806.108 -3.45414 -4.90723 0
M  V30 8543 H 807.178 -3.35927 -3.49687 0
M  V30 8544 N 808.521 1.23394 -0.980386 0
M  V30 8545 C 809.768 1.91809 -0.649261 0
M  V30 8546 C 810.096 1.765 0.817197 0
M  V30 8547 O 809.351 1.11979 1.60497 0
M  V30 8548 C 809.65 3.43542 -0.985588 0
M  V30 8549 C 809.316 3.79031 -2.44225 0
M  V30 8550 C 807.978 3.88429 -2.84035 0
M  V30 8551 C 810.33 3.96145 -3.38702 0
M  V30 8552 C 807.658 4.12368 -4.17336 0
M  V30 8553 C 810.01 4.21583 -4.71646 0
M  V30 8554 C 808.674 4.29203 -5.11215 0
M  V30 8555 H 807.944 0.70188 -0.237581 0
M  V30 8556 H 810.591 1.4642 -1.23424 0
M  V30 8557 H 808.896 3.90503 -0.318521 0
M  V30 8558 H 810.593 3.94708 -0.707596 0
M  V30 8559 H 807.183 3.7229 -2.12362 0
M  V30 8560 H 811.367 3.88274 -3.09123 0
M  V30 8561 H 806.623 4.1649 -4.47601 0
M  V30 8562 H 810.797 4.33769 -5.4481 0
M  V30 8563 H 808.424 4.47505 -6.14527 0
M  V30 8564 N 809.999 0.752036 1.385 0
M  V30 8565 C 810.929 0.138718 2.33088 0
M  V30 8566 C 811.91 -0.705318 1.54788 0
M  V30 8567 O 813.095 -0.646821 1.83112 0
M  V30 8568 C 810.225 -0.75641 3.38963 0
M  V30 8569 C 809.179 -0.0152239 4.27997 0
M  V30 8570 C 808.505 -1.0285 5.24715 0
M  V30 8571 C 809.805 1.15226 5.09431 0
M  V30 8572 H 811.499 0.928852 2.84627 0
M  V30 8573 H 809.045 0.448111 1.3685 0
M  V30 8574 H 810.998 -1.19513 4.04097 0
M  V30 8575 H 809.722 -1.57885 2.85902 0
M  V30 8576 H 808.381 0.404061 3.64366 0
M  V30 8577 H 808.029 -1.84496 4.67943 0
M  V30 8578 H 807.729 -0.537238 5.85139 0
M  V30 8579 H 809.253 -1.46657 5.92726 0
M  V30 8580 H 810.667 0.791161 5.67815 0
M  V30 8581 H 809.064 1.57428 5.79082 0
M  V30 8582 H 810.134 1.9659 4.43261 0
M  V30 8583 N 811.477 -1.49425 0.500989 0
M  V30 8584 C 812.407 -2.31971 -0.266775 0
M  V30 8585 C 813.388 -1.40245 -0.962563 0
M  V30 8586 O 814.573 -1.69154 -0.953968 0
M  V30 8587 C 811.703 -3.20757 -1.33163 0
M  V30 8588 C 810.657 -4.21275 -0.75572 0
M  V30 8589 C 809.983 -4.98997 -1.92109 0
M  V30 8590 C 811.283 -5.21686 0.253213 0
M  V30 8591 H 812.977 -2.96408 0.422237 0
M  V30 8592 H 810.523 -1.4254 0.204505 0
M  V30 8593 H 812.476 -3.77315 -1.87646 0
M  V30 8594 H 811.2 -2.54263 -2.04983 0
M  V30 8595 H 809.859 -3.65861 -0.232637 0
M  V30 8596 H 809.507 -4.28951 -2.62698 0
M  V30 8597 H 809.207 -5.67011 -1.54182 0
M  V30 8598 H 810.731 -5.584 -2.47026 0
M  V30 8599 H 812.145 -5.72939 -0.203483 0
M  V30 8600 H 810.542 -5.9759 0.548322 0
M  V30 8601 H 811.612 -4.70596 1.16909 0
M  V30 8602 N 812.955 -0.234822 -1.55841 0
M  V30 8603 C 814.202 0.39326 -1.98645 0
M  V30 8604 C 814.53 1.58823 -1.12274 0
M  V30 8605 O 813.785 1.94954 -0.170731 0
M  V30 8606 C 814.084 0.858032 -3.46947 0
M  V30 8607 C 813.75 -0.227858 -4.50324 0
M  V30 8608 C 812.412 -0.526128 -4.78315 0
M  V30 8609 C 814.764 -0.961576 -5.12253 0
M  V30 8610 C 812.092 -1.5624 -5.65514 0
M  V30 8611 C 814.444 -1.98728 -6.00575 0
M  V30 8612 C 813.108 -2.29233 -6.26904 0
M  V30 8613 H 812.378 0.143904 -0.726892 0
M  V30 8614 H 815.025 -0.34012 -1.88455 0
M  V30 8615 H 813.33 1.67041 -3.54408 0
M  V30 8616 H 815.027 1.35407 -3.77447 0
M  V30 8617 H 811.617 0.0147624 -4.28597 0
M  V30 8618 H 815.801 -0.744388 -4.90686 0
M  V30 8619 H 811.057 -1.80422 -5.84173 0
M  V30 8620 H 815.231 -2.5608 -6.47608 0
M  V30 8621 H 812.858 -3.09671 -6.94268 0
M  V30 8622 N 814.433 1.57553 0.0384317 0
M  V30 8623 C 815.682 1.88022 0.730108 0
M  V30 8624 C 815.995 0.83209 1.77019 0
M  V30 8625 O 817.201 1.0257 2.51379 0
M  V30 8626 C 815.657 3.33637 1.3496 0
M  V30 8627 C 815.265 4.46659 0.346352 0
M  V30 8628 C 817.009 3.73266 2.02169 0
M  V30 8629 C 814.916 5.8333 0.973652 0
M  V30 8630 H 813.846 0.701496 0.276442 0
M  V30 8631 H 816.497 1.83493 -0.0158028 0
M  V30 8632 H 814.879 3.32882 2.1449 0
M  V30 8633 H 816.053 4.58868 -0.421558 0
M  V30 8634 H 814.368 4.15802 -0.223133 0
M  V30 8635 H 816.965 4.72689 2.49938 0
M  V30 8636 H 817.308 3.04776 2.8358 0
M  V30 8637 H 817.841 3.76156 1.29427 0
M  V30 8638 H 814.58 6.55197 0.199163 0
M  V30 8639 H 814.1 5.7486 1.71162 0
M  V30 8640 H 815.779 6.29757 1.48376 0
M  V30 8641 N 815.911 -0.310526 1.54511 0
M  V30 8642 C 817.16 -1.0445 1.72549 0
M  V30 8643 C 817.473 -1.88748 0.513172 0
M  V30 8644 O 818.679 -2.65338 0.575165 0
M  V30 8645 C 817.135 -1.90665 3.05246 0
M  V30 8646 C 816.743 -1.11415 4.33925 0
M  V30 8647 C 818.487 -2.63719 3.32645 0
M  V30 8648 C 816.394 -1.96852 5.57677 0
M  V30 8649 H 815.324 -0.393676 0.643067 0
M  V30 8650 H 817.975 -0.302003 1.80998 0
M  V30 8651 H 816.357 -2.68864 2.90737 0
M  V30 8652 H 817.531 -0.378956 4.59239 0
M  V30 8653 H 815.846 -0.499853 4.13389 0
M  V30 8654 H 818.443 -3.27974 4.223 0
M  V30 8655 H 818.786 -3.32047 2.51098 0
M  V30 8656 H 819.319 -1.92574 3.48081 0
M  V30 8657 H 816.058 -1.33009 6.41864 0
M  V30 8658 H 815.578 -2.68069 5.36562 0
M  V30 8659 H 817.257 -2.55127 5.94575 0
M  V30 8660 N 817.389 -1.46805 -0.573248 0
M  V30 8661 C 818.629 -1.5417 -1.34205 0
M  V30 8662 C 818.993 -0.192675 -1.91031 0
M  V30 8663 O 820.194 -0.141111 -2.68429 0
M  V30 8664 C 818.465 -2.61682 -2.43428 0
M  V30 8665 S 820.024 -2.88519 -3.30609 0
M  V30 8666 H 816.842 -0.544592 -0.4571 0
M  V30 8667 H 819.444 -1.84094 -0.658001 0
M  V30 8668 H 818.148 -3.58319 -2.00088 0
M  V30 8669 H 817.679 -2.33521 -3.16594 0
M  V30 8670 H 819.694 -2.2451 -4.42504 0
M  V30 8671 N 818.867 0.818669 -1.34668 0
M  V30 8672 C 820.092 1.61193 -1.30505 0
M  V30 8673 C 820.517 1.87734 0.117341 0
M  V30 8674 O 819.875 1.45591 1.08042 0
M  V30 8675 C 819.923 2.92733 -2.1057 0
M  V30 8676 O 819.027 3.85 -1.47813 0
M  V30 8677 H 818.368 0.490085 -0.44801 0
M  V30 8678 H 820.898 1.01701 -1.77534 0
M  V30 8679 H 820.908 3.42262 -2.22082 0
M  V30 8680 H 819.583 2.7274 -3.13984 0
M  V30 8681 H 818.16 3.43525 -1.45069 0
M  V30 8682 N 820.346 1.18468 1.03938 0
M  V30 8683 C 821.593 0.980833 1.77161 0
M  V30 8684 C 821.921 -0.489425 1.88242 0
M  V30 8685 O 821.176 -1.37961 1.388 0
M  V30 8686 C 821.475 1.58229 3.20466 0
M  V30 8687 C 821.141 3.07889 3.29416 0
M  V30 8688 C 819.803 3.48737 3.31566 0
M  V30 8689 C 822.155 4.03903 3.29411 0
M  V30 8690 C 819.483 4.84171 3.31355 0
M  V30 8691 C 821.835 5.39253 3.3074 0
M  V30 8692 C 820.499 5.79547 3.31182 0
M  V30 8693 H 819.769 0.358912 0.648277 0
M  V30 8694 H 822.416 1.47552 1.22069 0
M  V30 8695 H 820.721 1.00964 3.78568 0
M  V30 8696 H 822.418 1.39998 3.75768 0
M  V30 8697 H 819.008 2.75335 3.28464 0
M  V30 8698 H 823.192 3.73395 3.2694 0
M  V30 8699 H 818.448 5.14685 3.30015 0
M  V30 8700 H 822.622 6.13417 3.29686 0
M  V30 8701 H 820.249 6.84466 3.30772 0
M  V30 8702 N 821.824 -1.22873 0.986916 0
M  V30 8703 C 822.754 -2.2688 0.552064 0
M  V30 8704 C 823.735 -1.64883 -0.418048 0
M  V30 8705 O 824.92 -1.9171 -0.30999 0
M  V30 8706 C 822.05 -3.47018 -0.139959 0
M  V30 8707 C 821.004 -4.21411 0.748091 0
M  V30 8708 C 820.33 -5.34645 -0.0765132 0
M  V30 8709 C 821.63 -4.80726 2.04206 0
M  V30 8710 H 823.324 -2.63507 1.42143 0
M  V30 8711 H 820.87 -1.26668 0.68492 0
M  V30 8712 H 822.823 -4.18931 -0.455527 0
M  V30 8713 H 821.547 -3.0947 -1.04382 0
M  V30 8714 H 820.206 -3.51325 1.04721 0
M  V30 8715 H 819.854 -4.93339 -0.981109 0
M  V30 8716 H 819.554 -5.85342 0.514606 0
M  V30 8717 H 821.078 -6.09377 -0.386313 0
M  V30 8718 H 822.492 -5.44612 1.79083 0
M  V30 8719 H 820.889 -5.41737 2.5815 0
M  V30 8720 H 821.959 -4.01109 2.72469 0
M  V30 8721 N 823.302 -0.75937 -1.38099 0
M  V30 8722 C 824.235 -0.0838362 -2.28046 0
M  V30 8723 C 825.213 0.722229 -1.4568 0
M  V30 8724 O 826.397 0.699629 -1.75036 0
M  V30 8725 C 823.524 0.887916 -3.26854 0
M  V30 8726 C 822.57 0.167374 -4.26171 0
M  V30 8727 S 823.403 -1.13592 -5.23314 0
M  V30 8728 C 824.559 -0.167385 -6.25676 0
M  V30 8729 H 824.792 -0.846564 -2.84992 0
M  V30 8730 H 822.325 -0.552206 -1.44188 0
M  V30 8731 H 824.283 1.44322 -3.84293 0
M  V30 8732 H 822.944 1.62366 -2.68879 0
M  V30 8733 H 822.137 0.903567 -4.95834 0
M  V30 8734 H 821.739 -0.316572 -3.72658 0
M  V30 8735 H 824.031 0.664598 -6.74232 0
M  V30 8736 H 824.974 -0.831836 -7.03197 0
M  V30 8737 H 825.382 0.21589 -5.64087 0
M  V30 8738 N 824.78 1.49157 -0.508906 0
M  V30 8739 C 826.005 2.07376 0.0315182 0
M  V30 8740 C 826.43 1.36575 1.2934 0
M  V30 8741 O 825.788 0.424963 1.76249 0
M  V30 8742 C 825.836 3.59661 0.260118 0
M  V30 8743 O 824.94 3.90255 1.33322 0
M  V30 8744 H 824.281 0.663334 -0.029739 0
M  V30 8745 H 826.811 1.91857 -0.710791 0
M  V30 8746 H 826.821 4.05056 0.489225 0
M  V30 8747 H 825.496 4.10601 -0.661794 0
M  V30 8748 H 824.073 3.56661 1.08844 0
M  V30 8749 N 826.258 0.243083 1.55714 0
M  V30 8750 C 827.669 -0.260788 1.8487 0
M  V30 8751 C 828.02 -1.57879 1.16485 0
M  V30 8752 O 827.145 -2.1184 0.441908 0
M  V30 8753 C 827.74 -0.479954 3.35383 0
M  V30 8754 C 826.299 -0.928096 3.64778 0
M  V30 8755 C 825.446 -0.00316416 2.773 0
M  V30 8756 H 828.397 0.465743 1.51712 0
M  V30 8757 H 828.418 -1.32308 3.56756 0
M  V30 8758 H 827.93 0.479468 3.85127 0
M  V30 8759 H 826.031 -1.90012 3.20509 0
M  V30 8760 H 826.144 -0.7876 4.72582 0
M  V30 8761 H 824.508 -0.513849 2.49463 0
M  V30 8762 H 825.291 0.951562 3.29849 0
M  V30 8763 N 827.736 -1.57571 -0.0300757 0
M  V30 8764 C 829.147 -1.77567 -0.576802 0
M  V30 8765 C 829.498 -0.874034 -1.75656 0
M  V30 8766 O 828.623 -0.0686124 -2.16291 0
M  V30 8767 C 829.218 -3.22016 -1.05315 0
M  V30 8768 C 827.777 -3.43212 -1.5454 0
M  V30 8769 C 826.924 -2.73061 -0.483033 0
M  V30 8770 H 829.875 -1.57483 0.196151 0
M  V30 8771 H 829.896 -3.28474 -1.92055 0
M  V30 8772 H 829.408 -3.87613 -0.194298 0
M  V30 8773 H 827.509 -2.82788 -2.42615 0
M  V30 8774 H 827.622 -4.5182 -1.5936 0
M  V30 8775 H 825.986 -2.36805 -0.937835 0
M  V30 8776 H 826.769 -3.4134 0.366341 0
M  V30 8777 N 829.214 0.302327 -1.54673 0
M  V30 8778 C 830.146 1.39443 -1.81902 0
M  V30 8779 C 831.159 1.46891 -0.701914 0
M  V30 8780 O 832.348 1.49233 -0.979369 0
M  V30 8781 C 829.448 2.77824 -1.9408 0
M  V30 8782 C 828.621 2.93324 -3.24468 0
M  V30 8783 C 827.68 4.12196 -3.27079 0
M  V30 8784 O 826.706 4.04344 -4.00617 0
M  V30 8785 N 827.908 5.22768 -2.52376 0
M  V30 8786 H 830.673 1.1644 -2.76155 0
M  V30 8787 H 828.234 0.492392 -1.54231 0
M  V30 8788 H 830.226 3.5559 -1.9323 0
M  V30 8789 H 828.796 2.9378 -1.06828 0
M  V30 8790 H 828.016 2.02682 -3.38103 0
M  V30 8791 H 829.304 3.0059 -4.10516 0
M  V30 8792 H 828.702 5.32027 -1.92259 0
M  V30 8793 H 827.259 5.98874 -2.57281 0
M  V30 8794 N 830.692 1.47107 0.565454 0
M  V30 8795 C 831.622 1.61846 1.68309 0
M  V30 8796 C 832.603 0.468159 1.63531 0
M  V30 8797 O 833.788 0.696504 1.8128 0
M  V30 8798 C 830.918 1.62474 3.06952 0
M  V30 8799 C 829.872 2.76649 3.26572 0
M  V30 8800 C 829.198 2.62345 4.65917 0
M  V30 8801 C 830.498 4.18319 3.12741 0
M  V30 8802 H 832.192 2.55407 1.5623 0
M  V30 8803 H 829.738 1.22916 0.750179 0
M  V30 8804 H 831.691 1.71378 3.84977 0
M  V30 8805 H 830.415 0.654692 3.19971 0
M  V30 8806 H 829.074 2.67242 2.50952 0
M  V30 8807 H 828.722 1.63386 4.75725 0
M  V30 8808 H 828.422 3.38936 4.79996 0
M  V30 8809 H 829.946 2.73165 5.46089 0
M  V30 8810 H 831.36 4.28745 3.80593 0
M  V30 8811 H 829.757 4.95632 3.38333 0
M  V30 8812 H 830.827 4.37263 2.09592 0
M  V30 8813 N 832.17 -0.811516 1.35101 0
M  V30 8814 C 833.586 -1.10634 1.15031 0
M  V30 8815 C 833.786 -2.01459 -0.0405379 0
M  V30 8816 O 832.842 -2.42235 -0.712635 0
M  V30 8817 C 834.155 -1.74207 2.45097 0
M  V30 8818 C 835.703 -1.8665 2.51258 0
M  V30 8819 C 836.178 -2.53638 3.81355 0
M  V30 8820 N 837.669 -2.61128 3.82579 0
M  V30 8821 C 838.404 -3.13717 4.79968 0
M  V30 8822 N 837.9 -3.66782 5.87744 0
M  V30 8823 N 839.693 -3.12224 4.67411 0
M  V30 8824 H 831.844 -0.207641 2.11383 0
M  V30 8825 H 834.107 -0.154697 0.935293 0
M  V30 8826 H 833.813 -1.14936 3.32389 0
M  V30 8827 H 833.687 -2.73958 2.59281 0
M  V30 8828 H 836.074 -2.45066 1.64398 0
M  V30 8829 H 836.155 -0.857678 2.40993 0
M  V30 8830 H 835.799 -1.95873 4.68611 0
M  V30 8831 H 835.729 -3.55047 3.88907 0
M  V30 8832 H 838.22 -2.23527 3.04703 0
M  V30 8833 H 838.533 -4.05194 6.58056 0
M  V30 8834 H 836.878 -3.64994 5.91443 0
M  V30 8835 H 840.069 -2.70042 3.82354 0
M  V30 8836 H 840.242 -3.52903 5.43474 0
M  V30 8837 N 833.648 -1.19017 -1.03309 0
M  V30 8838 C 834.578 -0.94772 -2.13402 0
M  V30 8839 C 835.559 0.117383 -1.69694 0
M  V30 8840 O 836.744 -0.0367733 -1.94165 0
M  V30 8841 C 833.874 -0.480977 -3.43953 0
M  V30 8842 C 832.828 -1.48743 -4.01322 0
M  V30 8843 C 832.154 -0.877924 -5.27443 0
M  V30 8844 C 833.454 -2.86642 -4.36616 0
M  V30 8845 H 835.148 -1.86846 -2.33942 0
M  V30 8846 H 832.694 -0.899781 -1.12427 0
M  V30 8847 H 834.647 -0.298677 -4.2034 0
M  V30 8848 H 833.371 0.475348 -3.23122 0
M  V30 8849 H 832.03 -1.65681 -3.27025 0
M  V30 8850 H 831.678 0.0858232 -5.02927 0
M  V30 8851 H 831.378 -1.54996 -5.66789 0
M  V30 8852 H 832.902 -0.706326 -6.06501 0
M  V30 8853 H 834.316 -2.73312 -5.03958 0
M  V30 8854 H 832.713 -3.50599 -4.87032 0
M  V30 8855 H 833.783 -3.39617 -3.46105 0
M  V30 8856 N 835.127 1.22348 -0.993418 0
M  V30 8857 C 836.374 1.9111 -0.669568 0
M  V30 8858 C 836.702 1.77357 0.79843 0
M  V30 8859 O 835.957 1.13675 1.593 0
M  V30 8860 C 836.256 3.42477 -1.02197 0
M  V30 8861 C 835.922 3.7642 -2.48232 0
M  V30 8862 C 834.584 3.85395 -2.88139 0
M  V30 8863 C 836.936 3.9253 -3.42884 0
M  V30 8864 C 834.264 4.07918 -4.21687 0
M  V30 8865 C 836.616 4.16557 -4.76091 0
M  V30 8866 C 835.28 4.23757 -5.15739 0
M  V30 8867 H 834.55 0.699321 -0.245012 0
M  V30 8868 H 837.197 1.45102 -1.2497 0
M  V30 8869 H 835.502 3.90143 -0.359921 0
M  V30 8870 H 837.199 3.93935 -0.74942 0
M  V30 8871 H 833.789 3.70017 -2.16299 0
M  V30 8872 H 837.973 3.84974 -3.13224 0
M  V30 8873 H 833.229 4.11719 -4.51993 0
M  V30 8874 H 837.403 4.27966 -5.4938 0
M  V30 8875 H 835.03 4.40962 -6.19239 0
M  V30 8876 N 836.605 0.766683 1.37694 0
M  V30 8877 C 837.537 0.107798 2.28946 0
M  V30 8878 C 838.55 -0.669701 1.48387 0
M  V30 8879 O 839.739 -0.508629 1.711 0
M  V30 8880 C 836.839 -0.871084 3.27514 0
M  V30 8881 C 836.012 -0.148471 4.37148 0
M  V30 8882 C 835.071 -1.03998 5.1582 0
M  V30 8883 O 834.097 -0.505639 5.6695 0
M  V30 8884 N 835.299 -2.36679 5.3006 0
M  V30 8885 H 838.064 0.89154 2.86132 0
M  V30 8886 H 835.625 0.618593 1.49616 0
M  V30 8887 H 837.617 -1.47081 3.77027 0
M  V30 8888 H 836.187 -1.55582 2.71133 0
M  V30 8889 H 835.407 0.632117 3.89099 0
M  V30 8890 H 836.695 0.351045 5.07588 0
M  V30 8891 H 836.093 -2.82532 4.90094 0
M  V30 8892 H 834.65 -2.9167 5.82899 0
M  V30 8893 N 838.083 -1.48885 0.516809 0
M  V30 8894 C 839.313 -2.06592 -0.018375 0
M  V30 8895 C 839.721 -1.37543 -1.29917 0
M  V30 8896 O 839.064 -0.452527 -1.78039 0
M  V30 8897 C 839.126 -3.58016 -0.326315 0
M  V30 8898 C 838.79 -4.48853 0.859072 0
M  V30 8899 C 839.787 -4.89422 1.75391 0
M  V30 8900 C 837.472 -4.90937 1.06235 0
M  V30 8901 C 839.466 -5.70831 2.83604 0
M  V30 8902 C 837.153 -5.72119 2.14763 0
M  V30 8903 C 838.151 -6.11972 3.03281 0
M  V30 8904 O 837.839 -6.91527 4.09934 0
M  V30 8905 H 837.571 -0.675559 0.0244023 0
M  V30 8906 H 840.125 -1.92442 0.718005 0
M  V30 8907 H 838.355 -3.70231 -1.1165 0
M  V30 8908 H 840.044 -3.97898 -0.801999 0
M  V30 8909 H 840.81 -4.57542 1.60875 0
M  V30 8910 H 836.689 -4.59409 0.382677 0
M  V30 8911 H 840.233 -6.01857 3.52724 0
M  V30 8912 H 836.13 -6.03412 2.29268 0
M  V30 8913 H 836.898 -7.0986 4.07482 0
M  V30 8914 N 839.561 -0.251338 -1.55583 0
M  V30 8915 C 840.509 0.662534 -2.22965 0
M  V30 8916 C 841.503 1.17662 -1.21869 0
M  V30 8917 O 842.709 1.133 -1.39868 0
M  V30 8918 H 839.084 0.232151 -0.715269 0
M  V30 8919 H 841.055 0.0711252 -2.98315 0
M  V30 8920 C 839.804 1.84646 -2.94621 0
M  V30 8921 H 839.127 1.46003 -3.72187 0
M  V30 8922 H 840.567 2.46303 -3.45124 0
M  V30 8923 C 839.026 2.72034 -1.98744 0
M  V30 8924 O 839.556 3.71695 -1.52335 0
M  V30 8925 N 837.762 2.38695 -1.6575 0
M  V30 8926 H 837.309 1.57702 -2.03685 0
M  V30 8927 H 837.267 2.9744 -1.01867 0
M  V30 8928 N 841.039 1.57585 0.0217189 0
M  V30 8929 C 842.269 1.9359 0.721572 0
M  V30 8930 C 842.677 0.850132 1.69025 0
M  V30 8931 O 842.02 -0.181539 1.82801 0
M  V30 8932 C 842.082 3.25445 1.52729 0
M  V30 8933 C 841.746 4.51251 0.722586 0
M  V30 8934 C 842.743 5.19896 0.0196598 0
M  V30 8935 C 840.428 4.97745 0.674959 0
M  V30 8936 C 842.422 6.33319 -0.720114 0
M  V30 8937 C 840.109 6.11062 -0.068555 0
M  V30 8938 C 841.107 6.78704 -0.764845 0
M  V30 8939 O 840.795 7.89852 -1.49627 0
M  V30 8940 H 840.527 0.643409 0.207366 0
M  V30 8941 H 843.081 2.05391 -0.0189346 0
M  V30 8942 H 841.311 3.0999 2.31178 0
M  V30 8943 H 843 3.46721 2.11044 0
M  V30 8944 H 843.766 4.84977 0.0474394 0
M  V30 8945 H 839.645 4.44934 1.20643 0
M  V30 8946 H 843.189 6.86051 -1.26413 0
M  V30 8947 H 839.086 6.45425 -0.0982318 0
M  V30 8948 H 839.854 8.06251 -1.41071 0
M  V30 8949 N 842.517 -0.29412 1.54831 0
M  V30 8950 C 843.928 -0.866651 1.65366 0
M  V30 8951 C 844.279 -1.87834 0.56681 0
M  V30 8952 O 843.404 -2.14374 -0.295389 0
M  V30 8953 C 843.999 -1.57869 2.99771 0
M  V30 8954 C 842.558 -2.09954 3.12404 0
M  V30 8955 C 841.705 -0.934492 2.6108 0
M  V30 8956 H 844.656 -0.0709551 1.58541 0
M  V30 8957 H 844.677 -2.44462 2.91579 0
M  V30 8958 H 844.189 -0.84212 3.78853 0
M  V30 8959 H 842.29 -2.86637 2.38055 0
M  V30 8960 H 842.403 -2.32934 4.18663 0
M  V30 8961 H 840.767 -1.32199 2.17705 0
M  V30 8962 H 841.55 -0.211768 3.42646 0
M  V30 8963 N 843.995 -1.47404 -0.557645 0
M  V30 8964 C 845.225 -1.57393 -1.33832 0
M  V30 8965 C 845.633 -0.222978 -1.87881 0
M  V30 8966 O 844.976 0.793854 -1.65661 0
M  V30 8967 C 845.038 -2.53882 -2.54528 0
M  V30 8968 C 844.702 -3.99585 -2.21767 0
M  V30 8969 C 845.699 -4.88082 -1.79087 0
M  V30 8970 C 843.384 -4.44917 -2.3314 0
M  V30 8971 C 845.378 -6.1993 -1.48209 0
M  V30 8972 C 843.065 -5.76793 -2.01874 0
M  V30 8973 C 844.063 -6.64121 -1.59476 0
M  V30 8974 O 843.751 -7.93546 -1.28607 0
M  V30 8975 H 843.483 -0.534172 -0.41429 0
M  V30 8976 H 846.037 -1.93733 -0.682404 0
M  V30 8977 H 844.267 -2.12609 -3.23009 0
M  V30 8978 H 845.956 -2.54003 -3.16603 0
M  V30 8979 H 846.722 -4.54307 -1.69794 0
M  V30 8980 H 842.601 -3.77152 -2.65099 0
M  V30 8981 H 846.145 -6.88049 -1.15043 0
M  V30 8982 H 842.042 -6.1011 -2.10799 0
M  V30 8983 H 842.81 -8.06046 -1.42241 0
M  V30 8984 N 845.473 0.80434 -1.35529 0
M  V30 8985 C 846.719 1.56328 -1.30127 0
M  V30 8986 C 847.074 1.92008 0.122699 0
M  V30 8987 O 846.367 1.58693 1.07364 0
M  V30 8988 C 846.561 2.85988 -2.14349 0
M  V30 8989 C 846.39 2.62977 -3.64792 0
M  V30 8990 C 845.16 2.58757 -4.34019 0
M  V30 8991 C 847.358 2.332 -4.58391 0
M  V30 8992 N 845.34 2.27487 -5.70195 0
M  V30 8993 C 846.711 2.11788 -5.82706 0
M  V30 8994 C 848.766 2.19082 -4.4711 0
M  V30 8995 C 847.469 1.77688 -6.97008 0
M  V30 8996 C 849.495 1.86378 -5.61264 0
M  V30 8997 C 848.857 1.65804 -6.84608 0
M  V30 8998 H 844.956 0.57368 -0.531428 0
M  V30 8999 H 847.54 0.941313 -1.70433 0
M  V30 9000 H 845.711 3.46077 -1.76311 0
M  V30 9001 H 847.443 3.51571 -2.00449 0
M  V30 9002 H 844.198 2.73484 -3.86656 0
M  V30 9003 H 844.622 2.1464 -6.42074 0
M  V30 9004 H 849.264 2.33686 -3.5235 0
M  V30 9005 H 846.982 1.61822 -7.91732 0
M  V30 9006 H 850.568 1.7616 -5.5449 0
M  V30 9007 H 849.448 1.40868 -7.71444 0
M  V30 9008 N 846.951 1.19563 1.02676 0
M  V30 9009 C 848.176 1.02556 1.80269 0
M  V30 9010 C 848.601 -0.421056 1.83327 0
M  V30 9011 O 847.959 -1.30279 1.26084 0
M  V30 9012 C 848.007 1.60165 3.23078 0
M  V30 9013 O 847.111 0.832404 4.03912 0
M  V30 9014 H 846.452 0.362354 0.556413 0
M  V30 9015 H 848.982 1.58633 1.29216 0
M  V30 9016 H 848.992 1.6347 3.7382 0
M  V30 9017 H 847.667 2.65454 3.20167 0
M  V30 9018 H 846.244 0.872768 3.62543 0
M  V30 9019 N 848.429 -1.21819 0.999893 0
M  V30 9020 C 849.678 -1.90066 0.675108 0
M  V30 9021 C 849.991 -1.78624 -0.79705 0
M  V30 9022 O 851.197 -2.41851 -1.23371 0
M  V30 9023 C 849.653 -3.40795 1.15702 0
M  V30 9024 C 849.261 -3.60859 2.6549 0
M  V30 9025 C 851.005 -4.147 0.906889 0
M  V30 9026 C 848.912 -5.05324 3.07248 0
M  V30 9027 H 847.842 -0.711763 0.248815 0
M  V30 9028 H 850.493 -1.3792 1.21038 0
M  V30 9029 H 848.875 -3.92164 0.549832 0
M  V30 9030 H 850.049 -3.19951 3.31614 0
M  V30 9031 H 848.364 -3.00298 2.88461 0
M  V30 9032 H 850.961 -5.21187 1.1945 0
M  V30 9033 H 851.304 -4.16004 -0.156923 0
M  V30 9034 H 851.837 -3.69379 1.47662 0
M  V30 9035 H 848.576 -5.09164 4.12834 0
M  V30 9036 H 848.096 -5.47108 2.45832 0
M  V30 9037 H 849.775 -5.73797 2.98941 0
M  V30 9038 N 849.908 -0.773975 -1.37286 0
M  V30 9039 C 851.157 -0.335977 -1.98882 0
M  V30 9040 C 851.47 1.09416 -1.62134 0
M  V30 9041 O 852.676 1.63366 -2.1685 0
M  V30 9042 C 851.132 -0.549756 -3.55676 0
M  V30 9043 C 850.74 -1.9903 -4.01361 0
M  V30 9044 C 852.484 -0.175493 -4.24137 0
M  V30 9045 C 850.391 -2.15156 -5.50874 0
M  V30 9046 H 849.321 -0.121877 -0.744085 0
M  V30 9047 H 851.972 -0.953419 -1.56787 0
M  V30 9048 H 850.354 0.137175 -3.95762 0
M  V30 9049 H 851.528 -2.71237 -3.72515 0
M  V30 9050 H 849.843 -2.32137 -3.4569 0
M  V30 9051 H 852.44 -0.274463 -5.33995 0
M  V30 9052 H 852.783 0.874524 -4.07011 0
M  V30 9053 H 853.316 -0.815058 -3.89361 0
M  V30 9054 H 850.055 -3.18485 -5.72929 0
M  V30 9055 H 849.575 -1.47435 -5.81397 0
M  V30 9056 H 851.254 -1.95124 -6.16876 0
M  V30 9057 N 851.386 1.48609 -0.524698 0
M  V30 9058 C 852.316 2.32366 0.229837 0
M  V30 9059 C 853.297 1.41759 0.940129 0
M  V30 9060 O 854.482 1.7065 0.926936 0
M  V30 9061 C 851.612 3.22835 1.28043 0
M  V30 9062 C 850.566 4.22424 0.688603 0
M  V30 9063 C 849.892 5.0199 1.84146 0
M  V30 9064 C 851.192 5.21217 -0.336176 0
M  V30 9065 H 852.886 2.95698 -0.469339 0
M  V30 9066 H 850.432 1.42197 -0.227156 0
M  V30 9067 H 852.385 3.80253 1.8162 0
M  V30 9068 H 851.109 2.57492 2.00912 0
M  V30 9069 H 849.768 3.66185 0.174402 0
M  V30 9070 H 849.416 4.33076 2.5584 0
M  V30 9071 H 849.116 5.69392 1.45142 0
M  V30 9072 H 850.64 5.62259 2.38111 0
M  V30 9073 H 852.054 5.7319 0.112307 0
M  V30 9074 H 850.451 5.96642 -0.643324 0
M  V30 9075 H 851.521 4.68676 -1.24381 0
M  V30 9076 N 852.864 0.259585 1.55447 0
M  V30 9077 C 854.112 -0.360893 1.98852 0
M  V30 9078 C 854.433 -1.57535 1.14924 0
M  V30 9079 O 853.703 -1.94485 0.235025 0
M  V30 9080 H 852.283 -0.136332 0.734454 0
M  V30 9081 H 854.945 0.361319 1.91522 0
M  V30 9082 H 854.041 -0.661388 3.05012 0
M  V30 9083 N 854.342 -1.57594 -0.0133615 0
M  V30 9084 C 855.572 -1.93969 -0.711295 0
M  V30 9085 C 855.98 -0.859084 -1.68572 0
M  V30 9086 O 855.323 0.171842 -1.82894 0
M  V30 9087 C 855.385 -3.2625 -1.51001 0
M  V30 9088 C 855.049 -4.51628 -0.698645 0
M  V30 9089 C 856.046 -5.19899 0.00791185 0
M  V30 9090 C 853.731 -4.98095 -0.648553 0
M  V30 9091 C 855.725 -6.32928 0.753691 0
M  V30 9092 C 853.412 -6.11017 0.10096 0
M  V30 9093 C 854.41 -6.78289 0.800828 0
M  V30 9094 O 854.098 -7.89048 1.53814 0
M  V30 9095 H 853.83 -0.6445 -0.203951 0
M  V30 9096 H 856.384 -2.05378 0.0298267 0
M  V30 9097 H 854.614 -3.11211 -2.29531 0
M  V30 9098 H 856.303 -3.47835 -2.09202 0
M  V30 9099 H 857.069 -4.84995 -0.0217192 0
M  V30 9100 H 852.948 -4.45568 -1.18282 0
M  V30 9101 H 856.492 -6.85371 1.3005 0
M  V30 9102 H 852.389 -6.45364 0.132459 0
M  V30 9103 H 853.157 -8.05492 1.45345 0
M  V30 9104 N 855.82 0.285905 -1.54985 0
M  V30 9105 C 857.06 1.02699 -1.76726 0
M  V30 9106 C 857.424 1.83962 -0.549717 0
M  V30 9107 O 858.625 2.60943 -0.645142 0
M  V30 9108 C 856.896 1.89671 -3.02919 0
M  V30 9109 S 858.455 2.7022 -3.45726 0
M  V30 9110 H 855.273 0.346114 -0.621068 0
M  V30 9111 H 857.875 0.298764 -1.93204 0
M  V30 9112 H 856.579 1.28873 -3.89641 0
M  V30 9113 H 856.11 2.66836 -2.89071 0
M  V30 9114 H 858.125 3.92184 -3.03983 0
M  V30 9115 N 857.298 1.47698 0.54982 0
M  V30 9116 C 858.547 1.53961 1.30303 0
M  V30 9117 C 858.86 0.209731 1.94472 0
M  V30 9118 O 860.066 0.150418 2.71083 0
M  V30 9119 C 858.522 2.71436 2.36328 0
M  V30 9120 C 858.13 4.10983 1.78316 0
M  V30 9121 C 859.874 2.86996 3.12783 0
M  V30 9122 C 857.781 5.19747 2.82164 0
M  V30 9123 H 856.711 0.573098 0.489975 0
M  V30 9124 H 859.362 1.73989 0.583089 0
M  V30 9125 H 857.744 2.44801 3.11269 0
M  V30 9126 H 858.918 4.47552 1.09697 0
M  V30 9127 H 857.233 4.00371 1.1442 0
M  V30 9128 H 859.83 3.65422 3.90347 0
M  V30 9129 H 860.173 1.95712 3.67427 0
M  V30 9130 H 860.706 3.13436 2.44954 0
M  V30 9131 H 857.445 6.12932 2.32366 0
M  V30 9132 H 856.965 4.87688 3.49171 0
M  V30 9133 H 858.644 5.47014 3.4552 0
M  V30 9134 N 858.776 -0.797141 1.35954 0
M  V30 9135 C 860.024 -1.55161 1.29497 0
M  V30 9136 C 860.345 -1.94582 -0.127659 0
M  V30 9137 O 859.615 -1.64343 -1.06622 0
M  V30 9138 H 858.195 -0.575413 0.47635 0
M  V30 9139 H 860.857 -0.950282 1.70164 0
M  V30 9140 H 859.953 -2.46272 1.9172 0
M  V30 9141 N 860.254 -1.20106 -1.0204 0
M  V30 9142 C 861.482 -1.0344 -1.79186 0
M  V30 9143 C 861.897 0.416542 -1.84148 0
M  V30 9144 O 861.254 1.28925 -1.29168 0
M  V30 9145 C 861.305 -1.60663 -3.23836 0
M  V30 9146 O 861.026 -3.00079 -3.19193 0
M  V30 9147 C 862.527 -1.48897 -4.17546 0
M  V30 9148 H 859.747 -0.364093 -0.563629 0
M  V30 9149 H 862.291 -1.5911 -1.28469 0
M  V30 9150 H 860.446 -1.09122 -3.71714 0
M  V30 9151 H 860.86 -3.27162 -4.09958 0
M  V30 9152 H 862.334 -1.93703 -5.16898 0
M  V30 9153 H 862.811 -0.440843 -4.36982 0
M  V30 9154 H 863.417 -1.9961 -3.75547 0
M  V30 9155 N 861.732 1.21287 -1.00634 0
M  V30 9156 C 862.957 1.94925 -0.708441 0
M  V30 9157 C 863.382 1.73659 0.722783 0
M  V30 9158 O 862.74 1.02429 1.49593 0
M  V30 9159 C 862.788 3.45377 -1.03667 0
M  V30 9160 O 861.892 4.12153 -0.142661 0
M  V30 9161 H 861.233 0.609338 -0.263824 0
M  V30 9162 H 863.763 1.54008 -1.34695 0
M  V30 9163 H 863.773 3.95954 -0.984086 0
M  V30 9164 H 862.448 3.6018 -2.0795 0
M  V30 9165 H 861.025 3.72048 -0.251888 0
M  V30 9166 N 863.21 0.781244 1.36873 0
M  V30 9167 C 864.435 0.360398 2.04245 0
M  V30 9168 C 864.86 -1.01242 1.58529 0
M  V30 9169 O 864.218 -1.65063 0.749936 0
M  V30 9170 C 864.266 0.42329 3.58107 0
M  V30 9171 O 863.37 -0.572796 4.08403 0
M  V30 9172 H 862.711 0.154386 0.645803 0
M  V30 9173 H 865.241 1.06008 1.74996 0
M  V30 9174 H 865.251 0.283967 4.07011 0
M  V30 9175 H 863.926 1.42477 3.90734 0
M  V30 9176 H 862.503 -0.395809 3.70793 0
M  V30 9177 N 864.689 -1.48329 0.532571 0
M  V30 9178 C 865.936 -2.025 -0.000582356 0
M  V30 9179 C 866.264 -1.40942 -1.34036 0
M  V30 9180 O 865.519 -0.545545 -1.87942 0
M  V30 9181 C 865.818 -3.57 -0.168943 0
M  V30 9182 C 865.484 -4.37357 1.0968 0
M  V30 9183 C 864.146 -4.59033 1.44369 0
M  V30 9184 C 866.498 -4.83882 1.93669 0
M  V30 9185 C 863.826 -5.24481 2.62939 0
M  V30 9186 C 866.178 -5.50637 3.11419 0
M  V30 9187 C 864.842 -5.70551 3.46451 0
M  V30 9188 H 864.112 -0.741 -0.000213099 0
M  V30 9189 H 866.759 -1.78282 0.699117 0
M  V30 9190 H 865.064 -3.80072 -0.951429 0
M  V30 9191 H 866.761 -3.9654 -0.596422 0
M  V30 9192 H 863.351 -4.20748 0.816655 0
M  V30 9193 H 867.535 -4.66936 1.6818 0
M  V30 9194 H 862.791 -5.38096 2.9028 0
M  V30 9195 H 866.965 -5.85655 3.76803 0
M  V30 9196 H 864.592 -6.21037 4.38425 0
M  V30 9197 N 866.167 -0.267825 -1.55308 0
M  V30 9198 C 867.416 0.351635 -1.98611 0
M  V30 9199 C 867.729 1.57522 -1.15957 0
M  V30 9200 O 868.935 2.26717 -1.49371 0
M  V30 9201 C 867.391 0.676986 -3.53475 0
M  V30 9202 C 866.999 -0.526385 -4.44897 0
M  V30 9203 C 868.743 1.25948 -4.05386 0
M  V30 9204 C 866.65 -0.176026 -5.91138 0
M  V30 9205 H 865.58 0.13516 -0.741787 0
M  V30 9206 H 868.231 -0.371333 -1.79704 0
M  V30 9207 H 866.613 1.45866 -3.68156 0
M  V30 9208 H 867.787 -1.30339 -4.41982 0
M  V30 9209 H 866.102 -1.02522 -4.03582 0
M  V30 9210 H 868.699 1.53529 -5.12184 0
M  V30 9211 H 869.042 2.19094 -3.53982 0
M  V30 9212 H 869.575 0.540253 -3.94114 0
M  V30 9213 H 866.314 -1.07518 -6.46622 0
M  V30 9214 H 865.834 0.564363 -5.97139 0
M  V30 9215 H 867.513 0.234365 -6.46575 0
M  V30 9216 N 867.645 1.57599 0.00500368 0
M  V30 9217 C 868.885 1.92205 0.695456 0
M  V30 9218 C 869.249 0.868894 1.71214 0
M  V30 9219 O 870.45 1.10004 2.4526 0
M  V30 9220 C 868.721 3.31882 1.32625 0
M  V30 9221 S 870.28 3.88364 2.04252 0
M  V30 9222 H 867.098 0.672826 0.22984 0
M  V30 9223 H 869.7 1.95435 -0.0504824 0
M  V30 9224 H 868.404 4.06375 0.573396 0
M  V30 9225 H 867.935 3.32013 2.11023 0
M  V30 9226 H 869.95 3.69035 3.31704 0
M  V30 9227 N 869.123 -0.277682 1.55134 0
M  V30 9228 C 870.372 -1.00766 1.74726 0
M  V30 9229 C 870.685 -1.87617 0.553092 0
M  V30 9230 O 871.891 -2.64058 0.631318 0
M  V30 9231 C 870.347 -1.84147 3.09221 0
M  V30 9232 C 869.955 -1.02186 4.3619 0
M  V30 9233 C 871.699 -2.56604 3.38164 0
M  V30 9234 C 869.606 -1.84978 5.61727 0
M  V30 9235 H 868.536 -0.379948 0.651273 0
M  V30 9236 H 871.187 -0.263543 1.81598 0
M  V30 9237 H 869.569 -2.62637 2.96375 0
M  V30 9238 H 870.743 -0.281459 4.5994 0
M  V30 9239 H 869.058 -0.412054 4.14356 0
M  V30 9240 H 871.655 -3.18942 4.29162 0
M  V30 9241 H 871.998 -3.26647 2.58085 0
M  V30 9242 H 872.531 -1.85147 3.52087 0
M  V30 9243 H 869.27 -1.19365 6.4454 0
M  V30 9244 H 868.79 -2.56628 5.42128 0
M  V30 9245 H 870.469 -2.42458 5.99853 0
M  V30 9246 N 870.601 -1.47988 -0.541979 0
M  V30 9247 C 872.012 -1.49073 -1.12402 0
M  V30 9248 C 872.363 -0.253825 -1.94551 0
M  V30 9249 O 871.488 0.640056 -2.06718 0
M  V30 9250 C 872.083 -2.7011 -2.04514 0
M  V30 9251 C 870.642 -2.74105 -2.5796 0
M  V30 9252 C 869.789 -2.42409 -1.3466 0
M  V30 9253 H 872.74 -1.55277 -0.327818 0
M  V30 9254 H 872.761 -2.47946 -2.88623 0
M  V30 9255 H 872.273 -3.60117 -1.44697 0
M  V30 9256 H 870.374 -1.88276 -3.21532 0
M  V30 9257 H 870.487 -3.75213 -2.97913 0
M  V30 9258 H 868.851 -1.9331 -1.65841 0
M  V30 9259 H 869.634 -3.34642 -0.766133 0
M  V30 9260 N 872.079 0.78992 -1.36375 0
M  V30 9261 C 873.307 1.57873 -1.3373 0
M  V30 9262 C 873.722 1.88624 0.0815544 0
M  V30 9263 O 873.079 1.50085 1.03831 0
M  V30 9264 C 873.13 2.90003 -2.15825 0
M  V30 9265 O 872.851 2.60578 -3.5218 0
M  V30 9266 C 874.352 3.84309 -2.20955 0
M  V30 9267 H 871.572 0.489685 -0.458748 0
M  V30 9268 H 874.116 0.980436 -1.79465 0
M  V30 9269 H 872.271 3.46303 -1.73646 0
M  V30 9270 H 872.685 3.4506 -3.95011 0
M  V30 9271 H 874.159 4.74081 -2.82756 0
M  V30 9272 H 874.636 4.22121 -1.21287 0
M  V30 9273 H 875.242 3.33942 -2.63368 0
M  V30 9274 N 873.557 1.20646 1.01402 0
M  V30 9275 C 874.787 1.04238 1.78376 0
M  V30 9276 C 875.195 -0.411327 1.84675 0
M  V30 9277 O 874.538 -1.29734 1.30057 0
M  V30 9278 C 874.6 1.55349 3.24202 0
M  V30 9279 C 874.264 3.03684 3.41504 0
M  V30 9280 C 875.261 4.01318 3.30514 0
M  V30 9281 C 872.946 3.42698 3.67237 0
M  V30 9282 C 874.94 5.35956 3.45007 0
M  V30 9283 C 872.627 4.77491 3.81373 0
M  V30 9284 C 873.625 5.73929 3.70263 0
M  V30 9285 O 873.313 7.06277 3.83963 0
M  V30 9286 H 873.045 0.366978 0.567718 0
M  V30 9287 H 875.599 1.60235 1.28506 0
M  V30 9288 H 873.829 0.93739 3.75166 0
M  V30 9289 H 875.518 1.34921 3.8282 0
M  V30 9290 H 876.284 3.72522 3.10568 0
M  V30 9291 H 872.163 2.68175 3.74971 0
M  V30 9292 H 875.707 6.11212 3.36252 0
M  V30 9293 H 871.604 5.05977 4.00821 0
M  V30 9294 H 872.372 7.13561 4.00965 0
M  V30 9295 N 875.035 -1.20752 1.01276 0
M  V30 9296 C 876.284 -1.8934 0.695229 0
M  V30 9297 C 876.597 -1.79459 -0.77806 0
M  V30 9298 O 877.803 -2.43146 -1.20799 0
M  V30 9299 C 876.259 -3.39548 1.1931 0
M  V30 9300 C 875.867 -3.58023 2.69302 0
M  V30 9301 C 877.611 -4.13714 0.950823 0
M  V30 9302 C 875.518 -5.02037 3.1259 0
M  V30 9303 H 874.448 -0.709084 0.25635 0
M  V30 9304 H 877.099 -1.36629 1.22494 0
M  V30 9305 H 875.481 -3.91559 0.591395 0
M  V30 9306 H 876.655 -3.16416 3.34989 0
M  V30 9307 H 874.97 -2.97222 2.9163 0
M  V30 9308 H 877.567 -5.19891 1.24971 0
M  V30 9309 H 877.91 -4.16147 -0.112791 0
M  V30 9310 H 878.443 -3.67792 1.51571 0
M  V30 9311 H 875.182 -5.04757 4.18211 0
M  V30 9312 H 874.702 -5.44469 2.51621 0
M  V30 9313 H 876.381 -5.70594 3.0501 0
M  V30 9314 N 876.513 -0.788492 -1.36457 0
M  V30 9315 C 877.476 -0.192209 -2.28393 0
M  V30 9316 C 878.476 0.609916 -1.48784 0
M  V30 9317 O 879.666 0.431046 -1.68783 0
M  V30 9318 C 876.798 0.734096 -3.32902 0
M  V30 9319 H 877.991 -1.00284 -2.82636 0
M  V30 9320 H 875.544 -0.557852 -1.46006 0
M  V30 9321 H 876.279 1.5691 -2.83813 0
M  V30 9322 H 876.064 0.160875 -3.9177 0
M  V30 9323 H 877.554 1.1462 -4.01562 0
M  V30 9324 N 877.991 1.48044 -0.54043 0
M  V30 9325 C 879.221 2.06595 -0.0144943 0
M  V30 9326 C 879.629 1.39593 1.27713 0
M  V30 9327 O 878.972 0.480794 1.77297 0
M  V30 9328 C 879.034 3.5849 0.269316 0
M  V30 9329 C 878.698 4.47429 -0.930372 0
M  V30 9330 C 879.695 4.8657 -1.83155 0
M  V30 9331 C 877.38 4.89185 -1.14032 0
M  V30 9332 C 879.374 5.66246 -2.92649 0
M  V30 9333 C 877.061 5.6863 -2.23838 0
M  V30 9334 C 878.059 6.07069 -3.12979 0
M  V30 9335 O 877.747 6.84917 -4.20884 0
M  V30 9336 H 877.479 0.675086 -0.0351467 0
M  V30 9337 H 880.033 1.91275 -0.74853 0
M  V30 9338 H 878.263 3.71961 1.05745 0
M  V30 9339 H 879.952 3.99124 0.738595 0
M  V30 9340 H 880.718 4.54924 -1.68134 0
M  V30 9341 H 876.597 4.58742 -0.455717 0
M  V30 9342 H 880.141 5.96169 -3.62254 0
M  V30 9343 H 876.038 5.99688 -2.38839 0
M  V30 9344 H 876.806 7.03287 -4.18723 0
M  V30 9345 N 879.47 0.276058 1.55163 0
M  V30 9346 C 880.886 -0.0780579 1.59409 0
M  V30 9347 C 881.086 -1.54521 1.29327 0
M  V30 9348 O 880.142 -2.29422 1.05459 0
M  V30 9349 C 881.455 0.297422 2.99225 0
M  V30 9350 C 883.003 0.244117 3.12047 0
M  V30 9351 C 883.478 0.594051 4.54131 0
M  V30 9352 N 884.969 0.54564 4.59975 0
M  V30 9353 C 885.704 0.789192 5.67943 0
M  V30 9354 N 885.2 1.09741 6.84053 0
M  V30 9355 N 886.993 0.717926 5.57496 0
M  V30 9356 H 879.144 1.23251 1.72982 0
M  V30 9357 H 881.407 0.497988 0.806667 0
M  V30 9358 H 881.113 1.31782 3.26077 0
M  V30 9359 H 880.987 -0.361286 3.75466 0
M  V30 9360 H 883.374 -0.766992 2.84958 0
M  V30 9361 H 883.455 0.937097 2.38017 0
M  V30 9362 H 883.099 1.60285 4.81945 0
M  V30 9363 H 883.029 -0.120728 5.26462 0
M  V30 9364 H 885.52 0.317334 3.76565 0
M  V30 9365 H 885.833 1.26989 7.62295 0
M  V30 9366 H 884.178 1.13519 6.85666 0
M  V30 9367 H 887.369 0.47697 4.65664 0
M  V30 9368 H 887.542 0.911118 6.41563 0
M  V30 9369 N 880.948 -1.576 0.00335426 0
M  V30 9370 C 881.878 -2.11668 -0.985839 0
M  V30 9371 C 882.859 -1.02661 -1.35627 0
M  V30 9372 O 884.044 -1.30361 -1.43943 0
M  V30 9373 C 881.174 -2.62273 -2.27662 0
M  V30 9374 C 880.128 -3.75837 -2.0477 0
M  V30 9375 C 879.454 -4.12769 -3.39891 0
M  V30 9376 C 880.754 -5.02975 -1.40759 0
M  V30 9377 H 882.448 -2.9457 -0.535637 0
M  V30 9378 H 879.994 -1.41702 -0.256204 0
M  V30 9379 H 881.947 -2.98727 -2.97221 0
M  V30 9380 H 880.671 -1.76498 -2.74802 0
M  V30 9381 H 879.33 -3.39782 -1.37636 0
M  V30 9382 H 878.978 -3.24013 -3.8474 0
M  V30 9383 H 878.678 -4.89281 -3.25389 0
M  V30 9384 H 880.202 -4.51784 -4.1076 0
M  V30 9385 H 881.616 -5.37179 -2.00279 0
M  V30 9386 H 880.013 -5.84315 -1.36734 0
M  V30 9387 H 881.083 -4.83431 -0.377218 0
M  V30 9388 N 882.426 0.269451 -1.5528 0
M  V30 9389 C 883.675 0.998381 -1.75258 0
M  V30 9390 C 883.988 1.87321 -0.563034 0
M  V30 9391 O 885.194 2.63719 -0.645313 0
M  V30 9392 C 883.65 1.82505 -3.10193 0
M  V30 9393 C 883.258 0.99871 -4.36726 0
M  V30 9394 C 885.002 2.54807 -3.3952 0
M  V30 9395 C 882.909 1.81997 -5.627 0
M  V30 9396 H 881.839 0.376488 -0.653278 0
M  V30 9397 H 884.49 0.253909 -1.81735 0
M  V30 9398 H 882.872 2.61061 -2.97763 0
M  V30 9399 H 884.046 0.257064 -4.60082 0
M  V30 9400 H 882.361 0.390074 -4.14569 0
M  V30 9401 H 884.958 3.16662 -4.30847 0
M  V30 9402 H 885.301 3.25273 -2.59813 0
M  V30 9403 H 885.834 1.83278 -3.53064 0
M  V30 9404 H 882.573 1.15945 -6.45164 0
M  V30 9405 H 882.093 2.53749 -5.43481 0
M  V30 9406 H 883.772 2.39274 -6.0113 0
M  V30 9407 N 883.904 1.48273 0.534124 0
M  V30 9408 C 885.153 1.55334 1.28663 0
M  V30 9409 C 885.466 0.230345 1.94239 0
M  V30 9410 O 886.672 0.179161 2.70908 0
M  V30 9411 C 885.128 2.73927 2.33435 0
M  V30 9412 C 884.736 4.12852 1.73947 0
M  V30 9413 C 886.48 2.90298 3.09722 0
M  V30 9414 C 884.387 5.22711 2.76636 0
M  V30 9415 H 883.317 0.578262 0.483869 0
M  V30 9416 H 885.968 1.74598 0.564602 0
M  V30 9417 H 884.35 2.48089 3.08655 0
M  V30 9418 H 885.524 4.48691 1.04944 0
M  V30 9419 H 883.839 4.01562 1.10167 0
M  V30 9420 H 886.436 3.69542 3.86449 0
M  V30 9421 H 886.779 1.99598 3.6533 0
M  V30 9422 H 887.312 3.16017 2.41616 0
M  V30 9423 H 884.051 6.15362 2.25852 0
M  V30 9424 H 883.571 4.91364 3.43979 0
M  V30 9425 H 885.25 5.50648 3.39699 0
M  V30 9426 N 885.382 -0.782676 1.36792 0
M  V30 9427 C 886.61 -1.57162 1.34565 0
M  V30 9428 C 887.025 -1.88664 -0.0715501 0
M  V30 9429 O 886.382 -1.50633 -1.03033 0
M  V30 9430 C 886.433 -2.88854 2.1736 0
M  V30 9431 O 886.154 -2.58707 3.53557 0
M  V30 9432 C 887.655 -3.83132 2.2299 0
M  V30 9433 H 884.875 -0.487245 0.461338 0
M  V30 9434 H 887.419 -0.970905 1.79982 0
M  V30 9435 H 885.574 -3.45377 1.7548 0
M  V30 9436 H 885.988 -3.42961 3.96835 0
M  V30 9437 H 887.462 -4.72575 2.85266 0
M  V30 9438 H 887.939 -4.21472 1.23524 0
M  V30 9439 H 888.545 -3.32541 2.65135 0
M  V30 9440 N 886.86 -1.21182 -1.00761 0
M  V30 9441 C 888.271 -1.02652 -1.55947 0
M  V30 9442 C 888.622 0.414466 -1.91772 0
M  V30 9443 O 887.747 1.29727 -1.73204 0
M  V30 9444 C 888.342 -1.85713 -2.83366 0
M  V30 9445 C 886.901 -1.71523 -3.35048 0
M  V30 9446 C 886.048 -1.83087 -2.08265 0
M  V30 9447 H 888.999 -1.35242 -0.830379 0
M  V30 9448 H 889.02 -1.36583 -3.55141 0
M  V30 9449 H 888.532 -2.90584 -2.5726 0
M  V30 9450 H 886.633 -0.693257 -3.66094 0
M  V30 9451 H 886.746 -2.53333 -4.06644 0
M  V30 9452 H 885.11 -1.26367 -2.21141 0
M  V30 9453 H 885.893 -2.8946 -1.84575 0
M  V30 9454 N 888.338 1.20213 -1.01915 0
M  V30 9455 C 889.586 1.89272 -0.708552 0
M  V30 9456 C 889.907 1.79394 0.76438 0
M  V30 9457 O 889.177 1.198 1.54999 0
M  V30 9458 H 887.757 0.700628 -0.259094 0
M  V30 9459 H 890.419 1.45985 -1.29129 0
M  V30 9460 H 889.515 2.95841 -0.994215 0
M  V30 9461 N 889.816 0.795718 1.36037 0
M  V30 9462 C 891.044 0.383153 2.03321 0
M  V30 9463 C 891.459 -1.00246 1.59988 0
M  V30 9464 O 890.816 -1.64406 0.792265 0
M  V30 9465 C 890.867 0.444467 3.58757 0
M  V30 9466 O 890.588 1.77544 4.00512 0
M  V30 9467 C 892.089 0.0233291 4.43294 0
M  V30 9468 H 889.309 0.157061 0.652359 0
M  V30 9469 H 891.853 1.07632 1.73884 0
M  V30 9470 H 890.008 -0.200341 3.86882 0
M  V30 9471 H 890.422 1.73065 4.95125 0
M  V30 9472 H 891.896 0.117361 5.51875 0
M  V30 9473 H 892.373 -1.03007 4.2695 0
M  V30 9474 H 892.979 0.64087 4.20444 0
M  V30 9475 N 891.294 -1.47756 0.548274 0
M  V30 9476 C 892.541 -2.02489 0.0208955 0
M  V30 9477 C 892.869 -1.42356 -1.32533 0
M  V30 9478 O 892.124 -0.565448 -1.87353 0
M  V30 9479 C 892.423 -3.5716 -0.131069 0
M  V30 9480 C 892.089 -4.36169 1.14313 0
M  V30 9481 C 890.751 -4.57476 1.4923 0
M  V30 9482 C 893.103 -4.81801 1.9879 0
M  V30 9483 C 890.431 -5.21662 2.68487 0
M  V30 9484 C 892.783 -5.47303 3.17242 0
M  V30 9485 C 891.447 -5.66844 3.52483 0
M  V30 9486 H 890.717 -0.740961 0.00764621 0
M  V30 9487 H 893.364 -1.77531 0.717987 0
M  V30 9488 H 891.669 -3.8106 -0.911063 0
M  V30 9489 H 893.366 -3.9715 -0.55433 0
M  V30 9490 H 889.956 -4.19858 0.861235 0
M  V30 9491 H 894.14 -4.65126 1.73123 0
M  V30 9492 H 889.396 -5.34987 2.95971 0
M  V30 9493 H 893.57 -5.81626 3.82994 0
M  V30 9494 H 891.197 -6.16352 4.44988 0
M  V30 9495 N 892.772 -0.284283 -1.55015 0
M  V30 9496 C 893.719 0.599194 -2.22886 0
M  V30 9497 C 894.689 1.14264 -1.20553 0
M  V30 9498 O 895.874 1.19025 -1.49123 0
M  V30 9499 C 893.014 1.77317 -2.96062 0
M  V30 9500 C 892.127 1.26271 -4.13134 0
M  V30 9501 C 891.262 2.39922 -4.73931 0
M  V30 9502 C 890.301 1.85925 -5.8318 0
M  V30 9503 N 889.438 2.93084 -6.38002 0
M  V30 9504 H 894.278 0.0137816 -2.97997 0
M  V30 9505 H 891.815 -0.00496503 -1.47099 0
M  V30 9506 H 893.773 2.46339 -3.36709 0
M  V30 9507 H 892.403 2.33047 -2.23358 0
M  V30 9508 H 891.455 0.465296 -3.77544 0
M  V30 9509 H 892.767 0.827284 -4.91892 0
M  V30 9510 H 891.921 3.1692 -5.17346 0
M  V30 9511 H 890.66 2.86784 -3.9447 0
M  V30 9512 H 889.665 1.07409 -5.39206 0
M  V30 9513 H 890.89 1.39987 -6.64515 0
M  V30 9514 H 888.836 3.3931 -5.61431 0
M  V30 9515 H 888.753 2.53986 -7.12058 0
M  V30 9516 H 890.021 3.7003 -6.86075 0
M  V30 9517 N 894.251 1.57596 -0.0117121 0
M  V30 9518 C 895.161 2.12596 0.991964 0
M  V30 9519 C 896.177 1.07399 1.36899 0
M  V30 9520 O 897.353 1.39365 1.45394 0
M  V30 9521 C 894.418 2.62796 2.2614 0
M  V30 9522 C 893.479 3.8264 1.94642 0
M  V30 9523 C 892.712 4.30435 3.15533 0
M  V30 9524 O 892.935 3.77495 4.27614 0
M  V30 9525 O 891.869 5.22469 2.98847 0
M  V30 9526 H 895.695 2.98597 0.554371 0
M  V30 9527 H 893.28 1.47947 0.207839 0
M  V30 9528 H 895.162 2.9523 3.00695 0
M  V30 9529 H 893.837 1.79886 2.69114 0
M  V30 9530 H 892.744 3.5516 1.17526 0
M  V30 9531 H 894.077 4.66658 1.56496 0
M  V30 9532 N 895.729 -0.261212 1.5542 0
M  V30 9533 C 897.145 -0.609012 1.47524 0
M  V30 9534 C 897.345 -1.88986 0.699042 0
M  V30 9535 O 896.401 -2.51517 0.222628 0
M  V30 9536 C 897.714 -0.725025 2.91828 0
M  V30 9537 C 899.262 -0.818302 3.02114 0
M  V30 9538 C 899.737 -0.965996 4.47697 0
M  V30 9539 N 901.228 -1.03123 4.51575 0
M  V30 9540 C 901.963 -1.16451 5.6145 0
M  V30 9541 N 901.459 -1.26425 6.81167 0
M  V30 9542 N 903.252 -1.19655 5.49217 0
M  V30 9543 H 895.403 0.579807 2.04333 0
M  V30 9544 H 897.666 0.198072 0.927077 0
M  V30 9545 H 897.372 0.145871 3.51397 0
M  V30 9546 H 897.246 -1.60156 3.41511 0
M  V30 9547 H 899.633 -1.67966 2.42634 0
M  V30 9548 H 899.714 0.0830895 2.55665 0
M  V30 9549 H 899.358 -0.109251 5.07782 0
M  V30 9550 H 899.288 -1.88221 4.91813 0
M  V30 9551 H 901.779 -0.966072 3.65343 0
M  V30 9552 H 902.092 -1.36462 7.60656 0
M  V30 9553 H 900.437 -1.23408 6.83956 0
M  V30 9554 H 903.628 -1.11501 4.54626 0
M  V30 9555 H 903.801 -1.29698 6.34888 0
M  V30 9556 N 897.207 -1.48554 -0.526253 0
M  V30 9557 C 898.456 -1.56014 -1.27837 0
M  V30 9558 C 898.769 -0.240643 -1.94114 0
M  V30 9559 O 899.975 -0.193525 -2.70809 0
M  V30 9560 C 898.431 -2.75161 -2.31979 0
M  V30 9561 C 898.039 -4.13768 -1.71755 0
M  V30 9562 C 899.783 -2.91936 -3.08178 0
M  V30 9563 C 897.69 -5.24171 -2.7386 0
M  V30 9564 H 896.62 -0.58082 -0.480795 0
M  V30 9565 H 899.271 -1.74895 -0.555335 0
M  V30 9566 H 897.653 -2.49722 -3.07335 0
M  V30 9567 H 898.827 -4.49241 -1.02563 0
M  V30 9568 H 897.142 -4.02141 -1.08036 0
M  V30 9569 H 899.739 -3.71586 -3.84484 0
M  V30 9570 H 900.082 -2.01533 -3.64267 0
M  V30 9571 H 900.615 -3.17294 -2.39937 0
M  V30 9572 H 897.354 -6.16552 -2.22586 0
M  V30 9573 H 896.874 -4.93181 -3.41368 0
M  V30 9574 H 898.553 -5.52442 -3.36774 0
M  V30 9575 N 898.685 0.775411 -1.37205 0
M  V30 9576 C 899.934 1.52909 -1.31536 0
M  V30 9577 C 900.247 1.9535 0.0989374 0
M  V30 9578 O 901.453 2.70072 0.278079 0
M  V30 9579 C 899.909 2.761 -2.30861 0
M  V30 9580 C 899.517 2.40773 -3.77799 0
M  V30 9581 C 901.261 3.54052 -2.34195 0
M  V30 9582 C 899.168 3.60444 -4.68865 0
M  V30 9583 H 898.098 0.574061 -0.488845 0
M  V30 9584 H 900.749 0.849642 -1.62645 0
M  V30 9585 H 899.131 3.45916 -1.92764 0
M  V30 9586 H 900.305 1.78764 -4.24712 0
M  V30 9587 H 898.62 1.76004 -3.77375 0
M  V30 9588 H 901.217 4.42992 -2.99437 0
M  V30 9589 H 901.56 3.93649 -1.35449 0
M  V30 9590 H 902.093 2.91229 -2.7098 0
M  V30 9591 H 898.832 3.25932 -5.68725 0
M  V30 9592 H 898.352 4.21571 -4.26659 0
M  V30 9593 H 900.031 4.27302 -4.85821 0
M  V30 9594 N 900.163 1.21714 1.00117 0
M  V30 9595 C 901.11 0.979837 2.08968 0
M  V30 9596 C 902.08 -0.0955324 1.65825 0
M  V30 9597 O 903.265 0.0523742 1.90728 0
M  V30 9598 C 900.405 0.554758 3.40612 0
M  V30 9599 C 899.518 1.69999 3.97145 0
M  V30 9600 C 898.653 1.2237 5.16913 0
M  V30 9601 C 897.692 2.34101 5.65564 0
M  V30 9602 N 896.829 1.87579 6.76579 0
M  V30 9603 H 901.669 1.91167 2.28602 0
M  V30 9604 H 899.206 0.952645 1.12085 0
M  V30 9605 H 901.164 0.289526 4.16194 0
M  V30 9606 H 899.794 -0.340073 3.21004 0
M  V30 9607 H 898.846 2.07976 3.18512 0
M  V30 9608 H 900.158 2.54074 4.29241 0
M  V30 9609 H 899.312 0.915358 5.99755 0
M  V30 9610 H 898.051 0.353045 4.8642 0
M  V30 9611 H 897.056 2.65734 4.81316 0
M  V30 9612 H 898.281 3.21669 5.98085 0
M  V30 9613 H 896.227 1.02863 6.47885 0
M  V30 9614 H 896.144 2.65225 7.07949 0
M  V30 9615 H 897.412 1.5979 7.62947 0
M  V30 9616 N 901.641 -1.19671 1.02551 0
M  V30 9617 C 902.866 -1.93774 0.739363 0
M  V30 9618 C 903.291 -1.74787 -0.695064 0
M  V30 9619 O 902.649 -1.04796 -1.47944 0
M  V30 9620 C 902.697 -3.43684 1.09149 0
M  V30 9621 O 901.801 -4.11874 0.208213 0
M  V30 9622 H 901.142 -0.605064 0.273484 0
M  V30 9623 H 903.672 -1.51846 1.37128 0
M  V30 9624 H 903.682 -3.94339 1.04695 0
M  V30 9625 H 902.357 -3.56826 2.13654 0
M  V30 9626 H 900.934 -3.716 0.311045 0
M  V30 9627 N 903.119 -0.802921 -1.35613 0
M  V30 9628 C 904.368 -0.378087 -1.98125 0
M  V30 9629 C 904.681 1.05953 -1.64418 0
M  V30 9630 O 905.887 1.58729 -2.20266 0
M  V30 9631 C 904.343 -0.625077 -3.5443 0
M  V30 9632 C 903.951 -2.07499 -3.97049 0
M  V30 9633 C 905.695 -0.265419 -4.23669 0
M  V30 9634 C 903.602 -2.26793 -5.46186 0
M  V30 9635 H 902.532 -0.137633 -0.741332 0
M  V30 9636 H 905.183 -0.986461 -1.54729 0
M  V30 9637 H 903.565 0.0531975 -3.95964 0
M  V30 9638 H 904.739 -2.79077 -3.66678 0
M  V30 9639 H 903.054 -2.39417 -3.40688 0
M  V30 9640 H 905.651 -0.387669 -5.33293 0
M  V30 9641 H 905.994 0.787994 -4.08774 0
M  V30 9642 H 906.527 -0.897464 -3.87544 0
M  V30 9643 H 903.266 -3.30566 -5.66045 0
M  V30 9644 H 902.786 -1.59735 -5.78139 0
M  V30 9645 H 904.465 -2.08165 -6.12598 0
M  V30 9646 N 904.597 1.47463 -0.556102 0
M  V30 9647 C 905.825 2.06868 -0.0364585 0
M  V30 9648 C 906.24 1.40893 1.25677 0
M  V30 9649 O 905.597 0.505083 1.75371 0
M  V30 9650 C 905.648 3.61128 0.163984 0
M  V30 9651 O 905.369 4.24629 -1.07803 0
M  V30 9652 C 906.87 4.37397 0.721036 0
M  V30 9653 H 904.09 0.669466 -0.0453399 0
M  V30 9654 H 906.634 1.89482 -0.769198 0
M  V30 9655 H 904.789 3.78031 0.84685 0
M  V30 9656 H 905.203 5.17149 -0.875067 0
M  V30 9657 H 906.677 5.46016 0.810584 0
M  V30 9658 H 907.154 4.03604 1.73206 0
M  V30 9659 H 907.76 4.25236 0.073904 0
M  V30 9660 N 906.075 0.2925 1.54862 0
M  V30 9661 C 907.486 -0.201841 1.85606 0
M  V30 9662 C 907.837 -1.54093 1.21449 0
M  V30 9663 O 906.962 -2.10327 0.509079 0
M  V30 9664 C 907.557 -0.373011 3.3674 0
M  V30 9665 C 906.116 -0.811574 3.67547 0
M  V30 9666 C 905.263 0.0850583 2.7717 0
M  V30 9667 H 908.214 0.513774 1.50153 0
M  V30 9668 H 908.235 -1.20892 3.60785 0
M  V30 9669 H 907.747 0.601751 3.83407 0
M  V30 9670 H 905.848 -1.79719 3.26392 0
M  V30 9671 H 905.961 -0.636853 4.74848 0
M  V30 9672 H 904.325 -0.434224 2.50971 0
M  V30 9673 H 905.108 1.05602 3.26654 0
M  V30 9674 N 907.553 -1.57587 0.0200696 0
M  V30 9675 C 908.463 -2.13119 -0.980676 0
M  V30 9676 C 909.479 -1.08124 -1.36328 0
M  V30 9677 O 910.655 -1.40134 -1.44653 0
M  V30 9678 C 907.72 -2.63991 -2.24743 0
M  V30 9679 C 906.781 -3.83667 -1.9261 0
M  V30 9680 C 906.014 -4.32103 -3.13246 0
M  V30 9681 O 906.237 -3.79758 -4.25606 0
M  V30 9682 O 905.171 -5.24047 -2.96072 0
M  V30 9683 H 908.997 -2.98887 -0.538528 0
M  V30 9684 H 906.582 -1.48055 -0.19999 0
M  V30 9685 H 908.464 -2.9682 -2.99125 0
M  V30 9686 H 907.139 -1.81311 -2.68157 0
M  V30 9687 H 906.046 -3.55778 -1.15641 0
M  V30 9688 H 907.379 -4.67482 -1.54019 0
M  V30 9689 N 909.032 0.252966 -1.55557 0
M  V30 9690 C 910.26 0.999565 -1.81153 0
M  V30 9691 C 910.675 1.79181 -0.594955 0
M  V30 9692 O 910.032 1.77208 0.436311 0
M  V30 9693 C 910.083 1.94227 -3.04891 0
M  V30 9694 O 909.804 1.18209 -4.21851 0
M  V30 9695 C 911.305 2.80536 -3.43241 0
M  V30 9696 H 908.525 0.294402 -0.602966 0
M  V30 9697 H 911.069 0.277686 -2.02606 0
M  V30 9698 H 909.224 2.6185 -2.85505 0
M  V30 9699 H 909.638 1.81922 -4.9194 0
M  V30 9700 H 911.112 3.42442 -4.32941 0
M  V30 9701 H 911.589 3.51337 -2.6355 0
M  V30 9702 H 912.195 2.18373 -3.64956 0
M  V30 9703 N 910.51 1.48831 0.518367 0
M  V30 9704 C 911.921 1.50842 1.10016 0
M  V30 9705 C 912.272 0.284744 1.94123 0
M  V30 9706 O 911.397 -0.607088 2.0771 0
M  V30 9707 C 911.992 2.73329 2.00191 0
M  V30 9708 C 910.551 2.78175 2.53566 0
M  V30 9709 C 909.698 2.4452 1.30786 0
M  V30 9710 H 912.649 1.55779 0.303073 0
M  V30 9711 H 912.67 2.52506 2.84642 0
M  V30 9712 H 912.182 3.62374 1.3895 0
M  V30 9713 H 910.283 1.93368 3.18496 0
M  V30 9714 H 910.396 3.79905 2.91906 0
M  V30 9715 H 908.76 1.95924 1.62744 0
M  V30 9716 H 909.543 3.35819 0.712797 0
M  V30 9717 N 911.988 -0.768124 1.37614 0
M  V30 9718 C 913.216 -1.55726 1.36224 0
M  V30 9719 C 913.631 -1.8873 -0.0515357 0
M  V30 9720 O 912.988 -1.51718 -1.0143 0
M  V30 9721 C 913.039 -2.86533 2.20412 0
M  V30 9722 O 912.76 -2.54942 3.56281 0
M  V30 9723 C 914.261 -3.80745 2.27041 0
M  V30 9724 H 911.481 -0.482325 0.46648 0
M  V30 9725 H 914.025 -0.95176 1.81002 0
M  V30 9726 H 912.18 -3.43496 1.79134 0
M  V30 9727 H 912.594 -3.38732 4.00451 0
M  V30 9728 H 914.068 -4.69523 2.90263 0
M  V30 9729 H 914.545 -4.20138 1.27987 0
M  V30 9730 H 915.151 -3.2971 2.68647 0
M  V30 9731 N 913.466 -1.22244 -0.994698 0
M  V30 9732 C 914.376 -1.00722 -2.11878 0
M  V30 9733 C 915.392 0.043919 -1.73945 0
M  V30 9734 O 916.568 -0.148411 -2.00852 0
M  V30 9735 C 913.633 -0.585723 -3.41717 0
M  V30 9736 C 912.694 -1.71027 -3.93762 0
M  V30 9737 C 911.927 -1.30879 -5.17403 0
M  V30 9738 O 912.15 -0.18681 -5.70094 0
M  V30 9739 O 911.084 -2.1246 -5.63156 0
M  V30 9740 H 914.91 -1.94894 -2.32916 0
M  V30 9741 H 912.495 -1.00822 -1.10251 0
M  V30 9742 H 914.377 -0.360935 -4.19851 0
M  V30 9743 H 913.052 0.327166 -3.22042 0
M  V30 9744 H 911.959 -1.98956 -3.16808 0
M  V30 9745 H 913.292 -2.60096 -4.17865 0
M  V30 9746 N 914.944 1.19125 -1.03184 0
M  V30 9747 C 916.193 1.8821 -0.725264 0
M  V30 9748 C 916.506 1.80674 0.749411 0
M  V30 9749 O 917.712 2.45037 1.16915 0
M  V30 9750 C 916.168 3.37607 -1.24697 0
M  V30 9751 C 915.776 3.53693 -2.74964 0
M  V30 9752 C 917.52 4.12149 -1.01652 0
M  V30 9753 C 915.427 4.97001 -3.20538 0
M  V30 9754 H 914.357 0.704916 -0.267599 0
M  V30 9755 H 917.008 1.34663 -1.24652 0
M  V30 9756 H 915.39 3.90569 -0.653614 0
M  V30 9757 H 916.564 3.11046 -3.39981 0
M  V30 9758 H 914.879 2.92544 -2.96322 0
M  V30 9759 H 917.476 5.17837 -1.33226 0
M  V30 9760 H 917.819 4.16274 0.0465712 0
M  V30 9761 H 918.352 3.65334 -1.57403 0
M  V30 9762 H 915.091 4.9804 -4.26189 0
M  V30 9763 H 914.611 5.40398 -2.60251 0
M  V30 9764 H 916.29 5.65669 -3.14049 0
M  V30 9765 N 916.422 0.810101 1.35185 0
M  V30 9766 C 917.833 0.452616 1.81131 0
M  V30 9767 C 918.184 -1.02573 1.67252 0
M  V30 9768 O 917.309 -1.79735 1.20516 0
M  V30 9769 C 917.904 0.814775 3.28857 0
M  V30 9770 C 916.463 0.509839 3.72931 0
M  V30 9771 C 915.61 1.03852 2.57119 0
M  V30 9772 H 918.561 1.00143 1.23114 0
M  V30 9773 H 918.582 0.113635 3.8033 0
M  V30 9774 H 918.094 1.89078 3.38926 0
M  V30 9775 H 916.195 -0.557289 3.68409 0
M  V30 9776 H 916.308 1.04493 4.67566 0
M  V30 9777 H 914.672 0.460671 2.50499 0
M  V30 9778 H 915.455 2.12071 2.69964 0
M  V30 9779 N 917.9 -1.47166 0.563914 0
M  V30 9780 C 919.14 -2.04351 0.0448121 0
M  V30 9781 C 919.504 -1.42808 -1.28336 0
M  V30 9782 O 920.705 -1.91079 -1.89056 0
M  V30 9783 C 918.976 -3.57378 -0.0395795 0
M  V30 9784 S 920.535 -4.35898 -0.503833 0
M  V30 9785 H 917.353 -0.710433 0.0283795 0
M  V30 9786 H 919.955 -1.80451 0.752166 0
M  V30 9787 H 918.659 -3.99693 0.931326 0
M  V30 9788 H 918.19 -3.85785 -0.770282 0
M  V30 9789 H 920.205 -4.63852 -1.76225 0
M  V30 9790 N 919.378 -0.300708 -1.54705 0
M  V30 9791 C 920.626 0.308044 -1.99739 0
M  V30 9792 C 920.947 1.54433 -1.19061 0
M  V30 9793 O 920.217 1.93794 -0.286507 0
M  V30 9794 H 918.797 0.116811 -0.73781 0
M  V30 9795 H 921.459 -0.41197 -1.90496 0
M  V30 9796 H 920.555 0.580287 -3.06658 0
M  V30 9797 N 920.856 1.57574 -0.0284266 0
M  V30 9798 C 922.133 1.83064 0.688979 0
M  V30 9799 C 922.513 0.91219 1.90374 0
M  V30 9800 O 921.861 -0.0323672 2.28477 0
M  V30 9801 C 922.071 3.32262 1.06785 0
M  V30 9802 C 923.419 3.98717 1.45978 0
M  V30 9803 O 924.443 3.36753 1.16085 0
M  V30 9804 O 923.302 5.07927 2.01673 0
M  V30 9805 H 920.396 0.7548 0.337944 0
M  V30 9806 H 922.942 1.69607 -0.0560555 0
M  V30 9807 H 921.714 3.90772 0.203235 0
M  V30 9808 H 921.337 3.50823 1.87107 0
M  V30 9809 N 922.334 -0.244713 1.55689 0
M  V30 9810 C 923.583 -0.970373 1.76824 0
M  V30 9811 C 923.896 -1.86402 0.592764 0
M  V30 9812 O 925.102 -2.62659 0.687186 0
M  V30 9813 C 923.558 -1.77547 3.13058 0
M  V30 9814 C 923.166 -0.929104 4.3826 0
M  V30 9815 C 924.91 -2.49373 3.43531 0
M  V30 9816 C 922.817 -1.73021 5.65524 0
M  V30 9817 H 921.747 -0.366048 0.659185 0
M  V30 9818 H 924.398 -0.224964 1.82116 0
M  V30 9819 H 922.78 -2.56291 3.01879 0
M  V30 9820 H 923.954 -0.183836 4.60433 0
M  V30 9821 H 922.269 -0.324071 4.15137 0
M  V30 9822 H 924.866 -3.09767 4.35831 0
M  V30 9823 H 925.209 -3.21099 2.64955 0
M  V30 9824 H 925.742 -1.77637 3.55935 0
M  V30 9825 H 922.481 -1.05666 6.46927 0
M  V30 9826 H 922.001 -2.45071 5.47449 0
M  V30 9827 H 923.68 -2.2968 6.0486 0
M  V30 9828 N 923.813 -1.49104 -0.510467 0
M  V30 9829 C 925.229 -1.35657 -0.840797 0
M  V30 9830 C 925.429 -0.382425 -1.97838 0
M  V30 9831 O 924.485 0.189331 -2.51789 0
M  V30 9832 C 925.798 -2.76155 -1.18992 0
M  V30 9833 C 927.346 -2.84786 -1.29868 0
M  V30 9834 C 927.821 -4.2603 -1.68115 0
M  V30 9835 N 929.312 -4.28796 -1.75181 0
M  V30 9836 C 930.047 -5.35041 -2.062 0
M  V30 9837 N 929.543 -6.51543 -2.35508 0
M  V30 9838 N 931.336 -5.2245 -2.07371 0
M  V30 9839 H 923.487 -2.11042 0.23982 0
M  V30 9840 H 925.75 -0.946946 0.0446824 0
M  V30 9841 H 925.456 -3.49092 -0.427484 0
M  V30 9842 H 925.33 -3.10922 -2.13558 0
M  V30 9843 H 927.717 -2.12092 -2.05186 0
M  V30 9844 H 927.798 -2.53613 -0.333758 0
M  V30 9845 H 927.442 -4.99247 -0.933512 0
M  V30 9846 H 927.372 -4.5466 -2.65691 0
M  V30 9847 H 929.863 -3.44771 -1.5473 0
M  V30 9848 H 930.176 -7.28342 -2.58337 0
M  V30 9849 H 928.521 -6.54785 -2.32985 0
M  V30 9850 H 931.712 -4.30444 -1.83945 0
M  V30 9851 H 931.885 -6.05347 -2.31212 0
M  V30 9852 N 925.291 0.760815 -1.38019 0
M  V30 9853 C 926.221 1.88811 -1.37377 0
M  V30 9854 C 927.202 1.68388 -0.240737 0
M  V30 9855 O 928.387 1.89086 -0.442739 0
M  V30 9856 C 925.517 3.26244 -1.1909 0
M  V30 9857 C 924.471 3.61254 -2.29521 0
M  V30 9858 C 923.797 4.97346 -1.96345 0
M  V30 9859 C 925.097 3.66874 -3.71753 0
M  V30 9860 H 926.791 1.89606 -2.31711 0
M  V30 9861 H 924.337 0.910818 -1.11535 0
M  V30 9862 H 926.29 4.04755 -1.17267 0
M  V30 9863 H 925.014 3.2591 -0.212152 0
M  V30 9864 H 923.673 2.85057 -2.30517 0
M  V30 9865 H 923.321 4.93564 -0.969728 0
M  V30 9866 H 923.021 5.21739 -2.703 0
M  V30 9867 H 924.545 5.78244 -1.96129 0
M  V30 9868 H 925.959 4.35514 -3.72828 0
M  V30 9869 H 924.356 4.02772 -4.44853 0
M  V30 9870 H 925.426 2.67273 -4.0459 0
M  V30 9871 N 926.769 1.22769 0.988202 0
M  V30 9872 C 927.717 0.999271 2.10041 0
M  V30 9873 C 928.711 -0.0591767 1.69297 0
M  V30 9874 O 929.917 0.0936653 1.79756 0
M  V30 9875 H 926.292 0.30599 0.686931 0
M  V30 9876 H 928.263 1.94294 2.26478 0
M  V30 9877 C 927.012 0.59873 3.42506 0
M  V30 9878 H 926.335 1.40487 3.74304 0
M  V30 9879 H 927.775 0.478353 4.21293 0
M  V30 9880 C 926.234 -0.692216 3.29712 0
M  V30 9881 O 926.764 -1.74342 3.61895 0
M  V30 9882 N 924.97 -0.665163 2.82885 0
M  V30 9883 H 924.517 0.190604 2.56894 0
M  V30 9884 H 924.475 -1.52917 2.74706 0
M  V30 9885 N 928.247 -1.18576 1.03814 0
M  V30 9886 C 929.21 -2.2033 0.63146 0
M  V30 9887 C 930.21 -1.57787 -0.309816 0
M  V30 9888 O 931.4 -1.73938 -0.0955598 0
M  V30 9889 C 928.532 -3.40818 -0.0745963 0
M  V30 9890 H 929.725 -2.57824 1.53189 0
M  V30 9891 H 927.278 -1.32416 0.830398 0
M  V30 9892 H 928.013 -3.08853 -0.988947 0
M  V30 9893 H 927.798 -3.87453 0.6019 0
M  V30 9894 H 929.288 -4.16166 -0.345727 0
M  V30 9895 N 929.725 -0.817259 -1.34754 0
M  V30 9896 C 930.971 -0.403244 -1.98751 0
M  V30 9897 C 931.304 1.02963 -1.64658 0
M  V30 9898 O 930.579 1.71617 -0.915314 0
M  V30 9899 C 930.862 -0.599188 -3.5508 0
M  V30 9900 C 930.715 -2.07777 -3.98934 0
M  V30 9901 C 932.034 -0.0315656 -4.40089 0
M  V30 9902 H 929.153 -0.147988 -0.721989 0
M  V30 9903 H 931.795 -1.02877 -1.59738 0
M  V30 9904 H 929.945 -0.0667116 -3.88443 0
M  V30 9905 H 931.617 -2.67345 -3.75931 0
M  V30 9906 H 929.86 -2.57031 -3.49453 0
M  V30 9907 H 930.531 -2.16571 -5.07741 0
M  V30 9908 H 933.007 -0.48644 -4.13247 0
M  V30 9909 H 931.883 -0.198507 -5.48541 0
M  V30 9910 H 932.144 1.06302 -4.2913 0
M  V30 9911 O 931.242 1.44929 -0.712586 0
M  V30 9912 H 931.933 1.9199 -0.256802 0
M  V30 END ATOM
M  V30 BEGIN BOND
M  V30 END BOND
M  V30 END CTAB
M  END
$$$$
