drugbank_target|P0AE18 Methionine aminopeptidase (DB02088; DB02151; DB02909; DB03799; DB04015; DB07304; DB07305; DB07308; DB07407; DB07408; DB07591; DB07758; DB07759; DB08451; DB08666; DB08667; DB08668; DB08669; DB08670; DB08671; DB08718; DB08757; DB08758)
 OpenBabel12092120033D

  0  0  0     0  0            999 V3000
M  V30 BEGIN CTAB
M  V30 COUNTS 4123 4158 0 0 0
M  V30 BEGIN ATOM
M  V30 1 H -0.908 1.98254 -0.117106 0
M  V30 2 N 0 1.576 0 0
M  V30 3 C 0.933 2.03868 1.02534 0
M  V30 4 C 1.911 0.928543 1.3348 0
M  V30 5 O 3.095 1.19667 1.45644 0
M  V30 6 C 0.222 2.43627 2.35294 0
M  V30 7 C -0.732 3.65373 2.2001 0
M  V30 8 S 0.101 5.13292 1.52614 0
M  V30 9 C 1.257 5.56322 2.86805 0
M  V30 10 H 1.49 2.90518 0.631377 0
M  V30 11 H -0.977 1.52953 0.210867 0
M  V30 12 H 0.981 2.67203 3.11629 0
M  V30 13 H -0.358 1.57376 2.7183 0
M  V30 14 H -1.165 3.90944 3.18086 0
M  V30 15 H -1.563 3.418 1.51819 0
M  V30 16 H 0.729 5.58782 3.83104 0
M  V30 17 H 1.672 6.56266 2.65933 0
M  V30 18 H 2.08 4.83886 2.90714 0
M  V30 19 N 1.4781 -0.272755 1.55222 0
M  V30 20 C 2.4411 -1.32041 1.87344 0
M  V30 21 C 3.4411 -1.42342 0.74803 0
M  V30 22 O 4.6311 -1.41488 1.0162 0
M  V30 23 C 1.7631 -2.70173 2.07893 0
M  V30 24 H 2.9561 -1.04789 2.80997 0
M  V30 25 H 0.5091 -0.51083 1.47717 0
M  V30 26 H 1.2441 -3.02605 1.16622 0
M  V30 27 H 1.0291 -2.64082 2.89833 0
M  V30 28 H 2.5191 -3.45869 2.34017 0
M  V30 29 N 2.9562 -1.48159 -0.537278 0
M  V30 30 C 4.2052 -1.5506 -1.28993 0
M  V30 31 C 4.5182 -0.226211 -1.94288 0
M  V30 32 O 5.7242 -0.173395 -2.70946 0
M  V30 33 C 4.1802 -2.73429 -2.34018 0
M  V30 34 C 3.7882 -4.1248 -1.74825 0
M  V30 35 C 5.5322 -2.89638 -3.10339 0
M  V30 36 C 3.4392 -5.22121 -2.77747 0
M  V30 37 H 2.3692 -0.577231 -0.485098 0
M  V30 38 H 5.0202 -1.74478 -0.568317 0
M  V30 39 H 3.4022 -2.47431 -3.09182 0
M  V30 40 H 4.5762 -4.48466 -1.05899 0
M  V30 41 H 2.8912 -4.01327 -1.11022 0
M  V30 42 H 5.4882 -3.68718 -3.87235 0
M  V30 43 H 5.8312 -1.9882 -3.65754 0
M  V30 44 H 6.3642 -3.15502 -2.42288 0
M  V30 45 H 3.1032 -6.1488 -2.27161 0
M  V30 46 H 2.6232 -4.90631 -3.45024 0
M  V30 47 H 4.3022 -5.49924 -3.4087 0
M  V30 48 N 4.4343 0.785586 -1.36625 0
M  V30 49 C 5.6593 1.57963 -1.34397 0
M  V30 50 C 6.0843 1.87964 0.071526 0
M  V30 51 O 5.4423 1.48182 1.0446 0
M  V30 52 C 5.4903 2.87511 -2.17646 0
M  V30 53 O 4.5943 3.81281 -1.57158 0
M  V30 54 H 3.9353 0.479014 -0.459828 0
M  V30 55 H 6.4653 0.973411 -1.79961 0
M  V30 56 H 6.4753 3.36745 -2.30362 0
M  V30 57 H 5.1503 2.65002 -3.20541 0
M  V30 58 H 3.7273 3.39885 -1.53403 0
M  V30 59 N 5.9124 1.20967 1.01018 0
M  V30 60 C 7.1614 1.01796 1.74128 0
M  V30 61 C 7.4744 -0.449691 1.90361 0
M  V30 62 O 8.6804 -0.76068 2.60626 0
M  V30 63 C 7.1364 1.7727 3.13215 0
M  V30 64 C 6.7444 3.28171 3.04972 0
M  V30 65 C 8.4884 1.66489 3.90489 0
M  V30 66 C 6.3954 3.96156 4.39107 0
M  V30 67 H 5.3254 0.377276 0.652824 0
M  V30 68 H 7.9764 1.44651 1.12909 0
M  V30 69 H 6.3584 1.27205 3.75013 0
M  V30 70 H 7.5324 3.85499 2.52443 0
M  V30 71 H 5.8474 3.39437 2.41188 0
M  V30 72 H 8.4444 2.14617 4.89738 0
M  V30 73 H 8.7874 0.6222 4.11624 0
M  V30 74 H 9.3204 2.14003 3.35332 0
M  V30 75 H 6.0594 5.00604 4.23174 0
M  V30 76 H 5.5794 3.43617 4.91617 0
M  V30 77 H 7.2584 4.00774 5.07926 0
M  V30 78 N 7.3905 -1.2043 1.01659 0
M  V30 79 C 8.3375 -2.23215 0.586822 0
M  V30 80 C 9.3075 -1.61382 -0.393085 0
M  V30 81 O 10.4925 -1.88544 -0.292525 0
M  V30 82 C 7.6325 -3.45032 -0.0687464 0
M  V30 83 C 6.7455 -4.21296 0.955724 0
M  V30 84 C 5.8805 -5.30507 0.271208 0
M  V30 85 C 4.9195 -5.98515 1.28244 0
M  V30 86 N 4.0565 -6.99316 0.62459 0
M  V30 87 H 8.8965 -2.59336 1.46796 0
M  V30 88 H 6.4335 -1.27431 0.734836 0
M  V30 89 H 8.3915 -4.1459 -0.465965 0
M  V30 90 H 7.0215 -3.09604 -0.913529 0
M  V30 91 H 6.0735 -3.50803 1.4711 0
M  V30 92 H 7.3855 -4.6803 1.72479 0
M  V30 93 H 6.5395 -6.06428 -0.18151 0
M  V30 94 H 5.2785 -4.8481 -0.530163 0
M  V30 95 H 4.2835 -5.21355 1.74554 0
M  V30 96 H 5.5085 -6.46298 2.08509 0
M  V30 97 H 3.4545 -6.55812 -0.156914 0
M  V30 98 H 3.3715 -7.44178 1.33172 0
M  V30 99 H 4.6395 -7.79255 0.195462 0
M  V30 100 N 8.8686 -0.792821 -1.36206 0
M  V30 101 C 10.0966 -0.378825 -2.03402 0
M  V30 102 C 10.5116 1.00586 -1.59774 0
M  V30 103 O 9.8686 1.64574 -0.788764 0
M  V30 104 C 9.9196 -0.43683 -3.58851 0
M  V30 105 O 9.6406 -1.76691 -4.00889 0
M  V30 106 C 11.1416 -0.0138943 -4.43298 0
M  V30 107 H 8.3616 -0.155673 -0.652692 0
M  V30 108 H 10.9056 -1.07261 -1.74113 0
M  V30 109 H 9.0606 0.208575 -3.86838 0
M  V30 110 H 9.4746 -1.72011 -4.95492 0
M  V30 111 H 10.9486 -0.105615 -5.51899 0
M  V30 112 H 11.4256 1.03915 -4.2673 0
M  V30 113 H 12.0316 -0.63192 -4.20579 0
M  V30 114 N 10.3467 1.47872 -0.545128 0
M  V30 115 C 11.7577 1.86384 -0.108581 0
M  V30 116 C 12.1087 1.45309 1.31832 0
M  V30 117 O 11.2337 0.850641 1.9898 0
M  V30 118 C 11.8287 3.38265 -0.190274 0
M  V30 119 C 10.3877 3.75914 0.191164 0
M  V30 120 C 9.5347 2.71926 -0.543273 0
M  V30 121 H 12.4857 1.39561 -0.755537 0
M  V30 122 H 12.5067 3.75831 0.594217 0
M  V30 123 H 12.0187 3.6813 -1.2289 0
M  V30 124 H 10.1197 3.51665 1.23136 0
M  V30 125 H 10.2327 4.78836 -0.158987 0
M  V30 126 H 8.5967 2.54697 0.0122495 0
M  V30 127 H 9.3797 3.04634 -1.58282 0
M  V30 128 N 11.8248 0.280983 1.55075 0
M  V30 129 C 12.7348 -0.61388 2.26426 0
M  V30 130 C 13.7508 -1.16521 1.29224 0
M  V30 131 O 14.9268 -1.19426 1.62171 0
M  V30 132 C 11.9918 -1.7788 2.9759 0
M  V30 133 C 11.0528 -1.26355 4.10284 0
M  V30 134 C 10.2858 -2.37295 4.78045 0
M  V30 135 O 10.5088 -3.56777 4.45047 0
M  V30 136 O 9.4428 -2.05119 5.65871 0
M  V30 137 H 13.2688 -0.0356932 3.03679 0
M  V30 138 H 10.8538 0.0481686 1.49322 0
M  V30 139 H 12.7358 -2.45791 3.42293 0
M  V30 140 H 11.4108 -2.34397 2.23249 0
M  V30 141 H 10.3178 -0.550735 3.70024 0
M  V30 142 H 11.6508 -0.744065 4.86543 0
M  V30 143 N 13.3029 -1.57598 0.00835791 0
M  V30 144 C 14.5799 -1.82172 -0.712235 0
M  V30 145 C 14.9599 -0.887873 -1.9152 0
M  V30 146 O 14.3079 0.06146 -2.28417 0
M  V30 147 C 14.5179 -3.30875 -1.11008 0
M  V30 148 C 15.8659 -3.96826 -1.51044 0
M  V30 149 O 16.8899 -3.35248 -1.20364 0
M  V30 150 O 15.7489 -5.05318 -2.08125 0
M  V30 151 H 12.8429 -0.750435 -0.347529 0
M  V30 152 H 15.3889 -1.69665 0.0344523 0
M  V30 153 H 14.1609 -3.90481 -0.252982 0
M  V30 154 H 13.7839 -3.48412 -1.9156 0
M  V30 155 N 14.781 0.264519 -1.55364 0
M  V30 156 C 16.03 0.992812 -1.75574 0
M  V30 157 C 16.343 1.87142 -0.568979 0
M  V30 158 O 17.549 2.63513 -0.653682 0
M  V30 159 C 16.005 1.81519 -3.10771 0
M  V30 160 C 15.613 0.984839 -4.37041 0
M  V30 161 C 17.357 2.53727 -3.40327 0
M  V30 162 C 15.264 1.80209 -5.63275 0
M  V30 163 H 14.194 0.374412 -0.65447 0
M  V30 164 H 16.845 0.248138 -1.81815 0
M  V30 165 H 15.227 2.60115 -2.98591 0
M  V30 166 H 16.401 0.242455 -4.60162 0
M  V30 167 H 14.716 0.37691 -4.14691 0
M  V30 168 H 17.313 3.15292 -4.3185 0
M  V30 169 H 17.656 3.24447 -2.60845 0
M  V30 170 H 18.189 1.82156 -3.53644 0
M  V30 171 H 14.928 1.13896 -6.45529 0
M  V30 172 H 14.448 2.52022 -5.44284 0
M  V30 173 H 16.127 2.37364 -6.01887 0
M  V30 174 N 16.2591 1.48442 0.529413 0
M  V30 175 C 17.1691 1.6569 1.66084 0
M  V30 176 C 18.1851 0.539432 1.65427 0
M  V30 177 O 19.3611 0.810572 1.84368 0
M  V30 178 C 16.4261 1.69315 3.02545 0
M  V30 179 C 15.4871 2.92694 3.14052 0
M  V30 180 C 14.7201 2.96137 4.44003 0
M  V30 181 O 14.9431 2.07973 5.31134 0
M  V30 182 O 13.8771 3.88312 4.59888 0
M  V30 183 H 17.7031 2.61483 1.54469 0
M  V30 184 H 15.2881 1.3185 0.702567 0
M  V30 185 H 17.1701 1.74217 3.83701 0
M  V30 186 H 15.8451 0.766966 3.14483 0
M  V30 187 H 14.7521 2.93324 2.32189 0
M  V30 188 H 16.0851 3.84699 3.0703 0
M  V30 189 N 17.7372 -0.778329 1.37039 0
M  V30 190 C 18.6842 -1.89139 1.32269 0
M  V30 191 C 19.6542 -1.65017 0.189387 0
M  V30 192 O 20.8392 -1.87024 0.377693 0
M  V30 193 C 17.9792 -3.26112 1.12894 0
M  V30 194 C 17.0922 -3.62233 2.35396 0
M  V30 195 C 16.2272 -4.8838 2.08946 0
M  V30 196 C 15.2662 -5.17212 3.2735 0
M  V30 197 N 14.4032 -6.34546 3.00492 0
M  V30 198 H 19.2432 -1.92552 2.27437 0
M  V30 199 H 16.7802 -0.941473 1.13025 0
M  V30 200 H 18.7382 -4.05116 0.996835 0
M  V30 201 H 17.3682 -3.22091 0.213758 0
M  V30 202 H 16.4202 -2.78265 2.5937 0
M  V30 203 H 17.7322 -3.79481 3.23721 0
M  V30 204 H 16.8862 -5.75274 1.92729 0
M  V30 205 H 15.6252 -4.73222 1.17949 0
M  V30 206 H 14.6302 -4.28796 3.44113 0
M  V30 207 H 15.8552 -5.34283 4.19188 0
M  V30 208 H 13.8012 -6.20759 2.12118 0
M  V30 209 H 13.7182 -6.52179 3.82358 0
M  V30 210 H 14.9862 -7.24394 2.87879 0
M  V30 211 N 19.2153 -1.21501 -1.00376 0
M  V30 212 C 20.1483 -0.918669 -2.08892 0
M  V30 213 C 21.1263 0.134277 -1.62045 0
M  V30 214 O 22.3103 0.00504255 -1.88499 0
M  V30 215 C 19.4373 -0.379645 -3.36566 0
M  V30 216 C 18.4833 -1.41559 -4.02323 0
M  V30 217 S 19.3163 -2.98521 -4.44574 0
M  V30 218 C 20.4723 -2.46228 -5.75433 0
M  V30 219 H 20.7053 -1.83761 -2.33707 0
M  V30 220 H 18.2383 -1.04489 -1.13673 0
M  V30 221 H 20.1963 -0.0752195 -4.10431 0
M  V30 222 H 18.8573 0.518008 -3.09799 0
M  V30 223 H 18.0503 -0.988076 -4.9422 0
M  V30 224 H 17.6523 -1.66815 -3.34737 0
M  V30 225 H 19.9443 -1.86791 -6.51241 0
M  V30 226 H 20.8873 -3.36572 -6.22997 0
M  V30 227 H 21.2953 -1.87894 -5.32312 0
M  V30 228 N 20.6934 1.19889 -1.02296 0
M  V30 229 C 22.1094 1.41462 -0.738954 0
M  V30 230 C 22.3094 1.89721 0.678846 0
M  V30 231 O 21.3654 2.07016 1.4457 0
M  V30 232 C 22.6784 2.43083 -1.77005 0
M  V30 233 C 24.2264 2.5684 -1.78892 0
M  V30 234 C 24.7014 3.61709 -2.80945 0
M  V30 235 N 26.1924 3.69199 -2.79725 0
M  V30 236 C 26.9274 4.50019 -3.55345 0
M  V30 237 N 26.4234 5.34592 -4.40662 0
M  V30 238 N 28.2164 4.44612 -3.43914 0
M  V30 239 H 20.3674 0.868827 -1.93817 0
M  V30 240 H 22.6304 0.44399 -0.837602 0
M  V30 241 H 22.3364 2.14636 -2.78612 0
M  V30 242 H 22.2104 3.4217 -1.58744 0
M  V30 243 H 24.5974 2.84614 -0.779674 0
M  V30 244 H 24.6784 1.57927 -2.01228 0
M  V30 245 H 24.3224 3.34678 -3.82038 0
M  V30 246 H 24.2524 4.60259 -2.5587 0
M  V30 247 H 26.7434 3.08794 -2.17842 0
M  V30 248 H 27.0564 5.93363 -4.95116 0
M  V30 249 H 25.4014 5.34073 -4.44737 0
M  V30 250 H 28.5924 3.7758 -2.76679 0
M  V30 251 H 28.7654 5.0736 -4.031 0
M  V30 252 N 22.1715 0.800033 1.35784 0
M  V30 253 C 23.4175 0.377901 1.99248 0
M  V30 254 C 23.7505 -1.05052 1.63333 0
M  V30 255 O 23.0255 -1.72768 0.893385 0
M  V30 256 C 23.3085 0.553922 3.55814 0
M  V30 257 C 23.1615 2.0268 4.01548 0
M  V30 258 C 24.4805 -0.0244802 4.40093 0
M  V30 259 H 21.5995 0.138782 0.723815 0
M  V30 260 H 24.2415 1.00835 1.61035 0
M  V30 261 H 22.3915 0.0172398 3.88496 0
M  V30 262 H 24.0635 2.62536 3.79305 0
M  V30 263 H 22.3065 2.5256 3.52698 0
M  V30 264 H 22.9775 2.10087 5.10458 0
M  V30 265 H 25.4535 0.433775 4.13833 0
M  V30 266 H 24.3295 0.128637 5.48749 0
M  V30 267 H 24.5905 -1.11758 4.27741 0
M  V30 268 N 23.6496 -1.47581 0.552962 0
M  V30 269 C 24.6126 -2.28439 -0.186605 0
M  V30 270 C 25.6126 -1.36706 -0.84665 0
M  V30 271 O 26.8026 -1.59378 -0.703164 0
M  V30 272 C 23.9346 -3.16264 -1.2724 0
M  V30 273 H 25.1276 -2.95294 0.523609 0
M  V30 274 H 22.6806 -1.532 0.309745 0
M  V30 275 H 23.4156 -2.54091 -2.01514 0
M  V30 276 H 23.2006 -3.83769 -0.803968 0
M  V30 277 H 24.6906 -3.77198 -1.79196 0
M  V30 278 N 25.1277 -0.289203 -1.54924 0
M  V30 279 C 26.3757 0.322879 -1.99504 0
M  V30 280 C 26.6967 1.55313 -1.1791 0
M  V30 281 O 25.9667 1.94001 -0.272097 0
M  V30 282 H 24.5467 0.122291 -0.736922 0
M  V30 283 H 27.2087 -0.397802 -1.90797 0
M  V30 284 H 26.3047 0.603061 -3.06218 0
M  V30 285 N 26.6058 1.57591 -0.0167156 0
M  V30 286 C 28.0218 1.55946 0.339557 0
M  V30 287 C 28.2218 1.02109 1.73713 0
M  V30 288 O 27.2778 0.662303 2.43659 0
M  V30 289 C 28.5908 3.00037 0.199499 0
M  V30 290 C 30.1388 3.11805 0.273193 0
M  V30 291 C 30.6138 4.57713 0.162068 0
M  V30 292 N 32.1048 4.6268 0.219444 0
M  V30 293 C 32.8398 5.73185 0.157054 0
M  V30 294 N 32.3358 6.92786 0.0442936 0
M  V30 295 N 34.1288 5.61707 0.21014 0
M  V30 296 H 26.2798 1.90921 -0.930758 0
M  V30 297 H 28.5428 0.877674 -0.358319 0
M  V30 298 H 28.2488 3.4333 -0.76273 0
M  V30 299 H 28.1228 3.64387 0.974786 0
M  V30 300 H 30.5098 2.68433 1.22587 0
M  V30 301 H 30.5908 2.50201 -0.532256 0
M  V30 302 H 30.2348 5.01763 -0.78714 0
M  V30 303 H 30.1648 5.17283 0.986222 0
M  V30 304 H 32.6558 3.76649 0.307246 0
M  V30 305 H 32.9688 7.728 0.00304069 0
M  V30 306 H 31.3138 6.94999 0.00968457 0
M  V30 307 H 34.5048 4.6716 0.296546 0
M  V30 308 H 34.6778 6.47807 0.158054 0
M  V30 309 N 28.0839 -0.256276 1.55502 0
M  V30 310 C 29.0139 -1.32102 1.92539 0
M  V30 311 C 29.9949 -1.50684 0.789194 0
M  V30 312 O 31.1799 -1.63449 1.04872 0
M  V30 313 C 28.3099 -2.67752 2.21192 0
M  V30 314 C 27.2639 -2.63878 3.36975 0
M  V30 315 C 26.5899 -4.03236 3.51147 0
M  V30 316 C 27.8899 -2.21682 4.72921 0
M  V30 317 H 29.5839 -1.01351 2.81724 0
M  V30 318 H 27.1299 -0.486105 1.35547 0
M  V30 319 H 29.0829 -3.42365 2.45691 0
M  V30 320 H 27.8069 -3.0012 1.28824 0
M  V30 321 H 26.4659 -1.91722 3.12471 0
M  V30 322 H 26.1139 -4.32854 2.56216 0
M  V30 323 H 25.8139 -4.01535 4.29003 0
M  V30 324 H 27.3379 -4.79563 3.77957 0
M  V30 325 H 28.7519 -2.86023 4.96854 0
M  V30 326 H 27.1489 -2.3111 5.53812 0
M  V30 327 H 28.2189 -1.16833 4.70615 0
M  V30 328 N 29.562 -1.4872 -0.521534 0
M  V30 329 C 30.525 -1.63379 -1.60748 0
M  V30 330 C 31.525 -0.50661 -1.52611 0
M  V30 331 O 32.715 -0.772601 -1.5613 0
M  V30 332 C 29.847 -1.61192 -3.00383 0
M  V30 333 H 31.04 -2.60217 -1.49087 0
M  V30 334 H 28.593 -1.37444 -0.744235 0
M  V30 335 H 29.328 -0.65863 -3.17541 0
M  V30 336 H 29.113 -2.43032 -3.07698 0
M  V30 337 H 30.603 -1.7466 -3.7932 0
M  V30 338 N 31.0401 0.771051 -1.3745 0
M  V30 339 C 32.0031 1.86598 -1.33093 0
M  V30 340 C 33.0031 1.59076 -0.234845 0
M  V30 341 O 34.1931 1.67145 -0.490732 0
M  V30 342 C 31.3251 3.23747 -1.06773 0
M  V30 343 H 32.5181 1.91873 -2.30488 0
M  V30 344 H 30.0711 0.970876 -1.2249 0
M  V30 345 H 30.8061 3.24148 -0.099129 0
M  V30 346 H 30.5911 3.45115 -1.86112 0
M  V30 347 H 32.0811 4.03824 -1.06377 0
M  V30 348 N 32.5182 1.22032 0.997298 0
M  V30 349 C 33.4282 1.00271 2.12092 0
M  V30 350 C 34.4442 -0.047621 1.73935 0
M  V30 351 O 35.6202 0.144136 2.00884 0
M  V30 352 C 32.6852 0.578449 3.4184 0
M  V30 353 C 31.7462 1.70189 3.94125 0
M  V30 354 C 30.9792 1.29778 5.17681 0
M  V30 355 O 31.2022 0.174676 5.70132 0
M  V30 356 O 30.1362 2.11261 5.63607 0
M  V30 357 H 33.9622 1.94398 2.3333 0
M  V30 358 H 31.5472 1.00587 1.10465 0
M  V30 359 H 33.4292 0.351998 4.19927 0
M  V30 360 H 32.1042 -0.334019 3.21972 0
M  V30 361 H 31.0112 1.98282 3.1723 0
M  V30 362 H 32.3442 2.59206 4.18417 0
M  V30 363 N 33.9963 -1.19345 1.0293 0
M  V30 364 C 35.2423 -1.89318 0.727083 0
M  V30 365 C 35.5753 -1.79446 -0.742483 0
M  V30 366 O 34.8503 -1.1871 -1.54072 0
M  V30 367 C 35.1333 -3.40238 1.17942 0
M  V30 368 C 34.9863 -3.58979 2.71024 0
M  V30 369 C 36.3053 -4.33479 0.760548 0
M  V30 370 H 33.4243 -0.687475 0.265606 0
M  V30 371 H 36.0663 -1.40477 1.2793 0
M  V30 372 H 34.2163 -3.81964 0.709608 0
M  V30 373 H 35.8883 -3.26421 3.25955 0
M  V30 374 H 34.1313 -3.02018 3.11396 0
M  V30 375 H 34.8023 -4.64823 2.9773 0
M  V30 376 H 37.2783 -3.99469 1.16464 0
M  V30 377 H 36.1543 -5.37664 1.10493 0
M  V30 378 H 36.4153 -4.40813 -0.337063 0
M  V30 379 N 35.4744 -0.807222 -1.35358 0
M  V30 380 C 36.4044 -0.232509 -2.3234 0
M  V30 381 C 37.3854 0.642386 -1.57504 0
M  V30 382 O 38.5704 0.572526 -1.85569 0
M  V30 383 C 35.7004 0.619238 -3.41735 0
M  V30 384 C 34.6544 -0.157215 -4.27711 0
M  V30 385 C 33.9804 0.816273 -5.28433 0
M  V30 386 C 35.2804 -1.35656 -5.04376 0
M  V30 387 H 36.9744 -1.04276 -2.80654 0
M  V30 388 H 34.5204 -0.50288 -1.34934 0
M  V30 389 H 36.4734 1.03137 -4.08584 0
M  V30 390 H 35.1974 1.46239 -2.92031 0
M  V30 391 H 33.8564 -0.550525 -3.62443 0
M  V30 392 H 33.5044 1.65494 -4.74996 0
M  V30 393 H 33.2044 0.301067 -5.86828 0
M  V30 394 H 34.7284 1.22659 -5.98153 0
M  V30 395 H 36.1424 -1.01927 -5.64166 0
M  V30 396 H 34.5394 -1.8063 -5.7227 0
M  V30 397 H 35.6094 -2.14288 -4.34981 0
M  V30 398 N 36.9525 1.47285 -0.560781 0
M  V30 399 C 37.8625 2.33846 0.187954 0
M  V30 400 C 38.8785 1.48412 0.908293 0
M  V30 401 O 40.0545 1.81332 0.876388 0
M  V30 402 C 37.1195 3.25178 1.2025 0
M  V30 403 C 36.1805 4.26504 0.489208 0
M  V30 404 C 35.4135 5.13472 1.45542 0
M  V30 405 O 35.6365 5.02959 2.6905 0
M  V30 406 O 34.5705 5.93902 0.977963 0
M  V30 407 H 38.3965 2.99177 -0.522177 0
M  V30 408 H 35.9815 1.45903 -0.321364 0
M  V30 409 H 37.8635 3.81584 1.78805 0
M  V30 410 H 36.5385 2.6247 1.89449 0
M  V30 411 H 35.4455 3.73847 -0.137627 0
M  V30 412 H 36.7785 4.91935 -0.161399 0
M  V30 413 N 38.4306 0.297415 1.54768 0
M  V30 414 C 39.3636 -0.622188 2.19554 0
M  V30 415 C 40.3416 -1.13558 1.16376 0
M  V30 416 O 41.5256 -1.20444 1.45002 0
M  V30 417 C 38.6526 -1.8509 2.83653 0
M  V30 418 C 37.6986 -1.47106 4.00328 0
M  V30 419 S 38.5316 -0.53006 5.3287 0
M  V30 420 C 39.6876 -1.76665 6.0045 0
M  V30 421 H 39.9206 -0.0717806 2.97213 0
M  V30 422 H 37.4536 0.0815678 1.54184 0
M  V30 423 H 39.4116 -2.55605 3.21211 0
M  V30 424 H 38.0726 -2.37247 2.05846 0
M  V30 425 H 37.2656 -2.38594 4.43947 0
M  V30 426 H 36.8676 -0.845885 3.64309 0
M  V30 427 H 39.1596 -2.7077 6.21039 0
M  V30 428 H 40.1026 -1.37308 6.9466 0
M  V30 429 H 40.5106 -1.94174 5.30054 0
M  V30 430 N 39.9087 -1.5758 0.0250728 0
M  V30 431 C 41.1577 -1.90811 -0.653767 0
M  V30 432 C 41.4707 -0.90273 -1.73523 0
M  V30 433 O 42.6767 -1.12614 -2.47043 0
M  V30 434 C 41.1327 -3.38804 -1.21409 0
M  V30 435 C 40.7407 -4.47692 -0.166126 0
M  V30 436 C 42.4847 -3.81108 -1.86967 0
M  V30 437 C 40.3917 -5.86779 -0.737856 0
M  V30 438 H 39.3217 -0.712063 -0.247956 0
M  V30 439 H 41.9727 -1.83281 0.0897137 0
M  V30 440 H 40.3547 -3.41252 -2.00905 0
M  V30 441 H 41.5287 -4.56797 0.606079 0
M  V30 442 H 39.8437 -4.14565 0.390466 0
M  V30 443 H 42.4407 -4.82375 -2.30692 0
M  V30 444 H 42.7837 -3.15953 -2.71071 0
M  V30 445 H 43.3167 -3.81065 -1.14167 0
M  V30 446 H 40.0557 -6.55468 0.0649577 0
M  V30 447 H 39.5757 -5.81288 -1.47864 0
M  V30 448 H 41.2547 -6.35223 -1.22884 0
M  V30 449 N 41.3868 0.248026 -1.55636 0
M  V30 450 C 42.2968 1.32859 -1.93354 0
M  V30 451 C 43.3128 1.52719 -0.833838 0
M  V30 452 O 44.4888 1.66363 -1.13513 0
M  V30 453 C 41.5538 2.66337 -2.21958 0
M  V30 454 C 40.6148 2.55008 -3.45354 0
M  V30 455 C 39.8478 3.82121 -3.72584 0
M  V30 456 O 40.0708 4.83951 -3.01907 0
M  V30 457 O 39.0048 3.80822 -4.6611 0
M  V30 458 H 42.8308 1.03862 -2.85388 0
M  V30 459 H 40.4158 0.448686 -1.42503 0
M  V30 460 H 42.2978 3.45216 -2.4167 0
M  V30 461 H 40.9728 2.95068 -1.33103 0
M  V30 462 H 39.8798 1.7442 -3.30951 0
M  V30 463 H 41.2128 2.31222 -4.34508 0
M  V30 464 N 42.8649 1.48995 0.513639 0
M  V30 465 C 44.2759 1.5119 1.09537 0
M  V30 466 C 44.6269 0.290906 1.94031 0
M  V30 467 O 43.7519 -0.60049 2.07902 0
M  V30 468 C 44.3469 2.73964 1.99322 0
M  V30 469 C 42.9059 2.78978 2.52682 0
M  V30 470 C 42.0529 2.44934 1.30009 0
M  V30 471 H 45.0039 1.55875 0.298125 0
M  V30 472 H 45.0249 2.53409 2.83838 0
M  V30 473 H 44.5369 3.62813 1.37799 0
M  V30 474 H 42.6379 1.94378 3.1788 0
M  V30 475 H 42.7509 3.8083 2.90698 0
M  V30 476 H 41.1149 1.9644 1.62122 0
M  V30 477 H 41.8979 3.36043 0.702131 0
M  V30 478 N 44.343 -0.763751 1.37857 0
M  V30 479 C 45.573 -1.55067 1.3652 0
M  V30 480 C 45.981 -1.89135 -0.0494227 0
M  V30 481 O 45.324 -1.52529 -1.02375 0
M  V30 482 C 45.386 -2.8838 2.14656 0
M  V30 483 C 45.05 -2.76905 3.63555 0
M  V30 484 C 46.047 -2.4739 4.57268 0
M  V30 485 C 43.732 -2.94676 4.06781 0
M  V30 486 C 45.726 -2.35786 5.92186 0
M  V30 487 C 43.413 -2.82692 5.41782 0
M  V30 488 C 44.411 -2.53289 6.34298 0
M  V30 489 O 44.099 -2.41345 7.66817 0
M  V30 490 H 43.831 -0.486776 0.469069 0
M  V30 491 H 46.385 -0.953812 1.81911 0
M  V30 492 H 44.615 -3.50217 1.63967 0
M  V30 493 H 46.304 -3.49828 2.05852 0
M  V30 494 H 47.07 -2.33339 4.2518 0
M  V30 495 H 42.949 -3.16563 3.35126 0
M  V30 496 H 46.493 -2.12757 6.64365 0
M  V30 497 H 42.39 -2.96314 5.7347 0
M  V30 498 H 43.158 -2.56634 7.77226 0
M  V30 499 N 45.8211 -1.22559 -0.990812 0
M  V30 500 C 47.0671 -1.05297 -1.73322 0
M  V30 501 C 47.4001 0.410655 -1.89808 0
M  V30 502 O 46.6751 1.30439 -1.44277 0
M  V30 503 C 46.9581 -1.76713 -3.13759 0
M  V30 504 C 46.8111 -3.30684 -3.04907 0
M  V30 505 C 48.1301 -1.52121 -4.12974 0
M  V30 506 H 45.2491 -0.38392 -0.629106 0
M  V30 507 H 47.8911 -1.50926 -1.15418 0
M  V30 508 H 46.0411 -1.37924 -3.63193 0
M  V30 509 H 47.7131 -3.7893 -2.63077 0
M  V30 510 H 45.9561 -3.60253 -2.41661 0
M  V30 511 H 46.6271 -3.75833 -4.04294 0
M  V30 512 H 49.1031 -1.85819 -3.72304 0
M  V30 513 H 47.9791 -2.04582 -5.0935 0
M  V30 514 H 48.2401 -0.454257 -4.3976 0
M  V30 515 N 47.2992 1.18797 -1.03562 0
M  V30 516 C 48.2462 2.22253 -0.622259 0
M  V30 517 C 49.2162 1.61987 0.36736 0
M  V30 518 O 50.4012 1.88986 0.262492 0
M  V30 519 C 47.5412 3.45097 0.0138462 0
M  V30 520 C 46.6542 4.19722 -1.02263 0
M  V30 521 C 45.7892 5.30009 -0.355573 0
M  V30 522 C 44.8282 5.96399 -1.37749 0
M  V30 523 N 43.9652 6.98234 -0.735766 0
M  V30 524 H 48.8052 2.56968 -1.50903 0
M  V30 525 H 46.3422 1.26245 -0.755017 0
M  V30 526 H 48.3002 4.15279 0.399948 0
M  V30 527 H 46.9302 3.11018 0.864158 0
M  V30 528 H 45.9822 3.48418 -1.52673 0
M  V30 529 H 47.2942 4.65227 -1.79903 0
M  V30 530 H 46.4482 6.0664 0.0850095 0
M  V30 531 H 45.1872 4.85592 0.452967 0
M  V30 532 H 44.1922 5.18512 -1.82826 0
M  V30 533 H 45.4172 6.42899 -2.18764 0
M  V30 534 H 43.3632 6.55979 0.0525597 0
M  V30 535 H 43.2802 7.41965 -1.44995 0
M  V30 536 H 44.5482 7.78845 -0.31941 0
M  V30 537 N 48.7773 0.814389 1.34928 0
M  V30 538 C 50.1883 0.458364 1.80986 0
M  V30 539 C 50.5393 -1.02042 1.67577 0
M  V30 540 O 49.6643 -1.79352 1.21086 0
M  V30 541 C 50.2593 0.825212 3.28597 0
M  V30 542 C 48.8183 0.521677 3.72767 0
M  V30 543 C 47.9653 1.04668 2.56788 0
M  V30 544 H 50.9163 1.00533 1.22795 0
M  V30 545 H 50.9373 0.12571 3.80292 0
M  V30 546 H 50.4493 1.90154 3.38324 0
M  V30 547 H 48.5503 -0.545589 3.68584 0
M  V30 548 H 48.6633 1.05977 4.67232 0
M  V30 549 H 47.0273 0.468622 2.50352 0
M  V30 550 H 47.8103 2.12927 2.6929 0
M  V30 551 N 50.2554 -1.46986 0.568584 0
M  V30 552 C 51.5034 -2.02041 0.0487022 0
M  V30 553 C 51.8244 -1.44408 -1.31039 0
M  V30 554 O 51.0944 -0.623477 -1.85714 0
M  V30 555 H 49.6744 -0.746849 0.015014 0
M  V30 556 H 52.3364 -1.80257 0.741168 0
M  V30 557 H 51.4324 -3.12085 -0.0308961 0
M  V30 558 N 51.7335 -0.305618 -1.54608 0
M  V30 559 C 52.9795 0.302746 -2.00528 0
M  V30 560 C 53.3125 1.53184 -1.19367 0
M  V30 561 O 52.5875 1.92598 -0.271321 0
M  V30 562 C 52.8705 0.654756 -3.54097 0
M  V30 563 C 52.7235 -0.583793 -4.45995 0
M  V30 564 C 54.0425 1.47947 -4.14487 0
M  V30 565 H 51.1615 0.108564 -0.72896 0
M  V30 566 H 53.8035 -0.418634 -1.85331 0
M  V30 567 H 51.9535 1.26935 -3.67178 0
M  V30 568 H 53.6255 -1.22224 -4.44814 0
M  V30 569 H 51.8685 -1.21615 -4.16404 0
M  V30 570 H 52.5395 -0.293287 -5.5122 0
M  V30 571 H 55.0155 0.96013 -4.04871 0
M  V30 572 H 53.8915 1.69454 -5.22088 0
M  V30 573 H 54.1525 2.47011 -3.66658 0
M  V30 574 N 53.2116 1.57565 -0.0334293 0
M  V30 575 C 54.4366 1.96689 0.657895 0
M  V30 576 C 54.8616 0.910057 1.64619 0
M  V30 577 O 54.2196 -0.128598 1.80843 0
M  V30 578 C 54.2676 3.34905 1.33683 0
M  V30 579 O 53.3716 3.31574 2.45219 0
M  V30 580 H 52.7126 0.641205 0.172489 0
M  V30 581 H 55.2426 2.04372 -0.0965621 0
M  V30 582 H 55.2526 3.71234 1.69262 0
M  V30 583 H 53.9276 4.11366 0.612411 0
M  V30 584 H 52.5046 3.06968 2.11719 0
M  V30 585 N 54.6897 -0.239769 1.55765 0
M  V30 586 C 55.9177 -0.98417 1.81994 0
M  V30 587 C 56.3327 -1.7867 0.610124 0
M  V30 588 O 55.6897 -1.77571 -0.421271 0
M  V30 589 C 55.7407 -1.91635 3.06526 0
M  V30 590 O 55.4617 -1.14629 4.22838 0
M  V30 591 C 56.9627 -2.77616 3.45607 0
M  V30 592 H 54.1827 -0.28928 0.605441 0
M  V30 593 H 56.7267 -0.260499 2.02834 0
M  V30 594 H 54.8817 -2.5942 2.87715 0
M  V30 595 H 55.2957 -1.77745 4.93464 0
M  V30 596 H 56.7697 -3.38759 4.35828 0
M  V30 597 H 57.2467 -3.4909 2.6652 0
M  V30 598 H 57.8527 -2.15271 3.66795 0
M  V30 599 N 56.1678 -1.49265 -0.50573 0
M  V30 600 C 57.4158 -1.582 -1.25766 0
M  V30 601 C 57.7368 -0.268482 -1.93143 0
M  V30 602 O 57.0068 0.711833 -1.8251 0
M  V30 603 H 55.5868 -0.582873 -0.467191 0
M  V30 604 H 58.2488 -1.85865 -0.586525 0
M  V30 605 H 57.3448 -2.37563 -2.02412 0
M  V30 606 N 57.6459 0.756429 -1.3826 0
M  V30 607 C 58.5559 1.9009 -1.37488 0
M  V30 608 C 59.5719 1.71855 -0.272366 0
M  V30 609 O 60.7479 1.94827 -0.510318 0
M  V30 610 C 57.8129 3.25421 -1.19592 0
M  V30 611 C 56.8739 3.56202 -2.39622 0
M  V30 612 C 56.1069 4.85075 -2.2257 0
M  V30 613 O 56.3299 5.57246 -1.21793 0
M  V30 614 O 55.2639 5.15269 -3.11098 0
M  V30 615 H 59.0899 1.93695 -2.33914 0
M  V30 616 H 56.6749 0.901313 -1.1915 0
M  V30 617 H 58.5569 4.06337 -1.11661 0
M  V30 618 H 57.2319 3.22634 -0.262486 0
M  V30 619 H 56.1389 2.75458 -2.53128 0
M  V30 620 H 57.4719 3.63747 -3.31586 0
M  V30 621 N 59.124 1.23083 0.984299 0
M  V30 622 C 60.054 1.03292 2.09411 0
M  V30 623 C 61.035 -0.048923 1.7003 0
M  V30 624 O 62.22 0.114967 1.93859 0
M  V30 625 C 59.35 0.619155 3.41736 0
M  V30 626 C 58.304 1.64791 3.95004 0
M  V30 627 C 57.63 1.0897 5.23478 0
M  V30 628 C 58.93 3.03999 4.24714 0
M  V30 629 H 60.624 1.96119 2.26225 0
M  V30 630 H 58.17 0.944344 1.08711 0
M  V30 631 H 60.123 0.467777 4.18796 0
M  V30 632 H 58.847 -0.344786 3.24775 0
M  V30 633 H 57.506 1.78721 3.20085 0
M  V30 634 H 57.154 0.11686 5.02864 0
M  V30 635 H 56.854 1.77704 5.60085 0
M  V30 636 H 58.378 0.950093 6.03163 0
M  V30 637 H 59.792 2.93393 4.92538 0
M  V30 638 H 58.189 3.69936 4.72512 0
M  V30 639 H 59.259 3.53285 3.32142 0
M  V30 640 N 60.6021 -1.18246 1.0419 0
M  V30 641 C 61.8791 -1.84121 0.660208 0
M  V30 642 C 62.2591 -1.92778 -0.860221 0
M  V30 643 O 61.6071 -1.45464 -1.76217 0
M  V30 644 C 61.8171 -3.22355 1.33747 0
M  V30 645 C 63.1651 -3.98376 1.46906 0
M  V30 646 O 64.1891 -3.31799 1.29568 0
M  V30 647 O 63.0481 -5.17665 1.75171 0
M  V30 648 H 60.1421 -0.794036 0.231161 0
M  V30 649 H 62.6881 -1.25628 1.14087 0
M  V30 650 H 61.4601 -3.10964 2.37522 0
M  V30 651 H 61.0831 -3.88506 0.845515 0
M  V30 652 N 62.0802 -0.821533 -1.34494 0
M  V30 653 C 63.4962 -0.507117 -1.51329 0
M  V30 654 C 63.6962 0.968964 -1.76673 0
M  V30 655 O 62.7522 1.75348 -1.81685 0
M  V30 656 C 64.0652 -1.36544 -2.67911 0
M  V30 657 C 65.6132 -1.36242 -2.81793 0
M  V30 658 C 66.0882 -2.2052 -4.01416 0
M  V30 659 N 67.5792 -2.18136 -4.08621 0
M  V30 660 C 68.3142 -2.80095 -5.00334 0
M  V30 661 N 67.8102 -3.51039 -5.9728 0
M  V30 662 N 69.6032 -2.69656 -4.93196 0
M  V30 663 H 61.7542 -1.77729 -1.16302 0
M  V30 664 H 64.0172 -0.757291 -0.570276 0
M  V30 665 H 63.7232 -2.41361 -2.55808 0
M  V30 666 H 63.5972 -1.02917 -3.62888 0
M  V30 667 H 65.9842 -0.322041 -2.93338 0
M  V30 668 H 66.0652 -1.73866 -1.87628 0
M  V30 669 H 65.7092 -3.24607 -3.90631 0
M  V30 670 H 65.6392 -1.80247 -4.94791 0
M  V30 671 H 68.1302 -1.6653 -3.39229 0
M  V30 672 H 68.4432 -3.95565 -6.63889 0
M  V30 673 H 66.7882 -3.55145 -5.97409 0
M  V30 674 H 69.9792 -2.13808 -4.16418 0
M  V30 675 H 70.1522 -3.1823 -5.64476 0
M  V30 676 N 63.5583 1.46682 -0.576371 0
M  V30 677 C 64.8073 2.01619 -0.0572825 0
M  V30 678 C 65.1203 1.45417 1.30818 0
M  V30 679 O 66.3263 1.92133 1.91825 0
M  V30 680 C 64.7823 3.59863 -0.0518371 0
M  V30 681 C 64.3903 4.25059 -1.41523 0
M  V30 682 C 66.1343 4.2248 0.413639 0
M  V30 683 C 64.0413 5.75364 -1.36785 0
M  V30 684 H 62.9713 0.753794 -0.0176448 0
M  V30 685 H 65.6223 1.68481 -0.727076 0
M  V30 686 H 64.0043 3.90048 0.683994 0
M  V30 687 H 65.1783 4.06491 -2.17029 0
M  V30 688 H 63.4933 3.7451 -1.8202 0
M  V30 689 H 66.0903 5.3265 0.467779 0
M  V30 690 H 66.4333 3.90976 1.42982 0
M  V30 691 H 66.9663 3.96897 -0.267929 0
M  V30 692 H 63.7053 6.11518 -2.36063 0
M  V30 693 H 63.2253 5.96214 -0.654895 0
M  V30 694 H 64.9043 6.37955 -1.07805 0
M  V30 695 N 65.0364 0.313813 1.54444 0
M  V30 696 C 66.2764 -0.292389 2.02298 0
M  V30 697 C 66.6404 -1.50105 1.19719 0
M  V30 698 O 67.8414 -2.17947 1.5733 0
M  V30 699 C 66.1124 -0.627682 3.51845 0
M  V30 700 S 67.6714 -1.21493 4.21646 0
M  V30 701 H 64.4894 -0.0890247 0.705405 0
M  V30 702 H 67.0914 0.444668 1.90376 0
M  V30 703 H 65.7954 0.260265 4.09574 0
M  V30 704 H 65.3264 -1.39519 3.67829 0
M  V30 705 H 67.3414 -2.5022 4.28491 0
M  V30 706 N 66.5145 -1.57545 0.0417849 0
M  V30 707 C 67.4625 -2.12148 -0.953723 0
M  V30 708 C 68.4565 -1.05104 -1.32852 0
M  V30 709 O 69.6625 -1.23524 -1.30927 0
M  V30 710 H 66.0375 -0.677957 -0.325389 0
M  V30 711 H 68.0085 -2.94707 -0.467991 0
M  V30 712 C 66.7575 -2.6739 -2.22257 0
M  V30 713 H 66.0805 -3.49413 -1.94295 0
M  V30 714 H 67.5205 -3.09227 -2.90094 0
M  V30 715 C 65.9795 -1.60723 -2.96091 0
M  V30 716 O 66.5095 -1.01449 -3.88679 0
M  V30 717 N 64.7155 -1.32466 -2.58652 0
M  V30 718 H 64.2625 -1.80856 -1.83437 0
M  V30 719 H 64.2205 -0.61325 -3.08361 0
M  V30 720 N 67.9926 0.231505 -1.5589 0
M  V30 721 C 69.2696 0.981096 -1.69215 0
M  V30 722 C 69.6496 2.02799 -0.586164 0
M  V30 723 O 68.9976 2.24823 0.408253 0
M  V30 724 C 69.2076 1.60054 -3.10135 0
M  V30 725 C 70.5556 2.09658 -3.69227 0
M  V30 726 O 71.5796 1.69967 -3.13033 0
M  V30 727 O 70.4386 2.8258 -4.67772 0
M  V30 728 H 67.5326 0.457653 -0.688827 0
M  V30 729 H 70.0786 0.224073 -1.68214 0
M  V30 730 H 68.8506 0.844105 -3.82087 0
M  V30 731 H 68.4736 2.42336 -3.15212 0
M  V30 732 N 69.4707 1.49531 0.497807 0
M  V30 733 C 70.7007 1.62657 1.27382 0
M  V30 734 C 71.1087 0.298488 1.86831 0
M  V30 735 O 70.4517 -0.72647 1.68725 0
M  V30 736 C 70.5137 2.6393 2.44093 0
M  V30 737 C 70.1777 4.08195 2.05489 0
M  V30 738 C 71.1747 4.949 1.59279 0
M  V30 739 C 68.8597 4.53948 2.15026 0
M  V30 740 C 70.8537 6.25397 1.23113 0
M  V30 741 C 68.5407 5.84458 1.78473 0
M  V30 742 C 69.5387 6.70006 1.32591 0
M  V30 743 O 69.2267 7.98083 0.965327 0
M  V30 744 H 68.9587 0.550429 0.392434 0
M  V30 745 H 71.5127 1.96325 0.603801 0
M  V30 746 H 69.7427 2.25449 3.14181 0
M  V30 747 H 71.4317 2.66552 3.06113 0
M  V30 748 H 72.1977 4.60779 1.51354 0
M  V30 749 H 68.0767 3.87525 2.4969 0
M  V30 750 H 71.6207 6.92125 0.872299 0
M  V30 751 H 67.5177 6.18107 1.86048 0
M  V30 752 H 68.2857 8.11122 1.09652 0
M  V30 753 N 70.9488 -0.749086 1.3866 0
M  V30 754 C 72.1978 -1.50371 1.3443 0
M  V30 755 C 72.5108 -1.95503 -0.0616397 0
M  V30 756 O 73.7168 -2.70554 -0.226489 0
M  V30 757 C 72.1728 -2.71644 2.36088 0
M  V30 758 C 71.7808 -2.3352 3.82325 0
M  V30 759 C 73.5248 -3.49518 2.40909 0
M  V30 760 C 71.4318 -3.51431 4.75658 0
M  V30 761 H 70.3618 -0.564628 0.499712 0
M  V30 762 H 73.0128 -0.818449 1.64237 0
M  V30 763 H 71.3948 -3.42175 1.9933 0
M  V30 764 H 72.5688 -1.70627 4.28046 0
M  V30 765 H 70.8838 -1.6877 3.80665 0
M  V30 766 H 73.4808 -4.37197 3.07836 0
M  V30 767 H 73.8238 -3.90992 1.42937 0
M  V30 768 H 74.3568 -2.86005 2.76489 0
M  V30 769 H 71.0958 -3.15019 5.74842 0
M  V30 770 H 70.6158 -4.13352 4.34627 0
M  V30 771 H 72.2948 -4.17953 4.93887 0
M  V30 772 N 72.4269 -1.23603 -0.977757 0
M  V30 773 C 73.6729 -1.07129 -1.72195 0
M  V30 774 C 74.0059 0.390501 -1.90233 0
M  V30 775 O 73.2809 1.28902 -1.45653 0
M  V30 776 C 73.5639 -1.80031 -3.11867 0
M  V30 777 C 73.4169 -3.33899 -3.01383 0
M  V30 778 C 74.7359 -1.56492 -4.11337 0
M  V30 779 H 71.8549 -0.390571 -0.624999 0
M  V30 780 H 74.4969 -1.52142 -1.13811 0
M  V30 781 H 72.6469 -1.41768 -3.6171 0
M  V30 782 H 74.3189 -3.81699 -2.59043 0
M  V30 783 H 72.5619 -3.62796 -2.37827 0
M  V30 784 H 73.2329 -3.801 -4.00285 0
M  V30 785 H 75.7089 -1.89757 -3.70313 0
M  V30 786 H 74.5849 -2.09973 -5.07151 0
M  V30 787 H 74.8459 -0.500874 -4.39254 0
M  V30 788 N 73.905 1.17692 -1.04816 0
M  V30 789 C 74.853 2.23632 -0.63966 0
M  V30 790 C 75.847 1.6601 0.337219 0
M  V30 791 O 77.053 1.78844 0.203693 0
M  V30 792 H 73.428 0.727949 -0.188665 0
M  V30 793 H 75.399 2.55387 -1.54337 0
M  V30 794 C 74.148 3.4769 -0.0264051 0
M  V30 795 H 73.471 3.92331 -0.769164 0
M  V30 796 H 74.911 4.23418 0.222098 0
M  V30 797 C 73.37 3.13807 1.22584 0
M  V30 798 O 73.9 3.28236 2.31569 0
M  V30 799 N 72.106 2.68065 1.12202 0
M  V30 800 H 71.653 2.56525 0.235133 0
M  V30 801 H 71.611 2.45767 1.96076 0
M  V30 802 N 75.3831 0.828654 1.34056 0
M  V30 803 C 76.2931 0.256725 2.33191 0
M  V30 804 C 77.3091 -0.611898 1.62886 0
M  V30 805 O 78.4851 -0.51844 1.94613 0
M  V30 806 C 75.5501 -0.567238 3.42028 0
M  V30 807 C 74.6111 0.324458 4.28072 0
M  V30 808 C 73.8441 -0.460274 5.31712 0
M  V30 809 O 74.0671 -1.693 5.44696 0
M  V30 810 O 73.0011 0.160391 6.01686 0
M  V30 811 H 76.8271 1.07739 2.83947 0
M  V30 812 H 74.4121 0.59093 1.37217 0
M  V30 813 H 76.2941 -1.03582 4.08471 0
M  V30 814 H 74.9691 -1.36513 2.93506 0
M  V30 815 H 73.8761 0.840659 3.64532 0
M  V30 816 H 75.2091 1.08685 4.8005 0
M  V30 817 N 76.8612 -1.46375 0.584142 0
M  V30 818 C 77.7932 -2.28443 -0.186119 0
M  V30 819 C 78.8062 -1.38596 -0.854115 0
M  V30 820 O 79.9952 -1.63183 -0.723438 0
M  V30 821 C 77.0952 -3.13671 -1.28311 0
M  V30 822 C 76.2682 -4.31652 -0.706758 0
M  V30 823 C 75.3272 -4.98267 -1.69163 0
M  V30 824 O 74.3532 -5.55815 -1.22712 0
M  V30 825 N 75.5552 -4.95408 -3.02575 0
M  V30 826 H 78.3202 -2.9519 0.517986 0
M  V30 827 H 75.8812 -1.56303 0.42201 0
M  V30 828 H 77.8732 -3.55101 -1.94128 0
M  V30 829 H 76.4432 -2.48989 -1.89005 0
M  V30 830 H 75.6632 -3.93989 0.128908 0
M  V30 831 H 76.9512 -5.07906 -0.301506 0
M  V30 832 H 76.3492 -4.49902 -3.42936 0
M  V30 833 H 74.9062 -5.40774 -3.63877 0
M  V30 834 N 78.3393 -0.321999 -1.54275 0
M  V30 835 C 79.2893 0.560185 -2.21011 0
M  V30 836 C 80.2733 1.08283 -1.19011 0
M  V30 837 O 81.4653 1.02011 -1.44647 0
M  V30 838 C 78.5943 1.72137 -2.97025 0
M  V30 839 C 77.6803 1.21369 -4.06363 0
M  V30 840 N 78.0713 0.425566 -5.04007 0
M  V30 841 C 76.3693 1.49255 -4.20284 0
M  V30 842 C 77.0703 0.152601 -5.815 0
M  V30 843 N 76.0463 0.738294 -5.38563 0
M  V30 844 H 79.8483 -0.049265 -2.93859 0
M  V30 845 H 77.3623 -0.127779 -1.61897 0
M  V30 846 H 79.3593 2.36512 -3.43319 0
M  V30 847 H 78.0193 2.33431 -2.25699 0
M  V30 848 H 79.0303 0.068551 -5.17855 0
M  V30 849 H 75.7073 2.11145 -3.60172 0
M  V30 850 H 77.0973 -0.481764 -6.70171 0
M  V30 851 N 79.8174 1.5752 -0.0501392 0
M  V30 852 C 80.7804 2.1037 0.909786 0
M  V30 853 C 81.7804 1.02308 1.24056 0
M  V30 854 O 82.9704 1.28385 1.17741 0
M  V30 855 C 80.1024 2.58708 2.21998 0
M  V30 856 H 81.2954 2.96479 0.451665 0
M  V30 857 H 78.8484 1.55038 0.198248 0
M  V30 858 H 79.5834 1.75989 2.72394 0
M  V30 859 H 79.3684 3.37675 1.99295 0
M  V30 860 H 80.8584 2.99747 2.9076 0
M  V30 861 N 81.2955 -0.223234 1.56011 0
M  V30 862 C 82.5415 -0.949279 1.79211 0
M  V30 863 C 82.8745 -1.84054 0.619494 0
M  V30 864 O 82.1495 -1.90726 -0.381317 0
M  V30 865 C 82.4325 -1.78965 3.12479 0
M  V30 866 C 82.2855 -0.924997 4.40186 0
M  V30 867 C 83.6045 -2.76774 3.42175 0
M  V30 868 H 80.7235 -0.343676 0.651963 0
M  V30 869 H 83.3655 -0.218253 1.88742 0
M  V30 870 H 81.5155 -2.41291 3.04485 0
M  V30 871 H 83.1875 -0.318615 4.60198 0
M  V30 872 H 81.4305 -0.230344 4.33188 0
M  V30 873 H 82.1015 -1.54735 5.29869 0
M  V30 874 H 84.5775 -2.24584 3.50287 0
M  V30 875 H 83.4535 -3.32678 4.36597 0
M  V30 876 H 83.7145 -3.54429 2.64258 0
M  V30 877 N 82.7736 -1.49793 -0.48987 0
M  V30 878 C 83.9986 -1.63836 -1.27172 0
M  V30 879 C 84.4236 -0.31402 -1.8546 0
M  V30 880 O 83.7816 0.719803 -1.66399 0
M  V30 881 C 83.8296 -2.71797 -2.36978 0
M  V30 882 O 82.9336 -2.31744 -3.41128 0
M  V30 883 H 82.2746 -0.547997 -0.37496 0
M  V30 884 H 84.8046 -1.96053 -0.585191 0
M  V30 885 H 84.8146 -2.94305 -2.82575 0
M  V30 886 H 83.4896 -3.67923 -1.93921 0
M  V30 887 H 82.0666 -2.1961 -3.01373 0
M  V30 888 N 84.2517 0.741722 -1.39055 0
M  V30 889 C 85.2147 1.83733 -1.37021 0
M  V30 890 C 86.2147 1.58542 -0.268534 0
M  V30 891 O 87.4047 1.66067 -0.526076 0
M  V30 892 C 84.5367 3.2141 -1.13617 0
M  V30 893 H 85.7297 1.86941 -2.34506 0
M  V30 894 H 83.2827 0.944676 -1.24521 0
M  V30 895 H 84.0177 3.23865 -0.167863 0
M  V30 896 H 83.8027 3.4109 -1.93391 0
M  V30 897 H 85.2927 4.01477 -1.14918 0
M  V30 898 N 85.7298 1.2412 0.971189 0
M  V30 899 C 86.9698 1.09066 1.7287 0
M  V30 900 C 87.3338 -0.364794 1.88503 0
M  V30 901 O 88.5348 -0.636748 2.61149 0
M  V30 902 C 86.8058 1.80629 3.08396 0
M  V30 903 S 88.3648 1.81263 3.99611 0
M  V30 904 H 85.1828 0.390145 0.594397 0
M  V30 905 H 87.7848 1.57397 1.15959 0
M  V30 906 H 86.4888 2.85647 2.94676 0
M  V30 907 H 86.0198 1.32617 3.70373 0
M  V30 908 H 88.0348 0.877804 4.88374 0
M  V30 909 N 87.2079 -1.17134 1.05439 0
M  V30 910 C 88.1379 -2.2342 0.678649 0
M  V30 911 C 89.1189 -1.66971 -0.32476 0
M  V30 912 O 90.3039 -1.93149 -0.201802 0
M  V30 913 C 87.4339 -3.47256 0.0552099 0
M  V30 914 C 86.3879 -4.16543 0.98365 0
M  V30 915 C 85.7139 -5.34231 0.223961 0
M  V30 916 C 87.0139 -4.68495 2.3089 0
M  V30 917 H 88.7079 -2.55105 1.56722 0
M  V30 918 H 86.2539 -1.2262 0.754998 0
M  V30 919 H 88.2069 -4.20828 -0.21946 0
M  V30 920 H 86.9309 -3.14846 -0.868319 0
M  V30 921 H 85.5899 -3.44887 1.24293 0
M  V30 922 H 85.2379 -4.98071 -0.702412 0
M  V30 923 H 84.9379 -5.81527 0.842627 0
M  V30 924 H 86.4619 -6.10585 -0.0433671 0
M  V30 925 H 87.8759 -5.33691 2.09396 0
M  V30 926 H 86.2729 -5.26379 2.88176 0
M  V30 927 H 87.3429 -3.85169 2.94572 0
M  V30 928 N 88.686 -0.835752 -1.33615 0
M  V30 929 C 89.934 -0.429109 -1.97492 0
M  V30 930 C 90.255 1.01433 -1.66543 0
M  V30 931 O 89.525 1.70611 -0.962744 0
M  V30 932 H 88.105 -0.155686 -0.730596 0
M  V30 933 H 90.767 -1.06802 -1.63031 0
M  V30 934 H 89.863 -0.55861 -3.0706 0
M  V30 935 N 90.1641 1.46063 -0.591896 0
M  V30 936 C 91.3941 2.06418 -0.0867676 0
M  V30 937 C 91.8021 1.43975 1.22751 0
M  V30 938 O 91.1451 0.542531 1.75506 0
M  V30 939 C 91.2071 3.59213 0.143725 0
M  V30 940 C 90.8711 4.439 -1.08635 0
M  V30 941 C 91.8681 4.79864 -2.00067 0
M  V30 942 C 89.5531 4.84896 -1.31077 0
M  V30 943 C 91.5471 5.55661 -3.12282 0
M  V30 944 C 89.2341 5.6045 -2.43596 0
M  V30 945 C 90.2321 5.95747 -3.34027 0
M  V30 946 O 89.9201 6.69772 -4.4459 0
M  V30 947 H 89.6521 0.673443 -0.0587447 0
M  V30 948 H 92.2061 1.88539 -0.814994 0
M  V30 949 H 90.4361 3.75433 0.926668 0
M  V30 950 H 92.1251 4.01463 0.5985 0
M  V30 951 H 92.8911 4.48763 -1.83947 0
M  V30 952 H 88.7701 4.56867 -0.61594 0
M  V30 953 H 92.3141 5.8313 -3.82891 0
M  V30 954 H 88.2111 5.90965 -2.59674 0
M  V30 955 H 88.9791 6.88207 -4.43073 0
M  V30 956 N 91.6422 0.330177 1.54103 0
M  V30 957 C 92.5922 -0.548456 2.21305 0
M  V30 958 C 93.5762 -1.07651 1.19583 0
M  V30 959 O 94.7682 -1.01243 1.45186 0
M  V30 960 C 91.8972 -1.70559 2.97934 0
M  V30 961 C 90.9832 -1.19212 4.07 0
M  V30 962 N 91.3742 -0.398831 5.04225 0
M  V30 963 C 89.6722 -1.47024 4.2107 0
M  V30 964 C 90.3732 -0.121761 5.81573 0
M  V30 965 N 89.3492 -0.709722 5.38947 0
M  V30 966 H 93.1512 0.0648483 2.93828 0
M  V30 967 H 90.6652 0.136363 1.61826 0
M  V30 968 H 92.6622 -2.34688 3.44568 0
M  V30 969 H 91.3222 -2.32231 2.26934 0
M  V30 970 H 92.3332 -0.0410869 5.17884 0
M  V30 971 H 89.0102 -2.09232 3.61287 0
M  V30 972 H 90.4002 0.517298 6.69906 0
M  V30 973 N 93.1203 -1.57491 0.0584922 0
M  V30 974 C 94.3683 -1.92597 -0.612436 0
M  V30 975 C 94.6893 -0.938162 -1.70949 0
M  V30 976 O 93.9593 0.0158301 -1.95894 0
M  V30 977 H 92.5393 -0.710964 -0.229214 0
M  V30 978 H 95.2013 -1.94571 0.113218 0
M  V30 979 H 94.2973 -2.94038 -1.04633 0
M  V30 980 N 94.5984 0.214957 -1.56127 0
M  V30 981 C 95.8284 0.953707 -1.8327 0
M  V30 982 C 96.2364 1.78181 -0.636262 0
M  V30 983 O 95.5794 1.79191 0.404516 0
M  V30 984 C 95.6414 1.91516 -3.0424 0
M  V30 985 C 95.3054 1.27094 -4.38972 0
M  V30 986 C 96.3024 0.657575 -5.15725 0
M  V30 987 C 93.9874 1.28073 -4.85698 0
M  V30 988 C 95.9814 0.0625968 -6.37369 0
M  V30 989 C 93.6684 0.681914 -6.07283 0
M  V30 990 C 94.6664 0.0739046 -6.8296 0
M  V30 991 O 94.3544 -0.515582 -8.02245 0
M  V30 992 H 94.0864 0.284764 -0.613095 0
M  V30 993 H 96.6404 0.233283 -2.04071 0
M  V30 994 H 94.8704 2.67475 -2.79274 0
M  V30 995 H 96.5594 2.52001 -3.18198 0
M  V30 996 H 97.3254 0.642288 -4.80728 0
M  V30 997 H 93.2044 1.74337 -4.26764 0
M  V30 998 H 96.7484 -0.412593 -6.96379 0
M  V30 999 H 92.6454 0.694636 -6.41752 0
M  V30 1000 H 93.4134 -0.410544 -8.1747 0
M  V30 1001 N 96.0765 1.50051 0.48192 0
M  V30 1002 C 97.4875 1.5348 1.06305 0
M  V30 1003 C 97.8385 0.331997 1.93371 0
M  V30 1004 O 96.9635 -0.556256 2.09129 0
M  V30 1005 C 97.5585 2.7813 1.93466 0
M  V30 1006 C 96.1175 2.84275 2.46707 0
M  V30 1007 C 95.2645 2.47637 1.24785 0
M  V30 1008 H 98.2155 1.56472 0.264995 0
M  V30 1009 H 98.2365 2.59372 2.78399 0
M  V30 1010 H 97.7485 3.65654 1.30072 0
M  V30 1011 H 95.8495 2.01077 3.13686 0
M  V30 1012 H 95.9625 3.8691 2.82555 0
M  V30 1013 H 94.3265 1.99835 1.57918 0
M  V30 1014 H 95.1095 3.37457 0.630694 0
M  V30 1015 N 97.5546 -0.734337 1.39446 0
M  V30 1016 C 98.5016 -1.84835 1.38219 0
M  V30 1017 C 99.4716 -1.64331 0.24179 0
M  V30 1018 O 100.657 -1.85728 0.437002 0
M  V30 1019 C 97.7966 -3.22355 1.23212 0
M  V30 1020 C 96.9096 -3.5456 2.46801 0
M  V30 1021 C 96.0446 -4.81485 2.24377 0
M  V30 1022 C 95.0836 -5.06536 3.43639 0
M  V30 1023 N 94.2206 -6.24665 3.20528 0
M  V30 1024 H 99.0606 -1.85219 2.33448 0
M  V30 1025 H 96.5976 -0.905039 1.15963 0
M  V30 1026 H 98.5556 -4.0174 1.12522 0
M  V30 1027 H 97.1856 -3.21248 0.316121 0
M  V30 1028 H 96.2376 -2.69872 2.68092 0
M  V30 1029 H 97.5496 -3.6899 3.3563 0
M  V30 1030 H 96.7036 -5.68852 2.10933 0
M  V30 1031 H 95.4426 -4.6923 1.32944 0
M  V30 1032 H 94.4476 -4.17632 3.5758 0
M  V30 1033 H 95.6726 -5.20676 4.35974 0
M  V30 1034 H 93.6186 -6.13696 2.3176 0
M  V30 1035 H 93.5356 -6.39685 4.02913 0
M  V30 1036 H 94.8036 -7.14868 3.10779 0
M  V30 1037 N 99.0327 -1.24633 -0.964593 0
M  V30 1038 C 100.258 -1.11596 -1.74818 0
M  V30 1039 C 100.683 0.32723 -1.85232 0
M  V30 1040 O 100.041 1.23695 -1.32549 0
M  V30 1041 C 100.089 -1.76397 -3.1451 0
M  V30 1042 O 99.1927 -1.03685 -3.99153 0
M  V30 1043 H 98.5337 -0.390196 -0.537255 0
M  V30 1044 H 101.064 -1.65002 -1.20977 0
M  V30 1045 H 101.074 -1.8228 -3.65018 0
M  V30 1046 H 99.7487 -2.81401 -3.06246 0
M  V30 1047 H 98.3257 -1.05611 -3.57632 0
M  V30 1048 N 100.511 1.16574 -1.06058 0
M  V30 1049 C 101.757 1.87324 -0.777022 0
M  V30 1050 C 102.09 1.81351 0.694645 0
M  V30 1051 O 101.365 1.22753 1.50871 0
M  V30 1052 C 101.648 3.36991 -1.26922 0
M  V30 1053 C 101.501 3.51667 -2.80447 0
M  V30 1054 C 102.82 4.3131 -0.87521 0
M  V30 1055 H 99.9388 0.680191 -0.28374 0
M  V30 1056 H 102.581 1.37036 -1.3161 0
M  V30 1057 H 100.731 3.79949 -0.81063 0
M  V30 1058 H 102.403 3.17664 -3.34495 0
M  V30 1059 H 100.646 2.93656 -3.19294 0
M  V30 1060 H 101.317 4.56766 -3.0995 0
M  V30 1061 H 103.793 3.9624 -1.27014 0
M  V30 1062 H 102.669 5.34545 -1.2471 0
M  V30 1063 H 102.93 4.41552 0.220071 0
M  V30 1064 N 101.989 0.842826 1.3317 0
M  V30 1065 C 103.229 0.446574 1.99462 0
M  V30 1066 C 103.593 -0.976818 1.65295 0
M  V30 1067 O 104.794 -1.477 2.24584 0
M  V30 1068 C 103.065 0.665353 3.51152 0
M  V30 1069 S 104.624 0.364911 4.3728 0
M  V30 1070 H 101.442 0.167803 0.690915 0
M  V30 1071 H 104.044 1.09297 1.62094 0
M  V30 1072 H 102.748 1.7006 3.73507 0
M  V30 1073 H 102.279 0.00494568 3.934 0
M  V30 1074 H 104.294 -0.813761 4.89482 0
M  V30 1075 N 103.467 -1.45747 0.599634 0
M  V30 1076 C 104.716 -2.01502 0.0893511 0
M  V30 1077 C 105.029 -1.4748 -1.28488 0
M  V30 1078 O 106.235 -1.95161 -1.88745 0
M  V30 1079 C 104.691 -3.59735 0.109082 0
M  V30 1080 C 104.299 -4.22754 1.48267 0
M  V30 1081 C 106.043 -4.23085 -0.346374 0
M  V30 1082 C 103.95 -5.73115 1.45921 0
M  V30 1083 H 102.88 -0.753417 0.0296347 0
M  V30 1084 H 105.531 -1.67303 0.753788 0
M  V30 1085 H 103.913 -3.91087 -0.621854 0
M  V30 1086 H 105.087 -4.02987 2.23468 0
M  V30 1087 H 103.402 -3.71567 1.87955 0
M  V30 1088 H 105.999 -5.33327 -0.38298 0
M  V30 1089 H 106.342 -3.93201 -1.36743 0
M  V30 1090 H 106.875 -3.9642 0.331038 0
M  V30 1091 H 103.614 -6.07685 2.45762 0
M  V30 1092 H 103.134 -5.95097 0.749665 0
M  V30 1093 H 104.813 -6.3616 1.17941 0
M  V30 1094 N 104.945 -0.338344 -1.53925 0
M  V30 1095 C 106.17 0.263987 -2.05713 0
M  V30 1096 C 106.595 1.43847 -1.21201 0
M  V30 1097 O 105.953 1.79904 -0.224535 0
M  V30 1098 C 106.001 0.662 -3.54471 0
M  V30 1099 O 105.105 1.76265 -3.72833 0
M  V30 1100 H 104.446 0.0448722 -0.662482 0
M  V30 1101 H 106.976 -0.491048 -1.9862 0
M  V30 1102 H 106.986 0.940594 -3.9701 0
M  V30 1103 H 105.661 -0.196937 -4.15433 0
M  V30 1104 H 104.238 1.48173 -3.42198 0
M  V30 1105 N 106.423 1.57458 -0.0668435 0
M  V30 1106 C 107.672 1.92477 0.602947 0
M  V30 1107 C 107.985 0.948419 1.71068 0
M  V30 1108 O 109.191 1.19124 2.43971 0
M  V30 1109 C 107.647 3.41903 1.12383 0
M  V30 1110 C 107.255 4.47975 0.04737 0
M  V30 1111 C 108.999 3.85931 1.76797 0
M  V30 1112 C 106.906 5.88529 0.582022 0
M  V30 1113 H 105.836 0.718387 0.22899 0
M  V30 1114 H 108.487 1.82978 -0.138276 0
M  V30 1115 H 106.869 3.46459 1.91787 0
M  V30 1116 H 108.043 4.55029 -0.726978 0
M  V30 1117 H 106.358 4.13384 -0.500243 0
M  V30 1118 H 108.955 4.88322 2.17821 0
M  V30 1119 H 109.298 3.23029 2.62599 0
M  V30 1120 H 109.831 3.83958 1.04024 0
M  V30 1121 H 106.57 6.55065 -0.238721 0
M  V30 1122 H 106.09 5.85004 1.324 0
M  V30 1123 H 107.769 6.38258 1.05999 0
M  V30 1124 N 107.901 -0.206675 1.56239 0
M  V30 1125 C 108.849 -1.27571 1.94495 0
M  V30 1126 C 109.843 -1.47737 0.828862 0
M  V30 1127 O 111.049 -1.48735 1.0138 0
M  V30 1128 H 107.424 -0.428029 0.6183 0
M  V30 1129 H 109.395 -0.925961 2.8367 0
M  V30 1130 C 108.144 -2.61568 2.29079 0
M  V30 1131 H 107.467 -2.46863 3.14482 0
M  V30 1132 H 108.907 -3.35144 2.5972 0
M  V30 1133 C 107.366 -3.17695 1.12123 0
M  V30 1134 O 107.896 -3.99801 0.390153 0
M  V30 1135 N 106.102 -2.76276 0.901097 0
M  V30 1136 H 105.649 -2.09613 1.49733 0
M  V30 1137 H 105.607 -3.1417 0.120319 0
M  V30 1138 N 109.379 -1.50304 -0.473955 0
M  V30 1139 C 110.289 -1.7174 -1.5982 0
M  V30 1140 C 111.305 -0.600457 -1.63311 0
M  V30 1141 O 112.481 -0.878441 -1.81233 0
M  V30 1142 C 109.546 -1.80427 -2.96052 0
M  V30 1143 C 108.607 -3.04148 -3.02972 0
M  V30 1144 C 107.84 -3.12411 -4.32706 0
M  V30 1145 O 108.063 -2.27542 -5.23049 0
M  V30 1146 O 106.997 -4.05113 -4.45159 0
M  V30 1147 H 110.823 -2.67035 -1.44657 0
M  V30 1148 H 108.408 -1.34366 -0.653148 0
M  V30 1149 H 110.29 -1.88338 -3.7697 0
M  V30 1150 H 108.965 -0.883156 -3.11419 0
M  V30 1151 H 107.872 -3.0174 -2.21142 0
M  V30 1152 H 109.205 -3.95829 -2.92541 0
M  V30 1153 N 110.857 0.726932 -1.39834 0
M  V30 1154 C 112.103 1.48884 -1.377 0
M  V30 1155 C 112.436 1.94185 0.0244852 0
M  V30 1156 O 111.711 1.67361 0.990986 0
M  V30 1157 C 111.994 2.72288 -2.3565 0
M  V30 1158 C 111.847 2.32956 -3.84775 0
M  V30 1159 C 113.166 3.74414 -2.31306 0
M  V30 1160 H 110.285 0.540062 -0.5015 0
M  V30 1161 H 112.927 0.830547 -1.70886 0
M  V30 1162 H 111.077 3.28457 -2.07481 0
M  V30 1163 H 112.749 1.82356 -4.23726 0
M  V30 1164 H 110.992 1.65088 -4.01159 0
M  V30 1165 H 111.663 3.21362 -4.4881 0
M  V30 1166 H 114.139 3.27849 -2.56231 0
M  V30 1167 H 113.015 4.58414 -3.01907 0
M  V30 1168 H 113.276 4.21909 -1.32081 0
M  V30 1169 N 112.336 1.25143 0.95797 0
M  V30 1170 C 113.582 1.09855 1.70469 0
M  V30 1171 C 113.915 -0.360187 1.90831 0
M  V30 1172 O 113.19 -1.26568 1.47685 0
M  V30 1173 C 113.473 1.8497 3.08963 0
M  V30 1174 C 113.326 3.38652 2.96032 0
M  V30 1175 C 114.645 1.63016 4.08795 0
M  V30 1176 H 111.764 0.400465 0.618706 0
M  V30 1177 H 114.406 1.53933 1.11376 0
M  V30 1178 H 112.556 1.47505 3.59409 0
M  V30 1179 H 114.228 3.85772 2.52938 0
M  V30 1180 H 112.471 3.66534 2.32025 0
M  V30 1181 H 113.142 3.8642 3.94187 0
M  V30 1182 H 115.618 1.95625 3.67247 0
M  V30 1183 H 114.494 2.18015 5.03747 0
M  V30 1184 H 114.755 0.570692 4.38401 0
M  V30 1185 N 113.814 -1.1601 1.06675 0
M  V30 1186 C 115.054 -1.88304 0.795037 0
M  V30 1187 C 115.418 -1.80062 -0.666466 0
M  V30 1188 O 116.619 -2.47319 -1.05293 0
M  V30 1189 C 114.89 -3.33664 1.28076 0
M  V30 1190 S 116.449 -4.23768 1.13868 0
M  V30 1191 H 113.267 -0.649928 0.288296 0
M  V30 1192 H 115.869 -1.4001 1.36445 0
M  V30 1193 H 114.573 -3.37203 2.33927 0
M  V30 1194 H 114.104 -3.87009 0.706253 0
M  V30 1195 H 116.119 -4.96148 0.0719668 0
M  V30 1196 N 115.292 -0.849877 -1.32721 0
M  V30 1197 C 116.242 -0.262892 -2.26479 0
M  V30 1198 C 117.226 0.588493 -1.49752 0
M  V30 1199 O 118.418 0.438659 -1.71478 0
M  V30 1200 C 115.547 0.551818 -3.38836 0
M  V30 1201 C 114.633 -0.311689 -4.22953 0
M  V30 1202 N 115.024 -1.39567 -4.86163 0
M  V30 1203 C 113.322 -0.100611 -4.45887 0
M  V30 1204 C 114.023 -1.92651 -5.48872 0
M  V30 1205 N 112.999 -1.22637 -5.29586 0
M  V30 1206 H 116.801 -1.09166 -2.72873 0
M  V30 1207 H 114.315 -0.695486 -1.46754 0
M  V30 1208 H 116.312 0.988713 -4.05006 0
M  V30 1209 H 114.972 1.37844 -2.93988 0
M  V30 1210 H 115.983 -1.77859 -4.86402 0
M  V30 1211 H 112.66 0.691681 -4.11731 0
M  V30 1212 H 114.05 -2.83487 -6.09167 0
M  V30 1213 N 116.77 1.45427 -0.607355 0
M  V30 1214 C 118.018 2.01841 -0.102253 0
M  V30 1215 C 118.339 1.47832 1.27164 0
M  V30 1216 O 117.609 0.672497 1.83995 0
M  V30 1217 H 116.189 0.746188 -0.0348101 0
M  V30 1218 H 118.851 1.78229 -0.7887 0
M  V30 1219 H 117.947 3.12057 -0.0518585 0
M  V30 1220 N 118.248 0.346503 1.53744 0
M  V30 1221 C 119.497 -0.250122 2.00143 0
M  V30 1222 C 119.81 -1.51418 1.23822 0
M  V30 1223 O 121.016 -2.18823 1.60713 0
M  V30 1224 C 119.472 -0.496252 3.56462 0
M  V30 1225 C 119.08 0.752077 4.41642 0
M  V30 1226 C 120.824 -1.05157 4.11269 0
M  V30 1227 C 118.731 0.476583 5.89477 0
M  V30 1228 H 117.661 -0.0972409 0.747703 0
M  V30 1229 H 120.312 0.46229 1.77581 0
M  V30 1230 H 118.694 -1.26944 3.75102 0
M  V30 1231 H 119.868 1.5266 4.34778 0
M  V30 1232 H 118.183 1.22925 3.97842 0
M  V30 1233 H 120.78 -1.27269 5.19333 0
M  V30 1234 H 121.123 -2.00799 3.64672 0
M  V30 1235 H 121.656 -0.339019 3.96353 0
M  V30 1236 H 118.395 1.4028 6.40314 0
M  V30 1237 H 117.915 -0.259794 5.99237 0
M  V30 1238 H 119.594 0.0949315 6.4693 0
M  V30 1239 N 119.726 -1.57421 0.075193 0
M  V30 1240 C 121.137 -1.81021 -0.456964 0
M  V30 1241 C 121.488 -0.98936 -1.69429 0
M  V30 1242 O 120.613 -0.212865 -2.15351 0
M  V30 1243 C 121.208 -3.28329 -0.83581 0
M  V30 1244 C 119.767 -3.52764 -1.31281 0
M  V30 1245 C 118.914 -2.75676 -0.299648 0
M  V30 1246 H 121.865 -1.55822 0.300856 0
M  V30 1247 H 121.886 -3.40564 -1.69696 0
M  V30 1248 H 121.398 -3.88046 0.0649238 0
M  V30 1249 H 119.499 -2.98355 -2.23193 0
M  V30 1250 H 119.612 -4.61451 -1.28839 0
M  V30 1251 H 117.976 -2.42538 -0.777641 0
M  V30 1252 H 118.759 -3.38132 0.593417 0
M  V30 1253 N 121.204 0.198386 -1.56346 0
M  V30 1254 C 122.481 0.944982 -1.71258 0
M  V30 1255 C 122.861 2.0151 -0.629048 0
M  V30 1256 O 122.209 2.25639 0.360473 0
M  V30 1257 C 122.419 1.5344 -3.1346 0
M  V30 1258 C 123.767 2.01778 -3.73591 0
M  V30 1259 O 124.791 1.63288 -3.16568 0
M  V30 1260 O 123.65 2.72594 -4.73661 0
M  V30 1261 H 120.744 0.442939 -0.69838 0
M  V30 1262 H 123.29 0.188342 -1.68652 0
M  V30 1263 H 122.062 0.762869 -3.83792 0
M  V30 1264 H 121.685 2.35596 -3.20282 0
M  V30 1265 N 122.682 1.50554 0.465978 0
M  V30 1266 C 123.959 1.5232 1.22712 0
M  V30 1267 C 124.339 0.270807 2.09356 0
M  V30 1268 O 123.687 -0.745541 2.15995 0
M  V30 1269 C 123.897 2.82175 2.05374 0
M  V30 1270 C 125.245 3.33033 2.6339 0
M  V30 1271 O 126.269 2.83531 2.15612 0
M  V30 1272 O 125.128 4.19336 3.50456 0
M  V30 1273 H 122.222 0.611183 0.557122 0
M  V30 1274 H 124.768 1.62847 0.477381 0
M  V30 1275 H 123.54 3.64797 1.41558 0
M  V30 1276 H 123.163 2.74675 2.87471 0
M  V30 1277 N 124.16 -0.719506 1.40217 0
M  V30 1278 C 125.123 -1.8153 1.39927 0
M  V30 1279 C 126.123 -1.58095 0.293723 0
M  V30 1280 O 127.313 -1.65209 0.552429 0
M  V30 1281 C 124.445 -3.19561 1.18716 0
M  V30 1282 H 125.638 -1.83186 2.37451 0
M  V30 1283 H 123.191 -0.924746 1.26008 0
M  V30 1284 H 123.926 -3.23557 0.219366 0
M  V30 1285 H 123.711 -3.3797 1.98793 0
M  V30 1286 H 125.201 -3.99598 1.21291 0
M  V30 1287 N 125.638 -1.25649 -0.95132 0
M  V30 1288 C 126.585 -1.06323 -2.04851 0
M  V30 1289 C 127.555 0.0286491 -1.66075 0
M  V30 1290 O 128.74 -0.12917 -1.90362 0
M  V30 1291 C 125.88 -0.691529 -3.381 0
M  V30 1292 C 124.993 -1.85861 -3.89974 0
M  V30 1293 C 124.128 -1.43096 -5.11563 0
M  V30 1294 C 123.167 -2.56696 -5.55674 0
M  V30 1295 N 122.304 -2.14684 -6.68472 0
M  V30 1296 H 127.144 -2.00222 -2.20715 0
M  V30 1297 H 124.681 -0.997027 -1.08156 0
M  V30 1298 H 126.639 -0.456963 -4.1469 0
M  V30 1299 H 125.269 0.210474 -3.22113 0
M  V30 1300 H 124.321 -2.20639 -3.09875 0
M  V30 1301 H 125.633 -2.71161 -4.18657 0
M  V30 1302 H 124.787 -1.15624 -5.9558 0
M  V30 1303 H 123.526 -0.548722 -4.84603 0
M  V30 1304 H 122.531 -2.84909 -4.7022 0
M  V30 1305 H 123.756 -3.45503 -5.8464 0
M  V30 1306 H 121.702 -1.28881 -6.43215 0
M  V30 1307 H 121.619 -2.9353 -6.96689 0
M  V30 1308 H 122.887 -1.90397 -7.5589 0
M  V30 1309 N 127.117 1.15442 -1.07289 0
M  V30 1310 C 128.047 2.22312 -0.714107 0
M  V30 1311 C 129.028 1.67467 0.298155 0
M  V30 1312 O 130.213 1.93445 0.171048 0
M  V30 1313 C 127.343 3.47124 -0.110448 0
M  V30 1314 C 126.297 4.14926 -1.04979 0
M  V30 1315 C 125.623 5.33807 -0.308924 0
M  V30 1316 C 126.923 4.64762 -2.38314 0
M  V30 1317 H 128.617 2.5258 -1.6076 0
M  V30 1318 H 126.163 1.21404 -0.77441 0
M  V30 1319 H 128.116 4.21124 0.152482 0
M  V30 1320 H 126.84 3.16187 0.81812 0
M  V30 1321 H 125.499 3.42866 -1.29764 0
M  V30 1322 H 125.147 4.99126 0.623084 0
M  V30 1323 H 124.847 5.80113 -0.935036 0
M  V30 1324 H 126.371 6.10576 -0.0537771 0
M  V30 1325 H 127.785 5.30292 -2.1786 0
M  V30 1326 H 126.182 5.21728 -2.96514 0
M  V30 1327 H 127.252 3.80434 -3.00663 0
M  V30 1328 N 128.595 0.856903 1.32268 0
M  V30 1329 C 129.525 0.31858 2.31316 0
M  V30 1330 C 130.506 -0.583487 1.59779 0
M  V30 1331 O 131.691 -0.503259 1.87566 0
M  V30 1332 C 128.821 -0.491979 3.43798 0
M  V30 1333 C 127.775 0.315849 4.26833 0
M  V30 1334 C 127.101 -0.619586 5.31098 0
M  V30 1335 C 128.401 1.54282 4.98993 0
M  V30 1336 H 130.095 1.14621 2.76591 0
M  V30 1337 H 127.641 0.552613 1.32974 0
M  V30 1338 H 129.594 -0.879012 4.1213 0
M  V30 1339 H 128.318 -1.35299 2.97257 0
M  V30 1340 H 126.977 0.684664 3.6015 0
M  V30 1341 H 126.625 -1.47751 4.8081 0
M  V30 1342 H 126.325 -0.0830621 5.87541 0
M  V30 1343 H 127.849 -1.00375 6.02293 0
M  V30 1344 H 129.263 1.22796 5.59995 0
M  V30 1345 H 127.66 2.01745 5.65172 0
M  V30 1346 H 128.73 2.30285 4.26728 0
M  V30 1347 N 130.073 -1.45103 0.615059 0
M  V30 1348 C 131.02 -2.30586 -0.0993978 0
M  V30 1349 C 131.99 -1.42544 -0.852669 0
M  V30 1350 O 133.175 -1.71465 -0.836917 0
M  V30 1351 C 130.315 -3.27572 -1.08583 0
M  V30 1352 C 129.428 -4.30717 -0.332656 0
M  V30 1353 C 128.563 -5.14807 -1.30947 0
M  V30 1354 C 127.602 -6.09673 -0.544538 0
M  V30 1355 N 126.739 -6.86517 -1.47101 0
M  V30 1356 H 131.579 -2.91144 0.635542 0
M  V30 1357 H 129.116 -1.4346 0.325206 0
M  V30 1358 H 131.074 -3.82276 -1.67095 0
M  V30 1359 H 129.704 -2.68751 -1.78809 0
M  V30 1360 H 128.756 -3.78615 0.368107 0
M  V30 1361 H 130.068 -4.98102 0.263842 0
M  V30 1362 H 129.222 -5.73948 -1.96643 0
M  V30 1363 H 127.961 -4.47458 -1.9399 0
M  V30 1364 H 126.966 -5.49656 0.126003 0
M  V30 1365 H 128.191 -6.79052 0.080947 0
M  V30 1366 H 126.137 -6.21851 -2.08895 0
M  V30 1367 H 126.054 -7.50281 -0.928137 0
M  V30 1368 H 127.322 -7.50194 -2.11731 0
M  V30 1369 N 131.551 -0.354651 -1.53558 0
M  V30 1370 C 132.828 0.294281 -1.93374 0
M  V30 1371 C 133.208 1.67313 -1.28723 0
M  V30 1372 O 132.556 2.24179 -0.442247 0
M  V30 1373 C 132.766 0.355445 -3.47185 0
M  V30 1374 C 134.114 0.601007 -4.20325 0
M  V30 1375 O 135.138 0.437106 -3.53508 0
M  V30 1376 O 133.997 0.919322 -5.38712 0
M  V30 1377 H 131.091 0.174033 -0.808481 0
M  V30 1378 H 133.637 -0.406638 -1.64756 0
M  V30 1379 H 132.409 -0.611729 -3.86489 0
M  V30 1380 H 132.032 1.1027 -3.82003 0
M  V30 1381 N 133.029 1.57378 -0.0835403 0
M  V30 1382 C 134.277 1.93547 0.581718 0
M  V30 1383 C 134.598 0.96524 1.69435 0
M  V30 1384 O 133.868 0.0153369 1.95894 0
M  V30 1385 H 132.448 0.714521 0.217874 0
M  V30 1386 H 135.11 1.94366 -0.144158 0
M  V30 1387 H 134.206 2.95665 0.999423 0
M  V30 1388 N 134.507 -0.190092 1.56449 0
M  V30 1389 C 135.784 -0.935886 1.71757 0
M  V30 1390 C 136.164 -2.01173 0.639726 0
M  V30 1391 O 135.512 -2.25827 -0.348502 0
M  V30 1392 C 135.722 -1.51775 3.1427 0
M  V30 1393 C 137.07 -1.99794 3.74656 0
M  V30 1394 O 138.094 -1.61607 3.1743 0
M  V30 1395 O 136.953 -2.70079 4.751 0
M  V30 1396 H 134.047 -0.439229 0.700719 0
M  V30 1397 H 136.593 -0.179395 1.68749 0
M  V30 1398 H 135.365 -0.742505 3.84191 0
M  V30 1399 H 134.988 -2.33894 3.21527 0
M  V30 1400 N 135.985 -1.50799 -0.457987 0
M  V30 1401 C 137.234 -1.6168 -1.20593 0
M  V30 1402 C 137.547 -0.32888 -1.92815 0
M  V30 1403 O 138.753 -0.316773 -2.69646 0
M  V30 1404 C 137.209 -2.8545 -2.19195 0
M  V30 1405 C 136.817 -4.21168 -1.52715 0
M  V30 1406 C 138.561 -3.05681 -2.94549 0
M  V30 1407 C 136.468 -5.3611 -2.4968 0
M  V30 1408 H 135.398 -0.602134 -0.453818 0
M  V30 1409 H 138.049 -1.77245 -0.475031 0
M  V30 1410 H 136.431 -2.63472 -2.95632 0
M  V30 1411 H 137.605 -4.53449 -0.819775 0
M  V30 1412 H 135.92 -4.06648 -0.895922 0
M  V30 1413 H 138.517 -3.88727 -3.67145 0
M  V30 1414 H 138.86 -2.17929 -3.54701 0
M  V30 1415 H 139.393 -3.27901 -2.25223 0
M  V30 1416 H 136.132 -6.26057 -1.94249 0
M  V30 1417 H 135.652 -5.0823 -3.18532 0
M  V30 1418 H 137.331 -5.6722 -3.11241 0
M  V30 1419 N 137.463 0.71206 -1.40597 0
M  V30 1420 C 138.709 1.47416 -1.39271 0
M  V30 1421 C 139.042 1.942 0.00388791 0
M  V30 1422 O 138.317 1.68403 0.973179 0
M  V30 1423 C 138.6 2.69774 -2.38525 0
M  V30 1424 C 138.453 2.28861 -3.87224 0
M  V30 1425 C 139.772 3.71939 -2.35264 0
M  V30 1426 H 136.891 0.534713 -0.5072 0
M  V30 1427 H 139.533 0.812375 -1.71757 0
M  V30 1428 H 137.683 3.26238 -2.10953 0
M  V30 1429 H 139.355 1.77852 -4.25636 0
M  V30 1430 H 137.598 1.60824 -4.02887 0
M  V30 1431 H 138.269 3.16584 -4.52193 0
M  V30 1432 H 140.745 3.25113 -2.59694 0
M  V30 1433 H 139.621 4.55186 -3.06753 0
M  V30 1434 H 139.882 4.20484 -1.36549 0
M  V30 1435 N 138.941 1.26152 0.944643 0
M  V30 1436 C 139.889 1.07215 2.06417 0
M  V30 1437 C 140.883 9.2007e-05 1.694 0
M  V30 1438 O 142.089 0.1565 1.79318 0
M  V30 1439 H 138.464 0.329837 0.675805 0
M  V30 1440 H 140.435 2.02099 2.19541 0
M  V30 1441 C 139.184 0.718197 3.40202 0
M  V30 1442 H 138.507 1.53497 3.69159 0
M  V30 1443 H 139.947 0.625459 4.19361 0
M  V30 1444 C 138.406 -0.576435 3.31932 0
M  V30 1445 O 138.936 -1.61574 3.67773 0
M  V30 1446 N 137.142 -0.565781 2.85039 0
M  V30 1447 H 136.689 0.280367 2.5607 0
M  V30 1448 H 136.647 -1.43213 2.79888 0
M  V30 1449 N 140.419 -1.14872 1.07899 0
M  V30 1450 C 141.668 -1.85135 0.800499 0
M  V30 1451 C 141.981 -1.83547 -0.676014 0
M  V30 1452 O 143.187 -2.49548 -1.06948 0
M  V30 1453 C 141.643 -3.3231 1.38197 0
M  V30 1454 C 141.251 -3.42329 2.8899 0
M  V30 1455 C 142.995 -4.0772 1.18174 0
M  V30 1456 C 140.902 -4.83684 3.403 0
M  V30 1457 H 139.832 -0.693563 0.29578 0
M  V30 1458 H 142.483 -1.29532 1.29976 0
M  V30 1459 H 140.865 -3.87618 0.810431 0
M  V30 1460 H 142.039 -2.97097 3.52236 0
M  V30 1461 H 140.354 -2.80369 3.07867 0
M  V30 1462 H 142.951 -5.12049 1.5398 0
M  V30 1463 H 143.294 -4.16124 0.12117 0
M  V30 1464 H 143.827 -3.58696 1.71994 0
M  V30 1465 H 140.566 -4.80465 4.45907 0
M  V30 1466 H 140.086 -5.29474 2.81811 0
M  V30 1467 H 141.765 -5.52558 3.36584 0
M  V30 1468 N 141.898 -0.863906 -1.31812 0
M  V30 1469 C 143.175 -0.39275 -1.91616 0
M  V30 1470 C 143.555 1.12461 -1.7865 0
M  V30 1471 O 142.903 1.95045 -1.19037 0
M  V30 1472 C 143.113 -0.867385 -3.38049 0
M  V30 1473 C 144.461 -0.889966 -4.15168 0
M  V30 1474 O 145.485 -0.812635 -3.46806 0
M  V30 1475 O 144.344 -1.00079 -5.37258 0
M  V30 1476 H 141.438 -0.116358 -0.818773 0
M  V30 1477 H 143.984 -0.951418 -1.40521 0
M  V30 1478 H 142.756 -1.91081 -3.41473 0
M  V30 1479 H 142.379 -0.286687 -3.96565 0
M  V30 1480 N 143.376 1.44774 -0.622745 0
M  V30 1481 C 144.622 2.0242 -0.124083 0
M  V30 1482 C 144.955 1.4881 1.24777 0
M  V30 1483 O 144.23 0.668799 1.8264 0
M  V30 1484 C 144.513 3.59957 -0.101619 0
M  V30 1485 C 144.366 4.23867 -1.50521 0
M  V30 1486 C 145.685 4.36284 0.578272 0
M  V30 1487 H 142.804 0.735528 -0.0465645 0
M  V30 1488 H 145.446 1.72447 -0.797617 0
M  V30 1489 H 143.596 3.85623 0.471934 0
M  V30 1490 H 145.268 4.09336 -2.12701 0
M  V30 1491 H 143.511 3.81684 -2.06154 0
M  V30 1492 H 144.182 5.32843 -1.4416 0
M  V30 1493 H 146.658 4.16001 0.0906057 0
M  V30 1494 H 145.534 5.46004 0.563149 0
M  V30 1495 H 145.795 4.10271 1.64713 0
M  V30 1496 N 144.854 0.36279 1.53368 0
M  V30 1497 C 146.082 -0.228613 2.05633 0
M  V30 1498 C 146.497 -1.42676 1.23649 0
M  V30 1499 O 145.854 -1.80394 0.27647 0
M  V30 1500 C 145.905 -0.624845 3.56059 0
M  V30 1501 O 145.626 0.525675 4.34935 0
M  V30 1502 C 147.127 -1.27493 4.24571 0
M  V30 1503 H 144.347 -0.0407183 0.669763 0
M  V30 1504 H 146.891 0.520352 1.97769 0
M  V30 1505 H 145.046 -1.32373 3.64083 0
M  V30 1506 H 145.46 0.205969 5.24095 0
M  V30 1507 H 146.934 -1.50277 5.31151 0
M  V30 1508 H 147.411 -2.23439 3.78116 0
M  V30 1509 H 148.017 -0.617558 4.20792 0
M  V30 1510 N 146.332 -1.57332 0.0918853 0
M  V30 1511 C 147.578 -1.94524 -0.573425 0
M  V30 1512 C 147.911 -0.973578 -1.68033 0
M  V30 1513 O 147.186 -0.00609226 -1.94499 0
M  V30 1514 C 147.469 -3.41858 -1.13161 0
M  V30 1515 C 147.322 -4.4979 -0.0299747 0
M  V30 1516 C 148.641 -3.90435 -2.03098 0
M  V30 1517 H 145.76 -0.70734 -0.206975 0
M  V30 1518 H 148.402 -1.89309 0.161942 0
M  V30 1519 H 146.552 -3.46433 -1.7583 0
M  V30 1520 H 148.224 -4.57327 0.604112 0
M  V30 1521 H 146.467 -4.291 0.636833 0
M  V30 1522 H 147.138 -5.50069 -0.461287 0
M  V30 1523 H 149.614 -3.87992 -1.50338 0
M  V30 1524 H 148.49 -4.94097 -2.39081 0
M  V30 1525 H 148.751 -3.29541 -2.94712 0
M  V30 1526 N 147.81 0.181792 -1.56548 0
M  V30 1527 C 149.059 0.898348 -1.8059 0
M  V30 1528 C 149.372 1.83862 -0.667379 0
M  V30 1529 O 150.578 2.59678 -0.792446 0
M  V30 1530 C 149.034 1.64791 -3.19956 0
M  V30 1531 C 148.642 0.751789 -4.41647 0
M  V30 1532 C 150.386 2.35331 -3.53298 0
M  V30 1533 C 148.293 1.50098 -5.72035 0
M  V30 1534 H 147.223 0.339194 -0.673397 0
M  V30 1535 H 149.874 0.151413 -1.82874 0
M  V30 1536 H 148.256 2.43921 -3.11959 0
M  V30 1537 H 149.43 -0.0018076 -4.608 0
M  V30 1538 H 147.745 0.156562 -4.16106 0
M  V30 1539 H 150.342 2.91958 -4.47956 0
M  V30 1540 H 150.685 3.10164 -2.77676 0
M  V30 1541 H 151.218 1.63154 -3.62803 0
M  V30 1542 H 147.957 0.795175 -6.50659 0
M  V30 1543 H 147.477 2.22817 -5.56878 0
M  V30 1544 H 149.156 2.05125 -6.13622 0
M  V30 1545 N 149.288 1.51039 0.449983 0
M  V30 1546 C 150.235 1.71439 1.54523 0
M  V30 1547 C 151.205 0.555871 1.56522 0
M  V30 1548 O 152.39 0.788871 1.73728 0
M  V30 1549 C 149.53 1.83384 2.92343 0
M  V30 1550 C 148.643 3.10873 2.9997 0
M  V30 1551 C 147.778 3.13488 4.28834 0
M  V30 1552 C 146.817 4.35343 4.30282 0
M  V30 1553 N 145.954 4.35579 5.5065 0
M  V30 1554 H 150.794 2.64934 1.36433 0
M  V30 1555 H 148.331 1.31312 0.662982 0
M  V30 1556 H 150.289 1.88291 3.72293 0
M  V30 1557 H 148.919 0.933086 3.0902 0
M  V30 1558 H 147.971 3.15336 2.12761 0
M  V30 1559 H 149.283 4.00814 2.96901 0
M  V30 1560 H 148.437 3.17241 5.17149 0
M  V30 1561 H 147.176 2.21414 4.34543 0
M  V30 1562 H 146.181 4.3178 3.40362 0
M  V30 1563 H 147.406 5.28668 4.26248 0
M  V30 1564 H 145.352 3.46369 5.57104 0
M  V30 1565 H 145.269 5.19313 5.49409 0
M  V30 1566 H 146.537 4.43507 6.41032 0
M  V30 1567 N 150.766 -0.704594 1.40972 0
M  V30 1568 C 152.043 -1.45847 1.30338 0
M  V30 1569 C 152.423 -2.10973 -0.0732344 0
M  V30 1570 O 151.771 -2.00997 -1.08685 0
M  V30 1571 C 151.981 -2.48525 2.45023 0
M  V30 1572 C 153.329 -3.1404 2.8577 0
M  V30 1573 O 154.353 -2.58848 2.44696 0
M  V30 1574 O 153.212 -4.13981 3.56766 0
M  V30 1575 H 150.306 -0.649092 0.512454 0
M  V30 1576 H 152.852 -0.735836 1.52917 0
M  V30 1577 H 151.624 -1.98994 3.36923 0
M  V30 1578 H 151.247 -3.2831 2.24272 0
M  V30 1579 N 152.244 -1.26651 -0.937939 0
M  V30 1580 C 153.492 -1.12165 -1.68118 0
M  V30 1581 C 153.813 0.334983 -1.92101 0
M  V30 1582 O 153.083 1.23583 -1.52 0
M  V30 1583 H 151.663 -0.412093 -0.623048 0
M  V30 1584 H 154.325 -1.59027 -1.12678 0
M  V30 1585 H 153.421 -1.64289 -2.6536 0
M  V30 1586 N 153.722 1.14298 -1.08507 0
M  V30 1587 C 154.969 1.85359 -0.815373 0
M  V30 1588 C 155.297 1.83001 0.658865 0
M  V30 1589 O 154.552 1.25655 1.50031 0
M  V30 1590 C 154.851 3.33547 -1.28379 0
M  V30 1591 C 154.517 3.56093 -2.76602 0
M  V30 1592 C 153.179 3.61955 -3.17084 0
M  V30 1593 C 155.531 3.64834 -3.72217 0
M  V30 1594 C 152.859 3.74082 -4.51973 0
M  V30 1595 C 155.211 3.78487 -5.06883 0
M  V30 1596 C 153.875 3.82598 -5.46969 0
M  V30 1597 H 153.145 0.678276 -0.298366 0
M  V30 1598 H 155.792 1.35002 -1.35819 0
M  V30 1599 H 154.097 3.86191 -0.660593 0
M  V30 1600 H 155.794 3.86959 -1.05186 0
M  V30 1601 H 152.384 3.52179 -2.4427 0
M  V30 1602 H 156.568 3.59595 -3.42061 0
M  V30 1603 H 151.824 3.75527 -4.82483 0
M  V30 1604 H 155.998 3.84193 -5.80834 0
M  V30 1605 H 153.625 3.91747 -6.51489 0
M  V30 1606 N 155.201 0.870884 1.31352 0
M  V30 1607 C 156.151 0.298889 2.26032 0
M  V30 1608 C 157.135 -0.564595 1.50669 0
M  V30 1609 O 158.327 -0.411323 1.72154 0
M  V30 1610 C 155.456 -0.497842 3.39671 0
M  V30 1611 C 154.542 0.378937 4.22404 0
M  V30 1612 N 154.933 1.47284 4.83881 0
M  V30 1613 C 153.231 0.171535 4.4567 0
M  V30 1614 C 153.932 2.01359 5.45738 0
M  V30 1615 N 152.908 1.31047 5.27568 0
M  V30 1616 H 156.71 1.13494 2.71102 0
M  V30 1617 H 154.224 0.718745 1.45629 0
M  V30 1618 H 156.221 -0.924155 4.06528 0
M  V30 1619 H 154.881 -1.33149 2.96144 0
M  V30 1620 H 155.892 1.85575 4.8351 0
M  V30 1621 H 152.569 -0.626091 4.12779 0
M  V30 1622 H 153.959 2.93143 6.0458 0
M  V30 1623 N 156.679 -1.44442 0.630414 0
M  V30 1624 C 157.927 -2.01653 0.134351 0
M  V30 1625 C 158.248 -1.49836 -1.24796 0
M  V30 1626 O 157.518 -0.701684 -1.82902 0
M  V30 1627 H 156.098 -0.74554 0.0466769 0
M  V30 1628 H 158.76 -1.76952 0.816955 0
M  V30 1629 H 157.856 -3.11935 0.101498 0
M  V30 1630 N 158.157 -0.370918 -1.53173 0
M  V30 1631 C 159.434 0.273754 -1.93675 0
M  V30 1632 C 159.814 1.65938 -1.3049 0
M  V30 1633 O 159.162 2.23698 -0.465999 0
M  V30 1634 C 159.372 0.318602 -3.47543 0
M  V30 1635 C 160.72 0.556392 -4.20939 0
M  V30 1636 O 161.744 0.399587 -3.53952 0
M  V30 1637 O 160.603 0.862133 -5.39657 0
M  V30 1638 H 157.697 0.165448 -0.810281 0
M  V30 1639 H 160.243 -0.42409 -1.64315 0
M  V30 1640 H 159.015 -0.652687 -3.85818 0
M  V30 1641 H 158.638 1.06212 -3.83151 0
M  V30 1642 N 159.635 1.57281 -0.100228 0
M  V30 1643 C 160.863 1.98879 0.570509 0
M  V30 1644 C 161.278 0.979476 1.61405 0
M  V30 1645 O 160.635 -0.0302288 1.82475 0
M  V30 1646 C 160.686 3.4052 1.2136 0
M  V30 1647 O 160.407 4.37588 0.211786 0
M  V30 1648 C 161.908 3.97149 1.96945 0
M  V30 1649 H 159.128 0.653428 0.152555 0
M  V30 1650 H 161.672 2.03697 -0.18103 0
M  V30 1651 H 159.827 3.367 1.91603 0
M  V30 1652 H 160.241 5.20118 0.676607 0
M  V30 1653 H 161.715 4.98393 2.37294 0
M  V30 1654 H 162.192 3.3525 2.83733 0
M  V30 1655 H 162.798 4.04458 1.31506 0
M  V30 1656 N 161.113 -0.173488 1.56642 0
M  V30 1657 C 162.338 -0.910149 1.86363 0
M  V30 1658 C 162.763 -1.75132 0.686318 0
M  V30 1659 O 162.121 -1.77595 -0.364643 0
M  V30 1660 C 162.169 -1.76447 3.14482 0
M  V30 1661 O 161.273 -2.86584 2.96553 0
M  V30 1662 H 160.614 -0.255086 0.613047 0
M  V30 1663 H 163.144 -0.172283 2.03873 0
M  V30 1664 H 163.154 -2.16483 3.45831 0
M  V30 1665 H 161.829 -1.14658 3.99783 0
M  V30 1666 H 160.406 -2.50146 2.76553 0
M  V30 1667 N 162.591 -1.51276 -0.441967 0
M  V30 1668 C 163.538 -1.72256 -1.53612 0
M  V30 1669 C 164.508 -0.564164 -1.56225 0
M  V30 1670 O 165.693 -0.798074 -1.73307 0
M  V30 1671 C 162.833 -1.84932 -2.91366 0
M  V30 1672 C 161.946 -3.12459 -2.98317 0
M  V30 1673 C 161.081 -3.15758 -4.27166 0
M  V30 1674 C 160.12 -4.37619 -4.27967 0
M  V30 1675 N 159.257 -4.38493 -5.48333 0
M  V30 1676 H 164.097 -2.65654 -1.35026 0
M  V30 1677 H 161.634 -1.31662 -0.656009 0
M  V30 1678 H 163.592 -1.90263 -3.7129 0
M  V30 1679 H 162.222 -0.949461 -3.08521 0
M  V30 1680 H 161.274 -3.1646 -2.11086 0
M  V30 1681 H 162.586 -4.02382 -2.94771 0
M  V30 1682 H 161.74 -3.19979 -5.15459 0
M  V30 1683 H 160.479 -2.23715 -4.33362 0
M  V30 1684 H 159.484 -4.33579 -3.38067 0
M  V30 1685 H 160.709 -5.30921 -4.23438 0
M  V30 1686 H 158.655 -3.49318 -5.55259 0
M  V30 1687 H 158.572 -5.22219 -5.46647 0
M  V30 1688 H 159.84 -4.469 -6.38671 0
M  V30 1689 N 164.069 0.697108 -1.41344 0
M  V30 1690 C 165.002 1.82134 -1.37486 0
M  V30 1691 C 165.98 1.60784 -0.242351 0
M  V30 1692 O 167.164 1.83553 -0.429012 0
M  V30 1693 C 164.291 3.18788 -1.14421 0
M  V30 1694 C 163.337 3.58932 -2.3037 0
M  V30 1695 S 164.17 3.63916 -3.92843 0
M  V30 1696 C 165.326 5.03298 -3.72078 0
M  V30 1697 H 165.559 1.85129 -2.32625 0
M  V30 1698 H 163.092 0.865671 -1.2785 0
M  V30 1699 H 165.05 3.97677 -1.018 0
M  V30 1700 H 163.711 3.13404 -0.20905 0
M  V30 1701 H 162.904 4.58202 -2.09922 0
M  V30 1702 H 162.506 2.87347 -2.39391 0
M  V30 1703 H 164.798 5.90753 -3.31688 0
M  V30 1704 H 165.741 5.28788 -4.70945 0
M  V30 1705 H 166.149 4.74764 -3.05384 0
M  V30 1706 N 165.547 1.27147 0.931209 0
M  V30 1707 C 166.794 1.13278 1.67852 0
M  V30 1708 C 167.122 -0.32204 1.91815 0
M  V30 1709 O 166.377 -1.25224 1.50391 0
M  V30 1710 C 166.676 1.8579 3.05314 0
M  V30 1711 C 166.342 3.35657 3.01073 0
M  V30 1712 C 165.004 3.76536 2.99623 0
M  V30 1713 C 167.356 4.31299 2.92627 0
M  V30 1714 C 164.684 5.11426 2.87506 0
M  V30 1715 C 167.036 5.66242 2.82051 0
M  V30 1716 C 165.7 6.06418 2.7895 0
M  V30 1717 H 164.97 0.414515 0.614214 0
M  V30 1718 H 167.617 1.57712 1.08624 0
M  V30 1719 H 165.922 1.33854 3.68226 0
M  V30 1720 H 167.619 1.72491 3.62005 0
M  V30 1721 H 164.209 3.03146 3.02986 0
M  V30 1722 H 168.393 4.00692 2.92848 0
M  V30 1723 H 163.649 5.41705 2.83489 0
M  V30 1724 H 167.823 6.40026 2.74481 0
M  V30 1725 H 165.45 7.10895 2.69318 0
M  V30 1726 N 167.025 -1.13721 1.09112 0
M  V30 1727 C 168.274 -1.84275 0.82009 0
M  V30 1728 C 168.587 -1.84253 -0.656509 0
M  V30 1729 O 169.793 -2.50668 -1.04296 0
M  V30 1730 C 168.249 -3.30825 1.41714 0
M  V30 1731 C 167.857 -3.39244 2.92605 0
M  V30 1732 C 169.601 -4.06443 1.22492 0
M  V30 1733 C 167.508 -4.80047 3.45411 0
M  V30 1734 H 166.438 -0.690387 0.30312 0
M  V30 1735 H 169.089 -1.28146 1.31343 0
M  V30 1736 H 167.471 -3.86737 0.851498 0
M  V30 1737 H 168.645 -2.93344 3.55367 0
M  V30 1738 H 166.96 -2.77088 3.10823 0
M  V30 1739 H 169.557 -5.10387 1.59402 0
M  V30 1740 H 169.9 -4.15972 0.165299 0
M  V30 1741 H 170.433 -3.56852 1.75788 0
M  V30 1742 H 167.172 -4.75709 4.50978 0
M  V30 1743 H 166.692 -5.26455 2.87411 0
M  V30 1744 H 168.371 -5.48957 3.42425 0
M  V30 1745 N 168.503 -0.877838 -1.30888 0
M  V30 1746 C 169.749 -0.493426 -1.96706 0
M  V30 1747 C 170.082 0.953504 -1.6918 0
M  V30 1748 O 169.357 1.67266 -0.992594 0
M  V30 1749 C 169.64 -0.760429 -3.51979 0
M  V30 1750 C 169.493 -2.25747 -3.89048 0
M  V30 1751 C 170.812 -0.232148 -4.39487 0
M  V30 1752 H 167.931 -0.180746 -0.714493 0
M  V30 1753 H 170.573 -1.10052 -1.54882 0
M  V30 1754 H 168.723 -0.243715 -3.87735 0
M  V30 1755 H 170.395 -2.84204 -3.63354 0
M  V30 1756 H 168.638 -2.72694 -3.37373 0
M  V30 1757 H 169.309 -2.39491 -4.97341 0
M  V30 1758 H 171.785 -0.674314 -4.106 0
M  V30 1759 H 170.661 -0.448355 -5.47066 0
M  V30 1760 H 170.922 0.866297 -4.33529 0
M  V30 1761 N 169.982 1.44106 -0.638065 0
M  V30 1762 C 171.23 2.01579 -0.145043 0
M  V30 1763 C 171.551 1.50496 1.24 0
M  V30 1764 O 170.821 0.711374 1.82527 0
M  V30 1765 H 169.401 0.745282 -0.05063 0
M  V30 1766 H 172.063 1.76516 -0.826327 0
M  V30 1767 H 171.159 3.11877 -0.118039 0
M  V30 1768 N 171.46 0.379036 1.52974 0
M  V30 1769 C 172.407 -0.461048 2.26148 0
M  V30 1770 C 173.377 -1.06637 1.27349 0
M  V30 1771 O 174.562 -1.09633 1.56157 0
M  V30 1772 C 171.702 -1.58782 3.06402 0
M  V30 1773 C 170.815 -1.00636 4.20115 0
M  V30 1774 C 169.95 -2.10334 4.87784 0
M  V30 1775 C 168.989 -1.49724 5.93506 0
M  V30 1776 N 168.126 -2.5331 6.54812 0
M  V30 1777 H 172.966 0.169429 2.97518 0
M  V30 1778 H 170.503 0.0953806 1.4679 0
M  V30 1779 H 172.461 -2.25174 3.51215 0
M  V30 1780 H 171.091 -2.18876 2.37261 0
M  V30 1781 H 170.143 -0.232332 3.7969 0
M  V30 1782 H 171.455 -0.523343 4.96047 0
M  V30 1783 H 170.609 -2.84519 5.35849 0
M  V30 1784 H 169.348 -2.61992 4.11353 0
M  V30 1785 H 168.353 -0.740598 5.44789 0
M  V30 1786 H 169.578 -0.988732 6.71864 0
M  V30 1787 H 167.524 -3.04156 5.81227 0
M  V30 1788 H 167.441 -2.09734 7.26325 0
M  V30 1789 H 168.709 -3.27155 7.07524 0
M  V30 1790 N 172.938 -1.57226 0.108567 0
M  V30 1791 C 174.349 -1.8195 -0.418464 0
M  V30 1792 C 174.7 -1.02508 -1.67292 0
M  V30 1793 O 173.825 -0.258496 -2.14851 0
M  V30 1794 C 174.42 -3.30028 -0.765979 0
M  V30 1795 C 172.979 -3.55469 -1.23769 0
M  V30 1796 C 172.126 -2.7625 -0.241106 0
M  V30 1797 H 175.077 -1.55149 0.33384 0
M  V30 1798 H 175.098 -3.44086 -1.62434 0
M  V30 1799 H 174.61 -3.87821 0.147219 0
M  V30 1800 H 172.711 -3.03022 -2.16814 0
M  V30 1801 H 172.824 -4.6408 -1.19022 0
M  V30 1802 H 171.188 -2.44133 -0.72602 0
M  V30 1803 H 171.971 -3.36797 0.665007 0
M  V30 1804 N 174.416 0.165178 -1.56732 0
M  V30 1805 C 175.644 0.896218 -1.86482 0
M  V30 1806 C 176.059 1.75555 -0.694675 0
M  V30 1807 O 175.416 1.79379 0.33607 0
M  V30 1808 C 175.467 1.76792 -3.1532 0
M  V30 1809 O 175.188 0.943239 -4.27825 0
M  V30 1810 C 176.689 2.6081 -3.58459 0
M  V30 1811 H 173.909 0.260064 -0.618553 0
M  V30 1812 H 176.453 0.163428 -2.03846 0
M  V30 1813 H 174.608 2.45398 -2.99764 0
M  V30 1814 H 175.022 1.53998 -5.01383 0
M  V30 1815 H 176.496 3.17579 -4.51495 0
M  V30 1816 H 176.973 3.35977 -2.82872 0
M  V30 1817 H 177.579 1.97526 -3.76648 0
M  V30 1818 N 175.894 1.51508 0.433938 0
M  V30 1819 C 177.143 1.63578 1.18005 0
M  V30 1820 C 177.456 0.359514 1.92268 0
M  V30 1821 O 178.662 0.359632 2.69108 0
M  V30 1822 C 177.118 2.88901 2.14626 0
M  V30 1823 C 176.726 4.23544 1.45995 0
M  V30 1824 C 178.47 3.10328 2.89649 0
M  V30 1825 C 176.377 5.40014 2.4112 0
M  V30 1826 H 175.307 0.609277 0.444182 0
M  V30 1827 H 177.958 1.77978 0.446773 0
M  V30 1828 H 176.34 2.68142 2.91403 0
M  V30 1829 H 177.514 4.54696 0.747532 0
M  V30 1830 H 175.829 4.08021 0.831115 0
M  V30 1831 H 178.426 3.94518 3.60915 0
M  V30 1832 H 178.769 2.23544 3.51189 0
M  V30 1833 H 179.302 3.31443 2.19978 0
M  V30 1834 H 176.041 6.29068 1.84264 0
M  V30 1835 H 175.561 5.13233 3.10406 0
M  V30 1836 H 177.24 5.72099 3.02177 0
M  V30 1837 N 177.372 -0.689602 1.41712 0
M  V30 1838 C 178.305 -1.81403 1.3845 0
M  V30 1839 C 179.283 -1.60653 0.250874 0
M  V30 1840 O 180.467 -1.83323 0.43874 0
M  V30 1841 C 177.594 -3.18176 1.1611 0
M  V30 1842 C 176.64 -3.57705 2.3227 0
M  V30 1843 S 177.473 -3.61827 3.94767 0
M  V30 1844 C 178.629 -5.01318 3.74742 0
M  V30 1845 H 178.862 -1.83893 2.33603 0
M  V30 1846 H 176.395 -0.858878 1.28307 0
M  V30 1847 H 178.353 -3.97132 1.03907 0
M  V30 1848 H 177.014 -3.13288 0.225668 0
M  V30 1849 H 176.207 -4.57082 2.12349 0
M  V30 1850 H 175.809 -2.86073 2.40911 0
M  V30 1851 H 178.101 -5.88986 3.34817 0
M  V30 1852 H 179.044 -5.26283 4.73743 0
M  V30 1853 H 179.452 -4.73138 3.07898 0
M  V30 1854 N 178.85 -1.27639 -0.924453 0
M  V30 1855 C 180.098 -1.13941 -1.66918 0
M  V30 1856 C 180.419 0.314589 -1.92446 0
M  V30 1857 O 179.689 1.21964 -1.53303 0
M  V30 1858 H 178.269 -0.418678 -0.618642 0
M  V30 1859 H 180.931 -1.60213 -1.10985 0
M  V30 1860 H 180.027 -1.67094 -2.63602 0
M  V30 1861 N 180.328 1.1314 -1.09713 0
M  V30 1862 C 181.238 2.22242 -0.751367 0
M  V30 1863 C 182.254 1.72224 0.247938 0
M  V30 1864 O 183.43 2.01205 0.0885463 0
M  V30 1865 C 180.495 3.46231 -0.180274 0
M  V30 1866 C 179.556 4.11125 -1.2359 0
M  V30 1867 C 178.789 5.29195 -0.691966 0
M  V30 1868 O 179.012 5.68342 0.48414 0
M  V30 1869 O 177.946 5.84214 -1.44838 0
M  V30 1870 H 181.772 2.54197 -1.66186 0
M  V30 1871 H 179.357 1.21331 -0.871735 0
M  V30 1872 H 181.239 4.21185 0.134739 0
M  V30 1873 H 179.914 3.1597 0.703185 0
M  V30 1874 H 178.821 3.37985 -1.60366 0
M  V30 1875 H 180.154 4.45524 -2.09211 0
M  V30 1876 N 181.806 0.884767 1.30421 0
M  V30 1877 C 183.222 0.57874 1.48737 0
M  V30 1878 C 183.422 -0.883567 1.81095 0
M  V30 1879 O 182.478 -1.6648 1.89844 0
M  V30 1880 C 183.791 1.49171 2.61091 0
M  V30 1881 C 185.339 1.49532 2.74971 0
M  V30 1882 C 185.814 2.39421 3.90438 0
M  V30 1883 N 187.305 2.37383 3.97748 0
M  V30 1884 C 188.04 3.03647 4.86401 0
M  V30 1885 N 187.536 3.79136 5.79852 0
M  V30 1886 N 189.329 2.9288 4.79768 0
M  V30 1887 H 181.48 1.83075 1.0769 0
M  V30 1888 H 183.743 0.783637 0.533495 0
M  V30 1889 H 183.449 2.53291 2.44001 0
M  V30 1890 H 183.323 1.20113 3.57565 0
M  V30 1891 H 185.71 0.46163 2.91467 0
M  V30 1892 H 185.791 1.8262 1.79119 0
M  V30 1893 H 185.435 3.42874 3.74699 0
M  V30 1894 H 185.365 2.03649 4.85628 0
M  V30 1895 H 187.856 1.82525 3.30897 0
M  V30 1896 H 188.169 4.26789 6.4426 0
M  V30 1897 H 186.514 3.83243 5.79784 0
M  V30 1898 H 189.705 2.33433 4.05742 0
M  V30 1899 H 189.878 3.448 5.4865 0
M  V30 1900 N 183.284 -1.43765 0.645699 0
M  V30 1901 C 184.214 -2.33471 -0.0370477 0
M  V30 1902 C 185.195 -1.49042 -0.819779 0
M  V30 1903 O 186.38 -1.77726 -0.782758 0
M  V30 1904 C 183.51 -3.32311 -1.0093 0
M  V30 1905 C 182.464 -4.2667 -0.337201 0
M  V30 1906 C 181.79 -5.1549 -1.42037 0
M  V30 1907 C 183.09 -5.16657 0.765706 0
M  V30 1908 H 184.784 -2.90809 0.712069 0
M  V30 1909 H 182.33 -1.39834 0.343876 0
M  V30 1910 H 184.283 -3.9396 -1.49578 0
M  V30 1911 H 183.007 -2.73213 -1.78948 0
M  V30 1912 H 181.666 -3.66374 0.128771 0
M  V30 1913 H 181.314 -4.52735 -2.1918 0
M  V30 1914 H 181.014 -5.79438 -0.975966 0
M  V30 1915 H 182.538 -5.80012 -1.90838 0
M  V30 1916 H 183.952 -5.72158 0.361702 0
M  V30 1917 H 182.349 -5.89286 1.13413 0
M  V30 1918 H 183.419 -4.56796 1.62683 0
M  V30 1919 N 184.763 -0.387143 -1.52771 0
M  V30 1920 C 186.003 0.195537 -2.03463 0
M  V30 1921 C 186.367 1.44222 -1.26744 0
M  V30 1922 O 187.568 2.10192 -1.67549 0
M  V30 1923 C 185.839 0.459097 -3.54439 0
M  V30 1924 S 187.398 1.01237 -4.26962 0
M  V30 1925 H 184.216 0.0552675 -0.708849 0
M  V30 1926 H 186.818 -0.534992 -1.88037 0
M  V30 1927 H 185.522 -0.455382 -4.07866 0
M  V30 1928 H 185.053 1.21811 -3.74066 0
M  V30 1929 H 187.068 2.29492 -4.39941 0
M  V30 1930 N 186.241 1.57166 -0.116904 0
M  V30 1931 C 187.657 1.5779 0.239693 0
M  V30 1932 C 187.857 1.1295 1.66867 0
M  V30 1933 O 186.913 0.81592 2.38954 0
M  V30 1934 C 188.226 3.00699 0.00828202 0
M  V30 1935 C 189.774 3.12912 0.0743438 0
M  V30 1936 C 190.249 4.57817 -0.129348 0
M  V30 1937 N 191.74 4.63139 -0.075247 0
M  V30 1938 C 192.475 5.73023 -0.207788 0
M  V30 1939 N 191.971 6.91665 -0.396382 0
M  V30 1940 N 193.764 5.61906 -0.14751 0
M  V30 1941 H 185.915 1.84615 -1.05029 0
M  V30 1942 H 188.178 0.85311 -0.41341 0
M  V30 1943 H 187.884 3.37784 -0.979531 0
M  V30 1944 H 187.758 3.69848 0.741077 0
M  V30 1945 H 190.145 2.75686 1.05268 0
M  V30 1946 H 190.226 2.4631 -0.690297 0
M  V30 1947 H 189.87 4.95742 -1.10465 0
M  V30 1948 H 189.8 5.22507 0.655253 0
M  V30 1949 H 192.291 3.7784 0.0670898 0
M  V30 1950 H 192.604 7.71255 -0.488437 0
M  V30 1951 H 190.949 6.93654 -0.432329 0
M  V30 1952 H 194.14 4.681 -0.00115036 0
M  V30 1953 H 194.313 6.47501 -0.254247 0
M  V30 1954 N 187.719 -0.156864 1.56817 0
M  V30 1955 C 188.968 -0.869504 1.81996 0
M  V30 1956 C 189.281 -1.82777 0.696545 0
M  V30 1957 O 190.487 -2.58384 0.833658 0
M  V30 1958 C 188.943 -1.59679 3.22538 0
M  V30 1959 C 188.551 -0.681431 4.42787 0
M  V30 1960 C 190.295 -2.2968 3.56997 0
M  V30 1961 C 188.202 -1.40978 5.74351 0
M  V30 1962 H 187.132 -0.328438 0.678708 0
M  V30 1963 H 189.783 -0.1223 1.83092 0
M  V30 1964 H 188.165 -2.38927 3.158 0
M  V30 1965 H 189.339 0.0751166 4.60739 0
M  V30 1966 H 187.654 -0.0903431 4.16302 0
M  V30 1967 H 190.251 -2.84794 4.52544 0
M  V30 1968 H 190.594 -3.05707 2.82576 0
M  V30 1969 H 191.127 -1.57361 3.65352 0
M  V30 1970 H 187.866 -0.691561 6.51842 0
M  V30 1971 H 187.386 -2.13929 5.60352 0
M  V30 1972 H 189.065 -1.95337 6.16808 0
M  V30 1973 N 189.197 -1.51736 -0.425897 0
M  V30 1974 C 190.425 -1.68794 -1.1965 0
M  V30 1975 C 190.84 -0.390164 -1.84725 0
M  V30 1976 O 190.197 0.632376 -1.71194 0
M  V30 1977 C 190.248 -2.81174 -2.27208 0
M  V30 1978 O 189.969 -4.05925 -1.64793 0
M  V30 1979 C 191.47 -3.09599 -3.17275 0
M  V30 1980 H 188.69 -0.566128 -0.360194 0
M  V30 1981 H 191.234 -1.98211 -0.503249 0
M  V30 1982 H 189.389 -2.54324 -2.9223 0
M  V30 1983 H 189.803 -4.68423 -2.35967 0
M  V30 1984 H 191.277 -3.91786 -3.88854 0
M  V30 1985 H 191.754 -2.22468 -3.78688 0
M  V30 1986 H 192.36 -3.38151 -2.57941 0
M  V30 1987 N 190.675 0.682077 -1.42076 0
M  V30 1988 C 191.607 1.80755 -1.40926 0
M  V30 1989 C 192.62 1.59833 -0.309398 0
M  V30 1990 O 193.809 1.69087 -0.572014 0
M  V30 1991 C 190.909 3.17744 -1.17865 0
M  V30 1992 C 190.082 3.65578 -2.40149 0
M  V30 1993 C 189.141 4.81277 -2.12742 0
M  V30 1994 O 188.167 4.92197 -2.85887 0
M  V30 1995 N 189.369 5.69474 -1.12602 0
M  V30 1996 H 192.134 1.82229 -2.37935 0
M  V30 1997 H 189.695 0.864903 -1.36861 0
M  V30 1998 H 191.687 3.9279 -0.9746 0
M  V30 1999 H 190.257 3.11214 -0.294068 0
M  V30 2000 H 189.477 2.81291 -2.76169 0
M  V30 2001 H 190.765 3.94278 -3.21593 0
M  V30 2002 H 190.163 5.63297 -0.520899 0
M  V30 2003 H 188.72 6.44363 -0.981842 0
M  V30 2004 N 192.153 1.28127 0.917671 0
M  V30 2005 C 193.063 1.13556 2.05286 0
M  V30 2006 C 194.079 0.0630914 1.73886 0
M  V30 2007 O 195.255 0.271598 1.9956 0
M  V30 2008 C 192.32 0.794676 3.3747 0
M  V30 2009 C 191.381 1.94909 3.82504 0
M  V30 2010 C 190.614 1.62437 5.0838 0
M  V30 2011 O 190.837 0.536905 5.67867 0
M  V30 2012 O 189.771 2.46677 5.4903 0
M  V30 2013 H 193.597 2.08844 2.20495 0
M  V30 2014 H 191.182 1.07409 1.03845 0
M  V30 2015 H 193.064 0.618344 4.16839 0
M  V30 2016 H 191.739 -0.128581 3.23445 0
M  V30 2017 H 190.646 2.18055 3.03978 0
M  V30 2018 H 191.979 2.85291 4.01086 0
M  V30 2019 N 193.631 -1.12557 1.10312 0
M  V30 2020 C 194.856 -1.88405 0.867085 0
M  V30 2021 C 195.281 -1.79038 -0.576817 0
M  V30 2022 O 194.639 -1.14439 -1.40618 0
M  V30 2023 C 194.687 -3.3563 1.31851 0
M  V30 2024 O 193.791 -4.09565 0.482734 0
M  V30 2025 H 193.132 -0.585455 0.313271 0
M  V30 2026 H 195.662 -1.42352 1.4696 0
M  V30 2027 H 195.672 -3.86469 1.3079 0
M  V30 2028 H 194.347 -3.41765 2.37001 0
M  V30 2029 H 192.924 -3.68695 0.558448 0
M  V30 2030 N 195.109 -0.891671 -1.2995 0
M  V30 2031 C 196.039 -0.379797 -2.30391 0
M  V30 2032 C 197.02 0.540919 -1.6127 0
M  V30 2033 O 198.205 0.453352 -1.88834 0
M  V30 2034 C 195.335 0.400654 -3.44981 0
M  V30 2035 C 194.289 -0.428905 -4.25846 0
M  V30 2036 C 193.615 0.478557 -5.32554 0
M  V30 2037 C 194.915 -1.67458 -4.94727 0
M  V30 2038 H 196.609 -1.21914 -2.73454 0
M  V30 2039 H 194.155 -0.587675 -1.31462 0
M  V30 2040 H 196.108 0.769434 -4.14316 0
M  V30 2041 H 194.832 1.27371 -3.0074 0
M  V30 2042 H 193.491 -0.779911 -3.58208 0
M  V30 2043 H 193.139 1.34951 -4.84559 0
M  V30 2044 H 192.839 -0.0727433 -5.87555 0
M  V30 2045 H 194.363 0.843705 -6.04743 0
M  V30 2046 H 195.777 -1.376 -5.56542 0
M  V30 2047 H 194.174 -2.16659 -5.59624 0
M  V30 2048 H 195.244 -2.41518 -4.20473 0
M  V30 2049 N 196.587 1.43421 -0.653314 0
M  V30 2050 C 197.817 2.05864 -0.174238 0
M  V30 2051 C 198.225 1.49052 1.16534 0
M  V30 2052 O 197.568 0.616481 1.73047 0
M  V30 2053 C 197.63 3.59499 -0.00875873 0
M  V30 2054 C 197.294 4.38893 -1.27364 0
M  V30 2055 C 198.291 4.70947 -2.20239 0
M  V30 2056 C 195.976 4.789 -1.51525 0
M  V30 2057 C 197.97 5.41916 -3.35568 0
M  V30 2058 C 195.657 5.49614 -2.67147 0
M  V30 2059 C 196.655 5.81044 -3.58994 0
M  V30 2060 O 196.343 6.50313 -4.72597 0
M  V30 2061 H 196.075 0.670345 -0.0872549 0
M  V30 2062 H 198.629 1.84913 -0.894226 0
M  V30 2063 H 196.859 3.79025 0.7666 0
M  V30 2064 H 198.548 4.0364 0.427687 0
M  V30 2065 H 199.314 4.40558 -2.02815 0
M  V30 2066 H 195.193 4.53843 -0.809158 0
M  V30 2067 H 198.737 5.66365 -4.07279 0
M  V30 2068 H 194.634 5.79419 -2.84505 0
M  V30 2069 H 195.402 6.68795 -4.71864 0
M  V30 2070 N 198.065 0.39524 1.52563 0
M  V30 2071 C 198.995 -0.428384 2.29537 0
M  V30 2072 C 199.976 -1.05831 1.33169 0
M  V30 2073 O 201.161 -1.06995 1.62067 0
M  V30 2074 C 198.291 -1.55274 3.10656 0
M  V30 2075 C 197.245 -1.04855 4.14957 0
M  V30 2076 C 196.571 -2.26543 4.84337 0
M  V30 2077 C 197.871 -0.112324 5.22179 0
M  V30 2078 H 199.565 0.213867 2.98635 0
M  V30 2079 H 197.111 0.104298 1.43622 0
M  V30 2080 H 199.064 -2.1358 3.63265 0
M  V30 2081 H 197.788 -2.22266 2.39302 0
M  V30 2082 H 196.447 -0.487985 3.63338 0
M  V30 2083 H 196.095 -2.92059 4.09525 0
M  V30 2084 H 195.795 -1.93466 5.54837 0
M  V30 2085 H 197.319 -2.85481 5.39753 0
M  V30 2086 H 198.733 -0.603752 5.70112 0
M  V30 2087 H 197.13 0.128968 5.99961 0
M  V30 2088 H 198.2 0.837052 4.77621 0
M  V30 2089 N 199.544 -1.57102 0.125237 0
M  V30 2090 C 200.507 -2.14471 -0.80838 0
M  V30 2091 C 201.507 -1.0811 -1.19033 0
M  V30 2092 O 202.697 -1.33856 -1.11482 0
M  V30 2093 C 199.829 -2.69005 -2.09402 0
M  V30 2094 H 201.022 -2.98297 -0.309696 0
M  V30 2095 H 198.575 -1.55807 -0.124051 0
M  V30 2096 H 199.31 -1.88785 -2.63687 0
M  V30 2097 H 199.095 -3.46799 -1.82957 0
M  V30 2098 H 200.585 -3.13278 -2.76128 0
M  V30 2099 N 201.022 0.148545 -1.56898 0
M  V30 2100 C 201.952 1.18524 -2.01182 0
M  V30 2101 C 202.933 1.4489 -0.891123 0
M  V30 2102 O 204.118 1.55836 -1.15882 0
M  V30 2103 C 201.248 2.51879 -2.39112 0
M  V30 2104 C 200.202 2.40038 -3.54353 0
M  V30 2105 C 199.528 3.78089 -3.78091 0
M  V30 2106 C 200.828 1.88577 -4.87069 0
M  V30 2107 H 202.522 0.817029 -2.88036 0
M  V30 2108 H 200.068 0.391575 -1.38574 0
M  V30 2109 H 202.021 3.24627 -2.68692 0
M  V30 2110 H 200.745 2.90532 -1.49193 0
M  V30 2111 H 199.404 1.69742 -3.24936 0
M  V30 2112 H 199.052 4.14175 -2.85426 0
M  V30 2113 H 198.752 3.71028 -4.55645 0
M  V30 2114 H 200.276 4.52387 -4.10095 0
M  V30 2115 H 201.69 2.51117 -5.15377 0
M  V30 2116 H 200.087 1.9241 -5.68417 0
M  V30 2117 H 201.157 0.84136 -4.77545 0
M  V30 2118 N 202.5 1.5196 0.417844 0
M  V30 2119 C 203.916 1.40569 0.755816 0
M  V30 2120 C 204.116 0.503316 1.95113 0
M  V30 2121 O 203.172 -0.0341925 2.52477 0
M  V30 2122 C 204.485 2.82947 1.01791 0
M  V30 2123 C 206.033 2.92231 1.12116 0
M  V30 2124 C 206.508 4.35559 1.41608 0
M  V30 2125 N 207.999 4.38753 1.48491 0
M  V30 2126 C 208.734 5.46705 1.7292 0
M  V30 2127 N 208.23 6.64788 1.95011 0
M  V30 2128 N 210.023 5.34209 1.74863 0
M  V30 2129 H 202.174 2.09168 -0.369098 0
M  V30 2130 H 204.437 0.942409 -0.102809 0
M  V30 2131 H 204.143 3.5106 0.212081 0
M  V30 2132 H 204.017 3.23462 1.94042 0
M  V30 2133 H 206.404 2.24304 1.9176 0
M  V30 2134 H 206.485 2.55185 0.177225 0
M  V30 2135 H 206.129 5.04042 0.624848 0
M  V30 2136 H 206.059 4.70133 2.37239 0
M  V30 2137 H 208.55 3.5363 1.33244 0
M  V30 2138 H 208.863 7.42845 2.13076 0
M  V30 2139 H 207.208 6.67869 1.92293 0
M  V30 2140 H 210.399 4.40937 1.57137 0
M  V30 2141 H 210.572 6.18415 1.93563 0
M  V30 2142 N 203.978 -0.674533 1.42435 0
M  V30 2143 C 204.911 -1.79924 1.40366 0
M  V30 2144 C 205.889 -1.60378 0.267899 0
M  V30 2145 O 207.073 -1.82847 0.458159 0
M  V30 2146 C 204.2 -3.16927 1.19478 0
M  V30 2147 C 203.246 -3.55221 2.36051 0
M  V30 2148 S 204.079 -3.5762 3.98583 0
M  V30 2149 C 205.235 -4.97315 3.80038 0
M  V30 2150 H 205.468 -1.81405 2.35541 0
M  V30 2151 H 203.001 -0.845221 1.29211 0
M  V30 2152 H 204.959 -3.96007 1.08114 0
M  V30 2153 H 203.62 -3.13031 0.258883 0
M  V30 2154 H 202.813 -4.54804 2.17185 0
M  V30 2155 H 202.415 -2.83502 2.43932 0
M  V30 2156 H 204.707 -5.85401 3.41045 0
M  V30 2157 H 205.65 -5.21228 4.79298 0
M  V30 2158 H 206.058 -4.69845 3.12899 0
M  V30 2159 N 205.456 -1.28612 -0.910864 0
M  V30 2160 C 206.702 -1.16106 -1.66274 0
M  V30 2161 C 207.035 0.289113 -1.92036 0
M  V30 2162 O 206.31 1.21 -1.52281 0
M  V30 2163 C 206.593 -1.96309 -3.01885 0
M  V30 2164 C 206.446 -3.49405 -2.8326 0
M  V30 2165 C 207.765 -1.78076 -4.02463 0
M  V30 2166 H 204.884 -0.423152 -0.603417 0
M  V30 2167 H 207.526 -1.57961 -1.05586 0
M  V30 2168 H 205.676 -1.60742 -3.53687 0
M  V30 2169 H 207.348 -3.94894 -2.38446 0
M  V30 2170 H 205.591 -3.74893 -2.18261 0
M  V30 2171 H 206.262 -4.00784 -3.79574 0
M  V30 2172 H 208.738 -2.0912 -3.59733 0
M  V30 2173 H 207.614 -2.36561 -4.95308 0
M  V30 2174 H 207.875 -0.733008 -4.35981 0
M  V30 2175 N 206.934 1.1197 -1.10907 0
M  V30 2176 C 207.881 2.17846 -0.762345 0
M  V30 2177 C 208.851 1.63995 0.263599 0
M  V30 2178 O 210.036 1.90273 0.141773 0
M  V30 2179 C 207.176 3.44487 -0.205651 0
M  V30 2180 C 206.289 4.12369 -1.28748 0
M  V30 2181 C 205.424 5.26674 -0.691919 0
M  V30 2182 C 204.463 5.86431 -1.75399 0
M  V30 2183 N 203.6 6.92142 -1.17833 0
M  V30 2184 H 208.44 2.46851 -1.6694 0
M  V30 2185 H 205.977 1.21188 -0.833776 0
M  V30 2186 H 207.935 4.16981 0.135037 0
M  V30 2187 H 206.565 3.15884 0.664613 0
M  V30 2188 H 205.617 3.38003 -1.74522 0
M  V30 2189 H 206.929 4.52844 -2.09125 0
M  V30 2190 H 206.083 6.05953 -0.300963 0
M  V30 2191 H 204.822 4.8749 0.143232 0
M  V30 2192 H 203.827 5.05835 -2.15432 0
M  V30 2193 H 205.052 6.27685 -2.59208 0
M  V30 2194 H 202.998 6.54985 -0.364725 0
M  V30 2195 H 202.915 7.31242 -1.91887 0
M  V30 2196 H 204.183 7.75237 -0.81408 0
M  V30 2197 N 208.412 0.89855 1.29475 0
M  V30 2198 C 209.823 0.572537 1.77705 0
M  V30 2199 C 210.174 -0.911778 1.73727 0
M  V30 2200 O 209.299 -1.71288 1.32247 0
M  V30 2201 C 209.894 1.03252 3.22683 0
M  V30 2202 C 208.453 0.757687 3.68695 0
M  V30 2203 C 207.6 1.20787 2.49612 0
M  V30 2204 H 210.551 1.08139 1.16153 0
M  V30 2205 H 210.572 0.367307 3.78723 0
M  V30 2206 H 210.084 2.11285 3.25546 0
M  V30 2207 H 208.185 -0.310079 3.71308 0
M  V30 2208 H 208.298 1.35476 4.59547 0
M  V30 2209 H 206.662 0.626888 2.46865 0
M  V30 2210 H 207.445 2.29622 2.55203 0
M  V30 2211 N 209.89 -1.43072 0.660911 0
M  V30 2212 C 211.138 -2.01323 0.177094 0
M  V30 2213 C 211.459 -1.5245 -1.2159 0
M  V30 2214 O 210.729 -0.740322 -1.81373 0
M  V30 2215 H 209.309 -0.744382 0.0624804 0
M  V30 2216 H 211.971 -1.75179 0.854305 0
M  V30 2217 H 211.067 -3.11649 0.167641 0
M  V30 2218 N 211.368 -0.403325 -1.52352 0
M  V30 2219 C 212.617 0.175668 -2.00934 0
M  V30 2220 C 212.93 1.46718 -1.29356 0
M  V30 2221 O 214.136 2.12708 -1.68724 0
M  V30 2222 C 212.592 0.363612 -3.58058 0
M  V30 2223 C 212.2 -0.915472 -4.38547 0
M  V30 2224 C 213.944 0.89821 -4.14888 0
M  V30 2225 C 211.851 -0.695035 -5.87302 0
M  V30 2226 H 210.781 0.0694234 -0.750797 0
M  V30 2227 H 213.432 -0.527879 -1.75743 0
M  V30 2228 H 211.814 1.12935 -3.79555 0
M  V30 2229 H 212.988 -1.68691 -4.28812 0
M  V30 2230 H 211.303 -1.37606 -3.93006 0
M  V30 2231 H 213.9 1.07907 -5.23699 0
M  V30 2232 H 214.243 1.87126 -3.71873 0
M  V30 2233 H 214.776 0.191681 -3.97338 0
M  V30 2234 H 211.515 -1.63948 -6.34666 0
M  V30 2235 H 211.035 0.0372116 -5.99788 0
M  V30 2236 H 212.714 -0.33497 -6.46132 0
M  V30 2237 N 212.846 1.57033 -0.133567 0
M  V30 2238 C 213.794 2.17348 0.828412 0
M  V30 2239 C 214.788 1.12671 1.26498 0
M  V30 2240 O 215.994 1.30947 1.23502 0
M  V30 2241 H 212.369 0.695775 0.285309 0
M  V30 2242 H 214.34 2.96935 0.295372 0
M  V30 2243 C 213.089 2.79893 2.06289 0
M  V30 2244 H 212.412 3.60147 1.73592 0
M  V30 2245 H 213.852 3.25615 2.71572 0
M  V30 2246 C 212.311 1.77713 2.86216 0
M  V30 2247 O 212.841 1.23937 3.82103 0
M  V30 2248 N 211.047 1.47321 2.50489 0
M  V30 2249 H 210.594 1.91243 1.7258 0
M  V30 2250 H 210.552 0.79199 3.04261 0
M  V30 2251 N 214.325 -0.140222 1.56975 0
M  V30 2252 C 215.255 -1.17456 2.01808 0
M  V30 2253 C 216.236 -1.44415 0.898794 0
M  V30 2254 O 217.421 -1.5522 1.16707 0
M  V30 2255 C 214.551 -2.50607 2.40444 0
M  V30 2256 C 213.505 -2.38155 3.55621 0
M  V30 2257 C 212.831 -3.76078 3.80091 0
M  V30 2258 C 214.131 -1.85991 4.88062 0
M  V30 2259 H 215.825 -0.801743 2.88466 0
M  V30 2260 H 213.371 -0.38422 1.38779 0
M  V30 2261 H 215.324 -3.23197 2.7041 0
M  V30 2262 H 214.048 -2.89737 1.50732 0
M  V30 2263 H 212.707 -1.68016 3.25832 0
M  V30 2264 H 212.355 -4.12656 2.87618 0
M  V30 2265 H 212.055 -3.68606 4.57606 0
M  V30 2266 H 213.579 -4.50206 4.12488 0
M  V30 2267 H 214.993 -2.4838 5.16701 0
M  V30 2268 H 213.39 -1.89393 5.6943 0
M  V30 2269 H 214.46 -0.816023 4.77984 0
M  V30 2270 N 215.803 -1.52179 -0.40978 0
M  V30 2271 C 217.219 -1.40968 -0.74835 0
M  V30 2272 C 217.419 -0.513657 -1.94843 0
M  V30 2273 O 216.475 0.0208026 -2.52491 0
M  V30 2274 C 217.788 -2.83483 -1.0029 0
M  V30 2275 C 219.336 -2.92821 -1.10565 0
M  V30 2276 C 219.811 -4.36303 -1.39296 0
M  V30 2277 N 221.302 -4.39535 -1.46162 0
M  V30 2278 C 222.037 -5.47614 -1.70018 0
M  V30 2279 N 221.533 -6.65812 -1.91483 0
M  V30 2280 N 223.326 -5.35129 -1.72027 0
M  V30 2281 H 215.477 -2.0897 0.380186 0
M  V30 2282 H 217.74 -0.94185 0.107805 0
M  V30 2283 H 217.446 -3.51168 -0.193461 0
M  V30 2284 H 217.32 -3.24487 -1.92323 0
M  V30 2285 H 219.707 -2.25318 -1.90568 0
M  V30 2286 H 219.788 -2.55276 -0.16369 0
M  V30 2287 H 219.432 -5.04366 -0.598109 0
M  V30 2288 H 219.362 -4.71385 -2.34743 0
M  V30 2289 H 221.853 -3.54332 -1.31367 0
M  V30 2290 H 222.166 -7.43964 -2.09134 0
M  V30 2291 H 220.511 -6.68879 -1.88749 0
M  V30 2292 H 223.702 -4.41764 -1.54796 0
M  V30 2293 H 223.875 -6.19433 -1.9028 0
M  V30 2294 N 217.281 0.66697 -1.42791 0
M  V30 2295 C 218.191 1.80962 -1.49299 0
M  V30 2296 C 219.207 1.69775 -0.381108 0
M  V30 2297 O 220.383 1.91188 -0.633188 0
M  V30 2298 C 217.448 3.17156 -1.40045 0
M  V30 2299 C 216.509 3.40242 -2.6179 0
M  V30 2300 C 215.742 4.69939 -2.52969 0
M  V30 2301 O 215.965 5.48372 -1.56985 0
M  V30 2302 O 214.899 4.94441 -3.43237 0
M  V30 2303 H 218.725 1.78427 -2.45759 0
M  V30 2304 H 216.31 0.823713 -1.24641 0
M  V30 2305 H 218.192 3.98413 -1.37276 0
M  V30 2306 H 216.867 3.20312 -0.467138 0
M  V30 2307 H 215.774 2.58802 -2.70134 0
M  V30 2308 H 217.107 3.41923 -3.54047 0
M  V30 2309 N 218.759 1.29093 0.90403 0
M  V30 2310 C 220.008 1.16187 1.64874 0
M  V30 2311 C 220.321 -0.286742 1.93487 0
M  V30 2312 O 221.527 -0.537062 2.66135 0
M  V30 2313 C 219.983 2.03177 2.97064 0
M  V30 2314 C 219.591 3.52836 2.76062 0
M  V30 2315 C 221.335 1.98984 3.74974 0
M  V30 2316 C 219.242 4.31945 4.03952 0
M  V30 2317 H 218.172 0.431246 0.618501 0
M  V30 2318 H 220.823 1.53699 1.00243 0
M  V30 2319 H 219.205 1.5853 3.62883 0
M  V30 2320 H 220.379 4.05507 2.18863 0
M  V30 2321 H 218.694 3.58656 2.11553 0
M  V30 2322 H 221.291 2.55351 4.69787 0
M  V30 2323 H 221.634 0.968815 4.0487 0
M  V30 2324 H 222.167 2.41652 3.15989 0
M  V30 2325 H 218.906 5.34667 3.79225 0
M  V30 2326 H 218.426 3.84045 4.60727 0
M  V30 2327 H 220.105 4.42379 4.72133 0
M  V30 2328 N 220.237 -1.11381 1.11499 0
M  V30 2329 C 221.485 -1.8277 0.862524 0
M  V30 2330 C 221.806 -1.85097 -0.613534 0
M  V30 2331 O 221.076 -1.32198 -1.4457 0
M  V30 2332 H 219.656 -0.676823 0.316101 0
M  V30 2333 H 222.318 -1.34816 1.4075 0
M  V30 2334 H 221.414 -2.86614 1.23527 0
M  V30 2335 N 221.715 -0.905404 -1.28997 0
M  V30 2336 C 222.678 -0.392253 -2.25819 0
M  V30 2337 C 223.678 0.476753 -1.5357 0
M  V30 2338 O 224.868 0.280994 -1.71919 0
M  V30 2339 C 222 0.438588 -3.38067 0
M  V30 2340 H 223.193 -1.24743 -2.72725 0
M  V30 2341 H 220.746 -0.684051 -1.40536 0
M  V30 2342 H 221.481 1.31352 -2.96508 0
M  V30 2343 H 221.266 -0.184167 -3.91667 0
M  V30 2344 H 222.756 0.78873 -4.10084 0
M  V30 2345 N 223.193 1.4272 -0.668489 0
M  V30 2346 C 224.156 2.292 0.00448567 0
M  V30 2347 C 225.156 1.43001 0.735339 0
M  V30 2348 O 226.346 1.64461 0.57429 0
M  V30 2349 C 223.478 3.25375 1.01705 0
M  V30 2350 H 224.671 2.90199 -0.756608 0
M  V30 2351 H 222.224 1.50254 -0.430506 0
M  V30 2352 H 222.959 2.69301 1.80686 0
M  V30 2353 H 222.744 3.88944 0.496463 0
M  V30 2354 H 224.234 3.90245 1.48655 0
M  V30 2355 N 224.671 0.411399 1.52136 0
M  V30 2356 C 225.92 -0.165009 2.01024 0
M  V30 2357 C 226.233 -1.4603 1.30133 0
M  V30 2358 O 227.439 -2.1181 1.69849 0
M  V30 2359 C 225.895 -0.344618 3.58246 0
M  V30 2360 C 225.503 0.938716 4.38055 0
M  V30 2361 C 227.247 -0.876195 4.15359 0
M  V30 2362 C 225.154 0.726172 5.86925 0
M  V30 2363 H 224.084 -0.0654407 0.751155 0
M  V30 2364 H 226.735 0.537192 1.75461 0
M  V30 2365 H 225.117 -1.10921 3.80148 0
M  V30 2366 H 226.291 1.70963 4.27912 0
M  V30 2367 H 224.606 1.39688 3.92271 0
M  V30 2368 H 227.203 -1.05128 5.24263 0
M  V30 2369 H 227.546 -1.85152 3.7286 0
M  V30 2370 H 228.079 -0.170607 3.97434 0
M  V30 2371 H 224.818 1.67312 6.33788 0
M  V30 2372 H 224.338 -0.00540283 5.998 0
M  V30 2373 H 226.017 0.369231 6.45946 0
M  V30 2374 N 226.149 -1.5696 0.141893 0
M  V30 2375 C 227.081 -2.13619 -0.830627 0
M  V30 2376 C 228.094 -1.08439 -1.21428 0
M  V30 2377 O 229.283 -1.35734 -1.15925 0
M  V30 2378 C 226.383 -2.63978 -2.12529 0
M  V30 2379 C 225.556 -3.93504 -1.9098 0
M  V30 2380 C 224.615 -4.29225 -3.04388 0
M  V30 2381 O 223.641 -4.97641 -2.76302 0
M  V30 2382 N 224.843 -3.88393 -4.31429 0
M  V30 2383 H 227.608 -2.97691 -0.34641 0
M  V30 2384 H 225.169 -1.61846 -0.0418375 0
M  V30 2385 H 227.161 -2.84891 -2.87436 0
M  V30 2386 H 225.731 -1.84659 -2.52229 0
M  V30 2387 H 224.951 -3.81269 -1.00139 0
M  V30 2388 H 226.239 -4.78154 -1.73914 0
M  V30 2389 H 225.637 -3.33257 -4.57117 0
M  V30 2390 H 224.194 -4.14368 -5.03133 0
M  V30 2391 N 227.627 0.131896 -1.57047 0
M  V30 2392 C 228.574 1.16236 -1.99393 0
M  V30 2393 C 229.544 1.41863 -0.863943 0
M  V30 2394 O 230.729 1.53946 -1.12718 0
M  V30 2395 C 227.869 2.48708 -2.39245 0
M  V30 2396 C 226.982 2.30127 -3.65603 0
M  V30 2397 C 226.117 3.55738 -3.94492 0
M  V30 2398 C 225.156 3.32259 -5.14073 0
M  V30 2399 N 224.293 4.50039 -5.38896 0
M  V30 2400 H 229.133 0.794251 -2.87221 0
M  V30 2401 H 226.67 0.380707 -1.42088 0
M  V30 2402 H 228.628 3.25969 -2.60384 0
M  V30 2403 H 227.258 2.83437 -1.54478 0
M  V30 2404 H 226.31 1.43845 -3.52154 0
M  V30 2405 H 227.622 2.08746 -4.5302 0
M  V30 2406 H 226.776 4.41423 -4.1621 0
M  V30 2407 H 225.515 3.80138 -3.05526 0
M  V30 2408 H 224.52 2.44963 -4.92212 0
M  V30 2409 H 225.745 3.09242 -6.04604 0
M  V30 2410 H 223.691 4.74584 -4.52886 0
M  V30 2411 H 223.608 4.31716 -6.2061 0
M  V30 2412 H 224.876 5.36895 -5.65123 0
M  V30 2413 N 229.106 1.52395 0.401703 0
M  V30 2414 C 230.353 1.66817 1.14796 0
M  V30 2415 C 230.681 0.401772 1.90305 0
M  V30 2416 O 229.936 -0.615487 1.85769 0
M  V30 2417 C 230.235 2.84578 2.16217 0
M  V30 2418 C 229.901 4.22513 1.5746 0
M  V30 2419 C 228.563 4.60029 1.41161 0
M  V30 2420 C 230.915 5.0844 1.14622 0
M  V30 2421 C 228.243 5.81144 0.80552 0
M  V30 2422 C 230.595 6.30167 0.55428 0
M  V30 2423 C 229.259 6.66426 0.378482 0
M  V30 2424 H 228.529 0.610428 0.420069 0
M  V30 2425 H 231.176 1.86512 0.434212 0
M  V30 2426 H 229.481 2.59248 2.93764 0
M  V30 2427 H 231.178 2.92933 2.73845 0
M  V30 2428 H 227.768 3.92953 1.71132 0
M  V30 2429 H 231.952 4.80034 1.26021 0
M  V30 2430 H 227.208 6.07855 0.657399 0
M  V30 2431 H 231.382 6.96071 0.213983 0
M  V30 2432 H 229.009 7.60143 -0.0932606 0
M  V30 2433 N 230.584 -0.659388 1.43143 0
M  V30 2434 C 231.83 -1.42145 1.44647 0
M  V30 2435 C 232.163 -1.9408 0.0681907 0
M  V30 2436 O 231.438 -1.71899 -0.910007 0
M  V30 2437 C 231.721 -2.60735 2.48373 0
M  V30 2438 C 231.574 -2.14332 3.95451 0
M  V30 2439 C 232.893 -3.62951 2.48906 0
M  V30 2440 H 230.012 -0.51552 0.526696 0
M  V30 2441 H 232.654 -0.748069 1.74654 0
M  V30 2442 H 230.804 -3.18184 2.22916 0
M  V30 2443 H 232.476 -1.61932 4.31944 0
M  V30 2444 H 230.719 -1.4576 4.08578 0
M  V30 2445 H 231.39 -2.99583 4.63631 0
M  V30 2446 H 233.866 -3.1525 2.71582 0
M  V30 2447 H 232.742 -4.43487 3.23435 0
M  V30 2448 H 233.003 -4.15126 1.52061 0
M  V30 2449 N 232.062 -1.29571 -0.897171 0
M  V30 2450 C 232.972 -1.16808 -2.03453 0
M  V30 2451 C 233.988 -0.0907471 -1.73763 0
M  V30 2452 O 235.164 -0.303312 -1.99103 0
M  V30 2453 C 232.229 -0.848264 -3.36163 0
M  V30 2454 C 231.29 -2.0097 -3.79354 0
M  V30 2455 C 230.523 -1.70505 -5.05731 0
M  V30 2456 O 230.746 -0.62718 -5.66941 0
M  V30 2457 O 229.68 -2.5538 -5.45036 0
M  V30 2458 H 233.506 -2.12325 -2.17144 0
M  V30 2459 H 231.091 -1.09047 -1.02123 0
M  V30 2460 H 232.973 -0.684581 -4.15802 0
M  V30 2461 H 231.648 0.0771071 -3.23608 0
M  V30 2462 H 230.555 -2.22863 -3.00471 0
M  V30 2463 H 231.888 -2.91636 -3.96496 0
M  V30 2464 N 233.54 1.10788 -1.12088 0
M  V30 2465 C 234.503 2.15207 -0.788577 0
M  V30 2466 C 235.503 1.59609 0.195317 0
M  V30 2467 O 236.693 1.74174 -0.0300193 0
M  V30 2468 C 233.825 3.4047 -0.171174 0
M  V30 2469 H 235.018 2.46116 -1.71368 0
M  V30 2470 H 232.571 1.26089 -0.923652 0
M  V30 2471 H 233.306 3.15176 0.763832 0
M  V30 2472 H 233.091 3.82109 -0.879514 0
M  V30 2473 H 234.581 4.17576 0.04496 0
M  V30 2474 N 235.018 0.912232 1.28515 0
M  V30 2475 C 235.928 0.404506 2.31086 0
M  V30 2476 C 236.944 -0.50707 1.66448 0
M  V30 2477 O 238.12 -0.393624 1.97516 0
M  V30 2478 C 235.185 -0.348572 3.44943 0
M  V30 2479 C 234.246 0.59604 4.25142 0
M  V30 2480 C 233.479 -0.121194 5.33562 0
M  V30 2481 O 233.702 -1.34317 5.5436 0
M  V30 2482 O 232.636 0.542716 5.99448 0
M  V30 2483 H 236.462 1.25579 2.76521 0
M  V30 2484 H 234.047 0.676998 1.33181 0
M  V30 2485 H 235.929 -0.77395 4.14232 0
M  V30 2486 H 234.604 -1.17571 3.01594 0
M  V30 2487 H 233.511 1.07079 3.58448 0
M  V30 2488 H 234.844 1.38995 4.72167 0
M  V30 2489 N 236.496 -1.42363 0.676048 0
M  V30 2490 C 237.744 -2.01123 0.198437 0
M  V30 2491 C 238.065 -1.53731 -1.19966 0
M  V30 2492 O 237.335 -0.759518 -1.80577 0
M  V30 2493 H 235.915 -0.743678 0.0703721 0
M  V30 2494 H 238.577 -1.74263 0.872837 0
M  V30 2495 H 237.673 -3.11454 0.200686 0
M  V30 2496 N 237.974 -0.419461 -1.51915 0
M  V30 2497 C 239.221 0.152939 -2.01922 0
M  V30 2498 C 239.549 1.4426 -1.30458 0
M  V30 2499 O 238.804 1.91514 -0.402593 0
M  V30 2500 C 239.103 0.437067 -3.54717 0
M  V30 2501 C 238.769 -0.764632 -4.44369 0
M  V30 2502 C 237.431 -1.09423 -4.68594 0
M  V30 2503 C 239.783 -1.56713 -4.97082 0
M  V30 2504 C 237.111 -2.22732 -5.42777 0
M  V30 2505 C 239.463 -2.69107 -5.72507 0
M  V30 2506 C 238.127 -3.02541 -5.95 0
M  V30 2507 H 237.397 0.0559644 -0.738884 0
M  V30 2508 H 240.044 -0.562998 -1.83037 0
M  V30 2509 H 238.349 1.23469 -3.71837 0
M  V30 2510 H 240.046 0.893083 -3.90928 0
M  V30 2511 H 236.636 -0.497775 -4.257 0
M  V30 2512 H 240.82 -1.32571 -4.78266 0
M  V30 2513 H 236.076 -2.48971 -5.58411 0
M  V30 2514 H 240.25 -3.31671 -6.12346 0
M  V30 2515 H 237.877 -3.90457 -6.52264 0
M  V30 2516 N 239.452 1.56882 -0.150215 0
M  V30 2517 C 240.677 2.01027 0.510184 0
M  V30 2518 C 241.102 1.02966 1.57415 0
M  V30 2519 O 240.46 0.00590158 1.81299 0
M  V30 2520 C 240.508 3.43899 1.08472 0
M  V30 2521 O 239.612 3.4885 2.19948 0
M  V30 2522 H 238.953 0.652233 0.124451 0
M  V30 2523 H 241.483 2.03093 -0.247894 0
M  V30 2524 H 241.493 3.82766 1.41259 0
M  V30 2525 H 240.168 4.14776 0.305582 0
M  V30 2526 H 238.745 3.21827 1.88366 0
M  V30 2527 N 240.93 -0.123565 1.57115 0
M  V30 2528 C 242.176 -0.833386 1.84885 0
M  V30 2529 C 242.509 -1.79742 0.735292 0
M  V30 2530 O 241.784 -1.92764 -0.25925 0
M  V30 2531 C 242.067 -1.5873 3.23228 0
M  V30 2532 C 241.92 -0.643183 4.45178 0
M  V30 2533 C 243.239 -2.54453 3.59085 0
M  V30 2534 H 240.358 -0.301518 0.6725 0
M  V30 2535 H 243 -0.097778 1.89748 0
M  V30 2536 H 241.15 -2.21438 3.19214 0
M  V30 2537 H 242.822 -0.0253015 4.61293 0
M  V30 2538 H 241.065 0.0456139 4.33776 0
M  V30 2539 H 241.736 -1.20724 5.38637 0
M  V30 2540 H 244.212 -2.01853 3.63861 0
M  V30 2541 H 243.088 -3.04238 4.5687 0
M  V30 2542 H 243.349 -3.36906 2.86264 0
M  V30 2543 N 242.408 -1.52605 -0.393616 0
M  V30 2544 C 243.654 -1.67672 -1.14079 0
M  V30 2545 C 243.987 -0.413121 -1.89755 0
M  V30 2546 O 243.262 0.588952 -1.85369 0
M  V30 2547 C 243.545 -2.9088 -2.12276 0
M  V30 2548 C 243.398 -4.27329 -1.40394 0
M  V30 2549 C 244.717 -3.09628 -3.12759 0
M  V30 2550 H 241.836 -0.610168 -0.413356 0
M  V30 2551 H 244.478 -1.85193 -0.424696 0
M  V30 2552 H 242.628 -2.76073 -2.73342 0
M  V30 2553 H 244.3 -4.53894 -0.82327 0
M  V30 2554 H 242.543 -4.2802 -0.705801 0
M  V30 2555 H 243.214 -5.09615 -2.12123 0
M  V30 2556 H 245.69 -3.23436 -2.61779 0
M  V30 2557 H 244.566 -3.97322 -3.78717 0
M  V30 2558 H 244.827 -2.23637 -3.81365 0
M  V30 2559 N 243.887 0.651787 -1.4349 0
M  V30 2560 C 245.303 0.96762 -1.26922 0
M  V30 2561 C 245.503 2.00602 -0.189982 0
M  V30 2562 O 244.559 2.48793 0.431107 0
M  V30 2563 C 245.872 1.45052 -2.63401 0
M  V30 2564 C 247.42 1.5671 -2.70945 0
M  V30 2565 C 247.895 2.0839 -4.07845 0
M  V30 2566 N 249.386 2.1569 -4.09917 0
M  V30 2567 C 250.121 2.56804 -5.12679 0
M  V30 2568 N 249.617 2.97203 -6.25813 0
M  V30 2569 N 251.41 2.56756 -5.00033 0
M  V30 2570 H 243.561 -0.0353158 -2.12371 0
M  V30 2571 H 245.824 0.0467858 -0.946845 0
M  V30 2572 H 245.53 0.761926 -3.43348 0
M  V30 2573 H 245.404 2.42529 -2.88894 0
M  V30 2574 H 247.791 2.2467 -1.9133 0
M  V30 2575 H 247.872 0.57662 -2.49216 0
M  V30 2576 H 247.516 1.41031 -4.87927 0
M  V30 2577 H 247.446 3.08271 -4.26938 0
M  V30 2578 H 249.937 1.87237 -3.28254 0
M  V30 2579 H 250.25 3.27328 -7.00055 0
M  V30 2580 H 248.595 2.95004 -6.29283 0
M  V30 2581 H 251.786 2.24572 -4.10713 0
M  V30 2582 H 251.959 2.88475 -5.80247 0
M  V30 2583 N 245.365 1.30045 0.890287 0
M  V30 2584 C 246.275 1.17885 2.02831 0
M  V30 2585 C 247.291 0.0999609 1.73713 0
M  V30 2586 O 248.467 0.313867 1.98939 0
M  V30 2587 C 245.532 0.866079 3.35708 0
M  V30 2588 C 244.593 2.02979 3.78283 0
M  V30 2589 C 243.826 1.73184 5.0482 0
M  V30 2590 O 244.049 0.657237 5.66601 0
M  V30 2591 O 242.983 2.58267 5.43674 0
M  V30 2592 H 246.809 2.13474 2.16015 0
M  V30 2593 H 244.394 1.09587 1.01543 0
M  V30 2594 H 246.276 0.706623 4.15433 0
M  V30 2595 H 244.951 -0.0599443 3.23644 0
M  V30 2596 H 243.858 2.24454 2.99285 0
M  V30 2597 H 245.191 2.93734 3.94944 0
M  V30 2598 N 246.843 -1.10192 1.12674 0
M  V30 2599 C 248.073 -1.85713 0.905213 0
M  V30 2600 C 248.481 -1.81056 -0.549108 0
M  V30 2601 O 247.824 -1.19927 -1.39151 0
M  V30 2602 C 247.886 -3.34972 1.30516 0
M  V30 2603 C 247.55 -3.63385 2.77129 0
M  V30 2604 C 248.547 -3.59772 3.75313 0
M  V30 2605 C 246.232 -3.91981 3.14096 0
M  V30 2606 C 248.226 -3.84354 5.08479 0
M  V30 2607 C 245.913 -4.16218 4.47443 0
M  V30 2608 C 246.911 -4.12395 5.44444 0
M  V30 2609 O 246.599 -4.36014 6.75387 0
M  V30 2610 H 246.331 -0.593719 0.323223 0
M  V30 2611 H 248.885 -1.40198 1.50112 0
M  V30 2612 H 247.115 -3.81156 0.652463 0
M  V30 2613 H 248.804 -3.91886 1.05736 0
M  V30 2614 H 249.57 -3.37716 3.48099 0
M  V30 2615 H 245.449 -3.94085 2.39202 0
M  V30 2616 H 248.993 -3.81285 5.84181 0
M  V30 2617 H 244.89 -4.37754 4.74386 0
M  V30 2618 H 245.658 -4.53516 6.8137 0
M  V30 2619 N 248.321 -0.919034 -1.28029 0
M  V30 2620 C 249.561 -0.562107 -1.96519 0
M  V30 2621 C 249.925 0.878784 -1.70708 0
M  V30 2622 O 251.126 1.34355 -2.32813 0
M  V30 2623 C 249.397 -0.868953 -3.46676 0
M  V30 2624 S 250.956 -0.619237 -4.34409 0
M  V30 2625 H 247.774 -0.2078 -0.679956 0
M  V30 2626 H 250.376 -1.18562 -1.55446 0
M  V30 2627 H 249.08 -1.91547 -3.62957 0
M  V30 2628 H 248.611 -0.234301 -3.92702 0
M  V30 2629 H 250.626 0.526995 -4.93394 0
M  V30 2630 N 249.799 1.42003 -0.683588 0
M  V30 2631 C 251.047 2.01015 -0.209101 0
M  V30 2632 C 251.368 1.54365 1.19149 0
M  V30 2633 O 250.638 0.769083 1.80172 0
M  V30 2634 H 249.218 0.743294 -0.074315 0
M  V30 2635 H 251.88 1.73798 -0.882066 0
M  V30 2636 H 250.976 3.11343 -0.2172 0
M  V30 2637 N 251.277 0.427512 1.51691 0
M  V30 2638 C 252.227 -0.406604 2.24345 0
M  V30 2639 C 253.211 -0.998276 1.26187 0
M  V30 2640 O 254.403 -0.918045 1.51331 0
M  V30 2641 C 251.532 -1.51266 3.08177 0
M  V30 2642 C 250.618 -0.930868 4.13758 0
M  V30 2643 N 251.009 -0.0773552 5.05741 0
M  V30 2644 C 249.307 -1.19948 4.29568 0
M  V30 2645 C 250.008 0.248344 5.8117 0
M  V30 2646 N 248.984 -0.365535 5.4237 0
M  V30 2647 H 252.786 0.251581 2.92821 0
M  V30 2648 H 250.3 0.239003 1.60632 0
M  V30 2649 H 252.297 -2.123 3.58796 0
M  V30 2650 H 250.957 -2.17328 2.41244 0
M  V30 2651 H 251.968 0.288351 5.17097 0
M  V30 2652 H 248.645 -1.85832 3.73862 0
M  V30 2653 H 250.035 0.942286 6.6526 0
M  V30 2654 N 252.755 -1.56801 0.158532 0
M  V30 2655 C 254.003 -1.96102 -0.488712 0
M  V30 2656 C 254.324 -1.04498 -1.64636 0
M  V30 2657 O 253.594 -0.108783 -1.95598 0
M  V30 2658 H 252.174 -0.724102 -0.183535 0
M  V30 2659 H 254.836 -1.93457 0.236728 0
M  V30 2660 H 253.932 -3.00097 -0.857219 0
M  V30 2661 N 254.233 0.115231 -1.57178 0
M  V30 2662 C 255.482 0.820945 -1.84237 0
M  V30 2663 C 255.795 1.80866 -0.744761 0
M  V30 2664 O 257.001 2.56083 -0.901871 0
M  V30 2665 C 255.457 1.51072 -3.26658 0
M  V30 2666 C 255.065 0.563795 -4.44438 0
M  V30 2667 C 256.809 2.20134 -3.62962 0
M  V30 2668 C 254.716 1.25701 -5.77887 0
M  V30 2669 H 253.646 0.310328 -0.687177 0
M  V30 2670 H 256.297 0.0737134 -1.83352 0
M  V30 2671 H 254.679 2.30471 -3.22024 0
M  V30 2672 H 255.853 -0.197247 -4.60378 0
M  V30 2673 H 254.168 -0.0200638 -4.16395 0
M  V30 2674 H 256.765 2.72696 -4.59936 0
M  V30 2675 H 257.108 2.98107 -2.90582 0
M  V30 2676 H 257.641 1.47619 -3.69396 0
M  V30 2677 H 254.38 0.518493 -6.53446 0
M  V30 2678 H 253.9 1.98997 -5.65827 0
M  V30 2679 H 255.579 1.78915 -6.2177 0
M  V30 2680 N 255.711 1.52812 0.385517 0
M  V30 2681 C 256.959 1.67694 1.12797 0
M  V30 2682 C 257.28 0.421115 1.90399 0
M  V30 2683 O 256.55 -0.564551 1.87589 0
M  V30 2684 H 255.13 0.618155 0.419396 0
M  V30 2685 H 257.792 1.89938 0.436972 0
M  V30 2686 H 256.888 2.52896 1.82894 0
M  V30 2687 N 257.189 -0.644168 1.43834 0
M  V30 2688 C 258.605 -0.960875 1.27434 0
M  V30 2689 C 258.805 -2.00499 0.200618 0
M  V30 2690 O 257.861 -2.49018 -0.417906 0
M  V30 2691 C 259.174 -1.43653 2.64167 0
M  V30 2692 C 260.722 -1.55271 2.71772 0
M  V30 2693 C 261.197 -2.06224 4.08944 0
M  V30 2694 N 262.688 -2.13513 4.11055 0
M  V30 2695 C 263.423 -2.54081 5.14033 0
M  V30 2696 N 262.919 -2.9388 6.27381 0
M  V30 2697 N 264.712 -2.54101 5.01387 0
M  V30 2698 H 256.863 0.0465779 2.12349 0
M  V30 2699 H 259.126 -0.0417638 0.94708 0
M  V30 2700 H 258.832 -0.743706 3.43747 0
M  V30 2701 H 258.706 -2.40993 2.90176 0
M  V30 2702 H 261.093 -2.23653 1.92519 0
M  V30 2703 H 261.174 -0.563395 2.49519 0
M  V30 2704 H 260.818 -1.38441 4.88668 0
M  V30 2705 H 260.748 -3.06003 4.28567 0
M  V30 2706 H 263.239 -1.85493 3.29242 0
M  V30 2707 H 263.552 -3.2361 7.01781 0
M  V30 2708 H 261.897 -2.91663 6.30839 0
M  V30 2709 H 265.088 -2.22391 4.11898 0
M  V30 2710 H 265.261 -2.85394 5.81768 0
M  V30 2711 N 258.668 -1.30515 -0.883378 0
M  V30 2712 C 259.916 -1.19194 -1.63209 0
M  V30 2713 C 260.237 0.253205 -1.93349 0
M  V30 2714 O 259.507 1.17025 -1.57105 0
M  V30 2715 H 258.087 -0.438148 -0.605009 0
M  V30 2716 H 260.749 -1.63663 -1.05832 0
M  V30 2717 H 259.845 -1.75396 -2.58153 0
M  V30 2718 N 260.146 1.09593 -1.13257 0
M  V30 2719 C 261.393 1.81734 -0.893257 0
M  V30 2720 C 261.721 1.8563 0.580656 0
M  V30 2721 O 260.976 1.31906 1.44566 0
M  V30 2722 C 261.275 3.27802 -1.42411 0
M  V30 2723 C 260.941 3.44041 -2.91456 0
M  V30 2724 C 259.603 3.48181 -3.3215 0
M  V30 2725 C 261.955 3.48719 -3.87356 0
M  V30 2726 C 259.283 3.54575 -4.67433 0
M  V30 2727 C 261.635 3.56648 -5.2248 0
M  V30 2728 C 260.299 3.59055 -5.62704 0
M  V30 2729 H 259.569 0.665011 -0.326866 0
M  V30 2730 H 262.216 1.2912 -1.41422 0
M  V30 2731 H 260.521 3.83042 -0.823795 0
M  V30 2732 H 262.218 3.82149 -1.21503 0
M  V30 2733 H 258.808 3.41502 -2.58987 0
M  V30 2734 H 262.992 3.44763 -3.57004 0
M  V30 2735 H 258.248 3.54725 -4.97976 0
M  V30 2736 H 262.422 3.59212 -5.96607 0
M  V30 2737 H 260.049 3.63763 -6.67518 0
M  V30 2738 N 261.624 0.925811 1.2754 0
M  V30 2739 C 262.574 0.394488 2.24561 0
M  V30 2740 C 263.558 -0.500183 1.52928 0
M  V30 2741 O 264.75 -0.337936 1.73744 0
M  V30 2742 C 261.879 -0.353328 3.41477 0
M  V30 2743 C 260.965 0.557752 4.20416 0
M  V30 2744 N 261.356 1.67674 4.77199 0
M  V30 2745 C 259.654 0.360404 4.44541 0
M  V30 2746 C 260.355 2.24324 5.36706 0
M  V30 2747 N 259.331 1.53305 5.21535 0
M  V30 2748 H 263.133 1.2489 2.66045 0
M  V30 2749 H 260.647 0.779864 1.4245 0
M  V30 2750 H 262.644 -0.7509 4.10082 0
M  V30 2751 H 261.304 -1.20469 3.01525 0
M  V30 2752 H 262.315 2.05915 4.75204 0
M  V30 2753 H 258.992 -0.450454 4.15063 0
M  V30 2754 H 260.382 3.18521 5.91603 0
M  V30 2755 N 263.102 -1.41638 0.69111 0
M  V30 2756 C 264.012 -2.34588 0.0233487 0
M  V30 2757 C 265.028 -1.55987 -0.770984 0
M  V30 2758 O 266.204 -1.88486 -0.709569 0
M  V30 2759 C 263.269 -3.34684 -0.904851 0
M  V30 2760 C 262.33 -4.29176 -0.103225 0
M  V30 2761 C 261.563 -5.2449 -0.987216 0
M  V30 2762 O 261.786 -5.2514 -2.22674 0
M  V30 2763 O 260.72 -6.00295 -0.439281 0
M  V30 2764 H 264.546 -2.93261 0.789416 0
M  V30 2765 H 262.131 -1.42417 0.45142 0
M  V30 2766 H 264.013 -3.96133 -1.43724 0
M  V30 2767 H 262.688 -2.78461 -1.65049 0
M  V30 2768 H 261.595 -3.71089 0.473655 0
M  V30 2769 H 262.928 -4.88484 0.60365 0
M  V30 2770 N 264.58 -0.43555 -1.51462 0
M  V30 2771 C 265.49 0.383001 -2.31453 0
M  V30 2772 C 266.506 1.02931 -1.4029 0
M  V30 2773 O 267.682 1.02507 -1.73362 0
M  V30 2774 C 264.747 1.47043 -3.13973 0
M  V30 2775 C 263.808 0.844433 -4.20913 0
M  V30 2776 C 263.041 1.88004 -4.9949 0
M  V30 2777 O 263.264 3.10199 -4.78678 0
M  V30 2778 O 262.198 1.47157 -5.83634 0
M  V30 2779 H 266.024 -0.269964 -3.02498 0
M  V30 2780 H 263.609 -0.19813 -1.4808 0
M  V30 2781 H 265.491 2.10113 -3.65281 0
M  V30 2782 H 264.166 2.10751 -2.45695 0
M  V30 2783 H 263.073 0.175729 -3.73687 0
M  V30 2784 H 264.406 0.250869 -4.9156 0
M  V30 2785 N 266.058 1.56714 -0.166846 0
M  V30 2786 C 267.469 1.83378 0.350646 0
M  V30 2787 C 267.82 1.08646 1.63372 0
M  V30 2788 O 266.945 0.338058 2.13743 0
M  V30 2789 C 267.54 3.32643 0.642963 0
M  V30 2790 C 266.099 3.59818 1.10491 0
M  V30 2791 C 265.246 2.76954 0.138411 0
M  V30 2792 H 268.197 1.53803 -0.391193 0
M  V30 2793 H 268.218 3.49878 1.49551 0
M  V30 2794 H 267.73 3.87007 -0.291055 0
M  V30 2795 H 265.831 3.1086 2.05418 0
M  V30 2796 H 265.944 4.68178 1.01716 0
M  V30 2797 H 264.308 2.4666 0.634911 0
M  V30 2798 H 265.091 3.34097 -0.789549 0
M  V30 2799 N 267.536 -0.106894 1.57237 0
M  V30 2800 C 268.468 -1.15646 1.97885 0
M  V30 2801 C 269.481 -1.36981 0.879779 0
M  V30 2802 O 270.67 -1.35841 1.15799 0
M  V30 2803 C 267.77 -2.51425 2.27241 0
M  V30 2804 C 266.943 -2.50529 3.58545 0
M  V30 2805 C 266.002 -3.68145 3.75973 0
M  V30 2806 O 265.028 -3.51176 4.47956 0
M  V30 2807 N 266.23 -4.87177 3.15656 0
M  V30 2808 H 268.995 -0.81059 2.8853 0
M  V30 2809 H 266.556 -0.296024 1.59171 0
M  V30 2810 H 268.548 -3.28689 2.36105 0
M  V30 2811 H 267.118 -2.78147 1.42663 0
M  V30 2812 H 266.338 -1.58894 3.60758 0
M  V30 2813 H 267.626 -2.46997 4.44826 0
M  V30 2814 H 267.024 -5.03868 2.57165 0
M  V30 2815 H 265.581 -5.62075 3.30023 0
M  V30 2816 N 269.014 -1.53014 -0.377408 0
M  V30 2817 C 270.26 -1.68872 -1.12294 0
M  V30 2818 C 270.593 -0.433224 -1.89306 0
M  V30 2819 O 269.868 0.569258 -1.85983 0
M  V30 2820 C 270.151 -2.93115 -2.09179 0
M  V30 2821 C 270.004 -4.28794 -1.35853 0
M  V30 2822 C 271.323 -3.12928 -3.09458 0
M  V30 2823 H 268.442 -0.614518 -0.406862 0
M  V30 2824 H 271.084 -1.85633 -0.40503 0
M  V30 2825 H 269.234 -2.78956 -2.70399 0
M  V30 2826 H 270.906 -4.54742 -0.775082 0
M  V30 2827 H 269.149 -4.28744 -0.660364 0
M  V30 2828 H 269.82 -5.11837 -2.06706 0
M  V30 2829 H 272.296 -3.26194 -2.58334 0
M  V30 2830 H 271.172 -4.01316 -3.74482 0
M  V30 2831 H 271.433 -2.27669 -3.78971 0
M  V30 2832 N 270.492 0.636531 -1.44174 0
M  V30 2833 C 271.422 1.76003 -1.53444 0
M  V30 2834 C 272.403 1.65619 -0.387841 0
M  V30 2835 O 273.588 1.84461 -0.607257 0
M  V30 2836 C 270.718 3.14511 -1.4731 0
M  V30 2837 C 269.672 3.39677 -2.60391 0
M  V30 2838 C 268.998 4.78159 -2.39308 0
M  V30 2839 C 270.298 3.32772 -4.02567 0
M  V30 2840 H 271.992 1.68501 -2.47483 0
M  V30 2841 H 269.538 0.809237 -1.19111 0
M  V30 2842 H 271.491 3.92878 -1.52397 0
M  V30 2843 H 270.215 3.22783 -0.49785 0
M  V30 2844 H 268.874 2.63688 -2.54684 0
M  V30 2845 H 268.522 4.83128 -1.39988 0
M  V30 2846 H 268.222 4.95956 -3.15122 0
M  V30 2847 H 269.746 5.58762 -2.46205 0
M  V30 2848 H 271.16 4.01051 -4.09672 0
M  V30 2849 H 269.557 3.62104 -4.7854 0
M  V30 2850 H 270.627 2.30669 -4.2652 0
M  V30 2851 N 271.97 1.30982 0.876444 0
M  V30 2852 C 272.92 1.14688 1.97055 0
M  V30 2853 C 273.904 0.0596593 1.60789 0
M  V30 2854 O 275.096 0.283892 1.74708 0
M  V30 2855 C 272.225 0.849627 3.3262 0
M  V30 2856 C 271.311 1.97752 3.75173 0
M  V30 2857 N 271.702 3.22384 3.89746 0
M  V30 2858 C 270 1.8758 4.04635 0
M  V30 2859 C 270.701 3.96121 4.25985 0
M  V30 2860 N 269.677 3.24237 4.36315 0
M  V30 2861 H 273.479 2.09204 2.06424 0
M  V30 2862 H 270.993 1.22445 1.06682 0
M  V30 2863 H 272.99 0.713895 4.10742 0
M  V30 2864 H 271.65 -0.087376 3.24582 0
M  V30 2865 H 272.661 3.57575 3.74647 0
M  V30 2866 H 269.338 1.01303 4.05024 0
M  V30 2867 H 270.728 5.03491 4.44911 0
M  V30 2868 N 273.449 -1.08991 1.13837 0
M  V30 2869 C 274.679 -1.84743 0.924859 0
M  V30 2870 C 275.087 -1.81629 -0.529874 0
M  V30 2871 O 274.43 -1.21397 -1.37872 0
M  V30 2872 C 274.492 -3.33568 1.34061 0
M  V30 2873 C 274.156 -3.60425 2.80968 0
M  V30 2874 C 275.153 -3.55771 3.79108 0
M  V30 2875 C 272.838 -3.88627 3.18236 0
M  V30 2876 C 274.832 -3.78939 5.12527 0
M  V30 2877 C 272.519 -4.11449 4.51833 0
M  V30 2878 C 273.517 -4.06598 5.48787 0
M  V30 2879 O 273.205 -4.28826 6.79973 0
M  V30 2880 H 272.937 -0.590258 0.329502 0
M  V30 2881 H 275.491 -1.38598 1.51591 0
M  V30 2882 H 273.721 -3.80442 0.692853 0
M  V30 2883 H 275.41 -3.90743 1.09886 0
M  V30 2884 H 276.176 -3.34005 3.51661 0
M  V30 2885 H 272.055 -3.91526 2.43369 0
M  V30 2886 H 275.599 -3.75068 5.88192 0
M  V30 2887 H 271.496 -4.32698 4.79002 0
M  V30 2888 H 272.264 -4.46264 6.86142 0
M  V30 2889 N 274.927 -0.932562 -1.27047 0
M  V30 2890 C 276.204 -0.49377 -1.89265 0
M  V30 2891 C 276.584 1.02833 -1.8436 0
M  V30 2892 O 275.932 1.88461 -1.29209 0
M  V30 2893 C 276.142 -1.04536 -3.32976 0
M  V30 2894 C 277.49 -1.10879 -4.09867 0
M  V30 2895 O 278.514 -0.995327 -3.42011 0
M  V30 2896 O 277.373 -1.28417 -5.31198 0
M  V30 2897 H 274.467 -0.159596 -0.811454 0
M  V30 2898 H 277.013 -1.02457 -1.3528 0
M  V30 2899 H 275.785 -2.08913 -3.30864 0
M  V30 2900 H 275.408 -0.496494 -3.94488 0
M  V30 2901 N 276.405 1.4127 -0.698611 0
M  V30 2902 C 277.63 2.06024 -0.238512 0
M  V30 2903 C 278.055 1.5224 1.10475 0
M  V30 2904 O 277.413 0.650623 1.69223 0
M  V30 2905 C 277.461 3.59988 -0.209952 0
M  V30 2906 O 276.565 4.04282 0.814235 0
M  V30 2907 H 275.906 0.653829 -0.115775 0
M  V30 2908 H 278.436 1.8098 -0.954326 0
M  V30 2909 H 278.446 4.07979 -0.0418436 0
M  V30 2910 H 277.121 3.98503 -1.1903 0
M  V30 2911 H 275.698 3.6779 0.615234 0
M  V30 2912 N 277.883 0.443576 1.51229 0
M  V30 2913 C 279.299 0.0962001 1.5931 0
M  V30 2914 C 279.499 -1.39501 1.45402 0
M  V30 2915 O 278.555 -2.16557 1.29843 0
M  V30 2916 C 279.868 0.621875 2.94199 0
M  V30 2917 C 281.416 0.582865 3.07525 0
M  V30 2918 C 281.891 1.08562 4.44948 0
M  V30 2919 N 283.382 1.04387 4.51284 0
M  V30 2920 C 284.117 1.40368 5.55954 0
M  V30 2921 N 283.613 1.83664 6.68011 0
M  V30 2922 N 285.406 1.32145 5.46346 0
M  V30 2923 H 277.557 1.41376 1.58514 0
M  V30 2924 H 279.82 0.582965 0.747567 0
M  V30 2925 H 279.526 1.66546 3.09767 0
M  V30 2926 H 279.4 0.0502125 3.77167 0
M  V30 2927 H 281.787 -0.451749 2.91622 0
M  V30 2928 H 281.868 1.191 2.26382 0
M  V30 2929 H 281.512 2.11873 4.61598 0
M  V30 2930 H 281.442 0.453956 5.2464 0
M  V30 2931 H 283.933 0.725986 3.70861 0
M  V30 2932 H 284.246 2.0934 7.43906 0
M  V30 2933 H 282.591 1.87596 6.69203 0
M  V30 2934 H 285.782 0.981808 4.57688 0
M  V30 2935 H 285.955 1.60514 6.27805 0
M  V30 2936 N 279.361 -1.56624 0.175154 0
M  V30 2937 C 280.271 -2.21741 -0.766042 0
M  V30 2938 C 281.287 -1.21023 -1.25018 0
M  V30 2939 O 282.463 -1.53697 -1.3015 0
M  V30 2940 C 279.528 -2.84839 -1.97655 0
M  V30 2941 C 278.589 -4.00769 -1.53892 0
M  V30 2942 C 277.822 -4.60849 -2.69173 0
M  V30 2943 O 278.045 -4.19823 -3.86141 0
M  V30 2944 O 276.979 -5.50655 -2.43028 0
M  V30 2945 H 280.805 -3.02738 -0.241585 0
M  V30 2946 H 278.39 -1.49305 -0.053222 0
M  V30 2947 H 280.272 -3.24834 -2.68442 0
M  V30 2948 H 278.947 -2.06836 -2.48999 0
M  V30 2949 H 277.854 -3.65436 -0.80044 0
M  V30 2950 H 279.187 -4.80376 -1.07236 0
M  V30 2951 N 280.839 0.0985539 -1.57292 0
M  V30 2952 C 282.067 0.816318 -1.90115 0
M  V30 2953 C 282.482 1.72451 -0.768509 0
M  V30 2954 O 281.839 1.80643 0.259687 0
M  V30 2955 C 281.89 1.63259 -3.22535 0
M  V30 2956 O 281.611 0.760934 -4.31441 0
M  V30 2957 C 283.112 2.45372 -3.69199 0
M  V30 2958 H 280.332 0.233595 -0.629027 0
M  V30 2959 H 282.876 0.0768229 -2.04356 0
M  V30 2960 H 281.031 2.32463 -3.09903 0
M  V30 2961 H 281.445 1.32595 -5.07463 0
M  V30 2962 H 282.919 2.98144 -4.64558 0
M  V30 2963 H 283.396 3.23677 -2.96867 0
M  V30 2964 H 284.002 1.81373 -3.84687 0
M  V30 2965 N 282.317 1.53212 0.369288 0
M  V30 2966 C 283.265 1.80054 1.47253 0
M  V30 2967 C 284.259 0.669456 1.55611 0
M  V30 2968 O 285.465 0.852328 1.58541 0
M  V30 2969 H 281.84 0.570034 0.490475 0
M  V30 2970 H 283.811 2.72403 1.21817 0
M  V30 2971 C 282.56 2.00403 2.84137 0
M  V30 2972 H 281.883 2.86876 2.78464 0
M  V30 2973 H 283.323 2.23164 3.60519 0
M  V30 2974 C 281.782 0.782081 3.27697 0
M  V30 2975 O 282.312 -0.0310205 4.01688 0
M  V30 2976 N 280.518 0.606573 2.84199 0
M  V30 2977 H 280.065 1.26939 2.24152 0
M  V30 2978 H 280.023 -0.20962 3.137 0
M  V30 2979 N 283.795 -0.628877 1.44509 0
M  V30 2980 C 285.041 -1.39045 1.47629 0
M  V30 2981 C 285.374 -1.93892 0.109343 0
M  V30 2982 O 284.649 -1.7379 -0.87334 0
M  V30 2983 C 284.932 -2.55408 2.53848 0
M  V30 2984 C 284.785 -2.05896 3.99909 0
M  V30 2985 C 286.104 -3.5759 2.56549 0
M  V30 2986 H 283.223 -0.504232 0.537512 0
M  V30 2987 H 285.865 -0.710854 1.76201 0
M  V30 2988 H 284.015 -3.13384 2.29615 0
M  V30 2989 H 285.687 -1.52734 4.35282 0
M  V30 2990 H 283.93 -1.37061 4.11578 0
M  V30 2991 H 284.601 -2.89681 4.69882 0
M  V30 2992 H 287.077 -3.09419 2.78207 0
M  V30 2993 H 285.953 -4.36527 3.32769 0
M  V30 2994 H 286.214 -4.11808 1.60832 0
M  V30 2995 N 285.273 -1.31445 -0.869486 0
M  V30 2996 C 286.519 -1.21337 -1.62496 0
M  V30 2997 C 286.852 0.227872 -1.92858 0
M  V30 2998 O 286.127 1.16094 -1.56053 0
M  V30 2999 C 286.41 -2.05814 -2.95487 0
M  V30 3000 C 286.263 -3.5824 -2.72 0
M  V30 3001 C 287.582 -1.9079 -3.96594 0
M  V30 3002 H 284.701 -0.442135 -0.589649 0
M  V30 3003 H 287.343 -1.6124 -1.00507 0
M  V30 3004 H 285.493 -1.71913 -3.48394 0
M  V30 3005 H 287.165 -4.0228 -2.25762 0
M  V30 3006 H 285.408 -3.81647 -2.06224 0
M  V30 3007 H 286.079 -4.12657 -3.66631 0
M  V30 3008 H 288.555 -2.20459 -3.52898 0
M  V30 3009 H 287.431 -2.52199 -4.87531 0
M  V30 3010 H 287.692 -0.871341 -4.33428 0
M  V30 3011 N 286.751 1.08385 -1.14413 0
M  V30 3012 C 287.681 2.17321 -0.854044 0
M  V30 3013 C 288.662 1.69024 0.191049 0
M  V30 3014 O 289.847 1.94141 0.0476779 0
M  V30 3015 C 286.977 3.45719 -0.330983 0
M  V30 3016 C 285.931 4.07409 -1.31155 0
M  V30 3017 C 285.257 5.30762 -0.64778 0
M  V30 3018 C 286.557 4.48665 -2.67388 0
M  V30 3019 H 288.251 2.41845 -1.76498 0
M  V30 3020 H 285.797 1.16233 -0.850051 0
M  V30 3021 H 287.75 4.21241 -0.115645 0
M  V30 3022 H 286.474 3.2075 0.615381 0
M  V30 3023 H 285.133 3.33919 -1.51306 0
M  V30 3024 H 284.781 5.02078 0.304398 0
M  V30 3025 H 284.481 5.72992 -1.30207 0
M  V30 3026 H 286.005 6.08998 -0.441972 0
M  V30 3027 H 287.419 5.15364 -2.51143 0
M  V30 3028 H 285.816 5.01814 -3.29093 0
M  V30 3029 H 286.886 3.60543 -3.24248 0
M  V30 3030 N 288.23 0.939286 1.26551 0
M  V30 3031 C 289.177 0.446088 2.26448 0
M  V30 3032 C 290.147 -0.493234 1.58608 0
M  V30 3033 O 291.332 -0.409857 1.86346 0
M  V30 3034 C 288.472 -0.284375 3.43926 0
M  V30 3035 C 287.585 0.690399 4.26448 0
M  V30 3036 C 286.72 -0.0610712 5.31165 0
M  V30 3037 C 285.759 0.905649 6.05363 0
M  V30 3038 N 284.896 0.186055 7.01853 0
M  V30 3039 H 289.736 1.30291 2.68008 0
M  V30 3040 H 287.273 0.65371 1.31776 0
M  V30 3041 H 289.231 -0.724313 4.10864 0
M  V30 3042 H 287.861 -1.10535 3.03285 0
M  V30 3043 H 286.913 1.24885 3.59316 0
M  V30 3044 H 288.225 1.42873 4.779 0
M  V30 3045 H 287.379 -0.56038 6.04106 0
M  V30 3046 H 286.118 -0.832297 4.80546 0
M  V30 3047 H 285.123 1.4161 5.3125 0
M  V30 3048 H 286.348 1.67685 6.58072 0
M  V30 3049 H 284.294 -0.566714 6.53548 0
M  V30 3050 H 284.211 0.863752 7.51049 0
M  V30 3051 H 285.479 -0.292221 7.78952 0
M  V30 3052 N 289.708 -1.40897 0.706093 0
M  V30 3053 C 291.119 -1.84023 0.315052 0
M  V30 3054 C 291.47 -1.5906 -1.14866 0
M  V30 3055 O 290.595 -1.06651 -1.88293 0
M  V30 3056 C 291.19 -3.34055 0.565038 0
M  V30 3057 C 289.749 -3.7571 0.227806 0
M  V30 3058 C 288.896 -2.64204 0.842122 0
M  V30 3059 H 291.847 -1.303 0.905963 0
M  V30 3060 H 291.868 -3.80107 -0.172843 0
M  V30 3061 H 291.38 -3.52192 1.63042 0
M  V30 3062 H 289.481 -3.63172 -0.832895 0
M  V30 3063 H 289.594 -4.74103 0.690174 0
M  V30 3064 H 287.958 -2.53255 0.270893 0
M  V30 3065 H 288.741 -2.85155 1.91158 0
M  V30 3066 N 291.186 -0.45159 -1.50991 0
M  V30 3067 C 292.434 0.109857 -2.01801 0
M  V30 3068 C 292.755 1.41958 -1.3369 0
M  V30 3069 O 292.025 1.9003 -0.475951 0
M  V30 3070 H 290.605 0.0435884 -0.745727 0
M  V30 3071 H 293.267 -0.597557 -1.85514 0
M  V30 3072 H 292.363 0.275489 -3.10882 0
M  V30 3073 N 292.664 1.56529 -0.183458 0
M  V30 3074 C 293.597 2.14417 0.781052 0
M  V30 3075 C 294.575 1.07761 1.21763 0
M  V30 3076 O 295.759 1.35807 1.30724 0
M  V30 3077 C 292.886 2.69361 2.05335 0
M  V30 3078 C 291.932 3.885 1.75982 0
M  V30 3079 S 292.765 5.27568 0.918256 0
M  V30 3080 C 293.921 5.85926 2.20095 0
M  V30 3081 H 294.154 2.95893 0.2889 0
M  V30 3082 H 291.687 1.54368 0.0313844 0
M  V30 3083 H 293.645 3.01662 2.78406 0
M  V30 3084 H 292.306 1.87949 2.51663 0
M  V30 3085 H 291.499 4.25314 2.70415 0
M  V30 3086 H 291.101 3.57149 1.10999 0
M  V30 3087 H 293.393 5.99579 3.15453 0
M  V30 3088 H 294.336 6.82761 1.87731 0
M  V30 3089 H 294.744 5.14438 2.32409 0
M  V30 3090 N 294.142 -0.090211 1.57342 0
M  V30 3091 C 295.37 -0.806224 1.90546 0
M  V30 3092 C 295.785 -1.72041 0.777644 0
M  V30 3093 O 295.142 -1.80778 -0.250103 0
M  V30 3094 C 295.193 -1.61546 3.23396 0
M  V30 3095 O 294.914 -0.738043 4.31839 0
M  V30 3096 C 296.415 -2.4341 3.70495 0
M  V30 3097 H 293.635 -0.230256 0.630257 0
M  V30 3098 H 296.179 -0.0659843 2.04394 0
M  V30 3099 H 294.334 -2.30816 3.11131 0
M  V30 3100 H 294.748 -1.29901 5.08159 0
M  V30 3101 H 296.222 -2.95676 4.66133 0
M  V30 3102 H 296.699 -3.22098 2.98579 0
M  V30 3103 H 297.305 -1.79331 3.85643 0
M  V30 3104 N 295.62 -1.53406 -0.361157 0
M  V30 3105 C 296.867 -1.69802 -1.10333 0
M  V30 3106 C 297.195 -0.452087 -1.89173 0
M  V30 3107 O 296.45 0.566017 -1.87336 0
M  V30 3108 C 296.749 -2.90211 -2.08596 0
M  V30 3109 C 296.415 -4.26539 -1.46203 0
M  V30 3110 C 295.077 -4.6361 -1.28915 0
M  V30 3111 C 297.429 -5.113 -1.01101 0
M  V30 3112 C 294.757 -5.83075 -0.651157 0
M  V30 3113 C 297.109 -6.31415 -0.387007 0
M  V30 3114 C 295.773 -6.67195 -0.201657 0
M  V30 3115 H 295.043 -0.621351 -0.403737 0
M  V30 3116 H 297.69 -1.87598 -0.384609 0
M  V30 3117 H 295.995 -2.66946 -2.86788 0
M  V30 3118 H 297.692 -3.00091 -2.65982 0
M  V30 3119 H 294.282 -3.97352 -1.60653 0
M  V30 3120 H 298.466 -4.83206 -1.13249 0
M  V30 3121 H 293.722 -6.09385 -0.496006 0
M  V30 3122 H 297.896 -6.96394 -0.0293563 0
M  V30 3123 H 295.523 -7.59628 0.294766 0
M  V30 3124 N 297.098 0.621204 -1.44841 0
M  V30 3125 C 298.326 1.40752 -1.51646 0
M  V30 3126 C 298.741 1.88246 -0.144549 0
M  V30 3127 O 298.098 1.61422 0.851416 0
M  V30 3128 C 298.149 2.62119 -2.4895 0
M  V30 3129 O 297.87 2.16602 -3.80808 0
M  V30 3130 C 299.371 3.55135 -2.65319 0
M  V30 3131 H 296.591 0.431325 -0.514004 0
M  V30 3132 H 299.135 0.758835 -1.899 0
M  V30 3133 H 297.29 3.23058 -2.13805 0
M  V30 3134 H 297.704 2.95358 -4.33433 0
M  V30 3135 H 299.178 4.36874 -3.37409 0
M  V30 3136 H 299.655 4.04592 -1.70886 0
M  V30 3137 H 300.261 3.00058 -3.01405 0
M  V30 3138 N 298.576 1.31904 0.862503 0
M  V30 3139 C 299.825 1.21373 1.61094 0
M  V30 3140 C 300.138 -0.22504 1.94301 0
M  V30 3141 O 301.344 -0.452121 2.67709 0
M  V30 3142 C 299.8 2.12525 2.9045 0
M  V30 3143 C 299.408 3.61441 2.64697 0
M  V30 3144 C 301.152 2.10813 3.68454 0
M  V30 3145 C 299.059 4.44578 3.90006 0
M  V30 3146 H 297.989 0.450705 0.604468 0
M  V30 3147 H 300.64 1.56811 0.953027 0
M  V30 3148 H 299.022 1.69994 3.57656 0
M  V30 3149 H 300.196 4.12264 2.05851 0
M  V30 3150 H 298.511 3.65205 2.00036 0
M  V30 3151 H 301.108 2.70167 4.61426 0
M  V30 3152 H 301.451 1.09713 4.01583 0
M  V30 3153 H 301.984 2.51583 3.08141 0
M  V30 3154 H 298.723 5.46461 3.62023 0
M  V30 3155 H 298.243 3.98508 4.48276 0
M  V30 3156 H 299.922 4.57176 4.5782 0
M  V30 3157 N 300.054 -1.07777 1.14986 0
M  V30 3158 C 300.964 -2.18404 0.856546 0
M  V30 3159 C 301.98 -1.73211 -0.165485 0
M  V30 3160 O 303.156 -2.01399 0.00755219 0
M  V30 3161 C 300.221 -3.44977 0.34526 0
M  V30 3162 C 299.282 -4.0476 1.43065 0
M  V30 3163 C 298.515 -5.25291 0.943663 0
M  V30 3164 O 298.738 -5.70004 -0.212426 0
M  V30 3165 O 297.672 -5.76638 1.72547 0
M  V30 3166 H 301.498 -2.45978 1.78125 0
M  V30 3167 H 299.083 -1.17033 0.928631 0
M  V30 3168 H 300.965 -4.21348 0.0663671 0
M  V30 3169 H 299.64 -3.18965 -0.551631 0
M  V30 3170 H 298.547 -3.29949 1.76309 0
M  V30 3171 H 299.88 -4.35035 2.30229 0
M  V30 3172 N 301.532 -0.945985 -1.26051 0
M  V30 3173 C 302.943 -0.638096 -1.75457 0
M  V30 3174 C 303.294 0.846672 -1.76991 0
M  V30 3175 O 302.419 1.66262 -1.38513 0
M  V30 3176 C 303.014 -1.15157 -3.18629 0
M  V30 3177 C 301.573 -0.894004 -3.65629 0
M  V30 3178 C 300.72 -1.29967 -2.44957 0
M  V30 3179 H 303.671 -1.12376 -1.1206 0
M  V30 3180 H 303.692 -0.507615 -3.77099 0
M  V30 3181 H 303.204 -2.23222 -3.1748 0
M  V30 3182 H 301.305 0.172057 -3.72203 0
M  V30 3183 H 301.418 -1.52439 -4.54202 0
M  V30 3184 H 299.782 -0.718078 -2.44368 0
M  V30 3185 H 300.565 -2.38935 -2.46505 0
M  V30 3186 N 303.011 1.40521 -0.713556 0
M  V30 3187 C 303.944 2.28198 -0.00881422 0
M  V30 3188 C 304.922 1.43227 0.769735 0
M  V30 3189 O 306.106 1.72641 0.756799 0
M  V30 3190 C 303.233 3.23758 0.994899 0
M  V30 3191 C 302.279 4.25391 0.3074 0
M  V30 3192 S 303.112 5.26765 -0.963247 0
M  V30 3193 C 304.268 6.25888 0.0384143 0
M  V30 3194 H 304.501 2.87622 -0.752407 0
M  V30 3195 H 302.034 1.45925 -0.504502 0
M  V30 3196 H 303.992 3.79341 1.56879 0
M  V30 3197 H 302.653 2.63396 1.71118 0
M  V30 3198 H 301.846 4.92596 1.0661 0
M  V30 3199 H 301.448 3.73497 -0.193879 0
M  V30 3200 H 303.74 6.71683 0.885912 0
M  V30 3201 H 304.683 7.05552 -0.60019 0
M  V30 3202 H 305.091 5.63072 0.401233 0
M  V30 3203 N 304.489 0.459591 1.5075 0
M  V30 3204 C 305.735 -0.0994966 2.02556 0
M  V30 3205 C 306.068 -1.40399 1.3417 0
M  V30 3206 O 305.343 -1.88892 0.463683 0
M  V30 3207 C 305.626 -0.295242 3.58888 0
M  V30 3208 C 305.479 1.02947 4.37861 0
M  V30 3209 C 306.798 -1.05502 4.27267 0
M  V30 3210 H 303.917 -0.034686 0.736183 0
M  V30 3211 H 306.559 0.602938 1.8018 0
M  V30 3212 H 304.709 -0.893563 3.78084 0
M  V30 3213 H 306.381 1.66348 4.30263 0
M  V30 3214 H 304.624 1.62885 4.02058 0
M  V30 3215 H 305.295 0.846281 5.45474 0
M  V30 3216 H 307.771 -0.547993 4.12476 0
M  V30 3217 H 306.647 -1.16077 5.36486 0
M  V30 3218 H 306.908 -2.08875 3.89645 0
M  V30 3219 N 305.967 -1.56429 0.191757 0
M  V30 3220 C 306.915 -2.20273 -0.747174 0
M  V30 3221 C 307.909 -1.17288 -1.22229 0
M  V30 3222 O 309.115 -1.35441 -1.18557 0
M  V30 3223 H 305.49 -0.705885 -0.259289 0
M  V30 3224 H 307.461 -2.97826 -0.184963 0
M  V30 3225 C 306.21 -2.87356 -1.95759 0
M  V30 3226 H 305.533 -3.66341 -1.60106 0
M  V30 3227 H 306.973 -3.3547 -2.59299 0
M  V30 3228 C 305.432 -1.88213 -2.79423 0
M  V30 3229 O 305.962 -1.38033 -3.7724 0
M  V30 3230 N 304.168 -1.56516 -2.44849 0
M  V30 3231 H 303.715 -1.97516 -1.65364 0
M  V30 3232 H 303.673 -0.904369 -3.01112 0
M  V30 3233 N 307.445 0.0818655 -1.57387 0
M  V30 3234 C 308.408 1.08265 -2.02018 0
M  V30 3235 C 309.408 1.32183 -0.915664 0
M  V30 3236 O 310.598 1.28073 -1.18081 0
M  V30 3237 C 307.73 2.42871 -2.39221 0
M  V30 3238 H 308.923 0.698204 -2.91659 0
M  V30 3239 H 306.476 0.327303 -1.52835 0
M  V30 3240 H 307.211 2.86167 -1.52575 0
M  V30 3241 H 306.996 2.26855 -3.19811 0
M  V30 3242 H 308.486 3.14826 -2.74362 0
M  V30 3243 N 308.923 1.53595 0.353017 0
M  V30 3244 C 310.171 1.70049 1.09215 0
M  V30 3245 C 310.492 0.461406 1.89463 0
M  V30 3246 O 309.762 -0.524633 1.88744 0
M  V30 3247 H 308.342 0.626912 0.40619 0
M  V30 3248 H 311.004 1.90822 0.396585 0
M  V30 3249 H 310.1 2.56718 1.77488 0
M  V30 3250 N 310.401 -0.613514 1.45168 0
M  V30 3251 C 311.348 -1.72456 1.53387 0
M  V30 3252 C 312.318 -1.6169 0.380191 0
M  V30 3253 O 313.503 -1.81356 0.592836 0
M  V30 3254 C 310.643 -3.10753 1.50088 0
M  V30 3255 C 309.756 -3.32368 2.75963 0
M  V30 3256 C 308.891 -4.60737 2.64376 0
M  V30 3257 C 307.93 -4.7559 3.85332 0
M  V30 3258 N 307.067 -5.95253 3.72315 0
M  V30 3259 H 311.907 -1.64768 2.48305 0
M  V30 3260 H 309.444 -0.803503 1.23216 0
M  V30 3261 H 311.402 -3.90758 1.46164 0
M  V30 3262 H 310.032 -3.17413 0.587243 0
M  V30 3263 H 309.084 -2.4618 2.89999 0
M  V30 3264 H 310.396 -3.39218 3.65695 0
M  V30 3265 H 309.55 -5.48928 2.58385 0
M  V30 3266 H 308.289 -4.56275 1.72233 0
M  V30 3267 H 307.294 -3.85824 3.91688 0
M  V30 3268 H 308.519 -4.81854 4.78533 0
M  V30 3269 H 306.465 -5.91847 2.82937 0
M  V30 3270 H 306.382 -6.03236 4.55677 0
M  V30 3271 H 307.65 -6.85958 3.70246 0
M  V30 3272 N 311.879 -1.3236 -0.855495 0
M  V30 3273 C 312.826 -1.21225 -1.964 0
M  V30 3274 C 313.796 -0.0946204 -1.6583 0
M  V30 3275 O 314.981 -0.27002 -1.8888 0
M  V30 3276 C 312.121 -0.940419 -3.32039 0
M  V30 3277 C 311.234 -2.14276 -3.75113 0
M  V30 3278 C 310.369 -1.80648 -4.9954 0
M  V30 3279 C 309.408 -2.97208 -5.35102 0
M  V30 3280 N 308.545 -2.63678 -6.50706 0
M  V30 3281 H 313.385 -2.16042 -2.05255 0
M  V30 3282 H 310.922 -1.07451 -1.00463 0
M  V30 3283 H 312.88 -0.763311 -4.10158 0
M  V30 3284 H 311.51 -0.0290413 -3.22787 0
M  V30 3285 H 310.562 -2.43017 -2.92655 0
M  V30 3286 H 311.874 -3.01468 -3.97389 0
M  V30 3287 H 311.028 -1.59484 -5.85363 0
M  V30 3288 H 309.767 -0.906678 -4.79198 0
M  V30 3289 H 308.772 -3.19004 -4.47791 0
M  V30 3290 H 309.997 -3.87918 -5.57401 0
M  V30 3291 H 307.943 -1.76238 -6.31883 0
M  V30 3292 H 307.86 -3.444 -6.72997 0
M  V30 3293 H 309.128 -2.45942 -7.39684 0
M  V30 3294 N 313.357 1.07166 -1.15556 0
M  V30 3295 C 314.267 2.17947 -0.868116 0
M  V30 3296 C 315.283 1.73297 0.156297 0
M  V30 3297 O 316.459 2.01392 -0.0182327 0
M  V30 3298 C 313.524 3.44789 -0.36355 0
M  V30 3299 C 312.585 4.03996 -1.45209 0
M  V30 3300 C 311.818 5.24783 -0.971508 0
M  V30 3301 O 312.041 5.70109 0.182194 0
M  V30 3302 O 310.975 5.75715 -1.75603 0
M  V30 3303 H 314.801 2.4503 -1.79427 0
M  V30 3304 H 312.386 1.16539 -0.934824 0
M  V30 3305 H 314.268 4.21307 -0.0887113 0
M  V30 3306 H 312.943 3.19253 0.534708 0
M  V30 3307 H 311.85 3.29009 -1.78056 0
M  V30 3308 H 313.183 4.33808 -2.32533 0
M  V30 3309 N 314.835 0.952656 1.25548 0
M  V30 3310 C 316.084 0.602053 1.92505 0
M  V30 3311 C 316.397 -0.864663 1.75451 0
M  V30 3312 O 317.603 -1.32514 2.36965 0
M  V30 3313 C 316.059 1.02607 3.44963 0
M  V30 3314 C 315.667 2.51519 3.70732 0
M  V30 3315 C 317.411 0.747905 4.1786 0
M  V30 3316 C 315.318 2.87732 5.16686 0
M  V30 3317 H 314.248 0.22146 0.720744 0
M  V30 3318 H 316.899 1.15684 1.42441 0
M  V30 3319 H 315.281 0.399712 3.93978 0
M  V30 3320 H 316.455 3.19157 3.32378 0
M  V30 3321 H 314.77 2.76786 3.11092 0
M  V30 3322 H 317.367 0.994647 5.25367 0
M  V30 3323 H 317.71 -0.315629 4.15102 0
M  V30 3324 H 318.243 1.33452 3.74747 0
M  V30 3325 H 314.982 3.93095 5.24554 0
M  V30 3326 H 314.502 2.24765 5.56094 0
M  V30 3327 H 316.181 2.76817 5.84792 0
M  V30 3328 N 316.313 -1.40141 0.720998 0
M  V30 3329 C 317.729 -1.54632 0.395113 0
M  V30 3330 C 317.929 -1.69115 -1.09555 0
M  V30 3331 O 316.985 -1.68377 -1.88163 0
M  V30 3332 C 318.298 -2.77177 1.1659 0
M  V30 3333 C 319.846 -2.91 1.15274 0
M  V30 3334 C 320.321 -4.16465 1.90579 0
M  V30 3335 N 321.812 -4.23476 1.87675 0
M  V30 3336 C 322.547 -5.19475 2.42762 0
M  V30 3337 N 322.043 -6.21348 3.06428 0
M  V30 3338 N 323.836 -5.11592 2.32874 0
M  V30 3339 H 315.987 -1.28986 1.68749 0
M  V30 3340 H 318.25 -0.62412 0.713567 0
M  V30 3341 H 317.956 -2.72771 2.22011 0
M  V30 3342 H 317.83 -3.69442 0.76108 0
M  V30 3343 H 320.217 -2.94907 0.106702 0
M  V30 3344 H 320.298 -1.99838 1.59682 0
M  V30 3345 H 319.942 -4.1332 2.95176 0
M  V30 3346 H 319.872 -5.06646 1.43587 0
M  V30 3347 H 322.363 -3.50497 1.41281 0
M  V30 3348 H 322.676 -6.91034 3.45965 0
M  V30 3349 H 321.021 -6.21777 3.10514 0
M  V30 3350 H 324.212 -4.30936 1.82789 0
M  V30 3351 H 324.385 -5.86233 2.76106 0
M  V30 3352 N 317.792 -0.46758 -1.50504 0
M  V30 3353 C 319.02 0.0864133 -2.06719 0
M  V30 3354 C 319.435 1.33819 -1.33184 0
M  V30 3355 O 318.792 1.78061 -0.400083 0
M  V30 3356 C 318.843 0.378079 -3.59517 0
M  V30 3357 O 318.564 -0.824044 -4.3028 0
M  V30 3358 C 320.065 0.979426 -4.32345 0
M  V30 3359 H 317.285 -0.00551697 -0.670977 0
M  V30 3360 H 319.829 -0.655354 -1.93715 0
M  V30 3361 H 317.984 1.06977 -3.72337 0
M  V30 3362 H 318.398 -0.566518 -5.21432 0
M  V30 3363 H 319.872 1.1333 -5.40241 0
M  V30 3364 H 320.349 1.9686 -3.9261 0
M  V30 3365 H 320.955 0.326216 -4.24047 0
M  V30 3366 N 319.27 1.56325 -0.20005 0
M  V30 3367 C 320.203 2.15234 0.758267 0
M  V30 3368 C 321.181 1.09046 1.20614 0
M  V30 3369 O 322.365 1.37186 1.29276 0
M  V30 3370 C 319.492 2.71524 2.02466 0
M  V30 3371 C 318.538 3.90345 1.71852 0
M  V30 3372 S 319.371 5.28513 0.862249 0
M  V30 3373 C 320.527 5.88227 2.13868 0
M  V30 3374 H 320.76 2.96183 0.2575 0
M  V30 3375 H 318.293 1.54393 0.0150099 0
M  V30 3376 H 320.251 3.04598 2.75191 0
M  V30 3377 H 318.912 1.90607 2.49655 0
M  V30 3378 H 318.105 4.28158 2.65888 0
M  V30 3379 H 317.707 3.58306 1.07205 0
M  V30 3380 H 319.999 6.02891 3.09076 0
M  V30 3381 H 320.942 6.84714 1.80479 0
M  V30 3382 H 321.35 5.16874 2.2694 0
M  V30 3383 N 320.748 -0.0735177 1.57428 0
M  V30 3384 C 321.695 -1.08756 2.0357 0
M  V30 3385 C 322.665 -1.38559 0.916 0
M  V30 3386 O 323.85 -1.49656 1.18354 0
M  V30 3387 C 320.99 -2.39657 2.48311 0
M  V30 3388 C 320.103 -2.16399 3.73892 0
M  V30 3389 C 319.238 -3.40852 4.07423 0
M  V30 3390 C 318.277 -3.1295 5.2605 0
M  V30 3391 N 317.414 -4.29729 5.55228 0
M  V30 3392 H 322.254 -0.687104 2.8997 0
M  V30 3393 H 319.791 -0.327709 1.43403 0
M  V30 3394 H 321.749 -3.16081 2.72303 0
M  V30 3395 H 320.379 -2.77508 1.64891 0
M  V30 3396 H 319.431 -1.30676 3.57251 0
M  V30 3397 H 320.743 -1.91788 4.60455 0
M  V30 3398 H 319.897 -4.25671 4.32306 0
M  V30 3399 H 318.636 -3.68537 3.19425 0
M  V30 3400 H 317.641 -2.26526 5.00965 0
M  V30 3401 H 318.866 -2.86589 6.15665 0
M  V30 3402 H 316.812 -4.57448 4.70188 0
M  V30 3403 H 316.729 -4.08385 6.36206 0
M  V30 3404 H 317.997 -5.1555 5.84661 0
M  V30 3405 N 322.226 -1.5378 -0.344866 0
M  V30 3406 C 323.503 -1.61589 -1.10219 0
M  V30 3407 C 323.883 -0.436316 -2.06542 0
M  V30 3408 O 323.231 0.571543 -2.21237 0
M  V30 3409 C 323.441 -2.97602 -1.82301 0
M  V30 3410 C 324.789 -3.5291 -2.36093 0
M  V30 3411 O 325.813 -2.99768 -1.924 0
M  V30 3412 O 324.672 -4.45859 -3.16026 0
M  V30 3413 H 321.766 -0.653522 -0.506792 0
M  V30 3414 H 324.312 -1.66126 -0.346465 0
M  V30 3415 H 323.084 -3.74893 -1.12121 0
M  V30 3416 H 322.707 -2.9665 -2.64735 0
M  V30 3417 N 323.704 0.605807 -1.45491 0
M  V30 3418 C 324.952 1.36207 -1.49305 0
M  V30 3419 C 325.273 1.94519 -0.136863 0
M  V30 3420 O 324.543 1.77261 0.833983 0
M  V30 3421 H 323.123 0.50565 -0.549843 0
M  V30 3422 H 325.785 0.711239 -1.81459 0
M  V30 3423 H 324.881 2.18058 -2.23287 0
M  V30 3424 N 325.182 1.32811 0.848464 0
M  V30 3425 C 326.428 1.24917 1.60522 0
M  V30 3426 C 326.783 -0.185761 1.91501 0
M  V30 3427 O 326.076 -1.12524 1.55077 0
M  V30 3428 C 326.27 2.04831 2.92881 0
M  V30 3429 C 326.099 3.55949 2.74828 0
M  V30 3430 C 324.869 4.25277 2.72887 0
M  V30 3431 C 327.067 4.50476 2.48145 0
M  V30 3432 N 325.049 5.62408 2.46111 0
M  V30 3433 C 326.42 5.75427 2.30832 0
M  V30 3434 C 328.475 4.39665 2.33664 0
M  V30 3435 C 327.178 6.90789 2.00508 0
M  V30 3436 C 329.204 5.54833 2.04731 0
M  V30 3437 C 328.566 6.78787 1.88223 0
M  V30 3438 H 324.665 0.512279 0.590842 0
M  V30 3439 H 327.249 1.67246 0.996839 0
M  V30 3440 H 325.42 1.64837 3.51686 0
M  V30 3441 H 327.152 1.88782 3.57971 0
M  V30 3442 H 323.907 3.77456 2.86049 0
M  V30 3443 H 324.331 6.3467 2.35634 0
M  V30 3444 H 328.973 3.44477 2.45144 0
M  V30 3445 H 326.691 7.85984 1.87765 0
M  V30 3446 H 330.277 5.48398 1.94295 0
M  V30 3447 H 329.157 7.66396 1.66155 0
M  V30 3448 N 326.66 -1.06551 1.16123 0
M  V30 3449 C 327.888 -1.83005 0.965237 0
M  V30 3450 C 328.303 -1.82423 -0.486542 0
M  V30 3451 O 327.66 -1.24152 -1.33763 0
M  V30 3452 C 327.711 -3.29733 1.48183 0
M  V30 3453 O 327.432 -3.30416 2.87674 0
M  V30 3454 C 328.933 -4.22926 1.32848 0
M  V30 3455 H 326.153 -0.577118 0.342309 0
M  V30 3456 H 328.697 -1.3445 1.54089 0
M  V30 3457 H 326.852 -3.75609 0.948517 0
M  V30 3458 H 327.266 -4.22149 3.11272 0
M  V30 3459 H 328.74 -5.23916 1.73827 0
M  V30 3460 H 329.217 -4.38346 0.273692 0
M  V30 3461 H 329.823 -3.82894 1.85127 0
M  V30 3462 N 328.138 -0.959301 -1.25041 0
M  V30 3463 C 329.384 -0.617525 -1.9317 0
M  V30 3464 C 329.717 0.843981 -1.74902 0
M  V30 3465 O 328.992 1.60615 -1.09696 0
M  V30 3466 C 329.275 -0.982736 -3.46431 0
M  V30 3467 C 329.128 -2.50032 -3.73904 0
M  V30 3468 C 330.447 -0.511176 -4.37121 0
M  V30 3469 H 327.566 -0.22582 -0.701552 0
M  V30 3470 H 330.208 -1.19679 -1.4757 0
M  V30 3471 H 328.358 -0.489806 -3.854 0
M  V30 3472 H 330.03 -3.06737 -3.44544 0
M  V30 3473 H 328.273 -2.93598 -3.19348 0
M  V30 3474 H 328.944 -2.70635 -4.81103 0
M  V30 3475 H 331.42 -0.934075 -4.0548 0
M  V30 3476 H 330.296 -0.795361 -5.43107 0
M  V30 3477 H 330.557 0.588834 -4.38161 0
M  V30 3478 N 329.616 1.39756 -0.72842 0
M  V30 3479 C 330.563 2.30647 -0.0841519 0
M  V30 3480 C 331.533 1.48869 0.7367 0
M  V30 3481 O 332.718 1.77574 0.698015 0
M  V30 3482 C 329.858 3.35165 0.822091 0
M  V30 3483 C 328.971 4.31999 -0.0106663 0
M  V30 3484 C 328.106 5.23585 0.896241 0
M  V30 3485 C 327.145 6.12072 0.0583381 0
M  V30 3486 N 326.282 6.96035 0.920818 0
M  V30 3487 H 331.122 2.85173 -0.864891 0
M  V30 3488 H 328.659 1.40422 -0.438179 0
M  V30 3489 H 330.617 3.94345 1.36189 0
M  V30 3490 H 329.247 2.8211 1.56888 0
M  V30 3491 H 328.299 3.74492 -0.66781 0
M  V30 3492 H 329.611 4.9443 -0.658825 0
M  V30 3493 H 328.765 5.87759 1.50412 0
M  V30 3494 H 327.504 4.61459 1.57819 0
M  V30 3495 H 326.509 5.46916 -0.562389 0
M  V30 3496 H 327.734 6.76261 -0.6203 0
M  V30 3497 H 325.68 6.36485 1.58818 0
M  V30 3498 H 325.597 7.55284 0.32899 0
M  V30 3499 H 326.865 7.64646 1.51447 0
M  V30 3500 N 331.094 0.475555 1.50254 0
M  V30 3501 C 332.322 -0.0754493 2.06762 0
M  V30 3502 C 332.737 -1.33111 1.33891 0
M  V30 3503 O 332.094 -1.77846 0.40952 0
M  V30 3504 C 332.145 -0.359008 3.59713 0
M  V30 3505 O 331.866 0.846851 4.29837 0
M  V30 3506 C 333.367 -0.956484 4.32858 0
M  V30 3507 H 330.587 0.00907525 0.670939 0
M  V30 3508 H 333.131 0.665618 1.93364 0
M  V30 3509 H 331.286 -1.05001 3.72899 0
M  V30 3510 H 331.7 0.594162 5.21124 0
M  V30 3511 H 333.174 -1.10463 5.40834 0
M  V30 3512 H 333.651 -1.94775 3.93649 0
M  V30 3513 H 334.257 -0.303723 4.24214 0
M  V30 3514 N 332.573 -1.56217 0.208337 0
M  V30 3515 C 333.52 -2.19699 -0.707192 0
M  V30 3516 C 334.49 -1.14836 -1.20008 0
M  V30 3517 O 335.675 -1.4314 -1.26157 0
M  V30 3518 C 332.815 -2.87061 -1.91546 0
M  V30 3519 C 331.928 -4.06483 -1.46271 0
M  V30 3520 C 331.063 -4.61665 -2.62752 0
M  V30 3521 C 330.102 -5.73417 -2.14147 0
M  V30 3522 N 329.239 -6.22948 -3.23853 0
M  V30 3523 H 334.079 -2.97575 -0.159111 0
M  V30 3524 H 331.616 -1.46948 -0.0667874 0
M  V30 3525 H 333.574 -3.24294 -2.62468 0
M  V30 3526 H 332.204 -2.11725 -2.43664 0
M  V30 3527 H 331.256 -3.74825 -0.648886 0
M  V30 3528 H 332.568 -4.87271 -1.06622 0
M  V30 3529 H 331.722 -5.01272 -3.41776 0
M  V30 3530 H 330.461 -3.80013 -3.05682 0
M  V30 3531 H 329.466 -5.33326 -1.33581 0
M  V30 3532 H 330.691 -6.56897 -1.72232 0
M  V30 3533 H 328.637 -5.44213 -3.6629 0
M  V30 3534 H 328.554 -6.98823 -2.88414 0
M  V30 3535 H 329.822 -6.6721 -4.03052 0
M  V30 3536 N 334.051 0.0651679 -1.57465 0
M  V30 3537 C 335.328 0.79644 -1.78651 0
M  V30 3538 C 335.708 1.95454 -0.797566 0
M  V30 3539 O 335.056 2.27882 0.167946 0
M  V30 3540 C 335.266 1.26322 -3.25337 0
M  V30 3541 C 336.614 1.6939 -3.89348 0
M  V30 3542 O 337.638 1.35872 -3.29268 0
M  V30 3543 O 336.497 2.31471 -4.95059 0
M  V30 3544 H 333.591 0.382157 -0.733407 0
M  V30 3545 H 336.137 0.0447311 -1.69641 0
M  V30 3546 H 334.909 0.434859 -3.88876 0
M  V30 3547 H 334.532 2.07604 -3.39096 0
M  V30 3548 N 335.529 1.53961 0.336706 0
M  V30 3549 C 336.945 1.44378 0.680241 0
M  V30 3550 C 337.145 0.606034 1.9217 0
M  V30 3551 O 336.201 0.099688 2.52303 0
M  V30 3552 C 337.514 2.87945 0.8665 0
M  V30 3553 C 339.062 2.97763 0.964682 0
M  V30 3554 C 339.537 4.42453 1.18321 0
M  V30 3555 N 341.028 4.46008 1.25025 0
M  V30 3556 C 341.763 5.55102 1.43697 0
M  V30 3557 N 341.259 6.7419 1.59498 0
M  V30 3558 N 343.052 5.42727 1.463 0
M  V30 3559 H 335.203 2.06918 -0.479455 0
M  V30 3560 H 337.466 0.935634 -0.152619 0
M  V30 3561 H 337.172 3.51691 0.0256937 0
M  V30 3562 H 337.046 3.33293 1.76623 0
M  V30 3563 H 339.433 2.34153 1.796 0
M  V30 3564 H 339.514 2.55766 0.041708 0
M  V30 3565 H 339.158 5.06645 0.356788 0
M  V30 3566 H 339.088 4.82048 2.11985 0
M  V30 3567 H 341.579 3.60196 1.14312 0
M  V30 3568 H 341.892 7.53095 1.734 0
M  V30 3569 H 340.237 6.77123 1.56621 0
M  V30 3570 H 343.428 4.48647 1.33543 0
M  V30 3571 H 343.601 6.27806 1.6051 0
M  V30 3572 N 337.007 -0.598083 1.45811 0
M  V30 3573 C 338.232 -1.3881 1.54099 0
M  V30 3574 C 338.657 -1.8726 0.177578 0
M  V30 3575 O 338.015 -1.6069 -0.839541 0
M  V30 3576 C 338.063 -2.56217 2.53743 0
M  V30 3577 O 337.167 -3.5716 2.06182 0
M  V30 3578 H 336.508 -0.414024 0.519115 0
M  V30 3579 H 339.038 -0.726971 1.91249 0
M  V30 3580 H 339.048 -3.03337 2.72856 0
M  V30 3581 H 337.723 -2.20303 3.5276 0
M  V30 3582 H 336.3 -3.16624 1.96987 0
M  V30 3583 N 338.485 -1.33259 -0.841409 0
M  V30 3584 C 339.415 -1.25926 -1.96634 0
M  V30 3585 C 340.396 -0.140349 -1.6952 0
M  V30 3586 O 341.581 -0.329707 -1.91381 0
M  V30 3587 C 338.711 -0.99512 -3.32738 0
M  V30 3588 C 337.665 -2.0767 -3.74242 0
M  V30 3589 C 336.991 -1.66474 -5.08125 0
M  V30 3590 C 338.291 -3.49318 -3.88297 0
M  V30 3591 H 339.985 -2.20046 -2.03027 0
M  V30 3592 H 337.531 -1.05931 -0.975425 0
M  V30 3593 H 339.484 -0.930323 -4.11002 0
M  V30 3594 H 338.208 -0.0183004 -3.26595 0
M  V30 3595 H 336.867 -2.13187 -2.98239 0
M  V30 3596 H 336.515 -0.675012 -4.9845 0
M  V30 3597 H 336.215 -2.3885 -5.36865 0
M  V30 3598 H 337.739 -1.61455 -5.88867 0
M  V30 3599 H 339.153 -3.46316 -4.56879 0
M  V30 3600 H 337.55 -4.20158 -4.28471 0
M  V30 3601 H 338.62 -3.8801 -2.9082 0
M  V30 3602 N 339.963 1.05934 -1.16686 0
M  V30 3603 C 341.188 1.83029 -0.975455 0
M  V30 3604 C 341.613 1.82096 0.471452 0
M  V30 3605 O 340.971 1.22443 1.33706 0
M  V30 3606 C 341.019 3.27372 -1.51195 0
M  V30 3607 O 340.123 4.06054 -0.720701 0
M  V30 3608 H 339.464 0.566194 -0.346872 0
M  V30 3609 H 341.994 1.33541 -1.55009 0
M  V30 3610 H 342.004 3.78186 -1.53099 0
M  V30 3611 H 340.679 3.27366 -2.56523 0
M  V30 3612 H 339.256 3.64812 -0.772458 0
M  V30 3613 N 341.441 0.965919 1.2453 0
M  V30 3614 C 342.404 0.499547 2.2369 0
M  V30 3615 C 343.404 -0.40294 1.5567 0
M  V30 3616 O 344.594 -0.19865 1.73064 0
M  V30 3617 C 341.726 -0.276792 3.39774 0
M  V30 3618 H 342.919 1.37613 2.66463 0
M  V30 3619 H 340.472 0.750324 1.37112 0
M  V30 3620 H 341.207 -1.17055 3.02438 0
M  V30 3621 H 340.992 0.370826 3.90343 0
M  V30 3622 H 342.482 -0.592175 4.1338 0
M  V30 3623 N 342.919 -1.39368 0.735821 0
M  V30 3624 C 343.851 -2.2913 0.0567723 0
M  V30 3625 C 344.864 -1.46859 -0.702589 0
M  V30 3626 O 346.053 -1.69925 -0.546616 0
M  V30 3627 C 343.153 -3.25492 -0.943823 0
M  V30 3628 C 342.326 -4.36709 -0.24581 0
M  V30 3629 C 341.385 -5.13376 -1.15463 0
M  V30 3630 O 340.411 -5.65683 -0.631803 0
M  V30 3631 N 341.613 -5.24656 -2.48427 0
M  V30 3632 H 344.378 -2.88047 0.827582 0
M  V30 3633 H 341.939 -1.50957 0.585112 0
M  V30 3634 H 343.931 -3.73657 -1.55443 0
M  V30 3635 H 342.501 -2.676 -1.61583 0
M  V30 3636 H 341.721 -3.9041 0.545286 0
M  V30 3637 H 343.009 -5.08244 0.237891 0
M  V30 3638 H 342.407 -4.83679 -2.93379 0
M  V30 3639 H 340.964 -5.76258 -3.04582 0
M  V30 3640 N 344.397 -0.483516 -1.5 0
M  V30 3641 C 345.627 0.0643896 -2.065 0
M  V30 3642 C 346.035 1.32949 -1.34615 0
M  V30 3643 O 345.378 1.79003 -0.412756 0
M  V30 3644 C 345.44 0.405983 -3.572 0
M  V30 3645 C 345.104 -0.758875 -4.50655 0
M  V30 3646 C 346.101 -1.64445 -4.93208 0
M  V30 3647 C 343.786 -0.952725 -4.93182 0
M  V30 3648 C 345.78 -2.70818 -5.77006 0
M  V30 3649 C 343.467 -2.01966 -5.76761 0
M  V30 3650 C 344.465 -2.89574 -6.18576 0
M  V30 3651 O 344.153 -3.94429 -7.00486 0
M  V30 3652 H 343.885 -0.00934786 -0.675935 0
M  V30 3653 H 346.439 -0.674959 -1.93993 0
M  V30 3654 H 344.669 1.19869 -3.67652 0
M  V30 3655 H 346.358 0.890433 -3.96013 0
M  V30 3656 H 347.124 -1.50643 -4.61012 0
M  V30 3657 H 343.003 -0.280247 -4.60147 0
M  V30 3658 H 346.547 -3.3923 -6.09565 0
M  V30 3659 H 342.444 -2.1577 -6.0837 0
M  V30 3660 H 343.212 -3.91568 -7.1876 0
M  V30 3661 N 345.875 1.56104 -0.216619 0
M  V30 3662 C 346.785 2.23694 0.706982 0
M  V30 3663 C 347.801 1.24295 1.21765 0
M  V30 3664 O 348.977 1.57094 1.2603 0
M  V30 3665 C 346.042 2.8998 1.90033 0
M  V30 3666 C 345.103 4.04708 1.43213 0
M  V30 3667 C 344.336 4.67824 2.56859 0
M  V30 3668 O 344.559 4.29913 3.74874 0
M  V30 3669 O 343.493 5.56905 2.28343 0
M  V30 3670 H 347.319 3.03272 0.161235 0
M  V30 3671 H 344.904 1.49394 0.0136177 0
M  V30 3672 H 346.786 3.31837 2.59735 0
M  V30 3673 H 345.461 2.13365 2.43428 0
M  V30 3674 H 344.368 3.6743 0.70327 0
M  V30 3675 H 345.701 4.83051 0.944615 0
M  V30 3676 N 347.353 -0.0568162 1.57498 0
M  V30 3677 C 348.303 -1.07315 2.01166 0
M  V30 3678 C 349.287 -1.33632 0.896171 0
M  V30 3679 O 350.479 -1.33682 1.16009 0
M  V30 3680 C 347.608 -2.38257 2.47161 0
M  V30 3681 C 346.694 -2.1515 3.65474 0
M  V30 3682 N 347.085 -1.62014 4.7915 0
M  V30 3683 C 345.383 -2.45559 3.72313 0
M  V30 3684 C 346.084 -1.54069 5.60926 0
M  V30 3685 N 345.06 -2.00652 5.05213 0
M  V30 3686 H 348.862 -0.655878 2.86488 0
M  V30 3687 H 346.376 -0.263635 1.60246 0
M  V30 3688 H 348.373 -3.11845 2.76691 0
M  V30 3689 H 347.033 -2.80687 1.63232 0
M  V30 3690 H 348.044 -1.30667 5.01145 0
M  V30 3691 H 344.721 -2.91253 2.99129 0
M  V30 3692 H 346.111 -1.13712 6.62208 0
M  V30 3693 N 348.832 -1.54138 -0.328536 0
M  V30 3694 C 350.06 -1.76062 -1.08673 0
M  V30 3695 C 350.475 -0.506852 -1.81869 0
M  V30 3696 O 349.832 0.522223 -1.74869 0
M  V30 3697 C 349.883 -2.95054 -2.08866 0
M  V30 3698 O 349.604 -4.15583 -1.38644 0
M  V30 3699 C 351.105 -3.2915 -2.96943 0
M  V30 3700 H 348.325 -0.587889 -0.323461 0
M  V30 3701 H 350.869 -2.0101 -0.376175 0
M  V30 3702 H 349.024 -2.72394 -2.75464 0
M  V30 3703 H 349.438 -4.82481 -2.05699 0
M  V30 3704 H 350.912 -4.15723 -3.63151 0
M  V30 3705 H 351.389 -2.461 -3.63774 0
M  V30 3706 H 351.995 -3.53871 -2.35914 0
M  V30 3707 N 350.31 0.590341 -1.46126 0
M  V30 3708 C 351.559 1.34499 -1.50309 0
M  V30 3709 C 351.872 1.94977 -0.156021 0
M  V30 3710 O 353.078 2.71395 -0.0756037 0
M  V30 3711 C 351.534 2.43723 -2.64815 0
M  V30 3712 C 351.142 1.89582 -4.0591 0
M  V30 3713 C 352.886 3.20579 -2.78262 0
M  V30 3714 C 350.793 2.9639 -5.11769 0
M  V30 3715 H 349.723 0.505593 -0.559368 0
M  V30 3716 H 352.374 0.630848 -1.72315 0
M  V30 3717 H 350.756 3.17902 -2.36124 0
M  V30 3718 H 351.93 1.21997 -4.44357 0
M  V30 3719 H 350.245 1.25418 -3.97063 0
M  V30 3720 H 352.842 4.00276 -3.54519 0
M  V30 3721 H 353.185 3.72684 -1.85505 0
M  V30 3722 H 353.718 2.53505 -3.06562 0
M  V30 3723 H 350.457 2.49181 -6.06291 0
M  V30 3724 H 349.977 3.62487 -4.77873 0
M  V30 3725 H 351.656 3.60474 -5.37278 0
M  V30 3726 N 351.788 1.33704 0.83433 0
M  V30 3727 C 353.034 1.25603 1.59222 0
M  V30 3728 C 353.367 -0.176659 1.93395 0
M  V30 3729 O 352.642 -1.11915 1.59076 0
M  V30 3730 C 352.925 2.13576 2.89926 0
M  V30 3731 C 352.778 3.65326 2.62406 0
M  V30 3732 C 354.097 2.01238 3.91397 0
M  V30 3733 H 351.216 0.457613 0.577719 0
M  V30 3734 H 353.858 1.63848 0.961972 0
M  V30 3735 H 352.008 1.8109 3.43713 0
M  V30 3736 H 353.68 4.08124 2.15017 0
M  V30 3737 H 351.923 3.8698 1.96033 0
M  V30 3738 H 352.594 4.22232 3.55562 0
M  V30 3739 H 355.07 2.29738 3.46929 0
M  V30 3740 H 353.946 2.65036 4.80673 0
M  V30 3741 H 354.207 0.985951 4.30966 0
M  V30 3742 N 353.266 -1.05314 1.17247 0
M  V30 3743 C 354.512 -1.78557 0.961513 0
M  V30 3744 C 354.845 -1.87419 -0.508697 0
M  V30 3745 O 354.12 -1.37307 -1.37757 0
M  V30 3746 C 354.403 -3.22514 1.60176 0
M  V30 3747 C 354.256 -3.21673 3.14399 0
M  V30 3748 C 355.575 -4.20318 1.30463 0
M  V30 3749 H 352.694 -0.6482 0.350723 0
M  V30 3750 H 355.336 -1.23102 1.44727 0
M  V30 3751 H 353.486 -3.69867 1.18871 0
M  V30 3752 H 355.158 -2.82405 3.64753 0
M  V30 3753 H 353.401 -2.60048 3.47214 0
M  V30 3754 H 354.072 -4.23271 3.54324 0
M  V30 3755 H 356.548 -3.81454 1.66229 0
M  V30 3756 H 355.424 -5.19289 1.77848 0
M  V30 3757 H 355.685 -4.41526 0.22521 0
M  V30 3758 N 354.744 -0.972509 -1.24016 0
M  V30 3759 C 355.972 -0.654803 -1.96265 0
M  V30 3760 C 356.387 0.776708 -1.72083 0
M  V30 3761 O 355.744 1.52171 -1.00748 0
M  V30 3762 C 355.795 -0.92592 -3.49441 0
M  V30 3763 O 355.516 -2.30116 -3.72798 0
M  V30 3764 C 357.017 -0.623068 -4.38899 0
M  V30 3765 H 354.237 -0.243907 -0.6251 0
M  V30 3766 H 356.781 -1.30175 -1.57717 0
M  V30 3767 H 354.936 -0.325108 -3.86033 0
M  V30 3768 H 355.35 -2.38483 -4.67147 0
M  V30 3769 H 356.824 -0.863189 -5.45209 0
M  V30 3770 H 357.301 0.442754 -4.36963 0
M  V30 3771 H 357.907 -1.204 -4.07902 0
M  V30 3772 N 356.222 1.38976 -0.743202 0
M  V30 3773 C 357.499 1.94351 -0.220705 0
M  V30 3774 C 357.879 1.67935 1.2791 0
M  V30 3775 O 357.227 1.01211 2.04862 0
M  V30 3776 C 357.437 3.44426 -0.563171 0
M  V30 3777 C 358.785 4.2144 -0.517046 0
M  V30 3778 O 359.809 3.52661 -0.500846 0
M  V30 3779 O 358.668 5.44032 -0.518806 0
M  V30 3780 H 355.762 0.825879 -0.043047 0
M  V30 3781 H 358.308 1.48429 -0.822618 0
M  V30 3782 H 357.08 3.5712 -1.59941 0
M  V30 3783 H 356.703 3.97543 0.0672883 0
M  V30 3784 N 357.7 0.491464 1.49741 0
M  V30 3785 C 358.648 -0.305837 2.30581 0
M  V30 3786 C 359.642 -0.971642 1.38764 0
M  V30 3787 O 360.848 -0.90042 1.5586 0
M  V30 3788 H 357.223 -0.117482 0.742767 0
M  V30 3789 H 359.194 0.396093 2.95759 0
M  V30 3790 C 357.943 -1.36319 3.19863 0
M  V30 3791 H 357.266 -0.860258 3.90435 0
M  V30 3792 H 358.706 -1.89323 3.79385 0
M  V30 3793 C 357.165 -2.37621 2.38826 0
M  V30 3794 O 357.695 -3.43311 2.08567 0
M  V30 3795 N 355.901 -2.09849 2.01026 0
M  V30 3796 H 355.448 -1.23922 2.25834 0
M  V30 3797 H 355.406 -2.77859 1.47112 0
M  V30 3798 N 359.178 -1.55987 0.224894 0
M  V30 3799 C 360.426 -1.97998 -0.405099 0
M  V30 3800 C 360.747 -1.11387 -1.60056 0
M  V30 3801 O 360.017 -0.191645 -1.9496 0
M  V30 3802 H 358.597 -0.731235 -0.152658 0
M  V30 3803 H 361.259 -1.92279 0.318567 0
M  V30 3804 H 360.355 -3.03463 -0.729167 0
M  V30 3805 N 360.656 0.0484629 -1.57525 0
M  V30 3806 C 361.896 0.748196 -1.90214 0
M  V30 3807 C 362.26 1.73545 -0.821347 0
M  V30 3808 O 363.461 2.48201 -1.03198 0
M  V30 3809 C 361.732 1.41727 -3.28098 0
M  V30 3810 S 363.291 2.14884 -3.82584 0
M  V30 3811 H 360.109 0.248307 -0.666232 0
M  V30 3812 H 362.711 0.00343188 -1.955 0
M  V30 3813 H 361.415 0.685244 -4.04639 0
M  V30 3814 H 360.946 2.20099 -3.26068 0
M  V30 3815 H 362.961 3.41755 -3.59747 0
M  V30 3816 N 362.134 1.5431 0.320358 0
M  V30 3817 C 363.044 1.86946 1.41734 0
M  V30 3818 C 364.06 0.761689 1.56443 0
M  V30 3819 O 365.236 1.05629 1.71477 0
M  V30 3820 C 362.301 2.09293 2.76401 0
M  V30 3821 C 361.362 3.33082 2.70841 0
M  V30 3822 C 360.595 3.54353 3.99086 0
M  V30 3823 O 360.818 2.79002 4.97508 0
M  V30 3824 O 359.752 4.47838 4.0215 0
M  V30 3825 H 363.578 2.80232 1.17062 0
M  V30 3826 H 361.163 1.40255 0.514673 0
M  V30 3827 H 363.045 2.25303 3.56113 0
M  V30 3828 H 361.72 1.19194 3.00956 0
M  V30 3829 H 360.627 3.22454 1.89668 0
M  V30 3830 H 361.96 4.23249 2.5124 0
M  V30 3831 N 363.613 -0.582584 1.46437 0
M  V30 3832 C 364.862 -1.337 1.5102 0
M  V30 3833 C 365.175 -1.94891 0.166359 0
M  V30 3834 O 366.381 -2.71351 0.0899954 0
M  V30 3835 C 364.837 -2.42315 2.66104 0
M  V30 3836 C 364.445 -1.87427 4.06909 0
M  V30 3837 C 366.189 -3.19099 2.79958 0
M  V30 3838 C 364.096 -2.93672 5.13333 0
M  V30 3839 H 363.026 -0.502619 0.562041 0
M  V30 3840 H 365.677 -0.621701 1.72647 0
M  V30 3841 H 364.059 -3.16645 2.37807 0
M  V30 3842 H 365.233 -1.19639 4.44998 0
M  V30 3843 H 363.548 -1.2331 3.97723 0
M  V30 3844 H 366.145 -3.9839 3.56636 0
M  V30 3845 H 366.488 -3.71695 1.87479 0
M  V30 3846 H 367.021 -2.51875 3.07902 0
M  V30 3847 H 363.76 -2.45962 6.07604 0
M  V30 3848 H 363.28 -3.59948 4.79789 0
M  V30 3849 H 364.959 -3.5762 5.39182 0
M  V30 3850 N 365.091 -1.34144 -0.827227 0
M  V30 3851 C 366.021 -1.28005 -1.95287 0
M  V30 3852 C 367.002 -0.158321 -1.69362 0
M  V30 3853 O 368.187 -0.349987 -1.9102 0
M  V30 3854 C 365.317 -1.03036 -3.31664 0
M  V30 3855 C 364.271 -2.11628 -3.72019 0
M  V30 3856 C 363.597 -1.71854 -5.0633 0
M  V30 3857 C 364.897 -3.53417 -3.8457 0
M  V30 3858 H 366.591 -2.22187 -2.00682 0
M  V30 3859 H 364.137 -1.0696 -0.964135 0
M  V30 3860 H 366.09 -0.973863 -4.09993 0
M  V30 3861 H 364.814 -0.0529391 -3.26557 0
M  V30 3862 H 363.473 -2.16339 -2.95961 0
M  V30 3863 H 363.121 -0.727841 -4.97706 0
M  V30 3864 H 362.821 -2.44531 -5.34302 0
M  V30 3865 H 364.345 -1.67692 -5.87122 0
M  V30 3866 H 365.759 -3.51142 -4.5318 0
M  V30 3867 H 364.156 -4.24679 -4.2399 0
M  V30 3868 H 365.226 -3.91072 -2.86689 0
M  V30 3869 N 366.569 1.04691 -1.17803 0
M  V30 3870 C 367.797 1.81446 -0.99423 0
M  V30 3871 C 368.212 1.83174 0.457459 0
M  V30 3872 O 367.569 1.26265 1.31771 0
M  V30 3873 C 367.62 3.27334 -1.5341 0
M  V30 3874 O 367.341 3.25798 -2.92895 0
M  V30 3875 C 368.842 4.20759 -1.39559 0
M  V30 3876 H 366.062 0.571599 -0.351447 0
M  V30 3877 H 368.606 1.31982 -1.56208 0
M  V30 3878 H 366.761 3.74052 -1.00815 0
M  V30 3879 H 367.175 4.17144 -3.17949 0
M  V30 3880 H 368.649 5.21084 -1.82141 0
M  V30 3881 H 369.126 4.37856 -0.343394 0
M  V30 3882 H 369.732 3.79901 -1.91195 0
M  V30 3883 N 368.047 0.979072 1.23499 0
M  V30 3884 C 368.977 0.537606 2.27227 0
M  V30 3885 C 369.958 -0.428539 1.64613 0
M  V30 3886 O 371.143 -0.322191 1.91509 0
M  V30 3887 C 368.273 -0.162052 3.46922 0
M  V30 3888 C 367.227 0.721242 4.21879 0
M  V30 3889 C 366.553 -0.110555 5.34586 0
M  V30 3890 C 367.853 2.01141 4.82016 0
M  V30 3891 H 369.547 1.40462 2.64406 0
M  V30 3892 H 367.093 0.67684 1.27102 0
M  V30 3893 H 369.046 -0.482192 4.18632 0
M  V30 3894 H 367.77 -1.06351 3.08799 0
M  V30 3895 H 366.429 1.02482 3.51984 0
M  V30 3896 H 366.077 -1.0125 4.92704 0
M  V30 3897 H 365.777 0.477325 5.85658 0
M  V30 3898 H 367.301 -0.425107 6.09118 0
M  V30 3899 H 368.715 1.75612 5.45741 0
M  V30 3900 H 367.112 2.54695 5.43369 0
M  V30 3901 H 368.182 2.69909 4.02836 0
M  V30 3902 N 369.525 -1.3858 0.750561 0
M  V30 3903 C 370.941 -1.53759 0.427824 0
M  V30 3904 C 371.141 -1.71401 -1.05943 0
M  V30 3905 O 370.197 -1.72331 -1.84549 0
M  V30 3906 C 371.51 -2.74642 1.22443 0
M  V30 3907 C 373.058 -2.88489 1.2142 0
M  V30 3908 C 373.533 -4.12329 1.9937 0
M  V30 3909 N 375.024 -4.194 1.96616 0
M  V30 3910 C 375.759 -5.14209 2.53727 0
M  V30 3911 N 375.255 -6.14709 3.19539 0
M  V30 3912 N 377.048 -5.06537 2.43673 0
M  V30 3913 H 369.199 -1.25377 1.71447 0
M  V30 3914 H 371.462 -0.608844 0.726645 0
M  V30 3915 H 371.168 -2.68 2.27747 0
M  V30 3916 H 371.042 -3.67745 0.839273 0
M  V30 3917 H 373.429 -2.94614 0.169232 0
M  V30 3918 H 373.51 -1.96406 1.63885 0
M  V30 3919 H 373.154 -4.06966 3.03877 0
M  V30 3920 H 373.084 -5.03486 1.54302 0
M  V30 3921 H 375.575 -3.47421 1.48684 0
M  V30 3922 H 375.888 -6.8354 3.60545 0
M  V30 3923 H 374.233 -6.1505 3.23633 0
M  V30 3924 H 377.424 -4.26962 1.91889 0
M  V30 3925 H 377.597 -5.80245 2.88479 0
M  V30 3926 N 371.003 -0.499398 -1.49478 0
M  V30 3927 C 371.95 0.279881 -2.29097 0
M  V30 3928 C 372.92 0.961805 -1.3542 0
M  V30 3929 O 374.105 0.968777 -1.64376 0
M  V30 3930 C 371.245 1.33932 -3.18051 0
M  V30 3931 C 370.358 0.669333 -4.26783 0
M  V30 3932 C 369.493 1.70907 -5.02955 0
M  V30 3933 C 368.532 1.02087 -6.03527 0
M  V30 3934 N 367.669 2.00474 -6.7287 0
M  V30 3935 H 372.509 -0.405317 -2.95231 0
M  V30 3936 H 370.046 -0.211726 -1.45568 0
M  V30 3937 H 372.004 1.96553 -3.67998 0
M  V30 3938 H 370.634 1.9933 -2.53904 0
M  V30 3939 H 369.686 -0.0701234 -3.80335 0
M  V30 3940 H 370.998 0.127503 -4.98637 0
M  V30 3941 H 370.152 2.41037 -5.56764 0
M  V30 3942 H 368.891 2.28476 -4.30871 0
M  V30 3943 H 367.896 0.305338 -5.48951 0
M  V30 3944 H 369.121 0.451708 -6.77596 0
M  V30 3945 H 367.067 2.57007 -6.03559 0
M  V30 3946 H 366.984 1.51353 -7.40694 0
M  V30 3947 H 368.252 2.69897 -7.31284 0
M  V30 3948 N 372.481 1.55866 -0.233164 0
M  V30 3949 C 373.758 1.90471 0.444988 0
M  V30 3950 C 374.138 1.15209 1.7689 0
M  V30 3951 O 373.486 0.265119 2.26957 0
M  V30 3952 C 373.696 3.4333 0.626559 0
M  V30 3953 C 375.044 4.14319 0.92871 0
M  V30 3954 O 376.068 3.48993 0.712926 0
M  V30 3955 O 374.927 5.29846 1.33887 0
M  V30 3956 H 372.021 0.792347 0.236885 0
M  V30 3957 H 374.567 1.67437 -0.276211 0
M  V30 3958 H 373.339 3.90095 -0.306822 0
M  V30 3959 H 372.962 3.72181 1.39881 0
M  V30 3960 N 373.959 -0.0401083 1.57549 0
M  V30 3961 C 375.236 -0.767917 1.79896 0
M  V30 3962 C 375.616 -1.9416 0.82856 0
M  V30 3963 O 374.964 -2.2812 -0.131671 0
M  V30 3964 C 375.174 -1.2113 3.27305 0
M  V30 3965 C 376.522 -1.63175 3.91994 0
M  V30 3966 O 377.546 -1.30616 3.31388 0
M  V30 3967 O 376.405 -2.23565 4.98679 0
M  V30 3968 H 373.499 -0.370441 0.739393 0
M  V30 3969 H 376.045 -0.017737 1.69691 0
M  V30 3970 H 374.817 -0.372937 3.89519 0
M  V30 3971 H 374.44 -2.02183 3.42356 0
M  V30 3972 N 375.437 -1.54477 -0.31217 0
M  V30 3973 C 376.665 -1.77205 -1.068 0
M  V30 3974 C 377.08 -0.526114 -1.81321 0
M  V30 3975 O 376.437 0.503647 -1.75413 0
M  V30 3976 C 376.488 -2.97253 -2.05725 0
M  V30 3977 O 376.209 -4.1703 -1.34228 0
M  V30 3978 C 377.71 -3.32281 -2.93435 0
M  V30 3979 H 374.93 -0.591287 -0.317208 0
M  V30 3980 H 377.474 -2.01398 -0.354834 0
M  V30 3981 H 375.629 -2.753 -2.72559 0
M  V30 3982 H 376.043 -4.84636 -2.00571 0
M  V30 3983 H 377.517 -4.19551 -3.58721 0
M  V30 3984 H 377.994 -2.49945 -3.61143 0
M  V30 3985 H 378.6 -3.56353 -2.32147 0
M  V30 3986 N 376.915 0.57481 -1.46744 0
M  V30 3987 C 378.164 1.32898 -1.51727 0
M  V30 3988 C 378.477 1.948 -0.176692 0
M  V30 3989 O 379.683 2.71299 -0.104385 0
M  V30 3990 C 378.139 2.40901 -2.67385 0
M  V30 3991 C 377.747 1.85266 -4.07898 0
M  V30 3992 C 379.491 3.17609 -2.81646 0
M  V30 3993 C 377.398 2.90945 -5.14883 0
M  V30 3994 H 376.328 0.499631 -0.564699 0
M  V30 3995 H 378.979 0.612536 -1.72975 0
M  V30 3996 H 377.361 3.15379 -2.39483 0
M  V30 3997 H 378.535 1.17278 -4.45626 0
M  V30 3998 H 376.85 1.21199 -3.98371 0
M  V30 3999 H 379.447 3.96493 -3.58744 0
M  V30 4000 H 379.79 3.70696 -1.89448 0
M  V30 4001 H 380.323 2.50239 -3.09233 0
M  V30 4002 H 377.062 2.42736 -6.089 0
M  V30 4003 H 376.582 3.57398 -4.81691 0
M  V30 4004 H 378.261 3.54755 -5.41071 0
M  V30 4005 N 378.394 1.34581 0.820102 0
M  V30 4006 C 379.805 1.24298 1.39309 0
M  V30 4007 C 380.156 -0.130351 1.95767 0
M  V30 4008 O 379.281 -1.0308 1.90272 0
M  V30 4009 C 379.876 2.25054 2.53251 0
M  V30 4010 C 378.435 2.18552 3.0645 0
M  V30 4011 C 377.582 2.11503 1.79337 0
M  V30 4012 H 380.533 1.45906 0.624262 0
M  V30 4013 H 380.554 1.86917 3.31425 0
M  V30 4014 H 380.066 3.24996 2.1213 0
M  V30 4015 H 378.167 1.21976 3.52069 0
M  V30 4016 H 378.28 3.0993 3.65349 0
M  V30 4017 H 376.644 1.57268 2.00347 0
M  V30 4018 H 377.427 3.13284 1.40386 0
M  V30 4019 N 379.872 -1.04064 1.18357 0
M  V30 4020 C 380.835 -2.10243 0.912707 0
M  V30 4021 C 381.835 -1.60477 -0.101928 0
M  V30 4022 O 383.025 -1.73703 0.131517 0
M  V30 4023 C 380.157 -3.38893 0.369387 0
M  V30 4024 H 381.35 -2.35706 1.85426 0
M  V30 4025 H 378.903 -1.20489 0.995594 0
M  V30 4026 H 379.638 -3.19094 -0.578776 0
M  V30 4027 H 379.423 -3.76331 1.1008 0
M  V30 4028 H 380.913 -4.17128 0.198575 0
M  V30 4029 N 381.35 -0.985608 -1.22978 0
M  V30 4030 C 382.599 -0.652881 -1.90841 0
M  V30 4031 C 382.912 0.817842 -1.77681 0
M  V30 4032 O 384.118 1.26185 -2.40395 0
M  V30 4033 C 382.574 -1.11717 -3.42122 0
M  V30 4034 C 382.182 -2.6126 -3.63933 0
M  V30 4035 C 383.926 -0.85843 -4.1573 0
M  V30 4036 C 381.833 -3.0133 -5.08876 0
M  V30 4037 H 380.763 -0.240491 -0.714619 0
M  V30 4038 H 383.414 -1.1942 -1.39324 0
M  V30 4039 H 381.796 -0.504027 -3.92779 0
M  V30 4040 H 382.97 -3.27858 -3.23799 0
M  V30 4041 H 381.285 -2.84937 -3.03644 0
M  V30 4042 H 383.882 -1.13359 -5.22546 0
M  V30 4043 H 384.225 0.205461 -4.15793 0
M  V30 4044 H 384.758 -1.43341 -3.71077 0
M  V30 4045 H 381.497 -4.06864 -5.13947 0
M  V30 4046 H 381.017 -2.3943 -5.49939 0
M  V30 4047 H 382.696 -2.92224 -5.77247 0
M  V30 4048 N 382.828 1.3818 -0.7579 0
M  V30 4049 C 384.077 1.99261 -0.312744 0
M  V30 4050 C 384.39 1.60846 1.11301 0
M  V30 4051 O 385.596 2.14929 1.65885 0
M  V30 4052 C 384.052 3.56294 -0.50821 0
M  V30 4053 C 383.66 4.03657 -1.94333 0
M  V30 4054 C 385.404 4.24313 -0.125982 0
M  V30 4055 C 383.311 5.53347 -2.08712 0
M  V30 4056 H 382.241 0.745456 -0.113185 0
M  V30 4057 H 384.892 1.57889 -0.935056 0
M  V30 4058 H 383.274 3.95575 0.183353 0
M  V30 4059 H 384.448 3.75655 -2.66871 0
M  V30 4060 H 382.763 3.48376 -2.28086 0
M  V30 4061 H 385.36 5.34279 -0.212125 0
M  V30 4062 H 385.703 4.05962 0.921964 0
M  V30 4063 H 386.236 3.90285 -0.769563 0
M  V30 4064 H 382.975 5.76607 -3.11777 0
M  V30 4065 H 382.495 5.83078 -1.4064 0
M  V30 4066 H 384.174 6.19111 -1.87912 0
M  V30 4067 N 384.306 0.507319 1.49211 0
M  V30 4068 C 385.531 -0.033725 2.07373 0
M  V30 4069 C 385.956 -1.29485 1.36437 0
M  V30 4070 O 385.314 -1.76294 0.423087 0
M  V30 4071 C 385.362 -0.263945 3.59633 0
M  V30 4072 O 384.466 -1.33737 3.90113 0
M  V30 4073 H 383.807 0.0290331 0.663365 0
M  V30 4074 H 386.337 0.708749 1.91932 0
M  V30 4075 H 386.347 -0.493536 4.05004 0
M  V30 4076 H 385.022 0.657424 4.10671 0
M  V30 4077 H 383.599 -1.09224 3.56545 0
M  V30 4078 N 385.784 -1.5574 0.241426 0
M  V30 4079 C 386.734 -2.17803 -0.674233 0
M  V30 4080 C 387.718 -1.13225 -1.14319 0
M  V30 4081 O 388.91 -1.39153 -1.09387 0
M  V30 4082 C 386.039 -2.87682 -1.87333 0
M  V30 4083 C 385.125 -3.99509 -1.42313 0
M  V30 4084 N 385.516 -5.01115 -0.686798 0
M  V30 4085 C 383.814 -4.11964 -1.70885 0
M  V30 4086 C 384.515 -5.79922 -0.454456 0
M  V30 4087 N 383.491 -5.34001 -1.01705 0
M  V30 4088 H 387.293 -2.93718 -0.103447 0
M  V30 4089 H 384.807 -1.62342 0.0435095 0
M  V30 4090 H 386.804 -3.3057 -2.54026 0
M  V30 4091 H 385.464 -2.13269 -2.4484 0
M  V30 4092 H 386.475 -5.16799 -0.337459 0
M  V30 4093 H 383.152 -3.48718 -2.2957 0
M  V30 4094 H 384.542 -6.71768 0.132992 0
M  V30 4095 N 387.262 0.0317525 -1.57568 0
M  V30 4096 C 388.539 0.758366 -1.803 0
M  V30 4097 C 388.919 1.93718 -0.838845 0
M  V30 4098 O 388.267 2.28187 0.119571 0
M  V30 4099 C 388.477 1.19392 -3.27943 0
M  V30 4100 C 389.825 1.61094 -3.92854 0
M  V30 4101 O 390.849 1.28857 -3.32076 0
M  V30 4102 O 389.708 2.20918 -4.99858 0
M  V30 4103 H 386.802 0.366514 -0.741348 0
M  V30 4104 H 389.348 0.00873765 -1.69698 0
M  V30 4105 H 388.12 0.352275 -3.89711 0
M  V30 4106 H 387.743 2.00365 -3.43424 0
M  V30 4107 N 388.74 1.54641 0.303973 0
M  V30 4108 C 389.65 1.88439 1.39743 0
M  V30 4109 C 390.666 0.778239 1.55626 0
M  V30 4110 O 391.842 1.07442 1.70347 0
M  V30 4111 C 388.907 2.12212 2.74166 0
M  V30 4112 C 387.968 3.35936 2.67293 0
M  V30 4113 C 387.201 3.58566 3.95305 0
M  V30 4114 O 387.424 2.84263 4.9452 0
M  V30 4115 O 386.358 4.52078 3.97378 0
M  V30 4116 H 390.184 2.81458 1.14083 0
M  V30 4117 H 387.769 1.40793 0.499768 0
M  V30 4118 H 389.651 2.29067 3.53704 0
M  V30 4119 H 388.326 1.22379 2.99675 0
M  V30 4120 H 387.233 3.24448 1.86237 0
M  V30 4121 H 388.566 4.2589 2.46736 0
M  V30 4122 O 390.257 -0.449877 1.55108 0
M  V30 4123 H 390.948 -1.10376 1.59176 0
M  V30 END ATOM
M  V30 BEGIN BOND
M  V30 END BOND
M  V30 END CTAB
M  END
$$$$
