drugbank_target|P11597 Cholesteryl ester transfer protein (DB06281)
 OpenBabel12092120333D

  0  0  0     0  0            999 V3000
M  V30 BEGIN CTAB
M  V30 COUNTS 7741 7820 0 0 0
M  V30 BEGIN ATOM
M  V30 1 H -0.908 1.98254 -0.117106 0
M  V30 2 N 0 1.576 0 0
M  V30 3 C 0.933 2.03868 1.02534 0
M  V30 4 C 1.911 0.928543 1.3348 0
M  V30 5 O 3.095 1.19667 1.45644 0
M  V30 6 C 0.222 2.43627 2.35294 0
M  V30 7 C -0.732 3.65373 2.2001 0
M  V30 8 S 0.101 5.13292 1.52614 0
M  V30 9 C 1.257 5.56322 2.86805 0
M  V30 10 H 1.49 2.90518 0.631377 0
M  V30 11 H -0.977 1.52953 0.210867 0
M  V30 12 H 0.981 2.67203 3.11629 0
M  V30 13 H -0.358 1.57376 2.7183 0
M  V30 14 H -1.165 3.90944 3.18086 0
M  V30 15 H -1.563 3.418 1.51819 0
M  V30 16 H 0.729 5.58782 3.83104 0
M  V30 17 H 1.672 6.56266 2.65933 0
M  V30 18 H 2.08 4.83886 2.90714 0
M  V30 19 N 1.4781 -0.272755 1.55222 0
M  V30 20 C 2.4081 -1.34136 1.91127 0
M  V30 21 C 3.3891 -1.51513 0.773168 0
M  V30 22 O 4.5741 -1.64552 1.03132 0
M  V30 23 C 1.7041 -2.70083 2.1834 0
M  V30 24 C 0.6581 -2.67437 3.34158 0
M  V30 25 C -0.0159 -4.06938 3.46851 0
M  V30 26 C 1.2841 -2.26686 4.70543 0
M  V30 27 H 2.9781 -1.04333 2.80633 0
M  V30 28 H 0.5241 -0.500454 1.35024 0
M  V30 29 H 2.4771 -3.44952 2.42046 0
M  V30 30 H 1.2011 -3.01469 1.25634 0
M  V30 31 H -0.1399 -1.95026 3.1042 0
M  V30 32 H -0.4919 -4.35547 2.51611 0
M  V30 33 H -0.7919 -4.06062 4.2472 0
M  V30 34 H 0.7321 -4.83545 3.72849 0
M  V30 35 H 2.1461 -2.91277 4.93792 0
M  V30 36 H 0.5431 -2.36971 5.5133 0
M  V30 37 H 1.6131 -1.21818 4.69349 0
M  V30 38 N 2.9562 -1.48159 -0.537278 0
M  V30 39 C 3.9192 -1.61665 -1.62472 0
M  V30 40 C 4.9192 -0.490395 -1.5314 0
M  V30 41 O 6.1092 -0.755998 -1.5694 0
M  V30 42 C 3.2412 -1.57997 -3.02076 0
M  V30 43 H 4.4342 -2.58621 -1.51839 0
M  V30 44 H 1.9872 -1.36647 -0.758771 0
M  V30 45 H 2.7222 -0.624913 -3.18222 0
M  V30 46 H 2.5072 -2.39755 -3.10258 0
M  V30 47 H 3.9972 -1.70627 -3.81151 0
M  V30 48 N 4.4343 0.785586 -1.36625 0
M  V30 49 C 5.3973 1.87999 -1.31107 0
M  V30 50 C 6.3973 1.59316 -0.217959 0
M  V30 51 O 7.5873 1.67656 -0.472977 0
M  V30 52 C 4.7193 3.24861 -1.03334 0
M  V30 53 H 5.9123 1.94307 -2.2844 0
M  V30 54 H 3.4653 0.983813 -1.21453 0
M  V30 55 H 4.2003 3.24235 -0.0647432 0
M  V30 56 H 3.9853 3.4707 -1.82441 0
M  V30 57 H 5.4753 4.04929 -1.02088 0
M  V30 58 N 5.9124 1.20967 1.01018 0
M  V30 59 C 7.1404 1.04956 1.78303 0
M  V30 60 C 7.5554 -0.400915 1.84494 0
M  V30 61 O 6.9124 -1.27826 1.30257 0
M  V30 62 C 6.9634 1.63403 3.22462 0
M  V30 63 O 6.6844 3.02775 3.16637 0
M  V30 64 C 8.1854 1.52432 4.16268 0
M  V30 65 H 5.4054 0.368858 0.560522 0
M  V30 66 H 7.9494 1.60193 1.27116 0
M  V30 67 H 6.1044 1.1227 3.70775 0
M  V30 68 H 6.5184 3.30626 4.07169 0
M  V30 69 H 7.9924 1.98078 5.15237 0
M  V30 70 H 8.4694 0.477875 4.36592 0
M  V30 71 H 9.0754 2.02787 3.73841 0
M  V30 72 N 7.3905 -1.2043 1.01659 0
M  V30 73 C 8.6365 -1.90079 0.706963 0
M  V30 74 C 8.9695 -1.78648 -0.761474 0
M  V30 75 O 8.2445 -1.17069 -1.55323 0
M  V30 76 C 8.5275 -3.41469 1.14327 0
M  V30 77 C 8.3805 -3.61833 2.67201 0
M  V30 78 C 9.6995 -4.34261 0.714529 0
M  V30 79 H 6.8185 -0.690254 0.2583 0
M  V30 80 H 9.4605 -1.41826 1.26433 0
M  V30 81 H 7.6105 -3.82696 0.669056 0
M  V30 82 H 9.2825 -3.2986 3.22475 0
M  V30 83 H 7.5255 -3.05304 3.08175 0
M  V30 84 H 8.1965 -4.67955 2.92783 0
M  V30 85 H 10.6725 -4.00682 1.12221 0
M  V30 86 H 9.5485 -5.38806 1.04784 0
M  V30 87 H 9.8095 -4.40431 -0.383799 0
M  V30 88 N 8.8686 -0.792821 -1.36206 0
M  V30 89 C 9.7986 -0.207853 -2.32573 0
M  V30 90 C 10.7796 0.659055 -1.56813 0
M  V30 91 O 11.9646 0.592176 -1.84951 0
M  V30 92 C 9.0946 0.655449 -3.41059 0
M  V30 93 C 8.0486 -0.111842 -4.27854 0
M  V30 94 C 7.3746 0.872274 -5.27537 0
M  V30 95 C 8.6746 -1.30299 -5.05786 0
M  V30 96 H 10.3686 -1.01294 -2.81744 0
M  V30 97 H 7.9146 -0.48854 -1.3546 0
M  V30 98 H 9.8676 1.07464 -4.07467 0
M  V30 99 H 8.5916 1.49328 -2.90463 0
M  V30 100 H 7.2506 -0.512053 -3.63006 0
M  V30 101 H 6.8986 1.70523 -4.73214 0
M  V30 102 H 6.5986 0.363291 -5.86476 0
M  V30 103 H 8.1226 1.28996 -5.96818 0
M  V30 104 H 9.5366 -0.959379 -5.65216 0
M  V30 105 H 7.9336 -1.7455 -5.74154 0
M  V30 106 H 9.0036 -2.09663 -4.37229 0
M  V30 107 N 10.3467 1.47872 -0.545128 0
M  V30 108 C 11.5747 2.06889 -0.021084 0
M  V30 109 C 11.9897 1.39955 1.2672 0
M  V30 110 O 11.3467 0.492036 1.75742 0
M  V30 111 C 11.3977 3.60996 0.190817 0
M  V30 112 O 11.1187 4.25419 -1.04644 0
M  V30 113 C 12.6197 4.36849 0.753521 0
M  V30 114 H 9.8397 0.669785 -0.0403635 0
M  V30 115 H 12.3837 1.90049 -0.755095 0
M  V30 116 H 10.5387 3.77391 0.87492 0
M  V30 117 H 10.9527 5.17785 -0.836611 0
M  V30 118 H 12.4267 5.45399 0.851139 0
M  V30 119 H 12.9037 4.02306 1.762 0
M  V30 120 H 13.5097 4.25169 0.105503 0
M  V30 121 N 11.8248 0.280983 1.55075 0
M  V30 122 C 12.7548 -0.597469 2.25727 0
M  V30 123 C 13.7358 -1.15417 1.24952 0
M  V30 124 O 14.9208 -1.18722 1.53684 0
M  V30 125 C 12.0508 -1.7789 2.98283 0
M  V30 126 C 11.0048 -1.35347 4.06036 0
M  V30 127 C 10.3308 -2.61846 4.66198 0
M  V30 128 C 11.6308 -0.499354 5.19907 0
M  V30 129 H 13.3248 -0.00824265 2.99399 0
M  V30 130 H 10.8708 -0.0025244 1.44 0
M  V30 131 H 12.8238 -2.39937 3.46422 0
M  V30 132 H 11.5478 -2.39405 2.22155 0
M  V30 133 H 10.2068 -0.756156 3.58717 0
M  V30 134 H 9.8548 -3.21632 3.86732 0
M  V30 135 H 9.5548 -2.3409 5.38958 0
M  V30 136 H 11.0788 -3.24732 5.1709 0
M  V30 137 H 12.4928 -1.02498 5.64063 0
M  V30 138 H 10.8898 -0.316424 5.99265 0
M  V30 139 H 11.9598 0.480459 4.82514 0
M  V30 140 N 13.3029 -1.57598 0.00835791 0
M  V30 141 C 14.2659 -2.07884 -0.965242 0
M  V30 142 C 15.2659 -0.989825 -1.26725 0
M  V30 143 O 16.4559 -1.25218 -1.21104 0
M  V30 144 C 13.5879 -2.52731 -2.28779 0
M  V30 145 H 14.7809 -2.95178 -0.530112 0
M  V30 146 H 12.3339 -1.54458 -0.239283 0
M  V30 147 H 13.0689 -1.68705 -2.76964 0
M  V30 148 H 12.8539 -3.32272 -2.08177 0
M  V30 149 H 14.3439 -2.91933 -2.98605 0
M  V30 150 N 14.781 0.264519 -1.55364 0
M  V30 151 C 15.711 1.33121 -1.91836 0
M  V30 152 C 16.692 1.51101 -0.781192 0
M  V30 153 O 17.877 1.64003 -1.04003 0
M  V30 154 C 15.007 2.68921 -2.19769 0
M  V30 155 C 13.961 2.65661 -3.35571 0
M  V30 156 C 13.287 4.05093 -3.49004 0
M  V30 157 C 14.587 2.24187 -4.71739 0
M  V30 158 H 16.281 1.02844 -2.81182 0
M  V30 159 H 13.827 0.493286 -1.35287 0
M  V30 160 H 15.78 3.43663 -2.43872 0
M  V30 161 H 14.504 3.00799 -1.27231 0
M  V30 162 H 13.163 1.93377 -3.1145 0
M  V30 163 H 12.811 4.34206 -2.53917 0
M  V30 164 H 12.511 4.03804 -4.26868 0
M  V30 165 H 14.035 4.81561 -3.75408 0
M  V30 166 H 15.449 2.88654 -4.9533 0
M  V30 167 H 13.846 2.34044 -5.52579 0
M  V30 168 H 14.916 1.19327 -4.69988 0
M  V30 169 N 16.2591 1.48442 0.529413 0
M  V30 170 C 17.1891 1.65902 1.64313 0
M  V30 171 C 18.1701 0.507897 1.6234 0
M  V30 172 O 19.3551 0.740503 1.79528 0
M  V30 173 C 16.4851 1.69911 3.02898 0
M  V30 174 C 15.4391 2.8453 3.19729 0
M  V30 175 C 14.7651 2.73629 4.59381 0
M  V30 176 C 16.0651 4.25821 3.02447 0
M  V30 177 H 17.7591 2.5914 1.49955 0
M  V30 178 H 15.3051 1.24709 0.719982 0
M  V30 179 H 17.2581 1.80715 3.80684 0
M  V30 180 H 15.9821 0.732524 3.18279 0
M  V30 181 H 14.6411 2.73283 2.44361 0
M  V30 182 H 14.2891 1.74938 4.71599 0
M  V30 183 H 13.9891 3.50541 4.71588 0
M  V30 184 H 15.5131 2.86401 5.39265 0
M  V30 185 H 16.9271 4.37898 3.70024 0
M  V30 186 H 15.3241 5.03735 3.26146 0
M  V30 187 H 16.3941 4.42244 1.98867 0
M  V30 188 N 17.7372 -0.778329 1.37039 0
M  V30 189 C 18.9852 -1.53361 1.31623 0
M  V30 190 C 19.3062 -1.94739 -0.100831 0
M  V30 191 O 18.5762 -1.65797 -1.04347 0
M  V30 192 H 17.1562 -0.568794 0.484234 0
M  V30 193 H 19.8182 -0.926742 1.71457 0
M  V30 194 H 18.9142 -2.43606 1.95096 0
M  V30 195 N 19.2153 -1.21501 -1.00376 0
M  V30 196 C 20.1633 -0.972442 -2.11297 0
M  V30 197 C 21.1573 0.080731 -1.69208 0
M  V30 198 O 22.3633 -0.0707666 -1.79861 0
M  V30 199 H 18.7383 -0.297218 -0.690772 0
M  V30 200 H 20.7093 -1.91394 -2.28934 0
M  V30 201 C 19.4583 -0.555065 -3.43241 0
M  V30 202 H 18.7813 -1.35709 -3.76062 0
M  V30 203 H 20.2213 -0.424664 -4.21868 0
M  V30 204 C 18.6803 0.734147 -3.28804 0
M  V30 205 O 19.2103 1.78937 -3.59645 0
M  V30 206 N 17.4163 0.701133 -2.82015 0
M  V30 207 H 16.9633 -0.157874 -2.57116 0
M  V30 208 H 16.9213 1.56403 -2.72737 0
M  V30 209 N 20.6934 1.19889 -1.02296 0
M  V30 210 C 21.6564 2.21116 -0.603351 0
M  V30 211 C 22.6564 1.5738 0.329884 0
M  V30 212 O 23.8464 1.73802 0.117702 0
M  V30 213 C 20.9784 3.40696 0.117992 0
M  V30 214 H 22.1714 2.59754 -1.49893 0
M  V30 215 H 19.7244 1.33463 -0.813468 0
M  V30 216 H 20.4594 3.07569 1.0282 0
M  V30 217 H 20.2444 3.88188 -0.552511 0
M  V30 218 H 21.7344 4.15692 0.398696 0
M  V30 219 N 22.1715 0.800033 1.35784 0
M  V30 220 C 23.1215 0.178654 2.27299 0
M  V30 221 C 24.1055 -0.643667 1.47464 0
M  V30 222 O 25.2975 -0.502 1.69732 0
M  V30 223 C 22.4265 -0.677194 3.36555 0
M  V30 224 C 21.5125 0.154497 4.23818 0
M  V30 225 N 21.9035 1.21427 4.91008 0
M  V30 226 C 20.2015 -0.0649462 4.45953 0
M  V30 227 C 20.9025 1.72147 5.55644 0
M  V30 228 N 19.8785 1.02897 5.33773 0
M  V30 229 H 23.6805 0.989637 2.76737 0
M  V30 230 H 21.1945 0.64054 1.49234 0
M  V30 231 H 23.1915 -1.13835 4.01058 0
M  V30 232 H 21.8515 -1.4866 2.8867 0
M  V30 233 H 22.8625 1.59684 4.92668 0
M  V30 234 H 19.5395 -0.844016 4.0888 0
M  V30 235 H 20.9295 2.60683 6.19269 0
M  V30 236 N 23.6496 -1.47581 0.552962 0
M  V30 237 C 24.6126 -2.28439 -0.186605 0
M  V30 238 C 25.6126 -1.36706 -0.84665 0
M  V30 239 O 26.8026 -1.59378 -0.703164 0
M  V30 240 C 23.9346 -3.16264 -1.2724 0
M  V30 241 H 25.1276 -2.95294 0.523609 0
M  V30 242 H 22.6806 -1.532 0.309745 0
M  V30 243 H 23.4156 -2.54091 -2.01514 0
M  V30 244 H 23.2006 -3.83769 -0.803968 0
M  V30 245 H 24.6906 -3.77198 -1.79196 0
M  V30 246 N 25.1277 -0.289203 -1.54924 0
M  V30 247 C 26.3677 0.324536 -2.01807 0
M  V30 248 C 26.7317 1.5199 -1.17316 0
M  V30 249 O 27.9327 2.20422 -1.53843 0
M  V30 250 C 26.2037 0.683578 -3.50802 0
M  V30 251 S 27.7627 1.28185 -4.19659 0
M  V30 252 H 24.5807 0.100236 -0.703899 0
M  V30 253 H 27.1827 -0.414325 -1.91059 0
M  V30 254 H 25.8867 -0.195073 -4.09936 0
M  V30 255 H 25.4177 1.45354 -3.65562 0
M  V30 256 H 27.4327 2.57006 -4.24456 0
M  V30 257 N 26.6058 1.57591 -0.0167156 0
M  V30 258 C 27.8308 1.9598 0.67872 0
M  V30 259 C 28.2558 0.892546 1.65575 0
M  V30 260 O 27.6138 -0.147772 1.80697 0
M  V30 261 C 27.6618 3.33468 1.37227 0
M  V30 262 O 26.7658 3.28954 2.48722 0
M  V30 263 H 26.1068 0.639339 0.17928 0
M  V30 264 H 28.6368 2.04463 -0.0748802 0
M  V30 265 H 28.6468 3.69417 1.7319 0
M  V30 266 H 27.3218 4.10694 0.656007 0
M  V30 267 H 25.8988 3.04705 2.14963 0
M  V30 268 N 28.0839 -0.256276 1.55502 0
M  V30 269 C 29.0309 -1.31714 1.89526 0
M  V30 270 C 30.0009 -1.4828 0.748479 0
M  V30 271 O 31.1859 -1.62416 1.00128 0
M  V30 272 C 28.3259 -2.66933 2.18725 0
M  V30 273 C 27.4389 -2.58452 3.4616 0
M  V30 274 C 26.5739 -3.85961 3.64976 0
M  V30 275 C 25.6129 -3.72059 4.86044 0
M  V30 276 N 24.7499 -4.9144 5.01429 0
M  V30 277 H 29.5899 -1.01998 2.80001 0
M  V30 278 H 27.1269 -0.492413 1.38613 0
M  V30 279 H 29.0849 -3.4563 2.33657 0
M  V30 280 H 27.7149 -2.94816 1.31466 0
M  V30 281 H 26.7669 -1.71374 3.3961 0
M  V30 282 H 28.0789 -2.44085 4.34999 0
M  V30 283 H 27.2329 -4.73101 3.79816 0
M  V30 284 H 25.9719 -4.03215 2.74353 0
M  V30 285 H 24.9769 -2.83302 4.7119 0
M  V30 286 H 26.2019 -3.56309 5.78118 0
M  V30 287 H 24.1479 -5.09072 4.13741 0
M  V30 288 H 24.0649 -4.79668 5.84341 0
M  V30 289 H 25.3329 -5.80104 5.20672 0
M  V30 290 N 29.562 -1.4872 -0.521534 0
M  V30 291 C 30.81 -1.56857 -1.27437 0
M  V30 292 C 31.131 -0.247982 -1.93417 0
M  V30 293 O 30.401 0.731151 -1.81744 0
M  V30 294 H 28.981 -0.577885 -0.473347 0
M  V30 295 H 31.643 -1.85233 -0.606205 0
M  V30 296 H 30.739 -2.35402 -2.0492 0
M  V30 297 N 31.0401 0.771051 -1.3745 0
M  V30 298 C 32.2681 1.56015 -1.35893 0
M  V30 299 C 32.6831 1.88718 0.0555523 0
M  V30 300 O 32.0401 1.51502 1.01752 0
M  V30 301 C 32.0911 2.87001 -2.19801 0
M  V30 302 O 31.8121 2.557 -3.55738 0
M  V30 303 C 33.3131 3.81228 -2.26231 0
M  V30 304 H 30.5331 0.483317 -0.465453 0
M  V30 305 H 33.0771 0.955611 -1.80799 0
M  V30 306 H 31.2321 3.43877 -1.78402 0
M  V30 307 H 31.6461 3.39584 -3.99729 0
M  V30 308 H 33.1201 4.70139 -2.89263 0
M  V30 309 H 33.5971 4.20409 -1.27093 0
M  V30 310 H 34.2031 3.30281 -2.67945 0
M  V30 311 N 32.5182 1.22032 0.997298 0
M  V30 312 C 33.7432 1.06921 1.77715 0
M  V30 313 C 34.1682 -0.376226 1.84299 0
M  V30 314 O 33.5262 -1.27165 1.29223 0
M  V30 315 C 33.5742 1.67996 3.19076 0
M  V30 316 O 32.6782 0.930653 4.01762 0
M  V30 317 H 32.0192 0.375814 0.547412 0
M  V30 318 H 34.5492 1.61737 1.25309 0
M  V30 319 H 34.5592 1.72538 3.69723 0
M  V30 320 H 33.2342 2.73182 3.13599 0
M  V30 321 H 31.8112 0.960917 3.60307 0
M  V30 322 N 33.9963 -1.19345 1.0293 0
M  V30 323 C 34.9463 -2.20472 0.58104 0
M  V30 324 C 35.9303 -1.56578 -0.370442 0
M  V30 325 O 37.1223 -1.75963 -0.191344 0
M  V30 326 C 34.2513 -3.43236 -0.066306 0
M  V30 327 C 33.3373 -4.14274 0.907642 0
M  V30 328 N 33.7283 -4.61492 2.07023 0
M  V30 329 C 32.0263 -4.39966 0.731177 0
M  V30 330 C 32.7273 -5.1605 2.68454 0
M  V30 331 N 31.7033 -5.06875 1.96414 0
M  V30 332 H 35.5053 -2.54659 1.46717 0
M  V30 333 H 33.0193 -1.35423 0.896345 0
M  V30 334 H 35.0163 -4.14927 -0.405068 0
M  V30 335 H 33.6763 -3.10549 -0.948118 0
M  V30 336 H 34.6873 -4.56304 2.44963 0
M  V30 337 H 31.3643 -4.17377 -0.101507 0
M  V30 338 H 32.7543 -5.6287 3.66915 0
M  V30 339 N 35.4744 -0.807222 -1.35358 0
M  V30 340 C 36.3844 -0.219594 -2.3357 0
M  V30 341 C 37.4004 0.637734 -1.61892 0
M  V30 342 O 38.5764 0.549336 -1.93763 0
M  V30 343 C 35.6414 0.62158 -3.41083 0
M  V30 344 C 34.7024 -0.256315 -4.28534 0
M  V30 345 C 33.9354 0.544807 -5.30912 0
M  V30 346 O 34.1584 1.77944 -5.41934 0
M  V30 347 O 33.0924 -0.0646478 -6.01865 0
M  V30 348 H 36.9184 -1.03208 -2.85625 0
M  V30 349 H 34.5034 -0.569025 -1.38139 0
M  V30 350 H 36.3854 1.10067 -4.06772 0
M  V30 351 H 35.0604 1.41165 -2.91297 0
M  V30 352 H 33.9674 -0.782559 -3.65823 0
M  V30 353 H 35.3004 -1.01034 -4.81719 0
M  V30 354 N 36.9525 1.47285 -0.560781 0
M  V30 355 C 37.9155 2.28535 0.174488 0
M  V30 356 C 38.9155 1.37153 0.839388 0
M  V30 357 O 40.1055 1.59748 0.694702 0
M  V30 358 C 37.2375 3.16934 1.25561 0
M  V30 359 H 38.4305 2.95012 -0.539262 0
M  V30 360 H 35.9835 1.53034 -0.317865 0
M  V30 361 H 36.7185 2.55157 2.00164 0
M  V30 362 H 36.5035 3.8419 0.783604 0
M  V30 363 H 37.9935 3.78143 1.77193 0
M  V30 364 N 38.4306 0.297415 1.54768 0
M  V30 365 C 39.6786 -0.312295 1.99673 0
M  V30 366 C 39.9996 -1.54686 1.18732 0
M  V30 367 O 39.2696 -1.93854 0.282382 0
M  V30 368 H 37.8496 -0.118381 0.73756 0
M  V30 369 H 40.5116 0.407915 1.90583 0
M  V30 370 H 39.6076 -0.586813 3.06534 0
M  V30 371 N 39.9087 -1.5758 0.0250728 0
M  V30 372 C 41.1577 -1.90811 -0.653767 0
M  V30 373 C 41.4707 -0.90273 -1.73523 0
M  V30 374 O 42.6767 -1.12614 -2.47043 0
M  V30 375 C 41.1327 -3.38804 -1.21409 0
M  V30 376 C 40.7407 -4.47692 -0.166126 0
M  V30 377 C 42.4847 -3.81108 -1.86967 0
M  V30 378 C 40.3917 -5.86779 -0.737856 0
M  V30 379 H 39.3217 -0.712063 -0.247956 0
M  V30 380 H 41.9727 -1.83281 0.0897137 0
M  V30 381 H 40.3547 -3.41252 -2.00905 0
M  V30 382 H 41.5287 -4.56797 0.606079 0
M  V30 383 H 39.8437 -4.14565 0.390466 0
M  V30 384 H 42.4407 -4.82375 -2.30692 0
M  V30 385 H 42.7837 -3.15953 -2.71071 0
M  V30 386 H 43.3167 -3.81065 -1.14167 0
M  V30 387 H 40.0557 -6.55468 0.0649577 0
M  V30 388 H 39.5757 -5.81288 -1.47864 0
M  V30 389 H 41.2547 -6.35223 -1.22884 0
M  V30 390 N 41.3868 0.248026 -1.55636 0
M  V30 391 C 42.6328 0.97767 -1.77678 0
M  V30 392 C 42.9658 1.85016 -0.590135 0
M  V30 393 O 42.2408 1.90095 0.411611 0
M  V30 394 C 42.5238 1.83914 -3.09593 0
M  V30 395 C 42.3768 0.99491 -4.38659 0
M  V30 396 C 43.6958 2.82183 -3.37729 0
M  V30 397 H 40.8148 0.354005 -0.646413 0
M  V30 398 H 43.4568 0.248253 -1.88371 0
M  V30 399 H 41.6068 2.46104 -3.00608 0
M  V30 400 H 43.2788 0.391789 -4.59633 0
M  V30 401 H 41.5218 0.299231 -4.32767 0
M  V30 402 H 42.1928 1.63145 -5.2734 0
M  V30 403 H 44.6688 2.30129 -3.4667 0
M  V30 404 H 43.5448 3.39582 -4.31249 0
M  V30 405 H 43.8058 3.58588 -2.58586 0
M  V30 406 N 42.8649 1.48995 0.513639 0
M  V30 407 C 44.1049 1.59452 1.27885 0
M  V30 408 C 44.4689 0.269479 1.90099 0
M  V30 409 O 45.6699 0.249139 2.67643 0
M  V30 410 C 43.9409 2.71277 2.32688 0
M  V30 411 S 45.4999 3.01604 3.18717 0
M  V30 412 H 42.3179 0.562565 0.434789 0
M  V30 413 H 44.9199 1.86595 0.583301 0
M  V30 414 H 43.6239 3.66089 1.8549 0
M  V30 415 H 43.1549 2.46086 3.06929 0
M  V30 416 H 45.1699 2.42155 4.331 0
M  V30 417 N 44.343 -0.763751 1.37857 0
M  V30 418 C 45.759 -1.06542 1.18832 0
M  V30 419 C 45.959 -2.01478 0.0299722 0
M  V30 420 O 45.015 -2.4458 -0.627447 0
M  V30 421 C 46.328 -1.65525 2.51042 0
M  V30 422 C 47.876 -1.77745 2.57635 0
M  V30 423 C 48.351 -2.4014 3.89996 0
M  V30 424 N 49.842 -2.47582 3.91481 0
M  V30 425 C 50.577 -2.96732 4.9065 0
M  V30 426 N 50.073 -3.45993 6.00217 0
M  V30 427 N 51.866 -2.95679 4.78048 0
M  V30 428 H 44.017 -0.133556 2.1198 0
M  V30 429 H 46.28 -0.121879 0.940133 0
M  V30 430 H 45.986 -1.03236 3.36207 0
M  V30 431 H 45.86 -2.64719 2.68707 0
M  V30 432 H 48.247 -2.39164 1.72872 0
M  V30 433 H 48.328 -0.772836 2.43846 0
M  V30 434 H 47.972 -1.79358 4.75177 0
M  V30 435 H 47.902 -3.41223 4.01092 0
M  V30 436 H 50.393 -2.1273 3.12337 0
M  V30 437 H 50.706 -3.81922 6.7183 0
M  V30 438 H 49.051 -3.44077 6.03851 0
M  V30 439 H 52.242 -2.56499 3.91568 0
M  V30 440 H 52.415 -3.33672 5.55488 0
M  V30 441 N 45.8211 -1.22559 -0.990812 0
M  V30 442 C 47.0701 -1.04553 -1.72486 0
M  V30 443 C 47.3831 0.419349 -1.91052 0
M  V30 444 O 48.5891 0.719121 -2.61803 0
M  V30 445 C 47.0451 -1.82231 -3.10355 0
M  V30 446 C 46.6531 -3.32981 -2.99713 0
M  V30 447 C 48.3971 -1.7268 -3.87791 0
M  V30 448 C 46.3041 -4.03091 -4.32748 0
M  V30 449 H 45.2341 -0.387614 -0.646739 0
M  V30 450 H 47.8851 -1.46429 -1.10593 0
M  V30 451 H 46.2671 -1.33155 -3.72942 0
M  V30 452 H 47.4411 -3.89466 -2.46278 0
M  V30 453 H 45.7561 -3.43231 -2.35758 0
M  V30 454 H 48.3531 -2.22381 -4.86262 0
M  V30 455 H 48.6961 -0.687607 -4.10582 0
M  V30 456 H 49.2291 -2.1931 -3.31885 0
M  V30 457 H 45.9681 -5.07273 -4.15156 0
M  V30 458 H 45.4881 -3.51394 -4.86089 0
M  V30 459 H 47.1671 -4.08804 -5.01486 0
M  V30 460 N 47.2992 1.18797 -1.03562 0
M  V30 461 C 48.5272 1.92599 -0.755869 0
M  V30 462 C 48.9422 1.75886 0.686271 0
M  V30 463 O 48.2992 1.08517 1.46732 0
M  V30 464 C 48.3502 3.44159 -1.10619 0
M  V30 465 O 48.0712 3.60341 -2.4917 0
M  V30 466 C 49.5722 4.3507 -0.850214 0
M  V30 467 H 46.7922 0.611587 -0.276048 0
M  V30 468 H 49.3362 1.50742 -1.38192 0
M  V30 469 H 47.4912 3.83823 -0.525194 0
M  V30 470 H 47.9052 4.54128 -2.62427 0
M  V30 471 H 49.3792 5.39989 -1.14523 0
M  V30 472 H 49.8562 4.38673 0.215176 0
M  V30 473 H 50.4622 4.01097 -1.41426 0
M  V30 474 N 48.7773 0.814389 1.34928 0
M  V30 475 C 49.7243 0.22822 2.29669 0
M  V30 476 C 50.6943 -0.642164 1.53184 0
M  V30 477 O 51.8793 -0.585605 1.81591 0
M  V30 478 C 49.0193 -0.61089 3.3965 0
M  V30 479 C 48.1323 0.280792 4.31086 0
M  V30 480 C 47.2673 -0.567067 5.28165 0
M  V30 481 C 46.3063 0.324531 6.11239 0
M  V30 482 N 45.4433 -0.483756 7.00431 0
M  V30 483 H 50.2833 1.04153 2.79206 0
M  V30 484 H 47.8203 0.525133 1.37407 0
M  V30 485 H 49.7783 -1.11263 4.0209 0
M  V30 486 H 48.4083 -1.38939 2.91369 0
M  V30 487 H 47.4603 0.900688 3.69583 0
M  V30 488 H 48.7723 0.966723 4.89342 0
M  V30 489 H 47.9263 -1.13363 5.96015 0
M  V30 490 H 46.6653 -1.28654 4.70425 0
M  V30 491 H 45.6703 0.903298 5.42329 0
M  V30 492 H 46.8953 1.04198 6.71059 0
M  V30 493 H 44.8413 -1.18706 6.45171 0
M  V30 494 H 44.7583 0.143965 7.55863 0
M  V30 495 H 46.0263 -1.03334 7.7262 0
M  V30 496 N 50.2554 -1.46986 0.568584 0
M  V30 497 C 51.6664 -1.86188 0.138219 0
M  V30 498 C 52.0174 -1.47388 -1.29504 0
M  V30 499 O 51.1424 -0.88219 -1.97602 0
M  V30 500 C 51.7374 -3.3792 0.244065 0
M  V30 501 C 50.2964 -3.76171 -0.131335 0
M  V30 502 C 49.4434 -2.71027 0.586465 0
M  V30 503 H 52.3944 -1.38342 0.777645 0
M  V30 504 H 52.4154 -3.76729 -0.534351 0
M  V30 505 H 51.9274 -3.66128 1.28731 0
M  V30 506 H 50.0284 -3.5358 -1.17526 0
M  V30 507 H 50.1414 -4.78523 0.235146 0
M  V30 508 H 48.5054 -2.54684 0.0282722 0
M  V30 509 H 49.2884 -3.02077 1.63109 0
M  V30 510 N 51.7335 -0.305618 -1.54608 0
M  V30 511 C 52.6965 0.555591 -2.22364 0
M  V30 512 C 53.6965 1.05768 -1.21119 0
M  V30 513 O 54.8865 0.952972 -1.45822 0
M  V30 514 C 52.0185 1.76974 -2.91364 0
M  V30 515 H 53.2115 -0.0364572 -2.99878 0
M  V30 516 H 50.7645 -0.0565007 -1.56198 0
M  V30 517 H 51.4995 2.40151 -2.17941 0
M  V30 518 H 51.2845 1.41732 -3.65588 0
M  V30 519 H 52.7745 2.38148 -3.43038 0
M  V30 520 N 53.2116 1.57565 -0.0334293 0
M  V30 521 C 54.1416 2.13511 0.945265 0
M  V30 522 C 55.1226 1.05231 1.33643 0
M  V30 523 O 56.3076 1.33084 1.41429 0
M  V30 524 C 53.4376 2.6657 2.22616 0
M  V30 525 C 52.3916 3.79676 1.97561 0
M  V30 526 C 51.7176 4.1918 3.31952 0
M  V30 527 C 53.0176 5.0557 1.31135 0
M  V30 528 H 54.7116 2.95538 0.479325 0
M  V30 529 H 52.2576 1.42166 0.229115 0
M  V30 530 H 54.2106 3.04344 2.91466 0
M  V30 531 H 52.9346 1.8171 2.71384 0
M  V30 532 H 51.5936 3.42347 1.31127 0
M  V30 533 H 51.2416 3.31296 3.78487 0
M  V30 534 H 50.9416 4.95402 3.15992 0
M  V30 535 H 52.4656 4.59541 4.02063 0
M  V30 536 H 53.8796 5.40903 1.89992 0
M  V30 537 H 52.2766 5.86818 1.25559 0
M  V30 538 H 53.3466 4.84062 0.284894 0
M  V30 539 N 54.6897 -0.239769 1.55765 0
M  V30 540 C 55.6197 -1.30052 1.9393 0
M  V30 541 C 56.6007 -1.49839 0.805132 0
M  V30 542 O 57.7857 -1.62328 1.06599 0
M  V30 543 C 54.9157 -2.65391 2.2402 0
M  V30 544 C 53.8697 -2.60289 3.39755 0
M  V30 545 C 53.1957 -3.99489 3.55405 0
M  V30 546 C 54.4957 -2.16654 4.75246 0
M  V30 547 H 56.1897 -0.983573 2.82783 0
M  V30 548 H 53.7357 -0.471701 1.36055 0
M  V30 549 H 55.6887 -3.3974 2.49308 0
M  V30 550 H 54.4127 -2.98736 1.32 0
M  V30 551 H 53.0717 -1.88398 3.14487 0
M  V30 552 H 52.7197 -4.30112 2.60793 0
M  V30 553 H 52.4197 -3.96962 4.33238 0
M  V30 554 H 53.9437 -4.75528 3.83022 0
M  V30 555 H 55.3577 -2.80737 4.99859 0
M  V30 556 H 53.7547 -2.25223 5.56232 0
M  V30 557 H 54.8247 -1.11835 4.71827 0
M  V30 558 N 56.1678 -1.49265 -0.50573 0
M  V30 559 C 57.4138 -1.58748 -1.26202 0
M  V30 560 C 57.7468 -0.271227 -1.92297 0
M  V30 561 O 57.0218 0.724831 -1.80489 0
M  V30 562 C 57.3048 -2.74332 -2.33268 0
M  V30 563 C 57.1578 -4.15737 -1.71705 0
M  V30 564 C 58.4768 -2.85576 -3.34865 0
M  V30 565 H 55.5958 -0.577826 -0.457478 0
M  V30 566 H 58.2378 -1.81532 -0.560897 0
M  V30 567 H 56.3878 -2.55036 -2.93068 0
M  V30 568 H 58.0598 -4.46537 -1.15769 0
M  V30 569 H 56.3028 -4.21605 -1.02135 0
M  V30 570 H 56.9738 -4.92477 -2.49341 0
M  V30 571 H 59.4498 -3.03127 -2.8505 0
M  V30 572 H 58.3258 -3.68135 -4.07146 0
M  V30 573 H 58.5868 -1.94732 -3.96903 0
M  V30 574 N 57.6459 0.756429 -1.3826 0
M  V30 575 C 58.5759 1.88374 -1.37976 0
M  V30 576 C 59.5569 1.68311 -0.246082 0
M  V30 577 O 60.7419 1.88944 -0.44874 0
M  V30 578 C 57.8719 3.25864 -1.20125 0
M  V30 579 C 56.8259 3.60523 -2.30666 0
M  V30 580 C 56.1519 4.9672 -1.97923 0
M  V30 581 C 57.4519 3.65692 -3.72916 0
M  V30 582 H 59.1459 1.88869 -2.32312 0
M  V30 583 H 56.6919 0.907272 -1.11824 0
M  V30 584 H 58.6449 4.0438 -1.18552 0
M  V30 585 H 57.3689 3.25841 -0.222498 0
M  V30 586 H 56.0279 2.84324 -2.3142 0
M  V30 587 H 55.6759 4.93253 -0.985393 0
M  V30 588 H 55.3759 5.20878 -2.71955 0
M  V30 589 H 56.8999 5.77618 -1.97964 0
M  V30 590 H 58.3139 4.34328 -3.74208 0
M  V30 591 H 56.7109 4.01358 -4.4613 0
M  V30 592 H 57.7809 2.65987 -4.05436 0
M  V30 593 N 59.124 1.23083 0.984299 0
M  V30 594 C 60.072 1.00593 2.09723 0
M  V30 595 C 61.066 -0.0538014 1.69315 0
M  V30 596 O 62.272 0.0993719 1.79725 0
M  V30 597 H 58.647 0.30817 0.685956 0
M  V30 598 H 60.618 1.95012 2.2586 0
M  V30 599 C 59.367 0.609601 3.42314 0
M  V30 600 H 58.69 1.41675 3.73856 0
M  V30 601 H 60.13 0.491726 4.21139 0
M  V30 602 C 58.589 -0.681745 3.2993 0
M  V30 603 O 59.119 -1.73192 3.62446 0
M  V30 604 N 57.325 -0.656178 2.83095 0
M  V30 605 H 56.872 0.198759 2.56832 0
M  V30 606 H 56.83 -1.52044 2.75191 0
M  V30 607 N 60.6021 -1.18246 1.0419 0
M  V30 608 C 61.5521 -2.19843 0.604392 0
M  V30 609 C 62.5361 -1.56962 -0.353814 0
M  V30 610 O 63.7281 -1.76156 -0.17267 0
M  V30 611 C 60.8571 -3.43287 -0.0298975 0
M  V30 612 C 59.9431 -4.13288 0.951531 0
M  V30 613 N 60.3341 -4.59271 2.11906 0
M  V30 614 C 58.6321 -4.39165 0.7778 0
M  V30 615 C 59.3331 -5.13173 2.73912 0
M  V30 616 N 58.3091 -5.04763 2.01779 0
M  V30 617 H 62.1111 -2.53089 1.4941 0
M  V30 618 H 59.6251 -1.34465 0.910658 0
M  V30 619 H 61.6221 -4.15334 -0.361037 0
M  V30 620 H 60.2821 -3.11537 -0.915127 0
M  V30 621 H 61.2931 -4.5368 2.49789 0
M  V30 622 H 57.9701 -4.17461 -0.0572331 0
M  V30 623 H 59.3601 -5.58947 3.72864 0
M  V30 624 N 62.0802 -0.821533 -1.34494 0
M  V30 625 C 62.9902 -0.244355 -2.33324 0
M  V30 626 C 64.0062 0.620527 -1.62559 0
M  V30 627 O 65.1822 0.528754 -1.94335 0
M  V30 628 C 62.2472 0.585368 -3.41723 0
M  V30 629 C 61.3082 -0.301752 -4.28238 0
M  V30 630 C 60.5412 0.488466 -5.3146 0
M  V30 631 O 60.7642 1.72186 -5.4379 0
M  V30 632 O 59.6982 -0.12848 -6.01763 0
M  V30 633 H 63.5242 -1.06231 -2.84515 0
M  V30 634 H 61.1092 -0.583645 -1.37528 0
M  V30 635 H 62.9912 1.05747 -4.07916 0
M  V30 636 H 61.6662 1.38068 -2.92778 0
M  V30 637 H 60.5732 -0.821315 -3.64973 0
M  V30 638 H 61.9062 -1.06138 -4.8062 0
M  V30 639 N 63.5583 1.46682 -0.576371 0
M  V30 640 C 64.7863 2.06798 -0.0649635 0
M  V30 641 C 65.2013 1.42612 1.23723 0
M  V30 642 O 64.5583 0.529203 1.74659 0
M  V30 643 C 64.6093 3.6132 0.114202 0
M  V30 644 O 64.3303 4.23104 -1.13644 0
M  V30 645 C 65.8313 4.38349 0.66069 0
M  V30 646 H 63.0513 0.668778 -0.0545616 0
M  V30 647 H 65.5953 1.88404 -0.795237 0
M  V30 648 H 63.7503 3.79162 0.794673 0
M  V30 649 H 64.1643 5.15894 -0.946253 0
M  V30 650 H 65.6383 5.47081 0.73526 0
M  V30 651 H 66.1153 4.05953 1.67627 0
M  V30 652 H 66.7213 4.25297 0.0152951 0
M  V30 653 N 65.0364 0.313813 1.54444 0
M  V30 654 C 65.9994 -0.54379 2.22656 0
M  V30 655 C 66.9994 -1.05124 1.21678 0
M  V30 656 O 68.1894 -0.945225 1.46325 0
M  V30 657 C 65.3214 -1.75427 2.92298 0
M  V30 658 H 66.5144 0.0523599 2.99854 0
M  V30 659 H 64.0674 0.0647834 1.56166 0
M  V30 660 H 64.8024 -2.38991 2.19211 0
M  V30 661 H 64.5874 -1.39791 3.66334 0
M  V30 662 H 66.0774 -2.36325 3.44297 0
M  V30 663 N 66.5145 -1.57545 0.0417849 0
M  V30 664 C 67.4615 -2.10977 -0.935805 0
M  V30 665 C 68.4315 -1.01486 -1.31491 0
M  V30 666 O 69.6165 -1.2898 -1.40602 0
M  V30 667 C 66.7565 -2.65169 -2.2086 0
M  V30 668 C 65.8695 -3.88714 -1.88482 0
M  V30 669 C 65.0045 -4.31254 -3.1015 0
M  V30 670 C 64.0435 -5.47524 -2.7365 0
M  V30 671 N 63.1805 -5.85162 -3.87982 0
M  V30 672 H 68.0205 -2.94218 -0.473249 0
M  V30 673 H 65.5575 -1.45415 -0.221981 0
M  V30 674 H 67.5155 -2.94685 -2.95325 0
M  V30 675 H 66.1455 -1.8474 -2.64709 0
M  V30 676 H 65.1975 -3.65849 -1.04205 0
M  V30 677 H 66.5095 -4.73245 -1.57608 0
M  V30 678 H 65.6635 -4.62273 -3.92923 0
M  V30 679 H 64.4025 -3.45516 -3.44195 0
M  V30 680 H 63.4075 -5.16187 -1.89291 0
M  V30 681 H 64.6325 -6.34971 -2.40807 0
M  V30 682 H 62.5785 -5.02377 -4.21846 0
M  V30 683 H 62.4955 -6.64362 -3.60775 0
M  V30 684 H 63.7635 -6.20791 -4.71422 0
M  V30 685 N 67.9926 0.231505 -1.5589 0
M  V30 686 C 69.2386 0.95877 -1.78705 0
M  V30 687 C 69.5716 1.8438 -0.609725 0
M  V30 688 O 68.8466 1.90521 0.391426 0
M  V30 689 C 69.1296 1.8062 -3.11526 0
M  V30 690 C 68.9826 0.948328 -4.39689 0
M  V30 691 C 70.3016 2.78585 -3.40703 0
M  V30 692 H 67.4206 0.347129 -0.650131 0
M  V30 693 H 70.0626 0.228259 -1.88624 0
M  V30 694 H 68.2126 2.42902 -3.03201 0
M  V30 695 H 69.8846 0.343016 -4.60023 0
M  V30 696 H 68.1276 0.253314 -4.3306 0
M  V30 697 H 68.7986 1.57543 -5.29041 0
M  V30 698 H 71.2746 2.26439 -3.49091 0
M  V30 699 H 70.1506 3.34988 -4.34826 0
M  V30 700 H 70.4116 3.55825 -2.62375 0
M  V30 701 N 69.4707 1.49531 0.497807 0
M  V30 702 C 70.7197 1.58426 1.24837 0
M  V30 703 C 71.0327 0.277643 1.93619 0
M  V30 704 O 72.2387 0.24517 2.70391 0
M  V30 705 C 70.6947 2.79538 2.26686 0
M  V30 706 C 70.3027 4.16971 1.63828 0
M  V30 707 C 72.0467 2.97764 3.0255 0
M  V30 708 C 69.9537 5.29301 2.63807 0
M  V30 709 H 68.8837 0.58989 0.469623 0
M  V30 710 H 71.5347 1.75923 0.521857 0
M  V30 711 H 69.9167 2.55542 3.02514 0
M  V30 712 H 71.0907 4.51116 0.939711 0
M  V30 713 H 69.4057 4.04129 1.00342 0
M  V30 714 H 72.0027 3.78856 3.77323 0
M  V30 715 H 72.3457 2.08448 3.60354 0
M  V30 716 H 72.8787 3.21815 2.33838 0
M  V30 717 H 69.6177 6.20687 2.10779 0
M  V30 718 H 69.1377 4.99606 3.31894 0
M  V30 719 H 70.8167 5.58768 3.2617 0
M  V30 720 N 70.9488 -0.749086 1.3866 0
M  V30 721 C 71.8808 -1.87273 1.32142 0
M  V30 722 C 72.8938 -1.61127 0.232787 0
M  V30 723 O 74.0828 -1.71623 0.49069 0
M  V30 724 C 71.1828 -3.23005 1.02571 0
M  V30 725 C 70.3558 -3.7662 2.22433 0
M  V30 726 C 69.4148 -4.90879 1.89537 0
M  V30 727 O 68.4408 -5.05276 2.62078 0
M  V30 728 N 69.6428 -5.74198 0.853031 0
M  V30 729 H 72.4078 -1.93373 2.28969 0
M  V30 730 H 69.9688 -0.929216 1.32579 0
M  V30 731 H 71.9608 -3.96992 0.786085 0
M  V30 732 H 70.5308 -3.12262 0.145249 0
M  V30 733 H 69.7508 -2.94147 2.62434 0
M  V30 734 H 71.0388 -4.09173 3.02415 0
M  V30 735 H 70.4368 -5.6514 0.25155 0
M  V30 736 H 68.9938 -6.48313 0.67329 0
M  V30 737 N 72.4269 -1.23603 -0.977757 0
M  V30 738 C 73.6549 -1.09646 -1.75458 0
M  V30 739 C 74.0699 0.351859 -1.85492 0
M  V30 740 O 73.4269 1.24327 -1.336 0
M  V30 741 C 73.4779 -1.71895 -3.18016 0
M  V30 742 O 73.1989 -3.11063 -3.08498 0
M  V30 743 C 74.6999 -1.63415 -4.12081 0
M  V30 744 H 71.9199 -0.38359 -0.550545 0
M  V30 745 H 74.4639 -1.63507 -1.22824 0
M  V30 746 H 72.6189 -1.22061 -3.67668 0
M  V30 747 H 73.0329 -3.41305 -3.9826 0
M  V30 748 H 74.5069 -2.11669 -5.09804 0
M  V30 749 H 74.9839 -0.593462 -4.35172 0
M  V30 750 H 75.5899 -2.12628 -3.68334 0
M  V30 751 N 73.905 1.17692 -1.04816 0
M  V30 752 C 74.868 2.19787 -0.650117 0
M  V30 753 C 75.868 1.58044 0.296427 0
M  V30 754 O 77.058 1.74012 0.0808097 0
M  V30 755 C 74.19 3.40869 0.0456987 0
M  V30 756 H 75.383 2.56516 -1.5537 0
M  V30 757 H 72.936 1.31708 -0.841594 0
M  V30 758 H 73.671 3.09681 0.962726 0
M  V30 759 H 73.456 3.86928 -0.634727 0
M  V30 760 H 74.946 4.16445 0.310432 0
M  V30 761 N 75.3831 0.828654 1.34056 0
M  V30 762 C 76.6301 0.419458 1.98108 0
M  V30 763 C 76.9581 -1.01886 1.65679 0
M  V30 764 O 76.2131 -1.72539 0.923512 0
M  V30 765 C 76.5121 0.575226 3.52741 0
M  V30 766 C 76.1781 1.98012 4.05095 0
M  V30 767 C 74.8401 2.36442 4.19104 0
M  V30 768 C 77.1921 2.89824 4.33188 0
M  V30 769 C 74.5201 3.66009 4.58535 0
M  V30 770 C 76.8721 4.1886 4.74066 0
M  V30 771 C 75.5361 4.5726 4.86281 0
M  V30 772 H 74.8061 0.153491 0.724929 0
M  V30 773 H 77.4531 1.05371 1.59904 0
M  V30 774 H 75.7581 -0.142385 3.91541 0
M  V30 775 H 77.4551 0.239057 4.00287 0
M  V30 776 H 74.0451 1.67162 3.94658 0
M  V30 777 H 78.2291 2.61375 4.21897 0
M  V30 778 H 73.4851 3.95579 4.66184 0
M  V30 779 H 77.6591 4.90086 4.94761 0
M  V30 780 H 75.2861 5.57707 5.16592 0
M  V30 781 N 76.8612 -1.46375 0.584142 0
M  V30 782 C 77.7932 -2.28443 -0.186119 0
M  V30 783 C 78.8062 -1.38596 -0.854115 0
M  V30 784 O 79.9952 -1.63183 -0.723438 0
M  V30 785 C 77.0952 -3.13671 -1.28311 0
M  V30 786 C 76.2682 -4.31652 -0.706758 0
M  V30 787 C 75.3272 -4.98267 -1.69163 0
M  V30 788 O 74.3532 -5.55815 -1.22712 0
M  V30 789 N 75.5552 -4.95408 -3.02575 0
M  V30 790 H 78.3202 -2.9519 0.517986 0
M  V30 791 H 75.8812 -1.56303 0.42201 0
M  V30 792 H 77.8732 -3.55101 -1.94128 0
M  V30 793 H 76.4432 -2.48989 -1.89005 0
M  V30 794 H 75.6632 -3.93989 0.128908 0
M  V30 795 H 76.9512 -5.07906 -0.301506 0
M  V30 796 H 76.3492 -4.49902 -3.42936 0
M  V30 797 H 74.9062 -5.40774 -3.63877 0
M  V30 798 N 78.3393 -0.321999 -1.54275 0
M  V30 799 C 79.7553 0.0306999 -1.5957 0
M  V30 800 C 79.9553 1.50614 -1.33857 0
M  V30 801 O 79.0113 2.2619 -1.12223 0
M  V30 802 C 80.3243 -0.386122 -2.98211 0
M  V30 803 C 81.8723 -0.336647 -3.11184 0
M  V30 804 C 82.3473 -0.728607 -4.52167 0
M  V30 805 N 83.8383 -0.681952 -4.58152 0
M  V30 806 C 84.5733 -0.957449 -5.6535 0
M  V30 807 N 84.0693 -1.3 -6.80494 0
M  V30 808 N 85.8623 -0.883113 -5.55119 0
M  V30 809 H 78.0133 -1.28332 -1.69247 0
M  V30 810 H 80.2763 -0.521716 -0.791528 0
M  V30 811 H 79.9823 -1.41404 -3.22022 0
M  V30 812 H 79.8563 0.249662 -3.76373 0
M  V30 813 H 82.2433 0.682058 -2.8711 0
M  V30 814 H 82.3243 -1.00734 -2.3513 0
M  V30 815 H 81.9683 -1.74522 -4.76974 0
M  V30 816 H 81.8983 -0.0356152 -5.26588 0
M  V30 817 H 84.3893 -0.428985 -3.75457 0
M  V30 818 H 84.7023 -1.49563 -7.58189 0
M  V30 819 H 83.0473 -1.33824 -6.81994 0
M  V30 820 H 86.2383 -0.615001 -4.64042 0
M  V30 821 H 86.4113 -1.10118 -6.38575 0
M  V30 822 N 79.8174 1.5752 -0.0501392 0
M  V30 823 C 80.7804 2.1037 0.909786 0
M  V30 824 C 81.7804 1.02308 1.24056 0
M  V30 825 O 82.9704 1.28385 1.17741 0
M  V30 826 C 80.1024 2.58708 2.21998 0
M  V30 827 H 81.2954 2.96479 0.451665 0
M  V30 828 H 78.8484 1.55038 0.198248 0
M  V30 829 H 79.5834 1.75989 2.72394 0
M  V30 830 H 79.3684 3.37675 1.99295 0
M  V30 831 H 80.8584 2.99747 2.9076 0
M  V30 832 N 81.2955 -0.223234 1.56011 0
M  V30 833 C 82.5205 -0.968978 1.83373 0
M  V30 834 C 82.9455 -1.77227 0.630254 0
M  V30 835 O 82.3035 -1.76345 -0.420959 0
M  V30 836 C 82.3515 -1.86363 3.08709 0
M  V30 837 O 81.4555 -2.95873 2.87285 0
M  V30 838 H 80.7965 -0.274461 0.604622 0
M  V30 839 H 83.3265 -0.237056 2.03222 0
M  V30 840 H 83.3365 -2.27376 3.38768 0
M  V30 841 H 82.0115 -1.27319 3.95933 0
M  V30 842 H 80.5885 -2.58818 2.68454 0
M  V30 843 N 82.7736 -1.49793 -0.48987 0
M  V30 844 C 84.0036 -1.6333 -1.26518 0
M  V30 845 C 84.4116 -0.308392 -1.8667 0
M  V30 846 O 83.7546 0.717512 -1.69108 0
M  V30 847 C 83.8166 -2.6522 -2.4269 0
M  V30 848 C 83.4806 -4.09279 -2.03321 0
M  V30 849 C 84.4776 -4.95738 -1.56652 0
M  V30 850 C 82.1626 -4.55082 -2.12616 0
M  V30 851 C 84.1566 -6.26041 -1.19795 0
M  V30 852 C 81.8436 -5.85396 -1.75371 0
M  V30 853 C 82.8416 -6.707 -1.29036 0
M  V30 854 O 82.5296 -7.98584 -0.92299 0
M  V30 855 H 82.2616 -0.552502 -0.389509 0
M  V30 856 H 84.8156 -1.96642 -0.593381 0
M  V30 857 H 83.0456 -2.27112 -3.12981 0
M  V30 858 H 84.7346 -2.68171 -3.04695 0
M  V30 859 H 85.5006 -4.61575 -1.48908 0
M  V30 860 H 81.3796 -3.88844 -2.47631 0
M  V30 861 H 84.9236 -6.92578 -0.835582 0
M  V30 862 H 80.8206 -6.19085 -1.82768 0
M  V30 863 H 81.5886 -8.11692 -1.05349 0
M  V30 864 N 84.2517 0.741722 -1.39055 0
M  V30 865 C 85.6627 1.31966 -1.32068 0
M  V30 866 C 86.0137 1.96192 0.0180797 0
M  V30 867 O 85.1387 1.95861 0.920196 0
M  V30 868 C 85.7337 2.39954 -2.39181 0
M  V30 869 C 84.2927 2.93438 -2.35735 0
M  V30 870 C 83.4397 1.66936 -2.21422 0
M  V30 871 H 86.3907 0.539721 -1.4924 0
M  V30 872 H 86.4117 3.20182 -2.05581 0
M  V30 873 H 85.9237 1.9318 -3.36605 0
M  V30 874 H 84.0247 3.4451 -1.41929 0
M  V30 875 H 84.1377 3.4701 -3.30335 0
M  V30 876 H 82.5017 1.91016 -1.68478 0
M  V30 877 H 83.2847 1.22224 -3.20806 0
M  V30 878 N 85.7298 1.2412 0.971189 0
M  V30 879 C 87.0068 0.986867 1.6888 0
M  V30 880 C 87.3868 -0.491857 2.0529 0
M  V30 881 O 86.7348 -1.46531 1.75331 0
M  V30 882 C 86.9448 1.9063 2.92338 0
M  V30 883 C 88.2928 2.17515 3.64654 0
M  V30 884 O 89.3168 1.88254 3.02388 0
M  V30 885 O 88.1758 2.6719 4.7673 0
M  V30 886 H 85.2698 0.372944 0.738134 0
M  V30 887 H 87.8158 1.35203 1.02559 0
M  V30 888 H 86.5878 2.90552 2.62097 0
M  V30 889 H 86.2108 1.54408 3.66393 0
M  V30 890 N 87.2079 -1.17134 1.05439 0
M  V30 891 C 88.4569 -1.86791 0.761049 0
M  V30 892 C 88.7699 -1.82072 -0.714795 0
M  V30 893 O 89.9759 -2.47223 -1.12218 0
M  V30 894 C 88.4319 -3.35166 1.31117 0
M  V30 895 C 88.0399 -3.48381 2.81664 0
M  V30 896 C 89.7839 -4.10134 1.09499 0
M  V30 897 C 87.6909 -4.90793 3.29964 0
M  V30 898 H 86.6209 -0.699681 0.281002 0
M  V30 899 H 89.2719 -1.3226 1.27199 0
M  V30 900 H 87.6539 -3.8925 0.72803 0
M  V30 901 H 88.8279 -3.04502 3.45855 0
M  V30 902 H 87.1429 -2.86836 3.01851 0
M  V30 903 H 89.7399 -5.152 1.43084 0
M  V30 904 H 90.0829 -4.16287 0.0328772 0
M  V30 905 H 90.6159 -3.62264 1.64346 0
M  V30 906 H 87.3549 -4.89816 4.35616 0
M  V30 907 H 86.8749 -5.35333 2.70516 0
M  V30 908 H 88.5539 -5.59573 3.24787 0
M  V30 909 N 88.686 -0.835752 -1.33615 0
M  V30 910 C 89.914 -0.443344 -2.02094 0
M  V30 911 C 90.329 0.954522 -1.62894 0
M  V30 912 O 89.686 1.61982 -0.840723 0
M  V30 913 C 89.737 -0.550775 -3.5728 0
M  V30 914 O 89.458 -1.89356 -3.95065 0
M  V30 915 C 90.959 -0.154919 -4.43029 0
M  V30 916 H 88.179 -0.176359 -0.647409 0
M  V30 917 H 90.723 -1.12746 -1.70612 0
M  V30 918 H 88.878 0.0853997 -3.87306 0
M  V30 919 H 89.292 -1.87687 -4.89769 0
M  V30 920 H 90.766 -0.281144 -5.51284 0
M  V30 921 H 91.243 0.902863 -4.2982 0
M  V30 922 H 91.849 -0.765404 -4.18356 0
M  V30 923 N 90.1641 1.46063 -0.591896 0
M  V30 924 C 91.4121 2.01938 -0.0808391 0
M  V30 925 C 91.7331 1.46475 1.28725 0
M  V30 926 O 91.0031 0.652944 1.84698 0
M  V30 927 H 89.5831 0.746516 -0.0268938 0
M  V30 928 H 92.2451 1.79055 -0.769752 0
M  V30 929 H 91.3411 3.12094 -0.0187578 0
M  V30 930 N 91.6422 0.330177 1.54103 0
M  V30 931 C 92.5522 -0.541534 2.28264 0
M  V30 932 C 93.5682 -1.12351 1.32866 0
M  V30 933 O 94.7442 -1.14206 1.65888 0
M  V30 934 C 91.8092 -1.68322 3.03098 0
M  V30 935 C 90.8702 -1.13238 4.14096 0
M  V30 936 C 90.1032 -2.21966 4.85352 0
M  V30 937 O 90.3262 -3.42437 4.56172 0
M  V30 938 O 89.2602 -1.87013 5.7211 0
M  V30 939 H 93.0862 0.060938 3.03639 0
M  V30 940 H 90.6712 0.09565 1.49093 0
M  V30 941 H 92.5532 -2.34777 3.49939 0
M  V30 942 H 91.2282 -2.27176 2.30593 0
M  V30 943 H 90.1352 -0.432736 3.71589 0
M  V30 944 H 91.4682 -0.588898 4.88664 0
M  V30 945 N 93.1203 -1.57491 0.0584922 0
M  V30 946 C 94.0673 -2.11958 -0.913376 0
M  V30 947 C 95.0373 -1.02875 -1.30407 0
M  V30 948 O 96.2223 -1.30464 -1.39226 0
M  V30 949 C 93.3623 -2.67497 -2.18035 0
M  V30 950 C 92.4753 -3.90691 -1.84349 0
M  V30 951 C 91.6103 -4.3452 -3.05559 0
M  V30 952 C 90.6493 -5.50395 -2.67827 0
M  V30 953 N 89.7863 -5.89244 -3.81754 0
M  V30 954 H 94.6263 -2.94704 -0.442017 0
M  V30 955 H 92.1633 -1.45643 -0.206545 0
M  V30 956 H 94.1213 -2.978 -2.92183 0
M  V30 957 H 92.7513 -1.87537 -2.62735 0
M  V30 958 H 91.8033 -3.66934 -1.00319 0
M  V30 959 H 93.1153 -4.7489 -1.5258 0
M  V30 960 H 92.2693 -4.66414 -3.87998 0
M  V30 961 H 91.0083 -3.49147 -3.40511 0
M  V30 962 H 90.0133 -5.18165 -1.83806 0
M  V30 963 H 91.2383 -6.3749 -2.34059 0
M  V30 964 H 89.1843 -5.06823 -4.16493 0
M  V30 965 H 89.1013 -6.68151 -3.53708 0
M  V30 966 H 90.3693 -6.25756 -4.64811 0
M  V30 967 N 94.5984 0.214957 -1.56127 0
M  V30 968 C 95.5614 1.24997 -1.92116 0
M  V30 969 C 96.5614 1.39467 -0.800344 0
M  V30 970 O 97.7514 1.37619 -1.06802 0
M  V30 971 C 94.8834 2.62271 -2.17777 0
M  V30 972 H 96.0764 0.942875 -2.84693 0
M  V30 973 H 93.6294 0.455654 -1.49511 0
M  V30 974 H 94.3644 2.98068 -1.27773 0
M  V30 975 H 94.1494 2.53143 -2.99434 0
M  V30 976 H 95.6394 3.36946 -2.46693 0
M  V30 977 N 96.0765 1.50051 0.48192 0
M  V30 978 C 97.0095 1.62749 1.59963 0
M  V30 979 C 97.9875 0.475903 1.5548 0
M  V30 980 O 99.1715 0.693986 1.7526 0
M  V30 981 C 96.2985 1.60008 2.98522 0
M  V30 982 C 95.3445 2.80596 3.21198 0
M  V30 983 S 96.1775 4.42038 3.02262 0
M  V30 984 C 97.3335 4.41973 4.43182 0
M  V30 985 H 97.5665 2.57296 1.4895 0
M  V30 986 H 95.0995 1.39179 0.668477 0
M  V30 987 H 97.0575 1.59112 3.78409 0
M  V30 988 H 95.7185 0.667153 3.06933 0
M  V30 989 H 94.9115 2.74952 4.22395 0
M  V30 990 H 94.5135 2.79003 2.49065 0
M  V30 991 H 96.8055 4.14868 5.35622 0
M  V30 992 H 97.7485 5.43512 4.53873 0
M  V30 993 H 98.1565 3.71812 4.24755 0
M  V30 994 N 97.5546 -0.734337 1.39446 0
M  V30 995 C 98.4876 -1.85715 1.32609 0
M  V30 996 C 99.4656 -1.6137 0.199636 0
M  V30 997 O 100.65 -1.84626 0.380195 0
M  V30 998 C 97.7766 -3.21709 1.05929 0
M  V30 999 C 96.8226 -3.64913 2.20773 0
M  V30 1000 S 97.6556 -3.74203 3.83056 0
M  V30 1001 C 98.8116 -5.12986 3.58603 0
M  V30 1002 H 99.0446 -1.91232 2.27635 0
M  V30 1003 H 96.5776 -0.899263 1.25509 0
M  V30 1004 H 98.5356 -4.00236 0.912203 0
M  V30 1005 H 97.1966 -3.13848 0.125883 0
M  V30 1006 H 96.3896 -4.63606 1.97699 0
M  V30 1007 H 95.9916 -2.93593 2.31688 0
M  V30 1008 H 98.2836 -5.99339 3.15909 0
M  V30 1009 H 99.2266 -5.41088 4.5676 0
M  V30 1010 H 99.6346 -4.82694 2.9269 0
M  V30 1011 N 99.0327 -1.24633 -0.964593 0
M  V30 1012 C 99.9627 -1.06611 -2.07741 0
M  V30 1013 C 100.944 0.0218666 -1.70086 0
M  V30 1014 O 102.129 -0.145793 -1.93652 0
M  V30 1015 C 99.2587 -0.673444 -3.40708 0
M  V30 1016 C 98.2127 -1.71054 -3.92332 0
M  V30 1017 C 97.5387 -1.17285 -5.21678 0
M  V30 1018 C 98.8387 -3.10718 -4.19824 0
M  V30 1019 H 100.533 -1.99693 -2.23076 0
M  V30 1020 H 98.0787 -0.96152 -1.07195 0
M  V30 1021 H 100.032 -0.534345 -4.17998 0
M  V30 1022 H 98.7557 0.293073 -3.25282 0
M  V30 1023 H 97.4147 -1.83791 -3.17201 0
M  V30 1024 H 97.0627 -0.196847 -5.02615 0
M  V30 1025 H 96.7627 -1.86592 -5.57187 0
M  V30 1026 H 98.2867 -1.04593 -6.01575 0
M  V30 1027 H 99.7007 -3.01192 -4.87808 0
M  V30 1028 H 98.0977 -3.77406 -4.66567 0
M  V30 1029 H 99.1677 -3.58524 -3.26479 0
M  V30 1030 N 100.511 1.16574 -1.06058 0
M  V30 1031 C 101.441 2.23057 -0.690488 0
M  V30 1032 C 102.422 1.67141 0.315901 0
M  V30 1033 O 103.607 1.93253 0.191556 0
M  V30 1034 C 100.737 3.47222 -0.073625 0
M  V30 1035 C 99.6908 4.16016 -1.00573 0
M  V30 1036 C 99.0168 5.34104 -0.252289 0
M  V30 1037 C 100.317 4.67264 -2.33371 0
M  V30 1038 H 102.011 2.54271 -1.58072 0
M  V30 1039 H 99.5568 1.22218 -0.76149 0
M  V30 1040 H 101.51 4.20939 0.19714 0
M  V30 1041 H 100.234 3.15302 0.85161 0
M  V30 1042 H 98.8928 3.44223 -1.2612 0
M  V30 1043 H 98.5408 4.98437 0.675988 0
M  V30 1044 H 98.2408 5.81072 -0.873455 0
M  V30 1045 H 99.7648 6.10599 0.0109857 0
M  V30 1046 H 101.179 5.32573 -2.12223 0
M  V30 1047 H 99.5758 5.24843 -2.90963 0
M  V30 1048 H 100.646 3.83602 -2.96611 0
M  V30 1049 N 101.989 0.842826 1.3317 0
M  V30 1050 C 103.237 0.439577 1.97262 0
M  V30 1051 C 103.558 -1.00548 1.67078 0
M  V30 1052 O 102.828 -1.70098 0.971779 0
M  V30 1053 H 101.408 0.159558 0.72976 0
M  V30 1054 H 104.07 1.07665 1.62463 0
M  V30 1055 H 103.166 0.574886 3.0676 0
M  V30 1056 N 103.467 -1.45747 0.599634 0
M  V30 1057 C 104.399 -2.28628 -0.161879 0
M  V30 1058 C 105.412 -1.39494 -0.839367 0
M  V30 1059 O 106.601 -1.63941 -0.706089 0
M  V30 1060 C 103.701 -3.15014 -1.24976 0
M  V30 1061 C 102.874 -4.32378 -0.660935 0
M  V30 1062 C 101.933 -5.00033 -1.63869 0
M  V30 1063 O 100.959 -5.57085 -1.1681 0
M  V30 1064 N 102.161 -4.98589 -2.97303 0
M  V30 1065 H 104.926 -2.94624 0.549265 0
M  V30 1066 H 102.487 -1.55847 0.438565 0
M  V30 1067 H 104.479 -3.5714 -1.9035 0
M  V30 1068 H 103.049 -2.5098 -1.86354 0
M  V30 1069 H 102.269 -3.9383 0.170688 0
M  V30 1070 H 103.557 -5.08197 -0.247619 0
M  V30 1071 H 102.955 -4.53514 -3.38145 0
M  V30 1072 H 101.512 -5.44603 -3.58121 0
M  V30 1073 N 104.945 -0.338344 -1.53925 0
M  V30 1074 C 106.191 0.260143 -2.01125 0
M  V30 1075 C 106.524 1.50617 -1.22589 0
M  V30 1076 O 105.799 1.91979 -0.312113 0
M  V30 1077 C 106.082 0.579499 -3.55407 0
M  V30 1078 C 105.935 -0.678264 -4.44657 0
M  V30 1079 C 107.254 1.39122 -4.17532 0
M  V30 1080 H 104.373 0.0930772 -0.731099 0
M  V30 1081 H 107.015 -0.457852 -1.84401 0
M  V30 1082 H 105.165 1.19118 -3.69788 0
M  V30 1083 H 106.837 -1.31631 -4.42121 0
M  V30 1084 H 105.08 -1.3042 -4.13731 0
M  V30 1085 H 105.751 -0.410143 -5.50474 0
M  V30 1086 H 108.227 0.874035 -4.06817 0
M  V30 1087 H 107.103 1.58342 -5.25565 0
M  V30 1088 H 107.364 2.39178 -3.71815 0
M  V30 1089 N 106.423 1.57458 -0.0668435 0
M  V30 1090 C 107.37 2.12439 0.902122 0
M  V30 1091 C 108.34 1.03565 1.2986 0
M  V30 1092 O 109.525 1.312 1.38532 0
M  V30 1093 C 106.665 2.6865 2.16614 0
M  V30 1094 C 105.778 3.91663 1.82274 0
M  V30 1095 C 104.913 4.36134 3.0325 0
M  V30 1096 C 103.952 5.51808 2.64904 0
M  V30 1097 N 103.089 5.9126 3.78624 0
M  V30 1098 H 107.929 2.94934 0.426382 0
M  V30 1099 H 105.466 1.4575 0.198819 0
M  V30 1100 H 107.424 2.99346 2.90599 0
M  V30 1101 H 106.054 1.88928 2.61737 0
M  V30 1102 H 105.106 3.6746 0.983719 0
M  V30 1103 H 106.418 4.75693 1.50059 0
M  V30 1104 H 105.572 4.68465 3.85519 0
M  V30 1105 H 104.311 3.50948 3.38655 0
M  V30 1106 H 103.316 5.19133 1.81055 0
M  V30 1107 H 104.541 6.38722 2.30675 0
M  V30 1108 H 102.487 5.09024 4.138 0
M  V30 1109 H 102.404 6.70018 3.5016 0
M  V30 1110 H 103.672 6.28212 4.61486 0
M  V30 1111 N 107.901 -0.206675 1.56239 0
M  V30 1112 C 109.131 -0.943975 1.83773 0
M  V30 1113 C 109.539 -1.77841 0.645703 0
M  V30 1114 O 108.882 -1.79403 -0.395008 0
M  V30 1115 C 108.944 -1.899 3.05251 0
M  V30 1116 C 108.608 -1.24764 4.39639 0
M  V30 1117 C 109.605 -0.630216 5.16066 0
M  V30 1118 C 107.29 -1.25496 4.8637 0
M  V30 1119 C 109.284 -0.0287946 6.37393 0
M  V30 1120 C 106.971 -0.649698 6.07637 0
M  V30 1121 C 107.969 -0.0376845 6.8299 0
M  V30 1122 O 107.657 0.55812 8.0196 0
M  V30 1123 H 107.389 -0.281508 0.614597 0
M  V30 1124 H 109.943 -0.222458 2.04192 0
M  V30 1125 H 108.173 -2.6599 2.80689 0
M  V30 1126 H 109.862 -2.5031 3.1953 0
M  V30 1127 H 110.628 -0.616785 4.81062 0
M  V30 1128 H 106.507 -1.72072 4.27683 0
M  V30 1129 H 110.051 0.449518 6.9615 0
M  V30 1130 H 105.948 -0.660592 6.42111 0
M  V30 1131 H 106.716 0.453891 8.17241 0
M  V30 1132 N 109.379 -1.50304 -0.473955 0
M  V30 1133 C 110.627 -1.60832 -1.22382 0
M  V30 1134 C 110.948 -0.30939 -1.9253 0
M  V30 1135 O 110.218 0.67296 -1.83978 0
M  V30 1136 H 108.798 -0.592652 -0.454723 0
M  V30 1137 H 111.46 -1.87068 -0.546968 0
M  V30 1138 H 110.556 -2.41803 -1.97327 0
M  V30 1139 N 110.857 0.726932 -1.39834 0
M  V30 1140 C 111.787 1.85405 -1.41941 0
M  V30 1141 C 112.768 1.67751 -0.281728 0
M  V30 1142 O 113.953 1.8795 -0.488717 0
M  V30 1143 C 111.083 3.23243 -1.2701 0
M  V30 1144 C 110.037 3.55549 -2.38262 0
M  V30 1145 C 109.363 4.9241 -2.08415 0
M  V30 1146 C 110.663 3.577 -3.80589 0
M  V30 1147 H 112.357 1.83899 -2.36266 0
M  V30 1148 H 109.903 0.883349 -1.13723 0
M  V30 1149 H 111.856 4.01775 -1.27103 0
M  V30 1150 H 110.58 3.25296 -0.291564 0
M  V30 1151 H 109.239 2.79351 -2.37399 0
M  V30 1152 H 108.887 4.91052 -1.0898 0
M  V30 1153 H 108.587 5.14992 -2.82943 0
M  V30 1154 H 110.111 5.73289 -2.10171 0
M  V30 1155 H 111.525 4.26293 -3.83337 0
M  V30 1156 H 109.922 3.91804 -4.54543 0
M  V30 1157 H 110.992 2.57328 -4.10987 0
M  V30 1158 N 112.336 1.25143 0.95797 0
M  V30 1159 C 113.286 1.01924 2.0395 0
M  V30 1160 C 114.27 -0.0427175 1.60843 0
M  V30 1161 O 115.462 0.17221 1.7616 0
M  V30 1162 C 112.591 0.636373 3.3735 0
M  V30 1163 C 111.677 1.73492 3.8699 0
M  V30 1164 N 112.068 2.96945 4.0946 0
M  V30 1165 C 110.366 1.61467 4.15746 0
M  V30 1166 C 111.067 3.68228 4.50315 0
M  V30 1167 N 110.043 2.95833 4.56053 0
M  V30 1168 H 113.845 1.95653 2.19311 0
M  V30 1169 H 111.359 1.15413 1.14253 0
M  V30 1170 H 113.356 0.451233 4.14451 0
M  V30 1171 H 112.016 -0.293621 3.2337 0
M  V30 1172 H 113.027 3.33025 3.96629 0
M  V30 1173 H 109.704 0.753394 4.10646 0
M  V30 1174 H 111.094 4.74178 4.76031 0
M  V30 1175 N 113.814 -1.1601 1.06675 0
M  V30 1176 C 114.762 -2.22586 0.675157 0
M  V30 1177 C 115.756 -1.66525 -0.310766 0
M  V30 1178 O 116.962 -1.79145 -0.175215 0
M  V30 1179 H 113.337 -0.724855 0.200223 0
M  V30 1180 H 115.308 -2.52899 1.58381 0
M  V30 1181 C 114.057 -3.47604 0.0817162 0
M  V30 1182 H 113.38 -3.91058 0.831484 0
M  V30 1183 H 114.82 -4.23718 -0.154708 0
M  V30 1184 C 113.279 -3.15718 -1.17576 0
M  V30 1185 O 113.809 -3.31878 -2.26318 0
M  V30 1186 N 112.015 -2.69816 -1.07923 0
M  V30 1187 H 111.562 -2.56866 -0.194293 0
M  V30 1188 H 111.52 -2.48855 -1.92141 0
M  V30 1189 N 115.292 -0.849877 -1.32721 0
M  V30 1190 C 116.541 -0.447175 -1.96681 0
M  V30 1191 C 116.854 1.00135 -1.68025 0
M  V30 1192 O 118.06 1.50926 -2.25685 0
M  V30 1193 C 116.516 -0.7487 -3.52026 0
M  V30 1194 C 116.124 -2.21264 -3.89546 0
M  V30 1195 C 117.868 -0.413487 -4.22481 0
M  V30 1196 C 115.775 -2.45763 -5.37917 0
M  V30 1197 H 114.705 -0.163486 -0.736063 0
M  V30 1198 H 117.356 -1.03999 -1.51183 0
M  V30 1199 H 115.738 -0.0853727 -3.95908 0
M  V30 1200 H 116.912 -2.91736 -3.56689 0
M  V30 1201 H 115.227 -2.5119 -3.32103 0
M  V30 1202 H 117.824 -0.574017 -5.3161 0
M  V30 1203 H 118.167 0.644492 -4.11281 0
M  V30 1204 H 118.7 -1.03251 -3.84167 0
M  V30 1205 H 115.439 -3.50168 -5.54132 0
M  V30 1206 H 114.959 -1.79864 -5.72197 0
M  V30 1207 H 116.638 -2.29471 -6.0494 0
M  V30 1208 N 116.77 1.45427 -0.607355 0
M  V30 1209 C 117.702 2.2871 0.149752 0
M  V30 1210 C 118.715 1.39937 0.831958 0
M  V30 1211 O 119.904 1.64313 0.697385 0
M  V30 1212 C 117.004 3.15673 1.23304 0
M  V30 1213 C 116.177 4.32722 0.637996 0
M  V30 1214 C 115.236 5.00895 1.61215 0
M  V30 1215 O 114.262 5.57697 1.13854 0
M  V30 1216 N 115.464 5.00159 2.94655 0
M  V30 1217 H 118.229 2.94328 -0.564882 0
M  V30 1218 H 115.79 1.55612 -0.446823 0
M  V30 1219 H 117.782 3.58144 1.88454 0
M  V30 1220 H 116.352 2.51965 1.8502 0
M  V30 1221 H 115.572 3.93734 -0.191572 0
M  V30 1222 H 116.86 5.08321 0.220665 0
M  V30 1223 H 116.258 4.553 3.35735 0
M  V30 1224 H 114.815 5.46495 3.55228 0
M  V30 1225 N 118.248 0.346503 1.53744 0
M  V30 1226 C 119.497 -0.250122 2.00143 0
M  V30 1227 C 119.81 -1.51418 1.23822 0
M  V30 1228 O 121.016 -2.18823 1.60713 0
M  V30 1229 C 119.472 -0.496252 3.56462 0
M  V30 1230 C 119.08 0.752077 4.41642 0
M  V30 1231 C 120.824 -1.05157 4.11269 0
M  V30 1232 C 118.731 0.476583 5.89477 0
M  V30 1233 H 117.661 -0.0972409 0.747703 0
M  V30 1234 H 120.312 0.46229 1.77581 0
M  V30 1235 H 118.694 -1.26944 3.75102 0
M  V30 1236 H 119.868 1.5266 4.34778 0
M  V30 1237 H 118.183 1.22925 3.97842 0
M  V30 1238 H 120.78 -1.27269 5.19333 0
M  V30 1239 H 121.123 -2.00799 3.64672 0
M  V30 1240 H 121.656 -0.339019 3.96353 0
M  V30 1241 H 118.395 1.4028 6.40314 0
M  V30 1242 H 117.915 -0.259794 5.99237 0
M  V30 1243 H 119.594 0.0949315 6.4693 0
M  V30 1244 N 119.726 -1.57421 0.075193 0
M  V30 1245 C 120.951 -1.98364 -0.605515 0
M  V30 1246 C 121.376 -0.953383 -1.62149 0
M  V30 1247 O 120.734 0.0806053 -1.81121 0
M  V30 1248 C 120.782 -3.38332 -1.24756 0
M  V30 1249 O 119.886 -3.37959 -2.36342 0
M  V30 1250 H 119.227 -0.645553 -0.155428 0
M  V30 1251 H 121.757 -2.04044 0.150714 0
M  V30 1252 H 121.767 -3.75591 -1.5936 0
M  V30 1253 H 120.442 -4.12846 -0.503129 0
M  V30 1254 H 119.019 -3.12474 -2.03506 0
M  V30 1255 N 121.204 0.198386 -1.56346 0
M  V30 1256 C 122.154 1.2499 -1.90687 0
M  V30 1257 C 123.138 1.41158 -0.772217 0
M  V30 1258 O 124.33 1.43584 -1.03502 0
M  V30 1259 C 121.459 2.59542 -2.24706 0
M  V30 1260 C 120.545 2.47181 -3.44619 0
M  V30 1261 N 120.936 2.04495 -4.62618 0
M  V30 1262 C 119.234 2.78082 -3.48692 0
M  V30 1263 C 119.935 2.03945 -5.44776 0
M  V30 1264 N 118.911 2.45323 -4.85095 0
M  V30 1265 H 122.713 0.911149 -2.7942 0
M  V30 1266 H 120.227 0.40684 -1.57221 0
M  V30 1267 H 122.224 3.3549 -2.47491 0
M  V30 1268 H 120.884 2.94244 -1.37298 0
M  V30 1269 H 121.895 1.75256 -4.87345 0
M  V30 1270 H 118.572 3.17002 -2.71691 0
M  V30 1271 H 119.962 1.72872 -6.4928 0
M  V30 1272 N 122.682 1.50554 0.465978 0
M  V30 1273 C 123.612 1.72722 1.57128 0
M  V30 1274 C 124.593 0.576294 1.6004 0
M  V30 1275 O 125.778 0.81598 1.76225 0
M  V30 1276 C 122.908 1.82605 2.95419 0
M  V30 1277 C 121.862 2.97835 3.07373 0
M  V30 1278 C 121.188 2.92867 4.47363 0
M  V30 1279 C 122.488 4.38265 2.84114 0
M  V30 1280 H 124.182 2.65267 1.38829 0
M  V30 1281 H 121.728 1.2765 0.666441 0
M  V30 1282 H 123.681 1.96698 3.72677 0
M  V30 1283 H 122.405 0.866858 3.14886 0
M  V30 1284 H 121.064 2.83401 2.3255 0
M  V30 1285 H 120.712 1.94783 4.63755 0
M  V30 1286 H 120.412 3.70227 4.56296 0
M  V30 1287 H 121.936 3.09015 5.26633 0
M  V30 1288 H 123.35 4.53198 3.51118 0
M  V30 1289 H 121.747 5.17115 3.04487 0
M  V30 1290 H 122.817 4.50281 1.7993 0
M  V30 1291 N 124.16 -0.719506 1.40217 0
M  V30 1292 C 125.385 -1.51371 1.4178 0
M  V30 1293 C 125.81 -1.88091 0.0182355 0
M  V30 1294 O 125.168 -1.52997 -0.972707 0
M  V30 1295 C 125.216 -2.768 2.31115 0
M  V30 1296 O 124.32 -3.73349 1.7517 0
M  V30 1297 H 123.661 -0.456529 0.482159 0
M  V30 1298 H 126.191 -0.88644 1.844 0
M  V30 1299 H 126.201 -3.25371 2.46167 0
M  V30 1300 H 124.876 -2.49407 3.3282 0
M  V30 1301 H 123.453 -3.32179 1.69444 0
M  V30 1302 N 125.638 -1.25649 -0.95132 0
M  V30 1303 C 126.887 -1.09988 -1.69073 0
M  V30 1304 C 127.2 0.358355 -1.92289 0
M  V30 1305 O 128.406 0.635466 -2.63958 0
M  V30 1306 C 126.862 -1.92012 -3.044 0
M  V30 1307 C 126.47 -3.42347 -2.88968 0
M  V30 1308 C 128.214 -1.8493 -3.82101 0
M  V30 1309 C 126.121 -4.16655 -4.19705 0
M  V30 1310 H 125.051 -0.407993 -0.63408 0
M  V30 1311 H 127.702 -1.49873 -1.05879 0
M  V30 1312 H 126.084 -1.44952 -3.68517 0
M  V30 1313 H 127.258 -3.97104 -2.33762 0
M  V30 1314 H 125.573 -3.50557 -2.24719 0
M  V30 1315 H 128.17 -2.37739 -4.78941 0
M  V30 1316 H 128.513 -0.817883 -4.08187 0
M  V30 1317 H 129.046 -2.29758 -3.2474 0
M  V30 1318 H 125.785 -5.20224 -3.98807 0
M  V30 1319 H 125.305 -3.66681 -4.74663 0
M  V30 1320 H 126.984 -4.24551 -4.88227 0
M  V30 1321 N 127.117 1.15442 -1.07289 0
M  V30 1322 C 128.08 2.18358 -0.696591 0
M  V30 1323 C 129.08 1.58637 0.262837 0
M  V30 1324 O 130.27 1.74145 0.0438809 0
M  V30 1325 C 127.402 3.4089 -0.0266151 0
M  V30 1326 H 128.595 2.53162 -1.60776 0
M  V30 1327 H 126.148 1.29893 -0.869342 0
M  V30 1328 H 126.883 3.11653 0.896822 0
M  V30 1329 H 126.668 3.85495 -0.716657 0
M  V30 1330 H 128.158 4.17009 0.222028 0
M  V30 1331 N 128.595 0.856903 1.32268 0
M  V30 1332 C 129.82 0.474569 2.01897 0
M  V30 1333 C 130.245 -0.921766 1.63967 0
M  V30 1334 O 129.603 -1.60589 0.84148 0
M  V30 1335 C 129.651 0.623799 3.55164 0
M  V30 1336 O 128.755 -0.342459 4.10976 0
M  V30 1337 H 128.096 0.190422 0.63611 0
M  V30 1338 H 130.626 1.15672 1.68764 0
M  V30 1339 H 130.636 0.512169 4.04773 0
M  V30 1340 H 129.311 1.64202 3.82113 0
M  V30 1341 H 127.888 -0.18688 3.72431 0
M  V30 1342 N 130.073 -1.45103 0.615059 0
M  V30 1343 C 131.298 -2.07064 0.117988 0
M  V30 1344 C 131.723 -1.4554 -1.19163 0
M  V30 1345 O 131.081 -0.550855 -1.72729 0
M  V30 1346 C 131.129 -3.606 -0.000288387 0
M  V30 1347 O 130.233 -3.98847 -1.04856 0
M  V30 1348 H 129.574 -0.659467 0.0774581 0
M  V30 1349 H 132.104 -1.86236 0.847186 0
M  V30 1350 H 132.114 -4.07529 -0.196091 0
M  V30 1351 H 130.789 -4.04765 0.955932 0
M  V30 1352 H 129.366 -3.63577 -0.828619 0
M  V30 1353 N 131.551 -0.354651 -1.53558 0
M  V30 1354 C 132.483 0.5315 -2.22952 0
M  V30 1355 C 133.496 1.05503 -1.23988 0
M  V30 1356 O 134.685 0.963279 -1.50277 0
M  V30 1357 C 131.785 1.74538 -2.90499 0
M  V30 1358 C 130.958 1.35524 -4.15875 0
M  V30 1359 C 130.017 2.42999 -4.66731 0
M  V30 1360 O 129.043 2.05844 -5.30676 0
M  V30 1361 N 130.245 3.74423 -4.43608 0
M  V30 1362 H 133.01 -0.0628615 -2.99634 0
M  V30 1363 H 130.571 -0.179302 -1.60904 0
M  V30 1364 H 132.563 2.45892 -3.21433 0
M  V30 1365 H 131.133 2.24686 -2.17336 0
M  V30 1366 H 130.353 0.471998 -3.91364 0
M  V30 1367 H 131.641 1.07071 -4.97406 0
M  V30 1368 H 131.039 4.07391 -3.92491 0
M  V30 1369 H 129.596 4.41913 -4.7912 0
M  V30 1370 N 133.029 1.57378 -0.0835403 0
M  V30 1371 C 134.275 1.94217 0.583733 0
M  V30 1372 C 134.608 0.964653 1.68547 0
M  V30 1373 O 133.883 -0.00422258 1.945 0
M  V30 1374 C 134.166 3.41253 1.14972 0
M  V30 1375 C 134.019 4.49768 0.0538277 0
M  V30 1376 C 135.338 3.89352 2.05166 0
M  V30 1377 H 132.457 0.706233 0.210724 0
M  V30 1378 H 135.099 1.89392 -0.1519 0
M  V30 1379 H 133.249 3.45496 1.77665 0
M  V30 1380 H 134.921 4.57641 -0.579851 0
M  V30 1381 H 133.164 4.29432 -0.614068 0
M  V30 1382 H 133.835 5.49817 0.490452 0
M  V30 1383 H 136.311 3.87189 1.52393 0
M  V30 1384 H 135.187 4.92822 2.41698 0
M  V30 1385 H 135.448 3.27973 2.96456 0
M  V30 1386 N 134.507 -0.190092 1.56449 0
M  V30 1387 C 135.417 -1.25591 1.98152 0
M  V30 1388 C 136.433 -1.49519 0.889944 0
M  V30 1389 O 137.609 -1.62036 1.19609 0
M  V30 1390 C 134.674 -2.57916 2.3169 0
M  V30 1391 C 133.735 -2.42015 3.5458 0
M  V30 1392 C 132.968 -3.6803 3.8651 0
M  V30 1393 O 133.191 -4.72413 3.1966 0
M  V30 1394 O 132.125 -3.6326 4.79923 0
M  V30 1395 H 135.951 -0.931988 2.89046 0
M  V30 1396 H 133.536 -0.395488 1.4407 0
M  V30 1397 H 135.418 -3.36008 2.54316 0
M  V30 1398 H 134.093 -2.89925 1.43963 0
M  V30 1399 H 133 -1.62017 3.37196 0
M  V30 1400 H 134.333 -2.14937 4.4279 0
M  V30 1401 N 135.985 -1.50799 -0.457987 0
M  V30 1402 C 136.915 -1.73553 -1.5621 0
M  V30 1403 C 137.896 -0.584774 -1.59732 0
M  V30 1404 O 139.081 -0.825314 -1.7579 0
M  V30 1405 C 136.211 -1.84169 -2.94447 0
M  V30 1406 C 135.165 -2.99461 -3.0579 0
M  V30 1407 C 134.491 -2.95235 -4.45803 0
M  V30 1408 C 135.791 -4.39766 -2.81786 0
M  V30 1409 H 137.485 -2.66 -1.37421 0
M  V30 1410 H 135.031 -1.28002 -0.659662 0
M  V30 1411 H 136.984 -1.98672 -3.71628 0
M  V30 1412 H 135.708 -0.883545 -3.14422 0
M  V30 1413 H 134.367 -2.8463 -2.31044 0
M  V30 1414 H 134.015 -1.97239 -4.62715 0
M  V30 1415 H 133.715 -3.72642 -4.54326 0
M  V30 1416 H 135.239 -3.11803 -5.24987 0
M  V30 1417 H 136.653 -4.55054 -3.4871 0
M  V30 1418 H 135.05 -5.18722 -3.0174 0
M  V30 1419 H 136.12 -4.51229 -1.7754 0
M  V30 1420 N 137.463 0.71206 -1.40597 0
M  V30 1421 C 138.709 1.47416 -1.39271 0
M  V30 1422 C 139.042 1.942 0.00388791 0
M  V30 1423 O 138.317 1.68403 0.973179 0
M  V30 1424 C 138.6 2.69774 -2.38525 0
M  V30 1425 C 138.453 2.28861 -3.87224 0
M  V30 1426 C 139.772 3.71939 -2.35264 0
M  V30 1427 H 136.891 0.534713 -0.5072 0
M  V30 1428 H 139.533 0.812375 -1.71757 0
M  V30 1429 H 137.683 3.26238 -2.10953 0
M  V30 1430 H 139.355 1.77852 -4.25636 0
M  V30 1431 H 137.598 1.60824 -4.02887 0
M  V30 1432 H 138.269 3.16584 -4.52193 0
M  V30 1433 H 140.745 3.25113 -2.59694 0
M  V30 1434 H 139.621 4.55186 -3.06753 0
M  V30 1435 H 139.882 4.20484 -1.36549 0
M  V30 1436 N 138.941 1.26152 0.944643 0
M  V30 1437 C 139.851 1.09176 2.07648 0
M  V30 1438 C 140.867 0.0261935 1.7398 0
M  V30 1439 O 142.043 0.229208 2.00091 0
M  V30 1440 C 139.108 0.722915 3.39079 0
M  V30 1441 C 138.169 1.86752 3.86552 0
M  V30 1442 C 137.402 1.51617 5.11711 0
M  V30 1443 O 137.625 0.416331 5.68879 0
M  V30 1444 O 136.559 2.34975 5.54139 0
M  V30 1445 H 140.385 2.0412 2.24875 0
M  V30 1446 H 137.97 1.05182 1.061 0
M  V30 1447 H 139.852 0.529787 4.18056 0
M  V30 1448 H 138.527 -0.197159 3.23099 0
M  V30 1449 H 137.434 2.11558 3.08535 0
M  V30 1450 H 138.767 2.76719 4.07047 0
M  V30 1451 N 140.419 -1.14872 1.07899 0
M  V30 1452 C 141.382 -2.17986 0.708161 0
M  V30 1453 C 142.382 -1.58775 -0.25442 0
M  V30 1454 O 143.572 -1.74166 -0.034645 0
M  V30 1455 C 140.704 -3.40871 0.0446929 0
M  V30 1456 H 141.897 -2.52306 1.62116 0
M  V30 1457 H 139.45 -1.2943 0.876218 0
M  V30 1458 H 140.185 -3.12124 -0.880281 0
M  V30 1459 H 139.97 -3.8511 0.737091 0
M  V30 1460 H 141.46 -4.17121 -0.19991 0
M  V30 1461 N 141.898 -0.863906 -1.31812 0
M  V30 1462 C 142.845 -0.313303 -2.28664 0
M  V30 1463 C 143.815 0.584868 -1.55462 0
M  V30 1464 O 145 0.517805 -1.83639 0
M  V30 1465 C 142.14 0.48441 -3.41683 0
M  V30 1466 C 141.253 -0.440594 -4.29747 0
M  V30 1467 C 140.388 0.370652 -5.29905 0
M  V30 1468 C 139.427 -0.551164 -6.09613 0
M  V30 1469 N 138.564 0.223462 -7.01744 0
M  V30 1470 H 143.404 -1.14444 -2.75148 0
M  V30 1471 H 140.941 -0.575769 -1.35364 0
M  V30 1472 H 142.899 0.962627 -4.05943 0
M  V30 1473 H 141.529 1.28029 -2.96325 0
M  V30 1474 H 140.581 -1.03724 -3.65986 0
M  V30 1475 H 141.893 -1.14767 -4.85417 0
M  V30 1476 H 141.047 0.911638 -5.99812 0
M  V30 1477 H 139.786 1.11105 -4.74876 0
M  V30 1478 H 138.791 -1.10396 -5.38603 0
M  V30 1479 H 140.016 -1.29032 -6.66729 0
M  V30 1480 H 137.962 0.946787 -6.49132 0
M  V30 1481 H 137.879 -0.424399 -7.54808 0
M  V30 1482 H 139.147 0.745876 -7.75923 0
M  V30 1483 N 143.376 1.44774 -0.622745 0
M  V30 1484 C 144.601 2.06999 -0.128968 0
M  V30 1485 C 145.026 1.4617 1.1839 0
M  V30 1486 O 144.384 0.560007 1.72434 0
M  V30 1487 C 144.432 3.60595 -0.0188351 0
M  V30 1488 O 143.536 3.99398 1.02739 0
M  V30 1489 H 142.877 0.659047 -0.0809544 0
M  V30 1490 H 145.407 1.85784 -0.85705 0
M  V30 1491 H 145.417 4.07627 0.174476 0
M  V30 1492 H 144.092 4.04252 -0.977384 0
M  V30 1493 H 142.669 3.64011 0.809326 0
M  V30 1494 N 144.854 0.36279 1.53368 0
M  V30 1495 C 146.103 -0.22888 2.00397 0
M  V30 1496 C 146.416 -1.50096 1.25421 0
M  V30 1497 O 147.622 -2.17106 1.63025 0
M  V30 1498 C 146.078 -0.458417 3.56969 0
M  V30 1499 C 145.686 0.798877 4.4082 0
M  V30 1500 C 147.43 -1.00789 4.12361 0
M  V30 1501 C 145.337 0.539078 5.88938 0
M  V30 1502 H 144.267 -0.089305 0.748693 0
M  V30 1503 H 146.918 0.481099 1.77081 0
M  V30 1504 H 145.3 -1.22959 3.76427 0
M  V30 1505 H 146.474 1.57262 4.33134 0
M  V30 1506 H 144.789 1.27137 3.96516 0
M  V30 1507 H 147.386 -1.21754 5.20653 0
M  V30 1508 H 147.729 -1.9692 3.66781 0
M  V30 1509 H 148.262 -0.296961 3.9669 0
M  V30 1510 H 145.001 1.47064 6.3879 0
M  V30 1511 H 144.521 -0.196222 5.99479 0
M  V30 1512 H 146.2 0.163542 6.46793 0
M  V30 1513 N 146.332 -1.57332 0.0918853 0
M  V30 1514 C 147.609 -1.85691 -0.614668 0
M  V30 1515 C 147.989 -0.988146 -1.86545 0
M  V30 1516 O 147.337 -0.0597055 -2.28422 0
M  V30 1517 C 147.547 -3.36294 -0.933126 0
M  V30 1518 C 148.895 -4.04275 -1.29796 0
M  V30 1519 O 149.919 -3.41157 -1.02424 0
M  V30 1520 O 148.778 -5.1564 -1.81047 0
M  V30 1521 H 145.872 -0.767802 -0.307261 0
M  V30 1522 H 148.418 -1.69244 0.12434 0
M  V30 1523 H 147.19 -3.91273 -0.0456404 0
M  V30 1524 H 146.813 -3.58076 -1.72822 0
M  V30 1525 N 147.81 0.181792 -1.56548 0
M  V30 1526 C 149.056 0.901431 -1.81665 0
M  V30 1527 C 149.389 1.82347 -0.668075 0
M  V30 1528 O 148.664 1.91669 0.330615 0
M  V30 1529 C 148.947 1.70618 -3.17115 0
M  V30 1530 C 148.8 0.807964 -4.42484 0
M  V30 1531 C 150.119 2.67605 -3.49393 0
M  V30 1532 H 147.238 0.32627 -0.660846 0
M  V30 1533 H 149.88 0.168134 -1.89255 0
M  V30 1534 H 148.03 2.33133 -3.10775 0
M  V30 1535 H 149.702 0.19649 -4.60881 0
M  V30 1536 H 147.945 0.115411 -4.33646 0
M  V30 1537 H 148.616 1.40632 -5.33785 0
M  V30 1538 H 151.092 2.15218 -3.56118 0
M  V30 1539 H 149.968 3.20985 -4.45264 0
M  V30 1540 H 150.229 3.47298 -2.73563 0
M  V30 1541 N 149.288 1.51039 0.449983 0
M  V30 1542 C 150.513 1.6715 1.22783 0
M  V30 1543 C 150.938 0.363081 1.84563 0
M  V30 1544 O 150.296 -0.675433 1.68249 0
M  V30 1545 C 150.344 2.77985 2.29689 0
M  V30 1546 O 149.448 2.40707 3.34864 0
M  V30 1547 H 148.789 0.557746 0.360299 0
M  V30 1548 H 151.319 1.97535 0.533005 0
M  V30 1549 H 151.329 3.01693 2.74673 0
M  V30 1550 H 150.004 3.72935 1.84098 0
M  V30 1551 H 148.581 2.27523 2.95445 0
M  V30 1552 N 150.766 -0.704594 1.40972 0
M  V30 1553 C 152.015 -1.46018 1.39146 0
M  V30 1554 C 152.328 -1.956 0.000589254 0
M  V30 1555 O 153.534 -2.71137 -0.1403 0
M  V30 1556 C 151.99 -2.63996 2.4461 0
M  V30 1557 C 151.598 -2.21238 3.89561 0
M  V30 1558 C 153.342 -3.41677 2.51907 0
M  V30 1559 C 151.249 -3.3612 4.86598 0
M  V30 1560 H 150.179 -0.548444 0.517422 0
M  V30 1561 H 152.83 -0.765784 1.66757 0
M  V30 1562 H 151.212 -3.3566 2.10115 0
M  V30 1563 H 152.386 -1.56923 4.33257 0
M  V30 1564 H 150.701 -1.56574 3.85841 0
M  V30 1565 H 153.298 -4.27182 3.2159 0
M  V30 1566 H 153.641 -3.86247 1.55303 0
M  V30 1567 H 154.174 -2.77064 2.85448 0
M  V30 1568 H 150.913 -2.96572 5.84573 0
M  V30 1569 H 150.433 -3.99315 4.47557 0
M  V30 1570 H 152.112 -4.02029 5.06934 0
M  V30 1571 N 152.244 -1.26651 -0.937939 0
M  V30 1572 C 153.176 -1.04283 -2.04102 0
M  V30 1573 C 154.189 -0.00221014 -1.628 0
M  V30 1574 O 155.378 -0.242645 -1.76843 0
M  V30 1575 C 152.478 -0.557846 -3.34277 0
M  V30 1576 C 151.651 -1.66843 -4.04329 0
M  V30 1577 C 150.71 -1.18095 -5.12777 0
M  V30 1578 O 149.736 -1.87865 -5.37304 0
M  V30 1579 N 150.938 -0.0311006 -5.80492 0
M  V30 1580 H 153.703 -1.9927 -2.23856 0
M  V30 1581 H 151.264 -1.1808 -1.10764 0
M  V30 1582 H 153.256 -0.215836 -4.04124 0
M  V30 1583 H 151.826 0.298523 -3.11171 0
M  V30 1584 H 151.046 -2.18123 -3.28353 0
M  V30 1585 H 152.334 -2.41408 -4.47883 0
M  V30 1586 H 151.732 0.551486 -5.63005 0
M  V30 1587 H 150.289 0.251809 -6.51313 0
M  V30 1588 N 153.722 1.14298 -1.08507 0
M  V30 1589 C 154.67 2.21483 -0.710483 0
M  V30 1590 C 155.664 1.66998 0.284234 0
M  V30 1591 O 156.87 1.79401 0.146692 0
M  V30 1592 H 153.245 0.721578 -0.211729 0
M  V30 1593 H 155.216 2.50348 -1.62384 0
M  V30 1594 C 153.965 3.4743 -0.137007 0
M  V30 1595 H 153.288 3.89686 -0.893592 0
M  V30 1596 H 154.728 4.2391 0.0872789 0
M  V30 1597 C 153.187 3.17548 1.12538 0
M  V30 1598 O 153.717 3.35437 2.21009 0
M  V30 1599 N 151.923 2.71499 1.03617 0
M  V30 1600 H 151.47 2.57143 0.153403 0
M  V30 1601 H 151.428 2.51881 1.88158 0
M  V30 1602 N 155.201 0.870884 1.31352 0
M  V30 1603 C 156.447 0.482987 1.96965 0
M  V30 1604 C 156.78 -0.962462 1.68672 0
M  V30 1605 O 156.055 -1.6779 0.98371 0
M  V30 1606 C 156.338 0.741752 3.52378 0
M  V30 1607 C 156.191 2.2368 3.9024 0
M  V30 1608 C 157.51 0.208838 4.39604 0
M  V30 1609 H 154.629 0.176955 0.715441 0
M  V30 1610 H 157.271 1.09229 1.55464 0
M  V30 1611 H 155.421 0.223149 3.87859 0
M  V30 1612 H 157.093 2.82273 3.64856 0
M  V30 1613 H 155.336 2.70901 3.38814 0
M  V30 1614 H 156.007 2.3685 4.98604 0
M  V30 1615 H 158.483 0.652529 4.10952 0
M  V30 1616 H 157.359 0.419336 5.47296 0
M  V30 1617 H 157.62 -0.889275 4.33064 0
M  V30 1618 N 156.679 -1.44442 0.630414 0
M  V30 1619 C 157.904 -2.06927 0.139944 0
M  V30 1620 C 158.329 -1.46795 -1.17613 0
M  V30 1621 O 157.687 -0.569144 -1.72135 0
M  V30 1622 C 157.735 -3.6058 0.0379581 0
M  V30 1623 O 156.839 -3.99937 -1.0062 0
M  V30 1624 H 156.18 -0.658608 0.0844483 0
M  V30 1625 H 158.71 -1.85327 0.866891 0
M  V30 1626 H 158.72 -4.07714 -0.152856 0
M  V30 1627 H 157.395 -4.03728 0.998809 0
M  V30 1628 H 155.972 -3.64436 -0.79001 0
M  V30 1629 N 158.157 -0.370918 -1.53173 0
M  V30 1630 C 159.403 0.217423 -2.01631 0
M  V30 1631 C 159.736 1.47983 -1.25756 0
M  V30 1632 O 159.011 1.91274 -0.352764 0
M  V30 1633 C 159.294 0.503982 -3.56556 0
M  V30 1634 C 159.147 -0.77243 -4.43118 0
M  V30 1635 C 160.466 1.30234 -4.20389 0
M  V30 1636 H 157.585 0.0775486 -0.732909 0
M  V30 1637 H 160.227 -0.496863 -1.83388 0
M  V30 1638 H 158.377 1.11248 -3.72231 0
M  V30 1639 H 160.049 -1.4098 -4.39229 0
M  V30 1640 H 158.292 -1.39167 -4.10871 0
M  V30 1641 H 158.963 -0.526815 -5.4948 0
M  V30 1642 H 161.439 0.787546 -4.08579 0
M  V30 1643 H 160.315 1.47158 -5.28806 0
M  V30 1644 H 160.576 2.31237 -3.76805 0
M  V30 1645 N 159.635 1.57281 -0.100228 0
M  V30 1646 C 160.881 1.94826 0.563101 0
M  V30 1647 C 161.214 0.982475 1.67514 0
M  V30 1648 O 160.489 0.0164069 1.94493 0
M  V30 1649 C 160.772 3.42453 1.11346 0
M  V30 1650 C 160.625 4.498 0.00612081 0
M  V30 1651 C 161.944 3.91506 2.01024 0
M  V30 1652 H 159.063 0.708428 0.203221 0
M  V30 1653 H 161.705 1.8922 -0.171979 0
M  V30 1654 H 159.855 3.47361 1.7399 0
M  V30 1655 H 161.527 4.57 -0.628357 0
M  V30 1656 H 159.77 4.28756 -0.659581 0
M  V30 1657 H 160.441 5.50306 0.432109 0
M  V30 1658 H 162.917 3.88784 1.48278 0
M  V30 1659 H 161.793 4.95358 2.36457 0
M  V30 1660 H 162.054 3.31099 2.92961 0
M  V30 1661 N 161.113 -0.173488 1.56642 0
M  V30 1662 C 162.36 -0.890465 1.81871 0
M  V30 1663 C 162.688 -1.82339 0.67696 0
M  V30 1664 O 161.943 -1.92795 -0.335926 0
M  V30 1665 C 162.242 -1.72069 3.13252 0
M  V30 1666 C 161.908 -0.936878 4.41059 0
M  V30 1667 C 160.57 -0.720545 4.75775 0
M  V30 1668 C 162.922 -0.386919 5.19762 0
M  V30 1669 C 160.25 0.0568829 5.86672 0
M  V30 1670 C 162.602 0.37741 6.31473 0
M  V30 1671 C 161.266 0.604563 6.64757 0
M  V30 1672 H 160.536 -0.325844 0.665512 0
M  V30 1673 H 163.183 -0.155527 1.90867 0
M  V30 1674 H 161.488 -2.52496 2.99588 0
M  V30 1675 H 163.185 -2.27844 3.29982 0
M  V30 1676 H 159.775 -1.11553 4.13828 0
M  V30 1677 H 163.959 -0.541398 4.93338 0
M  V30 1678 H 159.215 0.242635 6.10918 0
M  V30 1679 H 163.389 0.810825 6.91664 0
M  V30 1680 H 161.016 1.20885 7.50527 0
M  V30 1681 N 162.591 -1.51276 -0.441967 0
M  V30 1682 C 163.538 -1.72256 -1.53612 0
M  V30 1683 C 164.508 -0.564164 -1.56225 0
M  V30 1684 O 165.693 -0.798074 -1.73307 0
M  V30 1685 C 162.833 -1.84932 -2.91366 0
M  V30 1686 C 161.946 -3.12459 -2.98317 0
M  V30 1687 C 161.081 -3.15758 -4.27166 0
M  V30 1688 C 160.12 -4.37619 -4.27967 0
M  V30 1689 N 159.257 -4.38493 -5.48333 0
M  V30 1690 H 164.097 -2.65654 -1.35026 0
M  V30 1691 H 161.634 -1.31662 -0.656009 0
M  V30 1692 H 163.592 -1.90263 -3.7129 0
M  V30 1693 H 162.222 -0.949461 -3.08521 0
M  V30 1694 H 161.274 -3.1646 -2.11086 0
M  V30 1695 H 162.586 -4.02382 -2.94771 0
M  V30 1696 H 161.74 -3.19979 -5.15459 0
M  V30 1697 H 160.479 -2.23715 -4.33362 0
M  V30 1698 H 159.484 -4.33579 -3.38067 0
M  V30 1699 H 160.709 -5.30921 -4.23438 0
M  V30 1700 H 158.655 -3.49318 -5.55259 0
M  V30 1701 H 158.572 -5.22219 -5.46647 0
M  V30 1702 H 159.84 -4.469 -6.38671 0
M  V30 1703 N 164.069 0.697108 -1.41344 0
M  V30 1704 C 165.317 1.45426 -1.40341 0
M  V30 1705 C 165.638 1.94996 -0.0128787 0
M  V30 1706 O 164.908 1.71599 0.945027 0
M  V30 1707 H 163.488 0.539594 -0.516573 0
M  V30 1708 H 166.15 0.825201 -1.76569 0
M  V30 1709 H 165.246 2.31817 -2.08967 0
M  V30 1710 N 165.547 1.27147 0.931209 0
M  V30 1711 C 166.775 1.16082 1.71267 0
M  V30 1712 C 167.19 -0.282772 1.8667 0
M  V30 1713 O 166.547 -1.19283 1.38122 0
M  V30 1714 C 166.598 1.8358 3.11417 0
M  V30 1715 O 166.319 3.22299 2.96741 0
M  V30 1716 C 167.82 1.78597 4.05732 0
M  V30 1717 H 165.04 0.403758 0.535929 0
M  V30 1718 H 167.584 1.67953 1.16671 0
M  V30 1719 H 165.739 1.35623 3.62885 0
M  V30 1720 H 166.153 3.55851 3.85319 0
M  V30 1721 H 167.627 2.30444 5.01597 0
M  V30 1722 H 168.104 0.754564 4.3267 0
M  V30 1723 H 168.71 2.26152 3.60188 0
M  V30 1724 N 167.025 -1.13721 1.09112 0
M  V30 1725 C 167.955 -2.21148 0.749385 0
M  V30 1726 C 168.936 -1.6792 -0.271475 0
M  V30 1727 O 170.121 -1.93693 -0.140251 0
M  V30 1728 C 167.251 -3.46905 0.165659 0
M  V30 1729 C 166.205 -4.13203 1.11567 0
M  V30 1730 C 165.531 -5.33248 0.393809 0
M  V30 1731 C 166.831 -4.60912 2.45678 0
M  V30 1732 H 168.525 -2.4999 1.64758 0
M  V30 1733 H 166.071 -1.20156 0.793626 0
M  V30 1734 H 168.024 -4.21313 -0.085466 0
M  V30 1735 H 166.748 -3.17449 -0.767714 0
M  V30 1736 H 165.407 -3.40758 1.35202 0
M  V30 1737 H 165.055 -5.00054 -0.543599 0
M  V30 1738 H 164.755 -5.78552 1.02721 0
M  V30 1739 H 166.279 -6.10413 0.150908 0
M  V30 1740 H 167.693 -5.26759 2.26269 0
M  V30 1741 H 166.09 -5.16944 3.04776 0
M  V30 1742 H 167.16 -3.75603 3.06677 0
M  V30 1743 N 168.503 -0.877838 -1.30888 0
M  V30 1744 C 169.45 -0.337538 -2.28318 0
M  V30 1745 C 170.42 0.568346 -1.56074 0
M  V30 1746 O 171.605 0.498298 -1.84178 0
M  V30 1747 C 168.745 0.448142 -3.42178 0
M  V30 1748 C 167.858 -0.48615 -4.29256 0
M  V30 1749 C 166.993 0.314427 -5.30269 0
M  V30 1750 C 166.032 -0.615791 -6.08995 0
M  V30 1751 N 165.169 0.14902 -7.01942 0
M  V30 1752 H 170.009 -1.17356 -2.73919 0
M  V30 1753 H 167.546 -0.590094 -1.34745 0
M  V30 1754 H 169.504 0.919517 -4.06941 0
M  V30 1755 H 168.134 1.24879 -2.97666 0
M  V30 1756 H 167.186 -1.076 -3.64865 0
M  V30 1757 H 168.498 -1.19909 -4.84173 0
M  V30 1758 H 167.652 0.847969 -6.00745 0
M  V30 1759 H 166.391 1.06062 -4.76027 0
M  V30 1760 H 165.396 -1.16102 -5.37401 0
M  V30 1761 H 166.621 -1.36097 -6.65323 0
M  V30 1762 H 164.567 0.877884 -6.50099 0
M  V30 1763 H 164.484 -0.504433 -7.54315 0
M  V30 1764 H 165.752 0.663537 -7.76671 0
M  V30 1765 N 169.982 1.44106 -0.638065 0
M  V30 1766 C 171.212 2.06037 -0.152394 0
M  V30 1767 C 171.62 1.47808 1.18108 0
M  V30 1768 O 170.963 0.598092 1.73691 0
M  V30 1769 C 171.025 3.59488 0.0293714 0
M  V30 1770 C 170.689 4.4022 -1.22702 0
M  V30 1771 C 171.686 4.73256 -2.15232 0
M  V30 1772 C 169.371 4.8048 -1.46437 0
M  V30 1773 C 171.365 5.45444 -3.29802 0
M  V30 1774 C 169.052 5.52417 -2.61303 0
M  V30 1775 C 170.05 5.84819 -3.52811 0
M  V30 1776 O 169.738 6.55289 -4.65673 0
M  V30 1777 H 169.47 0.671233 -0.0801401 0
M  V30 1778 H 172.024 1.85851 -0.874563 0
M  V30 1779 H 170.254 3.78191 0.806758 0
M  V30 1780 H 171.943 4.03164 0.470475 0
M  V30 1781 H 172.709 4.42684 -1.98131 0
M  V30 1782 H 168.588 4.54676 -0.760977 0
M  V30 1783 H 172.132 5.70653 -4.01249 0
M  V30 1784 H 168.029 5.82404 -2.78344 0
M  V30 1785 H 168.797 6.73762 -4.64744 0
M  V30 1786 N 171.46 0.379036 1.52974 0
M  V30 1787 C 172.708 -0.206014 2.01047 0
M  V30 1788 C 173.029 -1.48175 1.26765 0
M  V30 1789 O 172.299 -1.92085 0.384743 0
M  V30 1790 H 170.879 -0.0791184 0.742798 0
M  V30 1791 H 173.541 0.508366 1.88153 0
M  V30 1792 H 172.637 -0.423501 3.09213 0
M  V30 1793 N 172.938 -1.57226 0.108567 0
M  V30 1794 C 174.168 -1.9889 -0.559142 0
M  V30 1795 C 174.576 -0.986889 -1.61422 0
M  V30 1796 O 173.919 0.0298705 -1.83676 0
M  V30 1797 C 173.981 -3.36952 -1.25315 0
M  V30 1798 C 173.645 -4.55679 -0.347248 0
M  V30 1799 C 174.642 -5.18281 0.409996 0
M  V30 1800 C 172.327 -5.0162 -0.261367 0
M  V30 1801 C 174.321 -6.25203 1.24096 0
M  V30 1802 C 172.008 -6.08405 0.573238 0
M  V30 1803 C 173.006 -6.70063 1.32304 0
M  V30 1804 O 172.694 -7.74788 2.14381 0
M  V30 1805 H 172.426 -0.658343 -0.153492 0
M  V30 1806 H 174.98 -2.04532 0.188584 0
M  V30 1807 H 173.21 -3.28032 -2.04773 0
M  V30 1808 H 174.899 -3.62974 -1.81673 0
M  V30 1809 H 175.665 -4.8371 0.353457 0
M  V30 1810 H 171.544 -4.53381 -0.834656 0
M  V30 1811 H 175.088 -6.73259 1.82669 0
M  V30 1812 H 170.985 -6.42406 0.631208 0
M  V30 1813 H 171.753 -7.91837 2.07209 0
M  V30 1814 N 174.416 0.165178 -1.56732 0
M  V30 1815 C 175.644 0.896218 -1.86482 0
M  V30 1816 C 176.059 1.75555 -0.694675 0
M  V30 1817 O 175.416 1.79379 0.33607 0
M  V30 1818 C 175.467 1.76792 -3.1532 0
M  V30 1819 O 175.188 0.943239 -4.27825 0
M  V30 1820 C 176.689 2.6081 -3.58459 0
M  V30 1821 H 173.909 0.260064 -0.618553 0
M  V30 1822 H 176.453 0.163428 -2.03846 0
M  V30 1823 H 174.608 2.45398 -2.99764 0
M  V30 1824 H 175.022 1.53998 -5.01383 0
M  V30 1825 H 176.496 3.17579 -4.51495 0
M  V30 1826 H 176.973 3.35977 -2.82872 0
M  V30 1827 H 177.579 1.97526 -3.76648 0
M  V30 1828 N 175.894 1.51508 0.433938 0
M  V30 1829 C 177.122 1.68157 1.20543 0
M  V30 1830 C 177.537 0.380362 1.84929 0
M  V30 1831 O 176.894 -0.641446 1.70856 0
M  V30 1832 C 176.945 2.79965 2.28696 0
M  V30 1833 O 176.666 4.05045 1.66943 0
M  V30 1834 C 178.167 3.07912 3.18912 0
M  V30 1835 H 175.387 0.56421 0.363191 0
M  V30 1836 H 177.931 1.97941 0.513754 0
M  V30 1837 H 176.086 2.5277 2.93574 0
M  V30 1838 H 176.5 4.67165 2.38448 0
M  V30 1839 H 177.974 3.89719 3.90926 0
M  V30 1840 H 178.451 2.20456 3.79863 0
M  V30 1841 H 179.057 3.36779 2.59731 0
M  V30 1842 N 177.372 -0.689602 1.41712 0
M  V30 1843 C 178.335 -1.78521 1.43746 0
M  V30 1844 C 179.335 -1.57436 0.327191 0
M  V30 1845 O 180.525 -1.64 0.587348 0
M  V30 1846 C 177.657 -3.16971 1.25467 0
M  V30 1847 H 178.85 -1.78108 2.41283 0
M  V30 1848 H 176.403 -0.89781 1.27942 0
M  V30 1849 H 177.138 -3.23019 0.287948 0
M  V30 1850 H 176.923 -3.33678 2.05917 0
M  V30 1851 H 178.413 -3.96935 1.2974 0
M  V30 1852 N 178.85 -1.27639 -0.924453 0
M  V30 1853 C 180.096 -1.15345 -1.67532 0
M  V30 1854 C 180.451 0.297096 -1.90092 0
M  V30 1855 O 179.744 1.21374 -1.48253 0
M  V30 1856 C 179.938 -1.87407 -3.04325 0
M  V30 1857 C 179.767 -3.3932 -2.95114 0
M  V30 1858 C 178.537 -4.08644 -2.97218 0
M  V30 1859 C 180.735 -4.35242 -2.73987 0
M  V30 1860 N 178.717 -5.47102 -2.78482 0
M  V30 1861 C 180.088 -5.6099 -2.63988 0
M  V30 1862 C 182.143 -4.25294 -2.589 0
M  V30 1863 C 180.846 -6.77924 -2.40442 0
M  V30 1864 C 182.872 -5.41952 -2.36731 0
M  V30 1865 C 182.234 -6.66658 -2.27478 0
M  V30 1866 H 178.333 -0.47696 -0.619704 0
M  V30 1867 H 180.917 -1.6115 -1.09265 0
M  V30 1868 H 179.088 -1.44053 -3.60699 0
M  V30 1869 H 180.82 -1.6759 -3.68369 0
M  V30 1870 H 177.575 -3.60136 -3.07569 0
M  V30 1871 H 177.999 -6.19852 -2.72236 0
M  V30 1872 H 182.641 -3.29598 -2.64811 0
M  V30 1873 H 180.359 -7.73699 -2.3327 0
M  V30 1874 H 183.945 -5.36137 -2.25938 0
M  V30 1875 H 182.825 -7.55405 -2.10555 0
M  V30 1876 N 180.328 1.1314 -1.09713 0
M  V30 1877 C 181.574 1.84967 -0.846104 0
M  V30 1878 C 181.929 1.82082 0.621601 0
M  V30 1879 O 181.222 1.2501 1.452 0
M  V30 1880 C 181.416 3.32167 -1.3191 0
M  V30 1881 C 181.245 3.49386 -2.83125 0
M  V30 1882 C 180.015 3.63456 -3.51038 0
M  V30 1883 C 182.213 3.45179 -3.81256 0
M  V30 1884 N 180.195 3.68966 -4.9065 0
M  V30 1885 C 181.566 3.57094 -5.06837 0
M  V30 1886 C 183.621 3.28598 -3.74069 0
M  V30 1887 C 182.324 3.5414 -6.26081 0
M  V30 1888 C 184.35 3.26953 -4.92804 0
M  V30 1889 C 183.712 3.39422 -6.17229 0
M  V30 1890 H 179.811 0.692899 -0.362512 0
M  V30 1891 H 182.395 1.35506 -1.39808 0
M  V30 1892 H 180.566 3.80186 -0.794535 0
M  V30 1893 H 182.298 3.91815 -1.01308 0
M  V30 1894 H 179.053 3.65256 -3.01471 0
M  V30 1895 H 179.477 3.75404 -5.63383 0
M  V30 1896 H 184.119 3.17858 -2.78794 0
M  V30 1897 H 181.837 3.63653 -7.21653 0
M  V30 1898 H 185.423 3.15316 -4.88945 0
M  V30 1899 H 184.303 3.38114 -7.07565 0
M  V30 1900 N 181.806 0.884767 1.30421 0
M  V30 1901 C 182.736 0.367574 2.30589 0
M  V30 1902 C 183.717 -0.549464 1.60981 0
M  V30 1903 O 184.902 -0.46336 1.88591 0
M  V30 1904 C 182.032 -0.418944 3.44764 0
M  V30 1905 C 180.986 0.406316 4.26067 0
M  V30 1906 C 180.312 -0.506793 5.32293 0
M  V30 1907 C 181.612 1.64832 4.95608 0
M  V30 1908 H 183.306 1.20462 2.74097 0
M  V30 1909 H 180.852 0.580695 1.31772 0
M  V30 1910 H 182.805 -0.791395 4.13902 0
M  V30 1911 H 181.529 -1.28964 3.0006 0
M  V30 1912 H 180.188 0.760903 3.58617 0
M  V30 1913 H 179.836 -1.37519 4.83836 0
M  V30 1914 H 179.536 0.0415828 5.87585 0
M  V30 1915 H 181.06 -0.875764 6.04287 0
M  V30 1916 H 182.474 1.34646 5.57264 0
M  V30 1917 H 180.871 2.13688 5.60765 0
M  V30 1918 H 181.941 2.39284 4.21748 0
M  V30 1919 N 183.284 -1.43765 0.645699 0
M  V30 1920 C 184.532 -2.01499 0.155731 0
M  V30 1921 C 184.853 -1.51151 -1.232 0
M  V30 1922 O 184.123 -0.721044 -1.82148 0
M  V30 1923 H 182.703 -0.745003 0.0545817 0
M  V30 1924 H 185.365 -1.76075 0.835677 0
M  V30 1925 H 184.461 -3.1181 0.134577 0
M  V30 1926 N 184.763 -0.387143 -1.52771 0
M  V30 1927 C 186.012 0.19697 -2.00736 0
M  V30 1928 C 186.325 1.48082 -1.27793 0
M  V30 1929 O 187.531 2.14485 -1.66458 0
M  V30 1930 C 185.987 0.401568 -3.57653 0
M  V30 1931 C 185.595 -0.868907 -4.39493 0
M  V30 1932 C 187.339 0.942164 -4.13912 0
M  V30 1933 C 185.246 -0.632705 -5.88006 0
M  V30 1934 H 184.176 0.0773827 -0.750019 0
M  V30 1935 H 186.827 -0.50921 -1.76293 0
M  V30 1936 H 185.209 1.16954 -3.78335 0
M  V30 1937 H 186.383 -1.64133 -4.30577 0
M  V30 1938 H 184.698 -1.33429 -3.94443 0
M  V30 1939 H 187.295 1.13455 -5.22525 0
M  V30 1940 H 187.638 1.9106 -3.69867 0
M  V30 1941 H 188.171 0.233814 -3.97112 0
M  V30 1942 H 184.91 -1.57208 -6.36369 0
M  V30 1943 H 184.43 0.100825 -5.99715 0
M  V30 1944 H 186.109 -0.26642 -6.46451 0
M  V30 1945 N 186.241 1.57166 -0.116904 0
M  V30 1946 C 187.518 1.86645 0.585049 0
M  V30 1947 C 187.898 1.0177 1.84949 0
M  V30 1948 O 187.246 0.0960379 2.28298 0
M  V30 1949 C 187.456 3.37736 0.879507 0
M  V30 1950 C 188.804 4.06289 1.23348 0
M  V30 1951 O 189.828 3.42743 0.969836 0
M  V30 1952 O 188.687 5.18455 1.7282 0
M  V30 1953 H 185.781 0.772593 0.295007 0
M  V30 1954 H 188.327 1.69025 -0.151249 0
M  V30 1955 H 187.099 3.91296 -0.0166136 0
M  V30 1956 H 186.722 3.6078 1.67103 0
M  V30 1957 N 187.719 -0.156864 1.56817 0
M  V30 1958 C 188.651 -1.21883 1.94106 0
M  V30 1959 C 189.664 -1.3971 0.835754 0
M  V30 1960 O 190.853 -1.39457 1.11418 0
M  V30 1961 C 187.953 -2.58527 2.19127 0
M  V30 1962 C 187.126 -2.61809 3.50393 0
M  V30 1963 C 186.185 -3.7992 3.64071 0
M  V30 1964 O 185.211 -3.65249 4.36557 0
M  V30 1965 N 186.413 -4.96973 2.99997 0
M  V30 1966 H 189.178 -0.901974 2.85805 0
M  V30 1967 H 186.739 -0.346513 1.58148 0
M  V30 1968 H 188.731 -3.36034 2.25529 0
M  V30 1969 H 187.301 -2.82545 1.33742 0
M  V30 1970 H 186.521 -1.7029 3.5552 0
M  V30 1971 H 187.809 -2.61024 4.36742 0
M  V30 1972 H 187.207 -5.11794 2.41004 0
M  V30 1973 H 185.764 -5.7229 3.11974 0
M  V30 1974 N 189.197 -1.51736 -0.425897 0
M  V30 1975 C 190.422 -1.69082 -1.20108 0
M  V30 1976 C 190.847 -0.392398 -1.83962 0
M  V30 1977 O 190.205 0.64858 -1.69302 0
M  V30 1978 C 190.253 -2.81604 -2.25237 0
M  V30 1979 O 189.357 -2.46004 -3.30992 0
M  V30 1980 H 188.698 -0.563408 -0.35138 0
M  V30 1981 H 191.228 -1.98358 -0.501512 0
M  V30 1982 H 191.238 -3.06025 -2.69838 0
M  V30 1983 H 189.913 -3.75817 -1.78142 0
M  V30 1984 H 188.49 -2.32195 -2.91787 0
M  V30 1985 N 190.675 0.682077 -1.42076 0
M  V30 1986 C 191.924 1.43786 -1.41451 0
M  V30 1987 C 192.237 1.95574 -0.0317074 0
M  V30 1988 O 193.443 2.71326 0.0971462 0
M  V30 1989 C 191.899 2.60071 -2.48779 0
M  V30 1990 C 191.507 2.15013 -3.93031 0
M  V30 1991 C 193.251 3.37626 -2.57311 0
M  V30 1992 C 191.158 3.28336 -4.91883 0
M  V30 1993 H 190.088 0.540143 -0.526082 0
M  V30 1994 H 192.739 0.739157 -1.67955 0
M  V30 1995 H 191.121 3.32275 -2.15429 0
M  V30 1996 H 192.295 1.5001 -4.35699 0
M  V30 1997 H 190.61 1.50416 -3.88284 0
M  V30 1998 H 193.207 4.22012 -3.28345 0
M  V30 1999 H 193.55 3.83727 -1.61429 0
M  V30 2000 H 194.083 2.72488 -2.89819 0
M  V30 2001 H 190.822 2.87234 -5.89217 0
M  V30 2002 H 190.342 3.92145 -4.53853 0
M  V30 2003 H 192.021 3.93913 -5.13265 0
M  V30 2004 N 192.153 1.28127 0.917671 0
M  V30 2005 C 193.43 1.05761 1.64542 0
M  V30 2006 C 193.81 -0.404344 2.07191 0
M  V30 2007 O 193.158 -1.38963 1.81388 0
M  V30 2008 C 193.368 2.02857 2.83989 0
M  V30 2009 C 194.716 2.32786 3.551 0
M  V30 2010 O 195.74 2.0091 2.94132 0
M  V30 2011 O 194.599 2.87169 4.64969 0
M  V30 2012 H 191.693 0.403916 0.721652 0
M  V30 2013 H 194.239 1.39431 0.967322 0
M  V30 2014 H 193.011 3.01407 2.49538 0
M  V30 2015 H 192.634 1.69809 3.59514 0
M  V30 2016 N 193.631 -1.12557 1.10312 0
M  V30 2017 C 194.878 -1.84038 0.844759 0
M  V30 2018 C 195.206 -1.84026 -0.629668 0
M  V30 2019 O 194.461 -1.28026 -1.48013 0
M  V30 2020 C 194.76 -3.31462 1.33669 0
M  V30 2021 C 194.426 -3.51647 2.82232 0
M  V30 2022 C 193.088 -3.56864 3.22802 0
M  V30 2023 C 195.44 -3.58867 3.77974 0
M  V30 2024 C 192.768 -3.66844 4.57867 0
M  V30 2025 C 195.12 -3.70375 5.1284 0
M  V30 2026 C 193.784 -3.73848 5.52986 0
M  V30 2027 H 193.054 -0.673444 0.309119 0
M  V30 2028 H 195.701 -1.32824 1.37949 0
M  V30 2029 H 194.006 -3.85091 0.721949 0
M  V30 2030 H 195.703 -3.85236 1.11329 0
M  V30 2031 H 192.293 -3.48249 2.49842 0
M  V30 2032 H 196.477 -3.54107 3.47738 0
M  V30 2033 H 191.733 -3.67804 4.88396 0
M  V30 2034 H 195.907 -3.74904 5.86873 0
M  V30 2035 H 193.534 -3.81333 6.57639 0
M  V30 2036 N 195.109 -0.891671 -1.2995 0
M  V30 2037 C 196.019 -0.367691 -2.31701 0
M  V30 2038 C 197.035 0.533486 -1.6562 0
M  V30 2039 O 198.211 0.424997 -1.96865 0
M  V30 2040 C 195.276 0.403406 -3.44345 0
M  V30 2041 C 194.337 -0.528328 -4.26037 0
M  V30 2042 C 193.57 0.206063 -5.33302 0
M  V30 2043 O 193.793 1.43119 -5.52153 0
M  V30 2044 O 192.727 -0.447281 -6.00236 0
M  V30 2045 H 196.553 -1.21163 -2.78484 0
M  V30 2046 H 194.138 -0.655725 -1.34241 0
M  V30 2047 H 196.02 0.839753 -4.12948 0
M  V30 2048 H 194.695 1.22354 -2.99685 0
M  V30 2049 H 193.602 -1.01362 -3.60106 0
M  V30 2050 H 194.935 -1.31465 -4.74318 0
M  V30 2051 N 196.587 1.43421 -0.653314 0
M  V30 2052 C 197.836 2.01032 -0.164076 0
M  V30 2053 C 198.149 1.52147 1.22926 0
M  V30 2054 O 199.355 2.02031 1.81371 0
M  V30 2055 C 197.811 3.59082 -0.24252 0
M  V30 2056 C 197.419 4.1696 -1.63855 0
M  V30 2057 C 199.163 4.24079 0.18911 0
M  V30 2058 C 197.07 5.67304 -1.67092 0
M  V30 2059 H 196 0.751798 -0.0575769 0
M  V30 2060 H 198.651 1.6439 -0.815362 0
M  V30 2061 H 197.033 3.93125 0.476276 0
M  V30 2062 H 198.207 3.94416 -2.38271 0
M  V30 2063 H 196.522 3.64335 -2.01616 0
M  V30 2064 H 199.119 5.34381 0.184775 0
M  V30 2065 H 199.462 3.98005 1.22056 0
M  V30 2066 H 199.995 3.94918 -0.477938 0
M  V30 2067 H 196.734 5.98145 -2.68146 0
M  V30 2068 H 196.254 5.91904 -0.970014 0
M  V30 2069 H 197.933 6.31344 -1.4147 0
M  V30 2070 N 198.065 0.39524 1.52563 0
M  V30 2071 C 199.342 -0.242908 1.94086 0
M  V30 2072 C 199.722 -1.63841 1.33114 0
M  V30 2073 O 199.07 -2.22928 0.501529 0
M  V30 2074 C 199.28 -0.26327 3.48006 0
M  V30 2075 C 200.628 -0.489354 4.21771 0
M  V30 2076 O 201.652 -0.343226 3.54543 0
M  V30 2077 O 200.511 -0.776169 5.4096 0
M  V30 2078 H 197.605 -0.152536 0.812811 0
M  V30 2079 H 200.151 0.450178 1.6362 0
M  V30 2080 H 198.923 0.713985 3.84731 0
M  V30 2081 H 198.546 -1.00103 3.84792 0
M  V30 2082 N 199.544 -1.57102 0.125237 0
M  V30 2083 C 200.769 -2.0019 -0.542101 0
M  V30 2084 C 201.194 -1.00449 -1.59034 0
M  V30 2085 O 200.552 0.0229423 -1.81285 0
M  V30 2086 C 200.6 -3.42129 -1.13929 0
M  V30 2087 O 199.704 -3.45307 -2.2547 0
M  V30 2088 H 199.045 -0.650171 -0.134812 0
M  V30 2089 H 201.575 -2.03461 0.215553 0
M  V30 2090 H 201.585 -3.80471 -1.4733 0
M  V30 2091 H 200.26 -4.14237 -0.371531 0
M  V30 2092 H 198.837 -3.1879 -1.93462 0
M  V30 2093 N 201.022 0.148545 -1.56898 0
M  V30 2094 C 201.985 1.16736 -1.97244 0
M  V30 2095 C 202.985 1.35947 -0.858777 0
M  V30 2096 O 204.175 1.32966 -1.12542 0
M  V30 2097 C 201.307 2.52798 -2.28705 0
M  V30 2098 H 202.5 0.821279 -2.88435 0
M  V30 2099 H 200.053 0.391831 -1.51309 0
M  V30 2100 H 200.788 2.92381 -1.403 0
M  V30 2101 H 200.573 2.40216 -3.09901 0
M  V30 2102 H 202.063 3.26179 -2.60762 0
M  V30 2103 N 202.5 1.5196 0.417844 0
M  V30 2104 C 203.749 1.6482 1.16264 0
M  V30 2105 C 204.062 0.379886 1.91876 0
M  V30 2106 O 205.268 0.388154 2.68711 0
M  V30 2107 C 203.724 2.91161 2.1155 0
M  V30 2108 C 203.332 4.25068 1.41495 0
M  V30 2109 C 205.076 3.13383 2.86341 0
M  V30 2110 C 202.983 5.42541 2.35379 0
M  V30 2111 H 201.913 0.613954 0.437694 0
M  V30 2112 H 204.564 1.78442 0.427871 0
M  V30 2113 H 202.946 2.71218 2.88543 0
M  V30 2114 H 204.12 4.55463 0.699263 0
M  V30 2115 H 202.435 4.0888 0.787792 0
M  V30 2116 H 205.032 3.98324 3.5671 0
M  V30 2117 H 205.375 2.27256 3.48798 0
M  V30 2118 H 205.908 3.33757 2.1645 0
M  V30 2119 H 202.647 6.30987 1.77582 0
M  V30 2120 H 202.167 5.16497 3.04945 0
M  V30 2121 H 203.846 5.75272 2.96093 0
M  V30 2122 N 203.978 -0.674533 1.42435 0
M  V30 2123 C 205.255 -1.4305 1.33402 0
M  V30 2124 C 205.635 -2.11081 -0.0284674 0
M  V30 2125 O 204.983 -2.03257 -1.04397 0
M  V30 2126 C 205.193 -2.43272 2.50239 0
M  V30 2127 C 206.541 -3.07907 2.92367 0
M  V30 2128 O 207.565 -2.53599 2.50132 0
M  V30 2129 O 206.424 -4.0632 3.65467 0
M  V30 2130 H 203.518 -0.638076 0.526106 0
M  V30 2131 H 206.064 -0.703235 1.54443 0
M  V30 2132 H 204.836 -1.91803 3.41068 0
M  V30 2133 H 204.459 -3.23479 2.31186 0
M  V30 2134 N 205.456 -1.28612 -0.910864 0
M  V30 2135 C 206.386 -1.15326 -2.03032 0
M  V30 2136 C 207.367 -0.0502924 -1.70026 0
M  V30 2137 O 208.552 -0.227797 -1.92859 0
M  V30 2138 C 205.682 -0.817343 -3.37545 0
M  V30 2139 C 204.636 -1.8754 -3.84724 0
M  V30 2140 C 203.962 -1.39305 -5.16235 0
M  V30 2141 C 205.262 -3.28244 -4.06267 0
M  V30 2142 H 206.956 -2.08975 -2.14406 0
M  V30 2143 H 204.502 -1.00612 -1.03021 0
M  V30 2144 H 206.455 -0.711151 -4.15356 0
M  V30 2145 H 205.179 0.154846 -3.26233 0
M  V30 2146 H 203.838 -1.97079 -3.09121 0
M  V30 2147 H 203.486 -0.409846 -5.01328 0
M  V30 2148 H 203.186 -2.10057 -5.48771 0
M  V30 2149 H 204.71 -1.30014 -5.96598 0
M  V30 2150 H 206.124 -3.21611 -4.74594 0
M  V30 2151 H 204.521 -3.96855 -4.5014 0
M  V30 2152 H 205.591 -3.72048 -3.10979 0
M  V30 2153 N 206.934 1.1197 -1.10907 0
M  V30 2154 C 207.866 2.17592 -0.720175 0
M  V30 2155 C 208.879 1.60938 0.245495 0
M  V30 2156 O 210.068 1.78476 0.0292245 0
M  V30 2157 C 207.168 3.38873 -0.0427917 0
M  V30 2158 C 206.341 4.25006 -1.03388 0
M  V30 2159 C 205.4 5.24774 -0.387075 0
M  V30 2160 O 204.426 5.59631 -1.03934 0
M  V30 2161 N 205.628 5.74208 0.852407 0
M  V30 2162 H 208.393 2.51567 -1.62893 0
M  V30 2163 H 205.954 1.27439 -0.998543 0
M  V30 2164 H 207.946 4.02703 0.401501 0
M  V30 2165 H 206.516 3.03007 0.768456 0
M  V30 2166 H 205.736 3.57716 -1.65629 0
M  V30 2167 H 207.024 4.79397 -1.70458 0
M  V30 2168 H 206.422 5.48062 1.40161 0
M  V30 2169 H 204.979 6.39901 1.23977 0
M  V30 2170 N 208.412 0.89855 1.29475 0
M  V30 2171 C 209.661 0.519863 1.94885 0
M  V30 2172 C 209.974 -0.9383 1.71625 0
M  V30 2173 O 211.18 -1.42445 2.31131 0
M  V30 2174 C 209.636 0.878836 3.49005 0
M  V30 2175 C 209.244 2.35569 3.81066 0
M  V30 2176 C 210.988 0.570004 4.20656 0
M  V30 2177 C 208.895 2.65558 5.28425 0
M  V30 2178 H 207.825 0.190692 0.729488 0
M  V30 2179 H 210.476 1.09539 1.47219 0
M  V30 2180 H 208.858 0.232253 3.95318 0
M  V30 2181 H 210.032 3.04773 3.45616 0
M  V30 2182 H 208.347 2.63343 3.22552 0
M  V30 2183 H 210.944 0.770925 5.29113 0
M  V30 2184 H 211.287 -0.491404 4.1339 0
M  V30 2185 H 211.82 1.17438 3.8007 0
M  V30 2186 H 208.559 3.70493 5.40754 0
M  V30 2187 H 208.079 2.00977 5.65127 0
M  V30 2188 H 209.758 2.51765 5.96006 0
M  V30 2189 N 209.89 -1.43072 0.660911 0
M  V30 2190 C 210.838 -2.32569 -0.0378199 0
M  V30 2191 C 211.832 -1.49046 -0.805092 0
M  V30 2192 O 213.038 -1.65206 -0.714624 0
M  V30 2193 H 209.413 -0.75136 -0.031019 0
M  V30 2194 H 211.384 -2.89216 0.734609 0
M  V30 2195 C 210.133 -3.33453 -0.985124 0
M  V30 2196 H 209.456 -3.97752 -0.404147 0
M  V30 2197 H 210.896 -3.98691 -1.44297 0
M  V30 2198 C 209.355 -2.64642 -2.08486 0
M  V30 2199 O 209.885 -2.46776 -3.16961 0
M  V30 2200 N 208.091 -2.23891 -1.8526 0
M  V30 2201 H 207.638 -2.38621 -0.970449 0
M  V30 2202 H 207.596 -1.78181 -2.59034 0
M  V30 2203 N 211.368 -0.403325 -1.52352 0
M  V30 2204 C 212.596 0.174012 -2.06167 0
M  V30 2205 C 213.011 1.39347 -1.27388 0
M  V30 2206 O 212.368 1.79597 -0.324201 0
M  V30 2207 C 212.419 0.530223 -3.5759 0
M  V30 2208 O 212.14 -0.640806 -4.33388 0
M  V30 2209 C 213.641 1.16192 -4.27802 0
M  V30 2210 H 210.861 0.0229464 -0.670608 0
M  V30 2211 H 213.405 -0.572604 -1.9632 0
M  V30 2212 H 211.56 1.22673 -3.67464 0
M  V30 2213 H 211.974 -0.344851 -5.23365 0
M  V30 2214 H 213.448 1.36141 -5.34948 0
M  V30 2215 H 213.925 2.13335 -3.83907 0
M  V30 2216 H 214.531 0.505775 -4.22282 0
M  V30 2217 N 212.846 1.57033 -0.133567 0
M  V30 2218 C 213.778 2.13176 0.841944 0
M  V30 2219 C 214.791 1.07794 1.22001 0
M  V30 2220 O 215.98 1.35117 1.16643 0
M  V30 2221 C 213.08 2.62847 2.13926 0
M  V30 2222 C 212.253 3.92486 1.93064 0
M  V30 2223 C 211.312 4.27605 3.0666 0
M  V30 2224 O 210.338 4.96168 2.78937 0
M  V30 2225 N 211.54 3.861 4.33483 0
M  V30 2226 H 214.305 2.97503 0.362192 0
M  V30 2227 H 211.866 1.61821 0.05042 0
M  V30 2228 H 213.858 2.83363 2.88942 0
M  V30 2229 H 212.428 1.83319 2.53205 0
M  V30 2230 H 211.648 3.80732 1.02159 0
M  V30 2231 H 212.936 4.77225 1.76447 0
M  V30 2232 H 212.334 3.30828 4.58878 0
M  V30 2233 H 210.891 4.11694 5.05323 0
M  V30 2234 N 214.325 -0.140222 1.56975 0
M  V30 2235 C 215.255 -1.17456 2.01808 0
M  V30 2236 C 216.236 -1.44415 0.898794 0
M  V30 2237 O 217.421 -1.5522 1.16707 0
M  V30 2238 C 214.551 -2.50607 2.40444 0
M  V30 2239 C 213.505 -2.38155 3.55621 0
M  V30 2240 C 212.831 -3.76078 3.80091 0
M  V30 2241 C 214.131 -1.85991 4.88062 0
M  V30 2242 H 215.825 -0.801743 2.88466 0
M  V30 2243 H 213.371 -0.38422 1.38779 0
M  V30 2244 H 215.324 -3.23197 2.7041 0
M  V30 2245 H 214.048 -2.89737 1.50732 0
M  V30 2246 H 212.707 -1.68016 3.25832 0
M  V30 2247 H 212.355 -4.12656 2.87618 0
M  V30 2248 H 212.055 -3.68606 4.57606 0
M  V30 2249 H 213.579 -4.50206 4.12488 0
M  V30 2250 H 214.993 -2.4838 5.16701 0
M  V30 2251 H 213.39 -1.89393 5.6943 0
M  V30 2252 H 214.46 -0.816023 4.77984 0
M  V30 2253 N 215.803 -1.52179 -0.40978 0
M  V30 2254 C 217.031 -1.70054 -1.17853 0
M  V30 2255 C 217.446 -0.409735 -1.843 0
M  V30 2256 O 216.803 0.614183 -1.71855 0
M  V30 2257 C 216.854 -2.83568 -2.24213 0
M  V30 2258 O 216.575 -4.0765 -1.60478 0
M  V30 2259 C 218.076 -3.12947 -3.13973 0
M  V30 2260 H 215.296 -0.569917 -0.354169 0
M  V30 2261 H 217.84 -1.98734 -0.482198 0
M  V30 2262 H 215.995 -2.57409 -2.89516 0
M  V30 2263 H 216.409 -4.70899 -2.30986 0
M  V30 2264 H 217.883 -3.95889 -3.84677 0
M  V30 2265 H 218.36 -2.26472 -3.76307 0
M  V30 2266 H 218.966 -3.40868 -2.5434 0
M  V30 2267 N 217.281 0.66697 -1.42791 0
M  V30 2268 C 218.521 1.43892 -1.4517 0
M  V30 2269 C 218.885 1.91877 -0.0687551 0
M  V30 2270 O 220.086 2.6878 0.0327455 0
M  V30 2271 C 218.357 2.59839 -2.45395 0
M  V30 2272 S 219.916 3.48572 -2.66539 0
M  V30 2273 H 216.734 0.491356 -0.513897 0
M  V30 2274 H 219.336 0.775656 -1.79454 0
M  V30 2275 H 218.04 2.22838 -3.44632 0
M  V30 2276 H 217.571 3.3103 -2.12562 0
M  V30 2277 H 219.586 4.56094 -1.95429 0
M  V30 2278 N 218.759 1.29093 0.90403 0
M  V30 2279 C 220.036 1.075 1.63411 0
M  V30 2280 C 220.416 -0.382346 2.07609 0
M  V30 2281 O 219.764 -1.37031 1.82851 0
M  V30 2282 C 219.974 2.05858 2.81822 0
M  V30 2283 C 221.322 2.36539 3.52611 0
M  V30 2284 O 222.346 2.04019 2.91984 0
M  V30 2285 O 221.205 2.92085 4.61897 0
M  V30 2286 H 218.299 0.411547 0.717327 0
M  V30 2287 H 220.845 1.40449 0.952479 0
M  V30 2288 H 219.617 3.04037 2.46327 0
M  V30 2289 H 219.24 1.73613 3.57693 0
M  V30 2290 N 220.237 -1.11381 1.11499 0
M  V30 2291 C 221.462 -1.87475 0.887019 0
M  V30 2292 C 221.887 -1.79639 -0.557796 0
M  V30 2293 O 221.245 -1.15924 -1.39396 0
M  V30 2294 C 221.293 -3.34213 1.35403 0
M  V30 2295 O 220.397 -4.0903 0.526146 0
M  V30 2296 H 219.738 -0.582099 0.319463 0
M  V30 2297 H 222.268 -1.40785 1.48461 0
M  V30 2298 H 222.278 -3.8506 1.34881 0
M  V30 2299 H 220.953 -3.39232 2.40612 0
M  V30 2300 H 219.53 -3.68082 0.597522 0
M  V30 2301 N 221.715 -0.905404 -1.28997 0
M  V30 2302 C 222.963 -0.533192 -1.9494 0
M  V30 2303 C 223.284 0.924618 -1.71685 0
M  V30 2304 O 222.554 1.65268 -1.05183 0
M  V30 2305 H 221.134 -0.194194 -0.721317 0
M  V30 2306 H 223.796 -1.15294 -1.57141 0
M  V30 2307 H 222.892 -0.72059 -3.03667 0
M  V30 2308 N 223.193 1.4272 -0.668489 0
M  V30 2309 C 224.609 1.55992 -0.33745 0
M  V30 2310 C 224.809 1.64933 1.15756 0
M  V30 2311 O 223.865 1.61278 1.94282 0
M  V30 2312 C 225.178 2.81314 -1.06222 0
M  V30 2313 C 226.726 2.95078 -1.04394 0
M  V30 2314 C 227.201 4.23252 -1.74991 0
M  V30 2315 N 228.692 4.3015 -1.71829 0
M  V30 2316 C 229.427 5.28127 -2.23315 0
M  V30 2317 N 228.923 6.32293 -2.83156 0
M  V30 2318 N 230.716 5.19882 -2.13726 0
M  V30 2319 H 222.867 1.3516 -1.63846 0
M  V30 2320 H 225.13 0.650174 -0.689912 0
M  V30 2321 H 224.836 2.80823 -2.11734 0
M  V30 2322 H 224.71 3.72012 -0.62344 0
M  V30 2323 H 227.097 2.951 0.0028244 0
M  V30 2324 H 227.178 2.05627 -1.52155 0
M  V30 2325 H 226.822 4.2399 -2.79633 0
M  V30 2326 H 226.752 5.11626 -1.24685 0
M  V30 2327 H 229.243 3.55499 -1.28175 0
M  V30 2328 H 229.556 7.03398 -3.20079 0
M  V30 2329 H 227.901 6.32873 -2.87223 0
M  V30 2330 H 231.092 4.37423 -1.66669 0
M  V30 2331 H 231.265 5.96077 -2.54158 0
M  V30 2332 N 224.671 0.411399 1.52136 0
M  V30 2333 C 225.917 -0.163888 2.02137 0
M  V30 2334 C 226.25 -1.44597 1.29636 0
M  V30 2335 O 225.525 -1.90272 0.403353 0
M  V30 2336 C 225.808 -0.40927 3.57767 0
M  V30 2337 C 225.661 0.889643 4.40914 0
M  V30 2338 C 226.98 -1.19042 4.23694 0
M  V30 2339 H 224.099 -0.0580896 0.734707 0
M  V30 2340 H 226.741 0.54531 1.82007 0
M  V30 2341 H 224.891 -1.0134 3.7505 0
M  V30 2342 H 226.563 1.52575 4.35337 0
M  V30 2343 H 224.806 1.50011 4.07037 0
M  V30 2344 H 225.477 0.672314 5.4789 0
M  V30 2345 H 227.953 -0.678942 4.10524 0
M  V30 2346 H 226.829 -1.33086 5.32522 0
M  V30 2347 H 227.09 -2.21166 3.82803 0
M  V30 2348 N 226.149 -1.5696 0.141893 0
M  V30 2349 C 227.565 -1.58151 -0.21456 0
M  V30 2350 C 227.765 -1.1559 -1.65049 0
M  V30 2351 O 226.821 -0.853832 -2.37626 0
M  V30 2352 C 228.134 -3.00674 0.0395576 0
M  V30 2353 C 229.682 -3.1299 -0.0245529 0
M  V30 2354 C 230.157 -4.57554 0.202167 0
M  V30 2355 N 231.648 -4.62961 0.148919 0
M  V30 2356 C 232.383 -5.7262 0.298924 0
M  V30 2357 N 231.879 -6.90947 0.50637 0
M  V30 2358 N 233.672 -5.61601 0.236886 0
M  V30 2359 H 225.823 -1.8292 1.07953 0
M  V30 2360 H 228.086 -0.846425 0.42693 0
M  V30 2361 H 227.792 -3.36183 1.03315 0
M  V30 2362 H 227.666 -3.70981 -0.682143 0
M  V30 2363 H 230.053 -2.77326 -1.00869 0
M  V30 2364 H 230.134 -2.4518 0.729396 0
M  V30 2365 H 229.778 -4.93922 1.18338 0
M  V30 2366 H 229.708 -5.23484 -0.572044 0
M  V30 2367 H 232.199 -3.77899 -0.00697015 0
M  V30 2368 H 232.512 -7.7038 0.611076 0
M  V30 2369 H 230.857 -6.92878 0.542628 0
M  V30 2370 H 234.048 -4.68039 0.0756209 0
M  V30 2371 H 234.221 -6.47015 0.357227 0
M  V30 2372 N 227.627 0.131896 -1.57047 0
M  V30 2373 C 228.855 0.856461 -1.88341 0
M  V30 2374 C 229.27 1.74042 -0.731757 0
M  V30 2375 O 228.627 1.80051 0.297945 0
M  V30 2376 C 228.678 1.70064 -3.18999 0
M  V30 2377 O 228.399 0.852278 -4.2973 0
M  V30 2378 C 229.9 2.53148 -3.63911 0
M  V30 2379 H 227.12 0.246885 -0.62393 0
M  V30 2380 H 229.664 0.120152 -2.04147 0
M  V30 2381 H 227.819 2.38984 -3.04902 0
M  V30 2382 H 228.233 1.43329 -5.04537 0
M  V30 2383 H 229.707 3.07931 -4.58129 0
M  V30 2384 H 230.184 3.29901 -2.89935 0
M  V30 2385 H 230.79 1.89492 -3.80753 0
M  V30 2386 N 229.106 1.52395 0.401703 0
M  V30 2387 C 230.383 1.57387 1.16141 0
M  V30 2388 C 230.763 0.359359 2.08019 0
M  V30 2389 O 230.111 -0.65326 2.18963 0
M  V30 2390 C 230.321 2.90631 1.93221 0
M  V30 2391 C 231.669 3.43904 2.49028 0
M  V30 2392 O 232.693 2.92421 2.03393 0
M  V30 2393 O 231.552 4.33823 3.32356 0
M  V30 2394 H 228.646 0.634262 0.530698 0
M  V30 2395 H 231.192 1.64725 0.407883 0
M  V30 2396 H 229.964 3.70473 1.25958 0
M  V30 2397 H 229.587 2.8662 2.75563 0
M  V30 2398 N 230.584 -0.659388 1.43143 0
M  V30 2399 C 231.547 -1.75432 1.47501 0
M  V30 2400 C 232.547 -1.56707 0.360512 0
M  V30 2401 O 233.737 -1.62717 0.622002 0
M  V30 2402 C 230.869 -3.14239 1.32162 0
M  V30 2403 H 232.062 -1.7295 2.45006 0
M  V30 2404 H 229.615 -0.870469 1.29817 0
M  V30 2405 H 230.35 -3.22336 0.356401 0
M  V30 2406 H 230.135 -3.29235 2.12948 0
M  V30 2407 H 231.625 -3.94094 1.3813 0
M  V30 2408 N 232.062 -1.29571 -0.897171 0
M  V30 2409 C 233.473 -1.15964 -1.46319 0
M  V30 2410 C 233.824 0.244267 -1.94674 0
M  V30 2411 O 232.949 1.13998 -1.83939 0
M  V30 2412 C 233.544 -2.09906 -2.65942 0
M  V30 2413 C 232.103 -2.00314 -3.18671 0
M  V30 2414 C 231.25 -2.00687 -1.91363 0
M  V30 2415 H 234.201 -1.42019 -0.708268 0
M  V30 2416 H 234.222 -1.67276 -3.41759 0
M  V30 2417 H 233.734 -3.12075 -2.30718 0
M  V30 2418 H 231.835 -1.01242 -3.58582 0
M  V30 2419 H 231.948 -2.88102 -3.82798 0
M  V30 2420 H 230.312 -1.45319 -2.09175 0
M  V30 2421 H 231.095 -3.04566 -1.58413 0
M  V30 2422 N 233.54 1.10788 -1.12088 0
M  V30 2423 C 234.817 1.79136 -0.785476 0
M  V30 2424 C 235.197 1.98246 0.725377 0
M  V30 2425 O 234.545 1.57258 1.65778 0
M  V30 2426 C 234.755 3.12375 -1.55636 0
M  V30 2427 C 236.103 3.8731 -1.74001 0
M  V30 2428 O 237.127 3.22085 -1.52117 0
M  V30 2429 O 235.986 5.04369 -2.10415 0
M  V30 2430 H 233.08 0.776226 -0.285311 0
M  V30 2431 H 235.626 1.1747 -1.2247 0
M  V30 2432 H 234.398 2.93863 -2.5838 0
M  V30 2433 H 234.021 3.81758 -1.11114 0
M  V30 2434 N 235.018 0.912232 1.28515 0
M  V30 2435 C 236.258 0.551677 1.96814 0
M  V30 2436 C 236.622 -0.887825 1.7024 0
M  V30 2437 O 237.823 -1.35588 2.32098 0
M  V30 2438 C 236.094 0.850555 3.47132 0
M  V30 2439 S 237.653 0.59619 4.34731 0
M  V30 2440 H 234.471 0.204191 0.681049 0
M  V30 2441 H 237.073 1.17736 1.56072 0
M  V30 2442 H 235.777 1.8962 3.63968 0
M  V30 2443 H 235.308 0.213471 3.9282 0
M  V30 2444 H 237.323 -0.553154 4.93107 0
M  V30 2445 N 236.496 -1.42363 0.676048 0
M  V30 2446 C 237.726 -2.05561 0.206967 0
M  V30 2447 C 238.134 -1.50887 -1.14148 0
M  V30 2448 O 237.477 -0.643933 -1.72044 0
M  V30 2449 C 237.539 -3.5944 0.0659508 0
M  V30 2450 C 237.203 -4.36812 1.34331 0
M  V30 2451 C 238.2 -4.67383 2.27704 0
M  V30 2452 C 235.885 -4.76429 1.59125 0
M  V30 2453 C 237.879 -5.36509 3.44147 0
M  V30 2454 C 235.566 -5.45294 2.75857 0
M  V30 2455 C 236.564 -5.75259 3.68193 0
M  V30 2456 O 236.252 -6.42712 4.82883 0
M  V30 2457 H 235.984 -0.668872 0.0979084 0
M  V30 2458 H 238.538 -1.83467 0.923531 0
M  V30 2459 H 236.768 -3.80197 -0.706204 0
M  V30 2460 H 238.457 -4.0427 -0.363418 0
M  V30 2461 H 239.223 -4.37275 2.09799 0
M  V30 2462 H 235.102 -4.52498 0.881258 0
M  V30 2463 H 238.646 -5.59814 4.16238 0
M  V30 2464 H 234.543 -5.7482 2.93688 0
M  V30 2465 H 235.311 -6.61204 4.82444 0
M  V30 2466 N 237.974 -0.419461 -1.51915 0
M  V30 2467 C 238.904 0.391813 -2.30189 0
M  V30 2468 C 239.885 1.03699 -1.34836 0
M  V30 2469 O 241.07 1.04403 -1.63748 0
M  V30 2470 C 238.2 1.50312 -3.13087 0
M  V30 2471 C 237.154 0.9824 -4.16573 0
M  V30 2472 C 236.48 2.18809 -4.8788 0
M  V30 2473 C 237.78 0.0292356 -5.22292 0
M  V30 2474 H 239.474 -0.26135 -2.98257 0
M  V30 2475 H 237.02 -0.127134 -1.43438 0
M  V30 2476 H 238.973 2.07773 -3.66617 0
M  V30 2477 H 237.697 2.18431 -2.42807 0
M  V30 2478 H 236.356 0.430119 -3.64068 0
M  V30 2479 H 236.004 2.85507 -4.14119 0
M  V30 2480 H 235.704 1.84615 -5.57845 0
M  V30 2481 H 237.228 2.76858 -5.44226 0
M  V30 2482 H 238.642 0.512976 -5.71 0
M  V30 2483 H 237.039 -0.2244 -5.9968 0
M  V30 2484 H 238.109 -0.912931 -4.76228 0
M  V30 2485 N 239.452 1.56882 -0.150215 0
M  V30 2486 C 240.677 2.01027 0.510184 0
M  V30 2487 C 241.102 1.02966 1.57415 0
M  V30 2488 O 240.46 0.00590158 1.81299 0
M  V30 2489 C 240.508 3.43899 1.08472 0
M  V30 2490 O 239.612 3.4885 2.19948 0
M  V30 2491 H 238.953 0.652233 0.124451 0
M  V30 2492 H 241.483 2.03093 -0.247894 0
M  V30 2493 H 241.493 3.82766 1.41259 0
M  V30 2494 H 240.168 4.14776 0.305582 0
M  V30 2495 H 238.745 3.21827 1.88366 0
M  V30 2496 N 240.93 -0.123565 1.57115 0
M  V30 2497 C 242.177 -0.832153 1.84612 0
M  V30 2498 C 242.505 -1.80093 0.734627 0
M  V30 2499 O 241.76 -1.93766 -0.27442 0
M  V30 2500 C 242.059 -1.62016 3.18568 0
M  V30 2501 C 241.725 -0.796084 4.43817 0
M  V30 2502 C 240.387 -0.568816 4.77826 0
M  V30 2503 C 242.739 -0.221364 5.2073 0
M  V30 2504 C 240.067 0.243499 5.86194 0
M  V30 2505 C 242.419 0.578117 6.29953 0
M  V30 2506 C 241.083 0.815744 6.62497 0
M  V30 2507 H 240.353 -0.304507 0.675542 0
M  V30 2508 H 243 -0.0947248 1.91266 0
M  V30 2509 H 241.305 -2.42837 3.0747 0
M  V30 2510 H 243.002 -2.17231 3.37064 0
M  V30 2511 H 239.592 -0.983307 4.17168 0
M  V30 2512 H 243.776 -0.384173 4.94811 0
M  V30 2513 H 239.032 0.436871 6.09837 0
M  V30 2514 H 243.206 1.03046 6.88734 0
M  V30 2515 H 240.833 1.44701 7.46301 0
M  V30 2516 N 242.408 -1.52605 -0.393616 0
M  V30 2517 C 243.358 -1.73436 -1.48 0
M  V30 2518 C 244.342 -0.588386 -1.49756 0
M  V30 2519 O 245.534 -0.846047 -1.5547 0
M  V30 2520 C 242.663 -1.90247 -2.85764 0
M  V30 2521 C 241.749 -3.10763 -2.88595 0
M  V30 2522 N 242.14 -4.33196 -2.61103 0
M  V30 2523 C 240.438 -3.10914 -3.19763 0
M  V30 2524 C 241.139 -5.1477 -2.70899 0
M  V30 2525 N 240.115 -4.50356 -3.04435 0
M  V30 2526 H 243.917 -2.65727 -1.25563 0
M  V30 2527 H 241.431 -1.5085 -0.601513 0
M  V30 2528 H 243.428 -2.03291 -3.63976 0
M  V30 2529 H 242.088 -0.991663 -3.09186 0
M  V30 2530 H 243.099 -4.61408 -2.35209 0
M  V30 2531 H 239.776 -2.29626 -3.4868 0
M  V30 2532 H 241.166 -6.22355 -2.53227 0
M  V30 2533 N 243.887 0.651787 -1.4349 0
M  V30 2534 C 244.834 1.76462 -1.4876 0
M  V30 2535 C 245.804 1.62641 -0.337189 0
M  V30 2536 O 246.989 1.82864 -0.544544 0
M  V30 2537 C 244.129 3.14623 -1.41796 0
M  V30 2538 C 243.242 3.39568 -2.67053 0
M  V30 2539 C 242.377 4.67585 -2.52068 0
M  V30 2540 C 241.416 4.85639 -3.72587 0
M  V30 2541 N 240.553 6.04915 -3.56402 0
M  V30 2542 H 245.393 1.71293 -2.43849 0
M  V30 2543 H 242.93 0.835889 -1.21043 0
M  V30 2544 H 244.888 3.94496 -1.35753 0
M  V30 2545 H 243.518 3.18859 -0.50288 0
M  V30 2546 H 242.57 2.53783 -2.8337 0
M  V30 2547 H 243.882 3.48795 -3.56572 0
M  V30 2548 H 243.036 5.55586 -2.4374 0
M  V30 2549 H 241.775 4.60681 -1.60075 0
M  V30 2550 H 240.78 3.96073 -3.81321 0
M  V30 2551 H 242.005 4.94372 -4.65589 0
M  V30 2552 H 239.951 5.9914 -2.67146 0
M  V30 2553 H 239.868 6.15106 -4.39524 0
M  V30 2554 H 241.136 6.95533 -3.51929 0
M  V30 2555 N 245.365 1.30045 0.890287 0
M  V30 2556 C 246.295 1.18541 2.01172 0
M  V30 2557 C 247.276 0.0773356 1.69924 0
M  V30 2558 O 248.461 0.25845 1.92473 0
M  V30 2559 C 245.591 0.870941 3.36202 0
M  V30 2560 C 244.545 1.93637 3.81692 0
M  V30 2561 C 243.871 1.475 5.13953 0
M  V30 2562 C 245.171 3.34666 4.00994 0
M  V30 2563 H 246.865 2.12359 2.11054 0
M  V30 2564 H 244.411 1.02238 1.01407 0
M  V30 2565 H 246.364 0.777141 4.14172 0
M  V30 2566 H 245.088 -0.102926 3.26438 0
M  V30 2567 H 243.747 2.01972 3.05946 0
M  V30 2568 H 243.395 0.489551 5.00612 0
M  V30 2569 H 243.095 2.1876 5.4536 0
M  V30 2570 H 244.619 1.39489 5.94454 0
M  V30 2571 H 246.033 3.2912 4.69417 0
M  V30 2572 H 244.43 4.03966 4.43769 0
M  V30 2573 H 245.5 3.76949 3.05021 0
M  V30 2574 N 246.843 -1.10192 1.12674 0
M  V30 2575 C 247.773 -2.18652 0.819362 0
M  V30 2576 C 248.754 -1.68698 -0.217915 0
M  V30 2577 O 249.939 -1.94041 -0.0785581 0
M  V30 2578 C 247.069 -3.46202 0.27594 0
M  V30 2579 C 246.023 -4.09444 1.24656 0
M  V30 2580 C 245.349 -5.31725 0.563258 0
M  V30 2581 C 246.649 -4.52863 2.60217 0
M  V30 2582 H 248.343 -2.44622 1.72628 0
M  V30 2583 H 245.889 -1.17571 0.831451 0
M  V30 2584 H 247.842 -4.21372 0.0486149 0
M  V30 2585 H 246.566 -3.1973 -0.666331 0
M  V30 2586 H 245.225 -3.36284 1.45974 0
M  V30 2587 H 244.873 -5.0153 -0.384235 0
M  V30 2588 H 244.573 -5.74991 1.21075 0
M  V30 2589 H 246.097 -6.09624 0.34503 0
M  V30 2590 H 247.511 -5.19294 2.42913 0
M  V30 2591 H 245.908 -5.06986 3.21068 0
M  V30 2592 H 246.978 -3.65656 3.18471 0
M  V30 2593 N 248.321 -0.919034 -1.28029 0
M  V30 2594 C 249.251 -0.428581 -2.29533 0
M  V30 2595 C 250.232 0.50659 -1.62381 0
M  V30 2596 O 251.417 0.413195 -1.89753 0
M  V30 2597 C 248.547 0.327388 -3.45753 0
M  V30 2598 C 247.501 -0.519137 -4.2484 0
M  V30 2599 C 246.827 0.365486 -5.33449 0
M  V30 2600 C 248.127 -1.77914 -4.91064 0
M  V30 2601 H 249.821 -1.27687 -2.70807 0
M  V30 2602 H 247.367 -0.615428 -1.30186 0
M  V30 2603 H 249.32 0.681378 -4.15855 0
M  V30 2604 H 248.044 1.20963 -3.03374 0
M  V30 2605 H 246.703 -0.855717 -3.56473 0
M  V30 2606 H 246.351 1.24642 -4.87312 0
M  V30 2607 H 246.051 -0.197356 -5.87268 0
M  V30 2608 H 247.575 0.715241 -6.06396 0
M  V30 2609 H 248.989 -1.49374 -5.53498 0
M  V30 2610 H 247.386 -2.2848 -5.54903 0
M  V30 2611 H 248.456 -2.50382 -4.15255 0
M  V30 2612 N 249.799 1.42003 -0.683588 0
M  V30 2613 C 250.749 2.27997 0.0121992 0
M  V30 2614 C 251.733 1.4156 0.764822 0
M  V30 2615 O 252.925 1.64935 0.642287 0
M  V30 2616 C 250.054 3.29706 0.956482 0
M  V30 2617 C 249.14 4.23625 0.200739 0
M  V30 2618 N 249.531 4.99448 -0.799087 0
M  V30 2619 C 247.829 4.43845 0.437937 0
M  V30 2620 C 248.53 5.68102 -1.25041 0
M  V30 2621 N 247.506 5.40511 -0.578648 0
M  V30 2622 H 251.308 2.84048 -0.754564 0
M  V30 2623 H 248.822 1.54071 -0.513398 0
M  V30 2624 H 250.819 3.90124 1.47 0
M  V30 2625 H 249.479 2.75216 1.72297 0
M  V30 2626 H 250.49 5.04303 -1.17893 0
M  V30 2627 H 247.167 4.00382 1.18325 0
M  V30 2628 H 248.557 6.38913 -2.07942 0
M  V30 2629 N 251.277 0.427512 1.51691 0
M  V30 2630 C 252.207 -0.3796 2.30394 0
M  V30 2631 C 253.188 -1.02982 1.35384 0
M  V30 2632 O 254.373 -1.03534 1.643 0
M  V30 2633 C 251.503 -1.48649 3.1388 0
M  V30 2634 C 250.457 -0.960294 4.17088 0
M  V30 2635 C 249.783 -2.16219 4.89033 0
M  V30 2636 C 251.083 -0.00153679 5.223 0
M  V30 2637 H 252.777 0.277164 2.98114 0
M  V30 2638 H 250.323 0.134739 1.43368 0
M  V30 2639 H 252.276 -2.05826 3.67714 0
M  V30 2640 H 251 -2.1714 2.43962 0
M  V30 2641 H 249.659 -0.410806 3.64291 0
M  V30 2642 H 249.307 -2.83307 4.15628 0
M  V30 2643 H 249.007 -1.81654 5.58816 0
M  V30 2644 H 250.531 -2.73968 5.45687 0
M  V30 2645 H 251.945 -0.482687 5.71264 0
M  V30 2646 H 250.342 0.256199 5.99553 0
M  V30 2647 H 251.412 0.938174 4.75738 0
M  V30 2648 N 252.755 -1.56801 0.158532 0
M  V30 2649 C 253.687 -2.14488 -0.807923 0
M  V30 2650 C 254.7 -1.09721 -1.20271 0
M  V30 2651 O 255.889 -1.36956 -1.14478 0
M  V30 2652 C 252.989 -2.66217 -2.09718 0
M  V30 2653 C 252.162 -3.95507 -1.86796 0
M  V30 2654 C 251.221 -4.3243 -2.99818 0
M  V30 2655 O 250.247 -5.00543 -2.71008 0
M  V30 2656 N 251.449 -3.92947 -4.27285 0
M  V30 2657 H 254.214 -2.98042 -0.314816 0
M  V30 2658 H 251.775 -1.61881 -0.0246692 0
M  V30 2659 H 253.767 -2.87924 -2.84398 0
M  V30 2660 H 252.337 -1.87324 -2.50257 0
M  V30 2661 H 251.557 -3.82309 -0.96089 0
M  V30 2662 H 252.845 -4.79972 -1.68833 0
M  V30 2663 H 252.243 -3.38087 -4.53557 0
M  V30 2664 H 250.8 -4.19681 -4.9871 0
M  V30 2665 N 254.233 0.115231 -1.57178 0
M  V30 2666 C 255.481 0.820727 -1.84685 0
M  V30 2667 C 255.802 1.80237 -0.744279 0
M  V30 2668 O 255.072 1.94529 0.231375 0
M  V30 2669 H 253.652 0.306084 -0.681411 0
M  V30 2670 H 256.314 0.101656 -1.94635 0
M  V30 2671 H 255.41 1.36366 -2.80733 0
M  V30 2672 N 255.711 1.52812 0.385517 0
M  V30 2673 C 256.621 1.80766 1.49535 0
M  V30 2674 C 257.637 0.694651 1.59532 0
M  V30 2675 O 258.813 0.982611 1.75803 0
M  V30 2676 C 255.878 1.97381 2.85029 0
M  V30 2677 C 254.939 3.21295 2.84724 0
M  V30 2678 C 254.172 3.37108 4.13756 0
M  V30 2679 O 254.395 2.5765 5.08893 0
M  V30 2680 O 253.329 4.30378 4.20783 0
M  V30 2681 H 257.155 2.75015 1.28842 0
M  V30 2682 H 254.74 1.37946 0.573697 0
M  V30 2683 H 256.622 2.09996 3.65349 0
M  V30 2684 H 255.297 1.06322 3.05741 0
M  V30 2685 H 254.204 3.1412 2.03174 0
M  V30 2686 H 255.537 4.12212 2.68965 0
M  V30 2687 N 257.189 -0.644168 1.43834 0
M  V30 2688 C 258.605 -0.960875 1.27434 0
M  V30 2689 C 258.805 -2.00499 0.200618 0
M  V30 2690 O 257.861 -2.49018 -0.417906 0
M  V30 2691 C 259.174 -1.43653 2.64167 0
M  V30 2692 C 260.722 -1.55271 2.71772 0
M  V30 2693 C 261.197 -2.06224 4.08944 0
M  V30 2694 N 262.688 -2.13513 4.11055 0
M  V30 2695 C 263.423 -2.54081 5.14033 0
M  V30 2696 N 262.919 -2.9388 6.27381 0
M  V30 2697 N 264.712 -2.54101 5.01387 0
M  V30 2698 H 256.863 0.0465779 2.12349 0
M  V30 2699 H 259.126 -0.0417638 0.94708 0
M  V30 2700 H 258.832 -0.743706 3.43747 0
M  V30 2701 H 258.706 -2.40993 2.90176 0
M  V30 2702 H 261.093 -2.23653 1.92519 0
M  V30 2703 H 261.174 -0.563395 2.49519 0
M  V30 2704 H 260.818 -1.38441 4.88668 0
M  V30 2705 H 260.748 -3.06003 4.28567 0
M  V30 2706 H 263.239 -1.85493 3.29242 0
M  V30 2707 H 263.552 -3.2361 7.01781 0
M  V30 2708 H 261.897 -2.91663 6.30839 0
M  V30 2709 H 265.088 -2.22391 4.11898 0
M  V30 2710 H 265.261 -2.85394 5.81768 0
M  V30 2711 N 258.668 -1.30515 -0.883378 0
M  V30 2712 C 259.578 -1.18959 -2.02203 0
M  V30 2713 C 260.594 -0.109172 -1.73657 0
M  V30 2714 O 261.77 -0.324413 -1.9877 0
M  V30 2715 C 258.835 -0.883871 -3.35244 0
M  V30 2716 C 257.896 -2.04982 -3.77201 0
M  V30 2717 C 257.129 -1.75859 -5.03894 0
M  V30 2718 O 257.352 -0.687276 -5.66244 0
M  V30 2719 O 256.286 -2.61146 -5.42297 0
M  V30 2720 H 260.112 -2.14616 -2.1488 0
M  V30 2721 H 257.697 -1.10124 -1.0096 0
M  V30 2722 H 259.579 -0.728644 -4.15053 0
M  V30 2723 H 258.254 0.0427798 -3.23672 0
M  V30 2724 H 257.161 -2.26038 -2.9809 0
M  V30 2725 H 258.494 -2.95825 -3.93381 0
M  V30 2726 N 260.146 1.09593 -1.13257 0
M  V30 2727 C 261.557 1.63229 -0.906274 0
M  V30 2728 C 261.908 1.8811 0.557578 0
M  V30 2729 O 261.033 1.62953 1.42391 0
M  V30 2730 C 261.628 2.96535 -1.63867 0
M  V30 2731 C 260.187 3.47003 -1.45828 0
M  V30 2732 C 259.334 2.2145 -1.66898 0
M  V30 2733 H 262.285 0.92978 -1.28611 0
M  V30 2734 H 262.306 3.64411 -1.09476 0
M  V30 2735 H 261.818 2.78394 -2.70404 0
M  V30 2736 H 259.919 3.70272 -0.415848 0
M  V30 2737 H 260.032 4.24551 -2.2202 0
M  V30 2738 H 258.396 2.30022 -1.09371 0
M  V30 2739 H 259.179 2.0583 -2.74752 0
M  V30 2740 N 261.624 0.925811 1.2754 0
M  V30 2741 C 262.872 0.564138 1.94067 0
M  V30 2742 C 263.193 -0.897188 1.73134 0
M  V30 2743 O 262.463 -1.63573 1.07799 0
M  V30 2744 H 261.043 0.205645 0.718136 0
M  V30 2745 H 263.705 1.1778 1.55287 0
M  V30 2746 H 262.801 0.76881 3.02483 0
M  V30 2747 N 263.102 -1.41638 0.69111 0
M  V30 2748 C 264.348 -2.02104 0.229258 0
M  V30 2749 C 264.703 -1.53741 -1.15678 0
M  V30 2750 O 263.996 -0.736849 -1.76865 0
M  V30 2751 C 264.19 -3.56714 0.221277 0
M  V30 2752 C 264.019 -4.20083 1.605 0
M  V30 2753 C 262.789 -4.54566 2.20676 0
M  V30 2754 C 264.987 -4.46587 2.55078 0
M  V30 2755 N 262.969 -5.03199 3.5166 0
M  V30 2756 C 264.34 -4.96946 3.70735 0
M  V30 2757 C 266.395 -4.28593 2.53401 0
M  V30 2758 C 265.098 -5.31203 4.8499 0
M  V30 2759 C 267.124 -4.63936 3.66765 0
M  V30 2760 C 266.486 -5.14463 4.81152 0
M  V30 2761 H 262.585 -0.771256 0.12918 0
M  V30 2762 H 265.169 -1.72251 0.907626 0
M  V30 2763 H 263.34 -3.86051 -0.426562 0
M  V30 2764 H 265.072 -4.03896 -0.254983 0
M  V30 2765 H 261.827 -4.4087 1.73005 0
M  V30 2766 H 262.251 -5.31926 4.18789 0
M  V30 2767 H 266.893 -3.88771 1.66184 0
M  V30 2768 H 264.611 -5.69951 5.72871 0
M  V30 2769 H 268.197 -4.51677 3.66714 0
M  V30 2770 H 267.077 -5.41299 5.67419 0
M  V30 2771 N 264.58 -0.43555 -1.51462 0
M  V30 2772 C 265.829 0.133007 -2.01261 0
M  V30 2773 C 266.142 1.43942 -1.32439 0
M  V30 2774 O 267.348 2.09081 -1.73198 0
M  V30 2775 C 265.804 0.287581 -3.58749 0
M  V30 2776 C 265.412 -1.00829 -4.36506 0
M  V30 2777 C 267.156 0.810004 -4.167 0
M  V30 2778 C 265.063 -0.819454 -5.85695 0
M  V30 2779 H 263.993 0.0534822 -0.752101 0
M  V30 2780 H 266.644 -0.565038 -1.74584 0
M  V30 2781 H 265.026 1.04859 -3.81865 0
M  V30 2782 H 266.2 -1.77749 -4.25138 0
M  V30 2783 H 264.515 -1.45911 -3.89999 0
M  V30 2784 H 267.112 0.967743 -5.2587 0
M  V30 2785 H 267.455 1.79196 -3.75758 0
M  V30 2786 H 267.988 0.107357 -3.97655 0
M  V30 2787 H 264.727 -1.77374 -6.31046 0
M  V30 2788 H 264.247 -0.0900208 -5.99732 0
M  V30 2789 H 265.926 -0.471949 -6.45276 0
M  V30 2790 N 266.058 1.56714 -0.166846 0
M  V30 2791 C 267.005 2.17746 0.765193 0
M  V30 2792 C 267.975 1.11614 1.23011 0
M  V30 2793 O 269.16 1.39745 1.29908 0
M  V30 2794 C 266.3 2.81882 1.9909 0
M  V30 2795 C 265.413 4.02462 1.56997 0
M  V30 2796 C 264.548 4.54537 2.749 0
M  V30 2797 C 263.587 5.67538 2.29275 0
M  V30 2798 N 262.724 6.14142 3.40255 0
M  V30 2799 H 267.564 2.97048 0.237952 0
M  V30 2800 H 265.101 1.4672 0.105725 0
M  V30 2801 H 267.059 3.17221 2.70974 0
M  V30 2802 H 265.689 2.05191 2.49192 0
M  V30 2803 H 264.741 3.72973 0.748037 0
M  V30 2804 H 266.053 4.84273 1.19503 0
M  V30 2805 H 265.207 4.92035 3.54946 0
M  V30 2806 H 263.946 3.71774 3.1565 0
M  V30 2807 H 262.951 5.29597 1.47674 0
M  V30 2808 H 264.176 6.52099 1.89588 0
M  V30 2809 H 262.122 5.3431 3.8059 0
M  V30 2810 H 262.039 6.9093 3.06841 0
M  V30 2811 H 263.307 6.56289 4.206 0
M  V30 2812 N 267.536 -0.106894 1.57237 0
M  V30 2813 C 268.468 -1.15646 1.97885 0
M  V30 2814 C 269.481 -1.36981 0.879779 0
M  V30 2815 O 270.67 -1.35841 1.15799 0
M  V30 2816 C 267.77 -2.51425 2.27241 0
M  V30 2817 C 266.943 -2.50529 3.58545 0
M  V30 2818 C 266.002 -3.68145 3.75973 0
M  V30 2819 O 265.028 -3.51176 4.47956 0
M  V30 2820 N 266.23 -4.87177 3.15656 0
M  V30 2821 H 268.995 -0.81059 2.8853 0
M  V30 2822 H 266.556 -0.296024 1.59171 0
M  V30 2823 H 268.548 -3.28689 2.36105 0
M  V30 2824 H 267.118 -2.78147 1.42663 0
M  V30 2825 H 266.338 -1.58894 3.60758 0
M  V30 2826 H 267.626 -2.46997 4.44826 0
M  V30 2827 H 267.024 -5.03868 2.57165 0
M  V30 2828 H 265.581 -5.62075 3.30023 0
M  V30 2829 N 269.014 -1.53014 -0.377408 0
M  V30 2830 C 269.944 -1.81589 -1.46791 0
M  V30 2831 C 270.925 -0.668622 -1.56408 0
M  V30 2832 O 272.11 -0.917337 -1.71168 0
M  V30 2833 C 269.24 -1.99519 -2.8427 0
M  V30 2834 C 268.194 -3.15249 -2.89486 0
M  V30 2835 C 267.52 -3.18451 -4.29527 0
M  V30 2836 C 268.82 -4.54084 -2.58079 0
M  V30 2837 H 270.514 -2.7291 -1.23127 0
M  V30 2838 H 268.06 -1.31319 -0.590883 0
M  V30 2839 H 270.013 -2.18092 -3.60575 0
M  V30 2840 H 268.737 -1.04897 -3.09296 0
M  V30 2841 H 267.396 -2.96477 -2.15631 0
M  V30 2842 H 267.044 -2.2149 -4.5161 0
M  V30 2843 H 266.744 -3.962 -4.33934 0
M  V30 2844 H 268.268 -3.39193 -5.07721 0
M  V30 2845 H 269.682 -4.72899 -3.24098 0
M  V30 2846 H 268.079 -5.33987 -2.7382 0
M  V30 2847 H 269.149 -4.60006 -1.53372 0
M  V30 2848 N 270.492 0.636531 -1.44174 0
M  V30 2849 C 271.739 1.39619 -1.46672 0
M  V30 2850 C 272.067 1.94257 -0.0972691 0
M  V30 2851 O 271.322 1.73768 0.900175 0
M  V30 2852 C 271.621 2.58309 -2.47005 0
M  V30 2853 C 271.287 2.21992 -3.92467 0
M  V30 2854 C 269.949 2.118 -4.32081 0
M  V30 2855 C 272.301 1.9321 -4.84065 0
M  V30 2856 C 269.629 1.71007 -5.61225 0
M  V30 2857 C 271.981 1.53911 -6.13591 0
M  V30 2858 C 270.645 1.42257 -6.52165 0
M  V30 2859 H 269.915 0.510902 -0.536712 0
M  V30 2860 H 272.562 0.722328 -1.77355 0
M  V30 2861 H 270.867 3.30903 -2.09786 0
M  V30 2862 H 272.564 3.16533 -2.46186 0
M  V30 2863 H 269.154 2.30841 -3.61124 0
M  V30 2864 H 273.338 1.99997 -4.54219 0
M  V30 2865 H 268.594 1.60583 -5.89935 0
M  V30 2866 H 272.768 1.30677 -6.8403 0
M  V30 2867 H 270.395 1.10419 -7.52138 0
M  V30 2868 N 271.97 1.30982 0.876444 0
M  V30 2869 C 273.198 1.23242 1.6619 0
M  V30 2870 C 273.613 -0.203345 1.87702 0
M  V30 2871 O 272.97 -1.13317 1.43057 0
M  V30 2872 C 273.021 1.96623 3.03351 0
M  V30 2873 O 272.742 3.34594 2.82804 0
M  V30 2874 C 274.243 1.95644 3.97792 0
M  V30 2875 H 271.463 0.426126 0.518322 0
M  V30 2876 H 274.007 1.7275 1.09442 0
M  V30 2877 H 272.162 1.50892 3.56806 0
M  V30 2878 H 272.576 3.71873 3.69879 0
M  V30 2879 H 274.05 2.51511 4.91372 0
M  V30 2880 H 274.527 0.937395 4.2908 0
M  V30 2881 H 275.133 2.41225 3.50272 0
M  V30 2882 N 273.449 -1.08991 1.13837 0
M  V30 2883 C 274.397 -2.17841 0.815347 0
M  V30 2884 C 275.391 -1.68164 -0.204233 0
M  V30 2885 O 276.597 -1.79897 -0.0609304 0
M  V30 2886 H 272.972 -0.710654 0.245915 0
M  V30 2887 H 274.943 -2.42315 1.74143 0
M  V30 2888 C 273.692 -3.46381 0.302614 0
M  V30 2889 H 273.015 -3.84979 1.0785 0
M  V30 2890 H 274.455 -4.23844 0.115074 0
M  V30 2891 C 272.914 -3.22556 -0.972591 0
M  V30 2892 O 273.444 -3.45599 -2.04754 0
M  V30 2893 N 271.65 -2.76134 -0.905455 0
M  V30 2894 H 271.197 -2.57582 -0.0305421 0
M  V30 2895 H 271.155 -2.60571 -1.75926 0
M  V30 2896 N 274.927 -0.932562 -1.27047 0
M  V30 2897 C 276.174 -0.575559 -1.94148 0
M  V30 2898 C 276.502 0.883984 -1.73251 0
M  V30 2899 O 275.757 1.64655 -1.0577 0
M  V30 2900 C 276.056 -0.853713 -3.47054 0
M  V30 2901 C 275.722 -2.29577 -3.88079 0
M  V30 2902 C 274.384 -2.68999 -3.9899 0
M  V30 2903 C 276.736 -3.23331 -4.08787 0
M  V30 2904 C 274.064 -4.01289 -4.28 0
M  V30 2905 C 276.416 -4.55207 -4.39282 0
M  V30 2906 C 275.08 -4.94457 -4.48407 0
M  V30 2907 H 274.35 -0.210612 -0.710439 0
M  V30 2908 H 276.997 -1.17744 -1.51025 0
M  V30 2909 H 275.302 -0.169204 -3.91434 0
M  V30 2910 H 276.999 -0.55639 -3.97121 0
M  V30 2911 H 273.589 -1.97994 -3.80127 0
M  V30 2912 H 277.773 -2.94074 -3.99793 0
M  V30 2913 H 273.029 -4.31374 -4.33275 0
M  V30 2914 H 277.203 -5.27852 -4.54252 0
M  V30 2915 H 274.83 -5.96994 -4.7064 0
M  V30 2916 N 276.405 1.4127 -0.698611 0
M  V30 2917 C 277.654 2.00408 -0.227949 0
M  V30 2918 C 277.967 1.55981 1.18023 0
M  V30 2919 O 279.173 2.07699 1.74852 0
M  V30 2920 C 277.629 3.58129 -0.356636 0
M  V30 2921 C 277.237 4.11536 -1.77037 0
M  V30 2922 C 278.981 4.24466 0.0540969 0
M  V30 2923 C 276.888 5.61701 -1.85055 0
M  V30 2924 H 275.818 0.749586 -0.0814657 0
M  V30 2925 H 278.469 1.61713 -0.867249 0
M  V30 2926 H 276.851 3.94442 0.350965 0
M  V30 2927 H 278.025 3.86636 -2.50698 0
M  V30 2928 H 276.34 3.57736 -2.13105 0
M  V30 2929 H 278.937 5.34698 0.0146723 0
M  V30 2930 H 279.28 4.01687 1.09332 0
M  V30 2931 H 279.813 3.93198 -0.603337 0
M  V30 2932 H 276.552 5.89312 -2.8704 0
M  V30 2933 H 276.072 5.88519 -1.15783 0
M  V30 2934 H 277.751 6.26524 -1.61484 0
M  V30 2935 N 277.883 0.443576 1.51229 0
M  V30 2936 C 279.108 -0.121648 2.07043 0
M  V30 2937 C 279.533 -1.35156 1.30823 0
M  V30 2938 O 278.891 -1.7793 0.347934 0
M  V30 2939 C 278.939 -0.41624 3.5819 0
M  V30 2940 O 278.043 -1.50163 3.8409 0
M  V30 2941 H 277.384 0.000871367 0.663999 0
M  V30 2942 H 279.914 0.626706 1.94765 0
M  V30 2943 H 279.924 -0.664867 4.02546 0
M  V30 2944 H 278.599 0.482653 4.1309 0
M  V30 2945 H 277.176 -1.24248 3.51592 0
M  V30 2946 N 279.361 -1.56624 0.175154 0
M  V30 2947 C 280.608 -1.96999 -0.468811 0
M  V30 2948 C 280.936 -1.06129 -1.62994 0
M  V30 2949 O 280.191 -0.0961771 -1.95464 0
M  V30 2950 C 280.49 -3.43419 -0.989864 0
M  V30 2951 C 280.156 -4.50866 0.0557687 0
M  V30 2952 C 278.818 -4.79975 0.343134 0
M  V30 2953 C 281.17 -5.15551 0.765308 0
M  V30 2954 C 278.498 -5.71066 1.34536 0
M  V30 2955 C 280.85 -6.07724 1.75654 0
M  V30 2956 C 279.514 -6.35199 2.05132 0
M  V30 2957 H 278.784 -0.720869 -0.17155 0
M  V30 2958 H 281.431 -1.89616 0.267924 0
M  V30 2959 H 279.736 -3.47772 -1.80449 0
M  V30 2960 H 281.433 -3.72002 -1.49719 0
M  V30 2961 H 278.023 -4.28229 -0.178381 0
M  V30 2962 H 282.207 -4.9317 0.556513 0
M  V30 2963 H 277.463 -5.90635 1.57988 0
M  V30 2964 H 281.637 -6.56912 2.31169 0
M  V30 2965 H 279.264 -7.05584 2.8294 0
M  V30 2966 N 280.839 0.0985539 -1.57292 0
M  V30 2967 C 282.067 0.816318 -1.90115 0
M  V30 2968 C 282.482 1.72451 -0.768509 0
M  V30 2969 O 281.839 1.80643 0.259687 0
M  V30 2970 C 281.89 1.63259 -3.22535 0
M  V30 2971 O 281.611 0.760934 -4.31441 0
M  V30 2972 C 283.112 2.45372 -3.69199 0
M  V30 2973 H 280.332 0.233595 -0.629027 0
M  V30 2974 H 282.876 0.0768229 -2.04356 0
M  V30 2975 H 281.031 2.32463 -3.09903 0
M  V30 2976 H 281.445 1.32595 -5.07463 0
M  V30 2977 H 282.919 2.98144 -4.64558 0
M  V30 2978 H 283.396 3.23677 -2.96867 0
M  V30 2979 H 284.002 1.81373 -3.84687 0
M  V30 2980 N 282.317 1.53212 0.369288 0
M  V30 2981 C 283.247 1.82365 1.45826 0
M  V30 2982 C 284.228 0.676907 1.56051 0
M  V30 2983 O 285.413 0.926401 1.70679 0
M  V30 2984 C 282.543 2.01023 2.83208 0
M  V30 2985 C 281.497 3.1678 2.8781 0
M  V30 2986 C 280.823 3.20724 4.27832 0
M  V30 2987 C 282.123 4.55447 2.55667 0
M  V30 2988 H 283.817 2.73559 1.21678 0
M  V30 2989 H 281.363 1.3163 0.583911 0
M  V30 2990 H 283.316 2.20001 3.59413 0
M  V30 2991 H 282.04 1.06536 3.08736 0
M  V30 2992 H 280.699 2.97616 2.14056 0
M  V30 2993 H 280.347 2.23882 4.50429 0
M  V30 2994 H 280.047 3.98496 4.31827 0
M  V30 2995 H 281.571 3.41881 5.05915 0
M  V30 2996 H 282.985 4.74611 3.21586 0
M  V30 2997 H 281.382 5.35432 2.70984 0
M  V30 2998 H 282.452 4.60812 1.5093 0
M  V30 2999 N 283.795 -0.628877 1.44509 0
M  V30 3000 C 284.742 -1.74074 1.51549 0
M  V30 3001 C 285.712 -1.62084 0.363021 0
M  V30 3002 O 286.897 -1.81975 0.573567 0
M  V30 3003 C 284.037 -3.12328 1.46784 0
M  V30 3004 C 283.15 -3.35277 2.72422 0
M  V30 3005 C 282.285 -4.63515 2.59475 0
M  V30 3006 C 281.324 -4.7965 3.80266 0
M  V30 3007 N 280.461 -5.99168 3.65981 0
M  V30 3008 H 285.301 -1.67392 2.46544 0
M  V30 3009 H 282.838 -0.816527 1.22357 0
M  V30 3010 H 284.796 -3.92286 1.42012 0
M  V30 3011 H 283.426 -3.18018 0.553544 0
M  V30 3012 H 282.478 -2.49242 2.87372 0
M  V30 3013 H 283.79 -3.43078 3.62076 0
M  V30 3014 H 282.944 -5.51638 2.52548 0
M  V30 3015 H 281.683 -4.58076 1.67384 0
M  V30 3016 H 280.688 -3.89957 3.87574 0
M  V30 3017 H 281.913 -4.86902 4.73395 0
M  V30 3018 H 279.859 -5.94814 2.76644 0
M  V30 3019 H 279.776 -6.08035 4.49254 0
M  V30 3020 H 281.044 -6.89846 3.6295 0
M  V30 3021 N 285.273 -1.31445 -0.869486 0
M  V30 3022 C 286.203 -1.21727 -1.99261 0
M  V30 3023 C 287.184 -0.104359 -1.6978 0
M  V30 3024 O 288.369 -0.289038 -1.92037 0
M  V30 3025 C 285.499 -0.924317 -3.34774 0
M  V30 3026 C 284.453 -1.99685 -3.78563 0
M  V30 3027 C 283.779 -1.55658 -5.11541 0
M  V30 3028 C 285.079 -3.41003 -3.95619 0
M  V30 3029 H 286.773 -2.1569 -2.07649 0
M  V30 3030 H 284.319 -1.03839 -0.997675 0
M  V30 3031 H 286.272 -0.842934 -4.12883 0
M  V30 3032 H 284.996 0.0509793 -3.2656 0
M  V30 3033 H 283.655 -2.06813 -3.02694 0
M  V30 3034 H 283.303 -0.569132 -4.9977 0
M  V30 3035 H 283.003 -2.27409 -5.41811 0
M  V30 3036 H 284.527 -1.48928 -5.92159 0
M  V30 3037 H 285.941 -3.36547 -4.64122 0
M  V30 3038 H 284.338 -4.10975 -4.37286 0
M  V30 3039 H 285.408 -3.81754 -2.98985 0
M  V30 3040 N 286.751 1.08385 -1.14413 0
M  V30 3041 C 287.997 1.81044 -0.913834 0
M  V30 3042 C 288.33 1.86004 0.558209 0
M  V30 3043 O 287.605 1.33606 1.4135 0
M  V30 3044 C 287.888 3.26648 -1.51569 0
M  V30 3045 C 287.741 3.29895 -3.0576 0
M  V30 3046 C 289.06 4.23629 -1.19273 0
M  V30 3047 H 286.179 0.65727 -0.333414 0
M  V30 3048 H 288.821 1.26896 -1.41412 0
M  V30 3049 H 286.971 3.72889 -1.09023 0
M  V30 3050 H 288.643 2.91977 -3.57137 0
M  V30 3051 H 286.886 2.69163 -3.40197 0
M  V30 3052 H 287.557 4.32516 -3.42977 0
M  V30 3053 H 290.033 3.85727 -1.56057 0
M  V30 3054 H 288.909 5.23822 -1.64017 0
M  V30 3055 H 289.17 4.41968 -0.108068 0
M  V30 3056 N 288.23 0.939286 1.26551 0
M  V30 3057 C 289.16 0.465044 2.28822 0
M  V30 3058 C 290.141 -0.480692 1.63167 0
M  V30 3059 O 291.326 -0.382955 1.90387 0
M  V30 3060 C 288.456 -0.27234 3.46231 0
M  V30 3061 C 287.41 0.58666 4.2396 0
M  V30 3062 C 286.736 -0.280573 5.33963 0
M  V30 3063 C 288.036 1.85704 4.88171 0
M  V30 3064 H 289.73 1.31979 2.68741 0
M  V30 3065 H 287.276 0.636061 1.29191 0
M  V30 3066 H 289.229 -0.615133 4.16886 0
M  V30 3067 H 287.953 -1.16121 3.0526 0
M  V30 3068 H 286.612 0.91232 3.55067 0
M  V30 3069 H 286.26 -1.16874 4.89234 0
M  V30 3070 H 285.96 0.29076 5.8688 0
M  V30 3071 H 287.484 -0.618678 6.07458 0
M  V30 3072 H 288.898 1.58161 5.51052 0
M  V30 3073 H 287.295 2.37279 5.51197 0
M  V30 3074 H 288.365 2.56957 4.11219 0
M  V30 3075 N 289.708 -1.40897 0.706093 0
M  V30 3076 C 290.655 -2.30751 0.0474474 0
M  V30 3077 C 291.625 -1.47678 -0.76029 0
M  V30 3078 O 292.81 -1.76441 -0.726177 0
M  V30 3079 C 289.95 -3.33815 -0.875309 0
M  V30 3080 C 289.063 -4.31961 -0.0580623 0
M  V30 3081 C 288.198 -5.22093 -0.979425 0
M  V30 3082 C 287.237 -6.11902 -0.155706 0
M  V30 3083 N 286.374 -6.94482 -1.03144 0
M  V30 3084 H 291.214 -2.86513 0.819413 0
M  V30 3085 H 288.751 -1.41102 0.415783 0
M  V30 3086 H 290.709 -3.92129 -1.42446 0
M  V30 3087 H 289.339 -2.79579 -1.61356 0
M  V30 3088 H 288.391 -3.75507 0.608147 0
M  V30 3089 H 289.703 -4.95415 0.580082 0
M  V30 3090 H 288.857 -5.85292 -1.59744 0
M  V30 3091 H 287.596 -4.5889 -1.65141 0
M  V30 3092 H 286.601 -5.47742 0.475309 0
M  V30 3093 H 287.826 -6.77162 0.512635 0
M  V30 3094 H 285.772 -6.33877 -1.68924 0
M  V30 3095 H 285.689 -7.54665 -0.449108 0
M  V30 3096 H 286.957 -7.6214 -1.63593 0
M  V30 3097 N 291.186 -0.45159 -1.50991 0
M  V30 3098 C 292.434 0.109857 -2.01801 0
M  V30 3099 C 292.755 1.41958 -1.3369 0
M  V30 3100 O 292.025 1.9003 -0.475951 0
M  V30 3101 H 290.605 0.0435884 -0.745727 0
M  V30 3102 H 293.267 -0.597557 -1.85514 0
M  V30 3103 H 292.363 0.275489 -3.10882 0
M  V30 3104 N 292.664 1.56529 -0.183458 0
M  V30 3105 C 293.596 2.15747 0.773697 0
M  V30 3106 C 294.609 1.1162 1.1851 0
M  V30 3107 O 295.798 1.3876 1.12285 0
M  V30 3108 C 292.898 2.6952 2.05456 0
M  V30 3109 C 292.071 3.98429 1.8048 0
M  V30 3110 C 291.13 4.37145 2.92901 0
M  V30 3111 O 290.156 5.04791 2.6301 0
M  V30 3112 N 291.358 3.99695 4.2098 0
M  V30 3113 H 294.123 2.98505 0.26736 0
M  V30 3114 H 291.684 1.619 -0.0010878 0
M  V30 3115 H 293.676 2.92412 2.79781 0
M  V30 3116 H 292.246 1.91282 2.47245 0
M  V30 3117 H 291.466 3.8379 0.899947 0
M  V30 3118 H 292.754 4.82597 1.61175 0
M  V30 3119 H 292.152 3.4526 4.48121 0
M  V30 3120 H 290.709 4.27562 4.9197 0
M  V30 3121 N 294.142 -0.090211 1.57342 0
M  V30 3122 C 295.391 -0.791531 1.8552 0
M  V30 3123 C 295.704 -1.79659 0.773441 0
M  V30 3124 O 296.91 -2.54616 0.942497 0
M  V30 3125 C 295.366 -1.45856 3.2902 0
M  V30 3126 C 294.974 -0.493017 4.45279 0
M  V30 3127 C 296.718 -2.14332 3.66418 0
M  V30 3128 C 294.625 -1.16491 5.79814 0
M  V30 3129 H 293.555 -0.299356 0.692027 0
M  V30 3130 H 296.206 -0.0445343 1.83446 0
M  V30 3131 H 294.588 -2.25318 3.2565 0
M  V30 3132 H 295.762 0.270464 4.60006 0
M  V30 3133 H 294.077 0.0863061 4.16311 0
M  V30 3134 H 296.674 -2.65344 4.64216 0
M  V30 3135 H 297.017 -2.93447 2.95287 0
M  V30 3136 H 297.55 -1.41724 3.71698 0
M  V30 3137 H 294.289 -0.41447 6.54188 0
M  V30 3138 H 293.809 -1.8997 5.68921 0
M  V30 3139 H 295.488 -1.69001 6.24538 0
M  V30 3140 N 295.62 -1.53406 -0.361157 0
M  V30 3141 C 296.86 -1.71507 -1.11197 0
M  V30 3142 C 297.224 -0.459337 -1.86425 0
M  V30 3143 O 298.425 -0.517102 -2.63779 0
M  V30 3144 C 296.696 -2.93307 -2.0422 0
M  V30 3145 S 298.255 -3.32135 -2.86761 0
M  V30 3146 H 295.073 -0.603448 -0.375995 0
M  V30 3147 H 297.675 -1.91516 -0.392642 0
M  V30 3148 H 296.379 -3.82891 -1.47724 0
M  V30 3149 H 295.91 -2.75712 -2.80618 0
M  V30 3150 H 297.925 -2.84493 -4.06544 0
M  V30 3151 N 297.098 0.621204 -1.44841 0
M  V30 3152 C 298.045 1.73267 -1.5247 0
M  V30 3153 C 299.015 1.6189 -0.371611 0
M  V30 3154 O 300.2 1.81668 -0.58321 0
M  V30 3155 C 297.34 3.11545 -1.48438 0
M  V30 3156 C 296.453 3.33827 -2.74196 0
M  V30 3157 C 295.588 4.62133 -2.61929 0
M  V30 3158 C 294.627 4.77627 -3.82804 0
M  V30 3159 N 293.764 5.97219 -3.69153 0
M  V30 3160 H 298.604 1.66082 -2.47428 0
M  V30 3161 H 296.141 0.810026 -1.22788 0
M  V30 3162 H 298.099 3.91528 -1.4409 0
M  V30 3163 H 296.729 3.1772 -0.570402 0
M  V30 3164 H 295.781 2.47715 -2.88689 0
M  V30 3165 H 297.093 3.41153 -3.6389 0
M  V30 3166 H 296.247 5.50291 -2.5547 0
M  V30 3167 H 294.986 4.57182 -1.69811 0
M  V30 3168 H 293.991 3.87896 -3.89637 0
M  V30 3169 H 295.216 4.84385 -4.75971 0
M  V30 3170 H 293.162 5.93339 -2.79794 0
M  V30 3171 H 293.079 6.05644 -4.52472 0
M  V30 3172 H 294.347 6.87912 -3.66603 0
M  V30 3173 N 298.576 1.31904 0.862503 0
M  V30 3174 C 299.486 1.22161 2.00285 0
M  V30 3175 C 300.502 0.136785 1.73462 0
M  V30 3176 O 301.678 0.355994 1.98229 0
M  V30 3177 C 298.743 0.937093 3.33796 0
M  V30 3178 C 297.804 2.10957 3.73893 0
M  V30 3179 C 297.037 1.83853 5.01033 0
M  V30 3180 O 297.26 0.777274 5.65079 0
M  V30 3181 O 296.194 2.69741 5.38074 0
M  V30 3182 H 300.02 2.18008 2.11439 0
M  V30 3183 H 297.605 1.11716 0.991957 0
M  V30 3184 H 299.487 0.794583 4.13841 0
M  V30 3185 H 298.162 0.00871894 3.23699 0
M  V30 3186 H 297.069 2.30752 2.94456 0
M  V30 3187 H 298.402 3.02046 3.88625 0
M  V30 3188 N 300.054 -1.07777 1.14986 0
M  V30 3189 C 301.303 -1.79669 0.916617 0
M  V30 3190 C 301.616 -1.87474 -0.557917 0
M  V30 3191 O 302.822 -2.55845 -0.908617 0
M  V30 3192 C 301.278 -3.22848 1.59051 0
M  V30 3193 C 300.886 -3.23257 3.10176 0
M  V30 3194 C 302.63 -3.99379 1.43864 0
M  V30 3195 C 300.537 -4.61063 3.70372 0
M  V30 3196 H 299.467 -0.673349 0.33929 0
M  V30 3197 H 302.118 -1.21003 1.37951 0
M  V30 3198 H 300.5 -3.8168 1.0553 0
M  V30 3199 H 301.674 -2.74095 3.70417 0
M  V30 3200 H 299.989 -2.60222 3.25074 0
M  V30 3201 H 302.586 -5.0122 1.86232 0
M  V30 3202 H 302.929 -4.14511 0.385564 0
M  V30 3203 H 303.462 -3.47032 1.94457 0
M  V30 3204 H 300.201 -4.51135 4.7556 0
M  V30 3205 H 299.721 -5.1048 3.14913 0
M  V30 3206 H 301.4 -5.30034 3.71043 0
M  V30 3207 N 301.532 -0.945985 -1.26051 0
M  V30 3208 C 302.48 -0.450259 -2.282 0
M  V30 3209 C 303.474 0.47497 -1.62605 0
M  V30 3210 O 304.68 0.352653 -1.76512 0
M  V30 3211 H 301.055 -0.127081 -0.741184 0
M  V30 3212 H 303.026 -1.32422 -2.67408 0
M  V30 3213 C 301.775 0.26467 -3.46691 0
M  V30 3214 H 301.098 -0.438123 -3.97392 0
M  V30 3215 H 302.538 0.575678 -4.20074 0
M  V30 3216 C 300.997 1.48416 -3.02447 0
M  V30 3217 O 301.527 2.58227 -3.07704 0
M  V30 3218 N 299.733 1.34243 -2.57735 0
M  V30 3219 H 299.28 0.448994 -2.53657 0
M  V30 3220 H 299.238 2.15957 -2.28495 0
M  V30 3221 N 303.011 1.40521 -0.713556 0
M  V30 3222 C 304.257 2.01221 -0.252564 0
M  V30 3223 C 304.59 1.56444 1.1506 0
M  V30 3224 O 303.865 0.783597 1.78017 0
M  V30 3225 C 304.148 3.58582 -0.330332 0
M  V30 3226 C 304.001 4.13437 -1.77173 0
M  V30 3227 C 305.32 4.39079 0.299641 0
M  V30 3228 H 302.439 0.731077 -0.0932471 0
M  V30 3229 H 305.081 1.67026 -0.905673 0
M  V30 3230 H 303.231 3.87844 0.225737 0
M  V30 3231 H 304.903 3.9498 -2.38303 0
M  V30 3232 H 303.146 3.67801 -2.3001 0
M  V30 3233 H 303.817 5.22597 -1.77755 0
M  V30 3234 H 306.293 4.15735 -0.174139 0
M  V30 3235 H 305.169 5.4848 0.214771 0
M  V30 3236 H 305.43 4.19915 1.38288 0
M  V30 3237 N 304.489 0.459591 1.5075 0
M  V30 3238 C 305.738 -0.100971 2.01447 0
M  V30 3239 C 306.051 -1.41816 1.34713 0
M  V30 3240 O 307.257 -2.06299 1.76502 0
M  V30 3241 C 305.713 -0.23047 3.59161 0
M  V30 3242 C 305.321 1.0776 4.34847 0
M  V30 3243 C 307.065 -0.743608 4.17936 0
M  V30 3244 C 304.972 0.91253 5.84317 0
M  V30 3245 H 303.902 -0.0415102 0.752856 0
M  V30 3246 H 306.553 0.592742 1.73663 0
M  V30 3247 H 304.935 -0.987703 3.83485 0
M  V30 3248 H 306.109 1.8449 4.22256 0
M  V30 3249 H 304.424 1.52097 3.87628 0
M  V30 3250 H 307.021 -0.883959 5.27343 0
M  V30 3251 H 307.364 -1.73196 3.78562 0
M  V30 3252 H 307.897 -0.04408 3.97776 0
M  V30 3253 H 304.636 1.87391 6.28144 0
M  V30 3254 H 304.156 0.185422 5.99513 0
M  V30 3255 H 305.835 0.574547 6.44444 0
M  V30 3256 N 305.967 -1.56429 0.191757 0
M  V30 3257 C 307.192 -2.02309 -0.456706 0
M  V30 3258 C 307.617 -1.07103 -1.5463 0
M  V30 3259 O 306.975 -0.0539677 -1.8122 0
M  V30 3260 C 307.023 -3.46654 -0.993159 0
M  V30 3261 O 306.127 -3.54559 -2.10622 0
M  V30 3262 H 305.468 -0.655303 -0.107114 0
M  V30 3263 H 307.998 -2.02364 0.301653 0
M  V30 3264 H 308.008 -3.86377 -1.31061 0
M  V30 3265 H 306.683 -4.1544 -0.195504 0
M  V30 3266 H 305.26 -3.26708 -1.79767 0
M  V30 3267 N 307.445 0.0818655 -1.57387 0
M  V30 3268 C 308.393 1.11712 -2.04018 0
M  V30 3269 C 309.387 1.40683 -0.94364 0
M  V30 3270 O 310.593 1.40209 -1.12878 0
M  V30 3271 H 306.968 0.377542 -0.650358 0
M  V30 3272 H 308.939 0.697614 -2.90131 0
M  V30 3273 C 307.688 2.42537 -2.49141 0
M  V30 3274 H 307.011 2.21092 -3.33104 0
M  V30 3275 H 308.451 3.13446 -2.85531 0
M  V30 3276 C 306.91 3.0778 -1.37014 0
M  V30 3277 O 307.44 3.95436 -0.706621 0
M  V30 3278 N 305.646 2.68242 -1.11779 0
M  V30 3279 H 305.193 1.97052 -1.65917 0
M  V30 3280 H 305.151 3.1222 -0.369594 0
M  V30 3281 N 308.923 1.53595 0.353017 0
M  V30 3282 C 310.172 1.69603 1.09168 0
M  V30 3283 C 310.485 0.460925 1.90092 0
M  V30 3284 O 311.691 0.501774 2.66823 0
M  V30 3285 C 310.147 2.99872 1.9901 0
M  V30 3286 C 309.755 4.30687 1.23339 0
M  V30 3287 C 311.499 3.25246 2.72792 0
M  V30 3288 C 309.406 5.52036 2.12156 0
M  V30 3289 H 308.336 0.631966 0.411261 0
M  V30 3290 H 310.987 1.80096 0.351802 0
M  V30 3291 H 309.369 2.83212 2.7678 0
M  V30 3292 H 310.543 4.58019 0.505456 0
M  V30 3293 H 308.858 4.11853 0.613663 0
M  V30 3294 H 311.455 4.13095 3.39495 0
M  V30 3295 H 311.798 2.41846 3.38846 0
M  V30 3296 H 312.331 3.42638 2.021 0
M  V30 3297 H 309.07 6.37951 1.50659 0
M  V30 3298 H 308.59 5.28966 2.82764 0
M  V30 3299 H 310.269 5.87313 2.71427 0
M  V30 3300 N 310.401 -0.613514 1.45168 0
M  V30 3301 C 311.334 -1.73809 1.47871 0
M  V30 3302 C 312.312 -1.59097 0.33568 0
M  V30 3303 O 313.496 -1.8074 0.535299 0
M  V30 3304 C 310.623 -3.11574 1.32813 0
M  V30 3305 C 309.669 -3.4489 2.50905 0
M  V30 3306 S 310.502 -3.40393 4.13392 0
M  V30 3307 C 311.658 -4.80749 4.00789 0
M  V30 3308 H 311.891 -1.71252 2.43023 0
M  V30 3309 H 309.424 -0.789658 1.32679 0
M  V30 3310 H 311.382 -3.91065 1.24812 0
M  V30 3311 H 310.043 -3.11652 0.391418 0
M  V30 3312 H 309.236 -4.45183 2.36279 0
M  V30 3313 H 308.838 -2.72901 2.55736 0
M  V30 3314 H 311.13 -5.7041 3.65567 0
M  V30 3315 H 312.073 -5.00431 5.00974 0
M  V30 3316 H 312.481 -4.56151 3.32545 0
M  V30 3317 N 311.879 -1.3236 -0.855495 0
M  V30 3318 C 312.842 -1.21164 -1.94556 0
M  V30 3319 C 313.842 -0.134908 -1.60233 0
M  V30 3320 O 315.032 -0.385249 -1.69887 0
M  V30 3321 C 312.164 -0.863192 -3.29791 0
M  V30 3322 H 313.357 -2.18038 -2.05911 0
M  V30 3323 H 310.91 -1.16179 -1.04557 0
M  V30 3324 H 311.645 0.103769 -3.24134 0
M  V30 3325 H 311.43 -1.64166 -3.56078 0
M  V30 3326 H 312.92 -0.809156 -4.09686 0
M  V30 3327 N 313.357 1.07166 -1.15556 0
M  V30 3328 C 314.634 1.76546 -0.842069 0
M  V30 3329 C 315.014 2.00453 0.661939 0
M  V30 3330 O 314.362 1.62452 1.60691 0
M  V30 3331 C 314.572 3.07266 -1.65495 0
M  V30 3332 C 315.92 3.81578 -1.86234 0
M  V30 3333 O 316.944 3.17083 -1.62287 0
M  V30 3334 O 315.803 4.97419 -2.26355 0
M  V30 3335 H 312.897 0.766756 -0.309862 0
M  V30 3336 H 315.443 1.13514 -1.26145 0
M  V30 3337 H 314.215 2.85494 -2.67598 0
M  V30 3338 H 313.838 3.7803 -1.23203 0
M  V30 3339 N 314.835 0.952656 1.25548 0
M  V30 3340 C 316.082 0.606373 1.93208 0
M  V30 3341 C 316.41 -0.85631 1.74636 0
M  V30 3342 O 315.665 -1.62951 1.08376 0
M  V30 3343 C 315.964 0.908818 3.45652 0
M  V30 3344 C 315.63 2.35722 3.84378 0
M  V30 3345 C 314.292 2.75312 3.9466 0
M  V30 3346 C 316.644 3.29793 4.03591 0
M  V30 3347 C 313.972 4.08047 4.21562 0
M  V30 3348 C 316.324 4.62138 4.31985 0
M  V30 3349 C 314.988 5.01528 4.40484 0
M  V30 3350 H 314.258 0.221888 0.706998 0
M  V30 3351 H 316.905 1.20132 1.49133 0
M  V30 3352 H 315.21 0.231456 3.91116 0
M  V30 3353 H 316.907 0.619498 3.96186 0
M  V30 3354 H 313.497 2.04017 3.76928 0
M  V30 3355 H 317.681 3.00397 3.95064 0
M  V30 3356 H 312.937 4.38212 4.26357 0
M  V30 3357 H 317.111 5.35012 4.45797 0
M  V30 3358 H 314.738 6.04406 4.61083 0
M  V30 3359 N 316.313 -1.40141 0.720998 0
M  V30 3360 C 317.559 -2.01084 0.263231 0
M  V30 3361 C 317.892 -1.57052 -1.14229 0
M  V30 3362 O 317.167 -0.793027 -1.77599 0
M  V30 3363 C 317.45 -3.58401 0.349344 0
M  V30 3364 C 317.303 -4.12491 1.79363 0
M  V30 3365 C 318.622 -4.39231 -0.276351 0
M  V30 3366 H 315.741 -0.730572 0.0971228 0
M  V30 3367 H 318.383 -1.66543 0.914518 0
M  V30 3368 H 316.533 -3.87958 -0.205165 0
M  V30 3369 H 318.205 -3.93711 2.40394 0
M  V30 3370 H 316.448 -3.66576 2.31958 0
M  V30 3371 H 317.119 -5.21646 1.80524 0
M  V30 3372 H 319.595 -4.15637 0.196184 0
M  V30 3373 H 318.471 -5.48586 -0.185681 0
M  V30 3374 H 318.732 -4.20643 -1.36059 0
M  V30 3375 N 317.792 -0.46758 -1.50504 0
M  V30 3376 C 318.724 0.364655 -2.26281 0
M  V30 3377 C 319.737 0.960151 -1.31472 0
M  V30 3378 O 320.926 0.849153 -1.57008 0
M  V30 3379 C 318.026 1.52509 -3.02645 0
M  V30 3380 C 317.199 1.04302 -4.24782 0
M  V30 3381 C 316.258 2.07709 -4.8347 0
M  V30 3382 O 315.284 1.65913 -5.44483 0
M  V30 3383 N 316.486 3.40485 -4.70159 0
M  V30 3384 H 319.251 -0.28495 -2.98342 0
M  V30 3385 H 316.812 -0.298163 -1.59131 0
M  V30 3386 H 318.804 2.21371 -3.38787 0
M  V30 3387 H 317.374 2.07945 -2.33404 0
M  V30 3388 H 316.594 0.180393 -3.93787 0
M  V30 3389 H 317.882 0.698798 -5.03978 0
M  V30 3390 H 317.28 3.77155 -4.21629 0
M  V30 3391 H 315.837 4.05156 -5.1058 0
M  V30 3392 N 319.27 1.56325 -0.20005 0
M  V30 3393 C 320.498 2.02105 0.442874 0
M  V30 3394 C 320.913 1.08014 1.5485 0
M  V30 3395 O 320.27 0.0858797 1.82298 0
M  V30 3396 C 320.321 3.47549 0.994583 0
M  V30 3397 O 320.042 4.38049 -0.0669322 0
M  V30 3398 C 321.543 4.0887 1.7129 0
M  V30 3399 H 318.763 0.661807 0.110691 0
M  V30 3400 H 321.307 2.02134 -0.310207 0
M  V30 3401 H 319.462 3.48204 1.69803 0
M  V30 3402 H 319.876 5.23368 0.344462 0
M  V30 3403 H 321.35 5.12475 2.05118 0
M  V30 3404 H 321.827 3.52615 2.61838 0
M  V30 3405 H 322.433 4.12002 1.05518 0
M  V30 3406 N 320.748 -0.0735177 1.57428 0
M  V30 3407 C 322.164 -0.428264 1.53747 0
M  V30 3408 C 322.364 -1.79272 0.91998 0
M  V30 3409 O 321.42 -2.47051 0.521745 0
M  V30 3410 C 322.733 -0.370914 2.98404 0
M  V30 3411 C 324.281 -0.451224 3.0973 0
M  V30 3412 C 324.756 -0.4238 4.56035 0
M  V30 3413 N 326.247 -0.483925 4.60665 0
M  V30 3414 C 326.982 -0.484891 5.71346 0
M  V30 3415 N 326.478 -0.440775 6.91396 0
M  V30 3416 N 328.271 -0.531319 5.59583 0
M  V30 3417 H 320.422 0.819949 1.95935 0
M  V30 3418 H 322.685 0.307493 0.896745 0
M  V30 3419 H 322.391 0.564956 3.47133 0
M  V30 3420 H 322.265 -1.18176 3.5821 0
M  V30 3421 H 324.652 -1.37752 2.60976 0
M  V30 3422 H 324.733 0.388167 2.52838 0
M  V30 3423 H 324.377 0.498638 5.05446 0
M  V30 3424 H 324.307 -1.2807 5.10789 0
M  V30 3425 H 326.798 -0.522338 3.74273 0
M  V30 3426 H 327.111 -0.44539 7.71515 0
M  V30 3427 H 325.456 -0.40749 6.93804 0
M  V30 3428 H 328.647 -0.563464 4.64696 0
M  V30 3429 H 328.82 -0.528603 6.4584 0
M  V30 3430 N 322.226 -1.5378 -0.344866 0
M  V30 3431 C 323.189 -1.80981 -1.40637 0
M  V30 3432 C 324.189 -0.680816 -1.45676 0
M  V30 3433 O 325.379 -0.949095 -1.46075 0
M  V30 3434 C 322.511 -1.95063 -2.79577 0
M  V30 3435 H 323.704 -2.75803 -1.17783 0
M  V30 3436 H 321.257 -1.45173 -0.579181 0
M  V30 3437 H 321.992 -1.02379 -3.07716 0
M  V30 3438 H 321.777 -2.77198 -2.77315 0
M  V30 3439 H 323.267 -2.17629 -3.56409 0
M  V30 3440 N 323.704 0.605807 -1.45491 0
M  V30 3441 C 324.667 1.69836 -1.5391 0
M  V30 3442 C 325.667 1.55261 -0.418424 0
M  V30 3443 O 326.857 1.60296 -0.681965 0
M  V30 3444 C 323.989 3.09117 -1.43734 0
M  V30 3445 H 325.182 1.63738 -2.51257 0
M  V30 3446 H 322.735 0.821689 -1.32959 0
M  V30 3447 H 323.47 3.20791 -0.475788 0
M  V30 3448 H 323.255 3.21104 -2.25021 0
M  V30 3449 H 324.745 3.88696 -1.52661 0
M  V30 3450 N 325.182 1.32811 0.848464 0
M  V30 3451 C 326.407 1.26882 1.6406 0
M  V30 3452 C 326.832 -0.15913 1.87426 0
M  V30 3453 O 326.19 -1.11258 1.43148 0
M  V30 3454 C 326.238 2.03997 2.97351 0
M  V30 3455 O 325.342 1.39201 3.88197 0
M  V30 3456 H 324.683 0.436982 0.499943 0
M  V30 3457 H 327.213 1.75224 1.0563 0
M  V30 3458 H 327.223 2.14403 3.47124 0
M  V30 3459 H 325.898 3.0783 2.79666 0
M  V30 3460 H 324.475 1.37381 3.46671 0
M  V30 3461 N 326.66 -1.06551 1.16123 0
M  V30 3462 C 327.909 -1.78687 0.935622 0
M  V30 3463 C 328.222 -1.88056 -0.538001 0
M  V30 3464 O 329.428 -2.56794 -0.88143 0
M  V30 3465 C 327.884 -3.21143 1.62466 0
M  V30 3466 C 327.492 -3.19949 3.13587 0
M  V30 3467 C 329.236 -3.9783 1.48092 0
M  V30 3468 C 327.143 -4.57108 3.75241 0
M  V30 3469 H 326.073 -0.669712 0.346412 0
M  V30 3470 H 328.724 -1.19534 1.39226 0
M  V30 3471 H 327.106 -3.80539 1.09572 0
M  V30 3472 H 328.28 -2.70151 3.73303 0
M  V30 3473 H 326.595 -2.5676 3.27816 0
M  V30 3474 H 329.192 -4.99217 1.91538 0
M  V30 3475 H 329.535 -4.14078 0.429507 0
M  V30 3476 H 330.068 -3.4495 1.98127 0
M  V30 3477 H 326.807 -4.46065 4.80319 0
M  V30 3478 H 326.327 -5.07111 3.20309 0
M  V30 3479 H 328.006 -5.26069 3.76644 0
M  V30 3480 N 328.138 -0.959301 -1.25041 0
M  V30 3481 C 329.068 -0.501388 -2.28053 0
M  V30 3482 C 330.049 0.454673 -1.63911 0
M  V30 3483 O 331.234 0.352618 -1.90972 0
M  V30 3484 C 328.364 0.217224 -3.4662 0
M  V30 3485 C 327.318 -0.654034 -4.22973 0
M  V30 3486 C 326.644 0.195589 -5.34342 0
M  V30 3487 C 327.944 -1.93447 -4.85155 0
M  V30 3488 H 329.638 -1.36238 -2.66608 0
M  V30 3489 H 327.184 -0.656534 -1.28163 0
M  V30 3490 H 329.137 0.548732 -4.17812 0
M  V30 3491 H 327.861 1.1125 -3.07068 0
M  V30 3492 H 326.52 -0.968693 -3.5357 0
M  V30 3493 H 326.168 1.09076 -4.91031 0
M  V30 3494 H 325.868 -0.384091 -5.86343 0
M  V30 3495 H 327.392 0.521958 -6.08365 0
M  V30 3496 H 328.806 -1.66908 -5.48466 0
M  V30 3497 H 327.203 -2.46018 -5.47353 0
M  V30 3498 H 328.273 -2.63466 -4.07079 0
M  V30 3499 N 329.616 1.39756 -0.72842 0
M  V30 3500 C 330.841 2.05472 -0.282159 0
M  V30 3501 C 331.266 1.54549 1.07221 0
M  V30 3502 O 330.624 0.686372 1.67805 0
M  V30 3503 C 330.672 3.59462 -0.286264 0
M  V30 3504 O 329.776 4.05918 0.728298 0
M  V30 3505 H 329.117 0.651226 -0.129618 0
M  V30 3506 H 331.647 1.78915 -0.992499 0
M  V30 3507 H 331.657 4.07798 -0.128373 0
M  V30 3508 H 330.332 3.95889 -1.27456 0
M  V30 3509 H 328.909 3.69012 0.537081 0
M  V30 3510 N 331.094 0.475555 1.50254 0
M  V30 3511 C 332.371 -0.139685 1.95101 0
M  V30 3512 C 332.751 -1.56555 1.41611 0
M  V30 3513 O 332.099 -2.19956 0.618993 0
M  V30 3514 C 332.309 -0.0784298 3.48912 0
M  V30 3515 C 333.657 -0.265095 4.23772 0
M  V30 3516 O 334.681 -0.154808 3.55863 0
M  V30 3517 O 333.54 -0.488327 5.44314 0
M  V30 3518 H 330.634 -0.109236 0.819754 0
M  V30 3519 H 333.18 0.536276 1.61004 0
M  V30 3520 H 331.952 0.916918 3.80405 0
M  V30 3521 H 331.575 -0.795655 3.89558 0
M  V30 3522 N 332.573 -1.56217 0.208337 0
M  V30 3523 C 333.821 -1.97558 -0.426076 0
M  V30 3524 C 334.142 -1.09683 -1.61229 0
M  V30 3525 O 333.412 -0.170956 -1.95153 0
M  V30 3526 H 331.992 -0.729575 -0.160405 0
M  V30 3527 H 334.654 -1.92606 0.298155 0
M  V30 3528 H 333.75 -3.02672 -0.761312 0
M  V30 3529 N 334.051 0.0651679 -1.57465 0
M  V30 3530 C 335.328 0.79644 -1.78651 0
M  V30 3531 C 335.708 1.95454 -0.797566 0
M  V30 3532 O 335.056 2.27882 0.167946 0
M  V30 3533 C 335.266 1.26322 -3.25337 0
M  V30 3534 C 336.614 1.6939 -3.89348 0
M  V30 3535 O 337.638 1.35872 -3.29268 0
M  V30 3536 O 336.497 2.31471 -4.95059 0
M  V30 3537 H 333.591 0.382157 -0.733407 0
M  V30 3538 H 336.137 0.0447311 -1.69641 0
M  V30 3539 H 334.909 0.434859 -3.88876 0
M  V30 3540 H 334.532 2.07604 -3.39096 0
M  V30 3541 N 335.529 1.53961 0.336706 0
M  V30 3542 C 336.778 1.70751 1.07363 0
M  V30 3543 C 337.091 0.481061 1.89592 0
M  V30 3544 O 338.297 0.530046 2.66276 0
M  V30 3545 C 336.753 3.01965 1.95818 0
M  V30 3546 C 336.361 4.31971 1.18764 0
M  V30 3547 C 338.105 3.28121 2.69327 0
M  V30 3548 C 336.012 5.54255 2.06289 0
M  V30 3549 H 334.942 0.636292 0.404535 0
M  V30 3550 H 337.593 1.80459 0.332681 0
M  V30 3551 H 335.975 2.86132 2.7376 0
M  V30 3552 H 337.149 4.5853 0.456849 0
M  V30 3553 H 335.464 4.12481 0.569946 0
M  V30 3554 H 338.061 4.16673 3.35094 0
M  V30 3555 H 338.404 2.45426 3.36261 0
M  V30 3556 H 338.937 3.44762 1.98454 0
M  V30 3557 H 335.676 6.39513 1.43885 0
M  V30 3558 H 335.196 5.31935 2.77138 0
M  V30 3559 H 336.875 5.90159 2.65182 0
M  V30 3560 N 337.007 -0.598083 1.45811 0
M  V30 3561 C 338.255 -1.35413 1.50026 0
M  V30 3562 C 338.576 -1.94444 0.147177 0
M  V30 3563 O 337.846 -1.77701 -0.824571 0
M  V30 3564 H 336.426 -0.502727 0.552517 0
M  V30 3565 H 339.088 -0.701606 1.81834 0
M  V30 3566 H 338.184 -2.16871 2.2444 0
M  V30 3567 N 338.485 -1.33259 -0.841409 0
M  V30 3568 C 339.731 -1.24757 -1.59886 0
M  V30 3569 C 340.064 0.186913 -1.93298 0
M  V30 3570 O 339.339 1.12757 -1.5848 0
M  V30 3571 C 339.622 -2.12036 -2.91055 0
M  V30 3572 C 339.475 -3.63929 -2.6434 0
M  V30 3573 C 340.794 -1.9916 -3.92458 0
M  V30 3574 H 337.913 -0.454542 -0.580138 0
M  V30 3575 H 340.555 -1.63335 -0.970647 0
M  V30 3576 H 338.705 -1.79265 -3.44669 0
M  V30 3577 H 340.377 -4.06978 -2.17178 0
M  V30 3578 H 338.62 -3.85935 -1.98082 0
M  V30 3579 H 339.291 -4.20341 -3.57796 0
M  V30 3580 H 341.767 -2.27895 -3.48143 0
M  V30 3581 H 340.643 -2.62484 -4.82072 0
M  V30 3582 H 340.904 -0.963082 -4.31482 0
M  V30 3583 N 339.963 1.05934 -1.16686 0
M  V30 3584 C 341.24 1.75643 -0.860747 0
M  V30 3585 C 341.62 2.01144 0.640641 0
M  V30 3586 O 340.968 1.64147 1.58959 0
M  V30 3587 C 341.178 3.05493 -1.68745 0
M  V30 3588 C 342.526 3.79581 -1.90271 0
M  V30 3589 O 343.55 3.15344 -1.65641 0
M  V30 3590 O 342.409 4.9499 -2.31618 0
M  V30 3591 H 339.503 0.763426 -0.317977 0
M  V30 3592 H 342.049 1.1217 -1.27342 0
M  V30 3593 H 340.821 2.8264 -2.70611 0
M  V30 3594 H 340.444 3.76702 -1.27206 0
M  V30 3595 N 341.441 0.965919 1.2453 0
M  V30 3596 C 342.69 0.622437 1.91856 0
M  V30 3597 C 343.003 -0.846006 1.76358 0
M  V30 3598 O 344.209 -1.29993 2.38357 0
M  V30 3599 C 342.665 1.0626 3.43856 0
M  V30 3600 C 342.273 2.55437 3.68043 0
M  V30 3601 C 344.017 0.792183 4.17043 0
M  V30 3602 C 341.924 2.93196 5.13605 0
M  V30 3603 H 340.854 0.229092 0.718354 0
M  V30 3604 H 343.505 1.17189 1.41206 0
M  V30 3605 H 341.887 0.441476 3.93531 0
M  V30 3606 H 343.061 3.22665 3.28974 0
M  V30 3607 H 341.376 2.8007 3.08139 0
M  V30 3608 H 343.973 1.05031 5.24283 0
M  V30 3609 H 344.316 -0.271584 4.15413 0
M  V30 3610 H 344.849 1.37419 3.73311 0
M  V30 3611 H 341.588 3.98636 5.20355 0
M  V30 3612 H 341.108 2.30651 5.53679 0
M  V30 3613 H 342.787 2.83004 5.81823 0
M  V30 3614 N 342.919 -1.39368 0.735821 0
M  V30 3615 C 344.144 -2.05319 0.293052 0
M  V30 3616 C 344.569 -1.55115 -1.064 0
M  V30 3617 O 343.927 -0.695261 -1.67439 0
M  V30 3618 C 343.975 -3.59305 0.305323 0
M  V30 3619 O 343.079 -4.06299 -0.706761 0
M  V30 3620 H 342.42 -0.650529 0.13307 0
M  V30 3621 H 344.95 -1.78386 1.00197 0
M  V30 3622 H 344.96 -4.07724 0.149997 0
M  V30 3623 H 343.635 -3.95207 1.29553 0
M  V30 3624 H 342.212 -3.69292 -0.517504 0
M  V30 3625 N 344.397 -0.483516 -1.5 0
M  V30 3626 C 345.327 0.293829 -2.31644 0
M  V30 3627 C 346.308 0.978864 -1.39112 0
M  V30 3628 O 347.493 0.973644 -1.68029 0
M  V30 3629 C 344.623 1.36897 -3.19181 0
M  V30 3630 C 343.577 0.804833 -4.20365 0
M  V30 3631 C 342.903 1.9792 -4.96721 0
M  V30 3632 C 344.203 -0.192313 -5.21946 0
M  V30 3633 H 345.897 -0.387616 -2.9688 0
M  V30 3634 H 343.443 -0.187856 -1.42769 0
M  V30 3635 H 345.396 1.92037 -3.751 0
M  V30 3636 H 344.12 2.07936 -2.51853 0
M  V30 3637 H 342.779 0.275319 -3.65565 0
M  V30 3638 H 342.427 2.67686 -4.25856 0
M  V30 3639 H 342.127 1.60789 -5.65173 0
M  V30 3640 H 343.651 2.53526 -5.55479 0
M  V30 3641 H 345.065 0.270333 -5.72662 0
M  V30 3642 H 343.462 -0.478543 -5.98189 0
M  V30 3643 H 344.532 -1.11409 -4.71928 0
M  V30 3644 N 345.875 1.56104 -0.216619 0
M  V30 3645 C 347.103 2.02563 0.421413 0
M  V30 3646 C 347.518 1.0965 1.53695 0
M  V30 3647 O 346.875 0.10521 1.82196 0
M  V30 3648 C 346.926 3.48584 0.957665 0
M  V30 3649 O 346.647 4.37953 -0.113389 0
M  V30 3650 C 348.148 4.10664 1.66943 0
M  V30 3651 H 345.368 0.662944 0.103665 0
M  V30 3652 H 347.912 2.01793 -0.331629 0
M  V30 3653 H 346.067 3.49985 1.661 0
M  V30 3654 H 346.481 5.23704 0.288932 0
M  V30 3655 H 347.955 5.14622 1.99671 0
M  V30 3656 H 348.432 3.55373 2.58083 0
M  V30 3657 H 349.038 4.13098 1.01142 0
M  V30 3658 N 347.353 -0.0568162 1.57498 0
M  V30 3659 C 348.601 -0.751617 1.87604 0
M  V30 3660 C 348.922 -1.77351 0.81066 0
M  V30 3661 O 348.192 -1.95254 -0.159018 0
M  V30 3662 H 346.772 -0.280583 0.692302 0
M  V30 3663 H 349.434 -0.0293483 1.94878 0
M  V30 3664 H 348.53 -1.25852 2.856 0
M  V30 3665 N 348.832 -1.54138 -0.328536 0
M  V30 3666 C 350.109 -1.62749 -1.08499 0
M  V30 3667 C 350.489 -0.458198 -2.06067 0
M  V30 3668 O 349.837 0.548046 -2.2183 0
M  V30 3669 C 350.047 -2.99519 -1.79135 0
M  V30 3670 C 351.395 -3.55394 -2.32337 0
M  V30 3671 O 352.419 -3.01792 -1.89209 0
M  V30 3672 O 351.278 -4.49186 -3.11279 0
M  V30 3673 H 348.372 -0.65886 -0.499832 0
M  V30 3674 H 350.918 -1.66484 -0.328826 0
M  V30 3675 H 349.69 -3.76061 -1.08139 0
M  V30 3676 H 349.313 -2.99441 -2.61574 0
M  V30 3677 N 350.31 0.590341 -1.46126 0
M  V30 3678 C 351.721 1.17243 -1.45296 0
M  V30 3679 C 352.072 1.95281 -0.189723 0
M  V30 3680 O 351.197 2.04502 0.707674 0
M  V30 3681 C 351.792 2.13284 -2.6324 0
M  V30 3682 C 350.351 2.66832 -2.65476 0
M  V30 3683 C 349.498 1.42557 -2.3785 0
M  V30 3684 H 352.449 0.378692 -1.54116 0
M  V30 3685 H 352.47 2.96619 -2.38323 0
M  V30 3686 H 351.982 1.56459 -3.55165 0
M  V30 3687 H 350.083 3.27548 -1.77603 0
M  V30 3688 H 350.196 3.10088 -3.65215 0
M  V30 3689 H 348.56 1.72107 -1.87753 0
M  V30 3690 H 349.343 0.875741 -3.31942 0
M  V30 3691 N 351.788 1.33704 0.83433 0
M  V30 3692 C 353.034 1.25603 1.59222 0
M  V30 3693 C 353.367 -0.176659 1.93395 0
M  V30 3694 O 352.642 -1.11915 1.59076 0
M  V30 3695 C 352.925 2.13576 2.89926 0
M  V30 3696 C 352.778 3.65326 2.62406 0
M  V30 3697 C 354.097 2.01238 3.91397 0
M  V30 3698 H 351.216 0.457613 0.577719 0
M  V30 3699 H 353.858 1.63848 0.961972 0
M  V30 3700 H 352.008 1.8109 3.43713 0
M  V30 3701 H 353.68 4.08124 2.15017 0
M  V30 3702 H 351.923 3.8698 1.96033 0
M  V30 3703 H 352.594 4.22232 3.55562 0
M  V30 3704 H 355.07 2.29738 3.46929 0
M  V30 3705 H 353.946 2.65036 4.80673 0
M  V30 3706 H 354.207 0.985951 4.30966 0
M  V30 3707 N 353.266 -1.05314 1.17247 0
M  V30 3708 C 354.515 -1.77685 0.954521 0
M  V30 3709 C 354.828 -1.88616 -0.518025 0
M  V30 3710 O 356.034 -2.57714 -0.854144 0
M  V30 3711 C 354.49 -3.19402 1.65863 0
M  V30 3712 C 354.098 -3.16605 3.16963 0
M  V30 3713 C 355.842 -3.96237 1.52303 0
M  V30 3714 C 353.749 -4.53103 3.80068 0
M  V30 3715 H 352.679 -0.666 0.353496 0
M  V30 3716 H 355.33 -1.1805 1.40486 0
M  V30 3717 H 353.712 -3.79355 1.13602 0
M  V30 3718 H 354.886 -2.66176 3.76148 0
M  V30 3719 H 353.201 -2.53268 3.30521 0
M  V30 3720 H 355.798 -4.97157 1.96822 0
M  V30 3721 H 356.141 -4.136 0.473401 0
M  V30 3722 H 356.674 -3.42829 2.01775 0
M  V30 3723 H 353.413 -4.40946 4.85023 0
M  V30 3724 H 352.933 -5.03686 3.2567 0
M  V30 3725 H 354.612 -5.22045 3.82202 0
M  V30 3726 N 354.744 -0.972509 -1.24016 0
M  V30 3727 C 355.972 -0.654803 -1.96265 0
M  V30 3728 C 356.387 0.776708 -1.72083 0
M  V30 3729 O 355.744 1.52171 -1.00748 0
M  V30 3730 C 355.795 -0.92592 -3.49441 0
M  V30 3731 O 355.516 -2.30116 -3.72798 0
M  V30 3732 C 357.017 -0.623068 -4.38899 0
M  V30 3733 H 354.237 -0.243907 -0.6251 0
M  V30 3734 H 356.781 -1.30175 -1.57717 0
M  V30 3735 H 354.936 -0.325108 -3.86033 0
M  V30 3736 H 355.35 -2.38483 -4.67147 0
M  V30 3737 H 356.824 -0.863189 -5.45209 0
M  V30 3738 H 357.301 0.442754 -4.36963 0
M  V30 3739 H 357.907 -1.204 -4.07902 0
M  V30 3740 N 356.222 1.38976 -0.743202 0
M  V30 3741 C 357.185 2.28901 -0.117014 0
M  V30 3742 C 358.185 1.46698 0.658503 0
M  V30 3743 O 359.375 1.67274 0.486305 0
M  V30 3744 C 356.507 3.30309 0.84315 0
M  V30 3745 H 357.7 2.8578 -0.909373 0
M  V30 3746 H 355.253 1.47761 -0.509547 0
M  V30 3747 H 355.988 2.785 1.66157 0
M  V30 3748 H 355.773 3.91029 0.289594 0
M  V30 3749 H 357.263 3.97577 1.2776 0
M  V30 3750 N 357.7 0.491464 1.49741 0
M  V30 3751 C 358.925 -0.0557177 2.07325 0
M  V30 3752 C 359.35 -1.30925 1.35056 0
M  V30 3753 O 358.708 -1.76733 0.404365 0
M  V30 3754 C 358.756 -0.302074 3.59333 0
M  V30 3755 O 357.86 -1.37868 3.88672 0
M  V30 3756 H 357.201 0.0219956 0.663636 0
M  V30 3757 H 359.731 0.688352 1.92673 0
M  V30 3758 H 359.741 -0.536464 4.04458 0
M  V30 3759 H 358.416 0.61383 4.11345 0
M  V30 3760 H 356.993 -1.12999 3.55367 0
M  V30 3761 N 359.178 -1.55987 0.224894 0
M  V30 3762 C 360.408 -2.02489 -0.41007 0
M  V30 3763 C 360.816 -1.10391 -1.53657 0
M  V30 3764 O 360.159 -0.106458 -1.83391 0
M  V30 3765 C 360.221 -3.45319 -0.999757 0
M  V30 3766 C 359.885 -4.56999 -0.00827976 0
M  V30 3767 C 360.882 -5.13812 0.793314 0
M  V30 3768 C 358.567 -5.02176 0.111442 0
M  V30 3769 C 360.561 -6.14276 1.7013 0
M  V30 3770 C 358.248 -6.02477 1.02296 0
M  V30 3771 C 359.246 -6.58403 1.81643 0
M  V30 3772 O 358.934 -7.56751 2.71262 0
M  V30 3773 H 358.666 -0.667915 -0.104235 0
M  V30 3774 H 361.22 -2.0257 0.339782 0
M  V30 3775 H 359.45 -3.42318 -1.79876 0
M  V30 3776 H 361.139 -3.7545 -1.54248 0
M  V30 3777 H 361.905 -4.79756 0.711288 0
M  V30 3778 H 357.784 -4.58323 -0.49605 0
M  V30 3779 H 361.328 -6.57854 2.32107 0
M  V30 3780 H 357.225 -6.35954 1.10599 0
M  V30 3781 H 357.993 -7.74286 2.65375 0
M  V30 3782 N 360.656 0.0484629 -1.57525 0
M  V30 3783 C 361.586 1.0549 -2.08313 0
M  V30 3784 C 362.567 1.38929 -0.981463 0
M  V30 3785 O 363.752 1.48151 -1.25558 0
M  V30 3786 C 360.882 2.36162 -2.54646 0
M  V30 3787 C 359.836 2.17016 -3.68901 0
M  V30 3788 C 359.162 3.53278 -4.01371 0
M  V30 3789 C 360.462 1.57219 -4.98076 0
M  V30 3790 H 362.156 0.632195 -2.92649 0
M  V30 3791 H 359.702 0.302654 -1.40784 0
M  V30 3792 H 361.655 3.06882 -2.88793 0
M  V30 3793 H 360.379 2.80456 -1.67368 0
M  V30 3794 H 359.038 1.48733 -3.35073 0
M  V30 3795 H 358.686 3.95185 -3.11188 0
M  V30 3796 H 358.386 3.41299 -4.78318 0
M  V30 3797 H 359.91 4.25391 -4.38035 0
M  V30 3798 H 361.324 2.17832 -5.30304 0
M  V30 3799 H 359.721 1.55871 -5.79503 0
M  V30 3800 H 360.791 0.535956 -4.81929 0
M  V30 3801 N 362.134 1.5431 0.320358 0
M  V30 3802 C 363.044 1.86946 1.41734 0
M  V30 3803 C 364.06 0.761689 1.56443 0
M  V30 3804 O 365.236 1.05629 1.71477 0
M  V30 3805 C 362.301 2.09293 2.76401 0
M  V30 3806 C 361.362 3.33082 2.70841 0
M  V30 3807 C 360.595 3.54353 3.99086 0
M  V30 3808 O 360.818 2.79002 4.97508 0
M  V30 3809 O 359.752 4.47838 4.0215 0
M  V30 3810 H 363.578 2.80232 1.17062 0
M  V30 3811 H 361.163 1.40255 0.514673 0
M  V30 3812 H 363.045 2.25303 3.56113 0
M  V30 3813 H 361.72 1.19194 3.00956 0
M  V30 3814 H 360.627 3.22454 1.89668 0
M  V30 3815 H 361.96 4.23249 2.5124 0
M  V30 3816 N 363.613 -0.582584 1.46437 0
M  V30 3817 C 364.838 -1.37168 1.55563 0
M  V30 3818 C 365.263 -1.87061 0.19743 0
M  V30 3819 O 364.621 -1.61572 -0.822451 0
M  V30 3820 C 364.669 -2.53511 2.56446 0
M  V30 3821 O 363.773 -3.54953 2.09958 0
M  V30 3822 H 363.114 -0.408494 0.523477 0
M  V30 3823 H 365.644 -0.706646 1.9201 0
M  V30 3824 H 365.654 -3.00426 2.76058 0
M  V30 3825 H 364.329 -2.16549 3.55076 0
M  V30 3826 H 362.906 -3.14516 2.00334 0
M  V30 3827 N 365.091 -1.34144 -0.827227 0
M  V30 3828 C 366.041 -1.21923 -1.92663 0
M  V30 3829 C 367.025 -0.119294 -1.60457 0
M  V30 3830 O 368.217 -0.348539 -1.73534 0
M  V30 3831 C 365.346 -0.972492 -3.29238 0
M  V30 3832 C 364.432 -2.1154 -3.67576 0
M  V30 3833 N 364.823 -3.36627 -3.77512 0
M  V30 3834 C 363.121 -2.02468 -3.97395 0
M  V30 3835 C 363.822 -4.11658 -4.1099 0
M  V30 3836 N 362.798 -3.40207 -4.23981 0
M  V30 3837 H 366.6 -2.16721 -1.98517 0
M  V30 3838 H 364.114 -1.2632 -1.02064 0
M  V30 3839 H 366.111 -0.865847 -4.0781 0
M  V30 3840 H 364.771 -0.0331509 -3.24683 0
M  V30 3841 H 365.782 -3.71234 -3.61118 0
M  V30 3842 H 362.459 -1.16265 -4.00985 0
M  V30 3843 H 363.849 -5.19657 -4.25918 0
M  V30 3844 N 366.569 1.04691 -1.17803 0
M  V30 3845 C 367.519 2.10856 -0.867391 0
M  V30 3846 C 368.503 1.601 0.160206 0
M  V30 3847 O 369.695 1.76948 -0.042947 0
M  V30 3848 C 366.824 3.411 -0.388012 0
M  V30 3849 C 365.91 3.9864 -1.44732 0
M  V30 3850 N 366.301 4.30075 -2.66212 0
M  V30 3851 C 364.599 4.26439 -1.30637 0
M  V30 3852 C 365.3 4.76033 -3.34317 0
M  V30 3853 N 364.276 4.76462 -2.61696 0
M  V30 3854 H 368.078 2.33029 -1.79094 0
M  V30 3855 H 365.592 1.22386 -1.0675 0
M  V30 3856 H 367.589 4.16641 -0.146994 0
M  V30 3857 H 366.249 3.20357 0.529271 0
M  V30 3858 H 367.26 4.19917 -3.03134 0
M  V30 3859 H 363.937 4.15056 -0.451129 0
M  V30 3860 H 365.327 5.09427 -4.38103 0
M  V30 3861 N 368.047 0.979072 1.23499 0
M  V30 3862 C 368.994 0.517904 2.24914 0
M  V30 3863 C 369.964 -0.442525 1.60097 0
M  V30 3864 O 371.149 -0.350365 1.87556 0
M  V30 3865 C 368.289 -0.174813 3.44657 0
M  V30 3866 C 367.402 0.825721 4.24035 0
M  V30 3867 C 366.537 0.107946 5.3109 0
M  V30 3868 C 365.576 1.09778 6.02175 0
M  V30 3869 N 364.713 0.40925 7.00906 0
M  V30 3870 H 369.553 1.38751 2.63727 0
M  V30 3871 H 367.09 0.695303 1.2963 0
M  V30 3872 H 369.048 -0.593233 4.12961 0
M  V30 3873 H 367.678 -1.0083 3.06648 0
M  V30 3874 H 366.73 1.36253 3.55161 0
M  V30 3875 H 368.042 1.58005 4.73113 0
M  V30 3876 H 367.196 -0.367904 6.05583 0
M  V30 3877 H 365.935 -0.678994 4.8295 0
M  V30 3878 H 364.94 1.5844 5.26476 0
M  V30 3879 H 366.165 1.88536 6.52404 0
M  V30 3880 H 364.111 -0.358506 6.5502 0
M  V30 3881 H 364.028 1.10226 7.47921 0
M  V30 3882 H 365.296 -0.0442557 7.79487 0
M  V30 3883 N 369.525 -1.3858 0.750561 0
M  V30 3884 C 370.773 -1.99789 0.30477 0
M  V30 3885 C 371.094 -1.59874 -1.11649 0
M  V30 3886 O 370.364 -0.85417 -1.76297 0
M  V30 3887 H 368.944 -0.738902 0.109694 0
M  V30 3888 H 371.606 -1.69391 0.963983 0
M  V30 3889 H 370.702 -3.09952 0.365499 0
M  V30 3890 N 371.003 -0.499398 -1.49478 0
M  V30 3891 C 371.953 0.299103 -2.2603 0
M  V30 3892 C 372.937 0.936934 -1.30807 0
M  V30 3893 O 374.129 0.844798 -1.55538 0
M  V30 3894 C 371.258 1.36391 -3.15044 0
M  V30 3895 C 370.344 0.732398 -4.17728 0
M  V30 3896 N 370.735 -0.164028 -5.05534 0
M  V30 3897 C 369.033 0.993162 -4.34801 0
M  V30 3898 C 369.734 -0.525345 -5.79323 0
M  V30 3899 N 368.71 0.106348 -5.43496 0
M  V30 3900 H 372.512 -0.391003 -2.91287 0
M  V30 3901 H 370.026 -0.31537 -1.59308 0
M  V30 3902 H 372.023 1.94939 -3.68516 0
M  V30 3903 H 370.683 2.05571 -2.51338 0
M  V30 3904 H 371.694 -0.534736 -5.15132 0
M  V30 3905 H 368.371 1.67783 -3.82302 0
M  V30 3906 H 369.761 -1.25862 -6.60006 0
M  V30 3907 N 372.481 1.55866 -0.233164 0
M  V30 3908 C 373.728 1.98603 0.395374 0
M  V30 3909 C 374.056 1.12105 1.58942 0
M  V30 3910 O 373.311 0.168656 1.94972 0
M  V30 3911 C 373.61 3.46856 0.861724 0
M  V30 3912 C 373.276 4.50348 -0.223066 0
M  V30 3913 C 371.938 4.78371 -0.521038 0
M  V30 3914 C 374.29 5.12355 -0.956124 0
M  V30 3915 C 371.618 5.6568 -1.55638 0
M  V30 3916 C 373.97 6.00786 -1.98089 0
M  V30 3917 C 372.634 6.27148 -2.28565 0
M  V30 3918 H 371.904 0.726739 0.144677 0
M  V30 3919 H 374.551 1.88491 -0.338114 0
M  V30 3920 H 372.856 3.5423 1.67418 0
M  V30 3921 H 374.553 3.77302 1.35809 0
M  V30 3922 H 371.143 4.28596 0.0193234 0
M  V30 3923 H 375.327 4.90765 -0.739166 0
M  V30 3924 H 370.583 5.84365 -1.798 0
M  V30 3925 H 374.757 6.4788 -2.55391 0
M  V30 3926 H 372.384 6.94597 -3.08932 0
M  V30 3927 N 373.959 -0.0401083 1.57549 0
M  V30 3928 C 375.208 -0.732108 1.87944 0
M  V30 3929 C 375.521 -1.77107 0.830206 0
M  V30 3930 O 376.727 -2.51488 1.02302 0
M  V30 3931 C 375.183 -1.35315 3.33494 0
M  V30 3932 C 374.791 -0.351105 4.46622 0
M  V30 3933 C 376.535 -2.02566 3.73051 0
M  V30 3934 C 374.442 -0.979859 5.83226 0
M  V30 3935 H 373.372 -0.277188 0.701201 0
M  V30 3936 H 376.023 0.0138501 1.83495 0
M  V30 3937 H 374.405 -2.14844 3.32653 0
M  V30 3938 H 375.579 0.416674 4.58912 0
M  V30 3939 H 373.894 0.218708 4.15825 0
M  V30 3940 H 376.491 -2.50441 4.72423 0
M  V30 3941 H 376.834 -2.83904 3.04474 0
M  V30 3942 H 377.367 -1.29827 3.76018 0
M  V30 3943 H 374.106 -0.206135 6.55176 0
M  V30 3944 H 373.626 -1.71774 5.74677 0
M  V30 3945 H 375.305 -1.49046 6.29599 0
M  V30 3946 N 375.437 -1.54477 -0.31217 0
M  V30 3947 C 376.667 -1.76948 -1.06645 0
M  V30 3948 C 377.075 -0.523593 -1.81811 0
M  V30 3949 O 376.418 0.51578 -1.76311 0
M  V30 3950 C 376.48 -2.91668 -2.10166 0
M  V30 3951 C 376.144 -4.30165 -1.54296 0
M  V30 3952 C 377.141 -5.10603 -0.978793 0
M  V30 3953 C 374.826 -4.76738 -1.58196 0
M  V30 3954 C 376.82 -6.3573 -0.461048 0
M  V30 3955 C 374.507 -6.01831 -1.06034 0
M  V30 3956 C 375.505 -6.81161 -0.500844 0
M  V30 3957 O 375.193 -8.03899 0.0128958 0
M  V30 3958 H 374.925 -0.594088 -0.322546 0
M  V30 3959 H 377.479 -2.02213 -0.360441 0
M  V30 3960 H 375.709 -2.62001 -2.84416 0
M  V30 3961 H 377.398 -3.01817 -2.71406 0
M  V30 3962 H 378.164 -4.75771 -0.941651 0
M  V30 3963 H 374.043 -4.15027 -2.00683 0
M  V30 3964 H 377.587 -6.97596 -0.0236894 0
M  V30 3965 H 373.484 -6.36152 -1.09459 0
M  V30 3966 H 374.252 -8.18437 -0.101457 0
M  V30 3967 N 376.915 0.57481 -1.46744 0
M  V30 3968 C 377.862 1.68329 -1.57905 0
M  V30 3969 C 378.832 1.60625 -0.422927 0
M  V30 3970 O 380.017 1.79721 -0.640711 0
M  V30 3971 C 377.157 3.06665 -1.58274 0
M  V30 3972 C 376.27 3.24935 -2.84678 0
M  V30 3973 C 375.405 4.53566 -2.76499 0
M  V30 3974 C 374.444 4.65207 -3.97806 0
M  V30 3975 N 373.581 5.85172 -3.87967 0
M  V30 3976 H 378.421 1.58127 -2.52587 0
M  V30 3977 H 375.958 0.770552 -1.25303 0
M  V30 3978 H 377.916 3.86745 -1.56473 0
M  V30 3979 H 376.546 3.15745 -0.671194 0
M  V30 3980 H 375.598 2.38405 -2.96424 0
M  V30 3981 H 376.91 3.29403 -3.7456 0
M  V30 3982 H 376.064 5.41885 -2.72848 0
M  V30 3983 H 374.803 4.51548 -1.8427 0
M  V30 3984 H 373.808 3.75304 -4.0178 0
M  V30 3985 H 375.033 4.68997 -4.9114 0
M  V30 3986 H 372.979 5.84137 -2.98529 0
M  V30 3987 H 372.896 5.90943 -4.71511 0
M  V30 3988 H 374.164 6.759 -3.88303 0
M  V30 3989 N 378.394 1.34581 0.820102 0
M  V30 3990 C 379.342 1.26401 1.95258 0
M  V30 3991 C 380.336 0.161553 1.68628 0
M  V30 3992 O 381.542 0.326703 1.7701 0
M  V30 3993 H 377.917 0.392749 0.64129 0
M  V30 3994 H 379.888 2.22105 1.99279 0
M  V30 3995 C 378.637 1.03919 3.31807 0
M  V30 3996 H 377.96 1.87984 3.52848 0
M  V30 3997 H 379.4 1.02232 4.11491 0
M  V30 3998 C 377.859 -0.257433 3.35915 0
M  V30 3999 O 378.389 -1.25784 3.81499 0
M  V30 4000 N 376.595 -0.291524 2.89134 0
M  V30 4001 H 376.142 0.523161 2.52232 0
M  V30 4002 H 376.1 -1.15883 2.92264 0
M  V30 4003 N 379.872 -1.04064 1.18357 0
M  V30 4004 C 381.118 -1.77528 0.980397 0
M  V30 4005 C 381.451 -1.87948 -0.48879 0
M  V30 4006 O 380.726 -1.3876 -1.36293 0
M  V30 4007 C 381.009 -3.20797 1.63588 0
M  V30 4008 C 380.862 -3.1832 3.17793 0
M  V30 4009 C 382.181 -4.18911 1.34914 0
M  V30 4010 H 379.3 -0.644443 0.357578 0
M  V30 4011 H 381.942 -1.2156 1.46024 0
M  V30 4012 H 380.092 -3.68586 1.22788 0
M  V30 4013 H 381.764 -2.78521 3.67728 0
M  V30 4014 H 380.007 -2.56351 3.49952 0
M  V30 4015 H 380.678 -4.19489 3.58794 0
M  V30 4016 H 383.154 -3.7967 1.70265 0
M  V30 4017 H 382.03 -5.17374 1.83346 0
M  V30 4018 H 382.291 -4.41262 0.272027 0
M  V30 4019 N 381.35 -0.985608 -1.22978 0
M  V30 4020 C 382.575 -0.675254 -1.961 0
M  V30 4021 C 383 0.752154 -1.72407 0
M  V30 4022 O 382.358 1.5131 -0.998751 0
M  V30 4023 C 382.406 -0.977899 -3.47087 0
M  V30 4024 O 381.51 -0.072685 -4.12336 0
M  V30 4025 H 380.851 -0.253443 -0.613728 0
M  V30 4026 H 383.381 -1.32061 -1.56272 0
M  V30 4027 H 383.391 -0.916739 -3.97567 0
M  V30 4028 H 382.066 -2.01807 -3.63657 0
M  V30 4029 H 380.643 -0.188703 -3.72422 0
M  V30 4030 N 382.828 1.3818 -0.7579 0
M  V30 4031 C 383.738 2.3421 -0.135247 0
M  V30 4032 C 384.754 1.59487 0.695683 0
M  V30 4033 O 385.93 1.91657 0.618832 0
M  V30 4034 C 382.995 3.3862 0.744139 0
M  V30 4035 C 382.056 4.2918 -0.101658 0
M  V30 4036 C 381.289 5.28603 0.735851 0
M  V30 4037 O 381.512 5.35166 1.97366 0
M  V30 4038 O 380.446 6.01707 0.152372 0
M  V30 4039 H 384.272 2.8916 -0.928436 0
M  V30 4040 H 381.857 1.40101 -0.518855 0
M  V30 4041 H 383.739 4.02539 1.2466 0
M  V30 4042 H 382.414 2.86019 1.51575 0
M  V30 4043 H 381.321 3.68407 -0.650167 0
M  V30 4044 H 382.654 4.85048 -0.836024 0
M  V30 4045 N 384.306 0.507319 1.49211 0
M  V30 4046 C 385.583 -0.0982702 1.95353 0
M  V30 4047 C 385.963 -1.53516 1.449 0
M  V30 4048 O 385.311 -2.18594 0.66551 0
M  V30 4049 C 385.521 -0.00440283 3.49 0
M  V30 4050 C 386.869 -0.175147 4.24239 0
M  V30 4051 O 387.893 -0.0792891 3.56112 0
M  V30 4052 O 386.752 -0.37276 5.45227 0
M  V30 4053 H 383.846 -0.0918236 0.821887 0
M  V30 4054 H 386.392 0.570307 1.5983 0
M  V30 4055 H 385.164 0.997402 3.78375 0
M  V30 4056 H 384.787 -0.712845 3.91158 0
M  V30 4057 N 385.784 -1.5574 0.241426 0
M  V30 4058 C 386.714 -2.24133 -0.654722 0
M  V30 4059 C 387.695 -1.21974 -1.1856 0
M  V30 4060 O 388.88 -1.50612 -1.22595 0
M  V30 4061 C 386.01 -2.93659 -1.85423 0
M  V30 4062 C 384.964 -4.0246 -1.45636 0
M  V30 4063 C 384.29 -4.59383 -2.73626 0
M  V30 4064 C 385.59 -5.18468 -0.631506 0
M  V30 4065 H 387.284 -2.99281 -0.0844353 0
M  V30 4066 H 384.83 -1.43947 -0.0391707 0
M  V30 4067 H 386.783 -3.40203 -2.48676 0
M  V30 4068 H 385.507 -2.15991 -2.44981 0
M  V30 4069 H 384.166 -3.56676 -0.847202 0
M  V30 4070 H 383.814 -3.78422 -3.3137 0
M  V30 4071 H 383.514 -5.32826 -2.4773 0
M  V30 4072 H 385.038 -5.08658 -3.37786 0
M  V30 4073 H 386.452 -5.61272 -1.1682 0
M  V30 4074 H 384.849 -5.98266 -0.468831 0
M  V30 4075 H 385.919 -4.8358 0.357506 0
M  V30 4076 N 387.262 0.0317525 -1.57568 0
M  V30 4077 C 388.673 0.578692 -1.77505 0
M  V30 4078 C 389.024 1.75749 -0.872164 0
M  V30 4079 O 388.149 2.16298 -0.0663106 0
M  V30 4080 C 388.744 1.05658 -3.21904 0
M  V30 4081 C 387.303 1.54906 -3.43047 0
M  V30 4082 C 386.45 0.485939 -2.73009 0
M  V30 4083 H 389.401 -0.194475 -1.57504 0
M  V30 4084 H 389.422 1.92404 -3.28269 0
M  V30 4085 H 388.934 0.198422 -3.87592 0
M  V30 4086 H 387.035 2.42915 -2.82529 0
M  V30 4087 H 387.148 1.59841 -4.5165 0
M  V30 4088 H 385.512 0.940354 -2.36705 0
M  V30 4089 H 386.295 -0.362709 -3.41379 0
M  V30 4090 N 388.74 1.54641 0.303973 0
M  V30 4091 C 389.67 1.88386 1.3796 0
M  V30 4092 C 390.651 0.742485 1.5304 0
M  V30 4093 O 391.836 0.997959 1.66597 0
M  V30 4094 C 388.966 2.12854 2.74427 0
M  V30 4095 C 387.92 3.28702 2.74115 0
M  V30 4096 C 387.246 3.38582 4.13844 0
M  V30 4097 C 388.546 4.65881 2.3612 0
M  V30 4098 H 390.24 2.78474 1.09966 0
M  V30 4099 H 387.786 1.33988 0.527556 0
M  V30 4100 H 389.739 2.35047 3.49758 0
M  V30 4101 H 388.463 1.19535 3.03939 0
M  V30 4102 H 387.122 3.06428 2.0124 0
M  V30 4103 H 386.77 2.42784 4.40528 0
M  V30 4104 H 386.47 4.16453 4.14537 0
M  V30 4105 H 387.994 3.63031 4.90959 0
M  V30 4106 H 389.408 4.87823 3.01167 0
M  V30 4107 H 387.805 5.46444 2.48031 0
M  V30 4108 H 388.875 4.66799 1.3125 0
M  V30 4109 N 390.218 -0.567019 1.47046 0
M  V30 4110 C 391.629 -1.14916 1.47143 0
M  V30 4111 C 391.98 -1.94954 0.220767 0
M  V30 4112 O 391.105 -2.05602 -0.67505 0
M  V30 4113 C 391.7 -2.09069 2.666 0
M  V30 4114 C 390.259 -2.62575 2.69687 0
M  V30 4115 C 389.406 -1.38755 2.40088 0
M  V30 4116 H 392.357 -0.354126 1.54699 0
M  V30 4117 H 392.378 -2.92789 2.43011 0
M  V30 4118 H 391.89 -1.50789 3.57609 0
M  V30 4119 H 389.991 -3.24681 1.82792 0
M  V30 4120 H 390.104 -3.04239 3.70102 0
M  V30 4121 H 388.468 -1.69098 1.90468 0
M  V30 4122 H 389.251 -0.822822 3.33293 0
M  V30 4123 N 391.696 -1.35014 -0.812953 0
M  V30 4124 C 392.924 -1.31031 -1.6012 0
M  V30 4125 C 393.339 0.113558 -1.88458 0
M  V30 4126 O 392.696 1.06363 -1.48301 0
M  V30 4127 C 392.747 -2.10872 -2.93624 0
M  V30 4128 O 392.468 -3.47706 -2.66518 0
M  V30 4129 C 393.969 -2.14401 -3.88004 0
M  V30 4130 H 391.189 -0.45037 -0.497401 0
M  V30 4131 H 393.733 -1.77775 -1.01076 0
M  V30 4132 H 391.888 -1.67744 -3.492 0
M  V30 4133 H 392.302 -3.89097 -3.51715 0
M  V30 4134 H 393.776 -2.74669 -4.78812 0
M  V30 4135 H 394.253 -1.14105 -4.24119 0
M  V30 4136 H 394.859 -2.57662 -3.38364 0
M  V30 4137 N 393.175 1.03435 -1.18907 0
M  V30 4138 C 394.422 1.76743 -0.988334 0
M  V30 4139 C 394.75 1.88447 0.481441 0
M  V30 4140 O 394.005 1.39383 1.37371 0
M  V30 4141 C 394.304 3.19792 -1.59586 0
M  V30 4142 C 393.97 3.28108 -3.09283 0
M  V30 4143 C 392.632 3.30084 -3.5014 0
M  V30 4144 C 394.984 3.27696 -4.05296 0
M  V30 4145 C 392.312 3.29299 -4.85571 0
M  V30 4146 C 394.664 3.28451 -5.4065 0
M  V30 4147 C 393.328 3.28723 -5.80946 0
M  V30 4148 H 392.598 0.64675 -0.361657 0
M  V30 4149 H 395.245 1.21442 -1.48068 0
M  V30 4150 H 393.55 3.78136 -1.02568 0
M  V30 4151 H 395.247 3.75171 -1.41589 0
M  V30 4152 H 391.837 3.27294 -2.76725 0
M  V30 4153 H 396.021 3.25354 -3.74778 0
M  V30 4154 H 391.277 3.2783 -5.16079 0
M  V30 4155 H 395.451 3.27082 -6.14809 0
M  V30 4156 H 393.078 3.27868 -6.85862 0
M  V30 4157 N 394.653 0.992116 1.22453 0
M  V30 4158 C 395.878 0.685644 1.95739 0
M  V30 4159 C 396.303 -0.743 1.72804 0
M  V30 4160 O 395.661 -1.50778 1.00676 0
M  V30 4161 C 395.709 0.996293 3.46564 0
M  V30 4162 O 394.813 0.0945512 4.12292 0
M  V30 4163 H 394.154 0.256694 0.612376 0
M  V30 4164 H 396.684 1.32888 1.5557 0
M  V30 4165 H 396.694 0.93781 3.97076 0
M  V30 4166 H 395.369 2.03733 3.62582 0
M  V30 4167 H 393.946 0.208451 3.72317 0
M  V30 4168 N 396.131 -1.37776 0.765217 0
M  V30 4169 C 397.542 -1.82521 0.392819 0
M  V30 4170 C 397.893 -1.63789 -1.08017 0
M  V30 4171 O 397.018 -1.14542 -1.83601 0
M  V30 4172 C 397.613 -3.31358 0.706214 0
M  V30 4173 C 396.172 -3.74406 0.386952 0
M  V30 4174 C 395.319 -2.60394 0.953422 0
M  V30 4175 H 398.27 -1.2634 0.960412 0
M  V30 4176 H 398.291 -3.80498 -0.0114706 0
M  V30 4177 H 397.803 -3.44959 1.77833 0
M  V30 4178 H 395.904 -3.66377 -0.678112 0
M  V30 4179 H 396.017 -4.70749 0.890636 0
M  V30 4180 H 394.381 -2.51878 0.378064 0
M  V30 4181 H 395.164 -2.76791 2.03081 0
M  V30 4182 N 397.609 -0.515225 -1.4894 0
M  V30 4183 C 398.837 0.0206034 -2.0689 0
M  V30 4184 C 399.252 1.29514 -1.37374 0
M  V30 4185 O 398.609 1.76698 -0.456529 0
M  V30 4186 C 398.66 0.26351 -3.60538 0
M  V30 4187 O 398.381 -0.960517 -4.27441 0
M  V30 4188 C 399.882 0.841383 -4.35242 0
M  V30 4189 H 397.102 -0.0268608 -0.670462 0
M  V30 4190 H 399.646 -0.716651 -1.91532 0
M  V30 4191 H 397.801 0.950777 -3.75552 0
M  V30 4192 H 398.215 -0.73212 -5.19365 0
M  V30 4193 H 399.689 0.96085 -5.43573 0
M  V30 4194 H 400.166 1.8427 -3.98674 0
M  V30 4195 H 400.772 0.191143 -4.2487 0
M  V30 4196 N 399.087 1.5561 -0.249682 0
M  V30 4197 C 400.017 2.24477 0.642826 0
M  V30 4198 C 400.998 1.22601 1.17911 0
M  V30 4199 O 402.183 1.5126 1.21795 0
M  V30 4200 C 399.313 2.94638 1.83863 0
M  V30 4201 C 398.267 4.03227 1.435 0
M  V30 4202 C 397.593 4.60828 2.71186 0
M  V30 4203 C 398.893 5.18796 0.604002 0
M  V30 4204 H 400.587 2.99321 0.0685625 0
M  V30 4205 H 398.133 1.43965 0.0315363 0
M  V30 4206 H 400.086 3.41517 2.46868 0
M  V30 4207 H 398.81 2.17287 2.43832 0
M  V30 4208 H 397.469 3.57121 0.828275 0
M  V30 4209 H 397.117 3.80174 3.29358 0
M  V30 4210 H 396.817 5.34132 2.44901 0
M  V30 4211 H 398.341 5.10442 3.35084 0
M  V30 4212 H 399.755 5.61883 1.13842 0
M  V30 4213 H 398.152 5.98506 0.437097 0
M  V30 4214 H 399.222 4.83384 -0.383147 0
M  V30 4215 N 400.565 -0.0233959 1.57583 0
M  V30 4216 C 401.495 -1.02162 2.09965 0
M  V30 4217 C 402.476 -1.3735 1.00344 0
M  V30 4218 O 403.661 -1.46135 1.27899 0
M  V30 4219 C 400.791 -2.32081 2.58371 0
M  V30 4220 C 399.745 -2.1112 3.72307 0
M  V30 4221 C 399.071 -3.46848 4.06941 0
M  V30 4222 C 400.371 -1.49276 5.00514 0
M  V30 4223 H 402.065 -0.585557 2.93618 0
M  V30 4224 H 399.611 -0.280218 1.41247 0
M  V30 4225 H 401.564 -3.02249 2.93639 0
M  V30 4226 H 400.288 -2.77758 1.71808 0
M  V30 4227 H 398.947 -1.43384 3.37397 0
M  V30 4228 H 398.595 -3.90184 3.17436 0
M  V30 4229 H 398.295 -3.33646 4.83688 0
M  V30 4230 H 399.819 -4.18369 4.44747 0
M  V30 4231 H 401.233 -2.09368 5.33702 0
M  V30 4232 H 399.63 -1.46632 5.8191 0
M  V30 4233 H 400.7 -0.459217 4.82721 0
M  V30 4234 N 402.043 -1.548 -0.295768 0
M  V30 4235 C 403.291 -1.73985 -1.02828 0
M  V30 4236 C 403.612 -0.531406 -1.87619 0
M  V30 4237 O 402.882 0.454221 -1.90561 0
M  V30 4238 H 401.462 -0.641556 -0.382642 0
M  V30 4239 H 404.124 -1.92163 -0.325489 0
M  V30 4240 H 403.22 -2.63129 -1.67838 0
M  V30 4241 N 403.521 0.559213 -1.47345 0
M  V30 4242 C 404.798 1.31997 -1.44348 0
M  V30 4243 C 405.178 2.1064 -0.139358 0
M  V30 4244 O 404.526 2.1091 0.879153 0
M  V30 4245 C 404.736 2.22618 -2.68779 0
M  V30 4246 C 406.084 2.83701 -3.1591 0
M  V30 4247 O 407.108 2.32921 -2.69493 0
M  V30 4248 O 405.967 3.75993 -3.966 0
M  V30 4249 H 403.061 0.594251 -0.575147 0
M  V30 4250 H 405.607 0.578282 -1.59543 0
M  V30 4251 H 404.379 1.64093 -3.55231 0
M  V30 4252 H 404.002 3.04085 -2.5616 0
M  V30 4253 N 404.999 1.35443 0.805782 0
M  V30 4254 C 406.224 1.32037 1.59941 0
M  V30 4255 C 406.649 -0.0994215 1.87837 0
M  V30 4256 O 406.007 -1.06648 1.46615 0
M  V30 4257 C 406.055 2.13354 2.90711 0
M  V30 4258 O 405.159 1.5148 3.83572 0
M  V30 4259 H 404.5 0.452666 0.485787 0
M  V30 4260 H 407.03 1.78496 1.00002 0
M  V30 4261 H 407.04 2.25338 3.40128 0
M  V30 4262 H 405.715 3.16572 2.69732 0
M  V30 4263 H 404.292 1.4834 3.42125 0
M  V30 4264 N 406.477 -1.02803 1.19454 0
M  V30 4265 C 407.893 -1.28473 0.946937 0
M  V30 4266 C 408.093 -1.97881 -0.380202 0
M  V30 4267 O 407.149 -2.26719 -1.11151 0
M  V30 4268 C 408.462 -2.13099 2.12154 0
M  V30 4269 C 410.01 -2.26404 2.16126 0
M  V30 4270 C 410.485 -3.14402 3.33039 0
M  V30 4271 N 411.976 -3.21991 3.32981 0
M  V30 4272 C 412.711 -3.90272 4.20089 0
M  V30 4273 N 412.207 -4.60777 5.17355 0
M  V30 4274 N 414 -3.8668 4.07964 0
M  V30 4275 H 406.151 -0.561665 2.04839 0
M  V30 4276 H 408.414 -0.310438 0.89573 0
M  V30 4277 H 408.12 -1.69422 3.08203 0
M  V30 4278 H 407.994 -3.13813 2.09287 0
M  V30 4279 H 410.381 -2.69311 1.20647 0
M  V30 4280 H 410.462 -1.25237 2.23045 0
M  V30 4281 H 410.106 -2.72204 4.28798 0
M  V30 4282 H 410.036 -4.1563 3.23356 0
M  V30 4283 H 412.527 -2.71778 2.62574 0
M  V30 4284 H 412.84 -5.10513 5.80169 0
M  V30 4285 H 411.185 -4.5964 5.21302 0
M  V30 4286 H 414.376 -3.30739 3.31254 0
M  V30 4287 H 414.549 -4.39621 4.76064 0
M  V30 4288 N 407.956 -0.998596 -1.21925 0
M  V30 4289 C 408.889 -0.498517 -2.22688 0
M  V30 4290 C 409.867 0.444301 -1.56412 0
M  V30 4291 O 411.051 0.368518 -1.84863 0
M  V30 4292 C 408.178 0.276639 -3.37568 0
M  V30 4293 C 407.224 -0.61302 -4.22071 0
M  V30 4294 S 408.057 -2.07168 -4.93803 0
M  V30 4295 C 409.213 -1.30617 -6.12119 0
M  V30 4296 H 409.446 -1.35234 -2.64762 0
M  V30 4297 H 406.979 -0.806018 -1.31692 0
M  V30 4298 H 408.937 0.717817 -4.04175 0
M  V30 4299 H 407.598 1.10581 -2.93991 0
M  V30 4300 H 406.791 -0.0162909 -5.03997 0
M  V30 4301 H 406.393 -0.991202 -3.60626 0
M  V30 4302 H 408.685 -0.57675 -6.75041 0
M  V30 4303 H 409.628 -2.10091 -6.76215 0
M  V30 4304 H 410.036 -0.816957 -5.58557 0
M  V30 4305 N 409.434 1.37368 -0.772513 0
M  V30 4306 C 410.364 2.32856 -0.173304 0
M  V30 4307 C 411.345 1.55818 0.682262 0
M  V30 4308 O 412.53 1.84052 0.619566 0
M  V30 4309 C 409.66 3.40048 0.706007 0
M  V30 4310 C 408.614 4.27973 -0.0483144 0
M  V30 4311 C 407.94 5.26184 0.950491 0
M  V30 4312 C 409.24 5.07665 -1.22776 0
M  V30 4313 H 410.934 2.83217 -0.971002 0
M  V30 4314 H 408.48 1.3617 -0.468377 0
M  V30 4315 H 410.433 4.05827 1.13501 0
M  V30 4316 H 409.157 2.88214 1.53623 0
M  V30 4317 H 407.816 3.63726 -0.458107 0
M  V30 4318 H 407.464 4.7063 1.77529 0
M  V30 4319 H 407.164 5.85872 0.450314 0
M  V30 4320 H 408.688 5.94838 1.37842 0
M  V30 4321 H 410.102 5.66578 -0.875366 0
M  V30 4322 H 408.499 5.76681 -1.66007 0
M  V30 4323 H 409.569 4.40294 -2.03149 0
M  V30 4324 N 410.912 0.523116 1.48665 0
M  V30 4325 C 412.142 -0.00961724 2.06598 0
M  V30 4326 C 412.55 -1.29333 1.38093 0
M  V30 4327 O 411.893 -1.77846 0.46007 0
M  V30 4328 C 411.955 -0.311135 3.58151 0
M  V30 4329 C 411.619 0.878092 4.48485 0
M  V30 4330 C 412.616 1.77464 4.88674 0
M  V30 4331 C 410.301 1.08315 4.90483 0
M  V30 4332 C 412.295 2.86021 5.69623 0
M  V30 4333 C 409.982 2.17187 5.71203 0
M  V30 4334 C 410.98 3.05873 6.10681 0
M  V30 4335 O 410.668 4.12862 6.89783 0
M  V30 4336 H 410.4 0.0272658 0.67545 0
M  V30 4337 H 412.954 0.726156 1.92136 0
M  V30 4338 H 411.184 -1.10079 3.70701 0
M  V30 4339 H 412.873 -0.785125 3.98234 0
M  V30 4340 H 413.639 1.62813 4.56855 0
M  V30 4341 H 409.518 0.402149 4.59243 0
M  V30 4342 H 413.062 3.55272 6.00356 0
M  V30 4343 H 408.959 2.31824 6.02435 0
M  V30 4344 H 409.727 4.10487 7.08126 0
M  V30 4345 N 412.39 -1.55475 0.257931 0
M  V30 4346 C 413.637 -1.99207 -0.363728 0
M  V30 4347 C 413.965 -1.1462 -1.57139 0
M  V30 4348 O 413.22 -0.199653 -1.94679 0
M  V30 4349 C 413.519 -3.48183 -0.806433 0
M  V30 4350 C 413.185 -4.49936 0.294684 0
M  V30 4351 C 411.847 -4.77481 0.597076 0
M  V30 4352 C 414.199 -5.10769 1.03751 0
M  V30 4353 C 411.527 -5.63132 1.64618 0
M  V30 4354 C 413.879 -5.97558 2.07622 0
M  V30 4355 C 412.543 -6.23432 2.38514 0
M  V30 4356 H 411.813 -0.728949 -0.133097 0
M  V30 4357 H 414.46 -1.8793 0.368059 0
M  V30 4358 H 412.765 -3.56848 -1.61761 0
M  V30 4359 H 414.462 -3.79415 -1.29789 0
M  V30 4360 H 411.052 -4.28572 0.0488649 0
M  V30 4361 H 415.236 -4.89527 0.817149 0
M  V30 4362 H 410.492 -5.8143 1.89074 0
M  V30 4363 H 414.666 -6.43735 2.65666 0
M  V30 4364 H 412.293 -6.89594 3.19943 0
M  V30 4365 N 413.868 0.0150385 -1.57593 0
M  V30 4366 C 415.114 0.69849 -1.91031 0
M  V30 4367 C 415.469 1.72208 -0.85804 0
M  V30 4368 O 414.762 1.91147 0.131614 0
M  V30 4369 C 414.956 1.39686 -3.28972 0
M  V30 4370 C 414.785 0.442428 -4.47518 0
M  V30 4371 C 413.555 0.0583223 -5.05266 0
M  V30 4372 C 415.753 -0.285072 -5.13509 0
M  V30 4373 N 413.735 -0.895893 -6.07328 0
M  V30 4374 C 415.106 -1.09447 -6.10263 0
M  V30 4375 C 417.161 -0.350518 -4.96665 0
M  V30 4376 C 415.864 -1.96333 -6.91987 0
M  V30 4377 C 417.89 -1.20655 -5.78962 0
M  V30 4378 C 417.252 -2.00383 -6.75297 0
M  V30 4379 H 413.351 0.22926 -0.747639 0
M  V30 4380 H 415.935 -0.0417748 -1.94655 0
M  V30 4381 H 414.106 2.1075 -3.2625 0
M  V30 4382 H 415.838 2.03381 -3.49883 0
M  V30 4383 H 412.593 0.423506 -4.71703 0
M  V30 4384 H 413.017 -1.36792 -6.63036 0
M  V30 4385 H 417.659 0.251596 -4.22051 0
M  V30 4386 H 415.377 -2.57618 -7.65936 0
M  V30 4387 H 418.963 -1.2609 -5.67972 0
M  V30 4388 H 417.843 -2.65552 -7.3787 0
M  V30 4389 N 415.346 1.54954 0.287554 0
M  V30 4390 C 416.593 1.74873 1.02106 0
M  V30 4391 C 416.921 0.541829 1.86801 0
M  V30 4392 O 416.176 -0.475992 1.89823 0
M  V30 4393 C 416.475 2.99833 1.94512 0
M  V30 4394 C 416.141 4.33029 1.25686 0
M  V30 4395 C 414.803 4.69233 1.06649 0
M  V30 4396 C 417.155 5.15542 0.765913 0
M  V30 4397 C 414.483 5.85518 0.372222 0
M  V30 4398 C 416.835 6.32542 0.0853101 0
M  V30 4399 C 415.499 6.67398 -0.1169 0
M  V30 4400 H 414.769 0.639906 0.373632 0
M  V30 4401 H 417.416 1.89219 0.294665 0
M  V30 4402 H 415.721 2.80325 2.73725 0
M  V30 4403 H 417.418 3.1244 2.51361 0
M  V30 4404 H 414.008 4.04564 1.41512 0
M  V30 4405 H 418.192 4.88059 0.90066 0
M  V30 4406 H 413.448 6.11057 0.204695 0
M  V30 4407 H 417.622 6.95741 -0.302936 0
M  V30 4408 H 415.249 7.57357 -0.656859 0
M  V30 4409 N 416.824 -0.551391 1.4764 0
M  V30 4410 C 418.049 -1.33837 1.58437 0
M  V30 4411 C 418.474 -1.866 0.237063 0
M  V30 4412 O 417.832 -1.6328 -0.787994 0
M  V30 4413 C 417.88 -2.48014 2.61766 0
M  V30 4414 O 416.984 -3.50419 2.1744 0
M  V30 4415 H 416.325 -0.397299 0.532024 0
M  V30 4416 H 418.855 -0.665759 1.93465 0
M  V30 4417 H 418.865 -2.94503 2.82369 0
M  V30 4418 H 417.54 -2.08969 3.5959 0
M  V30 4419 H 416.117 -3.10196 2.06961 0
M  V30 4420 N 418.302 -1.35869 -0.798587 0
M  V30 4421 C 419.212 -1.31578 -1.94228 0
M  V30 4422 C 420.228 -0.21939 -1.72611 0
M  V30 4423 O 421.404 -0.450167 -1.96305 0
M  V30 4424 C 418.469 -1.09528 -3.28944 0
M  V30 4425 C 417.53 -2.28556 -3.63402 0
M  V30 4426 C 416.763 -2.07549 -4.9169 0
M  V30 4427 O 416.986 -1.046 -5.60727 0
M  V30 4428 O 415.92 -2.95106 -5.24591 0
M  V30 4429 H 419.746 -2.27847 -2.00796 0
M  V30 4430 H 417.331 -1.16322 -0.937526 0
M  V30 4431 H 419.213 -0.991127 -4.09579 0
M  V30 4432 H 417.888 -0.16315 -3.23289 0
M  V30 4433 H 416.795 -2.44538 -2.83112 0
M  V30 4434 H 418.128 -3.20244 -3.73771 0
M  V30 4435 N 419.78 1.02168 -1.19998 0
M  V30 4436 C 421.196 1.27969 -0.953737 0
M  V30 4437 C 421.396 1.98079 0.369703 0
M  V30 4438 O 420.452 2.27306 1.09947 0
M  V30 4439 C 421.765 2.11971 -2.13281 0
M  V30 4440 C 423.313 2.25255 -2.17323 0
M  V30 4441 C 423.788 3.12632 -3.34702 0
M  V30 4442 N 425.279 3.2022 -3.34684 0
M  V30 4443 C 426.014 3.88039 -4.22153 0
M  V30 4444 N 425.51 4.58027 -5.19791 0
M  V30 4445 N 427.303 3.84511 -4.10009 0
M  V30 4446 H 419.454 0.550794 -2.05134 0
M  V30 4447 H 421.717 0.305683 -0.897364 0
M  V30 4448 H 421.423 1.67785 -3.09097 0
M  V30 4449 H 421.297 3.12699 -2.10949 0
M  V30 4450 H 423.684 2.68667 -1.22073 0
M  V30 4451 H 423.765 1.24053 -2.23706 0
M  V30 4452 H 423.409 2.69926 -4.30235 0
M  V30 4453 H 423.339 4.13909 -3.25556 0
M  V30 4454 H 425.83 2.70382 -2.64012 0
M  V30 4455 H 426.143 5.07429 -5.82868 0
M  V30 4456 H 424.488 4.56869 -5.23733 0
M  V30 4457 H 427.679 3.28978 -3.33003 0
M  V30 4458 H 427.852 4.3709 -4.78389 0
M  V30 4459 N 421.258 1.00505 1.21394 0
M  V30 4460 C 422.504 0.688793 1.90745 0
M  V30 4461 C 422.837 -0.778486 1.77914 0
M  V30 4462 O 422.112 -1.56433 1.15581 0
M  V30 4463 C 422.395 1.11063 3.42545 0
M  V30 4464 C 422.248 2.63737 3.64367 0
M  V30 4465 C 423.567 0.673059 4.34923 0
M  V30 4466 H 420.686 0.251702 0.692687 0
M  V30 4467 H 423.328 1.25074 1.43026 0
M  V30 4468 H 421.478 0.632508 3.83317 0
M  V30 4469 H 423.15 3.19313 3.32922 0
M  V30 4470 H 421.393 3.05248 3.08231 0
M  V30 4471 H 422.064 2.88305 4.70727 0
M  V30 4472 H 424.54 1.08392 4.01734 0
M  V30 4473 H 423.416 0.996383 5.39781 0
M  V30 4474 H 423.677 -0.425808 4.40045 0
M  V30 4475 N 422.737 -1.36956 0.779787 0
M  V30 4476 C 423.984 -1.99491 0.347766 0
M  V30 4477 C 424.312 -1.61898 -1.07793 0
M  V30 4478 O 423.567 -0.86071 -1.75756 0
M  V30 4479 C 423.866 -3.54585 0.447686 0
M  V30 4480 C 423.532 -4.1197 1.83279 0
M  V30 4481 C 422.194 -4.27356 2.2118 0
M  V30 4482 C 424.546 -4.43354 2.74019 0
M  V30 4483 C 421.874 -4.71432 3.4924 0
M  V30 4484 C 424.226 -4.88858 4.01497 0
M  V30 4485 C 422.89 -5.0245 4.39432 0
M  V30 4486 H 422.16 -0.729991 0.127257 0
M  V30 4487 H 424.807 -1.63599 0.995376 0
M  V30 4488 H 423.112 -3.90773 -0.283447 0
M  V30 4489 H 424.809 -4.00888 0.0945948 0
M  V30 4490 H 421.399 -4.00428 1.52825 0
M  V30 4491 H 425.583 -4.31045 2.45995 0
M  V30 4492 H 420.839 -4.80141 3.78516 0
M  V30 4493 H 425.013 -5.12108 4.71931 0
M  V30 4494 H 422.64 -5.36362 5.38721 0
M  V30 4495 N 424.215 -0.530993 -1.48385 0
M  V30 4496 C 425.165 0.251092 -2.26613 0
M  V30 4497 C 426.149 0.908977 -1.32765 0
M  V30 4498 O 427.341 0.811616 -1.57295 0
M  V30 4499 C 424.47 1.29677 -3.17866 0
M  V30 4500 C 423.556 0.643627 -4.19188 0
M  V30 4501 N 423.947 -0.271223 -5.05072 0
M  V30 4502 C 422.245 0.900711 -4.3681 0
M  V30 4503 C 422.946 -0.648109 -5.78078 0
M  V30 4504 N 421.922 -0.00895987 -5.43599 0
M  V30 4505 H 425.724 -0.452702 -2.90393 0
M  V30 4506 H 423.238 -0.349091 -1.58604 0
M  V30 4507 H 425.235 1.87079 -3.72568 0
M  V30 4508 H 423.895 2.00193 -2.55642 0
M  V30 4509 H 424.906 -0.643883 -5.13882 0
M  V30 4510 H 421.583 1.59636 -3.85775 0
M  V30 4511 H 422.973 -1.39833 -6.57188 0
M  V30 4512 N 425.693 1.55336 -0.266172 0
M  V30 4513 C 426.918 2.04258 0.359661 0
M  V30 4514 C 427.343 1.14359 1.49344 0
M  V30 4515 O 426.701 0.140369 1.80756 0
M  V30 4516 C 426.749 3.50997 0.826635 0
M  V30 4517 O 425.853 3.64204 1.93466 0
M  V30 4518 H 425.194 0.659668 0.075727 0
M  V30 4519 H 427.724 2.00694 -0.39786 0
M  V30 4520 H 427.734 3.9219 1.12477 0
M  V30 4521 H 426.409 4.159 -0.00293032 0
M  V30 4522 H 424.986 3.34913 1.63974 0
M  V30 4523 N 427.171 -0.0066808 1.57599 0
M  V30 4524 C 428.101 -0.999296 2.11036 0
M  V30 4525 C 429.082 -1.36278 1.01795 0
M  V30 4526 O 430.267 -1.4477 1.29442 0
M  V30 4527 C 427.397 -2.29328 2.60818 0
M  V30 4528 C 426.351 -2.07159 3.74525 0
M  V30 4529 C 425.677 -3.42512 4.10596 0
M  V30 4530 C 426.977 -1.43959 5.02069 0
M  V30 4531 H 428.671 -0.554382 2.94223 0
M  V30 4532 H 426.217 -0.265221 1.41536 0
M  V30 4533 H 428.17 -2.99117 2.96828 0
M  V30 4534 H 426.894 -2.7592 1.74745 0
M  V30 4535 H 425.553 -1.39797 3.38899 0
M  V30 4536 H 425.201 -3.86795 3.21556 0
M  V30 4537 H 424.901 -3.28498 4.87199 0
M  V30 4538 H 426.425 -4.13628 4.4916 0
M  V30 4539 H 427.839 -2.03696 5.35893 0
M  V30 4540 H 426.236 -1.40452 5.83432 0
M  V30 4541 H 427.306 -0.407992 4.83181 0
M  V30 4542 N 428.649 -1.55105 -0.279332 0
M  V30 4543 C 429.612 -1.86783 -1.32834 0
M  V30 4544 C 430.612 -0.74199 -1.42657 0
M  V30 4545 O 431.802 -1.0102 -1.41918 0
M  V30 4546 C 428.934 -2.06746 -2.71052 0
M  V30 4547 H 430.127 -2.8055 -1.05979 0
M  V30 4548 H 427.68 -1.47499 -0.517087 0
M  V30 4549 H 428.415 -1.15339 -3.03097 0
M  V30 4550 H 428.2 -2.88711 -2.65309 0
M  V30 4551 H 429.69 -2.32549 -3.46858 0
M  V30 4552 N 430.127 0.543554 -1.4793 0
M  V30 4553 C 431.074 1.64942 -1.6144 0
M  V30 4554 C 432.044 1.59692 -0.456903 0
M  V30 4555 O 433.229 1.78321 -0.678688 0
M  V30 4556 C 430.369 3.03238 -1.64744 0
M  V30 4557 C 429.482 3.18823 -2.91506 0
M  V30 4558 C 428.617 4.47599 -2.86057 0
M  V30 4559 C 427.656 4.56664 -4.07584 0
M  V30 4560 N 426.793 5.76811 -4.00292 0
M  V30 4561 H 431.633 1.52733 -2.55884 0
M  V30 4562 H 429.17 0.7438 -1.2691 0
M  V30 4563 H 431.128 3.83339 -1.64641 0
M  V30 4564 H 429.758 3.1425 -0.738017 0
M  V30 4565 H 428.81 2.32064 -3.01414 0
M  V30 4566 H 430.122 3.21384 -3.81463 0
M  V30 4567 H 429.276 5.35975 -2.84281 0
M  V30 4568 H 428.015 4.47538 -1.93807 0
M  V30 4569 H 427.02 3.66697 -4.09651 0
M  V30 4570 H 428.245 4.58474 -5.00978 0
M  V30 4571 H 426.191 5.77673 -3.10853 0
M  V30 4572 H 426.108 5.80808 -4.8394 0
M  V30 4573 H 427.376 6.67512 -4.02553 0
M  V30 4574 N 431.605 1.3629 0.791371 0
M  V30 4575 C 432.851 1.30605 1.55146 0
M  V30 4576 C 433.184 -0.115042 1.93859 0
M  V30 4577 O 432.459 -1.06798 1.62556 0
M  V30 4578 C 432.742 2.22692 2.82985 0
M  V30 4579 C 432.595 3.73489 2.50651 0
M  V30 4580 C 433.914 2.13588 3.84796 0
M  V30 4581 H 431.033 0.475761 0.562868 0
M  V30 4582 H 433.675 1.66825 0.909358 0
M  V30 4583 H 431.825 1.91933 3.37778 0
M  V30 4584 H 433.497 4.14758 2.01924 0
M  V30 4585 H 431.74 3.93021 1.83622 0
M  V30 4586 H 432.411 4.3333 3.41949 0
M  V30 4587 H 434.887 2.40659 3.39445 0
M  V30 4588 H 433.763 2.80195 4.71998 0
M  V30 4589 H 434.024 1.12256 4.27611 0
M  V30 4590 N 433.083 -1.0153 1.20538 0
M  V30 4591 C 434.046 -2.0826 0.957098 0
M  V30 4592 C 435.046 -1.60657 -0.0678655 0
M  V30 4593 O 436.236 -1.73385 0.168332 0
M  V30 4594 C 433.368 -3.38033 0.441188 0
M  V30 4595 H 434.561 -2.31719 1.90384 0
M  V30 4596 H 432.114 -1.1835 1.02093 0
M  V30 4597 H 432.849 -3.20249 -0.510961 0
M  V30 4598 H 432.634 -3.73911 1.18038 0
M  V30 4599 H 434.124 -4.16613 0.287009 0
M  V30 4600 N 434.561 -1.01147 -1.20859 0
M  V30 4601 C 435.808 -0.697865 -1.90095 0
M  V30 4602 C 436.136 0.772014 -1.78522 0
M  V30 4603 O 435.391 1.57595 -1.16027 0
M  V30 4604 C 435.69 -1.0727 -3.40922 0
M  V30 4605 C 435.356 -2.53792 -3.72693 0
M  V30 4606 C 434.018 -2.93829 -3.81075 0
M  V30 4607 C 436.37 -3.48674 -3.87397 0
M  V30 4608 C 433.698 -4.27696 -4.01613 0
M  V30 4609 C 436.05 -4.82223 -4.09444 0
M  V30 4610 C 434.714 -5.21973 -4.16054 0
M  V30 4611 H 433.984 -0.255367 -0.695607 0
M  V30 4612 H 436.631 -1.27111 -1.43231 0
M  V30 4613 H 434.936 -0.417799 -3.89566 0
M  V30 4614 H 436.633 -0.807818 -3.92779 0
M  V30 4615 H 433.223 -2.21768 -3.66765 0
M  V30 4616 H 437.407 -3.18904 -3.80281 0
M  V30 4617 H 432.663 -4.58055 -4.04964 0
M  V30 4618 H 436.837 -5.55672 -4.19763 0
M  V30 4619 H 434.464 -6.25717 -4.31721 0
M  V30 4620 N 436.039 1.36541 -0.78704 0
M  V30 4621 C 436.971 2.28761 -0.141773 0
M  V30 4622 C 437.984 1.49365 0.647599 0
M  V30 4623 O 439.173 1.71836 0.483173 0
M  V30 4624 C 436.273 3.28771 0.822368 0
M  V30 4625 C 435.446 4.3732 0.0835594 0
M  V30 4626 C 434.505 5.17307 0.963296 0
M  V30 4627 O 433.531 5.67638 0.421419 0
M  V30 4628 N 434.733 5.33515 2.28784 0
M  V30 4629 H 437.498 2.84777 -0.933919 0
M  V30 4630 H 435.059 1.48682 -0.640735 0
M  V30 4631 H 437.051 3.79169 1.41468 0
M  V30 4632 H 435.621 2.73412 1.5154 0
M  V30 4633 H 434.841 3.88118 -0.689809 0
M  V30 4634 H 436.129 5.0701 -0.426358 0
M  V30 4635 H 435.527 4.94234 2.75226 0
M  V30 4636 H 434.084 5.87165 2.82985 0
M  V30 4637 N 437.518 0.538854 1.48102 0
M  V30 4638 C 438.795 -0.0568108 1.95517 0
M  V30 4639 C 439.175 -1.50408 1.48124 0
M  V30 4640 O 438.523 -2.17133 0.711727 0
M  V30 4641 C 438.733 0.0696262 3.48931 0
M  V30 4642 C 440.081 -0.0851202 4.24515 0
M  V30 4643 O 441.105 -0.0037347 3.562 0
M  V30 4644 O 439.964 -0.257025 5.45895 0
M  V30 4645 H 437.058 -0.0743695 0.823649 0
M  V30 4646 H 439.604 0.604081 1.58584 0
M  V30 4647 H 438.376 1.07744 3.76174 0
M  V30 4648 H 437.999 -0.629714 3.92582 0
M  V30 4649 N 438.996 -1.55193 0.274407 0
M  V30 4650 C 440.244 -1.99187 -0.341902 0
M  V30 4651 C 440.565 -1.16422 -1.56431 0
M  V30 4652 O 439.835 -0.253573 -1.94252 0
M  V30 4653 H 438.415 -0.735721 -0.129317 0
M  V30 4654 H 441.077 -1.91168 0.379578 0
M  V30 4655 H 440.173 -3.05629 -0.632253 0
M  V30 4656 N 440.474 -0.00167713 -1.576 0
M  V30 4657 C 441.89 0.354422 -1.55615 0
M  V30 4658 C 442.09 1.74679 -1.00447 0
M  V30 4659 O 441.146 2.4428 -0.639022 0
M  V30 4660 C 442.459 0.22812 -2.99833 0
M  V30 4661 C 444.007 0.302934 -3.11531 0
M  V30 4662 C 444.482 0.205737 -4.57538 0
M  V30 4663 N 445.973 0.263584 -4.62449 0
M  V30 4664 C 446.708 0.211742 -5.73009 0
M  V30 4665 N 446.204 0.110399 -6.92712 0
M  V30 4666 N 447.997 0.263729 -5.61481 0
M  V30 4667 H 440.148 -0.912498 -1.918 0
M  V30 4668 H 442.411 -0.349928 -0.881053 0
M  V30 4669 H 442.117 -0.729934 -3.44042 0
M  V30 4670 H 441.991 1.00951 -3.6344 0
M  V30 4671 H 444.378 1.25143 -2.67251 0
M  V30 4672 H 444.459 -0.508357 -2.50698 0
M  V30 4673 H 444.103 -0.739225 -5.02492 0
M  V30 4674 H 444.033 1.03554 -5.16318 0
M  V30 4675 H 446.524 0.343173 -3.76339 0
M  V30 4676 H 446.837 0.0767828 -7.72762 0
M  V30 4677 H 445.182 0.0760025 -6.94958 0
M  V30 4678 H 448.373 0.34111 -4.66855 0
M  V30 4679 H 448.546 0.219862 -6.47627 0
M  V30 4680 N 441.952 1.55251 0.271103 0
M  V30 4681 C 442.882 1.9127 1.33933 0
M  V30 4682 C 443.863 0.77478 1.5143 0
M  V30 4683 O 445.048 1.03307 1.64442 0
M  V30 4684 C 442.178 2.18627 2.69851 0
M  V30 4685 C 441.132 3.34442 2.67081 0
M  V30 4686 C 440.458 3.47284 4.06569 0
M  V30 4687 C 441.758 4.70784 2.26185 0
M  V30 4688 H 443.452 2.80744 1.04035 0
M  V30 4689 H 440.998 1.35077 0.499017 0
M  V30 4690 H 442.951 2.42413 3.44694 0
M  V30 4691 H 441.675 1.25955 3.01335 0
M  V30 4692 H 440.334 3.10627 1.94695 0
M  V30 4693 H 439.982 2.52074 4.35279 0
M  V30 4694 H 439.682 4.25152 4.0561 0
M  V30 4695 H 441.206 3.73363 4.83148 0
M  V30 4696 H 442.62 4.94102 2.90751 0
M  V30 4697 H 441.017 5.51582 2.36384 0
M  V30 4698 H 442.087 4.69478 1.21319 0
M  V30 4699 N 443.43 -0.535701 1.48216 0
M  V30 4700 C 444.363 -1.65726 1.56876 0
M  V30 4701 C 445.341 -1.57094 0.419542 0
M  V30 4702 O 446.525 -1.77648 0.630352 0
M  V30 4703 C 443.652 -3.04096 1.49142 0
M  V30 4704 C 442.698 -3.31105 2.68834 0
M  V30 4705 S 443.531 -3.18001 4.30854 0
M  V30 4706 C 444.687 -4.58828 4.25709 0
M  V30 4707 H 444.92 -1.58129 2.51759 0
M  V30 4708 H 442.453 -0.718218 1.36678 0
M  V30 4709 H 444.411 -3.839 1.45366 0
M  V30 4710 H 443.072 -3.09139 0.556067 0
M  V30 4711 H 442.265 -4.32033 2.59545 0
M  V30 4712 H 441.867 -2.58961 2.69843 0
M  V30 4713 H 444.159 -5.5023 3.95289 0
M  V30 4714 H 445.102 -4.73172 5.26796 0
M  V30 4715 H 445.51 -4.37883 3.56257 0
M  V30 4716 N 444.908 -1.36708 -0.784132 0
M  V30 4717 C 445.838 -1.34153 -1.91116 0
M  V30 4718 C 446.819 -0.212121 -1.68772 0
M  V30 4719 O 448.004 -0.410581 -1.8981 0
M  V30 4720 C 445.134 -1.13535 -3.28218 0
M  V30 4721 C 444.088 -2.23356 -3.65097 0
M  V30 4722 C 443.414 -1.87875 -5.00607 0
M  V30 4723 C 444.714 -3.65473 -3.73131 0
M  V30 4724 H 446.408 -2.28459 -1.93512 0
M  V30 4725 H 443.954 -1.09973 -0.929618 0
M  V30 4726 H 445.907 -1.10381 -4.06687 0
M  V30 4727 H 444.631 -0.156804 -3.26223 0
M  V30 4728 H 443.29 -2.25645 -2.88929 0
M  V30 4729 H 442.938 -0.885814 -4.95139 0
M  V30 4730 H 442.638 -2.61406 -5.26252 0
M  V30 4731 H 444.162 -1.86286 -5.81489 0
M  V30 4732 H 445.576 -3.65382 -4.41779 0
M  V30 4733 H 443.973 -4.37953 -4.10265 0
M  V30 4734 H 445.043 -3.99995 -2.74102 0
M  V30 4735 N 446.386 1.0089 -1.21074 0
M  V30 4736 C 447.611 1.78727 -1.05221 0
M  V30 4737 C 448.036 1.83932 0.393795 0
M  V30 4738 O 447.394 1.28004 1.28393 0
M  V30 4739 C 447.442 3.20665 -1.64944 0
M  V30 4740 O 446.546 4.02632 -0.892273 0
M  V30 4741 H 445.887 0.550973 -0.370574 0
M  V30 4742 H 448.417 1.26847 -1.60534 0
M  V30 4743 H 448.427 3.71352 -1.69002 0
M  V30 4744 H 447.102 3.16191 -2.70177 0
M  V30 4745 H 445.679 3.61207 -0.926492 0
M  V30 4746 N 447.864 1.01787 1.20321 0
M  V30 4747 C 448.794 0.609625 2.25401 0
M  V30 4748 C 449.775 -0.375951 1.65893 0
M  V30 4749 O 450.96 -0.261101 1.92437 0
M  V30 4750 C 448.09 -0.0515995 3.47262 0
M  V30 4751 C 447.044 0.855095 4.19371 0
M  V30 4752 C 446.37 0.0595757 5.34667 0
M  V30 4753 C 447.67 2.16374 4.75373 0
M  V30 4754 H 449.364 1.48803 2.59804 0
M  V30 4755 H 446.91 0.716934 1.24884 0
M  V30 4756 H 448.863 -0.348764 4.19954 0
M  V30 4757 H 447.587 -0.964726 3.12027 0
M  V30 4758 H 446.246 1.13628 3.48546 0
M  V30 4759 H 445.894 -0.85524 4.95676 0
M  V30 4760 H 445.594 0.663406 5.83843 0
M  V30 4761 H 447.118 -0.231105 6.10162 0
M  V30 4762 H 448.532 1.92885 5.39878 0
M  V30 4763 H 446.929 2.71853 5.34991 0
M  V30 4764 H 447.999 2.82589 3.94045 0
M  V30 4765 N 449.342 -1.36122 0.79427 0
M  V30 4766 C 450.275 -2.27759 0.141845 0
M  V30 4767 C 451.253 -1.47471 -0.684921 0
M  V30 4768 O 452.437 -1.76759 -0.654857 0
M  V30 4769 C 449.564 -3.29008 -0.804446 0
M  V30 4770 C 448.61 -4.26459 -0.0588617 0
M  V30 4771 S 449.443 -5.20253 1.26873 0
M  V30 4772 C 450.599 -6.25048 0.326562 0
M  V30 4773 H 450.832 -2.82746 0.918818 0
M  V30 4774 H 448.365 -1.42736 0.588722 0
M  V30 4775 H 450.323 -3.87842 -1.34495 0
M  V30 4776 H 448.984 -2.72924 -1.5547 0
M  V30 4777 H 448.177 -4.97973 -0.777087 0
M  V30 4778 H 447.779 -3.71731 0.411309 0
M  V30 4779 H 450.071 -6.75705 -0.492795 0
M  V30 4780 H 451.014 -7.00852 1.01053 0
M  V30 4781 H 451.422 -5.64454 -0.0722627 0
M  V30 4782 N 450.82 -0.546701 -1.47814 0
M  V30 4783 C 452.068 -0.0187037 -2.02091 0
M  V30 4784 C 452.389 1.33168 -1.42447 0
M  V30 4785 O 451.659 1.86619 -0.595839 0
M  V30 4786 H 450.239 -0.00392531 -0.74699 0
M  V30 4787 H 452.901 -0.714327 -1.81338 0
M  V30 4788 H 451.997 0.0772219 -3.12004 0
M  V30 4789 N 452.299 1.55045 -0.282633 0
M  V30 4790 C 453.576 1.9179 0.384166 0
M  V30 4791 C 453.956 1.20778 1.73136 0
M  V30 4792 O 453.304 0.33719 2.25998 0
M  V30 4793 C 453.514 3.45149 0.517014 0
M  V30 4794 C 454.862 4.17064 0.796427 0
M  V30 4795 O 455.886 3.51084 0.601535 0
M  V30 4796 O 454.745 5.33837 1.16962 0
M  V30 4797 H 451.839 0.799483 0.211558 0
M  V30 4798 H 454.385 1.66474 -0.32934 0
M  V30 4799 H 453.157 3.88922 -0.430772 0
M  V30 4800 H 452.78 3.76443 1.2797 0
M  V30 4801 N 453.777 0.010035 1.57597 0
M  V30 4802 C 454.687 -0.994226 2.12491 0
M  V30 4803 C 455.703 -1.37013 1.07254 0
M  V30 4804 O 456.879 -1.45542 1.3921 0
M  V30 4805 C 453.944 -2.2642 2.62555 0
M  V30 4806 C 453.005 -1.95049 3.82432 0
M  V30 4807 C 452.238 -3.15991 4.30099 0
M  V30 4808 O 452.461 -4.28015 3.7704 0
M  V30 4809 O 451.395 -2.99403 5.22151 0
M  V30 4810 H 455.221 -0.557549 2.98538 0
M  V30 4811 H 452.806 -0.209413 1.47925 0
M  V30 4812 H 454.688 -3.01009 2.9491 0
M  V30 4813 H 453.363 -2.69306 1.796 0
M  V30 4814 H 452.27 -1.17904 3.55034 0
M  V30 4815 H 453.603 -1.56992 4.66491 0
M  V30 4816 N 455.255 -1.55392 -0.262866 0
M  V30 4817 C 456.502 -1.76476 -0.993109 0
M  V30 4818 C 456.83 -0.571479 -1.85915 0
M  V30 4819 O 456.085 0.445733 -1.90556 0
M  V30 4820 C 456.384 -3.02889 -1.89718 0
M  V30 4821 C 456.05 -4.34974 -1.18781 0
M  V30 4822 C 454.712 -4.7087 -0.991699 0
M  V30 4823 C 457.064 -5.16695 -0.683798 0
M  V30 4824 C 454.392 -5.86036 -0.279024 0
M  V30 4825 C 456.744 -6.32598 0.0153327 0
M  V30 4826 C 455.408 -6.67127 0.223062 0
M  V30 4827 H 454.678 -0.64577 -0.363404 0
M  V30 4828 H 457.325 -1.89664 -0.264525 0
M  V30 4829 H 455.63 -2.84644 -2.6923 0
M  V30 4830 H 457.327 -3.16399 -2.46359 0
M  V30 4831 H 453.917 -4.06765 -1.35058 0
M  V30 4832 H 458.101 -4.8943 -0.8229 0
M  V30 4833 H 453.357 -6.11306 -0.107456 0
M  V30 4834 H 457.531 -6.95171 0.413584 0
M  V30 4835 H 455.158 -7.56216 0.777265 0
M  V30 4836 N 456.733 0.527833 -1.48498 0
M  V30 4837 C 457.68 1.6322 -1.6318 0
M  V30 4838 C 458.65 1.59199 -0.473815 0
M  V30 4839 O 459.835 1.77591 -0.697563 0
M  V30 4840 C 456.975 3.01474 -1.67951 0
M  V30 4841 C 456.088 3.15713 -2.94871 0
M  V30 4842 C 455.223 4.44539 -2.90789 0
M  V30 4843 C 454.262 4.52315 -4.12404 0
M  V30 4844 N 453.399 5.72533 -4.06387 0
M  V30 4845 H 458.239 1.50011 -2.57489 0
M  V30 4846 H 455.776 0.730298 -1.27691 0
M  V30 4847 H 457.734 3.81572 -1.68698 0
M  V30 4848 H 456.364 3.1345 -0.771306 0
M  V30 4849 H 455.416 2.28854 -3.03859 0
M  V30 4850 H 456.728 3.1732 -3.8485 0
M  V30 4851 H 455.882 5.3293 -2.89949 0
M  V30 4852 H 454.621 4.45457 -1.98542 0
M  V30 4853 H 453.626 3.62331 -4.13517 0
M  V30 4854 H 454.851 4.53134 -5.05812 0
M  V30 4855 H 452.797 5.74344 -3.16962 0
M  V30 4856 H 452.714 5.75643 -4.90073 0
M  V30 4857 H 453.982 6.63204 -4.0961 0
M  V30 4858 N 458.211 1.37122 0.776871 0
M  V30 4859 C 459.174 1.32301 1.8716 0
M  V30 4860 C 460.174 0.228099 1.59174 0
M  V30 4861 O 461.364 0.483642 1.67352 0
M  V30 4862 C 458.496 1.054 3.24197 0
M  V30 4863 H 459.689 2.29673 1.92848 0
M  V30 4864 H 457.242 1.22077 0.97606 0
M  V30 4865 H 457.977 0.0853872 3.24188 0
M  V30 4866 H 457.762 1.84648 3.45901 0
M  V30 4867 H 459.252 1.04664 4.04271 0
M  V30 4868 N 459.689 -1.00246 1.21608 0
M  V30 4869 C 460.935 -1.74319 1.03638 0
M  V30 4870 C 461.268 -1.89408 -0.428749 0
M  V30 4871 O 460.543 -1.43026 -1.3181 0
M  V30 4872 C 460.826 -3.15431 1.73711 0
M  V30 4873 C 460.679 -3.08049 3.27759 0
M  V30 4874 C 461.998 -4.14407 1.48173 0
M  V30 4875 H 459.117 -0.632741 0.377899 0
M  V30 4876 H 461.759 -1.16853 1.49818 0
M  V30 4877 H 459.909 -3.64493 1.34452 0
M  V30 4878 H 461.581 -2.66681 3.76403 0
M  V30 4879 H 459.824 -2.45088 3.57931 0
M  V30 4880 H 460.495 -4.07862 3.71958 0
M  V30 4881 H 462.971 -3.74061 1.82258 0
M  V30 4882 H 461.847 -5.11279 1.99713 0
M  V30 4883 H 462.108 -4.40174 0.412273 0
M  V30 4884 N 461.167 -1.02423 -1.1978 0
M  V30 4885 C 462.097 -0.62157 -2.25075 0
M  V30 4886 C 463.078 0.367148 -1.6609 0
M  V30 4887 O 464.263 0.250892 -1.92573 0
M  V30 4888 C 461.393 0.0331826 -3.47284 0
M  V30 4889 C 460.347 -0.877323 -4.18912 0
M  V30 4890 C 459.673 -0.0879296 -5.34628 0
M  V30 4891 C 460.973 -2.18892 -4.74219 0
M  V30 4892 H 462.667 -1.50179 -2.59011 0
M  V30 4893 H 460.213 -0.723547 -1.24502 0
M  V30 4894 H 462.166 0.326488 -4.20133 0
M  V30 4895 H 460.89 0.948164 -3.12534 0
M  V30 4896 H 459.549 -1.15475 -3.47938 0
M  V30 4897 H 459.197 0.828941 -4.96123 0
M  V30 4898 H 458.897 -0.694359 -5.83483 0
M  V30 4899 H 460.421 0.198743 -6.10276 0
M  V30 4900 H 461.835 -1.95746 -5.38847 0
M  V30 4901 H 460.232 -2.74686 -5.33542 0
M  V30 4902 H 461.302 -2.84674 -3.92541 0
M  V30 4903 N 462.645 1.35699 -0.801477 0
M  V30 4904 C 463.555 2.33661 -0.209691 0
M  V30 4905 C 464.571 1.6162 0.644591 0
M  V30 4906 O 465.747 1.93529 0.557545 0
M  V30 4907 C 462.812 3.40816 0.636033 0
M  V30 4908 C 461.873 4.28639 -0.238147 0
M  V30 4909 C 461.106 5.30676 0.567307 0
M  V30 4910 O 461.329 5.41174 1.8024 0
M  V30 4911 O 460.263 6.01887 -0.0391336 0
M  V30 4912 H 464.089 2.8606 -1.01996 0
M  V30 4913 H 461.674 1.38379 -0.563164 0
M  V30 4914 H 463.556 4.06301 1.11791 0
M  V30 4915 H 462.231 2.90696 1.42399 0
M  V30 4916 H 461.138 3.66152 -0.767044 0
M  V30 4917 H 462.471 4.82143 -0.989915 0
M  V30 4918 N 464.123 0.554532 1.47522 0
M  V30 4919 C 465.351 0.034257 2.06872 0
M  V30 4920 C 465.766 -1.25826 1.40759 0
M  V30 4921 O 465.123 -1.75425 0.503217 0
M  V30 4922 C 465.174 -0.167827 3.6111 0
M  V30 4923 O 464.895 1.07351 4.24744 0
M  V30 4924 C 466.396 -0.72569 4.3732 0
M  V30 4925 H 463.616 0.0446275 0.669514 0
M  V30 4926 H 466.16 0.767181 1.89564 0
M  V30 4927 H 464.315 -0.850872 3.7794 0
M  V30 4928 H 464.729 0.869563 5.17242 0
M  V30 4929 H 466.203 -0.816394 5.45929 0
M  V30 4930 H 466.68 -1.73635 4.0342 0
M  V30 4931 H 467.286 -0.0784292 4.25228 0
M  V30 4932 N 465.601 -1.54893 0.290851 0
M  V30 4933 C 466.847 -2.00949 -0.314784 0
M  V30 4934 C 467.202 -1.1757 -1.52299 0
M  V30 4935 O 466.495 -0.241558 -1.90071 0
M  V30 4936 C 466.689 -3.49815 -0.732397 0
M  V30 4937 C 466.518 -4.47603 0.433799 0
M  V30 4938 C 465.288 -4.96806 0.922599 0
M  V30 4939 C 467.486 -4.98233 1.27546 0
M  V30 4940 N 465.468 -5.78426 2.05662 0
M  V30 4941 C 466.839 -5.77455 2.25712 0
M  V30 4942 C 468.894 -4.80439 1.307 0
M  V30 4943 C 467.597 -6.40778 3.26796 0
M  V30 4944 C 469.623 -5.44574 2.30637 0
M  V30 4945 C 468.985 -6.23619 3.27533 0
M  V30 4946 H 465.084 -0.777905 -0.0799257 0
M  V30 4947 H 467.668 -1.9015 0.418458 0
M  V30 4948 H 465.839 -3.60925 -1.43483 0
M  V30 4949 H 467.571 -3.82681 -1.31671 0
M  V30 4950 H 464.326 -4.70961 0.49926 0
M  V30 4951 H 464.75 -6.23923 2.62772 0
M  V30 4952 H 469.392 -4.18918 0.571622 0
M  V30 4953 H 467.11 -7.01439 4.01258 0
M  V30 4954 H 470.696 -5.32739 2.33838 0
M  V30 4955 H 469.576 -6.72367 4.03599 0
M  V30 4956 N 467.08 -0.0183926 -1.57589 0
M  V30 4957 C 468.328 0.661253 -1.90976 0
M  V30 4958 C 468.649 1.73281 -0.894353 0
M  V30 4959 O 467.919 1.9579 0.0656788 0
M  V30 4960 H 466.499 0.247233 -0.704901 0
M  V30 4961 H 469.161 -0.0636639 -1.94796 0
M  V30 4962 H 468.257 1.12083 -2.9128 0
M  V30 4963 N 468.558 1.5553 0.254621 0
M  V30 4964 C 469.805 1.77 0.983736 0
M  V30 4965 C 470.133 0.58133 1.85609 0
M  V30 4966 O 469.388 -0.435621 1.9079 0
M  V30 4967 C 469.687 3.03891 1.88109 0
M  V30 4968 C 469.353 4.35597 1.16472 0
M  V30 4969 C 468.015 4.7139 0.966714 0
M  V30 4970 C 470.367 5.1705 0.656387 0
M  V30 4971 C 467.695 5.86176 0.247942 0
M  V30 4972 C 470.047 6.32581 -0.0488807 0
M  V30 4973 C 468.711 6.67 -0.258438 0
M  V30 4974 H 467.981 0.647688 0.359974 0
M  V30 4975 H 470.628 1.89802 0.254463 0
M  V30 4976 H 468.933 2.86068 2.67717 0
M  V30 4977 H 470.63 3.17701 2.44677 0
M  V30 4978 H 467.22 4.07475 1.32899 0
M  V30 4979 H 471.404 4.8986 0.796933 0
M  V30 4980 H 466.66 6.11354 0.075035 0
M  V30 4981 H 470.834 6.94942 -0.450444 0
M  V30 4982 H 468.461 7.55793 -0.817358 0
M  V30 4983 N 470.036 -0.519951 1.48776 0
M  V30 4984 C 470.984 -1.64443 1.64503 0
M  V30 4985 C 471.978 -1.61501 0.511248 0
M  V30 4986 O 473.184 -1.66238 0.690294 0
M  V30 4987 H 469.559 -0.544776 0.518385 0
M  V30 4988 H 471.53 -1.48325 2.58925 0
M  V30 4989 C 470.279 -3.02673 1.71127 0
M  V30 4990 H 469.602 -3.05635 2.57735 0
M  V30 4991 H 471.042 -3.80941 1.86172 0
M  V30 4992 C 469.501 -3.33854 0.452032 0
M  V30 4993 O 470.031 -3.99385 -0.430678 0
M  V30 4994 N 468.237 -2.88825 0.32069 0
M  V30 4995 H 467.784 -2.35674 1.03998 0
M  V30 4996 H 467.742 -3.10056 -0.520814 0
M  V30 4997 N 471.514 -1.37532 -0.769588 0
M  V30 4998 C 472.742 -1.36059 -1.55871 0
M  V30 4999 C 473.157 0.053544 -1.88724 0
M  V30 5000 O 472.514 1.01591 -1.5161 0
M  V30 5001 C 472.565 -2.20107 -2.86767 0
M  V30 5002 O 472.286 -3.56009 -2.55321 0
M  V30 5003 C 473.787 -2.26636 -3.80987 0
M  V30 5004 H 471.007 -0.465967 -0.482821 0
M  V30 5005 H 473.551 -1.80901 -0.953686 0
M  V30 5006 H 471.706 -1.78768 -3.43687 0
M  V30 5007 H 472.12 -4.0009 -3.39158 0
M  V30 5008 H 473.594 -2.89763 -4.69831 0
M  V30 5009 H 474.071 -1.2754 -4.20274 0
M  V30 5010 H 474.677 -2.68296 -3.29996 0
M  V30 5011 N 472.992 0.995999 -1.22138 0
M  V30 5012 C 473.94 2.10673 -0.985876 0
M  V30 5013 C 474.934 1.69255 0.0699553 0
M  V30 5014 O 476.14 1.79812 -0.0822176 0
M  V30 5015 H 472.515 0.688865 -0.30161 0
M  V30 5016 H 474.486 2.27711 -1.92848 0
M  V30 5017 C 473.235 3.42881 -0.576909 0
M  V30 5018 H 472.558 3.75191 -1.38101 0
M  V30 5019 H 473.998 4.21589 -0.451518 0
M  V30 5020 C 472.457 3.29265 0.713196 0
M  V30 5021 O 472.987 3.60777 1.76643 0
M  V30 5022 N 471.193 2.82456 0.683162 0
M  V30 5023 H 470.74 2.5701 -0.174242 0
M  V30 5024 H 470.698 2.73727 1.54663 0
M  V30 5025 N 474.47 1.03057 1.19235 0
M  V30 5026 C 475.402 0.570932 2.21975 0
M  V30 5027 C 476.415 -0.354088 1.58903 0
M  V30 5028 O 477.604 -0.150211 1.77867 0
M  V30 5029 C 474.704 -0.187152 3.38383 0
M  V30 5030 C 473.877 0.743231 4.31039 0
M  V30 5031 C 472.936 0.0302493 5.26191 0
M  V30 5032 O 471.962 0.657371 5.65391 0
M  V30 5033 N 473.164 -1.23991 5.67104 0
M  V30 5034 H 475.929 1.45456 2.62036 0
M  V30 5035 H 473.49 0.909807 1.33918 0
M  V30 5036 H 475.482 -0.673715 3.99053 0
M  V30 5037 H 474.052 -0.972205 2.97098 0
M  V30 5038 H 473.272 1.40985 3.68126 0
M  V30 5039 H 474.56 1.3755 4.89854 0
M  V30 5040 H 473.958 -1.77011 5.37293 0
M  V30 5041 H 472.515 -1.67093 6.30018 0
M  V30 5042 N 475.948 -1.35272 0.808662 0
M  V30 5043 C 476.858 -2.33546 0.222079 0
M  V30 5044 C 477.874 -1.6196 -0.636011 0
M  V30 5045 O 479.05 -1.93822 -0.547274 0
M  V30 5046 C 476.115 -3.41148 -0.61795 0
M  V30 5047 C 475.176 -4.28507 0.260875 0
M  V30 5048 C 474.409 -5.3097 -0.539156 0
M  V30 5049 O 474.632 -5.42123 -1.77367 0
M  V30 5050 O 473.566 -6.01858 0.0710526 0
M  V30 5051 H 477.392 -2.85515 1.03512 0
M  V30 5052 H 474.977 -1.38079 0.570495 0
M  V30 5053 H 476.859 -4.06889 -1.09634 0
M  V30 5054 H 475.534 -2.91447 -1.40855 0
M  V30 5055 H 474.441 -3.6574 0.786451 0
M  V30 5056 H 475.774 -4.81611 1.01547 0
M  V30 5057 N 477.426 -0.562348 -1.47226 0
M  V30 5058 C 478.675 -0.038041 -2.01664 0
M  V30 5059 C 478.988 1.32199 -1.44162 0
M  V30 5060 O 480.194 1.9365 -1.90294 0
M  V30 5061 C 478.65 -0.0174958 -3.59896 0
M  V30 5062 C 478.258 -1.3746 -4.2639 0
M  V30 5063 C 480.002 0.453934 -4.22066 0
M  V30 5064 C 477.909 -1.31289 -5.76643 0
M  V30 5065 H 476.839 -0.0104511 -0.753928 0
M  V30 5066 H 479.49 -0.710966 -1.69167 0
M  V30 5067 H 477.872 0.721182 -3.89378 0
M  V30 5068 H 479.046 -2.1314 -4.08544 0
M  V30 5069 H 477.361 -1.78438 -3.7623 0
M  V30 5070 H 479.958 0.518584 -5.32179 0
M  V30 5071 H 480.301 1.46706 -3.89594 0
M  V30 5072 H 480.834 -0.230044 -3.97134 0
M  V30 5073 H 477.573 -2.30217 -6.13743 0
M  V30 5074 H 477.093 -0.597973 -5.96812 0
M  V30 5075 H 478.772 -1.01713 -6.38955 0
M  V30 5076 N 478.904 1.54736 -0.299062 0
M  V30 5077 C 480.151 2.00101 0.310784 0
M  V30 5078 C 480.479 1.18746 1.54045 0
M  V30 5079 O 479.734 0.251198 1.94081 0
M  V30 5080 C 480.033 3.50199 0.713835 0
M  V30 5081 C 479.699 4.48997 -0.413873 0
M  V30 5082 C 478.361 4.7573 -0.723462 0
M  V30 5083 C 480.713 5.07839 -1.17257 0
M  V30 5084 C 478.041 5.5857 -1.79491 0
M  V30 5085 C 480.393 5.91844 -2.23392 0
M  V30 5086 C 479.057 6.16889 -2.54959 0
M  V30 5087 H 478.327 0.732221 0.113724 0
M  V30 5088 H 480.974 1.86888 -0.417756 0
M  V30 5089 H 479.279 3.61012 1.52243 0
M  V30 5090 H 480.976 3.82723 1.19684 0
M  V30 5091 H 477.566 4.28292 -0.162476 0
M  V30 5092 H 481.75 4.87188 -0.946651 0
M  V30 5093 H 477.006 5.76213 -2.04423 0
M  V30 5094 H 481.18 6.36465 -2.8264 0
M  V30 5095 H 478.807 6.80869 -3.38114 0
M  V30 5096 N 480.382 0.0267497 1.57577 0
M  V30 5097 C 481.314 -0.984594 2.06974 0
M  V30 5098 C 482.327 -1.29032 0.992705 0
M  V30 5099 O 483.516 -1.25539 1.26895 0
M  V30 5100 C 480.616 -2.31262 2.47732 0
M  V30 5101 C 479.789 -2.1924 3.78487 0
M  V30 5102 C 478.848 -3.34956 4.05821 0
M  V30 5103 O 477.874 -3.11948 4.76106 0
M  V30 5104 N 479.076 -4.58672 3.55809 0
M  V30 5105 H 481.841 -0.563143 2.94362 0
M  V30 5106 H 479.402 -0.160061 1.61107 0
M  V30 5107 H 481.394 -3.07496 2.63112 0
M  V30 5108 H 479.964 -2.65056 1.65723 0
M  V30 5109 H 479.184 -1.27747 3.72927 0
M  V30 5110 H 480.472 -2.08409 4.64158 0
M  V30 5111 H 479.87 -4.8026 2.98942 0
M  V30 5112 H 478.427 -5.32083 3.76472 0
M  V30 5113 N 481.861 -1.55662 -0.24637 0
M  V30 5114 C 482.771 -1.93495 -1.32653 0
M  V30 5115 C 483.787 -0.835462 -1.5263 0
M  V30 5116 O 484.963 -1.1369 -1.66242 0
M  V30 5117 C 482.028 -2.22242 -2.66101 0
M  V30 5118 C 481.089 -3.45625 -2.54641 0
M  V30 5119 C 480.322 -3.72991 -3.81724 0
M  V30 5120 O 480.545 -3.02421 -4.8363 0
M  V30 5121 O 479.479 -4.66515 -3.80325 0
M  V30 5122 H 483.305 -2.85498 -1.03559 0
M  V30 5123 H 480.89 -1.42551 -0.44717 0
M  V30 5124 H 482.772 -2.42037 -3.44958 0
M  V30 5125 H 481.447 -1.33417 -2.94926 0
M  V30 5126 H 480.354 -3.31136 -1.74067 0
M  V30 5127 H 481.687 -4.34754 -2.3076 0
M  V30 5128 N 483.339 0.512053 -1.4905 0
M  V30 5129 C 484.585 1.26874 -1.58212 0
M  V30 5130 C 484.918 1.9241 -0.263073 0
M  V30 5131 O 484.193 1.80181 0.732476 0
M  V30 5132 C 484.476 2.34428 -2.73341 0
M  V30 5133 C 484.329 1.73466 -4.15006 0
M  V30 5134 C 485.648 3.36073 -2.84154 0
M  V30 5135 H 482.767 0.459924 -0.575881 0
M  V30 5136 H 485.409 0.568587 -1.81293 0
M  V30 5137 H 483.559 2.94146 -2.53792 0
M  V30 5138 H 485.231 1.17661 -4.46042 0
M  V30 5139 H 483.474 1.03921 -4.21168 0
M  V30 5140 H 484.145 2.51426 -4.91415 0
M  V30 5141 H 486.621 2.86332 -3.01916 0
M  V30 5142 H 485.497 4.08703 -3.66406 0
M  V30 5143 H 485.758 3.97725 -1.93048 0
M  V30 5144 N 484.817 1.37938 0.762283 0
M  V30 5145 C 486.063 1.33866 1.52341 0
M  V30 5146 C 486.396 -0.0738961 1.94059 0
M  V30 5147 O 485.671 -1.03326 1.64785 0
M  V30 5148 C 485.954 2.28644 2.78197 0
M  V30 5149 C 485.807 3.78722 2.42672 0
M  V30 5150 C 487.126 2.21702 3.80179 0
M  V30 5151 H 484.245 0.487593 0.55265 0
M  V30 5152 H 486.887 1.68717 0.873767 0
M  V30 5153 H 485.037 1.99055 3.33631 0
M  V30 5154 H 486.709 4.18948 1.93081 0
M  V30 5155 H 484.952 3.96827 1.75244 0
M  V30 5156 H 485.623 4.40486 3.3268 0
M  V30 5157 H 488.099 2.47805 3.34263 0
M  V30 5158 H 486.975 2.90143 4.65949 0
M  V30 5159 H 487.236 1.21301 4.25133 0
M  V30 5160 N 486.295 -0.989507 1.22664 0
M  V30 5161 C 487.543 -1.72612 1.05117 0
M  V30 5162 C 487.864 -1.90552 -0.414131 0
M  V30 5163 O 487.134 -1.4676 -1.29762 0
M  V30 5164 H 485.714 -0.639555 0.385977 0
M  V30 5165 H 488.376 -1.19158 1.54232 0
M  V30 5166 H 487.472 -2.71926 1.53175 0
M  V30 5167 N 487.773 -1.03688 -1.18687 0
M  V30 5168 C 489.021 -0.736572 -1.88199 0
M  V30 5169 C 489.342 0.737665 -1.80509 0
M  V30 5170 O 488.612 1.53204 -1.22088 0
M  V30 5171 H 487.192 -0.269466 -0.696704 0
M  V30 5172 H 489.854 -1.31282 -1.44052 0
M  V30 5173 H 488.95 -1.03802 -2.94332 0
M  V30 5174 N 489.251 1.34841 -0.815825 0
M  V30 5175 C 490.498 1.98499 -0.400535 0
M  V30 5176 C 490.826 1.64699 1.03463 0
M  V30 5177 O 490.081 0.907006 1.73412 0
M  V30 5178 C 490.38 3.53273 -0.541541 0
M  V30 5179 C 490.046 4.06966 -1.94138 0
M  V30 5180 C 488.708 4.21341 -2.32433 0
M  V30 5181 C 491.06 4.35933 -2.85677 0
M  V30 5182 C 488.388 4.62007 -3.61617 0
M  V30 5183 C 490.74 4.78042 -4.14317 0
M  V30 5184 C 489.404 4.90622 -4.52599 0
M  V30 5185 H 488.674 0.72636 -0.146566 0
M  V30 5186 H 491.321 1.60902 -1.0384 0
M  V30 5187 H 489.626 3.91387 0.179741 0
M  V30 5188 H 491.323 4.00497 -0.20085 0
M  V30 5189 H 487.913 3.96235 -1.63388 0
M  V30 5190 H 492.097 4.24372 -2.57337 0
M  V30 5191 H 487.353 4.69937 -3.91113 0
M  V30 5192 H 491.527 4.99415 -4.85342 0
M  V30 5193 H 489.154 5.2189 -5.52752 0
M  V30 5194 N 490.729 0.570148 1.46925 0
M  V30 5195 C 492.14 0.1402 1.86173 0
M  V30 5196 C 492.491 -1.29347 1.47526 0
M  V30 5197 O 491.616 -1.97508 0.884292 0
M  V30 5198 C 492.211 0.247661 3.37894 0
M  V30 5199 C 490.77 -0.127332 3.76185 0
M  V30 5200 C 489.917 0.589349 2.70965 0
M  V30 5201 H 492.868 0.779117 1.38259 0
M  V30 5202 H 492.889 -0.530341 3.76786 0
M  V30 5203 H 492.401 1.29121 3.65991 0
M  V30 5204 H 490.502 -1.17149 3.53704 0
M  V30 5205 H 490.615 0.240238 4.78497 0
M  V30 5206 H 488.979 0.0309824 2.54681 0
M  V30 5207 H 489.762 1.6343 3.01903 0
M  V30 5208 N 492.207 -1.54576 0.307264 0
M  V30 5209 C 493.432 -2.05139 -0.305379 0
M  V30 5210 C 493.857 -1.18278 -1.46259 0
M  V30 5211 O 493.215 -0.188243 -1.8032 0
M  V30 5212 C 493.263 -3.53066 -0.733283 0
M  V30 5213 O 492.367 -3.69206 -1.83741 0
M  V30 5214 H 491.708 -0.661444 -0.0582105 0
M  V30 5215 H 494.238 -1.99569 0.450931 0
M  V30 5216 H 494.248 -3.95034 -1.02039 0
M  V30 5217 H 492.923 -4.15746 0.113198 0
M  V30 5218 H 491.5 -3.39143 -1.55037 0
M  V30 5219 N 493.685 -0.035106 -1.57561 0
M  V30 5220 C 494.617 0.973604 -2.07494 0
M  V30 5221 C 495.63 1.28504 -0.999534 0
M  V30 5222 O 496.819 1.24864 -1.27559 0
M  V30 5223 C 493.919 2.29945 -2.48955 0
M  V30 5224 C 493.092 2.1723 -3.79644 0
M  V30 5225 C 492.151 3.328 -4.07592 0
M  V30 5226 O 491.177 3.09418 -4.77754 0
M  V30 5227 N 492.379 4.56779 -3.58236 0
M  V30 5228 H 495.144 0.547525 -2.94656 0
M  V30 5229 H 492.705 0.151515 -1.61189 0
M  V30 5230 H 494.697 3.06097 -2.64739 0
M  V30 5231 H 493.267 2.64173 -1.67126 0
M  V30 5232 H 492.487 1.25768 -3.73599 0
M  V30 5233 H 493.775 2.05945 -4.65257 0
M  V30 5234 H 493.173 4.78668 -3.01485 0
M  V30 5235 H 491.73 5.30079 -3.79288 0
M  V30 5236 N 495.163 1.55791 0.238111 0
M  V30 5237 C 496.126 1.90239 1.27835 0
M  V30 5238 C 497.126 0.779552 1.4064 0
M  V30 5239 O 498.316 1.04747 1.3919 0
M  V30 5240 C 495.448 2.13859 2.65475 0
M  V30 5241 H 496.641 2.83262 0.985034 0
M  V30 5242 H 494.194 1.48818 0.477799 0
M  V30 5243 H 494.929 1.23334 2.99932 0
M  V30 5244 H 494.714 2.95643 2.57561 0
M  V30 5245 H 496.204 2.41664 3.40571 0
M  V30 5246 N 496.642 -0.504142 1.49319 0
M  V30 5247 C 497.574 -1.62265 1.61872 0
M  V30 5248 C 498.587 -1.54881 0.501573 0
M  V30 5249 O 499.776 -1.6087 0.773497 0
M  V30 5250 C 496.876 -3.01042 1.55651 0
M  V30 5251 C 496.049 -3.33642 2.82845 0
M  V30 5252 C 495.108 -4.51816 2.69719 0
M  V30 5253 O 494.134 -4.53755 3.4365 0
M  V30 5254 N 495.336 -5.51543 1.81055 0
M  V30 5255 H 498.101 -1.51924 2.58339 0
M  V30 5256 H 495.662 -0.691954 1.46368 0
M  V30 5257 H 497.654 -3.78013 1.44528 0
M  V30 5258 H 496.224 -3.05323 0.670546 0
M  V30 5259 H 495.444 -2.45598 3.08343 0
M  V30 5260 H 496.732 -3.5222 3.67177 0
M  V30 5261 H 496.13 -5.52774 1.20241 0
M  V30 5262 H 494.687 -6.27629 1.75856 0
M  V30 5263 N 498.12 -1.38341 -0.754957 0
M  V30 5264 C 499.366 -1.34672 -1.51628 0
M  V30 5265 C 499.699 0.0636036 -1.94096 0
M  V30 5266 O 498.974 1.0245 -1.6533 0
M  V30 5267 C 499.257 -2.30116 -2.76981 0
M  V30 5268 C 499.11 -3.80003 -2.4066 0
M  V30 5269 C 500.429 -2.23715 -3.78998 0
M  V30 5270 H 497.548 -0.490517 -0.550056 0
M  V30 5271 H 500.19 -1.69178 -0.864807 0
M  V30 5272 H 498.34 -2.00821 -3.3257 0
M  V30 5273 H 500.012 -4.19966 -1.90856 0
M  V30 5274 H 498.255 -3.97751 -1.73137 0
M  V30 5275 H 498.926 -4.42244 -3.30339 0
M  V30 5276 H 501.402 -2.49574 -3.32945 0
M  V30 5277 H 500.278 -2.9261 -4.64403 0
M  V30 5278 H 500.539 -1.23554 -4.24484 0
M  V30 5279 N 499.598 0.982988 -1.23187 0
M  V30 5280 C 500.826 1.75921 -1.08901 0
M  V30 5281 C 501.241 1.85341 0.359719 0
M  V30 5282 O 500.598 1.33072 1.24892 0
M  V30 5283 C 500.649 3.18742 -1.70545 0
M  V30 5284 O 500.37 3.09814 -3.09753 0
M  V30 5285 C 501.871 4.1277 -1.61667 0
M  V30 5286 H 499.091 0.552166 -0.381252 0
M  V30 5287 H 501.635 1.23516 -1.62985 0
M  V30 5288 H 499.79 3.68182 -1.20501 0
M  V30 5289 H 500.204 3.99703 -3.39614 0
M  V30 5290 H 501.678 5.10697 -2.09506 0
M  V30 5291 H 502.155 4.3542 -0.575009 0
M  V30 5292 H 502.761 3.69232 -2.11064 0
M  V30 5293 N 501.076 1.04316 1.18135 0
M  V30 5294 C 502.322 0.749128 1.88457 0
M  V30 5295 C 502.655 -0.72149 1.803 0
M  V30 5296 O 501.93 -1.52676 1.205 0
M  V30 5297 C 502.213 1.21905 3.38838 0
M  V30 5298 C 502.066 2.75195 3.55792 0
M  V30 5299 C 503.385 0.811085 4.32561 0
M  V30 5300 H 500.504 0.273611 0.684329 0
M  V30 5301 H 503.146 1.29561 1.38975 0
M  V30 5302 H 501.296 0.754137 3.8111 0
M  V30 5303 H 502.968 3.29743 3.22595 0
M  V30 5304 H 501.211 3.14899 2.98364 0
M  V30 5305 H 501.882 3.03135 4.61317 0
M  V30 5306 H 504.358 1.21118 3.98082 0
M  V30 5307 H 503.234 1.16761 5.36338 0
M  V30 5308 H 503.495 -0.285596 4.41177 0
M  V30 5309 N 502.554 -1.34406 0.822964 0
M  V30 5310 C 503.504 -2.26963 0.217208 0
M  V30 5311 C 504.488 -1.48536 -0.618545 0
M  V30 5312 O 505.68 -1.7056 -0.473118 0
M  V30 5313 C 502.809 -3.37655 -0.619973 0
M  V30 5314 C 501.895 -4.23495 0.226411 0
M  V30 5315 N 502.286 -4.88876 1.29744 0
M  V30 5316 C 500.584 -4.45999 0.0107554 0
M  V30 5317 C 501.285 -5.52642 1.81553 0
M  V30 5318 N 500.261 -5.31949 1.11942 0
M  V30 5319 H 504.063 -2.75017 1.03647 0
M  V30 5320 H 501.577 -1.48126 0.665777 0
M  V30 5321 H 503.574 -4.02932 -1.07011 0
M  V30 5322 H 502.234 -2.91151 -1.43739 0
M  V30 5323 H 503.245 -4.89886 1.68024 0
M  V30 5324 H 499.922 -4.10253 -0.774495 0
M  V30 5325 H 501.312 -6.14755 2.71156 0
M  V30 5326 N 504.032 -0.577932 -1.46621 0
M  V30 5327 C 505.272 -0.0643097 -2.04299 0
M  V30 5328 C 505.636 1.26967 -1.44026 0
M  V30 5329 O 506.837 1.87224 -1.92875 0
M  V30 5330 C 505.108 0.00547588 -3.574 0
M  V30 5331 S 506.667 0.462216 -4.36359 0
M  V30 5332 H 503.485 -0.0351573 -0.71013 0
M  V30 5333 H 506.087 -0.76935 -1.79725 0
M  V30 5334 H 504.791 -0.969423 -3.98786 0
M  V30 5335 H 504.322 0.733435 -3.86503 0
M  V30 5336 H 506.337 1.71791 -4.65513 0
M  V30 5337 N 505.51 1.54411 -0.315457 0
M  V30 5338 C 506.44 2.27002 0.547039 0
M  V30 5339 C 507.421 1.27492 1.12605 0
M  V30 5340 O 508.606 1.5629 1.15269 0
M  V30 5341 C 505.736 3.02171 1.71201 0
M  V30 5342 C 504.69 4.0895 1.26268 0
M  V30 5343 C 504.016 4.71915 2.51396 0
M  V30 5344 C 505.316 5.20891 0.383419 0
M  V30 5345 H 507.01 2.99343 -0.0584517 0
M  V30 5346 H 504.556 1.4397 -0.0295527 0
M  V30 5347 H 506.509 3.51681 2.32161 0
M  V30 5348 H 505.233 2.27433 2.34397 0
M  V30 5349 H 503.892 3.60312 0.676062 0
M  V30 5350 H 503.54 3.93801 3.12937 0
M  V30 5351 H 503.24 5.44039 2.22026 0
M  V30 5352 H 504.764 5.24195 3.13133 0
M  V30 5353 H 506.178 5.66206 0.899082 0
M  V30 5354 H 504.575 5.99821 0.182857 0
M  V30 5355 H 505.645 4.81324 -0.587821 0
M  V30 5356 N 506.988 0.0434614 1.5754 0
M  V30 5357 C 507.935 -0.93356 2.11077 0
M  V30 5358 C 508.905 -1.31383 1.01626 0
M  V30 5359 O 510.09 -1.40465 1.29129 0
M  V30 5360 C 507.23 -2.20578 2.65404 0
M  V30 5361 C 506.343 -1.88068 3.88914 0
M  V30 5362 C 505.478 -3.09691 4.31584 0
M  V30 5363 C 504.517 -2.73067 5.47815 0
M  V30 5364 N 503.654 -3.87359 5.85574 0
M  V30 5365 H 508.494 -0.470118 2.94268 0
M  V30 5366 H 506.031 -0.220434 1.45439 0
M  V30 5367 H 507.989 -2.95011 2.94999 0
M  V30 5368 H 506.619 -2.64513 1.85021 0
M  V30 5369 H 505.671 -1.03816 3.6596 0
M  V30 5370 H 506.983 -1.57104 4.73413 0
M  V30 5371 H 506.137 -3.92431 4.62691 0
M  V30 5372 H 504.876 -3.43827 3.45882 0
M  V30 5373 H 503.881 -1.88742 5.16388 0
M  V30 5374 H 505.106 -2.40131 6.35227 0
M  V30 5375 H 503.052 -4.21311 5.02825 0
M  V30 5376 H 502.969 -3.60068 6.64746 0
M  V30 5377 H 504.237 -4.70761 6.21292 0
M  V30 5378 N 508.466 -1.55915 -0.229846 0
M  V30 5379 C 509.399 -1.86734 -1.3117 0
M  V30 5380 C 510.377 -0.723947 -1.45595 0
M  V30 5381 O 511.561 -0.971462 -1.61539 0
M  V30 5382 C 508.688 -2.06707 -2.68309 0
M  V30 5383 C 507.734 -3.2938 -2.70944 0
M  V30 5384 S 508.567 -4.85547 -2.25842 0
M  V30 5385 C 509.723 -5.08546 -3.64873 0
M  V30 5386 H 509.956 -2.78204 -1.04832 0
M  V30 5387 H 507.489 -1.48243 -0.431681 0
M  V30 5388 H 509.447 -2.18898 -3.47267 0
M  V30 5389 H 508.108 -1.16049 -2.91876 0
M  V30 5390 H 507.301 -3.40374 -3.71701 0
M  V30 5391 H 506.903 -3.16004 -2.00044 0
M  V30 5392 H 509.195 -4.96935 -4.60502 0
M  V30 5393 H 510.138 -6.10465 -3.58801 0
M  V30 5394 H 510.546 -4.36314 -3.58176 0
M  V30 5395 N 509.944 0.496216 -1.49584 0
M  V30 5396 C 511.355 1.07765 -1.52459 0
M  V30 5397 C 511.706 1.93679 -0.31353 0
M  V30 5398 O 510.831 2.08588 0.576186 0
M  V30 5399 C 511.426 1.96111 -2.76271 0
M  V30 5400 C 509.985 2.49409 -2.81908 0
M  V30 5401 C 509.132 1.27142 -2.46435 0
M  V30 5402 H 512.083 0.279914 -1.56212 0
M  V30 5403 H 512.104 2.80862 -2.56704 0
M  V30 5404 H 511.616 1.33555 -3.64396 0
M  V30 5405 H 509.717 3.1559 -1.98074 0
M  V30 5406 H 509.83 2.86234 -3.84196 0
M  V30 5407 H 508.194 1.59818 -1.98319 0
M  V30 5408 H 508.977 0.662866 -3.3684 0
M  V30 5409 N 511.423 1.38739 0.74761 0
M  V30 5410 C 512.37 1.36449 1.86146 0
M  V30 5411 C 513.34 0.226098 1.64554 0
M  V30 5412 O 514.525 0.41926 1.86137 0
M  V30 5413 C 511.665 1.2013 3.23516 0
M  V30 5414 C 510.778 2.43407 3.56899 0
M  V30 5415 C 509.913 2.19773 4.83605 0
M  V30 5416 C 508.952 3.3879 5.09792 0
M  V30 5417 N 508.089 3.14553 6.27695 0
M  V30 5418 H 512.929 2.3167 1.87438 0
M  V30 5419 H 510.466 1.15094 0.916063 0
M  V30 5420 H 512.424 1.08683 4.02795 0
M  V30 5421 H 511.054 0.285453 3.21535 0
M  V30 5422 H 510.106 2.65504 2.72418 0
M  V30 5423 H 511.418 3.32094 3.72176 0
M  V30 5424 H 510.572 2.05496 5.70838 0
M  V30 5425 H 509.311 1.28461 4.70478 0
M  V30 5426 H 508.316 3.53579 4.21025 0
M  V30 5427 H 509.541 4.30986 5.24812 0
M  V30 5428 H 507.487 2.25893 6.1588 0
M  V30 5429 H 507.404 3.96791 6.435 0
M  V30 5430 H 508.672 3.03943 7.17801 0
M  V30 5431 N 512.901 -0.976442 1.23707 0
M  V30 5432 C 514.15 -1.71254 1.06559 0
M  V30 5433 C 514.463 -1.91528 -0.397024 0
M  V30 5434 O 515.669 -2.62625 -0.688518 0
M  V30 5435 C 514.125 -3.08207 1.8584 0
M  V30 5436 C 513.733 -2.95806 3.36456 0
M  V30 5437 C 515.477 -3.85749 1.77194 0
M  V30 5438 C 513.384 -4.28015 4.08114 0
M  V30 5439 H 512.314 -0.642171 0.395136 0
M  V30 5440 H 514.965 -1.08877 1.4771 0
M  V30 5441 H 513.347 -3.71363 1.37498 0
M  V30 5442 H 514.521 -2.41716 3.92314 0
M  V30 5443 H 512.836 -2.31736 3.45959 0
M  V30 5444 H 515.433 -4.83633 2.28041 0
M  V30 5445 H 515.776 -4.09752 0.735477 0
M  V30 5446 H 516.309 -3.29303 2.23169 0
M  V30 5447 H 513.048 -4.09208 5.12083 0
M  V30 5448 H 512.568 -4.81955 3.57043 0
M  V30 5449 H 514.247 -4.96681 4.14629 0
M  V30 5450 N 514.379 -1.04941 -1.1758 0
M  V30 5451 C 515.604 -0.778253 -1.92245 0
M  V30 5452 C 516.029 0.659707 -1.76152 0
M  V30 5453 O 515.387 1.45803 -1.07755 0
M  V30 5454 C 515.435 -1.16051 -3.41416 0
M  V30 5455 O 514.539 -0.291153 -4.11371 0
M  V30 5456 H 513.88 -0.285619 -0.599431 0
M  V30 5457 H 516.41 -1.40159 -1.49052 0
M  V30 5458 H 516.42 -1.12619 -3.92149 0
M  V30 5459 H 515.095 -2.208 -3.52449 0
M  V30 5460 H 513.672 -0.385851 -3.70898 0
M  V30 5461 N 515.857 1.33968 -0.830081 0
M  V30 5462 C 517.097 1.99879 -0.427521 0
M  V30 5463 C 517.461 1.64355 0.992546 0
M  V30 5464 O 518.662 2.23164 1.49837 0
M  V30 5465 C 516.933 3.51771 -0.631815 0
M  V30 5466 S 518.492 4.37608 -0.323168 0
M  V30 5467 H 515.31 0.692485 -0.161202 0
M  V30 5468 H 517.912 1.63129 -1.07745 0
M  V30 5469 H 516.616 3.75113 -1.66488 0
M  V30 5470 H 516.147 3.93386 0.0325936 0
M  V30 5471 H 518.162 4.88683 0.860432 0
M  V30 5472 N 517.335 0.585699 1.46312 0
M  V30 5473 C 518.267 -0.183687 2.28463 0
M  V30 5474 C 519.28 -0.85264 1.38686 0
M  V30 5475 O 520.469 -0.721701 1.6326 0
M  V30 5476 C 517.569 -1.27977 3.13808 0
M  V30 5477 C 516.742 -0.702164 4.31727 0
M  V30 5478 C 515.801 -1.68633 4.98447 0
M  V30 5479 O 514.827 -1.22121 5.55945 0
M  V30 5480 N 516.029 -3.02047 4.95729 0
M  V30 5481 H 518.794 0.521127 2.95134 0
M  V30 5482 H 516.355 0.423673 1.56258 0
M  V30 5483 H 518.347 -1.9375 3.55307 0
M  V30 5484 H 516.917 -1.8874 2.4919 0
M  V30 5485 H 516.137 0.1331 3.93975 0
M  V30 5486 H 517.425 -0.296101 5.07938 0
M  V30 5487 H 516.823 -3.42457 4.50266 0
M  V30 5488 H 515.38 -3.63301 5.41161 0
M  V30 5489 N 518.813 -1.54241 0.323641 0
M  V30 5490 C 519.761 -2.25813 -0.557804 0
M  V30 5491 C 520.755 -1.27225 -1.11849 0
M  V30 5492 O 521.961 -1.45001 -1.06652 0
M  V30 5493 H 518.336 -0.72532 -0.198532 0
M  V30 5494 H 520.307 -2.98322 0.0681112 0
M  V30 5495 C 519.056 -3.02913 -1.70701 0
M  V30 5496 H 518.379 -3.78593 -1.28482 0
M  V30 5497 H 519.819 -3.56238 -2.29935 0
M  V30 5498 C 518.278 -2.11217 -2.62467 0
M  V30 5499 O 518.808 -1.69508 -3.64184 0
M  V30 5500 N 517.014 -1.76704 -2.30703 0
M  V30 5501 H 516.561 -2.1082 -1.48029 0
M  V30 5502 H 516.519 -1.15631 -2.92364 0
M  V30 5503 N 520.291 -0.0518155 -1.57515 0
M  V30 5504 C 521.238 0.922352 -2.11569 0
M  V30 5505 C 522.208 1.30842 -1.02321 0
M  V30 5506 O 523.393 1.39778 -1.29872 0
M  V30 5507 C 520.533 2.19167 -2.6657 0
M  V30 5508 C 519.646 1.86003 -3.89906 0
M  V30 5509 C 518.781 3.07398 -4.33221 0
M  V30 5510 C 517.82 2.70158 -5.49255 0
M  V30 5511 N 516.957 3.84248 -5.8762 0
M  V30 5512 H 521.797 0.454506 -2.94514 0
M  V30 5513 H 519.334 0.212718 -1.45554 0
M  V30 5514 H 521.292 2.93443 -2.96559 0
M  V30 5515 H 519.922 2.63528 -1.86421 0
M  V30 5516 H 518.974 1.01874 -3.66505 0
M  V30 5517 H 520.286 1.54592 -4.74239 0
M  V30 5518 H 519.44 3.89972 -4.64765 0
M  V30 5519 H 518.179 3.41988 -3.477 0
M  V30 5520 H 517.184 1.86001 -5.17382 0
M  V30 5521 H 518.409 2.36759 -6.36492 0
M  V30 5522 H 516.355 4.18638 -5.05053 0
M  V30 5523 H 516.272 3.56538 -6.66646 0
M  V30 5524 H 517.54 4.6746 -6.2378 0
M  V30 5525 N 521.769 1.56035 0.221574 0
M  V30 5526 C 523.017 1.78693 0.944102 0
M  V30 5527 C 523.338 0.620317 1.8487 0
M  V30 5528 O 522.608 -0.362784 1.92512 0
M  V30 5529 H 521.188 0.659082 0.351597 0
M  V30 5530 H 523.85 1.93497 0.233435 0
M  V30 5531 H 522.946 2.70837 1.55093 0
M  V30 5532 N 523.247 -0.488276 1.49845 0
M  V30 5533 C 524.493 -1.24341 1.6021 0
M  V30 5534 C 524.826 -1.91967 0.293651 0
M  V30 5535 O 524.101 -1.81323 -0.703718 0
M  V30 5536 C 524.384 -2.3005 2.77036 0
M  V30 5537 C 524.237 -1.66842 4.17713 0
M  V30 5538 C 525.556 -3.31509 2.89464 0
M  V30 5539 H 522.675 -0.450704 0.583125 0
M  V30 5540 H 525.317 -0.539673 1.82174 0
M  V30 5541 H 523.467 -2.90071 2.58439 0
M  V30 5542 H 525.139 -1.1055 4.47858 0
M  V30 5543 H 523.382 -0.972079 4.22768 0
M  V30 5544 H 524.053 -2.43576 4.95353 0
M  V30 5545 H 526.529 -2.81493 3.06433 0
M  V30 5546 H 525.405 -4.02822 3.72861 0
M  V30 5547 H 525.666 -3.94603 1.99351 0
M  V30 5548 N 524.725 -1.39134 -0.740242 0
M  V30 5549 C 525.971 -1.36273 -1.50192 0
M  V30 5550 C 526.304 0.0430136 -1.94152 0
M  V30 5551 O 525.579 1.00691 -1.66408 0
M  V30 5552 C 525.862 -2.33041 -2.74525 0
M  V30 5553 C 525.715 -3.82535 -2.36617 0
M  V30 5554 C 527.034 -2.27723 -3.76604 0
M  V30 5555 H 524.153 -0.496323 -0.544823 0
M  V30 5556 H 526.795 -1.70085 -0.846815 0
M  V30 5557 H 524.945 -2.04337 -3.30422 0
M  V30 5558 H 526.617 -4.21967 -1.86391 0
M  V30 5559 H 524.86 -3.99565 -1.68909 0
M  V30 5560 H 525.531 -4.45723 -3.2563 0
M  V30 5561 H 528.007 -2.53091 -3.30279 0
M  V30 5562 H 526.883 -2.97519 -4.61274 0
M  V30 5563 H 527.144 -1.28049 -4.2315 0
M  V30 5564 N 526.204 0.969867 -1.24223 0
M  V30 5565 C 527.45 1.7151 -1.08223 0
M  V30 5566 C 527.783 1.90478 0.37838 0
M  V30 5567 O 527.058 1.4647 1.27971 0
M  V30 5568 C 527.341 3.10714 -1.82013 0
M  V30 5569 C 527.194 2.9925 -3.35811 0
M  V30 5570 C 528.513 4.10332 -1.59108 0
M  V30 5571 H 525.632 0.622499 -0.394543 0
M  V30 5572 H 528.274 1.1284 -1.52863 0
M  V30 5573 H 526.424 3.608 -1.44068 0
M  V30 5574 H 528.096 2.56608 -3.83341 0
M  V30 5575 H 526.339 2.35512 -3.64303 0
M  V30 5576 H 527.01 3.97857 -3.82641 0
M  V30 5577 H 529.486 3.69097 -1.92111 0
M  V30 5578 H 528.362 5.05804 -2.13198 0
M  V30 5579 H 528.623 4.38926 -0.528832 0
M  V30 5580 N 527.682 1.05563 1.17022 0
M  V30 5581 C 528.63 0.653887 2.2322 0
M  V30 5582 C 529.624 -0.326642 1.66221 0
M  V30 5583 O 530.83 -0.192301 1.7897 0
M  V30 5584 H 527.205 0.193297 0.726733 0
M  V30 5585 H 529.176 1.5596 2.54399 0
M  V30 5586 C 527.925 0.0485434 3.47666 0
M  V30 5587 H 527.248 0.79413 3.91834 0
M  V30 5588 H 528.688 -0.195133 4.23551 0
M  V30 5589 C 527.147 -1.20583 3.14581 0
M  V30 5590 O 527.677 -2.29475 3.29703 0
M  V30 5591 N 525.883 -1.10493 2.68774 0
M  V30 5592 H 525.43 -0.218795 2.56669 0
M  V30 5593 H 525.388 -1.94507 2.47011 0
M  V30 5594 N 529.16 -1.33526 0.837174 0
M  V30 5595 C 530.385 -2.0258 0.444545 0
M  V30 5596 C 530.81 -1.6258 -0.946006 0
M  V30 5597 O 530.168 -0.817548 -1.6182 0
M  V30 5598 C 530.216 -3.5605 0.571006 0
M  V30 5599 O 529.32 -4.10422 -0.403431 0
M  V30 5600 H 528.661 -0.638866 0.180958 0
M  V30 5601 H 531.191 -1.70462 1.13154 0
M  V30 5602 H 531.201 -4.05488 0.452024 0
M  V30 5603 H 529.876 -3.84509 1.58512 0
M  V30 5604 H 528.453 -3.72113 -0.242147 0
M  V30 5605 N 530.638 -0.59345 -1.46 0
M  V30 5606 C 531.863 -0.0872365 -2.07216 0
M  V30 5607 C 532.288 1.2131 -1.43755 0
M  V30 5608 O 531.646 1.73528 -0.525152 0
M  V30 5609 C 531.694 0.0538197 -3.6056 0
M  V30 5610 O 530.798 1.10765 -3.97247 0
M  V30 5611 H 530.139 -0.0676598 -0.660544 0
M  V30 5612 H 532.669 -0.819445 -1.87473 0
M  V30 5613 H 532.679 0.256567 -4.07193 0
M  V30 5614 H 531.354 -0.895739 -4.0614 0
M  V30 5615 H 529.931 0.882501 -3.62307 0
M  V30 5616 N 532.116 1.54067 -0.331816 0
M  V30 5617 C 533.362 2.01012 0.268667 0
M  V30 5618 C 533.695 1.2195 1.51136 0
M  V30 5619 O 532.97 0.303972 1.9211 0
M  V30 5620 C 533.253 3.55158 0.59456 0
M  V30 5621 C 533.106 4.4494 -0.659409 0
M  V30 5622 C 534.425 4.16939 1.4089 0
M  V30 5623 H 531.544 0.730698 0.0961756 0
M  V30 5624 H 534.186 1.84593 -0.450031 0
M  V30 5625 H 532.336 3.6928 1.20685 0
M  V30 5626 H 534.008 4.42675 -1.29756 0
M  V30 5627 H 532.251 4.1428 -1.28665 0
M  V30 5628 H 532.922 5.50643 -0.386804 0
M  V30 5629 H 535.398 4.06443 0.891272 0
M  V30 5630 H 534.274 5.24889 1.60569 0
M  V30 5631 H 534.535 3.70798 2.40752 0
M  V30 5632 N 533.594 0.0601682 1.57485 0
M  V30 5633 C 534.527 -0.94676 2.07634 0
M  V30 5634 C 535.505 -1.29837 0.978826 0
M  V30 5635 O 536.689 -1.40969 1.2514 0
M  V30 5636 C 533.816 -2.25822 2.52433 0
M  V30 5637 C 532.862 -2.05901 3.73507 0
M  V30 5638 S 533.695 -1.32907 5.18745 0
M  V30 5639 C 534.851 -2.65356 5.66866 0
M  V30 5640 H 535.084 -0.520003 2.92717 0
M  V30 5641 H 532.617 -0.152319 1.53647 0
M  V30 5642 H 534.575 -3.01201 2.78905 0
M  V30 5643 H 533.236 -2.65624 1.67639 0
M  V30 5644 H 532.429 -3.02929 4.02803 0
M  V30 5645 H 532.031 -1.38659 3.47347 0
M  V30 5646 H 534.323 -3.61492 5.73001 0
M  V30 5647 H 535.266 -2.40685 6.6594 0
M  V30 5648 H 535.674 -2.72028 4.94632 0
M  V30 5649 N 535.072 -1.5615 -0.213296 0
M  V30 5650 C 536.318 -1.79812 -0.937849 0
M  V30 5651 C 536.651 -0.631201 -1.83656 0
M  V30 5652 O 535.926 0.369165 -1.90964 0
M  V30 5653 C 536.209 -3.13613 -1.76972 0
M  V30 5654 C 536.062 -4.40766 -0.89695 0
M  V30 5655 C 537.381 -3.43931 -2.7459 0
M  V30 5656 H 534.5 -0.654138 -0.339518 0
M  V30 5657 H 537.142 -1.88877 -0.20623 0
M  V30 5658 H 535.292 -3.06015 -2.39347 0
M  V30 5659 H 536.964 -4.60392 -0.289306 0
M  V30 5660 H 535.207 -4.33326 -0.202756 0
M  V30 5661 H 535.878 -5.30843 -1.51358 0
M  V30 5662 H 538.354 -3.5171 -2.22349 0
M  V30 5663 H 537.23 -4.38706 -3.29891 0
M  V30 5664 H 537.491 -2.6651 -3.52739 0
M  V30 5665 N 536.55 0.480323 -1.50102 0
M  V30 5666 C 537.497 1.57946 -1.6829 0
M  V30 5667 C 538.467 1.57611 -0.524223 0
M  V30 5668 O 539.652 1.75282 -0.753709 0
M  V30 5669 C 536.792 2.95978 -1.77457 0
M  V30 5670 C 535.905 3.06173 -3.04766 0
M  V30 5671 C 535.04 4.35063 -3.04784 0
M  V30 5672 C 534.079 4.38966 -4.26586 0
M  V30 5673 N 533.216 5.59314 -4.24396 0
M  V30 5674 H 538.056 1.41743 -2.62131 0
M  V30 5675 H 535.593 0.689304 -1.2995 0
M  V30 5676 H 537.551 3.76011 -1.80752 0
M  V30 5677 H 536.181 3.10837 -0.870637 0
M  V30 5678 H 535.233 2.19071 -3.10986 0
M  V30 5679 H 536.545 3.04916 -3.9475 0
M  V30 5680 H 535.699 5.23436 -3.06757 0
M  V30 5681 H 534.438 4.38915 -2.12614 0
M  V30 5682 H 533.443 3.48992 -4.24835 0
M  V30 5683 H 534.668 4.36813 -5.19972 0
M  V30 5684 H 532.614 5.63969 -3.35074 0
M  V30 5685 H 532.531 5.5976 -5.08138 0
M  V30 5686 H 533.799 6.49837 -4.30502 0
M  V30 5687 N 538.028 1.39524 0.732853 0
M  V30 5688 C 539.275 1.36865 1.49246 0
M  V30 5689 C 539.603 -0.0347118 1.94469 0
M  V30 5690 O 538.858 -1.01596 1.67262 0
M  V30 5691 C 539.157 2.28916 2.74468 0
M  V30 5692 C 538.823 3.76506 2.481 0
M  V30 5693 C 537.485 4.16721 2.40619 0
M  V30 5694 C 539.837 4.69846 2.25598 0
M  V30 5695 C 537.165 5.48334 2.08679 0
M  V30 5696 C 539.517 6.01739 1.95174 0
M  V30 5697 C 538.181 6.41015 1.86163 0
M  V30 5698 H 537.451 0.500824 0.546129 0
M  V30 5699 H 540.098 1.72047 0.840958 0
M  V30 5700 H 538.403 1.86859 3.4437 0
M  V30 5701 H 540.1 2.2415 3.32502 0
M  V30 5702 H 536.69 3.44635 2.54803 0
M  V30 5703 H 540.874 4.39608 2.30344 0
M  V30 5704 H 536.13 5.77685 2.00226 0
M  V30 5705 H 540.304 6.73591 1.76771 0
M  V30 5706 H 537.931 7.42917 1.61179 0
M  V30 5707 N 539.506 -0.963266 1.24736 0
M  V30 5708 C 540.436 -2.07628 1.06832 0
M  V30 5709 C 541.417 -1.70088 -0.0200566 0
M  V30 5710 O 542.602 -1.93636 0.147854 0
M  V30 5711 C 539.732 -3.40636 0.677069 0
M  V30 5712 C 538.686 -3.9215 1.71471 0
M  V30 5713 C 538.012 -5.21553 1.1784 0
M  V30 5714 C 539.312 -4.19493 3.11164 0
M  V30 5715 H 541.006 -2.22864 1.9993 0
M  V30 5716 H 538.552 -1.07093 0.96266 0
M  V30 5717 H 540.505 -4.17941 0.538792 0
M  V30 5718 H 539.229 -3.25313 -0.289612 0
M  V30 5719 H 537.888 -3.17005 1.84128 0
M  V30 5720 H 537.536 -5.02593 0.202195 0
M  V30 5721 H 537.236 -5.56988 1.87185 0
M  V30 5722 H 538.76 -6.01463 1.05233 0
M  V30 5723 H 540.174 -4.87487 3.01711 0
M  V30 5724 H 538.571 -4.66165 3.77902 0
M  V30 5725 H 539.641 -3.26097 3.58871 0
M  V30 5726 N 540.985 -1.06182 -1.16461 0
M  V30 5727 C 542.232 -0.777863 -1.86964 0
M  V30 5728 C 542.56 0.695602 -1.81636 0
M  V30 5729 O 541.815 1.52532 -1.22607 0
M  V30 5730 C 542.114 -1.21633 -3.36066 0
M  V30 5731 C 541.78 -2.69371 -3.61594 0
M  V30 5732 C 540.442 -3.09727 -3.6827 0
M  V30 5733 C 542.794 -3.64791 -3.7226 0
M  V30 5734 C 540.122 -4.44345 -3.83112 0
M  V30 5735 C 542.474 -4.99155 -3.88623 0
M  V30 5736 C 541.138 -5.39149 -3.93541 0
M  V30 5737 H 540.408 -0.28464 -0.68415 0
M  V30 5738 H 543.055 -1.33071 -1.37711 0
M  V30 5739 H 541.36 -0.582651 -3.87443 0
M  V30 5740 H 543.057 -0.973682 -3.88999 0
M  V30 5741 H 539.647 -2.37124 -3.57029 0
M  V30 5742 H 543.831 -3.34746 -3.66413 0
M  V30 5743 H 539.087 -4.74819 -3.85172 0
M  V30 5744 H 543.261 -5.72976 -3.95817 0
M  V30 5745 H 540.888 -6.43464 -4.04794 0
M  V30 5746 N 542.463 1.3308 -0.844243 0
M  V30 5747 C 543.874 1.7992 -0.498566 0
M  V30 5748 C 544.225 1.69808 0.982834 0
M  V30 5749 O 543.35 1.25051 1.7661 0
M  V30 5750 C 543.945 3.26677 -0.898204 0
M  V30 5751 C 542.504 3.71513 -0.604583 0
M  V30 5752 C 541.651 2.54393 -1.10362 0
M  V30 5753 H 544.602 1.20526 -1.03244 0
M  V30 5754 H 544.623 3.79918 -0.21039 0
M  V30 5755 H 544.135 3.34004 -1.97643 0
M  V30 5756 H 542.236 3.69708 0.46335 0
M  V30 5757 H 542.349 4.64755 -1.16358 0
M  V30 5758 H 540.713 2.49246 -0.524273 0
M  V30 5759 H 541.496 2.6448 -2.18873 0
M  V30 5760 N 543.941 0.601185 1.45683 0
M  V30 5761 C 545.357 0.264315 1.57396 0
M  V30 5762 C 545.557 -1.23324 1.59353 0
M  V30 5763 O 544.613 -2.01594 1.52039 0
M  V30 5764 C 545.926 0.929839 2.85962 0
M  V30 5765 C 547.474 0.905156 2.99626 0
M  V30 5766 C 547.949 1.55057 4.30954 0
M  V30 5767 N 549.44 1.51576 4.37697 0
M  V30 5768 C 550.175 1.98436 5.37969 0
M  V30 5769 N 549.671 2.53352 6.44813 0
M  V30 5770 N 551.464 1.89242 5.29286 0
M  V30 5771 H 543.615 1.57363 1.42656 0
M  V30 5772 H 545.878 0.658831 0.681649 0
M  V30 5773 H 545.584 1.98404 2.90394 0
M  V30 5774 H 545.458 0.449224 3.74515 0
M  V30 5775 H 547.845 -0.14048 2.94765 0
M  V30 5776 H 547.926 1.42397 2.12501 0
M  V30 5777 H 547.57 2.5955 4.36573 0
M  V30 5778 H 547.5 1.00682 5.16886 0
M  V30 5779 H 549.991 1.11452 3.61091 0
M  V30 5780 H 550.304 2.86918 7.17564 0
M  V30 5781 H 548.649 2.57388 6.45582 0
M  V30 5782 H 551.84 1.46083 4.44722 0
M  V30 5783 H 552.013 2.26075 6.07284 0
M  V30 5784 N 545.419 -1.53889 0.339982 0
M  V30 5785 C 546.83 -1.86139 -0.144671 0
M  V30 5786 C 547.181 -1.2613 -1.50285 0
M  V30 5787 O 546.306 -0.573515 -2.08662 0
M  V30 5788 C 546.901 -3.37728 -0.269285 0
M  V30 5789 C 545.46 -3.69868 -0.698168 0
M  V30 5790 C 544.607 -2.76777 0.170249 0
M  V30 5791 H 547.558 -1.48503 0.559704 0
M  V30 5792 H 547.579 -3.64331 -1.0974 0
M  V30 5793 H 547.091 -3.81375 0.719366 0
M  V30 5794 H 545.192 -3.31764 -1.69597 0
M  V30 5795 H 545.305 -4.76582 -0.490533 0
M  V30 5796 H 543.669 -2.52188 -0.356844 0
M  V30 5797 H 544.452 -3.23253 1.15597 0
M  V30 5798 N 546.897 -0.0685191 -1.57451 0
M  V30 5799 C 548.174 0.642167 -1.84758 0
M  V30 5800 C 548.554 1.87991 -0.960344 0
M  V30 5801 O 547.902 2.28485 -0.0257894 0
M  V30 5802 C 548.112 0.982946 -3.34872 0
M  V30 5803 C 549.46 1.35784 -4.02303 0
M  V30 5804 O 550.484 1.07477 -3.39598 0
M  V30 5805 O 549.343 1.88681 -5.12895 0
M  V30 5806 H 546.437 0.318625 -0.763156 0
M  V30 5807 H 548.983 -0.0992015 -1.6941 0
M  V30 5808 H 547.755 0.10372 -3.91163 0
M  V30 5809 H 547.378 1.78119 -3.55471 0
M  V30 5810 N 548.375 1.56261 0.205012 0
M  V30 5811 C 549.307 1.90266 1.27795 0
M  V30 5812 C 550.32 0.792397 1.42214 0
M  V30 5813 O 551.509 1.07077 1.42817 0
M  V30 5814 C 548.609 2.11074 2.65143 0
M  V30 5815 C 547.782 3.42176 2.7246 0
M  V30 5816 C 546.841 3.52216 3.90936 0
M  V30 5817 O 545.867 4.25119 3.78501 0
M  V30 5818 N 547.069 2.84573 5.05963 0
M  V30 5819 H 549.834 2.82896 0.989434 0
M  V30 5820 H 547.395 1.57008 0.394981 0
M  V30 5821 H 549.387 2.15089 3.4281 0
M  V30 5822 H 547.957 1.2499 2.86524 0
M  V30 5823 H 547.177 3.50116 1.81142 0
M  V30 5824 H 548.465 4.28509 2.74331 0
M  V30 5825 H 547.863 2.25152 5.18963 0
M  V30 5826 H 546.42 2.94228 5.81613 0
M  V30 5827 N 549.853 -0.472356 1.50355 0
M  V30 5828 C 550.785 -1.58795 1.65278 0
M  V30 5829 C 551.798 -1.53782 0.534313 0
M  V30 5830 O 552.987 -1.59193 0.807446 0
M  V30 5831 C 550.087 -2.97672 1.62001 0
M  V30 5832 C 549.26 -3.27568 2.89859 0
M  V30 5833 C 548.319 -4.45993 2.79242 0
M  V30 5834 O 547.345 -4.46364 3.53197 0
M  V30 5835 N 548.547 -5.47578 1.92713 0
M  V30 5836 H 551.312 -1.46411 2.61503 0
M  V30 5837 H 548.873 -0.660751 1.47803 0
M  V30 5838 H 550.865 -3.74862 1.52513 0
M  V30 5839 H 549.435 -3.03832 0.735159 0
M  V30 5840 H 548.655 -2.39003 3.13483 0
M  V30 5841 H 549.943 -3.44352 3.74565 0
M  V30 5842 H 549.341 -5.50099 1.31939 0
M  V30 5843 H 547.898 -6.23757 1.8913 0
M  V30 5844 N 551.331 -1.39911 -0.725443 0
M  V30 5845 C 552.281 -1.35878 -1.83088 0
M  V30 5846 C 553.265 -0.237989 -1.5913 0
M  V30 5847 O 554.457 -0.476302 -1.70471 0
M  V30 5848 C 551.586 -1.21403 -3.21117 0
M  V30 5849 C 550.672 -2.38223 -3.50871 0
M  V30 5850 N 551.063 -3.63703 -3.51502 0
M  V30 5851 C 549.361 -2.31388 -3.81281 0
M  V30 5852 C 550.062 -4.4101 -3.79322 0
M  V30 5853 N 549.038 -3.7072 -3.97577 0
M  V30 5854 H 552.84 -2.3085 -1.81895 0
M  V30 5855 H 550.354 -1.33543 -0.924125 0
M  V30 5856 H 552.351 -1.16597 -4.00263 0
M  V30 5857 H 551.011 -0.273902 -3.23543 0
M  V30 5858 H 552.022 -3.96998 -3.32586 0
M  V30 5859 H 548.699 -1.45689 -3.91256 0
M  V30 5860 H 550.089 -5.49819 -3.86198 0
M  V30 5861 N 552.809 0.956637 -1.25245 0
M  V30 5862 C 554.034 1.74104 -1.12706 0
M  V30 5863 C 554.459 1.85436 0.315429 0
M  V30 5864 O 553.817 1.33334 1.22848 0
M  V30 5865 C 553.865 3.1338 -1.78396 0
M  V30 5866 O 552.969 3.98485 -1.06224 0
M  V30 5867 H 552.31 0.53476 -0.393609 0
M  V30 5868 H 554.84 1.19924 -1.65769 0
M  V30 5869 H 554.85 3.6385 -1.846 0
M  V30 5870 H 553.525 3.04448 -2.83345 0
M  V30 5871 H 552.102 3.56952 -1.07886 0
M  V30 5872 N 554.287 1.06798 1.15896 0
M  V30 5873 C 555.533 0.788934 1.86825 0
M  V30 5874 C 555.866 -0.683084 1.8179 0
M  V30 5875 O 555.141 -1.50086 1.23711 0
M  V30 5876 C 555.424 1.29065 3.36176 0
M  V30 5877 C 555.277 2.8268 3.49874 0
M  V30 5878 C 556.596 0.902655 4.30744 0
M  V30 5879 H 553.715 0.288066 0.678371 0
M  V30 5880 H 556.357 1.32479 1.36195 0
M  V30 5881 H 554.507 0.834806 3.79425 0
M  V30 5882 H 556.179 3.36511 3.15528 0
M  V30 5883 H 554.422 3.21157 2.91617 0
M  V30 5884 H 555.093 3.12852 4.54783 0
M  V30 5885 H 557.569 1.29535 3.95424 0
M  V30 5886 H 556.445 1.28111 5.3374 0
M  V30 5887 H 556.706 -0.191951 4.41683 0
M  V30 5888 N 555.766 -1.3263 0.851289 0
M  V30 5889 C 556.729 -2.27247 0.298541 0
M  V30 5890 C 557.729 -1.51467 -0.539847 0
M  V30 5891 O 558.919 -1.7061 -0.351843 0
M  V30 5892 C 556.051 -3.35964 -0.578004 0
M  V30 5893 H 557.244 -2.7765 1.13359 0
M  V30 5894 H 554.797 -1.43245 0.625354 0
M  V30 5895 H 555.532 -2.90823 -1.435 0
M  V30 5896 H 555.317 -3.92094 0.0220539 0
M  V30 5897 H 556.807 -4.06472 -0.957626 0
M  V30 5898 N 557.244 -0.608902 -1.45362 0
M  V30 5899 C 558.474 -0.110852 -2.06302 0
M  V30 5900 C 558.882 1.21062 -1.45398 0
M  V30 5901 O 558.225 1.74861 -0.562976 0
M  V30 5902 C 558.287 0.101793 -3.59356 0
M  V30 5903 C 557.951 -1.13808 -4.42602 0
M  V30 5904 C 558.948 -2.05653 -4.77496 0
M  V30 5905 C 556.633 -1.36727 -4.83333 0
M  V30 5906 C 558.627 -3.18745 -5.51978 0
M  V30 5907 C 556.314 -2.5012 -5.57569 0
M  V30 5908 C 557.312 -3.40957 -5.91809 0
M  V30 5909 O 557 -4.52376 -6.64538 0
M  V30 5910 H 556.732 -0.0666001 -0.672711 0
M  V30 5911 H 559.286 -0.836942 -1.87575 0
M  V30 5912 H 557.516 0.88279 -3.76489 0
M  V30 5913 H 559.205 0.551607 -4.02134 0
M  V30 5914 H 559.971 -1.89172 -4.46586 0
M  V30 5915 H 555.85 -0.669216 -4.56117 0
M  V30 5916 H 559.394 -3.8967 -5.78622 0
M  V30 5917 H 555.291 -2.66553 -5.87894 0
M  V30 5918 H 556.059 -4.51075 -6.82989 0
M  V30 5919 N 558.722 1.53707 -0.348139 0
M  V30 5920 C 559.95 2.05406 0.248224 0
M  V30 5921 C 560.365 1.22282 1.43849 0
M  V30 5922 O 559.722 0.259244 1.80649 0
M  V30 5923 C 559.773 3.55446 0.658793 0
M  V30 5924 O 559.494 4.35417 -0.484149 0
M  V30 5925 C 560.995 4.23335 1.31539 0
M  V30 5926 H 558.215 0.669344 0.0471075 0
M  V30 5927 H 560.759 1.98257 -0.501456 0
M  V30 5928 H 558.914 3.62803 1.35841 0
M  V30 5929 H 559.328 5.24268 -0.155949 0
M  V30 5930 H 560.802 5.29692 1.55338 0
M  V30 5931 H 561.279 3.75967 2.27036 0
M  V30 5932 H 561.885 4.20184 0.657683 0
M  V30 5933 N 560.2 0.0768682 1.57412 0
M  V30 5934 C 561.447 -0.591085 1.93681 0
M  V30 5935 C 561.775 -1.69311 0.957286 0
M  V30 5936 O 561.03 -1.95682 -0.0262428 0
M  V30 5937 C 561.329 -1.20268 3.36557 0
M  V30 5938 C 560.995 -0.226286 4.50332 0
M  V30 5939 C 559.657 0.0423142 4.81181 0
M  V30 5940 C 562.009 0.441415 5.19327 0
M  V30 5941 C 559.337 0.985616 5.78362 0
M  V30 5942 C 561.689 1.37307 6.17519 0
M  V30 5943 C 560.353 1.65009 6.46783 0
M  V30 5944 H 559.623 -0.216293 0.70873 0
M  V30 5945 H 562.27 0.148824 1.90921 0
M  V30 5946 H 560.575 -2.01844 3.35807 0
M  V30 5947 H 562.272 -1.72688 3.61911 0
M  V30 5948 H 558.862 -0.445821 4.26275 0
M  V30 5949 H 563.046 0.247023 4.95685 0
M  V30 5950 H 558.302 1.20743 5.99359 0
M  V30 5951 H 562.476 1.89637 6.70083 0
M  V30 5952 H 560.103 2.38263 7.21897 0
M  V30 5953 N 561.678 -1.56367 -0.196722 0
M  V30 5954 C 562.588 -1.97617 -1.2643 0
M  V30 5955 C 563.604 -0.883598 -1.49895 0
M  V30 5956 O 564.78 -1.18921 -1.62541 0
M  V30 5957 C 561.845 -2.30595 -2.58895 0
M  V30 5958 C 560.906 -3.53551 -2.43516 0
M  V30 5959 C 560.139 -3.84946 -3.69665 0
M  V30 5960 O 560.362 -3.17655 -4.73763 0
M  V30 5961 O 559.296 -4.78379 -3.65291 0
M  V30 5962 H 563.122 -2.88648 -0.944233 0
M  V30 5963 H 560.707 -1.43901 -0.401592 0
M  V30 5964 H 562.589 -2.52889 -3.37083 0
M  V30 5965 H 561.264 -1.42732 -2.90533 0
M  V30 5966 H 560.171 -3.36507 -1.63445 0
M  V30 5967 H 561.504 -4.41875 -2.16812 0
M  V30 5968 N 563.156 0.464375 -1.50603 0
M  V30 5969 C 564.066 1.58723 -1.72754 0
M  V30 5970 C 565.082 1.62925 -0.610844 0
M  V30 5971 O 566.258 1.8067 -0.889963 0
M  V30 5972 C 563.323 2.94897 -1.82309 0
M  V30 5973 C 562.384 3.0103 -3.06071 0
M  V30 5974 C 561.617 4.30708 -3.1516 0
M  V30 5975 O 561.84 5.2159 -2.30868 0
M  V30 5976 O 560.774 4.42571 -4.0794 0
M  V30 5977 H 564.6 1.42954 -2.67951 0
M  V30 5978 H 562.185 0.644579 -1.3478 0
M  V30 5979 H 564.067 3.75764 -1.90735 0
M  V30 5980 H 562.742 3.10851 -0.902967 0
M  V30 5981 H 561.649 2.19217 -3.03142 0
M  V30 5982 H 562.982 2.90014 -3.97684 0
M  V30 5983 N 564.634 1.40294 0.718013 0
M  V30 5984 C 565.911 1.2894 1.47084 0
M  V30 5985 C 566.291 -0.0933625 2.10893 0
M  V30 5986 O 565.639 -1.10598 1.99951 0
M  V30 5987 C 565.849 2.4264 2.50852 0
M  V30 5988 C 567.197 2.8276 3.16752 0
M  V30 5989 O 568.221 2.42215 2.61171 0
M  V30 5990 O 567.08 3.528 4.17366 0
M  V30 5991 H 564.174 0.506236 0.653952 0
M  V30 5992 H 566.72 1.52208 0.750394 0
M  V30 5993 H 565.492 3.35009 2.022 0
M  V30 5994 H 565.115 2.21129 3.30435 0
M  V30 5995 N 566.112 -0.949982 1.2575 0
M  V30 5996 C 567.361 -1.68956 1.10168 0
M  V30 5997 C 567.674 -1.92327 -0.356309 0
M  V30 5998 O 568.88 -2.64026 -0.632657 0
M  V30 5999 C 567.336 -3.04196 1.92336 0
M  V30 6000 C 566.944 -2.88603 3.42655 0
M  V30 6001 C 568.688 -3.81904 1.85336 0
M  V30 6002 C 566.595 -4.19262 4.17101 0
M  V30 6003 H 565.525 -0.633645 0.408668 0
M  V30 6004 H 568.176 -1.05719 1.49986 0
M  V30 6005 H 566.558 -3.68363 1.45344 0
M  V30 6006 H 567.732 -2.3334 3.97353 0
M  V30 6007 H 566.047 -2.24345 3.50796 0
M  V30 6008 H 568.644 -4.78688 2.38248 0
M  V30 6009 H 568.987 -4.08099 0.822226 0
M  V30 6010 H 569.52 -3.24495 2.30104 0
M  V30 6011 H 566.259 -3.98254 5.20648 0
M  V30 6012 H 565.779 -4.74273 3.67186 0
M  V30 6013 H 567.458 -4.87775 4.25071 0
M  V30 6014 N 567.59 -1.07411 -1.15328 0
M  V30 6015 C 568.836 -0.798831 -1.86404 0
M  V30 6016 C 569.169 0.673433 -1.8215 0
M  V30 6017 O 568.444 1.49428 -1.24505 0
M  V30 6018 C 568.727 -1.30846 -3.35487 0
M  V30 6019 C 568.58 -2.84532 -3.4837 0
M  V30 6020 C 569.899 -0.925486 -4.30259 0
M  V30 6021 H 567.018 -0.291659 -0.676834 0
M  V30 6022 H 569.66 -1.332 -1.35491 0
M  V30 6023 H 567.81 -0.854916 -3.78977 0
M  V30 6024 H 569.482 -3.3818 -3.13739 0
M  V30 6025 H 567.725 -3.22699 -2.8991 0
M  V30 6026 H 568.396 -3.15259 -4.53118 0
M  V30 6027 H 570.872 -1.3163 -3.94731 0
M  V30 6028 H 569.748 -1.3094 -5.33053 0
M  V30 6029 H 570.009 0.168525 -4.41779 0
M  V30 6030 N 569.068 1.32177 -0.85831 0
M  V30 6031 C 570.296 2.01313 -0.477582 0
M  V30 6032 C 570.711 1.6449 0.926736 0
M  V30 6033 O 570.068 0.868096 1.60531 0
M  V30 6034 C 570.119 3.56293 -0.611337 0
M  V30 6035 O 569.84 3.91794 -1.96034 0
M  V30 6036 C 571.341 4.42702 -0.230093 0
M  V30 6037 H 568.561 0.644323 -0.187322 0
M  V30 6038 H 571.105 1.68674 -1.15626 0
M  V30 6039 H 569.26 3.87395 0.0196494 0
M  V30 6040 H 569.674 4.86513 -1.95973 0
M  V30 6041 H 571.148 5.50727 -0.374674 0
M  V30 6042 H 571.625 4.3129 0.829779 0
M  V30 6043 H 572.231 4.16997 -0.836302 0
M  V30 6044 N 570.547 0.616602 1.45037 0
M  V30 6045 C 571.775 0.121968 2.0654 0
M  V30 6046 C 572.19 -1.19743 1.45969 0
M  V30 6047 O 571.547 -1.73133 0.577168 0
M  V30 6048 C 571.598 -0.0145171 3.61497 0
M  V30 6049 O 571.319 1.25269 4.19809 0
M  V30 6050 C 572.82 -0.539555 4.40004 0
M  V30 6051 H 570.04 0.0729837 0.667019 0
M  V30 6052 H 572.584 0.846891 1.8614 0
M  V30 6053 H 570.739 -0.689809 3.81209 0
M  V30 6054 H 571.153 1.08816 5.13088 0
M  V30 6055 H 572.627 -0.584112 5.48901 0
M  V30 6056 H 573.104 -1.56368 4.10421 0
M  V30 6057 H 573.71 0.101995 4.25178 0
M  V30 6058 N 572.025 -1.5352 0.356285 0
M  V30 6059 C 573.271 -2.01414 -0.236653 0
M  V30 6060 C 573.604 -1.24339 -1.49176 0
M  V30 6061 O 572.879 -0.334496 -1.91602 0
M  V30 6062 C 573.162 -3.56059 -0.537982 0
M  V30 6063 C 573.015 -4.43835 0.730112 0
M  V30 6064 C 574.334 -4.19127 -1.34239 0
M  V30 6065 H 571.453 -0.732135 -0.0845386 0
M  V30 6066 H 574.095 -1.83854 0.479341 0
M  V30 6067 H 572.245 -3.71153 -1.14795 0
M  V30 6068 H 573.917 -4.40555 1.36782 0
M  V30 6069 H 572.16 -4.1218 1.3524 0
M  V30 6070 H 572.831 -5.49958 0.474358 0
M  V30 6071 H 575.307 -4.07809 -0.826498 0
M  V30 6072 H 574.183 -5.27378 -1.52198 0
M  V30 6073 H 574.444 -3.74581 -2.34822 0
M  V30 6074 N 573.503 -0.0852151 -1.57369 0
M  V30 6075 C 574.435 0.907099 -2.10486 0
M  V30 6076 C 575.448 1.25259 -1.03991 0
M  V30 6077 O 576.637 1.20743 -1.31467 0
M  V30 6078 C 573.737 2.21908 -2.56145 0
M  V30 6079 C 572.91 2.05042 -3.86363 0
M  V30 6080 C 571.969 3.19664 -4.17973 0
M  V30 6081 O 570.995 2.94062 -4.87356 0
M  V30 6082 N 572.197 4.45151 -3.72587 0
M  V30 6083 H 574.962 0.453505 -2.96249 0
M  V30 6084 H 572.523 0.100157 -1.6159 0
M  V30 6085 H 574.515 2.97519 -2.74343 0
M  V30 6086 H 573.085 2.58723 -1.75446 0
M  V30 6087 H 572.305 1.13819 -3.77411 0
M  V30 6088 H 573.593 1.91039 -4.71574 0
M  V30 6089 H 572.991 4.68834 -3.16561 0
M  V30 6090 H 571.548 5.17744 -3.9596 0
M  V30 6091 N 574.981 1.5647 0.188427 0
M  V30 6092 C 575.944 1.9421 1.21718 0
M  V30 6093 C 576.944 0.823901 1.38089 0
M  V30 6094 O 578.134 1.09122 1.35787 0
M  V30 6095 C 575.266 2.22197 2.58537 0
M  V30 6096 H 576.459 2.86252 0.894418 0
M  V30 6097 H 574.012 1.50263 0.430211 0
M  V30 6098 H 574.747 1.32814 2.95856 0
M  V30 6099 H 574.532 3.03688 2.48025 0
M  V30 6100 H 576.022 2.52376 3.3271 0
M  V30 6101 N 576.459 -0.456382 1.50847 0
M  V30 6102 C 577.684 -1.2349 1.66628 0
M  V30 6103 C 578.109 -1.84715 0.355254 0
M  V30 6104 O 577.467 -1.67961 -0.682559 0
M  V30 6105 C 577.515 -2.30865 2.77009 0
M  V30 6106 O 576.619 -3.35882 2.39285 0
M  V30 6107 H 575.96 -0.36266 0.556214 0
M  V30 6108 H 578.49 -0.541374 1.97308 0
M  V30 6109 H 578.5 -2.75949 3.00526 0
M  V30 6110 H 577.175 -1.85677 3.72152 0
M  V30 6111 H 575.752 -2.96406 2.26269 0
M  V30 6112 N 577.937 -1.40673 -0.710563 0
M  V30 6113 C 579.167 -1.4234 -1.49742 0
M  V30 6114 C 579.575 -0.022821 -1.89186 0
M  V30 6115 O 578.918 0.964773 -1.56326 0
M  V30 6116 C 578.98 -2.25509 -2.79975 0
M  V30 6117 C 578.644 -3.73862 -2.62824 0
M  V30 6118 C 579.641 -4.66379 -2.29752 0
M  V30 6119 C 577.326 -4.17735 -2.78932 0
M  V30 6120 C 579.32 -6.00756 -2.13006 0
M  V30 6121 C 577.007 -5.5218 -2.61802 0
M  V30 6122 C 578.005 -6.43505 -2.28888 0
M  V30 6123 O 577.693 -7.75472 -2.11894 0
M  V30 6124 H 577.425 -0.487311 -0.468513 0
M  V30 6125 H 579.979 -1.8542 -0.883668 0
M  V30 6126 H 578.209 -1.77218 -3.43701 0
M  V30 6127 H 579.898 -2.19058 -3.41714 0
M  V30 6128 H 580.664 -4.33778 -2.16936 0
M  V30 6129 H 576.543 -3.46967 -3.03537 0
M  V30 6130 H 580.087 -6.72003 -1.87237 0
M  V30 6131 H 575.984 -5.84365 -2.74204 0
M  V30 6132 H 576.752 -7.86458 -2.26775 0
M  V30 6133 N 579.415 0.9433 -1.26252 0
M  V30 6134 C 580.64 1.72898 -1.14547 0
M  V30 6135 C 581.065 1.85761 0.295743 0
M  V30 6136 O 580.423 1.3463 1.21427 0
M  V30 6137 C 580.471 3.11471 -1.8171 0
M  V30 6138 O 579.575 3.97336 -1.10445 0
M  V30 6139 H 578.916 0.530555 -0.399259 0
M  V30 6140 H 581.446 1.18159 -1.67032 0
M  V30 6141 H 581.456 3.61872 -1.88449 0
M  V30 6142 H 580.131 3.01425 -2.86558 0
M  V30 6143 H 578.708 3.55788 -1.11666 0
M  V30 6144 N 580.893 1.08022 1.14757 0
M  V30 6145 C 581.84 0.706657 2.19716 0
M  V30 6146 C 582.81 -0.30525 1.63271 0
M  V30 6147 O 583.995 -0.19015 1.8985 0
M  V30 6148 C 581.135 0.117914 3.44898 0
M  V30 6149 C 580.248 1.18212 4.15512 0
M  V30 6150 C 579.383 0.557659 5.28265 0
M  V30 6151 C 578.422 1.60418 5.90705 0
M  V30 6152 N 577.559 1.0018 6.94916 0
M  V30 6153 H 582.399 1.60603 2.51019 0
M  V30 6154 H 579.936 0.802664 1.23271 0
M  V30 6155 H 581.894 -0.241112 4.16503 0
M  V30 6156 H 580.524 -0.744788 3.1409 0
M  V30 6157 H 579.576 1.65863 3.42335 0
M  V30 6158 H 580.888 1.97533 4.5802 0
M  V30 6159 H 580.042 0.146654 6.06523 0
M  V30 6160 H 578.781 -0.267249 4.86967 0
M  V30 6161 H 577.786 2.02489 5.11154 0
M  V30 6162 H 579.011 2.43149 6.34078 0
M  V30 6163 H 576.957 0.197917 6.55701 0
M  V30 6164 H 576.874 1.73216 7.35889 0
M  V30 6165 H 578.142 0.616523 7.77058 0
M  V30 6166 N 582.371 -1.3172 0.865308 0
M  V30 6167 C 583.318 -2.2863 0.315736 0
M  V30 6168 C 584.288 -1.55524 -0.583213 0
M  V30 6169 O 585.473 -1.83694 -0.51585 0
M  V30 6170 C 582.613 -3.41735 -0.480773 0
M  V30 6171 C 581.726 -4.297 0.445167 0
M  V30 6172 C 580.861 -5.29944 -0.365012 0
M  V30 6173 C 579.9 -6.09554 0.557651 0
M  V30 6174 N 579.037 -7.01768 -0.215994 0
M  V30 6175 H 583.877 -2.75026 1.14736 0
M  V30 6176 H 581.414 -1.35302 0.577209 0
M  V30 6177 H 583.372 -4.06045 -0.958306 0
M  V30 6178 H 582.002 -2.96461 -1.27714 0
M  V30 6179 H 581.054 -3.65875 1.04113 0
M  V30 6180 H 582.366 -4.85295 1.15284 0
M  V30 6181 H 581.52 -5.99908 -0.905255 0
M  V30 6182 H 580.259 -4.74994 -1.106 0
M  V30 6183 H 579.264 -5.38485 1.10969 0
M  V30 6184 H 580.489 -6.66591 1.29742 0
M  V30 6185 H 578.435 -6.49232 -0.939878 0
M  V30 6186 H 578.352 -7.54762 0.432431 0
M  V30 6187 H 579.62 -7.76002 -0.737618 0
M  V30 6188 N 583.85 -0.624285 -1.44708 0
M  V30 6189 C 584.797 0.0847135 -2.30644 0
M  V30 6190 C 585.767 0.843575 -1.43084 0
M  V30 6191 O 586.952 0.825982 -1.71995 0
M  V30 6192 C 584.091 1.06495 -3.28257 0
M  V30 6193 C 583.205 0.305224 -4.3092 0
M  V30 6194 C 582.34 1.27667 -5.1563 0
M  V30 6195 C 581.379 0.505706 -6.10007 0
M  V30 6196 N 580.516 1.42727 -6.8744 0
M  V30 6197 H 585.356 -0.654068 -2.90733 0
M  V30 6198 H 582.893 -0.334334 -1.4325 0
M  V30 6199 H 584.851 1.64658 -3.83332 0
M  V30 6200 H 583.481 1.77094 -2.69884 0
M  V30 6201 H 582.533 -0.392207 -3.78373 0
M  V30 6202 H 583.845 -0.295553 -4.97924 0
M  V30 6203 H 582.999 1.92984 -5.75189 0
M  V30 6204 H 581.738 1.91137 -4.48685 0
M  V30 6205 H 580.743 -0.160999 -5.49564 0
M  V30 6206 H 581.968 -0.124183 -6.78986 0
M  V30 6207 H 579.913 2.04931 -6.23169 0
M  V30 6208 H 579.831 0.880345 -7.50857 0
M  V30 6209 H 581.099 2.0695 -7.51526 0
M  V30 6210 N 585.328 1.53329 -0.364422 0
M  V30 6211 C 586.258 2.28627 0.474543 0
M  V30 6212 C 587.239 1.31009 1.08492 0
M  V30 6213 O 588.424 1.59878 1.10239 0
M  V30 6214 C 585.554 3.07465 1.61501 0
M  V30 6215 C 584.508 4.1276 1.13194 0
M  V30 6216 C 583.834 4.79674 2.36255 0
M  V30 6217 C 585.134 5.21847 0.217507 0
M  V30 6218 H 586.828 2.99005 -0.153656 0
M  V30 6219 H 584.374 1.43803 -0.0753406 0
M  V30 6220 H 586.327 3.58889 2.20855 0
M  V30 6221 H 585.051 2.34775 2.27042 0
M  V30 6222 H 583.71 3.62281 0.56109 0
M  V30 6223 H 583.358 4.03557 3.00251 0
M  V30 6224 H 583.058 5.50827 2.04606 0
M  V30 6225 H 584.582 5.33892 2.96297 0
M  V30 6226 H 585.996 5.6878 0.718493 0
M  V30 6227 H 584.393 6.00099 -0.00806408 0
M  V30 6228 H 585.463 4.7921 -0.740653 0
M  V30 6229 N 586.806 0.0935595 1.57322 0
M  V30 6230 C 588.053 -0.570509 1.94297 0
M  V30 6231 C 588.381 -1.68286 0.97519 0
M  V30 6232 O 587.636 -1.95699 -0.00548655 0
M  V30 6233 C 587.935 -1.16692 3.37813 0
M  V30 6234 C 587.601 -0.178509 4.50547 0
M  V30 6235 C 586.263 0.0933475 4.81109 0
M  V30 6236 C 588.615 0.496472 5.1883 0
M  V30 6237 C 585.943 1.0469 5.77284 0
M  V30 6238 C 588.295 1.43849 6.16028 0
M  V30 6239 C 586.959 1.71859 6.44997 0
M  V30 6240 H 586.229 -0.208764 0.710984 0
M  V30 6241 H 588.876 0.169066 1.90752 0
M  V30 6242 H 587.181 -1.98271 3.37929 0
M  V30 6243 H 588.878 -1.6884 3.63722 0
M  V30 6244 H 585.468 -0.400584 4.26724 0
M  V30 6245 H 589.652 0.299584 4.95395 0
M  V30 6246 H 584.908 1.27094 5.98044 0
M  V30 6247 H 589.082 1.96734 6.68034 0
M  V30 6248 H 586.709 2.45906 7.19329 0
M  V30 6249 N 588.284 -1.56567 -0.180126 0
M  V30 6250 C 589.214 -1.98753 -1.22553 0
M  V30 6251 C 590.195 -0.86175 -1.46656 0
M  V30 6252 O 591.38 -1.12719 -1.58139 0
M  V30 6253 C 588.51 -2.33988 -2.56645 0
M  V30 6254 C 587.464 -3.49445 -2.47128 0
M  V30 6255 C 586.79 -3.70397 -3.8563 0
M  V30 6256 C 588.09 -4.83171 -1.98352 0
M  V30 6257 H 589.784 -2.86332 -0.874896 0
M  V30 6258 H 587.33 -1.37757 -0.419414 0
M  V30 6259 H 589.283 -2.62097 -3.29974 0
M  V30 6260 H 588.007 -1.43309 -2.93479 0
M  V30 6261 H 586.666 -3.2145 -1.76254 0
M  V30 6262 H 586.314 -2.77023 -4.19842 0
M  V30 6263 H 586.014 -4.48077 -3.80132 0
M  V30 6264 H 587.538 -4.00897 -4.60558 0
M  V30 6265 H 588.952 -5.10213 -2.61449 0
M  V30 6266 H 587.349 -5.64425 -2.03823 0
M  V30 6267 H 588.419 -4.75753 -0.937402 0
M  V30 6268 N 589.762 0.448376 -1.51087 0
M  V30 6269 C 590.987 1.22605 -1.6728 0
M  V30 6270 C 591.412 1.84524 -0.365045 0
M  V30 6271 O 590.77 1.6832 0.673642 0
M  V30 6272 C 590.818 2.29393 -2.78229 0
M  V30 6273 O 589.922 3.34608 -2.41063 0
M  V30 6274 H 589.263 0.359705 -0.558129 0
M  V30 6275 H 591.793 0.530903 -1.97592 0
M  V30 6276 H 591.803 2.74352 -3.01986 0
M  V30 6277 H 590.478 1.83701 -3.73131 0
M  V30 6278 H 589.055 2.95202 -2.27838 0
M  V30 6279 N 591.24 1.41047 0.703093 0
M  V30 6280 C 592.17 1.45067 1.82969 0
M  V30 6281 C 593.151 0.31016 1.67248 0
M  V30 6282 O 594.336 0.520548 1.87093 0
M  V30 6283 C 591.466 1.32478 3.2104 0
M  V30 6284 C 590.42 2.44262 3.51454 0
M  V30 6285 C 589.746 2.16742 4.88801 0
M  V30 6286 C 591.046 3.86606 3.51189 0
M  V30 6287 H 592.74 2.39353 1.79863 0
M  V30 6288 H 590.286 1.15206 0.863919 0
M  V30 6289 H 592.239 1.33904 3.99559 0
M  V30 6290 H 590.963 0.346735 3.24754 0
M  V30 6291 H 589.622 2.42107 2.75282 0
M  V30 6292 H 589.27 1.17299 4.89132 0
M  V30 6293 H 588.97 2.91643 5.10116 0
M  V30 6294 H 590.494 2.19872 5.69639 0
M  V30 6295 H 591.908 3.90517 4.19725 0
M  V30 6296 H 590.305 4.61128 3.84033 0
M  V30 6297 H 591.375 4.15296 2.50315 0
M  V30 6298 N 592.718 -0.936591 1.26751 0
M  V30 6299 C 593.648 -2.05315 1.11212 0
M  V30 6300 C 594.629 -1.70092 0.0160262 0
M  V30 6301 O 595.814 -1.93279 0.188894 0
M  V30 6302 C 592.944 -3.39123 0.749171 0
M  V30 6303 C 591.898 -3.88425 1.79751 0
M  V30 6304 C 591.224 -5.18936 1.28876 0
M  V30 6305 C 592.524 -4.12798 3.19992 0
M  V30 6306 H 594.218 -2.18573 2.04613 0
M  V30 6307 H 591.764 -1.05027 0.985159 0
M  V30 6308 H 593.717 -4.16704 0.627323 0
M  V30 6309 H 592.441 -3.25855 -0.220543 0
M  V30 6310 H 591.1 -3.13028 1.90811 0
M  V30 6311 H 590.748 -5.02051 0.308757 0
M  V30 6312 H 590.448 -5.52892 1.98958 0
M  V30 6313 H 591.972 -5.99096 1.17967 0
M  V30 6314 H 593.386 -4.80977 3.11983 0
M  V30 6315 H 591.783 -4.58044 3.87705 0
M  V30 6316 H 592.853 -3.18412 3.65707 0
M  V30 6317 N 594.196 -1.08629 -1.14182 0
M  V30 6318 C 595.473 -0.73002 -1.81466 0
M  V30 6319 C 595.853 0.785996 -1.95922 0
M  V30 6320 O 595.201 1.70535 -1.52086 0
M  V30 6321 C 595.411 -1.45957 -3.17014 0
M  V30 6322 C 596.759 -1.62008 -3.92477 0
M  V30 6323 O 597.783 -1.42141 -3.26611 0
M  V30 6324 O 596.642 -1.94806 -5.106 0
M  V30 6325 H 593.736 -0.261307 -0.784632 0
M  V30 6326 H 596.282 -1.188 -1.2118 0
M  V30 6327 H 595.054 -2.49221 -3.01669 0
M  V30 6328 H 594.677 -0.993222 -3.84995 0
M  V30 6329 N 595.674 1.31259 -0.872281 0
M  V30 6330 C 596.921 1.96622 -0.484365 0
M  V30 6331 C 597.249 1.68939 0.963841 0
M  V30 6332 O 596.504 0.97974 1.6941 0
M  V30 6333 C 596.803 3.50659 -0.690889 0
M  V30 6334 C 596.469 3.98366 -2.11224 0
M  V30 6335 C 595.131 4.11104 -2.50094 0
M  V30 6336 C 597.483 4.23425 -3.0391 0
M  V30 6337 C 594.811 4.46254 -3.80887 0
M  V30 6338 C 597.163 4.60039 -4.3422 0
M  V30 6339 C 595.827 4.70984 -4.73001 0
M  V30 6340 H 595.097 0.71949 -0.177242 0
M  V30 6341 H 597.744 1.56353 -1.10571 0
M  V30 6342 H 596.049 3.91798 0.0135782 0
M  V30 6343 H 597.746 3.99284 -0.370534 0
M  V30 6344 H 594.336 3.88949 -1.80047 0
M  V30 6345 H 598.52 4.13075 -2.75104 0
M  V30 6346 H 593.776 4.52926 -4.10692 0
M  V30 6347 H 597.95 4.78381 -5.06088 0
M  V30 6348 H 595.577 4.97977 -5.7439 0
M  V30 6349 N 597.152 0.631951 1.44375 0
M  V30 6350 C 598.084 -0.110911 2.28931 0
M  V30 6351 C 599.097 -0.808086 1.41329 0
M  V30 6352 O 600.286 -0.669396 1.65473 0
M  V30 6353 C 597.386 -1.17928 3.1772 0
M  V30 6354 C 596.559 -0.564458 4.33743 0
M  V30 6355 C 595.618 -1.5269 5.0356 0
M  V30 6356 O 594.644 -1.04372 5.59549 0
M  V30 6357 N 595.846 -2.86123 5.05088 0
M  V30 6358 H 598.611 0.614758 2.93327 0
M  V30 6359 H 596.172 0.473171 1.54831 0
M  V30 6360 H 598.164 -1.82348 3.61291 0
M  V30 6361 H 596.734 -1.80717 2.55069 0
M  V30 6362 H 595.954 0.258373 3.93352 0
M  V30 6363 H 597.242 -0.134355 5.08623 0
M  V30 6364 H 596.64 -3.27959 4.60933 0
M  V30 6365 H 595.197 -3.45901 5.52445 0
M  V30 6366 N 598.631 -1.53133 0.372548 0
M  V30 6367 C 599.88 -2.00539 -0.216115 0
M  V30 6368 C 600.193 -1.26374 -1.49295 0
M  V30 6369 O 601.399 -1.64404 -2.16064 0
M  V30 6370 C 599.855 -3.57253 -0.435678 0
M  V30 6371 C 599.463 -4.40302 0.82693 0
M  V30 6372 C 601.207 -4.12995 -0.981618 0
M  V30 6373 C 599.114 -5.88583 0.576567 0
M  V30 6374 H 598.044 -0.749246 -0.084536 0
M  V30 6375 H 600.695 -1.76771 0.492364 0
M  V30 6376 H 599.077 -3.77202 -1.20559 0
M  V30 6377 H 600.251 -4.32124 1.60017 0
M  V30 6378 H 598.566 -3.95699 1.29659 0
M  V30 6379 H 601.163 -5.21418 -1.18436 0
M  V30 6380 H 601.506 -3.68027 -1.94581 0
M  V30 6381 H 602.039 -3.96871 -0.271696 0
M  V30 6382 H 598.778 -6.37841 1.51128 0
M  V30 6383 H 598.298 -5.99592 -0.158047 0
M  V30 6384 H 599.977 -6.46676 0.204722 0
M  V30 6385 N 600.109 -0.101901 -1.5727 0
M  V30 6386 C 601.337 0.568392 -1.98939 0
M  V30 6387 C 601.752 1.61301 -0.981194 0
M  V30 6388 O 601.109 1.82478 0.0282869 0
M  V30 6389 C 601.16 1.20997 -3.40649 0
M  V30 6390 O 600.881 0.207129 -4.3761 0
M  V30 6391 C 602.382 1.96523 -3.97358 0
M  V30 6392 H 599.602 0.15186 -0.65359 0
M  V30 6393 H 602.146 -0.183198 -2.03678 0
M  V30 6394 H 600.301 1.91245 -3.36904 0
M  V30 6395 H 600.715 0.671071 -5.20189 0
M  V30 6396 H 602.189 2.36764 -4.98645 0
M  V30 6397 H 602.666 2.83376 -3.35552 0
M  V30 6398 H 603.272 1.31076 -4.04598 0
M  V30 6399 N 601.587 1.56661 0.17182 0
M  V30 6400 C 602.998 1.71652 0.734329 0
M  V30 6401 C 603.349 0.712335 1.82812 0
M  V30 6402 O 602.474 -0.126401 2.16031 0
M  V30 6403 C 603.069 3.11226 1.3388 0
M  V30 6404 C 601.628 3.27904 1.84813 0
M  V30 6405 C 600.775 2.67603 0.726917 0
M  V30 6406 H 603.726 1.5861 -0.0535665 0
M  V30 6407 H 603.747 3.09849 2.20849 0
M  V30 6408 H 603.259 3.8429 0.54249 0
M  V30 6409 H 601.36 2.59796 2.6709 0
M  V30 6410 H 601.473 4.35637 1.99392 0
M  V30 6411 H 599.837 2.274 1.14723 0
M  V30 6412 H 600.62 3.43252 -0.0575334 0
M  V30 6413 N 603.065 -0.440357 1.51323 0
M  V30 6414 C 604.012 -1.53429 1.72419 0
M  V30 6415 C 604.982 -1.56165 0.565826 0
M  V30 6416 O 606.167 -1.73222 0.799917 0
M  V30 6417 C 603.307 -2.91169 1.85242 0
M  V30 6418 C 602.42 -2.97985 3.12777 0
M  V30 6419 C 601.555 -4.26829 3.16212 0
M  V30 6420 C 600.594 -4.27501 4.38074 0
M  V30 6421 N 599.731 -5.47866 4.39076 0
M  V30 6422 H 604.571 -1.34743 2.65797 0
M  V30 6423 H 602.108 -0.654608 1.31732 0
M  V30 6424 H 604.066 -3.71087 1.90658 0
M  V30 6425 H 602.696 -3.0842 0.952744 0
M  V30 6426 H 601.748 -2.10749 3.16685 0
M  V30 6427 H 603.06 -2.94342 4.02696 0
M  V30 6428 H 602.214 -5.15118 3.20527 0
M  V30 6429 H 600.953 -4.33124 2.24176 0
M  V30 6430 H 599.958 -3.37606 4.33938 0
M  V30 6431 H 601.183 -4.22873 5.31371 0
M  V30 6432 H 599.129 -5.54887 3.49909 0
M  V30 6433 H 599.046 -5.46091 5.22801 0
M  V30 6434 H 600.314 -6.38195 4.4758 0
M  V30 6435 N 604.543 -1.41418 -0.695603 0
M  V30 6436 C 605.771 -1.4413 -1.48439 0
M  V30 6437 C 606.186 -0.0465698 -1.88743 0
M  V30 6438 O 605.543 0.934117 -1.56782 0
M  V30 6439 C 605.594 -2.34998 -2.74696 0
M  V30 6440 O 605.315 -3.69043 -2.36091 0
M  V30 6441 C 606.816 -2.46513 -3.68438 0
M  V30 6442 H 604.036 -0.490905 -0.457442 0
M  V30 6443 H 606.58 -1.85702 -0.856454 0
M  V30 6444 H 604.735 -1.96735 -3.33728 0
M  V30 6445 H 605.149 -4.17505 -3.17474 0
M  V30 6446 H 606.623 -3.1426 -4.53811 0
M  V30 6447 H 607.1 -1.49638 -4.12922 0
M  V30 6448 H 607.706 -2.85412 -3.1531 0
M  V30 6449 N 606.021 0.929856 -1.27246 0
M  V30 6450 C 607.267 1.6798 -1.13625 0
M  V30 6451 C 607.6 1.91586 0.317589 0
M  V30 6452 O 606.875 1.50467 1.23247 0
M  V30 6453 C 607.158 3.04766 -1.91806 0
M  V30 6454 C 607.011 2.88415 -3.45162 0
M  V30 6455 C 608.33 4.05063 -1.72082 0
M  V30 6456 H 605.449 0.609632 -0.414147 0
M  V30 6457 H 608.091 1.0792 -1.56376 0
M  V30 6458 H 606.241 3.56034 -1.55474 0
M  V30 6459 H 607.913 2.44282 -3.91311 0
M  V30 6460 H 606.156 2.23802 -3.71611 0
M  V30 6461 H 606.827 3.85482 -3.95105 0
M  V30 6462 H 609.303 3.62798 -2.03757 0
M  V30 6463 H 608.179 4.98765 -2.29182 0
M  V30 6464 H 608.44 4.37021 -0.668206 0
M  V30 6465 N 607.499 1.09233 1.13605 0
M  V30 6466 C 608.724 0.849067 1.89224 0
M  V30 6467 C 609.149 -0.593875 1.78479 0
M  V30 6468 O 608.507 -1.41703 1.13092 0
M  V30 6469 C 608.555 1.28642 3.36873 0
M  V30 6470 O 607.659 0.44363 4.10007 0
M  V30 6471 H 607 0.30767 0.588417 0
M  V30 6472 H 609.53 1.45595 1.43748 0
M  V30 6473 H 609.54 1.27096 3.87699 0
M  V30 6474 H 608.215 2.33729 3.44011 0
M  V30 6475 H 606.792 0.523241 3.69211 0
M  V30 6476 N 608.977 -1.30795 0.87923 0
M  V30 6477 C 609.925 -2.30231 0.331112 0
M  V30 6478 C 610.919 -1.59918 -0.558794 0
M  V30 6479 O 612.125 -1.74441 -0.443866 0
M  V30 6480 H 608.5 -0.746785 0.088409 0
M  V30 6481 H 610.471 -2.73925 1.18353 0
M  V30 6482 C 609.22 -3.44848 -0.444401 0
M  V30 6483 H 608.543 -3.99131 0.231106 0
M  V30 6484 H 609.983 -4.16516 -0.793109 0
M  V30 6485 C 608.442 -2.94329 -1.63926 0
M  V30 6486 O 608.972 -2.93875 -2.73862 0
M  V30 6487 N 607.178 -2.50413 -1.4745 0
M  V30 6488 H 606.725 -2.50982 -0.58015 0
M  V30 6489 H 606.683 -2.16969 -2.27534 0
M  V30 6490 N 610.455 -0.639598 -1.44038 0
M  V30 6491 C 611.385 0.0469443 -2.33453 0
M  V30 6492 C 612.366 0.82609 -1.48694 0
M  V30 6493 O 613.551 0.790285 -1.77393 0
M  V30 6494 C 610.681 1.02338 -3.3188 0
M  V30 6495 C 609.635 0.355284 -4.26523 0
M  V30 6496 C 608.961 1.44221 -5.14883 0
M  V30 6497 C 610.261 -0.743798 -5.16977 0
M  V30 6498 H 611.955 -0.699735 -2.91108 0
M  V30 6499 H 609.501 -0.337946 -1.39978 0
M  V30 6500 H 611.454 1.51247 -3.93322 0
M  V30 6501 H 610.178 1.80105 -2.72451 0
M  V30 6502 H 608.837 -0.113239 -3.66425 0
M  V30 6503 H 608.485 2.21097 -4.51802 0
M  V30 6504 H 608.185 1.00052 -5.79019 0
M  V30 6505 H 609.709 1.93295 -5.79197 0
M  V30 6506 H 611.123 -0.337444 -5.72306 0
M  V30 6507 H 609.52 -1.10914 -5.89761 0
M  V30 6508 H 610.59 -1.60745 -4.57481 0
M  V30 6509 N 611.933 1.52934 -0.380664 0
M  V30 6510 C 613.161 2.05886 0.204599 0
M  V30 6511 C 613.576 1.25305 1.41223 0
M  V30 6512 O 612.933 0.297504 1.80059 0
M  V30 6513 C 612.984 3.56764 0.583249 0
M  V30 6514 O 612.705 4.34292 -0.576398 0
M  V30 6515 C 614.206 4.2603 1.2253 0
M  V30 6516 H 611.426 0.670193 0.0328991 0
M  V30 6517 H 613.97 1.97148 -0.543397 0
M  V30 6518 H 612.125 3.65603 1.28115 0
M  V30 6519 H 612.539 5.23819 -0.267119 0
M  V30 6520 H 614.013 5.32868 1.44068 0
M  V30 6521 H 614.49 3.80698 2.19011 0
M  V30 6522 H 615.096 4.21485 0.568407 0
M  V30 6523 N 613.412 0.11024 1.57214 0
M  V30 6524 C 614.322 -0.857077 2.18383 0
M  V30 6525 C 615.338 -1.29915 1.1575 0
M  V30 6526 O 616.514 -1.36394 1.48184 0
M  V30 6527 C 613.579 -2.09264 2.76423 0
M  V30 6528 C 612.64 -1.70333 3.94063 0
M  V30 6529 C 611.873 -2.87999 4.49324 0
M  V30 6530 O 612.096 -4.0317 4.03497 0
M  V30 6531 O 611.03 -2.6559 5.40135 0
M  V30 6532 H 614.856 -0.366561 3.0148 0
M  V30 6533 H 612.441 -0.114914 1.48957 0
M  V30 6534 H 614.323 -2.81644 3.13456 0
M  V30 6535 H 612.998 -2.57339 1.96363 0
M  V30 6536 H 611.905 -0.950864 3.61814 0
M  V30 6537 H 613.238 -1.27007 4.75531 0
M  V30 6538 N 614.89 -1.56749 -0.16351 0
M  V30 6539 C 616.115 -1.86938 -0.898264 0
M  V30 6540 C 616.54 -0.697456 -1.74692 0
M  V30 6541 O 615.898 0.353327 -1.77824 0
M  V30 6542 C 615.946 -3.15599 -1.74441 0
M  V30 6543 O 615.05 -2.98371 -2.8469 0
M  V30 6544 H 614.391 -0.614659 -0.251178 0
M  V30 6545 H 616.921 -2.03979 -0.159298 0
M  V30 6546 H 616.931 -3.47202 -2.14277 0
M  V30 6547 H 615.606 -4.00505 -1.1211 0
M  V30 6548 H 614.183 -2.7814 -2.4838 0
M  V30 6549 N 616.368 0.432326 -1.51554 0
M  V30 6550 C 617.593 1.20824 -1.68571 0
M  V30 6551 C 618.018 1.84126 -0.384596 0
M  V30 6552 O 617.376 1.69025 0.655751 0
M  V30 6553 C 617.424 2.26429 -2.80646 0
M  V30 6554 O 616.528 3.32032 -2.44598 0
M  V30 6555 H 615.869 0.353765 -0.561913 0
M  V30 6556 H 618.399 0.509916 -1.98144 0
M  V30 6557 H 618.409 2.71133 -3.04878 0
M  V30 6558 H 617.084 1.79733 -3.75058 0
M  V30 6559 H 615.661 2.92769 -2.30956 0
M  V30 6560 N 617.846 1.41785 0.688094 0
M  V30 6561 C 619.071 1.45117 1.48175 0
M  V30 6562 C 619.496 0.060129 1.88004 0
M  V30 6563 O 618.854 -0.938385 1.55126 0
M  V30 6564 C 618.902 2.37224 2.71583 0
M  V30 6565 O 618.006 1.83443 3.69354 0
M  V30 6566 H 617.347 0.492208 0.445676 0
M  V30 6567 H 619.877 1.86329 0.845145 0
M  V30 6568 H 619.887 2.53353 3.19806 0
M  V30 6569 H 618.562 3.38293 2.41931 0
M  V30 6570 H 617.139 1.76802 3.28322 0
M  V30 6571 N 619.324 -0.923095 1.27737 0
M  V30 6572 C 620.234 -2.05765 1.12685 0
M  V30 6573 C 621.25 -1.73911 0.0557197 0
M  V30 6574 O 622.426 -1.99674 0.263137 0
M  V30 6575 C 619.491 -3.37804 0.780363 0
M  V30 6576 C 618.552 -3.83326 1.93286 0
M  V30 6577 C 617.785 -5.09064 1.60281 0
M  V30 6578 O 618.008 -5.6809 0.512828 0
M  V30 6579 O 616.942 -5.50071 2.44347 0
M  V30 6580 H 620.768 -2.21378 2.07907 0
M  V30 6581 H 618.353 -1.04299 1.06968 0
M  V30 6582 H 620.235 -4.17097 0.600668 0
M  V30 6583 H 618.91 -3.23387 -0.142291 0
M  V30 6584 H 617.817 -3.049 2.16764 0
M  V30 6585 H 619.15 -4.02292 2.83588 0
M  V30 6586 N 620.802 -1.09834 -1.13024 0
M  V30 6587 C 622.027 -0.85909 -1.88771 0
M  V30 6588 C 622.452 0.584402 -1.78791 0
M  V30 6589 O 621.81 1.41101 -1.13842 0
M  V30 6590 C 621.858 -1.30427 -3.36186 0
M  V30 6591 O 620.962 -0.465368 -4.09766 0
M  V30 6592 H 620.303 -0.310786 -0.586778 0
M  V30 6593 H 622.833 -1.46355 -1.42973 0
M  V30 6594 H 622.843 -1.2915 -3.8702 0
M  V30 6595 H 621.518 -2.3555 -3.42767 0
M  V30 6596 H 620.095 -0.542814 -3.68928 0
M  V30 6597 N 622.28 1.30327 -0.886154 0
M  V30 6598 C 623.526 1.96388 -0.505941 0
M  V30 6599 C 623.859 1.69784 0.942712 0
M  V30 6600 O 623.134 1.00322 1.6663 0
M  V30 6601 C 623.417 3.51488 -0.782826 0
M  V30 6602 C 623.27 3.87603 -2.28219 0
M  V30 6603 C 624.589 4.39331 -0.260128 0
M  V30 6604 H 621.708 0.713327 -0.185292 0
M  V30 6605 H 624.35 1.54178 -1.11036 0
M  V30 6606 H 622.5 3.87572 -0.268399 0
M  V30 6607 H 624.172 3.61537 -2.86512 0
M  V30 6608 H 622.415 3.3563 -2.74837 0
M  V30 6609 H 623.086 4.95806 -2.42653 0
M  V30 6610 H 625.562 4.10162 -0.700444 0
M  V30 6611 H 624.438 5.46769 -0.483179 0
M  V30 6612 H 624.699 4.34072 0.838674 0
M  V30 6613 N 623.758 0.647228 1.43697 0
M  V30 6614 C 624.69 -0.0866232 2.29036 0
M  V30 6615 C 625.703 -0.793051 1.42178 0
M  V30 6616 O 626.892 -0.651807 1.66174 0
M  V30 6617 C 623.992 -1.14552 3.18953 0
M  V30 6618 C 623.165 -0.518422 4.34317 0
M  V30 6619 C 622.224 -1.4734 5.05151 0
M  V30 6620 O 621.25 -0.984312 5.60625 0
M  V30 6621 N 622.452 -2.8075 5.08094 0
M  V30 6622 H 625.217 0.645834 2.92659 0
M  V30 6623 H 622.778 0.489567 1.54321 0
M  V30 6624 H 624.77 -1.78505 3.63205 0
M  V30 6625 H 623.34 -1.78001 2.56971 0
M  V30 6626 H 622.56 0.300079 3.93056 0
M  V30 6627 H 623.848 -0.080401 5.08736 0
M  V30 6628 H 623.246 -3.23052 4.64386 0
M  V30 6629 H 621.803 -3.40022 5.56083 0
M  V30 6630 N 625.236 -1.5273 0.388769 0
M  V30 6631 C 626.461 -2.0647 -0.19621 0
M  V30 6632 C 626.886 -1.25865 -1.39784 0
M  V30 6633 O 626.244 -0.283562 -1.79069 0
M  V30 6634 C 626.292 -3.56456 -0.5451 0
M  V30 6635 O 625.396 -3.78426 -1.63912 0
M  V30 6636 H 624.737 -0.663599 -0.023067 0
M  V30 6637 H 627.267 -1.96898 0.556084 0
M  V30 6638 H 627.277 -3.99888 -0.809557 0
M  V30 6639 H 625.952 -4.14561 0.333417 0
M  V30 6640 H 624.529 -3.46884 -1.36842 0
M  V30 6641 N 626.714 -0.118576 -1.57153 0
M  V30 6642 C 627.961 0.539526 -1.9518 0
M  V30 6643 C 628.289 1.66714 -1.00184 0
M  V30 6644 O 627.544 1.95683 -0.0256482 0
M  V30 6645 C 627.843 1.11303 -3.39627 0
M  V30 6646 C 627.509 0.106809 -4.50773 0
M  V30 6647 C 626.171 -0.169876 -4.809 0
M  V30 6648 C 628.523 -0.57895 -5.17975 0
M  V30 6649 C 625.851 -1.13861 -5.75545 0
M  V30 6650 C 628.203 -1.53631 -6.13661 0
M  V30 6651 C 626.867 -1.82099 -6.42181 0
M  V30 6652 H 626.137 0.197427 -0.714215 0
M  V30 6653 H 628.784 -0.199391 -1.90459 0
M  V30 6654 H 627.089 1.92869 -3.4104 0
M  V30 6655 H 628.786 1.63032 -3.66363 0
M  V30 6656 H 625.376 0.332645 -4.27307 0
M  V30 6657 H 629.56 -0.378359 -4.94856 0
M  V30 6658 H 624.816 -1.36592 -5.95947 0
M  V30 6659 H 628.99 -2.07337 -6.64819 0
M  V30 6660 H 626.617 -2.57319 -7.15326 0
M  V30 6661 N 628.193 1.56834 0.155195 0
M  V30 6662 C 629.123 2.00678 1.19376 0
M  V30 6663 C 630.104 0.884973 1.45266 0
M  V30 6664 O 631.289 1.1522 1.56326 0
M  V30 6665 C 628.419 2.38042 2.5289 0
M  V30 6666 C 627.373 3.53332 2.41538 0
M  V30 6667 C 626.699 3.76485 3.79688 0
M  V30 6668 C 627.999 4.86265 1.9064 0
M  V30 6669 H 629.693 2.87688 0.829232 0
M  V30 6670 H 627.239 1.38407 0.397445 0
M  V30 6671 H 629.192 2.67314 3.25763 0
M  V30 6672 H 627.916 1.4796 2.91162 0
M  V30 6673 H 626.575 3.24213 1.71117 0
M  V30 6674 H 626.223 2.83667 4.15382 0
M  V30 6675 H 625.923 4.54068 3.72956 0
M  V30 6676 H 627.447 4.08174 4.54122 0
M  V30 6677 H 628.861 5.14308 2.53299 0
M  V30 6678 H 627.258 5.67597 1.94818 0
M  V30 6679 H 628.328 4.77184 0.861596 0
M  V30 6680 N 629.671 -0.424282 1.51781 0
M  V30 6681 C 630.603 -1.53457 1.70246 0
M  V30 6682 C 631.616 -1.52004 0.582967 0
M  V30 6683 O 632.805 -1.56544 0.857683 0
M  V30 6684 C 629.905 -2.92368 1.71389 0
M  V30 6685 C 629.078 -3.1818 3.00133 0
M  V30 6686 C 628.137 -4.36884 2.9329 0
M  V30 6687 O 627.163 -4.34901 3.67219 0
M  V30 6688 N 628.365 -5.4117 2.10036 0
M  V30 6689 H 631.13 -1.38017 2.66029 0
M  V30 6690 H 628.691 -0.613394 1.4983 0
M  V30 6691 H 630.683 -3.6982 1.64362 0
M  V30 6692 H 629.253 -3.0134 0.831449 0
M  V30 6693 H 628.473 -2.28908 3.20928 0
M  V30 6694 H 629.761 -3.32261 3.85331 0
M  V30 6695 H 629.159 -5.45623 1.49373 0
M  V30 6696 H 627.716 -6.17425 2.08878 0
M  V30 6697 N 631.149 -1.42148 -0.680565 0
M  V30 6698 C 632.374 -1.45901 -1.47403 0
M  V30 6699 C 632.799 -0.0700985 -1.87969 0
M  V30 6700 O 632.157 0.930145 -1.55621 0
M  V30 6701 C 632.205 -2.38661 -2.70321 0
M  V30 6702 O 631.309 -1.85399 -3.68376 0
M  V30 6703 H 630.65 -0.494565 -0.443059 0
M  V30 6704 H 633.18 -1.86774 -0.835251 0
M  V30 6705 H 633.19 -2.55046 -3.18458 0
M  V30 6706 H 631.865 -3.39571 -2.40134 0
M  V30 6707 H 630.442 -1.78541 -3.2738 0
M  V30 6708 N 632.627 0.916307 -1.28225 0
M  V30 6709 C 633.56 2.01954 -1.06254 0
M  V30 6710 C 634.538 1.62587 0.0205983 0
M  V30 6711 O 635.722 1.88073 -0.126824 0
M  V30 6712 C 632.849 3.33086 -0.614141 0
M  V30 6713 C 631.895 3.91435 -1.69354 0
M  V30 6714 S 632.728 4.22603 -3.28887 0
M  V30 6715 C 633.884 5.568 -2.85876 0
M  V30 6716 H 634.117 2.20281 -1.99659 0
M  V30 6717 H 631.65 1.06085 -1.12184 0
M  V30 6718 H 633.608 4.089 -0.36213 0
M  V30 6719 H 632.269 3.12664 0.300036 0
M  V30 6720 H 631.462 4.86098 -1.33136 0
M  V30 6721 H 631.064 3.22248 -1.89821 0
M  V30 6722 H 633.356 6.3658 -2.31888 0
M  V30 6723 H 634.299 5.97927 -3.79326 0
M  V30 6724 H 634.707 5.17865 -2.24669 0
M  V30 6725 N 634.105 1.10431 1.1244 0
M  V30 6726 C 635.354 0.841539 1.83306 0
M  V30 6727 C 635.667 -0.634961 1.85007 0
M  V30 6728 O 636.873 -1.01363 2.51869 0
M  V30 6729 C 635.329 1.45565 3.29149 0
M  V30 6730 C 634.937 2.96544 3.35806 0
M  V30 6731 C 636.681 1.27227 4.04986 0
M  V30 6732 C 634.588 3.5099 4.75983 0
M  V30 6733 H 633.518 0.311156 0.686803 0
M  V30 6734 H 636.169 1.32829 1.26604 0
M  V30 6735 H 634.551 0.896574 3.85717 0
M  V30 6736 H 635.725 3.58766 2.89177 0
M  V30 6737 H 634.04 3.14036 2.73442 0
M  V30 6738 H 636.637 1.65348 5.08492 0
M  V30 6739 H 636.98 0.213834 4.1575 0
M  V30 6740 H 637.513 1.79941 3.54776 0
M  V30 6741 H 634.252 4.56499 4.70413 0
M  V30 6742 H 633.772 2.93535 5.23065 0
M  V30 6743 H 635.451 3.48808 5.44924 0
M  V30 6744 N 635.583 -1.29855 0.893053 0
M  V30 6745 C 636.811 -1.99976 0.530788 0
M  V30 6746 C 637.226 -1.66889 -0.882799 0
M  V30 6747 O 636.583 -0.910352 -1.58173 0
M  V30 6748 C 636.634 -3.54547 0.705587 0
M  V30 6749 O 636.355 -3.86458 2.06353 0
M  V30 6750 C 637.856 -4.41937 0.347387 0
M  V30 6751 H 635.076 -0.639129 0.204339 0
M  V30 6752 H 637.62 -1.65549 1.20057 0
M  V30 6753 H 635.775 -3.87311 0.0830685 0
M  V30 6754 H 636.189 -4.81146 2.08803 0
M  V30 6755 H 637.663 -5.4954 0.520557 0
M  V30 6756 H 638.14 -4.33339 -0.715139 0
M  V30 6757 H 638.746 -4.14633 0.946567 0
M  V30 6758 N 637.061 -0.65484 -1.43351 0
M  V30 6759 C 638.024 0.0263562 -2.29185 0
M  V30 6760 C 639.024 0.748951 -1.42293 0
M  V30 6761 O 640.214 0.589957 -1.63906 0
M  V30 6762 C 637.346 1.04806 -3.2439 0
M  V30 6763 H 638.539 -0.728883 -2.90908 0
M  V30 6764 H 636.092 -0.416149 -1.50658 0
M  V30 6765 H 636.827 1.83247 -2.67565 0
M  V30 6766 H 636.612 0.533554 -3.88453 0
M  V30 6767 H 638.102 1.52372 -3.88809 0
M  V30 6768 N 638.539 1.52521 -0.396863 0
M  V30 6769 C 639.785 2.01971 0.183169 0
M  V30 6770 C 640.118 1.2825 1.45827 0
M  V30 6771 O 639.393 0.385179 1.90648 0
M  V30 6772 C 639.676 3.5736 0.443391 0
M  V30 6773 C 639.529 4.41743 -0.84753 0
M  V30 6774 C 640.848 4.22539 1.2308 0
M  V30 6775 H 637.967 0.734119 0.0650976 0
M  V30 6776 H 640.609 1.82519 -0.527918 0
M  V30 6777 H 638.759 3.74066 1.04914 0
M  V30 6778 H 640.431 4.36773 -1.48414 0
M  V30 6779 H 638.674 4.0845 -1.4612 0
M  V30 6780 H 639.345 5.48507 -0.620003 0
M  V30 6781 H 641.821 4.09857 0.718084 0
M  V30 6782 H 640.697 5.31227 1.38162 0
M  V30 6783 H 640.958 3.80675 2.24808 0
M  V30 6784 N 640.017 0.126909 1.57088 0
M  V30 6785 C 641.265 -0.528123 1.95078 0
M  V30 6786 C 641.586 -1.66708 1.0116 0
M  V30 6787 O 640.856 -1.95777 0.0693527 0
M  V30 6788 H 639.436 -0.198087 0.720257 0
M  V30 6789 H 642.098 0.197703 1.93895 0
M  V30 6790 H 641.194 -0.917507 2.98309 0
M  V30 6791 N 641.495 -1.56914 -0.146875 0
M  V30 6792 C 642.744 -1.82546 -0.857898 0
M  V30 6793 C 643.057 -0.708169 -1.8233 0
M  V30 6794 O 644.263 -0.850093 -2.57848 0
M  V30 6795 C 642.719 -3.23548 -1.57623 0
M  V30 6796 C 642.327 -4.43212 -0.653224 0
M  V30 6797 C 644.071 -3.58453 -2.27402 0
M  V30 6798 C 641.978 -5.75237 -1.37318 0
M  V30 6799 H 640.908 -0.680786 -0.32411 0
M  V30 6800 H 643.559 -1.83166 -0.110639 0
M  V30 6801 H 641.941 -3.17315 -2.36912 0
M  V30 6802 H 643.115 -4.60682 0.104452 0
M  V30 6803 H 641.43 -4.16351 -0.0638336 0
M  V30 6804 H 644.027 -4.54349 -2.81907 0
M  V30 6805 H 644.37 -2.84516 -3.03901 0
M  V30 6806 H 644.903 -3.66347 -1.55032 0
M  V30 6807 H 641.642 -6.52269 -0.650041 0
M  V30 6808 H 641.162 -5.61703 -2.10357 0
M  V30 6809 H 642.841 -6.18039 -1.91406 0
M  V30 6810 N 642.974 0.416227 -1.52004 0
M  V30 6811 C 644.385 0.995319 -1.57957 0
M  V30 6812 C 644.736 1.91744 -0.415754 0
M  V30 6813 O 643.861 2.11349 0.464808 0
M  V30 6814 C 644.456 1.81191 -2.86278 0
M  V30 6815 C 643.015 2.34115 -2.94732 0
M  V30 6816 C 642.162 1.139 -2.52828 0
M  V30 6817 H 645.113 0.196716 -1.57476 0
M  V30 6818 H 645.134 2.66859 -2.71231 0
M  V30 6819 H 644.646 1.14051 -3.70963 0
M  V30 6820 H 642.747 3.04647 -2.14525 0
M  V30 6821 H 642.86 2.65466 -3.98829 0
M  V30 6822 H 641.224 1.49081 -2.06511 0
M  V30 6823 H 642.007 0.483383 -3.3988 0
M  V30 6824 N 644.452 1.42507 0.673017 0
M  V30 6825 C 645.362 1.4853 1.81593 0
M  V30 6826 C 646.378 0.373907 1.69935 0
M  V30 6827 O 647.554 0.625078 1.91454 0
M  V30 6828 C 644.619 1.387 3.17747 0
M  V30 6829 C 643.68 2.60346 3.41348 0
M  V30 6830 C 642.913 2.50975 4.71007 0
M  V30 6831 O 643.136 1.54659 5.49033 0
M  V30 6832 O 642.07 3.41138 4.95892 0
M  V30 6833 H 645.896 2.45001 1.79467 0
M  V30 6834 H 643.481 1.2429 0.82899 0
M  V30 6835 H 645.363 1.35586 3.98992 0
M  V30 6836 H 644.038 0.453555 3.20507 0
M  V30 6837 H 642.945 2.69034 2.59945 0
M  V30 6838 H 644.278 3.52595 3.43421 0
M  V30 6839 N 645.93 -0.909495 1.28709 0
M  V30 6840 C 647.176 -1.66151 1.16283 0
M  V30 6841 C 647.509 -1.92067 -0.287069 0
M  V30 6842 O 646.784 -1.52409 -1.20837 0
M  V30 6843 C 647.067 -3.01676 1.9663 0
M  V30 6844 C 646.92 -2.82888 3.49707 0
M  V30 6845 C 648.239 -4.02274 1.78504 0
M  V30 6846 H 645.358 -0.602966 0.423793 0
M  V30 6847 H 648 -1.05418 1.58073 0
M  V30 6848 H 646.15 -3.53515 1.61119 0
M  V30 6849 H 647.822 -2.38026 3.95147 0
M  V30 6850 H 646.065 -2.17862 3.75125 0
M  V30 6851 H 646.736 -3.79147 4.01187 0
M  V30 6852 H 649.212 -3.59511 2.09503 0
M  V30 6853 H 648.088 -4.95056 2.37088 0
M  V30 6854 H 648.349 -4.35903 0.737647 0
M  V30 6855 N 647.408 -1.11026 -1.11852 0
M  V30 6856 C 648.341 -0.708501 -2.16923 0
M  V30 6857 C 649.319 0.293196 -1.59935 0
M  V30 6858 O 650.503 0.190641 -1.87533 0
M  V30 6859 C 647.63 -0.0463705 -3.38668 0
M  V30 6860 C 646.676 -1.01252 -4.14307 0
M  V30 6861 S 647.509 -2.53291 -4.71809 0
M  V30 6862 C 648.665 -1.88366 -5.96883 0
M  V30 6863 H 648.898 -1.59854 -2.50667 0
M  V30 6864 H 646.431 -0.927869 -1.2341 0
M  V30 6865 H 648.389 0.329314 -4.09177 0
M  V30 6866 H 647.05 0.820562 -3.03192 0
M  V30 6867 H 646.243 -0.496596 -5.01548 0
M  V30 6868 H 645.845 -1.33042 -3.49537 0
M  V30 6869 H 648.137 -1.21753 -6.6647 0
M  V30 6870 H 649.08 -2.73588 -6.53112 0
M  V30 6871 H 649.488 -1.34562 -5.48227 0
M  V30 6872 N 648.886 1.2938 -0.899927 0
M  V30 6873 C 650.111 2.00228 -0.540692 0
M  V30 6874 C 650.536 1.66909 0.867359 0
M  V30 6875 O 649.894 0.893824 1.57735 0
M  V30 6876 C 649.942 3.52921 -0.740232 0
M  V30 6877 O 649.046 4.11879 0.207154 0
M  V30 6878 H 648.387 0.629505 -0.211233 0
M  V30 6879 H 650.917 1.6487 -1.21158 0
M  V30 6880 H 650.927 4.0287 -0.644973 0
M  V30 6881 H 649.602 3.76508 -1.76677 0
M  V30 6882 H 648.179 3.72845 0.0643315 0
M  V30 6883 N 650.364 0.662433 1.43002 0
M  V30 6884 C 651.78 0.330835 1.56133 0
M  V30 6885 C 651.98 -1.16454 1.64441 0
M  V30 6886 O 651.036 -1.94964 1.60453 0
M  V30 6887 C 652.349 1.05029 2.81761 0
M  V30 6888 C 653.897 1.03142 2.95518 0
M  V30 6889 C 654.372 1.73196 4.2399 0
M  V30 6890 N 655.863 1.70004 4.30875 0
M  V30 6891 C 656.598 2.21074 5.29069 0
M  V30 6892 N 656.094 2.80473 6.33488 0
M  V30 6893 N 657.887 2.1152 5.20784 0
M  V30 6894 H 650.038 1.63272 1.35853 0
M  V30 6895 H 652.301 0.687149 0.653092 0
M  V30 6896 H 652.007 2.10542 2.81718 0
M  V30 6897 H 651.881 0.607664 3.72273 0
M  V30 6898 H 654.268 -0.0153339 2.95096 0
M  V30 6899 H 654.349 1.51282 2.0627 0
M  V30 6900 H 653.993 2.77833 4.25172 0
M  V30 6901 H 653.923 1.22515 5.1215 0
M  V30 6902 H 656.414 1.26667 3.56039 0
M  V30 6903 H 656.727 3.17094 7.04749 0
M  V30 6904 H 655.072 2.84538 6.34085 0
M  V30 6905 H 658.263 1.64814 4.38126 0
M  V30 6906 H 658.436 2.51629 5.97149 0
M  V30 6907 N 651.842 -1.52309 0.404946 0
M  V30 6908 C 652.772 -2.29805 -0.41376 0
M  V30 6909 C 653.753 -1.3384 -1.0498 0
M  V30 6910 O 654.938 -1.62745 -1.05961 0
M  V30 6911 C 652.068 -3.11639 -1.53292 0
M  V30 6912 C 651.022 -4.15616 -1.02211 0
M  V30 6913 C 650.348 -4.8577 -2.23455 0
M  V30 6914 C 651.648 -5.2224 -0.0790725 0
M  V30 6915 H 653.342 -2.98493 0.232878 0
M  V30 6916 H 650.888 -1.43552 0.113441 0
M  V30 6917 H 652.841 -3.64618 -2.11262 0
M  V30 6918 H 651.565 -2.40712 -2.20738 0
M  V30 6919 H 650.224 -3.63641 -0.46484 0
M  V30 6920 H 649.872 -4.11376 -2.89445 0
M  V30 6921 H 649.572 -5.56058 -1.89929 0
M  V30 6922 H 651.096 -5.4156 -2.82038 0
M  V30 6923 H 652.51 -5.70485 -0.567438 0
M  V30 6924 H 650.907 -5.99867 0.167167 0
M  V30 6925 H 651.977 -4.77078 0.867447 0
M  V30 6926 N 653.32 -0.135238 -1.57019 0
M  V30 6927 C 654.23 0.822226 -2.19719 0
M  V30 6928 C 655.246 1.28057 -1.17802 0
M  V30 6929 O 656.422 1.3402 -1.50335 0
M  V30 6930 C 653.487 2.0484 -2.79717 0
M  V30 6931 C 652.548 1.64042 -3.96723 0
M  V30 6932 C 651.781 2.80814 -4.53849 0
M  V30 6933 O 652.004 3.967 -4.0986 0
M  V30 6934 O 650.938 2.56963 -5.44292 0
M  V30 6935 H 654.764 0.318552 -3.02025 0
M  V30 6936 H 652.349 0.0912021 -1.49121 0
M  V30 6937 H 654.231 2.76622 -3.17897 0
M  V30 6938 H 652.906 2.54182 -2.00432 0
M  V30 6939 H 651.813 0.893182 -3.63281 0
M  V30 6940 H 653.146 1.19426 -4.77492 0
M  V30 6941 N 654.798 1.5699 0.138552 0
M  V30 6942 C 656.044 1.84081 0.85099 0
M  V30 6943 C 656.377 0.718107 1.80435 0
M  V30 6944 O 655.652 -0.277633 1.92508 0
M  V30 6945 C 655.935 3.21699 1.61808 0
M  V30 6946 C 655.788 4.44544 0.685633 0
M  V30 6947 C 657.107 3.5664 2.57868 0
M  V30 6948 H 654.226 0.669592 0.307922 0
M  V30 6949 H 656.868 1.89646 0.11588 0
M  V30 6950 H 655.018 3.17086 2.24474 0
M  V30 6951 H 656.69 4.61248 0.0693179 0
M  V30 6952 H 654.933 4.338 -0.00421993 0
M  V30 6953 H 655.604 5.3746 1.25858 0
M  V30 6954 H 658.08 3.61918 2.05316 0
M  V30 6955 H 656.956 4.53946 3.08584 0
M  V30 6956 H 657.217 2.83036 3.39622 0
M  V30 6957 N 656.276 -0.40816 1.52223 0
M  V30 6958 C 657.522 -1.15673 1.66576 0
M  V30 6959 C 657.855 -1.90141 0.394996 0
M  V30 6960 O 657.13 -1.84798 -0.606613 0
M  V30 6961 C 657.413 -2.15042 2.88841 0
M  V30 6962 C 657.266 -1.44465 4.25969 0
M  V30 6963 C 658.585 -3.15699 3.0663 0
M  V30 6964 H 655.704 -0.41916 0.606196 0
M  V30 6965 H 658.346 -0.442348 1.84779 0
M  V30 6966 H 656.496 -2.75964 2.73452 0
M  V30 6967 H 658.168 -0.866544 4.53088 0
M  V30 6968 H 656.411 -0.746612 4.27327 0
M  V30 6969 H 657.082 -2.16976 5.07568 0
M  V30 6970 H 659.558 -2.64854 3.20923 0
M  V30 6971 H 658.434 -3.82491 3.9369 0
M  V30 6972 H 658.695 -3.83481 2.19987 0
M  V30 6973 N 657.755 -1.42862 -0.66545 0
M  V30 6974 C 659.002 -1.4383 -1.42546 0
M  V30 6975 C 659.33 -0.0581114 -1.94413 0
M  V30 6976 O 658.585 0.935002 -1.71919 0
M  V30 6977 C 658.884 -2.4175 -2.63233 0
M  V30 6978 C 658.55 -3.87915 -2.29854 0
M  V30 6979 C 657.212 -4.27726 -2.20463 0
M  V30 6980 C 659.564 -4.80074 -2.02924 0
M  V30 6981 C 656.892 -5.57666 -1.82279 0
M  V30 6982 C 659.244 -6.10366 -1.66242 0
M  V30 6983 C 657.908 -6.49167 -1.55367 0
M  V30 6984 H 657.178 -0.52631 -0.521612 0
M  V30 6985 H 659.825 -1.75863 -0.757914 0
M  V30 6986 H 658.13 -2.03077 -3.35063 0
M  V30 6987 H 659.827 -2.39759 -3.21429 0
M  V30 6988 H 656.417 -3.564 -2.3807 0
M  V30 6989 H 660.601 -4.50097 -2.09108 0
M  V30 6990 H 655.857 -5.8658 -1.72436 0
M  V30 6991 H 660.031 -6.81258 -1.44432 0
M  V30 6992 H 657.658 -7.49761 -1.2555 0
M  V30 6993 N 659.233 0.902656 -1.29189 0
M  V30 6994 C 660.461 1.68639 -1.19869 0
M  V30 6995 C 660.876 1.87254 0.241121 0
M  V30 6996 O 660.233 1.40745 1.16177 0
M  V30 6997 C 660.284 3.07251 -1.90471 0
M  V30 6998 O 660.005 2.89488 -3.28829 0
M  V30 6999 C 661.506 4.01653 -1.8759 0
M  V30 7000 H 658.726 0.526802 -0.415596 0
M  V30 7001 H 661.27 1.12901 -1.7051 0
M  V30 7002 H 659.425 3.59774 -1.43672 0
M  V30 7003 H 659.839 3.77296 -3.64346 0
M  V30 7004 H 661.313 4.96339 -2.4156 0
M  V30 7005 H 661.79 4.30881 -0.850756 0
M  V30 7006 H 662.396 3.55061 -2.34119 0
M  V30 7007 N 660.711 1.11618 1.11262 0
M  V30 7008 C 661.674 0.779447 2.15539 0
M  V30 7009 C 662.674 -0.202081 1.59525 0
M  V30 7010 O 663.864 0.0226356 1.74185 0
M  V30 7011 C 660.996 0.15674 3.40539 0
M  V30 7012 H 662.189 1.70324 2.4684 0
M  V30 7013 H 659.742 0.918298 1.26479 0
M  V30 7014 H 660.477 -0.777186 3.1485 0
M  V30 7015 H 660.262 0.863308 3.82478 0
M  V30 7016 H 661.752 -0.062661 4.17553 0
M  V30 7017 N 662.189 -1.289 0.906776 0
M  V30 7018 C 663.119 -2.29932 0.406659 0
M  V30 7019 C 664.1 -1.6189 -0.522061 0
M  V30 7020 O 665.285 -1.8935 -0.431283 0
M  V30 7021 C 662.415 -3.45425 -0.360366 0
M  V30 7022 C 661.369 -4.25316 0.478574 0
M  V30 7023 C 660.695 -5.33076 -0.416373 0
M  V30 7024 C 661.995 -4.92739 1.7322 0
M  V30 7025 H 663.689 -2.72013 1.25097 0
M  V30 7026 H 661.235 -1.30768 0.602977 0
M  V30 7027 H 663.188 -4.15186 -0.721029 0
M  V30 7028 H 661.912 -3.02206 -1.23852 0
M  V30 7029 H 660.571 -3.57273 0.821662 0
M  V30 7030 H 660.219 -4.86101 -1.29287 0
M  V30 7031 H 659.919 -5.8743 0.141309 0
M  V30 7032 H 661.443 -6.05686 -0.773072 0
M  V30 7033 H 662.857 -5.54898 1.44086 0
M  V30 7034 H 661.254 -5.57057 2.23175 0
M  V30 7035 H 662.324 -4.17625 2.46408 0
M  V30 7036 N 663.667 -0.670007 -1.42649 0
M  V30 7037 C 664.6 0.0613623 -2.28117 0
M  V30 7038 C 665.578 0.813414 -1.40792 0
M  V30 7039 O 666.762 0.809529 -1.70232 0
M  V30 7040 C 663.889 1.09399 -3.20546 0
M  V30 7041 C 662.935 0.438064 -4.24244 0
M  V30 7042 S 663.768 -0.800808 -5.29478 0
M  V30 7043 C 664.924 0.23086 -6.25474 0
M  V30 7044 H 665.157 -0.663606 -2.89799 0
M  V30 7045 H 662.69 -0.45939 -1.47407 0
M  V30 7046 H 664.648 1.68469 -3.74337 0
M  V30 7047 H 663.309 1.79137 -2.58009 0
M  V30 7048 H 662.502 1.21707 -4.89084 0
M  V30 7049 H 662.104 -0.0789346 -3.73917 0
M  V30 7050 H 664.396 1.09204 -6.68641 0
M  V30 7051 H 665.339 -0.382945 -7.07064 0
M  V30 7052 H 665.747 0.574191 -5.61572 0
M  V30 7053 N 665.145 1.52092 -0.413018 0
M  V30 7054 C 666.093 2.28681 0.425199 0
M  V30 7055 C 667.087 1.3353 1.04241 0
M  V30 7056 O 668.293 1.50973 0.980166 0
M  V30 7057 H 664.668 0.735661 0.155906 0
M  V30 7058 H 666.639 2.97418 -0.241926 0
M  V30 7059 C 665.388 3.1235 1.5275 0
M  V30 7060 H 664.711 3.85439 1.06191 0
M  V30 7061 H 666.151 3.69038 2.08774 0
M  V30 7062 C 664.61 2.26161 2.49706 0
M  V30 7063 O 665.14 1.90452 3.53682 0
M  V30 7064 N 663.346 1.89854 2.20008 0
M  V30 7065 H 662.893 2.19092 1.35486 0
M  V30 7066 H 662.851 1.3248 2.85125 0
M  V30 7067 N 666.623 0.143563 1.56945 0
M  V30 7068 C 667.848 -0.518701 2.00809 0
M  V30 7069 C 668.273 -1.5785 1.02298 0
M  V30 7070 O 667.631 -1.813 -0.0017839 0
M  V30 7071 C 667.679 -1.09929 3.43436 0
M  V30 7072 O 666.783 -2.21425 3.47915 0
M  V30 7073 H 666.124 -0.127215 0.6517 0
M  V30 7074 H 668.654 0.239283 2.03196 0
M  V30 7075 H 668.664 -1.4288 3.82164 0
M  V30 7076 H 667.339 -0.323162 4.14643 0
M  V30 7077 H 665.916 -1.89728 3.21026 0
M  V30 7078 N 668.101 -1.57061 -0.130224 0
M  V30 7079 C 669.048 -1.99517 -1.16024 0
M  V30 7080 C 670.018 -0.865452 -1.41771 0
M  V30 7081 O 671.203 -1.12882 -1.53826 0
M  V30 7082 C 668.343 -2.3951 -2.48453 0
M  V30 7083 C 667.456 -3.65848 -2.29737 0
M  V30 7084 C 666.591 -3.9487 -3.55318 0
M  V30 7085 C 665.63 -5.14426 -3.31711 0
M  V30 7086 N 664.767 -5.39375 -4.49466 0
M  V30 7087 H 669.607 -2.87305 -0.791194 0
M  V30 7088 H 667.144 -1.42129 -0.379195 0
M  V30 7089 H 669.102 -2.60731 -3.25692 0
M  V30 7090 H 667.732 -1.54779 -2.83272 0
M  V30 7091 H 666.784 -3.52307 -1.4347 0
M  V30 7092 H 668.096 -4.53241 -2.08263 0
M  V30 7093 H 667.25 -4.16679 -4.4098 0
M  V30 7094 H 665.989 -3.05931 -3.79813 0
M  V30 7095 H 664.994 -4.92473 -2.44439 0
M  V30 7096 H 666.219 -6.04933 -3.08598 0
M  V30 7097 H 664.165 -4.53391 -4.74102 0
M  V30 7098 H 664.082 -6.21069 -4.31055 0
M  V30 7099 H 665.35 -5.65694 -5.36293 0
M  V30 7100 N 669.579 0.400081 -1.52437 0
M  V30 7101 C 670.827 1.14392 -1.6661 0
M  V30 7102 C 671.148 1.90792 -0.402927 0
M  V30 7103 O 670.418 1.87042 0.582425 0
M  V30 7104 H 668.998 0.425275 -0.614125 0
M  V30 7105 H 671.66 0.455076 -1.89513 0
M  V30 7106 H 670.756 1.85298 -2.51139 0
M  V30 7107 N 671.057 1.43213 0.657864 0
M  V30 7108 C 672.303 1.44798 1.41991 0
M  V30 7109 C 672.636 0.070256 1.94073 0
M  V30 7110 O 671.911 -0.908177 1.71995 0
M  V30 7111 C 672.194 2.4865 2.60471 0
M  V30 7112 C 672.047 3.95679 2.13911 0
M  V30 7113 C 673.366 2.49292 3.62686 0
M  V30 7114 H 670.485 0.527244 0.514959 0
M  V30 7115 H 673.127 1.74733 0.74621 0
M  V30 7116 H 671.277 2.23254 3.17946 0
M  V30 7117 H 672.949 4.32116 1.61472 0
M  V30 7118 H 671.192 4.08733 1.45325 0
M  V30 7119 H 671.863 4.6395 2.99089 0
M  V30 7120 H 674.339 2.71917 3.14961 0
M  V30 7121 H 673.215 3.23907 4.43143 0
M  V30 7122 H 673.476 1.52502 4.14964 0
M  V30 7123 N 672.536 -0.895792 1.29666 0
M  V30 7124 C 673.761 -1.68528 1.20885 0
M  V30 7125 C 674.186 -1.8673 -0.226595 0
M  V30 7126 O 673.544 -1.39044 -1.16347 0
M  V30 7127 C 673.592 -3.04512 1.93144 0
M  V30 7128 O 672.696 -3.92963 1.25115 0
M  V30 7129 H 672.037 -0.515371 0.418675 0
M  V30 7130 H 674.567 -1.11878 1.71302 0
M  V30 7131 H 674.577 -3.54628 2.0175 0
M  V30 7132 H 673.252 -2.90582 2.97548 0
M  V30 7133 H 671.829 -3.51399 1.24794 0
M  V30 7134 N 674.014 -1.12206 -1.10668 0
M  V30 7135 C 674.944 -0.810086 -2.18997 0
M  V30 7136 C 675.925 0.225065 -1.68604 0
M  V30 7137 O 677.11 0.086783 -1.94006 0
M  V30 7138 C 674.24 -0.261262 -3.46316 0
M  V30 7139 C 673.194 -1.2292 -4.09969 0
M  V30 7140 C 672.52 -0.540713 -5.31959 0
M  V30 7141 C 673.82 -2.58295 -4.53962 0
M  V30 7142 H 675.514 -1.7159 -2.45352 0
M  V30 7143 H 673.06 -0.82646 -1.17922 0
M  V30 7144 H 675.013 -0.0307522 -4.21389 0
M  V30 7145 H 673.737 0.679879 -3.19445 0
M  V30 7146 H 672.396 -1.44548 -3.369 0
M  V30 7147 H 672.044 0.405492 -5.01363 0
M  V30 7148 H 671.744 -1.18637 -5.75499 0
M  V30 7149 H 673.268 -0.319184 -6.09765 0
M  V30 7150 H 674.682 -2.40709 -5.20319 0
M  V30 7151 H 673.079 -3.18916 -5.08343 0
M  V30 7152 H 674.149 -3.16918 -3.67002 0
M  V30 7153 N 675.492 1.28418 -0.913599 0
M  V30 7154 C 676.739 1.94981 -0.546674 0
M  V30 7155 C 677.067 1.7192 0.909606 0
M  V30 7156 O 676.322 1.03314 1.66207 0
M  V30 7157 C 676.621 3.48283 -0.802099 0
M  V30 7158 C 676.287 3.91444 -2.2379 0
M  V30 7159 C 674.949 4.02939 -2.63046 0
M  V30 7160 C 677.301 4.13542 -3.17227 0
M  V30 7161 C 674.629 4.3391 -3.94891 0
M  V30 7162 C 676.981 4.45992 -4.48636 0
M  V30 7163 C 675.645 4.55698 -4.87746 0
M  V30 7164 H 674.915 0.713487 -0.200042 0
M  V30 7165 H 677.562 1.52756 -1.15489 0
M  V30 7166 H 675.867 3.91643 -0.111076 0
M  V30 7167 H 677.564 3.97903 -0.497375 0
M  V30 7168 H 674.154 3.83024 -1.9233 0
M  V30 7169 H 678.338 4.04114 -2.88107 0
M  V30 7170 H 673.594 4.39631 -4.24894 0
M  V30 7171 H 677.768 4.62038 -5.21051 0
M  V30 7172 H 675.395 4.79451 -5.89942 0
M  V30 7173 N 676.97 0.677563 1.42291 0
M  V30 7174 C 678.247 0.129803 1.95169 0
M  V30 7175 C 678.627 -1.35605 1.61786 0
M  V30 7176 O 677.975 -2.09361 0.915444 0
M  V30 7177 C 678.185 0.401889 3.46678 0
M  V30 7178 C 679.533 0.319889 4.23393 0
M  V30 7179 O 680.557 0.33579 3.54614 0
M  V30 7180 O 679.416 0.264459 5.4586 0
M  V30 7181 H 676.51 0.00447433 0.826988 0
M  V30 7182 H 679.056 0.752483 1.52105 0
M  V30 7183 H 677.828 1.43108 3.64192 0
M  V30 7184 H 677.451 -0.252662 3.96796 0
M  V30 7185 N 678.448 -1.51871 0.421078 0
M  V30 7186 C 679.697 -2.01125 -0.152206 0
M  V30 7187 C 680.01 -1.3106 -1.45199 0
M  V30 7188 O 681.216 -1.71195 -2.10724 0
M  V30 7189 C 679.672 -3.58458 -0.3218 0
M  V30 7190 C 679.28 -4.37448 0.96659 0
M  V30 7191 C 681.024 -4.15908 -0.84973 0
M  V30 7192 C 678.931 -5.86451 0.763529 0
M  V30 7193 H 677.861 -0.751556 -0.0606565 0
M  V30 7194 H 680.512 -1.75115 0.548354 0
M  V30 7195 H 678.894 -3.80847 -1.08498 0
M  V30 7196 H 680.068 -4.26814 1.73684 0
M  V30 7197 H 678.383 -3.91373 1.42183 0
M  V30 7198 H 680.98 -5.24922 -1.01788 0
M  V30 7199 H 681.323 -3.74031 -1.82774 0
M  V30 7200 H 681.856 -3.97535 -0.145297 0
M  V30 7201 H 678.595 -6.3271 1.71344 0
M  V30 7202 H 678.115 -5.99791 0.0327889 0
M  V30 7203 H 679.794 -6.45697 0.410354 0
M  V30 7204 N 679.926 -0.151884 -1.56866 0
M  V30 7205 C 681.175 0.497992 -1.95456 0
M  V30 7206 C 681.488 1.6569 -1.03953 0
M  V30 7207 O 682.694 2.37173 -1.32142 0
M  V30 7208 C 681.15 0.93732 -3.4748 0
M  V30 7209 C 680.758 -0.194921 -4.47576 0
M  V30 7210 C 682.502 1.55671 -3.94926 0
M  V30 7211 C 680.409 0.26295 -5.90815 0
M  V30 7212 H 679.339 0.189811 -0.729717 0
M  V30 7213 H 681.99 -0.237011 -1.81963 0
M  V30 7214 H 680.372 1.72773 -3.56322 0
M  V30 7215 H 681.546 -0.971951 -4.50433 0
M  V30 7216 H 679.861 -0.72303 -4.10075 0
M  V30 7217 H 682.458 1.91099 -4.99385 0
M  V30 7218 H 682.801 2.44748 -3.36755 0
M  V30 7219 H 683.334 0.831109 -3.89021 0
M  V30 7220 H 680.073 -0.592568 -6.52816 0
M  V30 7221 H 679.593 1.00575 -5.91308 0
M  V30 7222 H 681.272 0.713333 -6.43056 0
M  V30 7223 N 681.404 1.57128 0.121893 0
M  V30 7224 C 682.352 2.01109 1.16868 0
M  V30 7225 C 683.346 0.907532 1.43039 0
M  V30 7226 O 684.552 1.09274 1.43036 0
M  V30 7227 H 680.927 0.640539 0.393971 0
M  V30 7228 H 682.898 2.88261 0.771224 0
M  V30 7229 C 681.647 2.42887 2.48799 0
M  V30 7230 H 680.97 3.2737 2.29498 0
M  V30 7231 H 682.41 2.77461 3.20611 0
M  V30 7232 C 680.869 1.29137 3.11168 0
M  V30 7233 O 681.399 0.605756 3.97106 0
M  V30 7234 N 679.605 1.04916 2.71 0
M  V30 7235 H 679.152 1.60848 2.01211 0
M  V30 7236 H 679.11 0.290016 3.1306 0
M  V30 7237 N 682.882 -0.391992 1.52647 0
M  V30 7238 C 684.293 -0.970064 1.5952 0
M  V30 7239 C 684.644 -1.91059 0.446207 0
M  V30 7240 O 683.769 -2.12062 -0.431125 0
M  V30 7241 C 684.364 -1.76614 2.89125 0
M  V30 7242 C 682.923 -2.29396 2.9842 0
M  V30 7243 C 682.07 -1.09864 2.54608 0
M  V30 7244 H 685.021 -0.171638 1.57769 0
M  V30 7245 H 685.042 -2.62511 2.75442 0
M  V30 7246 H 684.554 -1.08135 3.72731 0
M  V30 7247 H 682.655 -3.01196 2.19344 0
M  V30 7248 H 682.768 -2.59088 4.03002 0
M  V30 7249 H 681.132 -1.45777 2.08857 0
M  V30 7250 H 681.915 -0.429249 3.40606 0
M  V30 7251 N 684.36 -1.4356 -0.65026 0
M  V30 7252 C 685.27 -1.514 -1.79207 0
M  V30 7253 C 686.286 -0.400895 -1.69319 0
M  V30 7254 O 687.462 -0.655458 -1.90436 0
M  V30 7255 C 684.527 -1.43737 -3.155 0
M  V30 7256 C 683.588 -2.65743 -3.37163 0
M  V30 7257 C 682.821 -2.58436 -4.66954 0
M  V30 7258 O 683.044 -1.63374 -5.46503 0
M  V30 7259 O 681.978 -3.48984 -4.90402 0
M  V30 7260 H 685.804 -2.47825 -1.75547 0
M  V30 7261 H 683.389 -1.25594 -0.809111 0
M  V30 7262 H 685.271 -1.41916 -3.96784 0
M  V30 7263 H 683.946 -0.504488 -3.19745 0
M  V30 7264 H 682.853 -2.73136 -2.55632 0
M  V30 7265 H 684.186 -3.58014 -3.37768 0
M  V30 7266 N 685.838 0.888903 -1.30139 0
M  V30 7267 C 687.087 1.63507 -1.18103 0
M  V30 7268 C 687.4 1.93808 0.264141 0
M  V30 7269 O 688.606 2.66744 0.505966 0
M  V30 7270 C 687.062 2.94673 -2.0663 0
M  V30 7271 C 686.67 2.71926 -3.56034 0
M  V30 7272 C 688.414 3.72626 -2.03346 0
M  V30 7273 C 686.321 3.98884 -4.3663 0
M  V30 7274 H 685.251 0.613426 -0.438435 0
M  V30 7275 H 687.902 0.984427 -1.54859 0
M  V30 7276 H 686.284 3.61009 -1.62754 0
M  V30 7277 H 687.458 2.14116 -4.08033 0
M  V30 7278 H 685.773 2.07353 -3.61101 0
M  V30 7279 H 688.37 4.66775 -2.60816 0
M  V30 7280 H 688.713 4.03712 -1.016 0
M  V30 7281 H 689.246 3.13147 -2.45324 0
M  V30 7282 H 685.985 3.72959 -5.39056 0
M  V30 7283 H 685.505 4.56214 -3.89396 0
M  V30 7284 H 687.184 4.66938 -4.47859 0
M  V30 7285 N 687.317 1.12792 1.10072 0
M  V30 7286 C 688.566 0.880232 1.81479 0
M  V30 7287 C 688.879 -0.595575 1.86312 0
M  V30 7288 O 690.085 -0.959979 2.53962 0
M  V30 7289 C 688.541 1.52514 3.25987 0
M  V30 7290 C 688.149 3.036 3.29441 0
M  V30 7291 C 689.893 1.35788 4.02196 0
M  V30 7292 C 687.8 3.61007 4.68431 0
M  V30 7293 H 686.73 0.325654 0.680048 0
M  V30 7294 H 689.381 1.35485 1.23758 0
M  V30 7295 H 687.763 0.978188 3.83728 0
M  V30 7296 H 688.937 3.64819 2.81502 0
M  V30 7297 H 687.252 3.19765 2.66719 0
M  V30 7298 H 689.849 1.76096 5.0487 0
M  V30 7299 H 690.192 0.301972 4.15203 0
M  V30 7300 H 690.725 1.87426 3.50879 0
M  V30 7301 H 687.464 4.66375 4.60625 0
M  V30 7302 H 686.984 3.04564 5.16721 0
M  V30 7303 H 688.663 3.60289 5.37402 0
M  V30 7304 N 688.795 -1.27931 0.920396 0
M  V30 7305 C 690.023 -1.98805 0.573087 0
M  V30 7306 C 690.438 -1.68724 -0.847201 0
M  V30 7307 O 689.795 -0.943699 -1.56207 0
M  V30 7308 C 689.846 -3.52971 0.780633 0
M  V30 7309 O 689.567 -3.81994 2.14504 0
M  V30 7310 C 691.068 -4.411 0.44105 0
M  V30 7311 H 688.288 -0.634651 0.21785 0
M  V30 7312 H 690.832 -1.62965 1.23542 0
M  V30 7313 H 688.987 -3.87048 0.165204 0
M  V30 7314 H 689.401 -4.76609 2.18962 0
M  V30 7315 H 690.875 -5.48312 0.637006 0
M  V30 7316 H 691.352 -4.34758 -0.62306 0
M  V30 7317 H 691.958 -4.12532 1.0343 0
M  V30 7318 N 690.273 -0.685099 -1.4193 0
M  V30 7319 C 691.689 -0.355632 -1.55587 0
M  V30 7320 C 691.889 1.13823 -1.66273 0
M  V30 7321 O 690.945 1.92387 -1.63534 0
M  V30 7322 C 692.258 -1.09498 -2.80055 0
M  V30 7323 C 693.806 -1.07831 -2.93839 0
M  V30 7324 C 694.281 -1.79919 -4.21181 0
M  V30 7325 N 695.772 -1.76837 -4.28115 0
M  V30 7326 C 696.507 -2.29463 -5.25485 0
M  V30 7327 N 696.003 -2.90516 -6.28945 0
M  V30 7328 N 697.796 -2.19779 -5.17353 0
M  V30 7329 H 689.947 -1.65412 -1.33239 0
M  V30 7330 H 692.21 -0.697453 -0.642078 0
M  V30 7331 H 691.916 -2.14997 -2.78333 0
M  V30 7332 H 691.79 -0.666813 -3.71259 0
M  V30 7333 H 694.177 -0.0316152 -2.95083 0
M  V30 7334 H 694.258 -1.54545 -2.03837 0
M  V30 7335 H 693.902 -2.84562 -4.20698 0
M  V30 7336 H 693.832 -1.30647 -5.10136 0
M  V30 7337 H 696.323 -1.32315 -3.53979 0
M  V30 7338 H 696.636 -3.28266 -6.99615 0
M  V30 7339 H 694.981 -2.94589 -6.29478 0
M  V30 7340 H 698.172 -1.71763 -4.35448 0
M  V30 7341 H 698.345 -2.61097 -5.9307 0
M  V30 7342 N 691.751 1.51645 -0.429126 0
M  V30 7343 C 693.028 1.94579 0.199614 0
M  V30 7344 C 693.408 1.3673 1.60836 0
M  V30 7345 O 692.756 0.551062 2.21756 0
M  V30 7346 C 692.966 3.48506 0.185685 0
M  V30 7347 C 694.314 4.22756 0.395282 0
M  V30 7348 O 695.338 3.55219 0.264165 0
M  V30 7349 O 694.197 5.42555 0.655475 0
M  V30 7350 H 691.291 0.816007 0.134393 0
M  V30 7351 H 693.837 1.62577 -0.486513 0
M  V30 7352 H 692.609 3.83045 -0.799508 0
M  V30 7353 H 692.232 3.86927 0.91507 0
M  V30 7354 N 693.229 0.160201 1.56784 0
M  V30 7355 C 694.477 -0.486625 1.96154 0
M  V30 7356 C 694.798 -1.64525 1.04673 0
M  V30 7357 O 694.068 -1.95586 0.110864 0
M  V30 7358 H 692.648 -0.182764 0.724297 0
M  V30 7359 H 695.31 0.238787 1.93432 0
M  V30 7360 H 694.406 -0.854025 3.00188 0
M  V30 7361 N 694.707 -1.5719 -0.113559 0
M  V30 7362 C 695.954 -1.85138 -0.820382 0
M  V30 7363 C 696.282 -0.74608 -1.79622 0
M  V30 7364 O 695.537 0.262077 -1.93937 0
M  V30 7365 C 695.836 -3.19593 -1.59984 0
M  V30 7366 C 695.502 -4.44315 -0.767809 0
M  V30 7367 C 694.164 -4.78179 -0.538379 0
M  V30 7368 C 696.516 -5.2086 -0.188203 0
M  V30 7369 C 693.844 -5.86028 0.28082 0
M  V30 7370 C 696.196 -6.29572 0.618217 0
M  V30 7371 C 694.86 -6.61964 0.857912 0
M  V30 7372 H 694.13 -0.677467 -0.300199 0
M  V30 7373 H 696.777 -1.91322 -0.0825443 0
M  V30 7374 H 695.082 -3.0901 -2.40874 0
M  V30 7375 H 696.779 -3.3844 -2.1508 0
M  V30 7376 H 693.369 -4.17786 -0.956724 0
M  V30 7377 H 697.553 -4.95045 -0.352658 0
M  V30 7378 H 692.809 -6.09547 0.475693 0
M  V30 7379 H 696.983 -6.88064 1.0743 0
M  V30 7380 H 694.61 -7.45365 1.49451 0
M  V30 7381 N 696.185 0.383891 -1.52853 0
M  V30 7382 C 697.115 1.47559 -1.80965 0
M  V30 7383 C 698.096 1.5669 -0.661986 0
M  V30 7384 O 699.281 1.71556 -0.910072 0
M  V30 7385 C 696.411 2.85114 -1.98312 0
M  V30 7386 C 695.365 2.9082 -3.14019 0
M  V30 7387 C 694.691 4.30873 -3.16627 0
M  V30 7388 C 695.991 2.60001 -4.52986 0
M  V30 7389 H 697.685 1.24283 -2.72386 0
M  V30 7390 H 695.231 0.596445 -1.31067 0
M  V30 7391 H 697.184 3.61496 -2.16561 0
M  V30 7392 H 695.908 3.09738 -1.03585 0
M  V30 7393 H 694.567 2.16886 -2.9556 0
M  V30 7394 H 694.215 4.52545 -2.19573 0
M  V30 7395 H 693.915 4.3561 -3.94357 0
M  V30 7396 H 695.439 5.09154 -3.37038 0
M  V30 7397 H 696.853 3.261 -4.71521 0
M  V30 7398 H 695.25 2.76081 -5.32822 0
M  V30 7399 H 696.32 1.5532 -4.59351 0
M  V30 7400 N 697.663 1.43903 0.642637 0
M  V30 7401 C 698.593 1.52697 1.76652 0
M  V30 7402 C 699.574 0.380816 1.65782 0
M  V30 7403 O 700.759 0.599432 1.84717 0
M  V30 7404 C 697.889 1.45975 3.15133 0
M  V30 7405 C 696.843 2.58949 3.40778 0
M  V30 7406 C 696.169 2.37279 4.79169 0
M  V30 7407 C 697.469 4.01153 3.34475 0
M  V30 7408 H 699.163 2.46766 1.69549 0
M  V30 7409 H 696.709 1.18767 0.814279 0
M  V30 7410 H 698.662 1.5073 3.93521 0
M  V30 7411 H 697.386 0.484162 3.22991 0
M  V30 7412 H 696.045 2.53564 2.64765 0
M  V30 7413 H 695.693 1.37939 4.83717 0
M  V30 7414 H 695.393 3.13016 4.97287 0
M  V30 7415 H 696.917 2.43834 5.59801 0
M  V30 7416 H 698.331 4.07968 4.02784 0
M  V30 7417 H 696.728 4.77001 3.64129 0
M  V30 7418 H 697.798 4.25539 2.32475 0
M  V30 7419 N 699.141 -0.881989 1.30609 0
M  V30 7420 C 700.071 -2.00413 1.1982 0
M  V30 7421 C 701.052 -1.69871 0.0881538 0
M  V30 7422 O 702.237 -1.92304 0.2707 0
M  V30 7423 C 699.367 -3.35641 0.89233 0
M  V30 7424 C 698.321 -3.80451 1.96064 0
M  V30 7425 C 697.647 -5.13003 1.5077 0
M  V30 7426 C 698.947 -3.98855 3.37213 0
M  V30 7427 H 700.641 -2.09698 2.13699 0
M  V30 7428 H 698.187 -1.00754 1.02882 0
M  V30 7429 H 700.14 -4.13669 0.803497 0
M  V30 7430 H 698.864 -3.26497 -0.0821381 0
M  V30 7431 H 697.523 -3.04654 2.03916 0
M  V30 7432 H 697.171 -5.0029 0.521417 0
M  V30 7433 H 696.871 -5.43956 2.22229 0
M  V30 7434 H 698.395 -5.93554 1.43271 0
M  V30 7435 H 699.809 -4.67312 3.32103 0
M  V30 7436 H 698.206 -4.41188 4.06784 0
M  V30 7437 H 699.276 -3.02614 3.78883 0
M  V30 7438 N 700.619 -1.13374 -1.09472 0
M  V30 7439 C 701.551 -0.768466 -2.15933 0
M  V30 7440 C 702.564 0.209585 -1.61445 0
M  V30 7441 O 703.753 -0.010539 -1.78497 0
M  V30 7442 C 700.853 -0.118266 -3.38694 0
M  V30 7443 C 700.026 -1.12829 -4.22597 0
M  V30 7444 C 699.085 -0.503875 -5.23782 0
M  V30 7445 O 698.111 -1.16374 -5.57177 0
M  V30 7446 N 699.313 0.724288 -5.75964 0
M  V30 7447 H 702.078 -1.68457 -2.47876 0
M  V30 7448 H 699.639 -1.02668 -1.25183 0
M  V30 7449 H 701.631 0.311698 -4.03498 0
M  V30 7450 H 700.201 0.700769 -3.04644 0
M  V30 7451 H 699.421 -1.73556 -3.53938 0
M  V30 7452 H 700.709 -1.81095 -4.75481 0
M  V30 7453 H 700.107 1.27918 -5.51048 0
M  V30 7454 H 698.664 1.09692 -6.42504 0
M  V30 7455 N 702.098 1.27442 -0.927168 0
M  V30 7456 C 703.031 2.25177 -0.370232 0
M  V30 7457 C 704.009 1.53612 0.533103 0
M  V30 7458 O 705.193 1.8245 0.47373 0
M  V30 7459 C 702.32 3.35431 0.469411 0
M  V30 7460 C 701.366 4.24888 -0.370419 0
M  V30 7461 S 702.199 5.04852 -1.78562 0
M  V30 7462 C 703.355 6.18592 -0.953651 0
M  V30 7463 H 703.588 2.72069 -1.19858 0
M  V30 7464 H 701.121 1.36089 -0.729316 0
M  V30 7465 H 703.079 3.99404 0.947992 0
M  V30 7466 H 701.74 2.87179 1.27228 0
M  V30 7467 H 700.933 5.03264 0.272226 0
M  V30 7468 H 700.535 3.65709 -0.783153 0
M  V30 7469 H 702.827 6.77235 -0.189408 0
M  V30 7470 H 703.77 6.87132 -1.7104 0
M  V30 7471 H 704.178 5.62318 -0.495897 0
M  V30 7472 N 703.576 0.692616 1.41565 0
M  V30 7473 C 704.853 0.150496 1.9502 0
M  V30 7474 C 705.233 -1.33881 1.63215 0
M  V30 7475 O 704.581 -2.08378 0.937598 0
M  V30 7476 C 704.791 0.438636 3.46233 0
M  V30 7477 C 706.139 0.364777 4.2303 0
M  V30 7478 O 707.163 0.373383 3.54238 0
M  V30 7479 O 706.022 0.32234 5.45549 0
M  V30 7480 H 703.116 0.0132454 0.826894 0
M  V30 7481 H 705.662 0.768574 1.51298 0
M  V30 7482 H 704.434 1.46962 3.62654 0
M  V30 7483 H 704.057 -0.210562 3.97042 0
M  V30 7484 N 705.054 -1.51416 0.437162 0
M  V30 7485 C 706.301 -2.02086 -0.129364 0
M  V30 7486 C 706.629 -1.32133 -1.42728 0
M  V30 7487 O 705.884 -0.424916 -1.91031 0
M  V30 7488 C 706.183 -3.55203 -0.39564 0
M  V30 7489 C 705.849 -4.43447 0.81644 0
M  V30 7490 C 704.511 -4.67285 1.14884 0
M  V30 7491 C 706.863 -4.95219 1.62503 0
M  V30 7492 C 704.191 -5.40141 2.29052 0
M  V30 7493 C 706.543 -5.69327 2.7577 0
M  V30 7494 C 705.207 -5.91429 3.09464 0
M  V30 7495 H 704.477 -0.739486 -0.0473375 0
M  V30 7496 H 707.124 -1.82368 0.584321 0
M  V30 7497 H 705.429 -3.73252 -1.19121 0
M  V30 7498 H 707.126 -3.91944 -0.847399 0
M  V30 7499 H 703.716 -4.2509 0.547422 0
M  V30 7500 H 707.9 -4.76686 1.38144 0
M  V30 7501 H 703.156 -5.55468 2.55471 0
M  V30 7502 H 707.33 -6.08433 3.38795 0
M  V30 7503 H 704.957 -6.47662 3.98042 0
M  V30 7504 N 706.532 -0.168513 -1.56696 0
M  V30 7505 C 707.78 0.476216 -1.96409 0
M  V30 7506 C 708.101 1.63968 -1.05544 0
M  V30 7507 O 707.371 1.95525 -0.121235 0
M  V30 7508 H 705.951 0.178921 -0.725256 0
M  V30 7509 H 708.613 -0.249042 -1.93302 0
M  V30 7510 H 707.709 0.838094 -3.00637 0
M  V30 7511 N 708.01 1.57248 0.105221 0
M  V30 7512 C 709.257 1.8557 0.810552 0
M  V30 7513 C 709.585 0.755595 1.79223 0
M  V30 7514 O 708.84 -0.251788 1.94073 0
M  V30 7515 C 709.139 3.20437 1.58287 0
M  V30 7516 C 708.805 4.44716 0.744235 0
M  V30 7517 C 707.467 4.78458 0.513013 0
M  V30 7518 C 709.819 5.20953 0.160578 0
M  V30 7519 C 707.147 5.8587 -0.311894 0
M  V30 7520 C 709.499 6.29235 -0.651596 0
M  V30 7521 C 708.163 6.615 -0.893005 0
M  V30 7522 H 707.433 0.67905 0.296602 0
M  V30 7523 H 710.08 1.91363 0.0723968 0
M  V30 7524 H 708.385 3.10283 2.39232 0
M  V30 7525 H 710.082 3.39576 2.13282 0
M  V30 7526 H 706.672 4.18287 0.934555 0
M  V30 7527 H 710.856 4.95226 0.3264 0
M  V30 7528 H 706.112 6.09286 -0.508012 0
M  V30 7529 H 710.286 6.87484 -1.11077 0
M  V30 7530 H 707.913 7.44562 -1.53401 0
M  V30 7531 N 709.488 -0.375779 1.53054 0
M  V30 7532 C 710.899 -0.95309 1.6054 0
M  V30 7533 C 711.25 -1.90575 0.466446 0
M  V30 7534 O 710.375 -2.12507 -0.408609 0
M  V30 7535 C 710.97 -1.73537 2.90982 0
M  V30 7536 C 709.529 -2.26218 3.00836 0
M  V30 7537 C 708.676 -1.07157 2.55759 0
M  V30 7538 H 711.627 -0.154895 1.57942 0
M  V30 7539 H 711.648 -2.59574 2.78211 0
M  V30 7540 H 711.16 -1.04176 3.73857 0
M  V30 7541 H 709.261 -2.98852 2.22527 0
M  V30 7542 H 709.374 -2.54799 4.05727 0
M  V30 7543 H 707.738 -1.43553 2.10391 0
M  V30 7544 H 708.521 -0.393099 3.41042 0
M  V30 7545 N 710.966 -1.44241 -0.634997 0
M  V30 7546 C 711.876 -1.53293 -1.77591 0
M  V30 7547 C 712.892 -0.418831 -1.68884 0
M  V30 7548 O 714.068 -0.675619 -1.8973 0
M  V30 7549 C 711.133 -1.47075 -3.13958 0
M  V30 7550 C 710.194 -2.69304 -3.34326 0
M  V30 7551 C 709.427 -2.63374 -4.64187 0
M  V30 7552 O 709.65 -1.69161 -5.44739 0
M  V30 7553 O 708.584 -3.54166 -4.86673 0
M  V30 7554 H 712.41 -2.49673 -1.72908 0
M  V30 7555 H 709.995 -1.26445 -0.795745 0
M  V30 7556 H 711.877 -1.46117 -3.95257 0
M  V30 7557 H 710.552 -0.538373 -3.19192 0
M  V30 7558 H 709.459 -2.75831 -2.52721 0
M  V30 7559 H 710.792 -3.61576 -3.33951 0
M  V30 7560 N 712.444 0.87505 -1.31075 0
M  V30 7561 C 713.394 1.96933 -1.14898 0
M  V30 7562 C 714.378 1.60783 -0.0613703 0
M  V30 7563 O 715.57 1.74678 -0.285751 0
M  V30 7564 C 712.699 3.3253 -0.853166 0
M  V30 7565 C 711.785 3.74963 -1.98151 0
M  V30 7566 N 712.176 3.89403 -3.22799 0
M  V30 7567 C 710.474 4.04436 -1.8801 0
M  V30 7568 C 711.175 4.25563 -3.96574 0
M  V30 7569 N 710.151 4.3597 -3.24701 0
M  V30 7570 H 713.953 2.06201 -2.09424 0
M  V30 7571 H 711.467 1.06551 -1.22558 0
M  V30 7572 H 713.464 4.10666 -0.718266 0
M  V30 7573 H 712.124 3.24592 0.0839218 0
M  V30 7574 H 713.135 3.74266 -3.57974 0
M  V30 7575 H 709.812 4.04915 -1.01733 0
M  V30 7576 H 711.202 4.44375 -5.03965 0
M  V30 7577 N 713.922 1.13953 1.08869 0
M  V30 7578 C 714.852 0.844824 2.17681 0
M  V30 7579 C 715.833 -0.198213 1.68941 0
M  V30 7580 O 717.018 -0.0559073 1.9412 0
M  V30 7581 C 714.148 0.316325 3.45856 0
M  V30 7582 C 713.102 1.29426 4.07962 0
M  V30 7583 C 712.428 0.625275 5.31031 0
M  V30 7584 C 713.728 2.65484 4.49795 0
M  V30 7585 H 715.422 1.75471 2.42591 0
M  V30 7586 H 712.968 0.845116 1.16592 0
M  V30 7587 H 714.921 0.0977876 4.21287 0
M  V30 7588 H 713.645 -0.628972 3.20486 0
M  V30 7589 H 712.304 1.49889 3.34558 0
M  V30 7590 H 711.952 -0.325678 5.01945 0
M  V30 7591 H 711.652 1.27777 5.73539 0
M  V30 7592 H 713.176 0.416152 6.0918 0
M  V30 7593 H 714.59 2.48957 5.16424 0
M  V30 7594 H 712.987 3.26963 5.03205 0
M  V30 7595 H 714.057 3.22717 3.61914 0
M  V30 7596 N 715.4 -1.26948 0.933913 0
M  V30 7597 C 716.33 -2.29017 0.45534 0
M  V30 7598 C 717.311 -1.62961 -0.487605 0
M  V30 7599 O 718.496 -1.90223 -0.391022 0
M  V30 7600 C 715.626 -3.46112 -0.287015 0
M  V30 7601 C 714.58 -4.24205 0.568682 0
M  V30 7602 C 713.906 -5.3384 -0.303206 0
M  V30 7603 C 715.206 -4.88954 1.83633 0
M  V30 7604 H 716.9 -2.69298 1.30839 0
M  V30 7605 H 714.446 -1.29459 0.630579 0
M  V30 7606 H 716.399 -4.16622 -0.6328 0
M  V30 7607 H 715.123 -3.04765 -1.17414 0
M  V30 7608 H 713.782 -3.5545 0.897261 0
M  V30 7609 H 713.43 -4.88734 -1.18947 0
M  V30 7610 H 713.13 -5.86998 0.265879 0
M  V30 7611 H 714.654 -6.0719 -0.644423 0
M  V30 7612 H 716.068 -5.51717 1.55823 0
M  V30 7613 H 714.465 -5.52198 2.34941 0
M  V30 7614 H 715.535 -4.12305 2.55211 0
M  V30 7615 N 716.879 -0.700114 -1.41195 0
M  V30 7616 C 718.125 -0.233351 -2.01453 0
M  V30 7617 C 718.458 1.16548 -1.55339 0
M  V30 7618 O 717.733 1.78756 -0.766575 0
M  V30 7619 C 718.016 -0.2961 -3.58881 0
M  V30 7620 C 717.869 -1.7322 -4.15108 0
M  V30 7621 C 719.188 0.341525 -4.38773 0
M  V30 7622 H 716.307 -0.0862667 -0.731934 0
M  V30 7623 H 718.949 -0.889693 -1.67882 0
M  V30 7624 H 717.099 0.262736 -3.87611 0
M  V30 7625 H 718.771 -2.34523 -3.97236 0
M  V30 7626 H 717.014 -2.2649 -3.69979 0
M  V30 7627 H 717.685 -1.7276 -5.24269 0
M  V30 7628 H 720.161 -0.134461 -4.15883 0
M  V30 7629 H 719.037 0.267098 -5.4825 0
M  V30 7630 H 719.298 1.42289 -4.18577 0
M  V30 7631 N 718.357 1.51182 -0.445186 0
M  V30 7632 C 719.634 1.9478 0.178965 0
M  V30 7633 C 720.014 1.38428 1.59376 0
M  V30 7634 O 719.362 0.574552 2.21159 0
M  V30 7635 C 719.572 3.48683 0.148711 0
M  V30 7636 C 720.92 4.23152 0.35042 0
M  V30 7637 O 721.944 3.55479 0.226474 0
M  V30 7638 O 720.803 5.4322 0.597893 0
M  V30 7639 H 717.897 0.817387 0.12573 0
M  V30 7640 H 720.443 1.62051 -0.503729 0
M  V30 7641 H 719.215 3.82176 -0.84009 0
M  V30 7642 H 718.838 3.87875 0.873979 0
M  V30 7643 N 719.835 0.176821 1.56605 0
M  V30 7644 C 721.082 -0.466715 1.97048 0
M  V30 7645 C 721.41 -1.6288 1.06302 0
M  V30 7646 O 720.665 -1.95453 0.0982571 0
M  V30 7647 C 720.964 -0.986208 3.43524 0
M  V30 7648 C 720.63 0.0605667 4.50859 0
M  V30 7649 C 719.292 0.348242 4.79938 0
M  V30 7650 C 721.644 0.770794 5.15469 0
M  V30 7651 C 718.972 1.35144 5.70923 0
M  V30 7652 C 721.324 1.76301 6.07537 0
M  V30 7653 C 719.988 2.05808 6.3498 0
M  V30 7654 H 719.258 -0.170783 0.721051 0
M  V30 7655 H 721.905 0.269942 1.89588 0
M  V30 7656 H 720.21 -1.80079 3.47964 0
M  V30 7657 H 721.907 -1.49323 3.72161 0
M  V30 7658 H 718.497 -0.173823 4.28247 0
M  V30 7659 H 722.681 0.56176 4.9311 0
M  V30 7660 H 717.937 1.58616 5.90467 0
M  V30 7661 H 722.111 2.31868 6.56666 0
M  V30 7662 H 719.738 2.8369 7.05283 0
M  V30 7663 N 721.313 -1.57302 -0.09688 0
M  V30 7664 C 722.243 -2.0497 -1.11846 0
M  V30 7665 C 723.224 -0.938278 -1.41882 0
M  V30 7666 O 724.409 -1.20943 -1.51942 0
M  V30 7667 C 721.539 -2.47264 -2.43881 0
M  V30 7668 C 720.493 -3.62053 -2.28257 0
M  V30 7669 C 719.819 -3.90318 -3.65453 0
M  V30 7670 C 721.119 -4.93005 -1.72461 0
M  V30 7671 H 722.813 -2.90567 -0.721888 0
M  V30 7672 H 720.359 -1.39786 -0.345803 0
M  V30 7673 H 722.312 -2.7922 -3.15617 0
M  V30 7674 H 721.036 -1.58664 -2.8547 0
M  V30 7675 H 719.695 -3.30341 -1.58967 0
M  V30 7676 H 719.343 -2.98889 -4.04567 0
M  V30 7677 H 719.043 -4.67597 -3.55846 0
M  V30 7678 H 720.567 -4.24747 -4.3866 0
M  V30 7679 H 721.981 -5.23354 -2.34036 0
M  V30 7680 H 720.378 -5.74436 -1.73618 0
M  V30 7681 H 721.448 -4.80053 -0.683898 0
M  V30 7682 N 722.791 0.367657 -1.53252 0
M  V30 7683 C 723.723 1.47032 -1.75824 0
M  V30 7684 C 724.736 1.49736 -0.63898 0
M  V30 7685 O 725.925 1.53253 -0.915193 0
M  V30 7686 C 723.025 2.85805 -1.82122 0
M  V30 7687 C 722.198 3.06822 -3.11736 0
M  V30 7688 C 721.257 4.25698 -3.09302 0
M  V30 7689 O 720.283 4.20972 -3.83107 0
M  V30 7690 N 721.485 5.33002 -2.29977 0
M  V30 7691 H 724.25 1.28048 -2.70968 0
M  V30 7692 H 721.811 0.557363 -1.52004 0
M  V30 7693 H 723.803 3.63465 -1.77975 0
M  V30 7694 H 722.373 2.98046 -0.942716 0
M  V30 7695 H 721.593 2.1684 -3.29202 0
M  V30 7696 H 722.881 3.17731 -3.97397 0
M  V30 7697 H 722.279 5.39703 -1.69521 0
M  V30 7698 H 720.836 6.09247 -2.3165 0
M  V30 7699 N 724.269 1.44576 0.627338 0
M  V30 7700 C 725.494 1.51271 1.41887 0
M  V30 7701 C 725.919 0.139814 1.8758 0
M  V30 7702 O 725.277 -0.871746 1.58966 0
M  V30 7703 C 725.325 2.48529 2.61277 0
M  V30 7704 O 724.429 1.98944 3.61241 0
M  V30 7705 H 723.77 0.510668 0.424399 0
M  V30 7706 H 726.3 1.89746 0.765356 0
M  V30 7707 H 726.31 2.66689 3.08773 0
M  V30 7708 H 724.985 3.48249 2.27366 0
M  V30 7709 H 723.562 1.90568 3.20528 0
M  V30 7710 N 725.747 -0.868086 1.31537 0
M  V30 7711 C 726.677 -1.99131 1.21939 0
M  V30 7712 C 727.658 -1.69768 0.106166 0
M  V30 7713 O 728.843 -1.92006 0.291081 0
M  V30 7714 C 725.973 -3.34676 0.927879 0
M  V30 7715 C 724.927 -3.7835 2.00088 0
M  V30 7716 C 724.253 -5.11375 1.56203 0
M  V30 7717 C 725.553 -3.95256 3.41424 0
M  V30 7718 H 727.247 -2.07419 2.15911 0
M  V30 7719 H 724.793 -0.996569 1.03945 0
M  V30 7720 H 726.746 -4.12793 0.847327 0
M  V30 7721 H 725.47 -3.26565 -0.0475042 0
M  V30 7722 H 724.129 -3.02474 2.07135 0
M  V30 7723 H 723.777 -4.99709 0.57445 0
M  V30 7724 H 723.477 -5.41568 2.27985 0
M  V30 7725 H 725.001 -5.92001 1.49558 0
M  V30 7726 H 726.415 -4.63764 3.3704 0
M  V30 7727 H 724.812 -4.36849 4.1144 0
M  V30 7728 H 725.882 -2.98579 3.82072 0
M  V30 7729 N 727.225 -1.14528 -1.08264 0
M  V30 7730 C 728.45 -0.938381 -1.84957 0
M  V30 7731 C 728.875 0.508044 -1.81109 0
M  V30 7732 O 728.233 1.36146 -1.19724 0
M  V30 7733 C 728.281 -1.44568 -3.30352 0
M  V30 7734 O 727.385 -0.638745 -4.07423 0
M  V30 7735 H 726.726 -0.335394 -0.573068 0
M  V30 7736 H 729.256 -1.52287 -1.36637 0
M  V30 7737 H 729.266 -1.45449 -3.81194 0
M  V30 7738 H 727.941 -2.49876 -3.32468 0
M  V30 7739 H 726.518 -0.698801 -3.66294 0
M  V30 7740 O 728.742 1.2085 -1.07133 0
M  V30 7741 H 729.433 1.78311 -0.756635 0
M  V30 END ATOM
M  V30 BEGIN BOND
M  V30 END BOND
M  V30 END CTAB
M  END
$$$$
