drugbank_drug|DB14042 galcanezumab|Heavy
 OpenBabel12092119123D

  0  0  0     0  0            999 V3000
M  V30 BEGIN CTAB
M  V30 COUNTS 6777 6868 0 0 0
M  V30 BEGIN ATOM
M  V30 1 H -0.908 1.98254 -0.117106 0
M  V30 2 N 0 1.576 0 0
M  V30 3 C 0.932 2.05273 1.01958 0
M  V30 4 C 1.945 0.970662 1.30698 0
M  V30 5 O 3.134 1.24746 1.27674 0
M  V30 6 C 0.234 2.43771 2.35433 0
M  V30 7 C -0.593 3.74711 2.25633 0
M  V30 8 C -1.534 4.00077 3.41796 0
M  V30 9 O -2.508 4.70743 3.19984 0
M  V30 10 N -1.306 3.47973 4.64645 0
M  V30 11 H 1.459 2.93363 0.613025 0
M  V30 12 H -0.98 1.60812 0.187383 0
M  V30 13 H 1.012 2.57855 3.11918 0
M  V30 14 H -0.418 1.612 2.67831 0
M  V30 15 H -1.198 3.70705 1.34059 0
M  V30 16 H 0.09 4.60554 2.16258 0
M  V30 17 H -0.512 2.90748 4.85265 0
M  V30 18 H -1.955 3.67386 5.38396 0
M  V30 19 N 1.4781 -0.272755 1.55222 0
M  V30 20 C 2.7241 -1.00581 1.761 0
M  V30 21 C 3.0571 -1.85932 0.560625 0
M  V30 22 O 2.3321 -1.89416 -0.441801 0
M  V30 23 C 2.6151 -1.88816 3.06628 0
M  V30 24 C 2.4681 -1.06457 4.37021 0
M  V30 25 C 3.7871 -2.8752 3.33197 0
M  V30 26 H 0.9061 -0.364244 0.640699 0
M  V30 27 H 3.5481 -0.278189 1.87952 0
M  V30 28 H 1.6981 -2.50856 2.96654 0
M  V30 29 H 3.3701 -0.464863 4.58952 0
M  V30 30 H 1.6131 -0.368043 4.32236 0
M  V30 31 H 2.2841 -1.71514 5.24678 0
M  V30 32 H 4.7601 -2.35615 3.42965 0
M  V30 33 H 3.6361 -3.46399 4.25792 0
M  V30 34 H 3.8971 -3.62657 2.52849 0
M  V30 35 N 2.9562 -1.48159 -0.537278 0
M  V30 36 C 3.8882 -1.58218 -1.65831 0
M  V30 37 C 4.9012 -0.466948 -1.5596 0
M  V30 38 O 6.0902 -0.73747 -1.62553 0
M  V30 39 C 3.1902 -1.48906 -3.04434 0
M  V30 40 C 2.3632 -2.75343 -3.3986 0
M  V30 41 C 1.4222 -2.59588 -4.57712 0
M  V30 42 O 0.4482 -3.33457 -4.61297 0
M  V30 43 N 1.6502 -1.68724 -5.55439 0
M  V30 44 H 4.4152 -2.54891 -1.57641 0
M  V30 45 H 1.9762 -1.4479 -0.724386 0
M  V30 46 H 3.9682 -1.36072 -3.81139 0
M  V30 47 H 2.5382 -0.602368 -3.06741 0
M  V30 48 H 1.7582 -3.02795 -2.52406 0
M  V30 49 H 3.0462 -3.5924 -3.60311 0
M  V30 50 H 2.4442 -1.07898 -5.55315 0
M  V30 51 H 1.0012 -1.61832 -6.3139 0
M  V30 52 N 4.4343 0.785586 -1.36625 0
M  V30 53 C 5.3643 1.91259 -1.33949 0
M  V30 54 C 6.3453 1.68795 -0.210325 0
M  V30 55 O 7.5303 1.89854 -0.408561 0
M  V30 56 C 4.6603 3.28339 -1.13186 0
M  V30 57 C 3.6143 3.65335 -2.22967 0
M  V30 58 C 2.9403 5.00806 -1.87342 0
M  V30 59 C 4.2403 3.7352 -3.65075 0
M  V30 60 H 5.9343 1.93755 -2.28253 0
M  V30 61 H 3.4803 0.930788 -1.09874 0
M  V30 62 H 5.4333 4.06804 -1.09948 0
M  V30 63 H 4.1573 3.2624 -0.153332 0
M  V30 64 H 2.8163 2.89169 -2.25337 0
M  V30 65 H 2.4643 4.95233 -0.880545 0
M  V30 66 H 2.1643 5.26529 -2.60846 0
M  V30 67 H 3.6883 5.81687 -1.85667 0
M  V30 68 H 5.1023 4.42168 -3.64911 0
M  V30 69 H 3.4993 4.10731 -4.37516 0
M  V30 70 H 4.5693 2.74527 -3.99703 0
M  V30 71 N 5.9124 1.20967 1.01018 0
M  V30 72 C 7.1584 1.02526 1.74975 0
M  V30 73 C 7.4914 -0.4408 1.89131 0
M  V30 74 O 6.7664 -1.32718 1.42184 0
M  V30 75 C 7.0494 1.71699 3.1653 0
M  V30 76 C 6.9024 3.25791 3.10129 0
M  V30 77 C 8.2214 1.45531 4.15342 0
M  V30 78 H 5.3404 0.373863 0.635134 0
M  V30 79 H 7.9824 1.49071 1.17805 0
M  V30 80 H 6.1324 1.32128 3.65341 0
M  V30 81 H 7.8044 3.74697 2.69072 0
M  V30 82 H 6.0474 3.56363 2.47362 0
M  V30 83 H 6.7184 3.69353 4.10222 0
M  V30 84 H 9.1944 1.79872 3.75213 0
M  V30 85 H 8.0704 1.96453 5.1254 0
M  V30 86 H 8.3314 0.384237 4.40427 0
M  V30 87 N 7.3905 -1.2043 1.01659 0
M  V30 88 C 8.3225 -2.22626 0.544988 0
M  V30 89 C 9.3355 -1.58479 -0.372609 0
M  V30 90 O 10.5245 -1.77679 -0.170958 0
M  V30 91 C 7.6245 -3.38141 -0.22663 0
M  V30 92 C 6.7975 -4.31877 0.692876 0
M  V30 93 C 5.8565 -5.26191 -0.0311616 0
M  V30 94 O 4.8825 -5.6612 0.591343 0
M  V30 95 N 6.0845 -5.65618 -1.30601 0
M  V30 96 H 8.8495 -2.63716 1.42388 0
M  V30 97 H 6.4105 -1.34971 0.894116 0
M  V30 98 H 8.4025 -3.98239 -0.72024 0
M  V30 99 H 6.9725 -2.95943 -1.00681 0
M  V30 100 H 6.1925 -3.69746 1.36679 0
M  V30 101 H 7.4805 -4.91426 1.31824 0
M  V30 102 H 6.8785 -5.3519 -1.83269 0
M  V30 103 H 5.4355 -6.28025 -1.74435 0
M  V30 104 N 8.8686 -0.792821 -1.36206 0
M  V30 105 C 10.0936 -0.377701 -2.03932 0
M  V30 106 C 10.5186 0.998947 -1.59382 0
M  V30 107 O 9.8766 1.64421 -0.763903 0
M  V30 108 C 9.9246 -0.453635 -3.57735 0
M  V30 109 O 9.0286 0.538151 -4.08874 0
M  V30 110 H 8.3696 -0.159855 -0.644471 0
M  V30 111 H 10.8996 -1.07488 -1.7409 0
M  V30 112 H 10.9096 -0.318464 -4.06755 0
M  V30 113 H 9.5846 -1.45784 -3.89512 0
M  V30 114 H 8.1616 0.364359 -3.71116 0
M  V30 115 N 10.3467 1.47872 -0.545128 0
M  V30 116 C 11.5947 2.02093 -0.016553 0
M  V30 117 C 11.9157 1.42305 1.3332 0
M  V30 118 O 11.1857 0.593853 1.86682 0
M  V30 119 H 9.7657 0.746993 -0.00313038 0
M  V30 120 H 12.4277 1.81414 -0.712397 0
M  V30 121 H 11.5237 3.11996 0.0805422 0
M  V30 122 N 11.8248 0.280983 1.55075 0
M  V30 123 C 12.7878 -0.590896 2.21452 0
M  V30 124 C 13.7878 -1.07682 1.19421 0
M  V30 125 O 14.9778 -0.97605 1.44288 0
M  V30 126 C 12.1098 -1.81587 2.88511 0
M  V30 127 H 13.3028 -0.0112554 2.99898 0
M  V30 128 H 10.8558 0.0316438 1.56268 0
M  V30 129 H 11.5908 -2.43587 2.14093 0
M  V30 130 H 11.3758 -1.4753 3.63287 0
M  V30 131 H 12.8658 -2.43575 3.39206 0
M  V30 132 N 13.3029 -1.57598 0.00835791 0
M  V30 133 C 14.2129 -2.12385 -0.996487 0
M  V30 134 C 15.2289 -1.07108 -1.37127 0
M  V30 135 O 16.4049 -1.39055 -1.4569 0
M  V30 136 C 13.4699 -2.62314 -2.26699 0
M  V30 137 C 12.5309 -3.82225 -1.95456 0
M  V30 138 C 11.7639 -4.29763 -3.16449 0
M  V30 139 O 11.9869 -3.76584 -4.28416 0
M  V30 140 O 10.9209 -5.21832 -2.99958 0
M  V30 141 H 14.7469 -2.98479 -0.560725 0
M  V30 142 H 12.3319 -1.47903 -0.210987 0
M  V30 143 H 14.2139 -2.94589 -3.01322 0
M  V30 144 H 12.8889 -1.79313 -2.69497 0
M  V30 145 H 11.7959 -3.54909 -1.18282 0
M  V30 146 H 13.1289 -4.66324 -1.57489 0
M  V30 147 N 14.781 0.264519 -1.55364 0
M  V30 148 C 16.027 0.99646 -1.76631 0
M  V30 149 C 16.36 1.85632 -0.570478 0
M  V30 150 O 15.635 1.89647 0.43175 0
M  V30 151 C 15.918 1.87187 -3.07625 0
M  V30 152 C 15.771 1.04138 -4.37579 0
M  V30 153 C 17.09 2.85749 -3.34717 0
M  V30 154 H 14.209 0.360841 -0.642622 0
M  V30 155 H 16.851 0.268218 -1.88097 0
M  V30 156 H 15.001 2.49279 -2.9798 0
M  V30 157 H 16.673 0.440517 -4.59192 0
M  V30 158 H 14.916 0.345115 -4.32425 0
M  V30 159 H 15.587 1.68729 -5.2558 0
M  V30 160 H 18.063 2.33793 -3.4421 0
M  V30 161 H 16.939 3.44136 -4.27623 0
M  V30 162 H 17.2 3.61311 -2.54768 0
M  V30 163 N 16.2591 1.48442 0.529413 0
M  V30 164 C 17.2061 1.63007 1.63394 0
M  V30 165 C 18.1761 0.47212 1.59249 0
M  V30 166 O 19.3611 0.695673 1.77666 0
M  V30 167 C 16.5011 1.6763 3.01653 0
M  V30 168 C 15.6141 2.94535 3.16027 0
M  V30 169 C 14.7491 2.90316 4.44849 0
M  V30 170 C 13.7881 4.11923 4.52754 0
M  V30 171 N 12.9251 4.05777 5.72965 0
M  V30 172 H 17.7651 2.5733 1.50285 0
M  V30 173 H 15.3021 1.27613 0.731656 0
M  V30 174 H 17.2601 1.68292 3.81751 0
M  V30 175 H 15.8901 0.76797 3.13532 0
M  V30 176 H 14.9421 3.03615 2.29177 0
M  V30 177 H 16.2541 3.84512 3.17729 0
M  V30 178 H 15.4081 2.89382 5.33238 0
M  V30 179 H 14.1471 1.98068 4.45668 0
M  V30 180 H 13.1521 4.13131 3.62771 0
M  V30 181 H 14.3771 5.0533 4.53672 0
M  V30 182 H 12.3231 3.16351 5.74681 0
M  V30 183 H 12.2401 4.8946 5.76164 0
M  V30 184 H 13.5081 4.08904 6.6364 0
M  V30 185 N 17.7372 -0.778329 1.37039 0
M  V30 186 C 18.6842 -1.89139 1.32269 0
M  V30 187 C 19.6542 -1.65017 0.189387 0
M  V30 188 O 20.8392 -1.87024 0.377693 0
M  V30 189 C 17.9792 -3.26112 1.12894 0
M  V30 190 C 17.0922 -3.62233 2.35396 0
M  V30 191 C 16.2272 -4.8838 2.08946 0
M  V30 192 C 15.2662 -5.17212 3.2735 0
M  V30 193 N 14.4032 -6.34546 3.00492 0
M  V30 194 H 19.2432 -1.92552 2.27437 0
M  V30 195 H 16.7802 -0.941473 1.13025 0
M  V30 196 H 18.7382 -4.05116 0.996835 0
M  V30 197 H 17.3682 -3.22091 0.213758 0
M  V30 198 H 16.4202 -2.78265 2.5937 0
M  V30 199 H 17.7322 -3.79481 3.23721 0
M  V30 200 H 16.8862 -5.75274 1.92729 0
M  V30 201 H 15.6252 -4.73222 1.17949 0
M  V30 202 H 14.6302 -4.28796 3.44113 0
M  V30 203 H 15.8552 -5.34283 4.19188 0
M  V30 204 H 13.8012 -6.20759 2.12118 0
M  V30 205 H 13.7182 -6.52179 3.82358 0
M  V30 206 H 14.9862 -7.24394 2.87879 0
M  V30 207 N 19.2153 -1.21501 -1.00376 0
M  V30 208 C 20.6263 -1.03146 -1.55621 0
M  V30 209 C 20.9773 0.408375 -1.91903 0
M  V30 210 O 20.1023 1.29177 -1.73616 0
M  V30 211 C 20.6973 -1.86612 -2.82775 0
M  V30 212 C 19.2563 -1.72586 -3.34501 0
M  V30 213 C 18.4033 -1.83747 -2.07683 0
M  V30 214 H 21.3543 -1.35505 -0.826081 0
M  V30 215 H 21.3753 -1.3771 -3.54706 0
M  V30 216 H 20.8873 -2.91399 -2.56336 0
M  V30 217 H 18.9883 -0.704877 -3.65872 0
M  V30 218 H 19.1013 -2.54623 -4.05837 0
M  V30 219 H 17.4653 -1.27069 -2.20739 0
M  V30 220 H 18.2483 -2.90044 -1.83655 0
M  V30 221 N 20.6934 1.19889 -1.02296 0
M  V30 222 C 21.9414 1.89046 -0.714558 0
M  V30 223 C 22.2624 1.79636 0.758681 0
M  V30 224 O 21.5324 1.20292 1.54618 0
M  V30 225 H 20.1124 0.699802 -0.261317 0
M  V30 226 H 22.7744 1.45574 -1.29592 0
M  V30 227 H 21.8704 2.95524 -1.0036 0
M  V30 228 N 22.1715 0.800033 1.35784 0
M  V30 229 C 23.3965 0.388511 2.03729 0
M  V30 230 C 23.8215 -0.990481 1.5991 0
M  V30 231 O 23.1795 -1.64013 0.772612 0
M  V30 232 C 23.2275 0.4726 3.5749 0
M  V30 233 O 22.3315 -0.51646 4.09153 0
M  V30 234 H 21.6725 0.163271 0.643614 0
M  V30 235 H 24.2025 1.0841 1.73518 0
M  V30 236 H 24.2125 0.34003 4.06581 0
M  V30 237 H 22.8875 1.47848 3.88734 0
M  V30 238 H 21.4645 -0.344673 3.71304 0
M  V30 239 N 23.6496 -1.47581 0.552962 0
M  V30 240 C 24.8746 -2.07378 0.0300593 0
M  V30 241 C 25.2996 -1.40355 -1.25229 0
M  V30 242 O 24.6576 -0.477099 -1.7491 0
M  V30 243 C 24.7056 -3.60274 -0.153231 0
M  V30 244 O 23.8096 -3.94041 -1.21678 0
M  V30 245 H 23.1506 -0.662158 0.0494182 0
M  V30 246 H 25.6806 -1.89662 0.767434 0
M  V30 247 H 25.6906 -4.0633 -0.368761 0
M  V30 248 H 24.3656 -4.08455 0.783397 0
M  V30 249 H 22.9426 -3.59735 -0.982079 0
M  V30 250 N 25.1277 -0.289203 -1.54924 0
M  V30 251 C 26.3737 0.323998 -2.00195 0
M  V30 252 C 26.7067 1.54441 -1.17735 0
M  V30 253 O 25.9817 1.92875 -0.250878 0
M  V30 254 C 26.2647 0.692276 -3.53383 0
M  V30 255 C 26.1177 -0.536457 -4.46589 0
M  V30 256 C 27.4367 1.52335 -4.12895 0
M  V30 257 H 24.5557 0.116289 -0.727768 0
M  V30 258 H 27.1977 -0.398954 -1.85764 0
M  V30 259 H 25.3477 1.30822 -3.65811 0
M  V30 260 H 27.0197 -1.17499 -4.46085 0
M  V30 261 H 25.2627 -1.17192 -4.1767 0
M  V30 262 H 25.9337 -0.234806 -5.515 0
M  V30 263 H 28.4097 1.00302 -4.0383 0
M  V30 264 H 27.2857 1.74982 -5.20262 0
M  V30 265 H 27.5467 2.50886 -3.64018 0
M  V30 266 N 26.6058 1.57591 -0.0167156 0
M  V30 267 C 27.5528 2.09462 0.969251 0
M  V30 268 C 28.5228 0.99381 1.33089 0
M  V30 269 O 29.7078 1.26726 1.42636 0
M  V30 270 C 26.8478 2.61622 2.25051 0
M  V30 271 C 25.9608 3.85666 1.94642 0
M  V30 272 C 25.0958 4.26266 3.16972 0
M  V30 273 C 24.1348 5.43101 2.82326 0
M  V30 274 N 23.2718 5.78915 3.97243 0
M  V30 275 H 28.1118 2.93428 0.519997 0
M  V30 276 H 25.6488 1.45044 0.245087 0
M  V30 277 H 27.6068 2.89949 2.99976 0
M  V30 278 H 26.2368 1.80505 2.67615 0
M  V30 279 H 25.2888 3.64145 1.10013 0
M  V30 280 H 26.6008 4.70678 1.65117 0
M  V30 281 H 25.7548 4.55963 4.00228 0
M  V30 282 H 24.4938 3.39996 3.49648 0
M  V30 283 H 23.4988 5.1311 1.97479 0
M  V30 284 H 24.7238 6.3106 2.50879 0
M  V30 285 H 22.6698 4.95602 4.29785 0
M  V30 286 H 22.5868 6.58539 3.71299 0
M  V30 287 H 23.8548 6.13212 4.81239 0
M  V30 288 N 28.0839 -0.256276 1.55502 0
M  V30 289 C 29.3299 -0.987079 1.77157 0
M  V30 290 C 29.6629 -1.85327 0.580315 0
M  V30 291 O 28.9379 -1.89874 -0.421686 0
M  V30 292 C 29.2209 -1.85553 3.08613 0
M  V30 293 C 29.0739 -1.01816 4.38125 0
M  V30 294 C 30.3929 -2.8397 3.36228 0
M  V30 295 H 27.5119 -0.357428 0.644526 0
M  V30 296 H 30.1539 -0.258239 1.88237 0
M  V30 297 H 28.3039 -2.47695 2.99298 0
M  V30 298 H 29.9759 -0.416159 4.59419 0
M  V30 299 H 28.2189 -0.322178 4.32602 0
M  V30 300 H 28.8899 -1.65939 5.26468 0
M  V30 301 H 31.3659 -2.31964 3.45445 0
M  V30 302 H 30.2419 -3.41864 4.29442 0
M  V30 303 H 30.5029 -3.59955 2.56681 0
M  V30 304 N 29.562 -1.4872 -0.521534 0
M  V30 305 C 30.787 -1.61101 -1.30618 0
M  V30 306 C 31.212 -0.274611 -1.86085 0
M  V30 307 O 30.57 0.754937 -1.64834 0
M  V30 308 C 30.618 -2.66709 -2.4269 0
M  V30 309 O 29.722 -2.24456 -3.45967 0
M  V30 310 H 29.063 -0.539921 -0.386499 0
M  V30 311 H 31.593 -1.94767 -0.626645 0
M  V30 312 H 31.603 -2.88245 -2.88754 0
M  V30 313 H 30.278 -3.63727 -2.01682 0
M  V30 314 H 28.855 -2.13168 -3.05964 0
M  V30 315 N 31.0401 0.771051 -1.3745 0
M  V30 316 C 32.2801 1.54264 -1.34096 0
M  V30 317 C 32.6441 1.91858 0.0737639 0
M  V30 318 O 33.8451 2.67797 0.23203 0
M  V30 319 C 32.1161 2.77326 -2.25445 0
M  V30 320 S 33.6751 3.67383 -2.39948 0
M  V30 321 H 30.4931 0.528122 -0.476034 0
M  V30 322 H 33.0951 0.906633 -1.73206 0
M  V30 323 H 31.7991 2.47788 -3.27153 0
M  V30 324 H 31.3301 3.45886 -1.87421 0
M  V30 325 H 33.3451 4.69334 -1.61059 0
M  V30 326 N 32.5182 1.22032 0.997298 0
M  V30 327 C 33.4652 0.986467 2.08656 0
M  V30 328 C 34.4352 -0.0902671 1.65855 0
M  V30 329 O 35.6202 0.0584294 1.90711 0
M  V30 330 C 32.7602 0.565569 3.40434 0
M  V30 331 C 31.8732 1.71259 3.96604 0
M  V30 332 C 31.0082 1.24011 5.16522 0
M  V30 333 C 30.0472 2.35896 5.64818 0
M  V30 334 N 29.1842 1.89726 6.7598 0
M  V30 335 H 34.0242 1.91892 2.27994 0
M  V30 336 H 31.5612 0.956199 1.11782 0
M  V30 337 H 33.5192 0.302738 4.161 0
M  V30 338 H 32.1492 -0.329879 3.2111 0
M  V30 339 H 31.2012 2.08986 3.17851 0
M  V30 340 H 32.5132 2.55436 4.28432 0
M  V30 341 H 31.6672 0.934395 5.99461 0
M  V30 342 H 30.4062 0.368487 4.86306 0
M  V30 343 H 29.4112 2.67261 4.8047 0
M  V30 344 H 30.6362 3.23567 5.97061 0
M  V30 345 H 28.5822 1.0492 6.47555 0
M  V30 346 H 28.4992 2.67471 7.07103 0
M  V30 347 H 29.7672 1.62211 7.62435 0
M  V30 348 N 33.9963 -1.19345 1.0293 0
M  V30 349 C 34.9593 -2.20793 0.615069 0
M  V30 350 C 35.9593 -1.57553 -0.321533 0
M  V30 351 O 37.1493 -1.73862 -0.108483 0
M  V30 352 C 34.2813 -3.40754 -0.0999222 0
M  V30 353 H 35.4743 -2.58955 1.51269 0
M  V30 354 H 33.0273 -1.3303 0.820534 0
M  V30 355 H 33.7623 -3.0811 -1.01187 0
M  V30 356 H 33.5473 -3.87889 0.57309 0
M  V30 357 H 35.0373 -4.15898 -0.376645 0
M  V30 358 N 35.4744 -0.807222 -1.35358 0
M  V30 359 C 36.6994 -0.399309 -2.0352 0
M  V30 360 C 37.1244 0.981986 -1.60433 0
M  V30 361 O 36.4824 1.63601 -0.781299 0
M  V30 362 C 36.5304 -0.491552 -3.57234 0
M  V30 363 O 35.6344 0.494754 -4.09421 0
M  V30 364 H 34.9754 -0.166682 -0.642739 0
M  V30 365 H 37.5054 -1.09328 -1.72941 0
M  V30 366 H 37.5154 -0.361588 -4.06395 0
M  V30 367 H 36.1904 -1.49907 -3.87944 0
M  V30 368 H 34.7674 0.324977 -3.71481 0
M  V30 369 N 36.9525 1.47285 -0.560781 0
M  V30 370 C 38.2005 2.02064 -0.0379868 0
M  V30 371 C 38.5215 1.43711 1.31803 0
M  V30 372 O 37.7915 0.61362 1.86042 0
M  V30 373 H 36.3715 0.746918 -0.0110531 0
M  V30 374 H 39.0335 1.80648 -0.731598 0
M  V30 375 H 38.1295 3.12064 0.0474463 0
M  V30 376 N 38.4306 0.297415 1.54768 0
M  V30 377 C 39.6606 -0.315165 2.04182 0
M  V30 378 C 40.0686 -1.4834 1.17439 0
M  V30 379 O 39.4116 -1.82695 0.191891 0
M  V30 380 C 39.4736 -0.837583 3.49607 0
M  V30 381 C 39.1376 0.204912 4.5654 0
M  V30 382 C 40.1346 1.03214 5.09552 0
M  V30 383 C 37.8196 0.345578 5.0111 0
M  V30 384 C 39.8136 1.986 6.05671 0
M  V30 385 C 37.5006 1.30289 5.97049 0
M  V30 386 C 38.4986 2.12159 6.49213 0
M  V30 387 O 38.1866 3.06268 7.43273 0
M  V30 388 H 37.9186 -0.0729646 0.672051 0
M  V30 389 H 40.4726 0.433907 2.00765 0
M  V30 390 H 38.7026 -1.63712 3.50336 0
M  V30 391 H 40.3916 -1.36566 3.82236 0
M  V30 392 H 41.1576 0.934312 4.75916 0
M  V30 393 H 37.0366 -0.28171 4.60138 0
M  V30 394 H 40.5806 2.62542 6.46311 0
M  V30 395 H 36.4776 1.40145 6.30103 0
M  V30 396 H 37.2456 3.01205 7.61064 0
M  V30 397 N 39.9087 -1.5758 0.0250728 0
M  V30 398 C 41.1367 -1.9593 -0.664747 0
M  V30 399 C 41.5517 -0.901352 -1.65895 0
M  V30 400 O 40.9087 0.117255 -1.82123 0
M  V30 401 C 40.9597 -3.34342 -1.37468 0
M  V30 402 O 40.6807 -4.36079 -0.420324 0
M  V30 403 C 42.1817 -3.873 -2.1567 0
M  V30 404 H 39.4017 -0.645405 -0.183557 0
M  V30 405 H 41.9457 -2.04329 0.0836372 0
M  V30 406 H 40.1007 -3.27175 -2.0745 0
M  V30 407 H 40.5147 -5.16297 -0.923991 0
M  V30 408 H 41.9887 -4.86504 -2.60803 0
M  V30 409 H 42.4657 -3.21331 -2.99405 0
M  V30 410 H 43.0717 -3.97723 -1.50654 0
M  V30 411 N 41.3868 0.248026 -1.55636 0
M  V30 412 C 42.6338 0.976224 -1.77415 0
M  V30 413 C 42.9618 1.85361 -0.589193 0
M  V30 414 O 42.2168 1.90973 0.427529 0
M  V30 415 C 42.5158 1.86819 -3.04686 0
M  V30 416 C 42.1818 1.14625 -4.36087 0
M  V30 417 C 40.8438 0.946723 -4.71795 0
M  V30 418 C 43.1958 0.634463 -5.17324 0
M  V30 419 C 40.5238 0.223091 -5.86276 0
M  V30 420 C 42.8758 -0.0756959 -6.32555 0
M  V30 421 C 41.5398 -0.286711 -6.66884 0
M  V30 422 H 40.8098 0.357226 -0.649208 0
M  V30 423 H 43.4568 0.246415 -1.89908 0
M  V30 424 H 41.7618 2.66502 -2.872 0
M  V30 425 H 43.4588 2.43329 -3.18735 0
M  V30 426 H 40.0488 1.3117 -4.08035 0
M  V30 427 H 44.2328 0.77616 -4.90193 0
M  V30 428 H 39.4888 0.0491185 -6.1138 0
M  V30 429 H 43.6628 -0.479899 -6.94745 0
M  V30 430 H 41.2898 -0.849389 -7.5544 0
M  V30 431 N 42.8649 1.48995 0.513639 0
M  V30 432 C 44.1129 1.57531 1.26604 0
M  V30 433 C 44.4339 0.258236 1.93283 0
M  V30 434 O 43.7039 -0.721502 1.8213 0
M  V30 435 H 42.2839 0.580387 0.470276 0
M  V30 436 H 44.9459 1.85552 0.596373 0
M  V30 437 H 44.0419 2.36486 2.03669 0
M  V30 438 N 44.343 -0.763751 1.37857 0
M  V30 439 C 45.291 -1.89864 1.34367 0
M  V30 440 C 46.285 -1.67816 0.231143 0
M  V30 441 O 47.491 -1.75508 0.399617 0
M  V30 442 H 43.866 -0.624501 0.41893 0
M  V30 443 H 45.837 -1.89925 2.30155 0
M  V30 444 C 44.586 -3.27227 1.1755 0
M  V30 445 H 43.909 -3.44773 2.02414 0
M  V30 446 H 45.349 -4.06911 1.1916 0
M  V30 447 C 43.808 -3.36692 -0.118311 0
M  V30 448 O 44.338 -3.86374 -1.09902 0
M  V30 449 N 42.544 -2.90092 -0.171717 0
M  V30 450 H 42.091 -2.49853 0.627012 0
M  V30 451 H 42.049 -2.96806 -1.03699 0
M  V30 452 N 45.8211 -1.22559 -0.990812 0
M  V30 453 C 47.0511 -1.07623 -1.76355 0
M  V30 454 C 47.4591 0.37601 -1.85426 0
M  V30 455 O 46.8021 1.27228 -1.32509 0
M  V30 456 C 46.8641 -1.61507 -3.21179 0
M  V30 457 C 46.5281 -3.10146 -3.35646 0
M  V30 458 C 47.5251 -4.07553 -3.22796 0
M  V30 459 C 45.2101 -3.49644 -3.60631 0
M  V30 460 C 47.2041 -5.42442 -3.34716 0
M  V30 461 C 44.8911 -4.84682 -3.72192 0
M  V30 462 C 45.8891 -5.8089 -3.59243 0
M  V30 463 O 45.5771 -7.13476 -3.70415 0
M  V30 464 H 45.3091 -0.377745 -0.560611 0
M  V30 465 H 47.8631 -1.62658 -1.25425 0
M  V30 466 H 46.0931 -1.00881 -3.73309 0
M  V30 467 H 47.7821 -1.42202 -3.80175 0
M  V30 468 H 48.5481 -3.78381 -3.03403 0
M  V30 469 H 44.4271 -2.75282 -3.69785 0
M  V30 470 H 47.9711 -6.17518 -3.24526 0
M  V30 471 H 43.8681 -5.13534 -3.91092 0
M  V30 472 H 44.6361 -7.21083 -3.87275 0
M  V30 473 N 47.2992 1.18797 -1.03562 0
M  V30 474 C 48.5452 1.89192 -0.746867 0
M  V30 475 C 48.9002 1.78531 0.717245 0
M  V30 476 O 48.1932 1.17137 1.51622 0
M  V30 477 C 48.3872 3.38692 -1.14117 0
M  V30 478 C 48.2162 3.63902 -2.64207 0
M  V30 479 C 46.9862 3.81553 -3.31279 0
M  V30 480 C 49.1842 3.64903 -3.62423 0
M  V30 481 N 47.1662 3.94455 -4.70402 0
M  V30 482 C 48.5372 3.83458 -4.87196 0
M  V30 483 C 50.5922 3.47965 -3.56125 0
M  V30 484 C 49.2952 3.86829 -6.06429 0
M  V30 485 C 51.3212 3.52616 -4.7478 0
M  V30 486 C 50.6832 3.71663 -5.9837 0
M  V30 487 H 46.7822 0.711141 -0.325273 0
M  V30 488 H 49.3662 1.42727 -1.32428 0
M  V30 489 H 47.5372 3.83864 -0.591889 0
M  V30 490 H 49.2692 3.96634 -0.803966 0
M  V30 491 H 46.0242 3.80723 -2.81686 0
M  V30 492 H 46.4482 4.0474 -5.42692 0
M  V30 493 H 51.0902 3.32189 -2.61553 0
M  V30 494 H 48.8082 4.01395 -7.01362 0
M  V30 495 H 52.3942 3.40791 -4.71543 0
M  V30 496 H 51.2742 3.75145 -6.88648 0
M  V30 497 N 48.7773 0.814389 1.34928 0
M  V30 498 C 49.7103 0.175641 2.27523 0
M  V30 499 C 50.6883 -0.662953 1.48471 0
M  V30 500 O 51.8723 -0.628545 1.77712 0
M  V30 501 C 48.9993 -0.755516 3.30166 0
M  V30 502 C 48.0453 0.00445305 4.265 0
M  V30 503 S 48.8783 1.34582 5.18313 0
M  V30 504 C 50.0343 0.419315 6.24494 0
M  V30 505 H 50.2673 0.960691 2.8135 0
M  V30 506 H 47.8003 0.609846 1.41846 0
M  V30 507 H 49.7583 -1.28723 3.89796 0
M  V30 508 H 48.4193 -1.51402 2.75202 0
M  V30 509 H 47.6123 -0.703077 4.99072 0
M  V30 510 H 47.2143 0.466447 3.7108 0
M  V30 511 H 49.5063 -0.392432 6.76362 0
M  V30 512 H 50.4493 1.11446 6.99275 0
M  V30 513 H 50.8573 0.0115389 5.64499 0
M  V30 514 N 50.2554 -1.46986 0.568584 0
M  V30 515 C 51.1874 -2.28233 -0.210337 0
M  V30 516 C 52.2004 -1.37682 -0.868767 0
M  V30 517 O 53.3894 -1.62406 -0.740705 0
M  V30 518 C 50.4894 -3.12293 -1.3163 0
M  V30 519 C 49.6624 -4.30878 -0.7525 0
M  V30 520 C 48.7214 -4.96445 -1.74439 0
M  V30 521 O 47.7474 -5.54482 -1.286 0
M  V30 522 N 48.9494 -4.92171 -3.07812 0
M  V30 523 H 51.7144 -2.95723 0.486648 0
M  V30 524 H 49.2754 -1.56742 0.405409 0
M  V30 525 H 51.2674 -3.53022 -1.97883 0
M  V30 526 H 49.8374 -2.46971 -1.91636 0
M  V30 527 H 49.0574 -3.94104 0.0871128 0
M  V30 528 H 50.3454 -5.07558 -0.35536 0
M  V30 529 H 49.7434 -4.46239 -3.47688 0
M  V30 530 H 48.3004 -5.36884 -3.69592 0
M  V30 531 N 51.7335 -0.305618 -1.54608 0
M  V30 532 C 52.9795 0.295595 -2.01241 0
M  V30 533 C 53.3345 1.51171 -1.19018 0
M  V30 534 O 52.6275 1.89832 -0.259684 0
M  V30 535 C 52.8215 0.698983 -3.50498 0
M  V30 536 C 52.6505 -0.476491 -4.47168 0
M  V30 537 C 51.4205 -0.969963 -4.95903 0
M  V30 538 C 53.6185 -1.32294 -4.96994 0
M  V30 539 N 51.6005 -2.11172 -5.76437 0
M  V30 540 C 52.9715 -2.31212 -5.75275 0
M  V30 541 C 55.0265 -1.35278 -4.7917 0
M  V30 542 C 53.7295 -3.32896 -6.37631 0
M  V30 543 C 55.7555 -2.35823 -5.42348 0
M  V30 544 C 55.1175 -3.33469 -6.20466 0
M  V30 545 H 51.2165 0.0724992 -0.778632 0
M  V30 546 H 53.8005 -0.436583 -1.89742 0
M  V30 547 H 51.9715 1.40032 -3.62278 0
M  V30 548 H 53.7035 1.28013 -3.8392 0
M  V30 549 H 50.4585 -0.544178 -4.70463 0
M  V30 550 H 50.8825 -2.68714 -6.21387 0
M  V30 551 H 55.5245 -0.61157 -4.18354 0
M  V30 552 H 53.2425 -4.07933 -6.97579 0
M  V30 553 H 56.8285 -2.38911 -5.30484 0
M  V30 554 H 55.7085 -4.09996 -6.68485 0
M  V30 555 N 53.2116 1.57565 -0.0334293 0
M  V30 556 C 54.4576 1.92262 0.645226 0
M  V30 557 C 54.7906 0.910543 1.71531 0
M  V30 558 O 54.0656 -0.066099 1.94388 0
M  V30 559 C 54.3486 3.37422 1.2577 0
M  V30 560 C 54.2016 4.49369 0.196891 0
M  V30 561 C 55.5206 3.82628 2.17449 0
M  V30 562 H 52.6396 0.699171 0.233085 0
M  V30 563 H 55.2816 1.89779 -0.0915694 0
M  V30 564 H 53.4316 3.39669 1.88566 0
M  V30 565 H 55.1036 4.59254 -0.433962 0
M  V30 566 H 53.3466 4.31168 -0.477137 0
M  V30 567 H 54.0176 5.47978 0.665124 0
M  V30 568 H 56.4936 3.82145 1.64634 0
M  V30 569 H 55.3696 4.84883 2.57254 0
M  V30 570 H 55.6306 3.18376 3.0674 0
M  V30 571 N 54.6897 -0.239769 1.55765 0
M  V30 572 C 56.1057 -0.588624 1.48349 0
M  V30 573 C 56.3057 -1.88005 0.72502 0
M  V30 574 O 55.3617 -2.51186 0.257269 0
M  V30 575 C 56.6747 -0.68474 2.928 0
M  V30 576 C 58.2227 -0.77659 3.03213 0
M  V30 577 C 58.6977 -0.904207 4.48986 0
M  V30 578 N 60.1887 -0.968896 4.52953 0
M  V30 579 C 60.9237 -1.08703 5.63002 0
M  V30 580 N 60.4197 -1.17026 6.82845 0
M  V30 581 N 62.2127 -1.12074 5.50814 0
M  V30 582 H 54.3637 0.607911 2.03515 0
M  V30 583 H 56.6267 0.21083 0.924259 0
M  V30 584 H 56.3327 0.194284 3.51163 0
M  V30 585 H 56.2067 -1.55435 3.43686 0
M  V30 586 H 58.5937 -1.64606 2.44926 0
M  V30 587 H 58.6747 0.118315 2.55526 0
M  V30 588 H 58.3187 -0.0392633 5.07885 0
M  V30 589 H 58.2487 -1.81426 4.9436 0
M  V30 590 H 60.7397 -0.915633 3.6664 0
M  V30 591 H 61.0527 -1.25966 7.62465 0
M  V30 592 H 59.3977 -1.13971 6.85591 0
M  V30 593 H 62.5887 -1.05226 4.5612 0
M  V30 594 H 62.7617 -1.20936 6.36615 0
M  V30 595 N 56.1678 -1.49265 -0.50573 0
M  V30 596 C 57.0998 -1.617 -1.62437 0
M  V30 597 C 58.1128 -0.499924 -1.54934 0
M  V30 598 O 59.3018 -0.771785 -1.60953 0
M  V30 599 C 56.4018 -1.5533 -3.01207 0
M  V30 600 C 55.5748 -2.8249 -3.33943 0
M  V30 601 C 54.6338 -2.69238 -4.52103 0
M  V30 602 O 53.6598 -3.43167 -4.5412 0
M  V30 603 N 54.8618 -1.80468 -5.51735 0
M  V30 604 H 57.6268 -2.58177 -1.52199 0
M  V30 605 H 55.1878 -1.46294 -0.693511 0
M  V30 606 H 57.1798 -1.44125 -3.78167 0
M  V30 607 H 55.7498 -0.667297 -3.05395 0
M  V30 608 H 54.9698 -3.08081 -2.45926 0
M  V30 609 H 56.2578 -3.66802 -3.5261 0
M  V30 610 H 55.6558 -1.19653 -5.52901 0
M  V30 611 H 54.2128 -1.75188 -6.27816 0
M  V30 612 N 57.6459 0.756429 -1.3826 0
M  V30 613 C 58.6089 1.85176 -1.35065 0
M  V30 614 C 59.6089 1.58818 -0.251703 0
M  V30 615 O 60.7989 1.66615 -0.508433 0
M  V30 616 C 57.9309 3.22596 -1.10201 0
M  V30 617 H 59.1239 1.89417 -2.3251 0
M  V30 618 H 56.6769 0.95783 -1.23512 0
M  V30 619 H 57.4119 3.24025 -0.133504 0
M  V30 620 H 57.1969 3.43122 -1.89762 0
M  V30 621 H 58.6869 4.02673 -1.10654 0
M  V30 622 N 59.124 1.23083 0.984299 0
M  V30 623 C 60.535 1.05609 1.5396 0
M  V30 624 C 60.886 -0.377793 1.92528 0
M  V30 625 O 60.011 -1.26398 1.75649 0
M  V30 626 C 60.606 1.91087 2.7977 0
M  V30 627 C 59.165 1.77885 3.31713 0
M  V30 628 C 58.312 1.87028 2.04733 0
M  V30 629 H 61.263 1.36802 0.804419 0
M  V30 630 H 61.284 1.43336 3.5247 0
M  V30 631 H 60.796 2.9544 2.51668 0
M  V30 632 H 58.897 0.762995 3.64704 0
M  V30 633 H 59.01 2.61047 4.01735 0
M  V30 634 H 57.374 1.30565 2.18689 0
M  V30 635 H 58.157 2.92929 1.79017 0
M  V30 636 N 60.6021 -1.18246 1.0419 0
M  V30 637 C 61.8501 -1.87886 0.744543 0
M  V30 638 C 62.1711 -1.8082 -0.730006 0
M  V30 639 O 61.4411 -1.22736 -1.52685 0
M  V30 640 H 60.0211 -0.695556 0.272417 0
M  V30 641 H 62.6831 -1.43494 1.31892 0
M  V30 642 H 61.7791 -2.9389 1.05049 0
M  V30 643 N 62.0802 -0.821533 -1.34494 0
M  V30 644 C 63.0122 -0.199946 -2.28326 0
M  V30 645 C 64.0252 0.609377 -1.50965 0
M  V30 646 O 65.2142 0.439285 -1.7301 0
M  V30 647 C 62.3142 0.738431 -3.30757 0
M  V30 648 C 61.4872 -0.0277632 -4.37391 0
M  V30 649 C 60.5462 0.831332 -5.19591 0
M  V30 650 O 59.5722 0.276822 -5.68526 0
M  V30 651 N 60.7742 2.15132 -5.39165 0
M  V30 652 H 63.5392 -1.00609 -2.82308 0
M  V30 653 H 61.1002 -0.678366 -1.47003 0
M  V30 654 H 63.0922 1.31773 -3.82646 0
M  V30 655 H 61.6622 1.44533 -2.7718 0
M  V30 656 H 60.8822 -0.788359 -3.86236 0
M  V30 657 H 62.1702 -0.555251 -5.05761 0
M  V30 658 H 61.5682 2.62559 -5.01078 0
M  V30 659 H 60.1252 2.6795 -5.94177 0
M  V30 660 N 63.5583 1.46682 -0.576371 0
M  V30 661 C 64.8063 2.02013 -0.0594163 0
M  V30 662 C 65.1273 1.45101 1.30271 0
M  V30 663 O 64.3973 0.633317 1.8538 0
M  V30 664 H 62.9773 0.746759 -0.0189745 0
M  V30 665 H 65.6393 1.79862 -0.750717 0
M  V30 666 H 64.7353 3.12097 0.014345 0
M  V30 667 N 65.0364 0.313813 1.54444 0
M  V30 668 C 65.9664 -0.549454 2.26943 0
M  V30 669 C 66.9474 -1.12741 1.27372 0
M  V30 670 O 68.1324 -1.15436 1.56167 0
M  V30 671 C 65.2624 -1.71523 3.01989 0
M  V30 672 C 64.2164 -1.26703 4.08816 0
M  V30 673 C 63.5424 -2.51898 4.71647 0
M  V30 674 C 64.8424 -0.388962 5.2085 0
M  V30 675 H 66.5364 0.0552661 2.99349 0
M  V30 676 H 64.0824 0.0280207 1.43973 0
M  V30 677 H 66.0354 -2.32535 3.51433 0
M  V30 678 H 64.7594 -2.34639 2.27183 0
M  V30 679 H 63.4184 -0.679896 3.6024 0
M  V30 680 H 63.0664 -3.13356 3.93468 0
M  V30 681 H 62.7664 -2.22605 5.43802 0
M  V30 682 H 64.2904 -3.1369 5.23861 0
M  V30 683 H 65.7044 -0.905107 5.6611 0
M  V30 684 H 64.1014 -0.18924 5.99802 0
M  V30 685 H 65.1714 0.582699 4.81386 0
M  V30 686 N 66.5145 -1.57545 0.0417849 0
M  V30 687 C 67.4245 -2.14451 -0.951213 0
M  V30 688 C 68.4405 -1.09992 -1.34825 0
M  V30 689 O 69.6165 -1.42114 -1.42708 0
M  V30 690 C 66.6815 -2.67063 -2.21084 0
M  V30 691 C 65.7425 -3.86284 -1.87304 0
M  V30 692 C 64.9755 -4.36378 -3.07261 0
M  V30 693 O 65.1985 -3.85587 -4.20332 0
M  V30 694 O 64.1325 -5.28077 -2.88822 0
M  V30 695 H 67.9585 -2.99601 -0.497287 0
M  V30 696 H 65.5435 -1.48317 -0.179567 0
M  V30 697 H 67.4255 -3.00914 -2.95006 0
M  V30 698 H 66.1005 -1.84989 -2.65633 0
M  V30 699 H 65.0075 -3.57338 -1.10727 0
M  V30 700 H 66.3405 -4.6956 -1.47562 0
M  V30 701 N 67.9926 0.231505 -1.5589 0
M  V30 702 C 69.2386 0.954429 -1.79617 0
M  V30 703 C 69.5936 1.82367 -0.613199 0
M  V30 704 O 68.8866 1.87524 0.393094 0
M  V30 705 C 69.0806 1.83577 -3.0665 0
M  V30 706 C 68.9096 1.05334 -4.3719 0
M  V30 707 C 67.6796 0.75225 -4.99669 0
M  V30 708 C 69.8776 0.423444 -5.12554 0
M  V30 709 N 67.8596 -0.052627 -6.13877 0
M  V30 710 C 69.2306 -0.245287 -6.19515 0
M  V30 711 C 71.2856 0.335466 -4.96769 0
M  V30 712 C 69.9886 -0.993566 -7.12405 0
M  V30 713 C 72.0146 -0.399321 -5.9005 0
M  V30 714 C 71.3766 -1.05663 -6.9643 0
M  V30 715 H 67.4756 0.329846 -0.709031 0
M  V30 716 H 70.0596 0.226172 -1.93382 0
M  V30 717 H 68.2306 2.53592 -2.94186 0
M  V30 718 H 69.9626 2.49541 -3.18608 0
M  V30 719 H 66.7176 1.06783 -4.61405 0
M  V30 720 H 67.1416 -0.443609 -6.75545 0
M  V30 721 H 71.7836 0.829311 -4.14587 0
M  V30 722 H 69.5016 -1.49896 -7.94076 0
M  V30 723 H 73.0876 -0.468265 -5.79913 0
M  V30 724 H 71.9676 -1.61612 -7.67366 0
M  V30 725 N 69.4707 1.49531 0.497807 0
M  V30 726 C 70.4037 1.61043 1.6168 0
M  V30 727 C 71.3817 0.459386 1.55976 0
M  V30 728 O 72.5657 0.675358 1.75986 0
M  V30 729 C 69.6927 1.56833 3.00202 0
M  V30 730 C 68.7387 2.77173 3.24156 0
M  V30 731 S 69.5717 4.38808 3.06933 0
M  V30 732 C 70.7277 4.37248 4.47845 0
M  V30 733 H 70.9607 2.55702 1.51671 0
M  V30 734 H 68.4937 1.38462 0.683201 0
M  V30 735 H 70.4517 1.55089 3.80076 0
M  V30 736 H 69.1127 0.634561 3.07623 0
M  V30 737 H 68.3057 2.70456 4.25288 0
M  V30 738 H 67.9077 2.76346 2.5201 0
M  V30 739 H 70.1997 4.09164 5.39992 0
M  V30 740 H 71.1427 5.38668 4.59612 0
M  V30 741 H 71.5507 3.67286 4.28674 0
M  V30 742 N 70.9488 -0.749086 1.3866 0
M  V30 743 C 72.1968 -1.50535 1.34847 0
M  V30 744 C 72.5178 -1.94909 -0.0595016 0
M  V30 745 O 71.7878 -1.67973 -1.00806 0
M  V30 746 H 70.3678 -0.558395 0.49619 0
M  V30 747 H 73.0298 -0.890165 1.73384 0
M  V30 748 H 72.1258 -2.39413 2.00219 0
M  V30 749 N 72.4269 -1.23603 -0.977757 0
M  V30 750 C 73.3899 -1.02069 -2.05218 0
M  V30 751 C 74.3899 0.0184305 -1.60789 0
M  V30 752 O 75.5799 -0.221569 -1.72785 0
M  V30 753 C 72.7119 -0.544926 -3.36517 0
M  V30 754 H 73.9049 -1.9742 -2.25755 0
M  V30 755 H 71.4579 -1.05684 -1.15155 0
M  V30 756 H 72.1929 0.412241 -3.21669 0
M  V30 757 H 71.9779 -1.2948 -3.70105 0
M  V30 758 H 73.4679 -0.414985 -4.15533 0
M  V30 759 N 73.905 1.17692 -1.04816 0
M  V30 760 C 75.154 1.87192 -0.751132 0
M  V30 761 C 75.467 1.8169 0.724441 0
M  V30 762 O 76.673 2.46625 1.13527 0
M  V30 763 C 75.129 3.35857 -1.29338 0
M  V30 764 C 74.737 3.4987 -2.79812 0
M  V30 765 C 76.481 4.10709 -1.07322 0
M  V30 766 C 74.388 4.92536 -3.27356 0
M  V30 767 H 73.318 0.701162 -0.277288 0
M  V30 768 H 75.969 1.32932 -1.26496 0
M  V30 769 H 74.351 3.89631 -0.707376 0
M  V30 770 H 75.525 3.06332 -3.44235 0
M  V30 771 H 73.84 2.88433 -3.00325 0
M  V30 772 H 76.437 5.15952 -1.4035 0
M  V30 773 H 76.78 4.16299 -0.0108001 0
M  V30 774 H 77.313 3.6313 -1.62423 0
M  V30 775 H 74.052 4.92119 -4.33012 0
M  V30 776 H 73.572 5.3676 -2.67673 0
M  V30 777 H 75.251 5.61288 -3.21815 0
M  V30 778 N 75.3831 0.828654 1.34056 0
M  V30 779 C 76.6131 0.431993 2.02033 0
M  V30 780 C 77.0211 -0.96844 1.62536 0
M  V30 781 O 76.3641 -1.6391 0.829408 0
M  V30 782 C 76.4261 0.461224 3.56529 0
M  V30 783 C 76.0901 1.81599 4.1937 0
M  V30 784 C 77.0871 2.7777 4.39477 0
M  V30 785 C 74.7721 2.10604 4.56017 0
M  V30 786 C 76.7661 4.01115 4.95364 0
M  V30 787 C 74.4531 3.34207 5.11614 0
M  V30 788 C 75.4511 4.2928 5.31232 0
M  V30 789 O 75.1391 5.50699 5.8565 0
M  V30 790 H 74.8711 0.170943 0.654029 0
M  V30 791 H 77.4251 1.11988 1.72185 0
M  V30 792 H 75.6551 -0.283388 3.8566 0
M  V30 793 H 77.3441 0.0838149 4.05813 0
M  V30 794 H 78.1101 2.56659 4.11523 0
M  V30 795 H 73.9891 1.37402 4.40047 0
M  V30 796 H 77.5331 4.75333 5.10592 0
M  V30 797 H 73.4301 3.55179 5.38997 0
M  V30 798 H 74.1981 5.52298 6.04077 0
M  V30 799 N 76.8612 -1.46375 0.584142 0
M  V30 800 C 77.7712 -2.34115 -0.150728 0
M  V30 801 C 78.7872 -1.49838 -0.884567 0
M  V30 802 O 79.9632 -1.82704 -0.847429 0
M  V30 803 C 77.0282 -3.2705 -1.15062 0
M  V30 804 C 76.0892 -4.27228 -0.421293 0
M  V30 805 C 75.3222 -5.15722 -1.37355 0
M  V30 806 O 75.5452 -5.07176 -2.61014 0
M  V30 807 O 74.4792 -5.95383 -0.883355 0
M  V30 808 H 78.3052 -2.98309 0.569708 0
M  V30 809 H 75.8902 -1.45373 0.344535 0
M  V30 810 H 77.7722 -3.84381 -1.72712 0
M  V30 811 H 76.4472 -2.65451 -1.8525 0
M  V30 812 H 75.3542 -3.7358 0.197085 0
M  V30 813 H 76.6872 -4.91616 0.239641 0
M  V30 814 N 78.3393 -0.321999 -1.54275 0
M  V30 815 C 79.5873 0.280489 -2.00144 0
M  V30 816 C 79.9083 1.52777 -1.21178 0
M  V30 817 O 79.1783 1.9338 -0.313187 0
M  V30 818 H 77.7583 0.106632 -0.73935 0
M  V30 819 H 80.4203 -0.438184 -1.8991 0
M  V30 820 H 79.5163 0.537972 -3.07428 0
M  V30 821 N 79.8174 1.5752 -0.0501392 0
M  V30 822 C 81.0454 1.96963 0.633492 0
M  V30 823 C 81.4604 0.927631 1.6444 0
M  V30 824 O 80.8174 -0.0882665 1.82286 0
M  V30 825 C 80.8684 3.36487 1.32132 0
M  V30 826 O 80.5894 4.36693 0.350894 0
M  V30 827 C 82.0904 3.90682 2.09481 0
M  V30 828 H 79.3104 0.648244 0.173266 0
M  V30 829 H 81.8544 2.0417 -0.116134 0
M  V30 830 H 80.0094 3.30434 2.02218 0
M  V30 831 H 80.4234 5.17702 0.841735 0
M  V30 832 H 81.8974 4.90591 2.5303 0
M  V30 833 H 82.3744 3.26053 2.94255 0
M  V30 834 H 82.9804 4.00069 1.44307 0
M  V30 835 N 81.2955 -0.223234 1.56011 0
M  V30 836 C 82.5435 -0.946003 1.78592 0
M  V30 837 C 82.8645 -1.84936 0.618349 0
M  V30 838 O 82.1345 -1.92473 -0.364833 0
M  V30 839 H 80.7145 -0.352298 0.658707 0
M  V30 840 H 83.3765 -0.235494 1.93472 0
M  V30 841 H 82.4725 -1.55381 2.70672 0
M  V30 842 N 82.7736 -1.49793 -0.48987 0
M  V30 843 C 83.7206 -1.67281 -1.59014 0
M  V30 844 C 84.6906 -0.514177 -1.57941 0
M  V30 845 O 85.8756 -0.742533 -1.75759 0
M  V30 846 C 83.0156 -1.75569 -2.97102 0
M  V30 847 C 82.1286 -3.0281 -3.08107 0
M  V30 848 C 81.2636 -3.02008 -4.36995 0
M  V30 849 C 80.3026 -4.23782 -4.41673 0
M  V30 850 N 79.4396 -4.20826 -5.62005 0
M  V30 851 H 84.2796 -2.61224 -1.43409 0
M  V30 852 H 81.8166 -1.29508 -0.697565 0
M  V30 853 H 83.7746 -1.78354 -3.77155 0
M  V30 854 H 82.4046 -0.850827 -3.11385 0
M  V30 855 H 81.4566 -3.09584 -2.21047 0
M  V30 856 H 82.7686 -3.92801 -3.07423 0
M  V30 857 H 81.9226 -3.03418 -5.25378 0
M  V30 858 H 80.6616 -2.09815 -4.4026 0
M  V30 859 H 79.6666 -4.22604 -3.5169 0
M  V30 860 H 80.8916 -5.17181 -4.40115 0
M  V30 861 H 78.8376 -3.31476 -5.66091 0
M  V30 862 H 78.7546 -5.04564 -5.62984 0
M  V30 863 H 80.0226 -4.26355 -6.52565 0
M  V30 864 N 84.2517 0.741722 -1.39055 0
M  V30 865 C 85.4797 1.53098 -1.39171 0
M  V30 866 C 85.8947 1.88794 0.0155099 0
M  V30 867 O 85.2517 1.53626 0.985159 0
M  V30 868 C 85.3027 2.82274 -2.2584 0
M  V30 869 O 85.0237 2.48097 -3.61081 0
M  V30 870 C 86.5247 3.76343 -2.34266 0
M  V30 871 H 83.7447 0.473335 -0.4756 0
M  V30 872 H 86.2887 0.917045 -1.82785 0
M  V30 873 H 84.4437 3.40015 -1.85656 0
M  V30 874 H 84.8577 3.31029 -4.06842 0
M  V30 875 H 86.3317 4.63898 -2.9917 0
M  V30 876 H 86.8087 4.17619 -1.35982 0
M  V30 877 H 87.4147 3.24523 -2.74891 0
M  V30 878 N 85.7298 1.2412 0.971189 0
M  V30 879 C 86.9758 1.08041 1.71625 0
M  V30 880 C 87.3088 -0.380407 1.90438 0
M  V30 881 O 86.5838 -1.28127 1.46334 0
M  V30 882 C 86.8668 1.81682 3.10908 0
M  V30 883 C 86.7198 3.35493 2.99608 0
M  V30 884 C 88.0388 1.58671 4.10501 0
M  V30 885 H 85.1578 0.39388 0.622919 0
M  V30 886 H 87.7998 1.52743 1.13003 0
M  V30 887 H 85.9498 1.43684 3.60953 0
M  V30 888 H 87.6218 3.83068 2.57015 0
M  V30 889 H 85.8648 3.64052 2.35899 0
M  V30 890 H 86.5358 3.82217 3.98264 0
M  V30 891 H 89.0118 1.91719 3.69301 0
M  V30 892 H 87.8878 2.1266 5.06031 0
M  V30 893 H 88.1488 0.524161 4.38982 0
M  V30 894 N 87.2079 -1.17134 1.05439 0
M  V30 895 C 88.4379 -1.91094 0.785274 0
M  V30 896 C 88.8459 -1.77198 -0.663142 0
M  V30 897 O 88.1889 -1.10835 -1.46497 0
M  V30 898 C 88.2509 -3.42594 1.08949 0
M  V30 899 C 87.9149 -3.80274 2.53458 0
M  V30 900 C 88.9119 -3.82912 3.51673 0
M  V30 901 C 86.5969 -4.11162 2.88532 0
M  V30 902 C 88.5909 -4.15913 4.83006 0
M  V30 903 C 86.2779 -4.43831 4.20068 0
M  V30 904 C 87.2759 -4.46185 5.17115 0
M  V30 905 O 86.9639 -4.78083 6.46291 0
M  V30 906 H 86.6959 -0.613073 0.284811 0
M  V30 907 H 89.2499 -1.49461 1.40893 0
M  V30 908 H 87.4799 -3.84534 0.408741 0
M  V30 909 H 89.1689 -3.97817 0.805991 0
M  V30 910 H 89.9349 -3.5917 3.25917 0
M  V30 911 H 85.8139 -4.085 2.13656 0
M  V30 912 H 89.3579 -4.17665 5.5875 0
M  V30 913 H 85.2549 -4.67037 4.45586 0
M  V30 914 H 86.0229 -4.9593 6.51149 0
M  V30 915 N 88.686 -0.835752 -1.33615 0
M  V30 916 C 89.935 -0.426289 -1.97144 0
M  V30 917 C 90.248 1.01912 -1.66953 0
M  V30 918 O 91.454 1.53311 -2.24072 0
M  V30 919 C 89.91 -0.711321 -3.52801 0
M  V30 920 C 89.518 -2.1712 -3.91871 0
M  V30 921 C 91.262 -0.368654 -4.22896 0
M  V30 922 C 89.169 -2.40044 -5.40493 0
M  V30 923 H 88.099 -0.15567 -0.737755 0
M  V30 924 H 90.75 -1.0239 -1.52278 0
M  V30 925 H 89.132 -0.0433766 -3.95976 0
M  V30 926 H 90.306 -2.87936 -3.59763 0
M  V30 927 H 88.621 -2.47654 -3.34749 0
M  V30 928 H 91.218 -0.517601 -5.32189 0
M  V30 929 H 91.561 0.688078 -4.10574 0
M  V30 930 H 92.094 -0.991702 -3.8524 0
M  V30 931 H 88.833 -3.44271 -5.57815 0
M  V30 932 H 88.353 -1.73785 -5.74072 0
M  V30 933 H 90.032 -2.23042 -6.0734 0
M  V30 934 N 90.1641 1.46063 -0.591896 0
M  V30 935 C 91.0961 2.28539 0.174001 0
M  V30 936 C 92.1091 1.39047 0.846753 0
M  V30 937 O 93.2981 1.63564 0.714774 0
M  V30 938 C 90.3981 3.14347 1.26645 0
M  V30 939 C 89.5711 4.32021 0.683856 0
M  V30 940 C 88.6301 4.99157 1.66518 0
M  V30 941 O 87.6561 5.56458 1.19763 0
M  V30 942 N 88.8581 4.97005 2.99943 0
M  V30 943 H 91.6231 2.94911 -0.533633 0
M  V30 944 H 89.1841 1.56077 -0.430294 0
M  V30 945 H 91.1761 3.56125 1.92242 0
M  V30 946 H 89.7461 2.49988 1.87682 0
M  V30 947 H 88.9661 3.93915 -0.1498 0
M  V30 948 H 90.2541 5.08059 0.274567 0
M  V30 949 H 89.6521 4.51714 3.40545 0
M  V30 950 H 88.2091 5.42696 3.61004 0
M  V30 951 N 91.6422 0.330177 1.54103 0
M  V30 952 C 92.5892 -0.532762 2.24567 0
M  V30 953 C 93.5592 -1.10635 1.23892 0
M  V30 954 O 94.7442 -1.14546 1.5259 0
M  V30 955 C 91.8842 -1.6845 3.01195 0
M  V30 956 C 90.9972 -1.13951 4.167 0
M  V30 957 C 90.1322 -2.25746 4.80845 0
M  V30 958 C 89.1712 -1.6853 5.88442 0
M  V30 959 N 88.3082 -2.74014 6.46421 0
M  V30 960 H 93.1482 0.0746905 2.97906 0
M  V30 961 H 90.6852 0.048632 1.4702 0
M  V30 962 H 92.6432 -2.36234 3.43874 0
M  V30 963 H 91.2732 -2.26314 2.30178 0
M  V30 964 H 90.3252 -0.35301 3.78758 0
M  V30 965 H 91.6372 -0.680892 4.94131 0
M  V30 966 H 90.7912 -3.01422 5.26526 0
M  V30 967 H 89.5302 -2.74947 4.0281 0
M  V30 968 H 88.5352 -0.913543 5.42157 0
M  V30 969 H 89.7602 -1.20198 6.68378 0
M  V30 970 H 87.7062 -3.22494 5.71256 0
M  V30 971 H 87.6232 -2.32735 7.19285 0
M  V30 972 H 88.8912 -3.49499 6.96757 0
M  V30 973 N 93.1203 -1.57491 0.0584922 0
M  V30 974 C 94.3673 -1.92978 -0.613648 0
M  V30 975 C 94.6953 -0.937461 -1.70417 0
M  V30 976 O 93.9503 0.049078 -1.95638 0
M  V30 977 C 94.2493 -3.3513 -1.24188 0
M  V30 978 C 93.9153 -4.50037 -0.278826 0
M  V30 979 C 92.5773 -4.81198 -0.0138447 0
M  V30 980 C 94.9293 -5.19807 0.380777 0
M  V30 981 C 92.2573 -5.79473 0.918052 0
M  V30 982 C 94.6093 -6.19079 1.30091 0
M  V30 983 C 93.2733 -6.48665 1.57449 0
M  V30 984 H 92.5433 -0.706157 -0.22455 0
M  V30 985 H 95.1903 -1.91082 0.126533 0
M  V30 986 H 93.4953 -3.33429 -2.05749 0
M  V30 987 H 95.1923 -3.59871 -1.769 0
M  V30 988 H 91.7823 -4.25726 -0.495539 0
M  V30 989 H 95.9663 -4.95939 0.189158 0
M  V30 990 H 91.2223 -6.00727 1.1374 0
M  V30 991 H 95.3963 -6.7225 1.81804 0
M  V30 992 H 93.0233 -7.24628 2.29822 0
M  V30 993 N 94.5984 0.214957 -1.56127 0
M  V30 994 C 95.5614 1.24997 -1.92116 0
M  V30 995 C 96.5614 1.39467 -0.800344 0
M  V30 996 O 97.7514 1.37619 -1.06802 0
M  V30 997 C 94.8834 2.62271 -2.17777 0
M  V30 998 H 96.0764 0.942875 -2.84693 0
M  V30 999 H 93.6294 0.455654 -1.49511 0
M  V30 1000 H 94.3644 2.98068 -1.27773 0
M  V30 1001 H 94.1494 2.53143 -2.99434 0
M  V30 1002 H 95.6394 3.36946 -2.46693 0
M  V30 1003 N 96.0765 1.50051 0.48192 0
M  V30 1004 C 97.3535 1.51009 1.2432 0
M  V30 1005 C 97.7335 0.248587 2.09631 0
M  V30 1006 O 97.0815 -0.768409 2.15192 0
M  V30 1007 C 97.2915 2.79981 2.08355 0
M  V30 1008 C 98.6395 3.3022 2.66908 0
M  V30 1009 O 99.6635 2.81228 2.18607 0
M  V30 1010 O 98.5225 4.15595 3.54884 0
M  V30 1011 H 95.6165 0.605239 0.563573 0
M  V30 1012 H 98.1625 1.62332 0.494627 0
M  V30 1013 H 96.9345 3.63275 1.45419 0
M  V30 1014 H 96.5575 2.7161 2.90368 0
M  V30 1015 N 97.5546 -0.734337 1.39446 0
M  V30 1016 C 98.9706 -1.03997 1.21065 0
M  V30 1017 C 99.1706 -2.01369 0.0727019 0
M  V30 1018 O 98.2266 -2.45856 -0.575426 0
M  V30 1019 C 99.5396 -1.60163 2.54496 0
M  V30 1020 C 101.088 -1.7224 2.61347 0
M  V30 1021 C 101.563 -2.31814 3.95002 0
M  V30 1022 N 103.054 -2.39223 3.96644 0
M  V30 1023 C 103.789 -2.86258 4.96834 0
M  V30 1024 N 103.285 -3.33184 6.07421 0
M  V30 1025 N 105.078 -2.85473 4.84213 0
M  V30 1026 H 97.2286 -0.0885624 2.12215 0
M  V30 1027 H 99.4916 -0.10191 0.942506 0
M  V30 1028 H 99.1976 -0.960811 3.38321 0
M  V30 1029 H 99.0716 -2.5896 2.74262 0
M  V30 1030 H 101.459 -2.35443 1.77906 0
M  V30 1031 H 101.54 -0.720939 2.4543 0
M  V30 1032 H 101.184 -1.69238 4.78875 0
M  V30 1033 H 101.114 -3.32638 4.08239 0
M  V30 1034 H 103.605 -2.06057 3.16779 0
M  V30 1035 H 103.918 -3.67586 6.7978 0
M  V30 1036 H 102.263 -3.31191 6.11013 0
M  V30 1037 H 105.454 -2.48136 3.96921 0
M  V30 1038 H 105.627 -3.21814 5.62441 0
M  V30 1039 N 99.0327 -1.24633 -0.964593 0
M  V30 1040 C 100.279 -1.08949 -1.71049 0
M  V30 1041 C 100.612 0.370302 -1.90637 0
M  V30 1042 O 99.8867 1.27349 -1.47011 0
M  V30 1043 C 100.17 -1.83329 -3.0994 0
M  V30 1044 C 100.023 -3.37077 -2.97824 0
M  V30 1045 C 101.342 -1.60846 -4.09654 0
M  V30 1046 H 98.4607 -0.397178 -0.620821 0
M  V30 1047 H 101.103 -1.5334 -1.12191 0
M  V30 1048 H 99.2527 -1.45597 -3.60186 0
M  V30 1049 H 100.925 -3.84425 -2.5498 0
M  V30 1050 H 99.1677 -3.65298 -2.33965 0
M  V30 1051 H 99.8387 -3.84324 -3.96231 0
M  V30 1052 H 102.315 -1.93674 -3.68279 0
M  V30 1053 H 101.191 -2.1534 -5.04896 0
M  V30 1054 H 101.452 -0.547434 -4.38698 0
M  V30 1055 N 100.511 1.16574 -1.06058 0
M  V30 1056 C 101.739 1.90952 -0.796552 0
M  V30 1057 C 102.154 1.77302 0.648808 0
M  V30 1058 O 101.511 1.11605 1.44397 0
M  V30 1059 C 101.562 3.41736 -1.17894 0
M  V30 1060 O 101.283 3.54975 -2.56758 0
M  V30 1061 C 102.784 4.33169 -0.942308 0
M  V30 1062 H 100.004 0.605594 -0.288959 0
M  V30 1063 H 102.548 1.47777 -1.41358 0
M  V30 1064 H 100.703 3.82623 -0.606491 0
M  V30 1065 H 101.117 4.4846 -2.72 0
M  V30 1066 H 102.591 5.37439 -1.25952 0
M  V30 1067 H 103.068 4.3903 0.122078 0
M  V30 1068 H 103.674 3.98007 -1.49902 0
M  V30 1069 N 101.989 0.842826 1.3317 0
M  V30 1070 C 103.238 0.436738 1.96915 0
M  V30 1071 C 103.551 -1.01025 1.67491 0
M  V30 1072 O 104.757 -1.5212 2.24881 0
M  V30 1073 C 103.213 0.730021 3.52418 0
M  V30 1074 C 102.821 2.19195 3.90714 0
M  V30 1075 C 104.565 0.391076 4.22695 0
M  V30 1076 C 102.472 2.42907 5.39212 0
M  V30 1077 H 101.402 0.15958 0.736919 0
M  V30 1078 H 104.053 1.03196 1.51733 0
M  V30 1079 H 102.435 0.0643755 3.95948 0
M  V30 1080 H 103.609 2.8984 3.58231 0
M  V30 1081 H 101.924 2.49425 3.33431 0
M  V30 1082 H 104.521 0.545817 5.31907 0
M  V30 1083 H 104.864 -0.666294 4.10933 0
M  V30 1084 H 105.397 1.01212 3.84709 0
M  V30 1085 H 102.136 3.47224 5.55982 0
M  V30 1086 H 101.656 1.76827 5.73142 0
M  V30 1087 H 103.335 2.2626 6.06148 0
M  V30 1088 N 103.467 -1.45747 0.599634 0
M  V30 1089 C 104.695 -2.06668 0.0978551 0
M  V30 1090 C 105.11 -1.44562 -1.21439 0
M  V30 1091 O 104.467 -0.556923 -1.73795 0
M  V30 1092 C 104.518 -3.61456 -0.0567044 0
M  V30 1093 O 104.239 -4.21242 1.20361 0
M  V30 1094 C 105.74 -4.39345 -0.590869 0
M  V30 1095 H 102.96 -0.667825 0.0651943 0
M  V30 1096 H 105.504 -1.87115 0.82511 0
M  V30 1097 H 103.659 -3.80378 -0.734251 0
M  V30 1098 H 104.073 -5.14323 1.02821 0
M  V30 1099 H 105.547 -5.48182 -0.648131 0
M  V30 1100 H 106.024 -4.08568 -1.61147 0
M  V30 1101 H 106.63 -4.25268 0.0523679 0
M  V30 1102 N 104.945 -0.338344 -1.53925 0
M  V30 1103 C 105.908 0.508299 -2.23493 0
M  V30 1104 C 106.908 1.03175 -1.23335 0
M  V30 1105 O 108.098 0.921826 -1.47811 0
M  V30 1106 C 105.23 1.70754 -2.95052 0
M  V30 1107 H 106.423 -0.100058 -2.99733 0
M  V30 1108 H 103.976 -0.0896198 -1.56043 0
M  V30 1109 H 104.711 2.35474 -2.22986 0
M  V30 1110 H 104.496 1.33946 -3.68512 0
M  V30 1111 H 105.986 2.30818 -3.48013 0
M  V30 1112 N 106.423 1.57458 -0.0668435 0
M  V30 1113 C 107.7 1.8469 0.644132 0
M  V30 1114 C 108.08 0.958343 1.88093 0
M  V30 1115 O 107.428 0.0233579 2.28488 0
M  V30 1116 C 107.638 3.34767 0.986509 0
M  V30 1117 C 108.986 4.02159 1.36212 0
M  V30 1118 O 110.01 3.39484 1.07839 0
M  V30 1119 O 108.869 5.12694 1.89227 0
M  V30 1120 H 105.963 0.762816 0.319437 0
M  V30 1121 H 108.509 1.6942 -0.0973986 0
M  V30 1122 H 107.281 3.91151 0.107883 0
M  V30 1123 H 106.904 3.55281 1.78497 0
M  V30 1124 N 107.901 -0.206675 1.56239 0
M  V30 1125 C 108.848 -1.25617 1.93621 0
M  V30 1126 C 109.818 -1.45824 0.795274 0
M  V30 1127 O 111.003 -1.59148 1.05245 0
M  V30 1128 C 108.143 -2.59839 2.27107 0
M  V30 1129 C 107.256 -2.47308 3.54207 0
M  V30 1130 C 106.391 -3.74155 3.7707 0
M  V30 1131 C 105.43 -3.56407 4.97635 0
M  V30 1132 N 104.567 -4.75238 5.1681 0
M  V30 1133 H 109.407 -0.930383 2.83104 0
M  V30 1134 H 106.944 -0.448065 1.4011 0
M  V30 1135 H 108.902 -3.38021 2.44535 0
M  V30 1136 H 107.532 -2.90485 1.40778 0
M  V30 1137 H 106.584 -1.60483 3.4489 0
M  V30 1138 H 107.896 -2.30122 4.42544 0
M  V30 1139 H 107.05 -4.60778 3.94675 0
M  V30 1140 H 105.789 -3.94282 2.87042 0
M  V30 1141 H 104.794 -2.68168 4.79964 0
M  V30 1142 H 106.019 -3.37736 5.89161 0
M  V30 1143 H 103.965 -4.95651 4.29728 0
M  V30 1144 H 103.882 -4.60835 5.99306 0
M  V30 1145 H 105.15 -5.63246 5.38864 0
M  V30 1146 N 109.379 -1.50304 -0.473955 0
M  V30 1147 C 110.604 -1.65175 -1.25427 0
M  V30 1148 C 111.029 -0.333673 -1.85117 0
M  V30 1149 O 110.387 0.702114 -1.67153 0
M  V30 1150 C 110.435 -2.74295 -2.34082 0
M  V30 1151 O 109.539 -2.35349 -3.38651 0
M  V30 1152 H 108.88 -0.551944 -0.369126 0
M  V30 1153 H 111.41 -1.96662 -0.564364 0
M  V30 1154 H 111.42 -2.97285 -2.79438 0
M  V30 1155 H 110.095 -3.69959 -1.90008 0
M  V30 1156 H 108.672 -2.22794 -2.99027 0
M  V30 1157 N 110.857 0.726932 -1.39834 0
M  V30 1158 C 112.085 1.51613 -1.40787 0
M  V30 1159 C 112.5 1.88799 -0.00451505 0
M  V30 1160 O 111.857 1.54662 0.968809 0
M  V30 1161 C 111.908 2.79863 -2.28821 0
M  V30 1162 O 111.629 2.44253 -3.63692 0
M  V30 1163 C 113.13 3.73837 -2.38245 0
M  V30 1164 H 110.35 0.468264 -0.480593 0
M  V30 1165 H 112.894 0.897607 -1.83748 0
M  V30 1166 H 111.049 3.38027 -1.89252 0
M  V30 1167 H 111.463 3.26695 -4.1033 0
M  V30 1168 H 112.937 4.60699 -3.04073 0
M  V30 1169 H 113.414 4.16153 -1.40403 0
M  V30 1170 H 114.02 3.21589 -2.78317 0
M  V30 1171 N 112.336 1.25143 0.95797 0
M  V30 1172 C 113.561 1.12521 1.74223 0
M  V30 1173 C 113.986 -0.317402 1.85403 0
M  V30 1174 O 113.344 -1.2299 1.33204 0
M  V30 1175 C 113.392 1.78062 3.1357 0
M  V30 1176 O 112.496 1.058 3.98598 0
M  V30 1177 H 111.837 0.39304 0.535178 0
M  V30 1178 H 114.367 1.65641 1.201 0
M  V30 1179 H 114.377 1.84213 3.64046 0
M  V30 1180 H 113.052 2.83021 3.04749 0
M  V30 1181 H 111.629 1.07506 3.57067 0
M  V30 1182 N 113.814 -1.1601 1.06675 0
M  V30 1183 C 115.042 -1.90527 0.806667 0
M  V30 1184 C 115.457 -1.77643 -0.639396 0
M  V30 1185 O 114.814 -1.12369 -1.43803 0
M  V30 1186 C 114.865 -3.41106 1.19705 0
M  V30 1187 O 114.586 -3.53608 2.58636 0
M  V30 1188 C 116.087 -4.32663 0.965266 0
M  V30 1189 H 113.307 -0.604053 0.292166 0
M  V30 1190 H 115.851 -1.47026 1.4214 0
M  V30 1191 H 114.006 -3.82296 0.626774 0
M  V30 1192 H 114.42 -4.47011 2.74375 0
M  V30 1193 H 115.894 -5.36763 1.288 0
M  V30 1194 H 116.371 -4.39089 -0.0987936 0
M  V30 1195 H 116.977 -3.97206 1.52011 0
M  V30 1196 N 115.292 -0.849877 -1.32721 0
M  V30 1197 C 116.255 -0.296122 -2.27279 0
M  V30 1198 C 117.255 0.541458 -1.5141 0
M  V30 1199 O 118.445 0.353658 -1.70572 0
M  V30 1200 C 115.577 0.581579 -3.35902 0
M  V30 1201 H 116.77 -1.13064 -2.77771 0
M  V30 1202 H 114.323 -0.62383 -1.43311 0
M  V30 1203 H 115.058 1.43809 -2.9067 0
M  V30 1204 H 114.843 -0.0178814 -3.92096 0
M  V30 1205 H 116.333 0.961951 -4.0637 0
M  V30 1206 N 116.77 1.45427 -0.607355 0
M  V30 1207 C 118 2.06314 -0.108656 0
M  V30 1208 C 118.408 1.45269 1.21217 0
M  V30 1209 O 117.751 0.561115 1.74921 0
M  V30 1210 C 117.813 3.59345 0.105618 0
M  V30 1211 C 117.477 4.42723 -1.13337 0
M  V30 1212 C 118.474 4.77715 -2.05145 0
M  V30 1213 C 116.159 4.83478 -1.36213 0
M  V30 1214 C 118.153 5.52317 -3.18158 0
M  V30 1215 C 115.84 5.57835 -2.49527 0
M  V30 1216 C 116.838 5.92171 -3.40327 0
M  V30 1217 O 116.526 6.65019 -4.51669 0
M  V30 1218 H 116.258 0.672782 -0.0658842 0
M  V30 1219 H 118.812 1.87664 -0.834945 0
M  V30 1220 H 117.042 3.76394 0.886796 0
M  V30 1221 H 118.731 4.02076 0.555886 0
M  V30 1222 H 119.497 4.46787 -1.88697 0
M  V30 1223 H 115.376 4.56188 -0.664362 0
M  V30 1224 H 118.92 5.79036 -3.89054 0
M  V30 1225 H 114.817 5.88177 -2.65928 0
M  V30 1226 H 115.585 6.83469 -4.50348 0
M  V30 1227 N 118.248 0.346503 1.53744 0
M  V30 1228 C 119.181 -0.552023 2.21423 0
M  V30 1229 C 120.159 -1.09798 1.19929 0
M  V30 1230 O 121.343 -1.1577 1.4876 0
M  V30 1231 C 118.47 -1.75972 2.89398 0
M  V30 1232 C 117.516 -1.34295 4.04805 0
M  V30 1233 S 118.349 -0.360263 5.34287 0
M  V30 1234 C 119.505 -1.57473 6.05767 0
M  V30 1235 H 119.738 0.0228119 2.97291 0
M  V30 1236 H 117.271 0.130579 1.53847 0
M  V30 1237 H 119.229 -2.45256 3.2918 0
M  V30 1238 H 117.89 -2.30578 2.1329 0
M  V30 1239 H 117.083 -2.24349 4.51313 0
M  V30 1240 H 116.685 -0.729555 3.66815 0
M  V30 1241 H 118.977 -2.50875 6.29339 0
M  V30 1242 H 119.92 -1.15138 6.98676 0
M  V30 1243 H 120.328 -1.77212 5.35963 0
M  V30 1244 N 119.726 -1.57421 0.075193 0
M  V30 1245 C 120.636 -2.1642 -0.905511 0
M  V30 1246 C 121.652 -1.12828 -1.32461 0
M  V30 1247 O 122.828 -1.45109 -1.39661 0
M  V30 1248 C 119.893 -2.71693 -2.15369 0
M  V30 1249 C 118.954 -3.90171 -1.79068 0
M  V30 1250 C 118.187 -4.42798 -2.97936 0
M  V30 1251 O 118.41 -3.94416 -4.12058 0
M  V30 1252 O 117.344 -5.34085 -2.77555 0
M  V30 1253 H 121.17 -3.00588 -0.433626 0
M  V30 1254 H 118.755 -1.48664 -0.148067 0
M  V30 1255 H 120.637 -3.07104 -2.88557 0
M  V30 1256 H 119.312 -1.90582 -2.61649 0
M  V30 1257 H 118.219 -3.59606 -1.03122 0
M  V30 1258 H 119.552 -4.72584 -1.37569 0
M  V30 1259 N 121.204 0.198386 -1.56346 0
M  V30 1260 C 122.134 1.24865 -1.9731 0
M  V30 1261 C 123.115 1.47651 -0.844576 0
M  V30 1262 O 124.3 1.59444 -1.10866 0
M  V30 1263 C 121.43 2.59358 -2.30977 0
M  V30 1264 C 120.384 2.5119 -3.46537 0
M  V30 1265 C 119.71 3.89926 -3.65871 0
M  V30 1266 C 121.01 2.03977 -4.80823 0
M  V30 1267 H 122.704 0.908252 -2.85291 0
M  V30 1268 H 120.25 0.435462 -1.37258 0
M  V30 1269 H 122.203 3.33011 -2.58228 0
M  V30 1270 H 120.927 2.95132 -1.39874 0
M  V30 1271 H 119.586 1.79993 -3.19371 0
M  V30 1272 H 119.234 4.23046 -2.72105 0
M  V30 1273 H 118.934 3.85336 -4.4361 0
M  V30 1274 H 120.458 4.65205 -3.95495 0
M  V30 1275 H 121.872 2.67386 -5.07127 0
M  V30 1276 H 120.269 2.10397 -5.62008 0
M  V30 1277 H 121.339 0.992861 -4.74626 0
M  V30 1278 N 122.682 1.50554 0.465978 0
M  V30 1279 C 123.907 1.65838 1.24549 0
M  V30 1280 C 124.332 0.343486 1.84937 0
M  V30 1281 O 123.69 -0.69324 1.67523 0
M  V30 1282 C 123.738 2.75533 2.32624 0
M  V30 1283 O 122.842 2.37142 3.37398 0
M  V30 1284 H 122.183 0.553893 0.366194 0
M  V30 1285 H 124.713 1.96959 0.553927 0
M  V30 1286 H 124.723 2.98763 2.77857 0
M  V30 1287 H 123.398 3.70962 1.88043 0
M  V30 1288 H 121.975 2.24377 2.97841 0
M  V30 1289 N 124.16 -0.719506 1.40217 0
M  V30 1290 C 125.385 -1.51371 1.4178 0
M  V30 1291 C 125.81 -1.88091 0.0182355 0
M  V30 1292 O 125.168 -1.52997 -0.972707 0
M  V30 1293 C 125.216 -2.768 2.31115 0
M  V30 1294 O 124.32 -3.73349 1.7517 0
M  V30 1295 H 123.661 -0.456529 0.482159 0
M  V30 1296 H 126.191 -0.88644 1.844 0
M  V30 1297 H 126.201 -3.25371 2.46167 0
M  V30 1298 H 124.876 -2.49407 3.3282 0
M  V30 1299 H 123.453 -3.32179 1.69444 0
M  V30 1300 N 125.638 -1.25649 -0.95132 0
M  V30 1301 C 126.568 -1.08808 -2.06599 0
M  V30 1302 C 127.549 0.00382547 -1.701 0
M  V30 1303 O 128.734 -0.166325 -1.93486 0
M  V30 1304 C 125.864 -0.709542 -3.39975 0
M  V30 1305 C 124.818 -1.75206 -3.90496 0
M  V30 1306 C 124.144 -1.22811 -5.20405 0
M  V30 1307 C 125.444 -3.15153 -4.16504 0
M  V30 1308 H 127.138 -2.02048 -2.20946 0
M  V30 1309 H 124.684 -0.972835 -1.06169 0
M  V30 1310 H 126.637 -0.578649 -4.17408 0
M  V30 1311 H 125.361 0.258556 -3.25575 0
M  V30 1312 H 124.02 -1.87145 -3.15234 0
M  V30 1313 H 123.668 -0.250145 -5.02378 0
M  V30 1314 H 123.368 -1.92492 -5.55176 0
M  V30 1315 H 124.892 -1.10968 -6.00432 0
M  V30 1316 H 126.306 -3.06349 -4.84586 0
M  V30 1317 H 124.703 -3.82333 -4.62538 0
M  V30 1318 H 125.773 -3.61966 -3.22658 0
M  V30 1319 N 127.117 1.15442 -1.07289 0
M  V30 1320 C 128.533 1.38201 -0.798288 0
M  V30 1321 C 128.733 1.92429 0.597769 0
M  V30 1322 O 127.789 2.12962 1.3566 0
M  V30 1323 C 129.102 2.35357 -1.87156 0
M  V30 1324 C 130.65 2.49021 -1.89624 0
M  V30 1325 C 131.125 3.49468 -2.96034 0
M  V30 1326 N 132.616 3.57003 -2.95132 0
M  V30 1327 C 133.351 4.34543 -3.74112 0
M  V30 1328 N 132.847 5.15421 -4.6294 0
M  V30 1329 N 134.64 4.29625 -3.62462 0
M  V30 1330 H 126.791 0.78584 -1.97328 0
M  V30 1331 H 129.054 0.408065 -0.855679 0
M  V30 1332 H 128.76 2.02626 -2.87464 0
M  V30 1333 H 128.634 3.35129 -1.73114 0
M  V30 1334 H 131.021 2.81051 -0.899687 0
M  V30 1335 H 131.102 1.4925 -2.07745 0
M  V30 1336 H 130.746 3.18173 -3.95889 0
M  V30 1337 H 130.676 4.48992 -2.75161 0
M  V30 1338 H 133.167 2.99276 -2.30743 0
M  V30 1339 H 133.48 5.7183 -5.19837 0
M  V30 1340 H 131.825 5.14729 -4.66989 0
M  V30 1341 H 135.016 3.65505 -2.92444 0
M  V30 1342 H 135.189 4.89807 -4.24256 0
M  V30 1343 N 128.595 0.856903 1.32268 0
M  V30 1344 C 129.82 0.474569 2.01897 0
M  V30 1345 C 130.245 -0.921766 1.63967 0
M  V30 1346 O 129.603 -1.60589 0.84148 0
M  V30 1347 C 129.651 0.623799 3.55164 0
M  V30 1348 O 128.755 -0.342459 4.10976 0
M  V30 1349 H 128.096 0.190422 0.63611 0
M  V30 1350 H 130.626 1.15672 1.68764 0
M  V30 1351 H 130.636 0.512169 4.04773 0
M  V30 1352 H 129.311 1.64202 3.82113 0
M  V30 1353 H 127.888 -0.18688 3.72431 0
M  V30 1354 N 130.073 -1.45103 0.615059 0
M  V30 1355 C 130.983 -2.34382 -0.101034 0
M  V30 1356 C 131.999 -1.51681 -0.852585 0
M  V30 1357 O 133.175 -1.8446 -0.808484 0
M  V30 1358 C 130.24 -3.29417 -1.08099 0
M  V30 1359 C 129.301 -4.28025 -0.330577 0
M  V30 1360 C 128.534 -5.1852 -1.26385 0
M  V30 1361 O 128.757 -5.12598 -2.50198 0
M  V30 1362 O 127.691 -5.97122 -0.756866 0
M  V30 1363 H 131.517 -2.97033 0.632855 0
M  V30 1364 H 129.102 -1.4461 0.375293 0
M  V30 1365 H 130.984 -3.87958 -1.6452 0
M  V30 1366 H 129.659 -2.69321 -1.79577 0
M  V30 1367 H 128.566 -3.73078 0.276283 0
M  V30 1368 H 129.899 -4.90997 0.343866 0
M  V30 1369 N 131.551 -0.354651 -1.53558 0
M  V30 1370 C 132.828 0.294281 -1.93374 0
M  V30 1371 C 133.208 1.67313 -1.28723 0
M  V30 1372 O 132.556 2.24179 -0.442247 0
M  V30 1373 C 132.766 0.355445 -3.47185 0
M  V30 1374 C 134.114 0.601007 -4.20325 0
M  V30 1375 O 135.138 0.437106 -3.53508 0
M  V30 1376 O 133.997 0.919322 -5.38712 0
M  V30 1377 H 131.091 0.174033 -0.808481 0
M  V30 1378 H 133.637 -0.406638 -1.64756 0
M  V30 1379 H 132.409 -0.611729 -3.86489 0
M  V30 1380 H 132.032 1.1027 -3.82003 0
M  V30 1381 N 133.029 1.57378 -0.0835403 0
M  V30 1382 C 134.257 1.98263 0.59157 0
M  V30 1383 C 134.672 0.962302 1.62435 0
M  V30 1384 O 134.029 -0.049581 1.82433 0
M  V30 1385 C 134.08 3.39214 1.24965 0
M  V30 1386 O 133.801 4.37339 0.258186 0
M  V30 1387 C 135.302 3.95038 2.01147 0
M  V30 1388 H 132.522 0.651773 0.159477 0
M  V30 1389 H 135.066 2.03878 -0.159415 0
M  V30 1390 H 133.221 3.34649 1.95164 0
M  V30 1391 H 133.635 5.19371 0.731734 0
M  V30 1392 H 135.109 4.95848 2.42567 0
M  V30 1393 H 135.586 3.32222 2.87272 0
M  V30 1394 H 136.192 4.0304 1.35789 0
M  V30 1395 N 134.507 -0.190092 1.56449 0
M  V30 1396 C 135.47 -1.21925 1.9408 0
M  V30 1397 C 136.47 -1.38176 0.822431 0
M  V30 1398 O 137.66 -1.35903 1.08977 0
M  V30 1399 C 134.792 -2.58773 2.21922 0
M  V30 1400 H 135.985 -0.897464 2.86157 0
M  V30 1401 H 133.538 -0.43181 1.50217 0
M  V30 1402 H 134.273 -2.95998 1.32499 0
M  V30 1403 H 134.058 -2.48348 3.03424 0
M  V30 1404 H 135.548 -3.32978 2.52022 0
M  V30 1405 N 135.985 -1.50799 -0.457987 0
M  V30 1406 C 137.231 -1.62683 -1.21088 0
M  V30 1407 C 137.564 -0.332268 -1.91336 0
M  V30 1408 O 136.839 0.667043 -1.82704 0
M  V30 1409 C 137.122 -2.81615 -2.24422 0
M  V30 1410 C 136.975 -4.20989 -1.58392 0
M  V30 1411 C 138.294 -2.96085 -3.2561 0
M  V30 1412 H 135.413 -0.592087 -0.438864 0
M  V30 1413 H 138.055 -1.83225 -0.50286 0
M  V30 1414 H 136.205 -2.64231 -2.84806 0
M  V30 1415 H 137.877 -4.49994 -1.01504 0
M  V30 1416 H 136.12 -4.24641 -0.886704 0
M  V30 1417 H 136.791 -5.0016 -2.33547 0
M  V30 1418 H 139.267 -3.12042 -2.75262 0
M  V30 1419 H 138.143 -3.80902 -3.95228 0
M  V30 1420 H 138.404 -2.0726 -3.90507 0
M  V30 1421 N 137.463 0.71206 -1.40597 0
M  V30 1422 C 138.693 1.49894 -1.42181 0
M  V30 1423 C 139.101 1.89189 -0.0208078 0
M  V30 1424 O 138.444 1.56223 0.966436 0
M  V30 1425 C 138.506 2.80215 -2.25211 0
M  V30 1426 C 138.17 2.63221 -3.73582 0
M  V30 1427 C 139.167 2.30249 -4.66135 0
M  V30 1428 C 136.852 2.79376 -4.17438 0
M  V30 1429 C 138.846 2.13645 -6.00529 0
M  V30 1430 C 136.533 2.6239 -5.51901 0
M  V30 1431 C 137.531 2.29573 -6.43262 0
M  V30 1432 O 137.219 2.12719 -7.75246 0
M  V30 1433 H 136.951 0.469031 -0.486812 0
M  V30 1434 H 139.505 0.88564 -1.85326 0
M  V30 1435 H 137.735 3.4389 -1.76852 0
M  V30 1436 H 139.424 3.41947 -2.18694 0
M  V30 1437 H 140.19 2.17398 -4.33547 0
M  V30 1438 H 136.069 3.03906 -3.46644 0
M  V30 1439 H 139.613 1.87953 -6.71803 0
M  V30 1440 H 135.51 2.74826 -5.84073 0
M  V30 1441 H 136.278 2.27611 -7.86216 0
M  V30 1442 N 138.941 1.26152 0.944643 0
M  V30 1443 C 140.171 1.14094 1.72239 0
M  V30 1444 C 140.579 -0.306931 1.86694 0
M  V30 1445 O 139.922 -1.22222 1.3714 0
M  V30 1446 C 139.984 1.73316 3.14963 0
M  V30 1447 C 139.648 3.2239 3.23904 0
M  V30 1448 C 140.645 4.19252 3.07447 0
M  V30 1449 C 138.33 3.62788 3.47405 0
M  V30 1450 C 140.324 5.54491 3.14353 0
M  V30 1451 C 138.011 4.98162 3.53947 0
M  V30 1452 C 139.009 5.93823 3.37436 0
M  V30 1453 O 138.697 7.26732 3.43679 0
M  V30 1454 H 138.429 0.398292 0.546205 0
M  V30 1455 H 140.983 1.67201 1.19301 0
M  V30 1456 H 139.213 1.14667 3.69308 0
M  V30 1457 H 140.902 1.56214 3.74636 0
M  V30 1458 H 141.668 3.8938 2.8915 0
M  V30 1459 H 137.547 2.88816 3.59313 0
M  V30 1460 H 141.091 6.29137 3.01384 0
M  V30 1461 H 136.988 5.27695 3.71763 0
M  V30 1462 H 137.756 7.3496 3.60245 0
M  V30 1463 N 140.419 -1.14872 1.07899 0
M  V30 1464 C 141.659 -1.8745 0.814965 0
M  V30 1465 C 142.023 -1.80758 -0.64733 0
M  V30 1466 O 143.224 -2.48422 -1.02664 0
M  V30 1467 C 141.495 -3.32286 1.31607 0
M  V30 1468 S 143.054 -4.22537 1.18357 0
M  V30 1469 H 139.872 -0.646833 0.295174 0
M  V30 1470 H 142.474 -1.38555 1.37923 0
M  V30 1471 H 141.178 -3.34703 2.37491 0
M  V30 1472 H 140.709 -3.86238 0.747261 0
M  V30 1473 H 142.724 -4.96044 0.124586 0
M  V30 1474 N 141.898 -0.863906 -1.31812 0
M  V30 1475 C 142.861 -0.320212 -2.26952 0
M  V30 1476 C 143.861 0.525369 -1.51975 0
M  V30 1477 O 145.051 0.335547 -1.70938 0
M  V30 1478 C 142.183 0.545919 -3.365 0
M  V30 1479 H 143.376 -1.16004 -2.76556 0
M  V30 1480 H 140.929 -0.638995 -1.42641 0
M  V30 1481 H 141.664 1.40718 -2.92179 0
M  V30 1482 H 141.449 -0.0594674 -3.92055 0
M  V30 1483 H 142.939 0.918796 -4.07367 0
M  V30 1484 N 143.376 1.44774 -0.622745 0
M  V30 1485 C 144.792 1.56986 -0.287652 0
M  V30 1486 C 144.992 1.61167 1.20944 0
M  V30 1487 O 144.048 1.55015 1.99315 0
M  V30 1488 C 145.361 2.84551 -0.972188 0
M  V30 1489 C 146.909 2.9825 -0.949536 0
M  V30 1490 C 147.384 4.28605 -1.61437 0
M  V30 1491 N 148.875 4.35399 -1.58057 0
M  V30 1492 C 149.61 5.34964 -2.064 0
M  V30 1493 N 149.106 6.40981 -2.62897 0
M  V30 1494 N 150.899 5.26419 -1.97078 0
M  V30 1495 H 143.05 1.40304 -1.59463 0
M  V30 1496 H 145.313 0.671794 -0.668878 0
M  V30 1497 H 145.019 2.87417 -2.02693 0
M  V30 1498 H 144.893 3.73807 -0.504771 0
M  V30 1499 H 147.28 2.94941 0.0967067 0
M  V30 1500 H 147.361 2.10364 -1.45536 0
M  V30 1501 H 147.005 4.32672 -2.66002 0
M  V30 1502 H 146.935 5.15334 -1.08344 0
M  V30 1503 H 149.426 3.59397 -1.16801 0
M  V30 1504 H 149.739 7.13225 -2.97539 0
M  V30 1505 H 148.084 6.4169 -2.66943 0
M  V30 1506 H 151.275 4.42504 -1.52669 0
M  V30 1507 H 151.448 6.03861 -2.35066 0
M  V30 1508 N 144.854 0.36279 1.53368 0
M  V30 1509 C 145.784 -0.476976 2.28576 0
M  V30 1510 C 146.765 -1.08631 1.30894 0
M  V30 1511 O 147.95 -1.10409 1.59761 0
M  V30 1512 C 145.08 -1.61828 3.07293 0
M  V30 1513 C 144.034 -1.13633 4.1264 0
M  V30 1514 C 143.36 -2.36766 4.79423 0
M  V30 1515 C 144.66 -0.223061 5.21823 0
M  V30 1516 H 146.354 0.150474 2.99022 0
M  V30 1517 H 143.9 0.0738103 1.43811 0
M  V30 1518 H 145.853 -2.21237 3.58653 0
M  V30 1519 H 144.577 -2.27292 2.34533 0
M  V30 1520 H 143.236 -0.564945 3.62221 0
M  V30 1521 H 142.884 -3.0068 4.03238 0
M  V30 1522 H 142.584 -2.05192 5.50609 0
M  V30 1523 H 144.108 -2.96865 5.33576 0
M  V30 1524 H 145.522 -0.724545 5.68703 0
M  V30 1525 H 143.919 0.001678 6.001 0
M  V30 1526 H 144.989 0.735553 4.79289 0
M  V30 1527 N 146.332 -1.57332 0.0918853 0
M  V30 1528 C 147.557 -1.98995 -0.584442 0
M  V30 1529 C 147.982 -0.970528 -1.61128 0
M  V30 1530 O 147.34 0.0613904 -1.81196 0
M  V30 1531 C 147.388 -3.39636 -1.21161 0
M  V30 1532 O 146.492 -3.40447 -2.32744 0
M  V30 1533 H 145.833 -0.647165 -0.148572 0
M  V30 1534 H 148.363 -2.03873 0.172347 0
M  V30 1535 H 148.373 -3.7726 -1.55367 0
M  V30 1536 H 147.048 -4.13356 -0.459313 0
M  V30 1537 H 145.625 -3.14614 -2.0018 0
M  V30 1538 N 147.81 0.181792 -1.56548 0
M  V30 1539 C 149.087 0.926765 -1.72251 0
M  V30 1540 C 149.467 2.00831 -0.650386 0
M  V30 1541 O 148.815 2.26008 0.336521 0
M  V30 1542 C 149.025 1.50106 -3.1507 0
M  V30 1543 C 150.373 1.97805 -3.75711 0
M  V30 1544 O 151.397 1.59922 -3.18282 0
M  V30 1545 O 150.256 2.67555 -4.76525 0
M  V30 1546 H 147.35 0.435506 -0.703039 0
M  V30 1547 H 149.896 0.170443 -1.68842 0
M  V30 1548 H 148.668 0.72212 -3.84579 0
M  V30 1549 H 148.291 2.32186 -3.22763 0
M  V30 1550 N 149.288 1.51039 0.449983 0
M  V30 1551 C 150.518 1.66627 1.22143 0
M  V30 1552 C 150.926 0.357776 1.85786 0
M  V30 1553 O 150.269 -0.672424 1.70951 0
M  V30 1554 C 150.331 2.71562 2.35573 0
M  V30 1555 C 149.995 4.14526 1.92399 0
M  V30 1556 C 150.992 4.99717 1.43453 0
M  V30 1557 C 148.677 4.60559 2.00475 0
M  V30 1558 C 150.671 6.28998 1.03155 0
M  V30 1559 C 148.358 5.8984 1.59788 0
M  V30 1560 C 149.356 6.73886 1.11208 0
M  V30 1561 O 149.044 8.0075 0.710935 0
M  V30 1562 H 148.776 0.562635 0.374724 0
M  V30 1563 H 151.33 1.98146 0.541036 0
M  V30 1564 H 149.56 2.3533 3.06849 0
M  V30 1565 H 151.249 2.76156 2.97478 0
M  V30 1566 H 152.015 4.65361 1.36618 0
M  V30 1567 H 147.894 3.95273 2.37235 0
M  V30 1568 H 151.438 6.9455 0.651663 0
M  V30 1569 H 147.335 6.23713 1.66289 0
M  V30 1570 H 148.103 8.142 0.837913 0
M  V30 1571 N 150.766 -0.704594 1.40972 0
M  V30 1572 C 152.012 -1.46675 1.40051 0
M  V30 1573 C 152.345 -1.94199 0.00641102 0
M  V30 1574 O 151.62 -1.68916 -0.964235 0
M  V30 1575 C 151.903 -2.68505 2.39952 0
M  V30 1576 C 151.756 -2.26805 3.88432 0
M  V30 1577 C 153.075 -3.70686 2.37233 0
M  V30 1578 H 150.194 -0.532015 0.510028 0
M  V30 1579 H 152.836 -0.803255 1.72185 0
M  V30 1580 H 150.986 -3.25114 2.1268 0
M  V30 1581 H 152.658 -1.75592 4.26574 0
M  V30 1582 H 150.901 -1.58685 4.03734 0
M  V30 1583 H 151.572 -3.14181 4.53866 0
M  V30 1584 H 154.048 -3.23731 2.61415 0
M  V30 1585 H 152.924 -4.53553 3.09162 0
M  V30 1586 H 153.185 -4.19754 1.38777 0
M  V30 1587 N 152.244 -1.26651 -0.937939 0
M  V30 1588 C 153.469 -1.15279 -1.72411 0
M  V30 1589 C 153.894 0.287866 -1.85884 0
M  V30 1590 O 153.252 1.20855 -1.35143 0
M  V30 1591 C 153.3 -1.83028 -3.10698 0
M  V30 1592 O 152.404 -1.12128 -3.96864 0
M  V30 1593 H 151.745 -0.401504 -0.528858 0
M  V30 1594 H 154.275 -1.67531 -1.1745 0
M  V30 1595 H 154.285 -1.89981 -3.6107 0
M  V30 1596 H 152.96 -2.87833 -3.00208 0
M  V30 1597 H 151.537 -1.13173 -3.55312 0
M  V30 1598 N 153.722 1.14298 -1.08507 0
M  V30 1599 C 154.97 1.84993 -0.813763 0
M  V30 1600 C 155.291 1.83405 0.662393 0
M  V30 1601 O 154.561 1.28319 1.48024 0
M  V30 1602 H 153.141 0.684966 -0.298045 0
M  V30 1603 H 155.803 1.385 -1.37126 0
M  V30 1604 H 154.899 2.89788 -1.15884 0
M  V30 1605 N 155.201 0.870884 1.31352 0
M  V30 1606 C 156.448 0.482273 1.96673 0
M  V30 1607 C 156.776 -0.965638 1.68836 0
M  V30 1608 O 156.031 -1.69514 0.977937 0
M  V30 1609 C 156.33 0.687157 3.50732 0
M  V30 1610 C 155.996 2.108 3.9859 0
M  V30 1611 C 154.658 2.49656 4.1137 0
M  V30 1612 C 157.01 3.03459 4.23748 0
M  V30 1613 C 154.338 3.80412 4.46659 0
M  V30 1614 C 156.69 4.3373 4.60501 0
M  V30 1615 C 155.354 4.725 4.71487 0
M  V30 1616 H 154.624 0.176476 0.719679 0
M  V30 1617 H 157.271 1.10405 1.56471 0
M  V30 1618 H 155.576 -0.0177476 3.91796 0
M  V30 1619 H 157.273 0.366284 3.99324 0
M  V30 1620 H 153.863 1.79633 3.8914 0
M  V30 1621 H 158.047 2.74665 4.13368 0
M  V30 1622 H 153.303 4.1021 4.53362 0
M  V30 1623 H 157.477 5.05578 4.78919 0
M  V30 1624 H 155.104 5.73859 4.98588 0
M  V30 1625 N 156.679 -1.44442 0.630414 0
M  V30 1626 C 157.927 -2.01653 0.134351 0
M  V30 1627 C 158.248 -1.49836 -1.24796 0
M  V30 1628 O 157.518 -0.701684 -1.82902 0
M  V30 1629 H 156.098 -0.74554 0.0466769 0
M  V30 1630 H 158.76 -1.76952 0.816955 0
M  V30 1631 H 157.856 -3.11935 0.101498 0
M  V30 1632 N 158.157 -0.370918 -1.53173 0
M  V30 1633 C 159.387 0.217389 -2.05453 0
M  V30 1634 C 159.795 1.42568 -1.24382 0
M  V30 1635 O 159.138 1.81571 -0.278839 0
M  V30 1636 C 159.2 0.669827 -3.53205 0
M  V30 1637 C 158.864 -0.4225 -4.55043 0
M  V30 1638 C 159.861 -1.27407 -5.04047 0
M  V30 1639 C 157.546 -0.58427 -4.9889 0
M  V30 1640 C 159.54 -2.27271 -5.95505 0
M  V30 1641 C 157.227 -1.58627 -5.90153 0
M  V30 1642 C 158.225 -2.42892 -6.38351 0
M  V30 1643 O 157.913 -3.41382 -7.27814 0
M  V30 1644 H 157.645 0.0408171 -0.674767 0
M  V30 1645 H 160.199 -0.5292 -1.98466 0
M  V30 1646 H 158.429 1.4681 -3.57748 0
M  V30 1647 H 160.118 1.18173 -3.88317 0
M  V30 1648 H 160.884 -1.16031 -4.70916 0
M  V30 1649 H 156.763 0.061851 -4.60959 0
M  V30 1650 H 160.307 -2.93079 -6.33049 0
M  V30 1651 H 156.204 -1.70048 -6.22699 0
M  V30 1652 H 156.972 -3.37173 -7.45826 0
M  V30 1653 N 159.635 1.57281 -0.100228 0
M  V30 1654 C 160.881 1.95626 0.556946 0
M  V30 1655 C 161.236 0.981655 1.65473 0
M  V30 1656 O 160.529 0.00849847 1.91598 0
M  V30 1657 C 160.723 3.38305 1.15259 0
M  V30 1658 C 160.552 4.49555 0.114035 0
M  V30 1659 C 159.322 5.0434 -0.311266 0
M  V30 1660 C 161.52 5.10051 -0.659768 0
M  V30 1661 N 159.502 5.99152 -1.33755 0
M  V30 1662 C 160.873 6.00628 -1.53774 0
M  V30 1663 C 162.928 4.92772 -0.712723 0
M  V30 1664 C 161.631 6.7578 -2.46403 0
M  V30 1665 C 163.657 5.6859 -1.62663 0
M  V30 1666 C 163.019 6.58838 -2.49222 0
M  V30 1667 H 159.118 0.7624 0.173982 0
M  V30 1668 H 161.702 1.93829 -0.183988 0
M  V30 1669 H 159.873 3.40786 1.86332 0
M  V30 1670 H 161.605 3.63817 1.77254 0
M  V30 1671 H 158.36 4.73537 0.0774812 0
M  V30 1672 H 158.784 6.5126 -1.84905 0
M  V30 1673 H 163.426 4.22761 -0.0576648 0
M  V30 1674 H 161.144 7.4505 -3.12931 0
M  V30 1675 H 164.73 5.57233 -1.67281 0
M  V30 1676 H 163.61 7.16479 -3.18791 0
M  V30 1677 N 161.113 -0.173488 1.56642 0
M  V30 1678 C 162.361 -0.888706 1.81512 0
M  V30 1679 C 162.682 -1.82875 0.676872 0
M  V30 1680 O 161.952 -1.93536 -0.303414 0
M  V30 1681 H 160.532 -0.331164 0.669582 0
M  V30 1682 H 163.194 -0.173823 1.94123 0
M  V30 1683 H 162.29 -1.46691 2.75478 0
M  V30 1684 N 162.591 -1.51276 -0.441967 0
M  V30 1685 C 163.523 -1.68444 -1.55433 0
M  V30 1686 C 164.536 -0.565187 -1.52674 0
M  V30 1687 O 165.725 -0.839356 -1.57534 0
M  V30 1688 C 162.825 -1.67966 -2.94348 0
M  V30 1689 C 161.998 -2.964 -3.21661 0
M  V30 1690 C 161.057 -2.88171 -4.40277 0
M  V30 1691 O 160.083 -3.62119 -4.39157 0
M  V30 1692 N 161.285 -2.03706 -5.43584 0
M  V30 1693 H 164.05 -2.644 -1.41112 0
M  V30 1694 H 161.611 -1.49104 -0.630838 0
M  V30 1695 H 163.603 -1.60035 -3.71713 0
M  V30 1696 H 162.173 -0.796225 -3.0229 0
M  V30 1697 H 161.393 -3.18234 -2.32638 0
M  V30 1698 H 162.681 -3.81427 -3.36736 0
M  V30 1699 H 162.079 -1.42995 -5.47329 0
M  V30 1700 H 160.636 -2.01658 -6.1982 0
M  V30 1701 N 164.069 0.697108 -1.41344 0
M  V30 1702 C 165.317 1.45426 -1.40341 0
M  V30 1703 C 165.638 1.94996 -0.0128787 0
M  V30 1704 O 164.908 1.71599 0.945027 0
M  V30 1705 H 163.488 0.539594 -0.516573 0
M  V30 1706 H 166.15 0.825201 -1.76569 0
M  V30 1707 H 165.246 2.31817 -2.08967 0
M  V30 1708 N 165.547 1.27147 0.931209 0
M  V30 1709 C 166.775 1.16082 1.71267 0
M  V30 1710 C 167.19 -0.282772 1.8667 0
M  V30 1711 O 166.547 -1.19283 1.38122 0
M  V30 1712 C 166.598 1.8358 3.11417 0
M  V30 1713 O 166.319 3.22299 2.96741 0
M  V30 1714 C 167.82 1.78597 4.05732 0
M  V30 1715 H 165.04 0.403758 0.535929 0
M  V30 1716 H 167.584 1.67953 1.16671 0
M  V30 1717 H 165.739 1.35623 3.62885 0
M  V30 1718 H 166.153 3.55851 3.85319 0
M  V30 1719 H 167.627 2.30444 5.01597 0
M  V30 1720 H 168.104 0.754564 4.3267 0
M  V30 1721 H 168.71 2.26152 3.60188 0
M  V30 1722 N 167.025 -1.13721 1.09112 0
M  V30 1723 C 168.253 -1.88773 0.846899 0
M  V30 1724 C 168.668 -1.7896 -0.601572 0
M  V30 1725 O 168.025 -1.15394 -1.41388 0
M  V30 1726 C 168.076 -3.3849 1.26913 0
M  V30 1727 O 167.797 -3.48043 2.66079 0
M  V30 1728 C 169.298 -4.30518 1.05682 0
M  V30 1729 H 166.518 -0.59772 0.304914 0
M  V30 1730 H 169.062 -1.43977 1.45227 0
M  V30 1731 H 167.217 -3.80881 0.707723 0
M  V30 1732 H 167.631 -4.4109 2.83795 0
M  V30 1733 H 169.105 -5.3391 1.40156 0
M  V30 1734 H 169.582 -4.392 -0.00563416 0
M  V30 1735 H 170.188 -3.93893 1.60402 0
M  V30 1736 N 168.503 -0.877838 -1.30888 0
M  V30 1737 C 169.749 -0.493426 -1.96706 0
M  V30 1738 C 170.082 0.953504 -1.6918 0
M  V30 1739 O 169.357 1.67266 -0.992594 0
M  V30 1740 C 169.64 -0.760429 -3.51979 0
M  V30 1741 C 169.493 -2.25747 -3.89048 0
M  V30 1742 C 170.812 -0.232148 -4.39487 0
M  V30 1743 H 167.931 -0.180746 -0.714493 0
M  V30 1744 H 170.573 -1.10052 -1.54882 0
M  V30 1745 H 168.723 -0.243715 -3.87735 0
M  V30 1746 H 170.395 -2.84204 -3.63354 0
M  V30 1747 H 168.638 -2.72694 -3.37373 0
M  V30 1748 H 169.309 -2.39491 -4.97341 0
M  V30 1749 H 171.785 -0.674314 -4.106 0
M  V30 1750 H 170.661 -0.448355 -5.47066 0
M  V30 1751 H 170.922 0.866297 -4.33529 0
M  V30 1752 N 169.982 1.44106 -0.638065 0
M  V30 1753 C 171.21 2.06336 -0.152615 0
M  V30 1754 C 171.625 1.47731 1.17563 0
M  V30 1755 O 170.982 0.602806 1.72257 0
M  V30 1756 C 171.033 3.61479 -0.0391491 0
M  V30 1757 O 170.754 4.17903 -1.31487 0
M  V30 1758 C 172.255 4.40757 0.474176 0
M  V30 1759 H 169.475 0.665862 -0.0828776 0
M  V30 1760 H 172.019 1.84862 -0.87443 0
M  V30 1761 H 170.174 3.82191 0.633142 0
M  V30 1762 H 170.588 5.11416 -1.16421 0
M  V30 1763 H 172.062 5.49707 0.502562 0
M  V30 1764 H 172.539 4.12697 1.50258 0
M  V30 1765 H 173.145 4.24979 -0.165102 0
M  V30 1766 N 171.46 0.379036 1.52974 0
M  V30 1767 C 172.706 -0.206727 2.01744 0
M  V30 1768 C 173.039 -1.47314 1.26539 0
M  V30 1769 O 172.314 -1.91084 0.362903 0
M  V30 1770 C 172.597 -0.485066 3.56818 0
M  V30 1771 C 172.45 0.795919 4.42702 0
M  V30 1772 C 173.769 -1.28003 4.21074 0
M  V30 1773 H 170.888 -0.0736607 0.73331 0
M  V30 1774 H 173.53 0.506581 1.83122 0
M  V30 1775 H 171.68 -1.09272 3.72816 0
M  V30 1776 H 173.352 1.43307 4.38476 0
M  V30 1777 H 171.595 1.41344 4.10127 0
M  V30 1778 H 172.266 0.555947 5.49193 0
M  V30 1779 H 174.742 -0.765867 4.08991 0
M  V30 1780 H 173.618 -1.44352 5.29579 0
M  V30 1781 H 173.879 -2.29236 3.78026 0
M  V30 1782 N 172.938 -1.57226 0.108567 0
M  V30 1783 C 174.163 -1.99604 -0.563303 0
M  V30 1784 C 174.588 -0.987563 -1.6009 0
M  V30 1785 O 173.946 0.0421687 -1.81251 0
M  V30 1786 C 173.994 -3.40902 -1.17552 0
M  V30 1787 O 173.098 -3.42896 -2.2912 0
M  V30 1788 H 172.439 -0.648704 -0.1417 0
M  V30 1789 H 174.969 -2.03679 0.193961 0
M  V30 1790 H 174.979 -3.78886 -1.51357 0
M  V30 1791 H 173.654 -4.1382 -0.415445 0
M  V30 1792 H 172.231 -3.1672 -1.96832 0
M  V30 1793 N 174.416 0.165178 -1.56732 0
M  V30 1794 C 175.641 0.900253 -1.86843 0
M  V30 1795 C 176.066 1.74766 -0.695596 0
M  V30 1796 O 175.424 1.77786 0.35522 0
M  V30 1797 C 175.472 1.74777 -3.15413 0
M  V30 1798 O 174.576 2.85007 -2.98068 0
M  V30 1799 H 173.917 0.251832 -0.614391 0
M  V30 1800 H 176.447 0.161468 -2.03962 0
M  V30 1801 H 176.457 2.14646 -3.46974 0
M  V30 1802 H 175.132 1.12537 -4.00385 0
M  V30 1803 H 173.709 2.48676 -2.77875 0
M  V30 1804 N 175.894 1.51508 0.433938 0
M  V30 1805 C 176.857 1.72473 1.50949 0
M  V30 1806 C 177.857 0.594725 1.49398 0
M  V30 1807 O 179.047 0.862315 1.5136 0
M  V30 1808 C 176.179 1.78431 2.90474 0
M  V30 1809 H 177.372 2.68467 1.33662 0
M  V30 1810 H 174.925 1.41549 0.662836 0
M  V30 1811 H 175.66 0.842645 3.13161 0
M  V30 1812 H 175.445 2.60558 2.93005 0
M  V30 1813 H 176.935 1.96479 3.68491 0
M  V30 1814 N 177.372 -0.689602 1.41712 0
M  V30 1815 C 178.597 -1.48329 1.44959 0
M  V30 1816 C 179.022 -1.8801 0.0581283 0
M  V30 1817 O 178.38 -1.55026 -0.940035 0
M  V30 1818 C 178.428 -2.71835 2.36935 0
M  V30 1819 O 177.532 -3.69549 1.8305 0
M  V30 1820 H 176.873 -0.446199 0.491734 0
M  V30 1821 H 179.403 -0.847127 1.86239 0
M  V30 1822 H 179.413 -3.20076 2.53013 0
M  V30 1823 H 178.088 -2.42291 3.38035 0
M  V30 1824 H 176.665 -3.2851 1.76452 0
M  V30 1825 N 178.85 -1.27639 -0.924453 0
M  V30 1826 C 180.078 -1.16989 -1.70649 0
M  V30 1827 C 180.493 0.272869 -1.86818 0
M  V30 1828 O 179.85 1.18549 -1.38753 0
M  V30 1829 C 179.901 -1.85229 -3.10439 0
M  V30 1830 O 179.622 -3.23868 -2.95028 0
M  V30 1831 C 181.123 -1.80746 -4.04779 0
M  V30 1832 H 178.343 -0.406595 -0.53378 0
M  V30 1833 H 180.887 -1.68569 -1.15778 0
M  V30 1834 H 179.042 -1.37545 -3.6216 0
M  V30 1835 H 179.456 -3.57889 -3.83426 0
M  V30 1836 H 180.93 -2.33101 -5.00368 0
M  V30 1837 H 181.407 -0.777499 -4.32263 0
M  V30 1838 H 182.013 -2.28059 -3.58984 0
M  V30 1839 N 180.328 1.1314 -1.09713 0
M  V30 1840 C 181.275 2.18642 -0.739196 0
M  V30 1841 C 182.245 1.63706 0.280978 0
M  V30 1842 O 183.43 1.90111 0.161946 0
M  V30 1843 C 180.57 3.44685 -0.169102 0
M  V30 1844 C 179.683 4.13711 -1.24367 0
M  V30 1845 C 178.818 5.27379 -0.636019 0
M  V30 1846 C 177.857 5.88259 -1.69169 0
M  V30 1847 N 176.994 6.93352 -1.10485 0
M  V30 1848 H 181.834 2.48607 -1.64312 0
M  V30 1849 H 179.371 1.22066 -0.820875 0
M  V30 1850 H 181.329 4.16815 0.179256 0
M  V30 1851 H 179.959 3.15161 0.698079 0
M  V30 1852 H 179.011 3.39835 -1.70927 0
M  V30 1853 H 180.323 4.55037 -2.04311 0
M  V30 1854 H 179.477 6.06238 -0.236677 0
M  V30 1855 H 178.216 4.8731 0.194928 0
M  V30 1856 H 177.221 5.08092 -2.10055 0
M  V30 1857 H 178.446 6.30399 -2.52536 0
M  V30 1858 H 176.392 6.55335 -0.295234 0
M  V30 1859 H 176.309 7.33236 -1.84121 0
M  V30 1860 H 177.577 7.76057 -0.73181 0
M  V30 1861 N 181.806 0.884767 1.30421 0
M  V30 1862 C 183.054 0.502112 1.95763 0
M  V30 1863 C 183.375 -0.951815 1.70192 0
M  V30 1864 O 182.645 -1.6692 1.0254 0
M  V30 1865 H 181.225 0.182694 0.724315 0
M  V30 1866 H 183.887 1.1278 1.58955 0
M  V30 1867 H 182.983 0.672188 3.04775 0
M  V30 1868 N 183.284 -1.43765 0.645699 0
M  V30 1869 C 184.695 -1.85193 0.236719 0
M  V30 1870 C 185.046 -1.54045 -1.21509 0
M  V30 1871 O 184.171 -0.985694 -1.92647 0
M  V30 1872 C 184.766 -3.36151 0.422845 0
M  V30 1873 C 183.325 -3.76338 0.0682492 0
M  V30 1874 C 182.472 -2.67538 0.729306 0
M  V30 1875 H 185.423 -1.34025 0.849883 0
M  V30 1876 H 185.444 -3.79032 -0.333904 0
M  V30 1877 H 184.956 -3.5879 1.47958 0
M  V30 1878 H 183.057 -3.59312 -0.986179 0
M  V30 1879 H 183.17 -4.76603 0.488469 0
M  V30 1880 H 181.534 -2.54176 0.163235 0
M  V30 1881 H 182.317 -2.93006 1.78892 0
M  V30 1882 N 184.763 -0.387143 -1.52771 0
M  V30 1883 C 185.988 0.198407 -2.06449 0
M  V30 1884 C 186.413 1.39918 -1.25716 0
M  V30 1885 O 185.771 1.79099 -0.281657 0
M  V30 1886 C 185.819 0.548893 -3.56398 0
M  V30 1887 O 184.923 1.64315 -3.78252 0
M  V30 1888 H 184.264 0.0237731 -0.663574 0
M  V30 1889 H 186.794 -0.553989 -1.96957 0
M  V30 1890 H 186.804 0.813812 -3.99801 0
M  V30 1891 H 185.479 -0.329005 -4.14597 0
M  V30 1892 H 184.056 1.37211 -3.46738 0
M  V30 1893 N 186.241 1.57166 -0.116904 0
M  V30 1894 C 187.487 1.95412 0.542405 0
M  V30 1895 C 187.82 1.00019 1.66463 0
M  V30 1896 O 187.095 0.0370346 1.94465 0
M  V30 1897 C 187.378 3.43615 1.07708 0
M  V30 1898 C 187.231 4.49781 -0.0415868 0
M  V30 1899 C 188.55 3.93616 1.96861 0
M  V30 1900 H 185.669 0.710543 0.195696 0
M  V30 1901 H 188.311 1.89027 -0.192038 0
M  V30 1902 H 186.461 3.49187 1.70296 0
M  V30 1903 H 188.133 4.56308 -0.676793 0
M  V30 1904 H 186.376 4.28033 -0.705019 0
M  V30 1905 H 187.047 5.50733 0.373717 0
M  V30 1906 H 189.523 3.90335 1.44146 0
M  V30 1907 H 188.399 4.97838 2.3119 0
M  V30 1908 H 188.66 3.34188 2.89432 0
M  V30 1909 N 187.719 -0.156864 1.56817 0
M  V30 1910 C 188.966 -0.871125 1.82805 0
M  V30 1911 C 189.294 -1.81611 0.696262 0
M  V30 1912 O 188.549 -1.93141 -0.315459 0
M  V30 1913 C 188.848 -1.68737 3.1506 0
M  V30 1914 C 188.514 -0.890045 4.42028 0
M  V30 1915 C 187.176 -0.670042 4.76512 0
M  V30 1916 C 189.528 -0.331769 5.20143 0
M  V30 1917 C 186.856 0.119104 5.86579 0
M  V30 1918 C 189.208 0.444365 6.31037 0
M  V30 1919 C 187.872 0.675035 6.64078 0
M  V30 1920 H 187.142 -0.318767 0.668931 0
M  V30 1921 H 189.789 -0.135274 1.91022 0
M  V30 1922 H 188.094 -2.49304 3.0225 0
M  V30 1923 H 189.791 -2.24331 3.3238 0
M  V30 1924 H 186.381 -1.07157 4.14988 0
M  V30 1925 H 190.565 -0.489043 4.93885 0
M  V30 1926 H 185.821 0.307417 6.10627 0
M  V30 1927 H 189.995 0.884139 6.90765 0
M  V30 1928 H 187.622 1.28839 7.49203 0
M  V30 1929 N 189.197 -1.51736 -0.425897 0
M  V30 1930 C 190.608 -1.5732 -1.00536 0
M  V30 1931 C 190.959 -0.403537 -1.92005 0
M  V30 1932 O 190.084 0.478256 -2.11049 0
M  V30 1933 C 190.679 -2.85119 -1.8301 0
M  V30 1934 C 189.238 -2.93236 -2.35987 0
M  V30 1935 C 188.385 -2.52098 -1.15508 0
M  V30 1936 H 191.336 -1.57348 -0.206739 0
M  V30 1937 H 191.357 -2.69526 -2.68581 0
M  V30 1938 H 190.869 -3.7023 -1.16411 0
M  V30 1939 H 188.97 -2.12581 -3.06007 0
M  V30 1940 H 189.083 -3.9713 -2.68001 0
M  V30 1941 H 187.447 -2.05558 -1.50393 0
M  V30 1942 H 188.23 -3.39565 -0.505014 0
M  V30 1943 N 190.675 0.682077 -1.42076 0
M  V30 1944 C 191.605 1.80796 -1.47767 0
M  V30 1945 C 192.586 1.6677 -0.334954 0
M  V30 1946 O 193.771 1.863 -0.548264 0
M  V30 1947 C 190.901 3.19038 -1.37229 0
M  V30 1948 C 189.855 3.47789 -2.49453 0
M  V30 1949 C 189.181 4.8553 -2.23975 0
M  V30 1950 C 190.481 3.45411 -3.91776 0
M  V30 1951 H 192.175 1.7629 -2.41997 0
M  V30 1952 H 189.721 0.846721 -1.16476 0
M  V30 1953 H 191.674 3.97528 -1.39821 0
M  V30 1954 H 190.398 3.24204 -0.394907 0
M  V30 1955 H 189.057 2.71657 -2.46166 0
M  V30 1956 H 188.705 4.87337 -1.24547 0
M  V30 1957 H 188.405 5.0573 -2.99184 0
M  V30 1958 H 189.929 5.66312 -2.28304 0
M  V30 1959 H 191.343 4.13882 -3.96705 0
M  V30 1960 H 189.74 3.77145 -4.66778 0
M  V30 1961 H 190.81 2.44122 -4.18966 0
M  V30 1962 N 192.153 1.28127 0.917671 0
M  V30 1963 C 193.116 1.11744 2.00115 0
M  V30 1964 C 194.116 0.0583052 1.60694 0
M  V30 1965 O 195.306 0.303755 1.71531 0
M  V30 1966 C 192.438 0.704862 3.33533 0
M  V30 1967 H 193.631 2.07966 2.16079 0
M  V30 1968 H 191.184 1.11058 1.09981 0
M  V30 1969 H 191.919 -0.258299 3.2327 0
M  V30 1970 H 191.704 1.4699 3.63505 0
M  V30 1971 H 193.194 0.612768 4.1308 0
M  V30 1972 N 193.631 -1.12557 1.10312 0
M  V30 1973 C 195.042 -1.65574 0.862678 0
M  V30 1974 C 195.393 -1.86566 -0.607256 0
M  V30 1975 O 194.518 -1.59121 -1.46662 0
M  V30 1976 C 195.113 -3.00776 1.55947 0
M  V30 1977 C 193.672 -3.50748 1.36576 0
M  V30 1978 C 192.819 -2.25797 1.60968 0
M  V30 1979 H 195.77 -0.963552 1.26101 0
M  V30 1980 H 195.791 -3.67185 0.997753 0
M  V30 1981 H 195.303 -2.85465 2.62928 0
M  V30 1982 H 193.404 -3.71245 0.317531 0
M  V30 1983 H 193.517 -4.30289 2.10686 0
M  V30 1984 H 191.881 -2.32841 1.03234 0
M  V30 1985 H 192.664 -2.13043 2.69198 0
M  V30 1986 N 195.109 -0.891671 -1.2995 0
M  V30 1987 C 196.349 -0.520296 -1.97667 0
M  V30 1988 C 196.713 0.914797 -1.68806 0
M  V30 1989 O 197.914 1.39263 -2.29911 0
M  V30 1990 C 196.185 -0.795222 -3.48441 0
M  V30 1991 S 197.744 -0.526953 -4.35624 0
M  V30 1992 H 194.562 -0.19333 -0.684211 0
M  V30 1993 H 197.164 -1.15238 -1.57926 0
M  V30 1994 H 195.868 -1.83805 -3.66938 0
M  V30 1995 H 195.399 -0.15095 -3.9311 0
M  V30 1996 H 197.414 0.631533 -4.92165 0
M  V30 1997 N 196.587 1.43421 -0.653314 0
M  V30 1998 C 197.812 2.06678 -0.172846 0
M  V30 1999 C 198.237 1.48648 1.15262 0
M  V30 2000 O 197.595 0.596457 1.71208 0
M  V30 2001 C 197.643 3.60474 -0.0953184 0
M  V30 2002 O 196.747 4.01487 0.942442 0
M  V30 2003 H 196.088 0.657181 -0.0949155 0
M  V30 2004 H 198.618 1.83925 -0.896265 0
M  V30 2005 H 198.628 4.07905 0.0879728 0
M  V30 2006 H 197.303 4.02088 -1.06291 0
M  V30 2007 H 195.88 3.65646 0.731932 0
M  V30 2008 N 198.065 0.39524 1.52563 0
M  V30 2009 C 199.481 0.0454682 1.59535 0
M  V30 2010 C 199.681 -1.44056 1.4089 0
M  V30 2011 O 198.737 -2.20579 1.22888 0
M  V30 2012 C 200.05 0.527963 2.96029 0
M  V30 2013 C 201.598 0.484733 3.09224 0
M  V30 2014 C 202.073 0.943512 4.48176 0
M  V30 2015 N 203.564 0.899765 4.54377 0
M  V30 2016 C 204.299 1.22609 5.60138 0
M  V30 2017 N 203.795 1.62319 6.73516 0
M  V30 2018 N 205.588 1.14696 5.50274 0
M  V30 2019 H 197.739 1.36261 1.62931 0
M  V30 2020 H 200.002 0.558887 0.765735 0
M  V30 2021 H 199.708 1.56607 3.14908 0
M  V30 2022 H 199.582 -0.0698056 3.77135 0
M  V30 2023 H 201.969 -0.544298 2.90037 0
M  V30 2024 H 202.05 1.11838 2.30056 0
M  V30 2025 H 201.694 1.9708 4.68104 0
M  V30 2026 H 201.624 0.286817 5.25818 0
M  V30 2027 H 204.115 0.607632 3.72983 0
M  V30 2028 H 204.428 1.85567 7.5019 0
M  V30 2029 H 202.773 1.66211 6.74833 0
M  V30 2030 H 205.964 0.835701 4.6058 0
M  V30 2031 H 206.137 1.40459 6.32594 0
M  V30 2032 N 199.544 -1.57102 0.125237 0
M  V30 2033 C 200.769 -2.0019 -0.542101 0
M  V30 2034 C 201.194 -1.00449 -1.59034 0
M  V30 2035 O 200.552 0.0229423 -1.81285 0
M  V30 2036 C 200.6 -3.42129 -1.13929 0
M  V30 2037 O 199.704 -3.45307 -2.2547 0
M  V30 2038 H 199.045 -0.650171 -0.134812 0
M  V30 2039 H 201.575 -2.03461 0.215553 0
M  V30 2040 H 201.585 -3.80471 -1.4733 0
M  V30 2041 H 200.26 -4.14237 -0.371531 0
M  V30 2042 H 198.837 -3.1879 -1.93462 0
M  V30 2043 N 201.022 0.148545 -1.56898 0
M  V30 2044 C 202.25 0.876389 -1.87422 0
M  V30 2045 C 202.665 1.74809 -0.713256 0
M  V30 2046 O 202.022 1.79725 0.317025 0
M  V30 2047 C 202.073 1.73438 -3.17178 0
M  V30 2048 O 201.794 0.897809 -4.28802 0
M  V30 2049 C 203.295 2.56993 -3.61205 0
M  V30 2050 H 200.515 0.253489 -0.621277 0
M  V30 2051 H 203.059 0.141798 -2.04008 0
M  V30 2052 H 201.214 2.42205 -3.0235 0
M  V30 2053 H 201.628 1.48672 -5.02988 0
M  V30 2054 H 203.102 3.12773 -4.54838 0
M  V30 2055 H 203.579 3.32958 -2.86419 0
M  V30 2056 H 204.185 1.9352 -3.78722 0
M  V30 2057 N 202.5 1.5196 0.417844 0
M  V30 2058 C 203.725 1.69717 1.1921 0
M  V30 2059 C 204.15 0.402148 1.83751 0
M  V30 2060 O 203.508 -0.639593 1.69643 0
M  V30 2061 C 203.556 2.82794 2.2374 0
M  V30 2062 O 202.66 2.47756 3.29683 0
M  V30 2063 H 202.001 0.565263 0.348387 0
M  V30 2064 H 204.531 1.98621 0.490985 0
M  V30 2065 H 204.541 3.07452 2.68212 0
M  V30 2066 H 203.216 3.76756 1.76146 0
M  V30 2067 H 201.793 2.33739 2.90552 0
M  V30 2068 N 203.978 -0.674533 1.42435 0
M  V30 2069 C 204.888 -1.81751 1.48337 0
M  V30 2070 C 205.904 -1.69975 0.372099 0
M  V30 2071 O 207.08 -1.91521 0.62304 0
M  V30 2072 C 204.145 -3.17895 1.38361 0
M  V30 2073 C 203.206 -3.41625 2.59982 0
M  V30 2074 C 202.439 -4.71274 2.50473 0
M  V30 2075 O 202.662 -5.49197 1.54075 0
M  V30 2076 O 201.596 -4.96254 3.4061 0
M  V30 2077 H 205.422 -1.79728 2.44809 0
M  V30 2078 H 203.007 -0.830312 1.24202 0
M  V30 2079 H 204.889 -3.99136 1.35161 0
M  V30 2080 H 203.564 -3.20555 0.450144 0
M  V30 2081 H 202.471 -2.60231 2.68757 0
M  V30 2082 H 203.804 -3.43796 3.52229 0
M  V30 2083 N 205.456 -1.28612 -0.910864 0
M  V30 2084 C 206.681 -1.1891 -1.69927 0
M  V30 2085 C 207.106 0.248372 -1.86453 0
M  V30 2086 O 206.464 1.17961 -1.37676 0
M  V30 2087 C 206.512 -1.89578 -3.06745 0
M  V30 2088 O 205.616 -1.20521 -3.94396 0
M  V30 2089 H 204.957 -0.412632 -0.520222 0
M  V30 2090 H 207.487 -1.69985 -1.1387 0
M  V30 2091 H 207.497 -1.97597 -3.56958 0
M  V30 2092 H 206.172 -2.94136 -2.94035 0
M  V30 2093 H 204.749 -1.20684 -3.52831 0
M  V30 2094 N 206.934 1.1197 -1.10907 0
M  V30 2095 C 208.162 1.87402 -0.876824 0
M  V30 2096 C 208.577 1.79894 0.573025 0
M  V30 2097 O 207.934 1.17629 1.39534 0
M  V30 2098 C 207.985 3.36428 -1.32282 0
M  V30 2099 O 207.706 3.43765 -2.71582 0
M  V30 2100 C 209.207 4.28783 -1.12518 0
M  V30 2101 H 206.427 0.592793 -0.314384 0
M  V30 2102 H 208.971 1.41649 -1.47499 0
M  V30 2103 H 207.126 3.79706 -0.768229 0
M  V30 2104 H 207.54 4.3652 -2.90776 0
M  V30 2105 H 209.014 5.31613 -1.48633 0
M  V30 2106 H 209.491 4.39153 -0.0642394 0
M  V30 2107 H 210.097 3.91291 -1.66648 0
M  V30 2108 N 208.412 0.89855 1.29475 0
M  V30 2109 C 209.375 0.380272 2.26023 0
M  V30 2110 C 210.375 -0.484891 1.53315 0
M  V30 2111 O 211.565 -0.290108 1.71767 0
M  V30 2112 C 208.697 -0.45651 3.3783 0
M  V30 2113 H 209.89 1.23295 2.73383 0
M  V30 2114 H 207.443 0.676589 1.40897 0
M  V30 2115 H 208.178 -1.32922 2.95808 0
M  V30 2116 H 207.963 0.163393 3.91759 0
M  V30 2117 H 209.453 -0.810466 4.0966 0
M  V30 2118 N 209.89 -1.43072 0.660911 0
M  V30 2119 C 210.853 -2.29194 -0.0166406 0
M  V30 2120 C 211.853 -1.42609 -0.742912 0
M  V30 2121 O 213.043 -1.64155 -0.583004 0
M  V30 2122 C 210.175 -3.24831 -1.0343 0
M  V30 2123 H 211.368 -2.90596 0.741208 0
M  V30 2124 H 208.921 -1.5048 0.422532 0
M  V30 2125 H 209.656 -2.68339 -1.82111 0
M  V30 2126 H 209.441 -3.88676 -0.517082 0
M  V30 2127 H 210.931 -3.89451 -1.50723 0
M  V30 2128 N 211.368 -0.403325 -1.52352 0
M  V30 2129 C 212.298 0.416205 -2.29761 0
M  V30 2130 C 213.279 1.05123 -1.33728 0
M  V30 2131 O 214.464 1.06134 -1.62632 0
M  V30 2132 C 211.594 1.53624 -3.11475 0
M  V30 2133 C 210.548 1.02653 -4.15507 0
M  V30 2134 C 209.874 2.23971 -4.85532 0
M  V30 2135 C 211.174 0.08463 -5.22231 0
M  V30 2136 H 212.868 -0.229701 -2.98518 0
M  V30 2137 H 210.414 -0.111913 -1.43564 0
M  V30 2138 H 212.367 2.1165 -3.64393 0
M  V30 2139 H 211.091 2.20994 -2.40477 0
M  V30 2140 H 209.75 0.46871 -3.63591 0
M  V30 2141 H 209.398 2.89883 -4.11068 0
M  V30 2142 H 209.098 1.90521 -5.55856 0
M  V30 2143 H 210.622 2.82614 -5.41259 0
M  V30 2144 H 212.036 0.573509 -5.70424 0
M  V30 2145 H 210.433 -0.160783 -5.99885 0
M  V30 2146 H 211.503 -0.86237 -4.7717 0
M  V30 2147 N 212.846 1.57033 -0.133567 0
M  V30 2148 C 214.094 1.953 0.519848 0
M  V30 2149 C 214.415 1.01866 1.66278 0
M  V30 2150 O 213.685 0.0776513 1.95746 0
M  V30 2151 H 212.265 0.721091 0.195032 0
M  V30 2152 H 214.927 1.93809 -0.205921 0
M  V30 2153 H 214.023 2.98695 0.904854 0
M  V30 2154 N 214.325 -0.140222 1.56975 0
M  V30 2155 C 215.565 -0.857823 1.85528 0
M  V30 2156 C 215.929 -1.78039 0.718768 0
M  V30 2157 O 217.13 -2.53795 0.885521 0
M  V30 2158 C 215.401 -1.60615 3.19277 0
M  V30 2159 S 216.96 -2.36824 3.69405 0
M  V30 2160 H 213.778 -0.286727 0.650622 0
M  V30 2161 H 216.38 -0.117408 1.95147 0
M  V30 2162 H 215.084 -0.919994 3.99955 0
M  V30 2163 H 214.615 -2.38735 3.12681 0
M  V30 2164 H 216.63 -3.62148 3.3921 0
M  V30 2165 N 215.803 -1.52179 -0.40978 0
M  V30 2166 C 216.733 -1.78435 -1.5061 0
M  V30 2167 C 217.714 -0.635295 -1.57791 0
M  V30 2168 O 218.899 -0.880823 -1.73076 0
M  V30 2169 C 216.029 -1.93444 -2.88439 0
M  V30 2170 C 214.983 -3.09038 -2.96108 0
M  V30 2171 C 214.309 -3.09268 -4.36185 0
M  V30 2172 C 215.609 -4.48508 -2.67652 0
M  V30 2173 H 217.303 -2.70237 -1.28889 0
M  V30 2174 H 214.849 -1.30036 -0.618605 0
M  V30 2175 H 216.802 -2.10394 -3.65119 0
M  V30 2176 H 215.526 -0.983129 -3.11452 0
M  V30 2177 H 214.185 -2.91837 -2.21872 0
M  V30 2178 H 213.833 -2.11861 -4.56206 0
M  V30 2179 H 213.533 -3.86907 -4.42241 0
M  V30 2180 H 215.057 -3.28348 -5.14801 0
M  V30 2181 H 216.471 -4.65918 -3.34056 0
M  V30 2182 H 214.868 -5.28059 -2.85085 0
M  V30 2183 H 215.938 -4.56649 -1.63095 0
M  V30 2184 N 217.281 0.66697 -1.42791 0
M  V30 2185 C 218.527 1.4291 -1.43891 0
M  V30 2186 C 218.86 1.94114 -0.0578972 0
M  V30 2187 O 218.135 1.71414 0.91911 0
M  V30 2188 C 218.418 2.62049 -2.46987 0
M  V30 2189 C 218.271 2.16426 -3.94309 0
M  V30 2190 C 219.59 3.64266 -2.46978 0
M  V30 2191 H 216.709 0.518306 -0.523954 0
M  V30 2192 H 219.351 0.757321 -1.74255 0
M  V30 2193 H 217.501 3.19361 -2.21225 0
M  V30 2194 H 219.173 1.64221 -4.31079 0
M  V30 2195 H 217.416 1.47925 -4.078 0
M  V30 2196 H 218.087 3.02038 -4.62036 0
M  V30 2197 H 220.563 3.16686 -2.69906 0
M  V30 2198 H 219.439 4.45196 -3.21079 0
M  V30 2199 H 219.7 4.15927 -1.49857 0
M  V30 2200 N 218.759 1.29093 0.90403 0
M  V30 2201 C 219.706 1.13853 2.00764 0
M  V30 2202 C 220.676 0.0330084 1.66067 0
M  V30 2203 O 221.861 0.199733 1.89752 0
M  V30 2204 C 219.001 0.816537 3.35301 0
M  V30 2205 C 218.114 2.00206 3.82807 0
M  V30 2206 C 217.249 1.61983 5.059 0
M  V30 2207 C 216.288 2.77143 5.45764 0
M  V30 2208 N 215.425 2.39346 6.60044 0
M  V30 2209 H 220.265 2.08276 2.13132 0
M  V30 2210 H 217.802 1.03648 1.04381 0
M  V30 2211 H 219.76 0.610557 4.12708 0
M  V30 2212 H 218.39 -0.090779 3.22672 0
M  V30 2213 H 217.442 2.31988 3.01473 0
M  V30 2214 H 218.754 2.86512 4.08304 0
M  V30 2215 H 217.908 1.37649 5.90879 0
M  V30 2216 H 216.647 0.728202 4.82233 0
M  V30 2217 H 215.652 3.02165 4.59322 0
M  V30 2218 H 216.877 3.66964 5.71414 0
M  V30 2219 H 214.823 1.52665 6.37989 0
M  V30 2220 H 214.74 3.19185 6.85315 0
M  V30 2221 H 216.008 2.1832 7.48303 0
M  V30 2222 N 220.237 -1.11381 1.11499 0
M  V30 2223 C 221.514 -1.7955 0.775965 0
M  V30 2224 C 221.894 -1.97859 -0.73588 0
M  V30 2225 O 221.242 -1.56376 -1.66609 0
M  V30 2226 C 221.452 -3.13196 1.53977 0
M  V30 2227 C 222.8 -3.88227 1.71944 0
M  V30 2228 O 223.824 -3.22887 1.50407 0
M  V30 2229 O 222.683 -5.05477 2.07738 0
M  V30 2230 H 219.777 -0.777728 0.28119 0
M  V30 2231 H 222.323 -1.18118 1.21845 0
M  V30 2232 H 221.095 -2.95229 2.56818 0
M  V30 2233 H 220.718 -3.82342 1.09088 0
M  V30 2234 N 221.715 -0.905404 -1.28997 0
M  V30 2235 C 222.945 -0.549049 -1.99171 0
M  V30 2236 C 223.353 0.87203 -1.67906 0
M  V30 2237 O 222.696 1.58796 -0.923561 0
M  V30 2238 C 222.758 -0.668306 -3.53234 0
M  V30 2239 C 222.422 -2.0574 -4.08069 0
M  V30 2240 C 223.419 -3.0292 -4.22534 0
M  V30 2241 C 221.104 -2.36833 -4.42962 0
M  V30 2242 C 223.098 -4.29314 -4.71135 0
M  V30 2243 C 220.785 -3.63467 -4.91258 0
M  V30 2244 C 221.783 -4.59522 -5.053 0
M  V30 2245 O 221.471 -5.83907 -5.52546 0
M  V30 2246 H 221.203 -0.208784 -0.64295 0
M  V30 2247 H 223.757 -1.21836 -1.65363 0
M  V30 2248 H 221.987 0.0580547 -3.86656 0
M  V30 2249 H 223.676 -0.320273 -4.04634 0
M  V30 2250 H 224.442 -2.80216 -3.95859 0
M  V30 2251 H 220.321 -1.62824 -4.31288 0
M  V30 2252 H 223.865 -5.04293 -4.8201 0
M  V30 2253 H 219.762 -3.86 -5.17372 0
M  V30 2254 H 220.53 -5.86578 -5.70849 0
M  V30 2255 N 223.193 1.4272 -0.668489 0
M  V30 2256 C 224.44 2.01624 -0.18814 0
M  V30 2257 C 224.768 1.5282 1.20317 0
M  V30 2258 O 224.023 0.718323 1.8204 0
M  V30 2259 C 224.322 3.57021 -0.164499 0
M  V30 2260 C 223.988 4.25232 -1.49962 0
M  V30 2261 C 222.65 4.4358 -1.8652 0
M  V30 2262 C 225.002 4.63727 -2.37921 0
M  V30 2263 C 222.33 4.97694 -3.10674 0
M  V30 2264 C 224.682 5.19218 -3.6138 0
M  V30 2265 C 223.346 5.3578 -3.98115 0
M  V30 2266 H 222.616 0.737795 -0.0688454 0
M  V30 2267 H 225.263 1.70991 -0.862225 0
M  V30 2268 H 223.568 3.87285 0.593079 0
M  V30 2269 H 225.265 4.00372 0.224271 0
M  V30 2270 H 221.855 4.11306 -1.20522 0
M  V30 2271 H 226.039 4.4923 -2.10964 0
M  V30 2272 H 221.295 5.08702 -3.39164 0
M  V30 2273 H 225.469 5.4799 -4.29743 0
M  V30 2274 H 223.096 5.77475 -4.94395 0
M  V30 2275 N 224.671 0.411399 1.52136 0
M  V30 2276 C 226.082 -0.0576826 1.86611 0
M  V30 2277 C 226.433 -1.44238 1.33003 0
M  V30 2278 O 225.558 -2.05759 0.670228 0
M  V30 2279 C 226.153 -0.111448 3.38617 0
M  V30 2280 C 224.712 -0.52487 3.72723 0
M  V30 2281 C 223.859 0.299176 2.75681 0
M  V30 2282 H 226.81 0.628368 1.4573 0
M  V30 2283 H 226.831 -0.926252 3.69054 0
M  V30 2284 H 226.343 0.896488 3.77604 0
M  V30 2285 H 224.444 -1.53936 3.39315 0
M  V30 2286 H 224.557 -0.267681 4.78352 0
M  V30 2287 H 222.921 -0.238814 2.53578 0
M  V30 2288 H 223.704 1.3055 3.17508 0
M  V30 2289 N 226.149 -1.5696 0.141893 0
M  V30 2290 C 227.059 -2.20066 -0.812905 0
M  V30 2291 C 228.075 -1.18344 -1.27557 0
M  V30 2292 O 229.251 -1.50902 -1.33381 0
M  V30 2293 C 226.316 -2.80583 -2.03652 0
M  V30 2294 C 225.377 -3.97414 -1.62359 0
M  V30 2295 C 224.61 -4.55036 -2.78887 0
M  V30 2296 O 224.833 -4.11538 -3.94959 0
M  V30 2297 O 223.767 -5.45376 -2.54653 0
M  V30 2298 H 227.593 -3.02157 -0.305746 0
M  V30 2299 H 225.178 -1.49159 -0.0848799 0
M  V30 2300 H 227.06 -3.19067 -2.75272 0
M  V30 2301 H 225.735 -2.01508 -2.5333 0
M  V30 2302 H 224.642 -3.63656 -0.877775 0
M  V30 2303 H 225.975 -4.77994 -1.17401 0
M  V30 2304 N 227.627 0.131896 -1.57047 0
M  V30 2305 C 229.038 0.690407 -1.73465 0
M  V30 2306 C 229.389 1.8094 -0.758629 0
M  V30 2307 O 228.514 2.16282 0.0713813 0
M  V30 2308 C 229.109 1.25916 -3.14532 0
M  V30 2309 C 227.668 1.76409 -3.32501 0
M  V30 2310 C 226.815 0.658579 -2.69366 0
M  V30 2311 H 229.766 -0.0939144 -1.58422 0
M  V30 2312 H 229.787 2.12892 -3.15369 0
M  V30 2313 H 229.299 0.444515 -3.85546 0
M  V30 2314 H 227.4 2.60391 -2.66509 0
M  V30 2315 H 227.513 1.88241 -4.4057 0
M  V30 2316 H 225.877 1.08899 -2.30246 0
M  V30 2317 H 226.66 -0.14487 -3.42994 0
M  V30 2318 N 229.106 1.52395 0.401703 0
M  V30 2319 C 230.352 1.67065 1.14966 0
M  V30 2320 C 230.685 0.403052 1.89971 0
M  V30 2321 O 229.96 -0.598774 1.85054 0
M  V30 2322 C 230.243 2.8975 2.13815 0
M  V30 2323 C 230.096 4.26578 1.42658 0
M  V30 2324 C 231.415 3.07965 3.14397 0
M  V30 2325 H 228.534 0.607968 0.416587 0
M  V30 2326 H 231.176 1.84965 0.434511 0
M  V30 2327 H 229.326 2.74619 2.74803 0
M  V30 2328 H 230.998 4.53451 0.847329 0
M  V30 2329 H 229.241 4.27639 0.72849 0
M  V30 2330 H 229.912 5.08483 2.14823 0
M  V30 2331 H 232.388 3.22043 2.63491 0
M  V30 2332 H 231.264 3.95308 3.80819 0
M  V30 2333 H 231.525 2.21611 3.82545 0
M  V30 2334 N 230.584 -0.659388 1.43143 0
M  V30 2335 C 231.812 -1.44723 1.47861 0
M  V30 2336 C 232.227 -1.88563 0.0945886 0
M  V30 2337 O 231.584 -1.59108 -0.893915 0
M  V30 2338 C 231.635 -2.68627 2.41913 0
M  V30 2339 O 231.356 -2.26623 3.74932 0
M  V30 2340 C 232.857 -3.62045 2.55809 0
M  V30 2341 H 230.077 -0.444801 0.502387 0
M  V30 2342 H 232.621 -0.808916 1.87821 0
M  V30 2343 H 230.776 -3.28613 2.05164 0
M  V30 2344 H 231.19 -3.06745 4.2545 0
M  V30 2345 H 232.664 -4.45666 3.25708 0
M  V30 2346 H 233.141 -4.08981 1.60099 0
M  V30 2347 H 233.747 -3.07944 2.93344 0
M  V30 2348 N 232.062 -1.29571 -0.897171 0
M  V30 2349 C 233.308 -1.17863 -1.65034 0
M  V30 2350 C 233.641 0.268729 -1.92332 0
M  V30 2351 O 232.916 1.19378 -1.53555 0
M  V30 2352 C 233.199 -1.995 -2.99786 0
M  V30 2353 C 233.052 -3.5239 -2.79538 0
M  V30 2354 C 234.371 -1.82335 -4.00552 0
M  V30 2355 H 231.49 -0.429528 -0.598895 0
M  V30 2356 H 234.132 -1.59072 -1.03905 0
M  V30 2357 H 232.282 -1.64485 -3.51962 0
M  V30 2358 H 233.954 -3.97401 -2.34244 0
M  V30 2359 H 232.197 -3.77187 -2.14273 0
M  V30 2360 H 232.868 -4.04787 -3.75302 0
M  V30 2361 H 235.344 -2.12924 -3.57495 0
M  V30 2362 H 234.22 -2.41801 -4.92771 0
M  V30 2363 H 234.481 -0.779209 -4.35179 0
M  V30 2364 N 233.54 1.10788 -1.12088 0
M  V30 2365 C 234.765 1.87002 -0.896949 0
M  V30 2366 C 235.19 1.79933 0.548261 0
M  V30 2367 O 234.548 1.16662 1.38779 0
M  V30 2368 C 234.596 3.3349 -1.37174 0
M  V30 2369 O 233.7 4.08745 -0.547831 0
M  V30 2370 H 233.041 0.580397 -0.322545 0
M  V30 2371 H 235.571 1.39996 -1.49206 0
M  V30 2372 H 235.581 3.84339 -1.36922 0
M  V30 2373 H 234.256 3.37951 -2.42408 0
M  V30 2374 H 232.833 3.6776 -0.617034 0
M  V30 2375 N 235.018 0.912232 1.28515 0
M  V30 2376 C 236.264 0.554851 1.95686 0
M  V30 2377 C 236.619 -0.89138 1.70506 0
M  V30 2378 O 235.912 -1.62529 1.01464 0
M  V30 2379 C 236.106 0.798392 3.48368 0
M  V30 2380 C 235.935 2.26674 3.88393 0
M  V30 2381 C 234.705 2.91657 4.12631 0
M  V30 2382 C 236.903 3.24303 3.99164 0
M  V30 2383 N 234.885 4.28805 4.39317 0
M  V30 2384 C 236.256 4.4661 4.30046 0
M  V30 2385 C 238.311 3.19723 3.81683 0
M  V30 2386 C 237.014 5.64915 4.45268 0
M  V30 2387 C 239.04 4.37325 3.98121 0
M  V30 2388 C 238.402 5.58406 4.29375 0
M  V30 2389 H 234.501 0.252876 0.739985 0
M  V30 2390 H 237.085 1.17565 1.55199 0
M  V30 2391 H 235.256 0.20688 3.87849 0
M  V30 2392 H 236.988 0.405193 4.02666 0
M  V30 2393 H 233.743 2.42393 4.06869 0
M  V30 2394 H 234.167 4.99712 4.56746 0
M  V30 2395 H 238.809 2.27191 3.56573 0
M  V30 2396 H 236.527 6.57927 4.6921 0
M  V30 2397 H 240.113 4.35282 3.86033 0
M  V30 2398 H 238.993 6.47889 4.41825 0
M  V30 2399 N 236.496 -1.42363 0.676048 0
M  V30 2400 C 237.444 -2.32596 -0.0131507 0
M  V30 2401 C 238.438 -1.49891 -0.789238 0
M  V30 2402 O 239.644 -1.65955 -0.697061 0
M  V30 2403 H 236.019 -0.751647 -0.0230481 0
M  V30 2404 H 237.99 -2.88421 0.765243 0
M  V30 2405 C 236.739 -3.34479 -0.949702 0
M  V30 2406 H 236.062 -3.98158 -0.361938 0
M  V30 2407 H 237.502 -4.00199 -1.4006 0
M  V30 2408 C 235.961 -2.66838 -2.05667 0
M  V30 2409 O 236.491 -2.50124 -3.14326 0
M  V30 2410 N 234.697 -2.25843 -1.82875 0
M  V30 2411 H 234.244 -2.39637 -0.945085 0
M  V30 2412 H 234.202 -1.80918 -2.5713 0
M  V30 2413 N 237.974 -0.419461 -1.51915 0
M  V30 2414 C 239.199 0.154572 -2.06823 0
M  V30 2415 C 239.624 1.3722 -1.28656 0
M  V30 2416 O 238.982 1.78461 -0.319583 0
M  V30 2417 C 239.03 0.473172 -3.57482 0
M  V30 2418 O 238.134 1.56255 -3.81652 0
M  V30 2419 H 237.475 0.0096924 -0.663929 0
M  V30 2420 H 240.005 -0.595642 -1.95738 0
M  V30 2421 H 240.015 0.728825 -4.01438 0
M  V30 2422 H 238.69 -0.416873 -4.13805 0
M  V30 2423 H 237.267 1.29825 -3.49571 0
M  V30 2424 N 239.452 1.56882 -0.150215 0
M  V30 2425 C 240.7 1.9584 0.499105 0
M  V30 2426 C 241.021 1.03623 1.65188 0
M  V30 2427 O 240.291 0.0984084 1.95653 0
M  V30 2428 H 238.871 0.723119 0.187373 0
M  V30 2429 H 241.533 1.9358 -0.226466 0
M  V30 2430 H 240.629 2.99638 0.873122 0
M  V30 2431 N 240.93 -0.123565 1.57115 0
M  V30 2432 C 241.893 -1.13583 1.99076 0
M  V30 2433 C 242.893 -1.34564 0.880296 0
M  V30 2434 O 244.083 -1.31158 1.14644 0
M  V30 2435 C 241.215 -2.49128 2.32698 0
M  V30 2436 H 242.408 -0.775287 2.89706 0
M  V30 2437 H 239.961 -0.36771 1.51913 0
M  V30 2438 H 240.696 -2.90111 1.44934 0
M  V30 2439 H 240.481 -2.35255 3.13684 0
M  V30 2440 H 241.971 -3.2199 2.65918 0
M  V30 2441 N 242.408 -1.52605 -0.393616 0
M  V30 2442 C 243.338 -1.80022 -1.48709 0
M  V30 2443 C 244.319 -0.651995 -1.57108 0
M  V30 2444 O 245.504 -0.89913 -1.72132 0
M  V30 2445 C 242.634 -1.96492 -2.86371 0
M  V30 2446 C 241.588 -3.12161 -2.92813 0
M  V30 2447 C 240.914 -3.13877 -4.3288 0
M  V30 2448 C 242.214 -4.51322 -2.6288 0
M  V30 2449 H 243.908 -2.71589 -1.26015 0
M  V30 2450 H 241.454 -1.30684 -0.604778 0
M  V30 2451 H 243.407 -2.14255 -3.62867 0
M  V30 2452 H 242.131 -1.01611 -3.10391 0
M  V30 2453 H 240.79 -2.94173 -2.18764 0
M  V30 2454 H 240.438 -2.16687 -4.53933 0
M  V30 2455 H 240.138 -3.91576 -4.38112 0
M  V30 2456 H 241.662 -3.33789 -5.1129 0
M  V30 2457 H 243.076 -4.69435 -3.29096 0
M  V30 2458 H 241.473 -5.31053 -2.79468 0
M  V30 2459 H 242.543 -4.58353 -1.58242 0
M  V30 2460 N 243.887 0.651787 -1.4349 0
M  V30 2461 C 245.115 1.43937 -1.48626 0
M  V30 2462 C 245.53 1.8851 -0.104587 0
M  V30 2463 O 244.887 1.5958 0.885464 0
M  V30 2464 C 244.938 2.6734 -2.43334 0
M  V30 2465 O 244.659 2.24631 -3.76128 0
M  V30 2466 C 246.16 3.60683 -2.57726 0
M  V30 2467 H 243.38 0.44213 -0.504739 0
M  V30 2468 H 245.924 0.798944 -1.88248 0
M  V30 2469 H 244.079 3.2752 -2.06904 0
M  V30 2470 H 244.493 3.04485 -4.2707 0
M  V30 2471 H 245.967 4.43933 -3.28067 0
M  V30 2472 H 246.444 4.08126 -1.62265 0
M  V30 2473 H 247.05 3.06384 -2.94973 0
M  V30 2474 N 245.365 1.30045 0.890287 0
M  V30 2475 C 246.59 1.21598 1.68014 0
M  V30 2476 C 247.015 -0.218678 1.86825 0
M  V30 2477 O 246.373 -1.15756 1.39536 0
M  V30 2478 C 246.421 1.94434 3.03691 0
M  V30 2479 O 245.525 1.2678 3.92429 0
M  V30 2480 H 244.866 0.420856 0.513592 0
M  V30 2481 H 247.396 1.71775 1.11151 0
M  V30 2482 H 247.406 2.03251 3.5377 0
M  V30 2483 H 246.081 2.98777 2.89318 0
M  V30 2484 H 244.658 1.26282 3.50866 0
M  V30 2485 N 246.843 -1.10192 1.12674 0
M  V30 2486 C 248.091 -1.81845 0.881861 0
M  V30 2487 C 248.412 -1.85737 -0.593867 0
M  V30 2488 O 247.682 -1.33724 -1.4316 0
M  V30 2489 H 246.262 -0.673432 0.323261 0
M  V30 2490 H 248.924 -1.33316 1.42172 0
M  V30 2491 H 248.02 -2.85288 1.2656 0
M  V30 2492 N 248.321 -0.919034 -1.28029 0
M  V30 2493 C 249.567 -0.555757 -1.95036 0
M  V30 2494 C 249.9 0.899198 -1.72128 0
M  V30 2495 O 249.175 1.64023 -1.04531 0
M  V30 2496 C 249.458 -0.872024 -3.49382 0
M  V30 2497 C 249.311 -2.3801 -3.81669 0
M  V30 2498 C 250.63 -0.37185 -4.38526 0
M  V30 2499 H 247.749 -0.203386 -0.708381 0
M  V30 2500 H 250.391 -1.14924 -1.51303 0
M  V30 2501 H 248.541 -0.366946 -3.86763 0
M  V30 2502 H 250.213 -2.9562 -3.54128 0
M  V30 2503 H 248.456 -2.83289 -3.28526 0
M  V30 2504 H 249.127 -2.55192 -4.8947 0
M  V30 2505 H 251.603 -0.804602 -4.08247 0
M  V30 2506 H 250.479 -0.622173 -5.45362 0
M  V30 2507 H 250.74 0.727934 -4.36066 0
M  V30 2508 N 249.799 1.42003 -0.683588 0
M  V30 2509 C 250.749 2.27997 0.0121992 0
M  V30 2510 C 251.733 1.4156 0.764822 0
M  V30 2511 O 252.925 1.64935 0.642287 0
M  V30 2512 C 250.054 3.29706 0.956482 0
M  V30 2513 C 249.14 4.23625 0.200739 0
M  V30 2514 N 249.531 4.99448 -0.799087 0
M  V30 2515 C 247.829 4.43845 0.437937 0
M  V30 2516 C 248.53 5.68102 -1.25041 0
M  V30 2517 N 247.506 5.40511 -0.578648 0
M  V30 2518 H 251.308 2.84048 -0.754564 0
M  V30 2519 H 248.822 1.54071 -0.513398 0
M  V30 2520 H 250.819 3.90124 1.47 0
M  V30 2521 H 249.479 2.75216 1.72297 0
M  V30 2522 H 250.49 5.04303 -1.17893 0
M  V30 2523 H 247.167 4.00382 1.18325 0
M  V30 2524 H 248.557 6.38913 -2.07942 0
M  V30 2525 N 251.277 0.427512 1.51691 0
M  V30 2526 C 252.505 -0.141191 2.06418 0
M  V30 2527 C 252.92 -1.37303 1.29589 0
M  V30 2528 O 252.277 -1.79059 0.352732 0
M  V30 2529 C 252.328 -0.473266 3.58389 0
M  V30 2530 O 252.049 0.709673 4.32314 0
M  V30 2531 C 253.55 -1.09371 4.29596 0
M  V30 2532 H 250.77 -0.0122747 0.670888 0
M  V30 2533 H 253.314 0.603764 1.95384 0
M  V30 2534 H 251.469 -1.16812 3.69369 0
M  V30 2535 H 251.883 0.42807 5.2275 0
M  V30 2536 H 253.357 -1.27613 5.37046 0
M  V30 2537 H 253.834 -2.072 3.87253 0
M  V30 2538 H 254.44 -0.43853 4.23033 0
M  V30 2539 N 252.755 -1.56801 0.158532 0
M  V30 2540 C 254.002 -1.9649 -0.489679 0
M  V30 2541 C 254.33 -1.04394 -1.6411 0
M  V30 2542 O 253.585 -0.0754401 -1.95555 0
M  V30 2543 C 253.884 -3.4235 -1.02623 0
M  V30 2544 C 253.55 -4.50899 0.00794526 0
M  V30 2545 C 252.212 -4.80312 0.292207 0
M  V30 2546 C 254.564 -5.16333 0.710584 0
M  V30 2547 C 251.892 -5.72461 1.28472 0
M  V30 2548 C 254.244 -6.09553 1.69199 0
M  V30 2549 C 252.908 -6.37339 1.98383 0
M  V30 2550 H 252.178 -0.719009 -0.179186 0
M  V30 2551 H 254.825 -1.8989 0.247798 0
M  V30 2552 H 253.13 -3.45838 -1.84128 0
M  V30 2553 H 254.827 -3.70393 -1.53656 0
M  V30 2554 H 251.417 -4.28015 -0.22379 0
M  V30 2555 H 255.601 -4.93732 0.504174 0
M  V30 2556 H 250.857 -5.92278 1.51714 0
M  V30 2557 H 255.031 -6.59327 2.24189 0
M  V30 2558 H 252.658 -7.08546 2.7544 0
M  V30 2559 N 254.233 0.115231 -1.57178 0
M  V30 2560 C 255.644 0.67197 -1.74188 0
M  V30 2561 C 255.995 1.80125 -0.777777 0
M  V30 2562 O 255.12 2.16346 0.0484376 0
M  V30 2563 C 255.715 1.22573 -3.1585 0
M  V30 2564 C 254.274 1.72872 -3.34353 0
M  V30 2565 C 253.421 0.629972 -2.70049 0
M  V30 2566 H 256.372 -0.110712 -1.58313 0
M  V30 2567 H 256.393 2.09535 -3.17609 0
M  V30 2568 H 255.905 0.403598 -3.85996 0
M  V30 2569 H 254.006 2.5755 -2.69256 0
M  V30 2570 H 254.119 1.83557 -4.42542 0
M  V30 2571 H 252.483 1.0645 -2.31388 0
M  V30 2572 H 253.266 -0.181241 -3.42821 0
M  V30 2573 N 255.711 1.52812 0.385517 0
M  V30 2574 C 256.674 1.77188 1.45386 0
M  V30 2575 C 257.674 0.641953 1.4743 0
M  V30 2576 O 258.864 0.910033 1.4854 0
M  V30 2577 C 255.996 1.87582 2.8465 0
M  V30 2578 H 257.189 2.72583 1.25054 0
M  V30 2579 H 254.742 1.43586 0.617467 0
M  V30 2580 H 255.477 0.941849 3.10322 0
M  V30 2581 H 255.262 2.69748 2.84567 0
M  V30 2582 H 256.752 2.08102 3.62054 0
M  V30 2583 N 257.189 -0.644168 1.43834 0
M  V30 2584 C 258.435 -1.40603 1.46146 0
M  V30 2585 C 258.768 -1.93997 0.0887717 0
M  V30 2586 O 258.043 -1.72854 -0.891724 0
M  V30 2587 C 258.326 -2.58086 2.51124 0
M  V30 2588 C 258.179 -2.10126 3.97702 0
M  V30 2589 C 259.498 -3.60291 2.52742 0
M  V30 2590 H 256.617 -0.509905 0.532134 0
M  V30 2591 H 259.259 -0.729502 1.75437 0
M  V30 2592 H 257.409 -3.15801 2.26278 0
M  V30 2593 H 259.081 -1.57342 4.33637 0
M  V30 2594 H 257.324 -1.41419 4.10101 0
M  V30 2595 H 257.995 -2.94649 4.66783 0
M  V30 2596 H 260.471 -3.12352 2.7491 0
M  V30 2597 H 259.347 -4.40032 3.28121 0
M  V30 2598 H 259.608 -4.1349 1.56455 0
M  V30 2599 N 258.668 -1.30515 -0.883378 0
M  V30 2600 C 259.598 -1.19607 -2.00541 0
M  V30 2601 C 260.579 -0.086346 -1.69881 0
M  V30 2602 O 261.764 -0.268654 -1.92333 0
M  V30 2603 C 258.894 -0.888758 -3.35736 0
M  V30 2604 C 257.848 -1.95659 -3.8066 0
M  V30 2605 C 257.174 -1.50224 -5.13164 0
M  V30 2606 C 258.474 -3.36788 -3.99213 0
M  V30 2607 H 260.168 -2.13476 -2.09925 0
M  V30 2608 H 257.714 -1.02775 -1.00863 0
M  V30 2609 H 259.667 -0.799094 -4.13754 0
M  V30 2610 H 258.391 0.0856125 -3.26488 0
M  V30 2611 H 257.05 -2.03591 -3.04871 0
M  V30 2612 H 256.698 -0.516092 -5.00345 0
M  V30 2613 H 256.398 -2.2165 -5.44192 0
M  V30 2614 H 257.922 -1.42639 -5.93706 0
M  V30 2615 H 259.336 -3.31605 -4.67665 0
M  V30 2616 H 257.733 -4.06314 -4.41621 0
M  V30 2617 H 258.803 -3.78561 -3.03017 0
M  V30 2618 N 260.146 1.09593 -1.13257 0
M  V30 2619 C 261.078 2.16015 -0.766167 0
M  V30 2620 C 262.091 1.61423 0.211303 0
M  V30 2621 O 263.28 1.78498 -0.00863946 0
M  V30 2622 C 260.38 3.38706 -0.114662 0
M  V30 2623 C 259.553 4.22717 -1.12379 0
M  V30 2624 C 258.612 5.23835 -0.498301 0
M  V30 2625 O 257.638 5.573 -1.15781 0
M  V30 2626 N 258.84 5.75886 0.730417 0
M  V30 2627 H 261.605 2.48055 -1.68193 0
M  V30 2628 H 259.166 1.25292 -1.02535 0
M  V30 2629 H 261.158 4.03464 0.315991 0
M  V30 2630 H 259.728 3.04569 0.704011 0
M  V30 2631 H 258.948 3.54122 -1.73179 0
M  V30 2632 H 260.236 4.75673 -1.80589 0
M  V30 2633 H 259.634 5.50911 1.28504 0
M  V30 2634 H 258.191 6.42387 1.10376 0
M  V30 2635 N 261.624 0.925811 1.2754 0
M  V30 2636 C 262.849 0.580924 1.99098 0
M  V30 2637 C 263.274 -0.833555 1.68622 0
M  V30 2638 O 262.632 -1.55903 0.925422 0
M  V30 2639 C 262.68 0.811186 3.51358 0
M  V30 2640 O 261.784 -0.124129 4.12213 0
M  V30 2641 H 261.125 0.223873 0.625122 0
M  V30 2642 H 263.655 1.24455 1.62395 0
M  V30 2643 H 263.665 0.72601 4.01489 0
M  V30 2644 H 262.34 1.84227 3.72872 0
M  V30 2645 H 260.917 0.0108006 3.72898 0
M  V30 2646 N 263.102 -1.41638 0.69111 0
M  V30 2647 C 264.327 -2.06148 0.227583 0
M  V30 2648 C 264.752 -1.51652 -1.11281 0
M  V30 2649 O 264.11 -0.64164 -1.69566 0
M  V30 2650 C 264.158 -3.60095 0.190858 0
M  V30 2651 O 263.262 -4.03845 -0.835664 0
M  V30 2652 H 262.603 -0.654434 0.112306 0
M  V30 2653 H 265.133 -1.81484 0.944714 0
M  V30 2654 H 265.143 -4.07995 0.020207 0
M  V30 2655 H 263.818 -3.99129 1.16915 0
M  V30 2656 H 262.395 -3.67458 -0.63473 0
M  V30 2657 N 264.58 -0.43555 -1.51462 0
M  V30 2658 C 265.828 0.131254 -2.01673 0
M  V30 2659 C 266.149 1.43368 -1.32177 0
M  V30 2660 O 265.419 1.90524 -0.455769 0
M  V30 2661 H 263.999 0.0514954 -0.745223 0
M  V30 2662 H 266.661 -0.577847 -1.86137 0
M  V30 2663 H 265.757 0.308446 -3.10572 0
M  V30 2664 N 266.058 1.56714 -0.166846 0
M  V30 2665 C 266.988 2.20754 0.760913 0
M  V30 2666 C 267.969 1.16178 1.24244 0
M  V30 2667 O 269.154 1.44592 1.29641 0
M  V30 2668 C 266.284 2.84478 1.99223 0
M  V30 2669 C 265.238 3.95053 1.64672 0
M  V30 2670 C 264.564 4.45805 2.95232 0
M  V30 2671 C 265.864 5.14865 0.878155 0
M  V30 2672 H 267.558 2.98537 0.22713 0
M  V30 2673 H 265.104 1.43596 0.107805 0
M  V30 2674 H 267.057 3.27951 2.64624 0
M  V30 2675 H 265.781 2.04056 2.55007 0
M  V30 2676 H 264.44 3.52228 1.01641 0
M  V30 2677 H 264.088 3.62181 3.49047 0
M  V30 2678 H 263.788 5.204 2.7287 0
M  V30 2679 H 265.312 4.91962 3.6167 0
M  V30 2680 H 266.726 5.55059 1.43466 0
M  V30 2681 H 265.123 5.95348 0.753738 0
M  V30 2682 H 266.193 4.84735 -0.126377 0
M  V30 2683 N 267.536 -0.106894 1.57237 0
M  V30 2684 C 268.766 -0.825191 1.89405 0
M  V30 2685 C 269.174 -1.73374 0.757496 0
M  V30 2686 O 268.517 -1.81552 -0.280115 0
M  V30 2687 C 268.579 -1.70102 3.1671 0
M  V30 2688 C 268.243 -0.965523 4.46684 0
M  V30 2689 C 269.24 -0.300741 5.19029 0
M  V30 2690 C 266.925 -0.943105 4.93367 0
M  V30 2691 C 268.919 0.376622 6.36286 0
M  V30 2692 C 266.606 -0.261949 6.10538 0
M  V30 2693 C 267.604 0.396748 6.81847 0
M  V30 2694 O 267.292 1.06701 7.96787 0
M  V30 2695 H 267.024 -0.241852 0.631255 0
M  V30 2696 H 269.578 -0.0921491 2.05193 0
M  V30 2697 H 267.808 -2.47601 2.97036 0
M  V30 2698 H 269.497 -2.29483 3.34802 0
M  V30 2699 H 270.263 -0.309599 4.84011 0
M  V30 2700 H 266.142 -1.44524 4.3776 0
M  V30 2701 H 269.686 0.891334 6.91882 0
M  V30 2702 H 265.583 -0.250896 6.45012 0
M  V30 2703 H 266.351 0.972707 8.127 0
M  V30 2704 N 269.014 -1.53014 -0.377408 0
M  V30 2705 C 270.239 -1.72818 -1.14668 0
M  V30 2706 C 270.664 -0.450725 -1.8262 0
M  V30 2707 O 270.022 0.59439 -1.7128 0
M  V30 2708 C 270.07 -2.88627 -2.16164 0
M  V30 2709 O 269.174 -2.56409 -3.22998 0
M  V30 2710 H 268.515 -0.574301 -0.333278 0
M  V30 2711 H 271.045 -1.99853 -0.438152 0
M  V30 2712 H 271.055 -3.14455 -2.59966 0
M  V30 2713 H 269.73 -3.81294 -1.66095 0
M  V30 2714 H 268.307 -2.4136 -2.84253 0
M  V30 2715 N 270.492 0.636531 -1.44174 0
M  V30 2716 C 271.422 1.76003 -1.53444 0
M  V30 2717 C 272.403 1.65619 -0.387841 0
M  V30 2718 O 273.588 1.84461 -0.607257 0
M  V30 2719 C 270.718 3.14511 -1.4731 0
M  V30 2720 C 269.672 3.39677 -2.60391 0
M  V30 2721 C 268.998 4.78159 -2.39308 0
M  V30 2722 C 270.298 3.32772 -4.02567 0
M  V30 2723 H 271.992 1.68501 -2.47483 0
M  V30 2724 H 269.538 0.809237 -1.19111 0
M  V30 2725 H 271.491 3.92878 -1.52397 0
M  V30 2726 H 270.215 3.22783 -0.49785 0
M  V30 2727 H 268.874 2.63688 -2.54684 0
M  V30 2728 H 268.522 4.83128 -1.39988 0
M  V30 2729 H 268.222 4.95956 -3.15122 0
M  V30 2730 H 269.746 5.58762 -2.46205 0
M  V30 2731 H 271.16 4.01051 -4.09672 0
M  V30 2732 H 269.557 3.62104 -4.7854 0
M  V30 2733 H 270.627 2.30669 -4.2652 0
M  V30 2734 N 271.97 1.30982 0.876444 0
M  V30 2735 C 273.195 1.23373 1.66715 0
M  V30 2736 C 273.62 -0.19885 1.87046 0
M  V30 2737 O 272.978 -1.1427 1.40756 0
M  V30 2738 C 273.026 1.97644 3.01611 0
M  V30 2739 O 272.13 1.30935 3.91062 0
M  V30 2740 H 271.471 0.426279 0.509099 0
M  V30 2741 H 274.001 1.72944 1.09323 0
M  V30 2742 H 274.011 2.06992 3.51594 0
M  V30 2743 H 272.686 3.01829 2.86133 0
M  V30 2744 H 271.263 1.29996 3.49507 0
M  V30 2745 N 273.449 -1.08991 1.13837 0
M  V30 2746 C 274.674 -1.85551 0.926585 0
M  V30 2747 C 275.099 -1.80782 -0.519566 0
M  V30 2748 O 274.457 -1.18855 -1.36906 0
M  V30 2749 C 274.505 -3.31266 1.42462 0
M  V30 2750 O 273.609 -4.07822 0.612789 0
M  V30 2751 H 272.95 -0.575192 0.331738 0
M  V30 2752 H 275.48 -1.37604 1.51414 0
M  V30 2753 H 275.49 -3.82112 1.43019 0
M  V30 2754 H 274.165 -3.34052 2.47754 0
M  V30 2755 H 272.742 -3.66731 0.675463 0
M  V30 2756 N 274.927 -0.932562 -1.27047 0
M  V30 2757 C 276.173 -0.576412 -1.94436 0
M  V30 2758 C 276.506 0.880891 -1.73072 0
M  V30 2759 O 275.781 1.62905 -1.06264 0
M  V30 2760 C 276.064 -0.909031 -3.48437 0
M  V30 2761 C 275.917 -2.42044 -3.79123 0
M  V30 2762 C 277.236 -0.418341 -4.38107 0
M  V30 2763 H 274.355 -0.210888 -0.706184 0
M  V30 2764 H 276.997 -1.16522 -1.50075 0
M  V30 2765 H 275.147 -0.407947 -3.86352 0
M  V30 2766 H 276.819 -2.99359 -3.50973 0
M  V30 2767 H 275.062 -2.86758 -3.25503 0
M  V30 2768 H 275.733 -2.6037 -4.86736 0
M  V30 2769 H 278.209 -0.847856 -4.0737 0
M  V30 2770 H 277.085 -0.679981 -5.44672 0
M  V30 2771 H 277.346 0.681642 -4.36814 0
M  V30 2772 N 276.405 1.4127 -0.698611 0
M  V30 2773 C 277.651 2.01478 -0.231207 0
M  V30 2774 C 277.984 1.55215 1.16713 0
M  V30 2775 O 277.259 0.764672 1.78838 0
M  V30 2776 C 277.542 3.58912 -0.292281 0
M  V30 2777 C 277.395 4.15293 -1.72778 0
M  V30 2778 C 278.714 4.38736 0.346194 0
M  V30 2779 H 275.833 0.732025 -0.0854878 0
M  V30 2780 H 278.475 1.67977 -0.887906 0
M  V30 2781 H 276.625 3.87582 0.26686 0
M  V30 2782 H 278.297 3.97486 -2.341 0
M  V30 2783 H 276.54 3.7022 -2.26096 0
M  V30 2784 H 277.211 5.24452 -1.72202 0
M  V30 2785 H 279.687 4.15897 -0.130035 0
M  V30 2786 H 278.563 5.48221 0.272932 0
M  V30 2787 H 278.824 4.18425 1.42734 0
M  V30 2788 N 277.883 0.443576 1.51229 0
M  V30 2789 C 279.111 -0.11929 2.06556 0
M  V30 2790 C 279.526 -1.35921 1.31038 0
M  V30 2791 O 278.883 -1.78675 0.371704 0
M  V30 2792 C 278.934 -0.435228 3.5887 0
M  V30 2793 O 278.655 0.755486 4.31537 0
M  V30 2794 C 280.156 -1.04808 4.30732 0
M  V30 2795 H 277.376 -0.0051584 0.67098 0
M  V30 2796 H 279.92 0.624453 1.94733 0
M  V30 2797 H 278.075 -1.12887 3.70588 0
M  V30 2798 H 278.489 0.483491 5.22267 0
M  V30 2799 H 279.963 -1.2191 5.3837 0
M  V30 2800 H 280.44 -2.03081 3.89429 0
M  V30 2801 H 281.046 -0.393637 4.23474 0
M  V30 2802 N 279.361 -1.56624 0.175154 0
M  V30 2803 C 280.607 -1.9729 -0.469506 0
M  V30 2804 C 280.94 -1.06128 -1.62636 0
M  V30 2805 O 280.215 -0.109183 -1.94193 0
M  V30 2806 C 280.498 -3.47375 -0.948804 0
M  V30 2807 C 280.351 -4.49317 0.208491 0
M  V30 2808 C 281.67 -4.00652 -1.82116 0
M  V30 2809 H 278.789 -0.717317 -0.16919 0
M  V30 2810 H 281.431 -1.88184 0.262062 0
M  V30 2811 H 279.581 -3.55267 -1.57219 0
M  V30 2812 H 281.253 -4.53482 0.845682 0
M  V30 2813 H 279.496 -4.25121 0.863395 0
M  V30 2814 H 280.167 -5.51741 -0.169059 0
M  V30 2815 H 282.643 -3.95416 -1.2956 0
M  V30 2816 H 281.519 -5.06075 -2.12554 0
M  V30 2817 H 281.78 -3.44699 -2.7683 0
M  V30 2818 N 280.839 0.0985539 -1.57292 0
M  V30 2819 C 282.25 0.653457 -1.74891 0
M  V30 2820 C 282.601 1.7929 -0.796838 0
M  V30 2821 O 281.726 2.16385 0.0254886 0
M  V30 2822 C 282.321 1.19216 -3.17133 0
M  V30 2823 C 280.88 1.69316 -3.36168 0
M  V30 2824 C 280.027 0.601294 -2.70702 0
M  V30 2825 H 282.978 -0.127497 -1.58187 0
M  V30 2826 H 282.999 2.06154 -3.19814 0
M  V30 2827 H 282.511 0.362635 -3.86402 0
M  V30 2828 H 280.612 2.5468 -2.71972 0
M  V30 2829 H 280.725 1.78853 -4.44464 0
M  V30 2830 H 279.089 1.0399 -2.32504 0
M  V30 2831 H 279.872 -0.217592 -3.4261 0
M  V30 2832 N 282.317 1.53212 0.369288 0
M  V30 2833 C 283.542 1.73423 1.1375 0
M  V30 2834 C 283.967 0.460404 1.82378 0
M  V30 2835 O 283.325 -0.585298 1.71592 0
M  V30 2836 C 283.373 2.89769 2.1463 0
M  V30 2837 O 282.477 2.58119 3.21634 0
M  V30 2838 H 281.818 0.576061 0.330227 0
M  V30 2839 H 284.348 2.00083 0.427547 0
M  V30 2840 H 284.358 3.15829 2.58294 0
M  V30 2841 H 283.033 3.8217 1.64071 0
M  V30 2842 H 281.61 2.42864 2.82969 0
M  V30 2843 N 283.795 -0.628877 1.44509 0
M  V30 2844 C 285.02 -1.42048 1.5112 0
M  V30 2845 C 285.445 -1.87594 0.137818 0
M  V30 2846 O 284.803 -1.58873 -0.873437 0
M  V30 2847 C 284.851 -2.61541 2.48251 0
M  V30 2848 O 283.955 -3.61453 1.98559 0
M  V30 2849 H 283.296 -0.424942 0.510216 0
M  V30 2850 H 285.826 -0.767374 1.89664 0
M  V30 2851 H 285.836 -3.09057 2.66361 0
M  V30 2852 H 284.511 -2.27736 3.48007 0
M  V30 2853 H 283.088 -3.20731 1.90227 0
M  V30 2854 N 285.273 -1.31445 -0.869486 0
M  V30 2855 C 286.498 -1.24256 -1.66058 0
M  V30 2856 C 286.923 0.188928 -1.87149 0
M  V30 2857 O 286.281 1.13522 -1.4136 0
M  V30 2858 C 286.329 -1.9924 -3.00559 0
M  V30 2859 O 285.433 -1.33007 -3.90362 0
M  V30 2860 H 284.774 -0.428973 -0.506831 0
M  V30 2861 H 287.304 -1.73521 -1.08404 0
M  V30 2862 H 287.314 -2.08854 -3.50491 0
M  V30 2863 H 285.989 -3.03342 -2.84528 0
M  V30 2864 H 284.566 -1.31848 -3.48813 0
M  V30 2865 N 286.751 1.08385 -1.14413 0
M  V30 2866 C 287.681 2.17321 -0.854044 0
M  V30 2867 C 288.662 1.69024 0.191049 0
M  V30 2868 O 289.847 1.94141 0.0476779 0
M  V30 2869 C 286.977 3.45719 -0.330983 0
M  V30 2870 C 285.931 4.07409 -1.31155 0
M  V30 2871 C 285.257 5.30762 -0.64778 0
M  V30 2872 C 286.557 4.48665 -2.67388 0
M  V30 2873 H 288.251 2.41845 -1.76498 0
M  V30 2874 H 285.797 1.16233 -0.850051 0
M  V30 2875 H 287.75 4.21241 -0.115645 0
M  V30 2876 H 286.474 3.2075 0.615381 0
M  V30 2877 H 285.133 3.33919 -1.51306 0
M  V30 2878 H 284.781 5.02078 0.304398 0
M  V30 2879 H 284.481 5.72992 -1.30207 0
M  V30 2880 H 286.005 6.08998 -0.441972 0
M  V30 2881 H 287.419 5.15364 -2.51143 0
M  V30 2882 H 285.816 5.01814 -3.29093 0
M  V30 2883 H 286.886 3.60543 -3.24248 0
M  V30 2884 N 288.23 0.939286 1.26551 0
M  V30 2885 C 289.478 0.58469 1.93457 0
M  V30 2886 C 289.799 -0.878774 1.74076 0
M  V30 2887 O 289.069 -1.62421 1.09528 0
M  V30 2888 H 287.649 0.21325 0.715914 0
M  V30 2889 H 290.311 1.1942 1.54029 0
M  V30 2890 H 289.407 0.800849 3.0165 0
M  V30 2891 N 289.708 -1.40897 0.706093 0
M  V30 2892 C 290.936 -2.05373 0.250887 0
M  V30 2893 C 291.351 -1.53172 -1.10381 0
M  V30 2894 O 290.708 -0.684305 -1.69185 0
M  V30 2895 C 290.759 -3.6088 0.211571 0
M  V30 2896 O 290.48 -4.11153 1.51276 0
M  V30 2897 C 291.981 -4.42517 -0.263346 0
M  V30 2898 H 289.201 -0.66115 0.114552 0
M  V30 2899 H 291.745 -1.80479 0.961635 0
M  V30 2900 H 289.9 -3.84777 -0.450073 0
M  V30 2901 H 290.314 -5.05279 1.40689 0
M  V30 2902 H 291.788 -5.51479 -0.239718 0
M  V30 2903 H 292.265 -4.19396 -1.30397 0
M  V30 2904 H 292.871 -4.23708 0.367677 0
M  V30 2905 N 291.186 -0.45159 -1.50991 0
M  V30 2906 C 292.133 0.352625 -2.2809 0
M  V30 2907 C 293.103 1.0044 -1.32291 0
M  V30 2908 O 294.288 1.02058 -1.6121 0
M  V30 2909 C 291.428 1.43983 -3.13629 0
M  V30 2910 C 290.541 0.804772 -4.24438 0
M  V30 2911 C 289.676 1.86822 -4.97263 0
M  V30 2912 C 288.715 1.21236 -5.99973 0
M  V30 2913 N 287.852 2.2178 -6.66152 0
M  V30 2914 H 292.692 -0.311186 -2.96371 0
M  V30 2915 H 290.229 -0.165308 -1.46168 0
M  V30 2916 H 292.187 2.08161 -3.61559 0
M  V30 2917 H 290.817 2.07307 -2.47434 0
M  V30 2918 H 289.869 0.0509129 -3.80366 0
M  V30 2919 H 291.181 0.286076 -4.97979 0
M  V30 2920 H 290.335 2.58628 -5.48813 0
M  V30 2921 H 289.074 2.42068 -4.23385 0
M  V30 2922 H 288.079 0.479828 -5.47702 0
M  V30 2923 H 289.304 0.667051 -6.75816 0
M  V30 2924 H 287.25 2.76079 -5.95077 0
M  V30 2925 H 287.167 1.74841 -7.35504 0
M  V30 2926 H 288.435 2.93026 -7.22327 0
M  V30 2927 N 292.664 1.56529 -0.183458 0
M  V30 2928 C 293.892 2.01623 0.464285 0
M  V30 2929 C 294.307 1.06366 1.55986 0
M  V30 2930 O 293.664 0.0665398 1.82379 0
M  V30 2931 C 293.715 3.46475 1.03139 0
M  V30 2932 O 293.436 4.38095 -0.0204675 0
M  V30 2933 C 294.937 4.0703 1.75617 0
M  V30 2934 H 292.157 0.660596 0.117704 0
M  V30 2935 H 294.701 2.02451 -0.288751 0
M  V30 2936 H 292.856 3.46383 1.73486 0
M  V30 2937 H 293.27 5.22973 0.399952 0
M  V30 2938 H 294.744 5.10271 2.10542 0
M  V30 2939 H 295.221 3.49819 2.65563 0
M  V30 2940 H 295.827 4.1086 1.09882 0
M  V30 2941 N 294.142 -0.090211 1.57342 0
M  V30 2942 C 295.372 -0.805055 1.90269 0
M  V30 2943 C 295.78 -1.72561 0.775842 0
M  V30 2944 O 295.123 -1.81839 -0.260843 0
M  V30 2945 C 295.185 -1.66734 3.18497 0
M  V30 2946 C 294.849 -0.918092 4.47683 0
M  V30 2947 C 295.846 -0.245674 5.19319 0
M  V30 2948 C 293.531 -0.890724 4.94339 0
M  V30 2949 C 295.525 0.444088 6.35851 0
M  V30 2950 C 293.212 -0.197179 6.10782 0
M  V30 2951 C 294.21 0.469044 6.81388 0
M  V30 2952 O 293.898 1.15146 7.95611 0
M  V30 2953 H 293.63 -0.235143 0.633785 0
M  V30 2954 H 296.184 -0.0703805 2.05279 0
M  V30 2955 H 294.414 -2.44437 2.99646 0
M  V30 2956 H 296.103 -2.25919 3.37217 0
M  V30 2957 H 296.869 -0.258246 4.84312 0
M  V30 2958 H 292.748 -1.39873 4.39268 0
M  V30 2959 H 296.292 0.964667 6.90898 0
M  V30 2960 H 292.189 -0.18247 6.45242 0
M  V30 2961 H 292.957 1.05885 8.11622 0
M  V30 2962 N 295.62 -1.53406 -0.361157 0
M  V30 2963 C 296.848 -1.73717 -1.12383 0
M  V30 2964 C 297.263 -0.468161 -1.82904 0
M  V30 2965 O 296.62 0.559198 -1.73722 0
M  V30 2966 C 296.671 -2.90558 -2.15078 0
M  V30 2967 O 296.392 -4.12549 -1.47428 0
M  V30 2968 C 297.893 -3.22777 -3.03858 0
M  V30 2969 H 295.113 -0.580896 -0.335858 0
M  V30 2970 H 297.657 -2.00167 -0.418728 0
M  V30 2971 H 295.812 -2.66489 -2.8118 0
M  V30 2972 H 296.226 -4.78009 -2.15887 0
M  V30 2973 H 297.7 -4.07927 -3.71887 0
M  V30 2974 H 298.177 -2.38329 -3.68912 0
M  V30 2975 H 298.783 -3.48787 -2.43367 0
M  V30 2976 N 297.098 0.621204 -1.44841 0
M  V30 2977 C 298.338 1.39201 -1.49674 0
M  V30 2978 C 298.702 1.91561 -0.129764 0
M  V30 2979 O 299.903 2.68748 -0.0527814 0
M  V30 2980 C 298.174 2.519 -2.53537 0
M  V30 2981 S 299.733 3.39916 -2.77494 0
M  V30 2982 H 296.551 0.474758 -0.529269 0
M  V30 2983 H 299.153 0.718171 -1.81831 0
M  V30 2984 H 297.857 2.11761 -3.51547 0
M  V30 2985 H 297.388 3.241 -2.22986 0
M  V30 2986 H 299.403 4.49646 -2.0984 0
M  V30 2987 N 298.576 1.31904 0.862503 0
M  V30 2988 C 299.524 1.20125 1.9918 0
M  V30 2989 C 300.518 0.107824 1.69056 0
M  V30 2990 O 301.724 0.270223 1.7796 0
M  V30 2991 H 298.099 0.372148 0.65346 0
M  V30 2992 H 300.07 2.15652 2.06244 0
M  V30 2993 C 298.819 0.933099 3.34946 0
M  V30 2994 H 298.142 1.76664 3.5865 0
M  V30 2995 H 299.582 0.890892 4.14535 0
M  V30 2996 C 298.041 -0.364172 3.34926 0
M  V30 2997 O 298.571 -1.37858 3.77304 0
M  V30 2998 N 296.777 -0.383362 2.8806 0
M  V30 2999 H 296.324 0.442651 2.53768 0
M  V30 3000 H 296.282 -1.25123 2.8843 0
M  V30 3001 N 300.054 -1.07777 1.14986 0
M  V30 3002 C 301.3 -1.80557 0.923422 0
M  V30 3003 C 301.633 -1.86298 -0.548337 0
M  V30 3004 O 300.908 -1.34354 -1.40639 0
M  V30 3005 C 301.191 -3.25839 1.53299 0
M  V30 3006 C 301.044 -3.28269 3.07505 0
M  V30 3007 C 302.363 -4.22991 1.21518 0
M  V30 3008 H 299.482 -0.655493 0.336894 0
M  V30 3009 H 302.124 -1.26144 1.42083 0
M  V30 3010 H 300.274 -3.72306 1.10999 0
M  V30 3011 H 301.946 -2.90079 3.58681 0
M  V30 3012 H 300.189 -2.67355 3.4162 0
M  V30 3013 H 300.86 -4.30691 3.45266 0
M  V30 3014 H 303.336 -3.84894 1.581 0
M  V30 3015 H 302.212 -5.22945 1.66793 0
M  V30 3016 H 302.473 -4.41904 0.131505 0
M  V30 3017 N 301.532 -0.945985 -1.26051 0
M  V30 3018 C 302.809 -0.513816 -1.88731 0
M  V30 3019 C 303.189 1.00872 -1.8544 0
M  V30 3020 O 302.537 1.8708 -1.312 0
M  V30 3021 C 302.747 -1.08062 -3.31849 0
M  V30 3022 C 304.095 -1.1522 -4.08668 0
M  V30 3023 O 305.119 -1.03155 -3.40936 0
M  V30 3024 O 303.978 -1.34044 -5.29806 0
M  V30 3025 H 301.072 -0.168193 -0.809716 0
M  V30 3026 H 303.618 -1.03886 -1.34186 0
M  V30 3027 H 302.39 -2.1241 -3.2863 0
M  V30 3028 H 302.013 -0.538307 -3.93939 0
M  V30 3029 N 303.011 1.40521 -0.713556 0
M  V30 3030 C 303.961 2.27971 -0.036165 0
M  V30 3031 C 304.945 1.43151 0.734623 0
M  V30 3032 O 306.137 1.66261 0.607158 0
M  V30 3033 C 303.266 3.31661 0.886331 0
M  V30 3034 C 302.352 4.23955 0.110836 0
M  V30 3035 N 302.743 4.97641 -0.904847 0
M  V30 3036 C 301.041 4.44674 0.343692 0
M  V30 3037 C 301.742 5.65322 -1.37064 0
M  V30 3038 N 300.718 5.39162 -0.693168 0
M  V30 3039 H 304.52 2.82384 -0.814645 0
M  V30 3040 H 302.034 1.52948 -0.545963 0
M  V30 3041 H 304.031 3.93154 1.38692 0
M  V30 3042 H 302.691 2.78808 1.66421 0
M  V30 3043 H 303.702 5.01689 -1.28563 0
M  V30 3044 H 300.379 4.02801 1.09805 0
M  V30 3045 H 301.769 6.34359 -2.21447 0
M  V30 3046 N 304.489 0.459591 1.5075 0
M  V30 3047 C 305.436 -0.340524 2.28274 0
M  V30 3048 C 306.406 -0.997371 1.32822 0
M  V30 3049 O 307.591 -1.01202 1.61749 0
M  V30 3050 C 304.731 -1.42317 3.14388 0
M  V30 3051 C 303.844 -0.782251 4.24859 0
M  V30 3052 C 302.979 -1.84182 4.98247 0
M  V30 3053 C 302.018 -1.18053 6.00608 0
M  V30 3054 N 301.155 -2.18244 6.67319 0
M  V30 3055 H 305.995 0.326899 2.96202 0
M  V30 3056 H 303.532 0.173057 1.46078 0
M  V30 3057 H 305.49 -2.06241 3.62658 0
M  V30 3058 H 304.12 -2.05992 2.4853 0
M  V30 3059 H 303.172 -0.0307404 3.80388 0
M  V30 3060 H 304.484 -0.259663 4.98124 0
M  V30 3061 H 303.638 -2.55714 5.50177 0
M  V30 3062 H 302.377 -2.39819 4.24662 0
M  V30 3063 H 301.382 -0.450776 5.47949 0
M  V30 3064 H 302.607 -0.631202 6.7616 0
M  V30 3065 H 300.553 -2.72919 5.96533 0
M  V30 3066 H 300.47 -1.70938 7.36421 0
M  V30 3067 H 301.738 -2.89191 7.23871 0
M  V30 3068 N 305.967 -1.56429 0.191757 0
M  V30 3069 C 307.378 -1.83912 -0.321428 0
M  V30 3070 C 307.729 -1.11231 -1.61623 0
M  V30 3071 O 306.854 -0.37202 -2.13178 0
M  V30 3072 C 307.449 -3.33624 -0.589961 0
M  V30 3073 C 306.008 -3.6153 -1.04753 0
M  V30 3074 C 305.155 -2.7714 -0.0943327 0
M  V30 3075 H 308.106 -1.53161 0.415612 0
M  V30 3076 H 308.127 -3.52213 -1.43966 0
M  V30 3077 H 307.639 -3.86495 0.352588 0
M  V30 3078 H 305.74 -3.14089 -2.00447 0
M  V30 3079 H 305.853 -4.69737 -0.942549 0
M  V30 3080 H 304.217 -2.47638 -0.595589 0
M  V30 3081 H 305 -3.32799 0.842601 0
M  V30 3082 N 307.445 0.0818655 -1.57387 0
M  V30 3083 C 308.67 0.799946 -1.91352 0
M  V30 3084 C 309.095 1.70833 -0.787258 0
M  V30 3085 O 308.453 1.79419 0.26048 0
M  V30 3086 C 308.501 1.57812 -3.24234 0
M  V30 3087 O 307.605 2.68806 -3.12757 0
M  V30 3088 H 306.946 0.21891 -0.626877 0
M  V30 3089 H 309.476 0.0531256 -2.04531 0
M  V30 3090 H 309.486 1.95952 -3.57864 0
M  V30 3091 H 308.161 0.911548 -4.05788 0
M  V30 3092 H 306.738 2.33597 -2.90666 0
M  V30 3093 N 308.923 1.53595 0.353017 0
M  V30 3094 C 309.871 1.81605 1.45335 0
M  V30 3095 C 310.865 0.685923 1.54892 0
M  V30 3096 O 312.071 0.869095 1.57628 0
M  V30 3097 H 308.446 0.575204 0.484401 0
M  V30 3098 H 310.417 2.73679 1.18921 0
M  V30 3099 C 309.166 2.03406 2.81995 0
M  V30 3100 H 308.489 2.89814 2.75405 0
M  V30 3101 H 309.929 2.26975 3.58132 0
M  V30 3102 C 308.388 0.816794 3.26849 0
M  V30 3103 O 308.918 0.0115856 4.01698 0
M  V30 3104 N 307.124 0.636682 2.8354 0
M  V30 3105 H 306.671 1.2931 2.22793 0
M  V30 3106 H 306.629 -0.176336 3.13905 0
M  V30 3107 N 310.401 -0.613514 1.45168 0
M  V30 3108 C 311.629 -1.39946 1.5239 0
M  V30 3109 C 312.044 -1.88167 0.154531 0
M  V30 3110 O 311.401 -1.61872 -0.842843 0
M  V30 3111 C 311.452 -2.60795 2.50337 0
M  V30 3112 O 311.173 -2.1458 3.81952 0
M  V30 3113 C 312.674 -3.53723 2.67198 0
M  V30 3114 H 309.894 -0.428593 0.516284 0
M  V30 3115 H 312.438 -0.748753 1.903 0
M  V30 3116 H 310.593 -3.21919 2.15515 0
M  V30 3117 H 311.007 -2.93055 4.34993 0
M  V30 3118 H 312.481 -4.35079 3.39721 0
M  V30 3119 H 312.958 -4.0368 1.73029 0
M  V30 3120 H 313.564 -2.98456 3.02992 0
M  V30 3121 N 311.879 -1.3236 -0.855495 0
M  V30 3122 C 312.826 -1.21225 -1.964 0
M  V30 3123 C 313.796 -0.0946204 -1.6583 0
M  V30 3124 O 314.981 -0.27002 -1.8888 0
M  V30 3125 C 312.121 -0.940419 -3.32039 0
M  V30 3126 C 311.234 -2.14276 -3.75113 0
M  V30 3127 C 310.369 -1.80648 -4.9954 0
M  V30 3128 C 309.408 -2.97208 -5.35102 0
M  V30 3129 N 308.545 -2.63678 -6.50706 0
M  V30 3130 H 313.385 -2.16042 -2.05255 0
M  V30 3131 H 310.922 -1.07451 -1.00463 0
M  V30 3132 H 312.88 -0.763311 -4.10158 0
M  V30 3133 H 311.51 -0.0290413 -3.22787 0
M  V30 3134 H 310.562 -2.43017 -2.92655 0
M  V30 3135 H 311.874 -3.01468 -3.97389 0
M  V30 3136 H 311.028 -1.59484 -5.85363 0
M  V30 3137 H 309.767 -0.906678 -4.79198 0
M  V30 3138 H 308.772 -3.19004 -4.47791 0
M  V30 3139 H 309.997 -3.87918 -5.57401 0
M  V30 3140 H 307.943 -1.76238 -6.31883 0
M  V30 3141 H 307.86 -3.444 -6.72997 0
M  V30 3142 H 309.128 -2.45942 -7.39684 0
M  V30 3143 N 313.357 1.07166 -1.15556 0
M  V30 3144 C 314.603 1.80065 -0.932984 0
M  V30 3145 C 314.936 1.86586 0.53845 0
M  V30 3146 O 314.211 1.35098 1.39924 0
M  V30 3147 C 314.494 3.25022 -1.55025 0
M  V30 3148 C 314.347 3.26634 -3.09242 0
M  V30 3149 C 315.666 4.22341 -1.2376 0
M  V30 3150 H 312.785 0.653697 -0.340366 0
M  V30 3151 H 315.427 1.25389 -1.4275 0
M  V30 3152 H 313.577 3.71712 -1.12972 0
M  V30 3153 H 315.249 2.88173 -3.60214 0
M  V30 3154 H 313.492 2.65539 -3.43033 0
M  V30 3155 H 314.163 4.28854 -3.47546 0
M  V30 3156 H 316.639 3.8405 -1.60139 0
M  V30 3157 H 315.515 5.22053 -1.69564 0
M  V30 3158 H 315.776 4.41828 -0.154938 0
M  V30 3159 N 314.835 0.952656 1.25548 0
M  V30 3160 C 316.112 0.523818 1.88456 0
M  V30 3161 C 316.492 -0.998871 1.85973 0
M  V30 3162 O 315.84 -1.86381 1.3219 0
M  V30 3163 C 316.05 1.0982 3.31271 0
M  V30 3164 C 317.398 1.17385 4.08051 0
M  V30 3165 O 318.422 1.04961 3.40384 0
M  V30 3166 O 317.281 1.36852 5.29088 0
M  V30 3167 H 314.375 0.172485 0.808813 0
M  V30 3168 H 316.921 1.04596 1.33633 0
M  V30 3169 H 315.693 2.1415 3.27499 0
M  V30 3170 H 315.316 0.559191 3.93648 0
M  V30 3171 N 316.313 -1.40141 0.720998 0
M  V30 3172 C 317.26 -2.30688 0.071919 0
M  V30 3173 C 318.23 -1.48476 -0.744584 0
M  V30 3174 O 319.415 -1.77201 -0.707423 0
M  V30 3175 C 316.555 -3.34724 -0.839855 0
M  V30 3176 C 315.668 -4.31998 -0.0122438 0
M  V30 3177 C 314.803 -5.23102 -0.923995 0
M  V30 3178 C 313.842 -6.12033 -0.0907969 0
M  V30 3179 N 312.979 -6.95537 -0.957718 0
M  V30 3180 H 317.819 -2.85628 0.849755 0
M  V30 3181 H 315.356 -1.40653 0.430726 0
M  V30 3182 H 317.314 -3.93618 -1.38279 0
M  V30 3183 H 315.944 -2.81274 -1.58381 0
M  V30 3184 H 314.996 -3.74841 0.64794 0
M  V30 3185 H 316.308 -4.94772 0.632595 0
M  V30 3186 H 315.462 -5.86953 -1.53527 0
M  V30 3187 H 314.201 -4.60615 -1.60264 0
M  V30 3188 H 313.206 -5.47207 0.533377 0
M  V30 3189 H 314.431 -6.76581 0.584428 0
M  V30 3190 H 312.377 -6.35633 -1.62192 0
M  V30 3191 H 312.294 -7.55099 -0.36904 0
M  V30 3192 H 313.562 -7.63832 -1.555 0
M  V30 3193 N 317.792 -0.46758 -1.50504 0
M  V30 3194 C 319.208 -0.121533 -1.59137 0
M  V30 3195 C 319.408 1.3717 -1.47603 0
M  V30 3196 O 318.464 2.14464 -1.33272 0
M  V30 3197 C 319.777 -0.6686 -2.93173 0
M  V30 3198 C 321.325 -0.631716 -3.06559 0
M  V30 3199 C 321.8 -1.15627 -4.43164 0
M  V30 3200 N 323.291 -1.11553 -4.49567 0
M  V30 3201 C 324.026 -1.49195 -5.5365 0
M  V30 3202 N 323.522 -1.94269 -6.65005 0
M  V30 3203 N 325.315 -1.4082 -5.44175 0
M  V30 3204 H 317.466 -1.4388 -1.56245 0
M  V30 3205 H 319.729 -0.594784 -0.738198 0
M  V30 3206 H 319.435 -1.71453 -3.07078 0
M  V30 3207 H 319.309 -0.11021 -3.77039 0
M  V30 3208 H 321.696 0.405297 -2.92304 0
M  V30 3209 H 321.777 -1.22687 -2.24458 0
M  V30 3210 H 321.421 -2.1919 -4.58168 0
M  V30 3211 H 321.351 -0.537365 -5.23851 0
M  V30 3212 H 323.842 -0.784895 -3.69659 0
M  V30 3213 H 324.155 -2.21148 -7.40482 0
M  V30 3214 H 322.5 -1.98219 -6.66134 0
M  V30 3215 H 325.691 -1.0545 -4.56068 0
M  V30 3216 H 325.864 -1.70481 -6.25172 0
M  V30 3217 N 319.27 1.56325 -0.20005 0
M  V30 3218 C 320.516 1.98012 0.438059 0
M  V30 3219 C 320.849 1.08702 1.60927 0
M  V30 3220 O 320.124 0.140064 1.93995 0
M  V30 3221 C 320.407 3.48841 0.893419 0
M  V30 3222 C 320.26 4.48928 -0.279947 0
M  V30 3223 C 321.579 4.03498 1.75719 0
M  V30 3224 H 318.698 0.719918 0.157757 0
M  V30 3225 H 321.34 1.87743 -0.291968 0
M  V30 3226 H 319.49 3.57723 1.51547 0
M  V30 3227 H 321.162 4.52079 -0.91772 0
M  V30 3228 H 319.405 4.23694 -0.930919 0
M  V30 3229 H 320.076 5.5194 0.0812601 0
M  V30 3230 H 322.552 3.97427 1.23253 0
M  V30 3231 H 321.428 5.09393 2.04476 0
M  V30 3232 H 321.689 3.4906 2.71311 0
M  V30 3233 N 320.748 -0.0735177 1.57428 0
M  V30 3234 C 321.658 -1.10547 2.06922 0
M  V30 3235 C 322.674 -1.42506 0.998402 0
M  V30 3236 O 323.85 -1.52717 1.31299 0
M  V30 3237 C 320.915 -2.40019 2.50184 0
M  V30 3238 C 319.976 -2.15046 3.71556 0
M  V30 3239 C 319.209 -3.38345 4.12745 0
M  V30 3240 O 319.432 -4.47399 3.53822 0
M  V30 3241 O 318.366 -3.2666 5.05546 0
M  V30 3242 H 322.192 -0.715013 2.95163 0
M  V30 3243 H 319.777 -0.287531 1.46607 0
M  V30 3244 H 321.659 -3.16218 2.78539 0
M  V30 3245 H 320.334 -2.78447 1.65072 0
M  V30 3246 H 319.241 -1.36558 3.48285 0
M  V30 3247 H 320.574 -1.81499 4.57514 0
M  V30 3248 N 322.226 -1.5378 -0.344866 0
M  V30 3249 C 323.451 -1.75211 -1.10977 0
M  V30 3250 C 323.876 -0.48936 -1.81623 0
M  V30 3251 O 323.234 0.557925 -1.72502 0
M  V30 3252 C 323.282 -2.93147 -2.09993 0
M  V30 3253 O 322.386 -2.63203 -3.17487 0
M  V30 3254 H 321.727 -0.581241 -0.321021 0
M  V30 3255 H 324.257 -2.00738 -0.395661 0
M  V30 3256 H 324.267 -3.19898 -2.53237 0
M  V30 3257 H 322.942 -3.84731 -1.5797 0
M  V30 3258 H 321.519 -2.47336 -2.79069 0
M  V30 3259 N 323.704 0.605807 -1.45491 0
M  V30 3260 C 324.651 1.7164 -1.54299 0
M  V30 3261 C 325.621 1.61486 -0.388761 0
M  V30 3262 O 326.806 1.81039 -0.602445 0
M  V30 3263 C 323.946 3.09953 -1.51734 0
M  V30 3264 C 323.059 3.309 -2.77721 0
M  V30 3265 C 322.194 4.59329 -2.66816 0
M  V30 3266 C 321.233 4.7354 -3.87848 0
M  V30 3267 N 320.37 5.9327 -3.75467 0
M  V30 3268 H 325.21 1.63449 -2.49176 0
M  V30 3269 H 322.747 0.796957 -1.23641 0
M  V30 3270 H 324.705 3.89977 -1.48235 0
M  V30 3271 H 323.335 3.17098 -0.604068 0
M  V30 3272 H 322.387 2.44639 -2.913 0
M  V30 3273 H 323.699 3.37274 -3.67488 0
M  V30 3274 H 322.853 5.4755 -2.61292 0
M  V30 3275 H 321.592 4.55355 -1.74651 0
M  V30 3276 H 320.597 3.83741 -3.93729 0
M  V30 3277 H 321.822 4.79309 -4.81082 0
M  V30 3278 H 319.768 5.90338 -2.86072 0
M  V30 3279 H 319.685 6.00811 -4.5887 0
M  V30 3280 H 320.953 6.83984 -3.73879 0
M  V30 3281 N 325.182 1.32811 0.848464 0
M  V30 3282 C 326.412 1.26556 1.63301 0
M  V30 3283 C 326.82 -0.1676 1.88456 0
M  V30 3284 O 326.163 -1.11713 1.45828 0
M  V30 3285 C 326.225 1.96202 3.01239 0
M  V30 3286 C 325.889 3.45528 2.99098 0
M  V30 3287 C 326.886 4.40903 2.75501 0
M  V30 3288 C 324.571 3.87558 3.19537 0
M  V30 3289 C 326.565 5.76282 2.72356 0
M  V30 3290 C 324.252 5.23044 3.16019 0
M  V30 3291 C 325.25 6.17217 2.92458 0
M  V30 3292 O 324.938 7.50223 2.88825 0
M  V30 3293 H 324.67 0.43771 0.515156 0
M  V30 3294 H 327.224 1.7559 1.0657 0
M  V30 3295 H 325.454 1.41746 3.59785 0
M  V30 3296 H 327.143 1.83573 3.62016 0
M  V30 3297 H 327.909 4.09756 2.5947 0
M  V30 3298 H 323.788 3.14674 3.369 0
M  V30 3299 H 327.332 6.4976 2.53886 0
M  V30 3300 H 323.229 5.53818 3.31596 0
M  V30 3301 H 323.997 7.59657 3.04735 0
M  V30 3302 N 326.66 -1.06551 1.16123 0
M  V30 3303 C 327.908 -1.78947 0.939267 0
M  V30 3304 C 328.229 -1.87532 -0.534476 0
M  V30 3305 O 327.499 -1.38211 -1.38833 0
M  V30 3306 H 326.079 -0.662807 0.344523 0
M  V30 3307 H 328.741 -1.28725 1.46342 0
M  V30 3308 H 327.837 -2.81117 1.35572 0
M  V30 3309 N 328.138 -0.959301 -1.25041 0
M  V30 3310 C 329.549 -0.65667 -1.74771 0
M  V30 3311 C 329.9 0.827852 -1.77879 0
M  V30 3312 O 329.025 1.64783 -1.40269 0
M  V30 3313 C 329.62 -1.1853 -3.1739 0
M  V30 3314 C 328.179 -0.932734 -3.6466 0
M  V30 3315 C 327.326 -1.32558 -2.43564 0
M  V30 3316 H 330.277 -1.13558 -1.10862 0
M  V30 3317 H 330.298 -0.547582 -3.76539 0
M  V30 3318 H 329.81 -2.26576 -3.15095 0
M  V30 3319 H 327.911 0.13257 -3.72364 0
M  V30 3320 H 328.024 -1.57248 -4.52559 0
M  V30 3321 H 326.388 -0.743956 -2.43593 0
M  V30 3322 H 327.171 -2.41537 -2.43957 0
M  V30 3323 N 329.616 1.39756 -0.72842 0
M  V30 3324 C 331.027 1.83498 -0.344289 0
M  V30 3325 C 331.378 1.60868 1.12321 0
M  V30 3326 O 330.503 1.09634 1.86573 0
M  V30 3327 C 331.098 3.33114 -0.618112 0
M  V30 3328 C 329.657 3.753 -0.287549 0
M  V30 3329 C 328.804 2.62831 -0.884048 0
M  V30 3330 H 331.755 1.28842 -0.926578 0
M  V30 3331 H 331.776 3.80334 0.112349 0
M  V30 3332 H 331.288 3.49553 -1.68625 0
M  V30 3333 H 329.389 3.64451 0.775012 0
M  V30 3334 H 329.502 4.72945 -0.765512 0
M  V30 3335 H 327.866 2.52792 -0.311149 0
M  V30 3336 H 328.649 2.82078 -1.95671 0
M  V30 3337 N 331.094 0.475555 1.50254 0
M  V30 3338 C 332.334 -0.0765802 2.04256 0
M  V30 3339 C 332.698 -1.36587 1.34937 0
M  V30 3340 O 333.899 -2.00066 1.79519 0
M  V30 3341 C 332.17 -0.251668 3.56513 0
M  V30 3342 S 333.729 -0.761716 4.32138 0
M  V30 3343 H 330.547 -0.0138456 0.710865 0
M  V30 3344 H 333.149 0.643714 1.84598 0
M  V30 3345 H 331.853 0.692404 4.04517 0
M  V30 3346 H 331.384 -0.997946 3.80532 0
M  V30 3347 H 333.399 -2.03451 4.52573 0
M  V30 3348 N 332.573 -1.56217 0.208337 0
M  V30 3349 C 333.984 -1.84243 -0.301904 0
M  V30 3350 C 334.335 -1.12939 -1.60434 0
M  V30 3351 O 333.46 -0.39461 -2.12772 0
M  V30 3352 C 334.055 -3.34231 -0.554543 0
M  V30 3353 C 332.614 -3.62621 -1.00912 0
M  V30 3354 C 331.761 -2.77224 -0.064933 0
M  V30 3355 H 334.712 -1.52712 0.431833 0
M  V30 3356 H 334.733 -3.5372 -1.40223 0
M  V30 3357 H 334.245 -3.86099 0.393561 0
M  V30 3358 H 332.346 -3.16197 -1.97104 0
M  V30 3359 H 332.459 -4.7071 -0.892674 0
M  V30 3360 H 330.823 -2.48256 -0.56929 0
M  V30 3361 H 331.606 -3.31887 0.877851 0
M  V30 3362 N 334.051 0.0651679 -1.57465 0
M  V30 3363 C 335.462 0.616213 -1.76238 0
M  V30 3364 C 335.813 1.7756 -0.834689 0
M  V30 3365 O 334.938 2.1639 -0.0204156 0
M  V30 3366 C 335.533 1.12462 -3.1959 0
M  V30 3367 C 334.092 1.62147 -3.39684 0
M  V30 3368 C 333.239 0.543739 -2.71917 0
M  V30 3369 H 336.19 -0.161022 -1.57881 0
M  V30 3370 H 336.211 1.99324 -3.24114 0
M  V30 3371 H 335.723 0.280592 -3.87084 0
M  V30 3372 H 333.824 2.48854 -2.77313 0
M  V30 3373 H 333.937 1.69385 -4.48158 0
M  V30 3374 H 332.301 0.990352 -2.34657 0
M  V30 3375 H 333.084 -0.290216 -3.42071 0
M  V30 3376 N 335.529 1.53961 0.336706 0
M  V30 3377 C 336.769 1.73254 1.08454 0
M  V30 3378 C 337.133 0.488937 1.8567 0
M  V30 3379 O 338.334 0.559001 2.62923 0
M  V30 3380 C 336.605 2.96519 1.99528 0
M  V30 3381 S 338.164 3.36655 2.81441 0
M  V30 3382 H 334.982 0.609353 0.366347 0
M  V30 3383 H 337.584 1.92117 0.362124 0
M  V30 3384 H 336.288 3.85193 1.41614 0
M  V30 3385 H 335.819 2.80142 2.76196 0
M  V30 3386 H 337.834 2.90925 4.01967 0
M  V30 3387 N 337.007 -0.598083 1.45811 0
M  V30 3388 C 338.418 -1.18011 1.44673 0
M  V30 3389 C 338.769 -1.95378 0.179364 0
M  V30 3390 O 337.894 -2.04124 -0.718509 0
M  V30 3391 C 338.489 -2.14677 2.62105 0
M  V30 3392 C 337.048 -2.68236 2.64057 0
M  V30 3393 C 336.195 -1.43816 2.37091 0
M  V30 3394 H 339.146 -0.38686 1.53913 0
M  V30 3395 H 339.167 -2.97878 2.36746 0
M  V30 3396 H 338.679 -1.5834 3.5433 0
M  V30 3397 H 336.78 -3.28486 1.75864 0
M  V30 3398 H 336.893 -3.12021 3.63566 0
M  V30 3399 H 335.257 -1.731 1.86838 0
M  V30 3400 H 336.04 -0.893333 3.31473 0
M  V30 3401 N 338.485 -1.33259 -0.841409 0
M  V30 3402 C 339.448 -1.23221 -1.9326 0
M  V30 3403 C 340.448 -0.151895 -1.60081 0
M  V30 3404 O 341.638 -0.403246 -1.69468 0
M  V30 3405 C 338.77 -0.898123 -3.28856 0
M  V30 3406 H 339.963 -2.2021 -2.03587 0
M  V30 3407 H 337.516 -1.17281 -1.03319 0
M  V30 3408 H 338.251 0.0693841 -3.24226 0
M  V30 3409 H 338.036 -1.67934 -3.54317 0
M  V30 3410 H 339.526 -0.852563 -4.08805 0
M  V30 3411 N 339.963 1.05934 -1.16686 0
M  V30 3412 C 341.374 1.60263 -0.957745 0
M  V30 3413 C 341.725 1.89789 0.49745 0
M  V30 3414 O 340.85 1.67401 1.37135 0
M  V30 3415 C 341.445 2.91172 -1.73218 0
M  V30 3416 C 340.004 3.42188 -1.56794 0
M  V30 3417 C 339.151 2.16028 -1.73859 0
M  V30 3418 H 342.102 0.888392 -1.31504 0
M  V30 3419 H 342.123 3.60744 -1.21014 0
M  V30 3420 H 341.635 2.6965 -2.79124 0
M  V30 3421 H 339.736 3.68762 -0.533437 0
M  V30 3422 H 339.849 4.17273 -2.35414 0
M  V30 3423 H 338.213 2.26426 -1.16633 0
M  V30 3424 H 338.996 1.96985 -2.81161 0
M  V30 3425 N 341.441 0.965919 1.2453 0
M  V30 3426 C 342.351 0.502154 2.29163 0
M  V30 3427 C 343.367 -0.436017 1.68448 0
M  V30 3428 O 344.543 -0.309497 1.99008 0
M  V30 3429 C 341.608 -0.201956 3.46111 0
M  V30 3430 C 340.669 0.775821 4.22232 0
M  V30 3431 C 339.902 0.105217 5.33596 0
M  V30 3432 O 340.125 -1.10683 5.59558 0
M  V30 3433 O 339.059 0.796475 5.96607 0
M  V30 3434 H 342.885 1.37194 2.70946 0
M  V30 3435 H 340.47 0.732875 1.30189 0
M  V30 3436 H 342.352 -0.597564 4.17142 0
M  V30 3437 H 341.027 -1.04673 3.06309 0
M  V30 3438 H 339.934 1.22185 3.53584 0
M  V30 3439 H 341.267 1.58896 4.65846 0
M  V30 3440 N 342.919 -1.39368 0.735821 0
M  V30 3441 C 343.882 -2.2896 0.104874 0
M  V30 3442 C 344.882 -1.46347 -0.666274 0
M  V30 3443 O 346.072 -1.67014 -0.49517 0
M  V30 3444 C 343.204 -3.29857 -0.860656 0
M  V30 3445 H 344.397 -2.86259 0.894205 0
M  V30 3446 H 341.95 -1.48029 0.501704 0
M  V30 3447 H 342.685 -2.77615 -1.67631 0
M  V30 3448 H 342.47 -3.9087 -0.310327 0
M  V30 3449 H 343.96 -3.96893 -1.29867 0
M  V30 3450 N 344.397 -0.483516 -1.5 0
M  V30 3451 C 345.36 0.292965 -2.2732 0
M  V30 3452 C 346.36 0.909499 -1.32608 0
M  V30 3453 O 347.55 0.776745 -1.55924 0
M  V30 3454 C 344.682 1.41854 -3.09984 0
M  V30 3455 H 345.875 -0.385289 -2.97415 0
M  V30 3456 H 343.428 -0.237942 -1.54478 0
M  V30 3457 H 344.163 2.13148 -2.44414 0
M  V30 3458 H 343.948 0.982114 -3.79601 0
M  V30 3459 H 345.438 1.96597 -3.68429 0
M  V30 3460 N 345.875 1.56104 -0.216619 0
M  V30 3461 C 347.123 1.97781 0.415593 0
M  V30 3462 C 347.444 1.10536 1.60645 0
M  V30 3463 O 346.714 0.181303 1.95059 0
M  V30 3464 H 345.294 0.730415 0.156534 0
M  V30 3465 H 347.956 1.92445 -0.308366 0
M  V30 3466 H 347.052 3.03072 0.74525 0
M  V30 3467 N 347.353 -0.0568162 1.57498 0
M  V30 3468 C 348.601 -0.751617 1.87604 0
M  V30 3469 C 348.922 -1.77351 0.81066 0
M  V30 3470 O 348.192 -1.95254 -0.159018 0
M  V30 3471 H 346.772 -0.280583 0.692302 0
M  V30 3472 H 349.434 -0.0293483 1.94878 0
M  V30 3473 H 348.53 -1.25852 2.856 0
M  V30 3474 N 348.832 -1.54138 -0.328536 0
M  V30 3475 C 350.243 -1.63395 -0.903272 0
M  V30 3476 C 350.594 -0.524828 -1.8905 0
M  V30 3477 O 349.719 0.343068 -2.13663 0
M  V30 3478 C 350.314 -2.9618 -1.64507 0
M  V30 3479 C 348.873 -3.0765 -2.1686 0
M  V30 3480 C 348.02 -2.58933 -0.992416 0
M  V30 3481 H 350.971 -1.58344 -0.106253 0
M  V30 3482 H 350.992 -2.86061 -2.50897 0
M  V30 3483 H 350.504 -3.76884 -0.926302 0
M  V30 3484 H 348.605 -2.31611 -2.91868 0
M  V30 3485 H 348.718 -4.1337 -2.42202 0
M  V30 3486 H 347.082 -2.14706 -1.37016 0
M  V30 3487 H 347.865 -3.42089 -0.288041 0
M  V30 3488 N 350.31 0.590341 -1.46126 0
M  V30 3489 C 351.535 1.37991 -1.54833 0
M  V30 3490 C 351.96 1.87163 -0.187506 0
M  V30 3491 O 351.318 1.61133 0.831008 0
M  V30 3492 C 351.366 2.54867 -2.55098 0
M  V30 3493 O 350.47 3.56061 -2.08073 0
M  V30 3494 H 349.811 0.411265 -0.521303 0
M  V30 3495 H 352.341 0.716819 -1.91632 0
M  V30 3496 H 352.351 3.01886 -2.74461 0
M  V30 3497 H 351.026 2.18429 -3.53923 0
M  V30 3498 H 349.603 3.15574 -1.98664 0
M  V30 3499 N 351.788 1.33704 0.83433 0
M  V30 3500 C 353.034 1.25603 1.59222 0
M  V30 3501 C 353.367 -0.176659 1.93395 0
M  V30 3502 O 352.642 -1.11915 1.59076 0
M  V30 3503 C 352.925 2.13576 2.89926 0
M  V30 3504 C 352.778 3.65326 2.62406 0
M  V30 3505 C 354.097 2.01238 3.91397 0
M  V30 3506 H 351.216 0.457613 0.577719 0
M  V30 3507 H 353.858 1.63848 0.961972 0
M  V30 3508 H 352.008 1.8109 3.43713 0
M  V30 3509 H 353.68 4.08124 2.15017 0
M  V30 3510 H 351.923 3.8698 1.96033 0
M  V30 3511 H 352.594 4.22232 3.55562 0
M  V30 3512 H 355.07 2.29738 3.46929 0
M  V30 3513 H 353.946 2.65036 4.80673 0
M  V30 3514 H 354.207 0.985951 4.30966 0
M  V30 3515 N 353.266 -1.05314 1.17247 0
M  V30 3516 C 354.513 -1.78293 0.960091 0
M  V30 3517 C 354.841 -1.87658 -0.51136 0
M  V30 3518 O 354.096 -1.3718 -1.39571 0
M  V30 3519 C 354.395 -3.2229 1.54479 0
M  V30 3520 C 354.061 -3.32987 3.04024 0
M  V30 3521 C 352.723 -3.35613 3.44844 0
M  V30 3522 C 355.075 -3.34102 4.00031 0
M  V30 3523 C 352.403 -3.36982 4.8027 0
M  V30 3524 C 354.755 -3.3701 5.35357 0
M  V30 3525 C 353.419 -3.37923 5.75642 0
M  V30 3526 H 352.689 -0.652422 0.351322 0
M  V30 3527 H 355.336 -1.23782 1.46117 0
M  V30 3528 H 353.641 -3.7972 0.965391 0
M  V30 3529 H 355.338 -3.77376 1.35603 0
M  V30 3530 H 351.928 -3.31655 2.71483 0
M  V30 3531 H 356.112 -3.31276 3.69554 0
M  V30 3532 H 351.368 -3.35999 5.10798 0
M  V30 3533 H 355.542 -3.36822 6.09528 0
M  V30 3534 H 353.169 -3.38738 6.80559 0
M  V30 3535 N 354.744 -0.972509 -1.24016 0
M  V30 3536 C 355.674 -0.525548 -2.27509 0
M  V30 3537 C 356.655 0.437262 -1.64384 0
M  V30 3538 O 357.84 0.332343 -1.91335 0
M  V30 3539 C 354.97 0.180448 -3.46831 0
M  V30 3540 C 353.924 -0.698859 -4.22256 0
M  V30 3541 C 353.25 0.138903 -5.3452 0
M  V30 3542 C 354.55 -1.98582 -4.83076 0
M  V30 3543 H 356.244 -1.39058 -2.65148 0
M  V30 3544 H 353.79 -0.67009 -1.27459 0
M  V30 3545 H 355.743 0.504387 -4.18371 0
M  V30 3546 H 354.467 1.07987 -3.08231 0
M  V30 3547 H 353.126 -1.00614 -3.52523 0
M  V30 3548 H 352.774 1.03862 -4.9216 0
M  V30 3549 H 352.474 -0.446259 -5.85903 0
M  V30 3550 H 353.998 0.457404 -6.08884 0
M  V30 3551 H 355.412 -1.72715 -5.46665 0
M  V30 3552 H 353.809 -2.5181 -5.44713 0
M  V30 3553 H 354.879 -2.67769 -4.04262 0
M  V30 3554 N 356.222 1.38976 -0.743202 0
M  V30 3555 C 357.469 2.00343 -0.294752 0
M  V30 3556 C 357.797 1.58983 1.12047 0
M  V30 3557 O 357.052 0.813809 1.77977 0
M  V30 3558 C 357.351 3.55647 -0.353517 0
M  V30 3559 C 357.017 4.16685 -1.72292 0
M  V30 3560 C 355.679 4.3307 -2.09771 0
M  V30 3561 C 358.031 4.50464 -2.62168 0
M  V30 3562 C 355.359 4.80526 -3.36618 0
M  V30 3563 C 357.711 4.99332 -3.88395 0
M  V30 3564 C 356.375 5.13924 -4.25956 0
M  V30 3565 H 355.645 0.733108 -0.107857 0
M  V30 3566 H 358.292 1.6618 -0.951651 0
M  V30 3567 H 356.597 3.89884 0.386954 0
M  V30 3568 H 358.294 4.00998 0.0117269 0
M  V30 3569 H 354.884 4.04339 -1.42155 0
M  V30 3570 H 359.068 4.37416 -2.3448 0
M  V30 3571 H 354.324 4.90008 -3.65653 0
M  V30 3572 H 358.498 5.2444 -4.58187 0
M  V30 3573 H 356.125 5.50457 -5.2431 0
M  V30 3574 N 357.7 0.491464 1.49741 0
M  V30 3575 C 359.111 0.0413169 1.86654 0
M  V30 3576 C 359.462 -1.36985 1.40462 0
M  V30 3577 O 358.587 -2.01917 0.778354 0
M  V30 3578 C 359.182 0.0682023 3.38731 0
M  V30 3579 C 357.741 -0.32656 3.74981 0
M  V30 3580 C 356.888 0.444888 2.73708 0
M  V30 3581 H 359.839 0.704733 1.42194 0
M  V30 3582 H 359.86 -0.729322 3.73445 0
M  V30 3583 H 359.372 1.09539 3.72321 0
M  V30 3584 H 357.473 -1.35734 3.46997 0
M  V30 3585 H 357.586 -0.013741 4.79098 0
M  V30 3586 H 355.95 -0.104062 2.54487 0
M  V30 3587 H 356.733 1.47197 3.10142 0
M  V30 3588 N 359.178 -1.55987 0.224894 0
M  V30 3589 C 360.589 -1.84553 -0.282345 0
M  V30 3590 C 360.94 -1.14634 -1.59227 0
M  V30 3591 O 360.065 -0.417155 -2.12341 0
M  V30 3592 C 360.66 -3.348 -0.519062 0
M  V30 3593 C 359.219 -3.63671 -0.970604 0
M  V30 3594 C 358.366 -2.77277 -0.0355261 0
M  V30 3595 H 361.317 -1.52245 0.448006 0
M  V30 3596 H 361.338 -3.55187 -1.36463 0
M  V30 3597 H 360.85 -3.8566 0.43449 0
M  V30 3598 H 358.951 -3.1827 -1.9374 0
M  V30 3599 H 359.064 -4.71631 -0.842698 0
M  V30 3600 H 357.428 -2.48846 -0.542927 0
M  V30 3601 H 358.211 -3.30937 0.913003 0
M  V30 3602 N 360.656 0.0484629 -1.57525 0
M  V30 3603 C 361.603 1.05504 -2.05275 0
M  V30 3604 C 362.573 1.37084 -0.937927 0
M  V30 3605 O 363.758 1.47754 -1.2072 0
M  V30 3606 C 360.898 2.35676 -2.52093 0
M  V30 3607 C 360.011 2.10423 -3.77288 0
M  V30 3608 C 359.146 3.34327 -4.12794 0
M  V30 3609 C 358.185 3.04542 -5.30962 0
M  V30 3610 N 357.322 4.20841 -5.61994 0
M  V30 3611 H 362.162 0.640885 -2.91027 0
M  V30 3612 H 359.699 0.304854 -1.43906 0
M  V30 3613 H 361.657 3.11709 -2.77297 0
M  V30 3614 H 360.287 2.7485 -1.69285 0
M  V30 3615 H 359.339 1.24976 -3.59284 0
M  V30 3616 H 360.651 1.84438 -4.63448 0
M  V30 3617 H 359.805 4.1874 -4.39024 0
M  V30 3618 H 358.544 3.63408 -3.25247 0
M  V30 3619 H 357.549 2.18528 -5.04505 0
M  V30 3620 H 358.774 2.76758 -6.20146 0
M  V30 3621 H 356.72 4.4991 -4.77406 0
M  V30 3622 H 356.637 3.98212 -6.42622 0
M  V30 3623 H 357.905 5.06184 -5.92789 0
M  V30 3624 N 362.134 1.5431 0.320358 0
M  V30 3625 C 363.545 1.63872 0.894594 0
M  V30 3626 C 363.896 0.534847 1.88769 0
M  V30 3627 O 363.021 -0.331732 2.13842 0
M  V30 3628 C 363.616 2.97049 1.62934 0
M  V30 3629 C 362.175 3.08796 2.15226 0
M  V30 3630 C 361.322 2.59456 0.978671 0
M  V30 3631 H 364.273 1.58398 0.0978544 0
M  V30 3632 H 364.294 2.87388 2.49376 0
M  V30 3633 H 363.806 3.7737 0.906302 0
M  V30 3634 H 361.907 2.33156 2.90636 0
M  V30 3635 H 362.02 4.14649 2.40006 0
M  V30 3636 H 360.384 2.1543 1.35875 0
M  V30 3637 H 361.167 3.42237 0.269895 0
M  V30 3638 N 363.613 -0.582584 1.46437 0
M  V30 3639 C 364.56 -1.69164 1.5701 0
M  V30 3640 C 365.53 -1.60847 0.414403 0
M  V30 3641 O 366.715 -1.80058 0.631171 0
M  V30 3642 C 363.855 -3.075 1.56646 0
M  V30 3643 C 362.968 -3.2644 2.82951 0
M  V30 3644 C 362.103 -4.55026 2.7409 0
M  V30 3645 C 361.142 -4.6731 3.95333 0
M  V30 3646 N 360.279 -5.87221 3.84858 0
M  V30 3647 H 365.119 -1.59464 2.51744 0
M  V30 3648 H 362.656 -0.777186 1.24893 0
M  V30 3649 H 364.614 -3.8757 1.5442 0
M  V30 3650 H 363.244 -3.16096 0.654439 0
M  V30 3651 H 362.296 -2.39974 2.95155 0
M  V30 3652 H 363.608 -3.31385 3.72808 0
M  V30 3653 H 362.762 -5.43324 2.6997 0
M  V30 3654 H 361.501 -4.52519 1.81873 0
M  V30 3655 H 360.506 -3.77429 3.99784 0
M  V30 3656 H 361.731 -4.71595 4.88646 0
M  V30 3657 H 359.677 -5.85712 2.95427 0
M  V30 3658 H 359.594 -5.93435 4.6837 0
M  V30 3659 H 360.862 -6.7795 3.84713 0
M  V30 3660 N 365.091 -1.34144 -0.827227 0
M  V30 3661 C 366.368 -1.16844 -1.56865 0
M  V30 3662 C 366.748 0.260654 -2.09485 0
M  V30 3663 O 366.096 1.26138 -1.9053 0
M  V30 3664 C 366.306 -2.21939 -2.6934 0
M  V30 3665 C 367.654 -2.56695 -3.3822 0
M  V30 3666 O 368.678 -2.20695 -2.79593 0
M  V30 3667 O 367.537 -3.18518 -4.44082 0
M  V30 3668 H 364.631 -0.452669 -0.692112 0
M  V30 3669 H 367.177 -1.45763 -0.868973 0
M  V30 3670 H 365.949 -3.17882 -2.28182 0
M  V30 3671 H 365.572 -1.94172 -3.46962 0
M  V30 3672 N 366.569 1.04691 -1.17803 0
M  V30 3673 C 367.797 1.81446 -0.99423 0
M  V30 3674 C 368.212 1.83174 0.457459 0
M  V30 3675 O 367.569 1.26265 1.31771 0
M  V30 3676 C 367.62 3.27334 -1.5341 0
M  V30 3677 O 367.341 3.25798 -2.92895 0
M  V30 3678 C 368.842 4.20759 -1.39559 0
M  V30 3679 H 366.062 0.571599 -0.351447 0
M  V30 3680 H 368.606 1.31982 -1.56208 0
M  V30 3681 H 366.761 3.74052 -1.00815 0
M  V30 3682 H 367.175 4.17144 -3.17949 0
M  V30 3683 H 368.649 5.21084 -1.82141 0
M  V30 3684 H 369.126 4.37856 -0.343394 0
M  V30 3685 H 369.732 3.79901 -1.91195 0
M  V30 3686 N 368.047 0.979072 1.23499 0
M  V30 3687 C 368.977 0.537606 2.27227 0
M  V30 3688 C 369.958 -0.428539 1.64613 0
M  V30 3689 O 371.143 -0.322191 1.91509 0
M  V30 3690 C 368.273 -0.162052 3.46922 0
M  V30 3691 C 367.227 0.721242 4.21879 0
M  V30 3692 C 366.553 -0.110555 5.34586 0
M  V30 3693 C 367.853 2.01141 4.82016 0
M  V30 3694 H 369.547 1.40462 2.64406 0
M  V30 3695 H 367.093 0.67684 1.27102 0
M  V30 3696 H 369.046 -0.482192 4.18632 0
M  V30 3697 H 367.77 -1.06351 3.08799 0
M  V30 3698 H 366.429 1.02482 3.51984 0
M  V30 3699 H 366.077 -1.0125 4.92704 0
M  V30 3700 H 365.777 0.477325 5.85658 0
M  V30 3701 H 367.301 -0.425107 6.09118 0
M  V30 3702 H 368.715 1.75612 5.45741 0
M  V30 3703 H 367.112 2.54695 5.43369 0
M  V30 3704 H 368.182 2.69909 4.02836 0
M  V30 3705 N 369.525 -1.3858 0.750561 0
M  V30 3706 C 370.458 -2.28095 0.0693139 0
M  V30 3707 C 371.436 -1.45217 -0.731491 0
M  V30 3708 O 372.62 -1.74587 -0.71076 0
M  V30 3709 C 369.747 -3.26282 -0.90871 0
M  V30 3710 C 368.793 -4.26056 -0.194507 0
M  V30 3711 S 369.626 -5.24026 1.10257 0
M  V30 3712 C 370.782 -6.2577 0.127542 0
M  V30 3713 H 371.015 -2.85526 0.8284 0
M  V30 3714 H 368.548 -1.44536 0.543014 0
M  V30 3715 H 370.506 -3.83367 -1.46766 0
M  V30 3716 H 369.167 -2.6784 -1.64075 0
M  V30 3717 H 368.36 -4.95249 -0.93512 0
M  V30 3718 H 367.962 -3.72852 0.292837 0
M  V30 3719 H 370.254 -6.73796 -0.707516 0
M  V30 3720 H 371.197 -7.03712 0.787044 0
M  V30 3721 H 371.605 -5.63938 -0.251803 0
M  V30 3722 N 371.003 -0.499398 -1.49478 0
M  V30 3723 C 372.252 0.0475259 -2.01644 0
M  V30 3724 C 372.565 1.38195 -1.38425 0
M  V30 3725 O 373.771 2.01547 -1.8191 0
M  V30 3726 C 372.227 0.135164 -3.59646 0
M  V30 3727 C 371.835 -1.19252 -4.31837 0
M  V30 3728 C 373.579 0.632538 -4.19761 0
M  V30 3729 C 371.486 -1.06713 -5.81693 0
M  V30 3730 H 370.416 0.0215349 -0.753692 0
M  V30 3731 H 373.067 -0.638577 -1.7203 0
M  V30 3732 H 371.449 0.885681 -3.85969 0
M  V30 3733 H 372.623 -1.9562 -4.17216 0
M  V30 3734 H 370.938 -1.62321 -3.83459 0
M  V30 3735 H 373.535 0.743833 -5.29501 0
M  V30 3736 H 373.878 1.63098 -3.83021 0
M  V30 3737 H 374.411 -0.0613987 -3.97753 0
M  V30 3738 H 371.15 -2.03979 -6.22955 0
M  V30 3739 H 370.67 -0.344307 -5.98811 0
M  V30 3740 H 372.349 -0.745208 -6.42694 0
M  V30 3741 N 372.481 1.55866 -0.233164 0
M  V30 3742 C 373.706 2.03449 0.402906 0
M  V30 3743 C 374.131 1.11166 1.51736 0
M  V30 3744 O 373.489 0.101996 1.81013 0
M  V30 3745 C 373.537 3.49165 0.9009 0
M  V30 3746 O 372.641 3.60019 2.01147 0
M  V30 3747 H 371.982 0.657913 0.0897025 0
M  V30 3748 H 374.512 2.01493 -0.355201 0
M  V30 3749 H 374.522 3.89716 1.2077 0
M  V30 3750 H 373.197 4.15813 0.0852889 0
M  V30 3751 H 371.774 3.3136 1.71042 0
M  V30 3752 N 373.959 -0.0401083 1.57549 0
M  V30 3753 C 375.375 -0.395556 1.54621 0
M  V30 3754 C 375.575 -1.77281 0.957799 0
M  V30 3755 O 374.631 -2.45888 0.574031 0
M  V30 3756 C 375.944 -0.307535 2.99123 0
M  V30 3757 C 377.492 -0.385425 3.10618 0
M  V30 3758 C 377.967 -0.326973 4.56831 0
M  V30 3759 N 379.458 -0.386102 4.61588 0
M  V30 3760 C 380.193 -0.363591 5.72246 0
M  V30 3761 N 379.689 -0.29402 6.92176 0
M  V30 3762 N 381.482 -0.412503 5.60584 0
M  V30 3763 H 373.633 0.861325 1.94152 0
M  V30 3764 H 375.896 0.326445 0.890021 0
M  V30 3765 H 375.602 0.638461 3.45856 0
M  V30 3766 H 375.476 -1.10552 3.60636 0
M  V30 3767 H 377.863 -1.32185 2.63839 0
M  V30 3768 H 377.944 0.44171 2.51957 0
M  V30 3769 H 377.588 0.605738 5.04275 0
M  V30 3770 H 377.518 -1.17207 5.13391 0
M  V30 3771 H 380.009 -0.442832 3.75296 0
M  V30 3772 H 380.322 -0.28164 7.72287 0
M  V30 3773 H 378.667 -0.260232 6.94513 0
M  V30 3774 H 381.858 -0.464769 4.65787 0
M  V30 3775 H 382.031 -0.391492 6.46816 0
M  V30 3776 N 375.437 -1.54477 -0.31217 0
M  V30 3777 C 376.665 -1.77205 -1.068 0
M  V30 3778 C 377.08 -0.526114 -1.81321 0
M  V30 3779 O 376.437 0.503647 -1.75413 0
M  V30 3780 C 376.488 -2.97253 -2.05725 0
M  V30 3781 O 376.209 -4.1703 -1.34228 0
M  V30 3782 C 377.71 -3.32281 -2.93435 0
M  V30 3783 H 374.93 -0.591287 -0.317208 0
M  V30 3784 H 377.474 -2.01398 -0.354834 0
M  V30 3785 H 375.629 -2.753 -2.72559 0
M  V30 3786 H 376.043 -4.84636 -2.00571 0
M  V30 3787 H 377.517 -4.19551 -3.58721 0
M  V30 3788 H 377.994 -2.49945 -3.61143 0
M  V30 3789 H 378.6 -3.56353 -2.32147 0
M  V30 3790 N 376.915 0.57481 -1.46744 0
M  V30 3791 C 378.326 1.15695 -1.46532 0
M  V30 3792 C 378.677 1.95068 -0.210425 0
M  V30 3793 O 377.802 2.05241 0.685944 0
M  V30 3794 C 378.397 2.1048 -2.65487 0
M  V30 3795 C 376.956 2.64002 -2.68291 0
M  V30 3796 C 376.103 1.40026 -2.39349 0
M  V30 3797 H 379.054 0.362325 -1.54509 0
M  V30 3798 H 379.075 2.94074 -2.41455 0
M  V30 3799 H 378.587 1.52683 -3.56805 0
M  V30 3800 H 376.688 3.25646 -1.81067 0
M  V30 3801 H 376.801 3.06197 -3.68483 0
M  V30 3802 H 375.165 1.70106 -1.89568 0
M  V30 3803 H 375.948 0.840485 -3.32852 0
M  V30 3804 N 378.394 1.34581 0.820102 0
M  V30 3805 C 379.304 1.28471 1.96297 0
M  V30 3806 C 380.32 0.191902 1.72939 0
M  V30 3807 O 381.496 0.418879 1.96996 0
M  V30 3808 C 378.561 1.04281 3.30645 0
M  V30 3809 C 377.622 2.22745 3.66992 0
M  V30 3810 C 376.855 1.997 4.9493 0
M  V30 3811 O 377.078 0.956656 5.6232 0
M  V30 3812 O 376.012 2.86723 5.2922 0
M  V30 3813 H 379.838 2.24624 2.04396 0
M  V30 3814 H 377.423 1.14816 0.955913 0
M  V30 3815 H 379.305 0.925841 4.11104 0
M  V30 3816 H 377.98 0.111697 3.23507 0
M  V30 3817 H 376.887 2.40003 2.86966 0
M  V30 3818 H 378.22 3.14257 3.78819 0
M  V30 3819 N 379.872 -1.04064 1.18357 0
M  V30 3820 C 381.118 -1.77528 0.980397 0
M  V30 3821 C 381.451 -1.87948 -0.48879 0
M  V30 3822 O 380.726 -1.3876 -1.36293 0
M  V30 3823 C 381.009 -3.20797 1.63588 0
M  V30 3824 C 380.862 -3.1832 3.17793 0
M  V30 3825 C 382.181 -4.18911 1.34914 0
M  V30 3826 H 379.3 -0.644443 0.357578 0
M  V30 3827 H 381.942 -1.2156 1.46024 0
M  V30 3828 H 380.092 -3.68586 1.22788 0
M  V30 3829 H 381.764 -2.78521 3.67728 0
M  V30 3830 H 380.007 -2.56351 3.49952 0
M  V30 3831 H 380.678 -4.19489 3.58794 0
M  V30 3832 H 383.154 -3.7967 1.70265 0
M  V30 3833 H 382.03 -5.17374 1.83346 0
M  V30 3834 H 382.291 -4.41262 0.272027 0
M  V30 3835 N 381.35 -0.985608 -1.22978 0
M  V30 3836 C 382.578 -0.675582 -1.95559 0
M  V30 3837 C 382.993 0.758413 -1.72897 0
M  V30 3838 O 382.35 1.51094 -1.02357 0
M  V30 3839 C 382.401 -0.96293 -3.48439 0
M  V30 3840 O 382.122 -2.34057 -3.70336 0
M  V30 3841 C 383.623 -0.669585 -4.38214 0
M  V30 3842 H 380.843 -0.250523 -0.622478 0
M  V30 3843 H 383.387 -1.3184 -1.56328 0
M  V30 3844 H 381.542 -0.366033 -3.85667 0
M  V30 3845 H 381.956 -2.43424 -4.64591 0
M  V30 3846 H 383.43 -0.920967 -5.44263 0
M  V30 3847 H 383.907 0.396383 -4.37408 0
M  V30 3848 H 384.513 -1.2472 -4.06602 0
M  V30 3849 N 382.828 1.3818 -0.7579 0
M  V30 3850 C 384.068 2.01864 -0.320968 0
M  V30 3851 C 384.432 1.58863 1.07827 0
M  V30 3852 O 385.633 2.14908 1.61456 0
M  V30 3853 C 383.904 3.54626 -0.44446 0
M  V30 3854 S 385.463 4.38706 -0.0907467 0
M  V30 3855 H 382.281 0.700056 -0.124268 0
M  V30 3856 H 384.883 1.68611 -0.989468 0
M  V30 3857 H 383.587 3.83411 -1.4637 0
M  V30 3858 H 383.118 3.92661 0.241073 0
M  V30 3859 H 385.133 4.83435 1.11826 0
M  V30 3860 N 384.306 0.507319 1.49211 0
M  V30 3861 C 385.552 -0.0350047 2.0277 0
M  V30 3862 C 385.885 -1.3606 1.38569 0
M  V30 3863 O 385.16 -1.87321 0.523542 0
M  V30 3864 C 385.443 -0.180916 3.59645 0
M  V30 3865 C 385.296 1.16825 4.34364 0
M  V30 3866 C 386.615 -0.918558 4.30407 0
M  V30 3867 H 383.734 -0.0112473 0.736914 0
M  V30 3868 H 386.376 0.659956 1.7817 0
M  V30 3869 H 384.526 -0.772826 3.80736 0
M  V30 3870 H 386.198 1.79952 4.24753 0
M  V30 3871 H 384.441 1.75594 3.96673 0
M  V30 3872 H 385.112 1.01939 5.42506 0
M  V30 3873 H 387.588 -0.41649 4.1401 0
M  V30 3874 H 386.464 -0.989505 5.39907 0
M  V30 3875 H 386.725 -1.96373 3.96093 0
M  V30 3876 N 385.784 -1.5574 0.241426 0
M  V30 3877 C 387.03 -1.99104 -0.385406 0
M  V30 3878 C 387.363 -1.1293 -1.57988 0
M  V30 3879 O 386.638 -0.191449 -1.93555 0
M  V30 3880 C 386.921 -3.51087 -0.800616 0
M  V30 3881 C 386.774 -4.48028 0.398874 0
M  V30 3882 C 388.093 -4.08015 -1.64959 0
M  V30 3883 H 385.212 -0.723848 -0.138614 0
M  V30 3884 H 387.854 -1.86903 0.341642 0
M  V30 3885 H 386.004 -3.61615 -1.4201 0
M  V30 3886 H 387.676 -4.49487 1.03726 0
M  V30 3887 H 385.919 -4.21077 1.04293 0
M  V30 3888 H 386.59 -5.51962 0.0651056 0
M  V30 3889 H 389.066 -4.00555 -1.12672 0
M  V30 3890 H 387.942 -5.14635 -1.90898 0
M  V30 3891 H 388.203 -3.56131 -2.61961 0
M  V30 3892 N 387.262 0.0317525 -1.57568 0
M  V30 3893 C 388.508 0.724175 -1.8943 0
M  V30 3894 C 388.841 1.75149 -0.838836 0
M  V30 3895 O 388.116 1.93948 0.146422 0
M  V30 3896 C 388.399 1.39615 -3.31933 0
M  V30 3897 C 388.252 0.382537 -4.4817 0
M  V30 3898 C 389.571 2.33084 -3.73309 0
M  V30 3899 H 386.69 0.261797 -0.688935 0
M  V30 3900 H 389.332 -0.013017 -1.89996 0
M  V30 3901 H 387.482 2.02451 -3.31581 0
M  V30 3902 H 389.154 -0.243689 -4.60656 0
M  V30 3903 H 387.397 -0.29844 -4.32772 0
M  V30 3904 H 388.068 0.891145 -5.44759 0
M  V30 3905 H 390.544 1.80295 -3.7501 0
M  V30 3906 H 389.42 2.77084 -4.73831 0
M  V30 3907 H 389.681 3.19643 -3.05419 0
M  V30 3908 N 388.74 1.54641 0.303973 0
M  V30 3909 C 390.017 1.64455 1.05896 0
M  V30 3910 C 390.397 0.490923 2.05312 0
M  V30 3911 O 389.745 -0.512685 2.22674 0
M  V30 3912 C 389.955 3.02331 1.74347 0
M  V30 3913 C 391.303 3.59045 2.26653 0
M  V30 3914 O 392.327 3.04764 1.84384 0
M  V30 3915 O 391.186 4.54081 3.04093 0
M  V30 3916 H 388.28 0.666729 0.489287 0
M  V30 3917 H 390.826 1.66986 0.302298 0
M  V30 3918 H 389.598 3.77734 1.02142 0
M  V30 3919 H 389.221 3.03565 2.56777 0
M  V30 3920 N 390.218 -0.567019 1.47046 0
M  V30 3921 C 391.464 -1.32658 1.53394 0
M  V30 3922 C 391.797 -1.93254 0.19148 0
M  V30 3923 O 391.072 -1.77338 -0.798844 0
M  V30 3924 C 391.355 -2.44412 2.64452 0
M  V30 3925 C 391.208 -1.88749 4.08282 0
M  V30 3926 C 392.527 -3.46387 2.71485 0
M  V30 3927 H 389.646 -0.48098 0.558415 0
M  V30 3928 H 392.288 -0.635481 1.79058 0
M  V30 3929 H 390.438 -3.03363 2.427 0
M  V30 3930 H 392.11 -1.34134 4.41368 0
M  V30 3931 H 390.353 -1.19481 4.17021 0
M  V30 3932 H 391.024 -2.69491 4.81745 0
M  V30 3933 H 393.5 -2.9734 2.91081 0
M  V30 3934 H 392.376 -4.2202 3.50985 0
M  V30 3935 H 392.637 -4.04616 1.78153 0
M  V30 3936 N 391.696 -1.35014 -0.812953 0
M  V30 3937 C 392.921 -1.31187 -1.60639 0
M  V30 3938 C 393.346 0.109382 -1.87782 0
M  V30 3939 O 392.704 1.07424 -1.46047 0
M  V30 3940 C 392.752 -2.11809 -2.91838 0
M  V30 3941 O 391.856 -1.49444 -3.8437 0
M  V30 3942 H 391.197 -0.450084 -0.488181 0
M  V30 3943 H 393.727 -1.77963 -1.00947 0
M  V30 3944 H 393.737 -2.23531 -3.41318 0
M  V30 3945 H 392.412 -3.15137 -2.71407 0
M  V30 3946 H 390.989 -1.46524 -3.42907 0
M  V30 3947 N 393.175 1.03435 -1.18907 0
M  V30 3948 C 394.107 2.1165 -0.879595 0
M  V30 3949 C 395.12 1.62316 0.125439 0
M  V30 3950 O 396.309 1.78201 -0.103245 0
M  V30 3951 C 393.409 3.37622 -0.294042 0
M  V30 3952 C 392.582 4.16166 -1.34629 0
M  V30 3953 C 391.641 5.20457 -0.775274 0
M  V30 3954 O 390.667 5.50379 -1.4516 0
M  V30 3955 N 391.869 5.78949 0.424126 0
M  V30 3956 H 394.634 2.38791 -1.81105 0
M  V30 3957 H 392.195 1.19681 -1.09032 0
M  V30 3958 H 394.187 4.04572 0.101679 0
M  V30 3959 H 392.757 3.07873 0.541575 0
M  V30 3960 H 391.977 3.44444 -1.91707 0
M  V30 3961 H 393.265 4.65432 -2.05549 0
M  V30 3962 H 392.663 5.56948 0.991209 0
M  V30 3963 H 391.22 6.47334 0.761691 0
M  V30 3964 N 394.653 0.992116 1.22453 0
M  V30 3965 C 395.563 0.55065 2.28046 0
M  V30 3966 C 396.579 -0.400189 1.69335 0
M  V30 3967 O 397.755 -0.267215 1.99619 0
M  V30 3968 C 394.82 -0.128496 3.46462 0
M  V30 3969 C 393.881 0.865208 4.20491 0
M  V30 3970 C 393.114 0.218377 5.33253 0
M  V30 3971 O 393.337 -0.987894 5.6178 0
M  V30 3972 O 392.271 0.922845 5.94783 0
M  V30 3973 H 396.097 1.4291 2.67975 0
M  V30 3974 H 393.682 0.760326 1.28606 0
M  V30 3975 H 395.564 -0.508947 4.18315 0
M  V30 3976 H 394.239 -0.981526 3.0846 0
M  V30 3977 H 393.146 1.29658 3.50913 0
M  V30 3978 H 394.479 1.68741 4.62371 0
M  V30 3979 N 396.131 -1.37776 0.765217 0
M  V30 3980 C 397.408 -1.93975 0.251596 0
M  V30 3981 C 397.788 -1.69949 -1.25222 0
M  V30 3982 O 397.136 -1.04457 -2.03226 0
M  V30 3983 C 397.346 -3.43487 0.617895 0
M  V30 3984 C 398.694 -4.20564 0.584029 0
M  V30 3985 O 399.718 -3.5182 0.556888 0
M  V30 3986 O 398.577 -5.43138 0.605291 0
M  V30 3987 H 395.671 -0.82509 0.0561806 0
M  V30 3988 H 398.217 -1.47101 0.846128 0
M  V30 3989 H 396.989 -3.5453 1.65602 0
M  V30 3990 H 396.612 -3.976 -0.00403411 0
M  V30 3991 N 397.609 -0.515225 -1.4894 0
M  V30 3992 C 399.02 -0.0710067 -1.86565 0
M  V30 3993 C 399.371 1.34733 -1.42623 0
M  V30 3994 O 398.496 2.00653 -0.810379 0
M  V30 3995 C 399.091 -0.122083 -3.3858 0
M  V30 3996 C 397.65 0.266863 -3.75453 0
M  V30 3997 C 396.797 -0.488376 -2.72966 0
M  V30 3998 H 399.748 -0.727266 -1.41055 0
M  V30 3999 H 399.769 0.669818 -3.74558 0
M  V30 4000 H 399.281 -1.15448 -3.70531 0
M  V30 4001 H 397.382 1.30196 -3.49113 0
M  V30 4002 H 397.495 -0.0624811 -4.79059 0
M  V30 4003 H 395.859 0.0635622 -2.54621 0
M  V30 4004 H 396.642 -1.52113 -3.07761 0
M  V30 4005 N 399.087 1.5561 -0.249682 0
M  V30 4006 C 399.997 2.25143 0.659375 0
M  V30 4007 C 401.013 1.2685 1.19101 0
M  V30 4008 O 402.189 1.59732 1.22669 0
M  V30 4009 C 399.254 2.93945 1.8384 0
M  V30 4010 C 398.315 4.07655 1.34596 0
M  V30 4011 C 397.548 4.73167 2.46878 0
M  V30 4012 O 397.771 4.37768 3.65671 0
M  V30 4013 O 396.705 5.61623 2.16478 0
M  V30 4014 H 400.531 3.03545 0.0968698 0
M  V30 4015 H 398.116 1.49389 -0.018074 0
M  V30 4016 H 399.998 3.37271 2.52638 0
M  V30 4017 H 398.673 2.18481 2.38847 0
M  V30 4018 H 397.58 3.68839 0.625174 0
M  V30 4019 H 398.913 4.84946 0.841941 0
M  V30 4020 N 400.565 -0.0233959 1.57583 0
M  V30 4021 C 401.811 -0.714119 1.89811 0
M  V30 4022 C 402.144 -1.74702 0.848113 0
M  V30 4023 O 401.419 -1.94023 -0.136135 0
M  V30 4024 C 401.702 -1.37853 3.32669 0
M  V30 4025 C 401.555 -0.358764 4.48367 0
M  V30 4026 C 402.874 -2.31101 3.7454 0
M  V30 4027 H 399.993 -0.25814 0.690314 0
M  V30 4028 H 402.635 0.0230927 1.89986 0
M  V30 4029 H 400.785 -2.00689 3.3265 0
M  V30 4030 H 402.457 0.268115 4.6052 0
M  V30 4031 H 400.7 0.321387 4.32608 0
M  V30 4032 H 401.371 -0.862242 5.45224 0
M  V30 4033 H 403.847 -1.78304 3.75961 0
M  V30 4034 H 402.723 -2.74567 4.75294 0
M  V30 4035 H 402.984 -3.18018 3.0711 0
M  V30 4036 N 402.043 -1.548 -0.295768 0
M  V30 4037 C 402.975 -1.82492 -1.3867 0
M  V30 4038 C 403.988 -0.708134 -1.46592 0
M  V30 4039 O 405.177 -0.985686 -1.48817 0
M  V30 4040 C 402.277 -1.95256 -2.76999 0
M  V30 4041 C 401.45 -3.25709 -2.91946 0
M  V30 4042 C 400.509 -3.28824 -4.10806 0
M  V30 4043 O 399.535 -4.02328 -4.02643 0
M  V30 4044 N 400.737 -2.5459 -5.21694 0
M  V30 4045 H 403.502 -2.76646 -1.15269 0
M  V30 4046 H 401.063 -1.54438 -0.485849 0
M  V30 4047 H 403.055 -1.94736 -3.54768 0
M  V30 4048 H 401.625 -1.08072 -2.93324 0
M  V30 4049 H 400.845 -3.38959 -2.01247 0
M  V30 4050 H 402.133 -4.11786 -2.98847 0
M  V30 4051 H 401.531 -1.94512 -5.31208 0
M  V30 4052 H 400.088 -2.59818 -5.97778 0
M  V30 4053 N 403.521 0.559213 -1.47345 0
M  V30 4054 C 404.768 1.31648 -1.53867 0
M  V30 4055 C 405.096 1.93468 -0.200104 0
M  V30 4056 O 404.351 1.78295 0.806799 0
M  V30 4057 C 404.65 2.44853 -2.6035 0
M  V30 4058 C 404.316 2.00876 -4.03683 0
M  V30 4059 C 402.978 1.88599 -4.42701 0
M  V30 4060 C 405.33 1.67279 -4.93626 0
M  V30 4061 C 402.658 1.41017 -5.69501 0
M  V30 4062 C 405.01 1.21169 -6.20887 0
M  V30 4063 C 403.674 1.07487 -6.58789 0
M  V30 4064 H 402.944 0.481734 -0.56304 0
M  V30 4065 H 405.591 0.627301 -1.80934 0
M  V30 4066 H 403.896 3.19318 -2.27032 0
M  V30 4067 H 405.593 3.03039 -2.62619 0
M  V30 4068 H 402.183 2.11374 -3.72853 0
M  V30 4069 H 406.367 1.75638 -4.64182 0
M  V30 4070 H 401.623 1.29086 -5.97618 0
M  V30 4071 H 405.797 0.942345 -6.89995 0
M  V30 4072 H 403.424 0.703946 -7.56934 0
M  V30 4073 N 404.999 1.35443 0.805782 0
M  V30 4074 C 405.947 1.28465 1.93906 0
M  V30 4075 C 406.941 0.17943 1.68447 0
M  V30 4076 O 408.147 0.345459 1.76654 0
M  V30 4077 H 404.522 0.399528 0.637088 0
M  V30 4078 H 406.493 2.24206 1.96912 0
M  V30 4079 C 405.242 1.07432 3.30687 0
M  V30 4080 H 404.565 1.91716 3.50835 0
M  V30 4081 H 406.005 1.06591 4.10383 0
M  V30 4082 C 404.464 -0.22179 3.36169 0
M  V30 4083 O 404.994 -1.21731 3.82811 0
M  V30 4084 N 403.2 -0.260841 2.89427 0
M  V30 4085 H 402.747 0.549884 2.51663 0
M  V30 4086 H 402.705 -1.12777 2.93477 0
M  V30 4087 N 406.477 -1.02803 1.19454 0
M  V30 4088 C 407.723 -1.76598 1.0092 0
M  V30 4089 C 408.078 -1.86939 -0.455142 0
M  V30 4090 O 407.371 -1.37575 -1.33355 0
M  V30 4091 C 407.565 -3.18941 1.6128 0
M  V30 4092 C 407.394 -3.22476 3.13431 0
M  V30 4093 C 406.164 -3.30375 3.82336 0
M  V30 4094 C 408.362 -3.09451 4.10785 0
M  V30 4095 N 406.344 -3.23292 5.21877 0
M  V30 4096 C 407.715 -3.10012 5.36929 0
M  V30 4097 C 409.77 -2.93585 4.02135 0
M  V30 4098 C 408.473 -2.96334 6.55423 0
M  V30 4099 C 410.499 -2.81256 5.20239 0
M  V30 4100 C 409.861 -2.82472 6.45282 0
M  V30 4101 H 405.96 -0.657447 0.423424 0
M  V30 4102 H 408.544 -1.22369 1.5144 0
M  V30 4103 H 406.715 -3.71489 1.1336 0
M  V30 4104 H 408.447 -3.81102 1.36173 0
M  V30 4105 H 405.202 -3.3663 3.33132 0
M  V30 4106 H 405.626 -3.23156 5.94894 0
M  V30 4107 H 410.268 -2.91466 3.0628 0
M  V30 4108 H 407.986 -2.97203 7.51463 0
M  V30 4109 H 411.572 -2.70014 5.15348 0
M  V30 4110 H 410.452 -2.73036 7.35133 0
M  V30 4111 N 407.956 -0.998596 -1.21925 0
M  V30 4112 C 409.186 -0.695276 -1.94549 0
M  V30 4113 C 409.594 0.745079 -1.73911 0
M  V30 4114 O 408.937 1.51507 -1.03881 0
M  V30 4115 C 408.999 -0.928485 -3.47303 0
M  V30 4116 C 408.663 -2.35443 -3.91683 0
M  V30 4117 C 409.66 -3.33428 -3.98901 0
M  V30 4118 C 407.345 -2.69038 -4.24174 0
M  V30 4119 C 409.339 -4.63079 -4.37992 0
M  V30 4120 C 407.026 -3.98906 -4.62944 0
M  V30 4121 C 408.024 -4.95738 -4.69822 0
M  V30 4122 O 407.712 -6.23285 -5.07711 0
M  V30 4123 H 407.444 -0.255902 -0.625692 0
M  V30 4124 H 409.998 -1.33767 -1.5587 0
M  V30 4125 H 408.228 -0.228917 -3.86022 0
M  V30 4126 H 409.917 -0.619539 -4.01144 0
M  V30 4127 H 410.683 -3.08807 -3.73983 0
M  V30 4128 H 406.562 -1.94367 -4.18022 0
M  V30 4129 H 410.106 -5.38658 -4.43275 0
M  V30 4130 H 406.003 -4.23314 -4.87314 0
M  V30 4131 H 406.771 -6.27306 -5.25766 0
M  V30 4132 N 409.434 1.37368 -0.772513 0
M  V30 4133 C 410.68 1.99969 -0.337681 0
M  V30 4134 C 411.013 1.61184 1.08321 0
M  V30 4135 O 410.288 0.858395 1.74533 0
M  V30 4136 C 410.571 3.56858 -0.482121 0
M  V30 4137 C 410.424 4.0555 -1.94549 0
M  V30 4138 C 411.743 4.39955 0.113143 0
M  V30 4139 H 408.862 0.726464 -0.124171 0
M  V30 4140 H 411.504 1.63034 -0.975699 0
M  V30 4141 H 409.654 3.88452 0.0610361 0
M  V30 4142 H 411.326 3.84518 -2.54841 0
M  V30 4143 H 409.569 3.57715 -2.45403 0
M  V30 4144 H 410.24 5.14587 -1.9976 0
M  V30 4145 H 412.716 4.14623 -0.35031 0
M  V30 4146 H 411.592 5.48897 -0.0180514 0
M  V30 4147 H 411.853 4.25403 1.20354 0
M  V30 4148 N 410.912 0.523116 1.48665 0
M  V30 4149 C 412.189 -0.0775449 1.95446 0
M  V30 4150 C 412.569 -1.5197 1.4652 0
M  V30 4151 O 411.917 -2.17876 0.688657 0
M  V30 4152 C 412.127 0.0326135 3.48985 0
M  V30 4153 C 413.475 -0.130141 4.24401 0
M  V30 4154 O 414.499 -0.0415142 3.56176 0
M  V30 4155 O 413.358 -0.31491 5.45592 0
M  V30 4156 H 410.452 -0.0831012 0.822814 0
M  V30 4157 H 412.998 0.587227 1.59216 0
M  V30 4158 H 411.77 1.03748 3.77296 0
M  V30 4159 H 411.393 -0.671317 3.91892 0
M  V30 4160 N 412.39 -1.55475 0.257931 0
M  V30 4161 C 413.638 -1.98813 -0.363009 0
M  V30 4162 C 413.959 -1.14757 -1.57657 0
M  V30 4163 O 413.229 -0.232956 -1.9451 0
M  V30 4164 H 411.809 -0.734308 -0.137113 0
M  V30 4165 H 414.471 -1.9156 0.359281 0
M  V30 4166 H 413.567 -3.04941 -0.664634 0
M  V30 4167 N 413.868 0.0150385 -1.57593 0
M  V30 4168 C 415.114 0.704043 -1.90187 0
M  V30 4169 C 415.447 1.74249 -0.857366 0
M  V30 4170 O 414.722 1.94092 0.125843 0
M  V30 4171 C 415.005 1.36087 -3.33395 0
M  V30 4172 C 414.858 0.334981 -4.48551 0
M  V30 4173 C 416.177 2.29112 -3.7576 0
M  V30 4174 H 413.296 0.254475 -0.691673 0
M  V30 4175 H 415.938 -0.0331678 -1.89971 0
M  V30 4176 H 414.088 1.98922 -3.3371 0
M  V30 4177 H 415.76 -0.292534 -4.60372 0
M  V30 4178 H 414.003 -0.344325 -4.32431 0
M  V30 4179 H 414.674 0.833316 -5.45674 0
M  V30 4180 H 417.15 1.76308 -3.76902 0
M  V30 4181 H 416.026 2.72043 -4.76743 0
M  V30 4182 H 416.287 3.16385 -3.08793 0
M  V30 4183 N 415.346 1.54954 0.287554 0
M  V30 4184 C 416.256 1.8991 1.37736 0
M  V30 4185 C 417.272 0.794701 1.54792 0
M  V30 4186 O 418.448 1.09243 1.69198 0
M  V30 4187 C 415.513 2.15108 2.71899 0
M  V30 4188 C 414.574 3.38752 2.63715 0
M  V30 4189 C 413.807 3.62739 3.91479 0
M  V30 4190 O 414.03 2.89492 4.91478 0
M  V30 4191 O 412.964 4.56267 3.92561 0
M  V30 4192 H 416.79 2.82652 1.11092 0
M  V30 4193 H 414.375 1.41315 0.484807 0
M  V30 4194 H 416.257 2.32806 3.51254 0
M  V30 4195 H 414.932 1.25551 2.9836 0
M  V30 4196 H 413.839 3.26405 1.82786 0
M  V30 4197 H 415.172 4.28483 2.42205 0
M  V30 4198 N 416.824 -0.551391 1.4764 0
M  V30 4199 C 418.07 -1.31024 1.54792 0
M  V30 4200 C 418.403 -1.9304 0.211967 0
M  V30 4201 O 417.678 -1.78175 -0.77999 0
M  V30 4202 C 417.961 -2.41593 2.67029 0
M  V30 4203 C 417.814 -1.84408 4.10261 0
M  V30 4204 C 419.133 -3.43488 2.75143 0
M  V30 4205 H 416.252 -0.475031 0.563485 0
M  V30 4206 H 418.894 -0.616454 1.79722 0
M  V30 4207 H 417.044 -3.00772 2.45904 0
M  V30 4208 H 418.716 -1.29445 4.42766 0
M  V30 4209 H 416.959 -1.15051 4.18265 0
M  V30 4210 H 417.63 -2.64367 4.84576 0
M  V30 4211 H 420.106 -2.94236 2.94218 0
M  V30 4212 H 418.982 -4.18274 3.55441 0
M  V30 4213 H 419.243 -4.02703 1.82435 0
M  V30 4214 N 418.302 -1.35869 -0.798587 0
M  V30 4215 C 419.252 -1.25982 -1.90033 0
M  V30 4216 C 420.236 -0.153303 -1.60168 0
M  V30 4217 O 421.428 -0.38527 -1.72756 0
M  V30 4218 C 418.557 -1.04211 -3.27101 0
M  V30 4219 C 417.643 -2.19289 -3.63006 0
M  V30 4220 N 418.034 -3.44559 -3.70287 0
M  V30 4221 C 416.332 -2.10852 -3.93011 0
M  V30 4222 C 417.033 -4.20283 -4.02166 0
M  V30 4223 N 416.009 -3.49124 -4.16669 0
M  V30 4224 H 419.811 -2.20883 -1.93876 0
M  V30 4225 H 417.325 -1.28457 -0.993614 0
M  V30 4226 H 419.322 -0.952155 -4.05881 0
M  V30 4227 H 417.982 -0.102013 -3.2454 0
M  V30 4228 H 418.993 -3.7881 -3.53162 0
M  V30 4229 H 415.67 -1.24744 -3.98428 0
M  V30 4230 H 417.06 -5.28575 -4.14799 0
M  V30 4231 N 419.78 1.02168 -1.19998 0
M  V30 4232 C 420.728 2.12717 -0.940967 0
M  V30 4233 C 421.722 1.69069 0.105841 0
M  V30 4234 O 422.928 1.79946 -0.0440583 0
M  V30 4235 H 419.303 0.695108 -0.28693 0
M  V30 4236 H 421.274 2.3175 -1.87975 0
M  V30 4237 C 420.023 3.44027 -0.504049 0
M  V30 4238 H 419.346 3.78036 -1.30112 0
M  V30 4239 H 420.786 4.22452 -0.361991 0
M  V30 4240 C 419.245 3.27678 0.782878 0
M  V30 4241 O 419.775 3.56949 1.84256 0
M  V30 4242 N 417.981 2.80943 0.742921 0
M  V30 4243 H 417.528 2.57322 -0.119687 0
M  V30 4244 H 417.486 2.70385 1.60435 0
M  V30 4245 N 421.258 1.00505 1.21394 0
M  V30 4246 C 422.221 0.570459 2.21987 0
M  V30 4247 C 423.221 -0.353211 1.56873 0
M  V30 4248 O 424.411 -0.14349 1.73608 0
M  V30 4249 C 421.543 -0.168555 3.40483 0
M  V30 4250 H 422.736 1.46021 2.6195 0
M  V30 4251 H 420.289 0.793565 1.34656 0
M  V30 4252 H 421.024 -1.07374 3.06009 0
M  V30 4253 H 420.809 0.494823 3.88965 0
M  V30 4254 H 422.299 -0.460362 4.15055 0
M  V30 4255 N 422.737 -1.36956 0.779787 0
M  V30 4256 C 423.684 -2.30175 0.169697 0
M  V30 4257 C 424.654 -1.51501 -0.68094 0
M  V30 4258 O 425.839 -1.80042 -0.631629 0
M  V30 4259 C 422.979 -3.37985 -0.697131 0
M  V30 4260 C 422.092 -4.31661 0.170992 0
M  V30 4261 C 421.227 -5.2655 -0.701298 0
M  V30 4262 C 420.266 -6.11867 0.168869 0
M  V30 4263 N 419.403 -6.98973 -0.661855 0
M  V30 4264 H 424.243 -2.81767 0.970135 0
M  V30 4265 H 421.78 -1.38699 0.489994 0
M  V30 4266 H 423.738 -3.99128 -1.2146 0
M  V30 4267 H 422.368 -2.87739 -1.46309 0
M  V30 4268 H 421.42 -3.71756 0.80634 0
M  V30 4269 H 422.732 -4.91644 0.841875 0
M  V30 4270 H 421.886 -5.92937 -1.28494 0
M  V30 4271 H 420.625 -4.66998 -1.40584 0
M  V30 4272 H 419.63 -5.44452 0.764986 0
M  V30 4273 H 420.855 -6.73493 0.870863 0
M  V30 4274 H 418.801 -6.41941 -1.35086 0
M  V30 4275 H 418.718 -7.55984 -0.0484447 0
M  V30 4276 H 419.986 -7.6974 -1.22963 0
M  V30 4277 N 424.215 -0.530993 -1.48385 0
M  V30 4278 C 425.443 -0.00134122 -2.069 0
M  V30 4279 C 425.858 1.2805 -1.3874 0
M  V30 4280 O 425.215 1.76204 -0.475244 0
M  V30 4281 C 425.266 0.225256 -3.60798 0
M  V30 4282 O 424.987 -1.0058 -4.26398 0
M  V30 4283 C 426.488 0.795172 -4.3611 0
M  V30 4284 H 423.708 -0.0339704 -0.67014 0
M  V30 4285 H 426.252 -0.736926 -1.90761 0
M  V30 4286 H 424.407 0.910891 -3.76539 0
M  V30 4287 H 424.821 -0.787165 -5.1856 0
M  V30 4288 H 426.295 0.903143 -5.44562 0
M  V30 4289 H 426.772 1.80031 -4.00606 0
M  V30 4290 H 427.378 0.146069 -4.25049 0
M  V30 4291 N 425.693 1.55336 -0.266172 0
M  V30 4292 C 426.64 2.22172 0.625165 0
M  V30 4293 C 427.61 1.19211 1.15663 0
M  V30 4294 O 428.795 1.47723 1.20758 0
M  V30 4295 C 425.935 2.93972 1.8076 0
M  V30 4296 C 425.048 4.11632 1.31084 0
M  V30 4297 C 424.183 4.71099 2.45436 0
M  V30 4298 C 423.222 5.8097 1.92718 0
M  V30 4299 N 422.359 6.34538 3.00509 0
M  V30 4300 H 427.199 2.9796 0.0485582 0
M  V30 4301 H 424.736 1.47095 0.0122024 0
M  V30 4302 H 426.694 3.33811 2.50251 0
M  V30 4303 H 425.324 2.20623 2.35638 0
M  V30 4304 H 424.376 3.76975 0.509326 0
M  V30 4305 H 425.688 4.90893 0.884633 0
M  V30 4306 H 424.842 5.13612 3.22936 0
M  V30 4307 H 423.581 3.91096 2.91368 0
M  V30 4308 H 422.586 5.37916 1.13695 0
M  V30 4309 H 423.811 6.62836 1.47733 0
M  V30 4310 H 421.757 5.57433 3.45839 0
M  V30 4311 H 421.674 7.09046 2.62279 0
M  V30 4312 H 422.942 6.81709 3.78011 0
M  V30 4313 N 427.171 -0.0066808 1.57599 0
M  V30 4314 C 428.582 -0.550379 1.78403 0
M  V30 4315 C 428.933 -1.74339 0.900014 0
M  V30 4316 O 428.058 -2.16166 0.100713 0
M  V30 4317 C 428.653 -1.00523 3.23544 0
M  V30 4318 C 427.212 -1.49428 3.45468 0
M  V30 4319 C 426.359 -0.442444 2.73748 0
M  V30 4320 H 429.31 0.219508 1.57175 0
M  V30 4321 H 429.331 -1.87157 3.31289 0
M  V30 4322 H 428.843 -0.136735 3.87859 0
M  V30 4323 H 426.944 -2.3839 2.86358 0
M  V30 4324 H 427.057 -1.52635 4.54136 0
M  V30 4325 H 425.421 -0.902578 2.38171 0
M  V30 4326 H 426.204 0.416973 3.40758 0
M  V30 4327 N 428.649 -1.55105 -0.279332 0
M  V30 4328 C 430.065 -1.46803 -0.626187 0
M  V30 4329 C 430.265 -0.676939 -1.89789 0
M  V30 4330 O 429.321 -0.19326 -2.51759 0
M  V30 4331 C 430.634 -2.90962 -0.759034 0
M  V30 4332 C 432.182 -3.01138 -0.853504 0
M  V30 4333 C 432.657 -4.46539 -1.01818 0
M  V30 4334 N 434.148 -4.50341 -1.08386 0
M  V30 4335 C 434.883 -5.60053 -1.22996 0
M  V30 4336 N 434.379 -6.79645 -1.34366 0
M  V30 4337 N 436.172 -5.47783 -1.26056 0
M  V30 4338 H 428.323 -2.04996 0.555921 0
M  V30 4339 H 430.586 -0.929325 0.187239 0
M  V30 4340 H 430.292 -3.51544 0.104852 0
M  V30 4341 H 430.166 -3.39619 -1.64131 0
M  V30 4342 H 432.553 -2.40658 -1.70786 0
M  V30 4343 H 432.634 -2.55745 0.0532466 0
M  V30 4344 H 432.278 -5.0762 -0.168504 0
M  V30 4345 H 432.208 -4.89583 -1.93948 0
M  V30 4346 H 434.699 -3.64191 -1.00864 0
M  V30 4347 H 435.012 -7.59012 -1.4533 0
M  V30 4348 H 433.357 -6.82469 -1.31382 0
M  V30 4349 H 436.548 -4.53294 -1.168 0
M  V30 4350 H 436.721 -6.33331 -1.37098 0
M  V30 4351 N 430.127 0.543554 -1.4793 0
M  V30 4352 C 431.037 1.67657 -1.64098 0
M  V30 4353 C 432.053 1.65934 -0.523622 0
M  V30 4354 O 433.229 1.85133 -0.792943 0
M  V30 4355 C 430.294 3.04146 -1.66421 0
M  V30 4356 C 429.355 3.16831 -2.89684 0
M  V30 4357 C 428.588 4.46809 -2.91886 0
M  V30 4358 O 428.811 5.33095 -2.02895 0
M  V30 4359 O 427.745 4.63573 -3.83906 0
M  V30 4360 H 431.571 1.56957 -2.59997 0
M  V30 4361 H 429.156 0.715116 -1.31173 0
M  V30 4362 H 431.038 3.85346 -1.70548 0
M  V30 4363 H 429.713 3.152 -0.736923 0
M  V30 4364 H 428.62 2.34977 -2.91095 0
M  V30 4365 H 429.953 3.10687 -3.81752 0
M  V30 4366 N 431.605 1.3629 0.791371 0
M  V30 4367 C 432.515 1.32606 1.93527 0
M  V30 4368 C 433.531 0.228541 1.72493 0
M  V30 4369 O 434.707 0.460571 1.96063 0
M  V30 4370 C 431.772 1.11271 3.28359 0
M  V30 4371 C 430.833 2.3048 3.62185 0
M  V30 4372 C 430.066 2.10154 4.90583 0
M  V30 4373 O 430.289 1.07572 5.60165 0
M  V30 4374 O 429.223 2.97884 5.23019 0
M  V30 4375 H 433.049 2.28909 1.99585 0
M  V30 4376 H 430.634 1.16818 0.931344 0
M  V30 4377 H 432.516 1.01283 4.09047 0
M  V30 4378 H 431.191 0.180292 3.23198 0
M  V30 4379 H 430.098 2.46036 2.81811 0
M  V30 4380 H 431.431 3.22221 3.72068 0
M  V30 4381 N 433.083 -1.0153 1.20538 0
M  V30 4382 C 434.015 -2.10224 0.913155 0
M  V30 4383 C 435.028 -1.62495 -0.0995998 0
M  V30 4384 O 436.217 -1.78014 0.131582 0
M  V30 4385 C 433.317 -3.37111 0.347717 0
M  V30 4386 C 432.49 -4.13971 1.41233 0
M  V30 4387 C 431.549 -5.19158 0.857976 0
M  V30 4388 O 430.575 -5.48 1.53897 0
M  V30 4389 N 431.777 -5.7955 -0.331966 0
M  V30 4390 H 434.542 -2.35879 1.84881 0
M  V30 4391 H 432.103 -1.17931 1.10923 0
M  V30 4392 H 434.095 -4.04683 -0.0373026 0
M  V30 4393 H 432.665 -3.08696 -0.492527 0
M  V30 4394 H 431.885 -3.41351 1.97163 0
M  V30 4395 H 433.173 -4.62103 2.12928 0
M  V30 4396 H 432.571 -5.58455 -0.902478 0
M  V30 4397 H 431.128 -6.48464 -0.65861 0
M  V30 4398 N 434.561 -1.01147 -1.20859 0
M  V30 4399 C 435.808 -0.697865 -1.90095 0
M  V30 4400 C 436.136 0.772014 -1.78522 0
M  V30 4401 O 435.391 1.57595 -1.16027 0
M  V30 4402 C 435.69 -1.0727 -3.40922 0
M  V30 4403 C 435.356 -2.53792 -3.72693 0
M  V30 4404 C 434.018 -2.93829 -3.81075 0
M  V30 4405 C 436.37 -3.48674 -3.87397 0
M  V30 4406 C 433.698 -4.27696 -4.01613 0
M  V30 4407 C 436.05 -4.82223 -4.09444 0
M  V30 4408 C 434.714 -5.21973 -4.16054 0
M  V30 4409 H 433.984 -0.255367 -0.695607 0
M  V30 4410 H 436.631 -1.27111 -1.43231 0
M  V30 4411 H 434.936 -0.417799 -3.89566 0
M  V30 4412 H 436.633 -0.807818 -3.92779 0
M  V30 4413 H 433.223 -2.21768 -3.66765 0
M  V30 4414 H 437.407 -3.18904 -3.80281 0
M  V30 4415 H 432.663 -4.58055 -4.04964 0
M  V30 4416 H 436.837 -5.55672 -4.19763 0
M  V30 4417 H 434.464 -6.25717 -4.31721 0
M  V30 4418 N 436.039 1.36541 -0.78704 0
M  V30 4419 C 436.987 2.31965 -0.171724 0
M  V30 4420 C 437.981 1.55689 0.667631 0
M  V30 4421 O 439.187 1.70969 0.562981 0
M  V30 4422 H 435.562 0.751101 -0.0367545 0
M  V30 4423 H 437.533 2.81428 -0.992017 0
M  V30 4424 C 436.282 3.40968 0.680904 0
M  V30 4425 H 435.605 3.99775 0.0443961 0
M  V30 4426 H 437.045 4.10063 1.07815 0
M  V30 4427 C 435.504 2.82338 1.83813 0
M  V30 4428 O 436.034 2.74311 2.93456 0
M  V30 4429 N 434.24 2.39661 1.6435 0
M  V30 4430 H 433.787 2.46389 0.751668 0
M  V30 4431 H 433.745 2.00779 2.4194 0
M  V30 4432 N 437.518 0.538854 1.48102 0
M  V30 4433 C 438.743 0.0102694 2.07397 0
M  V30 4434 C 439.168 -1.26562 1.39153 0
M  V30 4435 O 438.526 -1.75357 0.460387 0
M  V30 4436 C 438.574 -0.187602 3.60112 0
M  V30 4437 O 437.678 -1.25432 3.92862 0
M  V30 4438 H 437.019 0.0430975 0.6626 0
M  V30 4439 H 439.549 0.749301 1.90385 0
M  V30 4440 H 439.559 -0.407517 4.0596 0
M  V30 4441 H 438.234 0.744386 4.09184 0
M  V30 4442 H 436.811 -1.01636 3.58782 0
M  V30 4443 N 438.996 -1.55193 0.274407 0
M  V30 4444 C 440.224 -2.03987 -0.345943 0
M  V30 4445 C 440.639 -1.15279 -1.4952 0
M  V30 4446 O 439.996 -0.172759 -1.8168 0
M  V30 4447 C 440.047 -3.51898 -0.827631 0
M  V30 4448 O 439.768 -4.37231 0.275855 0
M  V30 4449 C 441.269 -4.16577 -1.51587 0
M  V30 4450 H 438.489 -0.666335 -0.0789892 0
M  V30 4451 H 441.033 -2.00423 0.406294 0
M  V30 4452 H 439.188 -3.55909 -1.52996 0
M  V30 4453 H 439.602 -5.24415 -0.0943638 0
M  V30 4454 H 441.076 -5.21678 -1.80433 0
M  V30 4455 H 441.553 -3.64707 -2.44716 0
M  V30 4456 H 442.159 -4.16568 -0.857409 0
M  V30 4457 N 440.474 -0.00167713 -1.576 0
M  V30 4458 C 441.704 0.692754 -1.94639 0
M  V30 4459 C 442.112 1.67744 -0.87513 0
M  V30 4460 O 441.455 1.8305 0.154382 0
M  V30 4461 C 441.517 1.47881 -3.27676 0
M  V30 4462 C 441.181 0.655518 -4.52274 0
M  V30 4463 C 442.178 -0.0575214 -5.19868 0
M  V30 4464 C 439.863 0.600994 -4.98692 0
M  V30 4465 C 441.857 -0.814052 -6.3218 0
M  V30 4466 C 439.544 -0.15926 -6.10892 0
M  V30 4467 C 440.542 -0.865515 -6.77494 0
M  V30 4468 O 440.23 -1.61336 -7.87544 0
M  V30 4469 H 439.962 0.197792 -0.646417 0
M  V30 4470 H 442.516 -0.049423 -2.05341 0
M  V30 4471 H 440.746 2.2655 -3.13388 0
M  V30 4472 H 442.435 2.05874 -3.49816 0
M  V30 4473 H 443.201 -0.0245611 -4.84994 0
M  V30 4474 H 439.08 1.14025 -4.46676 0
M  V30 4475 H 442.624 -1.36584 -6.84098 0
M  V30 4476 H 438.521 -0.194035 -6.45208 0
M  V30 4477 H 439.289 -1.53025 -8.04068 0
M  V30 4478 N 441.952 1.55251 0.271103 0
M  V30 4479 C 443.368 1.47133 0.618393 0
M  V30 4480 C 443.568 0.686994 1.89427 0
M  V30 4481 O 442.624 0.206609 2.51653 0
M  V30 4482 C 443.937 2.91361 0.743593 0
M  V30 4483 C 445.485 3.01587 0.837522 0
M  V30 4484 C 445.96 4.47073 0.994483 0
M  V30 4485 N 447.451 4.50909 1.05996 0
M  V30 4486 C 448.186 5.60698 1.20024 0
M  V30 4487 N 447.682 6.80348 1.30759 0
M  V30 4488 N 449.475 5.48444 1.23149 0
M  V30 4489 H 441.626 2.04698 -0.566784 0
M  V30 4490 H 443.889 0.928319 -0.192165 0
M  V30 4491 H 443.595 3.51483 -0.123493 0
M  V30 4492 H 443.469 3.40484 1.62328 0
M  V30 4493 H 445.856 2.4156 1.69507 0
M  V30 4494 H 445.937 2.55713 -0.0668086 0
M  V30 4495 H 445.581 5.07703 0.141582 0
M  V30 4496 H 445.511 4.90605 1.91349 0
M  V30 4497 H 448.002 3.6472 0.989316 0
M  V30 4498 H 448.315 7.59772 1.41303 0
M  V30 4499 H 446.66 6.83156 1.27761 0
M  V30 4500 H 449.851 4.53907 1.14394 0
M  V30 4501 H 450.024 6.34049 1.33738 0
M  V30 4502 N 443.43 -0.535701 1.48216 0
M  V30 4503 C 444.676 -1.29375 1.56173 0
M  V30 4504 C 445.009 -1.92804 0.232429 0
M  V30 4505 O 444.284 -1.78992 -0.761048 0
M  V30 4506 C 444.567 -2.38747 2.69577 0
M  V30 4507 C 444.42 -1.80046 4.12193 0
M  V30 4508 C 445.739 -3.40551 2.78771 0
M  V30 4509 H 442.858 -0.469027 0.568491 0
M  V30 4510 H 445.5 -0.597358 1.80365 0
M  V30 4511 H 443.65 -2.98147 2.4908 0
M  V30 4512 H 445.322 -1.24742 4.44114 0
M  V30 4513 H 443.565 -1.10609 4.19462 0
M  V30 4514 H 444.236 -2.59212 4.87353 0
M  V30 4515 H 446.712 -2.91099 2.97322 0
M  V30 4516 H 445.588 -4.1448 3.59857 0
M  V30 4517 H 445.849 -4.00746 1.86696 0
M  V30 4518 N 444.908 -1.36708 -0.784132 0
M  V30 4519 C 446.154 -1.31426 -1.54451 0
M  V30 4520 C 446.487 0.10476 -1.93917 0
M  V30 4521 O 445.762 1.05934 -1.6312 0
M  V30 4522 C 446.045 -2.24189 -2.818 0
M  V30 4523 C 445.898 -3.74813 -2.48667 0
M  V30 4524 C 447.217 -2.15626 -3.83658 0
M  V30 4525 H 444.336 -0.478739 -0.560337 0
M  V30 4526 H 446.978 -1.67305 -0.900498 0
M  V30 4527 H 445.128 -1.93722 -3.36755 0
M  V30 4528 H 446.8 -4.15823 -1.99722 0
M  V30 4529 H 445.043 -3.93989 -1.81535 0
M  V30 4530 H 445.714 -4.35138 -3.39646 0
M  V30 4531 H 448.19 -2.42456 -3.38163 0
M  V30 4532 H 447.066 -2.82694 -4.70506 0
M  V30 4533 H 447.327 -1.14522 -4.27009 0
M  V30 4534 N 446.386 1.0089 -1.21074 0
M  V30 4535 C 447.611 1.78727 -1.05221 0
M  V30 4536 C 448.036 1.83932 0.393795 0
M  V30 4537 O 447.394 1.28004 1.28393 0
M  V30 4538 C 447.442 3.20665 -1.64944 0
M  V30 4539 O 446.546 4.02632 -0.892273 0
M  V30 4540 H 445.887 0.550973 -0.370574 0
M  V30 4541 H 448.417 1.26847 -1.60534 0
M  V30 4542 H 448.427 3.71352 -1.69002 0
M  V30 4543 H 447.102 3.16191 -2.70177 0
M  V30 4544 H 445.679 3.61207 -0.926492 0
M  V30 4545 N 447.864 1.01787 1.20321 0
M  V30 4546 C 449.11 0.708985 1.90003 0
M  V30 4547 C 449.443 -0.759572 1.78729 0
M  V30 4548 O 448.718 -1.55198 1.17234 0
M  V30 4549 C 449.001 1.1469 3.41348 0
M  V30 4550 C 448.854 2.67586 3.61549 0
M  V30 4551 C 450.173 0.71915 4.34185 0
M  V30 4552 H 447.292 0.259034 0.689978 0
M  V30 4553 H 449.934 1.26584 1.41692 0
M  V30 4554 H 448.084 0.673128 3.82624 0
M  V30 4555 H 449.756 3.22826 3.29517 0
M  V30 4556 H 447.999 3.085 3.04976 0
M  V30 4557 H 448.67 2.93281 4.67643 0
M  V30 4558 H 451.146 1.12647 4.00562 0
M  V30 4559 H 450.022 1.05358 5.38694 0
M  V30 4560 H 450.283 -0.379111 4.40472 0
M  V30 4561 N 449.342 -1.36122 0.79427 0
M  V30 4562 C 450.272 -2.32551 0.210328 0
M  V30 4563 C 451.253 -1.56884 -0.657386 0
M  V30 4564 O 452.438 -1.85014 -0.590207 0
M  V30 4565 C 449.568 -3.41128 -0.651819 0
M  V30 4566 C 448.522 -4.27842 0.116395 0
M  V30 4567 C 447.848 -5.2763 -0.86666 0
M  V30 4568 C 449.148 -5.05647 1.30837 0
M  V30 4569 H 450.842 -2.81636 1.01594 0
M  V30 4570 H 448.388 -1.35407 0.489981 0
M  V30 4571 H 450.341 -4.07581 -1.07031 0
M  V30 4572 H 449.065 -2.90622 -1.49019 0
M  V30 4573 H 447.724 -3.62952 0.515915 0
M  V30 4574 H 447.372 -4.73395 -1.70019 0
M  V30 4575 H 447.072 -5.86514 -0.35705 0
M  V30 4576 H 448.596 -5.96955 -1.28361 0
M  V30 4577 H 450.01 -5.65113 0.965393 0
M  V30 4578 H 448.407 -5.73967 1.75161 0
M  V30 4579 H 449.477 -4.37006 2.10128 0
M  V30 4580 N 450.82 -0.546701 -1.47814 0
M  V30 4581 C 452.048 -0.0232857 -2.06887 0
M  V30 4582 C 452.463 1.26571 -1.4009 0
M  V30 4583 O 451.82 1.7569 -0.493906 0
M  V30 4584 C 451.871 0.186975 -3.61016 0
M  V30 4585 O 451.592 -1.05097 -4.25307 0
M  V30 4586 C 453.093 0.748872 -4.36929 0
M  V30 4587 H 450.313 -0.0410763 -0.669742 0
M  V30 4588 H 452.857 -0.757117 -1.89968 0
M  V30 4589 H 451.012 0.870903 -3.77484 0
M  V30 4590 H 451.426 -0.842121 -5.17695 0
M  V30 4591 H 452.9 0.845334 -5.45489 0
M  V30 4592 H 453.377 1.75772 -4.02493 0
M  V30 4593 H 453.983 0.100979 -4.2518 0
M  V30 4594 N 452.299 1.55045 -0.282633 0
M  V30 4595 C 453.545 2.00056 0.332481 0
M  V30 4596 C 453.878 1.1708 1.54939 0
M  V30 4597 O 453.153 0.2427 1.9298 0
M  V30 4598 C 453.436 3.53086 0.70725 0
M  V30 4599 C 453.289 4.46813 -0.517521 0
M  V30 4600 C 454.608 4.12245 1.54084 0
M  V30 4601 H 451.727 0.727268 0.119373 0
M  V30 4602 H 454.369 1.85932 -0.391076 0
M  V30 4603 H 452.519 3.65253 1.32372 0
M  V30 4604 H 454.191 4.46579 -1.15607 0
M  V30 4605 H 452.434 4.18163 -1.1542 0
M  V30 4606 H 453.105 5.51595 -0.211426 0
M  V30 4607 H 455.581 4.03401 1.02013 0
M  V30 4608 H 454.457 5.19515 1.77186 0
M  V30 4609 H 454.718 3.62951 2.52427 0
M  V30 4610 N 453.777 0.010035 1.57597 0
M  V30 4611 C 454.707 -0.976857 2.12084 0
M  V30 4612 C 455.688 -1.35191 1.03235 0
M  V30 4613 O 456.873 -1.43389 1.3097 0
M  V30 4614 C 454.003 -2.26548 2.63236 0
M  V30 4615 C 452.957 -2.03175 3.76701 0
M  V30 4616 C 452.283 -3.38138 4.14206 0
M  V30 4617 C 453.583 -1.38625 5.03568 0
M  V30 4618 H 455.277 -0.523145 2.94794 0
M  V30 4619 H 452.823 -0.250195 1.4181 0
M  V30 4620 H 454.776 -2.95952 2.99984 0
M  V30 4621 H 453.5 -2.74051 1.77661 0
M  V30 4622 H 452.159 -1.36195 3.40362 0
M  V30 4623 H 451.807 -3.83363 3.25641 0
M  V30 4624 H 451.507 -3.23312 4.90656 0
M  V30 4625 H 453.031 -4.08841 4.53521 0
M  V30 4626 H 454.445 -1.98 5.38023 0
M  V30 4627 H 452.842 -1.34256 5.84889 0
M  V30 4628 H 453.912 -0.356722 4.83586 0
M  V30 4629 N 455.255 -1.55392 -0.262866 0
M  V30 4630 C 456.205 -1.85355 -1.32768 0
M  V30 4631 C 457.189 -0.713188 -1.44231 0
M  V30 4632 O 458.381 -0.974765 -1.47741 0
M  V30 4633 C 455.51 -2.13781 -2.68612 0
M  V30 4634 C 454.596 -3.34104 -2.61219 0
M  V30 4635 N 454.987 -4.53766 -2.2345 0
M  V30 4636 C 453.285 -3.36895 -2.92263 0
M  V30 4637 C 453.986 -5.35877 -2.26298 0
M  V30 4638 N 452.962 -4.74536 -2.65172 0
M  V30 4639 H 456.764 -2.75413 -1.02591 0
M  V30 4640 H 454.278 -1.55405 -0.471503 0
M  V30 4641 H 456.275 -2.33407 -3.45437 0
M  V30 4642 H 454.935 -1.25013 -2.99669 0
M  V30 4643 H 455.946 -4.79682 -1.95258 0
M  V30 4644 H 452.623 -2.58351 -3.27965 0
M  V30 4645 H 454.013 -6.41577 -1.99572 0
M  V30 4646 N 456.733 0.527833 -1.48498 0
M  V30 4647 C 457.665 1.6482 -1.5927 0
M  V30 4648 C 458.678 1.55659 -0.476869 0
M  V30 4649 O 459.867 1.62081 -0.747806 0
M  V30 4650 C 456.967 3.0348 -1.50842 0
M  V30 4651 C 456.14 3.381 -2.77502 0
M  V30 4652 C 455.199 4.5605 -2.62497 0
M  V30 4653 O 454.225 4.59165 -3.36387 0
M  V30 4654 N 455.427 5.54353 -1.72257 0
M  V30 4655 H 458.192 1.56015 -2.55889 0
M  V30 4656 H 455.753 0.715152 -1.45249 0
M  V30 4657 H 457.745 3.80264 -1.38496 0
M  V30 4658 H 456.315 3.06352 -0.621887 0
M  V30 4659 H 455.535 2.50473 -3.04396 0
M  V30 4660 H 456.823 3.58017 -3.61527 0
M  V30 4661 H 456.221 5.54617 -1.11431 0
M  V30 4662 H 454.778 6.30347 -1.65849 0
M  V30 4663 N 458.211 1.37122 0.776871 0
M  V30 4664 C 459.488 1.22586 1.52421 0
M  V30 4665 C 459.868 -0.182726 2.10308 0
M  V30 4666 O 459.216 -1.18979 1.9508 0
M  V30 4667 C 459.426 2.31782 2.60918 0
M  V30 4668 C 460.774 2.69071 3.2846 0
M  V30 4669 O 461.798 2.3092 2.71209 0
M  V30 4670 O 460.657 3.3478 4.31954 0
M  V30 4671 H 457.751 0.478045 0.674835 0
M  V30 4672 H 460.297 1.48888 0.814275 0
M  V30 4673 H 459.069 3.26131 2.16227 0
M  V30 4674 H 458.692 2.06916 3.39517 0
M  V30 4675 N 459.689 -1.00246 1.21608 0
M  V30 4676 C 460.935 -1.74417 1.04643 0
M  V30 4677 C 461.29 -1.87862 -0.415387 0
M  V30 4678 O 460.583 -1.40373 -1.30407 0
M  V30 4679 C 460.777 -3.15448 1.68009 0
M  V30 4680 C 460.606 -3.15755 3.20201 0
M  V30 4681 C 459.376 -3.2219 3.89258 0
M  V30 4682 C 461.574 -3.00668 4.17257 0
M  V30 4683 N 459.556 -3.1215 5.28617 0
M  V30 4684 C 460.927 -2.98553 5.43384 0
M  V30 4685 C 462.982 -2.84989 4.08272 0
M  V30 4686 C 461.685 -2.82364 6.61561 0
M  V30 4687 C 463.711 -2.70158 5.26088 0
M  V30 4688 C 463.073 -2.68721 6.51128 0
M  V30 4689 H 459.172 -0.648317 0.437274 0
M  V30 4690 H 461.756 -1.19129 1.54001 0
M  V30 4691 H 459.927 -3.69001 1.21215 0
M  V30 4692 H 461.659 -3.78128 1.44226 0
M  V30 4693 H 458.414 -3.29488 3.40198 0
M  V30 4694 H 458.838 -3.10465 6.01615 0
M  V30 4695 H 463.48 -2.84904 3.12393 0
M  V30 4696 H 461.198 -2.81196 7.57598 0
M  V30 4697 H 464.784 -2.59022 5.20959 0
M  V30 4698 H 463.664 -2.57382 7.40759 0
M  V30 4699 N 461.167 -1.02423 -1.1978 0
M  V30 4700 C 462.097 -0.62157 -2.25075 0
M  V30 4701 C 463.078 0.367148 -1.6609 0
M  V30 4702 O 464.263 0.250892 -1.92573 0
M  V30 4703 C 461.393 0.0331826 -3.47284 0
M  V30 4704 C 460.347 -0.877323 -4.18912 0
M  V30 4705 C 459.673 -0.0879296 -5.34628 0
M  V30 4706 C 460.973 -2.18892 -4.74219 0
M  V30 4707 H 462.667 -1.50179 -2.59011 0
M  V30 4708 H 460.213 -0.723547 -1.24502 0
M  V30 4709 H 462.166 0.326488 -4.20133 0
M  V30 4710 H 460.89 0.948164 -3.12534 0
M  V30 4711 H 459.549 -1.15475 -3.47938 0
M  V30 4712 H 459.197 0.828941 -4.96123 0
M  V30 4713 H 458.897 -0.694359 -5.83483 0
M  V30 4714 H 460.421 0.198743 -6.10276 0
M  V30 4715 H 461.835 -1.95746 -5.38847 0
M  V30 4716 H 460.232 -2.74686 -5.33542 0
M  V30 4717 H 461.302 -2.84674 -3.92541 0
M  V30 4718 N 462.645 1.35699 -0.801477 0
M  V30 4719 C 463.593 2.3177 -0.196317 0
M  V30 4720 C 464.587 1.56388 0.651081 0
M  V30 4721 O 465.793 1.71557 0.544815 0
M  V30 4722 H 462.168 0.750669 -0.0447189 0
M  V30 4723 H 464.139 2.8036 -1.02181 0
M  V30 4724 C 462.888 3.41671 0.644702 0
M  V30 4725 H 462.211 3.998 0.0019921 0
M  V30 4726 H 463.651 4.11184 1.0346 0
M  V30 4727 C 462.11 2.84271 1.80808 0
M  V30 4728 O 462.64 2.77408 2.9053 0
M  V30 4729 N 460.846 2.41391 1.61799 0
M  V30 4730 H 460.393 2.47173 0.725493 0
M  V30 4731 H 460.351 2.03334 2.39797 0
M  V30 4732 N 464.123 0.554532 1.47522 0
M  V30 4733 C 465.371 0.0294208 2.02079 0
M  V30 4734 C 465.692 -1.32411 1.43151 0
M  V30 4735 O 464.962 -1.863 0.605728 0
M  V30 4736 H 463.542 0.00788672 0.746958 0
M  V30 4737 H 466.204 0.723934 1.80956 0
M  V30 4738 H 465.3 -0.0606745 3.12041 0
M  V30 4739 N 465.601 -1.54893 0.290851 0
M  V30 4740 C 466.548 -2.23138 -0.58974 0
M  V30 4741 C 467.518 -1.21036 -1.13752 0
M  V30 4742 O 468.703 -1.49626 -1.18392 0
M  V30 4743 C 465.843 -2.96811 -1.76061 0
M  V30 4744 C 464.956 -4.13665 -1.24519 0
M  V30 4745 C 464.091 -4.74944 -2.3791 0
M  V30 4746 C 463.13 -5.83963 -1.83451 0
M  V30 4747 N 462.267 -6.39239 -2.90376 0
M  V30 4748 H 467.107 -2.98 -0.00114915 0
M  V30 4749 H 464.644 -1.47096 0.0112006 0
M  V30 4750 H 466.602 -3.37751 -2.44909 0
M  V30 4751 H 465.232 -2.24344 -2.32098 0
M  V30 4752 H 464.284 -3.77737 -0.449288 0
M  V30 4753 H 465.596 -4.92238 -0.806424 0
M  V30 4754 H 464.75 -5.18684 -3.14724 0
M  V30 4755 H 463.489 -3.95682 -2.85109 0
M  V30 4756 H 462.494 -5.39657 -1.05122 0
M  V30 4757 H 463.719 -6.65103 -1.37169 0
M  V30 4758 H 461.665 -5.62864 -3.36927 0
M  V30 4759 H 461.582 -7.13129 -2.50965 0
M  V30 4760 H 462.85 -6.87637 -3.67118 0
M  V30 4761 N 467.08 -0.0183926 -1.57589 0
M  V30 4762 C 467.99 0.982943 -2.13015 0
M  V30 4763 C 469.006 1.36443 -1.07979 0
M  V30 4764 O 470.182 1.44802 -1.3998 0
M  V30 4765 C 467.247 2.25024 -2.63752 0
M  V30 4766 C 466.308 1.93018 -3.83461 0
M  V30 4767 C 465.541 3.13706 -4.31769 0
M  V30 4768 O 465.764 4.2601 -3.79305 0
M  V30 4769 O 464.698 2.96629 -5.23732 0
M  V30 4770 H 468.524 0.541709 -2.9883 0
M  V30 4771 H 466.109 0.201565 -1.48034 0
M  V30 4772 H 467.991 2.99441 -2.96502 0
M  V30 4773 H 466.666 2.68349 -1.81026 0
M  V30 4774 H 465.573 1.16019 -3.55655 0
M  V30 4775 H 466.906 1.54516 -4.67317 0
M  V30 4776 N 468.558 1.5553 0.254621 0
M  V30 4777 C 469.788 1.80784 1.00004 0
M  V30 4778 C 470.196 0.59071 1.79742 0
M  V30 4779 O 469.539 -0.449988 1.78103 0
M  V30 4780 C 469.601 2.99268 1.99196 0
M  V30 4781 C 469.265 4.35595 1.38224 0
M  V30 4782 C 470.262 5.13884 0.788611 0
M  V30 4783 C 467.947 4.82281 1.40393 0
M  V30 4784 C 469.941 6.37004 0.224783 0
M  V30 4785 C 467.628 6.05351 0.836243 0
M  V30 4786 C 468.626 6.82551 0.24769 0
M  V30 4787 O 468.314 8.03297 -0.311249 0
M  V30 4788 H 468.046 0.60565 0.300274 0
M  V30 4789 H 470.6 2.03411 0.285143 0
M  V30 4790 H 468.83 2.72377 2.74496 0
M  V30 4791 H 470.519 3.11682 2.60018 0
M  V30 4792 H 471.285 4.78938 0.764423 0
M  V30 4793 H 467.164 4.22189 1.85142 0
M  V30 4794 H 470.708 6.97203 -0.235235 0
M  V30 4795 H 466.605 6.39776 0.857733 0
M  V30 4796 H 467.373 8.1825 -0.20237 0
M  V30 4797 N 470.036 -0.519951 1.48776 0
M  V30 4798 C 470.983 -1.62352 1.64044 0
M  V30 4799 C 471.953 -1.58945 0.482251 0
M  V30 4800 O 473.138 -1.77219 0.706971 0
M  V30 4801 C 470.278 -3.00579 1.69547 0
M  V30 4802 C 469.391 -3.14145 2.96541 0
M  V30 4803 C 468.526 -4.42991 2.93142 0
M  V30 4804 C 467.565 -4.50122 4.14797 0
M  V30 4805 N 466.702 -5.7037 4.09418 0
M  V30 4806 H 471.542 -1.48643 2.58281 0
M  V30 4807 H 469.079 -0.723516 1.28077 0
M  V30 4808 H 471.037 -3.80671 1.70719 0
M  V30 4809 H 469.667 -3.13036 0.787918 0
M  V30 4810 H 468.719 -2.27239 3.05068 0
M  V30 4811 H 470.031 -3.15275 3.86527 0
M  V30 4812 H 469.185 -5.31385 2.92772 0
M  V30 4813 H 467.924 -4.44398 2.00902 0
M  V30 4814 H 466.929 -3.60133 4.15433 0
M  V30 4815 H 468.154 -4.50445 5.08208 0
M  V30 4816 H 466.1 -5.72655 3.20004 0
M  V30 4817 H 466.017 -5.73036 4.93119 0
M  V30 4818 H 467.285 -6.61023 4.13121 0
M  V30 4819 N 471.514 -1.37532 -0.769588 0
M  V30 4820 C 472.754 -1.34261 -1.54122 0
M  V30 4821 C 473.118 0.0717222 -1.91866 0
M  V30 4822 O 474.319 0.22918 -2.67821 0
M  V30 4823 C 472.59 -2.2574 -2.77086 0
M  V30 4824 S 474.149 -2.40339 -3.67127 0
M  V30 4825 H 470.967 -0.476595 -0.527615 0
M  V30 4826 H 473.569 -1.73303 -0.90479 0
M  V30 4827 H 472.273 -3.27417 -2.4744 0
M  V30 4828 H 471.804 -1.87789 -3.45686 0
M  V30 4829 H 473.819 -1.61558 -4.69163 0
M  V30 4830 N 472.992 0.995999 -1.22138 0
M  V30 4831 C 473.939 2.08551 -0.988687 0
M  V30 4832 C 474.909 1.65864 0.0885021 0
M  V30 4833 O 476.094 1.90704 -0.0604589 0
M  V30 4834 C 473.234 3.40374 -0.569191 0
M  V30 4835 C 472.347 3.96421 -1.71681 0
M  V30 4836 C 471.482 5.1639 -1.2456 0
M  V30 4837 C 470.521 5.64567 -2.36497 0
M  V30 4838 N 469.658 6.75777 -1.90445 0
M  V30 4839 H 474.498 2.2779 -1.92135 0
M  V30 4840 H 472.035 1.1168 -0.957388 0
M  V30 4841 H 473.993 4.16068 -0.307166 0
M  V30 4842 H 472.623 3.21145 0.326462 0
M  V30 4843 H 471.675 3.17628 -2.09324 0
M  V30 4844 H 472.987 4.2816 -2.55891 0
M  V30 4845 H 472.141 5.99362 -0.940774 0
M  V30 4846 H 470.88 4.86266 -0.373662 0
M  V30 4847 H 469.885 4.80185 -2.67772 0
M  V30 4848 H 471.11 5.96716 -3.24202 0
M  V30 4849 H 469.056 6.47443 -1.05609 0
M  V30 4850 H 468.973 7.06818 -2.68223 0
M  V30 4851 H 470.241 7.62262 -1.63022 0
M  V30 4852 N 474.47 1.03057 1.19235 0
M  V30 4853 C 475.716 0.729098 1.89241 0
M  V30 4854 C 476.049 -0.740573 1.79525 0
M  V30 4855 O 475.324 -1.53946 1.18874 0
M  V30 4856 C 475.607 1.18304 3.40112 0
M  V30 4857 C 475.46 2.71406 3.5869 0
M  V30 4858 C 476.779 0.765161 4.33397 0
M  V30 4859 H 473.898 0.266338 0.687192 0
M  V30 4860 H 476.54 1.28079 1.40341 0
M  V30 4861 H 474.69 0.713672 3.81889 0
M  V30 4862 H 476.362 3.26303 3.26074 0
M  V30 4863 H 474.605 3.11717 3.01687 0
M  V30 4864 H 475.276 2.98225 4.64506 0
M  V30 4865 H 477.752 1.16889 3.99345 0
M  V30 4866 H 476.628 1.11065 5.37546 0
M  V30 4867 H 476.889 -0.332372 4.40849 0
M  V30 4868 N 475.948 -1.35272 0.808662 0
M  V30 4869 C 477.173 -2.03477 0.401475 0
M  V30 4870 C 477.598 -1.60537 -0.980279 0
M  V30 4871 O 476.956 -0.78304 -1.63518 0
M  V30 4872 C 477.004 -3.57181 0.495354 0
M  V30 4873 O 476.108 -4.09474 -0.490397 0
M  V30 4874 H 475.449 -0.642561 0.167366 0
M  V30 4875 H 477.979 -1.72824 1.09512 0
M  V30 4876 H 477.989 -4.06356 0.365912 0
M  V30 4877 H 476.664 -3.87784 1.5032 0
M  V30 4878 H 475.241 -3.71516 -0.321023 0
M  V30 4879 N 477.426 -0.562348 -1.47226 0
M  V30 4880 C 478.374 0.195476 -2.31777 0
M  V30 4881 C 479.368 0.90433 -1.43242 0
M  V30 4882 O 480.574 0.825031 -1.59979 0
M  V30 4883 H 476.949 0.0819095 -0.747526 0
M  V30 4884 H 478.92 -0.536753 -2.93533 0
M  V30 4885 C 477.669 1.20902 -3.26003 0
M  V30 4886 H 476.992 0.672997 -3.94095 0
M  V30 4887 H 478.432 1.71006 -3.87986 0
M  V30 4888 C 476.891 2.25955 -2.49891 0
M  V30 4889 O 477.421 3.32969 -2.2471 0
M  V30 4890 N 475.627 2.00019 -2.1081 0
M  V30 4891 H 475.174 1.13006 -2.31489 0
M  V30 4892 H 475.132 2.70523 -1.60201 0
M  V30 4893 N 478.904 1.54736 -0.299062 0
M  V30 4894 C 479.851 2.23448 0.577899 0
M  V30 4895 C 480.821 1.21637 1.13109 0
M  V30 4896 O 482.006 1.50252 1.17597 0
M  V30 4897 C 479.146 2.9774 1.74484 0
M  V30 4898 C 478.259 4.1432 1.22323 0
M  V30 4899 C 477.394 4.76199 2.35388 0
M  V30 4900 C 476.433 5.84927 1.80351 0
M  V30 4901 N 475.57 6.4077 2.86982 0
M  V30 4902 H 480.41 2.97996 -0.0146545 0
M  V30 4903 H 477.947 1.47088 -0.0190013 0
M  V30 4904 H 479.905 3.39045 2.43114 0
M  V30 4905 H 478.535 2.25572 2.30905 0
M  V30 4906 H 477.587 3.7797 0.429249 0
M  V30 4907 H 478.899 4.92659 0.780309 0
M  V30 4908 H 478.053 5.20346 3.11969 0
M  V30 4909 H 476.792 3.97188 2.83006 0
M  V30 4910 H 475.797 5.40207 1.02259 0
M  V30 4911 H 477.022 6.65821 1.3364 0
M  V30 4912 H 474.968 5.64643 3.33938 0
M  V30 4913 H 474.885 7.1445 2.4718 0
M  V30 4914 H 476.153 6.89574 3.63466 0
M  V30 4915 N 480.382 0.0267497 1.57577 0
M  V30 4916 C 481.63 -0.651116 1.91324 0
M  V30 4917 C 481.951 -1.72804 0.90353 0
M  V30 4918 O 481.221 -1.95822 -0.0552946 0
M  V30 4919 H 479.801 -0.243491 0.706202 0
M  V30 4920 H 482.463 0.0739935 1.94759 0
M  V30 4921 H 481.559 -1.10536 2.9187 0
M  V30 4922 N 481.861 -1.55662 -0.24637 0
M  V30 4923 C 482.791 -1.93377 -1.30873 0
M  V30 4924 C 483.772 -0.798773 -1.50179 0
M  V30 4925 O 484.957 -1.0591 -1.62778 0
M  V30 4926 C 482.087 -2.22893 -2.66338 0
M  V30 4927 C 481.041 -3.38649 -2.61727 0
M  V30 4928 C 480.367 -3.53708 -4.00992 0
M  V30 4929 C 481.667 -4.74323 -2.18666 0
M  V30 4930 H 483.361 -2.82363 -0.995552 0
M  V30 4931 H 480.907 -1.35854 -0.477464 0
M  V30 4932 H 482.86 -2.47866 -3.40794 0
M  V30 4933 H 481.584 -1.30733 -2.99293 0
M  V30 4934 H 480.243 -3.13685 -1.89729 0
M  V30 4935 H 479.891 -2.58967 -4.31214 0
M  V30 4936 H 479.591 -4.31551 -3.98795 0
M  V30 4937 H 481.115 -3.81003 -4.77147 0
M  V30 4938 H 482.529 -4.98665 -2.82854 0
M  V30 4939 H 480.926 -5.55273 -2.27579 0
M  V30 4940 H 481.996 -4.71349 -1.13834 0
M  V30 4941 N 483.339 0.512053 -1.4905 0
M  V30 4942 C 484.75 1.09376 -1.51307 0
M  V30 4943 C 485.101 1.94 -0.292971 0
M  V30 4944 O 484.226 2.07965 0.598277 0
M  V30 4945 C 484.821 1.99031 -2.74176 0
M  V30 4946 C 483.38 2.52385 -2.79247 0
M  V30 4947 C 482.527 1.29749 -2.45073 0
M  V30 4948 H 485.478 0.296467 -1.55906 0
M  V30 4949 H 485.499 2.83569 -2.53711 0
M  V30 4950 H 485.011 1.37412 -3.62959 0
M  V30 4951 H 483.112 3.17673 -1.94716 0
M  V30 4952 H 483.225 2.90293 -3.81139 0
M  V30 4953 H 481.589 1.61912 -1.96612 0
M  V30 4954 H 482.372 0.698555 -3.36118 0
M  V30 4955 N 484.817 1.37938 0.762283 0
M  V30 4956 C 486.042 1.37059 1.55659 0
M  V30 4957 C 486.467 -0.0396123 1.88058 0
M  V30 4958 O 485.825 -1.01929 1.49934 0
M  V30 4959 C 485.873 2.22494 2.83776 0
M  V30 4960 O 484.977 1.63607 3.78559 0
M  V30 4961 H 484.318 0.467892 0.47114 0
M  V30 4962 H 486.848 1.81587 0.942725 0
M  V30 4963 H 486.858 2.36045 3.32786 0
M  V30 4964 H 485.533 3.24993 2.59524 0
M  V30 4965 H 484.11 1.5915 3.37233 0
M  V30 4966 N 486.295 -0.989507 1.22664 0
M  V30 4967 C 487.52 -1.77031 1.08051 0
M  V30 4968 C 487.945 -1.84535 -0.364483 0
M  V30 4969 O 487.303 -1.3003 -1.2634 0
M  V30 4970 C 487.351 -3.18 1.70024 0
M  V30 4971 O 486.455 -4.01161 0.956216 0
M  V30 4972 H 485.796 -0.545008 0.379292 0
M  V30 4973 H 488.326 -1.24277 1.62531 0
M  V30 4974 H 488.336 -3.68616 1.74888 0
M  V30 4975 H 487.011 -3.11853 2.75174 0
M  V30 4976 H 485.588 -3.59687 0.98384 0
M  V30 4977 N 487.773 -1.03688 -1.18687 0
M  V30 4978 C 489.022 -0.733235 -1.879 0
M  V30 4979 C 489.335 0.741745 -1.8099 0
M  V30 4980 O 490.541 1.15875 -2.4553 0
M  V30 4981 C 488.997 -1.26127 -3.37076 0
M  V30 4982 C 488.605 -2.76461 -3.52524 0
M  V30 4983 C 490.349 -1.03398 -4.11715 0
M  V30 4984 C 488.256 -3.22642 -4.95637 0
M  V30 4985 H 487.186 -0.270584 -0.703776 0
M  V30 4986 H 489.837 -1.25222 -1.34133 0
M  V30 4987 H 488.219 -0.670165 -3.90288 0
M  V30 4988 H 489.393 -3.41296 -3.09602 0
M  V30 4989 H 487.708 -2.97559 -2.91286 0
M  V30 4990 H 490.305 -1.3542 -5.17267 0
M  V30 4991 H 490.648 0.0289246 -4.1629 0
M  V30 4992 H 491.181 -1.5895 -3.64664 0
M  V30 4993 H 487.92 -4.28296 -4.96228 0
M  V30 4994 H 487.44 -2.62539 -5.39289 0
M  V30 4995 H 489.119 -3.16444 -5.64333 0
M  V30 4996 N 489.251 1.34841 -0.815825 0
M  V30 4997 C 490.161 2.33425 -0.234462 0
M  V30 4998 C 491.177 1.62295 0.627413 0
M  V30 4999 O 492.353 1.94109 0.536987 0
M  V30 5000 C 489.418 3.41471 0.599849 0
M  V30 5001 C 488.479 4.28362 -0.283596 0
M  V30 5002 C 487.712 5.31248 0.51099 0
M  V30 5003 O 487.935 5.43056 1.7449 0
M  V30 5004 O 486.869 6.01812 -0.10297 0
M  V30 5005 H 490.695 2.84962 -1.05024 0
M  V30 5006 H 488.28 1.37774 -0.577809 0
M  V30 5007 H 490.162 4.07464 1.07475 0
M  V30 5008 H 488.837 2.9219 1.39308 0
M  V30 5009 H 487.744 3.65318 -0.805836 0
M  V30 5010 H 489.077 4.81066 -1.041 0
M  V30 5011 N 490.729 0.570148 1.46925 0
M  V30 5012 C 491.676 -0.170257 2.30171 0
M  V30 5013 C 492.646 -0.896099 1.39855 0
M  V30 5014 O 493.831 -0.889248 1.68811 0
M  V30 5015 C 490.971 -1.18605 3.24079 0
M  V30 5016 C 490.084 -0.464947 4.29491 0
M  V30 5017 C 489.219 -1.46716 5.10537 0
M  V30 5018 C 488.258 -0.731758 6.0771 0
M  V30 5019 N 487.395 -1.68142 6.81669 0
M  V30 5020 H 492.235 0.545713 2.92961 0
M  V30 5021 H 489.772 0.280938 1.44392 0
M  V30 5022 H 491.73 -1.78771 3.76957 0
M  V30 5023 H 490.36 -1.86989 2.63125 0
M  V30 5024 H 489.412 0.251506 3.79568 0
M  V30 5025 H 490.724 0.110548 4.98677 0
M  V30 5026 H 489.878 -2.14199 5.6763 0
M  V30 5027 H 488.617 -2.07658 4.41282 0
M  V30 5028 H 487.622 -0.0430787 5.49783 0
M  V30 5029 H 488.847 -0.127904 6.7898 0
M  V30 5030 H 486.793 -2.27918 6.15134 0
M  V30 5031 H 486.71 -1.15841 7.47072 0
M  V30 5032 H 487.978 -2.347 7.43328 0
M  V30 5033 N 492.207 -1.54576 0.307264 0
M  V30 5034 C 493.435 -2.04675 -0.302597 0
M  V30 5035 C 493.85 -1.18425 -1.47041 0
M  V30 5036 O 493.207 -0.211257 -1.81273 0
M  V30 5037 C 493.258 -3.53575 -0.752801 0
M  V30 5038 O 492.979 -4.36547 0.368536 0
M  V30 5039 C 494.48 -4.19699 -1.42717 0
M  V30 5040 H 491.7 -0.66786 -0.0648374 0
M  V30 5041 H 494.244 -1.99516 0.448716 0
M  V30 5042 H 492.399 -3.59074 -1.45412 0
M  V30 5043 H 492.813 -5.24497 0.0168937 0
M  V30 5044 H 494.287 -5.25388 -1.69327 0
M  V30 5045 H 494.764 -3.69815 -2.36925 0
M  V30 5046 H 495.37 -4.18293 -0.768856 0
M  V30 5047 N 493.685 -0.035106 -1.57561 0
M  V30 5048 C 494.934 0.641604 -1.91223 0
M  V30 5049 C 495.247 1.72944 -0.913761 0
M  V30 5050 O 496.453 2.46321 -1.14185 0
M  V30 5051 C 494.909 1.19249 -3.3957 0
M  V30 5052 C 494.517 0.137616 -4.47789 0
M  V30 5053 C 496.261 1.84537 -3.82291 0
M  V30 5054 C 494.168 0.700478 -5.87237 0
M  V30 5055 H 493.098 0.243417 -0.713627 0
M  V30 5056 H 495.749 -0.101382 -1.8322 0
M  V30 5057 H 494.131 1.98728 -3.42525 0
M  V30 5058 H 495.305 -0.635153 -4.56402 0
M  V30 5059 H 493.62 -0.416855 -4.14308 0
M  V30 5060 H 496.217 2.27616 -4.83834 0
M  V30 5061 H 496.56 2.69054 -3.17672 0
M  V30 5062 H 497.093 1.11739 -3.81784 0
M  V30 5063 H 493.832 -0.106693 -6.55413 0
M  V30 5064 H 493.352 1.4416 -5.82218 0
M  V30 5065 H 495.031 1.18837 -6.35993 0
M  V30 5066 N 495.163 1.55791 0.238111 0
M  V30 5067 C 496.388 1.8244 0.986432 0
M  V30 5068 C 496.813 0.613314 1.7782 0
M  V30 5069 O 496.171 -0.437767 1.75935 0
M  V30 5070 C 496.219 3.06917 1.893 0
M  V30 5071 O 495.323 2.84449 2.98601 0
M  V30 5072 H 494.664 0.601975 0.280218 0
M  V30 5073 H 497.194 2.02987 0.256437 0
M  V30 5074 H 497.204 3.36583 2.30598 0
M  V30 5075 H 495.879 3.947 1.31091 0
M  V30 5076 H 494.456 2.65972 2.61368 0
M  V30 5077 N 496.642 -0.504142 1.49319 0
M  V30 5078 C 497.589 -1.60603 1.65756 0
M  V30 5079 C 498.559 -1.58425 0.499082 0
M  V30 5080 O 499.744 -1.76459 0.725728 0
M  V30 5081 C 496.884 -2.98764 1.72726 0
M  V30 5082 C 495.997 -3.10982 2.99857 0
M  V30 5083 C 495.132 -4.39857 2.97824 0
M  V30 5084 C 494.171 -4.45697 4.19548 0
M  V30 5085 N 493.308 -5.65995 4.15444 0
M  V30 5086 H 498.148 -1.45895 2.59843 0
M  V30 5087 H 495.685 -0.709891 1.28837 0
M  V30 5088 H 497.643 -3.78839 1.74747 0
M  V30 5089 H 496.273 -3.12183 0.821075 0
M  V30 5090 H 495.325 -2.23991 3.07461 0
M  V30 5091 H 496.637 -3.11157 3.89849 0
M  V30 5092 H 495.791 -5.2825 2.98391 0
M  V30 5093 H 494.53 -4.42242 2.05604 0
M  V30 5094 H 493.535 -3.55707 4.19229 0
M  V30 5095 H 494.76 -4.4503 5.12957 0
M  V30 5096 H 492.706 -5.69229 3.26059 0
M  V30 5097 H 492.623 -5.67773 4.99169 0
M  V30 5098 H 493.891 -6.56604 4.20109 0
M  V30 5099 N 498.12 -1.38341 -0.754957 0
M  V30 5100 C 499.083 -1.35262 -1.85032 0
M  V30 5101 C 500.083 -0.253393 -1.58791 0
M  V30 5102 O 501.273 -0.510205 -1.66561 0
M  V30 5103 C 498.405 -1.10544 -3.22479 0
M  V30 5104 H 499.598 -2.32712 -1.8917 0
M  V30 5105 H 497.151 -1.23614 -0.956515 0
M  V30 5106 H 497.886 -0.136952 -3.24011 0
M  V30 5107 H 497.671 -1.90127 -3.4292 0
M  V30 5108 H 499.161 -1.11082 -4.02555 0
M  V30 5109 N 499.598 0.982988 -1.23187 0
M  V30 5110 C 500.545 2.07491 -1.01075 0
M  V30 5111 C 501.515 1.65949 0.070905 0
M  V30 5112 O 502.7 1.90629 -0.0806822 0
M  V30 5113 C 499.84 3.39751 -0.605261 0
M  V30 5114 C 498.953 3.94578 -1.75876 0
M  V30 5115 C 498.088 5.15039 -1.3003 0
M  V30 5116 C 497.127 5.62027 -2.42472 0
M  V30 5117 N 496.264 6.73719 -1.97602 0
M  V30 5118 H 501.104 2.25739 -1.9454 0
M  V30 5119 H 498.641 1.10659 -0.969179 0
M  V30 5120 H 500.599 4.15719 -0.351279 0
M  V30 5121 H 499.229 3.21473 0.292382 0
M  V30 5122 H 498.281 3.1539 -2.12681 0
M  V30 5123 H 499.593 4.25422 -2.60418 0
M  V30 5124 H 498.747 5.9833 -1.00429 0
M  V30 5125 H 497.486 4.85843 -0.425216 0
M  V30 5126 H 496.491 4.77318 -2.7285 0
M  V30 5127 H 497.716 5.93244 -3.30512 0
M  V30 5128 H 495.662 6.46287 -1.1247 0
M  V30 5129 H 495.579 7.03934 -2.75705 0
M  V30 5130 H 496.847 7.6049 -1.71098 0
M  V30 5131 N 501.076 1.04316 1.18135 0
M  V30 5132 C 502.324 0.746542 1.87806 0
M  V30 5133 C 502.645 -0.728082 1.80898 0
M  V30 5134 O 501.915 -1.52554 1.22899 0
M  V30 5135 H 500.495 0.273157 0.695265 0
M  V30 5136 H 503.157 1.32044 1.43354 0
M  V30 5137 H 502.253 1.05362 2.93778 0
M  V30 5138 N 502.554 -1.34406 0.822964 0
M  V30 5139 C 503.486 -2.28305 0.202375 0
M  V30 5140 C 504.499 -1.5103 -0.60777 0
M  V30 5141 O 505.688 -1.73057 -0.437444 0
M  V30 5142 C 502.788 -3.30836 -0.734911 0
M  V30 5143 C 501.961 -4.37388 0.0324177 0
M  V30 5144 C 501.02 -5.1968 -0.825803 0
M  V30 5145 O 500.046 -5.68556 -0.270771 0
M  V30 5146 N 501.248 -5.39393 -2.14558 0
M  V30 5147 H 504.013 -2.82201 1.00909 0
M  V30 5148 H 501.574 -1.4693 0.67993 0
M  V30 5149 H 503.566 -3.82786 -1.31365 0
M  V30 5150 H 502.136 -2.77334 -1.44238 0
M  V30 5151 H 501.356 -3.86152 0.792469 0
M  V30 5152 H 502.644 -5.05702 0.560633 0
M  V30 5153 H 502.042 -5.01357 -2.62025 0
M  V30 5154 H 500.599 -5.94461 -2.67318 0
M  V30 5155 N 504.032 -0.577932 -1.46621 0
M  V30 5156 C 505.443 -0.150071 -1.86096 0
M  V30 5157 C 505.794 1.28563 -1.48209 0
M  V30 5158 O 504.919 1.97036 -0.894754 0
M  V30 5159 C 505.514 -0.265576 -3.37758 0
M  V30 5160 C 504.073 0.10738 -3.76247 0
M  V30 5161 C 503.22 -0.603711 -2.70649 0
M  V30 5162 H 506.171 -0.786438 -1.37844 0
M  V30 5163 H 506.192 0.510352 -3.77062 0
M  V30 5164 H 505.704 -1.3106 -3.65301 0
M  V30 5165 H 503.805 1.15272 -3.54321 0
M  V30 5166 H 503.918 -0.26561 -4.78363 0
M  V30 5167 H 502.282 -0.0444884 -2.54661 0
M  V30 5168 H 503.065 -1.65029 -3.01032 0
M  V30 5169 N 505.51 1.54411 -0.315457 0
M  V30 5170 C 506.926 1.59556 0.037464 0
M  V30 5171 C 507.126 1.33217 1.5118 0
M  V30 5172 O 506.182 1.11264 2.26664 0
M  V30 5173 C 507.495 2.98372 -0.373477 0
M  V30 5174 C 509.043 3.11324 -0.323452 0
M  V30 5175 C 509.518 4.52472 -0.709433 0
M  V30 5176 N 511.009 4.58437 -0.662524 0
M  V30 5177 C 511.744 5.65751 -0.933474 0
M  V30 5178 N 511.24 6.81039 -1.27114 0
M  V30 5179 N 513.033 5.55489 -0.859573 0
M  V30 5180 H 505.184 1.6979 -1.27614 0
M  V30 5181 H 507.447 0.793732 -0.518356 0
M  V30 5182 H 507.153 3.22618 -1.40037 0
M  V30 5183 H 507.027 3.76264 0.265615 0
M  V30 5184 H 509.414 2.86818 0.694223 0
M  V30 5185 H 509.495 2.35555 -0.997367 0
M  V30 5186 H 509.139 4.7771 -1.72498 0
M  V30 5187 H 509.069 5.26598 -0.0132923 0
M  V30 5188 H 511.56 3.75636 -0.413065 0
M  V30 5189 H 511.873 7.58816 -1.46348 0
M  V30 5190 H 510.218 6.82555 -1.30932 0
M  V30 5191 H 513.409 4.64299 -0.595324 0
M  V30 5192 H 513.582 6.39036 -1.0741 0
M  V30 5193 N 506.988 0.0434614 1.5754 0
M  V30 5194 C 507.898 -0.94893 2.14552 0
M  V30 5195 C 508.914 -1.34707 1.10136 0
M  V30 5196 O 510.09 -1.42557 1.42266 0
M  V30 5197 C 507.155 -2.208 2.67298 0
M  V30 5198 C 506.216 -1.86893 3.86484 0
M  V30 5199 C 505.449 -3.06797 4.36705 0
M  V30 5200 O 505.672 -4.19921 3.86034 0
M  V30 5201 O 504.606 -2.8826 5.28384 0
M  V30 5202 H 508.432 -0.494099 2.99654 0
M  V30 5203 H 506.017 -0.177989 1.48336 0
M  V30 5204 H 507.899 -2.94686 3.01228 0
M  V30 5205 H 506.574 -2.65436 1.85272 0
M  V30 5206 H 505.481 -1.10347 3.57455 0
M  V30 5207 H 506.814 -1.47062 4.69716 0
M  V30 5208 N 508.466 -1.55915 -0.229846 0
M  V30 5209 C 509.877 -1.68809 -0.797531 0
M  V30 5210 C 510.228 -0.643995 -1.8533 0
M  V30 5211 O 509.353 0.206492 -2.15413 0
M  V30 5212 C 509.948 -3.06043 -1.45338 0
M  V30 5213 C 508.507 -3.20819 -1.96856 0
M  V30 5214 C 507.654 -2.6472 -0.825736 0
M  V30 5215 H 510.605 -1.58699 -0.00533733 0
M  V30 5216 H 510.626 -3.01438 -2.32196 0
M  V30 5217 H 510.138 -3.82012 -0.684743 0
M  V30 5218 H 508.239 -2.49704 -2.76548 0
M  V30 5219 H 508.352 -4.27937 -2.15423 0
M  V30 5220 H 506.716 -2.22985 -1.23084 0
M  V30 5221 H 507.499 -3.43229 -0.0699019 0
M  V30 5222 N 509.944 0.496216 -1.49584 0
M  V30 5223 C 510.876 1.61404 -1.62731 0
M  V30 5224 C 511.889 1.54613 -0.50978 0
M  V30 5225 O 513.078 1.60458 -0.782017 0
M  V30 5226 C 510.178 3.00212 -1.57245 0
M  V30 5227 C 509.351 3.32138 -2.84611 0
M  V30 5228 C 508.41 4.5038 -2.72112 0
M  V30 5229 O 507.436 4.51926 -3.46051 0
M  V30 5230 N 508.638 5.50575 -1.83977 0
M  V30 5231 H 511.403 1.50552 -2.59141 0
M  V30 5232 H 508.964 0.684182 -1.46733 0
M  V30 5233 H 510.956 3.77241 -1.4653 0
M  V30 5234 H 509.526 3.04964 -0.686729 0
M  V30 5235 H 508.746 2.4396 -3.09641 0
M  V30 5236 H 510.034 3.50268 -3.69039 0
M  V30 5237 H 509.432 5.52128 -1.23171 0
M  V30 5238 H 507.989 6.26687 -1.79182 0
M  V30 5239 N 511.423 1.38739 0.74761 0
M  V30 5240 C 512.669 1.35475 1.50912 0
M  V30 5241 C 513.002 -0.0533093 1.94127 0
M  V30 5242 O 512.277 -1.01572 1.65871 0
M  V30 5243 C 512.56 2.31582 2.75757 0
M  V30 5244 C 512.413 3.81274 2.38642 0
M  V30 5245 C 513.732 2.25722 3.77806 0
M  V30 5246 H 510.851 0.493427 0.547447 0
M  V30 5247 H 513.493 1.69634 0.855823 0
M  V30 5248 H 511.643 2.02582 3.31501 0
M  V30 5249 H 513.315 4.20972 1.88626 0
M  V30 5250 H 511.558 3.98664 1.71025 0
M  V30 5251 H 512.229 4.4399 3.27989 0
M  V30 5252 H 514.705 2.51336 3.31616 0
M  V30 5253 H 513.581 2.95069 4.62845 0
M  V30 5254 H 513.842 1.25803 4.23823 0
M  V30 5255 N 512.901 -0.976442 1.23707 0
M  V30 5256 C 514.131 -1.75087 1.09673 0
M  V30 5257 C 514.539 -1.85852 -0.354344 0
M  V30 5258 O 513.882 -1.33985 -1.25673 0
M  V30 5259 C 513.944 -3.19272 1.65245 0
M  V30 5260 C 513.608 -3.32004 3.14042 0
M  V30 5261 C 514.605 -3.18017 4.11292 0
M  V30 5262 C 512.29 -3.56525 3.53829 0
M  V30 5263 C 514.284 -3.28363 5.46312 0
M  V30 5264 C 511.971 -3.6651 4.88993 0
M  V30 5265 C 512.969 -3.52439 5.85043 0
M  V30 5266 O 512.657 -3.62063 7.1775 0
M  V30 5267 H 512.389 -0.556164 0.384262 0
M  V30 5268 H 514.943 -1.23518 1.64111 0
M  V30 5269 H 513.173 -3.72107 1.05231 0
M  V30 5270 H 514.862 -3.7849 1.46629 0
M  V30 5271 H 515.628 -2.98966 3.81896 0
M  V30 5272 H 511.507 -3.66547 2.79579 0
M  V30 5273 H 515.051 -3.17297 6.21263 0
M  V30 5274 H 510.948 -3.85072 5.18063 0
M  V30 5275 H 511.716 -3.78833 7.25553 0
M  V30 5276 N 514.379 -1.04941 -1.1758 0
M  V30 5277 C 515.607 -0.778294 -1.91703 0
M  V30 5278 C 516.022 0.665697 -1.76675 0
M  V30 5279 O 515.379 1.45456 -1.10222 0
M  V30 5280 C 515.43 -1.14628 -3.42845 0
M  V30 5281 O 515.151 -2.53359 -3.57409 0
M  V30 5282 C 516.652 -0.900931 -4.34049 0
M  V30 5283 H 513.872 -0.283167 -0.608323 0
M  V30 5284 H 516.416 -1.39942 -1.49119 0
M  V30 5285 H 514.571 -0.569953 -3.83184 0
M  V30 5286 H 514.985 -2.67709 -4.51035 0
M  V30 5287 H 516.459 -1.20817 -5.38616 0
M  V30 5288 H 516.936 0.163966 -4.38894 0
M  V30 5289 H 517.542 -1.46097 -3.99419 0
M  V30 5290 N 515.857 1.33968 -0.830081 0
M  V30 5291 C 516.787 2.31911 -0.271911 0
M  V30 5292 C 517.768 1.58571 0.61556 0
M  V30 5293 O 518.953 1.86514 0.540946 0
M  V30 5294 C 516.083 3.42737 0.561146 0
M  V30 5295 C 515.037 4.27383 -0.229789 0
M  V30 5296 C 514.363 5.29742 0.726463 0
M  V30 5297 C 515.663 5.02 -1.44197 0
M  V30 5298 H 517.357 2.78844 -1.09025 0
M  V30 5299 H 514.903 1.34061 -0.52571 0
M  V30 5300 H 516.856 4.10276 0.961867 0
M  V30 5301 H 515.58 2.94471 1.41261 0
M  V30 5302 H 514.239 3.61456 -0.611964 0
M  V30 5303 H 513.887 4.77736 1.57408 0
M  V30 5304 H 513.587 5.87255 0.20142 0
M  V30 5305 H 515.111 6.00149 1.12489 0
M  V30 5306 H 516.525 5.62355 -1.11488 0
M  V30 5307 H 514.922 5.69122 -1.90317 0
M  V30 5308 H 515.992 4.31281 -2.2164 0
M  V30 5309 N 517.335 0.585699 1.46312 0
M  V30 5310 C 518.746 0.159938 1.86014 0
M  V30 5311 C 519.097 -1.27775 1.48889 0
M  V30 5312 O 518.222 -1.96559 0.90519 0
M  V30 5313 C 518.817 0.283485 3.37612 0
M  V30 5314 C 517.376 -0.0874256 3.76298 0
M  V30 5315 C 516.523 0.618055 2.70325 0
M  V30 5316 H 519.474 0.793737 1.37425 0
M  V30 5317 H 519.495 -0.490348 3.77327 0
M  V30 5318 H 519.007 1.32995 3.64601 0
M  V30 5319 H 517.108 -1.13391 3.54927 0
M  V30 5320 H 517.221 0.290975 4.78216 0
M  V30 5321 H 515.585 0.057993 2.54634 0
M  V30 5322 H 516.368 1.66623 3.00153 0
M  V30 5323 N 518.813 -1.54241 0.323641 0
M  V30 5324 C 520.224 -1.85975 -0.164405 0
M  V30 5325 C 520.575 -1.24529 -1.51615 0
M  V30 5326 O 519.7 -0.551351 -2.09258 0
M  V30 5327 C 520.295 -3.37424 -0.305091 0
M  V30 5328 C 518.854 -3.69107 -0.737358 0
M  V30 5329 C 518.001 -2.76942 0.140884 0
M  V30 5330 H 520.952 -1.49088 0.543922 0
M  V30 5331 H 520.973 -3.63147 -1.13598 0
M  V30 5332 H 520.485 -3.82116 0.678876 0
M  V30 5333 H 518.586 -3.29947 -1.73107 0
M  V30 5334 H 518.699 -4.76035 -0.541053 0
M  V30 5335 H 517.063 -2.51795 -0.383572 0
M  V30 5336 H 517.846 -3.24461 1.12162 0
M  V30 5337 N 520.291 -0.0518155 -1.57515 0
M  V30 5338 C 521.516 0.634896 -1.97443 0
M  V30 5339 C 521.941 1.63546 -0.929207 0
M  V30 5340 O 521.299 1.80981 0.107484 0
M  V30 5341 C 521.347 1.29765 -3.36442 0
M  V30 5342 O 520.451 2.41333 -3.34413 0
M  V30 5343 H 519.792 0.164994 -0.643174 0
M  V30 5344 H 522.322 -0.120407 -2.04245 0
M  V30 5345 H 522.332 1.64918 -3.73184 0
M  V30 5346 H 521.007 0.564361 -4.12053 0
M  V30 5347 H 519.584 2.08122 -3.09418 0
M  V30 5348 N 521.769 1.56035 0.221574 0
M  V30 5349 C 522.701 1.889 1.29805 0
M  V30 5350 C 523.714 0.777269 1.43047 0
M  V30 5351 O 524.903 1.05557 1.43945 0
M  V30 5352 C 522.003 2.0825 2.67367 0
M  V30 5353 C 521.176 3.39267 2.76073 0
M  V30 5354 C 520.235 3.48049 3.94649 0
M  V30 5355 O 519.261 4.2108 3.82988 0
M  V30 5356 N 520.463 2.79191 5.08953 0
M  V30 5357 H 523.228 2.81831 1.01938 0
M  V30 5358 H 520.789 1.5658 0.411612 0
M  V30 5359 H 522.781 2.11441 3.45072 0
M  V30 5360 H 521.351 1.21944 2.87834 0
M  V30 5361 H 520.571 3.48175 1.84846 0
M  V30 5362 H 521.859 4.25575 2.7886 0
M  V30 5363 H 521.257 2.19635 5.21322 0
M  V30 5364 H 519.814 2.88043 5.84701 0
M  V30 5365 N 523.247 -0.488276 1.49845 0
M  V30 5366 C 524.157 -1.61451 1.70207 0
M  V30 5367 C 525.173 -1.63877 0.584846 0
M  V30 5368 O 526.349 -1.82063 0.861107 0
M  V30 5369 C 523.414 -2.9776 1.77594 0
M  V30 5370 C 522.475 -3.05861 3.01243 0
M  V30 5371 C 521.708 -4.35668 3.08268 0
M  V30 5372 O 521.931 -5.25197 2.22541 0
M  V30 5373 O 520.865 -4.49005 4.00847 0
M  V30 5374 H 524.691 -1.47199 2.65643 0
M  V30 5375 H 522.276 -0.665939 1.33737 0
M  V30 5376 H 524.158 -3.7875 1.84732 0
M  V30 5377 H 522.833 -3.12248 0.8534 0
M  V30 5378 H 521.74 -2.24012 2.99616 0
M  V30 5379 H 523.073 -2.96304 3.9302 0
M  V30 5380 N 524.725 -1.39134 -0.740242 0
M  V30 5381 C 525.635 -1.39697 -1.88473 0
M  V30 5382 C 526.651 -0.292403 -1.71526 0
M  V30 5383 O 527.827 -0.533021 -1.94219 0
M  V30 5384 C 524.892 -1.23382 -3.24003 0
M  V30 5385 C 523.953 -2.43763 -3.53381 0
M  V30 5386 C 523.186 -2.28216 -4.82445 0
M  V30 5387 O 523.409 -1.28288 -5.55786 0
M  V30 5388 O 522.343 -3.1709 -5.11603 0
M  V30 5389 H 526.169 -2.36159 -1.90952 0
M  V30 5390 H 523.754 -1.20194 -0.887346 0
M  V30 5391 H 525.636 -1.16395 -4.05006 0
M  V30 5392 H 524.311 -0.300121 -3.22306 0
M  V30 5393 H 523.218 -2.56325 -2.72485 0
M  V30 5394 H 524.551 -3.35808 -3.59852 0
M  V30 5395 N 526.204 0.969867 -1.24223 0
M  V30 5396 C 527.137 2.06279 -0.975926 0
M  V30 5397 C 528.115 1.62353 0.0895385 0
M  V30 5398 O 529.299 1.88442 -0.0469418 0
M  V30 5399 C 526.426 3.35391 -0.472315 0
M  V30 5400 C 525.472 3.98266 -1.526 0
M  V30 5401 S 526.305 4.36172 -3.10667 0
M  V30 5402 C 527.461 5.68423 -2.62003 0
M  V30 5403 H 527.694 2.28551 -1.90137 0
M  V30 5404 H 525.227 1.10748 -1.07584 0
M  V30 5405 H 527.185 4.10068 -0.188376 0
M  V30 5406 H 525.846 3.1111 0.432378 0
M  V30 5407 H 525.039 4.91307 -1.12399 0
M  V30 5408 H 524.641 3.30009 -1.75983 0
M  V30 5409 H 526.933 6.45842 -2.0468 0
M  V30 5410 H 527.876 6.13478 -3.53625 0
M  V30 5411 H 528.284 5.26928 -2.02502 0
M  V30 5412 N 527.682 1.05563 1.17022 0
M  V30 5413 C 528.91 0.78845 1.91288 0
M  V30 5414 C 529.325 -0.656318 1.77025 0
M  V30 5415 O 528.682 -1.44869 1.10992 0
M  V30 5416 C 528.733 1.16444 3.42232 0
M  V30 5417 O 528.454 2.5525 3.5606 0
M  V30 5418 C 529.955 0.923937 4.33565 0
M  V30 5419 H 527.175 0.286389 0.606813 0
M  V30 5420 H 529.719 1.4073 1.48375 0
M  V30 5421 H 527.874 0.590266 3.82877 0
M  V30 5422 H 528.288 2.70097 4.49609 0
M  V30 5423 H 529.762 1.23672 5.37968 0
M  V30 5424 H 530.239 -0.140688 4.38975 0
M  V30 5425 H 530.845 1.48214 3.98639 0
M  V30 5426 N 529.16 -1.33526 0.837174 0
M  V30 5427 C 530.107 -2.29248 0.267169 0
M  V30 5428 C 531.077 -1.54252 -0.616071 0
M  V30 5429 O 532.262 -1.82559 -0.554699 0
M  V30 5430 C 529.402 -3.40638 -0.553152 0
M  V30 5431 C 528.515 -4.30548 0.353921 0
M  V30 5432 C 527.65 -5.29051 -0.477339 0
M  V30 5433 C 526.689 -6.106 0.42823 0
M  V30 5434 N 525.826 -7.01152 -0.364801 0
M  V30 5435 H 530.666 -2.77398 1.08877 0
M  V30 5436 H 528.203 -1.36496 0.54838 0
M  V30 5437 H 530.161 -4.03921 -1.04422 0
M  V30 5438 H 528.791 -2.93685 -1.33973 0
M  V30 5439 H 527.843 -3.68001 0.963289 0
M  V30 5440 H 529.155 -4.87631 1.04964 0
M  V30 5441 H 528.309 -5.97853 -1.0323 0
M  V30 5442 H 527.048 -4.72541 -1.2065 0
M  V30 5443 H 526.053 -5.40718 0.995219 0
M  V30 5444 H 527.278 -6.69193 1.15573 0
M  V30 5445 H 525.224 -6.47092 -1.07738 0
M  V30 5446 H 525.141 -7.5551 0.272238 0
M  V30 5447 H 526.409 -7.74263 -0.902054 0
M  V30 5448 N 530.638 -0.59345 -1.46 0
M  V30 5449 C 531.586 0.146268 -2.3214 0
M  V30 5450 C 532.58 0.873743 -1.45128 0
M  V30 5451 O 533.786 0.790912 -1.61693 0
M  V30 5452 H 530.161 0.0660349 -0.749095 0
M  V30 5453 H 532.132 -0.598895 -2.92328 0
M  V30 5454 C 530.881 1.1396 -3.28494 0
M  V30 5455 H 530.204 0.589252 -3.95434 0
M  V30 5456 H 531.644 1.62738 -3.91526 0
M  V30 5457 C 530.103 2.20604 -2.54628 0
M  V30 5458 O 530.633 3.28128 -2.31722 0
M  V30 5459 N 528.839 1.95502 -2.15005 0
M  V30 5460 H 528.386 1.0807 -2.33834 0
M  V30 5461 H 528.344 2.67064 -1.65904 0
M  V30 5462 N 532.116 1.54067 -0.331816 0
M  V30 5463 C 533.048 2.22139 0.564538 0
M  V30 5464 C 534.061 1.22408 1.07332 0
M  V30 5465 O 535.25 1.4883 0.985481 0
M  V30 5466 C 532.35 2.87876 1.78831 0
M  V30 5467 C 531.523 4.13817 1.41682 0
M  V30 5468 C 530.582 4.63072 2.49901 0
M  V30 5469 O 529.608 5.27562 2.13699 0
M  V30 5470 N 530.81 4.38001 3.80967 0
M  V30 5471 H 533.575 2.99694 -0.0183736 0
M  V30 5472 H 531.136 1.61153 -0.155396 0
M  V30 5473 H 533.128 3.17747 2.50637 0
M  V30 5474 H 531.698 2.13977 2.27887 0
M  V30 5475 H 530.918 3.9062 0.530044 0
M  V30 5476 H 532.206 4.95762 1.14443 0
M  V30 5477 H 531.604 3.864 4.13173 0
M  V30 5478 H 530.161 4.72507 4.48977 0
M  V30 5479 N 533.594 0.0601682 1.57485 0
M  V30 5480 C 534.84 -0.612501 1.93329 0
M  V30 5481 C 535.173 -1.6996 0.939526 0
M  V30 5482 O 534.448 -1.94472 -0.0330957 0
M  V30 5483 C 534.731 -1.20025 3.39508 0
M  V30 5484 C 534.584 -0.12059 4.49638 0
M  V30 5485 C 535.903 -2.10923 3.86264 0
M  V30 5486 H 533.022 -0.221185 0.703027 0
M  V30 5487 H 535.664 0.123768 1.89596 0
M  V30 5488 H 533.814 -1.82774 3.42821 0
M  V30 5489 H 535.486 0.51185 4.58452 0
M  V30 5490 H 533.729 0.550251 4.30296 0
M  V30 5491 H 534.4 -0.572019 5.49028 0
M  V30 5492 H 536.876 -1.58124 3.84884 0
M  V30 5493 H 535.752 -2.48987 4.8918 0
M  V30 5494 H 536.013 -3.01292 3.23536 0
M  V30 5495 N 535.072 -1.5615 -0.213296 0
M  V30 5496 C 536.297 -1.83986 -0.957282 0
M  V30 5497 C 536.722 -0.641526 -1.76822 0
M  V30 5498 O 536.08 0.409722 -1.7661 0
M  V30 5499 C 536.128 -3.09889 -1.84393 0
M  V30 5500 O 535.232 -2.89163 -2.94038 0
M  V30 5501 H 534.573 -0.606357 -0.270605 0
M  V30 5502 H 537.103 -2.03369 -0.224111 0
M  V30 5503 H 537.113 -3.40209 -2.25215 0
M  V30 5504 H 535.788 -3.96735 -1.24795 0
M  V30 5505 H 534.365 -2.70097 -2.57103 0
M  V30 5506 N 536.55 0.480323 -1.50102 0
M  V30 5507 C 537.48 1.58769 -1.71215 0
M  V30 5508 C 538.461 1.60583 -0.560997 0
M  V30 5509 O 539.646 1.76996 -0.799127 0
M  V30 5510 C 536.776 2.97148 -1.79778 0
M  V30 5511 C 535.73 3.10201 -2.94888 0
M  V30 5512 C 535.056 4.50137 -2.88584 0
M  V30 5513 C 536.356 2.88283 -4.35534 0
M  V30 5514 H 538.05 1.41354 -2.6393 0
M  V30 5515 H 535.596 0.678591 -1.27008 0
M  V30 5516 H 537.549 3.74536 -1.93133 0
M  V30 5517 H 536.273 3.15699 -0.836772 0
M  V30 5518 H 534.932 2.35244 -2.81169 0
M  V30 5519 H 534.58 4.65593 -1.90349 0
M  V30 5520 H 534.28 4.59808 -3.65856 0
M  V30 5521 H 535.804 5.29558 -3.03976 0
M  V30 5522 H 537.218 3.55427 -4.49827 0
M  V30 5523 H 535.615 3.09408 -5.14186 0
M  V30 5524 H 536.685 1.84219 -4.48544 0
M  V30 5525 N 538.028 1.39524 0.732853 0
M  V30 5526 C 539.256 1.40143 1.52209 0
M  V30 5527 C 539.671 -0.00348836 1.888 0
M  V30 5528 O 539.028 -0.975357 1.5425 0
M  V30 5529 C 539.079 2.27632 2.8083 0
M  V30 5530 O 538.8 3.62654 2.45792 0
M  V30 5531 C 540.301 2.36658 3.74844 0
M  V30 5532 H 537.521 0.478604 0.470297 0
M  V30 5533 H 540.065 1.83366 0.905388 0
M  V30 5534 H 538.22 1.87818 3.38826 0
M  V30 5535 H 538.634 4.08941 3.28431 0
M  V30 5536 H 540.108 3.02118 4.61984 0
M  V30 5537 H 540.585 1.38638 4.16745 0
M  V30 5538 H 541.191 2.76951 3.22766 0
M  V30 5539 N 539.506 -0.963266 1.24736 0
M  V30 5540 C 540.746 -1.72172 1.10165 0
M  V30 5541 C 541.11 -1.88731 -0.352784 0
M  V30 5542 O 542.311 -2.61549 -0.620107 0
M  V30 5543 C 540.582 -3.0724 1.82589 0
M  V30 5544 S 542.141 -3.98449 1.83803 0
M  V30 5545 H 538.959 -0.591901 0.393922 0
M  V30 5546 H 541.561 -1.14955 1.58132 0
M  V30 5547 H 540.265 -2.92851 2.87518 0
M  V30 5548 H 539.796 -3.69521 1.34973 0
M  V30 5549 H 541.811 -4.87805 0.908883 0
M  V30 5550 N 540.985 -1.06182 -1.16461 0
M  V30 5551 C 541.915 -0.692861 -2.22984 0
M  V30 5552 C 542.896 0.314122 -1.67174 0
M  V30 5553 O 544.081 0.189499 -1.93273 0
M  V30 5554 C 541.211 -0.07732 -3.47214 0
M  V30 5555 C 540.165 -1.01015 -4.15909 0
M  V30 5556 C 539.491 -0.257973 -5.34077 0
M  V30 5557 C 540.791 -2.33868 -4.67015 0
M  V30 5558 H 542.485 -1.58343 -2.54102 0
M  V30 5559 H 540.031 -0.76279 -1.22137 0
M  V30 5560 H 541.984 0.19266 -4.20959 0
M  V30 5561 H 540.708 0.848254 -3.15392 0
M  V30 5562 H 539.367 -1.26486 -3.44088 0
M  V30 5563 H 539.015 0.670684 -4.98509 0
M  V30 5564 H 538.715 -0.879638 -5.80979 0
M  V30 5565 H 540.239 0.00448788 -6.106 0
M  V30 5566 H 541.653 -2.1279 -5.32347 0
M  V30 5567 H 540.05 -2.91522 -5.24533 0
M  V30 5568 H 541.12 -2.97019 -3.83286 0
M  V30 5569 N 542.463 1.3308 -0.844243 0
M  V30 5570 C 543.709 1.97898 -0.443206 0
M  V30 5571 C 544.042 1.66699 0.99625 0
M  V30 5572 O 543.317 0.949704 1.69738 0
M  V30 5573 C 543.6 3.53801 -0.670606 0
M  V30 5574 C 543.453 3.94667 -2.15772 0
M  V30 5575 C 544.772 4.39936 -0.120226 0
M  V30 5576 H 541.891 0.718861 -0.162504 0
M  V30 5577 H 544.533 1.57633 -1.06075 0
M  V30 5578 H 542.683 3.88229 -0.14496 0
M  V30 5579 H 544.355 3.70469 -2.74865 0
M  V30 5580 H 542.598 3.44203 -2.6402 0
M  V30 5581 H 543.269 5.03275 -2.26757 0
M  V30 5582 H 545.745 4.12183 -0.5696 0
M  V30 5583 H 544.621 5.4803 -0.308984 0
M  V30 5584 H 544.882 4.31184 0.976347 0
M  V30 5585 N 543.941 0.601185 1.45683 0
M  V30 5586 C 544.888 -0.121396 2.30481 0
M  V30 5587 C 545.858 -0.866232 1.41724 0
M  V30 5588 O 547.043 -0.85324 1.70659 0
M  V30 5589 C 544.183 -1.11704 3.26521 0
M  V30 5590 C 543.296 -0.373741 4.3038 0
M  V30 5591 C 542.431 -1.35854 5.13534 0
M  V30 5592 C 541.47 -0.602689 6.09126 0
M  V30 5593 N 540.607 -1.53645 6.85082 0
M  V30 5594 H 545.447 0.607732 2.91737 0
M  V30 5595 H 542.984 0.311502 1.43764 0
M  V30 5596 H 544.942 -1.70735 3.80664 0
M  V30 5597 H 543.572 -1.81366 2.67032 0
M  V30 5598 H 542.624 0.331962 3.78949 0
M  V30 5599 H 543.936 0.2163 4.98331 0
M  V30 5600 H 543.09 -2.02111 5.72046 0
M  V30 5601 H 541.829 -1.98251 4.45587 0
M  V30 5602 H 540.834 0.0735482 5.49751 0
M  V30 5603 H 542.059 0.0161467 6.79098 0
M  V30 5604 H 540.005 -2.14819 6.1983 0
M  V30 5605 H 539.922 -0.999688 7.49361 0
M  V30 5606 H 541.19 -2.1888 7.48139 0
M  V30 5607 N 545.419 -1.53889 0.339982 0
M  V30 5608 C 546.667 -2.00458 -0.257112 0
M  V30 5609 C 546.988 -1.22953 -1.51353 0
M  V30 5610 O 546.258 -0.335734 -1.93002 0
M  V30 5611 H 544.838 -0.740544 -0.0979965 0
M  V30 5612 H 547.5 -1.89386 0.460317 0
M  V30 5613 H 546.596 -3.08035 -0.502057 0
M  V30 5614 N 546.897 -0.0685191 -1.57451 0
M  V30 5615 C 548.144 0.601348 -1.93365 0
M  V30 5616 C 548.472 1.69816 -0.948294 0
M  V30 5617 O 547.727 1.95666 0.0366199 0
M  V30 5618 C 548.026 1.22051 -3.35914 0
M  V30 5619 C 547.692 0.250165 -4.50205 0
M  V30 5620 C 546.354 -0.0167954 -4.81197 0
M  V30 5621 C 548.706 -0.413867 -5.19554 0
M  V30 5622 C 546.034 -0.95493 -5.78876 0
M  V30 5623 C 548.386 -1.3403 -6.18238 0
M  V30 5624 C 547.05 -1.61576 -6.47649 0
M  V30 5625 H 546.32 0.220049 -0.707573 0
M  V30 5626 H 548.967 -0.138697 -1.90997 0
M  V30 5627 H 547.272 2.03622 -3.34732 0
M  V30 5628 H 548.969 1.74605 -3.6099 0
M  V30 5629 H 545.559 0.468421 -4.26033 0
M  V30 5630 H 549.743 -0.220733 -4.95809 0
M  V30 5631 H 544.999 -1.17563 -5.99991 0
M  V30 5632 H 549.173 -1.86081 -6.71079 0
M  V30 5633 H 546.8 -2.34431 -7.2315 0
M  V30 5634 N 548.375 1.56261 0.205012 0
M  V30 5635 C 549.605 1.83874 0.942018 0
M  V30 5636 C 550.013 0.647595 1.77772 0
M  V30 5637 O 549.356 -0.393098 1.79445 0
M  V30 5638 C 549.418 3.05453 1.89575 0
M  V30 5639 C 549.082 4.39772 1.24296 0
M  V30 5640 C 550.079 5.16133 0.624724 0
M  V30 5641 C 547.764 4.86504 1.24978 0
M  V30 5642 C 549.758 6.37396 0.0220117 0
M  V30 5643 C 547.445 6.07705 0.643232 0
M  V30 5644 C 548.443 6.82993 0.0304164 0
M  V30 5645 O 548.131 8.019 -0.566654 0
M  V30 5646 H 547.863 0.614896 0.280854 0
M  V30 5647 H 550.417 2.04215 0.220285 0
M  V30 5648 H 548.647 2.80972 2.65691 0
M  V30 5649 H 550.336 3.19797 2.4997 0
M  V30 5650 H 551.102 4.81127 0.611666 0
M  V30 5651 H 546.981 4.27865 1.71616 0
M  V30 5652 H 550.525 6.96102 -0.456926 0
M  V30 5653 H 546.422 6.42181 0.653759 0
M  V30 5654 H 547.19 8.17192 -0.462588 0
M  V30 5655 N 549.853 -0.472356 1.50355 0
M  V30 5656 C 551.264 -1.05326 1.54154 0
M  V30 5657 C 551.615 -1.93155 0.344303 0
M  V30 5658 O 550.74 -2.09479 -0.542928 0
M  V30 5659 C 551.335 -1.91691 2.79356 0
M  V30 5660 C 549.894 -2.44892 2.8584 0
M  V30 5661 C 549.041 -1.23205 2.48426 0
M  V30 5662 H 551.992 -0.255027 1.56637 0
M  V30 5663 H 552.013 -2.76742 2.6114 0
M  V30 5664 H 551.525 -1.27741 3.66475 0
M  V30 5665 H 549.626 -3.12399 2.0307 0
M  V30 5666 H 549.739 -2.80086 3.88701 0
M  V30 5667 H 548.103 -1.56643 2.00836 0
M  V30 5668 H 548.886 -0.609194 3.37852 0
M  V30 5669 N 551.331 -1.39911 -0.725443 0
M  V30 5670 C 552.556 -1.41137 -1.5197 0
M  V30 5671 C 552.981 -0.010262 -1.88097 0
M  V30 5672 O 552.339 0.979184 -1.52583 0
M  V30 5673 C 552.387 -2.2994 -2.77777 0
M  V30 5674 O 551.491 -1.73586 -3.74088 0
M  V30 5675 H 550.832 -0.480219 -0.458569 0
M  V30 5676 H 553.362 -1.84023 -0.894249 0
M  V30 5677 H 553.372 -2.44785 -3.26411 0
M  V30 5678 H 552.047 -3.31759 -2.50816 0
M  V30 5679 H 550.624 -1.68035 -3.32894 0
M  V30 5680 N 552.809 0.956637 -1.25245 0
M  V30 5681 C 554.086 1.67716 -1.00651 0
M  V30 5682 C 554.466 2.0585 0.467866 0
M  V30 5683 O 553.814 1.77029 1.44475 0
M  V30 5684 C 554.024 2.90093 -1.94028 0
M  V30 5685 C 555.372 3.6209 -2.21756 0
M  V30 5686 O 556.396 3.00171 -1.9177 0
M  V30 5687 O 555.255 4.7358 -2.72735 0
M  V30 5688 H 552.349 0.733731 -0.381533 0
M  V30 5689 H 554.895 1.00974 -1.3639 0
M  V30 5690 H 553.667 2.58689 -2.93591 0
M  V30 5691 H 553.29 3.64566 -1.58674 0
M  V30 5692 N 554.287 1.06798 1.15896 0
M  V30 5693 C 555.536 0.782796 1.8589 0
M  V30 5694 C 555.849 -0.693498 1.82893 0
M  V30 5695 O 557.055 -1.09325 2.48516 0
M  V30 5696 C 555.511 1.3502 3.33613 0
M  V30 5697 C 555.119 2.8571 3.45071 0
M  V30 5698 C 556.863 1.14278 4.08829 0
M  V30 5699 C 554.77 3.35669 4.86909 0
M  V30 5700 H 553.7 0.289149 0.696354 0
M  V30 5701 H 556.351 1.28734 1.30766 0
M  V30 5702 H 554.733 0.773407 3.88374 0
M  V30 5703 H 555.907 3.49385 3.00445 0
M  V30 5704 H 554.222 3.05178 2.83294 0
M  V30 5705 H 556.819 1.49087 5.13495 0
M  V30 5706 H 557.162 0.0814575 4.1622 0
M  V30 5707 H 557.695 1.68563 3.60321 0
M  V30 5708 H 554.434 4.41302 4.84698 0
M  V30 5709 H 553.954 2.76745 5.32139 0
M  V30 5710 H 555.633 3.31296 5.55745 0
M  V30 5711 N 555.766 -1.3263 0.851289 0
M  V30 5712 C 556.729 -2.27247 0.298541 0
M  V30 5713 C 557.729 -1.51467 -0.539847 0
M  V30 5714 O 558.919 -1.7061 -0.351843 0
M  V30 5715 C 556.051 -3.35964 -0.578004 0
M  V30 5716 H 557.244 -2.7765 1.13359 0
M  V30 5717 H 554.797 -1.43245 0.625354 0
M  V30 5718 H 555.532 -2.90823 -1.435 0
M  V30 5719 H 555.317 -3.92094 0.0220539 0
M  V30 5720 H 556.807 -4.06472 -0.957626 0
M  V30 5721 N 557.244 -0.608902 -1.45362 0
M  V30 5722 C 558.49 -0.104762 -2.02529 0
M  V30 5723 C 558.823 1.26191 -1.47613 0
M  V30 5724 O 558.098 1.8327 -0.65134 0
M  V30 5725 C 558.381 -0.0672661 -3.60037 0
M  V30 5726 C 558.234 -1.4647 -4.25284 0
M  V30 5727 C 559.553 0.619877 -4.35713 0
M  V30 5728 H 556.672 -0.0395438 -0.735938 0
M  V30 5729 H 559.314 -0.781126 -1.73201 0
M  V30 5730 H 557.464 0.50871 -3.85155 0
M  V30 5731 H 559.136 -2.08785 -4.11347 0
M  V30 5732 H 557.379 -2.02502 -3.83634 0
M  V30 5733 H 558.05 -1.39069 -5.34195 0
M  V30 5734 H 560.526 0.130297 -4.15896 0
M  V30 5735 H 559.402 0.615224 -5.45441 0
M  V30 5736 H 559.663 1.68621 -4.0868 0
M  V30 5737 N 558.722 1.53707 -0.348139 0
M  V30 5738 C 559.632 2.28881 0.514857 0
M  V30 5739 C 560.648 1.34168 1.10793 0
M  V30 5740 O 561.824 1.6721 1.12262 0
M  V30 5741 C 558.889 3.05042 1.64774 0
M  V30 5742 C 557.95 4.15389 1.08398 0
M  V30 5743 C 557.183 4.87909 2.16287 0
M  V30 5744 O 557.406 4.60137 3.3709 0
M  V30 5745 O 556.34 5.74254 1.80323 0
M  V30 5746 H 560.166 3.03547 -0.0963699 0
M  V30 5747 H 557.751 1.48972 -0.113043 0
M  V30 5748 H 559.633 3.52656 2.30677 0
M  V30 5749 H 558.308 2.33228 2.24469 0
M  V30 5750 H 557.215 3.72068 0.389341 0
M  V30 5751 H 558.548 4.89318 0.531829 0
M  V30 5752 N 560.2 0.0768682 1.57412 0
M  V30 5753 C 561.446 -0.585926 1.94778 0
M  V30 5754 C 561.801 -1.66912 0.956982 0
M  V30 5755 O 561.094 -1.9159 -0.0199454 0
M  V30 5756 C 561.288 -1.20268 3.36557 0
M  V30 5757 C 561.117 -0.18076 4.49337 0
M  V30 5758 C 559.887 0.236362 5.04747 0
M  V30 5759 C 562.085 0.583978 5.10974 0
M  V30 5760 N 560.067 1.24846 6.01071 0
M  V30 5761 C 561.438 1.44841 6.02844 0
M  V30 5762 C 563.493 0.639492 4.93776 0
M  V30 5763 C 562.196 2.36343 6.79363 0
M  V30 5764 C 564.222 1.54204 5.70942 0
M  V30 5765 C 563.584 2.39414 6.62465 0
M  V30 5766 H 559.683 -0.185281 0.759734 0
M  V30 5767 H 562.267 0.155193 1.9408 0
M  V30 5768 H 560.438 -1.9137 3.37982 0
M  V30 5769 H 562.17 -1.82636 3.61146 0
M  V30 5770 H 558.925 -0.14777 4.73369 0
M  V30 5771 H 559.349 1.75217 6.53933 0
M  V30 5772 H 563.991 -0.00510074 4.228 0
M  V30 5773 H 561.709 3.01836 7.49614 0
M  V30 5774 H 565.295 1.5899 5.59655 0
M  V30 5775 H 564.175 3.0812 7.21132 0
M  V30 5776 N 561.678 -1.56367 -0.196722 0
M  V30 5777 C 562.588 -1.97617 -1.2643 0
M  V30 5778 C 563.604 -0.883598 -1.49895 0
M  V30 5779 O 564.78 -1.18921 -1.62541 0
M  V30 5780 C 561.845 -2.30595 -2.58895 0
M  V30 5781 C 560.906 -3.53551 -2.43516 0
M  V30 5782 C 560.139 -3.84946 -3.69665 0
M  V30 5783 O 560.362 -3.17655 -4.73763 0
M  V30 5784 O 559.296 -4.78379 -3.65291 0
M  V30 5785 H 563.122 -2.88648 -0.944233 0
M  V30 5786 H 560.707 -1.43901 -0.401592 0
M  V30 5787 H 562.589 -2.52889 -3.37083 0
M  V30 5788 H 561.264 -1.42732 -2.90533 0
M  V30 5789 H 560.171 -3.36507 -1.63445 0
M  V30 5790 H 561.504 -4.41875 -2.16812 0
M  V30 5791 N 563.156 0.464375 -1.50603 0
M  V30 5792 C 564.381 1.24372 -1.65971 0
M  V30 5793 C 564.806 1.84901 -0.345453 0
M  V30 5794 O 564.164 1.67596 0.691457 0
M  V30 5795 C 564.212 2.32331 -2.7578 0
M  V30 5796 O 563.316 3.37146 -2.375 0
M  V30 5797 H 562.657 0.365604 -0.554283 0
M  V30 5798 H 565.187 0.55183 -1.97018 0
M  V30 5799 H 565.197 2.77539 -2.99059 0
M  V30 5800 H 563.872 1.87648 -3.71162 0
M  V30 5801 H 562.449 2.97602 -2.24694 0
M  V30 5802 N 564.634 1.40294 0.718013 0
M  V30 5803 C 565.582 1.40536 1.85344 0
M  V30 5804 C 566.576 0.286192 1.66965 0
M  V30 5805 O 567.782 0.457105 1.74099 0
M  V30 5806 H 564.157 0.439236 0.61039 0
M  V30 5807 H 566.128 2.36275 1.82255 0
M  V30 5808 C 564.877 1.28245 3.23185 0
M  V30 5809 H 564.2 2.1364 3.37932 0
M  V30 5810 H 565.64 1.32474 4.02774 0
M  V30 5811 C 564.099 -0.0075503 3.36899 0
M  V30 5812 O 564.629 -0.971391 3.89778 0
M  V30 5813 N 562.835 -0.0762479 2.905 0
M  V30 5814 H 562.382 0.708819 2.47656 0
M  V30 5815 H 562.34 -0.938846 3.00055 0
M  V30 5816 N 566.112 -0.949982 1.2575 0
M  V30 5817 C 567.36 -1.6918 1.10555 0
M  V30 5818 C 567.681 -1.91773 -0.353298 0
M  V30 5819 O 566.951 -1.50814 -1.25027 0
M  V30 5820 H 565.531 -0.626952 0.406129 0
M  V30 5821 H 568.193 -1.1419 1.57945 0
M  V30 5822 H 567.289 -2.66915 1.61749 0
M  V30 5823 N 567.59 -1.07411 -1.15328 0
M  V30 5824 C 568.522 -0.652924 -2.19703 0
M  V30 5825 C 569.535 0.294869 -1.60107 0
M  V30 5826 O 570.724 0.0840932 -1.78302 0
M  V30 5827 C 567.824 0.061434 -3.38844 0
M  V30 5828 C 566.997 -0.902696 -4.27984 0
M  V30 5829 C 566.056 -0.225521 -5.25717 0
M  V30 5830 O 565.082 -0.86676 -5.62562 0
M  V30 5831 N 566.284 1.02858 -5.71315 0
M  V30 5832 H 569.049 -1.55081 -2.56457 0
M  V30 5833 H 566.61 -0.958883 -1.30449 0
M  V30 5834 H 568.602 0.525145 -4.01278 0
M  V30 5835 H 567.172 0.861269 -3.00501 0
M  V30 5836 H 566.392 -1.54551 -3.6264 0
M  V30 5837 H 567.68 -1.55636 -4.84412 0
M  V30 5838 H 567.078 1.56948 -5.43492 0
M  V30 5839 H 565.635 1.43596 -6.35786 0
M  V30 5840 N 569.068 1.32177 -0.85831 0
M  V30 5841 C 570.479 1.79381 -0.517621 0
M  V30 5842 C 570.83 1.70841 0.964769 0
M  V30 5843 O 569.955 1.26917 1.75274 0
M  V30 5844 C 570.55 3.25706 -0.932801 0
M  V30 5845 C 569.109 3.70851 -0.643953 0
M  V30 5846 C 568.256 2.53208 -1.13054 0
M  V30 5847 H 571.207 1.19424 -1.04516 0
M  V30 5848 H 571.228 3.79673 -0.250674 0
M  V30 5849 H 570.74 3.31889 -2.01174 0
M  V30 5850 H 568.841 3.70178 0.424112 0
M  V30 5851 H 568.954 4.63495 -1.21281 0
M  V30 5852 H 567.318 2.48676 -0.550679 0
M  V30 5853 H 568.101 2.62143 -2.21666 0
M  V30 5854 N 570.547 0.616602 1.45037 0
M  V30 5855 C 571.457 -0.0985401 2.34393 0
M  V30 5856 C 572.473 -0.850971 1.51771 0
M  V30 5857 O 573.649 -0.806521 1.84546 0
M  V30 5858 C 570.714 -1.07748 3.29532 0
M  V30 5859 C 569.775 -0.326022 4.2806 0
M  V30 5860 C 569.008 -1.25833 5.18654 0
M  V30 5861 O 569.231 -2.49652 5.12864 0
M  V30 5862 O 568.165 -0.750512 5.97203 0
M  V30 5863 H 571.991 0.636016 2.96966 0
M  V30 5864 H 569.576 0.376832 1.44569 0
M  V30 5865 H 571.458 -1.64107 3.88133 0
M  V30 5866 H 570.133 -1.79291 2.69512 0
M  V30 5867 H 569.04 0.280253 3.73049 0
M  V30 5868 H 570.373 0.349091 4.9096 0
M  V30 5869 N 572.025 -1.5352 0.356285 0
M  V30 5870 C 572.973 -2.26945 -0.50978 0
M  V30 5871 C 573.967 -1.29569 -1.09125 0
M  V30 5872 O 575.173 -1.47231 -1.03552 0
M  V30 5873 H 571.548 -0.729368 -0.183102 0
M  V30 5874 H 573.519 -2.98111 0.131374 0
M  V30 5875 C 572.268 -3.06466 -1.64237 0
M  V30 5876 H 571.591 -3.81233 -1.20423 0
M  V30 5877 H 573.031 -3.61035 -2.22327 0
M  V30 5878 C 571.49 -2.16737 -2.57928 0
M  V30 5879 O 572.02 -1.77195 -3.60507 0
M  V30 5880 N 570.226 -1.81558 -2.26903 0
M  V30 5881 H 569.773 -2.13913 -1.43524 0
M  V30 5882 H 569.731 -1.21806 -2.89846 0
M  V30 5883 N 573.503 -0.0852151 -1.57369 0
M  V30 5884 C 574.451 0.894856 -2.14698 0
M  V30 5885 C 575.445 1.29903 -1.08727 0
M  V30 5886 O 576.651 1.27471 -1.27088 0
M  V30 5887 H 573.026 0.306569 -0.686673 0
M  V30 5888 H 574.997 0.386542 -2.95886 0
M  V30 5889 C 573.746 2.14798 -2.73417 0
M  V30 5890 H 573.069 1.84585 -3.54638 0
M  V30 5891 H 574.509 2.81456 -3.1711 0
M  V30 5892 C 572.968 2.91546 -1.68828 0
M  V30 5893 O 573.498 3.85733 -1.12129 0
M  V30 5894 N 571.704 2.54901 -1.39549 0
M  V30 5895 H 571.251 1.7838 -1.85845 0
M  V30 5896 H 571.209 3.06553 -0.698054 0
M  V30 5897 N 574.981 1.5647 0.188427 0
M  V30 5898 C 576.211 1.84863 0.922463 0
M  V30 5899 C 576.619 0.666413 1.77075 0
M  V30 5900 O 575.962 -0.374044 1.79852 0
M  V30 5901 C 576.024 3.07447 1.86324 0
M  V30 5902 C 575.688 4.41066 1.19625 0
M  V30 5903 C 576.685 5.16767 0.569946 0
M  V30 5904 C 574.37 4.87802 1.19811 0
M  V30 5905 C 576.364 6.37384 -0.045594 0
M  V30 5906 C 574.051 6.08353 0.57874 0
M  V30 5907 C 575.049 6.82987 -0.0420259 0
M  V30 5908 O 574.737 8.01254 -0.651675 0
M  V30 5909 H 574.469 0.61784 0.274316 0
M  V30 5910 H 577.023 2.04437 0.198613 0
M  V30 5911 H 575.253 2.83774 2.62696 0
M  V30 5912 H 576.942 3.2243 2.46564 0
M  V30 5913 H 577.708 4.81749 0.560601 0
M  V30 5914 H 573.587 4.29662 1.67069 0
M  V30 5915 H 577.131 6.95578 -0.530731 0
M  V30 5916 H 573.028 6.42838 0.58561 0
M  V30 5917 H 573.796 8.16655 -0.549236 0
M  V30 5918 N 576.459 -0.456382 1.50847 0
M  V30 5919 C 577.406 -1.55249 1.70782 0
M  V30 5920 C 578.376 -1.56757 0.549231 0
M  V30 5921 O 579.561 -1.74061 0.7815 0
M  V30 5922 C 576.701 -2.93118 1.82143 0
M  V30 5923 C 575.814 -3.01285 3.09598 0
M  V30 5924 C 574.949 -4.30159 3.11667 0
M  V30 5925 C 573.988 -4.32124 4.33515 0
M  V30 5926 N 573.125 -5.52492 4.3324 0
M  V30 5927 H 577.965 -1.37555 2.64353 0
M  V30 5928 H 575.502 -0.668543 1.3103 0
M  V30 5929 H 577.46 -3.73088 1.86711 0
M  V30 5930 H 576.09 -3.09413 0.919978 0
M  V30 5931 H 575.142 -2.14096 3.14431 0
M  V30 5932 H 576.454 -2.98597 3.99551 0
M  V30 5933 H 575.608 -5.18489 3.15046 0
M  V30 5934 H 574.347 -4.35477 2.1957 0
M  V30 5935 H 573.352 -3.42189 4.30333 0
M  V30 5936 H 574.577 -4.28485 5.26856 0
M  V30 5937 H 572.523 -5.58567 3.44004 0
M  V30 5938 H 572.44 -5.51605 5.16979 0
M  V30 5939 H 573.708 -6.42906 4.40786 0
M  V30 5940 N 577.937 -1.40673 -0.710563 0
M  V30 5941 C 579.165 -1.42547 -1.4996 0
M  V30 5942 C 579.58 -0.0265485 -1.88781 0
M  V30 5943 O 578.937 0.950694 -1.55782 0
M  V30 5944 C 578.988 -2.32071 -2.77173 0
M  V30 5945 O 578.709 -3.66518 -2.39992 0
M  V30 5946 C 580.21 -2.42591 -3.71032 0
M  V30 5947 H 577.43 -0.486025 -0.462623 0
M  V30 5948 H 579.974 -1.84783 -0.876102 0
M  V30 5949 H 578.129 -1.93184 -3.35795 0
M  V30 5950 H 578.543 -4.14115 -3.21884 0
M  V30 5951 H 580.017 -3.09429 -4.57119 0
M  V30 5952 H 580.494 -1.4525 -4.14486 0
M  V30 5953 H 581.1 -2.82051 -3.18319 0
M  V30 5954 N 579.415 0.9433 -1.26252 0
M  V30 5955 C 580.643 1.72367 -1.14443 0
M  V30 5956 C 581.058 1.86392 0.300572 0
M  V30 5957 O 580.415 1.36978 1.20596 0
M  V30 5958 C 580.466 3.13155 -1.806 0
M  V30 5959 O 580.187 2.99803 -3.19452 0
M  V30 5960 C 581.688 4.07417 -1.74717 0
M  V30 5961 H 578.908 0.539758 -0.398626 0
M  V30 5962 H 581.452 1.18268 -1.66832 0
M  V30 5963 H 579.607 3.64162 -1.32154 0
M  V30 5964 H 580.021 3.88697 -3.52158 0
M  V30 5965 H 581.495 5.03773 -2.25647 0
M  V30 5966 H 581.972 4.3337 -0.713244 0
M  V30 5967 H 582.578 3.6233 -2.22704 0
M  V30 5968 N 580.893 1.08022 1.14757 0
M  V30 5969 C 582.304 0.829144 1.67279 0
M  V30 5970 C 582.655 -0.644721 1.85305 0
M  V30 5971 O 581.78 -1.49838 1.56133 0
M  V30 5972 C 582.375 1.49855 3.03857 0
M  V30 5973 C 580.934 1.29482 3.53428 0
M  V30 5974 C 580.081 1.56386 2.28995 0
M  V30 5975 H 583.032 1.24134 0.988762 0
M  V30 5976 H 583.053 0.923572 3.69121 0
M  V30 5977 H 582.565 2.57123 2.90705 0
M  V30 5978 H 580.666 0.242669 3.71809 0
M  V30 5979 H 580.779 2.01974 4.34446 0
M  V30 5980 H 579.143 0.985217 2.34874 0
M  V30 5981 H 579.926 2.64851 2.18423 0
M  V30 5982 N 582.371 -1.3172 0.865308 0
M  V30 5983 C 583.782 -1.79104 0.527126 0
M  V30 5984 C 584.133 -1.7135 -0.955695 0
M  V30 5985 O 583.258 -1.27845 -1.74598 0
M  V30 5986 C 583.853 -3.25207 0.950061 0
M  V30 5987 C 582.412 -3.70504 0.663611 0
M  V30 5988 C 581.559 -2.52605 1.14395 0
M  V30 5989 H 584.51 -1.18868 1.05148 0
M  V30 5990 H 584.531 -3.79535 0.270805 0
M  V30 5991 H 584.043 -3.30818 2.02931 0
M  V30 5992 H 582.144 -3.70398 -0.404474 0
M  V30 5993 H 582.257 -4.62845 1.23737 0
M  V30 5994 H 580.621 -2.4838 0.563859 0
M  V30 5995 H 581.404 -2.60964 2.23053 0
M  V30 5996 N 583.85 -0.624285 -1.44708 0
M  V30 5997 C 585.096 -0.126237 -2.02407 0
M  V30 5998 C 585.428 1.24618 -1.48943 0
M  V30 5999 O 584.704 1.82569 -0.670742 0
M  V30 6000 C 584.986 -0.105449 -3.59946 0
M  V30 6001 C 584.84 -1.50972 -4.23707 0
M  V30 6002 C 586.159 0.573629 -4.36346 0
M  V30 6003 H 583.278 -0.0473472 -0.735478 0
M  V30 6004 H 585.92 -0.799452 -1.72362 0
M  V30 6005 H 584.07 0.46783 -3.85673 0
M  V30 6006 H 585.742 -2.13136 -4.0911 0
M  V30 6007 H 583.985 -2.0656 -3.81465 0
M  V30 6008 H 584.656 -1.44727 -5.32689 0
M  V30 6009 H 587.132 0.0861787 -4.16011 0
M  V30 6010 H 586.008 0.557338 -5.46063 0
M  V30 6011 H 586.269 1.64276 -4.10446 0
M  V30 6012 N 585.328 1.53329 -0.364422 0
M  V30 6013 C 586.258 2.28627 0.474543 0
M  V30 6014 C 587.239 1.31009 1.08492 0
M  V30 6015 O 588.424 1.59878 1.10239 0
M  V30 6016 C 585.554 3.07465 1.61501 0
M  V30 6017 C 584.508 4.1276 1.13194 0
M  V30 6018 C 583.834 4.79674 2.36255 0
M  V30 6019 C 585.134 5.21847 0.217507 0
M  V30 6020 H 586.828 2.99005 -0.153656 0
M  V30 6021 H 584.374 1.43803 -0.0753406 0
M  V30 6022 H 586.327 3.58889 2.20855 0
M  V30 6023 H 585.051 2.34775 2.27042 0
M  V30 6024 H 583.71 3.62281 0.56109 0
M  V30 6025 H 583.358 4.03557 3.00251 0
M  V30 6026 H 583.058 5.50827 2.04606 0
M  V30 6027 H 584.582 5.33892 2.96297 0
M  V30 6028 H 585.996 5.6878 0.718493 0
M  V30 6029 H 584.393 6.00099 -0.00806408 0
M  V30 6030 H 585.463 4.7921 -0.740653 0
M  V30 6031 N 586.806 0.0935595 1.57322 0
M  V30 6032 C 588.083 -0.612692 1.85756 0
M  V30 6033 C 588.463 -1.86439 0.99013 0
M  V30 6034 O 587.811 -2.28416 0.0621362 0
M  V30 6035 C 588.021 -0.929547 3.36393 0
M  V30 6036 C 589.369 -1.29366 4.04413 0
M  V30 6037 O 590.393 -1.02061 3.41265 0
M  V30 6038 O 589.252 -1.80498 5.15832 0
M  V30 6039 H 586.346 -0.306444 0.768128 0
M  V30 6040 H 588.892 0.126141 1.69231 0
M  V30 6041 H 587.664 -0.0414766 3.91278 0
M  V30 6042 H 587.287 -1.72441 3.5826 0
M  V30 6043 N 588.284 -1.56567 -0.180126 0
M  V30 6044 C 589.509 -1.85975 -0.918041 0
M  V30 6045 C 589.934 -0.678888 -1.75422 0
M  V30 6046 O 589.292 0.372168 -1.77439 0
M  V30 6047 C 589.34 -3.13731 -1.77779 0
M  V30 6048 O 588.444 -2.95335 -2.87838 0
M  V30 6049 H 587.785 -0.61196 -0.257683 0
M  V30 6050 H 590.315 -2.03798 -0.180923 0
M  V30 6051 H 590.325 -3.4491 -2.17948 0
M  V30 6052 H 589 -3.99293 -1.16352 0
M  V30 6053 H 587.577 -2.7549 -2.51316 0
M  V30 6054 N 589.762 0.448376 -1.51087 0
M  V30 6055 C 591.039 1.20926 -1.53741 0
M  V30 6056 C 591.419 2.09025 -0.295222 0
M  V30 6057 O 590.767 2.16851 0.720283 0
M  V30 6058 C 590.977 2.02067 -2.84552 0
M  V30 6059 C 592.325 2.59486 -3.36084 0
M  V30 6060 O 593.349 2.12289 -2.86028 0
M  V30 6061 O 592.208 3.45539 -4.23397 0
M  V30 6062 H 589.302 0.549951 -0.617643 0
M  V30 6063 H 591.848 0.458344 -1.63393 0
M  V30 6064 H 590.62 1.37291 -3.66425 0
M  V30 6065 H 590.243 2.84246 -2.78011 0
M  V30 6066 N 591.24 1.41047 0.703093 0
M  V30 6067 C 592.488 1.39723 1.4602 0
M  V30 6068 C 592.809 0.00461257 1.94999 0
M  V30 6069 O 592.079 -0.952292 1.71196 0
M  V30 6070 H 590.659 0.514281 0.541779 0
M  V30 6071 H 593.321 1.76217 0.832678 0
M  V30 6072 H 592.417 2.07982 2.32701 0
M  V30 6073 N 592.718 -0.936591 1.26751 0
M  V30 6074 C 593.943 -1.72288 1.15462 0
M  V30 6075 C 594.368 -1.85915 -0.285887 0
M  V30 6076 O 593.726 -1.35272 -1.20711 0
M  V30 6077 C 593.774 -3.10503 1.83359 0
M  V30 6078 O 592.878 -3.96745 1.1255 0
M  V30 6079 H 592.219 -0.52843 0.402067 0
M  V30 6080 H 594.749 -1.17271 1.67656 0
M  V30 6081 H 594.759 -3.60867 1.90365 0
M  V30 6082 H 593.434 -2.99901 2.88153 0
M  V30 6083 H 592.011 -3.55191 1.13551 0
M  V30 6084 N 594.196 -1.08629 -1.14182 0
M  V30 6085 C 595.443 -0.817345 -1.85272 0
M  V30 6086 C 595.771 0.656917 -1.83071 0
M  V30 6087 O 595.026 1.49897 -1.25815 0
M  V30 6088 C 595.325 -1.28734 -3.3341 0
M  V30 6089 C 594.991 -2.76981 -3.55798 0
M  V30 6090 C 593.653 -3.17469 -3.61617 0
M  V30 6091 C 596.005 -3.72605 -3.64438 0
M  V30 6092 C 593.333 -4.52371 -3.736 0
M  V30 6093 C 595.685 -5.07286 -3.77947 0
M  V30 6094 C 594.349 -5.47376 -3.82016 0
M  V30 6095 H 593.619 -0.299088 -0.677958 0
M  V30 6096 H 596.266 -1.35962 -1.34857 0
M  V30 6097 H 594.571 -0.664702 -3.8612 0
M  V30 6098 H 596.268 -1.05598 -3.86846 0
M  V30 6099 H 592.858 -2.44644 -3.51919 0
M  V30 6100 H 597.042 -3.42443 -3.5923 0
M  V30 6101 H 592.298 -4.82882 -3.75013 0
M  V30 6102 H 596.472 -5.81243 -3.83575 0
M  V30 6103 H 594.099 -6.51906 -3.91054 0
M  V30 6104 N 595.674 1.31259 -0.872281 0
M  V30 6105 C 596.921 1.96622 -0.484365 0
M  V30 6106 C 597.249 1.68939 0.963841 0
M  V30 6107 O 596.504 0.97974 1.6941 0
M  V30 6108 C 596.803 3.50659 -0.690889 0
M  V30 6109 C 596.469 3.98366 -2.11224 0
M  V30 6110 C 595.131 4.11104 -2.50094 0
M  V30 6111 C 597.483 4.23425 -3.0391 0
M  V30 6112 C 594.811 4.46254 -3.80887 0
M  V30 6113 C 597.163 4.60039 -4.3422 0
M  V30 6114 C 595.827 4.70984 -4.73001 0
M  V30 6115 H 595.097 0.71949 -0.177242 0
M  V30 6116 H 597.744 1.56353 -1.10571 0
M  V30 6117 H 596.049 3.91798 0.0135782 0
M  V30 6118 H 597.746 3.99284 -0.370534 0
M  V30 6119 H 594.336 3.88949 -1.80047 0
M  V30 6120 H 598.52 4.13075 -2.75104 0
M  V30 6121 H 593.776 4.52926 -4.10692 0
M  V30 6122 H 597.95 4.78381 -5.06088 0
M  V30 6123 H 595.577 4.97977 -5.7439 0
M  V30 6124 N 597.152 0.631951 1.44375 0
M  V30 6125 C 598.082 -0.0593243 2.33425 0
M  V30 6126 C 599.063 -0.833964 1.48253 0
M  V30 6127 O 600.248 -0.799682 1.76971 0
M  V30 6128 C 597.378 -1.04096 3.31333 0
M  V30 6129 C 596.332 -0.377899 4.26328 0
M  V30 6130 C 595.658 -1.4695 5.14111 0
M  V30 6131 C 596.958 0.716371 5.17364 0
M  V30 6132 H 598.652 0.684287 2.91475 0
M  V30 6133 H 596.198 0.330518 1.40156 0
M  V30 6134 H 598.151 -1.53331 3.92514 0
M  V30 6135 H 596.875 -1.81547 2.71493 0
M  V30 6136 H 595.534 0.0938054 3.6648 0
M  V30 6137 H 595.182 -2.2349 4.50623 0
M  V30 6138 H 594.882 -1.03121 5.78481 0
M  V30 6139 H 596.406 -1.96363 5.78164 0
M  V30 6140 H 597.82 0.307089 5.72477 0
M  V30 6141 H 596.217 1.07784 5.90341 0
M  V30 6142 H 597.287 1.58316 4.58327 0
M  V30 6143 N 598.631 -1.53133 0.372548 0
M  V30 6144 C 599.861 -2.05476 -0.215202 0
M  V30 6145 C 600.269 -1.24534 -1.42436 0
M  V30 6146 O 599.612 -0.280771 -1.81542 0
M  V30 6147 C 599.674 -3.53276 -0.666068 0
M  V30 6148 C 599.338 -4.54998 0.427342 0
M  V30 6149 C 600.335 -5.03911 1.27944 0
M  V30 6150 C 598.02 -4.98828 0.589579 0
M  V30 6151 C 600.014 -5.95263 2.27905 0
M  V30 6152 C 597.701 -5.89984 1.59255 0
M  V30 6153 C 598.699 -6.38093 2.43571 0
M  V30 6154 O 598.387 -7.27451 3.42156 0
M  V30 6155 H 598.119 -0.67481 -0.040099 0
M  V30 6156 H 600.673 -1.98409 0.531312 0
M  V30 6157 H 598.903 -3.57904 -1.4643 0
M  V30 6158 H 600.592 -3.88442 -1.1776 0
M  V30 6159 H 601.358 -4.70792 1.16532 0
M  V30 6160 H 597.237 -4.60965 -0.0569456 0
M  V30 6161 H 600.781 -6.32736 2.93753 0
M  V30 6162 H 596.678 -6.22518 1.70711 0
M  V30 6163 H 597.446 -7.45467 3.37967 0
M  V30 6164 N 600.109 -0.101901 -1.5727 0
M  V30 6165 C 601.334 0.571759 -1.99363 0
M  V30 6166 C 601.759 1.60507 -0.980768 0
M  V30 6167 O 601.117 1.81231 0.0498517 0
M  V30 6168 C 601.165 1.18996 -3.404 0
M  V30 6169 O 600.269 2.30572 -3.41922 0
M  V30 6170 H 599.61 0.144449 -0.648098 0
M  V30 6171 H 602.14 -0.185325 -2.03759 0
M  V30 6172 H 602.15 1.52962 -3.78241 0
M  V30 6173 H 600.825 0.432984 -4.1364 0
M  V30 6174 H 599.402 1.98173 -3.15883 0
M  V30 6175 N 601.587 1.56661 0.17182 0
M  V30 6176 C 603.003 1.50768 0.52357 0
M  V30 6177 C 603.203 0.806072 1.84675 0
M  V30 6178 O 602.259 0.366233 2.4983 0
M  V30 6179 C 603.572 2.955 0.556793 0
M  V30 6180 C 605.12 3.06303 0.644029 0
M  V30 6181 C 605.595 4.52492 0.708148 0
M  V30 6182 N 607.086 4.56737 0.771051 0
M  V30 6183 C 607.821 5.67196 0.841229 0
M  V30 6184 N 607.317 6.87287 0.872272 0
M  V30 6185 N 609.11 5.55165 0.88021 0
M  V30 6186 H 601.261 2.00679 -0.695817 0
M  V30 6187 H 603.524 0.914219 -0.250814 0
M  V30 6188 H 603.23 3.49986 -0.346774 0
M  V30 6189 H 603.104 3.50119 1.40346 0
M  V30 6190 H 605.491 2.51851 1.53802 0
M  V30 6191 H 605.572 2.5477 -0.229297 0
M  V30 6192 H 605.216 5.07575 -0.181585 0
M  V30 6193 H 605.146 5.01781 1.59761 0
M  V30 6194 H 607.637 3.70274 0.755364 0
M  V30 6195 H 607.95 7.6722 0.92698 0
M  V30 6196 H 606.295 6.89898 0.840557 0
M  V30 6197 H 609.486 4.60263 0.852956 0
M  V30 6198 H 609.659 6.41271 0.931439 0
M  V30 6199 N 603.065 -0.440357 1.51323 0
M  V30 6200 C 603.995 -1.54174 1.75364 0
M  V30 6201 C 604.976 -1.59039 0.603375 0
M  V30 6202 O 606.161 -1.74815 0.845774 0
M  V30 6203 C 603.291 -2.92277 1.87593 0
M  V30 6204 C 602.245 -3.02274 3.03009 0
M  V30 6205 C 601.571 -4.42327 3.00418 0
M  V30 6206 C 602.871 -2.76634 4.43024 0
M  V30 6207 H 604.565 -1.34307 2.67585 0
M  V30 6208 H 602.111 -0.644678 1.28763 0
M  V30 6209 H 604.064 -3.69284 2.02995 0
M  V30 6210 H 602.788 -3.13369 0.920179 0
M  V30 6211 H 601.447 -2.27706 2.87307 0
M  V30 6212 H 601.095 -4.60382 2.02626 0
M  V30 6213 H 600.795 -4.49946 3.77918 0
M  V30 6214 H 602.319 -5.21312 3.17909 0
M  V30 6215 H 603.733 -3.43376 4.59093 0
M  V30 6216 H 602.13 -2.95666 5.22208 0
M  V30 6217 H 603.2 -1.72262 4.5327 0
M  V30 6218 N 604.543 -1.41418 -0.695603 0
M  V30 6219 C 605.771 -1.4413 -1.48439 0
M  V30 6220 C 606.186 -0.0465698 -1.88743 0
M  V30 6221 O 605.543 0.934117 -1.56782 0
M  V30 6222 C 605.594 -2.34998 -2.74696 0
M  V30 6223 O 605.315 -3.69043 -2.36091 0
M  V30 6224 C 606.816 -2.46513 -3.68438 0
M  V30 6225 H 604.036 -0.490905 -0.457442 0
M  V30 6226 H 606.58 -1.85702 -0.856454 0
M  V30 6227 H 604.735 -1.96735 -3.33728 0
M  V30 6228 H 605.149 -4.17505 -3.17474 0
M  V30 6229 H 606.623 -3.1426 -4.53811 0
M  V30 6230 H 607.1 -1.49638 -4.12922 0
M  V30 6231 H 607.706 -2.85412 -3.1531 0
M  V30 6232 N 606.021 0.929856 -1.27246 0
M  V30 6233 C 607.267 1.6798 -1.13625 0
M  V30 6234 C 607.6 1.91586 0.317589 0
M  V30 6235 O 606.875 1.50467 1.23247 0
M  V30 6236 C 607.158 3.04766 -1.91806 0
M  V30 6237 C 607.011 2.88415 -3.45162 0
M  V30 6238 C 608.33 4.05063 -1.72082 0
M  V30 6239 H 605.449 0.609632 -0.414147 0
M  V30 6240 H 608.091 1.0792 -1.56376 0
M  V30 6241 H 606.241 3.56034 -1.55474 0
M  V30 6242 H 607.913 2.44282 -3.91311 0
M  V30 6243 H 606.156 2.23802 -3.71611 0
M  V30 6244 H 606.827 3.85482 -3.95105 0
M  V30 6245 H 609.303 3.62798 -2.03757 0
M  V30 6246 H 608.179 4.98765 -2.29182 0
M  V30 6247 H 608.44 4.37021 -0.668206 0
M  V30 6248 N 607.499 1.09233 1.13605 0
M  V30 6249 C 608.776 0.739633 1.81077 0
M  V30 6250 C 609.156 -0.775595 1.96336 0
M  V30 6251 O 608.504 -1.69726 1.52988 0
M  V30 6252 C 608.714 1.47636 3.16235 0
M  V30 6253 C 610.062 1.64087 3.91613 0
M  V30 6254 O 611.086 1.43871 3.25852 0
M  V30 6255 O 609.945 1.97511 5.0956 0
M  V30 6256 H 607.039 0.265464 0.783236 0
M  V30 6257 H 609.585 1.19441 1.20549 0
M  V30 6258 H 608.357 2.50818 3.00344 0
M  V30 6259 H 607.98 1.01362 3.84462 0
M  V30 6260 N 608.977 -1.30795 0.87923 0
M  V30 6261 C 609.924 -2.28282 0.339968 0
M  V30 6262 C 610.894 -1.56134 -0.566685 0
M  V30 6263 O 612.079 -1.84231 -0.496338 0
M  V30 6264 C 609.219 -3.42225 -0.444501 0
M  V30 6265 C 608.332 -4.29204 0.490717 0
M  V30 6266 C 607.467 -5.30302 -0.308784 0
M  V30 6267 C 606.506 -6.08929 0.622272 0
M  V30 6268 N 605.643 -7.01957 -0.14155 0
M  V30 6269 H 610.483 -2.73794 1.17647 0
M  V30 6270 H 608.02 -1.34682 0.591527 0
M  V30 6271 H 609.978 -4.07038 -0.915186 0
M  V30 6272 H 608.608 -2.97799 -1.24562 0
M  V30 6273 H 607.66 -3.6475 1.07988 0
M  V30 6274 H 608.972 -4.84045 1.20425 0
M  V30 6275 H 608.126 -6.00835 -0.841575 0
M  V30 6276 H 606.865 -4.7614 -1.05556 0
M  V30 6277 H 605.87 -5.37278 1.16674 0
M  V30 6278 H 607.095 -6.65178 1.36804 0
M  V30 6279 H 605.041 -6.50192 -0.870966 0
M  V30 6280 H 604.958 -7.54261 0.51246 0
M  V30 6281 H 606.226 -7.76741 -0.655271 0
M  V30 6282 N 610.455 -0.639598 -1.44038 0
M  V30 6283 C 611.68 -0.153117 -2.06834 0
M  V30 6284 C 612.105 1.16676 -1.47541 0
M  V30 6285 O 611.463 1.71769 -0.580093 0
M  V30 6286 C 611.511 -0.0609169 -3.60549 0
M  V30 6287 O 610.615 0.98071 -4.00569 0
M  V30 6288 H 609.956 -0.0886402 -0.658057 0
M  V30 6289 H 612.486 -0.878674 -1.84771 0
M  V30 6290 H 612.496 0.126892 -4.07803 0
M  V30 6291 H 611.171 -1.0245 -4.03084 0
M  V30 6292 H 609.748 0.766789 -3.64931 0
M  V30 6293 N 611.933 1.52934 -0.380664 0
M  V30 6294 C 613.349 1.59571 -0.0302429 0
M  V30 6295 C 613.549 1.39509 1.45394 0
M  V30 6296 O 612.605 1.20777 2.21741 0
M  V30 6297 C 613.918 2.96519 -0.499691 0
M  V30 6298 C 615.466 3.09672 -0.455204 0
M  V30 6299 C 615.941 4.49056 -0.900703 0
M  V30 6300 N 617.432 4.55215 -0.856367 0
M  V30 6301 C 618.167 5.61282 -1.17259 0
M  V30 6302 N 617.663 6.75035 -1.55885 0
M  V30 6303 N 619.456 5.51343 -1.0944 0
M  V30 6304 H 611.607 1.64224 -1.347 0
M  V30 6305 H 613.87 0.771033 -0.551554 0
M  V30 6306 H 613.576 3.16388 -1.53595 0
M  V30 6307 H 613.45 3.77052 0.105789 0
M  V30 6308 H 615.837 2.89504 0.571949 0
M  V30 6309 H 615.918 2.31113 -1.09638 0
M  V30 6310 H 615.562 4.69964 -1.92604 0
M  V30 6311 H 615.492 5.26068 -0.236629 0
M  V30 6312 H 617.983 3.73546 -0.572013 0
M  V30 6313 H 618.296 7.51926 -1.784 0
M  V30 6314 H 616.641 6.76388 -1.59764 0
M  V30 6315 H 619.832 4.61356 -0.791713 0
M  V30 6316 H 620.005 6.33905 -1.34417 0
M  V30 6317 N 613.412 0.11024 1.57214 0
M  V30 6318 C 614.658 -0.544479 1.95977 0
M  V30 6319 C 615.013 -1.64845 0.992171 0
M  V30 6320 O 614.306 -1.91589 0.0206981 0
M  V30 6321 C 614.5 -1.13102 3.39032 0
M  V30 6322 C 614.329 -0.0854079 4.49619 0
M  V30 6323 C 613.099 0.343373 5.04132 0
M  V30 6324 C 615.297 0.692232 5.0962 0
M  V30 6325 N 613.279 1.37567 5.98288 0
M  V30 6326 C 614.65 1.57596 5.99636 0
M  V30 6327 C 616.705 0.744085 4.92309 0
M  V30 6328 C 615.408 2.50701 6.74197 0
M  V30 6329 C 617.434 1.6628 5.67543 0
M  V30 6330 C 616.796 2.53412 6.57238 0
M  V30 6331 H 612.895 -0.169124 0.763493 0
M  V30 6332 H 615.479 0.196326 1.93708 0
M  V30 6333 H 613.65 -1.84158 3.41965 0
M  V30 6334 H 615.382 -1.74934 3.64939 0
M  V30 6335 H 612.137 -0.0473277 4.73576 0
M  V30 6336 H 612.561 1.89048 6.50069 0
M  V30 6337 H 617.203 0.0845825 4.22715 0
M  V30 6338 H 614.921 3.17669 7.43043 0
M  V30 6339 H 618.507 1.70825 5.56156 0
M  V30 6340 H 617.387 3.23347 7.14434 0
M  V30 6341 N 614.89 -1.56749 -0.16351 0
M  V30 6342 C 615.822 -1.93587 -1.22705 0
M  V30 6343 C 616.835 -0.829824 -1.40063 0
M  V30 6344 O 618.024 -1.10826 -1.39928 0
M  V30 6345 C 615.124 -2.1803 -2.59454 0
M  V30 6346 C 614.297 -3.4928 -2.63292 0
M  V30 6347 C 613.356 -3.62457 -3.8146 0
M  V30 6348 O 612.382 -4.35004 -3.67096 0
M  V30 6349 N 613.584 -2.97888 -4.9824 0
M  V30 6350 H 616.349 -2.8542 -0.914081 0
M  V30 6351 H 613.91 -1.58 -0.353214 0
M  V30 6352 H 615.902 -2.24102 -3.36987 0
M  V30 6353 H 614.472 -1.32543 -2.8311 0
M  V30 6354 H 613.692 -3.54795 -1.71796 0
M  V30 6355 H 614.98 -4.35632 -2.62873 0
M  V30 6356 H 614.378 -2.38833 -5.12811 0
M  V30 6357 H 612.935 -3.09545 -5.73607 0
M  V30 6358 N 616.368 0.432326 -1.51554 0
M  V30 6359 C 617.278 1.55023 -1.76082 0
M  V30 6360 C 618.294 1.61593 -0.645265 0
M  V30 6361 O 619.47 1.78742 -0.928086 0
M  V30 6362 C 616.535 2.90964 -1.88523 0
M  V30 6363 C 615.596 2.9447 -3.12388 0
M  V30 6364 C 614.829 4.23926 -3.24225 0
M  V30 6365 O 615.052 5.16576 -2.4188 0
M  V30 6366 O 613.986 4.33818 -4.17235 0
M  V30 6367 H 617.812 1.37238 -2.70923 0
M  V30 6368 H 615.397 0.615845 -1.36117 0
M  V30 6369 H 617.279 3.71633 -1.98662 0
M  V30 6370 H 615.954 3.08865 -0.9687 0
M  V30 6371 H 614.861 2.12737 -3.07723 0
M  V30 6372 H 616.194 2.81514 -4.03746 0
M  V30 6373 N 617.846 1.41785 0.688094 0
M  V30 6374 C 619.094 1.41264 1.4453 0
M  V30 6375 C 619.415 0.0252946 1.94984 0
M  V30 6376 O 618.685 -0.934081 1.72197 0
M  V30 6377 H 617.265 0.519998 0.536294 0
M  V30 6378 H 619.927 1.7709 0.813941 0
M  V30 6379 H 619.023 2.10439 2.30482 0
M  V30 6380 N 619.324 -0.923095 1.27737 0
M  V30 6381 C 620.272 -2.04567 1.10703 0
M  V30 6382 C 621.266 -1.69375 0.0288445 0
M  V30 6383 O 622.472 -1.79027 0.186913 0
M  V30 6384 H 618.847 -0.670109 0.34126 0
M  V30 6385 H 620.818 -2.1608 2.05796 0
M  V30 6386 C 619.567 -3.38934 0.775837 0
M  V30 6387 H 618.89 -3.66501 1.59741 0
M  V30 6388 H 620.33 -4.18239 0.696548 0
M  V30 6389 C 618.789 -3.32863 -0.520012 0
M  V30 6390 O 619.319 -3.70462 -1.55308 0
M  V30 6391 N 617.525 -2.85958 -0.51732 0
M  V30 6392 H 617.072 -2.55557 0.32379 0
M  V30 6393 H 617.03 -2.82279 -1.38441 0
M  V30 6394 N 620.802 -1.09834 -1.13024 0
M  V30 6395 C 622.048 -0.83819 -1.84668 0
M  V30 6396 C 622.381 0.634645 -1.83537 0
M  V30 6397 O 621.656 1.46753 -1.27647 0
M  V30 6398 C 621.939 -1.37933 -3.32636 0
M  V30 6399 C 621.792 -2.91857 -3.42257 0
M  V30 6400 C 623.111 -1.01654 -4.28199 0
M  V30 6401 H 620.23 -0.30595 -0.670495 0
M  V30 6402 H 622.872 -1.36044 -1.32635 0
M  V30 6403 H 621.022 -0.935111 -3.77078 0
M  V30 6404 H 622.694 -3.44759 -3.06495 0
M  V30 6405 H 620.937 -3.28776 -2.83 0
M  V30 6406 H 621.608 -3.24799 -4.46329 0
M  V30 6407 H 624.084 -1.39973 -3.9185 0
M  V30 6408 H 622.96 -1.42217 -5.30156 0
M  V30 6409 H 623.221 0.0747794 -4.42037 0
M  V30 6410 N 622.28 1.30327 -0.886154 0
M  V30 6411 C 623.527 1.96097 -0.505192 0
M  V30 6412 C 623.855 1.69952 0.945868 0
M  V30 6413 O 623.11 0.997653 1.68361 0
M  V30 6414 C 623.409 3.49906 -0.728042 0
M  V30 6415 C 623.075 3.96103 -2.15437 0
M  V30 6416 C 621.737 4.08428 -2.5444 0
M  V30 6417 C 624.089 4.20177 -3.08384 0
M  V30 6418 C 621.417 4.42189 -3.85598 0
M  V30 6419 C 623.769 4.55407 -4.39075 0
M  V30 6420 C 622.433 4.65941 -4.7797 0
M  V30 6421 H 621.703 0.71757 -0.184863 0
M  V30 6422 H 624.35 1.55171 -1.12223 0
M  V30 6423 H 622.655 3.9179 -0.027978 0
M  V30 6424 H 624.352 3.98869 -0.412862 0
M  V30 6425 H 620.942 3.87017 -1.84162 0
M  V30 6426 H 625.126 4.10134 -2.7947 0
M  V30 6427 H 620.382 4.48544 -4.15473 0
M  V30 6428 H 624.556 4.72986 -5.11133 0
M  V30 6429 H 622.183 4.91856 -5.79639 0
M  V30 6430 N 623.758 0.647228 1.43697 0
M  V30 6431 C 624.983 0.164083 2.0675 0
M  V30 6432 C 625.408 -1.15892 1.48158 0
M  V30 6433 O 624.766 -1.71459 0.589194 0
M  V30 6434 C 624.814 0.0800368 3.60511 0
M  V30 6435 O 623.918 -0.959453 4.01084 0
M  V30 6436 H 623.259 0.0921288 0.657578 0
M  V30 6437 H 625.789 0.88846 1.84303 0
M  V30 6438 H 625.799 -0.105263 4.07864 0
M  V30 6439 H 624.474 1.04586 4.02535 0
M  V30 6440 H 623.051 -0.747425 3.65333 0
M  V30 6441 N 625.236 -1.5273 0.388769 0
M  V30 6442 C 626.476 -2.03483 -0.193372 0
M  V30 6443 C 626.84 -1.26897 -1.44087 0
M  V30 6444 O 628.041 -1.67773 -2.10014 0
M  V30 6445 C 626.312 -3.54488 -0.455325 0
M  V30 6446 S 627.871 -4.27069 -1.00783 0
M  V30 6447 H 624.689 -0.708907 -0.0545131 0
M  V30 6448 H 627.291 -1.8798 0.536993 0
M  V30 6449 H 625.995 -4.07817 0.459722 0
M  V30 6450 H 625.526 -3.74196 -1.21413 0
M  V30 6451 H 627.541 -4.40185 -2.29023 0
M  V30 6452 N 626.714 -0.118576 -1.57153 0
M  V30 6453 C 627.939 0.550582 -1.99958 0
M  V30 6454 C 628.364 1.59458 -0.997736 0
M  V30 6455 O 627.722 1.81274 0.0306269 0
M  V30 6456 C 627.77 1.15379 -3.41643 0
M  V30 6457 O 626.874 2.26932 -3.44348 0
M  V30 6458 H 626.215 0.137567 -0.649593 0
M  V30 6459 H 628.745 -0.206926 -2.03551 0
M  V30 6460 H 628.755 1.48942 -3.79843 0
M  V30 6461 H 627.43 0.389087 -4.14076 0
M  V30 6462 H 626.007 1.94812 -3.17967 0
M  V30 6463 N 628.193 1.56834 0.155195 0
M  V30 6464 C 629.439 1.83169 0.870467 0
M  V30 6465 C 629.772 0.698929 1.81187 0
M  V30 6466 O 629.047 -0.298035 1.92203 0
M  V30 6467 C 629.33 3.19965 1.65211 0
M  V30 6468 C 629.183 4.43792 0.732744 0
M  V30 6469 C 630.502 3.53885 2.61636 0
M  V30 6470 H 627.621 0.666288 0.315006 0
M  V30 6471 H 630.263 1.89513 0.135988 0
M  V30 6472 H 628.413 3.14687 2.27825 0
M  V30 6473 H 630.085 4.61148 0.118236 0
M  V30 6474 H 628.328 4.3378 0.0417906 0
M  V30 6475 H 628.999 5.36095 1.31552 0
M  V30 6476 H 631.475 3.5972 2.09143 0
M  V30 6477 H 630.351 4.50648 3.13381 0
M  V30 6478 H 630.612 2.79418 3.42605 0
M  V30 6479 N 629.671 -0.424282 1.51781 0
M  V30 6480 C 630.604 -1.53633 1.68737 0
M  V30 6481 C 631.582 -1.53549 0.534915 0
M  V30 6482 O 632.766 -1.72483 0.760391 0
M  V30 6483 C 629.893 -2.92195 1.71288 0
M  V30 6484 C 628.939 -3.10251 2.92654 0
M  V30 6485 S 629.772 -2.85166 4.53256 0
M  V30 6486 C 630.928 -4.25986 4.58571 0
M  V30 6487 H 631.161 -1.39018 2.62795 0
M  V30 6488 H 628.694 -0.614854 1.41629 0
M  V30 6489 H 630.652 -3.72059 1.73443 0
M  V30 6490 H 629.313 -3.04162 0.783847 0
M  V30 6491 H 628.506 -4.1159 2.90877 0
M  V30 6492 H 628.108 -2.38231 2.88308 0
M  V30 6493 H 630.4 -5.19392 4.35015 0
M  V30 6494 H 631.343 -4.32792 5.60444 0
M  V30 6495 H 631.751 -4.1025 3.87757 0
M  V30 6496 N 631.149 -1.42148 -0.680565 0
M  V30 6497 C 632.099 -1.41634 -1.78672 0
M  V30 6498 C 633.083 -0.288494 -1.58293 0
M  V30 6499 O 634.275 -0.530295 -1.68869 0
M  V30 6500 C 631.404 -1.31558 -3.17092 0
M  V30 6501 C 630.49 -2.49265 -3.43115 0
M  V30 6502 N 630.881 -3.74702 -3.39753 0
M  V30 6503 C 629.179 -2.43401 -3.73727 0
M  V30 6504 C 629.88 -4.52854 -3.651 0
M  V30 6505 N 628.856 -3.83181 -3.85582 0
M  V30 6506 H 632.658 -2.3652 -1.74458 0
M  V30 6507 H 630.172 -1.36415 -0.881171 0
M  V30 6508 H 632.169 -1.29272 -3.96351 0
M  V30 6509 H 630.829 -0.376696 -3.22508 0
M  V30 6510 H 631.84 -4.07378 -3.19787 0
M  V30 6511 H 628.517 -1.58062 -3.86423 0
M  V30 6512 H 629.907 -5.61827 -3.6851 0
M  V30 6513 N 632.627 0.916307 -1.28225 0
M  V30 6514 C 633.537 2.05165 -1.13775 0
M  V30 6515 C 634.553 1.73879 -0.0649418 0
M  V30 6516 O 635.729 1.99531 -0.273722 0
M  V30 6517 C 632.794 3.37385 -0.798267 0
M  V30 6518 C 631.855 3.82296 -1.95316 0
M  V30 6519 C 631.088 5.08206 -1.62978 0
M  V30 6520 O 631.311 5.6781 -0.542948 0
M  V30 6521 O 630.245 5.48768 -2.47261 0
M  V30 6522 H 634.071 2.20273 -2.09078 0
M  V30 6523 H 631.656 1.0373 -1.07519 0
M  V30 6524 H 633.538 4.16773 -0.62278 0
M  V30 6525 H 632.213 3.23458 0.125139 0
M  V30 6526 H 631.12 3.03746 -2.18378 0
M  V30 6527 H 632.453 4.00782 -2.85718 0
M  V30 6528 N 634.105 1.10431 1.1244 0
M  V30 6529 C 635.068 0.756542 2.16354 0
M  V30 6530 C 636.068 -0.21899 1.59302 0
M  V30 6531 O 637.258 0.00415969 1.742 0
M  V30 6532 C 634.39 0.120612 3.40687 0
M  V30 6533 H 635.583 1.67696 2.48632 0
M  V30 6534 H 633.136 0.904832 1.27446 0
M  V30 6535 H 633.871 -0.810536 3.14008 0
M  V30 6536 H 633.656 0.822693 3.83372 0
M  V30 6537 H 635.146 -0.106945 4.17463 0
M  V30 6538 N 635.583 -1.29855 0.893053 0
M  V30 6539 C 636.513 -2.3035 0.382249 0
M  V30 6540 C 637.494 -1.61328 -0.539203 0
M  V30 6541 O 638.679 -1.88882 -0.451342 0
M  V30 6542 C 635.809 -3.45024 -0.396983 0
M  V30 6543 C 634.763 -4.258 0.433437 0
M  V30 6544 C 634.089 -5.32605 -0.472889 0
M  V30 6545 C 635.389 -4.94549 1.67984 0
M  V30 6546 H 637.083 -2.73325 1.22205 0
M  V30 6547 H 634.629 -1.314 0.589073 0
M  V30 6548 H 636.582 -4.14398 -0.765024 0
M  V30 6549 H 635.306 -3.00875 -1.2705 0
M  V30 6550 H 633.965 -3.58125 0.783723 0
M  V30 6551 H 633.613 -4.84702 -1.34435 0
M  V30 6552 H 633.313 -5.87547 0.0789958 0
M  V30 6553 H 634.837 -6.04832 -0.837269 0
M  V30 6554 H 636.251 -5.56395 1.38192 0
M  V30 6555 H 634.648 -5.59393 2.17254 0
M  V30 6556 H 635.718 -4.20215 2.41965 0
M  V30 6557 N 637.061 -0.65484 -1.43351 0
M  V30 6558 C 638.011 0.0581325 -2.27926 0
M  V30 6559 C 638.995 0.793188 -1.3999 0
M  V30 6560 O 640.187 0.675387 -1.63608 0
M  V30 6561 C 637.316 1.02272 -3.27712 0
M  V30 6562 C 636.402 0.286048 -4.23134 0
M  V30 6563 N 636.793 -0.698298 -5.00957 0
M  V30 6564 C 635.091 0.527272 -4.42872 0
M  V30 6565 C 635.792 -1.1357 -5.70506 0
M  V30 6566 N 634.768 -0.469631 -5.41568 0
M  V30 6567 H 638.57 -0.697182 -2.85511 0
M  V30 6568 H 636.084 -0.482252 -1.55074 0
M  V30 6569 H 638.081 1.5483 -3.87083 0
M  V30 6570 H 636.741 1.77807 -2.71688 0
M  V30 6571 H 637.752 -1.07708 -5.06576 0
M  V30 6572 H 634.429 1.26367 -3.97916 0
M  V30 6573 H 635.819 -1.95027 -6.42973 0
M  V30 6574 N 638.539 1.52521 -0.396863 0
M  V30 6575 C 639.487 2.28217 0.44943 0
M  V30 6576 C 640.481 1.32416 1.05652 0
M  V30 6577 O 641.687 1.49925 0.996124 0
M  V30 6578 H 638.062 0.733966 0.1637 0
M  V30 6579 H 640.033 2.97658 -0.210367 0
M  V30 6580 C 638.782 3.10713 1.56054 0
M  V30 6581 H 638.105 3.84291 1.10273 0
M  V30 6582 H 639.545 3.66803 2.12677 0
M  V30 6583 C 638.004 2.23499 2.52091 0
M  V30 6584 O 638.534 1.8669 3.55682 0
M  V30 6585 N 636.74 1.8751 2.2201 0
M  V30 6586 H 636.287 2.17643 1.37802 0
M  V30 6587 H 636.245 1.29448 2.86514 0
M  V30 6588 N 640.017 0.126909 1.57088 0
M  V30 6589 C 640.967 -0.831678 2.1229 0
M  V30 6590 C 641.951 -1.22292 1.04564 0
M  V30 6591 O 643.143 -1.19269 1.30782 0
M  V30 6592 C 640.272 -2.07866 2.73215 0
M  V30 6593 C 639.358 -1.71143 3.88035 0
M  V30 6594 N 639.749 -1.05136 4.94753 0
M  V30 6595 C 638.047 -2.00549 3.98367 0
M  V30 6596 C 638.748 -0.877257 5.75047 0
M  V30 6597 N 637.724 -1.40477 5.25135 0
M  V30 6598 H 641.526 -0.317926 2.92175 0
M  V30 6599 H 639.04 -0.0753052 1.62225 0
M  V30 6600 H 641.037 -2.77516 3.11111 0
M  V30 6601 H 639.697 -2.59778 1.94796 0
M  V30 6602 H 640.708 -0.71442 5.12949 0
M  V30 6603 H 637.385 -2.54452 3.30999 0
M  V30 6604 H 638.775 -0.358536 6.70943 0
M  V30 6605 N 641.495 -1.56914 -0.146875 0
M  V30 6606 C 642.725 -1.87243 -0.873126 0
M  V30 6607 C 643.133 -0.713127 -1.75246 0
M  V30 6608 O 642.476 0.326228 -1.8078 0
M  V30 6609 C 642.538 -3.12279 -1.78107 0
M  V30 6610 C 642.202 -4.44082 -1.07889 0
M  V30 6611 C 643.199 -5.18096 -0.432734 0
M  V30 6612 C 640.884 -4.90807 -1.06836 0
M  V30 6613 C 642.878 -6.37039 0.214569 0
M  V30 6614 C 640.565 -6.09674 -0.417243 0
M  V30 6615 C 641.563 -6.82636 0.223093 0
M  V30 6616 O 641.251 -7.99245 0.863884 0
M  V30 6617 H 640.983 -0.624896 -0.257839 0
M  V30 6618 H 643.537 -2.04892 -0.14434 0
M  V30 6619 H 641.767 -2.90639 -2.5508 0
M  V30 6620 H 643.456 -3.28854 -2.37929 0
M  V30 6621 H 644.222 -4.83066 -0.432677 0
M  V30 6622 H 640.101 -4.3394 -1.55618 0
M  V30 6623 H 643.645 -6.93927 0.714965 0
M  V30 6624 H 639.542 -6.44165 -0.414967 0
M  V30 6625 H 640.31 -8.14912 0.765564 0
M  V30 6626 N 642.974 0.416227 -1.52004 0
M  V30 6627 C 644.202 1.18573 -1.69553 0
M  V30 6628 C 644.617 1.84472 -0.401919 0
M  V30 6629 O 643.974 1.71593 0.621463 0
M  V30 6630 C 644.025 2.25413 -2.82615 0
M  V30 6631 O 643.746 1.62205 -4.06966 0
M  V30 6632 C 645.247 3.15297 -3.11613 0
M  V30 6633 H 642.467 0.356582 -0.56841 0
M  V30 6634 H 645.011 0.490618 -1.98528 0
M  V30 6635 H 643.166 2.90604 -2.56179 0
M  V30 6636 H 643.58 2.3298 -4.69916 0
M  V30 6637 H 645.054 3.86351 -3.94255 0
M  V30 6638 H 645.531 3.77264 -2.24874 0
M  V30 6639 H 646.137 2.55783 -3.39787 0
M  V30 6640 N 644.452 1.42507 0.673017 0
M  V30 6641 C 645.384 1.42074 1.79854 0
M  V30 6642 C 646.397 0.319569 1.59633 0
M  V30 6643 O 647.586 0.582769 1.68719 0
M  V30 6644 C 644.686 1.19886 3.16987 0
M  V30 6645 C 643.859 2.42471 3.64042 0
M  V30 6646 C 642.918 2.15802 4.79913 0
M  V30 6647 O 641.944 2.89015 4.90366 0
M  V30 6648 N 643.146 1.16225 5.68746 0
M  V30 6649 H 645.911 2.3909 1.8071 0
M  V30 6650 H 643.472 1.37409 0.856171 0
M  V30 6651 H 645.464 0.999591 3.92161 0
M  V30 6652 H 644.034 0.313879 3.1102 0
M  V30 6653 H 643.254 2.77954 2.79526 0
M  V30 6654 H 644.542 3.24097 3.92223 0
M  V30 6655 H 643.94 0.556756 5.62954 0
M  V30 6656 H 642.497 1.02285 6.43724 0
M  V30 6657 N 645.93 -0.909495 1.28709 0
M  V30 6658 C 646.877 -2.01245 1.13 0
M  V30 6659 C 647.847 -1.6608 0.0259684 0
M  V30 6660 O 649.032 -1.89835 0.191687 0
M  V30 6661 C 646.172 -3.35644 0.802315 0
M  V30 6662 C 645.285 -3.83653 1.98582 0
M  V30 6663 C 644.42 -5.06582 1.59837 0
M  V30 6664 C 643.459 -5.46934 2.74827 0
M  V30 6665 N 642.596 -6.61053 2.36546 0
M  V30 6666 H 647.436 -2.14013 2.0737 0
M  V30 6667 H 644.973 -1.0482 1.03205 0
M  V30 6668 H 646.931 -4.12963 0.593057 0
M  V30 6669 H 645.561 -3.22631 -0.104457 0
M  V30 6670 H 644.613 -3.02454 2.30708 0
M  V30 6671 H 645.925 -4.09515 2.84779 0
M  V30 6672 H 645.079 -5.91457 1.35143 0
M  V30 6673 H 643.818 -4.82537 0.707753 0
M  V30 6674 H 642.823 -4.60599 3.00215 0
M  V30 6675 H 644.048 -5.72965 3.64538 0
M  V30 6676 H 641.994 -6.3863 1.49959 0
M  V30 6677 H 641.911 -6.86662 3.16277 0
M  V30 6678 H 643.179 -7.49221 2.15146 0
M  V30 6679 N 647.408 -1.11026 -1.11852 0
M  V30 6680 C 648.633 -0.879064 -1.87849 0
M  V30 6681 C 649.058 0.565406 -1.79401 0
M  V30 6682 O 648.416 1.39886 -1.15333 0
M  V30 6683 C 648.464 -1.33985 -3.34784 0
M  V30 6684 O 647.568 -0.508803 -4.09249 0
M  V30 6685 H 646.909 -0.316992 -0.583448 0
M  V30 6686 H 649.439 -1.47863 -1.41413 0
M  V30 6687 H 649.449 -1.33248 -3.85628 0
M  V30 6688 H 648.124 -2.39172 -3.40249 0
M  V30 6689 H 646.701 -0.581913 -3.68332 0
M  V30 6690 N 648.886 1.2938 -0.899927 0
M  V30 6691 C 649.816 2.30144 -0.39446 0
M  V30 6692 C 650.797 1.61611 0.530639 0
M  V30 6693 O 651.982 1.89119 0.441319 0
M  V30 6694 C 649.112 3.45229 0.37868 0
M  V30 6695 C 648.066 4.25564 -0.456012 0
M  V30 6696 C 647.392 5.32848 0.444637 0
M  V30 6697 C 648.692 4.93651 -1.70605 0
M  V30 6698 H 650.386 2.72673 -1.23653 0
M  V30 6699 H 647.932 1.31086 -0.596034 0
M  V30 6700 H 649.885 4.14797 0.743037 0
M  V30 6701 H 648.609 3.01545 1.25453 0
M  V30 6702 H 647.268 3.57704 -0.802704 0
M  V30 6703 H 646.916 4.85408 1.31863 0
M  V30 6704 H 646.616 5.87497 -0.110154 0
M  V30 6705 H 648.14 6.05268 0.805182 0
M  V30 6706 H 649.554 5.55655 -1.41141 0
M  V30 6707 H 647.951 5.58233 -2.20217 0
M  V30 6708 H 649.021 4.18926 -2.4419 0
M  V30 6709 N 650.364 0.662433 1.43002 0
M  V30 6710 C 651.589 0.186003 2.06564 0
M  V30 6711 C 652.014 -1.14314 1.49379 0
M  V30 6712 O 651.372 -1.70824 0.607346 0
M  V30 6713 C 651.42 0.118269 3.60406 0
M  V30 6714 O 650.524 -0.916859 4.02079 0
M  V30 6715 H 649.865 0.0990981 0.656563 0
M  V30 6716 H 652.395 0.907958 1.8335 0
M  V30 6717 H 652.405 -0.0619981 4.07953 0
M  V30 6718 H 651.08 1.08849 4.01403 0
M  V30 6719 H 649.657 -0.708635 3.66105 0
M  V30 6720 N 651.842 -1.52309 0.404946 0
M  V30 6721 C 652.772 -2.29805 -0.41376 0
M  V30 6722 C 653.753 -1.3384 -1.0498 0
M  V30 6723 O 654.938 -1.62745 -1.05961 0
M  V30 6724 C 652.068 -3.11639 -1.53292 0
M  V30 6725 C 651.022 -4.15616 -1.02211 0
M  V30 6726 C 650.348 -4.8577 -2.23455 0
M  V30 6727 C 651.648 -5.2224 -0.0790725 0
M  V30 6728 H 653.342 -2.98493 0.232878 0
M  V30 6729 H 650.888 -1.43552 0.113441 0
M  V30 6730 H 652.841 -3.64618 -2.11262 0
M  V30 6731 H 651.565 -2.40712 -2.20738 0
M  V30 6732 H 650.224 -3.63641 -0.46484 0
M  V30 6733 H 649.872 -4.11376 -2.89445 0
M  V30 6734 H 649.572 -5.56058 -1.89929 0
M  V30 6735 H 651.096 -5.4156 -2.82038 0
M  V30 6736 H 652.51 -5.70485 -0.567438 0
M  V30 6737 H 650.907 -5.99867 0.167167 0
M  V30 6738 H 651.977 -4.77078 0.867447 0
M  V30 6739 N 653.32 -0.135238 -1.57019 0
M  V30 6740 C 654.545 0.529343 -2.00531 0
M  V30 6741 C 654.97 1.58391 -1.01459 0
M  V30 6742 O 654.328 1.81296 0.0113986 0
M  V30 6743 C 654.376 1.11748 -3.42848 0
M  V30 6744 O 653.48 2.23267 -3.46736 0
M  V30 6745 H 652.821 0.130669 -0.651016 0
M  V30 6746 H 655.351 -0.228503 -2.0332 0
M  V30 6747 H 655.361 1.44905 -3.81401 0
M  V30 6748 H 654.036 0.345147 -4.14465 0
M  V30 6749 H 652.613 1.91428 -3.20015 0
M  V30 6750 N 654.798 1.5699 0.138552 0
M  V30 6751 C 655.728 2.01933 1.17241 0
M  V30 6752 C 656.709 0.90033 1.44319 0
M  V30 6753 O 657.894 1.16872 1.55095 0
M  V30 6754 C 655.024 2.40711 2.50351 0
M  V30 6755 C 653.978 3.55874 2.37776 0
M  V30 6756 C 653.304 3.80491 3.75674 0
M  V30 6757 C 654.604 4.8826 1.85472 0
M  V30 6758 H 656.298 2.88551 0.798672 0
M  V30 6759 H 653.844 1.3882 0.382743 0
M  V30 6760 H 655.797 2.70754 3.22909 0
M  V30 6761 H 654.521 1.5104 2.89576 0
M  V30 6762 H 653.18 3.2601 1.67669 0
M  V30 6763 H 652.828 2.88057 4.12349 0
M  V30 6764 H 652.528 4.57998 3.68119 0
M  V30 6765 H 654.052 4.12967 4.49767 0
M  V30 6766 H 655.466 5.16965 2.4783 0
M  V30 6767 H 653.863 5.69631 1.88787 0
M  V30 6768 H 654.933 4.78071 0.810935 0
M  V30 6769 N 656.276 -0.40816 1.52223 0
M  V30 6770 C 657.524 -1.15274 1.66001 0
M  V30 6771 C 657.845 -1.91003 0.392803 0
M  V30 6772 O 657.115 -1.8673 -0.592336 0
M  V30 6773 H 655.695 -0.428526 0.611861 0
M  V30 6774 H 658.357 -0.46512 1.89269 0
M  V30 6775 H 657.453 -1.86628 2.50153 0
M  V30 6776 O 657.793 -1.51699 -0.554045 0
M  V30 6777 H 658.484 -1.51323 -1.20918 0
M  V30 END ATOM
M  V30 BEGIN BOND
M  V30 END BOND
M  V30 END CTAB
M  END
$$$$
