drugbank_target|P10092 Calcitonin gene-related peptide 2 (DB12228; DB14040; DB14041; DB14042)
 OpenBabel12092120103D

  0  0  0     0  0            999 V3000
M  V30 BEGIN CTAB
M  V30 COUNTS 5288 5675 0 0 0
M  V30 BEGIN ATOM
M  V30 1 H -1.547 9.37743 -1.21644 0
M  V30 2 O -1.44 8.89599 -0.40059 0
M  V30 3 P 0 8.91 0 0
M  V30 4 O 0.22 10.1746 0.733838 0
M  V30 5 O 0.79 8.73346 -1.23964 0
M  V30 6 O 0.25 7.66872 0.971405 0
M  V30 7 C -0.69 7.42405 2.04668 0
M  V30 8 C 0.04 6.86059 3.24661 0
M  V30 9 O 0.25 5.42934 3.03695 0
M  V30 10 C 1.44 7.41287 3.50796 0
M  V30 11 O 1.83 7.27073 4.86816 0
M  V30 12 C 2.32 6.5273 2.63741 0
M  V30 13 C 1.61 5.1842 2.73198 0
M  V30 14 N 1.66 4.38762 1.4784 0
M  V30 15 H -1.178 8.36899 2.3252 0
M  V30 16 H -1.45 6.70391 1.71179 0
M  V30 17 H -0.582 7.03638 4.13219 0
M  V30 18 H 2.073 4.59931 3.54016 0
M  V30 19 H 2.353 6.88995 1.59871 0
M  V30 20 H 3.344 6.4684 3.0373 0
M  V30 21 H 1.51 8.47002 3.20749 0
M  V30 22 P 3.37998 7.20834 5.23717 0
M  V30 23 O 3.59998 7.79853 6.57286 0
M  V30 24 O 4.16998 7.79239 4.12957 0
M  V30 25 O 3.62998 5.63315 5.29344 0
M  V30 26 C 2.68998 4.80255 6.01876 0
M  V30 27 C 3.41998 3.64202 6.65911 0
M  V30 28 O 3.62998 2.60694 5.64732 0
M  V30 29 C 4.81998 3.93473 7.1943 0
M  V30 30 O 5.20998 3.02071 8.21205 0
M  V30 31 C 5.69998 3.73047 5.97036 0
M  V30 32 C 4.98998 2.58828 5.25741 0
M  V30 33 N 5.03998 2.68068 3.77503 0
M  V30 34 C 4.95998 3.79715 2.96723 0
M  V30 35 N 5.03998 3.5377 1.68852 0
M  V30 36 C 5.17998 2.15054 1.63254 0
M  V30 37 C 5.30998 1.28964 0.518571 0
M  V30 38 O 5.32998 1.56826 -0.679156 0
M  V30 39 N 5.42998 -0.0538097 0.918425 0
M  V30 40 C 5.42998 -0.494275 2.22578 0
M  V30 41 N 5.55998 -1.81086 2.40434 0
M  V30 42 N 5.29998 0.313645 3.27502 0
M  V30 43 C 5.17998 1.61829 2.91033 0
M  V30 44 H 2.20098 5.40332 6.79951 0
M  V30 45 H 1.93098 4.41613 5.32378 0
M  V30 46 H 2.79798 3.26331 7.47797 0
M  V30 47 H 5.45298 1.63422 5.56814 0
M  V30 48 H 5.73198 4.63374 5.34244 0
M  V30 49 H 6.72398 3.44728 6.25838 0
M  V30 50 H 4.88998 4.96652 7.57263 0
M  V30 51 H 4.84098 4.80617 3.3614 0
M  V30 52 H 5.52298 -0.742702 0.199384 0
M  V30 53 H 5.55998 -2.20598 3.35588 0
M  V30 54 H 5.66098 -2.43518 1.58945 0
M  V30 55 P 6.75996 2.75334 8.47391 0
M  V30 56 O 6.97996 2.44571 9.90142 0
M  V30 57 O 7.54996 3.87688 7.92115 0
M  V30 58 O 7.00996 1.4459 7.59357 0
M  V30 59 C 6.06996 0.347608 7.69215 0
M  V30 60 C 6.79996 -0.96767 7.52806 0
M  V30 61 O 7.00996 -1.21036 6.1011 0
M  V30 62 C 8.19996 -1.04544 8.13308 0
M  V30 63 O 8.58996 -2.38311 8.41922 0
M  V30 64 C 9.07996 -0.491279 7.02284 0
M  V30 65 C 8.36996 -0.996264 5.77469 0
M  V30 66 N 8.41996 -0.0501916 4.62973 0
M  V30 67 H 5.58096 0.374722 8.67691 0
M  V30 68 H 5.31096 0.443485 6.90277 0
M  V30 69 H 6.17796 -1.75537 7.96793 0
M  V30 70 P 10.1399 -2.75334 8.47391 0
M  V30 71 O 10.3599 -3.84128 9.44797 0
M  V30 72 O 10.9299 -1.51947 8.68712 0
M  V30 73 O 10.3899 -3.29363 6.99321 0
M  V30 74 C 9.44994 -4.24011 6.4274 0
M  V30 75 C 10.1799 -5.20775 5.52155 0
M  V30 76 O 10.3899 -4.56534 4.22446 0
M  V30 77 C 11.5799 -5.62629 5.96531 0
M  V30 78 O 11.9699 -6.87667 5.41053 0
M  V30 79 C 12.4599 -4.52537 5.39283 0
M  V30 80 C 11.7499 -4.20027 4.08623 0
M  V30 81 N 11.7999 -2.76189 3.71603 0
M  V30 82 C 11.7199 -1.64862 4.52822 0
M  V30 83 N 11.7999 -0.512671 3.88633 0
M  V30 84 C 11.9399 -0.888083 2.54977 0
M  V30 85 C 12.0699 -0.094668 1.38677 0
M  V30 86 N 12.1899 -0.890102 0.232633 0
M  V30 87 C 12.1899 -2.26958 0.21772 0
M  V30 88 N 12.3199 -2.84626 -0.97925 0
M  V30 89 N 12.0599 -3.0178 1.31033 0
M  V30 90 C 11.9399 -2.26781 2.43843 0
M  V30 91 H 8.96094 -4.797 7.24003 0
M  V30 92 H 8.69094 -3.69856 5.84513 0
M  V30 93 H 9.55794 -6.10356 5.41441 0
M  V30 94 P 13.5199 -7.20834 5.23717 0
M  V30 95 O 13.7399 -8.66104 5.38572 0
M  V30 96 O 14.3099 -6.33544 6.1349 0
M  V30 97 O 13.7699 -6.7751 3.72168 0
M  V30 98 C 12.8299 -7.20825 2.7076 0
M  V30 99 C 13.5599 -7.45864 1.40599 0
M  V30 100 O 13.7699 -6.17651 0.734225 0
M  V30 101 C 14.9599 -8.05808 1.51899 0
M  V30 102 O 15.3499 -8.74358 0.335205 0
M  V30 103 C 15.8399 -6.83093 1.70294 0
M  V30 104 C 15.1299 -5.79992 0.836974 0
M  V30 105 N 15.1799 -4.41864 1.38293 0
M  V30 106 H 12.3409 -8.13644 3.0377 0
M  V30 107 H 12.0709 -6.42788 2.55485 0
M  V30 108 H 12.9379 -8.12039 0.792769 0
M  V30 109 P 16.8999 -8.91 1.09116e-15 0
M  V30 110 O 17.1199 -10.1726 -0.733694 0
M  V30 111 O 17.6899 -8.73148 1.23936 0
M  V30 112 O 17.1499 -7.66872 -0.971405 0
M  V30 113 C 16.2099 -7.42309 -2.04641 0
M  V30 114 C 16.9399 -6.86059 -3.24661 0
M  V30 115 O 17.1499 -5.42847 -3.03646 0
M  V30 116 C 18.3399 -7.41196 -3.50753 0
M  V30 117 O 18.7299 -7.27073 -4.86816 0
M  V30 118 C 19.2199 -6.5273 -2.63741 0
M  V30 119 C 18.5099 -5.1842 -2.73198 0
M  V30 120 N 18.5599 -4.38762 -1.4784 0
M  V30 121 H 15.7209 -8.36803 -2.32493 0
M  V30 122 H 15.4509 -6.70197 -1.71129 0
M  V30 123 H 16.3179 -7.03551 -4.13168 0
M  V30 124 P 20.2799 -7.20834 -5.23717 0
M  V30 125 O 20.4999 -7.79853 -6.57286 0
M  V30 126 O 21.0699 -7.79239 -4.12957 0
M  V30 127 O 20.5299 -5.63315 -5.29344 0
M  V30 128 C 19.5899 -4.80255 -6.01876 0
M  V30 129 C 20.3199 -3.64202 -6.65911 0
M  V30 130 O 20.5299 -2.60694 -5.64732 0
M  V30 131 C 21.7199 -3.93473 -7.1943 0
M  V30 132 O 22.1099 -3.02071 -8.21205 0
M  V30 133 C 22.5999 -3.73047 -5.97036 0
M  V30 134 C 21.8899 -2.58828 -5.25741 0
M  V30 135 N 21.9399 -2.68068 -3.77503 0
M  V30 136 H 19.1009 -5.40332 -6.79951 0
M  V30 137 H 18.8309 -4.41613 -5.32378 0
M  V30 138 H 19.6979 -3.26331 -7.47797 0
M  V30 139 P 23.6599 -2.75334 -8.47391 0
M  V30 140 O 23.8799 -2.44571 -9.90142 0
M  V30 141 O 24.4499 -3.87688 -7.92115 0
M  V30 142 O 23.9099 -1.4459 -7.59357 0
M  V30 143 C 22.9699 -0.347608 -7.69215 0
M  V30 144 C 23.6999 0.96767 -7.52806 0
M  V30 145 O 23.9099 1.21036 -6.1011 0
M  V30 146 C 25.0999 1.04544 -8.13308 0
M  V30 147 O 25.4899 2.38311 -8.41922 0
M  V30 148 C 25.9799 0.491279 -7.02284 0
M  V30 149 C 25.2699 0.996264 -5.77469 0
M  V30 150 N 25.3199 0.0501916 -4.62973 0
M  V30 151 H 22.4809 -0.374722 -8.67691 0
M  V30 152 H 22.2109 -0.443485 -6.90277 0
M  V30 153 H 23.0779 1.75537 -7.96793 0
M  V30 154 P 27.0398 2.75334 -8.47391 0
M  V30 155 O 27.2598 3.84128 -9.44797 0
M  V30 156 O 27.8298 1.51947 -8.68712 0
M  V30 157 O 27.2898 3.29363 -6.99321 0
M  V30 158 C 26.3498 4.24011 -6.4274 0
M  V30 159 C 27.0798 5.20775 -5.52155 0
M  V30 160 O 27.2898 4.56534 -4.22446 0
M  V30 161 C 28.4798 5.62629 -5.96531 0
M  V30 162 O 28.8698 6.87667 -5.41053 0
M  V30 163 C 29.3598 4.52537 -5.39283 0
M  V30 164 C 28.6498 4.20027 -4.08623 0
M  V30 165 N 28.6998 2.76189 -3.71603 0
M  V30 166 H 25.8608 4.797 -7.24003 0
M  V30 167 H 25.5908 3.69856 -5.84513 0
M  V30 168 H 26.4578 6.10356 -5.41441 0
M  V30 169 P 30.4198 7.20834 -5.23717 0
M  V30 170 O 30.6398 8.66104 -5.38572 0
M  V30 171 O 31.2098 6.33544 -6.1349 0
M  V30 172 O 30.6698 6.7751 -3.72168 0
M  V30 173 C 29.7298 7.20825 -2.7076 0
M  V30 174 C 30.4598 7.45864 -1.40599 0
M  V30 175 O 30.6698 6.17651 -0.734225 0
M  V30 176 C 31.8598 8.05808 -1.51899 0
M  V30 177 O 32.2498 8.74358 -0.335205 0
M  V30 178 C 32.7398 6.83093 -1.70294 0
M  V30 179 C 32.0298 5.79992 -0.836974 0
M  V30 180 N 32.0798 4.41864 -1.38293 0
M  V30 181 H 29.2408 8.13644 -3.0377 0
M  V30 182 H 28.9708 6.42788 -2.55485 0
M  V30 183 H 29.8378 8.12039 -0.792769 0
M  V30 184 P 33.7998 8.91 -2.18232e-15 0
M  V30 185 O 34.0198 10.1746 0.733838 0
M  V30 186 O 34.5898 8.73346 -1.23964 0
M  V30 187 O 34.0498 7.66872 0.971405 0
M  V30 188 C 33.1098 7.42405 2.04668 0
M  V30 189 C 33.8398 6.86059 3.24661 0
M  V30 190 O 34.0498 5.42934 3.03695 0
M  V30 191 C 35.2398 7.41287 3.50796 0
M  V30 192 O 35.6298 7.27073 4.86816 0
M  V30 193 C 36.1198 6.5273 2.63741 0
M  V30 194 C 35.4098 5.1842 2.73198 0
M  V30 195 N 35.4598 4.38762 1.4784 0
M  V30 196 C 35.3798 4.83651 0.183876 0
M  V30 197 N 35.4498 3.88759 -0.699393 0
M  V30 198 C 35.5998 2.7404 0.0575568 0
M  V30 199 C 35.7298 1.37902 -0.293928 0
M  V30 200 N 35.7398 0.938021 -1.54797 0
M  V30 201 N 35.8498 0.491817 0.70549 0
M  V30 202 C 35.8398 0.931735 1.95979 0
M  V30 203 N 35.7198 2.16017 2.41481 0
M  V30 204 C 35.5998 3.02547 1.39121 0
M  V30 205 H 32.6218 8.36899 2.3252 0
M  V30 206 H 32.3498 6.70391 1.71179 0
M  V30 207 H 33.2178 7.03638 4.13219 0
M  V30 208 H 35.8728 4.59931 3.54016 0
M  V30 209 H 36.1528 6.88995 1.59871 0
M  V30 210 H 37.1438 6.4684 3.0373 0
M  V30 211 H 35.3098 8.47002 3.20749 0
M  V30 212 H 35.2688 5.8885 -0.0765548 0
M  V30 213 H 35.6498 1.60276 -2.32875 0
M  V30 214 H 35.8388 -0.0699355 -1.73859 0
M  V30 215 H 35.9468 0.165507 2.71897 0
M  V30 216 P 37.1798 7.20834 5.23717 0
M  V30 217 O 37.3998 7.79853 6.57286 0
M  V30 218 O 37.9698 7.79239 4.12957 0
M  V30 219 O 37.4298 5.63315 5.29344 0
M  V30 220 C 36.4898 4.80255 6.01876 0
M  V30 221 C 37.2198 3.64202 6.65911 0
M  V30 222 O 37.4298 2.60694 5.64732 0
M  V30 223 C 38.6198 3.93473 7.1943 0
M  V30 224 O 39.0098 3.02071 8.21205 0
M  V30 225 C 39.4998 3.73047 5.97036 0
M  V30 226 C 38.7898 2.58828 5.25741 0
M  V30 227 N 38.8398 2.68068 3.77503 0
M  V30 228 H 36.0008 5.40332 6.79951 0
M  V30 229 H 35.7308 4.41613 5.32378 0
M  V30 230 H 36.5978 3.26331 7.47797 0
M  V30 231 P 40.5598 2.75334 8.47391 0
M  V30 232 O 40.7798 2.44571 9.90142 0
M  V30 233 O 41.3498 3.87688 7.92115 0
M  V30 234 O 40.8098 1.4459 7.59357 0
M  V30 235 C 39.8698 0.347608 7.69215 0
M  V30 236 C 40.5998 -0.96767 7.52806 0
M  V30 237 O 40.8098 -1.21036 6.1011 0
M  V30 238 C 41.9998 -1.04544 8.13308 0
M  V30 239 O 42.3898 -2.38311 8.41922 0
M  V30 240 C 42.8798 -0.491279 7.02284 0
M  V30 241 C 42.1698 -0.996264 5.77469 0
M  V30 242 N 42.2198 -0.0501916 4.62973 0
M  V30 243 H 39.3808 0.374722 8.67691 0
M  V30 244 H 39.1108 0.443485 6.90277 0
M  V30 245 H 39.9778 -1.75537 7.96793 0
M  V30 246 P 43.9397 -2.75334 8.47391 0
M  V30 247 O 44.1597 -3.84128 9.44797 0
M  V30 248 O 44.7297 -1.51947 8.68712 0
M  V30 249 O 44.1897 -3.29363 6.99321 0
M  V30 250 C 43.2497 -4.24011 6.4274 0
M  V30 251 C 43.9797 -5.20775 5.52155 0
M  V30 252 O 44.1897 -4.56534 4.22446 0
M  V30 253 C 45.3797 -5.62629 5.96531 0
M  V30 254 O 45.7697 -6.87667 5.41053 0
M  V30 255 C 46.2597 -4.52537 5.39283 0
M  V30 256 C 45.5497 -4.20027 4.08623 0
M  V30 257 N 45.5997 -2.76189 3.71603 0
M  V30 258 H 42.7607 -4.797 7.24003 0
M  V30 259 H 42.4907 -3.69856 5.84513 0
M  V30 260 H 43.3577 -6.10356 5.41441 0
M  V30 261 P 47.3197 -7.20834 5.23717 0
M  V30 262 O 47.5397 -8.66104 5.38572 0
M  V30 263 O 48.1097 -6.33544 6.1349 0
M  V30 264 O 47.5697 -6.7751 3.72168 0
M  V30 265 C 46.6297 -7.20825 2.7076 0
M  V30 266 C 47.3597 -7.45864 1.40599 0
M  V30 267 O 47.5697 -6.17651 0.734225 0
M  V30 268 C 48.7597 -8.05808 1.51899 0
M  V30 269 O 49.1497 -8.74358 0.335205 0
M  V30 270 C 49.6397 -6.83093 1.70294 0
M  V30 271 C 48.9297 -5.79992 0.836974 0
M  V30 272 N 48.9797 -4.41864 1.38293 0
M  V30 273 H 46.1407 -8.13644 3.0377 0
M  V30 274 H 45.8707 -6.42788 2.55485 0
M  V30 275 H 46.7377 -8.12039 0.792769 0
M  V30 276 P 50.6997 -8.91 3.27348e-15 0
M  V30 277 O 50.9197 -10.1726 -0.733694 0
M  V30 278 O 51.4897 -8.73148 1.23936 0
M  V30 279 O 50.9497 -7.66872 -0.971405 0
M  V30 280 C 50.0097 -7.42309 -2.04641 0
M  V30 281 C 50.7397 -6.86059 -3.24661 0
M  V30 282 O 50.9497 -5.42847 -3.03646 0
M  V30 283 C 52.1397 -7.41196 -3.50753 0
M  V30 284 O 52.5297 -7.27073 -4.86816 0
M  V30 285 C 53.0197 -6.5273 -2.63741 0
M  V30 286 C 52.3097 -5.1842 -2.73198 0
M  V30 287 N 52.3597 -4.38762 -1.4784 0
M  V30 288 H 49.5207 -8.36803 -2.32493 0
M  V30 289 H 49.2507 -6.70197 -1.71129 0
M  V30 290 H 50.1177 -7.03551 -4.13168 0
M  V30 291 P 54.0797 -7.20834 -5.23717 0
M  V30 292 O 54.2997 -7.79853 -6.57286 0
M  V30 293 O 54.8697 -7.79239 -4.12957 0
M  V30 294 O 54.3297 -5.63315 -5.29344 0
M  V30 295 C 53.3897 -4.80255 -6.01876 0
M  V30 296 C 54.1197 -3.64202 -6.65911 0
M  V30 297 O 54.3297 -2.60694 -5.64732 0
M  V30 298 C 55.5197 -3.93473 -7.1943 0
M  V30 299 O 55.9097 -3.02071 -8.21205 0
M  V30 300 C 56.3997 -3.73047 -5.97036 0
M  V30 301 C 55.6897 -2.58828 -5.25741 0
M  V30 302 N 55.7397 -2.68068 -3.77503 0
M  V30 303 H 52.9007 -5.40332 -6.79951 0
M  V30 304 H 52.6307 -4.41613 -5.32378 0
M  V30 305 H 53.4977 -3.26331 -7.47797 0
M  V30 306 P 57.4597 -2.75334 -8.47391 0
M  V30 307 O 57.6797 -2.44595 -9.90239 0
M  V30 308 O 58.2497 -3.87732 -7.92204 0
M  V30 309 O 57.7097 -1.4459 -7.59357 0
M  V30 310 C 56.7697 -0.347563 -7.69115 0
M  V30 311 C 57.4997 0.96767 -7.52806 0
M  V30 312 O 57.7097 1.21036 -6.1011 0
M  V30 313 C 58.8997 1.04544 -8.13308 0
M  V30 314 O 59.2897 2.38311 -8.41922 0
M  V30 315 C 59.7797 0.491279 -7.02284 0
M  V30 316 C 59.0697 0.996264 -5.77469 0
M  V30 317 N 59.1197 0.0501808 -4.62873 0
M  V30 318 C 59.2697 0.588177 -3.36904 0
M  V30 319 O 59.3597 1.78598 -3.17173 0
M  V30 320 N 59.3097 -0.329694 -2.33686 0
M  V30 321 C 59.2197 -1.6953 -2.45079 0
M  V30 322 C 59.0697 -2.16933 -3.80505 0
M  V30 323 C 59.0197 -1.30326 -4.83752 0
M  V30 324 H 56.2797 -0.374722 -8.67691 0
M  V30 325 H 56.0107 -0.443421 -6.90177 0
M  V30 326 H 56.8777 1.75537 -7.96793 0
M  V30 327 H 59.5327 1.94496 -5.46629 0
M  V30 328 H 59.8117 -0.608651 -7.04676 0
M  V30 329 H 60.8037 0.889672 -7.08939 0
M  V30 330 H 58.9697 0.43308 -9.04564 0
M  V30 331 H 58.8987 -1.68366 -5.8516 0
M  V30 332 P 60.8396 2.75334 -8.47391 0
M  V30 333 O 61.0596 3.84128 -9.44797 0
M  V30 334 O 61.6296 1.51947 -8.68712 0
M  V30 335 O 61.0896 3.29363 -6.99321 0
M  V30 336 C 60.1496 4.24011 -6.4274 0
M  V30 337 C 60.8796 5.20775 -5.52155 0
M  V30 338 O 61.0896 4.56534 -4.22446 0
M  V30 339 C 62.2796 5.62629 -5.96531 0
M  V30 340 O 62.6696 6.87667 -5.41053 0
M  V30 341 C 63.1596 4.52537 -5.39283 0
M  V30 342 C 62.4496 4.20027 -4.08623 0
M  V30 343 N 62.4996 2.76189 -3.71603 0
M  V30 344 H 59.6606 4.797 -7.24003 0
M  V30 345 H 59.3906 3.69856 -5.84513 0
M  V30 346 H 60.2576 6.10356 -5.41441 0
M  V30 347 P 64.2196 7.20834 -5.23717 0
M  V30 348 O 64.4396 8.66274 -5.38678 0
M  V30 349 O 65.0096 6.33687 -6.13629 0
M  V30 350 O 64.4696 6.7751 -3.72168 0
M  V30 351 C 63.5296 7.20919 -2.70795 0
M  V30 352 C 64.2596 7.45864 -1.40599 0
M  V30 353 O 64.4696 6.17751 -0.734343 0
M  V30 354 C 65.6596 8.05906 -1.51917 0
M  V30 355 O 66.0496 8.74358 -0.335205 0
M  V30 356 C 66.5396 6.83093 -1.70294 0
M  V30 357 C 65.8296 5.79992 -0.836974 0
M  V30 358 N 65.8796 4.41864 -1.38293 0
M  V30 359 C 65.7996 4.02089 -2.69407 0
M  V30 360 N 65.8696 2.73403 -2.85089 0
M  V30 361 C 66.0196 2.25086 -1.5642 0
M  V30 362 C 66.1496 0.942887 -1.04836 0
M  V30 363 N 66.1596 -0.150999 -1.80369 0
M  V30 364 N 66.2696 0.812565 0.28167 0
M  V30 365 C 66.2596 1.90572 1.03784 0
M  V30 366 N 66.1396 3.167 0.683905 0
M  V30 367 C 66.0196 3.26538 -0.652815 0
M  V30 368 H 63.0416 8.13738 -3.03804 0
M  V30 369 H 62.7696 6.42974 -2.55559 0
M  V30 370 H 63.6376 8.12139 -0.792866 0
M  V30 371 H 66.2926 5.80178 0.160643 0
M  V30 372 H 66.5726 6.51379 -2.75643 0
M  V30 373 H 67.5636 7.01832 -1.3448 0
M  V30 374 H 65.7296 8.73771 -2.38364 0
M  V30 375 H 65.6886 4.7189 -3.52311 0
M  V30 376 H 66.0696 -0.0721434 -2.82608 0
M  V30 377 H 66.2586 -1.0785 -1.36544 0
M  V30 378 H 66.3666 1.73207 2.10241 0
M  V30 379 P 67.5996 8.91 -4.36464e-15 0
M  V30 380 O 67.8196 10.1726 0.733694 0
M  V30 381 O 68.3896 8.73148 -1.23936 0
M  V30 382 O 67.8496 7.66872 0.971405 0
M  V30 383 C 66.9096 7.42309 2.04641 0
M  V30 384 C 67.6396 6.86059 3.24661 0
M  V30 385 O 67.8496 5.42847 3.03646 0
M  V30 386 C 69.0396 7.41196 3.50753 0
M  V30 387 O 69.4296 7.27073 4.86816 0
M  V30 388 C 69.9196 6.5273 2.63741 0
M  V30 389 C 69.2096 5.1842 2.73198 0
M  V30 390 N 69.2596 4.38762 1.4784 0
M  V30 391 C 69.1796 4.81605 0.168631 0
M  V30 392 N 69.2596 3.85454 -0.713363 0
M  V30 393 C 69.3996 2.6994 0.0566958 0
M  V30 394 C 69.5296 1.34815 -0.338502 0
M  V30 395 O 69.5496 0.869548 -1.47125 0
M  V30 396 N 69.6496 0.496304 0.77465 0
M  V30 397 C 69.6496 0.908403 2.09122 0
M  V30 398 N 69.7796 -0.0517805 3.00955 0
M  V30 399 N 69.5196 2.17875 2.46519 0
M  V30 400 C 69.3996 3.01988 1.4033 0
M  V30 401 H 66.4206 8.36803 2.32493 0
M  V30 402 H 66.1506 6.70197 1.71129 0
M  V30 403 H 67.0176 7.03551 4.13168 0
M  V30 404 H 69.6726 4.59498 3.54415 0
M  V30 405 H 69.9516 6.88898 1.59848 0
M  V30 406 H 70.9436 6.46749 3.03687 0
M  V30 407 H 69.1096 8.46908 3.20714 0
M  V30 408 H 69.0606 5.86405 -0.105564 0
M  V30 409 H 69.7426 -0.483664 0.597855 0
M  V30 410 H 69.7796 0.187865 4.0116 0
M  V30 411 H 69.8806 -1.03585 2.71726 0
M  V30 412 P 70.9796 7.20834 5.23717 0
M  V30 413 O 71.1996 7.79853 6.57286 0
M  V30 414 O 71.7696 7.79239 4.12957 0
M  V30 415 O 71.2296 5.63315 5.29344 0
M  V30 416 C 70.2896 4.80255 6.01876 0
M  V30 417 C 71.0196 3.64202 6.65911 0
M  V30 418 O 71.2296 2.60694 5.64732 0
M  V30 419 C 72.4196 3.93473 7.1943 0
M  V30 420 O 72.8096 3.02071 8.21205 0
M  V30 421 C 73.2996 3.73047 5.97036 0
M  V30 422 C 72.5896 2.58828 5.25741 0
M  V30 423 N 72.6396 2.68068 3.77503 0
M  V30 424 H 69.8006 5.40332 6.79951 0
M  V30 425 H 69.5306 4.41613 5.32378 0
M  V30 426 H 70.3976 3.26331 7.47797 0
M  V30 427 P 74.3596 2.75334 8.47391 0
M  V30 428 O 74.5796 2.44571 9.90142 0
M  V30 429 O 75.1496 3.87688 7.92115 0
M  V30 430 O 74.6096 1.4459 7.59357 0
M  V30 431 C 73.6696 0.347608 7.69215 0
M  V30 432 C 74.3996 -0.96767 7.52806 0
M  V30 433 O 74.6096 -1.21036 6.1011 0
M  V30 434 C 75.7996 -1.04544 8.13308 0
M  V30 435 O 76.1896 -2.38311 8.41922 0
M  V30 436 C 76.6796 -0.491279 7.02284 0
M  V30 437 C 75.9696 -0.996264 5.77469 0
M  V30 438 N 76.0196 -0.0501916 4.62973 0
M  V30 439 H 73.1806 0.374722 8.67691 0
M  V30 440 H 72.9106 0.443485 6.90277 0
M  V30 441 H 73.7776 -1.75537 7.96793 0
M  V30 442 P 77.7395 -2.75334 8.47391 0
M  V30 443 O 77.9595 -3.84128 9.44797 0
M  V30 444 O 78.5295 -1.51947 8.68712 0
M  V30 445 O 77.9895 -3.29363 6.99321 0
M  V30 446 C 77.0495 -4.24011 6.4274 0
M  V30 447 C 77.7795 -5.20775 5.52155 0
M  V30 448 O 77.9895 -4.56534 4.22446 0
M  V30 449 C 79.1795 -5.62629 5.96531 0
M  V30 450 O 79.5695 -6.87667 5.41053 0
M  V30 451 C 80.0595 -4.52537 5.39283 0
M  V30 452 C 79.3495 -4.20027 4.08623 0
M  V30 453 N 79.3995 -2.76189 3.71603 0
M  V30 454 H 76.5605 -4.797 7.24003 0
M  V30 455 H 76.2905 -3.69856 5.84513 0
M  V30 456 H 77.1575 -6.10356 5.41441 0
M  V30 457 P 81.1195 -7.20834 5.23717 0
M  V30 458 O 81.3395 -8.66274 5.38678 0
M  V30 459 O 81.9095 -6.33687 6.13629 0
M  V30 460 O 81.3695 -6.7751 3.72168 0
M  V30 461 C 80.4295 -7.20919 2.70795 0
M  V30 462 C 81.1595 -7.45864 1.40599 0
M  V30 463 O 81.3695 -6.17751 0.734343 0
M  V30 464 C 82.5595 -8.05906 1.51917 0
M  V30 465 O 82.9495 -8.74358 0.335205 0
M  V30 466 C 83.4395 -6.83093 1.70294 0
M  V30 467 C 82.7295 -5.79992 0.836974 0
M  V30 468 N 82.7795 -4.41864 1.38293 0
M  V30 469 C 82.6995 -4.02089 2.69407 0
M  V30 470 N 82.7695 -2.73403 2.85089 0
M  V30 471 C 82.9195 -2.25086 1.5642 0
M  V30 472 C 83.0495 -0.942887 1.04836 0
M  V30 473 N 83.0595 0.150999 1.80369 0
M  V30 474 N 83.1695 -0.812565 -0.28167 0
M  V30 475 C 83.1595 -1.90572 -1.03784 0
M  V30 476 N 83.0395 -3.167 -0.683905 0
M  V30 477 C 82.9195 -3.26538 0.652815 0
M  V30 478 H 79.9415 -8.13738 3.03804 0
M  V30 479 H 79.6695 -6.42974 2.55559 0
M  V30 480 H 80.5375 -8.12139 0.792866 0
M  V30 481 H 83.1925 -5.80178 -0.160643 0
M  V30 482 H 83.4725 -6.51379 2.75643 0
M  V30 483 H 84.4635 -7.01832 1.3448 0
M  V30 484 H 82.6295 -8.73771 2.38364 0
M  V30 485 H 82.5885 -4.7189 3.52311 0
M  V30 486 H 82.9695 0.0721434 2.82608 0
M  V30 487 H 83.1585 1.0785 1.36544 0
M  V30 488 H 83.2665 -1.73207 -2.10241 0
M  V30 489 P 84.4995 -8.91 5.4558e-15 0
M  V30 490 O 84.7195 -10.1746 -0.733838 0
M  V30 491 O 85.2895 -8.73346 1.23964 0
M  V30 492 O 84.7495 -7.66872 -0.971405 0
M  V30 493 C 83.8095 -7.42405 -2.04668 0
M  V30 494 C 84.5395 -6.86059 -3.24661 0
M  V30 495 O 84.7495 -5.42934 -3.03695 0
M  V30 496 C 85.9395 -7.41287 -3.50796 0
M  V30 497 O 86.3295 -7.27073 -4.86816 0
M  V30 498 C 86.8195 -6.5273 -2.63741 0
M  V30 499 C 86.1095 -5.1842 -2.73198 0
M  V30 500 N 86.1595 -4.38762 -1.4784 0
M  V30 501 C 86.0795 -4.83651 -0.183876 0
M  V30 502 N 86.1495 -3.88759 0.699393 0
M  V30 503 C 86.2995 -2.7404 -0.0575568 0
M  V30 504 C 86.4295 -1.37902 0.293928 0
M  V30 505 N 86.4395 -0.938021 1.54797 0
M  V30 506 N 86.5495 -0.491817 -0.70549 0
M  V30 507 C 86.5395 -0.931735 -1.95979 0
M  V30 508 N 86.4195 -2.16017 -2.41481 0
M  V30 509 C 86.2995 -3.02547 -1.39121 0
M  V30 510 H 83.3215 -8.36899 -2.3252 0
M  V30 511 H 83.0495 -6.70391 -1.71179 0
M  V30 512 H 83.9175 -7.03638 -4.13219 0
M  V30 513 H 86.5725 -4.59931 -3.54016 0
M  V30 514 H 86.8525 -6.88995 -1.59871 0
M  V30 515 H 87.8435 -6.4684 -3.0373 0
M  V30 516 H 86.0095 -8.47002 -3.20749 0
M  V30 517 H 85.9685 -5.8885 0.0765548 0
M  V30 518 H 86.3495 -1.60276 2.32875 0
M  V30 519 H 86.5385 0.0699355 1.73859 0
M  V30 520 H 86.6465 -0.165507 -2.71897 0
M  V30 521 P 87.8795 -7.20834 -5.23717 0
M  V30 522 O 88.0995 -7.79853 -6.57286 0
M  V30 523 O 88.6695 -7.79239 -4.12957 0
M  V30 524 O 88.1295 -5.63315 -5.29344 0
M  V30 525 C 87.1895 -4.80255 -6.01876 0
M  V30 526 C 87.9195 -3.64202 -6.65911 0
M  V30 527 O 88.1295 -2.60694 -5.64732 0
M  V30 528 C 89.3195 -3.93473 -7.1943 0
M  V30 529 O 89.7095 -3.02071 -8.21205 0
M  V30 530 C 90.1995 -3.73047 -5.97036 0
M  V30 531 C 89.4895 -2.58828 -5.25741 0
M  V30 532 N 89.5395 -2.68068 -3.77503 0
M  V30 533 H 86.7005 -5.40332 -6.79951 0
M  V30 534 H 86.4305 -4.41613 -5.32378 0
M  V30 535 H 87.2975 -3.26331 -7.47797 0
M  V30 536 P 91.2595 -2.75334 -8.47391 0
M  V30 537 O 91.4795 -2.44571 -9.90142 0
M  V30 538 O 92.0495 -3.87688 -7.92115 0
M  V30 539 O 91.5095 -1.4459 -7.59357 0
M  V30 540 C 90.5695 -0.347608 -7.69215 0
M  V30 541 C 91.2995 0.96767 -7.52806 0
M  V30 542 O 91.5095 1.21036 -6.1011 0
M  V30 543 C 92.6995 1.04544 -8.13308 0
M  V30 544 O 93.0895 2.38311 -8.41922 0
M  V30 545 C 93.5795 0.491279 -7.02284 0
M  V30 546 C 92.8695 0.996264 -5.77469 0
M  V30 547 N 92.9195 0.0501916 -4.62973 0
M  V30 548 H 90.0805 -0.374722 -8.67691 0
M  V30 549 H 89.8105 -0.443485 -6.90277 0
M  V30 550 H 90.6775 1.75537 -7.96793 0
M  V30 551 P 94.6394 2.75334 -8.47391 0
M  V30 552 O 94.8594 3.84128 -9.44797 0
M  V30 553 O 95.4294 1.51947 -8.68712 0
M  V30 554 O 94.8894 3.29363 -6.99321 0
M  V30 555 C 93.9494 4.24011 -6.4274 0
M  V30 556 C 94.6794 5.20775 -5.52155 0
M  V30 557 O 94.8894 4.56534 -4.22446 0
M  V30 558 C 96.0794 5.62629 -5.96531 0
M  V30 559 O 96.4694 6.87667 -5.41053 0
M  V30 560 C 96.9594 4.52537 -5.39283 0
M  V30 561 C 96.2494 4.20027 -4.08623 0
M  V30 562 N 96.2994 2.76189 -3.71603 0
M  V30 563 C 96.2194 1.64862 -4.52822 0
M  V30 564 N 96.2994 0.512671 -3.88633 0
M  V30 565 C 96.4394 0.888083 -2.54977 0
M  V30 566 C 96.5694 0.094668 -1.38677 0
M  V30 567 N 96.6894 0.890102 -0.232633 0
M  V30 568 C 96.6894 2.26958 -0.21772 0
M  V30 569 N 96.8194 2.84626 0.97925 0
M  V30 570 N 96.5594 3.0178 -1.31033 0
M  V30 571 C 96.4394 2.26781 -2.43843 0
M  V30 572 H 93.4604 4.797 -7.24003 0
M  V30 573 H 93.1904 3.69856 -5.84513 0
M  V30 574 H 94.0574 6.10356 -5.41441 0
M  V30 575 P 98.0194 7.20834 -5.23717 0
M  V30 576 O 98.2394 8.66104 -5.38572 0
M  V30 577 O 98.8094 6.33544 -6.1349 0
M  V30 578 O 98.2694 6.7751 -3.72168 0
M  V30 579 C 97.3294 7.20825 -2.7076 0
M  V30 580 C 98.0594 7.45864 -1.40599 0
M  V30 581 O 98.2694 6.17651 -0.734225 0
M  V30 582 C 99.4594 8.05808 -1.51899 0
M  V30 583 O 99.8494 8.74358 -0.335205 0
M  V30 584 C 100.339 6.83093 -1.70294 0
M  V30 585 C 99.6294 5.79992 -0.836974 0
M  V30 586 N 99.6794 4.41864 -1.38293 0
M  V30 587 H 96.8404 8.13644 -3.0377 0
M  V30 588 H 96.5704 6.42788 -2.55485 0
M  V30 589 H 97.4374 8.12039 -0.792769 0
M  V30 590 P 101.399 8.91 -6.54696e-15 0
M  V30 591 O 101.619 10.1746 0.733838 0
M  V30 592 O 102.189 8.73346 -1.23964 0
M  V30 593 O 101.649 7.66872 0.971405 0
M  V30 594 C 100.709 7.42405 2.04668 0
M  V30 595 C 101.439 6.86059 3.24661 0
M  V30 596 O 101.649 5.42934 3.03695 0
M  V30 597 C 102.839 7.41287 3.50796 0
M  V30 598 O 103.229 7.27073 4.86816 0
M  V30 599 C 103.719 6.5273 2.63741 0
M  V30 600 C 103.009 5.1842 2.73198 0
M  V30 601 N 103.059 4.38762 1.4784 0
M  V30 602 C 102.979 4.83651 0.183876 0
M  V30 603 N 103.049 3.88759 -0.699393 0
M  V30 604 C 103.199 2.7404 0.0575568 0
M  V30 605 C 103.329 1.37902 -0.293928 0
M  V30 606 N 103.339 0.938021 -1.54797 0
M  V30 607 N 103.449 0.491817 0.70549 0
M  V30 608 C 103.439 0.931735 1.95979 0
M  V30 609 N 103.319 2.16017 2.41481 0
M  V30 610 C 103.199 3.02547 1.39121 0
M  V30 611 H 100.221 8.36899 2.3252 0
M  V30 612 H 99.9494 6.70391 1.71179 0
M  V30 613 H 100.817 7.03638 4.13219 0
M  V30 614 H 103.472 4.59931 3.54016 0
M  V30 615 H 103.752 6.88995 1.59871 0
M  V30 616 H 104.743 6.4684 3.0373 0
M  V30 617 H 102.909 8.47002 3.20749 0
M  V30 618 H 102.868 5.8885 -0.0765548 0
M  V30 619 H 103.249 1.60276 -2.32875 0
M  V30 620 H 103.438 -0.0699355 -1.73859 0
M  V30 621 H 103.546 0.165507 2.71897 0
M  V30 622 P 104.779 7.20834 5.23717 0
M  V30 623 O 104.999 7.79853 6.57286 0
M  V30 624 O 105.569 7.79239 4.12957 0
M  V30 625 O 105.029 5.63315 5.29344 0
M  V30 626 C 104.089 4.80255 6.01876 0
M  V30 627 C 104.819 3.64202 6.65911 0
M  V30 628 O 105.029 2.60694 5.64732 0
M  V30 629 C 106.219 3.93473 7.1943 0
M  V30 630 O 106.609 3.02071 8.21205 0
M  V30 631 C 107.099 3.73047 5.97036 0
M  V30 632 C 106.389 2.58828 5.25741 0
M  V30 633 N 106.439 2.68068 3.77503 0
M  V30 634 H 103.6 5.40332 6.79951 0
M  V30 635 H 103.33 4.41613 5.32378 0
M  V30 636 H 104.197 3.26331 7.47797 0
M  V30 637 P 108.159 2.75334 8.47391 0
M  V30 638 O 108.379 2.44571 9.90142 0
M  V30 639 O 108.949 3.87688 7.92115 0
M  V30 640 O 108.409 1.4459 7.59357 0
M  V30 641 C 107.469 0.347608 7.69215 0
M  V30 642 C 108.199 -0.96767 7.52806 0
M  V30 643 O 108.409 -1.21036 6.1011 0
M  V30 644 C 109.599 -1.04544 8.13308 0
M  V30 645 O 109.989 -2.38311 8.41922 0
M  V30 646 C 110.479 -0.491279 7.02284 0
M  V30 647 C 109.769 -0.996264 5.77469 0
M  V30 648 N 109.819 -0.0501916 4.62973 0
M  V30 649 H 106.98 0.374722 8.67691 0
M  V30 650 H 106.71 0.443485 6.90277 0
M  V30 651 H 107.577 -1.75537 7.96793 0
M  V30 652 P 111.539 -2.75334 8.47391 0
M  V30 653 O 111.759 -3.84128 9.44797 0
M  V30 654 O 112.329 -1.51947 8.68712 0
M  V30 655 O 111.789 -3.29363 6.99321 0
M  V30 656 C 110.849 -4.24011 6.4274 0
M  V30 657 C 111.579 -5.20775 5.52155 0
M  V30 658 O 111.789 -4.56534 4.22446 0
M  V30 659 C 112.979 -5.62629 5.96531 0
M  V30 660 O 113.369 -6.87667 5.41053 0
M  V30 661 C 113.859 -4.52537 5.39283 0
M  V30 662 C 113.149 -4.20027 4.08623 0
M  V30 663 N 113.199 -2.76189 3.71603 0
M  V30 664 H 110.36 -4.797 7.24003 0
M  V30 665 H 110.09 -3.69856 5.84513 0
M  V30 666 H 110.957 -6.10356 5.41441 0
M  V30 667 P 114.919 -7.20834 5.23717 0
M  V30 668 O 115.139 -8.66104 5.38572 0
M  V30 669 O 115.709 -6.33544 6.1349 0
M  V30 670 O 115.169 -6.7751 3.72168 0
M  V30 671 C 114.229 -7.20825 2.7076 0
M  V30 672 C 114.959 -7.45864 1.40599 0
M  V30 673 O 115.169 -6.17651 0.734225 0
M  V30 674 C 116.359 -8.05808 1.51899 0
M  V30 675 O 116.749 -8.74358 0.335205 0
M  V30 676 C 117.239 -6.83093 1.70294 0
M  V30 677 C 116.529 -5.79992 0.836974 0
M  V30 678 N 116.579 -4.41864 1.38293 0
M  V30 679 H 113.74 -8.13644 3.0377 0
M  V30 680 H 113.47 -6.42788 2.55485 0
M  V30 681 H 114.337 -8.12039 0.792769 0
M  V30 682 P 118.299 -8.91 7.63812e-15 0
M  V30 683 O 118.519 -10.1726 -0.733694 0
M  V30 684 O 119.089 -8.73148 1.23936 0
M  V30 685 O 118.549 -7.66872 -0.971405 0
M  V30 686 C 117.609 -7.42309 -2.04641 0
M  V30 687 C 118.339 -6.86059 -3.24661 0
M  V30 688 O 118.549 -5.42847 -3.03646 0
M  V30 689 C 119.739 -7.41196 -3.50753 0
M  V30 690 O 120.129 -7.27073 -4.86816 0
M  V30 691 C 120.619 -6.5273 -2.63741 0
M  V30 692 C 119.909 -5.1842 -2.73198 0
M  V30 693 N 119.959 -4.38762 -1.4784 0
M  V30 694 H 117.12 -8.36803 -2.32493 0
M  V30 695 H 116.85 -6.70197 -1.71129 0
M  V30 696 H 117.717 -7.03551 -4.13168 0
M  V30 697 P 121.679 -7.20834 -5.23717 0
M  V30 698 O 121.899 -7.79853 -6.57286 0
M  V30 699 O 122.469 -7.79239 -4.12957 0
M  V30 700 O 121.929 -5.63315 -5.29344 0
M  V30 701 C 120.989 -4.80255 -6.01876 0
M  V30 702 C 121.719 -3.64202 -6.65911 0
M  V30 703 O 121.929 -2.60694 -5.64732 0
M  V30 704 C 123.119 -3.93473 -7.1943 0
M  V30 705 O 123.509 -3.02071 -8.21205 0
M  V30 706 C 123.999 -3.73047 -5.97036 0
M  V30 707 C 123.289 -2.58828 -5.25741 0
M  V30 708 N 123.339 -2.68068 -3.77503 0
M  V30 709 H 120.5 -5.40332 -6.79951 0
M  V30 710 H 120.23 -4.41613 -5.32378 0
M  V30 711 H 121.097 -3.26331 -7.47797 0
M  V30 712 P 125.059 -2.75334 -8.47391 0
M  V30 713 O 125.279 -2.44571 -9.90142 0
M  V30 714 O 125.849 -3.87688 -7.92115 0
M  V30 715 O 125.309 -1.4459 -7.59357 0
M  V30 716 C 124.369 -0.347608 -7.69215 0
M  V30 717 C 125.099 0.96767 -7.52806 0
M  V30 718 O 125.309 1.21036 -6.1011 0
M  V30 719 C 126.499 1.04544 -8.13308 0
M  V30 720 O 126.889 2.38311 -8.41922 0
M  V30 721 C 127.379 0.491279 -7.02284 0
M  V30 722 C 126.669 0.996264 -5.77469 0
M  V30 723 N 126.719 0.0501916 -4.62973 0
M  V30 724 H 123.88 -0.374722 -8.67691 0
M  V30 725 H 123.61 -0.443485 -6.90277 0
M  V30 726 H 124.477 1.75537 -7.96793 0
M  V30 727 P 128.439 2.75334 -8.47391 0
M  V30 728 O 128.659 3.84204 -9.44982 0
M  V30 729 O 129.229 1.51982 -8.68909 0
M  V30 730 O 128.689 3.29363 -6.99321 0
M  V30 731 C 127.749 4.24066 -6.42823 0
M  V30 732 C 128.479 5.20775 -5.52155 0
M  V30 733 O 128.689 4.56607 -4.22514 0
M  V30 734 C 129.879 5.62697 -5.96604 0
M  V30 735 O 130.269 6.87667 -5.41053 0
M  V30 736 C 130.759 4.52537 -5.39283 0
M  V30 737 C 130.049 4.20027 -4.08623 0
M  V30 738 N 130.099 2.76189 -3.71603 0
M  V30 739 C 130.019 1.66944 -4.54297 0
M  V30 740 N 130.089 0.536169 -3.91344 0
M  V30 741 C 130.239 0.901569 -2.58849 0
M  V30 742 C 130.369 0.146599 -1.40236 0
M  V30 743 N 130.379 -1.18234 -1.37046 0
M  V30 744 N 130.489 0.822941 -0.249738 0
M  V30 745 C 130.479 2.15179 -0.280525 0
M  V30 746 N 130.359 2.96414 -1.30822 0
M  V30 747 C 130.239 2.25804 -2.44748 0
M  V30 748 H 127.261 4.79756 -7.24086 0
M  V30 749 H 126.989 3.69963 -5.84682 0
M  V30 750 H 127.857 6.10431 -5.41508 0
M  V30 751 H 130.512 4.78816 -3.28024 0
M  V30 752 H 130.792 3.64957 -6.05871 0
M  V30 753 H 131.783 4.88748 -5.21323 0
M  V30 754 H 129.949 5.66789 -7.0643 0
M  V30 755 H 129.908 1.74684 -5.62396 0
M  V30 756 H 130.289 -1.71949 -2.24394 0
M  V30 757 H 130.478 -1.67511 -0.470742 0
M  V30 758 H 130.586 2.63704 0.6828 0
M  V30 759 P 131.819 7.20834 -5.23717 0
M  V30 760 O 132.039 8.66189 -5.38625 0
M  V30 761 O 132.609 6.33615 -6.1356 0
M  V30 762 O 132.069 6.7751 -3.72168 0
M  V30 763 C 131.129 7.20732 -2.70725 0
M  V30 764 C 131.859 7.45864 -1.40599 0
M  V30 765 O 132.069 6.17651 -0.734225 0
M  V30 766 C 133.259 8.05808 -1.51899 0
M  V30 767 O 133.649 8.74358 -0.335205 0
M  V30 768 C 134.139 6.83093 -1.70294 0
M  V30 769 C 133.429 5.79992 -0.836974 0
M  V30 770 N 133.479 4.41769 -1.38263 0
M  V30 771 C 133.629 3.38591 -0.481702 0
M  V30 772 O 133.719 3.56839 0.718452 0
M  V30 773 N 133.669 2.1206 -1.03569 0
M  V30 774 C 133.579 1.80696 -2.36966 0
M  V30 775 O 133.629 0.630473 -2.74862 0
M  V30 776 C 133.429 2.94845 -3.23898 0
M  V30 777 C 133.319 2.65253 -4.70362 0
M  V30 778 C 133.379 4.19803 -2.73435 0
M  V30 779 H 130.639 8.13644 -3.0377 0
M  V30 780 H 130.37 6.42695 -2.55448 0
M  V30 781 H 131.237 8.12039 -0.792769 0
M  V30 782 H 133.892 5.79978 0.160587 0
M  V30 783 H 134.171 6.51379 -2.75643 0
M  V30 784 H 135.163 7.01734 -1.34462 0
M  V30 785 H 133.329 8.73674 -2.38337 0
M  V30 786 H 133.258 5.04492 -3.4095 0
M  V30 787 H 134.288 2.83924 -5.1913 0
M  V30 788 H 132.551 3.29824 -5.15163 0
M  V30 789 H 133.039 1.59723 -4.84449 0
M  V30 790 H 133.775 1.35644 -0.399345 0
M  V30 791 P 135.199 8.91 -8.72928e-15 0
M  V30 792 O 135.419 10.1726 0.733694 0
M  V30 793 O 135.989 8.73148 -1.23936 0
M  V30 794 O 135.449 7.66872 0.971405 0
M  V30 795 C 134.509 7.42309 2.04641 0
M  V30 796 C 135.239 6.86059 3.24661 0
M  V30 797 O 135.449 5.42847 3.03646 0
M  V30 798 C 136.639 7.41196 3.50753 0
M  V30 799 O 137.029 7.27073 4.86816 0
M  V30 800 C 137.519 6.5273 2.63741 0
M  V30 801 C 136.809 5.1842 2.73198 0
M  V30 802 N 136.859 4.38762 1.4784 0
M  V30 803 H 134.02 8.36803 2.32493 0
M  V30 804 H 133.75 6.70197 1.71129 0
M  V30 805 H 134.617 7.03551 4.13168 0
M  V30 806 P 138.579 7.20834 5.23717 0
M  V30 807 O 138.799 7.79853 6.57286 0
M  V30 808 O 139.369 7.79239 4.12957 0
M  V30 809 O 138.829 5.63315 5.29344 0
M  V30 810 C 137.889 4.80255 6.01876 0
M  V30 811 C 138.619 3.64202 6.65911 0
M  V30 812 O 138.829 2.60694 5.64732 0
M  V30 813 C 140.019 3.93473 7.1943 0
M  V30 814 O 140.409 3.02071 8.21205 0
M  V30 815 C 140.899 3.73047 5.97036 0
M  V30 816 C 140.189 2.58828 5.25741 0
M  V30 817 N 140.239 2.68068 3.77503 0
M  V30 818 H 137.4 5.40332 6.79951 0
M  V30 819 H 137.13 4.41613 5.32378 0
M  V30 820 H 137.997 3.26331 7.47797 0
M  V30 821 P 141.959 2.75334 8.47391 0
M  V30 822 O 142.179 2.44571 9.90142 0
M  V30 823 O 142.749 3.87688 7.92115 0
M  V30 824 O 142.209 1.4459 7.59357 0
M  V30 825 C 141.269 0.347608 7.69215 0
M  V30 826 C 141.999 -0.96767 7.52806 0
M  V30 827 O 142.209 -1.21036 6.1011 0
M  V30 828 C 143.399 -1.04544 8.13308 0
M  V30 829 O 143.789 -2.38311 8.41922 0
M  V30 830 C 144.279 -0.491279 7.02284 0
M  V30 831 C 143.569 -0.996264 5.77469 0
M  V30 832 N 143.619 -0.0501916 4.62973 0
M  V30 833 H 140.78 0.374722 8.67691 0
M  V30 834 H 140.51 0.443485 6.90277 0
M  V30 835 H 141.377 -1.75537 7.96793 0
M  V30 836 P 145.339 -2.75334 8.47391 0
M  V30 837 O 145.559 -3.84128 9.44797 0
M  V30 838 O 146.129 -1.51947 8.68712 0
M  V30 839 O 145.589 -3.29363 6.99321 0
M  V30 840 C 144.649 -4.24011 6.4274 0
M  V30 841 C 145.379 -5.20775 5.52155 0
M  V30 842 O 145.589 -4.56534 4.22446 0
M  V30 843 C 146.779 -5.62629 5.96531 0
M  V30 844 O 147.169 -6.87667 5.41053 0
M  V30 845 C 147.659 -4.52537 5.39283 0
M  V30 846 C 146.949 -4.20027 4.08623 0
M  V30 847 N 146.999 -2.76189 3.71603 0
M  V30 848 H 144.16 -4.797 7.24003 0
M  V30 849 H 143.89 -3.69856 5.84513 0
M  V30 850 H 144.757 -6.10356 5.41441 0
M  V30 851 P 148.719 -7.20834 5.23717 0
M  V30 852 O 148.939 -8.66104 5.38572 0
M  V30 853 O 149.509 -6.33544 6.1349 0
M  V30 854 O 148.969 -6.7751 3.72168 0
M  V30 855 C 148.029 -7.20825 2.7076 0
M  V30 856 C 148.759 -7.45864 1.40599 0
M  V30 857 O 148.969 -6.17651 0.734225 0
M  V30 858 C 150.159 -8.05808 1.51899 0
M  V30 859 O 150.549 -8.74358 0.335205 0
M  V30 860 C 151.039 -6.83093 1.70294 0
M  V30 861 C 150.329 -5.79992 0.836974 0
M  V30 862 N 150.379 -4.41864 1.38293 0
M  V30 863 H 147.54 -8.13644 3.0377 0
M  V30 864 H 147.27 -6.42788 2.55485 0
M  V30 865 H 148.137 -8.12039 0.792769 0
M  V30 866 P 152.099 -8.91 9.82044e-15 0
M  V30 867 O 152.319 -10.1746 -0.733838 0
M  V30 868 O 152.889 -8.73346 1.23964 0
M  V30 869 O 152.349 -7.66872 -0.971405 0
M  V30 870 C 151.409 -7.42405 -2.04668 0
M  V30 871 C 152.139 -6.86059 -3.24661 0
M  V30 872 O 152.349 -5.42934 -3.03695 0
M  V30 873 C 153.539 -7.41287 -3.50796 0
M  V30 874 O 153.929 -7.27073 -4.86816 0
M  V30 875 C 154.419 -6.5273 -2.63741 0
M  V30 876 C 153.709 -5.1842 -2.73198 0
M  V30 877 N 153.759 -4.38762 -1.4784 0
M  V30 878 C 153.679 -4.83651 -0.183876 0
M  V30 879 N 153.749 -3.88759 0.699393 0
M  V30 880 C 153.899 -2.7404 -0.0575568 0
M  V30 881 C 154.029 -1.37902 0.293928 0
M  V30 882 N 154.039 -0.938021 1.54797 0
M  V30 883 N 154.149 -0.491817 -0.70549 0
M  V30 884 C 154.139 -0.931735 -1.95979 0
M  V30 885 N 154.019 -2.16017 -2.41481 0
M  V30 886 C 153.899 -3.02547 -1.39121 0
M  V30 887 H 150.921 -8.36899 -2.3252 0
M  V30 888 H 150.649 -6.70391 -1.71179 0
M  V30 889 H 151.517 -7.03638 -4.13219 0
M  V30 890 H 154.172 -4.59931 -3.54016 0
M  V30 891 H 154.452 -6.88995 -1.59871 0
M  V30 892 H 155.443 -6.4684 -3.0373 0
M  V30 893 H 153.609 -8.47002 -3.20749 0
M  V30 894 H 153.568 -5.8885 0.0765548 0
M  V30 895 H 153.949 -1.60276 2.32875 0
M  V30 896 H 154.138 0.0699355 1.73859 0
M  V30 897 H 154.246 -0.165507 -2.71897 0
M  V30 898 P 155.479 -7.20834 -5.23717 0
M  V30 899 O 155.699 -7.79853 -6.57286 0
M  V30 900 O 156.269 -7.79239 -4.12957 0
M  V30 901 O 155.729 -5.63315 -5.29344 0
M  V30 902 C 154.789 -4.80255 -6.01876 0
M  V30 903 C 155.519 -3.64202 -6.65911 0
M  V30 904 O 155.729 -2.60694 -5.64732 0
M  V30 905 C 156.919 -3.93473 -7.1943 0
M  V30 906 O 157.309 -3.02071 -8.21205 0
M  V30 907 C 157.799 -3.73047 -5.97036 0
M  V30 908 C 157.089 -2.58828 -5.25741 0
M  V30 909 N 157.139 -2.68068 -3.77503 0
M  V30 910 C 157.059 -3.79715 -2.96723 0
M  V30 911 N 157.139 -3.5377 -1.68852 0
M  V30 912 C 157.279 -2.15054 -1.63254 0
M  V30 913 C 157.409 -1.28964 -0.518571 0
M  V30 914 N 157.529 0.0538097 -0.918425 0
M  V30 915 C 157.529 0.494275 -2.22578 0
M  V30 916 N 157.659 1.81086 -2.40434 0
M  V30 917 N 157.399 -0.313645 -3.27502 0
M  V30 918 C 157.279 -1.61829 -2.91033 0
M  V30 919 H 154.3 -5.40332 -6.79951 0
M  V30 920 H 154.03 -4.41613 -5.32378 0
M  V30 921 H 154.897 -3.26331 -7.47797 0
M  V30 922 P 158.859 -2.75334 -8.47391 0
M  V30 923 O 159.079 -2.44571 -9.90142 0
M  V30 924 O 159.649 -3.87688 -7.92115 0
M  V30 925 O 159.109 -1.4459 -7.59357 0
M  V30 926 C 158.169 -0.347608 -7.69215 0
M  V30 927 C 158.899 0.96767 -7.52806 0
M  V30 928 O 159.109 1.21036 -6.1011 0
M  V30 929 C 160.299 1.04544 -8.13308 0
M  V30 930 O 160.689 2.38311 -8.41922 0
M  V30 931 C 161.179 0.491279 -7.02284 0
M  V30 932 C 160.469 0.996264 -5.77469 0
M  V30 933 N 160.519 0.0501916 -4.62973 0
M  V30 934 H 157.68 -0.374722 -8.67691 0
M  V30 935 H 157.41 -0.443485 -6.90277 0
M  V30 936 H 158.277 1.75537 -7.96793 0
M  V30 937 P 162.239 2.75334 -8.47391 0
M  V30 938 O 162.459 3.84128 -9.44797 0
M  V30 939 O 163.029 1.51947 -8.68712 0
M  V30 940 O 162.489 3.29363 -6.99321 0
M  V30 941 C 161.549 4.24011 -6.4274 0
M  V30 942 C 162.279 5.20775 -5.52155 0
M  V30 943 O 162.489 4.56534 -4.22446 0
M  V30 944 C 163.679 5.62629 -5.96531 0
M  V30 945 O 164.069 6.87667 -5.41053 0
M  V30 946 C 164.559 4.52537 -5.39283 0
M  V30 947 C 163.849 4.20027 -4.08623 0
M  V30 948 N 163.899 2.76189 -3.71603 0
M  V30 949 H 161.06 4.797 -7.24003 0
M  V30 950 H 160.79 3.69856 -5.84513 0
M  V30 951 H 161.657 6.10356 -5.41441 0
M  V30 952 P 165.619 7.20834 -5.23717 0
M  V30 953 O 165.839 8.66104 -5.38572 0
M  V30 954 O 166.409 6.33544 -6.1349 0
M  V30 955 O 165.869 6.7751 -3.72168 0
M  V30 956 C 164.929 7.20825 -2.7076 0
M  V30 957 C 165.659 7.45864 -1.40599 0
M  V30 958 O 165.869 6.17651 -0.734225 0
M  V30 959 C 167.059 8.05808 -1.51899 0
M  V30 960 O 167.449 8.74358 -0.335205 0
M  V30 961 C 167.939 6.83093 -1.70294 0
M  V30 962 C 167.229 5.79992 -0.836974 0
M  V30 963 N 167.279 4.41864 -1.38293 0
M  V30 964 H 164.44 8.13644 -3.0377 0
M  V30 965 H 164.17 6.42788 -2.55485 0
M  V30 966 H 165.037 8.12039 -0.792769 0
M  V30 967 P 168.999 8.91 -1.09116e-14 0
M  V30 968 O 169.219 10.1746 0.733838 0
M  V30 969 O 169.789 8.73346 -1.23964 0
M  V30 970 O 169.249 7.66872 0.971405 0
M  V30 971 C 168.309 7.42405 2.04668 0
M  V30 972 C 169.039 6.86059 3.24661 0
M  V30 973 O 169.249 5.42934 3.03695 0
M  V30 974 C 170.439 7.41287 3.50796 0
M  V30 975 O 170.829 7.27073 4.86816 0
M  V30 976 C 171.319 6.5273 2.63741 0
M  V30 977 C 170.609 5.1842 2.73198 0
M  V30 978 N 170.659 4.38762 1.4784 0
M  V30 979 C 170.579 4.83651 0.183876 0
M  V30 980 N 170.649 3.88759 -0.699393 0
M  V30 981 C 170.799 2.7404 0.0575568 0
M  V30 982 C 170.929 1.37902 -0.293928 0
M  V30 983 N 170.939 0.938021 -1.54797 0
M  V30 984 N 171.049 0.491817 0.70549 0
M  V30 985 C 171.039 0.931735 1.95979 0
M  V30 986 N 170.919 2.16017 2.41481 0
M  V30 987 C 170.799 3.02547 1.39121 0
M  V30 988 H 167.821 8.36899 2.3252 0
M  V30 989 H 167.549 6.70391 1.71179 0
M  V30 990 H 168.417 7.03638 4.13219 0
M  V30 991 H 171.072 4.59931 3.54016 0
M  V30 992 H 171.352 6.88995 1.59871 0
M  V30 993 H 172.343 6.4684 3.0373 0
M  V30 994 H 170.509 8.47002 3.20749 0
M  V30 995 H 170.468 5.8885 -0.0765548 0
M  V30 996 H 170.849 1.60276 -2.32875 0
M  V30 997 H 171.038 -0.0699355 -1.73859 0
M  V30 998 H 171.146 0.165507 2.71897 0
M  V30 999 P 172.379 7.20834 5.23717 0
M  V30 1000 O 172.599 7.80006 6.57415 0
M  V30 1001 O 173.169 7.79416 4.13051 0
M  V30 1002 O 172.629 5.63315 5.29344 0
M  V30 1003 C 171.689 4.80318 6.01954 0
M  V30 1004 C 172.419 3.64202 6.65911 0
M  V30 1005 O 172.629 2.60736 5.64823 0
M  V30 1006 C 173.819 3.93521 7.19518 0
M  V30 1007 O 174.209 3.02071 8.21205 0
M  V30 1008 C 174.699 3.73047 5.97036 0
M  V30 1009 C 173.989 2.58828 5.25741 0
M  V30 1010 N 174.039 2.68068 3.77503 0
M  V30 1011 C 173.959 3.80474 2.99159 0
M  V30 1012 N 174.029 3.55622 1.71925 0
M  V30 1013 C 174.179 2.1832 1.65733 0
M  V30 1014 C 174.309 1.28842 0.572777 0
M  V30 1015 N 174.319 1.66875 -0.70098 0
M  V30 1016 N 174.429 -0.016788 0.859836 0
M  V30 1017 C 174.419 -0.398145 2.13316 0
M  V30 1018 N 174.299 0.328224 3.22333 0
M  V30 1019 C 174.179 1.62992 2.90383 0
M  V30 1020 H 171.201 5.40394 6.8003 0
M  V30 1021 H 170.929 4.41741 5.32532 0
M  V30 1022 H 171.797 3.26371 7.47889 0
M  V30 1023 H 174.452 1.64007 5.56746 0
M  V30 1024 H 174.732 4.63439 5.3432 0
M  V30 1025 H 175.723 3.44776 6.25925 0
M  V30 1026 H 173.889 4.96707 7.57347 0
M  V30 1027 H 173.848 4.8089 3.39924 0
M  V30 1028 H 174.229 2.66547 -0.941919 0
M  V30 1029 H 174.418 0.965341 -1.44766 0
M  V30 1030 H 174.526 -1.46427 2.29697 0
M  V30 1031 P 175.759 2.75334 8.47391 0
M  V30 1032 O 175.979 2.44571 9.90142 0
M  V30 1033 O 176.549 3.87688 7.92115 0
M  V30 1034 O 176.009 1.4459 7.59357 0
M  V30 1035 C 175.069 0.347608 7.69215 0
M  V30 1036 C 175.799 -0.96767 7.52806 0
M  V30 1037 O 176.009 -1.21036 6.1011 0
M  V30 1038 C 177.199 -1.04544 8.13308 0
M  V30 1039 O 177.589 -2.38311 8.41922 0
M  V30 1040 C 178.079 -0.491279 7.02284 0
M  V30 1041 C 177.369 -0.996264 5.77469 0
M  V30 1042 N 177.419 -0.0501916 4.62973 0
M  V30 1043 H 174.58 0.374722 8.67691 0
M  V30 1044 H 174.31 0.443485 6.90277 0
M  V30 1045 H 175.177 -1.75537 7.96793 0
M  V30 1046 P 179.139 -2.75334 8.47391 0
M  V30 1047 O 179.359 -3.84128 9.44797 0
M  V30 1048 O 179.929 -1.51947 8.68712 0
M  V30 1049 O 179.389 -3.29363 6.99321 0
M  V30 1050 C 178.449 -4.24011 6.4274 0
M  V30 1051 C 179.179 -5.20775 5.52155 0
M  V30 1052 O 179.389 -4.56534 4.22446 0
M  V30 1053 C 180.579 -5.62629 5.96531 0
M  V30 1054 O 180.969 -6.87667 5.41053 0
M  V30 1055 C 181.459 -4.52537 5.39283 0
M  V30 1056 C 180.749 -4.20027 4.08623 0
M  V30 1057 N 180.799 -2.76189 3.71603 0
M  V30 1058 H 177.96 -4.797 7.24003 0
M  V30 1059 H 177.69 -3.69856 5.84513 0
M  V30 1060 H 178.557 -6.10356 5.41441 0
M  V30 1061 P 182.519 -7.20834 5.23717 0
M  V30 1062 O 182.739 -8.66104 5.38572 0
M  V30 1063 O 183.309 -6.33544 6.1349 0
M  V30 1064 O 182.769 -6.7751 3.72168 0
M  V30 1065 C 181.829 -7.20825 2.7076 0
M  V30 1066 C 182.559 -7.45864 1.40599 0
M  V30 1067 O 182.769 -6.17651 0.734225 0
M  V30 1068 C 183.959 -8.05808 1.51899 0
M  V30 1069 O 184.349 -8.74358 0.335205 0
M  V30 1070 C 184.839 -6.83093 1.70294 0
M  V30 1071 C 184.129 -5.79992 0.836974 0
M  V30 1072 N 184.179 -4.41864 1.38293 0
M  V30 1073 H 181.34 -8.13644 3.0377 0
M  V30 1074 H 181.07 -6.42788 2.55485 0
M  V30 1075 H 181.937 -8.12039 0.792769 0
M  V30 1076 P 185.899 -8.91 -8.29613e-14 0
M  V30 1077 O 186.119 -10.1726 -0.733694 0
M  V30 1078 O 186.689 -8.73148 1.23936 0
M  V30 1079 O 186.149 -7.66872 -0.971405 0
M  V30 1080 C 185.209 -7.42309 -2.04641 0
M  V30 1081 C 185.939 -6.86059 -3.24661 0
M  V30 1082 O 186.149 -5.42847 -3.03646 0
M  V30 1083 C 187.339 -7.41196 -3.50753 0
M  V30 1084 O 187.729 -7.27073 -4.86816 0
M  V30 1085 C 188.219 -6.5273 -2.63741 0
M  V30 1086 C 187.509 -5.1842 -2.73198 0
M  V30 1087 N 187.559 -4.38762 -1.4784 0
M  V30 1088 H 184.72 -8.36803 -2.32493 0
M  V30 1089 H 184.45 -6.70197 -1.71129 0
M  V30 1090 H 185.317 -7.03551 -4.13168 0
M  V30 1091 P 189.279 -7.20834 -5.23717 0
M  V30 1092 O 189.499 -7.7993 -6.57351 0
M  V30 1093 O 190.069 -7.79328 -4.13004 0
M  V30 1094 O 189.529 -5.63315 -5.29344 0
M  V30 1095 C 188.589 -4.80193 -6.01798 0
M  V30 1096 C 189.319 -3.64202 -6.65911 0
M  V30 1097 O 189.529 -2.60694 -5.64732 0
M  V30 1098 C 190.719 -3.93473 -7.1943 0
M  V30 1099 O 191.109 -3.02071 -8.21205 0
M  V30 1100 C 191.599 -3.73047 -5.97036 0
M  V30 1101 C 190.889 -2.58828 -5.25741 0
M  V30 1102 N 190.939 -2.6801 -3.77422 0
M  V30 1103 C 191.089 -1.50443 -3.07133 0
M  V30 1104 O 191.179 -0.419406 -3.61576 0
M  V30 1105 N 191.129 -1.6403 -1.69677 0
M  V30 1106 C 191.039 -2.81206 -0.986255 0
M  V30 1107 C 190.889 -3.99158 -1.80325 0
M  V30 1108 C 190.839 -3.89779 -3.1476 0
M  V30 1109 H 188.099 -5.40332 -6.79951 0
M  V30 1110 H 187.83 -4.41549 -5.32301 0
M  V30 1111 H 188.697 -3.26331 -7.47797 0
M  V30 1112 H 191.352 -1.6395 -5.56554 0
M  V30 1113 H 191.631 -4.63439 -5.3432 0
M  V30 1114 H 192.623 -3.44728 -6.25838 0
M  V30 1115 H 190.789 -4.96652 -7.57263 0
M  V30 1116 H 190.718 -4.80159 -3.74441 0
M  V30 1117 P 192.659 -2.75334 -8.47391 0
M  V30 1118 O 192.879 -2.44571 -9.90142 0
M  V30 1119 O 193.449 -3.87688 -7.92115 0
M  V30 1120 O 192.909 -1.4459 -7.59357 0
M  V30 1121 C 191.969 -0.347608 -7.69215 0
M  V30 1122 C 192.699 0.96767 -7.52806 0
M  V30 1123 O 192.909 1.21036 -6.1011 0
M  V30 1124 C 194.099 1.04544 -8.13308 0
M  V30 1125 O 194.489 2.38311 -8.41922 0
M  V30 1126 C 194.979 0.491279 -7.02284 0
M  V30 1127 C 194.269 0.996264 -5.77469 0
M  V30 1128 N 194.319 0.0501916 -4.62973 0
M  V30 1129 H 191.48 -0.374722 -8.67691 0
M  V30 1130 H 191.21 -0.443485 -6.90277 0
M  V30 1131 H 192.077 1.75537 -7.96793 0
M  V30 1132 P 196.039 2.75334 -8.47391 0
M  V30 1133 O 196.259 3.84128 -9.44797 0
M  V30 1134 O 196.829 1.51947 -8.68712 0
M  V30 1135 O 196.289 3.29363 -6.99321 0
M  V30 1136 C 195.349 4.24011 -6.4274 0
M  V30 1137 C 196.079 5.20775 -5.52155 0
M  V30 1138 O 196.289 4.56534 -4.22446 0
M  V30 1139 C 197.479 5.62629 -5.96531 0
M  V30 1140 O 197.869 6.87667 -5.41053 0
M  V30 1141 C 198.359 4.52537 -5.39283 0
M  V30 1142 C 197.649 4.20027 -4.08623 0
M  V30 1143 N 197.699 2.76189 -3.71603 0
M  V30 1144 H 194.86 4.797 -7.24003 0
M  V30 1145 H 194.59 3.69856 -5.84513 0
M  V30 1146 H 195.457 6.10356 -5.41441 0
M  V30 1147 P 199.419 7.20834 -5.23717 0
M  V30 1148 O 199.639 8.66274 -5.38678 0
M  V30 1149 O 200.209 6.33687 -6.13629 0
M  V30 1150 O 199.669 6.7751 -3.72168 0
M  V30 1151 C 198.729 7.20919 -2.70795 0
M  V30 1152 C 199.459 7.45864 -1.40599 0
M  V30 1153 O 199.669 6.17751 -0.734343 0
M  V30 1154 C 200.859 8.05906 -1.51917 0
M  V30 1155 O 201.249 8.74358 -0.335205 0
M  V30 1156 C 201.739 6.83093 -1.70294 0
M  V30 1157 C 201.029 5.79992 -0.836974 0
M  V30 1158 N 201.079 4.41864 -1.38293 0
M  V30 1159 H 198.241 8.13738 -3.03804 0
M  V30 1160 H 197.969 6.42974 -2.55559 0
M  V30 1161 H 198.837 8.12139 -0.792866 0
M  V30 1162 H 201.492 5.80178 0.160643 0
M  V30 1163 H 201.772 6.51379 -2.75643 0
M  V30 1164 H 202.763 7.01832 -1.3448 0
M  V30 1165 H 200.929 8.73771 -2.38364 0
M  V30 1166 P 202.799 8.91 2.40144e-13 0
M  V30 1167 O 203.019 10.1726 0.733694 0
M  V30 1168 O 203.589 8.73148 -1.23936 0
M  V30 1169 O 203.049 7.66872 0.971405 0
M  V30 1170 C 202.109 7.42309 2.04641 0
M  V30 1171 C 202.839 6.86059 3.24661 0
M  V30 1172 O 203.049 5.42847 3.03646 0
M  V30 1173 C 204.239 7.41196 3.50753 0
M  V30 1174 O 204.629 7.27073 4.86816 0
M  V30 1175 C 205.119 6.5273 2.63741 0
M  V30 1176 C 204.409 5.1842 2.73198 0
M  V30 1177 N 204.459 4.38762 1.4784 0
M  V30 1178 H 201.62 8.36803 2.32493 0
M  V30 1179 H 201.35 6.70197 1.71129 0
M  V30 1180 H 202.217 7.03551 4.13168 0
M  V30 1181 P 206.179 7.20834 5.23717 0
M  V30 1182 O 206.399 7.80006 6.57415 0
M  V30 1183 O 206.969 7.79416 4.13051 0
M  V30 1184 O 206.429 5.63315 5.29344 0
M  V30 1185 C 205.489 4.80318 6.01954 0
M  V30 1186 C 206.219 3.64202 6.65911 0
M  V30 1187 O 206.429 2.60736 5.64823 0
M  V30 1188 C 207.619 3.93521 7.19518 0
M  V30 1189 O 208.009 3.02071 8.21205 0
M  V30 1190 C 208.499 3.73047 5.97036 0
M  V30 1191 C 207.789 2.58828 5.25741 0
M  V30 1192 N 207.839 2.68068 3.77503 0
M  V30 1193 C 207.759 3.80474 2.99159 0
M  V30 1194 N 207.829 3.55622 1.71925 0
M  V30 1195 C 207.979 2.1832 1.65733 0
M  V30 1196 C 208.109 1.28842 0.572777 0
M  V30 1197 N 208.119 1.66875 -0.70098 0
M  V30 1198 N 208.229 -0.016788 0.859836 0
M  V30 1199 C 208.219 -0.398145 2.13316 0
M  V30 1200 N 208.099 0.328224 3.22333 0
M  V30 1201 C 207.979 1.62992 2.90383 0
M  V30 1202 H 205.001 5.40394 6.8003 0
M  V30 1203 H 204.729 4.41741 5.32532 0
M  V30 1204 H 205.597 3.26371 7.47889 0
M  V30 1205 H 208.252 1.64007 5.56746 0
M  V30 1206 H 208.532 4.63439 5.3432 0
M  V30 1207 H 209.523 3.44776 6.25925 0
M  V30 1208 H 207.689 4.96707 7.57347 0
M  V30 1209 H 207.648 4.8089 3.39924 0
M  V30 1210 H 208.029 2.66547 -0.941919 0
M  V30 1211 H 208.218 0.965341 -1.44766 0
M  V30 1212 H 208.326 -1.46427 2.29697 0
M  V30 1213 P 209.559 2.75334 8.47391 0
M  V30 1214 O 209.779 2.44571 9.90142 0
M  V30 1215 O 210.349 3.87688 7.92115 0
M  V30 1216 O 209.809 1.4459 7.59357 0
M  V30 1217 C 208.869 0.347608 7.69215 0
M  V30 1218 C 209.599 -0.96767 7.52806 0
M  V30 1219 O 209.809 -1.21036 6.1011 0
M  V30 1220 C 210.999 -1.04544 8.13308 0
M  V30 1221 O 211.389 -2.38311 8.41922 0
M  V30 1222 C 211.879 -0.491279 7.02284 0
M  V30 1223 C 211.169 -0.996264 5.77469 0
M  V30 1224 N 211.219 -0.0501916 4.62973 0
M  V30 1225 H 208.38 0.374722 8.67691 0
M  V30 1226 H 208.11 0.443485 6.90277 0
M  V30 1227 H 208.977 -1.75537 7.96793 0
M  V30 1228 P 212.939 -2.75334 8.47391 0
M  V30 1229 O 213.159 -3.84128 9.44797 0
M  V30 1230 O 213.729 -1.51947 8.68712 0
M  V30 1231 O 213.189 -3.29363 6.99321 0
M  V30 1232 C 212.249 -4.24011 6.4274 0
M  V30 1233 C 212.979 -5.20775 5.52155 0
M  V30 1234 O 213.189 -4.56534 4.22446 0
M  V30 1235 C 214.379 -5.62629 5.96531 0
M  V30 1236 O 214.769 -6.87667 5.41053 0
M  V30 1237 C 215.259 -4.52537 5.39283 0
M  V30 1238 C 214.549 -4.20027 4.08623 0
M  V30 1239 N 214.599 -2.76189 3.71603 0
M  V30 1240 H 211.76 -4.797 7.24003 0
M  V30 1241 H 211.49 -3.69856 5.84513 0
M  V30 1242 H 212.357 -6.10356 5.41441 0
M  V30 1243 P 216.319 -7.20834 5.23717 0
M  V30 1244 O 216.539 -8.66104 5.38572 0
M  V30 1245 O 217.109 -6.33544 6.1349 0
M  V30 1246 O 216.569 -6.7751 3.72168 0
M  V30 1247 C 215.629 -7.20825 2.7076 0
M  V30 1248 C 216.359 -7.45864 1.40599 0
M  V30 1249 O 216.569 -6.17651 0.734225 0
M  V30 1250 C 217.759 -8.05808 1.51899 0
M  V30 1251 O 218.149 -8.74358 0.335205 0
M  V30 1252 C 218.639 -6.83093 1.70294 0
M  V30 1253 C 217.929 -5.79992 0.836974 0
M  V30 1254 N 217.979 -4.41864 1.38293 0
M  V30 1255 H 215.14 -8.13644 3.0377 0
M  V30 1256 H 214.87 -6.42788 2.55485 0
M  V30 1257 H 215.737 -8.12039 0.792769 0
M  V30 1258 P 219.699 -8.91 -3.97326e-13 0
M  V30 1259 O 219.919 -10.1726 -0.733694 0
M  V30 1260 O 220.489 -8.73148 1.23936 0
M  V30 1261 O 219.949 -7.66872 -0.971405 0
M  V30 1262 C 219.009 -7.42309 -2.04641 0
M  V30 1263 C 219.739 -6.86059 -3.24661 0
M  V30 1264 O 219.949 -5.42847 -3.03646 0
M  V30 1265 C 221.139 -7.41196 -3.50753 0
M  V30 1266 O 221.529 -7.27073 -4.86816 0
M  V30 1267 C 222.019 -6.5273 -2.63741 0
M  V30 1268 C 221.309 -5.1842 -2.73198 0
M  V30 1269 N 221.359 -4.38762 -1.4784 0
M  V30 1270 H 218.52 -8.36803 -2.32493 0
M  V30 1271 H 218.25 -6.70197 -1.71129 0
M  V30 1272 H 219.117 -7.03551 -4.13168 0
M  V30 1273 P 223.079 -7.20834 -5.23717 0
M  V30 1274 O 223.299 -7.79853 -6.57286 0
M  V30 1275 O 223.869 -7.79239 -4.12957 0
M  V30 1276 O 223.329 -5.63315 -5.29344 0
M  V30 1277 C 222.389 -4.80255 -6.01876 0
M  V30 1278 C 223.119 -3.64202 -6.65911 0
M  V30 1279 O 223.329 -2.60694 -5.64732 0
M  V30 1280 C 224.519 -3.93473 -7.1943 0
M  V30 1281 O 224.909 -3.02071 -8.21205 0
M  V30 1282 C 225.399 -3.73047 -5.97036 0
M  V30 1283 C 224.689 -2.58828 -5.25741 0
M  V30 1284 N 224.739 -2.68068 -3.77503 0
M  V30 1285 H 221.9 -5.40332 -6.79951 0
M  V30 1286 H 221.63 -4.41613 -5.32378 0
M  V30 1287 H 222.497 -3.26331 -7.47797 0
M  V30 1288 P 226.459 -2.75334 -8.47391 0
M  V30 1289 O 226.679 -2.44571 -9.90142 0
M  V30 1290 O 227.249 -3.87688 -7.92115 0
M  V30 1291 O 226.709 -1.4459 -7.59357 0
M  V30 1292 C 225.769 -0.347608 -7.69215 0
M  V30 1293 C 226.499 0.96767 -7.52806 0
M  V30 1294 O 226.709 1.21036 -6.1011 0
M  V30 1295 C 227.899 1.04544 -8.13308 0
M  V30 1296 O 228.289 2.38311 -8.41922 0
M  V30 1297 C 228.779 0.491279 -7.02284 0
M  V30 1298 C 228.069 0.996264 -5.77469 0
M  V30 1299 N 228.119 0.0501916 -4.62973 0
M  V30 1300 H 225.28 -0.374722 -8.67691 0
M  V30 1301 H 225.01 -0.443485 -6.90277 0
M  V30 1302 H 225.877 1.75537 -7.96793 0
M  V30 1303 P 229.839 2.75334 -8.47391 0
M  V30 1304 O 230.059 3.84128 -9.44797 0
M  V30 1305 O 230.629 1.51947 -8.68712 0
M  V30 1306 O 230.089 3.29363 -6.99321 0
M  V30 1307 C 229.149 4.24011 -6.4274 0
M  V30 1308 C 229.879 5.20775 -5.52155 0
M  V30 1309 O 230.089 4.56534 -4.22446 0
M  V30 1310 C 231.279 5.62629 -5.96531 0
M  V30 1311 O 231.669 6.87667 -5.41053 0
M  V30 1312 C 232.159 4.52537 -5.39283 0
M  V30 1313 C 231.449 4.20027 -4.08623 0
M  V30 1314 N 231.499 2.76189 -3.71603 0
M  V30 1315 H 228.66 4.797 -7.24003 0
M  V30 1316 H 228.39 3.69856 -5.84513 0
M  V30 1317 H 229.257 6.10356 -5.41441 0
M  V30 1318 P 233.219 7.20834 -5.23717 0
M  V30 1319 O 233.439 8.66104 -5.38572 0
M  V30 1320 O 234.009 6.33544 -6.1349 0
M  V30 1321 O 233.469 6.7751 -3.72168 0
M  V30 1322 C 232.529 7.20825 -2.7076 0
M  V30 1323 C 233.259 7.45864 -1.40599 0
M  V30 1324 O 233.469 6.17651 -0.734225 0
M  V30 1325 C 234.659 8.05808 -1.51899 0
M  V30 1326 O 235.049 8.74358 -0.335205 0
M  V30 1327 C 235.539 6.83093 -1.70294 0
M  V30 1328 C 234.829 5.79992 -0.836974 0
M  V30 1329 N 234.879 4.41864 -1.38293 0
M  V30 1330 H 232.04 8.13644 -3.0377 0
M  V30 1331 H 231.77 6.42788 -2.55485 0
M  V30 1332 H 232.637 8.12039 -0.792769 0
M  V30 1333 P 236.599 8.91 5.54508e-13 0
M  V30 1334 O 236.819 10.1736 0.733766 0
M  V30 1335 O 237.389 8.73247 -1.2395 0
M  V30 1336 O 236.849 7.66872 0.971405 0
M  V30 1337 C 235.909 7.42212 2.04614 0
M  V30 1338 C 236.639 6.86059 3.24661 0
M  V30 1339 O 236.849 5.42847 3.03646 0
M  V30 1340 C 238.039 7.41196 3.50753 0
M  V30 1341 O 238.429 7.27073 4.86816 0
M  V30 1342 C 238.919 6.5273 2.63741 0
M  V30 1343 C 238.209 5.1842 2.73198 0
M  V30 1344 N 238.259 4.38668 1.47808 0
M  V30 1345 C 238.409 3.02239 1.60048 0
M  V30 1346 O 238.499 2.46459 2.67869 0
M  V30 1347 N 238.449 2.32436 0.408571 0
M  V30 1348 C 238.359 2.85471 -0.854993 0
M  V30 1349 O 238.409 2.12566 -1.8531 0
M  V30 1350 C 238.209 4.28918 -0.887335 0
M  V30 1351 C 238.099 4.91066 -2.24619 0
M  V30 1352 C 238.159 5.00349 0.255399 0
M  V30 1353 H 235.419 8.36803 2.32493 0
M  V30 1354 H 235.15 6.701 1.71105 0
M  V30 1355 H 236.017 7.03551 4.13168 0
M  V30 1356 H 238.672 4.59773 3.53894 0
M  V30 1357 H 238.951 6.88995 1.59871 0
M  V30 1358 H 239.943 6.46749 3.03687 0
M  V30 1359 H 238.109 8.46908 3.20714 0
M  V30 1360 H 238.038 6.08548 0.206986 0
M  V30 1361 H 239.068 5.34836 -2.53099 0
M  V30 1362 H 237.331 5.69638 -2.2291 0
M  V30 1363 H 237.819 4.13971 -2.98044 0
M  V30 1364 H 238.555 1.33211 0.474216 0
M  V30 1365 P 239.979 7.20834 5.23717 0
M  V30 1366 O 240.199 7.79853 6.57286 0
M  V30 1367 O 240.769 7.79239 4.12957 0
M  V30 1368 O 240.229 5.63315 5.29344 0
M  V30 1369 C 239.289 4.80255 6.01876 0
M  V30 1370 C 240.019 3.64202 6.65911 0
M  V30 1371 O 240.229 2.60694 5.64732 0
M  V30 1372 C 241.419 3.93473 7.1943 0
M  V30 1373 O 241.809 3.02071 8.21205 0
M  V30 1374 C 242.299 3.73047 5.97036 0
M  V30 1375 C 241.589 2.58828 5.25741 0
M  V30 1376 N 241.639 2.68068 3.77503 0
M  V30 1377 H 238.8 5.40332 6.79951 0
M  V30 1378 H 238.53 4.41613 5.32378 0
M  V30 1379 H 239.397 3.26331 7.47797 0
M  V30 1380 P 243.359 2.75334 8.47391 0
M  V30 1381 O 243.579 2.44571 9.90142 0
M  V30 1382 O 244.149 3.87688 7.92115 0
M  V30 1383 O 243.609 1.4459 7.59357 0
M  V30 1384 C 242.669 0.347608 7.69215 0
M  V30 1385 C 243.399 -0.96767 7.52806 0
M  V30 1386 O 243.609 -1.21036 6.1011 0
M  V30 1387 C 244.799 -1.04544 8.13308 0
M  V30 1388 O 245.189 -2.38311 8.41922 0
M  V30 1389 C 245.679 -0.491279 7.02284 0
M  V30 1390 C 244.969 -0.996264 5.77469 0
M  V30 1391 N 245.019 -0.0501916 4.62973 0
M  V30 1392 C 244.939 1.32786 4.63244 0
M  V30 1393 N 245.019 1.86957 3.44545 0
M  V30 1394 C 245.159 0.780241 2.58481 0
M  V30 1395 C 245.289 0.738536 1.17757 0
M  V30 1396 O 245.309 1.66794 0.372349 0
M  V30 1397 N 245.409 -0.58337 0.711393 0
M  V30 1398 C 245.409 -1.70816 1.51017 0
M  V30 1399 N 245.539 -2.87826 0.880757 0
M  V30 1400 N 245.279 -1.67126 2.8339 0
M  V30 1401 C 245.159 -0.401421 3.30572 0
M  V30 1402 H 242.18 0.374722 8.67691 0
M  V30 1403 H 241.91 0.443485 6.90277 0
M  V30 1404 H 242.777 -1.75537 7.96793 0
M  V30 1405 H 245.432 -1.95076 5.46529 0
M  V30 1406 H 245.711 0.608565 7.04577 0
M  V30 1407 H 246.703 -0.889672 7.08939 0
M  V30 1408 H 244.869 -0.43308 9.04564 0
M  V30 1409 H 244.82 1.91249 5.54442 0
M  V30 1410 H 245.502 -0.718054 -0.275244 0
M  V30 1411 H 245.539 -3.75721 1.41832 0
M  V30 1412 H 245.64 -2.90436 -0.145468 0
M  V30 1413 P 246.739 -2.75334 8.47391 0
M  V30 1414 O 246.959 -3.84128 9.44797 0
M  V30 1415 O 247.529 -1.51947 8.68712 0
M  V30 1416 O 246.989 -3.29363 6.99321 0
M  V30 1417 C 246.049 -4.24011 6.4274 0
M  V30 1418 C 246.779 -5.20775 5.52155 0
M  V30 1419 O 246.989 -4.56534 4.22446 0
M  V30 1420 C 248.179 -5.62629 5.96531 0
M  V30 1421 O 248.569 -6.87667 5.41053 0
M  V30 1422 C 249.059 -4.52537 5.39283 0
M  V30 1423 C 248.349 -4.20027 4.08623 0
M  V30 1424 N 248.399 -2.76189 3.71603 0
M  V30 1425 H 245.56 -4.797 7.24003 0
M  V30 1426 H 245.29 -3.69856 5.84513 0
M  V30 1427 H 246.157 -6.10356 5.41441 0
M  V30 1428 P 250.119 -7.20834 5.23717 0
M  V30 1429 O 250.339 -8.66104 5.38572 0
M  V30 1430 O 250.909 -6.33544 6.1349 0
M  V30 1431 O 250.369 -6.7751 3.72168 0
M  V30 1432 C 249.429 -7.20825 2.7076 0
M  V30 1433 C 250.159 -7.45864 1.40599 0
M  V30 1434 O 250.369 -6.17651 0.734225 0
M  V30 1435 C 251.559 -8.05808 1.51899 0
M  V30 1436 O 251.949 -8.74358 0.335205 0
M  V30 1437 C 252.439 -6.83093 1.70294 0
M  V30 1438 C 251.729 -5.79992 0.836974 0
M  V30 1439 N 251.779 -4.41864 1.38293 0
M  V30 1440 H 248.94 -8.13644 3.0377 0
M  V30 1441 H 248.67 -6.42788 2.55485 0
M  V30 1442 H 249.537 -8.12039 0.792769 0
M  V30 1443 P 253.498 -8.91 -7.1169e-13 0
M  V30 1444 O 253.718 -10.1726 -0.733694 0
M  V30 1445 O 254.288 -8.73148 1.23936 0
M  V30 1446 O 253.748 -7.66872 -0.971405 0
M  V30 1447 C 252.808 -7.42309 -2.04641 0
M  V30 1448 C 253.538 -6.86059 -3.24661 0
M  V30 1449 O 253.748 -5.42847 -3.03646 0
M  V30 1450 C 254.938 -7.41196 -3.50753 0
M  V30 1451 O 255.328 -7.27073 -4.86816 0
M  V30 1452 C 255.818 -6.5273 -2.63741 0
M  V30 1453 C 255.108 -5.1842 -2.73198 0
M  V30 1454 N 255.158 -4.38762 -1.4784 0
M  V30 1455 H 252.319 -8.36803 -2.32493 0
M  V30 1456 H 252.049 -6.70197 -1.71129 0
M  V30 1457 H 252.916 -7.03551 -4.13168 0
M  V30 1458 P 256.878 -7.20834 -5.23717 0
M  V30 1459 O 257.098 -7.80006 -6.57415 0
M  V30 1460 O 257.668 -7.79416 -4.13051 0
M  V30 1461 O 257.128 -5.63315 -5.29344 0
M  V30 1462 C 256.188 -4.80318 -6.01954 0
M  V30 1463 C 256.918 -3.64202 -6.65911 0
M  V30 1464 O 257.128 -2.60736 -5.64823 0
M  V30 1465 C 258.318 -3.93521 -7.19518 0
M  V30 1466 O 258.708 -3.02071 -8.21205 0
M  V30 1467 C 259.198 -3.73047 -5.97036 0
M  V30 1468 C 258.488 -2.58828 -5.25741 0
M  V30 1469 N 258.538 -2.68068 -3.77503 0
M  V30 1470 C 258.458 -3.80474 -2.99159 0
M  V30 1471 N 258.528 -3.55622 -1.71925 0
M  V30 1472 C 258.678 -2.1832 -1.65733 0
M  V30 1473 C 258.808 -1.28842 -0.572777 0
M  V30 1474 N 258.818 -1.66875 0.70098 0
M  V30 1475 N 258.928 0.016788 -0.859836 0
M  V30 1476 C 258.918 0.398145 -2.13316 0
M  V30 1477 N 258.798 -0.328224 -3.22333 0
M  V30 1478 C 258.678 -1.62992 -2.90383 0
M  V30 1479 H 255.7 -5.40394 -6.8003 0
M  V30 1480 H 255.428 -4.41741 -5.32532 0
M  V30 1481 H 256.296 -3.26371 -7.47889 0
M  V30 1482 H 258.951 -1.64007 -5.56746 0
M  V30 1483 H 259.231 -4.63439 -5.3432 0
M  V30 1484 H 260.222 -3.44776 -6.25925 0
M  V30 1485 H 258.388 -4.96707 -7.57347 0
M  V30 1486 H 258.347 -4.8089 -3.39924 0
M  V30 1487 H 258.728 -2.66547 0.941919 0
M  V30 1488 H 258.917 -0.965341 1.44766 0
M  V30 1489 H 259.025 1.46427 -2.29697 0
M  V30 1490 P 260.258 -2.75334 -8.47391 0
M  V30 1491 O 260.478 -2.44619 -9.90336 0
M  V30 1492 O 261.048 -3.87776 -7.92294 0
M  V30 1493 O 260.508 -1.4459 -7.59357 0
M  V30 1494 C 259.568 -0.347653 -7.69315 0
M  V30 1495 C 260.298 0.96767 -7.52806 0
M  V30 1496 O 260.508 1.21055 -6.10208 0
M  V30 1497 C 261.698 1.04557 -8.13408 0
M  V30 1498 O 262.088 2.38311 -8.41922 0
M  V30 1499 C 262.578 0.491279 -7.02284 0
M  V30 1500 C 261.868 0.996264 -5.77469 0
M  V30 1501 N 261.918 0.0501916 -4.62973 0
M  V30 1502 C 261.838 -1.31969 -4.65661 0
M  V30 1503 N 261.908 -1.86649 -3.48119 0
M  V30 1504 C 262.058 -0.792089 -2.62406 0
M  V30 1505 C 262.188 -0.705684 -1.2207 0
M  V30 1506 N 262.198 -1.76207 -0.413762 0
M  V30 1507 N 262.308 0.518981 -0.685754 0
M  V30 1508 C 262.298 1.57595 -1.49174 0
M  V30 1509 N 262.178 1.62909 -2.80066 0
M  V30 1510 C 262.058 0.388195 -3.3073 0
M  V30 1511 H 259.08 -0.374765 -8.67791 0
M  V30 1512 H 258.808 -0.443613 -6.90476 0
M  V30 1513 H 259.676 1.75559 -7.96891 0
M  V30 1514 H 262.331 1.94563 -5.46818 0
M  V30 1515 H 262.611 -0.608651 -7.04676 0
M  V30 1516 H 263.602 0.889796 -7.09039 0
M  V30 1517 H 261.768 0.433128 -9.04664 0
M  V30 1518 H 261.727 -1.89246 -5.57664 0
M  V30 1519 H 262.108 -2.71005 -0.804694 0
M  V30 1520 H 262.297 -1.63189 0.603768 0
M  V30 1521 H 262.405 2.53475 -0.997614 0
M  V30 1522 P 263.638 2.75334 -8.47391 0
M  V30 1523 O 263.858 3.84128 -9.44797 0
M  V30 1524 O 264.428 1.51947 -8.68712 0
M  V30 1525 O 263.888 3.29363 -6.99321 0
M  V30 1526 C 262.948 4.24011 -6.4274 0
M  V30 1527 C 263.678 5.20775 -5.52155 0
M  V30 1528 O 263.888 4.56534 -4.22446 0
M  V30 1529 C 265.078 5.62629 -5.96531 0
M  V30 1530 O 265.468 6.87667 -5.41053 0
M  V30 1531 C 265.958 4.52537 -5.39283 0
M  V30 1532 C 265.248 4.20027 -4.08623 0
M  V30 1533 N 265.298 2.76189 -3.71603 0
M  V30 1534 H 262.459 4.797 -7.24003 0
M  V30 1535 H 262.189 3.69856 -5.84513 0
M  V30 1536 H 263.056 6.10356 -5.41441 0
M  V30 1537 P 267.018 7.20834 -5.23717 0
M  V30 1538 O 267.238 8.66104 -5.38572 0
M  V30 1539 O 267.808 6.33544 -6.1349 0
M  V30 1540 O 267.268 6.7751 -3.72168 0
M  V30 1541 C 266.328 7.20825 -2.7076 0
M  V30 1542 C 267.058 7.45864 -1.40599 0
M  V30 1543 O 267.268 6.17651 -0.734225 0
M  V30 1544 C 268.458 8.05808 -1.51899 0
M  V30 1545 O 268.848 8.74358 -0.335205 0
M  V30 1546 C 269.338 6.83093 -1.70294 0
M  V30 1547 C 268.628 5.79992 -0.836974 0
M  V30 1548 N 268.678 4.41864 -1.38293 0
M  V30 1549 H 265.839 8.13644 -3.0377 0
M  V30 1550 H 265.569 6.42788 -2.55485 0
M  V30 1551 H 266.436 8.12039 -0.792769 0
M  V30 1552 P 270.398 8.91 8.68872e-13 0
M  V30 1553 O 270.618 10.1726 0.733694 0
M  V30 1554 O 271.188 8.73148 -1.23936 0
M  V30 1555 O 270.648 7.66872 0.971405 0
M  V30 1556 C 269.708 7.42309 2.04641 0
M  V30 1557 C 270.438 6.86059 3.24661 0
M  V30 1558 O 270.648 5.42847 3.03646 0
M  V30 1559 C 271.838 7.41196 3.50753 0
M  V30 1560 O 272.228 7.27073 4.86816 0
M  V30 1561 C 272.718 6.5273 2.63741 0
M  V30 1562 C 272.008 5.1842 2.73198 0
M  V30 1563 N 272.058 4.38762 1.4784 0
M  V30 1564 C 271.978 4.81605 0.168631 0
M  V30 1565 N 272.058 3.85454 -0.713363 0
M  V30 1566 C 272.198 2.6994 0.0566958 0
M  V30 1567 C 272.328 1.34815 -0.338502 0
M  V30 1568 N 272.448 0.496304 0.77465 0
M  V30 1569 C 272.448 0.908403 2.09122 0
M  V30 1570 N 272.578 -0.0517805 3.00955 0
M  V30 1571 N 272.318 2.17875 2.46519 0
M  V30 1572 C 272.198 3.01988 1.4033 0
M  V30 1573 H 269.219 8.36803 2.32493 0
M  V30 1574 H 268.949 6.70197 1.71129 0
M  V30 1575 H 269.816 7.03551 4.13168 0
M  V30 1576 P 273.778 7.20834 5.23717 0
M  V30 1577 O 273.998 7.80006 6.57415 0
M  V30 1578 O 274.568 7.79416 4.13051 0
M  V30 1579 O 274.028 5.63315 5.29344 0
M  V30 1580 C 273.088 4.80318 6.01954 0
M  V30 1581 C 273.818 3.64202 6.65911 0
M  V30 1582 O 274.028 2.60736 5.64823 0
M  V30 1583 C 275.218 3.93521 7.19518 0
M  V30 1584 O 275.608 3.02071 8.21205 0
M  V30 1585 C 276.098 3.73047 5.97036 0
M  V30 1586 C 275.388 2.58828 5.25741 0
M  V30 1587 N 275.438 2.68068 3.77503 0
M  V30 1588 C 275.358 3.80474 2.99159 0
M  V30 1589 N 275.428 3.55622 1.71925 0
M  V30 1590 C 275.578 2.1832 1.65733 0
M  V30 1591 C 275.708 1.28842 0.572777 0
M  V30 1592 N 275.718 1.66875 -0.70098 0
M  V30 1593 N 275.828 -0.016788 0.859836 0
M  V30 1594 C 275.818 -0.398145 2.13316 0
M  V30 1595 N 275.698 0.328224 3.22333 0
M  V30 1596 C 275.578 1.62992 2.90383 0
M  V30 1597 H 272.6 5.40394 6.8003 0
M  V30 1598 H 272.328 4.41741 5.32532 0
M  V30 1599 H 273.196 3.26371 7.47889 0
M  V30 1600 H 275.851 1.64007 5.56746 0
M  V30 1601 H 276.131 4.63439 5.3432 0
M  V30 1602 H 277.122 3.44776 6.25925 0
M  V30 1603 H 275.288 4.96707 7.57347 0
M  V30 1604 H 275.247 4.8089 3.39924 0
M  V30 1605 H 275.628 2.66547 -0.941919 0
M  V30 1606 H 275.817 0.965341 -1.44766 0
M  V30 1607 H 275.925 -1.46427 2.29697 0
M  V30 1608 P 277.158 2.75334 8.47391 0
M  V30 1609 O 277.378 2.44595 9.90239 0
M  V30 1610 O 277.948 3.87732 7.92204 0
M  V30 1611 O 277.408 1.4459 7.59357 0
M  V30 1612 C 276.468 0.347608 7.69215 0
M  V30 1613 C 277.198 -0.96767 7.52806 0
M  V30 1614 O 277.408 -1.21036 6.1011 0
M  V30 1615 C 278.598 -1.04544 8.13308 0
M  V30 1616 O 278.988 -2.38311 8.41922 0
M  V30 1617 C 279.478 -0.491279 7.02284 0
M  V30 1618 C 278.768 -0.996264 5.77469 0
M  V30 1619 N 278.818 -0.0501808 4.62873 0
M  V30 1620 C 278.968 -0.578037 3.3505 0
M  V30 1621 O 279.058 -1.8073 3.21711 0
M  V30 1622 N 279.018 0.468541 2.263 0
M  V30 1623 C 278.918 1.59186 2.47176 0
M  V30 1624 N 278.968 2.37626 1.40392 0
M  V30 1625 C 278.768 2.16203 3.77467 0
M  V30 1626 C 278.718 1.29324 4.8195 0
M  V30 1627 H 275.978 0.374679 8.67591 0
M  V30 1628 H 275.709 0.443421 6.90177 0
M  V30 1629 H 276.576 -1.75559 7.96891 0
M  V30 1630 H 279.231 -1.94529 5.46723 0
M  V30 1631 H 279.51 0.608651 7.04676 0
M  V30 1632 H 280.502 -0.889672 7.08939 0
M  V30 1633 H 278.668 -0.43308 9.04564 0
M  V30 1634 H 278.596 1.67758 5.83046 0
M  V30 1635 H 278.698 3.23869 3.92281 0
M  V30 1636 H 279.086 1.96317 0.467202 0
M  V30 1637 H 278.889 3.39693 1.51142 0
M  V30 1638 P 280.538 -2.75334 8.47391 0
M  V30 1639 O 280.758 -3.84128 9.44797 0
M  V30 1640 O 281.328 -1.51947 8.68712 0
M  V30 1641 O 280.788 -3.29363 6.99321 0
M  V30 1642 C 279.848 -4.24011 6.4274 0
M  V30 1643 C 280.578 -5.20775 5.52155 0
M  V30 1644 O 280.788 -4.56534 4.22446 0
M  V30 1645 C 281.978 -5.62629 5.96531 0
M  V30 1646 O 282.368 -6.87667 5.41053 0
M  V30 1647 C 282.858 -4.52537 5.39283 0
M  V30 1648 C 282.148 -4.20027 4.08623 0
M  V30 1649 N 282.198 -2.76189 3.71603 0
M  V30 1650 H 279.359 -4.797 7.24003 0
M  V30 1651 H 279.089 -3.69856 5.84513 0
M  V30 1652 H 279.956 -6.10356 5.41441 0
M  V30 1653 P 283.918 -7.20834 5.23717 0
M  V30 1654 O 284.138 -8.66189 5.38625 0
M  V30 1655 O 284.708 -6.33615 6.1356 0
M  V30 1656 O 284.168 -6.7751 3.72168 0
M  V30 1657 C 283.228 -7.20732 2.70725 0
M  V30 1658 C 283.958 -7.45864 1.40599 0
M  V30 1659 O 284.168 -6.17651 0.734225 0
M  V30 1660 C 285.358 -8.05808 1.51899 0
M  V30 1661 O 285.748 -8.74358 0.335205 0
M  V30 1662 C 286.238 -6.83093 1.70294 0
M  V30 1663 C 285.528 -5.79992 0.836974 0
M  V30 1664 N 285.578 -4.41769 1.38263 0
M  V30 1665 C 285.728 -3.38591 0.481702 0
M  V30 1666 O 285.818 -3.56839 -0.718452 0
M  V30 1667 N 285.768 -2.1206 1.03569 0
M  V30 1668 C 285.678 -1.80696 2.36966 0
M  V30 1669 O 285.728 -0.630473 2.74862 0
M  V30 1670 C 285.528 -2.94845 3.23898 0
M  V30 1671 C 285.418 -2.65253 4.70362 0
M  V30 1672 C 285.478 -4.19803 2.73435 0
M  V30 1673 H 282.738 -8.13644 3.0377 0
M  V30 1674 H 282.469 -6.42695 2.55448 0
M  V30 1675 H 283.336 -8.12039 0.792769 0
M  V30 1676 H 285.991 -5.79978 -0.160587 0
M  V30 1677 H 286.27 -6.51379 2.75643 0
M  V30 1678 H 287.262 -7.01734 1.34462 0
M  V30 1679 H 285.428 -8.73674 2.38337 0
M  V30 1680 H 285.357 -5.04492 3.4095 0
M  V30 1681 H 286.387 -2.83924 5.1913 0
M  V30 1682 H 284.65 -3.29824 5.15163 0
M  V30 1683 H 285.138 -1.59723 4.84449 0
M  V30 1684 H 285.874 -1.35644 0.399345 0
M  V30 1685 P 287.298 -8.91 -1.02605e-12 0
M  V30 1686 O 287.518 -10.1746 -0.733838 0
M  V30 1687 O 288.088 -8.73346 1.23964 0
M  V30 1688 O 287.548 -7.66872 -0.971405 0
M  V30 1689 C 286.608 -7.42405 -2.04668 0
M  V30 1690 C 287.338 -6.86059 -3.24661 0
M  V30 1691 O 287.548 -5.42934 -3.03695 0
M  V30 1692 C 288.738 -7.41287 -3.50796 0
M  V30 1693 O 289.128 -7.27073 -4.86816 0
M  V30 1694 C 289.618 -6.5273 -2.63741 0
M  V30 1695 C 288.908 -5.1842 -2.73198 0
M  V30 1696 N 288.958 -4.38762 -1.4784 0
M  V30 1697 C 288.878 -4.83651 -0.183876 0
M  V30 1698 N 288.948 -3.88759 0.699393 0
M  V30 1699 C 289.098 -2.7404 -0.0575568 0
M  V30 1700 C 289.228 -1.37902 0.293928 0
M  V30 1701 N 289.238 -0.938021 1.54797 0
M  V30 1702 N 289.348 -0.491817 -0.70549 0
M  V30 1703 C 289.338 -0.931735 -1.95979 0
M  V30 1704 N 289.218 -2.16017 -2.41481 0
M  V30 1705 C 289.098 -3.02547 -1.39121 0
M  V30 1706 H 286.12 -8.36899 -2.3252 0
M  V30 1707 H 285.848 -6.70391 -1.71179 0
M  V30 1708 H 286.716 -7.03638 -4.13219 0
M  V30 1709 H 289.371 -4.59931 -3.54016 0
M  V30 1710 H 289.651 -6.88995 -1.59871 0
M  V30 1711 H 290.642 -6.4684 -3.0373 0
M  V30 1712 H 288.808 -8.47002 -3.20749 0
M  V30 1713 H 288.767 -5.8885 0.0765548 0
M  V30 1714 H 289.148 -1.60276 2.32875 0
M  V30 1715 H 289.337 0.0699355 1.73859 0
M  V30 1716 H 289.445 -0.165507 -2.71897 0
M  V30 1717 P 290.678 -7.20834 -5.23717 0
M  V30 1718 O 290.898 -7.7993 -6.57351 0
M  V30 1719 O 291.468 -7.79328 -4.13004 0
M  V30 1720 O 290.928 -5.63315 -5.29344 0
M  V30 1721 C 289.988 -4.80193 -6.01798 0
M  V30 1722 C 290.718 -3.64202 -6.65911 0
M  V30 1723 O 290.928 -2.60694 -5.64732 0
M  V30 1724 C 292.118 -3.93473 -7.1943 0
M  V30 1725 O 292.508 -3.02071 -8.21205 0
M  V30 1726 C 292.998 -3.73047 -5.97036 0
M  V30 1727 C 292.288 -2.58828 -5.25741 0
M  V30 1728 N 292.338 -2.6801 -3.77422 0
M  V30 1729 C 292.488 -1.50443 -3.07133 0
M  V30 1730 O 292.578 -0.419406 -3.61576 0
M  V30 1731 N 292.528 -1.6403 -1.69677 0
M  V30 1732 C 292.438 -2.81206 -0.986255 0
M  V30 1733 O 292.488 -2.80892 0.249754 0
M  V30 1734 C 292.288 -3.99158 -1.80325 0
M  V30 1735 C 292.178 -5.29309 -1.06921 0
M  V30 1736 C 292.238 -3.89779 -3.1476 0
M  V30 1737 H 289.498 -5.40332 -6.79951 0
M  V30 1738 H 289.229 -4.41549 -5.32301 0
M  V30 1739 H 290.096 -3.26331 -7.47797 0
M  V30 1740 H 292.751 -1.6395 -5.56554 0
M  V30 1741 H 293.03 -4.63439 -5.3432 0
M  V30 1742 H 294.022 -3.44728 -6.25838 0
M  V30 1743 H 292.188 -4.96652 -7.57263 0
M  V30 1744 H 292.117 -4.80159 -3.74441 0
M  V30 1745 H 293.147 -5.81459 -1.09608 0
M  V30 1746 H 291.41 -5.9187 -1.54487 0
M  V30 1747 H 291.898 -5.10095 -0.0220288 0
M  V30 1748 H 292.634 -0.798962 -1.16664 0
M  V30 1749 P 294.058 -2.75334 -8.47391 0
M  V30 1750 O 294.278 -2.44595 -9.90239 0
M  V30 1751 O 294.848 -3.87732 -7.92204 0
M  V30 1752 O 294.308 -1.4459 -7.59357 0
M  V30 1753 C 293.368 -0.347608 -7.69215 0
M  V30 1754 C 294.098 0.96767 -7.52806 0
M  V30 1755 O 294.308 1.21036 -6.1011 0
M  V30 1756 C 295.498 1.04544 -8.13308 0
M  V30 1757 O 295.888 2.38311 -8.41922 0
M  V30 1758 C 296.378 0.491279 -7.02284 0
M  V30 1759 C 295.668 0.996264 -5.77469 0
M  V30 1760 N 295.718 0.0501808 -4.62873 0
M  V30 1761 C 295.868 0.578037 -3.3505 0
M  V30 1762 O 295.958 1.8073 -3.21711 0
M  V30 1763 N 295.918 -0.468541 -2.263 0
M  V30 1764 C 295.818 -1.59186 -2.47176 0
M  V30 1765 N 295.868 -2.37626 -1.40392 0
M  V30 1766 C 295.668 -2.16203 -3.77467 0
M  V30 1767 C 295.618 -1.29324 -4.8195 0
M  V30 1768 H 292.878 -0.374679 -8.67591 0
M  V30 1769 H 292.609 -0.443421 -6.90177 0
M  V30 1770 H 293.476 1.75559 -7.96891 0
M  V30 1771 H 296.131 1.94529 -5.46723 0
M  V30 1772 H 296.41 -0.608651 -7.04676 0
M  V30 1773 H 297.402 0.889672 -7.08939 0
M  V30 1774 H 295.568 0.43308 -9.04564 0
M  V30 1775 H 295.496 -1.67758 -5.83046 0
M  V30 1776 H 295.598 -3.23869 -3.92281 0
M  V30 1777 H 295.986 -1.96317 -0.467202 0
M  V30 1778 H 295.789 -3.39693 -1.51142 0
M  V30 1779 P 297.438 2.75334 -8.47391 0
M  V30 1780 O 297.658 3.84128 -9.44797 0
M  V30 1781 O 298.228 1.51947 -8.68712 0
M  V30 1782 O 297.688 3.29363 -6.99321 0
M  V30 1783 C 296.748 4.24011 -6.4274 0
M  V30 1784 C 297.478 5.20775 -5.52155 0
M  V30 1785 O 297.688 4.56534 -4.22446 0
M  V30 1786 C 298.878 5.62629 -5.96531 0
M  V30 1787 O 299.268 6.87667 -5.41053 0
M  V30 1788 C 299.758 4.52537 -5.39283 0
M  V30 1789 C 299.048 4.20027 -4.08623 0
M  V30 1790 N 299.098 2.76189 -3.71603 0
M  V30 1791 H 296.259 4.797 -7.24003 0
M  V30 1792 H 295.989 3.69856 -5.84513 0
M  V30 1793 H 296.856 6.10356 -5.41441 0
M  V30 1794 P 300.818 7.20834 -5.23717 0
M  V30 1795 O 301.038 8.66189 -5.38625 0
M  V30 1796 O 301.608 6.33615 -6.1356 0
M  V30 1797 O 301.068 6.7751 -3.72168 0
M  V30 1798 C 300.128 7.20732 -2.70725 0
M  V30 1799 C 300.858 7.45864 -1.40599 0
M  V30 1800 O 301.068 6.17651 -0.734225 0
M  V30 1801 C 302.258 8.05808 -1.51899 0
M  V30 1802 O 302.648 8.74358 -0.335205 0
M  V30 1803 C 303.138 6.83093 -1.70294 0
M  V30 1804 C 302.428 5.79992 -0.836974 0
M  V30 1805 N 302.478 4.41769 -1.38263 0
M  V30 1806 C 302.628 3.38591 -0.481702 0
M  V30 1807 O 302.718 3.56839 0.718452 0
M  V30 1808 N 302.668 2.1206 -1.03569 0
M  V30 1809 C 302.578 1.80696 -2.36966 0
M  V30 1810 O 302.628 0.630473 -2.74862 0
M  V30 1811 C 302.428 2.94845 -3.23898 0
M  V30 1812 C 302.318 2.65253 -4.70362 0
M  V30 1813 C 302.378 4.19803 -2.73435 0
M  V30 1814 H 299.638 8.13644 -3.0377 0
M  V30 1815 H 299.369 6.42695 -2.55448 0
M  V30 1816 H 300.236 8.12039 -0.792769 0
M  V30 1817 H 302.891 5.79978 0.160587 0
M  V30 1818 H 303.17 6.51379 -2.75643 0
M  V30 1819 H 304.162 7.01734 -1.34462 0
M  V30 1820 H 302.328 8.73674 -2.38337 0
M  V30 1821 H 302.257 5.04492 -3.4095 0
M  V30 1822 H 303.287 2.83924 -5.1913 0
M  V30 1823 H 301.55 3.29824 -5.15163 0
M  V30 1824 H 302.038 1.59723 -4.84449 0
M  V30 1825 H 302.774 1.35644 -0.399345 0
M  V30 1826 P 304.198 8.91 1.18324e-12 0
M  V30 1827 O 304.418 10.1746 0.733838 0
M  V30 1828 O 304.988 8.73346 -1.23964 0
M  V30 1829 O 304.448 7.66872 0.971405 0
M  V30 1830 C 303.508 7.42405 2.04668 0
M  V30 1831 C 304.238 6.86059 3.24661 0
M  V30 1832 O 304.448 5.42934 3.03695 0
M  V30 1833 C 305.638 7.41287 3.50796 0
M  V30 1834 O 306.028 7.27073 4.86816 0
M  V30 1835 C 306.518 6.5273 2.63741 0
M  V30 1836 C 305.808 5.1842 2.73198 0
M  V30 1837 N 305.858 4.38762 1.4784 0
M  V30 1838 H 303.02 8.36899 2.3252 0
M  V30 1839 H 302.748 6.70391 1.71179 0
M  V30 1840 H 303.616 7.03638 4.13219 0
M  V30 1841 H 306.271 4.59931 3.54016 0
M  V30 1842 H 306.551 6.88995 1.59871 0
M  V30 1843 H 307.542 6.4684 3.0373 0
M  V30 1844 H 305.708 8.47002 3.20749 0
M  V30 1845 P 307.578 7.20834 5.23717 0
M  V30 1846 O 307.798 7.79853 6.57286 0
M  V30 1847 O 308.368 7.79239 4.12957 0
M  V30 1848 O 307.828 5.63315 5.29344 0
M  V30 1849 C 306.888 4.80255 6.01876 0
M  V30 1850 C 307.618 3.64202 6.65911 0
M  V30 1851 O 307.828 2.60694 5.64732 0
M  V30 1852 C 309.018 3.93473 7.1943 0
M  V30 1853 O 309.408 3.02071 8.21205 0
M  V30 1854 C 309.898 3.73047 5.97036 0
M  V30 1855 C 309.188 2.58828 5.25741 0
M  V30 1856 N 309.238 2.68068 3.77503 0
M  V30 1857 C 309.158 3.79715 2.96723 0
M  V30 1858 N 309.238 3.5377 1.68852 0
M  V30 1859 C 309.378 2.15054 1.63254 0
M  V30 1860 C 309.508 1.28964 0.518571 0
M  V30 1861 N 309.628 -0.0538097 0.918425 0
M  V30 1862 C 309.628 -0.494275 2.22578 0
M  V30 1863 N 309.758 -1.81086 2.40434 0
M  V30 1864 N 309.498 0.313645 3.27502 0
M  V30 1865 C 309.378 1.61829 2.91033 0
M  V30 1866 H 306.399 5.40332 6.79951 0
M  V30 1867 H 306.129 4.41613 5.32378 0
M  V30 1868 H 306.996 3.26331 7.47797 0
M  V30 1869 P 310.958 2.75334 8.47391 0
M  V30 1870 O 311.178 2.44571 9.90142 0
M  V30 1871 O 311.748 3.87688 7.92115 0
M  V30 1872 O 311.208 1.4459 7.59357 0
M  V30 1873 C 310.268 0.347608 7.69215 0
M  V30 1874 C 310.998 -0.96767 7.52806 0
M  V30 1875 O 311.208 -1.21036 6.1011 0
M  V30 1876 C 312.398 -1.04544 8.13308 0
M  V30 1877 O 312.788 -2.38311 8.41922 0
M  V30 1878 C 313.278 -0.491279 7.02284 0
M  V30 1879 C 312.568 -0.996264 5.77469 0
M  V30 1880 N 312.618 -0.0501916 4.62973 0
M  V30 1881 H 309.779 0.374722 8.67691 0
M  V30 1882 H 309.509 0.443485 6.90277 0
M  V30 1883 H 310.376 -1.75537 7.96793 0
M  V30 1884 P 314.338 -2.75334 8.47391 0
M  V30 1885 O 314.558 -3.84204 9.44982 0
M  V30 1886 O 315.128 -1.51982 8.68909 0
M  V30 1887 O 314.588 -3.29363 6.99321 0
M  V30 1888 C 313.648 -4.24066 6.42823 0
M  V30 1889 C 314.378 -5.20775 5.52155 0
M  V30 1890 O 314.588 -4.56607 4.22514 0
M  V30 1891 C 315.778 -5.62697 5.96604 0
M  V30 1892 O 316.168 -6.87667 5.41053 0
M  V30 1893 C 316.658 -4.52537 5.39283 0
M  V30 1894 C 315.948 -4.20027 4.08623 0
M  V30 1895 N 315.998 -2.76189 3.71603 0
M  V30 1896 C 315.918 -1.66944 4.54297 0
M  V30 1897 N 315.988 -0.536169 3.91344 0
M  V30 1898 C 316.138 -0.901569 2.58849 0
M  V30 1899 C 316.268 -0.146599 1.40236 0
M  V30 1900 N 316.278 1.18234 1.37046 0
M  V30 1901 N 316.388 -0.822941 0.249738 0
M  V30 1902 C 316.378 -2.15179 0.280525 0
M  V30 1903 N 316.258 -2.96414 1.30822 0
M  V30 1904 C 316.138 -2.25804 2.44748 0
M  V30 1905 H 313.16 -4.79756 7.24086 0
M  V30 1906 H 312.888 -3.69963 5.84682 0
M  V30 1907 H 313.756 -6.10431 5.41508 0
M  V30 1908 H 316.411 -4.78816 3.28024 0
M  V30 1909 H 316.691 -3.64957 6.05871 0
M  V30 1910 H 317.682 -4.88748 5.21323 0
M  V30 1911 H 315.848 -5.66789 7.0643 0
M  V30 1912 H 315.807 -1.74684 5.62396 0
M  V30 1913 H 316.188 1.71949 2.24394 0
M  V30 1914 H 316.377 1.67511 0.470742 0
M  V30 1915 H 316.485 -2.63704 -0.6828 0
M  V30 1916 P 317.718 -7.20834 5.23717 0
M  V30 1917 O 317.938 -8.66104 5.38572 0
M  V30 1918 O 318.508 -6.33544 6.1349 0
M  V30 1919 O 317.968 -6.7751 3.72168 0
M  V30 1920 C 317.028 -7.20825 2.7076 0
M  V30 1921 C 317.758 -7.45864 1.40599 0
M  V30 1922 O 317.968 -6.17651 0.734225 0
M  V30 1923 C 319.158 -8.05808 1.51899 0
M  V30 1924 O 319.548 -8.74358 0.335205 0
M  V30 1925 C 320.038 -6.83093 1.70294 0
M  V30 1926 C 319.328 -5.79992 0.836974 0
M  V30 1927 N 319.378 -4.41864 1.38293 0
M  V30 1928 C 319.298 -3.99538 2.69438 0
M  V30 1929 N 319.378 -2.69909 2.84277 0
M  V30 1930 C 319.518 -2.21719 1.5408 0
M  V30 1931 C 319.648 -0.891712 1.06628 0
M  V30 1932 O 319.668 0.161298 1.70137 0
M  V30 1933 N 319.768 -0.856846 -0.334985 0
M  V30 1934 C 319.768 -1.9641 -1.15789 0
M  V30 1935 N 319.898 -1.72708 -2.46522 0
M  V30 1936 N 319.638 -3.21165 -0.713741 0
M  V30 1937 C 319.518 -3.26797 0.639748 0
M  V30 1938 H 316.539 -8.13644 3.0377 0
M  V30 1939 H 316.269 -6.42788 2.55485 0
M  V30 1940 H 317.136 -8.12039 0.792769 0
M  V30 1941 H 319.791 -5.80061 -0.166416 0
M  V30 1942 H 320.07 -6.51287 2.75604 0
M  V30 1943 H 321.062 -7.01734 1.34462 0
M  V30 1944 H 319.228 -8.73674 2.38337 0
M  V30 1945 H 319.179 -4.68207 3.53221 0
M  V30 1946 H 319.861 0.0398818 -0.767965 0
M  V30 1947 H 319.898 -2.50995 -3.13503 0
M  V30 1948 H 319.999 -0.759148 -2.80716 0
M  V30 1949 P 321.098 -8.91 -1.34042e-12 0
M  V30 1950 O 321.318 -10.1726 -0.733694 0
M  V30 1951 O 321.888 -8.73148 1.23936 0
M  V30 1952 O 321.348 -7.66872 -0.971405 0
M  V30 1953 C 320.408 -7.42309 -2.04641 0
M  V30 1954 C 321.138 -6.86059 -3.24661 0
M  V30 1955 O 321.348 -5.42847 -3.03646 0
M  V30 1956 C 322.538 -7.41196 -3.50753 0
M  V30 1957 O 322.928 -7.27073 -4.86816 0
M  V30 1958 C 323.418 -6.5273 -2.63741 0
M  V30 1959 C 322.708 -5.1842 -2.73198 0
M  V30 1960 N 322.758 -4.38762 -1.4784 0
M  V30 1961 H 319.919 -8.36803 -2.32493 0
M  V30 1962 H 319.649 -6.70197 -1.71129 0
M  V30 1963 H 320.516 -7.03551 -4.13168 0
M  V30 1964 P 324.478 -7.20834 -5.23717 0
M  V30 1965 O 324.698 -7.79853 -6.57286 0
M  V30 1966 O 325.268 -7.79239 -4.12957 0
M  V30 1967 O 324.728 -5.63315 -5.29344 0
M  V30 1968 C 323.788 -4.80255 -6.01876 0
M  V30 1969 C 324.518 -3.64202 -6.65911 0
M  V30 1970 O 324.728 -2.60694 -5.64732 0
M  V30 1971 C 325.918 -3.93473 -7.1943 0
M  V30 1972 O 326.308 -3.02071 -8.21205 0
M  V30 1973 C 326.798 -3.73047 -5.97036 0
M  V30 1974 C 326.088 -2.58828 -5.25741 0
M  V30 1975 N 326.138 -2.68068 -3.77503 0
M  V30 1976 H 323.299 -5.40332 -6.79951 0
M  V30 1977 H 323.029 -4.41613 -5.32378 0
M  V30 1978 H 323.896 -3.26331 -7.47797 0
M  V30 1979 P 327.858 -2.75334 -8.47391 0
M  V30 1980 O 328.078 -2.44571 -9.90142 0
M  V30 1981 O 328.648 -3.87688 -7.92115 0
M  V30 1982 O 328.108 -1.4459 -7.59357 0
M  V30 1983 C 327.168 -0.347608 -7.69215 0
M  V30 1984 C 327.898 0.96767 -7.52806 0
M  V30 1985 O 328.108 1.21036 -6.1011 0
M  V30 1986 C 329.298 1.04544 -8.13308 0
M  V30 1987 O 329.688 2.38311 -8.41922 0
M  V30 1988 C 330.178 0.491279 -7.02284 0
M  V30 1989 C 329.468 0.996264 -5.77469 0
M  V30 1990 N 329.518 0.0501916 -4.62973 0
M  V30 1991 H 326.679 -0.374722 -8.67691 0
M  V30 1992 H 326.409 -0.443485 -6.90277 0
M  V30 1993 H 327.276 1.75537 -7.96793 0
M  V30 1994 P 331.238 2.75334 -8.47391 0
M  V30 1995 O 331.458 3.84128 -9.44797 0
M  V30 1996 O 332.028 1.51947 -8.68712 0
M  V30 1997 O 331.488 3.29363 -6.99321 0
M  V30 1998 C 330.548 4.24011 -6.4274 0
M  V30 1999 C 331.278 5.20775 -5.52155 0
M  V30 2000 O 331.488 4.56534 -4.22446 0
M  V30 2001 C 332.678 5.62629 -5.96531 0
M  V30 2002 O 333.068 6.87667 -5.41053 0
M  V30 2003 C 333.558 4.52537 -5.39283 0
M  V30 2004 C 332.848 4.20027 -4.08623 0
M  V30 2005 N 332.898 2.76189 -3.71603 0
M  V30 2006 C 332.818 1.64862 -4.52822 0
M  V30 2007 N 332.898 0.512671 -3.88633 0
M  V30 2008 C 333.038 0.888083 -2.54977 0
M  V30 2009 C 333.168 0.094668 -1.38677 0
M  V30 2010 N 333.288 0.890102 -0.232633 0
M  V30 2011 C 333.288 2.26958 -0.21772 0
M  V30 2012 N 333.418 2.84626 0.97925 0
M  V30 2013 N 333.158 3.0178 -1.31033 0
M  V30 2014 C 333.038 2.26781 -2.43843 0
M  V30 2015 H 330.059 4.797 -7.24003 0
M  V30 2016 H 329.789 3.69856 -5.84513 0
M  V30 2017 H 330.656 6.10356 -5.41441 0
M  V30 2018 P 334.618 7.20834 -5.23717 0
M  V30 2019 O 334.838 8.66104 -5.38572 0
M  V30 2020 O 335.408 6.33544 -6.1349 0
M  V30 2021 O 334.868 6.7751 -3.72168 0
M  V30 2022 C 333.928 7.20825 -2.7076 0
M  V30 2023 C 334.658 7.45864 -1.40599 0
M  V30 2024 O 334.868 6.17651 -0.734225 0
M  V30 2025 C 336.058 8.05808 -1.51899 0
M  V30 2026 O 336.448 8.74358 -0.335205 0
M  V30 2027 C 336.938 6.83093 -1.70294 0
M  V30 2028 C 336.228 5.79992 -0.836974 0
M  V30 2029 N 336.278 4.41864 -1.38293 0
M  V30 2030 H 333.439 8.13644 -3.0377 0
M  V30 2031 H 333.169 6.42788 -2.55485 0
M  V30 2032 H 334.036 8.12039 -0.792769 0
M  V30 2033 P 337.998 8.91 1.4976e-12 0
M  V30 2034 O 338.218 10.1726 0.733694 0
M  V30 2035 O 338.788 8.73148 -1.23936 0
M  V30 2036 O 338.248 7.66872 0.971405 0
M  V30 2037 C 337.308 7.42309 2.04641 0
M  V30 2038 C 338.038 6.86059 3.24661 0
M  V30 2039 O 338.248 5.42847 3.03646 0
M  V30 2040 C 339.438 7.41196 3.50753 0
M  V30 2041 O 339.828 7.27073 4.86816 0
M  V30 2042 C 340.318 6.5273 2.63741 0
M  V30 2043 C 339.608 5.1842 2.73198 0
M  V30 2044 N 339.658 4.38762 1.4784 0
M  V30 2045 C 339.578 4.81605 0.168631 0
M  V30 2046 N 339.658 3.85454 -0.713363 0
M  V30 2047 C 339.798 2.6994 0.0566958 0
M  V30 2048 C 339.928 1.34815 -0.338502 0
M  V30 2049 O 339.948 0.869548 -1.47125 0
M  V30 2050 N 340.048 0.496304 0.77465 0
M  V30 2051 C 340.048 0.908403 2.09122 0
M  V30 2052 N 340.178 -0.0517805 3.00955 0
M  V30 2053 N 339.918 2.17875 2.46519 0
M  V30 2054 C 339.798 3.01988 1.4033 0
M  V30 2055 H 336.819 8.36803 2.32493 0
M  V30 2056 H 336.549 6.70197 1.71129 0
M  V30 2057 H 337.416 7.03551 4.13168 0
M  V30 2058 H 340.071 4.59498 3.54415 0
M  V30 2059 H 340.35 6.88898 1.59848 0
M  V30 2060 H 341.342 6.46749 3.03687 0
M  V30 2061 H 339.508 8.46908 3.20714 0
M  V30 2062 H 339.459 5.86405 -0.105564 0
M  V30 2063 H 340.141 -0.483664 0.597855 0
M  V30 2064 H 340.178 0.187865 4.0116 0
M  V30 2065 H 340.279 -1.03585 2.71726 0
M  V30 2066 P 341.378 7.20834 5.23717 0
M  V30 2067 O 341.598 7.79853 6.57286 0
M  V30 2068 O 342.168 7.79239 4.12957 0
M  V30 2069 O 341.628 5.63315 5.29344 0
M  V30 2070 C 340.688 4.80255 6.01876 0
M  V30 2071 C 341.418 3.64202 6.65911 0
M  V30 2072 O 341.628 2.60694 5.64732 0
M  V30 2073 C 342.818 3.93473 7.1943 0
M  V30 2074 O 343.208 3.02071 8.21205 0
M  V30 2075 C 343.698 3.73047 5.97036 0
M  V30 2076 C 342.988 2.58828 5.25741 0
M  V30 2077 N 343.038 2.68068 3.77503 0
M  V30 2078 C 342.958 3.79715 2.96723 0
M  V30 2079 N 343.038 3.5377 1.68852 0
M  V30 2080 C 343.178 2.15054 1.63254 0
M  V30 2081 C 343.308 1.28964 0.518571 0
M  V30 2082 O 343.328 1.56826 -0.679156 0
M  V30 2083 N 343.428 -0.0538097 0.918425 0
M  V30 2084 C 343.428 -0.494275 2.22578 0
M  V30 2085 N 343.558 -1.81086 2.40434 0
M  V30 2086 N 343.298 0.313645 3.27502 0
M  V30 2087 C 343.178 1.61829 2.91033 0
M  V30 2088 H 340.199 5.40332 6.79951 0
M  V30 2089 H 339.929 4.41613 5.32378 0
M  V30 2090 H 340.796 3.26331 7.47797 0
M  V30 2091 H 343.451 1.63422 5.56814 0
M  V30 2092 H 343.73 4.63374 5.34244 0
M  V30 2093 H 344.722 3.44728 6.25838 0
M  V30 2094 H 342.888 4.96652 7.57263 0
M  V30 2095 H 342.839 4.80617 3.3614 0
M  V30 2096 H 343.521 -0.742702 0.199384 0
M  V30 2097 H 343.558 -2.20598 3.35588 0
M  V30 2098 H 343.659 -2.43518 1.58945 0
M  V30 2099 P 344.758 2.75334 8.47391 0
M  V30 2100 O 344.978 2.44619 9.90336 0
M  V30 2101 O 345.548 3.87776 7.92294 0
M  V30 2102 O 345.008 1.4459 7.59357 0
M  V30 2103 C 344.068 0.347653 7.69315 0
M  V30 2104 C 344.798 -0.96767 7.52806 0
M  V30 2105 O 345.008 -1.21055 6.10208 0
M  V30 2106 C 346.198 -1.04557 8.13408 0
M  V30 2107 O 346.588 -2.38311 8.41922 0
M  V30 2108 C 347.078 -0.491279 7.02284 0
M  V30 2109 C 346.368 -0.996264 5.77469 0
M  V30 2110 N 346.418 -0.0501916 4.62973 0
M  V30 2111 H 343.58 0.374765 8.67791 0
M  V30 2112 H 343.308 0.443613 6.90476 0
M  V30 2113 H 344.176 -1.75559 7.96891 0
M  V30 2114 H 346.831 -1.94563 5.46818 0
M  V30 2115 H 347.111 0.608651 7.04676 0
M  V30 2116 H 348.102 -0.889796 7.09039 0
M  V30 2117 H 346.268 -0.433128 9.04664 0
M  V30 2118 P 348.138 -2.75334 8.47391 0
M  V30 2119 O 348.358 -3.84128 9.44797 0
M  V30 2120 O 348.928 -1.51947 8.68712 0
M  V30 2121 O 348.388 -3.29363 6.99321 0
M  V30 2122 C 347.448 -4.24011 6.4274 0
M  V30 2123 C 348.178 -5.20775 5.52155 0
M  V30 2124 O 348.388 -4.56534 4.22446 0
M  V30 2125 C 349.578 -5.62629 5.96531 0
M  V30 2126 O 349.968 -6.87667 5.41053 0
M  V30 2127 C 350.458 -4.52537 5.39283 0
M  V30 2128 C 349.748 -4.20027 4.08623 0
M  V30 2129 N 349.798 -2.76189 3.71603 0
M  V30 2130 H 346.959 -4.797 7.24003 0
M  V30 2131 H 346.689 -3.69856 5.84513 0
M  V30 2132 H 347.556 -6.10356 5.41441 0
M  V30 2133 P 351.518 -7.20834 5.23717 0
M  V30 2134 O 351.738 -8.66104 5.38572 0
M  V30 2135 O 352.308 -6.33544 6.1349 0
M  V30 2136 O 351.768 -6.7751 3.72168 0
M  V30 2137 C 350.828 -7.20825 2.7076 0
M  V30 2138 C 351.558 -7.45864 1.40599 0
M  V30 2139 O 351.768 -6.17651 0.734225 0
M  V30 2140 C 352.958 -8.05808 1.51899 0
M  V30 2141 O 353.348 -8.74358 0.335205 0
M  V30 2142 C 353.838 -6.83093 1.70294 0
M  V30 2143 C 353.128 -5.79992 0.836974 0
M  V30 2144 N 353.178 -4.41864 1.38293 0
M  V30 2145 H 350.339 -8.13644 3.0377 0
M  V30 2146 H 350.069 -6.42788 2.55485 0
M  V30 2147 H 350.936 -8.12039 0.792769 0
M  V30 2148 P 354.898 -8.91 -1.65478e-12 0
M  V30 2149 O 355.118 -10.1726 -0.733694 0
M  V30 2150 O 355.688 -8.73148 1.23936 0
M  V30 2151 O 355.148 -7.66872 -0.971405 0
M  V30 2152 C 354.208 -7.42309 -2.04641 0
M  V30 2153 C 354.938 -6.86059 -3.24661 0
M  V30 2154 O 355.148 -5.42847 -3.03646 0
M  V30 2155 C 356.338 -7.41196 -3.50753 0
M  V30 2156 O 356.728 -7.27073 -4.86816 0
M  V30 2157 C 357.218 -6.5273 -2.63741 0
M  V30 2158 C 356.508 -5.1842 -2.73198 0
M  V30 2159 N 356.558 -4.38762 -1.4784 0
M  V30 2160 H 353.719 -8.36803 -2.32493 0
M  V30 2161 H 353.449 -6.70197 -1.71129 0
M  V30 2162 H 354.316 -7.03551 -4.13168 0
M  V30 2163 P 358.278 -7.20834 -5.23717 0
M  V30 2164 O 358.498 -7.79853 -6.57286 0
M  V30 2165 O 359.068 -7.79239 -4.12957 0
M  V30 2166 O 358.528 -5.63315 -5.29344 0
M  V30 2167 C 357.588 -4.80255 -6.01876 0
M  V30 2168 C 358.318 -3.64202 -6.65911 0
M  V30 2169 O 358.528 -2.60694 -5.64732 0
M  V30 2170 C 359.718 -3.93473 -7.1943 0
M  V30 2171 O 360.108 -3.02071 -8.21205 0
M  V30 2172 C 360.598 -3.73047 -5.97036 0
M  V30 2173 C 359.888 -2.58828 -5.25741 0
M  V30 2174 N 359.938 -2.68068 -3.77503 0
M  V30 2175 H 357.099 -5.40332 -6.79951 0
M  V30 2176 H 356.829 -4.41613 -5.32378 0
M  V30 2177 H 357.696 -3.26331 -7.47797 0
M  V30 2178 P 361.658 -2.75334 -8.47391 0
M  V30 2179 O 361.878 -2.44571 -9.90142 0
M  V30 2180 O 362.448 -3.87688 -7.92115 0
M  V30 2181 O 361.908 -1.4459 -7.59357 0
M  V30 2182 C 360.968 -0.347608 -7.69215 0
M  V30 2183 C 361.698 0.96767 -7.52806 0
M  V30 2184 O 361.908 1.21036 -6.1011 0
M  V30 2185 C 363.098 1.04544 -8.13308 0
M  V30 2186 O 363.488 2.38311 -8.41922 0
M  V30 2187 C 363.978 0.491279 -7.02284 0
M  V30 2188 C 363.268 0.996264 -5.77469 0
M  V30 2189 N 363.318 0.0501916 -4.62973 0
M  V30 2190 H 360.479 -0.374722 -8.67691 0
M  V30 2191 H 360.209 -0.443485 -6.90277 0
M  V30 2192 H 361.076 1.75537 -7.96793 0
M  V30 2193 P 365.038 2.75334 -8.47391 0
M  V30 2194 O 365.258 3.84128 -9.44797 0
M  V30 2195 O 365.828 1.51947 -8.68712 0
M  V30 2196 O 365.288 3.29363 -6.99321 0
M  V30 2197 C 364.348 4.24011 -6.4274 0
M  V30 2198 C 365.078 5.20775 -5.52155 0
M  V30 2199 O 365.288 4.56534 -4.22446 0
M  V30 2200 C 366.478 5.62629 -5.96531 0
M  V30 2201 O 366.868 6.87667 -5.41053 0
M  V30 2202 C 367.358 4.52537 -5.39283 0
M  V30 2203 C 366.648 4.20027 -4.08623 0
M  V30 2204 N 366.698 2.76189 -3.71603 0
M  V30 2205 H 363.859 4.797 -7.24003 0
M  V30 2206 H 363.589 3.69856 -5.84513 0
M  V30 2207 H 364.456 6.10356 -5.41441 0
M  V30 2208 P 368.418 7.20834 -5.23717 0
M  V30 2209 O 368.638 8.66104 -5.38572 0
M  V30 2210 O 369.208 6.33544 -6.1349 0
M  V30 2211 O 368.668 6.7751 -3.72168 0
M  V30 2212 C 367.728 7.20825 -2.7076 0
M  V30 2213 C 368.458 7.45864 -1.40599 0
M  V30 2214 O 368.668 6.17651 -0.734225 0
M  V30 2215 C 369.858 8.05808 -1.51899 0
M  V30 2216 O 370.248 8.74358 -0.335205 0
M  V30 2217 C 370.738 6.83093 -1.70294 0
M  V30 2218 C 370.028 5.79992 -0.836974 0
M  V30 2219 N 370.078 4.41864 -1.38293 0
M  V30 2220 H 367.239 8.13644 -3.0377 0
M  V30 2221 H 366.969 6.42788 -2.55485 0
M  V30 2222 H 367.836 8.12039 -0.792769 0
M  V30 2223 P 371.798 8.91 1.81197e-12 0
M  V30 2224 O 372.018 10.1736 0.733766 0
M  V30 2225 O 372.588 8.73247 -1.2395 0
M  V30 2226 O 372.048 7.66872 0.971405 0
M  V30 2227 C 371.108 7.42212 2.04614 0
M  V30 2228 C 371.838 6.86059 3.24661 0
M  V30 2229 O 372.048 5.42847 3.03646 0
M  V30 2230 C 373.238 7.41196 3.50753 0
M  V30 2231 O 373.628 7.27073 4.86816 0
M  V30 2232 C 374.118 6.5273 2.63741 0
M  V30 2233 C 373.408 5.1842 2.73198 0
M  V30 2234 N 373.458 4.38668 1.47808 0
M  V30 2235 C 373.608 3.02239 1.60048 0
M  V30 2236 O 373.698 2.46459 2.67869 0
M  V30 2237 N 373.648 2.32436 0.408571 0
M  V30 2238 C 373.558 2.85471 -0.854993 0
M  V30 2239 O 373.608 2.12566 -1.8531 0
M  V30 2240 C 373.408 4.28918 -0.887335 0
M  V30 2241 C 373.298 4.91066 -2.24619 0
M  V30 2242 C 373.358 5.00349 0.255399 0
M  V30 2243 H 370.618 8.36803 2.32493 0
M  V30 2244 H 370.349 6.701 1.71105 0
M  V30 2245 H 371.216 7.03551 4.13168 0
M  V30 2246 H 373.871 4.59773 3.53894 0
M  V30 2247 H 374.15 6.88995 1.59871 0
M  V30 2248 H 375.142 6.46749 3.03687 0
M  V30 2249 H 373.308 8.46908 3.20714 0
M  V30 2250 H 373.237 6.08548 0.206986 0
M  V30 2251 H 374.267 5.34836 -2.53099 0
M  V30 2252 H 372.53 5.69638 -2.2291 0
M  V30 2253 H 373.018 4.13971 -2.98044 0
M  V30 2254 H 373.754 1.33211 0.474216 0
M  V30 2255 P 375.178 7.20834 5.23717 0
M  V30 2256 O 375.398 7.79853 6.57286 0
M  V30 2257 O 375.968 7.79239 4.12957 0
M  V30 2258 O 375.428 5.63315 5.29344 0
M  V30 2259 C 374.488 4.80255 6.01876 0
M  V30 2260 C 375.218 3.64202 6.65911 0
M  V30 2261 O 375.428 2.60694 5.64732 0
M  V30 2262 C 376.618 3.93473 7.1943 0
M  V30 2263 O 377.008 3.02071 8.21205 0
M  V30 2264 C 377.498 3.73047 5.97036 0
M  V30 2265 C 376.788 2.58828 5.25741 0
M  V30 2266 N 376.838 2.68068 3.77503 0
M  V30 2267 H 373.999 5.40332 6.79951 0
M  V30 2268 H 373.729 4.41613 5.32378 0
M  V30 2269 H 374.596 3.26331 7.47797 0
M  V30 2270 P 378.558 2.75334 8.47391 0
M  V30 2271 O 378.778 2.44571 9.90142 0
M  V30 2272 O 379.348 3.87688 7.92115 0
M  V30 2273 O 378.808 1.4459 7.59357 0
M  V30 2274 C 377.868 0.347608 7.69215 0
M  V30 2275 C 378.598 -0.96767 7.52806 0
M  V30 2276 O 378.808 -1.21036 6.1011 0
M  V30 2277 C 379.998 -1.04544 8.13308 0
M  V30 2278 O 380.388 -2.38311 8.41922 0
M  V30 2279 C 380.878 -0.491279 7.02284 0
M  V30 2280 C 380.168 -0.996264 5.77469 0
M  V30 2281 N 380.218 -0.0501916 4.62973 0
M  V30 2282 H 377.379 0.374722 8.67691 0
M  V30 2283 H 377.109 0.443485 6.90277 0
M  V30 2284 H 377.976 -1.75537 7.96793 0
M  V30 2285 P 381.938 -2.75334 8.47391 0
M  V30 2286 O 382.158 -3.84128 9.44797 0
M  V30 2287 O 382.728 -1.51947 8.68712 0
M  V30 2288 O 382.188 -3.29363 6.99321 0
M  V30 2289 C 381.248 -4.24011 6.4274 0
M  V30 2290 C 381.978 -5.20775 5.52155 0
M  V30 2291 O 382.188 -4.56534 4.22446 0
M  V30 2292 C 383.378 -5.62629 5.96531 0
M  V30 2293 O 383.768 -6.87667 5.41053 0
M  V30 2294 C 384.258 -4.52537 5.39283 0
M  V30 2295 C 383.548 -4.20027 4.08623 0
M  V30 2296 N 383.598 -2.76189 3.71603 0
M  V30 2297 C 383.518 -1.64862 4.52822 0
M  V30 2298 N 383.598 -0.512671 3.88633 0
M  V30 2299 C 383.738 -0.888083 2.54977 0
M  V30 2300 C 383.868 -0.094668 1.38677 0
M  V30 2301 O 383.888 1.13053 1.28163 0
M  V30 2302 N 383.988 -0.890102 0.232633 0
M  V30 2303 C 383.988 -2.26958 0.21772 0
M  V30 2304 N 384.118 -2.84626 -0.97925 0
M  V30 2305 N 383.858 -3.0178 1.31033 0
M  V30 2306 C 383.738 -2.26781 2.43843 0
M  V30 2307 H 380.759 -4.797 7.24003 0
M  V30 2308 H 380.489 -3.69856 5.84513 0
M  V30 2309 H 381.356 -6.10356 5.41441 0
M  V30 2310 H 384.011 -4.79061 3.27488 0
M  V30 2311 H 384.29 -3.64906 6.05785 0
M  V30 2312 H 385.282 -4.8868 5.2125 0
M  V30 2313 H 383.448 -5.66726 7.06352 0
M  V30 2314 H 383.399 -1.71169 5.60966 0
M  V30 2315 H 384.081 -0.419134 -0.644739 0
M  V30 2316 H 384.118 -3.87332 -1.06098 0
M  V30 2317 H 384.219 -2.26417 -1.82483 0
M  V30 2318 P 385.318 -7.20834 5.23717 0
M  V30 2319 O 385.538 -8.66104 5.38572 0
M  V30 2320 O 386.108 -6.33544 6.1349 0
M  V30 2321 O 385.568 -6.7751 3.72168 0
M  V30 2322 C 384.628 -7.20825 2.7076 0
M  V30 2323 C 385.358 -7.45864 1.40599 0
M  V30 2324 O 385.568 -6.17651 0.734225 0
M  V30 2325 C 386.758 -8.05808 1.51899 0
M  V30 2326 O 387.148 -8.74358 0.335205 0
M  V30 2327 C 387.638 -6.83093 1.70294 0
M  V30 2328 C 386.928 -5.79992 0.836974 0
M  V30 2329 N 386.978 -4.41864 1.38293 0
M  V30 2330 H 384.139 -8.13644 3.0377 0
M  V30 2331 H 383.869 -6.42788 2.55485 0
M  V30 2332 H 384.736 -8.12039 0.792769 0
M  V30 2333 P 388.698 -8.91 -1.96915e-12 0
M  V30 2334 O 388.918 -10.1726 -0.733694 0
M  V30 2335 O 389.488 -8.73148 1.23936 0
M  V30 2336 O 388.948 -7.66872 -0.971405 0
M  V30 2337 C 388.008 -7.42309 -2.04641 0
M  V30 2338 C 388.738 -6.86059 -3.24661 0
M  V30 2339 O 388.948 -5.42847 -3.03646 0
M  V30 2340 C 390.138 -7.41196 -3.50753 0
M  V30 2341 O 390.528 -7.27073 -4.86816 0
M  V30 2342 C 391.018 -6.5273 -2.63741 0
M  V30 2343 C 390.308 -5.1842 -2.73198 0
M  V30 2344 N 390.358 -4.38762 -1.4784 0
M  V30 2345 H 387.519 -8.36803 -2.32493 0
M  V30 2346 H 387.249 -6.70197 -1.71129 0
M  V30 2347 H 388.116 -7.03551 -4.13168 0
M  V30 2348 P 392.078 -7.20834 -5.23717 0
M  V30 2349 O 392.298 -7.80006 -6.57415 0
M  V30 2350 O 392.868 -7.79416 -4.13051 0
M  V30 2351 O 392.328 -5.63315 -5.29344 0
M  V30 2352 C 391.388 -4.80318 -6.01954 0
M  V30 2353 C 392.118 -3.64202 -6.65911 0
M  V30 2354 O 392.328 -2.60736 -5.64823 0
M  V30 2355 C 393.518 -3.93521 -7.19518 0
M  V30 2356 O 393.908 -3.02071 -8.21205 0
M  V30 2357 C 394.398 -3.73047 -5.97036 0
M  V30 2358 C 393.688 -2.58828 -5.25741 0
M  V30 2359 N 393.738 -2.68068 -3.77503 0
M  V30 2360 C 393.658 -3.80474 -2.99159 0
M  V30 2361 N 393.728 -3.55622 -1.71925 0
M  V30 2362 C 393.878 -2.1832 -1.65733 0
M  V30 2363 C 394.008 -1.28842 -0.572777 0
M  V30 2364 N 394.018 -1.66875 0.70098 0
M  V30 2365 N 394.128 0.016788 -0.859836 0
M  V30 2366 C 394.118 0.398145 -2.13316 0
M  V30 2367 N 393.998 -0.328224 -3.22333 0
M  V30 2368 C 393.878 -1.62992 -2.90383 0
M  V30 2369 H 390.9 -5.40394 -6.8003 0
M  V30 2370 H 390.628 -4.41741 -5.32532 0
M  V30 2371 H 391.496 -3.26371 -7.47889 0
M  V30 2372 H 394.151 -1.64007 -5.56746 0
M  V30 2373 H 394.431 -4.63439 -5.3432 0
M  V30 2374 H 395.422 -3.44776 -6.25925 0
M  V30 2375 H 393.588 -4.96707 -7.57347 0
M  V30 2376 H 393.547 -4.8089 -3.39924 0
M  V30 2377 H 393.928 -2.66547 0.941919 0
M  V30 2378 H 394.117 -0.965341 1.44766 0
M  V30 2379 H 394.225 1.46427 -2.29697 0
M  V30 2380 P 395.458 -2.75334 -8.47391 0
M  V30 2381 O 395.678 -2.44571 -9.90142 0
M  V30 2382 O 396.248 -3.87688 -7.92115 0
M  V30 2383 O 395.708 -1.4459 -7.59357 0
M  V30 2384 C 394.768 -0.347608 -7.69215 0
M  V30 2385 C 395.498 0.96767 -7.52806 0
M  V30 2386 O 395.708 1.21036 -6.1011 0
M  V30 2387 C 396.898 1.04544 -8.13308 0
M  V30 2388 O 397.288 2.38311 -8.41922 0
M  V30 2389 C 397.778 0.491279 -7.02284 0
M  V30 2390 C 397.068 0.996264 -5.77469 0
M  V30 2391 N 397.118 0.0501916 -4.62973 0
M  V30 2392 H 394.279 -0.374722 -8.67691 0
M  V30 2393 H 394.009 -0.443485 -6.90277 0
M  V30 2394 H 394.876 1.75537 -7.96793 0
M  V30 2395 P 398.838 2.75334 -8.47391 0
M  V30 2396 O 399.058 3.84128 -9.44797 0
M  V30 2397 O 399.628 1.51947 -8.68712 0
M  V30 2398 O 399.088 3.29363 -6.99321 0
M  V30 2399 C 398.148 4.24011 -6.4274 0
M  V30 2400 C 398.878 5.20775 -5.52155 0
M  V30 2401 O 399.088 4.56534 -4.22446 0
M  V30 2402 C 400.278 5.62629 -5.96531 0
M  V30 2403 O 400.668 6.87667 -5.41053 0
M  V30 2404 C 401.158 4.52537 -5.39283 0
M  V30 2405 C 400.448 4.20027 -4.08623 0
M  V30 2406 N 400.498 2.76189 -3.71603 0
M  V30 2407 C 400.418 1.64862 -4.52822 0
M  V30 2408 N 400.498 0.512671 -3.88633 0
M  V30 2409 C 400.638 0.888083 -2.54977 0
M  V30 2410 C 400.768 0.094668 -1.38677 0
M  V30 2411 O 400.788 -1.13053 -1.28163 0
M  V30 2412 N 400.888 0.890102 -0.232633 0
M  V30 2413 C 400.888 2.26958 -0.21772 0
M  V30 2414 N 401.018 2.84626 0.97925 0
M  V30 2415 N 400.758 3.0178 -1.31033 0
M  V30 2416 C 400.638 2.26781 -2.43843 0
M  V30 2417 H 397.659 4.797 -7.24003 0
M  V30 2418 H 397.389 3.69856 -5.84513 0
M  V30 2419 H 398.256 6.10356 -5.41441 0
M  V30 2420 H 400.911 4.79061 -3.27488 0
M  V30 2421 H 401.19 3.64906 -6.05785 0
M  V30 2422 H 402.182 4.8868 -5.2125 0
M  V30 2423 H 400.348 5.66726 -7.06352 0
M  V30 2424 H 400.299 1.71169 -5.60966 0
M  V30 2425 H 400.981 0.419134 0.644739 0
M  V30 2426 H 401.018 3.87332 1.06098 0
M  V30 2427 H 401.119 2.26417 1.82483 0
M  V30 2428 P 402.218 7.20834 -5.23717 0
M  V30 2429 O 402.438 8.66104 -5.38572 0
M  V30 2430 O 403.008 6.33544 -6.1349 0
M  V30 2431 O 402.468 6.7751 -3.72168 0
M  V30 2432 C 401.528 7.20825 -2.7076 0
M  V30 2433 C 402.258 7.45864 -1.40599 0
M  V30 2434 O 402.468 6.17651 -0.734225 0
M  V30 2435 C 403.658 8.05808 -1.51899 0
M  V30 2436 O 404.048 8.74358 -0.335205 0
M  V30 2437 C 404.538 6.83093 -1.70294 0
M  V30 2438 C 403.828 5.79992 -0.836974 0
M  V30 2439 N 403.878 4.41864 -1.38293 0
M  V30 2440 C 403.798 3.99538 -2.69438 0
M  V30 2441 N 403.878 2.69909 -2.84277 0
M  V30 2442 C 404.018 2.21719 -1.5408 0
M  V30 2443 C 404.148 0.891712 -1.06628 0
M  V30 2444 N 404.268 0.856846 0.334985 0
M  V30 2445 C 404.268 1.9641 1.15789 0
M  V30 2446 N 404.398 1.72708 2.46522 0
M  V30 2447 N 404.138 3.21165 0.713741 0
M  V30 2448 C 404.018 3.26797 -0.639748 0
M  V30 2449 H 401.039 8.13644 -3.0377 0
M  V30 2450 H 400.769 6.42788 -2.55485 0
M  V30 2451 H 401.636 8.12039 -0.792769 0
M  V30 2452 P 405.598 8.91 2.12633e-12 0
M  V30 2453 O 405.818 10.1726 0.733694 0
M  V30 2454 O 406.388 8.73148 -1.23936 0
M  V30 2455 O 405.848 7.66872 0.971405 0
M  V30 2456 C 404.908 7.42309 2.04641 0
M  V30 2457 C 405.638 6.86059 3.24661 0
M  V30 2458 O 405.848 5.42847 3.03646 0
M  V30 2459 C 407.038 7.41196 3.50753 0
M  V30 2460 O 407.428 7.27073 4.86816 0
M  V30 2461 C 407.918 6.5273 2.63741 0
M  V30 2462 C 407.208 5.1842 2.73198 0
M  V30 2463 N 407.258 4.38762 1.4784 0
M  V30 2464 C 407.178 4.81605 0.168631 0
M  V30 2465 N 407.258 3.85454 -0.713363 0
M  V30 2466 C 407.398 2.6994 0.0566958 0
M  V30 2467 C 407.528 1.34815 -0.338502 0
M  V30 2468 N 407.648 0.496304 0.77465 0
M  V30 2469 C 407.648 0.908403 2.09122 0
M  V30 2470 N 407.778 -0.0517805 3.00955 0
M  V30 2471 N 407.518 2.17875 2.46519 0
M  V30 2472 C 407.398 3.01988 1.4033 0
M  V30 2473 H 404.419 8.36803 2.32493 0
M  V30 2474 H 404.149 6.70197 1.71129 0
M  V30 2475 H 405.016 7.03551 4.13168 0
M  V30 2476 P 408.978 7.20834 5.23717 0
M  V30 2477 O 409.198 7.79853 6.57286 0
M  V30 2478 O 409.768 7.79239 4.12957 0
M  V30 2479 O 409.228 5.63315 5.29344 0
M  V30 2480 C 408.288 4.80255 6.01876 0
M  V30 2481 C 409.018 3.64202 6.65911 0
M  V30 2482 O 409.228 2.60694 5.64732 0
M  V30 2483 C 410.418 3.93473 7.1943 0
M  V30 2484 O 410.808 3.02071 8.21205 0
M  V30 2485 C 411.298 3.73047 5.97036 0
M  V30 2486 C 410.588 2.58828 5.25741 0
M  V30 2487 N 410.638 2.68068 3.77503 0
M  V30 2488 C 410.558 3.79715 2.96723 0
M  V30 2489 N 410.638 3.5377 1.68852 0
M  V30 2490 C 410.778 2.15054 1.63254 0
M  V30 2491 C 410.908 1.28964 0.518571 0
M  V30 2492 N 411.028 -0.0538097 0.918425 0
M  V30 2493 C 411.028 -0.494275 2.22578 0
M  V30 2494 N 411.158 -1.81086 2.40434 0
M  V30 2495 N 410.898 0.313645 3.27502 0
M  V30 2496 C 410.778 1.61829 2.91033 0
M  V30 2497 H 407.799 5.40332 6.79951 0
M  V30 2498 H 407.529 4.41613 5.32378 0
M  V30 2499 H 408.396 3.26331 7.47797 0
M  V30 2500 P 412.358 2.75334 8.47391 0
M  V30 2501 O 412.578 2.44571 9.90142 0
M  V30 2502 O 413.148 3.87688 7.92115 0
M  V30 2503 O 412.608 1.4459 7.59357 0
M  V30 2504 C 411.668 0.347608 7.69215 0
M  V30 2505 C 412.398 -0.96767 7.52806 0
M  V30 2506 O 412.608 -1.21036 6.1011 0
M  V30 2507 C 413.798 -1.04544 8.13308 0
M  V30 2508 O 414.188 -2.38311 8.41922 0
M  V30 2509 C 414.678 -0.491279 7.02284 0
M  V30 2510 C 413.968 -0.996264 5.77469 0
M  V30 2511 N 414.018 -0.0501916 4.62973 0
M  V30 2512 C 413.938 1.32786 4.63244 0
M  V30 2513 N 414.018 1.86957 3.44545 0
M  V30 2514 C 414.158 0.780241 2.58481 0
M  V30 2515 C 414.288 0.738536 1.17757 0
M  V30 2516 N 414.408 -0.58337 0.711393 0
M  V30 2517 C 414.408 -1.70816 1.51017 0
M  V30 2518 N 414.538 -2.87826 0.880757 0
M  V30 2519 N 414.278 -1.67126 2.8339 0
M  V30 2520 C 414.158 -0.401421 3.30572 0
M  V30 2521 H 411.179 0.374722 8.67691 0
M  V30 2522 H 410.909 0.443485 6.90277 0
M  V30 2523 H 411.776 -1.75537 7.96793 0
M  V30 2524 P 415.738 -2.75334 8.47391 0
M  V30 2525 O 415.958 -3.84128 9.44797 0
M  V30 2526 O 416.528 -1.51947 8.68712 0
M  V30 2527 O 415.988 -3.29363 6.99321 0
M  V30 2528 C 415.048 -4.24011 6.4274 0
M  V30 2529 C 415.778 -5.20775 5.52155 0
M  V30 2530 O 415.988 -4.56534 4.22446 0
M  V30 2531 C 417.178 -5.62629 5.96531 0
M  V30 2532 O 417.568 -6.87667 5.41053 0
M  V30 2533 C 418.058 -4.52537 5.39283 0
M  V30 2534 C 417.348 -4.20027 4.08623 0
M  V30 2535 N 417.398 -2.76189 3.71603 0
M  V30 2536 H 414.559 -4.797 7.24003 0
M  V30 2537 H 414.289 -3.69856 5.84513 0
M  V30 2538 H 415.156 -6.10356 5.41441 0
M  V30 2539 P 419.118 -7.20834 5.23717 0
M  V30 2540 O 419.338 -8.66104 5.38572 0
M  V30 2541 O 419.908 -6.33544 6.1349 0
M  V30 2542 O 419.368 -6.7751 3.72168 0
M  V30 2543 C 418.428 -7.20825 2.7076 0
M  V30 2544 C 419.158 -7.45864 1.40599 0
M  V30 2545 O 419.368 -6.17651 0.734225 0
M  V30 2546 C 420.558 -8.05808 1.51899 0
M  V30 2547 O 420.948 -8.74358 0.335205 0
M  V30 2548 C 421.438 -6.83093 1.70294 0
M  V30 2549 C 420.728 -5.79992 0.836974 0
M  V30 2550 N 420.778 -4.41864 1.38293 0
M  V30 2551 H 417.939 -8.13644 3.0377 0
M  V30 2552 H 417.669 -6.42788 2.55485 0
M  V30 2553 H 418.536 -8.12039 0.792769 0
M  V30 2554 P 422.497 -8.91 -2.28351e-12 0
M  V30 2555 O 422.717 -10.1726 -0.733694 0
M  V30 2556 O 423.287 -8.73148 1.23936 0
M  V30 2557 O 422.747 -7.66872 -0.971405 0
M  V30 2558 C 421.807 -7.42309 -2.04641 0
M  V30 2559 C 422.537 -6.86059 -3.24661 0
M  V30 2560 O 422.747 -5.42847 -3.03646 0
M  V30 2561 C 423.937 -7.41196 -3.50753 0
M  V30 2562 O 424.327 -7.27073 -4.86816 0
M  V30 2563 C 424.817 -6.5273 -2.63741 0
M  V30 2564 C 424.107 -5.1842 -2.73198 0
M  V30 2565 N 424.157 -4.38762 -1.4784 0
M  V30 2566 H 421.318 -8.36803 -2.32493 0
M  V30 2567 H 421.048 -6.70197 -1.71129 0
M  V30 2568 H 421.915 -7.03551 -4.13168 0
M  V30 2569 P 425.877 -7.20834 -5.23717 0
M  V30 2570 O 426.097 -7.80006 -6.57415 0
M  V30 2571 O 426.667 -7.79416 -4.13051 0
M  V30 2572 O 426.127 -5.63315 -5.29344 0
M  V30 2573 C 425.187 -4.80318 -6.01954 0
M  V30 2574 C 425.917 -3.64202 -6.65911 0
M  V30 2575 O 426.127 -2.60736 -5.64823 0
M  V30 2576 C 427.317 -3.93521 -7.19518 0
M  V30 2577 O 427.707 -3.02071 -8.21205 0
M  V30 2578 C 428.197 -3.73047 -5.97036 0
M  V30 2579 C 427.487 -2.58828 -5.25741 0
M  V30 2580 N 427.537 -2.68068 -3.77503 0
M  V30 2581 C 427.457 -3.80474 -2.99159 0
M  V30 2582 N 427.527 -3.55622 -1.71925 0
M  V30 2583 C 427.677 -2.1832 -1.65733 0
M  V30 2584 C 427.807 -1.28842 -0.572777 0
M  V30 2585 N 427.817 -1.66875 0.70098 0
M  V30 2586 N 427.927 0.016788 -0.859836 0
M  V30 2587 C 427.917 0.398145 -2.13316 0
M  V30 2588 N 427.797 -0.328224 -3.22333 0
M  V30 2589 C 427.677 -1.62992 -2.90383 0
M  V30 2590 H 424.699 -5.40394 -6.8003 0
M  V30 2591 H 424.427 -4.41741 -5.32532 0
M  V30 2592 H 425.295 -3.26371 -7.47889 0
M  V30 2593 H 427.95 -1.64007 -5.56746 0
M  V30 2594 H 428.23 -4.63439 -5.3432 0
M  V30 2595 H 429.221 -3.44776 -6.25925 0
M  V30 2596 H 427.387 -4.96707 -7.57347 0
M  V30 2597 H 427.346 -4.8089 -3.39924 0
M  V30 2598 H 427.727 -2.66547 0.941919 0
M  V30 2599 H 427.916 -0.965341 1.44766 0
M  V30 2600 H 428.024 1.46427 -2.29697 0
M  V30 2601 H 427.576 -2.12276 -7.9008 0
M  V30 2602 H 431.598 5.66378 7.64073 0
M  V30 2603 O 431.478 5.84357 6.71818 0
M  V30 2604 P 430.037 6.144 6.45285 0
M  V30 2605 O 429.817 7.54673 6.86199 0
M  V30 2606 O 429.247 5.12391 7.179 0
M  V30 2607 O 429.787 5.99158 4.88404 0
M  V30 2608 C 430.727 6.60062 3.96313 0
M  V30 2609 C 429.997 7.08259 2.72856 0
M  V30 2610 O 429.787 5.9427 1.83651 0
M  V30 2611 C 428.597 7.65087 2.94749 0
M  V30 2612 O 428.207 8.53963 1.90717 0
M  V30 2613 C 427.717 6.41069 2.90698 0
M  V30 2614 C 428.427 5.5528 1.86931 0
M  V30 2615 N 428.377 4.09575 2.15696 0
M  V30 2616 C 428.227 3.24249 1.08435 0
M  V30 2617 O 428.137 3.63946 -0.0628747 0
M  V30 2618 N 428.187 1.90009 1.39973 0
M  V30 2619 C 428.277 1.34884 2.65614 0
M  V30 2620 O 428.227 0.123716 2.81728 0
M  V30 2621 C 428.427 2.3145 3.71736 0
M  V30 2622 C 428.537 1.75913 5.10438 0
M  V30 2623 C 428.477 3.63518 3.44754 0
M  V30 2624 H 431.218 7.45402 4.45526 0
M  V30 2625 H 431.487 5.86062 3.67208 0
M  V30 2626 H 430.62 7.84412 2.24479 0
M  V30 2627 H 427.965 5.73358 0.888409 0
M  V30 2628 H 427.686 5.90877 3.88583 0
M  V30 2629 H 426.694 6.65867 2.58821 0
M  V30 2630 H 428.528 8.16248 3.92006 0
M  V30 2631 H 428.599 4.34551 4.26383 0
M  V30 2632 H 427.569 1.85471 5.61775 0
M  V30 2633 H 429.306 2.31364 5.66257 0
M  V30 2634 H 428.818 0.695936 5.05229 0
M  V30 2635 H 428.082 1.26277 0.63625 0
M  V30 2636 P 426.657 8.7635 1.60911 0
M  V30 2637 O 426.437 10.1388 1.11561 0
M  V30 2638 O 425.867 8.36503 2.79617 0
M  V30 2639 O 426.407 7.71806 0.42951 0
M  V30 2640 C 427.347 7.67148 -0.673689 0
M  V30 2641 C 426.617 7.33374 -1.95559 0
M  V30 2642 O 426.407 5.88721 -2.00726 0
M  V30 2643 C 425.217 7.92526 -2.10483 0
M  V30 2644 O 424.827 8.02971 -3.47653 0
M  V30 2645 C 424.337 6.89602 -1.41652 0
M  V30 2646 C 425.047 5.59201 -1.75185 0
M  V30 2647 N 424.997 4.58235 -0.662552 0
M  V30 2648 H 427.836 8.65116 -0.777161 0
M  V30 2649 H 428.108 6.90173 -0.474152 0
M  V30 2650 H 427.24 7.66548 -2.79458 0
M  V30 2651 P 423.278 8.03563 -3.84925 0
M  V30 2652 O 423.058 8.85821 -5.0569 0
M  V30 2653 O 422.488 8.41101 -2.65469 0
M  V30 2654 O 423.028 6.4965 -4.18908 0
M  V30 2655 C 423.968 5.81037 -5.05421 0
M  V30 2656 C 423.238 4.78366 -5.89277 0
M  V30 2657 O 423.028 3.58302 -5.08433 0
M  V30 2658 C 421.838 5.17448 -6.36119 0
M  V30 2659 O 421.448 4.45271 -7.53232 0
M  V30 2660 C 420.958 4.74639 -5.19936 0
M  V30 2661 C 421.668 3.49432 -4.70418 0
M  V30 2662 N 421.618 3.31776 -3.22945 0
M  V30 2663 H 424.457 6.54213 -5.71376 0
M  V30 2664 H 424.729 5.30492 -4.44033 0
M  V30 2665 H 423.861 4.55889 -6.76652 0
M  V30 2666 P 419.898 4.23843 -7.83734 0
M  V30 2667 O 419.678 4.19407 -9.29784 0
M  V30 2668 O 419.108 5.24426 -7.09156 0
M  V30 2669 O 419.648 2.7935 -7.20758 0
M  V30 2670 C 420.588 1.7299 -7.50419 0
M  V30 2671 C 419.858 0.406376 -7.57911 0
M  V30 2672 O 419.648 -0.0897726 -6.21935 0
M  V30 2673 C 418.458 0.447224 -8.1878 0
M  V30 2674 O 418.068 -0.825065 -8.71101 0
M  V30 2675 C 417.578 0.783801 -6.99623 0
M  V30 2676 C 418.288 0.0619192 -5.85967 0
M  V30 2677 N 418.238 0.790462 -4.56202 0
M  V30 2678 H 421.077 1.93423 -8.4679 0
M  V30 2679 H 421.349 1.68852 -6.70877 0
M  V30 2680 H 420.481 -0.289041 -8.15388 0
M  V30 2681 H 417.826 -0.927006 -5.72848 0
M  V30 2682 H 417.546 1.86973 -6.82036 0
M  V30 2683 H 416.555 0.403953 -7.13357 0
M  V30 2684 H 418.389 1.20599 -8.97534 0
M  V30 2685 P 416.518 -1.17771 -8.83182 0
M  V30 2686 O 416.298 -2.07206 -9.98732 0
M  V30 2687 O 415.728 0.0743816 -8.81969 0
M  V30 2688 O 416.268 -1.97652 -7.47304 0
M  V30 2689 C 417.208 -3.01055 -7.08599 0
M  V30 2690 C 416.478 -4.12613 -6.37049 0
M  V30 2691 O 416.268 -3.72827 -4.97879 0
M  V30 2692 C 415.078 -4.45719 -6.88164 0
M  V30 2693 O 414.688 -5.7877 -6.5624 0
M  V30 2694 C 414.198 -3.47768 -6.11991 0
M  V30 2695 C 414.908 -3.39356 -4.77615 0
M  V30 2696 N 414.858 -2.04571 -4.15244 0
M  V30 2697 C 414.708 -1.98587 -2.78314 0
M  V30 2698 O 414.618 -2.98134 -2.08835 0
M  V30 2699 N 414.668 -0.714467 -2.24925 0
M  V30 2700 C 414.758 0.470001 -2.94169 0
M  V30 2701 C 414.908 0.312541 -4.36783 0
M  V30 2702 C 414.958 -0.914512 -4.92583 0
M  V30 2703 H 417.699 -3.41169 -7.98575 0
M  V30 2704 H 417.968 -2.58295 -6.41556 0
M  V30 2705 H 417.101 -5.02657 -6.42673 0
M  V30 2706 H 414.446 -4.11637 -4.08885 0
M  V30 2707 H 414.167 -2.49626 -6.61679 0
M  V30 2708 H 413.175 -3.86566 -6.00778 0
M  V30 2709 H 415.009 -4.29943 -7.96918 0
M  V30 2710 H 415.08 -1.00937 -6.00374 0
M  V30 2711 P 413.138 -6.144 -6.45285 0
M  V30 2712 O 412.918 -7.54673 -6.86199 0
M  V30 2713 O 412.348 -5.12391 -7.179 0
M  V30 2714 O 412.888 -5.99158 -4.88404 0
M  V30 2715 C 413.828 -6.60062 -3.96313 0
M  V30 2716 C 413.098 -7.08259 -2.72856 0
M  V30 2717 O 412.888 -5.9427 -1.83651 0
M  V30 2718 C 411.698 -7.65087 -2.94749 0
M  V30 2719 O 411.308 -8.53963 -1.90717 0
M  V30 2720 C 410.818 -6.41069 -2.90698 0
M  V30 2721 C 411.528 -5.5528 -1.86931 0
M  V30 2722 N 411.478 -4.09575 -2.15696 0
M  V30 2723 C 411.328 -3.24249 -1.08435 0
M  V30 2724 O 411.238 -3.63946 0.0628747 0
M  V30 2725 N 411.288 -1.90009 -1.39973 0
M  V30 2726 C 411.378 -1.34884 -2.65614 0
M  V30 2727 C 411.528 -2.3145 -3.71736 0
M  V30 2728 C 411.578 -3.63518 -3.44754 0
M  V30 2729 H 414.319 -7.45402 -4.45526 0
M  V30 2730 H 414.588 -5.86062 -3.67208 0
M  V30 2731 H 413.721 -7.84412 -2.24479 0
M  V30 2732 H 411.066 -5.73358 -0.888409 0
M  V30 2733 H 410.787 -5.90877 -3.88583 0
M  V30 2734 H 409.795 -6.65867 -2.58821 0
M  V30 2735 H 411.629 -8.16248 -3.92006 0
M  V30 2736 H 411.7 -4.34551 -4.26383 0
M  V30 2737 P 409.758 -8.7635 -1.60911 0
M  V30 2738 O 409.538 -10.1388 -1.11561 0
M  V30 2739 O 408.968 -8.36503 -2.79617 0
M  V30 2740 O 409.508 -7.71806 -0.42951 0
M  V30 2741 C 410.448 -7.66948 0.673514 0
M  V30 2742 C 409.718 -7.33374 1.95559 0
M  V30 2743 O 409.508 -5.88721 2.00726 0
M  V30 2744 C 408.318 -7.92218 2.1125 0
M  V30 2745 O 407.928 -8.02971 3.47653 0
M  V30 2746 C 407.438 -6.89504 1.41631 0
M  V30 2747 C 408.148 -5.59106 1.75155 0
M  V30 2748 N 408.098 -4.58136 0.662409 0
M  V30 2749 C 407.948 -3.26059 1.02863 0
M  V30 2750 O 407.858 -2.90743 2.19009 0
M  V30 2751 N 407.908 -2.35995 -0.0155585 0
M  V30 2752 C 407.998 -2.65248 -1.35603 0
M  V30 2753 C 408.148 -4.05747 -1.64698 0
M  V30 2754 C 408.198 -4.96734 -0.652411 0
M  V30 2755 H 410.939 -8.64917 0.776982 0
M  V30 2756 H 411.208 -6.89974 0.474015 0
M  V30 2757 H 410.341 -7.66548 2.79458 0
M  V30 2758 H 407.686 -5.16076 2.65138 0
M  V30 2759 H 407.407 -7.06433 0.329384 0
M  V30 2760 H 406.415 -6.90829 1.81996 0
M  V30 2761 H 408.249 -8.90774 1.62639 0
M  V30 2762 H 408.32 -6.02181 -0.895285 0
M  V30 2763 P 406.378 -8.03563 3.84925 0
M  V30 2764 O 406.158 -8.85821 5.0569 0
M  V30 2765 O 405.588 -8.41101 2.65469 0
M  V30 2766 O 406.128 -6.4965 4.18908 0
M  V30 2767 C 407.068 -5.80886 5.05289 0
M  V30 2768 C 406.338 -4.78366 5.89277 0
M  V30 2769 O 406.128 -3.58302 5.08433 0
M  V30 2770 C 404.938 -5.16748 6.36559 0
M  V30 2771 O 404.548 -4.45271 7.53232 0
M  V30 2772 C 404.058 -4.74572 5.19863 0
M  V30 2773 C 404.768 -3.49373 4.70338 0
M  V30 2774 N 404.718 -3.31704 3.22876 0
M  V30 2775 C 404.568 -2.03326 2.74871 0
M  V30 2776 O 404.478 -1.06486 3.48076 0
M  V30 2777 N 404.528 -1.91838 1.37456 0
M  V30 2778 C 404.618 -2.94295 0.462035 0
M  V30 2779 C 404.768 -4.25064 1.05249 0
M  V30 2780 C 404.818 -4.40214 2.39192 0
M  V30 2781 H 407.559 -6.54063 5.71245 0
M  V30 2782 H 407.828 -5.30339 4.43905 0
M  V30 2783 H 406.961 -4.55889 6.76652 0
M  V30 2784 H 404.306 -2.6167 5.17842 0
M  V30 2785 H 404.027 -5.52155 4.41878 0
M  V30 2786 H 403.035 -4.51918 5.53297 0
M  V30 2787 H 404.869 -6.25055 6.55162 0
M  V30 2788 H 404.94 -5.39798 2.81523 0
M  V30 2789 P 402.998 -4.23843 7.83734 0
M  V30 2790 O 402.778 -4.19407 9.29784 0
M  V30 2791 O 402.208 -5.24426 7.09156 0
M  V30 2792 O 402.748 -2.79386 7.20852 0
M  V30 2793 C 403.688 -1.7299 7.50419 0
M  V30 2794 C 402.958 -0.41401 7.5797 0
M  V30 2795 O 402.748 0.089787 6.22035 0
M  V30 2796 C 401.558 -0.447224 8.1878 0
M  V30 2797 O 401.168 0.825159 8.71201 0
M  V30 2798 C 400.678 -0.783801 6.99623 0
M  V30 2799 C 401.388 -0.0619192 5.85967 0
M  V30 2800 N 401.338 -0.7859 4.56281 0
M  V30 2801 C 401.188 -0.0359258 3.39981 0
M  V30 2802 O 401.098 1.19723 3.49038 0
M  V30 2803 N 401.138 -0.869151 2.14025 0
M  V30 2804 C 401.238 -2.01207 2.14363 0
M  V30 2805 N 401.188 -2.58978 0.954287 0
M  V30 2806 C 401.388 -2.80817 3.32215 0
M  V30 2807 C 401.438 -2.13785 4.50884 0
M  V30 2808 H 404.178 -1.93401 8.46693 0
M  V30 2809 H 404.448 -1.68181 6.71046 0
M  V30 2810 H 403.581 0.289076 8.15488 0
M  V30 2811 H 400.926 0.927166 5.72947 0
M  V30 2812 H 400.646 -1.87 6.82132 0
M  V30 2813 H 399.655 -0.404009 7.13457 0
M  V30 2814 H 401.489 -1.20599 8.97534 0
M  V30 2815 H 401.561 -2.70295 5.43162 0
M  V30 2816 H 401.459 -3.89465 3.27406 0
M  V30 2817 H 401.071 -2.01616 0.107046 0
M  V30 2818 H 401.267 -3.61403 0.873101 0
M  V30 2819 P 399.618 1.17771 8.83182 0
M  V30 2820 O 399.398 2.07206 9.98732 0
M  V30 2821 O 398.828 -0.0743816 8.81969 0
M  V30 2822 O 399.368 1.97652 7.47304 0
M  V30 2823 C 400.308 3.01133 7.08783 0
M  V30 2824 C 399.578 4.12613 6.37049 0
M  V30 2825 O 399.368 3.72827 4.97879 0
M  V30 2826 C 398.178 4.45085 6.88694 0
M  V30 2827 O 397.788 5.7877 6.5624 0
M  V30 2828 C 397.298 3.47817 6.12078 0
M  V30 2829 C 398.008 3.39414 4.77697 0
M  V30 2830 N 397.958 2.04615 4.15333 0
M  V30 2831 H 400.797 3.41248 7.98759 0
M  V30 2832 H 401.069 2.5837 6.41742 0
M  V30 2833 H 400.201 5.02657 6.42673 0
M  V30 2834 P 396.238 6.144 6.45285 0
M  V30 2835 O 396.018 7.54673 6.86199 0
M  V30 2836 O 395.448 5.12391 7.179 0
M  V30 2837 O 395.988 5.99158 4.88404 0
M  V30 2838 C 396.928 6.60062 3.96313 0
M  V30 2839 C 396.198 7.08259 2.72856 0
M  V30 2840 O 395.988 5.9427 1.83651 0
M  V30 2841 C 394.798 7.65087 2.94749 0
M  V30 2842 O 394.408 8.53963 1.90717 0
M  V30 2843 C 393.918 6.41069 2.90698 0
M  V30 2844 C 394.628 5.5528 1.86931 0
M  V30 2845 N 394.578 4.09575 2.15696 0
M  V30 2846 C 394.428 3.24249 1.08435 0
M  V30 2847 O 394.338 3.63946 -0.0628747 0
M  V30 2848 N 394.388 1.90009 1.39973 0
M  V30 2849 C 394.478 1.34884 2.65614 0
M  V30 2850 O 394.428 0.123716 2.81728 0
M  V30 2851 C 394.628 2.3145 3.71736 0
M  V30 2852 C 394.738 1.75913 5.10438 0
M  V30 2853 C 394.678 3.63518 3.44754 0
M  V30 2854 H 397.419 7.45402 4.45526 0
M  V30 2855 H 397.688 5.86062 3.67208 0
M  V30 2856 H 396.821 7.84412 2.24479 0
M  V30 2857 H 394.166 5.73358 0.888409 0
M  V30 2858 H 393.887 5.90877 3.88583 0
M  V30 2859 H 392.895 6.65867 2.58821 0
M  V30 2860 H 394.729 8.16248 3.92006 0
M  V30 2861 H 394.8 4.34551 4.26383 0
M  V30 2862 H 393.77 1.85471 5.61775 0
M  V30 2863 H 395.507 2.31364 5.66257 0
M  V30 2864 H 395.019 0.695936 5.05229 0
M  V30 2865 H 394.283 1.26277 0.63625 0
M  V30 2866 P 392.858 8.7635 1.60911 0
M  V30 2867 O 392.638 10.1388 1.11561 0
M  V30 2868 O 392.068 8.36503 2.79617 0
M  V30 2869 O 392.608 7.71806 0.42951 0
M  V30 2870 C 393.548 7.67148 -0.673689 0
M  V30 2871 C 392.818 7.33374 -1.95559 0
M  V30 2872 O 392.608 5.88721 -2.00726 0
M  V30 2873 C 391.418 7.92526 -2.10483 0
M  V30 2874 O 391.028 8.02971 -3.47653 0
M  V30 2875 C 390.538 6.89602 -1.41652 0
M  V30 2876 C 391.248 5.59201 -1.75185 0
M  V30 2877 N 391.198 4.58301 -0.657969 0
M  V30 2878 H 394.037 8.65116 -0.777161 0
M  V30 2879 H 394.309 6.9022 -0.46725 0
M  V30 2880 H 393.441 7.66548 -2.79458 0
M  V30 2881 H 390.786 5.16165 -2.65183 0
M  V30 2882 H 390.506 7.06433 -0.329384 0
M  V30 2883 H 389.515 6.90926 -1.82021 0
M  V30 2884 H 391.349 8.90873 -1.62657 0
M  V30 2885 P 389.478 8.03563 -3.84925 0
M  V30 2886 O 389.258 8.85821 -5.0569 0
M  V30 2887 O 388.688 8.41101 -2.65469 0
M  V30 2888 O 389.228 6.4965 -4.18908 0
M  V30 2889 C 390.168 5.81037 -5.05421 0
M  V30 2890 C 389.438 4.78366 -5.89277 0
M  V30 2891 O 389.228 3.58302 -5.08433 0
M  V30 2892 C 388.038 5.17448 -6.36119 0
M  V30 2893 O 387.648 4.45271 -7.53232 0
M  V30 2894 C 387.158 4.74639 -5.19936 0
M  V30 2895 C 387.868 3.49432 -4.70418 0
M  V30 2896 N 387.818 3.32099 -3.22613 0
M  V30 2897 H 390.657 6.54213 -5.71376 0
M  V30 2898 H 390.929 5.30936 -4.43503 0
M  V30 2899 H 390.061 4.55889 -6.76652 0
M  V30 2900 H 387.406 2.61715 -5.17932 0
M  V30 2901 H 387.126 5.52155 -4.41878 0
M  V30 2902 H 386.135 4.51981 -5.53374 0
M  V30 2903 H 387.969 6.25124 -6.55234 0
M  V30 2904 P 386.098 4.23843 -7.83734 0
M  V30 2905 O 385.878 4.19407 -9.29784 0
M  V30 2906 O 385.308 5.24426 -7.09156 0
M  V30 2907 O 385.848 2.79386 -7.20852 0
M  V30 2908 C 386.788 1.7299 -7.50419 0
M  V30 2909 C 386.058 0.41401 -7.5797 0
M  V30 2910 O 385.848 -0.089787 -6.22035 0
M  V30 2911 C 384.658 0.447224 -8.1878 0
M  V30 2912 O 384.268 -0.825159 -8.71201 0
M  V30 2913 C 383.778 0.783801 -6.99623 0
M  V30 2914 C 384.488 0.0619192 -5.85967 0
M  V30 2915 N 384.438 0.7859 -4.56281 0
M  V30 2916 C 384.288 0.0359258 -3.39981 0
M  V30 2917 O 384.198 -1.19723 -3.49038 0
M  V30 2918 N 384.238 0.869151 -2.14025 0
M  V30 2919 C 384.338 2.01207 -2.14363 0
M  V30 2920 N 384.288 2.58978 -0.954287 0
M  V30 2921 C 384.488 2.80817 -3.32215 0
M  V30 2922 C 384.538 2.13785 -4.50884 0
M  V30 2923 H 387.278 1.93401 -8.46693 0
M  V30 2924 H 387.548 1.68181 -6.71046 0
M  V30 2925 H 386.681 -0.289076 -8.15488 0
M  V30 2926 H 384.026 -0.927166 -5.72947 0
M  V30 2927 H 383.746 1.87 -6.82132 0
M  V30 2928 H 382.755 0.404009 -7.13457 0
M  V30 2929 H 384.589 1.20599 -8.97534 0
M  V30 2930 H 384.661 2.70295 -5.43162 0
M  V30 2931 H 384.559 3.89465 -3.27406 0
M  V30 2932 H 384.171 2.01616 -0.107046 0
M  V30 2933 H 384.367 3.61403 -0.873101 0
M  V30 2934 P 382.718 -1.17771 -8.83182 0
M  V30 2935 O 382.498 -2.07206 -9.98732 0
M  V30 2936 O 381.928 0.0743816 -8.81969 0
M  V30 2937 O 382.468 -1.97652 -7.47304 0
M  V30 2938 C 383.408 -3.01133 -7.08783 0
M  V30 2939 C 382.678 -4.12613 -6.37049 0
M  V30 2940 O 382.468 -3.72827 -4.97879 0
M  V30 2941 C 381.278 -4.45085 -6.88694 0
M  V30 2942 O 380.888 -5.7877 -6.5624 0
M  V30 2943 C 380.398 -3.47817 -6.12078 0
M  V30 2944 C 381.108 -3.39414 -4.77697 0
M  V30 2945 N 381.058 -2.04615 -4.15333 0
M  V30 2946 H 383.897 -3.41248 -7.98759 0
M  V30 2947 H 384.169 -2.5837 -6.41742 0
M  V30 2948 H 383.301 -5.02657 -6.42673 0
M  V30 2949 P 379.338 -6.144 -6.45285 0
M  V30 2950 O 379.118 -7.54673 -6.86199 0
M  V30 2951 O 378.548 -5.12391 -7.179 0
M  V30 2952 O 379.088 -5.99158 -4.88404 0
M  V30 2953 C 380.028 -6.60234 -3.96415 0
M  V30 2954 C 379.298 -7.08259 -2.72856 0
M  V30 2955 O 379.088 -5.9427 -1.83651 0
M  V30 2956 C 377.898 -7.64886 -2.9555 0
M  V30 2957 O 377.508 -8.53963 -1.90717 0
M  V30 2958 C 377.018 -6.4116 -2.90739 0
M  V30 2959 C 377.728 -5.55375 -1.86963 0
M  V30 2960 N 377.678 -4.09664 -2.15742 0
M  V30 2961 H 380.517 -7.45574 -4.45629 0
M  V30 2962 H 380.789 -5.86232 -3.67314 0
M  V30 2963 H 379.921 -7.84412 -2.24479 0
M  V30 2964 P 375.958 -8.7635 -1.60911 0
M  V30 2965 O 375.738 -10.1388 -1.11561 0
M  V30 2966 O 375.168 -8.36503 -2.79617 0
M  V30 2967 O 375.708 -7.71806 -0.42951 0
M  V30 2968 C 376.648 -7.67148 0.673689 0
M  V30 2969 C 375.918 -7.33374 1.95559 0
M  V30 2970 O 375.708 -5.88721 2.00726 0
M  V30 2971 C 374.518 -7.92526 2.10483 0
M  V30 2972 O 374.128 -8.02971 3.47653 0
M  V30 2973 C 373.638 -6.89602 1.41652 0
M  V30 2974 C 374.348 -5.59201 1.75185 0
M  V30 2975 N 374.298 -4.58301 0.657969 0
M  V30 2976 C 374.378 -4.79019 -0.692603 0
M  V30 2977 N 374.308 -3.69736 -1.38998 0
M  V30 2978 C 374.158 -2.70474 -0.438135 0
M  V30 2979 C 374.028 -1.30327 -0.538142 0
M  V30 2980 N 374.018 -0.64304 -1.69192 0
M  V30 2981 N 373.908 -0.611027 0.605183 0
M  V30 2982 C 373.918 -1.27002 1.75953 0
M  V30 2983 N 374.038 -2.56038 1.98546 0
M  V30 2984 C 374.158 -3.22681 0.822541 0
M  V30 2985 H 377.137 -8.65116 0.777161 0
M  V30 2986 H 377.409 -6.9022 0.46725 0
M  V30 2987 H 376.541 -7.66548 2.79458 0
M  V30 2988 H 373.886 -5.16165 2.65183 0
M  V30 2989 H 373.606 -7.06433 0.329384 0
M  V30 2990 H 372.615 -6.90926 1.82021 0
M  V30 2991 H 374.449 -8.90873 1.62657 0
M  V30 2992 H 374.49 -5.77785 -1.13874 0
M  V30 2993 H 374.109 -1.15585 -2.57991 0
M  V30 2994 H 373.92 0.382989 -1.69835 0
M  V30 2995 H 373.812 -0.653331 2.64449 0
M  V30 2996 P 372.578 -8.03563 3.84925 0
M  V30 2997 O 372.358 -8.85821 5.0569 0
M  V30 2998 O 371.788 -8.41101 2.65469 0
M  V30 2999 O 372.328 -6.4965 4.18908 0
M  V30 3000 C 373.268 -5.81037 5.05421 0
M  V30 3001 C 372.538 -4.78366 5.89277 0
M  V30 3002 O 372.328 -3.58302 5.08433 0
M  V30 3003 C 371.138 -5.17448 6.36119 0
M  V30 3004 O 370.748 -4.45271 7.53232 0
M  V30 3005 C 370.258 -4.74639 5.19936 0
M  V30 3006 C 370.968 -3.49432 4.70418 0
M  V30 3007 N 370.918 -3.31776 3.22945 0
M  V30 3008 H 373.757 -6.54213 5.71376 0
M  V30 3009 H 374.029 -5.30492 4.44033 0
M  V30 3010 H 373.161 -4.55889 6.76652 0
M  V30 3011 P 369.198 -4.23843 7.83734 0
M  V30 3012 O 368.978 -4.19407 9.29784 0
M  V30 3013 O 368.408 -5.24426 7.09156 0
M  V30 3014 O 368.948 -2.7935 7.20758 0
M  V30 3015 C 369.888 -1.7299 7.50419 0
M  V30 3016 C 369.158 -0.406376 7.57911 0
M  V30 3017 O 368.948 0.0897726 6.21935 0
M  V30 3018 C 367.758 -0.447224 8.1878 0
M  V30 3019 O 367.368 0.825065 8.71101 0
M  V30 3020 C 366.878 -0.783801 6.99623 0
M  V30 3021 C 367.588 -0.0619192 5.85967 0
M  V30 3022 N 367.538 -0.7859 4.56281 0
M  V30 3023 H 370.377 -1.93423 8.4679 0
M  V30 3024 H 370.649 -1.68181 6.71046 0
M  V30 3025 H 369.781 0.289041 8.15388 0
M  V30 3026 P 365.818 1.17771 8.83182 0
M  V30 3027 O 365.598 2.07206 9.98732 0
M  V30 3028 O 365.028 -0.0743816 8.81969 0
M  V30 3029 O 365.568 1.97652 7.47304 0
M  V30 3030 C 366.508 3.01133 7.08783 0
M  V30 3031 C 365.778 4.12613 6.37049 0
M  V30 3032 O 365.568 3.72827 4.97879 0
M  V30 3033 C 364.378 4.45085 6.88694 0
M  V30 3034 O 363.988 5.7877 6.5624 0
M  V30 3035 C 363.498 3.47817 6.12078 0
M  V30 3036 C 364.208 3.39414 4.77697 0
M  V30 3037 N 364.158 2.04615 4.15333 0
M  V30 3038 H 366.997 3.41248 7.98759 0
M  V30 3039 H 367.269 2.5837 6.41742 0
M  V30 3040 H 366.401 5.02657 6.42673 0
M  V30 3041 P 362.438 6.144 6.45285 0
M  V30 3042 O 362.218 7.54673 6.86199 0
M  V30 3043 O 361.648 5.12391 7.179 0
M  V30 3044 O 362.188 5.99158 4.88404 0
M  V30 3045 C 363.128 6.60234 3.96415 0
M  V30 3046 C 362.398 7.08259 2.72856 0
M  V30 3047 O 362.188 5.9427 1.83651 0
M  V30 3048 C 360.998 7.64886 2.9555 0
M  V30 3049 O 360.608 8.53963 1.90717 0
M  V30 3050 C 360.118 6.4116 2.90739 0
M  V30 3051 C 360.828 5.55375 1.86963 0
M  V30 3052 N 360.778 4.09664 2.15742 0
M  V30 3053 H 363.617 7.45574 4.45629 0
M  V30 3054 H 363.889 5.86232 3.67314 0
M  V30 3055 H 363.021 7.84412 2.24479 0
M  V30 3056 P 359.058 8.7635 1.60911 0
M  V30 3057 O 358.838 10.1388 1.11561 0
M  V30 3058 O 358.268 8.36503 2.79617 0
M  V30 3059 O 358.808 7.71806 0.42951 0
M  V30 3060 C 359.748 7.67148 -0.673689 0
M  V30 3061 C 359.018 7.33374 -1.95559 0
M  V30 3062 O 358.808 5.88721 -2.00726 0
M  V30 3063 C 357.618 7.92526 -2.10483 0
M  V30 3064 O 357.228 8.02971 -3.47653 0
M  V30 3065 C 356.738 6.89602 -1.41652 0
M  V30 3066 C 357.448 5.59201 -1.75185 0
M  V30 3067 N 357.398 4.58301 -0.657969 0
M  V30 3068 H 360.237 8.65116 -0.777161 0
M  V30 3069 H 360.509 6.9022 -0.46725 0
M  V30 3070 H 359.641 7.66548 -2.79458 0
M  V30 3071 H 356.986 5.16165 -2.65183 0
M  V30 3072 H 356.706 7.06433 -0.329384 0
M  V30 3073 H 355.715 6.90926 -1.82021 0
M  V30 3074 H 357.549 8.90873 -1.62657 0
M  V30 3075 P 355.678 8.03563 -3.84925 0
M  V30 3076 O 355.458 8.85821 -5.0569 0
M  V30 3077 O 354.888 8.41101 -2.65469 0
M  V30 3078 O 355.428 6.4965 -4.18908 0
M  V30 3079 C 356.368 5.81037 -5.05421 0
M  V30 3080 C 355.638 4.78366 -5.89277 0
M  V30 3081 O 355.428 3.58302 -5.08433 0
M  V30 3082 C 354.238 5.17448 -6.36119 0
M  V30 3083 O 353.848 4.45271 -7.53232 0
M  V30 3084 C 353.358 4.74639 -5.19936 0
M  V30 3085 C 354.068 3.49432 -4.70418 0
M  V30 3086 N 354.018 3.32099 -3.22613 0
M  V30 3087 H 356.857 6.54213 -5.71376 0
M  V30 3088 H 357.129 5.30936 -4.43503 0
M  V30 3089 H 356.261 4.55889 -6.76652 0
M  V30 3090 H 353.606 2.61715 -5.17932 0
M  V30 3091 H 353.326 5.52155 -4.41878 0
M  V30 3092 H 352.335 4.51981 -5.53374 0
M  V30 3093 H 354.169 6.25124 -6.55234 0
M  V30 3094 P 352.298 4.23843 -7.83734 0
M  V30 3095 O 352.078 4.19407 -9.29784 0
M  V30 3096 O 351.508 5.24426 -7.09156 0
M  V30 3097 O 352.048 2.7935 -7.20758 0
M  V30 3098 C 352.988 1.7299 -7.50419 0
M  V30 3099 C 352.258 0.406376 -7.57911 0
M  V30 3100 O 352.048 -0.0897726 -6.21935 0
M  V30 3101 C 350.858 0.447224 -8.1878 0
M  V30 3102 O 350.468 -0.825065 -8.71101 0
M  V30 3103 C 349.978 0.783801 -6.99623 0
M  V30 3104 C 350.688 0.0619192 -5.85967 0
M  V30 3105 N 350.638 0.7859 -4.56281 0
M  V30 3106 H 353.477 1.93423 -8.4679 0
M  V30 3107 H 353.749 1.68181 -6.71046 0
M  V30 3108 H 352.881 -0.289041 -8.15388 0
M  V30 3109 P 348.918 -1.17771 -8.83182 0
M  V30 3110 O 348.698 -2.07206 -9.98732 0
M  V30 3111 O 348.128 0.0743816 -8.81969 0
M  V30 3112 O 348.668 -1.97652 -7.47304 0
M  V30 3113 C 349.608 -3.01133 -7.08783 0
M  V30 3114 C 348.878 -4.12613 -6.37049 0
M  V30 3115 O 348.668 -3.72827 -4.97879 0
M  V30 3116 C 347.478 -4.45085 -6.88694 0
M  V30 3117 O 347.088 -5.7877 -6.5624 0
M  V30 3118 C 346.598 -3.47817 -6.12078 0
M  V30 3119 C 347.308 -3.39414 -4.77697 0
M  V30 3120 N 347.258 -2.04615 -4.15333 0
M  V30 3121 H 350.097 -3.41248 -7.98759 0
M  V30 3122 H 350.369 -2.5837 -6.41742 0
M  V30 3123 H 349.501 -5.02657 -6.42673 0
M  V30 3124 P 345.538 -6.144 -6.45285 0
M  V30 3125 O 345.318 -7.54673 -6.86199 0
M  V30 3126 O 344.748 -5.12391 -7.179 0
M  V30 3127 O 345.288 -5.99236 -4.88467 0
M  V30 3128 C 346.228 -6.60234 -3.96415 0
M  V30 3129 C 345.498 -7.08079 -2.736 0
M  V30 3130 O 345.288 -5.94365 -1.8368 0
M  V30 3131 C 344.098 -7.64886 -2.9555 0
M  V30 3132 O 343.708 -8.5406 -1.90739 0
M  V30 3133 C 343.218 -6.4116 -2.90739 0
M  V30 3134 C 343.928 -5.55375 -1.86963 0
M  V30 3135 N 343.878 -4.09664 -2.15742 0
M  V30 3136 C 343.728 -3.22231 -1.08477 0
M  V30 3137 O 343.638 -3.68951 0.0600489 0
M  V30 3138 N 343.678 -1.76692 -1.48799 0
M  V30 3139 C 343.778 -1.41695 -2.57602 0
M  V30 3140 N 343.728 -0.107296 -2.75791 0
M  V30 3141 C 343.928 -2.29178 -3.69733 0
M  V30 3142 C 343.978 -3.62753 -3.42653 0
M  V30 3143 H 346.718 -7.45488 -4.45578 0
M  V30 3144 H 346.988 -5.86232 -3.67314 0
M  V30 3145 H 346.121 -7.84508 -2.24507 0
M  V30 3146 H 343.466 -5.73556 -0.888715 0
M  V30 3147 H 343.186 -5.9096 -3.88638 0
M  V30 3148 H 342.195 -6.66053 -2.58894 0
M  V30 3149 H 344.029 -8.16339 -3.92049 0
M  V30 3150 H 344.101 -4.33052 -4.24913 0
M  V30 3151 H 343.999 -1.9103 -4.71577 0
M  V30 3152 H 343.611 0.521221 -1.95056 0
M  V30 3153 H 343.807 0.286429 -3.70695 0
M  V30 3154 P 342.158 -8.7635 -1.60911 0
M  V30 3155 O 341.938 -10.1388 -1.11561 0
M  V30 3156 O 341.368 -8.36503 -2.79617 0
M  V30 3157 O 341.908 -7.71906 -0.429565 0
M  V30 3158 C 342.848 -7.67148 0.673689 0
M  V30 3159 C 342.118 -7.33666 1.94851 0
M  V30 3160 O 341.908 -5.88816 2.00759 0
M  V30 3161 C 340.718 -7.92526 2.10483 0
M  V30 3162 O 340.328 -8.03063 3.47693 0
M  V30 3163 C 339.838 -6.89602 1.41652 0
M  V30 3164 C 340.548 -5.59201 1.75185 0
M  V30 3165 N 340.498 -4.58235 0.662552 0
M  V30 3166 C 340.348 -3.24451 1.01643 0
M  V30 3167 O 340.258 -2.94958 2.21722 0
M  V30 3168 N 340.298 -2.30408 -0.165238 0
M  V30 3169 C 340.398 -2.66048 -1.25118 0
M  V30 3170 N 340.348 -1.70787 -2.16813 0
M  V30 3171 C 340.548 -4.02732 -1.64413 0
M  V30 3172 C 340.598 -4.9488 -0.63991 0
M  V30 3173 H 343.338 -8.65017 0.777072 0
M  V30 3174 H 343.608 -6.90173 0.474152 0
M  V30 3175 H 342.741 -7.66642 2.79492 0
M  V30 3176 H 340.086 -5.16254 2.65229 0
M  V30 3177 H 339.806 -7.06532 0.329431 0
M  V30 3178 H 338.815 -6.91023 1.82047 0
M  V30 3179 H 340.649 -8.90873 1.62657 0
M  V30 3180 H 340.721 -6.00104 -0.892197 0
M  V30 3181 H 340.619 -4.31733 -2.69229 0
M  V30 3182 H 340.231 -0.724835 -1.8844 0
M  V30 3183 H 340.427 -1.94716 -3.16734 0
M  V30 3184 P 338.778 -8.03563 3.84925 0
M  V30 3185 O 338.558 -8.85821 5.0569 0
M  V30 3186 O 337.988 -8.41101 2.65469 0
M  V30 3187 O 338.528 -6.4965 4.18908 0
M  V30 3188 C 339.468 -5.81037 5.05421 0
M  V30 3189 C 338.738 -4.78366 5.89277 0
M  V30 3190 O 338.528 -3.58302 5.08433 0
M  V30 3191 C 337.338 -5.17448 6.36119 0
M  V30 3192 O 336.948 -4.45271 7.53232 0
M  V30 3193 C 336.458 -4.74639 5.19936 0
M  V30 3194 C 337.168 -3.49432 4.70418 0
M  V30 3195 N 337.118 -3.32099 3.22613 0
M  V30 3196 H 339.957 -6.54213 5.71376 0
M  V30 3197 H 340.229 -5.30936 4.43503 0
M  V30 3198 H 339.361 -4.55889 6.76652 0
M  V30 3199 H 336.706 -2.61715 5.17932 0
M  V30 3200 H 336.426 -5.52155 4.41878 0
M  V30 3201 H 335.435 -4.51981 5.53374 0
M  V30 3202 H 337.269 -6.25124 6.55234 0
M  V30 3203 P 335.398 -4.23843 7.83734 0
M  V30 3204 O 335.178 -4.19407 9.29784 0
M  V30 3205 O 334.608 -5.24426 7.09156 0
M  V30 3206 O 335.148 -2.7935 7.20758 0
M  V30 3207 C 336.088 -1.72945 7.50224 0
M  V30 3208 C 335.358 -0.406376 7.57911 0
M  V30 3209 O 335.148 0.0897726 6.21935 0
M  V30 3210 C 333.958 -0.438983 8.18724 0
M  V30 3211 O 333.568 0.825065 8.71101 0
M  V30 3212 C 333.078 -0.783689 6.99524 0
M  V30 3213 C 333.788 -0.0619086 5.85867 0
M  V30 3214 N 333.738 -0.78573 4.56183 0
M  V30 3215 C 333.588 -0.0292889 3.41887 0
M  V30 3216 O 333.498 1.18445 3.4419 0
M  V30 3217 N 333.548 -0.744061 2.23964 0
M  V30 3218 C 333.638 -2.10932 2.10362 0
M  V30 3219 C 333.788 -2.8202 3.34994 0
M  V30 3220 C 333.838 -2.15547 4.52261 0
M  V30 3221 H 336.579 -1.93379 8.46595 0
M  V30 3222 H 336.848 -1.68132 6.70852 0
M  V30 3223 H 335.981 0.289041 8.15388 0
M  V30 3224 H 333.326 0.926847 5.72749 0
M  V30 3225 H 333.047 -1.86973 6.82036 0
M  V30 3226 H 332.055 -0.403896 7.13257 0
M  V30 3227 H 333.889 -1.20585 8.97435 0
M  V30 3228 H 333.96 -2.71231 5.45042 0
M  V30 3229 P 332.018 1.17771 8.83182 0
M  V30 3230 O 331.798 2.07206 9.98732 0
M  V30 3231 O 331.228 -0.0743816 8.81969 0
M  V30 3232 O 331.768 1.97652 7.47304 0
M  V30 3233 C 332.708 3.01133 7.08783 0
M  V30 3234 C 331.978 4.12613 6.37049 0
M  V30 3235 O 331.768 3.72827 4.97879 0
M  V30 3236 C 330.578 4.45085 6.88694 0
M  V30 3237 O 330.188 5.7877 6.5624 0
M  V30 3238 C 329.698 3.47817 6.12078 0
M  V30 3239 C 330.408 3.39414 4.77697 0
M  V30 3240 N 330.358 2.04199 4.15538 0
M  V30 3241 H 333.197 3.41248 7.98759 0
M  V30 3242 H 333.469 2.57728 6.42 0
M  V30 3243 H 332.601 5.02657 6.42673 0
M  V30 3244 H 329.946 4.11708 4.08956 0
M  V30 3245 H 329.666 2.49626 6.61679 0
M  V30 3246 H 328.675 3.8662 6.00862 0
M  V30 3247 H 330.509 4.29991 7.97006 0
M  V30 3248 P 328.638 6.144 6.45285 0
M  V30 3249 O 328.418 7.54673 6.86199 0
M  V30 3250 O 327.848 5.12391 7.179 0
M  V30 3251 O 328.388 5.99158 4.88404 0
M  V30 3252 C 329.328 6.60234 3.96415 0
M  V30 3253 C 328.598 7.08259 2.72856 0
M  V30 3254 O 328.388 5.9427 1.83651 0
M  V30 3255 C 327.198 7.64886 2.9555 0
M  V30 3256 O 326.808 8.53963 1.90717 0
M  V30 3257 C 326.318 6.4116 2.90739 0
M  V30 3258 C 327.028 5.55375 1.86963 0
M  V30 3259 N 326.978 4.09664 2.15742 0
M  V30 3260 H 329.817 7.45574 4.45629 0
M  V30 3261 H 330.089 5.86232 3.67314 0
M  V30 3262 H 329.221 7.84412 2.24479 0
M  V30 3263 P 325.258 8.7635 1.60911 0
M  V30 3264 O 325.038 10.1388 1.11561 0
M  V30 3265 O 324.468 8.36503 2.79617 0
M  V30 3266 O 325.008 7.71806 0.42951 0
M  V30 3267 C 325.948 7.67148 -0.673689 0
M  V30 3268 C 325.218 7.33374 -1.95559 0
M  V30 3269 O 325.008 5.88721 -2.00726 0
M  V30 3270 C 323.818 7.92526 -2.10483 0
M  V30 3271 O 323.428 8.02971 -3.47653 0
M  V30 3272 C 322.938 6.89602 -1.41652 0
M  V30 3273 C 323.648 5.59201 -1.75185 0
M  V30 3274 N 323.598 4.58235 -0.662552 0
M  V30 3275 H 326.437 8.65116 -0.777161 0
M  V30 3276 H 326.709 6.90173 -0.474152 0
M  V30 3277 H 325.841 7.66548 -2.79458 0
M  V30 3278 P 321.878 8.03563 -3.84925 0
M  V30 3279 O 321.658 8.85821 -5.0569 0
M  V30 3280 O 321.088 8.41101 -2.65469 0
M  V30 3281 O 321.628 6.49734 -4.18962 0
M  V30 3282 C 322.568 5.81037 -5.05421 0
M  V30 3283 C 321.838 4.79018 -5.88876 0
M  V30 3284 O 321.628 3.58359 -5.08515 0
M  V30 3285 C 320.438 5.17448 -6.36119 0
M  V30 3286 O 320.048 4.45322 -7.53318 0
M  V30 3287 C 319.558 4.74639 -5.19936 0
M  V30 3288 C 320.268 3.49432 -4.70418 0
M  V30 3289 N 320.218 3.31776 -3.22945 0
M  V30 3290 C 320.068 2.02742 -2.72939 0
M  V30 3291 O 319.978 1.08301 -3.52749 0
M  V30 3292 N 320.018 1.96117 -1.22063 0
M  V30 3293 C 320.118 2.8878 -0.551566 0
M  V30 3294 N 320.068 2.65609 0.750198 0
M  V30 3295 C 320.268 4.22457 -1.03707 0
M  V30 3296 C 320.318 4.37979 -2.39113 0
M  V30 3297 H 323.058 6.54138 -5.7131 0
M  V30 3298 H 323.328 5.30492 -4.44033 0
M  V30 3299 H 322.461 4.55945 -6.76735 0
M  V30 3300 H 319.806 2.6176 -5.18021 0
M  V30 3301 H 319.526 5.52233 -4.41941 0
M  V30 3302 H 318.535 4.52045 -5.53452 0
M  V30 3303 H 320.369 6.25124 -6.55234 0
M  V30 3304 H 320.441 5.37936 -2.80552 0
M  V30 3305 H 320.339 5.07528 -0.359553 0
M  V30 3306 H 319.951 1.69403 1.09847 0
M  V30 3307 H 320.147 3.43701 1.41792 0
M  V30 3308 P 318.498 4.23843 -7.83734 0
M  V30 3309 O 318.278 4.19407 -9.29784 0
M  V30 3310 O 317.708 5.24426 -7.09156 0
M  V30 3311 O 318.248 2.7935 -7.20758 0
M  V30 3312 C 319.188 1.72945 -7.50224 0
M  V30 3313 C 318.458 0.406376 -7.57911 0
M  V30 3314 O 318.248 -0.0897726 -6.21935 0
M  V30 3315 C 317.058 0.438983 -8.18724 0
M  V30 3316 O 316.668 -0.825065 -8.71101 0
M  V30 3317 C 316.178 0.783689 -6.99524 0
M  V30 3318 C 316.888 0.0619086 -5.85867 0
M  V30 3319 N 316.838 0.78573 -4.56183 0
M  V30 3320 C 316.688 0.0292889 -3.41887 0
M  V30 3321 O 316.598 -1.18445 -3.4419 0
M  V30 3322 N 316.648 0.744061 -2.23964 0
M  V30 3323 C 316.738 2.10932 -2.10362 0
M  V30 3324 O 316.688 2.64117 -0.98825 0
M  V30 3325 C 316.888 2.8202 -3.34994 0
M  V30 3326 C 316.998 4.31095 -3.25037 0
M  V30 3327 C 316.938 2.15547 -4.52261 0
M  V30 3328 H 319.679 1.93379 -8.46595 0
M  V30 3329 H 319.948 1.68132 -6.70852 0
M  V30 3330 H 319.081 -0.289041 -8.15388 0
M  V30 3331 H 316.426 -0.926847 -5.72749 0
M  V30 3332 H 316.147 1.86973 -6.82036 0
M  V30 3333 H 315.155 0.403896 -7.13257 0
M  V30 3334 H 316.989 1.20585 -8.97435 0
M  V30 3335 H 317.06 2.71231 -5.45042 0
M  V30 3336 H 316.03 4.76966 -3.49992 0
M  V30 3337 H 317.767 4.67047 -3.95024 0
M  V30 3338 H 317.279 4.58996 -2.22312 0
M  V30 3339 H 316.543 0.214893 -1.39758 0
M  V30 3340 P 315.118 -1.17771 -8.83182 0
M  V30 3341 O 314.898 -2.07206 -9.98732 0
M  V30 3342 O 314.328 0.0743816 -8.81969 0
M  V30 3343 O 314.868 -1.97652 -7.47304 0
M  V30 3344 C 315.808 -3.01133 -7.08783 0
M  V30 3345 C 315.078 -4.12613 -6.37049 0
M  V30 3346 O 314.868 -3.72827 -4.97879 0
M  V30 3347 C 313.678 -4.45085 -6.88694 0
M  V30 3348 O 313.288 -5.7877 -6.5624 0
M  V30 3349 C 312.798 -3.47817 -6.12078 0
M  V30 3350 C 313.508 -3.39414 -4.77697 0
M  V30 3351 N 313.458 -2.04615 -4.15333 0
M  V30 3352 H 316.297 -3.41248 -7.98759 0
M  V30 3353 H 316.569 -2.5837 -6.41742 0
M  V30 3354 H 315.701 -5.02657 -6.42673 0
M  V30 3355 P 311.738 -6.144 -6.45285 0
M  V30 3356 O 311.518 -7.54673 -6.86199 0
M  V30 3357 O 310.948 -5.12391 -7.179 0
M  V30 3358 O 311.488 -5.99158 -4.88404 0
M  V30 3359 C 312.428 -6.60062 -3.96313 0
M  V30 3360 C 311.698 -7.08259 -2.72856 0
M  V30 3361 O 311.488 -5.9427 -1.83651 0
M  V30 3362 C 310.298 -7.65087 -2.94749 0
M  V30 3363 O 309.908 -8.53963 -1.90717 0
M  V30 3364 C 309.418 -6.41069 -2.90698 0
M  V30 3365 C 310.128 -5.5528 -1.86931 0
M  V30 3366 N 310.078 -4.09575 -2.15696 0
M  V30 3367 C 309.928 -3.24249 -1.08435 0
M  V30 3368 O 309.838 -3.63946 0.0628747 0
M  V30 3369 N 309.888 -1.90009 -1.39973 0
M  V30 3370 C 309.978 -1.34884 -2.65614 0
M  V30 3371 C 310.128 -2.3145 -3.71736 0
M  V30 3372 C 310.178 -3.63518 -3.44754 0
M  V30 3373 H 312.919 -7.45402 -4.45526 0
M  V30 3374 H 313.188 -5.86062 -3.67208 0
M  V30 3375 H 312.321 -7.84412 -2.24479 0
M  V30 3376 H 309.666 -5.73358 -0.888409 0
M  V30 3377 H 309.387 -5.90877 -3.88583 0
M  V30 3378 H 308.395 -6.65867 -2.58821 0
M  V30 3379 H 310.229 -8.16248 -3.92006 0
M  V30 3380 H 310.3 -4.34551 -4.26383 0
M  V30 3381 P 308.358 -8.7635 -1.60911 0
M  V30 3382 O 308.138 -10.1388 -1.11561 0
M  V30 3383 O 307.568 -8.36503 -2.79617 0
M  V30 3384 O 308.108 -7.71806 -0.42951 0
M  V30 3385 C 309.048 -7.67148 0.673689 0
M  V30 3386 C 308.318 -7.33374 1.95559 0
M  V30 3387 O 308.108 -5.88721 2.00726 0
M  V30 3388 C 306.918 -7.92526 2.10483 0
M  V30 3389 O 306.528 -8.02971 3.47653 0
M  V30 3390 C 306.038 -6.89602 1.41652 0
M  V30 3391 C 306.748 -5.59201 1.75185 0
M  V30 3392 N 306.698 -4.58235 0.662552 0
M  V30 3393 H 309.537 -8.65116 0.777161 0
M  V30 3394 H 309.809 -6.90173 0.474152 0
M  V30 3395 H 308.941 -7.66548 2.79458 0
M  V30 3396 P 304.978 -8.03563 3.84925 0
M  V30 3397 O 304.758 -8.85821 5.0569 0
M  V30 3398 O 304.188 -8.41101 2.65469 0
M  V30 3399 O 304.728 -6.4965 4.18908 0
M  V30 3400 C 305.668 -5.81037 5.05421 0
M  V30 3401 C 304.938 -4.78366 5.89277 0
M  V30 3402 O 304.728 -3.58302 5.08433 0
M  V30 3403 C 303.538 -5.17448 6.36119 0
M  V30 3404 O 303.148 -4.45271 7.53232 0
M  V30 3405 C 302.658 -4.74639 5.19936 0
M  V30 3406 C 303.368 -3.49432 4.70418 0
M  V30 3407 N 303.318 -3.32099 3.22613 0
M  V30 3408 C 303.398 -4.28245 2.25527 0
M  V30 3409 N 303.328 -3.80823 1.04874 0
M  V30 3410 C 303.178 -2.44571 1.23535 0
M  V30 3411 C 303.048 -1.37068 0.330675 0
M  V30 3412 N 303.038 -1.51472 -0.990824 0
M  V30 3413 N 302.928 -0.138614 0.848756 0
M  V30 3414 C 302.938 0.00675923 2.16999 0
M  V30 3415 N 303.058 -0.904372 3.11122 0
M  V30 3416 C 303.178 -2.12707 2.56212 0
M  V30 3417 H 306.157 -6.54213 5.71376 0
M  V30 3418 H 306.429 -5.30936 4.43503 0
M  V30 3419 H 305.561 -4.55889 6.76652 0
M  V30 3420 H 302.906 -2.61715 5.17932 0
M  V30 3421 H 302.626 -5.52155 4.41878 0
M  V30 3422 H 301.635 -4.51981 5.53374 0
M  V30 3423 H 303.469 -6.25124 6.55234 0
M  V30 3424 H 303.51 -5.34372 2.47488 0
M  V30 3425 H 303.129 -2.45153 -1.4078 0
M  V30 3426 H 302.94 -0.688422 -1.59911 0
M  V30 3427 H 302.832 1.02584 2.52346 0
M  V30 3428 P 301.598 -4.23843 7.83734 0
M  V30 3429 O 301.378 -4.19407 9.29784 0
M  V30 3430 O 300.808 -5.24426 7.09156 0
M  V30 3431 O 301.348 -2.7935 7.20758 0
M  V30 3432 C 302.288 -1.7299 7.50419 0
M  V30 3433 C 301.558 -0.406376 7.57911 0
M  V30 3434 O 301.348 0.0897726 6.21935 0
M  V30 3435 C 300.158 -0.447224 8.1878 0
M  V30 3436 O 299.768 0.825065 8.71101 0
M  V30 3437 C 299.278 -0.783801 6.99623 0
M  V30 3438 C 299.988 -0.0619192 5.85967 0
M  V30 3439 N 299.938 -0.7859 4.56281 0
M  V30 3440 H 302.777 -1.93423 8.4679 0
M  V30 3441 H 303.049 -1.68181 6.71046 0
M  V30 3442 H 302.181 0.289041 8.15388 0
M  V30 3443 P 298.218 1.17771 8.83182 0
M  V30 3444 O 297.998 2.07206 9.98732 0
M  V30 3445 O 297.428 -0.0743816 8.81969 0
M  V30 3446 O 297.968 1.97652 7.47304 0
M  V30 3447 C 298.908 3.01133 7.08783 0
M  V30 3448 C 298.178 4.12613 6.37049 0
M  V30 3449 O 297.968 3.72827 4.97879 0
M  V30 3450 C 296.778 4.45085 6.88694 0
M  V30 3451 O 296.388 5.7877 6.5624 0
M  V30 3452 C 295.898 3.47817 6.12078 0
M  V30 3453 C 296.608 3.39414 4.77697 0
M  V30 3454 N 296.558 2.04615 4.15333 0
M  V30 3455 C 296.638 0.803897 4.75249 0
M  V30 3456 N 296.558 -0.197615 3.91502 0
M  V30 3457 C 296.418 0.413002 2.66823 0
M  V30 3458 C 296.288 -0.157221 1.38007 0
M  V30 3459 O 296.268 -1.34419 1.057 0
M  V30 3460 N 296.168 0.833136 0.390236 0
M  V30 3461 C 296.168 2.19402 0.623885 0
M  V30 3462 N 296.038 2.97622 -0.449677 0
M  V30 3463 N 296.298 2.73005 1.83601 0
M  V30 3464 C 296.418 1.78786 2.80935 0
M  V30 3465 H 299.397 3.41248 7.98759 0
M  V30 3466 H 299.669 2.5837 6.41742 0
M  V30 3467 H 298.801 5.02657 6.42673 0
M  V30 3468 H 296.146 4.11779 4.09026 0
M  V30 3469 H 295.866 2.49661 6.61772 0
M  V30 3470 H 294.875 3.86674 6.00946 0
M  V30 3471 H 296.709 4.30038 7.97094 0
M  V30 3472 H 296.758 0.670579 5.82754 0
M  V30 3473 H 296.076 0.528446 -0.557287 0
M  V30 3474 H 296.039 4.00117 -0.344773 0
M  V30 3475 H 295.938 2.55448 -1.38544 0
M  V30 3476 P 294.838 6.144 6.45285 0
M  V30 3477 O 294.618 7.54673 6.86199 0
M  V30 3478 O 294.048 5.12391 7.179 0
M  V30 3479 O 294.588 5.99158 4.88404 0
M  V30 3480 C 295.528 6.60234 3.96415 0
M  V30 3481 C 294.798 7.08259 2.72856 0
M  V30 3482 O 294.588 5.9427 1.83651 0
M  V30 3483 C 293.398 7.64886 2.9555 0
M  V30 3484 O 293.008 8.53963 1.90717 0
M  V30 3485 C 292.518 6.4116 2.90739 0
M  V30 3486 C 293.228 5.55375 1.86963 0
M  V30 3487 N 293.178 4.09448 2.16152 0
M  V30 3488 C 293.258 3.46824 3.37593 0
M  V30 3489 N 293.188 2.17422 3.29777 0
M  V30 3490 C 293.038 1.93065 1.94427 0
M  V30 3491 C 292.908 0.738053 1.20141 0
M  V30 3492 N 292.898 -0.474256 1.74676 0
M  V30 3493 N 292.788 0.850049 -0.13045 0
M  V30 3494 C 292.798 2.06169 -0.676992 0
M  V30 3495 N 292.918 3.23842 -0.101312 0
M  V30 3496 C 293.038 3.09402 1.23122 0
M  V30 3497 H 296.017 7.45574 4.45629 0
M  V30 3498 H 296.289 5.85864 3.679 0
M  V30 3499 H 295.421 7.84412 2.24479 0
M  V30 3500 H 292.766 5.73457 0.888562 0
M  V30 3501 H 292.486 5.90877 3.88583 0
M  V30 3502 H 291.495 6.6596 2.58858 0
M  V30 3503 H 293.329 8.16339 3.92049 0
M  V30 3504 H 293.37 4.00505 4.3174 0
M  V30 3505 H 292.989 -0.581337 2.76658 0
M  V30 3506 H 292.8 -1.30811 1.14888 0
M  V30 3507 H 292.692 2.08295 -1.75542 0
M  V30 3508 P 291.458 8.7635 1.60911 0
M  V30 3509 O 291.238 10.1388 1.11561 0
M  V30 3510 O 290.668 8.36503 2.79617 0
M  V30 3511 O 291.208 7.71806 0.42951 0
M  V30 3512 C 292.148 7.66948 -0.673514 0
M  V30 3513 C 291.418 7.33374 -1.95559 0
M  V30 3514 O 291.208 5.88721 -2.00726 0
M  V30 3515 C 290.018 7.92218 -2.1125 0
M  V30 3516 O 289.628 8.02971 -3.47653 0
M  V30 3517 C 289.138 6.89504 -1.41631 0
M  V30 3518 C 289.848 5.59106 -1.75155 0
M  V30 3519 N 289.798 4.58136 -0.662409 0
M  V30 3520 C 289.648 3.26059 -1.02863 0
M  V30 3521 O 289.558 2.90743 -2.19009 0
M  V30 3522 N 289.608 2.35995 0.0155585 0
M  V30 3523 C 289.698 2.65248 1.35603 0
M  V30 3524 O 289.648 1.75605 2.20651 0
M  V30 3525 C 289.848 4.05747 1.64698 0
M  V30 3526 C 289.958 4.42345 3.09553 0
M  V30 3527 C 289.898 4.96734 0.652411 0
M  V30 3528 H 292.639 8.64917 -0.776982 0
M  V30 3529 H 292.908 6.89974 -0.474015 0
M  V30 3530 H 292.041 7.66548 -2.79458 0
M  V30 3531 H 289.386 5.16076 -2.65138 0
M  V30 3532 H 289.107 7.06433 -0.329384 0
M  V30 3533 H 288.115 6.90829 -1.81996 0
M  V30 3534 H 289.949 8.90774 -1.62639 0
M  V30 3535 H 290.02 6.02181 0.895285 0
M  V30 3536 H 288.99 4.80252 3.45468 0
M  V30 3537 H 290.727 5.20015 3.22119 0
M  V30 3538 H 290.239 3.53269 3.67833 0
M  V30 3539 H 289.503 1.39558 -0.227499 0
M  V30 3540 P 288.078 8.03563 -3.84925 0
M  V30 3541 O 287.858 8.85821 -5.0569 0
M  V30 3542 O 287.288 8.41101 -2.65469 0
M  V30 3543 O 287.828 6.4965 -4.18908 0
M  V30 3544 C 288.768 5.81037 -5.05421 0
M  V30 3545 C 288.038 4.78366 -5.89277 0
M  V30 3546 O 287.828 3.58302 -5.08433 0
M  V30 3547 C 286.638 5.17448 -6.36119 0
M  V30 3548 O 286.248 4.45271 -7.53232 0
M  V30 3549 C 285.758 4.74639 -5.19936 0
M  V30 3550 C 286.468 3.49432 -4.70418 0
M  V30 3551 N 286.418 3.32099 -3.22613 0
M  V30 3552 C 286.498 4.28245 -2.25527 0
M  V30 3553 N 286.428 3.80823 -1.04874 0
M  V30 3554 C 286.278 2.44571 -1.23535 0
M  V30 3555 C 286.148 1.37068 -0.330675 0
M  V30 3556 N 286.138 1.51472 0.990824 0
M  V30 3557 N 286.028 0.138614 -0.848756 0
M  V30 3558 C 286.038 -0.00675923 -2.16999 0
M  V30 3559 N 286.158 0.904372 -3.11122 0
M  V30 3560 C 286.278 2.12707 -2.56212 0
M  V30 3561 H 289.257 6.54213 -5.71376 0
M  V30 3562 H 289.529 5.30936 -4.43503 0
M  V30 3563 H 288.661 4.55889 -6.76652 0
M  V30 3564 H 286.006 2.61715 -5.17932 0
M  V30 3565 H 285.726 5.52155 -4.41878 0
M  V30 3566 H 284.735 4.51981 -5.53374 0
M  V30 3567 H 286.569 6.25124 -6.55234 0
M  V30 3568 H 286.61 5.34372 -2.47488 0
M  V30 3569 H 286.229 2.45153 1.4078 0
M  V30 3570 H 286.04 0.688422 1.59911 0
M  V30 3571 H 285.932 -1.02584 -2.52346 0
M  V30 3572 P 284.698 4.23843 -7.83734 0
M  V30 3573 O 284.478 4.19407 -9.29784 0
M  V30 3574 O 283.908 5.24426 -7.09156 0
M  V30 3575 O 284.448 2.7935 -7.20758 0
M  V30 3576 C 285.388 1.7299 -7.50419 0
M  V30 3577 C 284.658 0.406376 -7.57911 0
M  V30 3578 O 284.448 -0.0897726 -6.21935 0
M  V30 3579 C 283.258 0.447224 -8.1878 0
M  V30 3580 O 282.868 -0.825065 -8.71101 0
M  V30 3581 C 282.378 0.783801 -6.99623 0
M  V30 3582 C 283.088 0.0619192 -5.85967 0
M  V30 3583 N 283.038 0.7859 -4.56281 0
M  V30 3584 H 285.877 1.93423 -8.4679 0
M  V30 3585 H 286.149 1.68181 -6.71046 0
M  V30 3586 H 285.281 -0.289041 -8.15388 0
M  V30 3587 P 281.318 -1.17771 -8.83182 0
M  V30 3588 O 281.098 -2.07206 -9.98732 0
M  V30 3589 O 280.528 0.0743816 -8.81969 0
M  V30 3590 O 281.068 -1.97652 -7.47304 0
M  V30 3591 C 282.008 -3.01133 -7.08783 0
M  V30 3592 C 281.278 -4.12613 -6.37049 0
M  V30 3593 O 281.068 -3.72827 -4.97879 0
M  V30 3594 C 279.878 -4.45085 -6.88694 0
M  V30 3595 O 279.488 -5.7877 -6.5624 0
M  V30 3596 C 278.998 -3.47817 -6.12078 0
M  V30 3597 C 279.708 -3.39414 -4.77697 0
M  V30 3598 N 279.658 -2.04615 -4.15333 0
M  V30 3599 C 279.738 -0.803897 -4.75249 0
M  V30 3600 N 279.658 0.197615 -3.91502 0
M  V30 3601 C 279.518 -0.413002 -2.66823 0
M  V30 3602 C 279.388 0.157221 -1.38007 0
M  V30 3603 O 279.368 1.34419 -1.057 0
M  V30 3604 N 279.268 -0.833136 -0.390236 0
M  V30 3605 C 279.268 -2.19402 -0.623885 0
M  V30 3606 N 279.138 -2.97622 0.449677 0
M  V30 3607 N 279.398 -2.73005 -1.83601 0
M  V30 3608 C 279.518 -1.78786 -2.80935 0
M  V30 3609 H 282.497 -3.41248 -7.98759 0
M  V30 3610 H 282.769 -2.5837 -6.41742 0
M  V30 3611 H 281.901 -5.02657 -6.42673 0
M  V30 3612 H 279.246 -4.11779 -4.09026 0
M  V30 3613 H 278.966 -2.49661 -6.61772 0
M  V30 3614 H 277.975 -3.86674 -6.00946 0
M  V30 3615 H 279.809 -4.30038 -7.97094 0
M  V30 3616 H 279.858 -0.670579 -5.82754 0
M  V30 3617 H 279.176 -0.528446 0.557287 0
M  V30 3618 H 279.139 -4.00117 0.344773 0
M  V30 3619 H 279.038 -2.55448 1.38544 0
M  V30 3620 P 277.938 -6.144 -6.45285 0
M  V30 3621 O 277.718 -7.54673 -6.86199 0
M  V30 3622 O 277.148 -5.12391 -7.179 0
M  V30 3623 O 277.688 -5.99158 -4.88404 0
M  V30 3624 C 278.628 -6.60062 -3.96313 0
M  V30 3625 C 277.898 -7.08259 -2.72856 0
M  V30 3626 O 277.688 -5.9427 -1.83651 0
M  V30 3627 C 276.498 -7.65087 -2.94749 0
M  V30 3628 O 276.108 -8.53963 -1.90717 0
M  V30 3629 C 275.618 -6.41069 -2.90698 0
M  V30 3630 C 276.328 -5.5528 -1.86931 0
M  V30 3631 N 276.278 -4.09575 -2.15696 0
M  V30 3632 C 276.128 -3.24249 -1.08435 0
M  V30 3633 O 276.038 -3.63946 0.0628747 0
M  V30 3634 N 276.088 -1.90009 -1.39973 0
M  V30 3635 C 276.178 -1.34884 -2.65614 0
M  V30 3636 O 276.128 -0.123716 -2.81728 0
M  V30 3637 C 276.328 -2.3145 -3.71736 0
M  V30 3638 C 276.438 -1.75913 -5.10438 0
M  V30 3639 C 276.378 -3.63518 -3.44754 0
M  V30 3640 H 279.119 -7.45402 -4.45526 0
M  V30 3641 H 279.388 -5.86062 -3.67208 0
M  V30 3642 H 278.521 -7.84412 -2.24479 0
M  V30 3643 H 275.866 -5.73358 -0.888409 0
M  V30 3644 H 275.587 -5.90877 -3.88583 0
M  V30 3645 H 274.595 -6.65867 -2.58821 0
M  V30 3646 H 276.429 -8.16248 -3.92006 0
M  V30 3647 H 276.5 -4.34551 -4.26383 0
M  V30 3648 H 275.47 -1.85471 -5.61775 0
M  V30 3649 H 277.207 -2.31364 -5.66257 0
M  V30 3650 H 276.719 -0.695936 -5.05229 0
M  V30 3651 H 275.983 -1.26277 -0.63625 0
M  V30 3652 P 274.558 -8.7635 -1.60911 0
M  V30 3653 O 274.338 -10.1388 -1.11561 0
M  V30 3654 O 273.768 -8.36503 -2.79617 0
M  V30 3655 O 274.308 -7.71806 -0.42951 0
M  V30 3656 C 275.248 -7.66948 0.673514 0
M  V30 3657 C 274.518 -7.33374 1.95559 0
M  V30 3658 O 274.308 -5.88721 2.00726 0
M  V30 3659 C 273.118 -7.92218 2.1125 0
M  V30 3660 O 272.728 -8.02971 3.47653 0
M  V30 3661 C 272.238 -6.89504 1.41631 0
M  V30 3662 C 272.948 -5.59106 1.75155 0
M  V30 3663 N 272.898 -4.58136 0.662409 0
M  V30 3664 C 272.748 -3.26059 1.02863 0
M  V30 3665 O 272.658 -2.90743 2.19009 0
M  V30 3666 N 272.708 -2.35995 -0.0155585 0
M  V30 3667 C 272.798 -2.65248 -1.35603 0
M  V30 3668 C 272.948 -4.05747 -1.64698 0
M  V30 3669 C 272.998 -4.96734 -0.652411 0
M  V30 3670 H 275.739 -8.64917 0.776982 0
M  V30 3671 H 276.008 -6.89974 0.474015 0
M  V30 3672 H 275.141 -7.66548 2.79458 0
M  V30 3673 H 272.486 -5.16076 2.65138 0
M  V30 3674 H 272.207 -7.06433 0.329384 0
M  V30 3675 H 271.215 -6.90829 1.81996 0
M  V30 3676 H 273.049 -8.90774 1.62639 0
M  V30 3677 H 273.12 -6.02181 -0.895285 0
M  V30 3678 P 271.178 -8.03563 3.84925 0
M  V30 3679 O 270.958 -8.85821 5.0569 0
M  V30 3680 O 270.388 -8.41101 2.65469 0
M  V30 3681 O 270.928 -6.4965 4.18908 0
M  V30 3682 C 271.868 -5.81037 5.05421 0
M  V30 3683 C 271.138 -4.78366 5.89277 0
M  V30 3684 O 270.928 -3.58302 5.08433 0
M  V30 3685 C 269.738 -5.17448 6.36119 0
M  V30 3686 O 269.348 -4.45271 7.53232 0
M  V30 3687 C 268.858 -4.74639 5.19936 0
M  V30 3688 C 269.568 -3.49432 4.70418 0
M  V30 3689 N 269.518 -3.32099 3.22613 0
M  V30 3690 H 272.357 -6.54213 5.71376 0
M  V30 3691 H 272.629 -5.30936 4.43503 0
M  V30 3692 H 271.761 -4.55889 6.76652 0
M  V30 3693 H 269.106 -2.61715 5.17932 0
M  V30 3694 H 268.826 -5.52155 4.41878 0
M  V30 3695 H 267.835 -4.51981 5.53374 0
M  V30 3696 H 269.669 -6.25124 6.55234 0
M  V30 3697 P 267.798 -4.23843 7.83734 0
M  V30 3698 O 267.578 -4.19407 9.29784 0
M  V30 3699 O 267.008 -5.24426 7.09156 0
M  V30 3700 O 267.548 -2.7935 7.20758 0
M  V30 3701 C 268.488 -1.7299 7.50419 0
M  V30 3702 C 267.758 -0.406376 7.57911 0
M  V30 3703 O 267.548 0.0897726 6.21935 0
M  V30 3704 C 266.358 -0.447224 8.1878 0
M  V30 3705 O 265.968 0.825065 8.71101 0
M  V30 3706 C 265.478 -0.783801 6.99623 0
M  V30 3707 C 266.188 -0.0619192 5.85967 0
M  V30 3708 N 266.138 -0.7859 4.56281 0
M  V30 3709 H 268.977 -1.93423 8.4679 0
M  V30 3710 H 269.249 -1.68181 6.71046 0
M  V30 3711 H 268.381 0.289041 8.15388 0
M  V30 3712 P 264.418 1.17771 8.83182 0
M  V30 3713 O 264.198 2.07206 9.98732 0
M  V30 3714 O 263.628 -0.0743816 8.81969 0
M  V30 3715 O 264.168 1.97652 7.47304 0
M  V30 3716 C 265.108 3.01055 7.08599 0
M  V30 3717 C 264.378 4.12613 6.37049 0
M  V30 3718 O 264.168 3.72827 4.97879 0
M  V30 3719 C 262.978 4.45719 6.88164 0
M  V30 3720 O 262.588 5.7877 6.5624 0
M  V30 3721 C 262.098 3.47768 6.11991 0
M  V30 3722 C 262.808 3.39356 4.77615 0
M  V30 3723 N 262.758 2.04571 4.15244 0
M  V30 3724 C 262.608 1.98587 2.78314 0
M  V30 3725 O 262.518 2.98134 2.08835 0
M  V30 3726 N 262.568 0.714467 2.24925 0
M  V30 3727 C 262.658 -0.470001 2.94169 0
M  V30 3728 O 262.608 -1.55587 2.35195 0
M  V30 3729 C 262.808 -0.312541 4.36783 0
M  V30 3730 C 262.918 -1.57711 5.16352 0
M  V30 3731 C 262.858 0.914512 4.92583 0
M  V30 3732 H 265.599 3.41169 7.98575 0
M  V30 3733 H 265.868 2.58295 6.41556 0
M  V30 3734 H 265.001 5.02657 6.42673 0
M  V30 3735 H 262.346 4.11637 4.08885 0
M  V30 3736 H 262.067 2.49626 6.61679 0
M  V30 3737 H 261.075 3.86566 6.00778 0
M  V30 3738 H 262.909 4.29943 7.96918 0
M  V30 3739 H 262.98 1.00937 6.00374 0
M  V30 3740 H 261.95 -1.80153 5.63503 0
M  V30 3741 H 263.687 -1.4566 5.94104 0
M  V30 3742 H 263.199 -2.40664 4.49645 0
M  V30 3743 H 262.463 0.647622 1.25697 0
M  V30 3744 P 261.038 6.144 6.45285 0
M  V30 3745 O 260.818 7.54673 6.86199 0
M  V30 3746 O 260.248 5.12391 7.179 0
M  V30 3747 O 260.788 5.99158 4.88404 0
M  V30 3748 C 261.728 6.60062 3.96313 0
M  V30 3749 C 260.998 7.08259 2.72856 0
M  V30 3750 O 260.788 5.9427 1.83651 0
M  V30 3751 C 259.598 7.65087 2.94749 0
M  V30 3752 O 259.208 8.53963 1.90717 0
M  V30 3753 C 258.718 6.41069 2.90698 0
M  V30 3754 C 259.428 5.5528 1.86931 0
M  V30 3755 N 259.378 4.09575 2.15696 0
M  V30 3756 C 259.228 3.24249 1.08435 0
M  V30 3757 O 259.138 3.63946 -0.0628747 0
M  V30 3758 N 259.188 1.90009 1.39973 0
M  V30 3759 C 259.278 1.34884 2.65614 0
M  V30 3760 O 259.228 0.123716 2.81728 0
M  V30 3761 C 259.428 2.3145 3.71736 0
M  V30 3762 C 259.538 1.75913 5.10438 0
M  V30 3763 C 259.478 3.63518 3.44754 0
M  V30 3764 H 262.219 7.45402 4.45526 0
M  V30 3765 H 262.488 5.86062 3.67208 0
M  V30 3766 H 261.621 7.84412 2.24479 0
M  V30 3767 H 258.966 5.73358 0.888409 0
M  V30 3768 H 258.687 5.90877 3.88583 0
M  V30 3769 H 257.695 6.65867 2.58821 0
M  V30 3770 H 259.529 8.16248 3.92006 0
M  V30 3771 H 259.6 4.34551 4.26383 0
M  V30 3772 H 258.57 1.85471 5.61775 0
M  V30 3773 H 260.307 2.31364 5.66257 0
M  V30 3774 H 259.819 0.695936 5.05229 0
M  V30 3775 H 259.083 1.26277 0.63625 0
M  V30 3776 P 257.658 8.7635 1.60911 0
M  V30 3777 O 257.438 10.1388 1.11561 0
M  V30 3778 O 256.868 8.36503 2.79617 0
M  V30 3779 O 257.408 7.71806 0.42951 0
M  V30 3780 C 258.348 7.67148 -0.673689 0
M  V30 3781 C 257.618 7.33374 -1.95559 0
M  V30 3782 O 257.408 5.88721 -2.00726 0
M  V30 3783 C 256.218 7.92526 -2.10483 0
M  V30 3784 O 255.828 8.02971 -3.47653 0
M  V30 3785 C 255.338 6.89602 -1.41652 0
M  V30 3786 C 256.048 5.59201 -1.75185 0
M  V30 3787 N 255.998 4.58301 -0.657969 0
M  V30 3788 H 258.837 8.65116 -0.777161 0
M  V30 3789 H 259.109 6.9022 -0.46725 0
M  V30 3790 H 258.241 7.66548 -2.79458 0
M  V30 3791 H 255.586 5.16165 -2.65183 0
M  V30 3792 H 255.306 7.06433 -0.329384 0
M  V30 3793 H 254.315 6.90926 -1.82021 0
M  V30 3794 H 256.149 8.90873 -1.62657 0
M  V30 3795 P 254.279 8.03563 -3.84925 0
M  V30 3796 O 254.059 8.85821 -5.0569 0
M  V30 3797 O 253.489 8.41101 -2.65469 0
M  V30 3798 O 254.029 6.4965 -4.18908 0
M  V30 3799 C 254.969 5.81037 -5.05421 0
M  V30 3800 C 254.239 4.78366 -5.89277 0
M  V30 3801 O 254.029 3.58302 -5.08433 0
M  V30 3802 C 252.839 5.17448 -6.36119 0
M  V30 3803 O 252.449 4.45271 -7.53232 0
M  V30 3804 C 251.959 4.74639 -5.19936 0
M  V30 3805 C 252.669 3.49432 -4.70418 0
M  V30 3806 N 252.619 3.32099 -3.22613 0
M  V30 3807 H 255.458 6.54213 -5.71376 0
M  V30 3808 H 255.73 5.30936 -4.43503 0
M  V30 3809 H 254.862 4.55889 -6.76652 0
M  V30 3810 H 252.207 2.61715 -5.17932 0
M  V30 3811 H 251.927 5.52155 -4.41878 0
M  V30 3812 H 250.936 4.51981 -5.53374 0
M  V30 3813 H 252.77 6.25124 -6.55234 0
M  V30 3814 P 250.899 4.23843 -7.83734 0
M  V30 3815 O 250.679 4.19407 -9.29784 0
M  V30 3816 O 250.109 5.24426 -7.09156 0
M  V30 3817 O 250.649 2.7935 -7.20758 0
M  V30 3818 C 251.589 1.7299 -7.50419 0
M  V30 3819 C 250.859 0.406376 -7.57911 0
M  V30 3820 O 250.649 -0.0897726 -6.21935 0
M  V30 3821 C 249.459 0.447224 -8.1878 0
M  V30 3822 O 249.069 -0.825065 -8.71101 0
M  V30 3823 C 248.579 0.783801 -6.99623 0
M  V30 3824 C 249.289 0.0619192 -5.85967 0
M  V30 3825 N 249.239 0.790462 -4.56202 0
M  V30 3826 H 252.078 1.93423 -8.4679 0
M  V30 3827 H 252.35 1.68852 -6.70877 0
M  V30 3828 H 251.482 -0.289041 -8.15388 0
M  V30 3829 H 248.827 -0.927006 -5.72848 0
M  V30 3830 H 248.547 1.86973 -6.82036 0
M  V30 3831 H 247.556 0.403953 -7.13357 0
M  V30 3832 H 249.39 1.20599 -8.97534 0
M  V30 3833 P 247.519 -1.17771 -8.83182 0
M  V30 3834 O 247.299 -2.07206 -9.98732 0
M  V30 3835 O 246.729 0.0743816 -8.81969 0
M  V30 3836 O 247.269 -1.97678 -7.474 0
M  V30 3837 C 248.209 -3.01133 -7.08783 0
M  V30 3838 C 247.479 -4.1203 -6.37546 0
M  V30 3839 O 247.269 -3.72887 -4.9796 0
M  V30 3840 C 246.079 -4.45085 -6.88694 0
M  V30 3841 O 245.689 -5.78836 -6.56315 0
M  V30 3842 C 245.199 -3.47817 -6.12078 0
M  V30 3843 C 245.909 -3.39414 -4.77697 0
M  V30 3844 N 245.859 -2.04615 -4.15333 0
M  V30 3845 C 245.709 -1.96929 -2.77162 0
M  V30 3846 O 245.619 -3.02017 -2.12006 0
M  V30 3847 N 245.659 -0.55485 -2.24237 0
M  V30 3848 C 245.759 0.367808 -2.9169 0
M  V30 3849 N 245.709 1.53426 -2.29427 0
M  V30 3850 C 245.909 0.319148 -4.33828 0
M  V30 3851 C 245.959 -0.920672 -4.90433 0
M  V30 3852 H 248.699 -3.41209 -7.98667 0
M  V30 3853 H 248.969 -2.5837 -6.41742 0
M  V30 3854 H 248.102 -5.02718 -6.42752 0
M  V30 3855 H 245.447 -4.11779 -4.09026 0
M  V30 3856 H 245.167 -2.49661 -6.61772 0
M  V30 3857 H 244.176 -3.86674 -6.00946 0
M  V30 3858 H 246.01 -4.29991 -7.97006 0
M  V30 3859 H 246.082 -1.00589 -5.98303 0
M  V30 3860 H 245.98 1.22639 -4.93799 0
M  V30 3861 H 245.592 1.56819 -1.27167 0
M  V30 3862 H 245.788 2.41062 -2.83063 0
M  V30 3863 P 244.139 -6.144 -6.45285 0
M  V30 3864 O 243.919 -7.54673 -6.86199 0
M  V30 3865 O 243.349 -5.12391 -7.179 0
M  V30 3866 O 243.889 -5.99158 -4.88404 0
M  V30 3867 C 244.829 -6.60234 -3.96415 0
M  V30 3868 C 244.099 -7.08259 -2.72856 0
M  V30 3869 O 243.889 -5.9427 -1.83651 0
M  V30 3870 C 242.699 -7.64886 -2.9555 0
M  V30 3871 O 242.309 -8.53963 -1.90717 0
M  V30 3872 C 241.819 -6.4116 -2.90739 0
M  V30 3873 C 242.529 -5.55375 -1.86963 0
M  V30 3874 N 242.479 -4.09664 -2.15742 0
M  V30 3875 H 245.318 -7.45574 -4.45629 0
M  V30 3876 H 245.59 -5.86232 -3.67314 0
M  V30 3877 H 244.722 -7.84412 -2.24479 0
M  V30 3878 P 240.759 -8.7635 -1.60911 0
M  V30 3879 O 240.539 -10.1388 -1.11561 0
M  V30 3880 O 239.969 -8.36503 -2.79617 0
M  V30 3881 O 240.509 -7.71806 -0.42951 0
M  V30 3882 C 241.449 -7.67148 0.673689 0
M  V30 3883 C 240.719 -7.33374 1.95559 0
M  V30 3884 O 240.509 -5.88721 2.00726 0
M  V30 3885 C 239.319 -7.92526 2.10483 0
M  V30 3886 O 238.929 -8.02971 3.47653 0
M  V30 3887 C 238.439 -6.89602 1.41652 0
M  V30 3888 C 239.149 -5.59201 1.75185 0
M  V30 3889 N 239.099 -4.58301 0.657969 0
M  V30 3890 C 239.179 -4.79019 -0.692603 0
M  V30 3891 N 239.109 -3.69736 -1.38998 0
M  V30 3892 C 238.959 -2.70474 -0.438135 0
M  V30 3893 C 238.829 -1.30327 -0.538142 0
M  V30 3894 N 238.819 -0.64304 -1.69192 0
M  V30 3895 N 238.709 -0.611027 0.605183 0
M  V30 3896 C 238.719 -1.27002 1.75953 0
M  V30 3897 N 238.839 -2.56038 1.98546 0
M  V30 3898 C 238.959 -3.22681 0.822541 0
M  V30 3899 H 241.938 -8.65116 0.777161 0
M  V30 3900 H 242.21 -6.9022 0.46725 0
M  V30 3901 H 241.342 -7.66548 2.79458 0
M  V30 3902 H 238.687 -5.16165 2.65183 0
M  V30 3903 H 238.407 -7.06433 0.329384 0
M  V30 3904 H 237.416 -6.90926 1.82021 0
M  V30 3905 H 239.25 -8.90873 1.62657 0
M  V30 3906 H 239.291 -5.77785 -1.13874 0
M  V30 3907 H 238.91 -1.15585 -2.57991 0
M  V30 3908 H 238.721 0.382989 -1.69835 0
M  V30 3909 H 238.613 -0.653331 2.64449 0
M  V30 3910 P 237.379 -8.03563 3.84925 0
M  V30 3911 O 237.159 -8.85821 5.0569 0
M  V30 3912 O 236.589 -8.41101 2.65469 0
M  V30 3913 O 237.129 -6.4965 4.18908 0
M  V30 3914 C 238.069 -5.81037 5.05421 0
M  V30 3915 C 237.339 -4.78366 5.89277 0
M  V30 3916 O 237.129 -3.58302 5.08433 0
M  V30 3917 C 235.939 -5.17448 6.36119 0
M  V30 3918 O 235.549 -4.45271 7.53232 0
M  V30 3919 C 235.059 -4.74639 5.19936 0
M  V30 3920 C 235.769 -3.49432 4.70418 0
M  V30 3921 N 235.719 -3.31776 3.22945 0
M  V30 3922 H 238.558 -6.54213 5.71376 0
M  V30 3923 H 238.83 -5.30492 4.44033 0
M  V30 3924 H 237.962 -4.55889 6.76652 0
M  V30 3925 P 233.999 -4.23843 7.83734 0
M  V30 3926 O 233.779 -4.19407 9.29784 0
M  V30 3927 O 233.209 -5.24426 7.09156 0
M  V30 3928 O 233.749 -2.7935 7.20758 0
M  V30 3929 C 234.689 -1.7299 7.50419 0
M  V30 3930 C 233.959 -0.406376 7.57911 0
M  V30 3931 O 233.749 0.0897726 6.21935 0
M  V30 3932 C 232.559 -0.447224 8.1878 0
M  V30 3933 O 232.169 0.825065 8.71101 0
M  V30 3934 C 231.679 -0.783801 6.99623 0
M  V30 3935 C 232.389 -0.0619192 5.85967 0
M  V30 3936 N 232.339 -0.7859 4.56281 0
M  V30 3937 H 235.178 -1.93423 8.4679 0
M  V30 3938 H 235.45 -1.68181 6.71046 0
M  V30 3939 H 234.582 0.289041 8.15388 0
M  V30 3940 P 230.619 1.17771 8.83182 0
M  V30 3941 O 230.399 2.07206 9.98732 0
M  V30 3942 O 229.829 -0.0743816 8.81969 0
M  V30 3943 O 230.369 1.97652 7.47304 0
M  V30 3944 C 231.309 3.01133 7.08783 0
M  V30 3945 C 230.579 4.12613 6.37049 0
M  V30 3946 O 230.369 3.72827 4.97879 0
M  V30 3947 C 229.179 4.45085 6.88694 0
M  V30 3948 O 228.789 5.7877 6.5624 0
M  V30 3949 C 228.299 3.47817 6.12078 0
M  V30 3950 C 229.009 3.39414 4.77697 0
M  V30 3951 N 228.959 2.04615 4.15333 0
M  V30 3952 H 231.798 3.41248 7.98759 0
M  V30 3953 H 232.07 2.5837 6.41742 0
M  V30 3954 H 231.202 5.02657 6.42673 0
M  V30 3955 P 227.239 6.144 6.45285 0
M  V30 3956 O 227.019 7.54673 6.86199 0
M  V30 3957 O 226.449 5.12391 7.179 0
M  V30 3958 O 226.989 5.99158 4.88404 0
M  V30 3959 C 227.929 6.60234 3.96415 0
M  V30 3960 C 227.199 7.08259 2.72856 0
M  V30 3961 O 226.989 5.9427 1.83651 0
M  V30 3962 C 225.799 7.64886 2.9555 0
M  V30 3963 O 225.409 8.53963 1.90717 0
M  V30 3964 C 224.919 6.4116 2.90739 0
M  V30 3965 C 225.629 5.55375 1.86963 0
M  V30 3966 N 225.579 4.09664 2.15742 0
M  V30 3967 H 228.418 7.45574 4.45629 0
M  V30 3968 H 228.69 5.86232 3.67314 0
M  V30 3969 H 227.822 7.84412 2.24479 0
M  V30 3970 P 223.859 8.7635 1.60911 0
M  V30 3971 O 223.639 10.1388 1.11561 0
M  V30 3972 O 223.069 8.36503 2.79617 0
M  V30 3973 O 223.609 7.71806 0.42951 0
M  V30 3974 C 224.549 7.67148 -0.673689 0
M  V30 3975 C 223.819 7.33374 -1.95559 0
M  V30 3976 O 223.609 5.88721 -2.00726 0
M  V30 3977 C 222.419 7.92526 -2.10483 0
M  V30 3978 O 222.029 8.02971 -3.47653 0
M  V30 3979 C 221.539 6.89602 -1.41652 0
M  V30 3980 C 222.249 5.59201 -1.75185 0
M  V30 3981 N 222.199 4.58301 -0.657969 0
M  V30 3982 H 225.038 8.65116 -0.777161 0
M  V30 3983 H 225.31 6.9022 -0.46725 0
M  V30 3984 H 224.442 7.66548 -2.79458 0
M  V30 3985 H 221.787 5.16165 -2.65183 0
M  V30 3986 H 221.507 7.06433 -0.329384 0
M  V30 3987 H 220.516 6.90926 -1.82021 0
M  V30 3988 H 222.35 8.90873 -1.62657 0
M  V30 3989 P 220.479 8.03563 -3.84925 0
M  V30 3990 O 220.259 8.85821 -5.0569 0
M  V30 3991 O 219.689 8.41101 -2.65469 0
M  V30 3992 O 220.229 6.4965 -4.18908 0
M  V30 3993 C 221.169 5.81037 -5.05421 0
M  V30 3994 C 220.439 4.78366 -5.89277 0
M  V30 3995 O 220.229 3.58302 -5.08433 0
M  V30 3996 C 219.039 5.17448 -6.36119 0
M  V30 3997 O 218.649 4.45271 -7.53232 0
M  V30 3998 C 218.159 4.74639 -5.19936 0
M  V30 3999 C 218.869 3.49432 -4.70418 0
M  V30 4000 N 218.819 3.31776 -3.22945 0
M  V30 4001 H 221.658 6.54213 -5.71376 0
M  V30 4002 H 221.93 5.30492 -4.44033 0
M  V30 4003 H 221.062 4.55889 -6.76652 0
M  V30 4004 P 217.099 4.23843 -7.83734 0
M  V30 4005 O 216.879 4.19407 -9.29784 0
M  V30 4006 O 216.309 5.24426 -7.09156 0
M  V30 4007 O 216.849 2.7935 -7.20758 0
M  V30 4008 C 217.789 1.7299 -7.50419 0
M  V30 4009 C 217.059 0.406376 -7.57911 0
M  V30 4010 O 216.849 -0.0897726 -6.21935 0
M  V30 4011 C 215.659 0.447224 -8.1878 0
M  V30 4012 O 215.269 -0.825065 -8.71101 0
M  V30 4013 C 214.779 0.783801 -6.99623 0
M  V30 4014 C 215.489 0.0619192 -5.85967 0
M  V30 4015 N 215.439 0.7859 -4.56281 0
M  V30 4016 H 218.278 1.93423 -8.4679 0
M  V30 4017 H 218.55 1.68181 -6.71046 0
M  V30 4018 H 217.682 -0.289041 -8.15388 0
M  V30 4019 P 213.719 -1.17771 -8.83182 0
M  V30 4020 O 213.499 -2.07206 -9.98732 0
M  V30 4021 O 212.929 0.0743816 -8.81969 0
M  V30 4022 O 213.469 -1.97652 -7.47304 0
M  V30 4023 C 214.409 -3.01133 -7.08783 0
M  V30 4024 C 213.679 -4.12613 -6.37049 0
M  V30 4025 O 213.469 -3.72827 -4.97879 0
M  V30 4026 C 212.279 -4.45085 -6.88694 0
M  V30 4027 O 211.889 -5.7877 -6.5624 0
M  V30 4028 C 211.399 -3.47817 -6.12078 0
M  V30 4029 C 212.109 -3.39414 -4.77697 0
M  V30 4030 N 212.059 -2.04199 -4.15538 0
M  V30 4031 H 214.898 -3.41248 -7.98759 0
M  V30 4032 H 215.17 -2.57728 -6.42 0
M  V30 4033 H 214.302 -5.02657 -6.42673 0
M  V30 4034 H 211.647 -4.11708 -4.08956 0
M  V30 4035 H 211.367 -2.49626 -6.61679 0
M  V30 4036 H 210.376 -3.8662 -6.00862 0
M  V30 4037 H 212.21 -4.29991 -7.97006 0
M  V30 4038 P 210.339 -6.144 -6.45285 0
M  V30 4039 O 210.119 -7.54673 -6.86199 0
M  V30 4040 O 209.549 -5.12391 -7.179 0
M  V30 4041 O 210.089 -5.99158 -4.88404 0
M  V30 4042 C 211.029 -6.60062 -3.96313 0
M  V30 4043 C 210.299 -7.08259 -2.72856 0
M  V30 4044 O 210.089 -5.9427 -1.83651 0
M  V30 4045 C 208.899 -7.65087 -2.94749 0
M  V30 4046 O 208.509 -8.53963 -1.90717 0
M  V30 4047 C 208.019 -6.41069 -2.90698 0
M  V30 4048 C 208.729 -5.5528 -1.86931 0
M  V30 4049 N 208.679 -4.09575 -2.15696 0
M  V30 4050 C 208.529 -3.24249 -1.08435 0
M  V30 4051 O 208.439 -3.63946 0.0628747 0
M  V30 4052 N 208.489 -1.90009 -1.39973 0
M  V30 4053 C 208.579 -1.34884 -2.65614 0
M  V30 4054 O 208.529 -0.123716 -2.81728 0
M  V30 4055 C 208.729 -2.3145 -3.71736 0
M  V30 4056 C 208.839 -1.75913 -5.10438 0
M  V30 4057 C 208.779 -3.63518 -3.44754 0
M  V30 4058 H 211.52 -7.45402 -4.45526 0
M  V30 4059 H 211.789 -5.86062 -3.67208 0
M  V30 4060 H 210.922 -7.84412 -2.24479 0
M  V30 4061 H 208.267 -5.73358 -0.888409 0
M  V30 4062 H 207.988 -5.90877 -3.88583 0
M  V30 4063 H 206.996 -6.65867 -2.58821 0
M  V30 4064 H 208.83 -8.16248 -3.92006 0
M  V30 4065 H 208.901 -4.34551 -4.26383 0
M  V30 4066 H 207.871 -1.85471 -5.61775 0
M  V30 4067 H 209.608 -2.31364 -5.66257 0
M  V30 4068 H 209.12 -0.695936 -5.05229 0
M  V30 4069 H 208.384 -1.26277 -0.63625 0
M  V30 4070 P 206.959 -8.7635 -1.60911 0
M  V30 4071 O 206.739 -10.1388 -1.11561 0
M  V30 4072 O 206.169 -8.36503 -2.79617 0
M  V30 4073 O 206.709 -7.71806 -0.42951 0
M  V30 4074 C 207.649 -7.67148 0.673689 0
M  V30 4075 C 206.919 -7.33374 1.95559 0
M  V30 4076 O 206.709 -5.88721 2.00726 0
M  V30 4077 C 205.519 -7.92526 2.10483 0
M  V30 4078 O 205.129 -8.02971 3.47653 0
M  V30 4079 C 204.639 -6.89602 1.41652 0
M  V30 4080 C 205.349 -5.59201 1.75185 0
M  V30 4081 N 205.299 -4.58301 0.657969 0
M  V30 4082 H 208.138 -8.65116 0.777161 0
M  V30 4083 H 208.41 -6.9022 0.46725 0
M  V30 4084 H 207.542 -7.66548 2.79458 0
M  V30 4085 H 204.887 -5.16165 2.65183 0
M  V30 4086 H 204.607 -7.06433 0.329384 0
M  V30 4087 H 203.616 -6.90926 1.82021 0
M  V30 4088 H 205.45 -8.90873 1.62657 0
M  V30 4089 P 203.579 -8.03563 3.84925 0
M  V30 4090 O 203.359 -8.85821 5.0569 0
M  V30 4091 O 202.789 -8.41101 2.65469 0
M  V30 4092 O 203.329 -6.4965 4.18908 0
M  V30 4093 C 204.269 -5.81037 5.05421 0
M  V30 4094 C 203.539 -4.78366 5.89277 0
M  V30 4095 O 203.329 -3.58302 5.08433 0
M  V30 4096 C 202.139 -5.17448 6.36119 0
M  V30 4097 O 201.749 -4.45271 7.53232 0
M  V30 4098 C 201.259 -4.74639 5.19936 0
M  V30 4099 C 201.969 -3.49432 4.70418 0
M  V30 4100 N 201.919 -3.31776 3.22945 0
M  V30 4101 H 204.758 -6.54213 5.71376 0
M  V30 4102 H 205.03 -5.30492 4.44033 0
M  V30 4103 H 204.162 -4.55889 6.76652 0
M  V30 4104 P 200.199 -4.23843 7.83734 0
M  V30 4105 O 199.979 -4.19407 9.29784 0
M  V30 4106 O 199.409 -5.24426 7.09156 0
M  V30 4107 O 199.949 -2.7935 7.20758 0
M  V30 4108 C 200.889 -1.7299 7.50419 0
M  V30 4109 C 200.159 -0.406376 7.57911 0
M  V30 4110 O 199.949 0.0897726 6.21935 0
M  V30 4111 C 198.759 -0.447224 8.1878 0
M  V30 4112 O 198.369 0.825065 8.71101 0
M  V30 4113 C 197.879 -0.783801 6.99623 0
M  V30 4114 C 198.589 -0.0619192 5.85967 0
M  V30 4115 N 198.539 -0.7859 4.56281 0
M  V30 4116 H 201.378 -1.93423 8.4679 0
M  V30 4117 H 201.65 -1.68181 6.71046 0
M  V30 4118 H 200.782 0.289041 8.15388 0
M  V30 4119 P 196.819 1.17771 8.83182 0
M  V30 4120 O 196.599 2.07206 9.98732 0
M  V30 4121 O 196.029 -0.0743816 8.81969 0
M  V30 4122 O 196.569 1.97652 7.47304 0
M  V30 4123 C 197.509 3.01133 7.08783 0
M  V30 4124 C 196.779 4.12613 6.37049 0
M  V30 4125 O 196.569 3.72827 4.97879 0
M  V30 4126 C 195.379 4.45085 6.88694 0
M  V30 4127 O 194.989 5.7877 6.5624 0
M  V30 4128 C 194.499 3.47817 6.12078 0
M  V30 4129 C 195.209 3.39414 4.77697 0
M  V30 4130 N 195.159 2.04615 4.15333 0
M  V30 4131 H 197.998 3.41248 7.98759 0
M  V30 4132 H 198.27 2.5837 6.41742 0
M  V30 4133 H 197.402 5.02657 6.42673 0
M  V30 4134 P 193.439 6.144 6.45285 0
M  V30 4135 O 193.219 7.54673 6.86199 0
M  V30 4136 O 192.649 5.12391 7.179 0
M  V30 4137 O 193.189 5.99158 4.88404 0
M  V30 4138 C 194.129 6.60234 3.96415 0
M  V30 4139 C 193.399 7.08259 2.72856 0
M  V30 4140 O 193.189 5.9427 1.83651 0
M  V30 4141 C 191.999 7.64886 2.9555 0
M  V30 4142 O 191.609 8.53963 1.90717 0
M  V30 4143 C 191.119 6.4116 2.90739 0
M  V30 4144 C 191.829 5.55375 1.86963 0
M  V30 4145 N 191.779 4.09664 2.15742 0
M  V30 4146 C 191.859 3.44381 3.37233 0
M  V30 4147 N 191.779 2.14131 3.28347 0
M  V30 4148 C 191.639 1.90247 1.91588 0
M  V30 4149 C 191.509 0.683992 1.20892 0
M  V30 4150 N 191.389 0.903396 -0.173998 0
M  V30 4151 C 191.389 2.14171 -0.784879 0
M  V30 4152 N 191.259 2.1435 -2.11317 0
M  V30 4153 N 191.519 3.28784 -0.119316 0
M  V30 4154 C 191.639 3.0977 1.22194 0
M  V30 4155 H 194.618 7.45574 4.45629 0
M  V30 4156 H 194.89 5.86232 3.67314 0
M  V30 4157 H 194.022 7.84412 2.24479 0
M  V30 4158 P 190.059 8.7635 1.60911 0
M  V30 4159 O 189.839 10.1388 1.11561 0
M  V30 4160 O 189.269 8.36503 2.79617 0
M  V30 4161 O 189.809 7.71806 0.42951 0
M  V30 4162 C 190.749 7.67148 -0.673689 0
M  V30 4163 C 190.019 7.33374 -1.95559 0
M  V30 4164 O 189.809 5.88721 -2.00726 0
M  V30 4165 C 188.619 7.92526 -2.10483 0
M  V30 4166 O 188.229 8.02971 -3.47653 0
M  V30 4167 C 187.739 6.89602 -1.41652 0
M  V30 4168 C 188.449 5.59201 -1.75185 0
M  V30 4169 N 188.399 4.58301 -0.657969 0
M  V30 4170 H 191.238 8.65116 -0.777161 0
M  V30 4171 H 191.51 6.9022 -0.46725 0
M  V30 4172 H 190.642 7.66548 -2.79458 0
M  V30 4173 H 187.987 5.16165 -2.65183 0
M  V30 4174 H 187.707 7.06433 -0.329384 0
M  V30 4175 H 186.716 6.90926 -1.82021 0
M  V30 4176 H 188.55 8.90873 -1.62657 0
M  V30 4177 P 186.679 8.03563 -3.84925 0
M  V30 4178 O 186.459 8.85821 -5.0569 0
M  V30 4179 O 185.889 8.41101 -2.65469 0
M  V30 4180 O 186.429 6.4965 -4.18908 0
M  V30 4181 C 187.369 5.81037 -5.05421 0
M  V30 4182 C 186.639 4.78366 -5.89277 0
M  V30 4183 O 186.429 3.58302 -5.08433 0
M  V30 4184 C 185.239 5.17448 -6.36119 0
M  V30 4185 O 184.849 4.45271 -7.53232 0
M  V30 4186 C 184.359 4.74639 -5.19936 0
M  V30 4187 C 185.069 3.49432 -4.70418 0
M  V30 4188 N 185.019 3.31776 -3.22945 0
M  V30 4189 H 187.858 6.54213 -5.71376 0
M  V30 4190 H 188.13 5.30492 -4.44033 0
M  V30 4191 H 187.262 4.55889 -6.76652 0
M  V30 4192 P 183.299 4.23843 -7.83734 0
M  V30 4193 O 183.079 4.19407 -9.29784 0
M  V30 4194 O 182.509 5.24426 -7.09156 0
M  V30 4195 O 183.049 2.7935 -7.20758 0
M  V30 4196 C 183.989 1.7299 -7.50419 0
M  V30 4197 C 183.259 0.406376 -7.57911 0
M  V30 4198 O 183.049 -0.0897726 -6.21935 0
M  V30 4199 C 181.859 0.447224 -8.1878 0
M  V30 4200 O 181.469 -0.825065 -8.71101 0
M  V30 4201 C 180.979 0.783801 -6.99623 0
M  V30 4202 C 181.689 0.0619192 -5.85967 0
M  V30 4203 N 181.639 0.7859 -4.56281 0
M  V30 4204 H 184.478 1.93423 -8.4679 0
M  V30 4205 H 184.75 1.68181 -6.71046 0
M  V30 4206 H 183.882 -0.289041 -8.15388 0
M  V30 4207 P 179.919 -1.17771 -8.83182 0
M  V30 4208 O 179.699 -2.07206 -9.98732 0
M  V30 4209 O 179.129 0.0743816 -8.81969 0
M  V30 4210 O 179.669 -1.97652 -7.47304 0
M  V30 4211 C 180.609 -3.01133 -7.08783 0
M  V30 4212 C 179.879 -4.12613 -6.37049 0
M  V30 4213 O 179.669 -3.72827 -4.97879 0
M  V30 4214 C 178.479 -4.45085 -6.88694 0
M  V30 4215 O 178.089 -5.7877 -6.5624 0
M  V30 4216 C 177.599 -3.47817 -6.12078 0
M  V30 4217 C 178.309 -3.39414 -4.77697 0
M  V30 4218 N 178.259 -2.04615 -4.15333 0
M  V30 4219 H 181.098 -3.41248 -7.98759 0
M  V30 4220 H 181.37 -2.5837 -6.41742 0
M  V30 4221 H 180.502 -5.02657 -6.42673 0
M  V30 4222 P 176.539 -6.144 -6.45285 0
M  V30 4223 O 176.319 -7.54673 -6.86199 0
M  V30 4224 O 175.749 -5.12391 -7.179 0
M  V30 4225 O 176.289 -5.99158 -4.88404 0
M  V30 4226 C 177.229 -6.60062 -3.96313 0
M  V30 4227 C 176.499 -7.08259 -2.72856 0
M  V30 4228 O 176.289 -5.9427 -1.83651 0
M  V30 4229 C 175.099 -7.65087 -2.94749 0
M  V30 4230 O 174.709 -8.53963 -1.90717 0
M  V30 4231 C 174.219 -6.41069 -2.90698 0
M  V30 4232 C 174.929 -5.5528 -1.86931 0
M  V30 4233 N 174.879 -4.09575 -2.15696 0
M  V30 4234 C 174.729 -3.24249 -1.08435 0
M  V30 4235 O 174.639 -3.63946 0.0628747 0
M  V30 4236 N 174.689 -1.90009 -1.39973 0
M  V30 4237 C 174.779 -1.34884 -2.65614 0
M  V30 4238 O 174.729 -0.123716 -2.81728 0
M  V30 4239 C 174.929 -2.3145 -3.71736 0
M  V30 4240 C 175.039 -1.75913 -5.10438 0
M  V30 4241 C 174.979 -3.63518 -3.44754 0
M  V30 4242 H 177.72 -7.45402 -4.45526 0
M  V30 4243 H 177.989 -5.86062 -3.67208 0
M  V30 4244 H 177.122 -7.84412 -2.24479 0
M  V30 4245 H 174.467 -5.73358 -0.888409 0
M  V30 4246 H 174.188 -5.90877 -3.88583 0
M  V30 4247 H 173.196 -6.65867 -2.58821 0
M  V30 4248 H 175.03 -8.16248 -3.92006 0
M  V30 4249 H 175.101 -4.34551 -4.26383 0
M  V30 4250 H 174.071 -1.85471 -5.61775 0
M  V30 4251 H 175.808 -2.31364 -5.66257 0
M  V30 4252 H 175.32 -0.695936 -5.05229 0
M  V30 4253 H 174.584 -1.26277 -0.63625 0
M  V30 4254 P 173.159 -8.7635 -1.60911 0
M  V30 4255 O 172.939 -10.1388 -1.11561 0
M  V30 4256 O 172.369 -8.36503 -2.79617 0
M  V30 4257 O 172.909 -7.71806 -0.42951 0
M  V30 4258 C 173.849 -7.66948 0.673514 0
M  V30 4259 C 173.119 -7.33374 1.95559 0
M  V30 4260 O 172.909 -5.88721 2.00726 0
M  V30 4261 C 171.719 -7.92218 2.1125 0
M  V30 4262 O 171.329 -8.02971 3.47653 0
M  V30 4263 C 170.839 -6.89504 1.41631 0
M  V30 4264 C 171.549 -5.59106 1.75155 0
M  V30 4265 N 171.499 -4.58136 0.662409 0
M  V30 4266 C 171.349 -3.26059 1.02863 0
M  V30 4267 O 171.259 -2.90743 2.19009 0
M  V30 4268 N 171.309 -2.35995 -0.0155585 0
M  V30 4269 C 171.399 -2.65248 -1.35603 0
M  V30 4270 O 171.349 -1.75605 -2.20651 0
M  V30 4271 C 171.549 -4.05747 -1.64698 0
M  V30 4272 C 171.659 -4.42345 -3.09553 0
M  V30 4273 C 171.599 -4.96734 -0.652411 0
M  V30 4274 H 174.34 -8.64917 0.776982 0
M  V30 4275 H 174.609 -6.89974 0.474015 0
M  V30 4276 H 173.742 -7.66548 2.79458 0
M  V30 4277 H 171.087 -5.16076 2.65138 0
M  V30 4278 H 170.808 -7.06433 0.329384 0
M  V30 4279 H 169.816 -6.90829 1.81996 0
M  V30 4280 H 171.65 -8.90774 1.62639 0
M  V30 4281 H 171.721 -6.02181 -0.895285 0
M  V30 4282 H 170.691 -4.80252 -3.45468 0
M  V30 4283 H 172.428 -5.20015 -3.22119 0
M  V30 4284 H 171.94 -3.53269 -3.67833 0
M  V30 4285 H 171.204 -1.39558 0.227499 0
M  V30 4286 P 169.779 -8.03563 3.84925 0
M  V30 4287 O 169.559 -8.85821 5.0569 0
M  V30 4288 O 168.989 -8.41101 2.65469 0
M  V30 4289 O 169.529 -6.4965 4.18908 0
M  V30 4290 C 170.469 -5.81037 5.05421 0
M  V30 4291 C 169.739 -4.78366 5.89277 0
M  V30 4292 O 169.529 -3.58302 5.08433 0
M  V30 4293 C 168.339 -5.17448 6.36119 0
M  V30 4294 O 167.949 -4.45271 7.53232 0
M  V30 4295 C 167.459 -4.74639 5.19936 0
M  V30 4296 C 168.169 -3.49432 4.70418 0
M  V30 4297 N 168.119 -3.31776 3.22945 0
M  V30 4298 H 170.958 -6.54213 5.71376 0
M  V30 4299 H 171.23 -5.30492 4.44033 0
M  V30 4300 H 170.362 -4.55889 6.76652 0
M  V30 4301 P 166.399 -4.23843 7.83734 0
M  V30 4302 O 166.179 -4.19407 9.29784 0
M  V30 4303 O 165.609 -5.24426 7.09156 0
M  V30 4304 O 166.149 -2.7935 7.20758 0
M  V30 4305 C 167.089 -1.7299 7.50419 0
M  V30 4306 C 166.359 -0.406376 7.57911 0
M  V30 4307 O 166.149 0.0897726 6.21935 0
M  V30 4308 C 164.959 -0.447224 8.1878 0
M  V30 4309 O 164.569 0.825065 8.71101 0
M  V30 4310 C 164.079 -0.783801 6.99623 0
M  V30 4311 C 164.789 -0.0619192 5.85967 0
M  V30 4312 N 164.739 -0.7859 4.56281 0
M  V30 4313 H 167.578 -1.93423 8.4679 0
M  V30 4314 H 167.85 -1.68181 6.71046 0
M  V30 4315 H 166.982 0.289041 8.15388 0
M  V30 4316 P 163.019 1.17771 8.83182 0
M  V30 4317 O 162.799 2.07206 9.98732 0
M  V30 4318 O 162.229 -0.0743816 8.81969 0
M  V30 4319 O 162.769 1.97652 7.47304 0
M  V30 4320 C 163.709 3.01133 7.08783 0
M  V30 4321 C 162.979 4.12613 6.37049 0
M  V30 4322 O 162.769 3.72827 4.97879 0
M  V30 4323 C 161.579 4.45085 6.88694 0
M  V30 4324 O 161.189 5.7877 6.5624 0
M  V30 4325 C 160.699 3.47817 6.12078 0
M  V30 4326 C 161.409 3.39414 4.77697 0
M  V30 4327 N 161.359 2.04615 4.15333 0
M  V30 4328 H 164.198 3.41248 7.98759 0
M  V30 4329 H 164.47 2.5837 6.41742 0
M  V30 4330 H 163.602 5.02657 6.42673 0
M  V30 4331 P 159.639 6.144 6.45285 0
M  V30 4332 O 159.419 7.54673 6.86199 0
M  V30 4333 O 158.849 5.12391 7.179 0
M  V30 4334 O 159.389 5.99158 4.88404 0
M  V30 4335 C 160.329 6.60062 3.96313 0
M  V30 4336 C 159.599 7.08259 2.72856 0
M  V30 4337 O 159.389 5.9427 1.83651 0
M  V30 4338 C 158.199 7.65087 2.94749 0
M  V30 4339 O 157.809 8.53963 1.90717 0
M  V30 4340 C 157.319 6.41069 2.90698 0
M  V30 4341 C 158.029 5.5528 1.86931 0
M  V30 4342 N 157.979 4.09575 2.15696 0
M  V30 4343 C 157.829 3.24249 1.08435 0
M  V30 4344 O 157.739 3.63946 -0.0628747 0
M  V30 4345 N 157.789 1.90009 1.39973 0
M  V30 4346 C 157.879 1.34884 2.65614 0
M  V30 4347 C 158.029 2.3145 3.71736 0
M  V30 4348 C 158.079 3.63518 3.44754 0
M  V30 4349 H 160.82 7.45402 4.45526 0
M  V30 4350 H 161.089 5.86062 3.67208 0
M  V30 4351 H 160.222 7.84412 2.24479 0
M  V30 4352 H 157.567 5.73358 0.888409 0
M  V30 4353 H 157.288 5.90877 3.88583 0
M  V30 4354 H 156.296 6.65867 2.58821 0
M  V30 4355 H 158.13 8.16248 3.92006 0
M  V30 4356 H 158.201 4.34551 4.26383 0
M  V30 4357 P 156.259 8.7635 1.60911 0
M  V30 4358 O 156.039 10.1388 1.11561 0
M  V30 4359 O 155.469 8.36503 2.79617 0
M  V30 4360 O 156.009 7.71806 0.42951 0
M  V30 4361 C 156.949 7.66948 -0.673514 0
M  V30 4362 C 156.219 7.33374 -1.95559 0
M  V30 4363 O 156.009 5.88721 -2.00726 0
M  V30 4364 C 154.819 7.92218 -2.1125 0
M  V30 4365 O 154.429 8.02971 -3.47653 0
M  V30 4366 C 153.939 6.89504 -1.41631 0
M  V30 4367 C 154.649 5.59106 -1.75155 0
M  V30 4368 N 154.599 4.58136 -0.662409 0
M  V30 4369 C 154.449 3.26059 -1.02863 0
M  V30 4370 O 154.359 2.90743 -2.19009 0
M  V30 4371 N 154.409 2.35995 0.0155585 0
M  V30 4372 C 154.499 2.65248 1.35603 0
M  V30 4373 O 154.449 1.75605 2.20651 0
M  V30 4374 C 154.649 4.05747 1.64698 0
M  V30 4375 C 154.759 4.42345 3.09553 0
M  V30 4376 C 154.699 4.96734 0.652411 0
M  V30 4377 H 157.44 8.64917 -0.776982 0
M  V30 4378 H 157.709 6.89974 -0.474015 0
M  V30 4379 H 156.842 7.66548 -2.79458 0
M  V30 4380 H 154.187 5.16076 -2.65138 0
M  V30 4381 H 153.908 7.06433 -0.329384 0
M  V30 4382 H 152.916 6.90829 -1.81996 0
M  V30 4383 H 154.75 8.90774 -1.62639 0
M  V30 4384 H 154.821 6.02181 0.895285 0
M  V30 4385 H 153.791 4.80252 3.45468 0
M  V30 4386 H 155.528 5.20015 3.22119 0
M  V30 4387 H 155.04 3.53269 3.67833 0
M  V30 4388 H 154.304 1.39558 -0.227499 0
M  V30 4389 P 152.879 8.03563 -3.84925 0
M  V30 4390 O 152.659 8.85821 -5.0569 0
M  V30 4391 O 152.089 8.41101 -2.65469 0
M  V30 4392 O 152.629 6.4965 -4.18908 0
M  V30 4393 C 153.569 5.81037 -5.05421 0
M  V30 4394 C 152.839 4.78366 -5.89277 0
M  V30 4395 O 152.629 3.58302 -5.08433 0
M  V30 4396 C 151.439 5.17448 -6.36119 0
M  V30 4397 O 151.049 4.45271 -7.53232 0
M  V30 4398 C 150.559 4.74639 -5.19936 0
M  V30 4399 C 151.269 3.49432 -4.70418 0
M  V30 4400 N 151.219 3.32099 -3.22613 0
M  V30 4401 H 154.058 6.54213 -5.71376 0
M  V30 4402 H 154.33 5.30936 -4.43503 0
M  V30 4403 H 153.462 4.55889 -6.76652 0
M  V30 4404 H 150.807 2.61715 -5.17932 0
M  V30 4405 H 150.527 5.52155 -4.41878 0
M  V30 4406 H 149.536 4.51981 -5.53374 0
M  V30 4407 H 151.37 6.25124 -6.55234 0
M  V30 4408 P 149.499 4.23843 -7.83734 0
M  V30 4409 O 149.279 4.19407 -9.29784 0
M  V30 4410 O 148.709 5.24426 -7.09156 0
M  V30 4411 O 149.249 2.7935 -7.20758 0
M  V30 4412 C 150.189 1.7299 -7.50419 0
M  V30 4413 C 149.459 0.406376 -7.57911 0
M  V30 4414 O 149.249 -0.0897726 -6.21935 0
M  V30 4415 C 148.059 0.447224 -8.1878 0
M  V30 4416 O 147.669 -0.825065 -8.71101 0
M  V30 4417 C 147.179 0.783801 -6.99623 0
M  V30 4418 C 147.889 0.0619192 -5.85967 0
M  V30 4419 N 147.839 0.7859 -4.56281 0
M  V30 4420 H 150.678 1.93423 -8.4679 0
M  V30 4421 H 150.95 1.68181 -6.71046 0
M  V30 4422 H 150.082 -0.289041 -8.15388 0
M  V30 4423 P 146.119 -1.17771 -8.83182 0
M  V30 4424 O 145.899 -2.07206 -9.98732 0
M  V30 4425 O 145.329 0.0743816 -8.81969 0
M  V30 4426 O 145.869 -1.97652 -7.47304 0
M  V30 4427 C 146.809 -3.01133 -7.08783 0
M  V30 4428 C 146.079 -4.12613 -6.37049 0
M  V30 4429 O 145.869 -3.72827 -4.97879 0
M  V30 4430 C 144.679 -4.45085 -6.88694 0
M  V30 4431 O 144.289 -5.7877 -6.5624 0
M  V30 4432 C 143.799 -3.47817 -6.12078 0
M  V30 4433 C 144.509 -3.39414 -4.77697 0
M  V30 4434 N 144.459 -2.04199 -4.15538 0
M  V30 4435 H 147.298 -3.41248 -7.98759 0
M  V30 4436 H 147.57 -2.57728 -6.42 0
M  V30 4437 H 146.702 -5.02657 -6.42673 0
M  V30 4438 H 144.047 -4.11708 -4.08956 0
M  V30 4439 H 143.767 -2.49626 -6.61679 0
M  V30 4440 H 142.776 -3.8662 -6.00862 0
M  V30 4441 H 144.61 -4.29991 -7.97006 0
M  V30 4442 P 142.739 -6.144 -6.45285 0
M  V30 4443 O 142.519 -7.54673 -6.86199 0
M  V30 4444 O 141.949 -5.12391 -7.179 0
M  V30 4445 O 142.489 -5.99158 -4.88404 0
M  V30 4446 C 143.429 -6.60234 -3.96415 0
M  V30 4447 C 142.699 -7.08259 -2.72856 0
M  V30 4448 O 142.489 -5.9427 -1.83651 0
M  V30 4449 C 141.299 -7.64886 -2.9555 0
M  V30 4450 O 140.909 -8.53963 -1.90717 0
M  V30 4451 C 140.419 -6.4116 -2.90739 0
M  V30 4452 C 141.129 -5.55375 -1.86963 0
M  V30 4453 N 141.079 -4.09448 -2.16152 0
M  V30 4454 H 143.918 -7.45574 -4.45629 0
M  V30 4455 H 144.19 -5.85864 -3.679 0
M  V30 4456 H 143.322 -7.84412 -2.24479 0
M  V30 4457 H 140.667 -5.73457 -0.888562 0
M  V30 4458 H 140.387 -5.90877 -3.88583 0
M  V30 4459 H 139.396 -6.6596 -2.58858 0
M  V30 4460 H 141.23 -8.16339 -3.92049 0
M  V30 4461 P 139.359 -8.7635 -1.60911 0
M  V30 4462 O 139.139 -10.1388 -1.11561 0
M  V30 4463 O 138.569 -8.36503 -2.79617 0
M  V30 4464 O 139.109 -7.71806 -0.42951 0
M  V30 4465 C 140.049 -7.67148 0.673689 0
M  V30 4466 C 139.319 -7.33374 1.95559 0
M  V30 4467 O 139.109 -5.88721 2.00726 0
M  V30 4468 C 137.919 -7.92526 2.10483 0
M  V30 4469 O 137.529 -8.02971 3.47653 0
M  V30 4470 C 137.039 -6.89602 1.41652 0
M  V30 4471 C 137.749 -5.59201 1.75185 0
M  V30 4472 N 137.699 -4.58235 0.662552 0
M  V30 4473 H 140.538 -8.65116 0.777161 0
M  V30 4474 H 140.81 -6.90173 0.474152 0
M  V30 4475 H 139.942 -7.66548 2.79458 0
M  V30 4476 P 135.979 -8.03563 3.84925 0
M  V30 4477 O 135.759 -8.85821 5.0569 0
M  V30 4478 O 135.189 -8.41101 2.65469 0
M  V30 4479 O 135.729 -6.4965 4.18908 0
M  V30 4480 C 136.669 -5.81037 5.05421 0
M  V30 4481 C 135.939 -4.78366 5.89277 0
M  V30 4482 O 135.729 -3.58302 5.08433 0
M  V30 4483 C 134.539 -5.17448 6.36119 0
M  V30 4484 O 134.149 -4.45271 7.53232 0
M  V30 4485 C 133.659 -4.74639 5.19936 0
M  V30 4486 C 134.369 -3.49432 4.70418 0
M  V30 4487 N 134.319 -3.32099 3.22613 0
M  V30 4488 C 134.399 -4.28245 2.25527 0
M  V30 4489 N 134.329 -3.80823 1.04874 0
M  V30 4490 C 134.179 -2.44571 1.23535 0
M  V30 4491 C 134.049 -1.37068 0.330675 0
M  V30 4492 N 134.039 -1.51472 -0.990824 0
M  V30 4493 N 133.929 -0.138614 0.848756 0
M  V30 4494 C 133.939 0.00675923 2.16999 0
M  V30 4495 N 134.059 -0.904372 3.11122 0
M  V30 4496 C 134.179 -2.12707 2.56212 0
M  V30 4497 H 137.158 -6.54213 5.71376 0
M  V30 4498 H 137.43 -5.30936 4.43503 0
M  V30 4499 H 136.562 -4.55889 6.76652 0
M  V30 4500 H 133.907 -2.61715 5.17932 0
M  V30 4501 H 133.627 -5.52155 4.41878 0
M  V30 4502 H 132.636 -4.51981 5.53374 0
M  V30 4503 H 134.47 -6.25124 6.55234 0
M  V30 4504 H 134.511 -5.34372 2.47488 0
M  V30 4505 H 134.13 -2.45153 -1.4078 0
M  V30 4506 H 133.941 -0.688422 -1.59911 0
M  V30 4507 H 133.833 1.02584 2.52346 0
M  V30 4508 P 132.599 -4.23843 7.83734 0
M  V30 4509 O 132.379 -4.19407 9.29784 0
M  V30 4510 O 131.809 -5.24426 7.09156 0
M  V30 4511 O 132.349 -2.7935 7.20758 0
M  V30 4512 C 133.289 -1.72945 7.50224 0
M  V30 4513 C 132.559 -0.406376 7.57911 0
M  V30 4514 O 132.349 0.0897726 6.21935 0
M  V30 4515 C 131.159 -0.438983 8.18724 0
M  V30 4516 O 130.769 0.825065 8.71101 0
M  V30 4517 C 130.279 -0.783689 6.99524 0
M  V30 4518 C 130.989 -0.0619086 5.85867 0
M  V30 4519 N 130.939 -0.78573 4.56183 0
M  V30 4520 C 130.789 -0.0292889 3.41887 0
M  V30 4521 O 130.699 1.18445 3.4419 0
M  V30 4522 N 130.749 -0.744061 2.23964 0
M  V30 4523 C 130.839 -2.10932 2.10362 0
M  V30 4524 O 130.789 -2.64117 0.98825 0
M  V30 4525 C 130.989 -2.8202 3.34994 0
M  V30 4526 C 131.099 -4.31095 3.25037 0
M  V30 4527 C 131.039 -2.15547 4.52261 0
M  V30 4528 H 133.78 -1.93379 8.46595 0
M  V30 4529 H 134.049 -1.68132 6.70852 0
M  V30 4530 H 133.182 0.289041 8.15388 0
M  V30 4531 H 130.527 0.926847 5.72749 0
M  V30 4532 H 130.248 -1.86973 6.82036 0
M  V30 4533 H 129.256 -0.403896 7.13257 0
M  V30 4534 H 131.09 -1.20585 8.97435 0
M  V30 4535 H 131.161 -2.71231 5.45042 0
M  V30 4536 H 130.131 -4.76966 3.49992 0
M  V30 4537 H 131.868 -4.67047 3.95024 0
M  V30 4538 H 131.38 -4.58996 2.22312 0
M  V30 4539 H 130.644 -0.214893 1.39758 0
M  V30 4540 P 129.219 1.17771 8.83182 0
M  V30 4541 O 128.999 2.07206 9.98732 0
M  V30 4542 O 128.429 -0.0743816 8.81969 0
M  V30 4543 O 128.969 1.97652 7.47304 0
M  V30 4544 C 129.909 3.01133 7.08783 0
M  V30 4545 C 129.179 4.12613 6.37049 0
M  V30 4546 O 128.969 3.72827 4.97879 0
M  V30 4547 C 127.779 4.45085 6.88694 0
M  V30 4548 O 127.389 5.7877 6.5624 0
M  V30 4549 C 126.899 3.47817 6.12078 0
M  V30 4550 C 127.609 3.39414 4.77697 0
M  V30 4551 N 127.559 2.04615 4.15333 0
M  V30 4552 H 130.398 3.41248 7.98759 0
M  V30 4553 H 130.67 2.5837 6.41742 0
M  V30 4554 H 129.802 5.02657 6.42673 0
M  V30 4555 P 125.839 6.144 6.45285 0
M  V30 4556 O 125.619 7.54673 6.86199 0
M  V30 4557 O 125.049 5.12391 7.179 0
M  V30 4558 O 125.589 5.99158 4.88404 0
M  V30 4559 C 126.529 6.60234 3.96415 0
M  V30 4560 C 125.799 7.08259 2.72856 0
M  V30 4561 O 125.589 5.9427 1.83651 0
M  V30 4562 C 124.399 7.64886 2.9555 0
M  V30 4563 O 124.009 8.53963 1.90717 0
M  V30 4564 C 123.519 6.4116 2.90739 0
M  V30 4565 C 124.229 5.55375 1.86963 0
M  V30 4566 N 124.179 4.09448 2.16152 0
M  V30 4567 H 127.018 7.45574 4.45629 0
M  V30 4568 H 127.29 5.85864 3.679 0
M  V30 4569 H 126.422 7.84412 2.24479 0
M  V30 4570 H 123.767 5.73457 0.888562 0
M  V30 4571 H 123.487 5.90877 3.88583 0
M  V30 4572 H 122.496 6.6596 2.58858 0
M  V30 4573 H 124.33 8.16339 3.92049 0
M  V30 4574 P 122.459 8.7635 1.60911 0
M  V30 4575 O 122.239 10.1388 1.11561 0
M  V30 4576 O 121.669 8.36503 2.79617 0
M  V30 4577 O 122.209 7.71806 0.42951 0
M  V30 4578 C 123.149 7.67148 -0.673689 0
M  V30 4579 C 122.419 7.33374 -1.95559 0
M  V30 4580 O 122.209 5.88721 -2.00726 0
M  V30 4581 C 121.019 7.92526 -2.10483 0
M  V30 4582 O 120.629 8.02971 -3.47653 0
M  V30 4583 C 120.139 6.89602 -1.41652 0
M  V30 4584 C 120.849 5.59201 -1.75185 0
M  V30 4585 N 120.799 4.58235 -0.662552 0
M  V30 4586 H 123.638 8.65116 -0.777161 0
M  V30 4587 H 123.91 6.90173 -0.474152 0
M  V30 4588 H 123.042 7.66548 -2.79458 0
M  V30 4589 P 119.079 8.03563 -3.84925 0
M  V30 4590 O 118.859 8.85821 -5.0569 0
M  V30 4591 O 118.289 8.41101 -2.65469 0
M  V30 4592 O 118.829 6.4965 -4.18908 0
M  V30 4593 C 119.769 5.81037 -5.05421 0
M  V30 4594 C 119.039 4.78366 -5.89277 0
M  V30 4595 O 118.829 3.58302 -5.08433 0
M  V30 4596 C 117.639 5.17448 -6.36119 0
M  V30 4597 O 117.249 4.45271 -7.53232 0
M  V30 4598 C 116.759 4.74639 -5.19936 0
M  V30 4599 C 117.469 3.49432 -4.70418 0
M  V30 4600 N 117.419 3.32099 -3.22613 0
M  V30 4601 H 120.258 6.54213 -5.71376 0
M  V30 4602 H 120.53 5.30936 -4.43503 0
M  V30 4603 H 119.662 4.55889 -6.76652 0
M  V30 4604 H 117.007 2.61715 -5.17932 0
M  V30 4605 H 116.727 5.52155 -4.41878 0
M  V30 4606 H 115.736 4.51981 -5.53374 0
M  V30 4607 H 117.57 6.25124 -6.55234 0
M  V30 4608 P 115.699 4.23843 -7.83734 0
M  V30 4609 O 115.479 4.19407 -9.29784 0
M  V30 4610 O 114.909 5.24426 -7.09156 0
M  V30 4611 O 115.449 2.7935 -7.20758 0
M  V30 4612 C 116.389 1.7299 -7.50419 0
M  V30 4613 C 115.659 0.406376 -7.57911 0
M  V30 4614 O 115.449 -0.0897726 -6.21935 0
M  V30 4615 C 114.259 0.447224 -8.1878 0
M  V30 4616 O 113.869 -0.825065 -8.71101 0
M  V30 4617 C 113.379 0.783801 -6.99623 0
M  V30 4618 C 114.089 0.0619192 -5.85967 0
M  V30 4619 N 114.039 0.790462 -4.56202 0
M  V30 4620 H 116.878 1.93423 -8.4679 0
M  V30 4621 H 117.15 1.68852 -6.70877 0
M  V30 4622 H 116.282 -0.289041 -8.15388 0
M  V30 4623 H 113.627 -0.927006 -5.72848 0
M  V30 4624 H 113.347 1.86973 -6.82036 0
M  V30 4625 H 112.356 0.403953 -7.13357 0
M  V30 4626 H 114.19 1.20599 -8.97534 0
M  V30 4627 P 112.319 -1.17771 -8.83182 0
M  V30 4628 O 112.099 -2.07206 -9.98732 0
M  V30 4629 O 111.529 0.0743816 -8.81969 0
M  V30 4630 O 112.069 -1.97652 -7.47304 0
M  V30 4631 C 113.009 -3.01133 -7.08783 0
M  V30 4632 C 112.279 -4.12613 -6.37049 0
M  V30 4633 O 112.069 -3.72827 -4.97879 0
M  V30 4634 C 110.879 -4.45085 -6.88694 0
M  V30 4635 O 110.489 -5.7877 -6.5624 0
M  V30 4636 C 109.999 -3.47817 -6.12078 0
M  V30 4637 C 110.709 -3.39414 -4.77697 0
M  V30 4638 N 110.659 -2.04615 -4.15333 0
M  V30 4639 H 113.498 -3.41248 -7.98759 0
M  V30 4640 H 113.77 -2.5837 -6.41742 0
M  V30 4641 H 112.902 -5.02657 -6.42673 0
M  V30 4642 P 108.939 -6.144 -6.45285 0
M  V30 4643 O 108.719 -7.54673 -6.86199 0
M  V30 4644 O 108.149 -5.12391 -7.179 0
M  V30 4645 O 108.689 -5.99158 -4.88404 0
M  V30 4646 C 109.629 -6.60234 -3.96415 0
M  V30 4647 C 108.899 -7.08259 -2.72856 0
M  V30 4648 O 108.689 -5.9427 -1.83651 0
M  V30 4649 C 107.499 -7.64886 -2.9555 0
M  V30 4650 O 107.109 -8.53963 -1.90717 0
M  V30 4651 C 106.619 -6.4116 -2.90739 0
M  V30 4652 C 107.329 -5.55375 -1.86963 0
M  V30 4653 N 107.279 -4.09664 -2.15742 0
M  V30 4654 H 110.118 -7.45574 -4.45629 0
M  V30 4655 H 110.39 -5.86232 -3.67314 0
M  V30 4656 H 109.522 -7.84412 -2.24479 0
M  V30 4657 P 105.559 -8.7635 -1.60911 0
M  V30 4658 O 105.339 -10.1388 -1.11561 0
M  V30 4659 O 104.769 -8.36503 -2.79617 0
M  V30 4660 O 105.309 -7.71806 -0.42951 0
M  V30 4661 C 106.249 -7.66948 0.673514 0
M  V30 4662 C 105.519 -7.33374 1.95559 0
M  V30 4663 O 105.309 -5.88721 2.00726 0
M  V30 4664 C 104.119 -7.92218 2.1125 0
M  V30 4665 O 103.729 -8.02971 3.47653 0
M  V30 4666 C 103.239 -6.89504 1.41631 0
M  V30 4667 C 103.949 -5.59106 1.75155 0
M  V30 4668 N 103.899 -4.58136 0.662409 0
M  V30 4669 C 103.749 -3.26059 1.02863 0
M  V30 4670 O 103.659 -2.90743 2.19009 0
M  V30 4671 N 103.709 -2.35995 -0.0155585 0
M  V30 4672 C 103.799 -2.65248 -1.35603 0
M  V30 4673 O 103.749 -1.75605 -2.20651 0
M  V30 4674 C 103.949 -4.05747 -1.64698 0
M  V30 4675 C 104.059 -4.42345 -3.09553 0
M  V30 4676 C 103.999 -4.96734 -0.652411 0
M  V30 4677 H 106.74 -8.64917 0.776982 0
M  V30 4678 H 107.009 -6.89974 0.474015 0
M  V30 4679 H 106.142 -7.66548 2.79458 0
M  V30 4680 H 103.487 -5.16076 2.65138 0
M  V30 4681 H 103.208 -7.06433 0.329384 0
M  V30 4682 H 102.216 -6.90829 1.81996 0
M  V30 4683 H 104.05 -8.90774 1.62639 0
M  V30 4684 H 104.121 -6.02181 -0.895285 0
M  V30 4685 H 103.091 -4.80252 -3.45468 0
M  V30 4686 H 104.828 -5.20015 -3.22119 0
M  V30 4687 H 104.34 -3.53269 -3.67833 0
M  V30 4688 H 103.604 -1.39558 0.227499 0
M  V30 4689 P 102.179 -8.03563 3.84925 0
M  V30 4690 O 101.959 -8.85821 5.0569 0
M  V30 4691 O 101.389 -8.41101 2.65469 0
M  V30 4692 O 101.929 -6.4965 4.18908 0
M  V30 4693 C 102.869 -5.81037 5.05421 0
M  V30 4694 C 102.139 -4.78366 5.89277 0
M  V30 4695 O 101.929 -3.58302 5.08433 0
M  V30 4696 C 100.739 -5.17448 6.36119 0
M  V30 4697 O 100.349 -4.45271 7.53232 0
M  V30 4698 C 99.8594 -4.74639 5.19936 0
M  V30 4699 C 100.569 -3.49432 4.70418 0
M  V30 4700 N 100.519 -3.32099 3.22613 0
M  V30 4701 H 103.358 -6.54213 5.71376 0
M  V30 4702 H 103.63 -5.30936 4.43503 0
M  V30 4703 H 102.762 -4.55889 6.76652 0
M  V30 4704 H 100.107 -2.61715 5.17932 0
M  V30 4705 H 99.8274 -5.52155 4.41878 0
M  V30 4706 H 98.8364 -4.51981 5.53374 0
M  V30 4707 H 100.67 -6.25124 6.55234 0
M  V30 4708 P 98.7994 -4.23843 7.83734 0
M  V30 4709 O 98.5794 -4.19407 9.29784 0
M  V30 4710 O 98.0094 -5.24426 7.09156 0
M  V30 4711 O 98.5494 -2.7935 7.20758 0
M  V30 4712 C 99.4894 -1.72945 7.50224 0
M  V30 4713 C 98.7594 -0.406376 7.57911 0
M  V30 4714 O 98.5494 0.0897726 6.21935 0
M  V30 4715 C 97.3594 -0.438983 8.18724 0
M  V30 4716 O 96.9694 0.825065 8.71101 0
M  V30 4717 C 96.4794 -0.783689 6.99524 0
M  V30 4718 C 97.1894 -0.0619086 5.85867 0
M  V30 4719 N 97.1394 -0.78573 4.56183 0
M  V30 4720 C 96.9894 -0.0292889 3.41887 0
M  V30 4721 O 96.8994 1.18445 3.4419 0
M  V30 4722 N 96.9494 -0.744061 2.23964 0
M  V30 4723 C 97.0394 -2.10932 2.10362 0
M  V30 4724 C 97.1894 -2.8202 3.34994 0
M  V30 4725 C 97.2394 -2.15547 4.52261 0
M  V30 4726 H 99.9804 -1.93379 8.46595 0
M  V30 4727 H 100.249 -1.68132 6.70852 0
M  V30 4728 H 99.3824 0.289041 8.15388 0
M  V30 4729 H 96.7274 0.926847 5.72749 0
M  V30 4730 H 96.4484 -1.86973 6.82036 0
M  V30 4731 H 95.4564 -0.403896 7.13257 0
M  V30 4732 H 97.2904 -1.20585 8.97435 0
M  V30 4733 H 97.3614 -2.71231 5.45042 0
M  V30 4734 P 95.4195 1.17771 8.83182 0
M  V30 4735 O 95.1995 2.07206 9.98732 0
M  V30 4736 O 94.6295 -0.0743816 8.81969 0
M  V30 4737 O 95.1695 1.97652 7.47304 0
M  V30 4738 C 96.1095 3.01133 7.08783 0
M  V30 4739 C 95.3795 4.12613 6.37049 0
M  V30 4740 O 95.1695 3.72827 4.97879 0
M  V30 4741 C 93.9795 4.45085 6.88694 0
M  V30 4742 O 93.5895 5.7877 6.5624 0
M  V30 4743 C 93.0995 3.47817 6.12078 0
M  V30 4744 C 93.8095 3.39414 4.77697 0
M  V30 4745 N 93.7595 2.04615 4.15333 0
M  V30 4746 H 96.5985 3.41248 7.98759 0
M  V30 4747 H 96.8705 2.5837 6.41742 0
M  V30 4748 H 96.0025 5.02657 6.42673 0
M  V30 4749 P 92.0395 6.144 6.45285 0
M  V30 4750 O 91.8195 7.54673 6.86199 0
M  V30 4751 O 91.2495 5.12391 7.179 0
M  V30 4752 O 91.7895 5.99158 4.88404 0
M  V30 4753 C 92.7295 6.60234 3.96415 0
M  V30 4754 C 91.9995 7.08259 2.72856 0
M  V30 4755 O 91.7895 5.9427 1.83651 0
M  V30 4756 C 90.5995 7.64886 2.9555 0
M  V30 4757 O 90.2095 8.53963 1.90717 0
M  V30 4758 C 89.7195 6.4116 2.90739 0
M  V30 4759 C 90.4295 5.55375 1.86963 0
M  V30 4760 N 90.3795 4.09664 2.15742 0
M  V30 4761 H 93.2185 7.45574 4.45629 0
M  V30 4762 H 93.4905 5.86232 3.67314 0
M  V30 4763 H 92.6225 7.84412 2.24479 0
M  V30 4764 P 88.6595 8.7635 1.60911 0
M  V30 4765 O 88.4395 10.1388 1.11561 0
M  V30 4766 O 87.8695 8.36503 2.79617 0
M  V30 4767 O 88.4095 7.71806 0.42951 0
M  V30 4768 C 89.3495 7.66948 -0.673514 0
M  V30 4769 C 88.6195 7.33374 -1.95559 0
M  V30 4770 O 88.4095 5.88721 -2.00726 0
M  V30 4771 C 87.2195 7.92218 -2.1125 0
M  V30 4772 O 86.8295 8.02971 -3.47653 0
M  V30 4773 C 86.3395 6.89504 -1.41631 0
M  V30 4774 C 87.0495 5.59106 -1.75155 0
M  V30 4775 N 86.9995 4.58136 -0.662409 0
M  V30 4776 C 86.8495 3.26059 -1.02863 0
M  V30 4777 O 86.7595 2.90743 -2.19009 0
M  V30 4778 N 86.8095 2.35995 0.0155585 0
M  V30 4779 C 86.8995 2.65248 1.35603 0
M  V30 4780 O 86.8495 1.75605 2.20651 0
M  V30 4781 C 87.0495 4.05747 1.64698 0
M  V30 4782 C 87.1595 4.42345 3.09553 0
M  V30 4783 C 87.0995 4.96734 0.652411 0
M  V30 4784 H 89.8405 8.64917 -0.776982 0
M  V30 4785 H 90.1095 6.89974 -0.474015 0
M  V30 4786 H 89.2425 7.66548 -2.79458 0
M  V30 4787 H 86.5875 5.16076 -2.65138 0
M  V30 4788 H 86.3085 7.06433 -0.329384 0
M  V30 4789 H 85.3165 6.90829 -1.81996 0
M  V30 4790 H 87.1505 8.90774 -1.62639 0
M  V30 4791 H 87.2215 6.02181 0.895285 0
M  V30 4792 H 86.1915 4.80252 3.45468 0
M  V30 4793 H 87.9285 5.20015 3.22119 0
M  V30 4794 H 87.4405 3.53269 3.67833 0
M  V30 4795 H 86.7045 1.39558 -0.227499 0
M  V30 4796 P 85.2795 8.03563 -3.84925 0
M  V30 4797 O 85.0595 8.85821 -5.0569 0
M  V30 4798 O 84.4895 8.41101 -2.65469 0
M  V30 4799 O 85.0295 6.4965 -4.18908 0
M  V30 4800 C 85.9695 5.80886 -5.05289 0
M  V30 4801 C 85.2395 4.78366 -5.89277 0
M  V30 4802 O 85.0295 3.58302 -5.08433 0
M  V30 4803 C 83.8395 5.16748 -6.36559 0
M  V30 4804 O 83.4495 4.45271 -7.53232 0
M  V30 4805 C 82.9595 4.74572 -5.19863 0
M  V30 4806 C 83.6695 3.49373 -4.70338 0
M  V30 4807 N 83.6195 3.31704 -3.22876 0
M  V30 4808 C 83.4695 2.03326 -2.74871 0
M  V30 4809 O 83.3795 1.06486 -3.48076 0
M  V30 4810 N 83.4295 1.91838 -1.37456 0
M  V30 4811 C 83.5195 2.94295 -0.462035 0
M  V30 4812 O 83.4695 2.71763 0.752928 0
M  V30 4813 C 83.6695 4.25064 -1.05249 0
M  V30 4814 C 83.7795 5.39815 -0.095697 0
M  V30 4815 C 83.7195 4.40214 -2.39192 0
M  V30 4816 H 86.4605 6.54063 -5.71245 0
M  V30 4817 H 86.7295 5.30339 -4.43905 0
M  V30 4818 H 85.8625 4.55889 -6.76652 0
M  V30 4819 H 83.2075 2.6167 -5.17842 0
M  V30 4820 H 82.9285 5.52155 -4.41878 0
M  V30 4821 H 81.9365 4.51918 -5.53297 0
M  V30 4822 H 83.7705 6.25055 -6.55162 0
M  V30 4823 H 83.8415 5.39798 -2.81523 0
M  V30 4824 H 82.8115 5.91593 -0.0279582 0
M  V30 4825 H 84.5485 6.10038 -0.450573 0
M  V30 4826 H 84.0605 5.02007 0.89937 0
M  V30 4827 H 83.3245 0.995326 -1.00435 0
M  V30 4828 P 81.8995 4.23843 -7.83734 0
M  V30 4829 O 81.6795 4.19407 -9.29784 0
M  V30 4830 O 81.1095 5.24426 -7.09156 0
M  V30 4831 O 81.6495 2.7935 -7.20758 0
M  V30 4832 C 82.5895 1.7299 -7.50419 0
M  V30 4833 C 81.8595 0.406376 -7.57911 0
M  V30 4834 O 81.6495 -0.0897726 -6.21935 0
M  V30 4835 C 80.4595 0.447224 -8.1878 0
M  V30 4836 O 80.0695 -0.825065 -8.71101 0
M  V30 4837 C 79.5795 0.783801 -6.99623 0
M  V30 4838 C 80.2895 0.0619192 -5.85967 0
M  V30 4839 N 80.2395 0.7859 -4.56281 0
M  V30 4840 H 83.0785 1.93423 -8.4679 0
M  V30 4841 H 83.3505 1.68181 -6.71046 0
M  V30 4842 H 82.4825 -0.289041 -8.15388 0
M  V30 4843 P 78.5196 -1.17771 -8.83182 0
M  V30 4844 O 78.2996 -2.07206 -9.98732 0
M  V30 4845 O 77.7296 0.0743816 -8.81969 0
M  V30 4846 O 78.2696 -1.97652 -7.47304 0
M  V30 4847 C 79.2096 -3.01133 -7.08783 0
M  V30 4848 C 78.4796 -4.12613 -6.37049 0
M  V30 4849 O 78.2696 -3.72827 -4.97879 0
M  V30 4850 C 77.0796 -4.45085 -6.88694 0
M  V30 4851 O 76.6896 -5.7877 -6.5624 0
M  V30 4852 C 76.1996 -3.47817 -6.12078 0
M  V30 4853 C 76.9096 -3.39414 -4.77697 0
M  V30 4854 N 76.8596 -2.04615 -4.15333 0
M  V30 4855 H 79.6986 -3.41248 -7.98759 0
M  V30 4856 H 79.9706 -2.5837 -6.41742 0
M  V30 4857 H 79.1026 -5.02657 -6.42673 0
M  V30 4858 P 75.1396 -6.144 -6.45285 0
M  V30 4859 O 74.9196 -7.54673 -6.86199 0
M  V30 4860 O 74.3496 -5.12391 -7.179 0
M  V30 4861 O 74.8896 -5.99158 -4.88404 0
M  V30 4862 C 75.8296 -6.60234 -3.96415 0
M  V30 4863 C 75.0996 -7.08259 -2.72856 0
M  V30 4864 O 74.8896 -5.9427 -1.83651 0
M  V30 4865 C 73.6996 -7.64886 -2.9555 0
M  V30 4866 O 73.3096 -8.53963 -1.90717 0
M  V30 4867 C 72.8196 -6.4116 -2.90739 0
M  V30 4868 C 73.5296 -5.55375 -1.86963 0
M  V30 4869 N 73.4796 -4.09448 -2.16152 0
M  V30 4870 H 76.3186 -7.45574 -4.45629 0
M  V30 4871 H 76.5906 -5.85864 -3.679 0
M  V30 4872 H 75.7226 -7.84412 -2.24479 0
M  V30 4873 H 73.0676 -5.73457 -0.888562 0
M  V30 4874 H 72.7876 -5.90877 -3.88583 0
M  V30 4875 H 71.7966 -6.6596 -2.58858 0
M  V30 4876 H 73.6306 -8.16339 -3.92049 0
M  V30 4877 P 71.7596 -8.7635 -1.60911 0
M  V30 4878 O 71.5396 -10.1388 -1.11561 0
M  V30 4879 O 70.9696 -8.36503 -2.79617 0
M  V30 4880 O 71.5096 -7.71906 -0.429565 0
M  V30 4881 C 72.4496 -7.67148 0.673689 0
M  V30 4882 C 71.7196 -7.33666 1.94851 0
M  V30 4883 O 71.5096 -5.88816 2.00759 0
M  V30 4884 C 70.3196 -7.92526 2.10483 0
M  V30 4885 O 69.9296 -8.03063 3.47693 0
M  V30 4886 C 69.4396 -6.89602 1.41652 0
M  V30 4887 C 70.1496 -5.59201 1.75185 0
M  V30 4888 N 70.0996 -4.58235 0.662552 0
M  V30 4889 C 69.9496 -3.24451 1.01643 0
M  V30 4890 O 69.8596 -2.94958 2.21722 0
M  V30 4891 N 69.8996 -2.30408 -0.165238 0
M  V30 4892 C 69.9996 -2.66048 -1.25118 0
M  V30 4893 N 69.9496 -1.70787 -2.16813 0
M  V30 4894 C 70.1496 -4.02732 -1.64413 0
M  V30 4895 C 70.1996 -4.9488 -0.63991 0
M  V30 4896 H 72.9396 -8.65017 0.777072 0
M  V30 4897 H 73.2096 -6.90173 0.474152 0
M  V30 4898 H 72.3426 -7.66642 2.79492 0
M  V30 4899 H 69.6876 -5.16254 2.65229 0
M  V30 4900 H 69.4076 -7.06532 0.329431 0
M  V30 4901 H 68.4166 -6.91023 1.82047 0
M  V30 4902 H 70.2506 -8.90873 1.62657 0
M  V30 4903 H 70.3226 -6.00104 -0.892197 0
M  V30 4904 H 70.2206 -4.31733 -2.69229 0
M  V30 4905 H 69.8326 -0.724835 -1.8844 0
M  V30 4906 H 70.0286 -1.94716 -3.16734 0
M  V30 4907 P 68.3796 -8.03563 3.84925 0
M  V30 4908 O 68.1596 -8.85821 5.0569 0
M  V30 4909 O 67.5896 -8.41101 2.65469 0
M  V30 4910 O 68.1296 -6.4965 4.18908 0
M  V30 4911 C 69.0696 -5.80886 5.05289 0
M  V30 4912 C 68.3396 -4.78366 5.89277 0
M  V30 4913 O 68.1296 -3.58302 5.08433 0
M  V30 4914 C 66.9396 -5.16748 6.36559 0
M  V30 4915 O 66.5496 -4.45271 7.53232 0
M  V30 4916 C 66.0596 -4.74572 5.19863 0
M  V30 4917 C 66.7696 -3.49373 4.70338 0
M  V30 4918 N 66.7196 -3.31704 3.22876 0
M  V30 4919 C 66.5696 -2.03326 2.74871 0
M  V30 4920 O 66.4796 -1.06486 3.48076 0
M  V30 4921 N 66.5296 -1.91838 1.37456 0
M  V30 4922 C 66.6196 -2.94295 0.462035 0
M  V30 4923 O 66.5696 -2.71763 -0.752928 0
M  V30 4924 C 66.7696 -4.25064 1.05249 0
M  V30 4925 C 66.8796 -5.39815 0.095697 0
M  V30 4926 C 66.8196 -4.40214 2.39192 0
M  V30 4927 H 69.5606 -6.54063 5.71245 0
M  V30 4928 H 69.8296 -5.30339 4.43905 0
M  V30 4929 H 68.9626 -4.55889 6.76652 0
M  V30 4930 H 66.3076 -2.6167 5.17842 0
M  V30 4931 H 66.0286 -5.52155 4.41878 0
M  V30 4932 H 65.0366 -4.51918 5.53297 0
M  V30 4933 H 66.8706 -6.25055 6.55162 0
M  V30 4934 H 66.9416 -5.39798 2.81523 0
M  V30 4935 H 65.9116 -5.91593 0.0279582 0
M  V30 4936 H 67.6486 -6.10038 0.450573 0
M  V30 4937 H 67.1606 -5.02007 -0.89937 0
M  V30 4938 H 66.4246 -0.995326 1.00435 0
M  V30 4939 P 64.9996 -4.23843 7.83734 0
M  V30 4940 O 64.7796 -4.19407 9.29784 0
M  V30 4941 O 64.2096 -5.24426 7.09156 0
M  V30 4942 O 64.7496 -2.7935 7.20758 0
M  V30 4943 C 65.6896 -1.7299 7.50419 0
M  V30 4944 C 64.9596 -0.406376 7.57911 0
M  V30 4945 O 64.7496 0.0897726 6.21935 0
M  V30 4946 C 63.5596 -0.447224 8.1878 0
M  V30 4947 O 63.1696 0.825065 8.71101 0
M  V30 4948 C 62.6796 -0.783801 6.99623 0
M  V30 4949 C 63.3896 -0.0619192 5.85967 0
M  V30 4950 N 63.3396 -0.7859 4.56281 0
M  V30 4951 H 66.1786 -1.93423 8.4679 0
M  V30 4952 H 66.4506 -1.68181 6.71046 0
M  V30 4953 H 65.5826 0.289041 8.15388 0
M  V30 4954 P 61.6197 1.17771 8.83182 0
M  V30 4955 O 61.3997 2.07206 9.98732 0
M  V30 4956 O 60.8297 -0.0743816 8.81969 0
M  V30 4957 O 61.3697 1.97652 7.47304 0
M  V30 4958 C 62.3097 3.01133 7.08783 0
M  V30 4959 C 61.5797 4.12613 6.37049 0
M  V30 4960 O 61.3697 3.72827 4.97879 0
M  V30 4961 C 60.1797 4.45085 6.88694 0
M  V30 4962 O 59.7897 5.7877 6.5624 0
M  V30 4963 C 59.2997 3.47817 6.12078 0
M  V30 4964 C 60.0097 3.39414 4.77697 0
M  V30 4965 N 59.9597 2.04615 4.15333 0
M  V30 4966 C 60.0397 0.803897 4.75249 0
M  V30 4967 N 59.9597 -0.197615 3.91502 0
M  V30 4968 C 59.8197 0.413002 2.66823 0
M  V30 4969 C 59.6897 -0.157221 1.38007 0
M  V30 4970 N 59.5697 0.833136 0.390236 0
M  V30 4971 C 59.5697 2.19402 0.623885 0
M  V30 4972 N 59.4397 2.97622 -0.449677 0
M  V30 4973 N 59.6997 2.73005 1.83601 0
M  V30 4974 C 59.8197 1.78786 2.80935 0
M  V30 4975 H 62.7987 3.41248 7.98759 0
M  V30 4976 H 63.0707 2.5837 6.41742 0
M  V30 4977 H 62.2027 5.02657 6.42673 0
M  V30 4978 P 58.2397 6.144 6.45285 0
M  V30 4979 O 58.0197 7.54673 6.86199 0
M  V30 4980 O 57.4497 5.12391 7.179 0
M  V30 4981 O 57.9897 5.99158 4.88404 0
M  V30 4982 C 58.9297 6.60234 3.96415 0
M  V30 4983 C 58.1997 7.08259 2.72856 0
M  V30 4984 O 57.9897 5.9427 1.83651 0
M  V30 4985 C 56.7997 7.64886 2.9555 0
M  V30 4986 O 56.4097 8.53963 1.90717 0
M  V30 4987 C 55.9197 6.4116 2.90739 0
M  V30 4988 C 56.6297 5.55375 1.86963 0
M  V30 4989 N 56.5797 4.09664 2.15742 0
M  V30 4990 H 59.4187 7.45574 4.45629 0
M  V30 4991 H 59.6907 5.86232 3.67314 0
M  V30 4992 H 58.8227 7.84412 2.24479 0
M  V30 4993 P 54.8597 8.7635 1.60911 0
M  V30 4994 O 54.6397 10.1388 1.11561 0
M  V30 4995 O 54.0697 8.36503 2.79617 0
M  V30 4996 O 54.6097 7.71806 0.42951 0
M  V30 4997 C 55.5497 7.67148 -0.673689 0
M  V30 4998 C 54.8197 7.33374 -1.95559 0
M  V30 4999 O 54.6097 5.88721 -2.00726 0
M  V30 5000 C 53.4197 7.92526 -2.10483 0
M  V30 5001 O 53.0297 8.02971 -3.47653 0
M  V30 5002 C 52.5397 6.89602 -1.41652 0
M  V30 5003 C 53.2497 5.59201 -1.75185 0
M  V30 5004 N 53.1997 4.58235 -0.662552 0
M  V30 5005 H 56.0387 8.65116 -0.777161 0
M  V30 5006 H 56.3107 6.90173 -0.474152 0
M  V30 5007 H 55.4427 7.66548 -2.79458 0
M  V30 5008 P 51.4797 8.03563 -3.84925 0
M  V30 5009 O 51.2597 8.85821 -5.0569 0
M  V30 5010 O 50.6897 8.41101 -2.65469 0
M  V30 5011 O 51.2297 6.4965 -4.18908 0
M  V30 5012 C 52.1697 5.81037 -5.05421 0
M  V30 5013 C 51.4397 4.78366 -5.89277 0
M  V30 5014 O 51.2297 3.58302 -5.08433 0
M  V30 5015 C 50.0397 5.17448 -6.36119 0
M  V30 5016 O 49.6497 4.45271 -7.53232 0
M  V30 5017 C 49.1597 4.74639 -5.19936 0
M  V30 5018 C 49.8697 3.49432 -4.70418 0
M  V30 5019 N 49.8197 3.31776 -3.22945 0
M  V30 5020 H 52.6587 6.54213 -5.71376 0
M  V30 5021 H 52.9307 5.30492 -4.44033 0
M  V30 5022 H 52.0627 4.55889 -6.76652 0
M  V30 5023 P 48.0997 4.23843 -7.83734 0
M  V30 5024 O 47.8797 4.19407 -9.29784 0
M  V30 5025 O 47.3097 5.24426 -7.09156 0
M  V30 5026 O 47.8497 2.7935 -7.20758 0
M  V30 5027 C 48.7897 1.7299 -7.50419 0
M  V30 5028 C 48.0597 0.406376 -7.57911 0
M  V30 5029 O 47.8497 -0.0897726 -6.21935 0
M  V30 5030 C 46.6597 0.447224 -8.1878 0
M  V30 5031 O 46.2697 -0.825065 -8.71101 0
M  V30 5032 C 45.7797 0.783801 -6.99623 0
M  V30 5033 C 46.4897 0.0619192 -5.85967 0
M  V30 5034 N 46.4397 0.7859 -4.56281 0
M  V30 5035 H 49.2787 1.93423 -8.4679 0
M  V30 5036 H 49.5507 1.68181 -6.71046 0
M  V30 5037 H 48.6827 -0.289041 -8.15388 0
M  V30 5038 P 44.7198 -1.17771 -8.83182 0
M  V30 5039 O 44.4998 -2.07206 -9.98732 0
M  V30 5040 O 43.9298 0.0743816 -8.81969 0
M  V30 5041 O 44.4698 -1.97652 -7.47304 0
M  V30 5042 C 45.4098 -3.01133 -7.08783 0
M  V30 5043 C 44.6798 -4.12613 -6.37049 0
M  V30 5044 O 44.4698 -3.72827 -4.97879 0
M  V30 5045 C 43.2798 -4.45085 -6.88694 0
M  V30 5046 O 42.8898 -5.7877 -6.5624 0
M  V30 5047 C 42.3998 -3.47817 -6.12078 0
M  V30 5048 C 43.1098 -3.39414 -4.77697 0
M  V30 5049 N 43.0598 -2.04199 -4.15538 0
M  V30 5050 H 45.8988 -3.41248 -7.98759 0
M  V30 5051 H 46.1708 -2.57728 -6.42 0
M  V30 5052 H 45.3028 -5.02657 -6.42673 0
M  V30 5053 H 42.6478 -4.11708 -4.08956 0
M  V30 5054 H 42.3678 -2.49626 -6.61679 0
M  V30 5055 H 41.3768 -3.8662 -6.00862 0
M  V30 5056 H 43.2108 -4.29991 -7.97006 0
M  V30 5057 P 41.3398 -6.144 -6.45285 0
M  V30 5058 O 41.1198 -7.54673 -6.86199 0
M  V30 5059 O 40.5498 -5.12391 -7.179 0
M  V30 5060 O 41.0898 -5.99158 -4.88404 0
M  V30 5061 C 42.0298 -6.60234 -3.96415 0
M  V30 5062 C 41.2998 -7.08259 -2.72856 0
M  V30 5063 O 41.0898 -5.9427 -1.83651 0
M  V30 5064 C 39.8998 -7.64886 -2.9555 0
M  V30 5065 O 39.5098 -8.53963 -1.90717 0
M  V30 5066 C 39.0198 -6.4116 -2.90739 0
M  V30 5067 C 39.7298 -5.55375 -1.86963 0
M  V30 5068 N 39.6798 -4.09664 -2.15742 0
M  V30 5069 H 42.5188 -7.45574 -4.45629 0
M  V30 5070 H 42.7908 -5.86232 -3.67314 0
M  V30 5071 H 41.9228 -7.84412 -2.24479 0
M  V30 5072 P 37.9598 -8.7635 -1.60911 0
M  V30 5073 O 37.7398 -10.1388 -1.11561 0
M  V30 5074 O 37.1698 -8.36503 -2.79617 0
M  V30 5075 O 37.7098 -7.71806 -0.42951 0
M  V30 5076 C 38.6498 -7.66948 0.673514 0
M  V30 5077 C 37.9198 -7.33374 1.95559 0
M  V30 5078 O 37.7098 -5.88721 2.00726 0
M  V30 5079 C 36.5198 -7.92218 2.1125 0
M  V30 5080 O 36.1298 -8.02971 3.47653 0
M  V30 5081 C 35.6398 -6.89504 1.41631 0
M  V30 5082 C 36.3498 -5.59106 1.75155 0
M  V30 5083 N 36.2998 -4.58136 0.662409 0
M  V30 5084 C 36.1498 -3.26059 1.02863 0
M  V30 5085 O 36.0598 -2.90743 2.19009 0
M  V30 5086 N 36.1098 -2.35995 -0.0155585 0
M  V30 5087 C 36.1998 -2.65248 -1.35603 0
M  V30 5088 O 36.1498 -1.75605 -2.20651 0
M  V30 5089 C 36.3498 -4.05747 -1.64698 0
M  V30 5090 C 36.4598 -4.42345 -3.09553 0
M  V30 5091 C 36.3998 -4.96734 -0.652411 0
M  V30 5092 H 39.1408 -8.64917 0.776982 0
M  V30 5093 H 39.4098 -6.89974 0.474015 0
M  V30 5094 H 38.5428 -7.66548 2.79458 0
M  V30 5095 H 35.8878 -5.16076 2.65138 0
M  V30 5096 H 35.6088 -7.06433 0.329384 0
M  V30 5097 H 34.6168 -6.90829 1.81996 0
M  V30 5098 H 36.4508 -8.90774 1.62639 0
M  V30 5099 H 36.5218 -6.02181 -0.895285 0
M  V30 5100 H 35.4918 -4.80252 -3.45468 0
M  V30 5101 H 37.2288 -5.20015 -3.22119 0
M  V30 5102 H 36.7408 -3.53269 -3.67833 0
M  V30 5103 H 36.0048 -1.39558 0.227499 0
M  V30 5104 P 34.5798 -8.03563 3.84925 0
M  V30 5105 O 34.3598 -8.85821 5.0569 0
M  V30 5106 O 33.7898 -8.41101 2.65469 0
M  V30 5107 O 34.3298 -6.4965 4.18908 0
M  V30 5108 C 35.2698 -5.81037 5.05421 0
M  V30 5109 C 34.5398 -4.78366 5.89277 0
M  V30 5110 O 34.3298 -3.58302 5.08433 0
M  V30 5111 C 33.1398 -5.17448 6.36119 0
M  V30 5112 O 32.7498 -4.45271 7.53232 0
M  V30 5113 C 32.2598 -4.74639 5.19936 0
M  V30 5114 C 32.9698 -3.49432 4.70418 0
M  V30 5115 N 32.9198 -3.31776 3.22945 0
M  V30 5116 H 35.7588 -6.54213 5.71376 0
M  V30 5117 H 36.0308 -5.30492 4.44033 0
M  V30 5118 H 35.1628 -4.55889 6.76652 0
M  V30 5119 P 31.1998 -4.23843 7.83734 0
M  V30 5120 O 30.9798 -4.19407 9.29784 0
M  V30 5121 O 30.4098 -5.24426 7.09156 0
M  V30 5122 O 30.9498 -2.7935 7.20758 0
M  V30 5123 C 31.8898 -1.7299 7.50419 0
M  V30 5124 C 31.1598 -0.406376 7.57911 0
M  V30 5125 O 30.9498 0.0897726 6.21935 0
M  V30 5126 C 29.7598 -0.447224 8.1878 0
M  V30 5127 O 29.3698 0.825065 8.71101 0
M  V30 5128 C 28.8798 -0.783801 6.99623 0
M  V30 5129 C 29.5898 -0.0619192 5.85967 0
M  V30 5130 N 29.5398 -0.7859 4.56281 0
M  V30 5131 H 32.3788 -1.93423 8.4679 0
M  V30 5132 H 32.6508 -1.68181 6.71046 0
M  V30 5133 H 31.7828 0.289041 8.15388 0
M  V30 5134 P 27.8199 1.17771 8.83182 0
M  V30 5135 O 27.5999 2.07206 9.98732 0
M  V30 5136 O 27.0299 -0.0743816 8.81969 0
M  V30 5137 O 27.5699 1.97652 7.47304 0
M  V30 5138 C 28.5099 3.01133 7.08783 0
M  V30 5139 C 27.7799 4.12613 6.37049 0
M  V30 5140 O 27.5699 3.72827 4.97879 0
M  V30 5141 C 26.3799 4.45085 6.88694 0
M  V30 5142 O 25.9899 5.7877 6.5624 0
M  V30 5143 C 25.4999 3.47817 6.12078 0
M  V30 5144 C 26.2099 3.39414 4.77697 0
M  V30 5145 N 26.1599 2.04615 4.15333 0
M  V30 5146 H 28.9989 3.41248 7.98759 0
M  V30 5147 H 29.2709 2.5837 6.41742 0
M  V30 5148 H 28.4029 5.02657 6.42673 0
M  V30 5149 P 24.4399 6.144 6.45285 0
M  V30 5150 O 24.2199 7.54673 6.86199 0
M  V30 5151 O 23.6499 5.12391 7.179 0
M  V30 5152 O 24.1899 5.99158 4.88404 0
M  V30 5153 C 25.1299 6.60234 3.96415 0
M  V30 5154 C 24.3999 7.08259 2.72856 0
M  V30 5155 O 24.1899 5.9427 1.83651 0
M  V30 5156 C 22.9999 7.64886 2.9555 0
M  V30 5157 O 22.6099 8.53963 1.90717 0
M  V30 5158 C 22.1199 6.4116 2.90739 0
M  V30 5159 C 22.8299 5.55375 1.86963 0
M  V30 5160 N 22.7799 4.09448 2.16152 0
M  V30 5161 H 25.6189 7.45574 4.45629 0
M  V30 5162 H 25.8909 5.85864 3.679 0
M  V30 5163 H 25.0229 7.84412 2.24479 0
M  V30 5164 H 22.3679 5.73457 0.888562 0
M  V30 5165 H 22.0879 5.90877 3.88583 0
M  V30 5166 H 21.0969 6.6596 2.58858 0
M  V30 5167 H 22.9309 8.16339 3.92049 0
M  V30 5168 P 21.0599 8.7635 1.60911 0
M  V30 5169 O 20.8399 10.1388 1.11561 0
M  V30 5170 O 20.2699 8.36503 2.79617 0
M  V30 5171 O 20.8099 7.71806 0.42951 0
M  V30 5172 C 21.7499 7.67148 -0.673689 0
M  V30 5173 C 21.0199 7.33374 -1.95559 0
M  V30 5174 O 20.8099 5.88721 -2.00726 0
M  V30 5175 C 19.6199 7.92526 -2.10483 0
M  V30 5176 O 19.2299 8.02971 -3.47653 0
M  V30 5177 C 18.7399 6.89602 -1.41652 0
M  V30 5178 C 19.4499 5.59201 -1.75185 0
M  V30 5179 N 19.3999 4.58235 -0.662552 0
M  V30 5180 H 22.2389 8.65116 -0.777161 0
M  V30 5181 H 22.5109 6.90173 -0.474152 0
M  V30 5182 H 21.6429 7.66548 -2.79458 0
M  V30 5183 P 17.6799 8.03563 -3.84925 0
M  V30 5184 O 17.4599 8.85821 -5.0569 0
M  V30 5185 O 16.8899 8.41101 -2.65469 0
M  V30 5186 O 17.4299 6.4965 -4.18908 0
M  V30 5187 C 18.3699 5.81037 -5.05421 0
M  V30 5188 C 17.6399 4.78366 -5.89277 0
M  V30 5189 O 17.4299 3.58302 -5.08433 0
M  V30 5190 C 16.2399 5.17448 -6.36119 0
M  V30 5191 O 15.8499 4.45271 -7.53232 0
M  V30 5192 C 15.3599 4.74639 -5.19936 0
M  V30 5193 C 16.0699 3.49432 -4.70418 0
M  V30 5194 N 16.0199 3.32099 -3.22613 0
M  V30 5195 H 18.8589 6.54213 -5.71376 0
M  V30 5196 H 19.1309 5.30936 -4.43503 0
M  V30 5197 H 18.2629 4.55889 -6.76652 0
M  V30 5198 H 15.6079 2.61715 -5.17932 0
M  V30 5199 H 15.3279 5.52155 -4.41878 0
M  V30 5200 H 14.3369 4.51981 -5.53374 0
M  V30 5201 H 16.1709 6.25124 -6.55234 0
M  V30 5202 P 14.2999 4.23843 -7.83734 0
M  V30 5203 O 14.0799 4.19407 -9.29784 0
M  V30 5204 O 13.5099 5.24426 -7.09156 0
M  V30 5205 O 14.0499 2.7935 -7.20758 0
M  V30 5206 C 14.9899 1.72945 -7.50224 0
M  V30 5207 C 14.2599 0.406376 -7.57911 0
M  V30 5208 O 14.0499 -0.0897726 -6.21935 0
M  V30 5209 C 12.8599 0.438983 -8.18724 0
M  V30 5210 O 12.4699 -0.825065 -8.71101 0
M  V30 5211 C 11.9799 0.783689 -6.99524 0
M  V30 5212 C 12.6899 0.0619086 -5.85867 0
M  V30 5213 N 12.6399 0.78573 -4.56183 0
M  V30 5214 C 12.4899 0.0292889 -3.41887 0
M  V30 5215 O 12.3999 -1.18445 -3.4419 0
M  V30 5216 N 12.4499 0.744061 -2.23964 0
M  V30 5217 C 12.5399 2.10932 -2.10362 0
M  V30 5218 C 12.6899 2.8202 -3.34994 0
M  V30 5219 C 12.7399 2.15547 -4.52261 0
M  V30 5220 H 15.4809 1.93379 -8.46595 0
M  V30 5221 H 15.7499 1.68132 -6.70852 0
M  V30 5222 H 14.8829 -0.289041 -8.15388 0
M  V30 5223 H 12.2279 -0.926847 -5.72749 0
M  V30 5224 H 11.9489 1.86973 -6.82036 0
M  V30 5225 H 10.9569 0.403896 -7.13257 0
M  V30 5226 H 12.7909 1.20585 -8.97435 0
M  V30 5227 H 12.8619 2.71231 -5.45042 0
M  V30 5228 P 10.92 -1.17771 -8.83182 0
M  V30 5229 O 10.7 -2.07206 -9.98732 0
M  V30 5230 O 10.13 0.0743816 -8.81969 0
M  V30 5231 O 10.67 -1.97652 -7.47304 0
M  V30 5232 C 11.61 -3.01133 -7.08783 0
M  V30 5233 C 10.88 -4.12613 -6.37049 0
M  V30 5234 O 10.67 -3.72827 -4.97879 0
M  V30 5235 C 9.47996 -4.45085 -6.88694 0
M  V30 5236 O 9.08996 -5.7877 -6.5624 0
M  V30 5237 C 8.59996 -3.47817 -6.12078 0
M  V30 5238 C 9.30996 -3.39414 -4.77697 0
M  V30 5239 N 9.25996 -2.04615 -4.15333 0
M  V30 5240 H 12.099 -3.41248 -7.98759 0
M  V30 5241 H 12.371 -2.5837 -6.41742 0
M  V30 5242 H 11.503 -5.02657 -6.42673 0
M  V30 5243 P 7.53998 -6.144 -6.45285 0
M  V30 5244 O 7.31998 -7.54673 -6.86199 0
M  V30 5245 O 6.74998 -5.12391 -7.179 0
M  V30 5246 O 7.28998 -5.99236 -4.88467 0
M  V30 5247 C 8.22998 -6.60234 -3.96415 0
M  V30 5248 C 7.49998 -7.08079 -2.736 0
M  V30 5249 O 7.28998 -5.94365 -1.8368 0
M  V30 5250 C 6.09998 -7.64886 -2.9555 0
M  V30 5251 O 5.70998 -8.5406 -1.90739 0
M  V30 5252 C 5.21998 -6.4116 -2.90739 0
M  V30 5253 C 5.92998 -5.55375 -1.86963 0
M  V30 5254 N 5.87998 -4.09664 -2.15742 0
M  V30 5255 C 5.72998 -3.22231 -1.08477 0
M  V30 5256 O 5.63998 -3.68951 0.0600489 0
M  V30 5257 N 5.67998 -1.76692 -1.48799 0
M  V30 5258 C 5.77998 -1.41695 -2.57602 0
M  V30 5259 N 5.72998 -0.107296 -2.75791 0
M  V30 5260 C 5.92998 -2.29178 -3.69733 0
M  V30 5261 C 5.97998 -3.62753 -3.42653 0
M  V30 5262 H 8.71998 -7.45488 -4.45578 0
M  V30 5263 H 8.98998 -5.86232 -3.67314 0
M  V30 5264 H 8.12298 -7.84508 -2.24507 0
M  V30 5265 H 5.46798 -5.73556 -0.888715 0
M  V30 5266 H 5.18798 -5.9096 -3.88638 0
M  V30 5267 H 4.19698 -6.66053 -2.58894 0
M  V30 5268 H 6.03098 -8.16339 -3.92049 0
M  V30 5269 H 6.10298 -4.33052 -4.24913 0
M  V30 5270 H 6.00098 -1.9103 -4.71577 0
M  V30 5271 H 5.61298 0.521221 -1.95056 0
M  V30 5272 H 5.80898 0.286429 -3.70695 0
M  V30 5273 P 4.16 -8.7635 -1.60911 0
M  V30 5274 O 3.94 -10.1388 -1.11561 0
M  V30 5275 O 3.37 -8.36503 -2.79617 0
M  V30 5276 O 3.91 -7.71806 -0.42951 0
M  V30 5277 C 4.85 -7.67148 0.673689 0
M  V30 5278 C 4.12 -7.33374 1.95559 0
M  V30 5279 O 3.91 -5.88721 2.00726 0
M  V30 5280 C 2.72 -7.92526 2.10483 0
M  V30 5281 O 2.33 -8.02971 3.47653 0
M  V30 5282 C 1.84 -6.89602 1.41652 0
M  V30 5283 C 2.55 -5.59201 1.75185 0
M  V30 5284 N 2.5 -4.58235 0.662552 0
M  V30 5285 H 5.339 -8.65116 0.777161 0
M  V30 5286 H 5.611 -6.90173 0.474152 0
M  V30 5287 H 4.743 -7.66548 2.79458 0
M  V30 5288 H 1.613 -8.66322 3.55694 0
M  V30 END ATOM
M  V30 BEGIN BOND
M  V30 END BOND
M  V30 END CTAB
M  END
$$$$
