drugbank_target|P48448 Aldehyde dehydrogenase family 3 member B2 (DB00157; DB09116)
 OpenBabel12092119263D

  0  0  0     0  0            999 V3000
M  V30 BEGIN CTAB
M  V30 COUNTS 5975 6049 0 0 0
M  V30 BEGIN ATOM
M  V30 1 H -0.908 1.98254 -0.117106 0
M  V30 2 N 0 1.576 0 0
M  V30 3 C 0.933 2.03868 1.02534 0
M  V30 4 C 1.911 0.928543 1.3348 0
M  V30 5 O 3.095 1.19667 1.45644 0
M  V30 6 C 0.222 2.43627 2.35294 0
M  V30 7 C -0.732 3.65373 2.2001 0
M  V30 8 S 0.101 5.13292 1.52614 0
M  V30 9 C 1.257 5.56322 2.86805 0
M  V30 10 H 1.49 2.90518 0.631377 0
M  V30 11 H -0.977 1.52953 0.210867 0
M  V30 12 H 0.981 2.67203 3.11629 0
M  V30 13 H -0.358 1.57376 2.7183 0
M  V30 14 H -1.165 3.90944 3.18086 0
M  V30 15 H -1.563 3.418 1.51819 0
M  V30 16 H 0.729 5.58782 3.83104 0
M  V30 17 H 1.672 6.56266 2.65933 0
M  V30 18 H 2.08 4.83886 2.90714 0
M  V30 19 N 1.4781 -0.272755 1.55222 0
M  V30 20 C 2.4251 -1.33716 1.88119 0
M  V30 21 C 3.3951 -1.49066 0.73271 0
M  V30 22 O 4.5801 -1.63469 0.984002 0
M  V30 23 C 1.7201 -2.69238 2.15882 0
M  V30 24 C 0.8331 -2.62108 3.43399 0
M  V30 25 C -0.0319 -3.89811 3.60861 0
M  V30 26 C -0.9929 -3.77193 4.8207 0
M  V30 27 N -1.8559 -4.9673 4.96189 0
M  V30 28 H 2.9841 -1.04962 2.78903 0
M  V30 29 H 0.5211 -0.507088 1.38083 0
M  V30 30 H 2.4791 -3.48089 2.29978 0
M  V30 31 H 1.1091 -2.96194 1.28331 0
M  V30 32 H 0.1611 -1.74967 3.37773 0
M  V30 33 H 1.4731 -2.48685 4.32386 0
M  V30 34 H 0.6271 -4.77103 3.74777 0
M  V30 35 H -0.6339 -4.06102 2.7006 0
M  V30 36 H -1.6289 -2.88284 4.68159 0
M  V30 37 H -0.4039 -3.62421 5.74307 0
M  V30 38 H -2.4579 -5.13431 4.08319 0
M  V30 39 H -2.5409 -4.85839 5.79221 0
M  V30 40 H -1.2729 -5.85594 5.1449 0
M  V30 41 N 2.9562 -1.48159 -0.537278 0
M  V30 42 C 4.2332 -1.46291 -1.29839 0
M  V30 43 C 4.6132 -0.170613 -2.10409 0
M  V30 44 O 3.9612 0.847746 -2.12192 0
M  V30 45 C 4.1712 -2.72055 -2.18603 0
M  V30 46 C 5.5192 -3.20087 -2.7898 0
M  V30 47 O 6.5432 -2.72921 -2.28894 0
M  V30 48 O 5.4022 -4.02138 -3.70064 0
M  V30 49 H 2.4962 -0.583906 -0.585647 0
M  V30 50 H 5.0422 -1.60384 -0.554534 0
M  V30 51 H 3.8142 -3.57628 -1.58801 0
M  V30 52 H 3.4372 -2.60646 -3.00249 0
M  V30 53 N 4.4343 0.785586 -1.36625 0
M  V30 54 C 5.3443 1.92964 -1.33425 0
M  V30 55 C 6.3603 1.72394 -0.235851 0
M  V30 56 O 7.5363 1.95866 -0.468878 0
M  V30 57 C 4.6013 3.27884 -1.12662 0
M  V30 58 C 3.6623 3.61204 -2.32013 0
M  V30 59 C 2.8953 4.89687 -2.12231 0
M  V30 60 O 3.1183 5.59704 -1.09945 0
M  V30 61 O 2.0523 5.21752 -3.00098 0
M  V30 62 H 5.8783 1.98613 -2.29753 0
M  V30 63 H 3.4633 0.926384 -1.17211 0
M  V30 64 H 5.3453 4.08614 -1.03016 0
M  V30 65 H 4.0203 3.23118 -0.193991 0
M  V30 66 H 2.9273 2.80765 -2.47228 0
M  V30 67 H 4.2603 3.70698 -3.23796 0
M  V30 68 N 5.9124 1.20967 1.01018 0
M  V30 69 C 7.3234 1.02319 1.56165 0
M  V30 70 C 7.6744 -0.418546 1.91684 0
M  V30 71 O 6.7994 -1.30096 1.72928 0
M  V30 72 C 7.3944 1.85109 2.8376 0
M  V30 73 C 5.9534 1.70809 3.35412 0
M  V30 74 C 5.1004 1.82643 2.08655 0
M  V30 75 H 8.0514 1.35065 0.833255 0
M  V30 76 H 8.0724 1.35827 3.55431 0
M  V30 77 H 7.5844 2.90035 2.57878 0
M  V30 78 H 5.6854 0.685464 3.66241 0
M  V30 79 H 5.7984 2.52467 4.07182 0
M  V30 80 H 4.1624 1.25896 2.21409 0
M  V30 81 H 4.9454 2.89066 1.85191 0
M  V30 82 N 7.3905 -1.2043 1.01659 0
M  V30 83 C 8.8065 -1.41852 0.731442 0
M  V30 84 C 9.0065 -1.89358 -0.688898 0
M  V30 85 O 8.0625 -2.06247 -1.45666 0
M  V30 86 C 9.3755 -2.44019 1.75714 0
M  V30 87 C 10.9235 -2.57785 1.77527 0
M  V30 88 C 11.3985 -3.63194 2.79023 0
M  V30 89 N 12.8895 -3.70678 2.77763 0
M  V30 90 C 13.6245 -4.51897 3.52954 0
M  V30 91 N 13.1205 -5.36921 4.37821 0
M  V30 92 N 14.9135 -4.4643 3.41551 0
M  V30 93 H 7.0645 -0.879093 1.93354 0
M  V30 94 H 9.3275 -0.448425 0.835236 0
M  V30 95 H 9.0335 -2.1611 2.77469 0
M  V30 96 H 8.9075 -3.43007 1.56927 0
M  V30 97 H 11.2945 -2.85023 0.764569 0
M  V30 98 H 11.3755 -1.58992 2.00387 0
M  V30 99 H 11.0195 -3.36699 3.80258 0
M  V30 100 H 10.9495 -4.61609 2.53425 0
M  V30 101 H 13.4405 -3.09944 2.16201 0
M  V30 102 H 13.7535 -5.95981 4.91962 0
M  V30 103 H 12.0985 -5.36424 4.41899 0
M  V30 104 H 15.2895 -3.79042 2.74672 0
M  V30 105 H 15.4625 -5.09491 4.00404 0
M  V30 106 N 8.8686 -0.792821 -1.36206 0
M  V30 107 C 10.0936 -0.377701 -2.03932 0
M  V30 108 C 10.5186 0.998947 -1.59382 0
M  V30 109 O 9.8766 1.64421 -0.763903 0
M  V30 110 C 9.9246 -0.453635 -3.57735 0
M  V30 111 O 9.0286 0.538151 -4.08874 0
M  V30 112 H 8.3696 -0.159855 -0.644471 0
M  V30 113 H 10.8996 -1.07488 -1.7409 0
M  V30 114 H 10.9096 -0.318464 -4.06755 0
M  V30 115 H 9.5846 -1.45784 -3.89512 0
M  V30 116 H 8.1616 0.364359 -3.71116 0
M  V30 117 N 10.3467 1.47872 -0.545128 0
M  V30 118 C 11.5747 2.06889 -0.021084 0
M  V30 119 C 11.9897 1.39955 1.2672 0
M  V30 120 O 11.3467 0.492036 1.75742 0
M  V30 121 C 11.3977 3.60996 0.190817 0
M  V30 122 O 11.1187 4.25419 -1.04644 0
M  V30 123 C 12.6197 4.36849 0.753521 0
M  V30 124 H 9.8397 0.669785 -0.0403635 0
M  V30 125 H 12.3837 1.90049 -0.755095 0
M  V30 126 H 10.5387 3.77391 0.87492 0
M  V30 127 H 10.9527 5.17785 -0.836611 0
M  V30 128 H 12.4267 5.45399 0.851139 0
M  V30 129 H 12.9037 4.02306 1.762 0
M  V30 130 H 13.5097 4.25169 0.105503 0
M  V30 131 N 11.8248 0.280983 1.55075 0
M  V30 132 C 12.7728 -0.619864 2.24188 0
M  V30 133 C 13.7668 -1.15315 1.24092 0
M  V30 134 O 14.9728 -1.1061 1.42005 0
M  V30 135 H 11.3478 -0.218459 0.719569 0
M  V30 136 H 13.3188 -0.0141831 2.98397 0
M  V30 137 C 12.0678 -1.7899 2.98091 0
M  V30 138 H 11.3908 -1.38874 3.74905 0
M  V30 139 H 12.8308 -2.39672 3.49762 0
M  V30 140 C 11.2898 -2.68192 2.03899 0
M  V30 141 O 11.8198 -3.6872 1.594 0
M  V30 142 N 10.0258 -2.35488 1.70275 0
M  V30 143 H 9.5728 -1.53787 2.06658 0
M  V30 144 H 9.5308 -2.95442 1.07524 0
M  V30 145 N 13.3029 -1.57598 0.00835791 0
M  V30 146 C 14.2329 -2.1198 -0.979113 0
M  V30 147 C 15.2139 -1.03091 -1.35301 0
M  V30 148 O 16.3989 -1.30818 -1.43528 0
M  V30 149 C 13.5289 -2.62995 -2.26828 0
M  V30 150 C 12.4829 -3.76485 -2.03576 0
M  V30 151 C 11.8089 -4.13846 -3.38579 0
M  V30 152 C 13.1089 -5.0342 -1.39161 0
M  V30 153 H 14.8029 -2.94738 -0.526281 0
M  V30 154 H 12.3489 -1.41783 -0.251704 0
M  V30 155 H 14.3019 -2.99669 -2.96271 0
M  V30 156 H 13.0259 -1.7737 -2.7424 0
M  V30 157 H 11.6849 -3.40217 -1.36557 0
M  V30 158 H 11.3329 -3.25232 -3.83709 0
M  V30 159 H 11.0329 -4.90312 -3.23834 0
M  V30 160 H 12.5569 -4.53086 -4.09323 0
M  V30 161 H 13.9709 -5.37812 -1.98573 0
M  V30 162 H 12.3679 -5.84746 -1.34878 0
M  V30 163 H 13.4379 -4.83548 -0.361868 0
M  V30 164 N 14.781 0.264519 -1.55364 0
M  V30 165 C 16.028 0.994986 -1.7637 0
M  V30 166 C 16.356 1.85976 -0.5695 0
M  V30 167 O 15.611 1.90509 0.44776 0
M  V30 168 C 15.91 1.9004 -3.02687 0
M  V30 169 C 15.576 1.19243 -4.34847 0
M  V30 170 C 14.238 0.996709 -4.70764 0
M  V30 171 C 16.59 0.689296 -5.16622 0
M  V30 172 C 13.918 0.285261 -5.86006 0
M  V30 173 C 16.27 -0.00860079 -6.32599 0
M  V30 174 C 14.934 -0.215963 -6.67151 0
M  V30 175 H 14.204 0.364091 -0.645383 0
M  V30 176 H 16.851 0.266543 -1.89636 0
M  V30 177 H 15.156 2.69533 -2.84357 0
M  V30 178 H 16.853 2.46695 -3.16137 0
M  V30 179 H 13.443 1.3549 -4.06621 0
M  V30 180 H 17.627 0.828108 -4.89342 0
M  V30 181 H 12.883 0.113961 -6.11294 0
M  V30 182 H 17.057 -0.406186 -6.95214 0
M  V30 183 H 14.684 -0.769217 -7.56298 0
M  V30 184 N 16.2591 1.48442 0.529413 0
M  V30 185 C 17.1921 1.57577 1.65059 0
M  V30 186 C 18.1701 0.426198 1.56915 0
M  V30 187 O 19.3541 0.637877 1.77379 0
M  V30 188 C 16.4811 1.5043 3.03461 0
M  V30 189 C 15.5271 2.70235 3.29962 0
M  V30 190 S 16.3601 4.32198 3.16172 0
M  V30 191 C 17.5161 4.2765 4.57019 0
M  V30 192 H 17.7491 2.52427 1.5706 0
M  V30 193 H 15.2821 1.36982 0.712417 0
M  V30 194 H 17.2401 1.46992 3.8328 0
M  V30 195 H 15.9011 0.569167 3.089 0
M  V30 196 H 15.0941 2.61374 4.30929 0
M  V30 197 H 14.6961 2.70938 2.57815 0
M  V30 198 H 16.9881 3.97618 5.48549 0
M  V30 199 H 17.9311 5.28797 4.70934 0
M  V30 200 H 18.3391 3.5811 4.36368 0
M  V30 201 N 17.7372 -0.778329 1.37039 0
M  V30 202 C 18.6842 -1.89139 1.32269 0
M  V30 203 C 19.6542 -1.65017 0.189387 0
M  V30 204 O 20.8392 -1.87024 0.377693 0
M  V30 205 C 17.9792 -3.26112 1.12894 0
M  V30 206 C 17.0922 -3.62233 2.35396 0
M  V30 207 C 16.2272 -4.8838 2.08946 0
M  V30 208 C 15.2662 -5.17212 3.2735 0
M  V30 209 N 14.4032 -6.34546 3.00492 0
M  V30 210 H 19.2432 -1.92552 2.27437 0
M  V30 211 H 16.7802 -0.941473 1.13025 0
M  V30 212 H 18.7382 -4.05116 0.996835 0
M  V30 213 H 17.3682 -3.22091 0.213758 0
M  V30 214 H 16.4202 -2.78265 2.5937 0
M  V30 215 H 17.7322 -3.79481 3.23721 0
M  V30 216 H 16.8862 -5.75274 1.92729 0
M  V30 217 H 15.6252 -4.73222 1.17949 0
M  V30 218 H 14.6302 -4.28796 3.44113 0
M  V30 219 H 15.8552 -5.34283 4.19188 0
M  V30 220 H 13.8012 -6.20759 2.12118 0
M  V30 221 H 13.7182 -6.52179 3.82358 0
M  V30 222 H 14.9862 -7.24394 2.87879 0
M  V30 223 N 19.2153 -1.21501 -1.00376 0
M  V30 224 C 20.1453 -0.999478 -2.11028 0
M  V30 225 C 21.1263 0.0759671 -1.6993 0
M  V30 226 O 22.3113 -0.0841106 -1.94018 0
M  V30 227 C 19.4413 -0.564709 -3.42678 0
M  V30 228 C 18.3953 -1.58486 -3.97576 0
M  V30 229 C 17.7213 -1.00628 -5.25146 0
M  V30 230 C 19.0213 -2.97204 -4.29496 0
M  V30 231 H 20.7153 -1.92495 -2.29317 0
M  V30 232 H 18.2613 -0.92693 -1.102 0
M  V30 233 H 20.2143 -0.401091 -4.19487 0
M  V30 234 H 18.9383 0.396411 -3.24185 0
M  V30 235 H 17.5973 -1.73606 -3.22888 0
M  V30 236 H 17.2453 -0.0368439 -5.02987 0
M  V30 237 H 16.9453 -1.68771 -5.62841 0
M  V30 238 H 18.4693 -0.854015 -6.04598 0
M  V30 239 H 19.8833 -2.8552 -4.97143 0
M  V30 240 H 18.2803 -3.62372 -4.78338 0
M  V30 241 H 19.3503 -3.47956 -3.3772 0
M  V30 242 N 20.6934 1.19889 -1.02296 0
M  V30 243 C 21.9704 1.85148 -0.630832 0
M  V30 244 C 22.3504 1.91385 0.890782 0
M  V30 245 O 21.6984 1.42642 1.78509 0
M  V30 246 C 21.9084 3.24442 -1.28602 0
M  V30 247 C 23.2564 4.00663 -1.4055 0
M  V30 248 O 24.2804 3.33818 -1.24273 0
M  V30 249 O 23.1394 5.20387 -1.66913 0
M  V30 250 H 20.2334 0.797613 -0.218499 0
M  V30 251 H 22.7794 1.27427 -1.12074 0
M  V30 252 H 21.5514 3.14704 -2.32545 0
M  V30 253 H 21.1744 3.89802 -0.7836 0
M  V30 254 N 22.1715 0.800033 1.35784 0
M  V30 255 C 23.3965 0.388511 2.03729 0
M  V30 256 C 23.8215 -0.990481 1.5991 0
M  V30 257 O 23.1795 -1.64013 0.772612 0
M  V30 258 C 23.2275 0.4726 3.5749 0
M  V30 259 O 22.3315 -0.51646 4.09153 0
M  V30 260 H 21.6725 0.163271 0.643614 0
M  V30 261 H 24.2025 1.0841 1.73518 0
M  V30 262 H 24.2125 0.34003 4.06581 0
M  V30 263 H 22.8875 1.47848 3.88734 0
M  V30 264 H 21.4645 -0.344673 3.71304 0
M  V30 265 N 23.6496 -1.47581 0.552962 0
M  V30 266 C 24.8956 -2.02782 0.0273648 0
M  V30 267 C 25.2286 -1.42687 -1.31734 0
M  V30 268 O 24.5036 -0.580897 -1.85623 0
M  V30 269 C 24.7866 -3.60031 -0.0702371 0
M  V30 270 C 24.6396 -4.30566 1.30126 0
M  V30 271 C 25.9586 -4.33028 -0.785771 0
M  V30 272 H 23.0776 -0.736912 0.0114185 0
M  V30 273 H 25.7196 -1.76056 0.714432 0
M  V30 274 H 23.8696 -3.82932 -0.655382 0
M  V30 275 H 25.5416 -4.19018 1.92929 0
M  V30 276 H 23.7846 -3.91086 1.87709 0
M  V30 277 H 24.4556 -5.39114 1.18573 0
M  V30 278 H 26.9316 -4.15095 -0.288982 0
M  V30 279 H 25.8076 -5.42695 -0.823013 0
M  V30 280 H 26.0686 -4.01945 -1.841 0
M  V30 281 N 25.1277 -0.289203 -1.54924 0
M  V30 282 C 26.3747 0.323519 -1.99899 0
M  V30 283 C 26.7027 1.54797 -1.17762 0
M  V30 284 O 25.9577 1.94237 -0.238835 0
M  V30 285 C 26.2567 0.736119 -3.49737 0
M  V30 286 C 25.9227 -0.385276 -4.49251 0
M  V30 287 C 24.5847 -0.693156 -4.76181 0
M  V30 288 C 26.9367 -1.14021 -5.08575 0
M  V30 289 C 24.2647 -1.7593 -5.59701 0
M  V30 290 C 26.6167 -2.19619 -5.93254 0
M  V30 291 C 25.2807 -2.51026 -6.185 0
M  V30 292 H 24.5507 0.118384 -0.731482 0
M  V30 293 H 27.1977 -0.405847 -1.8715 0
M  V30 294 H 25.5027 1.54539 -3.60035 0
M  V30 295 H 27.1997 1.22118 -3.81953 0
M  V30 296 H 23.7897 -0.135202 -4.28387 0
M  V30 297 H 27.9737 -0.915611 -4.87781 0
M  V30 298 H 23.2297 -2.0075 -5.77503 0
M  V30 299 H 27.4037 -2.78581 -6.38252 0
M  V30 300 H 25.0307 -3.33772 -6.83008 0
M  V30 301 N 26.6058 1.57591 -0.0167156 0
M  V30 302 C 27.8548 1.90461 0.663877 0
M  V30 303 C 28.1678 0.893515 1.73999 0
M  V30 304 O 29.3738 1.11302 2.47637 0
M  V30 305 C 27.8298 3.38155 1.23204 0
M  V30 306 C 27.4378 4.47597 0.189866 0
M  V30 307 C 29.1818 3.80111 1.88986 0
M  V30 308 C 27.0888 5.86379 0.768964 0
M  V30 309 H 26.0188 0.710738 0.251729 0
M  V30 310 H 28.6698 1.83326 -0.0799926 0
M  V30 311 H 27.0518 3.40182 2.02712 0
M  V30 312 H 28.2258 4.57112 -0.581846 0
M  V30 313 H 26.5408 4.14766 -0.368475 0
M  V30 314 H 29.1378 4.81145 2.33247 0
M  V30 315 H 29.4808 3.14511 2.72743 0
M  V30 316 H 30.0138 3.80454 1.16187 0
M  V30 317 H 26.7528 6.55493 -0.0301957 0
M  V30 318 H 26.2728 5.80496 1.50945 0
M  V30 319 H 27.9518 6.34563 1.26251 0
M  V30 320 N 28.0839 -0.256276 1.55502 0
M  V30 321 C 29.3299 -0.982884 1.78076 0
M  V30 322 C 29.6849 -1.83319 0.584109 0
M  V30 323 O 28.9779 -1.86875 -0.422877 0
M  V30 324 C 29.1719 -1.88432 3.03691 0
M  V30 325 C 29.0009 -1.12276 4.35459 0
M  V30 326 C 27.7709 -0.831647 4.98409 0
M  V30 327 C 29.9689 -0.504933 5.11815 0
M  V30 328 N 27.9509 -0.0450423 6.13883 0
M  V30 329 C 29.3219 0.146696 6.19826 0
M  V30 330 C 31.3769 -0.414455 4.96172 0
M  V30 331 C 30.0799 0.880103 7.13895 0
M  V30 332 C 32.1059 0.305398 5.90611 0
M  V30 333 C 31.4679 0.945701 6.98023 0
M  V30 334 H 27.5669 -0.341084 0.703694 0
M  V30 335 H 30.1509 -0.256909 1.92998 0
M  V30 336 H 28.3219 -2.58241 2.90114 0
M  V30 337 H 30.0539 -2.54579 3.14598 0
M  V30 338 H 26.8089 -1.14111 4.59647 0
M  V30 339 H 27.2329 0.336079 6.76165 0
M  V30 340 H 31.8749 -0.895163 4.13215 0
M  V30 341 H 29.5929 1.37244 7.9636 0
M  V30 342 H 33.1789 0.375946 5.80584 0
M  V30 343 H 32.0589 1.49383 7.6984 0
M  V30 344 N 29.562 -1.4872 -0.521534 0
M  V30 345 C 30.509 -1.63871 -1.62527 0
M  V30 346 C 31.479 -0.480559 -1.58996 0
M  V30 347 O 32.664 -0.705085 -1.77294 0
M  V30 348 C 29.804 -1.69227 -3.00759 0
M  V30 349 C 28.917 -2.96207 -3.14461 0
M  V30 350 C 28.052 -2.92671 -4.43303 0
M  V30 351 C 27.091 -4.14318 -4.50563 0
M  V30 352 N 26.228 -4.0881 -5.70805 0
M  V30 353 H 31.068 -2.58123 -1.48918 0
M  V30 354 H 28.605 -1.28 -0.724878 0
M  V30 355 H 30.563 -1.70314 -3.80853 0
M  V30 356 H 29.193 -0.784586 -3.1312 0
M  V30 357 H 28.245 -3.04826 -2.27564 0
M  V30 358 H 29.557 -3.86192 -3.15686 0
M  V30 359 H 28.711 -2.92206 -5.31696 0
M  V30 360 H 27.45 -2.00429 -4.44612 0
M  V30 361 H 26.455 -4.15049 -3.60575 0
M  V30 362 H 27.68 -5.07729 -4.50986 0
M  V30 363 H 25.626 -3.19394 -5.72995 0
M  V30 364 H 25.543 -4.92509 -5.7356 0
M  V30 365 H 26.811 -4.12418 -6.61462 0
M  V30 366 N 31.0401 0.771051 -1.3745 0
M  V30 367 C 31.9501 1.91538 -1.35464 0
M  V30 368 C 32.9661 1.72134 -0.254123 0
M  V30 369 O 34.1421 1.95358 -0.489626 0
M  V30 370 C 31.2071 3.26671 -1.16134 0
M  V30 371 C 30.2681 3.58723 -2.35831 0
M  V30 372 C 29.5011 4.87409 -2.17413 0
M  V30 373 O 29.7241 5.58506 -1.15876 0
M  V30 374 O 28.6581 5.18539 -3.05615 0
M  V30 375 H 32.4841 1.96165 -2.31847 0
M  V30 376 H 30.0691 0.9139 -1.18187 0
M  V30 377 H 31.9511 4.07499 -1.07345 0
M  V30 378 H 30.6261 3.22894 -0.228251 0
M  V30 379 H 29.5331 2.78127 -2.50192 0
M  V30 380 H 30.8661 3.67243 -3.27709 0
M  V30 381 N 32.5182 1.22032 0.997298 0
M  V30 382 C 33.9292 1.0397 1.55071 0
M  V30 383 C 34.2802 -0.398192 1.92117 0
M  V30 384 O 33.4052 -1.28254 1.74298 0
M  V30 385 C 34.0002 1.88109 2.81781 0
M  V30 386 C 32.5592 1.74357 3.33581 0
M  V30 387 C 31.7062 1.84846 2.06706 0
M  V30 388 H 34.6572 1.35941 0.818883 0
M  V30 389 H 34.6782 1.39589 3.53971 0
M  V30 390 H 34.1902 2.92754 2.54787 0
M  V30 391 H 32.2912 0.72427 3.65493 0
M  V30 392 H 32.4042 2.56772 4.04481 0
M  V30 393 H 30.7682 1.28238 2.20062 0
M  V30 394 H 31.5512 2.91014 1.82114 0
M  V30 395 N 33.9963 -1.19345 1.0293 0
M  V30 396 C 35.2433 -1.89038 0.726008 0
M  V30 397 C 35.5713 -1.79649 -0.745427 0
M  V30 398 O 34.8263 -1.18354 -1.55855 0
M  V30 399 C 35.1253 -3.39292 1.12319 0
M  V30 400 C 34.7913 -3.68885 2.59297 0
M  V30 401 C 33.4533 -3.76671 2.99453 0
M  V30 402 C 35.8053 -3.82178 3.54386 0
M  V30 403 C 33.1333 -3.9522 4.33611 0
M  V30 404 C 35.4853 -4.0224 4.88248 0
M  V30 405 C 34.1493 -4.08259 5.28092 0
M  V30 406 H 33.4193 -0.691739 0.265665 0
M  V30 407 H 36.0663 -1.41328 1.29223 0
M  V30 408 H 34.3713 -3.88903 0.475584 0
M  V30 409 H 36.0683 -3.91536 0.866037 0
M  V30 410 H 32.6583 -3.63433 2.27189 0
M  V30 411 H 36.8423 -3.75505 3.24514 0
M  V30 412 H 32.0983 -3.98119 4.64016 0
M  V30 413 H 36.2723 -4.11468 5.61843 0
M  V30 414 H 33.8993 -4.22384 6.32057 0
M  V30 415 N 35.4744 -0.807222 -1.35358 0
M  V30 416 C 36.7224 -0.387122 -1.98358 0
M  V30 417 C 37.0434 1.04942 -1.64354 0
M  V30 418 O 36.3134 1.72615 -0.926339 0
M  V30 419 H 34.8934 -0.140154 -0.733734 0
M  V30 420 H 37.5554 -1.0332 -1.6526 0
M  V30 421 H 36.6514 -0.493352 -3.08176 0
M  V30 422 N 36.9525 1.47285 -0.560781 0
M  V30 423 C 37.8825 2.32857 0.173105 0
M  V30 424 C 38.8635 1.44009 0.905281 0
M  V30 425 O 40.0485 1.7286 0.885046 0
M  V30 426 C 37.1785 3.25861 1.20133 0
M  V30 427 C 36.1325 4.23978 0.585388 0
M  V30 428 C 35.4585 5.06332 1.7185 0
M  V30 429 C 36.7585 5.20242 -0.463178 0
M  V30 430 H 38.4525 2.94466 -0.541307 0
M  V30 431 H 35.9985 1.41601 -0.261764 0
M  V30 432 H 37.9515 3.84569 1.72293 0
M  V30 433 H 36.6755 2.62315 1.94573 0
M  V30 434 H 35.3345 3.66501 0.085054 0
M  V30 435 H 34.9825 4.39186 2.45203 0
M  V30 436 H 34.6825 5.72762 1.31213 0
M  V30 437 H 36.2065 5.67899 2.24329 0
M  V30 438 H 37.6205 5.73293 -0.027502 0
M  V30 439 H 36.0175 5.94896 -0.788627 0
M  V30 440 H 37.0875 4.65504 -1.35773 0
M  V30 441 N 38.4306 0.297415 1.54768 0
M  V30 442 C 39.6766 -0.313376 2.00364 0
M  V30 443 C 40.0096 -1.53815 1.18553 0
M  V30 444 O 39.2846 -1.92739 0.261103 0
M  V30 445 C 39.5676 -0.673525 3.53745 0
M  V30 446 C 39.4206 0.560133 4.46299 0
M  V30 447 C 40.7396 -1.50143 4.13697 0
M  V30 448 H 37.8586 -0.112428 0.728374 0
M  V30 449 H 40.5006 0.4088 1.8555 0
M  V30 450 H 38.6506 -1.28881 3.665 0
M  V30 451 H 40.3226 1.19863 4.45455 0
M  V30 452 H 38.5656 1.19405 4.17043 0
M  V30 453 H 39.2366 0.26405 5.51368 0
M  V30 454 H 41.7126 -0.981588 4.04356 0
M  V30 455 H 40.5886 -1.72221 5.21182 0
M  V30 456 H 40.8496 -2.48952 3.65343 0
M  V30 457 N 39.9087 -1.5758 0.0250728 0
M  V30 458 C 40.8387 -2.13007 -0.956575 0
M  V30 459 C 41.8197 -1.0452 -1.342 0
M  V30 460 O 43.0047 -1.32332 -1.42133 0
M  V30 461 C 40.1347 -2.65386 -2.24026 0
M  V30 462 C 39.0887 -3.78623 -1.99571 0
M  V30 463 C 38.4147 -4.17414 -3.3417 0
M  V30 464 C 39.7147 -5.04867 -1.33814 0
M  V30 465 H 41.4087 -2.9528 -0.494991 0
M  V30 466 H 38.9547 -1.42042 -0.236651 0
M  V30 467 H 40.9077 -3.02794 -2.93076 0
M  V30 468 H 39.6317 -1.80268 -2.72343 0
M  V30 469 H 38.2907 -3.41646 -1.32941 0
M  V30 470 H 37.9387 -3.29284 -3.80238 0
M  V30 471 H 37.6387 -4.93719 -3.18615 0
M  V30 472 H 39.1627 -4.57402 -4.04495 0
M  V30 473 H 40.5767 -5.39888 -1.92857 0
M  V30 474 H 38.9737 -5.86144 -1.28669 0
M  V30 475 H 40.0437 -4.83904 -0.310561 0
M  V30 476 N 41.3868 0.248026 -1.55636 0
M  V30 477 C 42.6358 0.974134 -1.76617 0
M  V30 478 C 42.9488 1.86528 -0.588796 0
M  V30 479 O 44.1548 2.62805 -0.681594 0
M  V30 480 C 42.6108 1.78213 -3.12679 0
M  V30 481 C 42.2188 0.93843 -4.38061 0
M  V30 482 C 43.9628 2.50104 -3.42999 0
M  V30 483 C 41.8698 1.74225 -5.65155 0
M  V30 484 H 40.7998 0.36745 -0.658405 0
M  V30 485 H 43.4508 0.22884 -1.82067 0
M  V30 486 H 41.8328 2.56933 -3.01333 0
M  V30 487 H 43.0068 0.193635 -4.60393 0
M  V30 488 H 41.3218 0.332905 -4.15067 0
M  V30 489 H 43.9188 3.10694 -4.3517 0
M  V30 490 H 44.2618 3.21662 -2.64271 0
M  V30 491 H 44.7948 1.78395 -3.55556 0
M  V30 492 H 41.5338 1.07043 -6.46701 0
M  V30 493 H 41.0538 2.46235 -5.46926 0
M  V30 494 H 42.7328 2.30967 -6.0437 0
M  V30 495 N 42.8649 1.48995 0.513639 0
M  V30 496 C 44.1139 1.57093 1.2651 0
M  V30 497 C 44.4269 0.257091 1.93903 0
M  V30 498 O 45.6329 0.216478 2.70636 0
M  V30 499 C 44.0889 2.77118 2.29638 0
M  V30 500 C 43.6969 4.15209 1.68241 0
M  V30 501 C 45.4409 2.94538 3.05692 0
M  V30 502 C 43.3479 5.26474 2.69406 0
M  V30 503 H 42.2779 0.584876 0.475854 0
M  V30 504 H 44.9289 1.7536 0.540487 0
M  V30 505 H 43.3109 2.52319 3.05207 0
M  V30 506 H 44.4849 4.50094 0.987505 0
M  V30 507 H 42.7999 4.03042 1.04623 0
M  V30 508 H 45.3969 3.74832 3.8132 0
M  V30 509 H 45.7399 2.04614 3.62545 0
M  V30 510 H 46.2729 3.19316 2.37238 0
M  V30 511 H 43.0119 6.18417 2.17351 0
M  V30 512 H 42.5319 4.96058 3.37175 0
M  V30 513 H 44.2109 5.55277 3.32078 0
M  V30 514 N 44.343 -0.763751 1.37857 0
M  V30 515 C 45.306 -1.85889 1.34081 0
M  V30 516 C 46.306 -1.58949 0.243277 0
M  V30 517 O 47.496 -1.66882 0.499589 0
M  V30 518 C 44.628 -3.23176 1.08489 0
M  V30 519 H 45.821 -1.90648 2.31502 0
M  V30 520 H 43.374 -0.964367 1.23003 0
M  V30 521 H 44.109 -3.24091 0.116318 0
M  V30 522 H 43.894 -3.44124 1.8794 0
M  V30 523 H 45.384 -4.03254 1.08517 0
M  V30 524 N 45.8211 -1.22559 -0.990812 0
M  V30 525 C 47.2321 -1.04791 -1.54518 0
M  V30 526 C 47.5831 0.387998 -1.92325 0
M  V30 527 O 46.7081 1.27328 -1.74976 0
M  V30 528 C 47.3031 -1.896 -2.80779 0
M  V30 529 C 45.8621 -1.76124 -3.32652 0
M  V30 530 C 45.0091 -1.8594 -2.05722 0
M  V30 531 H 47.9601 -1.36374 -0.811662 0
M  V30 532 H 47.9811 -1.41464 -3.53225 0
M  V30 533 H 47.4931 -2.94101 -2.53231 0
M  V30 534 H 45.5941 -0.743643 -3.65104 0
M  V30 535 H 45.7071 -2.58913 -4.03114 0
M  V30 536 H 44.0711 -1.29403 -2.19379 0
M  V30 537 H 44.8541 -2.91976 -1.80568 0
M  V30 538 N 47.2992 1.18797 -1.03562 0
M  V30 539 C 48.5452 1.89192 -0.746867 0
M  V30 540 C 48.9002 1.78531 0.717245 0
M  V30 541 O 48.1932 1.17137 1.51622 0
M  V30 542 C 48.3872 3.38692 -1.14117 0
M  V30 543 C 48.2162 3.63902 -2.64207 0
M  V30 544 C 46.9862 3.81553 -3.31279 0
M  V30 545 C 49.1842 3.64903 -3.62423 0
M  V30 546 N 47.1662 3.94455 -4.70402 0
M  V30 547 C 48.5372 3.83458 -4.87196 0
M  V30 548 C 50.5922 3.47965 -3.56125 0
M  V30 549 C 49.2952 3.86829 -6.06429 0
M  V30 550 C 51.3212 3.52616 -4.7478 0
M  V30 551 C 50.6832 3.71663 -5.9837 0
M  V30 552 H 46.7822 0.711141 -0.325273 0
M  V30 553 H 49.3662 1.42727 -1.32428 0
M  V30 554 H 47.5372 3.83864 -0.591889 0
M  V30 555 H 49.2692 3.96634 -0.803966 0
M  V30 556 H 46.0242 3.80723 -2.81686 0
M  V30 557 H 46.4482 4.0474 -5.42692 0
M  V30 558 H 51.0902 3.32189 -2.61553 0
M  V30 559 H 48.8082 4.01395 -7.01362 0
M  V30 560 H 52.3942 3.40791 -4.71543 0
M  V30 561 H 51.2742 3.75145 -6.88648 0
M  V30 562 N 48.7773 0.814389 1.34928 0
M  V30 563 C 49.7253 0.218424 2.31572 0
M  V30 564 C 50.7193 -0.636128 1.57002 0
M  V30 565 O 51.9253 -0.52842 1.72069 0
M  V30 566 H 48.3003 0.0518799 0.750208 0
M  V30 567 H 50.2713 1.04852 2.79372 0
M  V30 568 C 49.0203 -0.61207 3.4227 0
M  V30 569 H 48.3433 0.0361578 3.99784 0
M  V30 570 H 49.7833 -0.995317 4.12152 0
M  V30 571 C 48.2423 -1.78087 2.85984 0
M  V30 572 O 48.7723 -2.8787 2.80168 0
M  V30 573 N 46.9783 -1.59488 2.42924 0
M  V30 574 H 46.5253 -0.701874 2.47854 0
M  V30 575 H 46.4833 -2.37846 2.05613 0
M  V30 576 N 50.2554 -1.46986 0.568584 0
M  V30 577 C 51.4854 -2.0653 0.0539173 0
M  V30 578 C 51.8934 -1.42004 -1.25026 0
M  V30 579 O 51.2364 -0.514541 -1.76347 0
M  V30 580 C 51.2984 -3.58938 -0.200854 0
M  V30 581 C 50.9624 -4.45572 1.01559 0
M  V30 582 C 51.9594 -4.82986 1.92407 0
M  V30 583 C 49.6444 -4.8692 1.23346 0
M  V30 584 C 51.6384 -5.60559 3.03402 0
M  V30 585 C 49.3254 -5.64255 2.34649 0
M  V30 586 C 50.3234 -6.00986 3.24507 0
M  V30 587 O 50.0114 -6.76761 4.33878 0
M  V30 588 H 49.7434 -0.674292 0.0480234 0
M  V30 589 H 52.2974 -1.89812 0.784896 0
M  V30 590 H 50.5274 -3.73911 -0.986279 0
M  V30 591 H 52.2164 -4.0046 -0.662294 0
M  V30 592 H 52.9824 -4.51633 1.76785 0
M  V30 593 H 48.8614 -4.57789 0.543178 0
M  V30 594 H 52.4054 -5.89147 3.73565 0
M  V30 595 H 48.3024 -5.95021 2.5024 0
M  V30 596 H 49.0704 -6.95168 4.32068 0
M  V30 597 N 51.7335 -0.305618 -1.54608 0
M  V30 598 C 53.1445 0.186098 -1.8577 0
M  V30 599 C 53.4955 1.53058 -1.22751 0
M  V30 600 O 52.6205 2.09888 -0.526893 0
M  V30 601 C 53.2155 0.344449 -3.37044 0
M  V30 602 C 51.7745 0.780384 -3.68221 0
M  V30 603 C 50.9215 -0.108554 -2.77087 0
M  V30 604 H 53.8725 -0.526485 -1.49712 0
M  V30 605 H 53.8935 1.17828 -3.61796 0
M  V30 606 H 53.4055 -0.634235 -3.82883 0
M  V30 607 H 51.5065 1.76945 -3.27904 0
M  V30 608 H 51.6195 0.596572 -4.75371 0
M  V30 609 H 49.9835 0.412931 -2.5133 0
M  V30 610 H 50.7665 -1.08368 -3.25747 0
M  V30 611 N 53.2116 1.57565 -0.0334293 0
M  V30 612 C 54.1416 2.13511 0.945265 0
M  V30 613 C 55.1226 1.05231 1.33643 0
M  V30 614 O 56.3076 1.33084 1.41429 0
M  V30 615 C 53.4376 2.6657 2.22616 0
M  V30 616 C 52.3916 3.79676 1.97561 0
M  V30 617 C 51.7176 4.1918 3.31952 0
M  V30 618 C 53.0176 5.0557 1.31135 0
M  V30 619 H 54.7116 2.95538 0.479325 0
M  V30 620 H 52.2576 1.42166 0.229115 0
M  V30 621 H 54.2106 3.04344 2.91466 0
M  V30 622 H 52.9346 1.8171 2.71384 0
M  V30 623 H 51.5936 3.42347 1.31127 0
M  V30 624 H 51.2416 3.31296 3.78487 0
M  V30 625 H 50.9416 4.95402 3.15992 0
M  V30 626 H 52.4656 4.59541 4.02063 0
M  V30 627 H 53.8796 5.40903 1.89992 0
M  V30 628 H 52.2766 5.86818 1.25559 0
M  V30 629 H 53.3466 4.84062 0.284894 0
M  V30 630 N 54.6897 -0.239769 1.55765 0
M  V30 631 C 55.6377 -1.31668 1.91745 0
M  V30 632 C 56.6317 -1.49462 0.797338 0
M  V30 633 O 57.8377 -1.50852 0.982021 0
M  V30 634 H 54.2127 -0.441048 0.609082 0
M  V30 635 H 56.1837 -0.985923 2.81642 0
M  V30 636 C 54.9327 -2.66368 2.2348 0
M  V30 637 H 54.2557 -2.53478 3.09175 0
M  V30 638 H 55.6957 -3.40578 2.52553 0
M  V30 639 C 54.1547 -3.20002 1.05359 0
M  V30 640 O 54.6847 -4.00538 0.305261 0
M  V30 641 N 52.8907 -2.78126 0.842292 0
M  V30 642 H 52.4377 -2.12742 1.45253 0
M  V30 643 H 52.3957 -3.14354 0.053652 0
M  V30 644 N 56.1678 -1.49265 -0.50573 0
M  V30 645 C 57.0978 -1.68495 -1.61653 0
M  V30 646 C 58.0788 -0.53366 -1.61512 0
M  V30 647 O 59.2638 -0.76897 -1.78327 0
M  V30 648 C 56.3938 -1.74709 -3.00157 0
M  V30 649 C 55.3478 -2.89581 -3.15162 0
M  V30 650 C 54.6738 -2.80903 -4.5497 0
M  V30 651 C 55.9738 -4.30578 -2.95634 0
M  V30 652 H 57.6678 -2.61493 -1.45814 0
M  V30 653 H 55.2138 -1.25838 -0.70005 0
M  V30 654 H 57.1668 -1.86748 -3.77761 0
M  V30 655 H 55.8908 -0.783067 -3.17074 0
M  V30 656 H 54.5498 -2.77136 -2.39982 0
M  V30 657 H 54.1978 -1.82419 -4.68756 0
M  V30 658 H 53.8978 -3.57999 -4.65951 0
M  V30 659 H 55.4218 -2.94944 -5.34641 0
M  V30 660 H 56.8358 -4.4373 -3.63011 0
M  V30 661 H 55.2328 -5.0886 -3.18091 0
M  V30 662 H 56.3028 -4.45352 -1.91806 0
M  V30 663 N 57.6459 0.756429 -1.3826 0
M  V30 664 C 58.8739 1.54565 -1.3754 0
M  V30 665 C 59.2889 1.88767 0.0355331 0
M  V30 666 O 58.6459 1.52572 1.0014 0
M  V30 667 C 58.6969 2.84654 -2.22833 0
M  V30 668 O 58.4179 2.51912 -3.5843 0
M  V30 669 C 59.9189 3.78807 -2.30261 0
M  V30 670 H 57.1389 0.478353 -0.470553 0
M  V30 671 H 59.6829 0.936381 -1.81803 0
M  V30 672 H 57.8379 3.41965 -1.8204 0
M  V30 673 H 58.2519 3.35325 -4.03308 0
M  V30 674 H 59.7259 4.67045 -2.94233 0
M  V30 675 H 60.2029 4.19038 -1.31545 0
M  V30 676 H 60.8089 3.2742 -2.71433 0
M  V30 677 N 59.124 1.23083 0.984299 0
M  V30 678 C 60.054 1.03292 2.09411 0
M  V30 679 C 61.035 -0.048923 1.7003 0
M  V30 680 O 62.22 0.114967 1.93859 0
M  V30 681 C 59.35 0.619155 3.41736 0
M  V30 682 C 58.304 1.64791 3.95004 0
M  V30 683 C 57.63 1.0897 5.23478 0
M  V30 684 C 58.93 3.03999 4.24714 0
M  V30 685 H 60.624 1.96119 2.26225 0
M  V30 686 H 58.17 0.944344 1.08711 0
M  V30 687 H 60.123 0.467777 4.18796 0
M  V30 688 H 58.847 -0.344786 3.24775 0
M  V30 689 H 57.506 1.78721 3.20085 0
M  V30 690 H 57.154 0.11686 5.02864 0
M  V30 691 H 56.854 1.77704 5.60085 0
M  V30 692 H 58.378 0.950093 6.03163 0
M  V30 693 H 59.792 2.93393 4.92538 0
M  V30 694 H 58.189 3.69936 4.72512 0
M  V30 695 H 59.259 3.53285 3.32142 0
M  V30 696 N 60.6021 -1.18246 1.0419 0
M  V30 697 C 61.8481 -1.88536 0.747122 0
M  V30 698 C 62.1811 -1.80223 -0.723409 0
M  V30 699 O 61.4561 -1.20337 -1.52804 0
M  V30 700 C 61.7391 -3.38968 1.21544 0
M  V30 701 C 61.5921 -3.56084 2.74816 0
M  V30 702 C 62.9111 -4.32648 0.806482 0
M  V30 703 H 60.0301 -0.684619 0.272883 0
M  V30 704 H 62.6721 -1.39113 1.29413 0
M  V30 705 H 60.8221 -3.8119 0.750081 0
M  V30 706 H 62.4941 -3.22946 3.29399 0
M  V30 707 H 60.7371 -2.98699 3.14582 0
M  V30 708 H 61.4081 -4.61639 3.02644 0
M  V30 709 H 63.8841 -3.98211 1.20695 0
M  V30 710 H 62.7601 -5.36462 1.1619 0
M  V30 711 H 63.0211 -4.41146 -0.29029 0
M  V30 712 N 62.0802 -0.821533 -1.34494 0
M  V30 713 C 63.0102 -0.257138 -2.3208 0
M  V30 714 C 63.9912 0.625645 -1.58176 0
M  V30 715 O 65.1762 0.552811 -1.86166 0
M  V30 716 C 62.3062 0.582958 -3.42372 0
M  V30 717 C 61.2602 -0.202571 -4.2752 0
M  V30 718 C 60.5862 0.760179 -5.29269 0
M  V30 719 C 61.8862 -1.40998 -5.02908 0
M  V30 720 H 63.5802 -1.07247 -2.79532 0
M  V30 721 H 61.1262 -0.517163 -1.34393 0
M  V30 722 H 63.0792 0.987972 -4.09655 0
M  V30 723 H 61.8032 1.43133 -2.93565 0
M  V30 724 H 60.4622 -0.588936 -3.61838 0
M  V30 725 H 60.1102 1.60447 -4.76724 0
M  V30 726 H 59.8102 0.238809 -5.87115 0
M  V30 727 H 61.3342 1.16308 -5.9942 0
M  V30 728 H 62.7482 -1.07905 -5.63054 0
M  V30 729 H 61.1452 -1.86689 -5.70322 0
M  V30 730 H 62.2152 -2.1889 -4.32684 0
M  V30 731 N 63.5583 1.46682 -0.576371 0
M  V30 732 C 64.4883 2.33028 0.148397 0
M  V30 733 C 65.4693 1.44961 0.889956 0
M  V30 734 O 66.6543 1.73789 0.866662 0
M  V30 735 C 63.7843 3.27117 1.1667 0
M  V30 736 C 62.7383 4.24575 0.540386 0
M  V30 737 C 62.0643 5.08126 1.6647 0
M  V30 738 C 63.3643 5.19722 -0.518331 0
M  V30 739 H 65.0583 2.93875 -0.572509 0
M  V30 740 H 62.6043 1.41315 -0.276768 0
M  V30 741 H 64.5573 3.86374 1.68204 0
M  V30 742 H 63.2813 2.64364 1.9178 0
M  V30 743 H 61.9403 3.66571 0.0461769 0
M  V30 744 H 61.5883 4.41762 2.40531 0
M  V30 745 H 61.2883 5.74122 1.25131 0
M  V30 746 H 62.8123 5.70246 2.18293 0
M  V30 747 H 64.2263 5.73232 -0.0883058 0
M  V30 748 H 62.6233 5.94026 -0.851679 0
M  V30 749 H 63.6933 4.64037 -1.40703 0
M  V30 750 N 65.0364 0.313813 1.54444 0
M  V30 751 C 66.2824 -0.292108 2.00685 0
M  V30 752 C 66.6154 -1.52548 1.20177 0
M  V30 753 O 65.8904 -1.92452 0.281531 0
M  V30 754 C 66.1734 -0.635968 3.5444 0
M  V30 755 C 66.0264 0.607437 4.4568 0
M  V30 756 C 67.3454 -1.45747 4.15266 0
M  V30 757 H 64.4644 -0.104697 0.729526 0
M  V30 758 H 67.1064 0.428457 1.85106 0
M  V30 759 H 65.2564 -1.24986 3.67846 0
M  V30 760 H 66.9284 1.24581 4.44159 0
M  V30 761 H 65.1714 1.23822 4.15753 0
M  V30 762 H 65.8424 0.322515 5.51057 0
M  V30 763 H 68.3184 -0.938645 4.05375 0
M  V30 764 H 67.1944 -1.66683 5.2298 0
M  V30 765 H 67.4554 -2.45063 3.67963 0
M  V30 766 N 66.5145 -1.57545 0.0417849 0
M  V30 767 C 67.7625 -1.91937 -0.632829 0
M  V30 768 C 68.0835 -0.919978 -1.71934 0
M  V30 769 O 67.3535 0.0366064 -1.95866 0
M  V30 770 H 65.9335 -0.708493 -0.236742 0
M  V30 771 H 68.5955 -1.9468 0.0925745 0
M  V30 772 H 67.6915 -2.92912 -1.07746 0
M  V30 773 N 67.9926 0.231505 -1.5589 0
M  V30 774 C 68.9556 1.27028 -1.90779 0
M  V30 775 C 69.9556 1.40308 -0.785507 0
M  V30 776 O 71.1456 1.38744 -1.05336 0
M  V30 777 C 68.2776 2.64566 -2.14983 0
M  V30 778 H 69.4706 0.973017 -2.83677 0
M  V30 779 H 67.0236 0.471486 -1.49019 0
M  V30 780 H 67.7586 2.99406 -1.24604 0
M  V30 781 H 67.5436 2.56305 -2.96732 0
M  V30 782 H 69.0336 3.39543 -2.43105 0
M  V30 783 N 69.4707 1.49531 0.497807 0
M  V30 784 C 70.4007 1.6935 1.60757 0
M  V30 785 C 71.3817 0.542218 1.61227 0
M  V30 786 O 72.5667 0.778417 1.77917 0
M  V30 787 C 69.6967 1.76298 2.99226 0
M  V30 788 C 68.6507 2.91248 3.13622 0
M  V30 789 C 67.9767 2.83312 4.53474 0
M  V30 790 C 69.2767 4.3214 2.93346 0
M  V30 791 H 70.9707 2.62263 1.44425 0
M  V30 792 H 68.5167 1.26208 0.693367 0
M  V30 793 H 70.4697 1.88749 3.76765 0
M  V30 794 H 69.1937 0.799871 3.16654 0
M  V30 795 H 67.8527 2.78404 2.38509 0
M  V30 796 H 67.5007 1.84902 4.67782 0
M  V30 797 H 67.2007 3.60465 4.64046 0
M  V30 798 H 68.7247 2.97775 5.33069 0
M  V30 799 H 70.1387 4.45649 3.60652 0
M  V30 800 H 68.5357 5.1054 3.15387 0
M  V30 801 H 69.6057 4.46363 1.89441 0
M  V30 802 N 70.9488 -0.749086 1.3866 0
M  V30 803 C 71.9118 -1.84457 1.36045 0
M  V30 804 C 72.9118 -1.58682 0.260122 0
M  V30 805 O 74.1018 -1.66343 0.517261 0
M  V30 806 C 71.2338 -3.22008 1.11911 0
M  V30 807 H 72.4268 -1.88182 2.33512 0
M  V30 808 H 69.9798 -0.951266 1.24019 0
M  V30 809 H 70.7148 -3.2395 0.150686 0
M  V30 810 H 70.4998 -3.42111 1.91579 0
M  V30 811 H 71.9898 -4.0208 1.12788 0
M  V30 812 N 72.4269 -1.23603 -0.977757 0
M  V30 813 C 73.3899 -1.02069 -2.05218 0
M  V30 814 C 74.3899 0.0184305 -1.60789 0
M  V30 815 O 75.5799 -0.221569 -1.72785 0
M  V30 816 C 72.7119 -0.544926 -3.36517 0
M  V30 817 H 73.9049 -1.9742 -2.25755 0
M  V30 818 H 71.4579 -1.05684 -1.15155 0
M  V30 819 H 72.1929 0.412241 -3.21669 0
M  V30 820 H 71.9779 -1.2948 -3.70105 0
M  V30 821 H 73.4679 -0.414985 -4.15533 0
M  V30 822 N 73.905 1.17692 -1.04816 0
M  V30 823 C 75.153 1.87488 -0.754497 0
M  V30 824 C 75.474 1.81205 0.720407 0
M  V30 825 O 74.744 1.23544 1.52032 0
M  V30 826 H 73.324 0.694101 -0.276102 0
M  V30 827 H 75.986 1.42793 -1.32651 0
M  V30 828 H 75.082 2.93328 -1.06606 0
M  V30 829 N 75.3831 0.828654 1.34056 0
M  V30 830 C 76.6081 0.431637 2.02859 0
M  V30 831 C 77.0331 -0.956339 1.61975 0
M  V30 832 O 76.3911 -1.62338 0.807228 0
M  V30 833 C 76.4391 0.548323 3.56407 0
M  V30 834 O 75.5431 -0.429556 4.10157 0
M  V30 835 H 74.8841 0.176886 0.640006 0
M  V30 836 H 77.4141 1.12066 1.71179 0
M  V30 837 H 77.4241 0.426196 4.05768 0
M  V30 838 H 76.0991 1.5606 3.8551 0
M  V30 839 H 74.6761 -0.265836 3.71951 0
M  V30 840 N 76.8612 -1.46375 0.584142 0
M  V30 841 C 78.1012 -2.0427 0.0729695 0
M  V30 842 C 78.4652 -1.44563 -1.26355 0
M  V30 843 O 79.6662 -1.93667 -1.86405 0
M  V30 844 C 77.9372 -3.57399 0.00967464 0
M  V30 845 S 79.4962 -4.36551 -0.443714 0
M  V30 846 H 76.3142 -0.709975 0.0381673 0
M  V30 847 H 78.9162 -1.79398 0.776962 0
M  V30 848 H 77.6202 -3.98372 0.986319 0
M  V30 849 H 77.1512 -3.8681 -0.717044 0
M  V30 850 H 79.1662 -4.66237 -1.69816 0
M  V30 851 N 78.3393 -0.321999 -1.54275 0
M  V30 852 C 79.5853 0.281461 -2.00837 0
M  V30 853 C 79.9183 1.51909 -1.20985 0
M  V30 854 O 79.1933 1.923 -0.291733 0
M  V30 855 C 79.4763 0.617162 -3.54772 0
M  V30 856 C 79.3293 -0.631064 -4.45351 0
M  V30 857 C 80.6483 1.43542 -4.16033 0
M  V30 858 H 77.7673 0.100826 -0.730071 0
M  V30 859 H 80.4093 -0.438268 -1.84876 0
M  V30 860 H 78.5593 1.23034 -3.68504 0
M  V30 861 H 80.2313 -1.26934 -4.43492 0
M  V30 862 H 78.4743 -1.26025 -4.15091 0
M  V30 863 H 79.1453 -0.351735 -5.50878 0
M  V30 864 H 81.6213 0.917134 -4.05867 0
M  V30 865 H 80.4973 1.63907 -5.23856 0
M  V30 866 H 80.7583 2.43108 -3.69257 0
M  V30 867 N 79.8174 1.5752 -0.0501392 0
M  V30 868 C 81.0634 1.92936 0.624798 0
M  V30 869 C 81.3964 0.928685 1.70555 0
M  V30 870 O 80.6714 -0.0454779 1.94447 0
M  V30 871 C 80.9544 3.38737 1.22185 0
M  V30 872 C 80.8074 4.49552 0.149218 0
M  V30 873 C 82.1264 3.84913 2.13378 0
M  V30 874 H 79.2454 0.701604 0.225657 0
M  V30 875 H 81.8874 1.89671 -0.111693 0
M  V30 876 H 80.0374 3.4165 1.84953 0
M  V30 877 H 81.7094 4.58768 -0.482648 0
M  V30 878 H 79.9524 4.30638 -0.522841 0
M  V30 879 H 80.6234 5.48653 0.606966 0
M  V30 880 H 83.0994 3.8387 1.60572 0
M  V30 881 H 81.9754 4.87584 2.52097 0
M  V30 882 H 82.2364 3.21611 3.03346 0
M  V30 883 N 81.2955 -0.223234 1.56011 0
M  V30 884 C 82.2255 -1.27988 1.95298 0
M  V30 885 C 83.2065 -1.48976 0.820979 0
M  V30 886 O 84.3915 -1.61188 1.08315 0
M  V30 887 C 81.5215 -2.63 2.26822 0
M  V30 888 C 80.4755 -2.56671 3.42497 0
M  V30 889 C 79.8015 -3.95697 3.59622 0
M  V30 890 C 81.1015 -2.11601 4.77517 0
M  V30 891 H 82.7955 -0.953525 2.8381 0
M  V30 892 H 80.3415 -0.457244 1.36548 0
M  V30 893 H 82.2945 -3.37077 2.52898 0
M  V30 894 H 81.0185 -2.9732 1.35161 0
M  V30 895 H 79.6775 -1.85051 3.16467 0
M  V30 896 H 79.3255 -4.27322 2.6534 0
M  V30 897 H 79.0255 -3.92345 4.37424 0
M  V30 898 H 80.5495 -4.71438 3.88044 0
M  V30 899 H 81.9635 -2.7542 5.02809 0
M  V30 900 H 80.3605 -2.19311 5.5859 0
M  V30 901 H 81.4305 -1.06824 4.72987 0
M  V30 902 N 82.7736 -1.49793 -0.48987 0
M  V30 903 C 83.7206 -1.67281 -1.59014 0
M  V30 904 C 84.6906 -0.514177 -1.57941 0
M  V30 905 O 85.8756 -0.742533 -1.75759 0
M  V30 906 C 83.0156 -1.75569 -2.97102 0
M  V30 907 C 82.1286 -3.0281 -3.08107 0
M  V30 908 C 81.2636 -3.02008 -4.36995 0
M  V30 909 C 80.3026 -4.23782 -4.41673 0
M  V30 910 N 79.4396 -4.20826 -5.62005 0
M  V30 911 H 84.2796 -2.61224 -1.43409 0
M  V30 912 H 81.8166 -1.29508 -0.697565 0
M  V30 913 H 83.7746 -1.78354 -3.77155 0
M  V30 914 H 82.4046 -0.850827 -3.11385 0
M  V30 915 H 81.4566 -3.09584 -2.21047 0
M  V30 916 H 82.7686 -3.92801 -3.07423 0
M  V30 917 H 81.9226 -3.03418 -5.25378 0
M  V30 918 H 80.6616 -2.09815 -4.4026 0
M  V30 919 H 79.6666 -4.22604 -3.5169 0
M  V30 920 H 80.8916 -5.17181 -4.40115 0
M  V30 921 H 78.8376 -3.31476 -5.66091 0
M  V30 922 H 78.7546 -5.04564 -5.62984 0
M  V30 923 H 80.0226 -4.26355 -6.52565 0
M  V30 924 N 84.2517 0.741722 -1.39055 0
M  V30 925 C 85.6627 1.31966 -1.32068 0
M  V30 926 C 86.0137 1.96192 0.0180797 0
M  V30 927 O 85.1387 1.95861 0.920196 0
M  V30 928 C 85.7337 2.39954 -2.39181 0
M  V30 929 C 84.2927 2.93438 -2.35735 0
M  V30 930 C 83.4397 1.66936 -2.21422 0
M  V30 931 H 86.3907 0.539721 -1.4924 0
M  V30 932 H 86.4117 3.20182 -2.05581 0
M  V30 933 H 85.9237 1.9318 -3.36605 0
M  V30 934 H 84.0247 3.4451 -1.41929 0
M  V30 935 H 84.1377 3.4701 -3.30335 0
M  V30 936 H 82.5017 1.91016 -1.68478 0
M  V30 937 H 83.2847 1.22224 -3.20806 0
M  V30 938 N 85.7298 1.2412 0.971189 0
M  V30 939 C 86.9548 1.10667 1.75407 0
M  V30 940 C 87.3798 -0.337048 1.85056 0
M  V30 941 O 86.7378 -1.24396 1.31892 0
M  V30 942 C 86.7858 1.74726 3.15441 0
M  V30 943 O 85.8898 1.01566 3.99697 0
M  V30 944 H 85.2308 0.387341 0.539317 0
M  V30 945 H 87.7608 1.64358 1.2185 0
M  V30 946 H 87.7708 1.80341 3.6598 0
M  V30 947 H 86.4458 2.79773 3.07734 0
M  V30 948 H 85.0228 1.03713 3.58187 0
M  V30 949 N 87.2079 -1.17134 1.05439 0
M  V30 950 C 88.1179 -2.24878 0.668365 0
M  V30 951 C 89.1339 -1.71186 -0.311687 0
M  V30 952 O 90.3099 -2.00738 -0.163161 0
M  V30 953 C 87.3749 -3.46662 0.051648 0
M  V30 954 C 86.4359 -4.15429 1.08246 0
M  V30 955 C 85.6689 -5.31399 0.495082 0
M  V30 956 O 85.8919 -5.66153 -0.694743 0
M  V30 957 O 84.8259 -5.89187 1.23056 0
M  V30 958 H 88.6519 -2.60189 1.56637 0
M  V30 959 H 86.2369 -1.24482 0.826104 0
M  V30 960 H 88.1189 -4.20394 -0.290966 0
M  V30 961 H 86.7939 -3.13142 -0.819971 0
M  V30 962 H 85.7009 -3.43704 1.47711 0
M  V30 963 H 87.0339 -4.52982 1.92532 0
M  V30 964 N 88.686 -0.835752 -1.33615 0
M  V30 965 C 89.935 -0.426289 -1.97144 0
M  V30 966 C 90.248 1.01912 -1.66953 0
M  V30 967 O 91.454 1.53311 -2.24072 0
M  V30 968 C 89.91 -0.711321 -3.52801 0
M  V30 969 C 89.518 -2.1712 -3.91871 0
M  V30 970 C 91.262 -0.368654 -4.22896 0
M  V30 971 C 89.169 -2.40044 -5.40493 0
M  V30 972 H 88.099 -0.15567 -0.737755 0
M  V30 973 H 90.75 -1.0239 -1.52278 0
M  V30 974 H 89.132 -0.0433766 -3.95976 0
M  V30 975 H 90.306 -2.87936 -3.59763 0
M  V30 976 H 88.621 -2.47654 -3.34749 0
M  V30 977 H 91.218 -0.517601 -5.32189 0
M  V30 978 H 91.561 0.688078 -4.10574 0
M  V30 979 H 92.094 -0.991702 -3.8524 0
M  V30 980 H 88.833 -3.44271 -5.57815 0
M  V30 981 H 88.353 -1.73785 -5.74072 0
M  V30 982 H 90.032 -2.23042 -6.0734 0
M  V30 983 N 90.1641 1.46063 -0.591896 0
M  V30 984 C 91.3891 2.07226 -0.0850314 0
M  V30 985 C 91.8141 1.43625 1.21463 0
M  V30 986 O 91.1721 0.523305 1.73583 0
M  V30 987 C 91.2201 3.60554 0.0576567 0
M  V30 988 O 90.3241 3.97128 1.11188 0
M  V30 989 H 89.6651 0.660615 -0.0669568 0
M  V30 990 H 92.1951 1.8756 -0.81745 0
M  V30 991 H 92.2051 4.07165 0.2609 0
M  V30 992 H 90.8801 4.06235 -0.891416 0
M  V30 993 H 89.4571 3.62213 0.886356 0
M  V30 994 N 91.6422 0.330177 1.54103 0
M  V30 995 C 92.5742 -0.566902 2.22079 0
M  V30 996 C 93.5872 -1.07462 1.22294 0
M  V30 997 O 94.7762 -0.987065 1.48726 0
M  V30 998 C 91.8762 -1.79138 2.87685 0
M  V30 999 C 91.0492 -1.42123 4.13666 0
M  V30 1000 C 90.1082 -2.50394 4.62806 0
M  V30 1001 O 89.1342 -2.14261 5.27334 0
M  V30 1002 N 90.3362 -3.81433 4.37595 0
M  V30 1003 H 93.1012 0.0151844 2.99696 0
M  V30 1004 H 90.6622 0.153681 1.61169 0
M  V30 1005 H 92.6542 -2.50975 3.1748 0
M  V30 1006 H 91.2242 -2.28115 2.13734 0
M  V30 1007 H 90.4442 -0.534201 3.90564 0
M  V30 1008 H 91.7322 -1.14971 4.9564 0
M  V30 1009 H 91.1302 -4.13584 3.8596 0
M  V30 1010 H 89.6872 -4.4948 4.72029 0
M  V30 1011 N 93.1203 -1.57491 0.0584922 0
M  V30 1012 C 94.3683 -1.92597 -0.612436 0
M  V30 1013 C 94.6893 -0.938162 -1.70949 0
M  V30 1014 O 93.9593 0.0158301 -1.95894 0
M  V30 1015 H 92.5393 -0.710964 -0.229214 0
M  V30 1016 H 95.2013 -1.94571 0.113218 0
M  V30 1017 H 94.2973 -2.94038 -1.04633 0
M  V30 1018 N 94.5984 0.214957 -1.56127 0
M  V30 1019 C 95.8264 0.955092 -1.83536 0
M  V30 1020 C 96.2414 1.77677 -0.638472 0
M  V30 1021 O 95.5984 1.78219 0.392968 0
M  V30 1022 C 95.6494 1.86734 -3.09536 0
M  V30 1023 O 95.3704 1.07887 -4.24608 0
M  V30 1024 C 96.8714 2.72082 -3.4998 0
M  V30 1025 H 94.0914 0.279611 -0.609966 0
M  V30 1026 H 96.6354 0.228197 -2.03223 0
M  V30 1027 H 94.7904 2.5481 -2.91806 0
M  V30 1028 H 95.2044 1.69872 -4.9623 0
M  V30 1029 H 96.6784 3.31782 -4.41163 0
M  V30 1030 H 97.1554 3.44806 -2.7204 0
M  V30 1031 H 97.7614 2.09409 -3.70173 0
M  V30 1032 N 96.0765 1.50051 0.48192 0
M  V30 1033 C 96.9865 1.7089 1.60728 0
M  V30 1034 C 98.0025 0.591788 1.63627 0
M  V30 1035 O 99.1785 0.868817 1.81696 0
M  V30 1036 C 96.2435 1.78855 2.97005 0
M  V30 1037 C 95.3045 3.02537 3.04581 0
M  V30 1038 C 94.5375 3.10112 4.34357 0
M  V30 1039 O 94.7605 2.24765 5.24249 0
M  V30 1040 O 93.6945 4.02747 4.47301 0
M  V30 1041 H 97.5205 2.66264 1.46072 0
M  V30 1042 H 95.1055 1.34018 0.660264 0
M  V30 1043 H 96.9875 1.86336 3.77964 0
M  V30 1044 H 95.6625 0.866628 3.11883 0
M  V30 1045 H 94.5695 3.00563 2.22739 0
M  V30 1046 H 95.9025 3.94272 2.94636 0
M  V30 1047 N 97.5546 -0.734337 1.39446 0
M  V30 1048 C 98.5016 -1.84835 1.38219 0
M  V30 1049 C 99.4716 -1.64331 0.24179 0
M  V30 1050 O 100.657 -1.85728 0.437002 0
M  V30 1051 C 97.7966 -3.22355 1.23212 0
M  V30 1052 C 96.9096 -3.5456 2.46801 0
M  V30 1053 C 96.0446 -4.81485 2.24377 0
M  V30 1054 C 95.0836 -5.06536 3.43639 0
M  V30 1055 N 94.2206 -6.24665 3.20528 0
M  V30 1056 H 99.0606 -1.85219 2.33448 0
M  V30 1057 H 96.5976 -0.905039 1.15963 0
M  V30 1058 H 98.5556 -4.0174 1.12522 0
M  V30 1059 H 97.1856 -3.21248 0.316121 0
M  V30 1060 H 96.2376 -2.69872 2.68092 0
M  V30 1061 H 97.5496 -3.6899 3.3563 0
M  V30 1062 H 96.7036 -5.68852 2.10933 0
M  V30 1063 H 95.4426 -4.6923 1.32944 0
M  V30 1064 H 94.4476 -4.17632 3.5758 0
M  V30 1065 H 95.6726 -5.20676 4.35974 0
M  V30 1066 H 93.6186 -6.13696 2.3176 0
M  V30 1067 H 93.5356 -6.39685 4.02913 0
M  V30 1068 H 94.8036 -7.14868 3.10779 0
M  V30 1069 N 99.0327 -1.24633 -0.964593 0
M  V30 1070 C 100.279 -1.08949 -1.71049 0
M  V30 1071 C 100.612 0.370302 -1.90637 0
M  V30 1072 O 99.8867 1.27349 -1.47011 0
M  V30 1073 C 100.17 -1.83329 -3.0994 0
M  V30 1074 C 100.023 -3.37077 -2.97824 0
M  V30 1075 C 101.342 -1.60846 -4.09654 0
M  V30 1076 H 98.4607 -0.397178 -0.620821 0
M  V30 1077 H 101.103 -1.5334 -1.12191 0
M  V30 1078 H 99.2527 -1.45597 -3.60186 0
M  V30 1079 H 100.925 -3.84425 -2.5498 0
M  V30 1080 H 99.1677 -3.65298 -2.33965 0
M  V30 1081 H 99.8387 -3.84324 -3.96231 0
M  V30 1082 H 102.315 -1.93674 -3.68279 0
M  V30 1083 H 101.191 -2.1534 -5.04896 0
M  V30 1084 H 101.452 -0.547434 -4.38698 0
M  V30 1085 N 100.511 1.16574 -1.06058 0
M  V30 1086 C 101.441 2.23057 -0.690488 0
M  V30 1087 C 102.422 1.67141 0.315901 0
M  V30 1088 O 103.607 1.93253 0.191556 0
M  V30 1089 C 100.737 3.47222 -0.073625 0
M  V30 1090 C 99.6908 4.16016 -1.00573 0
M  V30 1091 C 99.0168 5.34104 -0.252289 0
M  V30 1092 C 100.317 4.67264 -2.33371 0
M  V30 1093 H 102.011 2.54271 -1.58072 0
M  V30 1094 H 99.5568 1.22218 -0.76149 0
M  V30 1095 H 101.51 4.20939 0.19714 0
M  V30 1096 H 100.234 3.15302 0.85161 0
M  V30 1097 H 98.8928 3.44223 -1.2612 0
M  V30 1098 H 98.5408 4.98437 0.675988 0
M  V30 1099 H 98.2408 5.81072 -0.873455 0
M  V30 1100 H 99.7648 6.10599 0.0109857 0
M  V30 1101 H 101.179 5.32573 -2.12223 0
M  V30 1102 H 99.5758 5.24843 -2.90963 0
M  V30 1103 H 100.646 3.83602 -2.96611 0
M  V30 1104 N 101.989 0.842826 1.3317 0
M  V30 1105 C 102.952 0.284065 2.27433 0
M  V30 1106 C 103.952 -0.54948 1.5112 0
M  V30 1107 O 105.142 -0.362699 1.70382 0
M  V30 1108 C 102.274 -0.599384 3.35589 0
M  V30 1109 H 103.467 1.11589 2.78366 0
M  V30 1110 H 101.02 0.616221 1.4364 0
M  V30 1111 H 101.755 -1.45349 2.89904 0
M  V30 1112 H 101.54 -0.00291266 3.921 0
M  V30 1113 H 103.03 -0.983488 4.05854 0
M  V30 1114 N 103.467 -1.45747 0.599634 0
M  V30 1115 C 104.377 -2.34262 -0.125888 0
M  V30 1116 C 105.393 -1.50768 -0.868625 0
M  V30 1117 O 106.569 -1.83592 -0.828003 0
M  V30 1118 C 103.634 -3.28252 -1.11587 0
M  V30 1119 C 102.695 -4.27651 -0.375956 0
M  V30 1120 C 101.928 -5.1715 -1.31877 0
M  V30 1121 O 102.151 -5.09916 -2.55621 0
M  V30 1122 O 101.085 -5.96286 -0.820157 0
M  V30 1123 H 104.911 -2.97688 0.601315 0
M  V30 1124 H 102.496 -1.44999 0.359934 0
M  V30 1125 H 104.378 -3.86191 -1.68626 0
M  V30 1126 H 103.053 -2.67401 -1.82424 0
M  V30 1127 H 101.96 -3.7335 0.236698 0
M  V30 1128 H 103.293 -4.91334 0.29177 0
M  V30 1129 N 104.945 -0.338344 -1.53925 0
M  V30 1130 C 106.191 0.260143 -2.01125 0
M  V30 1131 C 106.524 1.50617 -1.22589 0
M  V30 1132 O 105.799 1.91979 -0.312113 0
M  V30 1133 C 106.082 0.579499 -3.55407 0
M  V30 1134 C 105.935 -0.678264 -4.44657 0
M  V30 1135 C 107.254 1.39122 -4.17532 0
M  V30 1136 H 104.373 0.0930772 -0.731099 0
M  V30 1137 H 107.015 -0.457852 -1.84401 0
M  V30 1138 H 105.165 1.19118 -3.69788 0
M  V30 1139 H 106.837 -1.31631 -4.42121 0
M  V30 1140 H 105.08 -1.3042 -4.13731 0
M  V30 1141 H 105.751 -0.410143 -5.50474 0
M  V30 1142 H 108.227 0.874035 -4.06817 0
M  V30 1143 H 107.103 1.58342 -5.25565 0
M  V30 1144 H 107.364 2.39178 -3.71815 0
M  V30 1145 N 106.423 1.57458 -0.0668435 0
M  V30 1146 C 107.353 2.15468 0.899764 0
M  V30 1147 C 108.334 1.08042 1.31381 0
M  V30 1148 O 109.519 1.36054 1.38574 0
M  V30 1149 C 106.649 2.71232 2.16911 0
M  V30 1150 C 105.603 3.83781 1.89463 0
M  V30 1151 C 104.929 4.26127 3.22986 0
M  V30 1152 C 106.229 5.08238 1.20381 0
M  V30 1153 H 107.923 2.96488 0.416529 0
M  V30 1154 H 105.469 1.4262 0.198908 0
M  V30 1155 H 107.422 3.10458 2.84945 0
M  V30 1156 H 106.146 1.87426 2.67468 0
M  V30 1157 H 104.805 3.45051 1.23836 0
M  V30 1158 H 104.453 3.39249 3.71374 0
M  V30 1159 H 104.153 5.01993 3.05413 0
M  V30 1160 H 105.677 4.67966 3.92225 0
M  V30 1161 H 107.091 5.44811 1.78475 0
M  V30 1162 H 105.488 5.89349 1.13083 0
M  V30 1163 H 106.558 4.84558 0.182153 0
M  V30 1164 N 107.901 -0.206675 1.56239 0
M  V30 1165 C 109.312 -0.772383 1.69974 0
M  V30 1166 C 109.663 -1.84353 0.671436 0
M  V30 1167 O 108.788 -2.15695 -0.174491 0
M  V30 1168 C 109.383 -1.40779 3.08167 0
M  V30 1169 C 107.942 -1.92072 3.23706 0
M  V30 1170 C 107.089 -0.786347 2.65917 0
M  V30 1171 H 110.04 0.0182223 1.5869 0
M  V30 1172 H 110.061 -2.27696 3.04852 0
M  V30 1173 H 109.573 -0.627958 3.82986 0
M  V30 1174 H 107.674 -2.7281 2.53782 0
M  V30 1175 H 107.787 -2.09046 4.31087 0
M  V30 1176 H 106.151 -1.1976 2.24788 0
M  V30 1177 H 106.934 -0.0189416 3.43295 0
M  V30 1178 N 109.379 -1.50304 -0.473955 0
M  V30 1179 C 110.311 -1.65109 -1.58971 0
M  V30 1180 C 111.324 -0.532676 -1.53839 0
M  V30 1181 O 112.513 -0.805751 -1.59279 0
M  V30 1182 C 109.613 -1.61684 -2.97845 0
M  V30 1183 C 108.786 -2.8951 -3.27876 0
M  V30 1184 C 107.845 -2.78768 -4.4629 0
M  V30 1185 O 106.871 -3.52722 -4.46739 0
M  V30 1186 N 108.073 -1.9213 -5.47783 0
M  V30 1187 H 110.838 -2.61347 -1.46689 0
M  V30 1188 H 108.399 -1.47732 -0.662324 0
M  V30 1189 H 110.391 -1.52114 -3.75024 0
M  V30 1190 H 108.961 -0.731925 -3.03911 0
M  V30 1191 H 108.181 -3.13228 -2.39336 0
M  V30 1192 H 109.469 -3.74199 -3.4475 0
M  V30 1193 H 108.867 -1.31353 -5.50239 0
M  V30 1194 H 107.424 -1.88466 -6.23958 0
M  V30 1195 N 110.857 0.726932 -1.39834 0
M  V30 1196 C 112.087 1.51393 -1.40583 0
M  V30 1197 C 112.495 1.892 -0.000740625 0
M  V30 1198 O 111.838 1.55189 0.982951 0
M  V30 1199 C 111.9 2.82588 -2.22226 0
M  V30 1200 C 111.564 2.67169 -3.70769 0
M  V30 1201 C 112.561 2.3518 -4.63666 0
M  V30 1202 C 110.246 2.83788 -4.14451 0
M  V30 1203 C 112.24 2.20002 -5.98229 0
M  V30 1204 C 109.927 2.68229 -5.49087 0
M  V30 1205 C 110.925 2.36382 -6.4079 0
M  V30 1206 O 110.613 2.2093 -7.72946 0
M  V30 1207 H 110.345 0.474168 -0.48181 0
M  V30 1208 H 112.899 0.905247 -1.84376 0
M  V30 1209 H 111.129 3.45746 -1.73195 0
M  V30 1210 H 112.818 3.44247 -2.15055 0
M  V30 1211 H 113.584 2.21984 -4.31217 0
M  V30 1212 H 109.463 3.07566 -3.43401 0
M  V30 1213 H 113.007 1.95067 -6.69772 0
M  V30 1214 H 108.904 2.81006 -5.81125 0
M  V30 1215 H 109.672 2.35937 -7.83757 0
M  V30 1216 N 112.336 1.25143 0.95797 0
M  V30 1217 C 113.266 1.07711 2.07173 0
M  V30 1218 C 114.247 -0.0128462 1.70095 0
M  V30 1219 O 115.432 0.156061 1.93572 0
M  V30 1220 C 112.562 0.691503 3.40346 0
M  V30 1221 C 111.516 1.73132 3.9142 0
M  V30 1222 C 110.842 1.20049 5.21049 0
M  V30 1223 C 112.142 3.1294 4.1817 0
M  V30 1224 H 113.836 2.00873 2.22014 0
M  V30 1225 H 111.382 0.967191 1.06684 0
M  V30 1226 H 113.335 0.556505 4.17709 0
M  V30 1227 H 112.059 -0.275819 3.25433 0
M  V30 1228 H 110.718 1.8547 3.16222 0
M  V30 1229 H 110.366 0.223499 5.02503 0
M  V30 1230 H 110.066 1.89545 5.56189 0
M  V30 1231 H 111.59 1.07782 6.01012 0
M  V30 1232 H 113.004 3.03775 4.86203 0
M  V30 1233 H 111.401 3.79875 4.64559 0
M  V30 1234 H 112.471 3.6025 3.24573 0
M  V30 1235 N 113.814 -1.1601 1.06675 0
M  V30 1236 C 115.091 -1.82679 0.699114 0
M  V30 1237 C 115.471 -1.94559 -0.819137 0
M  V30 1238 O 114.819 -1.49169 -1.73092 0
M  V30 1239 C 115.029 -3.19445 1.40555 0
M  V30 1240 C 116.377 -3.95171 1.55323 0
M  V30 1241 O 117.401 -3.28976 1.36577 0
M  V30 1242 O 116.26 -5.13833 1.86112 0
M  V30 1243 H 113.354 -0.788954 0.247951 0
M  V30 1244 H 115.9 -1.23179 1.16726 0
M  V30 1245 H 114.672 -3.05856 2.44065 0
M  V30 1246 H 114.295 -3.86625 0.927733 0
M  V30 1247 N 115.292 -0.849877 -1.32721 0
M  V30 1248 C 116.224 -0.248332 -2.27851 0
M  V30 1249 C 117.237 0.577218 -1.52224 0
M  V30 1250 O 118.426 0.402489 -1.73903 0
M  V30 1251 C 115.526 0.668107 -3.32249 0
M  V30 1252 C 114.699 -0.120534 -4.37234 0
M  V30 1253 C 113.758 0.720932 -5.21238 0
M  V30 1254 O 112.784 0.156166 -5.68986 0
M  V30 1255 N 113.986 2.03647 -5.43607 0
M  V30 1256 H 116.751 -1.06575 -2.80111 0
M  V30 1257 H 114.312 -0.709395 -1.45531 0
M  V30 1258 H 116.304 1.23627 -3.85355 0
M  V30 1259 H 114.874 1.38621 -2.80184 0
M  V30 1260 H 114.094 -0.870108 -3.84477 0
M  V30 1261 H 115.382 -0.662406 -5.0447 0
M  V30 1262 H 114.78 2.51871 -5.06535 0
M  V30 1263 H 113.337 2.55287 -5.99727 0
M  V30 1264 N 116.77 1.45427 -0.607355 0
M  V30 1265 C 117.995 2.07124 -0.107006 0
M  V30 1266 C 118.42 1.44906 1.19933 0
M  V30 1267 O 117.778 0.541687 1.73019 0
M  V30 1268 C 117.826 3.60595 0.0194119 0
M  V30 1269 O 116.93 3.98285 1.0697 0
M  V30 1270 H 116.271 0.659868 -0.0739597 0
M  V30 1271 H 118.801 1.86683 -0.837297 0
M  V30 1272 H 118.811 4.07419 0.2177 0
M  V30 1273 H 117.486 4.05266 -0.934453 0
M  V30 1274 H 116.063 3.63133 0.847889 0
M  V30 1275 N 118.248 0.346503 1.53744 0
M  V30 1276 C 119.488 -0.249413 2.02873 0
M  V30 1277 C 119.852 -1.47532 1.22876 0
M  V30 1278 O 121.053 -2.1456 1.61918 0
M  V30 1279 C 119.324 -0.552909 3.53097 0
M  V30 1280 S 120.883 -1.12521 4.24128 0
M  V30 1281 H 117.701 -0.074042 0.707134 0
M  V30 1282 H 120.303 0.48495 1.8939 0
M  V30 1283 H 119.007 0.347083 4.0893 0
M  V30 1284 H 118.538 -1.31686 3.70705 0
M  V30 1285 H 120.553 -2.41075 4.33702 0
M  V30 1286 N 119.726 -1.57421 0.075193 0
M  V30 1287 C 120.973 -1.93618 -0.593146 0
M  V30 1288 C 121.301 -0.955484 -1.69413 0
M  V30 1289 O 120.556 0.0283251 -1.9568 0
M  V30 1290 C 120.855 -3.36428 -1.20626 0
M  V30 1291 C 120.521 -4.50307 -0.231078 0
M  V30 1292 C 119.183 -4.81186 0.0371936 0
M  V30 1293 C 121.535 -5.19374 0.435888 0
M  V30 1294 C 118.863 -5.78466 0.979461 0
M  V30 1295 C 121.215 -6.17665 1.3665 0
M  V30 1296 C 119.879 -6.46958 1.6432 0
M  V30 1297 H 119.149 -0.708499 -0.217047 0
M  V30 1298 H 121.796 -1.90937 0.146793 0
M  V30 1299 H 120.101 -3.35592 -2.02201 0
M  V30 1300 H 121.798 -3.61727 -1.73073 0
M  V30 1301 H 118.388 -4.26227 -0.450357 0
M  V30 1302 H 122.572 -4.95711 0.241748 0
M  V30 1303 H 117.828 -5.99487 1.20106 0
M  V30 1304 H 122.002 -6.70284 1.88924 0
M  V30 1305 H 119.629 -7.2215 2.37494 0
M  V30 1306 N 121.204 0.198386 -1.56346 0
M  V30 1307 C 122.167 1.22952 -1.93431 0
M  V30 1308 C 123.167 1.38611 -0.815092 0
M  V30 1309 O 124.357 1.36479 -1.08255 0
M  V30 1310 C 121.489 2.59946 -2.20546 0
M  V30 1311 H 122.682 0.912626 -2.85677 0
M  V30 1312 H 120.235 0.43977 -1.49986 0
M  V30 1313 H 120.97 2.96696 -1.30927 0
M  V30 1314 H 120.755 2.49953 -3.02102 0
M  V30 1315 H 122.245 3.3431 -2.50253 0
M  V30 1316 N 122.682 1.50554 0.465978 0
M  V30 1317 C 123.928 1.62038 1.21949 0
M  V30 1318 C 124.261 0.322116 1.9151 0
M  V30 1319 O 123.536 -0.676723 1.82348 0
M  V30 1320 C 123.819 2.80421 2.25912 0
M  V30 1321 C 123.672 4.20144 1.60622 0
M  V30 1322 C 124.991 2.94354 3.27176 0
M  V30 1323 H 122.11 0.589752 0.441998 0
M  V30 1324 H 124.752 1.82956 0.51257 0
M  V30 1325 H 122.902 2.62717 2.86203 0
M  V30 1326 H 124.574 4.49449 1.03889 0
M  V30 1327 H 122.817 4.24165 0.909211 0
M  V30 1328 H 123.488 4.98914 2.36196 0
M  V30 1329 H 125.964 3.10578 2.76913 0
M  V30 1330 H 124.84 3.788 3.97242 0
M  V30 1331 H 125.101 2.05186 3.916 0
M  V30 1332 N 124.16 -0.719506 1.40217 0
M  V30 1333 C 125.406 -1.48152 1.38488 0
M  V30 1334 C 125.739 -1.94195 -0.0141867 0
M  V30 1335 O 125.014 -1.67884 -0.982096 0
M  V30 1336 C 125.297 -2.71035 2.37091 0
M  V30 1337 C 125.15 -2.30912 3.86005 0
M  V30 1338 C 126.469 -3.73182 2.33288 0
M  V30 1339 H 123.588 -0.537395 0.504357 0
M  V30 1340 H 126.23 -0.821472 1.71324 0
M  V30 1341 H 124.38 -3.27352 2.0922 0
M  V30 1342 H 126.052 -1.80107 4.24687 0
M  V30 1343 H 124.295 -1.62958 4.02029 0
M  V30 1344 H 124.966 -3.18978 4.50508 0
M  V30 1345 H 127.442 -3.26485 2.57966 0
M  V30 1346 H 126.318 -4.56806 3.04334 0
M  V30 1347 H 126.579 -4.21202 1.34317 0
M  V30 1348 N 125.638 -1.25649 -0.95132 0
M  V30 1349 C 126.568 -1.08808 -2.06599 0
M  V30 1350 C 127.549 0.00382547 -1.701 0
M  V30 1351 O 128.734 -0.166325 -1.93486 0
M  V30 1352 C 125.864 -0.709542 -3.39975 0
M  V30 1353 C 124.818 -1.75206 -3.90496 0
M  V30 1354 C 124.144 -1.22811 -5.20405 0
M  V30 1355 C 125.444 -3.15153 -4.16504 0
M  V30 1356 H 127.138 -2.02048 -2.20946 0
M  V30 1357 H 124.684 -0.972835 -1.06169 0
M  V30 1358 H 126.637 -0.578649 -4.17408 0
M  V30 1359 H 125.361 0.258556 -3.25575 0
M  V30 1360 H 124.02 -1.87145 -3.15234 0
M  V30 1361 H 123.668 -0.250145 -5.02378 0
M  V30 1362 H 123.368 -1.92492 -5.55176 0
M  V30 1363 H 124.892 -1.10968 -6.00432 0
M  V30 1364 H 126.306 -3.06349 -4.84586 0
M  V30 1365 H 124.703 -3.82333 -4.62538 0
M  V30 1366 H 125.773 -3.61966 -3.22658 0
M  V30 1367 N 127.117 1.15442 -1.07289 0
M  V30 1368 C 128.365 1.85845 -0.794096 0
M  V30 1369 C 128.686 1.82692 0.681809 0
M  V30 1370 O 127.956 1.26741 1.49377 0
M  V30 1371 H 126.536 0.688089 -0.290763 0
M  V30 1372 H 129.198 1.39947 -1.3565 0
M  V30 1373 H 128.294 2.91001 -1.12804 0
M  V30 1374 N 128.595 0.856903 1.32268 0
M  V30 1375 C 129.843 0.460474 1.96784 0
M  V30 1376 C 130.164 -0.987701 1.68135 0
M  V30 1377 O 129.434 -1.69058 0.989765 0
M  V30 1378 H 128.014 0.167289 0.728027 0
M  V30 1379 H 130.676 1.09383 1.61312 0
M  V30 1380 H 129.772 0.60739 3.06133 0
M  V30 1381 N 130.073 -1.45103 0.615059 0
M  V30 1382 C 131.484 -1.85654 0.197383 0
M  V30 1383 C 131.835 -1.51433 -1.24749 0
M  V30 1384 O 130.96 -0.944608 -1.94695 0
M  V30 1385 C 131.555 -3.36972 0.351448 0
M  V30 1386 C 130.114 -3.76398 -0.011593 0
M  V30 1387 C 129.261 -2.69024 0.672394 0
M  V30 1388 H 132.212 -1.35797 0.821263 0
M  V30 1389 H 132.233 -3.78239 -0.414227 0
M  V30 1390 H 131.745 -3.61847 1.40314 0
M  V30 1391 H 129.846 -3.5714 -1.06217 0
M  V30 1392 H 129.959 -4.77532 0.387265 0
M  V30 1393 H 128.323 -2.54465 0.109284 0
M  V30 1394 H 129.106 -2.96735 1.72636 0
M  V30 1395 N 131.551 -0.354651 -1.53558 0
M  V30 1396 C 132.483 0.5315 -2.22952 0
M  V30 1397 C 133.496 1.05503 -1.23988 0
M  V30 1398 O 134.685 0.963279 -1.50277 0
M  V30 1399 C 131.785 1.74538 -2.90499 0
M  V30 1400 C 130.958 1.35524 -4.15875 0
M  V30 1401 C 130.017 2.42999 -4.66731 0
M  V30 1402 O 129.043 2.05844 -5.30676 0
M  V30 1403 N 130.245 3.74423 -4.43608 0
M  V30 1404 H 133.01 -0.0628615 -2.99634 0
M  V30 1405 H 130.571 -0.179302 -1.60904 0
M  V30 1406 H 132.563 2.45892 -3.21433 0
M  V30 1407 H 131.133 2.24686 -2.17336 0
M  V30 1408 H 130.353 0.471998 -3.91364 0
M  V30 1409 H 131.641 1.07071 -4.97406 0
M  V30 1410 H 131.039 4.07391 -3.92491 0
M  V30 1411 H 129.596 4.41913 -4.7912 0
M  V30 1412 N 133.029 1.57378 -0.0835403 0
M  V30 1413 C 133.939 2.16897 0.894021 0
M  V30 1414 C 134.955 1.13528 1.31861 0
M  V30 1415 O 136.131 1.45848 1.3889 0
M  V30 1416 C 133.196 2.72831 2.13925 0
M  V30 1417 C 132.257 3.91115 1.76997 0
M  V30 1418 C 131.49 4.44371 2.95584 0
M  V30 1419 O 131.713 3.96596 4.09961 0
M  V30 1420 O 130.647 5.35549 2.74719 0
M  V30 1421 H 134.473 3.00814 0.417679 0
M  V30 1422 H 132.058 1.48741 0.140181 0
M  V30 1423 H 133.94 3.0863 2.86924 0
M  V30 1424 H 132.615 1.91967 2.60635 0
M  V30 1425 H 131.522 3.60148 1.01214 0
M  V30 1426 H 132.855 4.73307 1.3506 0
M  V30 1427 N 134.507 -0.190092 1.56449 0
M  V30 1428 C 135.735 -0.925772 1.85033 0
M  V30 1429 C 136.15 -1.76638 0.666658 0
M  V30 1430 O 135.507 -1.78822 -0.364565 0
M  V30 1431 C 135.558 -1.81786 3.12468 0
M  V30 1432 O 135.279 -1.01118 4.26271 0
M  V30 1433 C 136.78 -2.6648 3.54265 0
M  V30 1434 H 134 -0.269872 0.614337 0
M  V30 1435 H 136.544 -0.195837 2.0356 0
M  V30 1436 H 134.699 -2.50136 2.95822 0
M  V30 1437 H 135.113 -1.61956 4.98869 0
M  V30 1438 H 136.587 -3.24722 4.46385 0
M  V30 1439 H 137.064 -3.40434 2.77491 0
M  V30 1440 H 137.67 -2.03493 3.73458 0
M  V30 1441 N 135.985 -1.50799 -0.457987 0
M  V30 1442 C 137.233 -1.62121 -1.2067 0
M  V30 1443 C 137.554 -0.329793 -1.92191 0
M  V30 1444 O 136.824 0.653409 -1.84682 0
M  V30 1445 H 135.404 -0.597441 -0.448411 0
M  V30 1446 H 138.066 -1.87637 -0.527096 0
M  V30 1447 H 137.162 -2.43882 -1.94751 0
M  V30 1448 N 137.463 0.71206 -1.40597 0
M  V30 1449 C 138.395 1.83704 -1.37061 0
M  V30 1450 C 139.408 1.60453 -0.275426 0
M  V30 1451 O 140.597 1.70262 -0.53602 0
M  V30 1452 C 137.697 3.20172 -1.11099 0
M  V30 1453 C 136.87 3.7059 -2.3234 0
M  V30 1454 C 135.929 4.85681 -2.02485 0
M  V30 1455 O 134.955 4.9815 -2.75382 0
M  V30 1456 N 136.157 5.71735 -1.00497 0
M  V30 1457 H 138.922 1.87235 -2.34016 0
M  V30 1458 H 136.483 0.893739 -1.34996 0
M  V30 1459 H 138.475 3.94768 -0.891064 0
M  V30 1460 H 137.045 3.11767 -0.227989 0
M  V30 1461 H 136.265 2.87085 -2.7014 0
M  V30 1462 H 137.553 4.01011 -3.13157 0
M  V30 1463 H 136.951 5.64275 -0.401298 0
M  V30 1464 H 135.508 6.463 -0.844942 0
M  V30 1465 N 138.941 1.26152 0.944643 0
M  V30 1466 C 139.871 1.09902 2.06019 0
M  V30 1467 C 140.852 0.00519538 1.70099 0
M  V30 1468 O 142.037 0.176583 1.93396 0
M  V30 1469 C 139.167 0.727562 3.39594 0
M  V30 1470 C 138.121 1.77274 3.89561 0
M  V30 1471 C 137.447 1.25569 5.19747 0
M  V30 1472 C 138.747 3.17357 4.14827 0
M  V30 1473 H 140.441 2.03217 2.19871 0
M  V30 1474 H 137.987 0.978452 1.05652 0
M  V30 1475 H 139.94 0.600777 4.17095 0
M  V30 1476 H 138.664 -0.241287 3.25707 0
M  V30 1477 H 137.323 1.88814 3.14237 0
M  V30 1478 H 136.971 0.276783 5.02238 0
M  V30 1479 H 136.671 1.95433 5.54148 0
M  V30 1480 H 138.195 1.1415 5.99835 0
M  V30 1481 H 139.609 3.08914 4.82954 0
M  V30 1482 H 138.006 3.84781 4.60504 0
M  V30 1483 H 139.076 3.63673 3.20734 0
M  V30 1484 N 140.419 -1.14872 1.07899 0
M  V30 1485 C 141.349 -2.2193 0.725887 0
M  V30 1486 C 142.33 -1.67622 -0.28927 0
M  V30 1487 O 143.515 -1.93533 -0.160787 0
M  V30 1488 C 140.645 -3.47061 0.128856 0
M  V30 1489 C 139.599 -4.14363 1.07178 0
M  V30 1490 C 138.925 -5.33636 0.337229 0
M  V30 1491 C 140.225 -4.63492 2.40775 0
M  V30 1492 H 141.919 -2.51724 1.62097 0
M  V30 1493 H 139.465 -1.20991 0.780838 0
M  V30 1494 H 141.418 -4.21199 -0.130147 0
M  V30 1495 H 140.142 -3.16617 -0.80134 0
M  V30 1496 H 138.801 -3.42173 1.3158 0
M  V30 1497 H 138.449 -4.99449 -0.596606 0
M  V30 1498 H 138.149 -5.79609 0.965788 0
M  V30 1499 H 139.673 -6.10539 0.0861567 0
M  V30 1500 H 141.087 -5.2913 2.20669 0
M  V30 1501 H 139.484 -5.20148 2.99276 0
M  V30 1502 H 140.554 -3.78834 3.02676 0
M  V30 1503 N 141.898 -0.863906 -1.31812 0
M  V30 1504 C 142.808 -0.318461 -2.32428 0
M  V30 1505 C 143.824 0.568496 -1.64451 0
M  V30 1506 O 145 0.46666 -1.95919 0
M  V30 1507 C 142.065 0.476355 -3.43412 0
M  V30 1508 C 141.126 -0.43784 -4.27061 0
M  V30 1509 C 140.359 0.319138 -5.32745 0
M  V30 1510 O 140.582 1.54799 -5.48993 0
M  V30 1511 O 139.516 -0.319861 -6.01049 0
M  V30 1512 H 143.342 -1.15229 -2.80991 0
M  V30 1513 H 140.927 -0.627103 -1.35602 0
M  V30 1514 H 142.809 0.927156 -4.11074 0
M  V30 1515 H 141.484 1.28683 -2.97022 0
M  V30 1516 H 140.391 -0.937013 -3.62175 0
M  V30 1517 H 141.724 -1.21375 -4.77 0
M  V30 1518 N 143.376 1.44774 -0.622745 0
M  V30 1519 C 144.326 2.2774 0.108889 0
M  V30 1520 C 145.31 1.38189 0.824175 0
M  V30 1521 O 146.502 1.62063 0.711664 0
M  V30 1522 C 143.631 3.25353 1.09546 0
M  V30 1523 C 142.717 4.22392 0.380232 0
M  V30 1524 N 143.108 5.02388 -0.586535 0
M  V30 1525 C 141.406 4.41588 0.625792 0
M  V30 1526 C 142.107 5.72894 -1.00834 0
M  V30 1527 N 141.083 5.42479 -0.348878 0
M  V30 1528 H 144.885 2.86993 -0.63341 0
M  V30 1529 H 142.399 1.5611 -0.447589 0
M  V30 1530 H 144.396 3.83538 1.63414 0
M  V30 1531 H 143.056 2.6766 1.83815 0
M  V30 1532 H 144.067 5.0885 -0.963975 0
M  V30 1533 H 140.744 3.95003 1.352 0
M  V30 1534 H 142.134 6.47158 -1.80656 0
M  V30 1535 N 144.854 0.36279 1.53368 0
M  V30 1536 C 145.801 -0.485008 2.25646 0
M  V30 1537 C 146.771 -1.07982 1.2621 0
M  V30 1538 O 147.956 -1.11284 1.54986 0
M  V30 1539 C 145.096 -1.62023 3.04701 0
M  V30 1540 C 144.209 -1.05086 4.19024 0
M  V30 1541 C 143.344 -2.15496 4.85525 0
M  V30 1542 C 142.383 -1.5601 5.91884 0
M  V30 1543 N 141.52 -2.60241 6.52088 0
M  V30 1544 H 146.36 0.137864 2.97681 0
M  V30 1545 H 143.897 0.0798061 1.46883 0
M  V30 1546 H 145.855 -2.28887 3.48807 0
M  V30 1547 H 144.485 -2.2138 2.34927 0
M  V30 1548 H 143.537 -0.27259 3.79422 0
M  V30 1549 H 144.849 -0.575926 4.95464 0
M  V30 1550 H 144.003 -2.90186 5.32801 0
M  V30 1551 H 142.742 -2.66341 4.08551 0
M  V30 1552 H 141.747 -0.798338 5.43973 0
M  V30 1553 H 142.972 -1.05994 6.70777 0
M  V30 1554 H 140.918 -3.10304 5.77968 0
M  V30 1555 H 140.835 -2.17426 7.24059 0
M  V30 1556 H 142.103 -3.34641 7.04014 0
M  V30 1557 N 146.332 -1.57332 0.0918853 0
M  V30 1558 C 147.262 -2.16872 -0.865371 0
M  V30 1559 C 148.243 -1.10118 -1.29646 0
M  V30 1560 O 149.428 -1.38242 -1.36392 0
M  V30 1561 C 146.558 -2.74649 -2.12569 0
M  V30 1562 C 145.512 -3.86747 -1.83333 0
M  V30 1563 C 144.838 -4.31212 -3.16166 0
M  V30 1564 C 146.138 -5.10089 -1.1228 0
M  V30 1565 H 147.832 -2.97114 -0.369307 0
M  V30 1566 H 145.378 -1.42918 -0.176194 0
M  V30 1567 H 147.331 -3.14952 -2.7997 0
M  V30 1568 H 146.055 -1.91657 -2.64452 0
M  V30 1569 H 144.714 -3.46978 -1.18331 0
M  V30 1570 H 144.362 -3.45115 -3.6593 0
M  V30 1571 H 144.062 -5.06788 -2.97388 0
M  V30 1572 H 145.586 -4.74146 -3.84731 0
M  V30 1573 H 147 -5.47582 -1.69785 0
M  V30 1574 H 145.397 -5.91073 -1.03693 0
M  V30 1575 H 146.467 -4.84786 -0.105041 0
M  V30 1576 N 147.81 0.181792 -1.56548 0
M  V30 1577 C 149.087 0.926765 -1.72251 0
M  V30 1578 C 149.467 2.00831 -0.650386 0
M  V30 1579 O 148.815 2.26008 0.336521 0
M  V30 1580 C 149.025 1.50106 -3.1507 0
M  V30 1581 C 150.373 1.97805 -3.75711 0
M  V30 1582 O 151.397 1.59922 -3.18282 0
M  V30 1583 O 150.256 2.67555 -4.76525 0
M  V30 1584 H 147.35 0.435506 -0.703039 0
M  V30 1585 H 149.896 0.170443 -1.68842 0
M  V30 1586 H 148.668 0.72212 -3.84579 0
M  V30 1587 H 148.291 2.32186 -3.22763 0
M  V30 1588 N 149.288 1.51039 0.449983 0
M  V30 1589 C 150.518 1.66627 1.22143 0
M  V30 1590 C 150.926 0.357776 1.85786 0
M  V30 1591 O 150.269 -0.672424 1.70951 0
M  V30 1592 C 150.331 2.71562 2.35573 0
M  V30 1593 C 149.995 4.14526 1.92399 0
M  V30 1594 C 150.992 4.99717 1.43453 0
M  V30 1595 C 148.677 4.60559 2.00475 0
M  V30 1596 C 150.671 6.28998 1.03155 0
M  V30 1597 C 148.358 5.8984 1.59788 0
M  V30 1598 C 149.356 6.73886 1.11208 0
M  V30 1599 O 149.044 8.0075 0.710935 0
M  V30 1600 H 148.776 0.562635 0.374724 0
M  V30 1601 H 151.33 1.98146 0.541036 0
M  V30 1602 H 149.56 2.3533 3.06849 0
M  V30 1603 H 151.249 2.76156 2.97478 0
M  V30 1604 H 152.015 4.65361 1.36618 0
M  V30 1605 H 147.894 3.95273 2.37235 0
M  V30 1606 H 151.438 6.9455 0.651663 0
M  V30 1607 H 147.335 6.23713 1.66289 0
M  V30 1608 H 148.103 8.142 0.837913 0
M  V30 1609 N 150.766 -0.704594 1.40972 0
M  V30 1610 C 152.015 -1.46018 1.39146 0
M  V30 1611 C 152.328 -1.956 0.000589254 0
M  V30 1612 O 153.534 -2.71137 -0.1403 0
M  V30 1613 C 151.99 -2.63996 2.4461 0
M  V30 1614 C 151.598 -2.21238 3.89561 0
M  V30 1615 C 153.342 -3.41677 2.51907 0
M  V30 1616 C 151.249 -3.3612 4.86598 0
M  V30 1617 H 150.179 -0.548444 0.517422 0
M  V30 1618 H 152.83 -0.765784 1.66757 0
M  V30 1619 H 151.212 -3.3566 2.10115 0
M  V30 1620 H 152.386 -1.56923 4.33257 0
M  V30 1621 H 150.701 -1.56574 3.85841 0
M  V30 1622 H 153.298 -4.27182 3.2159 0
M  V30 1623 H 153.641 -3.86247 1.55303 0
M  V30 1624 H 154.174 -2.77064 2.85448 0
M  V30 1625 H 150.913 -2.96572 5.84573 0
M  V30 1626 H 150.433 -3.99315 4.47557 0
M  V30 1627 H 152.112 -4.02029 5.06934 0
M  V30 1628 N 152.244 -1.26651 -0.937939 0
M  V30 1629 C 153.491 -1.12387 -1.6845 0
M  V30 1630 C 153.819 0.332208 -1.91642 0
M  V30 1631 O 153.074 1.2602 -1.49725 0
M  V30 1632 C 153.373 -1.84168 -3.06295 0
M  V30 1633 C 153.039 -3.34056 -3.02849 0
M  V30 1634 C 151.701 -3.74942 -3.01616 0
M  V30 1635 C 154.053 -4.29741 -2.9491 0
M  V30 1636 C 151.381 -5.09894 -2.90215 0
M  V30 1637 C 153.733 -5.64738 -2.8505 0
M  V30 1638 C 152.397 -6.0493 -2.82162 0
M  V30 1639 H 151.667 -0.411252 -0.616403 0
M  V30 1640 H 154.314 -1.57134 -1.09459 0
M  V30 1641 H 152.619 -1.319 -3.6893 0
M  V30 1642 H 154.316 -1.70569 -3.62915 0
M  V30 1643 H 150.906 -3.01534 -3.0459 0
M  V30 1644 H 155.09 -3.99133 -2.94969 0
M  V30 1645 H 150.346 -5.40194 -2.86358 0
M  V30 1646 H 154.52 -6.38561 -2.77872 0
M  V30 1647 H 152.147 -7.09457 -2.73084 0
M  V30 1648 N 153.722 1.14298 -1.08507 0
M  V30 1649 C 154.969 1.85359 -0.815373 0
M  V30 1650 C 155.297 1.83001 0.658865 0
M  V30 1651 O 154.552 1.25655 1.50031 0
M  V30 1652 C 154.851 3.33547 -1.28379 0
M  V30 1653 C 154.517 3.56093 -2.76602 0
M  V30 1654 C 153.179 3.61955 -3.17084 0
M  V30 1655 C 155.531 3.64834 -3.72217 0
M  V30 1656 C 152.859 3.74082 -4.51973 0
M  V30 1657 C 155.211 3.78487 -5.06883 0
M  V30 1658 C 153.875 3.82598 -5.46969 0
M  V30 1659 H 153.145 0.678276 -0.298366 0
M  V30 1660 H 155.792 1.35002 -1.35819 0
M  V30 1661 H 154.097 3.86191 -0.660593 0
M  V30 1662 H 155.794 3.86959 -1.05186 0
M  V30 1663 H 152.384 3.52179 -2.4427 0
M  V30 1664 H 156.568 3.59595 -3.42061 0
M  V30 1665 H 151.824 3.75527 -4.82483 0
M  V30 1666 H 155.998 3.84193 -5.80834 0
M  V30 1667 H 153.625 3.91747 -6.51489 0
M  V30 1668 N 155.201 0.870884 1.31352 0
M  V30 1669 C 156.429 0.49677 2.00848 0
M  V30 1670 C 156.844 -0.910998 1.65367 0
M  V30 1671 O 156.201 -1.59696 0.883374 0
M  V30 1672 C 156.252 0.645308 3.55694 0
M  V30 1673 O 155.973 1.99764 3.89905 0
M  V30 1674 C 157.474 0.272326 4.42463 0
M  V30 1675 H 154.694 0.193462 0.642506 0
M  V30 1676 H 157.238 1.1723 1.67563 0
M  V30 1677 H 155.393 0.0173176 3.87396 0
M  V30 1678 H 155.807 2.00607 4.84621 0
M  V30 1679 H 157.281 0.427208 5.50344 0
M  V30 1680 H 157.758 -0.788587 4.32062 0
M  V30 1681 H 158.364 0.876054 4.1618 0
M  V30 1682 N 156.679 -1.44442 0.630414 0
M  V30 1683 C 157.927 -2.01653 0.134351 0
M  V30 1684 C 158.248 -1.49836 -1.24796 0
M  V30 1685 O 157.518 -0.701684 -1.82902 0
M  V30 1686 H 156.098 -0.74554 0.0466769 0
M  V30 1687 H 158.76 -1.76952 0.816955 0
M  V30 1688 H 157.856 -3.11935 0.101498 0
M  V30 1689 N 158.157 -0.370918 -1.53173 0
M  V30 1690 C 159.382 0.220293 -2.06227 0
M  V30 1691 C 159.807 1.41243 -1.24225 0
M  V30 1692 O 159.165 1.79387 -0.262645 0
M  V30 1693 C 159.213 0.586663 -3.55796 0
M  V30 1694 O 158.317 1.68317 -3.76488 0
M  V30 1695 H 157.658 0.0308099 -0.663285 0
M  V30 1696 H 160.188 -0.533068 -1.97534 0
M  V30 1697 H 160.198 0.85617 -3.98916 0
M  V30 1698 H 158.873 -0.285013 -4.14922 0
M  V30 1699 H 157.45 1.40881 -3.45264 0
M  V30 1700 N 159.635 1.57281 -0.100228 0
M  V30 1701 C 161.046 1.81725 0.428107 0
M  V30 1702 C 161.397 1.01619 1.67833 0
M  V30 1703 O 160.522 0.247098 2.14985 0
M  V30 1704 C 161.117 3.29617 0.78347 0
M  V30 1705 C 159.676 3.54808 1.25653 0
M  V30 1706 C 158.823 2.76118 0.255752 0
M  V30 1707 H 161.774 1.55324 -0.325608 0
M  V30 1708 H 161.795 3.4322 1.64256 0
M  V30 1709 H 161.307 3.87893 -0.12665 0
M  V30 1710 H 159.408 3.01868 2.18418 0
M  V30 1711 H 159.521 4.63443 1.21482 0
M  V30 1712 H 157.885 2.43745 0.738956 0
M  V30 1713 H 158.668 3.37145 -0.647136 0
M  V30 1714 N 161.113 -0.173488 1.56642 0
M  V30 1715 C 162.529 -0.525174 1.50712 0
M  V30 1716 C 162.729 -1.8476 0.804107 0
M  V30 1717 O 161.785 -2.49869 0.363574 0
M  V30 1718 C 163.098 -0.559937 2.95441 0
M  V30 1719 C 164.646 -0.647288 3.06234 0
M  V30 1720 C 165.121 -0.712963 4.52417 0
M  V30 1721 N 166.612 -0.775911 4.56655 0
M  V30 1722 C 167.347 -0.847264 5.67106 0
M  V30 1723 N 166.843 -0.879585 6.87194 0
M  V30 1724 N 168.636 -0.886117 5.55071 0
M  V30 1725 H 160.787 0.693681 2.00753 0
M  V30 1726 H 163.05 0.249841 0.914485 0
M  V30 1727 H 162.756 0.343049 3.50023 0
M  V30 1728 H 162.63 -1.40718 3.49969 0
M  V30 1729 H 165.017 -1.5407 2.51687 0
M  V30 1730 H 165.098 0.226586 2.54794 0
M  V30 1731 H 164.742 0.176183 5.07594 0
M  V30 1732 H 164.672 -1.60295 5.0161 0
M  V30 1733 H 167.163 -0.759304 3.70193 0
M  V30 1734 H 167.476 -0.935144 7.67121 0
M  V30 1735 H 165.821 -0.847898 6.89808 0
M  V30 1736 H 169.012 -0.857853 4.60172 0
M  V30 1737 H 169.185 -0.938263 6.41171 0
M  V30 1738 N 162.591 -1.51276 -0.441967 0
M  V30 1739 C 163.837 -1.63958 -1.19355 0
M  V30 1740 C 164.17 -0.352543 -1.90973 0
M  V30 1741 O 163.445 0.647627 -1.83401 0
M  V30 1742 C 163.728 -2.83979 -2.21422 0
M  V30 1743 C 163.581 -4.22646 -1.53918 0
M  V30 1744 C 164.9 -2.99521 -3.22451 0
M  V30 1745 H 162.019 -0.596709 -0.432559 0
M  V30 1746 H 164.661 -1.83748 -0.483398 0
M  V30 1747 H 162.811 -2.67237 -2.81987 0
M  V30 1748 H 164.483 -4.51045 -0.967256 0
M  V30 1749 H 162.726 -4.25558 -0.841615 0
M  V30 1750 H 163.397 -5.02609 -2.28229 0
M  V30 1751 H 165.873 -3.14944 -2.71937 0
M  V30 1752 H 164.749 -3.85072 -3.91166 0
M  V30 1753 H 165.01 -2.11391 -3.88287 0
M  V30 1754 N 164.069 0.697108 -1.41344 0
M  V30 1755 C 165.317 1.45426 -1.40341 0
M  V30 1756 C 165.638 1.94996 -0.0128787 0
M  V30 1757 O 164.908 1.71599 0.945027 0
M  V30 1758 H 163.488 0.539594 -0.516573 0
M  V30 1759 H 166.15 0.825201 -1.76569 0
M  V30 1760 H 165.246 2.31817 -2.08967 0
M  V30 1761 N 165.547 1.27147 0.931209 0
M  V30 1762 C 166.494 1.09568 2.03134 0
M  V30 1763 C 167.464 -0.00222433 1.661 0
M  V30 1764 O 168.649 0.159439 1.90133 0
M  V30 1765 C 165.789 0.745231 3.36957 0
M  V30 1766 C 164.902 1.92041 3.86968 0
M  V30 1767 C 164.037 1.51216 5.09222 0
M  V30 1768 C 163.076 2.65504 5.5152 0
M  V30 1769 N 162.213 2.25291 6.64972 0
M  V30 1770 H 167.053 2.03708 2.17502 0
M  V30 1771 H 164.59 1.01411 1.06556 0
M  V30 1772 H 166.548 0.522878 4.1391 0
M  V30 1773 H 165.178 -0.159202 3.22407 0
M  V30 1774 H 164.23 2.25541 3.06326 0
M  V30 1775 H 165.542 2.77787 4.1429 0
M  V30 1776 H 164.696 1.25084 5.93666 0
M  V30 1777 H 163.435 0.625749 4.83669 0
M  V30 1778 H 162.44 2.92354 4.65628 0
M  V30 1779 H 163.665 3.54761 5.7907 0
M  V30 1780 H 161.611 1.39098 6.41083 0
M  V30 1781 H 161.528 3.04577 6.91931 0
M  V30 1782 H 162.796 2.02398 7.52765 0
M  V30 1783 N 167.025 -1.13721 1.09112 0
M  V30 1784 C 168.274 -1.84275 0.82009 0
M  V30 1785 C 168.587 -1.84253 -0.656509 0
M  V30 1786 O 169.793 -2.50668 -1.04296 0
M  V30 1787 C 168.249 -3.30825 1.41714 0
M  V30 1788 C 167.857 -3.39244 2.92605 0
M  V30 1789 C 169.601 -4.06443 1.22492 0
M  V30 1790 C 167.508 -4.80047 3.45411 0
M  V30 1791 H 166.438 -0.690387 0.30312 0
M  V30 1792 H 169.089 -1.28146 1.31343 0
M  V30 1793 H 167.471 -3.86737 0.851498 0
M  V30 1794 H 168.645 -2.93344 3.55367 0
M  V30 1795 H 166.96 -2.77088 3.10823 0
M  V30 1796 H 169.557 -5.10387 1.59402 0
M  V30 1797 H 169.9 -4.15972 0.165299 0
M  V30 1798 H 170.433 -3.56852 1.75788 0
M  V30 1799 H 167.172 -4.75709 4.50978 0
M  V30 1800 H 166.692 -5.26455 2.87411 0
M  V30 1801 H 168.371 -5.48957 3.42425 0
M  V30 1802 N 168.503 -0.877838 -1.30888 0
M  V30 1803 C 169.749 -0.493426 -1.96706 0
M  V30 1804 C 170.082 0.953504 -1.6918 0
M  V30 1805 O 169.357 1.67266 -0.992594 0
M  V30 1806 C 169.64 -0.760429 -3.51979 0
M  V30 1807 C 169.493 -2.25747 -3.89048 0
M  V30 1808 C 170.812 -0.232148 -4.39487 0
M  V30 1809 H 167.931 -0.180746 -0.714493 0
M  V30 1810 H 170.573 -1.10052 -1.54882 0
M  V30 1811 H 168.723 -0.243715 -3.87735 0
M  V30 1812 H 170.395 -2.84204 -3.63354 0
M  V30 1813 H 168.638 -2.72694 -3.37373 0
M  V30 1814 H 169.309 -2.39491 -4.97341 0
M  V30 1815 H 171.785 -0.674314 -4.106 0
M  V30 1816 H 170.661 -0.448355 -5.47066 0
M  V30 1817 H 170.922 0.866297 -4.33529 0
M  V30 1818 N 169.982 1.44106 -0.638065 0
M  V30 1819 C 170.915 2.27924 0.112161 0
M  V30 1820 C 171.893 1.38945 0.844574 0
M  V30 1821 O 173.077 1.68386 0.847248 0
M  V30 1822 C 170.204 3.18029 1.16512 0
M  V30 1823 C 169.25 4.23163 0.532458 0
M  V30 1824 S 170.083 5.31131 -0.682666 0
M  V30 1825 C 171.239 6.24805 0.37013 0
M  V30 1826 H 171.472 2.91205 -0.598887 0
M  V30 1827 H 169.005 1.48394 -0.426441 0
M  V30 1828 H 170.963 3.70492 1.76766 0
M  V30 1829 H 169.624 2.53955 1.8484 0
M  V30 1830 H 168.817 4.86252 1.32571 0
M  V30 1831 H 168.419 3.74 0.00437644 0
M  V30 1832 H 170.711 6.66042 1.24071 0
M  V30 1833 H 171.654 7.07741 -0.225349 0
M  V30 1834 H 172.062 5.60154 0.699141 0
M  V30 1835 N 171.46 0.379036 1.52974 0
M  V30 1836 C 172.688 -0.20679 2.05864 0
M  V30 1837 C 173.103 -1.41356 1.25155 0
M  V30 1838 O 172.46 -1.8009 0.295588 0
M  V30 1839 C 172.511 -0.587045 3.56702 0
M  V30 1840 O 172.232 0.571776 4.34353 0
M  V30 1841 C 173.733 -1.22983 4.25899 0
M  V30 1842 H 170.953 -0.0336123 0.670158 0
M  V30 1843 H 173.497 0.541298 1.97206 0
M  V30 1844 H 171.652 -1.28504 3.65466 0
M  V30 1845 H 172.066 0.261544 5.23847 0
M  V30 1846 H 173.54 -1.44635 5.32715 0
M  V30 1847 H 174.017 -2.19416 3.80465 0
M  V30 1848 H 174.623 -0.572892 4.21424 0
M  V30 1849 N 172.938 -1.57226 0.108567 0
M  V30 1850 C 173.901 -2.13602 -0.831082 0
M  V30 1851 C 174.901 -1.06841 -1.20173 0
M  V30 1852 O 176.091 -1.32666 -1.12895 0
M  V30 1853 C 173.223 -2.66769 -2.12243 0
M  V30 1854 H 174.416 -2.97951 -0.341317 0
M  V30 1855 H 171.969 -1.55667 -0.14057 0
M  V30 1856 H 172.704 -1.85977 -2.65675 0
M  V30 1857 H 172.489 -3.44839 -1.86625 0
M  V30 1858 H 173.979 -3.10332 -2.79435 0
M  V30 1859 N 174.416 0.165178 -1.56732 0
M  V30 1860 C 175.379 1.18822 -1.95995 0
M  V30 1861 C 176.379 1.3685 -0.84431 0
M  V30 1862 O 177.569 1.34152 -1.11126 0
M  V30 1863 C 174.701 2.5521 -2.26011 0
M  V30 1864 H 175.894 0.851825 -2.87548 0
M  V30 1865 H 173.447 0.407857 -1.50885 0
M  V30 1866 H 174.182 2.93852 -1.37191 0
M  V30 1867 H 173.967 2.43489 -3.07336 0
M  V30 1868 H 175.457 3.28927 -2.57288 0
M  V30 1869 N 175.894 1.51508 0.433938 0
M  V30 1870 C 177.122 1.68157 1.20543 0
M  V30 1871 C 177.537 0.380362 1.84929 0
M  V30 1872 O 176.894 -0.641446 1.70856 0
M  V30 1873 C 176.945 2.79965 2.28696 0
M  V30 1874 O 176.666 4.05045 1.66943 0
M  V30 1875 C 178.167 3.07912 3.18912 0
M  V30 1876 H 175.387 0.56421 0.363191 0
M  V30 1877 H 177.931 1.97941 0.513754 0
M  V30 1878 H 176.086 2.5277 2.93574 0
M  V30 1879 H 176.5 4.67165 2.38448 0
M  V30 1880 H 177.974 3.89719 3.90926 0
M  V30 1881 H 178.451 2.20456 3.79863 0
M  V30 1882 H 179.057 3.36779 2.59731 0
M  V30 1883 N 177.372 -0.689602 1.41712 0
M  V30 1884 C 178.319 -1.80345 1.44029 0
M  V30 1885 C 179.289 -1.63478 0.293948 0
M  V30 1886 O 180.474 -1.84244 0.495869 0
M  V30 1887 C 177.614 -3.18272 1.33405 0
M  V30 1888 C 176.727 -3.46529 2.57956 0
M  V30 1889 C 175.862 -4.74103 2.39582 0
M  V30 1890 C 174.901 -4.95347 3.5958 0
M  V30 1891 N 174.038 -6.14151 3.40239 0
M  V30 1892 H 178.878 -1.77698 2.39222 0
M  V30 1893 H 176.415 -0.867688 1.18784 0
M  V30 1894 H 178.373 -3.97956 1.25246 0
M  V30 1895 H 177.003 -3.2008 0.418164 0
M  V30 1896 H 176.055 -2.61207 2.76542 0
M  V30 1897 H 177.367 -3.58126 3.47199 0
M  V30 1898 H 176.521 -5.61853 2.28924 0
M  V30 1899 H 175.26 -4.64763 1.47805 0
M  V30 1900 H 174.265 -4.06044 3.70686 0
M  V30 1901 H 175.49 -5.06542 4.52318 0
M  V30 1902 H 173.436 -6.06013 2.51167 0
M  V30 1903 H 173.353 -6.26543 4.23061 0
M  V30 1904 H 174.621 -7.04619 3.33365 0
M  V30 1905 N 178.85 -1.27639 -0.924453 0
M  V30 1906 C 179.8 -1.07295 -2.01176 0
M  V30 1907 C 180.784 5.77352e-05 -1.609 0
M  V30 1908 O 181.976 -0.218855 -1.75642 0
M  V30 1909 C 179.105 -0.725592 -3.35544 0
M  V30 1910 C 178.191 -1.83691 -3.82254 0
M  V30 1911 N 178.582 -3.07697 -4.01443 0
M  V30 1912 C 176.88 -1.72433 -4.11319 0
M  V30 1913 C 177.581 -3.80037 -4.40394 0
M  V30 1914 N 176.557 -3.0782 -4.48049 0
M  V30 1915 H 180.359 -2.01399 -2.14046 0
M  V30 1916 H 177.873 -1.18401 -1.11153 0
M  V30 1917 H 179.87 -0.560959 -4.13109 0
M  V30 1918 H 178.53 0.207782 -3.24034 0
M  V30 1919 H 179.541 -3.43424 -3.8766 0
M  V30 1920 H 176.218 -0.862005 -4.08504 0
M  V30 1921 H 177.608 -4.86632 -4.63291 0
M  V30 1922 N 180.328 1.1314 -1.09713 0
M  V30 1923 C 181.258 2.20748 -0.761102 0
M  V30 1924 C 182.239 1.68061 0.262566 0
M  V30 1925 O 183.424 1.93765 0.129977 0
M  V30 1926 C 180.554 3.46812 -0.184054 0
M  V30 1927 C 179.508 4.12606 -1.13757 0
M  V30 1928 C 178.834 5.33031 -0.422083 0
M  V30 1929 C 180.134 4.59603 -2.48118 0
M  V30 1930 H 181.828 2.49113 -1.66082 0
M  V30 1931 H 179.374 1.19734 -0.799987 0
M  V30 1932 H 181.327 4.21353 0.0631215 0
M  V30 1933 H 180.051 3.17851 0.750868 0
M  V30 1934 H 178.71 3.40036 -1.37007 0
M  V30 1935 H 178.358 5.00335 0.517072 0
M  V30 1936 H 178.058 5.77999 -1.05788 0
M  V30 1937 H 179.582 6.10325 -0.183277 0
M  V30 1938 H 180.996 5.25552 -2.29059 0
M  V30 1939 H 179.393 5.15321 -3.07514 0
M  V30 1940 H 180.463 3.73971 -3.08665 0
M  V30 1941 N 181.806 0.884767 1.30421 0
M  V30 1942 C 183.034 0.518044 2.0031 0
M  V30 1943 C 183.449 -0.893408 1.66324 0
M  V30 1944 O 182.806 -1.5875 0.900262 0
M  V30 1945 C 182.857 0.682997 3.54989 0
M  V30 1946 O 182.578 2.03888 3.87764 0
M  V30 1947 C 184.079 0.31924 4.42149 0
M  V30 1948 H 181.299 0.200265 0.640418 0
M  V30 1949 H 183.843 1.19001 1.6631 0
M  V30 1950 H 181.998 0.0584052 3.87356 0
M  V30 1951 H 182.412 2.05735 4.82466 0
M  V30 1952 H 183.886 0.485555 5.4986 0
M  V30 1953 H 184.363 -0.742717 4.32875 0
M  V30 1954 H 184.969 0.920147 4.15227 0
M  V30 1955 N 183.284 -1.43765 0.645699 0
M  V30 1956 C 184.695 -1.85193 0.236719 0
M  V30 1957 C 185.046 -1.54045 -1.21509 0
M  V30 1958 O 184.171 -0.985694 -1.92647 0
M  V30 1959 C 184.766 -3.36151 0.422845 0
M  V30 1960 C 183.325 -3.76338 0.0682492 0
M  V30 1961 C 182.472 -2.67538 0.729306 0
M  V30 1962 H 185.423 -1.34025 0.849883 0
M  V30 1963 H 185.444 -3.79032 -0.333904 0
M  V30 1964 H 184.956 -3.5879 1.47958 0
M  V30 1965 H 183.057 -3.59312 -0.986179 0
M  V30 1966 H 183.17 -4.76603 0.488469 0
M  V30 1967 H 181.534 -2.54176 0.163235 0
M  V30 1968 H 182.317 -2.93006 1.78892 0
M  V30 1969 N 184.763 -0.387143 -1.52771 0
M  V30 1970 C 186.009 0.196025 -2.0185 0
M  V30 1971 C 186.342 1.46641 -1.27319 0
M  V30 1972 O 185.617 1.90889 -0.373032 0
M  V30 1973 C 185.9 0.466136 -3.5707 0
M  V30 1974 C 185.753 -0.819385 -4.42274 0
M  V30 1975 C 187.072 1.25768 -4.21747 0
M  V30 1976 H 184.191 0.0697708 -0.73369 0
M  V30 1977 H 186.833 -0.516286 -1.82851 0
M  V30 1978 H 184.983 1.07293 -3.7339 0
M  V30 1979 H 186.655 -1.4563 -4.37709 0
M  V30 1980 H 184.898 -1.43517 -4.09372 0
M  V30 1981 H 185.569 -0.585065 -5.48891 0
M  V30 1982 H 188.045 0.744167 -4.09391 0
M  V30 1983 H 186.921 1.41541 -5.30337 0
M  V30 1984 H 187.182 2.27228 -3.79236 0
M  V30 1985 N 186.241 1.57166 -0.116904 0
M  V30 1986 C 187.469 1.99473 0.549383 0
M  V30 1987 C 187.884 0.996541 1.60357 0
M  V30 1988 O 187.241 -0.0108731 1.82497 0
M  V30 1989 C 187.292 3.41788 1.17741 0
M  V30 1990 O 187.013 4.37788 0.165362 0
M  V30 1991 C 188.514 3.99216 1.92722 0
M  V30 1992 H 185.734 0.655009 0.145616 0
M  V30 1993 H 188.278 2.03494 -0.202625 0
M  V30 1994 H 186.433 3.38713 1.88021 0
M  V30 1995 H 186.847 5.20806 0.621403 0
M  V30 1996 H 188.321 5.00882 2.31995 0
M  V30 1997 H 188.798 3.3824 2.80161 0
M  V30 1998 H 189.404 4.0583 1.27209 0
M  V30 1999 N 187.719 -0.156864 1.56817 0
M  V30 2000 C 188.649 -1.19589 2.00551 0
M  V30 2001 C 189.63 -1.4536 0.883426 0
M  V30 2002 O 190.815 -1.56449 1.15054 0
M  V30 2003 C 187.945 -2.53143 2.37773 0
M  V30 2004 C 186.899 -2.41913 3.53075 0
M  V30 2005 C 186.225 -3.80088 3.76081 0
M  V30 2006 C 187.525 -1.91157 4.86062 0
M  V30 2007 H 189.219 -0.832293 2.87599 0
M  V30 2008 H 186.765 -0.398918 1.38364 0
M  V30 2009 H 188.718 -3.26047 2.66967 0
M  V30 2010 H 187.442 -2.91319 1.4765 0
M  V30 2011 H 186.101 -1.71462 3.24031 0
M  V30 2012 H 185.749 -4.15683 2.83225 0
M  V30 2013 H 185.449 -3.73439 4.53671 0
M  V30 2014 H 186.973 -4.54556 4.0769 0
M  V30 2015 H 188.387 -2.53846 5.14038 0
M  V30 2016 H 186.784 -1.95422 5.67389 0
M  V30 2017 H 187.854 -0.866673 4.77092 0
M  V30 2018 N 189.197 -1.51736 -0.425897 0
M  V30 2019 C 190.107 -1.76738 -1.54275 0
M  V30 2020 C 191.123 -0.65211 -1.61318 0
M  V30 2021 O 192.299 -0.935654 -1.78346 0
M  V30 2022 C 189.364 -1.89755 -2.90162 0
M  V30 2023 C 188.425 -3.13633 -2.93143 0
M  V30 2024 C 187.658 -3.2602 -4.22548 0
M  V30 2025 O 187.881 -2.44067 -5.15546 0
M  V30 2026 O 186.815 -4.19071 -4.32046 0
M  V30 2027 H 190.641 -2.71502 -1.36089 0
M  V30 2028 H 188.226 -1.36376 -0.610069 0
M  V30 2029 H 190.108 -2.00236 -3.70788 0
M  V30 2030 H 188.783 -0.981785 -3.08452 0
M  V30 2031 H 187.69 -3.08622 -2.11431 0
M  V30 2032 H 189.023 -4.04936 -2.798 0
M  V30 2033 N 190.675 0.682077 -1.42076 0
M  V30 2034 C 191.605 1.80796 -1.47767 0
M  V30 2035 C 192.586 1.6677 -0.334954 0
M  V30 2036 O 193.771 1.863 -0.548264 0
M  V30 2037 C 190.901 3.19038 -1.37229 0
M  V30 2038 C 189.855 3.47789 -2.49453 0
M  V30 2039 C 189.181 4.8553 -2.23975 0
M  V30 2040 C 190.481 3.45411 -3.91776 0
M  V30 2041 H 192.175 1.7629 -2.41997 0
M  V30 2042 H 189.721 0.846721 -1.16476 0
M  V30 2043 H 191.674 3.97528 -1.39821 0
M  V30 2044 H 190.398 3.24204 -0.394907 0
M  V30 2045 H 189.057 2.71657 -2.46166 0
M  V30 2046 H 188.705 4.87337 -1.24547 0
M  V30 2047 H 188.405 5.0573 -2.99184 0
M  V30 2048 H 189.929 5.66312 -2.28304 0
M  V30 2049 H 191.343 4.13882 -3.96705 0
M  V30 2050 H 189.74 3.77145 -4.66778 0
M  V30 2051 H 190.81 2.44122 -4.18966 0
M  V30 2052 N 192.153 1.28127 0.917671 0
M  V30 2053 C 193.401 1.14825 1.66312 0
M  V30 2054 C 193.722 -0.304379 1.9261 0
M  V30 2055 O 192.992 -1.21149 1.53947 0
M  V30 2056 H 191.572 0.421953 0.616413 0
M  V30 2057 H 194.234 1.608 1.10134 0
M  V30 2058 H 193.33 1.68489 2.62712 0
M  V30 2059 N 193.631 -1.12557 1.10312 0
M  V30 2060 C 194.879 -1.83675 0.843091 0
M  V30 2061 C 195.2 -1.84435 -0.633131 0
M  V30 2062 O 194.47 -1.30657 -1.45964 0
M  V30 2063 H 193.05 -0.680138 0.308904 0
M  V30 2064 H 195.712 -1.36301 1.39313 0
M  V30 2065 H 194.808 -2.87908 1.2048 0
M  V30 2066 N 195.109 -0.891671 -1.2995 0
M  V30 2067 C 196.056 -0.361736 -2.27948 0
M  V30 2068 C 197.026 0.551761 -1.56668 0
M  V30 2069 O 198.211 0.478736 -1.84696 0
M  V30 2070 C 195.351 0.411825 -3.42634 0
M  V30 2071 C 194.464 -0.531651 -4.28716 0
M  V30 2072 C 193.599 0.258167 -5.30572 0
M  V30 2073 C 192.638 -0.680349 -6.08307 0
M  V30 2074 N 191.775 0.0745613 -7.0206 0
M  V30 2075 H 196.615 -1.20254 -2.72659 0
M  V30 2076 H 194.152 -0.604352 -1.34112 0
M  V30 2077 H 196.11 0.876304 -4.07893 0
M  V30 2078 H 194.74 1.21715 -2.98974 0
M  V30 2079 H 193.792 -1.11463 -3.63703 0
M  V30 2080 H 195.104 -1.25038 -4.82874 0
M  V30 2081 H 194.258 0.784204 -6.0161 0
M  V30 2082 H 192.997 1.01008 -4.77126 0
M  V30 2083 H 192.002 -1.21796 -5.3614 0
M  V30 2084 H 193.227 -1.43145 -6.63842 0
M  V30 2085 H 191.173 0.808883 -6.50994 0
M  V30 2086 H 191.09 -0.584409 -7.53738 0
M  V30 2087 H 192.358 0.581123 -7.77331 0
M  V30 2088 N 196.587 1.43421 -0.653314 0
M  V30 2089 C 197.535 2.32546 0.0501531 0
M  V30 2090 C 198.529 1.48617 0.812985 0
M  V30 2091 O 199.735 1.64825 0.723375 0
M  V30 2092 H 196.11 0.751185 0.0350032 0
M  V30 2093 H 198.081 2.89602 -0.719261 0
M  V30 2094 C 196.83 3.32925 1.00279 0
M  V30 2095 H 196.153 3.97532 0.425236 0
M  V30 2096 H 197.593 3.9792 1.46409 0
M  V30 2097 C 196.052 2.63532 2.09886 0
M  V30 2098 O 196.582 2.45092 3.18265 0
M  V30 2099 N 194.788 2.22905 1.86445 0
M  V30 2100 H 194.335 2.38103 0.98309 0
M  V30 2101 H 194.293 1.76805 2.59976 0
M  V30 2102 N 198.065 0.39524 1.52563 0
M  V30 2103 C 199.476 -0.0774719 1.86539 0
M  V30 2104 C 199.827 -1.45641 1.31466 0
M  V30 2105 O 198.952 -2.06459 0.648367 0
M  V30 2106 C 199.547 -0.147356 3.38479 0
M  V30 2107 C 198.106 -0.564373 3.72145 0
M  V30 2108 C 197.253 0.269919 2.75983 0
M  V30 2109 H 200.204 0.612876 1.46388 0
M  V30 2110 H 200.225 -0.965343 3.68051 0
M  V30 2111 H 199.737 0.856387 3.78534 0
M  V30 2112 H 197.838 -1.57527 3.37663 0
M  V30 2113 H 197.951 -0.318402 4.78041 0
M  V30 2114 H 196.315 -0.265696 2.5331 0
M  V30 2115 H 197.098 1.27175 3.18875 0
M  V30 2116 N 199.544 -1.57102 0.125237 0
M  V30 2117 C 200.784 -1.97294 -0.534259 0
M  V30 2118 C 201.148 -1.0074 -1.63449 0
M  V30 2119 O 202.349 -1.29893 -2.35332 0
M  V30 2120 C 200.62 -3.41705 -1.04748 0
M  V30 2121 S 202.179 -4.03913 -1.71463 0
M  V30 2122 H 198.997 -0.689517 -0.173458 0
M  V30 2123 H 201.599 -1.94349 0.211797 0
M  V30 2124 H 200.303 -4.09723 -0.235649 0
M  V30 2125 H 199.834 -3.48315 -1.82867 0
M  V30 2126 H 201.849 -3.95182 -3.00077 0
M  V30 2127 N 201.022 0.148545 -1.56898 0
M  V30 2128 C 202.252 0.875118 -1.8715 0
M  V30 2129 C 202.66 1.75322 -0.711262 0
M  V30 2130 O 202.003 1.80745 0.328151 0
M  V30 2131 C 202.065 1.7844 -3.12089 0
M  V30 2132 C 201.729 1.08361 -4.43967 0
M  V30 2133 C 202.726 0.438247 -5.1805 0
M  V30 2134 C 200.411 1.07358 -4.90693 0
M  V30 2135 C 202.405 -0.20779 -6.37061 0
M  V30 2136 C 200.092 0.42373 -6.09629 0
M  V30 2137 C 201.09 -0.215829 -6.82659 0
M  V30 2138 O 200.778 -0.855378 -7.99336 0
M  V30 2139 H 200.51 0.258504 -0.624621 0
M  V30 2140 H 203.064 0.14652 -2.04877 0
M  V30 2141 H 201.294 2.55389 -2.90367 0
M  V30 2142 H 202.983 2.38279 -3.286 0
M  V30 2143 H 203.749 0.437817 -4.8302 0
M  V30 2144 H 199.628 1.5608 -4.33774 0
M  V30 2145 H 203.172 -0.70758 -6.94002 0
M  V30 2146 H 199.069 0.421822 -6.4412 0
M  V30 2147 H 199.837 -0.756892 -8.14993 0
M  V30 2148 N 202.5 1.5196 0.417844 0
M  V30 2149 C 203.746 1.65836 1.16732 0
M  V30 2150 C 204.079 0.382881 1.90388 0
M  V30 2151 O 203.354 -0.618368 1.84408 0
M  V30 2152 C 203.637 2.87466 2.16876 0
M  V30 2153 C 203.49 4.25041 1.47174 0
M  V30 2154 C 204.809 3.04613 3.17646 0
M  V30 2155 H 201.928 0.603515 0.423011 0
M  V30 2156 H 204.57 1.84494 0.454105 0
M  V30 2157 H 202.72 2.71689 2.777 0
M  V30 2158 H 204.392 4.52527 0.895376 0
M  V30 2159 H 202.635 4.26843 0.773806 0
M  V30 2160 H 203.306 5.06176 2.20204 0
M  V30 2161 H 205.782 3.1923 2.66892 0
M  V30 2162 H 204.658 3.91247 3.8499 0
M  V30 2163 H 204.919 2.17541 3.84874 0
M  V30 2164 N 203.978 -0.674533 1.42435 0
M  V30 2165 C 205.255 -1.4305 1.33402 0
M  V30 2166 C 205.635 -2.11081 -0.0284674 0
M  V30 2167 O 204.983 -2.03257 -1.04397 0
M  V30 2168 C 205.193 -2.43272 2.50239 0
M  V30 2169 C 206.541 -3.07907 2.92367 0
M  V30 2170 O 207.565 -2.53599 2.50132 0
M  V30 2171 O 206.424 -4.0632 3.65467 0
M  V30 2172 H 203.518 -0.638076 0.526106 0
M  V30 2173 H 206.064 -0.703235 1.54443 0
M  V30 2174 H 204.836 -1.91803 3.41068 0
M  V30 2175 H 204.459 -3.23479 2.31186 0
M  V30 2176 N 205.456 -1.28612 -0.910864 0
M  V30 2177 C 206.733 -1.06632 -1.63979 0
M  V30 2178 C 207.113 0.393351 -2.07403 0
M  V30 2179 O 206.461 1.37999 -1.82122 0
M  V30 2180 C 206.671 -2.0436 -2.8291 0
M  V30 2181 C 208.019 -2.34666 -3.5386 0
M  V30 2182 O 209.043 -2.02467 -2.93062 0
M  V30 2183 O 207.902 -2.89631 -4.63439 0
M  V30 2184 H 204.996 -0.407737 -0.7195 0
M  V30 2185 H 207.542 -1.39942 -0.959914 0
M  V30 2186 H 206.314 -3.02727 -2.47936 0
M  V30 2187 H 205.937 -1.71714 -3.58609 0
M  V30 2188 N 206.934 1.1197 -1.10907 0
M  V30 2189 C 207.882 2.19927 -0.757303 0
M  V30 2190 C 208.876 1.67564 0.248747 0
M  V30 2191 O 210.082 1.79672 0.108605 0
M  V30 2192 H 206.457 0.716925 -0.226987 0
M  V30 2193 H 208.428 2.46847 -1.67658 0
M  V30 2194 C 207.177 3.47061 -0.210671 0
M  V30 2195 H 206.5 3.87703 -0.976049 0
M  V30 2196 H 207.94 4.24 -0.0026584 0
M  V30 2197 C 206.399 3.19864 1.05777 0
M  V30 2198 O 206.929 3.40049 2.13845 0
M  V30 2199 N 205.135 2.73636 0.978349 0
M  V30 2200 H 204.682 2.5741 0.0988246 0
M  V30 2201 H 204.64 2.55815 1.82773 0
M  V30 2202 N 208.412 0.89855 1.29475 0
M  V30 2203 C 209.652 0.530771 1.97388 0
M  V30 2204 C 210.016 -0.905832 1.69289 0
M  V30 2205 O 211.217 -1.38042 2.30646 0
M  V30 2206 C 209.488 0.81369 3.48014 0
M  V30 2207 S 211.047 0.550048 4.35339 0
M  V30 2208 H 207.865 0.196956 0.683176 0
M  V30 2209 H 210.467 1.16074 1.57312 0
M  V30 2210 H 209.171 1.85749 3.65958 0
M  V30 2211 H 208.702 0.171795 3.93025 0
M  V30 2212 H 210.717 -0.605423 4.92493 0
M  V30 2213 N 209.89 -1.43072 0.660911 0
M  V30 2214 C 211.167 -1.95307 0.107017 0
M  V30 2215 C 211.547 -1.60192 -1.37484 0
M  V30 2216 O 210.895 -0.890949 -2.10415 0
M  V30 2217 C 211.105 -3.47124 0.361402 0
M  V30 2218 C 212.453 -4.23738 0.270455 0
M  V30 2219 O 213.477 -3.54981 0.294382 0
M  V30 2220 O 212.336 -5.46131 0.200737 0
M  V30 2221 H 209.43 -0.826984 -0.00517729 0
M  V30 2222 H 211.976 -1.52972 0.734681 0
M  V30 2223 H 210.748 -3.65837 1.38848 0
M  V30 2224 H 210.371 -3.96475 -0.298953 0
M  V30 2225 N 211.368 -0.403325 -1.52352 0
M  V30 2226 C 212.779 0.0675782 -1.86578 0
M  V30 2227 C 213.13 1.44941 -1.32236 0
M  V30 2228 O 212.255 2.06112 -0.659307 0
M  V30 2229 C 212.85 0.129404 -3.38553 0
M  V30 2230 C 211.409 0.544629 -3.72439 0
M  V30 2231 C 210.556 -0.284551 -2.75836 0
M  V30 2232 H 213.507 -0.620631 -1.46061 0
M  V30 2233 H 213.528 0.94581 -3.68558 0
M  V30 2234 H 213.04 -0.87645 -3.78074 0
M  V30 2235 H 211.141 1.55734 -3.38493 0
M  V30 2236 H 211.254 0.293046 -4.78203 0
M  V30 2237 H 209.618 0.252258 -2.53448 0
M  V30 2238 H 210.401 -1.28865 -3.18196 0
M  V30 2239 N 212.846 1.57033 -0.133567 0
M  V30 2240 C 213.778 2.13176 0.841944 0
M  V30 2241 C 214.791 1.07794 1.22001 0
M  V30 2242 O 215.98 1.35117 1.16643 0
M  V30 2243 C 213.08 2.62847 2.13926 0
M  V30 2244 C 212.253 3.92486 1.93064 0
M  V30 2245 C 211.312 4.27605 3.0666 0
M  V30 2246 O 210.338 4.96168 2.78937 0
M  V30 2247 N 211.54 3.861 4.33483 0
M  V30 2248 H 214.305 2.97503 0.362192 0
M  V30 2249 H 211.866 1.61821 0.05042 0
M  V30 2250 H 213.858 2.83363 2.88942 0
M  V30 2251 H 212.428 1.83319 2.53205 0
M  V30 2252 H 211.648 3.80732 1.02159 0
M  V30 2253 H 212.936 4.77225 1.76447 0
M  V30 2254 H 212.334 3.30828 4.58878 0
M  V30 2255 H 210.891 4.11694 5.05323 0
M  V30 2256 N 214.325 -0.140222 1.56975 0
M  V30 2257 C 215.553 -0.866437 1.87884 0
M  V30 2258 C 215.968 -1.74428 0.722517 0
M  V30 2259 O 215.325 -1.79891 -0.30749 0
M  V30 2260 C 215.376 -1.71753 3.18093 0
M  V30 2261 O 215.097 -0.875056 4.29272 0
M  V30 2262 C 216.598 -2.55074 3.62563 0
M  V30 2263 H 213.818 -0.25019 0.622612 0
M  V30 2264 H 216.362 -0.130977 2.0408 0
M  V30 2265 H 214.517 -2.40598 3.03631 0
M  V30 2266 H 214.931 -1.46002 5.03769 0
M  V30 2267 H 216.405 -3.10356 4.5649 0
M  V30 2268 H 216.882 -3.31434 2.88181 0
M  V30 2269 H 217.488 -1.91509 3.79743 0
M  V30 2270 N 215.803 -1.52179 -0.40978 0
M  V30 2271 C 217.049 -1.66453 -1.15851 0
M  V30 2272 C 217.382 -0.392972 -1.90182 0
M  V30 2273 O 216.657 0.608579 -1.84734 0
M  V30 2274 C 216.94 -2.88612 -2.15349 0
M  V30 2275 C 216.793 -4.25815 -1.44918 0
M  V30 2276 C 218.112 -3.06294 -3.16026 0
M  V30 2277 H 215.231 -0.60575 -0.419805 0
M  V30 2278 H 217.873 -1.84732 -0.444314 0
M  V30 2279 H 216.023 -2.73158 -2.76255 0
M  V30 2280 H 217.695 -4.52995 -0.871365 0
M  V30 2281 H 215.938 -4.27247 -0.751159 0
M  V30 2282 H 216.609 -5.07337 -2.17516 0
M  V30 2283 H 219.085 -3.20641 -2.65195 0
M  V30 2284 H 217.961 -3.93283 -3.8291 0
M  V30 2285 H 218.222 -2.19579 -3.83715 0
M  V30 2286 N 217.281 0.66697 -1.42791 0
M  V30 2287 C 218.244 1.76211 -1.46568 0
M  V30 2288 C 219.244 1.56896 -0.352196 0
M  V30 2289 O 220.434 1.63044 -0.613364 0
M  V30 2290 C 217.566 3.14935 -1.30494 0
M  V30 2291 H 218.759 1.74247 -2.44086 0
M  V30 2292 H 216.312 0.877342 -1.29354 0
M  V30 2293 H 217.047 3.2252 -0.339301 0
M  V30 2294 H 216.832 3.30359 -2.11199 0
M  V30 2295 H 218.322 3.94821 -1.36038 0
M  V30 2296 N 218.759 1.29093 0.90403 0
M  V30 2297 C 219.707 1.13727 2.02901 0
M  V30 2298 C 220.701 0.0539853 1.69314 0
M  V30 2299 O 221.907 0.213469 1.7873 0
M  V30 2300 H 218.282 0.35117 0.664969 0
M  V30 2301 H 220.253 2.08982 2.13001 0
M  V30 2302 C 219.002 0.826066 3.37745 0
M  V30 2303 H 218.325 1.65164 3.64089 0
M  V30 2304 H 219.765 0.758559 4.17159 0
M  V30 2305 C 218.224 -0.470541 3.33598 0
M  V30 2306 O 218.754 -1.49792 3.72727 0
M  V30 2307 N 216.96 -0.474812 2.86695 0
M  V30 2308 H 216.507 0.361692 2.55048 0
M  V30 2309 H 216.465 -1.34236 2.84303 0
M  V30 2310 N 220.237 -1.11381 1.11499 0
M  V30 2311 C 221.653 -1.35143 0.849031 0
M  V30 2312 C 221.853 -1.94515 -0.525938 0
M  V30 2313 O 220.909 -2.1785 -1.27662 0
M  V30 2314 C 222.222 -2.28249 1.95762 0
M  V30 2315 C 223.77 -2.41812 1.98736 0
M  V30 2316 C 224.245 -3.3824 3.088 0
M  V30 2317 N 225.736 -3.45803 3.08179 0
M  V30 2318 C 226.471 -4.20358 3.89982 0
M  V30 2319 N 225.967 -4.97884 4.8175 0
M  V30 2320 N 227.76 -4.15877 3.78157 0
M  V30 2321 H 219.911 -0.712062 2.00109 0
M  V30 2322 H 222.174 -0.376025 0.870235 0
M  V30 2323 H 221.88 -1.91817 2.94787 0
M  V30 2324 H 221.754 -3.28473 1.85433 0
M  V30 2325 H 224.141 -2.77518 1.00338 0
M  V30 2326 H 224.222 -1.41437 2.13141 0
M  V30 2327 H 223.866 -3.03261 4.07425 0
M  V30 2328 H 223.796 -4.38471 2.91635 0
M  V30 2329 H 226.287 -2.90506 2.41691 0
M  V30 2330 H 226.6 -5.52142 5.40702 0
M  V30 2331 H 224.945 -4.97043 4.85771 0
M  V30 2332 H 228.136 -3.544 3.05808 0
M  V30 2333 H 228.309 -4.73723 4.42143 0
M  V30 2334 N 221.715 -0.905404 -1.28997 0
M  V30 2335 C 222.961 -0.535039 -1.95615 0
M  V30 2336 C 223.294 0.917404 -1.71165 0
M  V30 2337 O 222.569 1.65123 -1.02785 0
M  V30 2338 C 222.852 -0.834918 -3.50287 0
M  V30 2339 C 222.705 -2.33948 -3.84172 0
M  V30 2340 C 224.024 -0.325318 -4.38896 0
M  V30 2341 H 221.143 -0.195861 -0.710498 0
M  V30 2342 H 223.785 -1.13313 -1.52513 0
M  V30 2343 H 221.935 -0.325904 -3.87131 0
M  V30 2344 H 223.607 -2.91847 -3.57243 0
M  V30 2345 H 221.85 -2.79789 -3.31513 0
M  V30 2346 H 222.521 -2.49987 -4.92149 0
M  V30 2347 H 224.997 -0.761256 -4.09077 0
M  V30 2348 H 223.873 -0.564295 -5.45992 0
M  V30 2349 H 224.134 0.774144 -4.35269 0
M  V30 2350 N 223.193 1.4272 -0.668489 0
M  V30 2351 C 224.156 2.292 0.00448567 0
M  V30 2352 C 225.156 1.43001 0.735339 0
M  V30 2353 O 226.346 1.64461 0.57429 0
M  V30 2354 C 223.478 3.25375 1.01705 0
M  V30 2355 H 224.671 2.90199 -0.756608 0
M  V30 2356 H 222.224 1.50254 -0.430506 0
M  V30 2357 H 222.959 2.69301 1.80686 0
M  V30 2358 H 222.744 3.88944 0.496463 0
M  V30 2359 H 224.234 3.90245 1.48655 0
M  V30 2360 N 224.671 0.411399 1.52136 0
M  V30 2361 C 225.917 -0.156262 2.02799 0
M  V30 2362 C 226.272 -1.42613 1.29149 0
M  V30 2363 O 225.565 -1.87592 0.389839 0
M  V30 2364 C 225.759 -0.455872 3.54481 0
M  V30 2365 C 225.588 0.783404 4.42824 0
M  V30 2366 C 224.358 1.30928 4.88043 0
M  V30 2367 C 226.556 1.66217 4.86699 0
M  V30 2368 N 224.538 2.5038 5.6052 0
M  V30 2369 C 225.909 2.70292 5.5798 0
M  V30 2370 C 227.964 1.67966 4.68713 0
M  V30 2371 C 226.667 3.7603 6.13184 0
M  V30 2372 C 228.693 2.72624 5.24815 0
M  V30 2373 C 228.055 3.7542 5.9602 0
M  V30 2374 H 224.154 -0.0186886 0.781777 0
M  V30 2375 H 226.738 0.566255 1.86284 0
M  V30 2376 H 224.909 -1.14743 3.71064 0
M  V30 2377 H 226.641 -1.01261 3.91827 0
M  V30 2378 H 223.396 0.866977 4.65597 0
M  V30 2379 H 223.82 3.10881 6.014 0
M  V30 2380 H 228.462 0.898312 4.13147 0
M  V30 2381 H 226.18 4.55019 6.6782 0
M  V30 2382 H 229.766 2.74887 5.12765 0
M  V30 2383 H 228.646 4.55073 6.38654 0
M  V30 2384 N 226.149 -1.5696 0.141893 0
M  V30 2385 C 227.396 -1.9596 -0.510492 0
M  V30 2386 C 227.724 -1.02648 -1.65208 0
M  V30 2387 O 226.979 -0.0546947 -1.95624 0
M  V30 2388 C 227.278 -3.41242 -1.06249 0
M  V30 2389 C 226.944 -4.50882 -0.0398791 0
M  V30 2390 C 225.606 -4.80595 0.241247 0
M  V30 2391 C 227.958 -5.17058 0.65578 0
M  V30 2392 C 225.286 -5.73792 1.22393 0
M  V30 2393 C 227.638 -6.11313 1.62724 0
M  V30 2394 C 226.302 -6.39407 1.91612 0
M  V30 2395 H 225.572 -0.717068 -0.186802 0
M  V30 2396 H 228.219 -1.90142 0.227643 0
M  V30 2397 H 226.524 -3.43866 -1.87785 0
M  V30 2398 H 228.221 -3.68742 -1.57576 0
M  V30 2399 H 224.811 -4.27754 -0.269174 0
M  V30 2400 H 228.995 -4.94239 0.451779 0
M  V30 2401 H 224.251 -5.93853 1.45424 0
M  V30 2402 H 228.425 -6.61668 2.17183 0
M  V30 2403 H 226.052 -7.11427 2.6791 0
M  V30 2404 N 227.627 0.131896 -1.57047 0
M  V30 2405 C 228.867 0.847972 -1.85981 0
M  V30 2406 C 229.231 1.77655 -0.7282 0
M  V30 2407 O 230.432 2.53322 -0.898968 0
M  V30 2408 C 228.703 1.58919 -3.20124 0
M  V30 2409 S 230.262 2.34862 -3.70655 0
M  V30 2410 H 227.08 0.283273 -0.652133 0
M  V30 2411 H 229.682 0.107057 -1.95207 0
M  V30 2412 H 228.386 0.898771 -4.00438 0
M  V30 2413 H 227.917 2.37073 -3.13942 0
M  V30 2414 H 229.932 3.60344 -3.41126 0
M  V30 2415 N 229.106 1.52395 0.401703 0
M  V30 2416 C 230.336 1.70429 1.1678 0
M  V30 2417 C 230.744 0.416702 1.84554 0
M  V30 2418 O 230.087 -0.617697 1.73003 0
M  V30 2419 C 230.149 2.78919 2.26814 0
M  V30 2420 C 229.813 4.20437 1.79113 0
M  V30 2421 C 230.81 5.04028 1.27482 0
M  V30 2422 C 228.495 4.66704 1.85722 0
M  V30 2423 C 230.489 6.31961 0.830913 0
M  V30 2424 C 228.176 5.94625 1.40942 0
M  V30 2425 C 229.174 6.77082 0.897128 0
M  V30 2426 O 228.862 8.02607 0.455822 0
M  V30 2427 H 228.594 0.574272 0.356634 0
M  V30 2428 H 231.148 1.99767 0.477724 0
M  V30 2429 H 229.378 2.44973 2.99207 0
M  V30 2430 H 231.067 2.8548 2.88541 0
M  V30 2431 H 231.833 4.69471 1.21744 0
M  V30 2432 H 227.712 4.0262 2.24539 0
M  V30 2433 H 231.256 6.96271 0.430368 0
M  V30 2434 H 227.153 6.28688 1.46362 0
M  V30 2435 H 227.921 8.16453 0.578457 0
M  V30 2436 N 230.584 -0.659388 1.43143 0
M  V30 2437 C 231.831 -1.41935 1.44433 0
M  V30 2438 C 232.159 -1.94387 0.0663522 0
M  V30 2439 O 231.414 -1.72314 -0.927706 0
M  V30 2440 C 231.713 -2.62206 2.42864 0
M  V30 2441 C 231.379 -2.28208 3.88886 0
M  V30 2442 C 230.041 -2.18647 4.28657 0
M  V30 2443 C 232.393 -2.00887 4.8093 0
M  V30 2444 C 229.721 -1.79914 5.58433 0
M  V30 2445 C 232.073 -1.63653 6.11065 0
M  V30 2446 C 230.737 -1.52614 6.49819 0
M  V30 2447 H 230.007 -0.519376 0.528517 0
M  V30 2448 H 232.654 -0.750453 1.76183 0
M  V30 2449 H 230.959 -3.34199 2.04495 0
M  V30 2450 H 232.656 -3.2041 2.41119 0
M  V30 2451 H 229.246 -2.36557 3.57406 0
M  V30 2452 H 233.43 -2.07198 4.5098 0
M  V30 2453 H 228.686 -1.69948 5.87305 0
M  V30 2454 H 232.86 -1.41543 6.81864 0
M  V30 2455 H 230.487 -1.22371 7.50286 0
M  V30 2456 N 232.062 -1.29571 -0.897171 0
M  V30 2457 C 233.01 -1.14802 -2.02295 0
M  V30 2458 C 234.004 -0.0629637 -1.69283 0
M  V30 2459 O 235.21 -0.222945 -1.78614 0
M  V30 2460 H 231.585 -0.354692 -0.663097 0
M  V30 2461 H 233.556 -2.10108 -2.11889 0
M  V30 2462 C 232.305 -0.843966 -3.37302 0
M  V30 2463 H 231.628 -1.67093 -3.63208 0
M  V30 2464 H 233.068 -0.780672 -4.16751 0
M  V30 2465 C 231.527 0.452843 -3.33843 0
M  V30 2466 O 232.057 1.47813 -3.73516 0
M  V30 2467 N 230.263 0.459601 -2.86943 0
M  V30 2468 H 229.81 -0.375213 -2.54853 0
M  V30 2469 H 229.768 1.32726 -2.85011 0
M  V30 2470 N 233.54 1.10788 -1.12088 0
M  V30 2471 C 234.503 2.15207 -0.788577 0
M  V30 2472 C 235.503 1.59609 0.195317 0
M  V30 2473 O 236.693 1.74174 -0.0300193 0
M  V30 2474 C 233.825 3.4047 -0.171174 0
M  V30 2475 H 235.018 2.46116 -1.71368 0
M  V30 2476 H 232.571 1.26089 -0.923652 0
M  V30 2477 H 233.306 3.15176 0.763832 0
M  V30 2478 H 233.091 3.82109 -0.879514 0
M  V30 2479 H 234.581 4.17576 0.04496 0
M  V30 2480 N 235.018 0.912232 1.28515 0
M  V30 2481 C 236.266 0.543523 1.94654 0
M  V30 2482 C 236.587 -0.9155 1.72173 0
M  V30 2483 O 235.857 -1.64708 1.06058 0
M  V30 2484 H 234.437 0.198017 0.720277 0
M  V30 2485 H 237.099 1.16126 1.56527 0
M  V30 2486 H 236.195 0.736684 3.03281 0
M  V30 2487 N 236.496 -1.42363 0.676048 0
M  V30 2488 C 237.428 -2.29164 -0.0404605 0
M  V30 2489 C 238.441 -1.43747 -0.764245 0
M  V30 2490 O 239.63 -1.67453 -0.618195 0
M  V30 2491 C 236.73 -3.21196 -1.08103 0
M  V30 2492 C 235.903 -4.35273 -0.430812 0
M  V30 2493 C 234.962 -5.08017 -1.37133 0
M  V30 2494 O 233.988 -5.62494 -0.87116 0
M  V30 2495 N 235.19 -5.13647 -2.70456 0
M  V30 2496 H 237.955 -2.91298 0.704667 0
M  V30 2497 H 235.516 -1.53303 0.520559 0
M  V30 2498 H 237.508 -3.66728 -1.71152 0
M  V30 2499 H 236.078 -2.60505 -1.72788 0
M  V30 2500 H 235.298 -3.92372 0.379209 0
M  V30 2501 H 236.586 -5.08795 0.0221132 0
M  V30 2502 H 235.984 -4.708 -3.1363 0
M  V30 2503 H 234.541 -5.62821 -3.28749 0
M  V30 2504 N 237.974 -0.419461 -1.51915 0
M  V30 2505 C 239.202 0.152136 -2.0634 0
M  V30 2506 C 239.617 1.37988 -1.28859 0
M  V30 2507 O 238.974 1.79243 -0.343232 0
M  V30 2508 C 239.025 0.492266 -3.58133 0
M  V30 2509 O 238.746 -0.686736 -4.32684 0
M  V30 2510 C 240.247 1.11648 -4.2901 0
M  V30 2511 H 237.467 0.0158325 -0.670813 0
M  V30 2512 H 240.011 -0.593394 -1.95702 0
M  V30 2513 H 238.166 1.18769 -3.68745 0
M  V30 2514 H 238.58 -0.400341 -5.2297 0
M  V30 2515 H 240.054 1.3046 -5.36362 0
M  V30 2516 H 240.531 2.09251 -3.86148 0
M  V30 2517 H 241.137 0.460958 -4.22795 0
M  V30 2518 N 239.452 1.56882 -0.150215 0
M  V30 2519 C 240.692 1.98119 0.502804 0
M  V30 2520 C 241.056 1.03327 1.61826 0
M  V30 2521 O 242.257 1.33621 2.33236 0
M  V30 2522 C 240.528 3.43329 0.992988 0
M  V30 2523 S 242.087 4.0659 1.65015 0
M  V30 2524 H 238.905 0.692189 0.162467 0
M  V30 2525 H 241.507 1.93988 -0.242689 0
M  V30 2526 H 240.211 4.10046 0.170436 0
M  V30 2527 H 239.742 3.5118 1.77303 0
M  V30 2528 H 241.757 3.99906 2.93752 0
M  V30 2529 N 240.93 -0.123565 1.57115 0
M  V30 2530 C 242.176 -0.833386 1.84885 0
M  V30 2531 C 242.509 -1.79742 0.735292 0
M  V30 2532 O 241.784 -1.92764 -0.25925 0
M  V30 2533 C 242.067 -1.5873 3.23228 0
M  V30 2534 C 241.92 -0.643183 4.45178 0
M  V30 2535 C 243.239 -2.54453 3.59085 0
M  V30 2536 H 240.358 -0.301518 0.6725 0
M  V30 2537 H 243 -0.097778 1.89748 0
M  V30 2538 H 241.15 -2.21438 3.19214 0
M  V30 2539 H 242.822 -0.0253015 4.61293 0
M  V30 2540 H 241.065 0.0456139 4.33776 0
M  V30 2541 H 241.736 -1.20724 5.38637 0
M  V30 2542 H 244.212 -2.01853 3.63861 0
M  V30 2543 H 243.088 -3.04238 4.5687 0
M  V30 2544 H 243.349 -3.36906 2.86264 0
M  V30 2545 N 242.408 -1.52605 -0.393616 0
M  V30 2546 C 243.371 -1.76415 -1.46323 0
M  V30 2547 C 244.371 -0.634126 -1.47768 0
M  V30 2548 O 245.561 -0.902142 -1.4902 0
M  V30 2549 C 242.693 -1.8607 -2.85641 0
M  V30 2550 H 243.886 -2.71916 -1.26498 0
M  V30 2551 H 241.439 -1.43257 -0.625073 0
M  V30 2552 H 242.174 -0.925378 -3.10817 0
M  V30 2553 H 241.959 -2.68235 -2.85993 0
M  V30 2554 H 243.449 -2.06179 -3.63153 0
M  V30 2555 N 243.887 0.651787 -1.4349 0
M  V30 2556 C 245.298 1.233 -1.40193 0
M  V30 2557 C 245.649 1.9591 -0.106727 0
M  V30 2558 O 244.774 2.01316 0.793773 0
M  V30 2559 C 245.369 2.24257 -2.53957 0
M  V30 2560 C 243.928 2.77852 -2.5392 0
M  V30 2561 C 243.075 1.52517 -2.3159 0
M  V30 2562 H 246.026 0.443717 -1.52371 0
M  V30 2563 H 246.047 3.0646 -2.25528 0
M  V30 2564 H 245.559 1.71382 -3.4821 0
M  V30 2565 H 243.66 3.34786 -1.63551 0
M  V30 2566 H 243.773 3.25299 -3.51735 0
M  V30 2567 H 242.137 1.79915 -1.80285 0
M  V30 2568 H 242.92 1.01574 -3.27929 0
M  V30 2569 N 245.365 1.30045 0.890287 0
M  V30 2570 C 246.642 1.09227 1.62262 0
M  V30 2571 C 247.022 -0.360305 2.08002 0
M  V30 2572 O 246.37 -1.35084 1.84295 0
M  V30 2573 C 246.58 2.08835 2.79623 0
M  V30 2574 C 247.928 2.40266 3.50082 0
M  V30 2575 O 248.952 2.07104 2.89804 0
M  V30 2576 O 247.811 2.96967 4.58773 0
M  V30 2577 H 244.905 0.419132 0.712922 0
M  V30 2578 H 247.451 1.41451 0.937529 0
M  V30 2579 H 246.223 3.06633 2.43089 0
M  V30 2580 H 245.846 1.77397 3.55832 0
M  V30 2581 N 246.843 -1.10192 1.12674 0
M  V30 2582 C 248.073 -1.85713 0.905213 0
M  V30 2583 C 248.481 -1.81056 -0.549108 0
M  V30 2584 O 247.824 -1.19927 -1.39151 0
M  V30 2585 C 247.886 -3.34972 1.30516 0
M  V30 2586 C 247.55 -3.63385 2.77129 0
M  V30 2587 C 248.547 -3.59772 3.75313 0
M  V30 2588 C 246.232 -3.91981 3.14096 0
M  V30 2589 C 248.226 -3.84354 5.08479 0
M  V30 2590 C 245.913 -4.16218 4.47443 0
M  V30 2591 C 246.911 -4.12395 5.44444 0
M  V30 2592 O 246.599 -4.36014 6.75387 0
M  V30 2593 H 246.331 -0.593719 0.323223 0
M  V30 2594 H 248.885 -1.40198 1.50112 0
M  V30 2595 H 247.115 -3.81156 0.652463 0
M  V30 2596 H 248.804 -3.91886 1.05736 0
M  V30 2597 H 249.57 -3.37716 3.48099 0
M  V30 2598 H 245.449 -3.94085 2.39202 0
M  V30 2599 H 248.993 -3.81285 5.84181 0
M  V30 2600 H 244.89 -4.37754 4.74386 0
M  V30 2601 H 245.658 -4.53516 6.8137 0
M  V30 2602 N 248.321 -0.919034 -1.28029 0
M  V30 2603 C 249.567 -0.555757 -1.95036 0
M  V30 2604 C 249.9 0.899198 -1.72128 0
M  V30 2605 O 249.175 1.64023 -1.04531 0
M  V30 2606 C 249.458 -0.872024 -3.49382 0
M  V30 2607 C 249.311 -2.3801 -3.81669 0
M  V30 2608 C 250.63 -0.37185 -4.38526 0
M  V30 2609 H 247.749 -0.203386 -0.708381 0
M  V30 2610 H 250.391 -1.14924 -1.51303 0
M  V30 2611 H 248.541 -0.366946 -3.86763 0
M  V30 2612 H 250.213 -2.9562 -3.54128 0
M  V30 2613 H 248.456 -2.83289 -3.28526 0
M  V30 2614 H 249.127 -2.55192 -4.8947 0
M  V30 2615 H 251.603 -0.804602 -4.08247 0
M  V30 2616 H 250.479 -0.622173 -5.45362 0
M  V30 2617 H 250.74 0.727934 -4.36066 0
M  V30 2618 N 249.799 1.42003 -0.683588 0
M  V30 2619 C 250.729 2.33487 -0.024866 0
M  V30 2620 C 251.71 1.51163 0.779975 0
M  V30 2621 O 252.895 1.79739 0.735362 0
M  V30 2622 C 250.025 3.3487 0.920836 0
M  V30 2623 C 248.979 4.27414 0.223958 0
M  V30 2624 C 248.305 5.19074 1.2832 0
M  V30 2625 C 249.605 5.14445 -0.90242 0
M  V30 2626 H 251.299 2.88819 -0.788921 0
M  V30 2627 H 248.845 1.38873 -0.38083 0
M  V30 2628 H 250.798 3.97787 1.39081 0
M  V30 2629 H 249.522 2.77861 1.71642 0
M  V30 2630 H 248.181 3.65904 -0.225864 0
M  V30 2631 H 247.829 4.58387 2.071 0
M  V30 2632 H 247.529 5.81822 0.821995 0
M  V30 2633 H 249.053 5.84867 1.75392 0
M  V30 2634 H 250.467 5.70998 -0.513272 0
M  V30 2635 H 248.864 5.86072 -1.28997 0
M  V30 2636 H 249.934 4.52322 -1.74737 0
M  V30 2637 N 251.277 0.427512 1.51691 0
M  V30 2638 C 252.517 -0.141524 2.03909 0
M  V30 2639 C 252.881 -1.40811 1.30523 0
M  V30 2640 O 254.082 -2.05676 1.73063 0
M  V30 2641 C 252.353 -0.364962 3.55532 0
M  V30 2642 S 253.912 -0.898812 4.29496 0
M  V30 2643 H 250.73 -0.0364542 0.710065 0
M  V30 2644 H 253.332 0.584659 1.86553 0
M  V30 2645 H 252.036 0.56336 4.06515 0
M  V30 2646 H 251.567 -1.1185 3.77164 0
M  V30 2647 H 253.582 -2.17747 4.45871 0
M  V30 2648 N 252.755 -1.56801 0.158532 0
M  V30 2649 C 253.98 -2.01295 -0.499516 0
M  V30 2650 C 254.405 -1.03799 -1.56867 0
M  V30 2651 O 253.763 -0.0155162 -1.81293 0
M  V30 2652 C 253.811 -3.44469 -1.06647 0
M  V30 2653 O 252.915 -3.50012 -2.18095 0
M  V30 2654 H 252.256 -0.652884 -0.12099 0
M  V30 2655 H 254.786 -2.02958 0.258661 0
M  V30 2656 H 254.796 -3.8351 -1.39227 0
M  V30 2657 H 253.471 -4.14932 -0.283581 0
M  V30 2658 H 252.048 -3.22822 -1.86656 0
M  V30 2659 N 254.233 0.115231 -1.57178 0
M  V30 2660 C 255.644 0.67197 -1.74188 0
M  V30 2661 C 255.995 1.80125 -0.777777 0
M  V30 2662 O 255.12 2.16346 0.0484376 0
M  V30 2663 C 255.715 1.22573 -3.1585 0
M  V30 2664 C 254.274 1.72872 -3.34353 0
M  V30 2665 C 253.421 0.629972 -2.70049 0
M  V30 2666 H 256.372 -0.110712 -1.58313 0
M  V30 2667 H 256.393 2.09535 -3.17609 0
M  V30 2668 H 255.905 0.403598 -3.85996 0
M  V30 2669 H 254.006 2.5755 -2.69256 0
M  V30 2670 H 254.119 1.83557 -4.42542 0
M  V30 2671 H 252.483 1.0645 -2.31388 0
M  V30 2672 H 253.266 -0.181241 -3.42821 0
M  V30 2673 N 255.711 1.52812 0.385517 0
M  V30 2674 C 256.621 1.80766 1.49535 0
M  V30 2675 C 257.637 0.694651 1.59532 0
M  V30 2676 O 258.813 0.982611 1.75803 0
M  V30 2677 C 255.878 1.97381 2.85029 0
M  V30 2678 C 254.939 3.21295 2.84724 0
M  V30 2679 C 254.172 3.37108 4.13756 0
M  V30 2680 O 254.395 2.5765 5.08893 0
M  V30 2681 O 253.329 4.30378 4.20783 0
M  V30 2682 H 257.155 2.75015 1.28842 0
M  V30 2683 H 254.74 1.37946 0.573697 0
M  V30 2684 H 256.622 2.09996 3.65349 0
M  V30 2685 H 255.297 1.06322 3.05741 0
M  V30 2686 H 254.204 3.1412 2.03174 0
M  V30 2687 H 255.537 4.12212 2.68965 0
M  V30 2688 N 257.189 -0.644168 1.43834 0
M  V30 2689 C 258.122 -1.76906 1.44151 0
M  V30 2690 C 259.1 -1.59774 0.301857 0
M  V30 2691 O 260.284 -1.81834 0.496841 0
M  V30 2692 C 257.411 -3.14321 1.26174 0
M  V30 2693 C 256.457 -3.50134 2.43533 0
M  V30 2694 S 257.29 -3.49085 4.06079 0
M  V30 2695 C 258.446 -4.89142 3.90501 0
M  V30 2696 H 258.679 -1.76368 2.39336 0
M  V30 2697 H 256.212 -0.817624 1.30974 0
M  V30 2698 H 258.17 -3.93625 1.16489 0
M  V30 2699 H 256.831 -3.12412 0.325224 0
M  V30 2700 H 256.024 -4.50095 2.26783 0
M  V30 2701 H 255.626 -2.78264 2.4989 0
M  V30 2702 H 257.918 -5.78036 3.53385 0
M  V30 2703 H 258.861 -5.10945 4.90246 0
M  V30 2704 H 259.269 -4.63102 3.22795 0
M  V30 2705 N 258.668 -1.30515 -0.883378 0
M  V30 2706 C 259.6 -1.12846 -1.99496 0
M  V30 2707 C 260.613 -0.0712571 -1.62644 0
M  V30 2708 O 261.802 -0.317432 -1.75655 0
M  V30 2709 C 258.902 -0.699123 -3.3161 0
M  V30 2710 C 258.075 -1.83842 -3.96889 0
M  V30 2711 C 257.134 -1.39737 -5.07307 0
M  V30 2712 O 256.16 -2.10485 -5.28852 0
M  V30 2713 N 257.362 -0.277279 -5.79837 0
M  V30 2714 H 260.127 -2.08585 -2.15203 0
M  V30 2715 H 257.688 -1.22672 -1.05656 0
M  V30 2716 H 259.68 -0.387044 -4.02845 0
M  V30 2717 H 258.25 0.166276 -3.12157 0
M  V30 2718 H 257.47 -2.31853 -3.18807 0
M  V30 2719 H 258.758 -2.60187 -4.37241 0
M  V30 2720 H 258.156 0.3122 -5.64838 0
M  V30 2721 H 256.713 -0.0246623 -6.51795 0
M  V30 2722 N 260.146 1.09593 -1.13257 0
M  V30 2723 C 261.056 2.19739 -0.821691 0
M  V30 2724 C 262.072 1.72926 0.19302 0
M  V30 2725 O 263.248 2.01385 0.0244895 0
M  V30 2726 C 260.313 3.45482 -0.290333 0
M  V30 2727 C 259.374 4.06985 -1.36607 0
M  V30 2728 C 258.607 5.26726 -0.859975 0
M  V30 2729 O 258.83 5.69594 0.303082 0
M  V30 2730 O 257.764 5.7931 -1.63351 0
M  V30 2731 H 261.59 2.48781 -1.74189 0
M  V30 2732 H 259.175 1.18496 -0.909894 0
M  V30 2733 H 261.057 4.214 0.000674022 0
M  V30 2734 H 259.732 3.18047 0.602306 0
M  V30 2735 H 258.639 3.32712 -1.71037 0
M  V30 2736 H 259.972 4.38643 -2.23279 0
M  V30 2737 N 261.624 0.925811 1.2754 0
M  V30 2738 C 263.04 0.625767 1.46821 0
M  V30 2739 C 263.24 -0.825506 1.83814 0
M  V30 2740 O 262.296 -1.60356 1.95044 0
M  V30 2741 C 263.609 1.57402 2.56213 0
M  V30 2742 C 265.157 1.58204 2.70075 0
M  V30 2743 C 265.632 2.51721 3.82623 0
M  V30 2744 N 267.123 2.49917 3.89994 0
M  V30 2745 C 267.858 3.18968 4.76494 0
M  V30 2746 N 267.354 3.97391 5.67496 0
M  V30 2747 N 269.147 3.07996 4.70208 0
M  V30 2748 H 261.298 1.86409 1.01811 0
M  V30 2749 H 263.561 0.800213 0.508295 0
M  V30 2750 H 263.267 2.60925 2.35819 0
M  V30 2751 H 263.141 1.31428 3.53563 0
M  V30 2752 H 265.528 0.554124 2.89851 0
M  V30 2753 H 265.609 1.88226 1.73218 0
M  V30 2754 H 265.253 3.54622 3.63601 0
M  V30 2755 H 265.183 2.18996 4.78903 0
M  V30 2756 H 267.674 1.9296 3.24923 0
M  V30 2757 H 267.987 4.4707 6.30356 0
M  V30 2758 H 266.332 4.01495 5.67298 0
M  V30 2759 H 269.523 2.46223 3.9811 0
M  V30 2760 H 269.696 3.6208 5.37403 0
M  V30 2761 N 263.102 -1.41638 0.69111 0
M  V30 2762 C 264.032 -2.3347 0.037248 0
M  V30 2763 C 265.013 -1.51575 -0.771947 0
M  V30 2764 O 266.198 -1.80126 -0.72582 0
M  V30 2765 C 263.328 -3.35354 -0.903064 0
M  V30 2766 C 262.282 -4.27526 -0.201288 0
M  V30 2767 C 261.608 -5.19747 -1.25565 0
M  V30 2768 C 262.908 -5.13959 0.929689 0
M  V30 2769 H 264.602 -2.88397 0.804227 0
M  V30 2770 H 262.148 -1.38669 0.388189 0
M  V30 2771 H 264.101 -3.98519 -1.36969 0
M  V30 2772 H 262.825 -2.78767 -1.70166 0
M  V30 2773 H 261.484 -3.65779 0.245265 0
M  V30 2774 H 261.132 -4.59479 -2.04666 0
M  V30 2775 H 260.832 -5.8225 -0.791128 0
M  V30 2776 H 262.356 -5.85789 -1.72288 0
M  V30 2777 H 263.77 -5.70718 0.543546 0
M  V30 2778 H 262.167 -5.85379 1.32103 0
M  V30 2779 H 263.237 -4.51389 1.77133 0
M  V30 2780 N 264.58 -0.43555 -1.51462 0
M  V30 2781 C 265.51 0.367376 -2.30592 0
M  V30 2782 C 266.491 1.02263 -1.35928 0
M  V30 2783 O 267.676 1.02661 -1.64847 0
M  V30 2784 C 264.806 1.46983 -3.14664 0
M  V30 2785 C 263.76 0.938161 -4.17591 0
M  V30 2786 C 263.086 2.13622 -4.90173 0
M  V30 2787 C 264.386 -0.0261621 -5.22293 0
M  V30 2788 H 266.08 -0.292969 -2.97963 0
M  V30 2789 H 263.626 -0.14234 -1.43295 0
M  V30 2790 H 265.579 2.03873 -3.688 0
M  V30 2791 H 264.303 2.15843 -2.4511 0
M  V30 2792 H 262.962 0.391481 -3.64504 0
M  V30 2793 H 262.61 2.81098 -4.17124 0
M  V30 2794 H 262.31 1.78688 -5.59772 0
M  V30 2795 H 263.834 2.7107 -5.47132 0
M  V30 2796 H 265.248 0.452384 -5.71512 0
M  V30 2797 H 263.645 -0.287992 -5.99409 0
M  V30 2798 H 264.715 -0.963391 -4.75233 0
M  V30 2799 N 266.058 1.56714 -0.166846 0
M  V30 2800 C 267.469 1.83378 0.350646 0
M  V30 2801 C 267.82 1.08646 1.63372 0
M  V30 2802 O 266.945 0.338058 2.13743 0
M  V30 2803 C 267.54 3.32643 0.642963 0
M  V30 2804 C 266.099 3.59818 1.10491 0
M  V30 2805 C 265.246 2.76954 0.138411 0
M  V30 2806 H 268.197 1.53803 -0.391193 0
M  V30 2807 H 268.218 3.49878 1.49551 0
M  V30 2808 H 267.73 3.87007 -0.291055 0
M  V30 2809 H 265.831 3.1086 2.05418 0
M  V30 2810 H 265.944 4.68178 1.01716 0
M  V30 2811 H 264.308 2.4666 0.634911 0
M  V30 2812 H 265.091 3.34097 -0.789549 0
M  V30 2813 N 267.536 -0.106894 1.57237 0
M  V30 2814 C 268.499 -1.11466 2.0027 0
M  V30 2815 C 269.499 -1.33623 0.894519 0
M  V30 2816 O 270.689 -1.29935 1.16028 0
M  V30 2817 C 267.821 -2.46646 2.35327 0
M  V30 2818 H 269.014 -0.744516 2.90512 0
M  V30 2819 H 266.567 -0.351576 1.52295 0
M  V30 2820 H 267.302 -2.88558 1.48003 0
M  V30 2821 H 267.087 -2.31915 3.16161 0
M  V30 2822 H 268.577 -3.19151 2.69318 0
M  V30 2823 N 269.014 -1.53014 -0.377408 0
M  V30 2824 C 269.944 -1.81589 -1.46791 0
M  V30 2825 C 270.925 -0.668622 -1.56408 0
M  V30 2826 O 272.11 -0.917337 -1.71168 0
M  V30 2827 C 269.24 -1.99519 -2.8427 0
M  V30 2828 C 268.194 -3.15249 -2.89486 0
M  V30 2829 C 267.52 -3.18451 -4.29527 0
M  V30 2830 C 268.82 -4.54084 -2.58079 0
M  V30 2831 H 270.514 -2.7291 -1.23127 0
M  V30 2832 H 268.06 -1.31319 -0.590883 0
M  V30 2833 H 270.013 -2.18092 -3.60575 0
M  V30 2834 H 268.737 -1.04897 -3.09296 0
M  V30 2835 H 267.396 -2.96477 -2.15631 0
M  V30 2836 H 267.044 -2.2149 -4.5161 0
M  V30 2837 H 266.744 -3.962 -4.33934 0
M  V30 2838 H 268.268 -3.39193 -5.07721 0
M  V30 2839 H 269.682 -4.72899 -3.24098 0
M  V30 2840 H 268.079 -5.33987 -2.7382 0
M  V30 2841 H 269.149 -4.60006 -1.53372 0
M  V30 2842 N 270.492 0.636531 -1.44174 0
M  V30 2843 C 271.424 1.7618 -1.46606 0
M  V30 2844 C 272.437 1.58768 -0.360091 0
M  V30 2845 O 273.626 1.67181 -0.625518 0
M  V30 2846 C 270.726 3.13833 -1.27915 0
M  V30 2847 C 269.899 3.57753 -2.51658 0
M  V30 2848 C 268.958 4.74265 -2.27945 0
M  V30 2849 O 267.984 4.82852 -3.01401 0
M  V30 2850 N 269.186 5.65604 -1.30662 0
M  V30 2851 H 271.951 1.74567 -2.43612 0
M  V30 2852 H 269.512 0.820924 -1.39544 0
M  V30 2853 H 271.504 3.8949 -1.09907 0
M  V30 2854 H 270.074 3.10121 -0.39293 0
M  V30 2855 H 269.294 2.72362 -2.84978 0
M  V30 2856 H 270.582 3.83847 -3.33974 0
M  V30 2857 H 269.98 5.61354 -0.699844 0
M  V30 2858 H 268.537 6.40913 -1.18634 0
M  V30 2859 N 271.97 1.30982 0.876444 0
M  V30 2860 C 273.195 1.23373 1.66715 0
M  V30 2861 C 273.62 -0.19885 1.87046 0
M  V30 2862 O 272.978 -1.1427 1.40756 0
M  V30 2863 C 273.026 1.97644 3.01611 0
M  V30 2864 O 272.13 1.30935 3.91062 0
M  V30 2865 H 271.471 0.426279 0.509099 0
M  V30 2866 H 274.001 1.72944 1.09323 0
M  V30 2867 H 274.011 2.06992 3.51594 0
M  V30 2868 H 272.686 3.01829 2.86133 0
M  V30 2869 H 271.263 1.29996 3.49507 0
M  V30 2870 N 273.449 -1.08991 1.13837 0
M  V30 2871 C 274.677 -1.85011 0.926202 0
M  V30 2872 C 275.092 -1.8135 -0.525127 0
M  V30 2873 O 274.449 -1.21287 -1.36366 0
M  V30 2874 C 274.5 -3.32802 1.41155 0
M  V30 2875 O 274.221 -3.36444 2.80601 0
M  V30 2876 C 275.722 -4.25649 1.23847 0
M  V30 2877 H 272.942 -0.584249 0.32999 0
M  V30 2878 H 275.486 -1.37688 1.51202 0
M  V30 2879 H 273.641 -3.77536 0.868631 0
M  V30 2880 H 274.055 -4.28657 3.02248 0
M  V30 2881 H 275.529 -5.27485 1.62675 0
M  V30 2882 H 276.006 -4.38828 0.18065 0
M  V30 2883 H 276.612 -3.86735 1.76964 0
M  V30 2884 N 274.927 -0.932562 -1.27047 0
M  V30 2885 C 276.176 -0.571351 -1.93439 0
M  V30 2886 C 276.489 0.892467 -1.74053 0
M  V30 2887 O 277.695 1.36267 -2.34826 0
M  V30 2888 C 276.151 -0.97106 -3.46552 0
M  V30 2889 C 275.759 -2.4559 -3.74686 0
M  V30 2890 C 277.503 -0.681333 -4.18997 0
M  V30 2891 C 275.41 -2.79475 -5.21198 0
M  V30 2892 H 274.34 -0.209966 -0.724176 0
M  V30 2893 H 276.991 -1.13403 -1.44263 0
M  V30 2894 H 275.373 -0.336983 -3.94564 0
M  V30 2895 H 276.547 -3.13829 -3.37414 0
M  V30 2896 H 274.862 -2.71802 -3.15456 0
M  V30 2897 H 277.459 -0.910939 -5.26883 0
M  V30 2898 H 277.802 0.381628 -4.14547 0
M  V30 2899 H 278.335 -1.27473 -3.76823 0
M  V30 2900 H 275.074 -3.847 -5.30741 0
M  V30 2901 H 274.594 -2.1589 -5.596 0
M  V30 2902 H 276.273 -2.67478 -5.89122 0
M  V30 2903 N 276.405 1.4127 -0.698611 0
M  V30 2904 C 277.633 2.05503 -0.239992 0
M  V30 2905 C 278.048 1.52584 1.11191 0
M  V30 2906 O 277.405 0.675323 1.69545 0
M  V30 2907 C 277.456 3.60987 -0.192429 0
M  V30 2908 O 277.177 4.1195 -1.49094 0
M  V30 2909 C 278.678 4.42371 0.28681 0
M  V30 2910 H 275.898 0.661748 -0.111045 0
M  V30 2911 H 278.442 1.80987 -0.95205 0
M  V30 2912 H 276.597 3.84533 0.470472 0
M  V30 2913 H 277.011 5.06018 -1.38007 0
M  V30 2914 H 278.485 5.51344 0.26896 0
M  V30 2915 H 278.962 4.18699 1.32619 0
M  V30 2916 H 279.568 4.23897 -0.345201 0
M  V30 2917 N 277.883 0.443576 1.51229 0
M  V30 2918 C 279.299 0.0962001 1.5931 0
M  V30 2919 C 279.499 -1.39501 1.45402 0
M  V30 2920 O 278.555 -2.16557 1.29843 0
M  V30 2921 C 279.868 0.621875 2.94199 0
M  V30 2922 C 281.416 0.582865 3.07525 0
M  V30 2923 C 281.891 1.08562 4.44948 0
M  V30 2924 N 283.382 1.04387 4.51284 0
M  V30 2925 C 284.117 1.40368 5.55954 0
M  V30 2926 N 283.613 1.83664 6.68011 0
M  V30 2927 N 285.406 1.32145 5.46346 0
M  V30 2928 H 277.557 1.41376 1.58514 0
M  V30 2929 H 279.82 0.582965 0.747567 0
M  V30 2930 H 279.526 1.66546 3.09767 0
M  V30 2931 H 279.4 0.0502125 3.77167 0
M  V30 2932 H 281.787 -0.451749 2.91622 0
M  V30 2933 H 281.868 1.191 2.26382 0
M  V30 2934 H 281.512 2.11873 4.61598 0
M  V30 2935 H 281.442 0.453956 5.2464 0
M  V30 2936 H 283.933 0.725986 3.70861 0
M  V30 2937 H 284.246 2.0934 7.43906 0
M  V30 2938 H 282.591 1.87596 6.69203 0
M  V30 2939 H 285.782 0.981808 4.57688 0
M  V30 2940 H 285.955 1.60514 6.27805 0
M  V30 2941 N 279.361 -1.56624 0.175154 0
M  V30 2942 C 280.608 -1.96999 -0.468811 0
M  V30 2943 C 280.936 -1.06129 -1.62994 0
M  V30 2944 O 280.191 -0.0961771 -1.95464 0
M  V30 2945 C 280.49 -3.43419 -0.989864 0
M  V30 2946 C 280.156 -4.50866 0.0557687 0
M  V30 2947 C 278.818 -4.79975 0.343134 0
M  V30 2948 C 281.17 -5.15551 0.765308 0
M  V30 2949 C 278.498 -5.71066 1.34536 0
M  V30 2950 C 280.85 -6.07724 1.75654 0
M  V30 2951 C 279.514 -6.35199 2.05132 0
M  V30 2952 H 278.784 -0.720869 -0.17155 0
M  V30 2953 H 281.431 -1.89616 0.267924 0
M  V30 2954 H 279.736 -3.47772 -1.80449 0
M  V30 2955 H 281.433 -3.72002 -1.49719 0
M  V30 2956 H 278.023 -4.28229 -0.178381 0
M  V30 2957 H 282.207 -4.9317 0.556513 0
M  V30 2958 H 277.463 -5.90635 1.57988 0
M  V30 2959 H 281.637 -6.56912 2.31169 0
M  V30 2960 H 279.264 -7.05584 2.8294 0
M  V30 2961 N 280.839 0.0985539 -1.57292 0
M  V30 2962 C 282.069 0.815135 -1.8984 0
M  V30 2963 C 282.477 1.7297 -0.766679 0
M  V30 2964 O 281.82 1.81698 0.270483 0
M  V30 2965 C 281.882 1.6842 -3.17608 0
M  V30 2966 C 281.546 0.94182 -4.4719 0
M  V30 2967 C 282.543 0.273212 -5.19182 0
M  V30 2968 C 280.228 0.916927 -4.9386 0
M  V30 2969 C 282.222 -0.410361 -6.36078 0
M  V30 2970 C 279.909 0.229567 -6.10669 0
M  V30 2971 C 280.907 -0.432902 -6.81627 0
M  V30 2972 O 280.595 -1.10925 -7.9621 0
M  V30 2973 H 280.327 0.238501 -0.632529 0
M  V30 2974 H 282.881 0.0812659 -2.05239 0
M  V30 2975 H 281.111 2.46022 -2.98345 0
M  V30 2976 H 282.8 2.27704 -3.36015 0
M  V30 2977 H 283.566 0.283927 -4.84168 0
M  V30 2978 H 279.445 1.42201 -4.3852 0
M  V30 2979 H 282.989 -0.928013 -6.914 0
M  V30 2980 H 278.886 0.216686 -6.45136 0
M  V30 2981 H 279.654 -1.01579 -8.12172 0
M  V30 2982 N 282.317 1.53212 0.369288 0
M  V30 2983 C 283.565 1.68881 1.11012 0
M  V30 2984 C 283.886 0.441285 1.89941 0
M  V30 2985 O 283.156 -0.544623 1.88177 0
M  V30 2986 H 281.736 0.622569 0.412816 0
M  V30 2987 H 284.398 1.90391 0.416802 0
M  V30 2988 H 283.494 2.54822 1.80201 0
M  V30 2989 N 283.795 -0.628877 1.44509 0
M  V30 2990 C 285.072 -1.38733 1.37886 0
M  V30 2991 C 285.452 -2.11065 0.0387008 0
M  V30 2992 O 284.8 -2.06476 -0.97878 0
M  V30 2993 C 285.01 -2.35188 2.57852 0
M  V30 2994 C 286.358 -2.9845 3.02014 0
M  V30 2995 O 287.382 -2.45513 2.58073 0
M  V30 2996 O 286.241 -3.94487 3.78209 0
M  V30 2997 H 283.335 -0.621015 0.54614 0
M  V30 2998 H 285.881 -0.653744 1.56602 0
M  V30 2999 H 284.653 -1.80855 3.46998 0
M  V30 3000 H 284.276 -3.1596 2.4136 0
M  V30 3001 N 285.273 -1.31445 -0.869486 0
M  V30 3002 C 286.55 -1.11795 -1.60503 0
M  V30 3003 C 286.93 0.327168 -2.08549 0
M  V30 3004 O 286.278 1.32135 -1.8642 0
M  V30 3005 C 286.488 -2.13258 -2.76265 0
M  V30 3006 C 287.836 -2.45805 -3.46215 0
M  V30 3007 O 288.86 -2.11688 -2.86473 0
M  V30 3008 O 287.719 -3.04228 -4.5399 0
M  V30 3009 H 284.813 -0.430421 -0.706163 0
M  V30 3010 H 287.359 -1.42925 -0.914907 0
M  V30 3011 H 286.131 -3.10461 -2.3818 0
M  V30 3012 H 285.754 -1.83035 -3.52964 0
M  V30 3013 N 286.751 1.08385 -1.14413 0
M  V30 3014 C 288.162 1.62258 -0.923535 0
M  V30 3015 C 288.513 1.88691 0.537595 0
M  V30 3016 O 287.638 1.64454 1.40655 0
M  V30 3017 C 288.233 2.94781 -1.67002 0
M  V30 3018 C 286.792 3.45437 -1.495 0
M  V30 3019 C 285.939 2.19668 -1.69238 0
M  V30 3020 H 288.89 0.916086 -1.2959 0
M  V30 3021 H 288.911 3.63229 -1.13334 0
M  V30 3022 H 288.423 2.7551 -2.73342 0
M  V30 3023 H 286.524 3.6981 -0.455097 0
M  V30 3024 H 286.637 4.22173 -2.2651 0
M  V30 3025 H 285.001 2.28849 -1.11804 0
M  V30 3026 H 285.784 2.02905 -2.7692 0
M  V30 3027 N 288.23 0.939286 1.26551 0
M  V30 3028 C 289.162 0.404704 2.25599 0
M  V30 3029 C 290.175 -0.470983 1.55838 0
M  V30 3030 O 291.364 -0.281734 1.76263 0
M  V30 3031 C 288.464 -0.43764 3.36062 0
M  V30 3032 C 287.637 0.421449 4.35365 0
M  V30 3033 C 286.696 -0.36015 5.24966 0
M  V30 3034 O 285.722 0.236167 5.6871 0
M  V30 3035 N 286.924 -1.65715 5.56344 0
M  V30 3036 H 289.689 1.25618 2.72103 0
M  V30 3037 H 287.25 0.807963 1.40298 0
M  V30 3038 H 289.242 -0.967866 3.92956 0
M  V30 3039 H 287.812 -1.18991 2.89067 0
M  V30 3040 H 287.032 1.1329 3.7757 0
M  V30 3041 H 288.32 1.00835 4.98708 0
M  V30 3042 H 287.718 -2.16378 5.22682 0
M  V30 3043 H 286.275 -2.13366 6.15888 0
M  V30 3044 N 289.708 -1.40897 0.706093 0
M  V30 3045 C 290.933 -2.05895 0.249435 0
M  V30 3046 C 291.358 -1.52823 -1.09666 0
M  V30 3047 O 290.716 -0.659589 -1.68876 0
M  V30 3048 C 290.764 -3.59872 0.22904 0
M  V30 3049 O 289.868 -4.04708 -0.792784 0
M  V30 3050 H 289.209 -0.653206 0.119241 0
M  V30 3051 H 291.739 -1.80471 0.96391 0
M  V30 3052 H 291.749 -4.07951 0.0634791 0
M  V30 3053 H 290.424 -3.97866 1.21141 0
M  V30 3054 H 289.001 -3.68111 -0.59572 0
M  V30 3055 N 291.186 -0.45159 -1.50991 0
M  V30 3056 C 292.411 0.110667 -2.07105 0
M  V30 3057 C 292.836 1.3446 -1.31538 0
M  V30 3058 O 292.194 1.77743 -0.357365 0
M  V30 3059 C 292.242 0.397238 -3.58405 0
M  V30 3060 O 291.346 1.48124 -3.84881 0
M  V30 3061 H 290.687 -0.00439271 -0.663985 0
M  V30 3062 H 293.217 -0.637026 -1.9443 0
M  V30 3063 H 293.227 0.64351 -4.02893 0
M  V30 3064 H 291.902 -0.504553 -4.12828 0
M  V30 3065 H 290.479 1.22381 -3.52246 0
M  V30 3066 N 292.664 1.56529 -0.183458 0
M  V30 3067 C 294.075 1.83739 0.331177 0
M  V30 3068 C 294.426 1.10373 1.62211 0
M  V30 3069 O 293.551 0.36071 2.13373 0
M  V30 3070 C 294.146 3.33306 0.607646 0
M  V30 3071 C 292.705 3.60969 1.06668 0
M  V30 3072 C 291.852 2.77086 0.109029 0
M  V30 3073 H 294.803 1.53379 -0.407484 0
M  V30 3074 H 294.824 3.51444 1.45832 0
M  V30 3075 H 294.336 3.86677 -0.332086 0
M  V30 3076 H 292.437 3.13021 2.0211 0
M  V30 3077 H 292.55 4.69231 0.967447 0
M  V30 3078 H 290.914 2.47319 0.608714 0
M  V30 3079 H 291.697 3.33241 -0.82494 0
M  V30 3080 N 294.142 -0.090211 1.57342 0
M  V30 3081 C 295.09 -1.12792 2.03422 0
M  V30 3082 C 296.084 -1.41182 0.936166 0
M  V30 3083 O 297.29 -1.40805 1.12133 0
M  V30 3084 H 293.665 -0.380986 0.648347 0
M  V30 3085 H 295.636 -0.71299 2.89757 0
M  V30 3086 C 294.385 -2.43855 2.47851 0
M  V30 3087 H 293.708 -2.22855 3.31927 0
M  V30 3088 H 295.148 -3.14955 2.83865 0
M  V30 3089 C 293.607 -3.08503 1.3538 0
M  V30 3090 O 294.137 -3.95805 0.685641 0
M  V30 3091 N 292.343 -2.68831 1.10355 0
M  V30 3092 H 291.89 -1.97929 1.64869 0
M  V30 3093 H 291.848 -3.12412 0.353031 0
M  V30 3094 N 295.62 -1.53406 -0.361157 0
M  V30 3095 C 296.55 -1.83136 -1.44857 0
M  V30 3096 C 297.531 -0.685174 -1.5569 0
M  V30 3097 O 298.716 -0.93544 -1.70186 0
M  V30 3098 C 295.846 -2.02522 -2.82138 0
M  V30 3099 C 294.8 -3.18302 -2.86126 0
M  V30 3100 C 294.126 -3.22989 -4.26125 0
M  V30 3101 C 295.426 -4.56796 -2.53248 0
M  V30 3102 H 297.12 -2.74201 -1.20226 0
M  V30 3103 H 294.666 -1.31938 -0.576922 0
M  V30 3104 H 296.619 -2.21904 -3.58241 0
M  V30 3105 H 295.343 -1.08172 -3.08166 0
M  V30 3106 H 294.002 -2.98747 -2.12475 0
M  V30 3107 H 293.65 -2.26267 -4.49235 0
M  V30 3108 H 293.35 -4.00781 -4.29708 0
M  V30 3109 H 294.874 -3.44559 -5.04094 0
M  V30 3110 H 296.288 -4.7631 -3.19064 0
M  V30 3111 H 294.685 -5.36862 -2.68141 0
M  V30 3112 H 295.755 -4.61606 -1.48484 0
M  V30 3113 N 297.098 0.621204 -1.44841 0
M  V30 3114 C 298.346 1.37783 -1.47852 0
M  V30 3115 C 298.667 1.94653 -0.116224 0
M  V30 3116 O 297.937 1.76367 0.852737 0
M  V30 3117 H 296.517 0.511453 -0.544449 0
M  V30 3118 H 299.179 0.730446 -1.80694 0
M  V30 3119 H 298.275 2.20414 -2.20961 0
M  V30 3120 N 298.576 1.31904 0.862503 0
M  V30 3121 C 299.526 1.16772 1.95827 0
M  V30 3122 C 300.51 0.0767098 1.60717 0
M  V30 3123 O 301.702 0.302407 1.74398 0
M  V30 3124 C 298.831 0.884858 3.317 0
M  V30 3125 C 297.917 2.0172 3.73055 0
M  V30 3126 N 298.308 3.265 3.86305 0
M  V30 3127 C 296.606 1.91861 4.02623 0
M  V30 3128 C 297.307 4.00616 4.2176 0
M  V30 3129 N 296.283 3.28847 4.32852 0
M  V30 3130 H 300.085 2.11382 2.04193 0
M  V30 3131 H 297.599 1.2357 1.05377 0
M  V30 3132 H 299.596 0.757419 4.09962 0
M  V30 3133 H 298.256 -0.0529448 3.24657 0
M  V30 3134 H 299.267 3.61529 3.70833 0
M  V30 3135 H 295.944 1.05593 4.03926 0
M  V30 3136 H 297.334 5.08182 4.39546 0
M  V30 3137 N 300.054 -1.07777 1.14986 0
M  V30 3138 C 301.303 -1.79669 0.916617 0
M  V30 3139 C 301.616 -1.87474 -0.557917 0
M  V30 3140 O 302.822 -2.55845 -0.908617 0
M  V30 3141 C 301.278 -3.22848 1.59051 0
M  V30 3142 C 300.886 -3.23257 3.10176 0
M  V30 3143 C 302.63 -3.99379 1.43864 0
M  V30 3144 C 300.537 -4.61063 3.70372 0
M  V30 3145 H 299.467 -0.673349 0.33929 0
M  V30 3146 H 302.118 -1.21003 1.37951 0
M  V30 3147 H 300.5 -3.8168 1.0553 0
M  V30 3148 H 301.674 -2.74095 3.70417 0
M  V30 3149 H 299.989 -2.60222 3.25074 0
M  V30 3150 H 302.586 -5.0122 1.86232 0
M  V30 3151 H 302.929 -4.14511 0.385564 0
M  V30 3152 H 303.462 -3.47032 1.94457 0
M  V30 3153 H 300.201 -4.51135 4.7556 0
M  V30 3154 H 299.721 -5.1048 3.14913 0
M  V30 3155 H 301.4 -5.30034 3.71043 0
M  V30 3156 N 301.532 -0.945985 -1.26051 0
M  V30 3157 C 302.781 -0.591836 -1.92822 0
M  V30 3158 C 303.094 0.873956 -1.7499 0
M  V30 3159 O 304.3 1.33769 -2.36259 0
M  V30 3160 C 302.756 -1.00776 -3.45503 0
M  V30 3161 C 302.364 -2.4955 -3.7206 0
M  V30 3162 C 304.108 -0.725735 -4.1825 0
M  V30 3163 C 302.015 -2.84988 -5.18205 0
M  V30 3164 H 300.945 -0.217635 -0.721908 0
M  V30 3165 H 303.596 -1.14927 -1.43052 0
M  V30 3166 H 301.978 -0.378812 -3.94184 0
M  V30 3167 H 303.152 -3.1739 -3.34066 0
M  V30 3168 H 301.467 -2.75133 -3.12555 0
M  V30 3169 H 304.064 -0.966771 -5.25887 0
M  V30 3170 H 304.407 0.337639 -4.14929 0
M  V30 3171 H 304.94 -1.31463 -3.7545 0
M  V30 3172 H 301.679 -3.90307 -5.26631 0
M  V30 3173 H 301.199 -2.21813 -5.57278 0
M  V30 3174 H 302.878 -2.73712 -5.86252 0
M  V30 3175 N 303.011 1.40521 -0.713556 0
M  V30 3176 C 303.959 2.32549 -0.0485227 0
M  V30 3177 C 304.953 1.51931 0.74922 0
M  V30 3178 O 306.159 1.67745 0.652816 0
M  V30 3179 H 302.534 0.751994 0.00311138 0
M  V30 3180 H 304.505 2.86291 -0.841443 0
M  V30 3181 C 303.254 3.36879 0.860687 0
M  V30 3182 H 302.577 3.98978 0.256246 0
M  V30 3183 H 304.017 4.03772 1.294 0
M  V30 3184 C 302.476 2.72197 1.9852 0
M  V30 3185 O 303.006 2.5837 3.07584 0
M  V30 3186 N 301.212 2.30612 1.76823 0
M  V30 3187 H 300.759 2.42059 0.881217 0
M  V30 3188 H 300.717 1.87672 2.52243 0
M  V30 3189 N 304.489 0.459591 1.5075 0
M  V30 3190 C 305.421 -0.37665 2.26084 0
M  V30 3191 C 306.434 -0.967109 1.30961 0
M  V30 3192 O 307.623 -0.857468 1.56556 0
M  V30 3193 C 304.723 -1.54112 3.01832 0
M  V30 3194 C 303.896 -1.06553 4.24223 0
M  V30 3195 C 302.955 -2.1027 4.82362 0
M  V30 3196 O 301.981 -1.68798 5.43595 0
M  V30 3197 N 303.183 -3.42974 4.68347 0
M  V30 3198 H 305.948 0.269124 2.98489 0
M  V30 3199 H 303.509 0.28972 1.59287 0
M  V30 3200 H 305.501 -2.23165 3.37608 0
M  V30 3201 H 304.071 -2.0918 2.32298 0
M  V30 3202 H 303.291 -0.201274 3.93686 0
M  V30 3203 H 304.579 -0.725516 5.03601 0
M  V30 3204 H 303.977 -3.79385 4.19623 0
M  V30 3205 H 302.534 -4.07858 5.08424 0
M  V30 3206 N 305.967 -1.56429 0.191757 0
M  V30 3207 C 306.914 -2.18936 -0.730454 0
M  V30 3208 C 307.884 -1.13557 -1.21219 0
M  V30 3209 O 309.069 -1.41794 -1.27668 0
M  V30 3210 C 306.209 -2.85013 -1.9458 0
M  V30 3211 C 305.322 -4.04909 -1.50574 0
M  V30 3212 C 304.457 -4.58853 -2.67634 0
M  V30 3213 C 303.496 -5.71114 -2.20217 0
M  V30 3214 N 302.633 -6.19478 -3.30442 0
M  V30 3215 H 307.473 -2.97389 -0.190664 0
M  V30 3216 H 305.01 -1.46869 -0.0823694 0
M  V30 3217 H 306.968 -3.21492 -2.65893 0
M  V30 3218 H 305.598 -2.09129 -2.45896 0
M  V30 3219 H 304.65 -3.74115 -0.688605 0
M  V30 3220 H 305.962 -4.86113 -1.11784 0
M  V30 3221 H 305.116 -4.97619 -3.47074 0
M  V30 3222 H 303.855 -3.76749 -3.09696 0
M  V30 3223 H 302.86 -5.31879 -1.3923 0
M  V30 3224 H 304.085 -6.55033 -1.79189 0
M  V30 3225 H 302.031 -5.40297 -3.72041 0
M  V30 3226 H 301.948 -6.95725 -2.9581 0
M  V30 3227 H 303.216 -6.62898 -4.10106 0
M  V30 3228 N 307.445 0.0818655 -1.57387 0
M  V30 3229 C 308.377 1.12484 -1.997 0
M  V30 3230 C 309.39 1.35564 -0.90146 0
M  V30 3231 O 310.579 1.33982 -1.17945 0
M  V30 3232 C 307.679 2.47778 -2.31213 0
M  V30 3233 C 306.852 2.44793 -3.62485 0
M  V30 3234 C 305.911 3.62117 -3.81782 0
M  V30 3235 O 304.937 3.44005 -4.53486 0
M  V30 3236 N 306.139 4.82094 -3.23367 0
M  V30 3237 H 308.904 0.764585 -2.89783 0
M  V30 3238 H 306.465 0.270664 -1.59621 0
M  V30 3239 H 308.457 3.24891 -2.41304 0
M  V30 3240 H 307.027 2.75843 -1.4707 0
M  V30 3241 H 306.247 1.53134 -3.6324 0
M  V30 3242 H 307.535 2.39889 -4.48699 0
M  V30 3243 H 306.933 4.99713 -2.65148 0
M  V30 3244 H 305.49 5.56753 -3.38923 0
M  V30 3245 N 308.923 1.53595 0.353017 0
M  V30 3246 C 310.17 1.70385 1.09431 0
M  V30 3247 C 310.498 0.462113 1.88931 0
M  V30 3248 O 309.753 -0.556074 1.87633 0
M  V30 3249 C 310.052 2.91313 2.07054 0
M  V30 3250 C 309.718 4.27308 1.43939 0
M  V30 3251 C 308.38 4.64287 1.26454 0
M  V30 3252 C 310.732 5.11829 0.983883 0
M  V30 3253 C 308.06 5.83412 0.620226 0
M  V30 3254 C 310.412 6.31611 0.353516 0
M  V30 3255 C 309.076 6.67293 0.166272 0
M  V30 3256 H 308.346 0.623484 0.400436 0
M  V30 3257 H 310.993 1.87799 0.374655 0
M  V30 3258 H 309.298 2.68463 2.85368 0
M  V30 3259 H 310.995 3.01497 2.64387 0
M  V30 3260 H 307.585 3.98198 1.58543 0
M  V30 3261 H 311.769 4.838 1.10685 0
M  V30 3262 H 307.025 6.09639 0.463681 0
M  V30 3263 H 311.199 6.964 -0.00757555 0
M  V30 3264 H 308.826 7.59461 -0.335047 0
M  V30 3265 N 310.401 -0.613514 1.45168 0
M  V30 3266 C 311.333 -1.73825 1.4939 0
M  V30 3267 C 312.346 -1.58175 0.385304 0
M  V30 3268 O 313.535 -1.66165 0.652036 0
M  V30 3269 C 310.635 -3.11758 1.32891 0
M  V30 3270 C 309.808 -3.53704 2.57317 0
M  V30 3271 C 308.867 -4.70579 2.35462 0
M  V30 3272 O 307.893 -4.77996 3.09044 0
M  V30 3273 N 309.095 -5.63454 1.39644 0
M  V30 3274 H 311.86 -1.70669 2.46358 0
M  V30 3275 H 309.421 -0.79862 1.40832 0
M  V30 3276 H 311.413 -3.87692 1.1609 0
M  V30 3277 H 309.983 -3.09456 0.442218 0
M  V30 3278 H 309.203 -2.67794 2.89275 0
M  V30 3279 H 310.491 -3.78486 3.40038 0
M  V30 3280 H 309.889 -5.6017 0.789062 0
M  V30 3281 H 308.446 -6.38944 1.28816 0
M  V30 3282 N 311.879 -1.3236 -0.855495 0
M  V30 3283 C 313.295 -1.11332 -1.14356 0
M  V30 3284 C 313.495 0.106751 -2.01217 0
M  V30 3285 O 312.551 0.791891 -2.39761 0
M  V30 3286 C 313.864 -2.39237 -1.82171 0
M  V30 3287 C 315.412 -2.44986 -1.9481 0
M  V30 3288 C 315.887 -3.7281 -2.66039 0
M  V30 3289 N 317.378 -3.73787 -2.73565 0
M  V30 3290 C 318.113 -4.69394 -3.29327 0
M  V30 3291 N 317.609 -5.75367 -3.85907 0
M  V30 3292 N 319.402 -4.56893 -3.27423 0
M  V30 3293 H 311.553 -2.10586 -0.277027 0
M  V30 3294 H 313.816 -0.929701 -0.185364 0
M  V30 3295 H 313.522 -3.28431 -1.25802 0
M  V30 3296 H 313.396 -2.50134 -2.82335 0
M  V30 3297 H 315.783 -1.56252 -2.50338 0
M  V30 3298 H 315.864 -2.38043 -0.936448 0
M  V30 3299 H 315.508 -4.61918 -2.11174 0
M  V30 3300 H 315.438 -3.77024 -3.67642 0
M  V30 3301 H 317.929 -2.97189 -2.33424 0
M  V30 3302 H 318.242 -6.44378 -4.26611 0
M  V30 3303 H 316.587 -5.79123 -3.84242 0
M  V30 3304 H 319.778 -3.73269 -2.82467 0
M  V30 3305 H 319.951 -5.31577 -3.7058 0
M  V30 3306 N 313.357 1.07166 -1.15556 0
M  V30 3307 C 314.287 2.16403 -0.877046 0
M  V30 3308 C 315.268 1.69217 0.173111 0
M  V30 3309 O 316.453 1.94181 0.027084 0
M  V30 3310 C 313.583 3.45349 -0.367632 0
M  V30 3311 C 312.537 4.05995 -1.35468 0
M  V30 3312 C 311.863 5.30045 -0.704038 0
M  V30 3313 C 313.163 4.45804 -2.72132 0
M  V30 3314 H 314.857 2.39959 -1.79053 0
M  V30 3315 H 312.403 1.15325 -0.862331 0
M  V30 3316 H 314.356 4.21095 -0.160317 0
M  V30 3317 H 313.08 3.21385 0.581326 0
M  V30 3318 H 311.739 3.32296 -1.54839 0
M  V30 3319 H 311.387 5.02373 0.251128 0
M  V30 3320 H 311.087 5.71579 -1.36277 0
M  V30 3321 H 312.611 6.08495 -0.50654 0
M  V30 3322 H 314.025 5.12671 -2.56595 0
M  V30 3323 H 312.422 4.98296 -3.34397 0
M  V30 3324 H 313.492 3.57083 -3.28054 0
M  V30 3325 N 314.835 0.952656 1.25548 0
M  V30 3326 C 316.251 0.656769 1.4546 0
M  V30 3327 C 316.451 -0.78633 1.85524 0
M  V30 3328 O 315.507 -1.56183 1.98402 0
M  V30 3329 C 316.82 1.62801 2.52817 0
M  V30 3330 C 318.368 1.63897 2.66659 0
M  V30 3331 C 318.843 2.5978 3.77198 0
M  V30 3332 N 320.334 2.58133 3.84606 0
M  V30 3333 C 321.069 3.29003 4.69621 0
M  V30 3334 N 320.565 4.09339 5.58939 0
M  V30 3335 N 322.358 3.179 4.63569 0
M  V30 3336 H 314.509 1.88526 0.978344 0
M  V30 3337 H 316.772 0.810815 0.491206 0
M  V30 3338 H 316.478 2.65869 2.30232 0
M  V30 3339 H 316.352 1.38898 3.50695 0
M  V30 3340 H 318.739 0.615481 2.8861 0
M  V30 3341 H 318.82 1.91858 1.69187 0
M  V30 3342 H 318.464 3.62254 3.55997 0
M  V30 3343 H 318.394 2.29105 4.7415 0
M  V30 3344 H 320.885 1.99809 3.20757 0
M  V30 3345 H 321.198 4.6034 6.20731 0
M  V30 3346 H 319.543 4.13438 5.58654 0
M  V30 3347 H 322.734 2.54612 3.92798 0
M  V30 3348 H 322.907 3.73398 5.29602 0
M  V30 3349 N 316.313 -1.40141 0.720998 0
M  V30 3350 C 317.276 -2.29058 0.0805834 0
M  V30 3351 C 318.276 -1.45632 -0.681758 0
M  V30 3352 O 319.466 -1.6648 -0.512856 0
M  V30 3353 C 316.598 -3.28925 -0.895593 0
M  V30 3354 H 317.791 -2.87191 0.863793 0
M  V30 3355 H 315.344 -1.48553 0.485975 0
M  V30 3356 H 316.079 -2.75822 -1.70566 0
M  V30 3357 H 315.864 -3.90519 -0.351766 0
M  V30 3358 H 317.354 -3.95494 -1.34069 0
M  V30 3359 N 317.792 -0.46758 -1.50504 0
M  V30 3360 C 318.722 0.318381 -2.31319 0
M  V30 3361 C 319.703 0.993564 -1.38066 0
M  V30 3362 O 320.888 0.991411 -1.66987 0
M  V30 3363 C 318.018 1.40275 -3.17711 0
M  V30 3364 C 316.972 0.849373 -4.19487 0
M  V30 3365 C 316.298 2.03177 -4.94594 0
M  V30 3366 C 317.598 -0.136942 -5.2212 0
M  V30 3367 H 319.292 -0.356106 -2.97275 0
M  V30 3368 H 316.838 -0.172703 -1.42961 0
M  V30 3369 H 318.791 1.96004 -3.73042 0
M  V30 3370 H 317.515 2.10596 -2.49634 0
M  V30 3371 H 316.174 0.314076 -3.65252 0
M  V30 3372 H 315.822 2.72187 -4.22993 0
M  V30 3373 H 315.522 1.66774 -5.63436 0
M  V30 3374 H 317.046 2.59403 -5.52759 0
M  V30 3375 H 318.46 0.331056 -5.72343 0
M  V30 3376 H 316.857 -0.41507 -5.98663 0
M  V30 3377 H 317.927 -1.06398 -4.73083 0
M  V30 3378 N 319.27 1.56325 -0.20005 0
M  V30 3379 C 320.2 2.22318 0.713916 0
M  V30 3380 C 321.181 1.18788 1.21752 0
M  V30 3381 O 322.366 1.47309 1.26545 0
M  V30 3382 C 319.496 2.88639 1.93144 0
M  V30 3383 C 318.45 3.98457 1.56255 0
M  V30 3384 C 317.776 4.51967 2.85709 0
M  V30 3385 C 319.076 5.16612 0.768747 0
M  V30 3386 H 320.77 2.98952 0.163755 0
M  V30 3387 H 318.316 1.43792 0.0773219 0
M  V30 3388 H 320.269 3.33491 2.57608 0
M  V30 3389 H 318.993 2.09419 2.50621 0
M  V30 3390 H 317.652 3.54305 0.941471 0
M  V30 3391 H 317.3 3.69503 3.41287 0
M  V30 3392 H 317 5.26071 2.6177 0
M  V30 3393 H 318.524 4.99523 3.51154 0
M  V30 3394 H 319.938 5.57977 1.3166 0
M  V30 3395 H 318.335 5.96812 0.627286 0
M  V30 3396 H 319.405 4.84358 -0.229168 0
M  V30 3397 N 320.748 -0.0735177 1.57428 0
M  V30 3398 C 321.996 -0.771472 1.86796 0
M  V30 3399 C 322.317 -1.78201 0.791804 0
M  V30 3400 O 321.587 -1.95074 -0.179718 0
M  V30 3401 H 320.167 -0.28791 0.689287 0
M  V30 3402 H 322.829 -0.0500161 1.94836 0
M  V30 3403 H 321.925 -1.28874 2.8425 0
M  V30 3404 N 322.226 -1.5378 -0.344866 0
M  V30 3405 C 323.466 -1.72677 -1.09371 0
M  V30 3406 C 323.83 -0.479084 -1.85927 0
M  V30 3407 O 325.031 -0.54505 -2.63216 0
M  V30 3408 C 323.302 -2.95457 -2.01097 0
M  V30 3409 S 324.861 -3.35158 -2.83222 0
M  V30 3410 H 321.679 -0.607402 -0.369573 0
M  V30 3411 H 324.281 -1.91922 -0.372307 0
M  V30 3412 H 322.985 -3.84437 -1.43655 0
M  V30 3413 H 322.516 -2.78673 -2.77678 0
M  V30 3414 H 324.531 -2.88789 -4.03504 0
M  V30 3415 N 323.704 0.605807 -1.45491 0
M  V30 3416 C 324.929 1.39625 -1.53361 0
M  V30 3417 C 325.354 1.87351 -0.167645 0
M  V30 3418 O 324.712 1.60243 0.848051 0
M  V30 3419 C 324.76 2.57559 -2.5238 0
M  V30 3420 O 323.864 3.58248 -2.04285 0
M  V30 3421 H 323.205 0.416771 -0.516912 0
M  V30 3422 H 325.735 0.737103 -1.90861 0
M  V30 3423 H 325.745 3.0478 -2.71244 0
M  V30 3424 H 324.42 2.22171 -3.51586 0
M  V30 3425 H 322.997 3.17664 -1.95305 0
M  V30 3426 N 325.182 1.32811 0.848464 0
M  V30 3427 C 326.598 1.11937 1.13764 0
M  V30 3428 C 326.798 -0.0960789 2.01271 0
M  V30 3429 O 325.854 -0.779165 2.40178 0
M  V30 3430 C 327.167 2.402 1.809 0
M  V30 3431 C 328.715 2.46016 1.93508 0
M  V30 3432 C 329.19 3.74215 2.64059 0
M  V30 3433 N 330.681 3.75232 2.71579 0
M  V30 3434 C 331.416 4.71134 3.26833 0
M  V30 3435 N 330.912 5.77406 3.8285 0
M  V30 3436 N 332.705 4.58623 3.24995 0
M  V30 3437 H 324.856 2.1073 0.265855 0
M  V30 3438 H 327.119 0.930671 0.180431 0
M  V30 3439 H 326.825 3.29093 1.24058 0
M  V30 3440 H 326.699 2.51628 2.81004 0
M  V30 3441 H 329.086 1.57577 2.49506 0
M  V30 3442 H 329.167 2.38536 0.923811 0
M  V30 3443 H 328.811 4.63031 2.08722 0
M  V30 3444 H 328.741 3.78968 3.65637 0
M  V30 3445 H 331.232 2.98423 2.31845 0
M  V30 3446 H 331.545 6.46632 4.23187 0
M  V30 3447 H 329.89 5.81152 3.81165 0
M  V30 3448 H 333.081 3.74762 2.80484 0
M  V30 3449 H 333.254 5.33535 3.67756 0
M  V30 3450 N 326.66 -1.06551 1.16123 0
M  V30 3451 C 327.906 -1.79567 0.94252 0
M  V30 3452 C 328.239 -1.86869 -0.528547 0
M  V30 3453 O 327.514 -1.35838 -1.39206 0
M  V30 3454 C 327.797 -3.24195 1.56747 0
M  V30 3455 C 327.65 -3.24989 3.10969 0
M  V30 3456 C 328.969 -4.21678 1.25998 0
M  V30 3457 H 326.088 -0.651883 0.343828 0
M  V30 3458 H 328.73 -1.2463 1.43413 0
M  V30 3459 H 326.88 -3.71107 1.14942 0
M  V30 3460 H 328.552 -2.86258 3.61737 0
M  V30 3461 H 326.795 -2.63716 3.44436 0
M  V30 3462 H 327.466 -4.27005 3.49815 0
M  V30 3463 H 329.942 -3.83196 1.62174 0
M  V30 3464 H 328.818 -5.21146 1.7233 0
M  V30 3465 H 329.079 -4.4174 0.178367 0
M  V30 3466 N 328.138 -0.959301 -1.25041 0
M  V30 3467 C 329.101 -0.487677 -2.23952 0
M  V30 3468 C 330.101 0.41119 -1.55454 0
M  V30 3469 O 331.291 0.207825 -1.72956 0
M  V30 3470 C 328.423 0.294807 -3.39623 0
M  V30 3471 H 329.616 -1.36198 -2.67189 0
M  V30 3472 H 327.169 -0.743042 -1.37508 0
M  V30 3473 H 327.904 1.18658 -3.01813 0
M  V30 3474 H 327.689 -0.35012 -3.90534 0
M  V30 3475 H 329.179 0.614089 -4.1306 0
M  V30 3476 N 329.616 1.39756 -0.72842 0
M  V30 3477 C 330.865 1.99879 -0.270407 0
M  V30 3478 C 331.178 1.58449 1.14688 0
M  V30 3479 O 332.384 2.11362 1.70407 0
M  V30 3480 C 330.84 3.57292 -0.43252 0
M  V30 3481 C 330.448 4.07688 -1.85727 0
M  V30 3482 C 332.192 4.24485 -0.0359507 0
M  V30 3483 C 330.099 5.5765 -1.96928 0
M  V30 3484 H 329.029 0.747689 -0.0973472 0
M  V30 3485 H 331.68 1.59837 -0.901355 0
M  V30 3486 H 330.062 3.95097 0.267219 0
M  V30 3487 H 331.236 3.81231 -2.58843 0
M  V30 3488 H 329.551 3.53135 -2.20646 0
M  V30 3489 H 332.148 5.34609 -0.0987484 0
M  V30 3490 H 332.491 4.03915 1.00787 0
M  V30 3491 H 333.024 3.9183 -0.686604 0
M  V30 3492 H 329.763 5.8309 -2.99476 0
M  V30 3493 H 329.283 5.8593 -1.28241 0
M  V30 3494 H 330.962 6.22957 -1.74737 0
M  V30 3495 N 331.094 0.475555 1.50254 0
M  V30 3496 C 332.342 -0.077738 2.0195 0
M  V30 3497 C 332.663 -1.39813 1.35931 0
M  V30 3498 O 331.933 -1.89249 0.506123 0
M  V30 3499 H 330.513 -0.031719 0.746326 0
M  V30 3500 H 333.175 0.626995 1.84539 0
M  V30 3501 H 332.271 -0.225995 3.11281 0
M  V30 3502 N 332.573 -1.56217 0.208337 0
M  V30 3503 C 333.821 -1.97558 -0.426076 0
M  V30 3504 C 334.142 -1.09683 -1.61229 0
M  V30 3505 O 333.412 -0.170956 -1.95153 0
M  V30 3506 H 331.992 -0.729575 -0.160405 0
M  V30 3507 H 334.654 -1.92606 0.298155 0
M  V30 3508 H 333.75 -3.02672 -0.761312 0
M  V30 3509 N 334.051 0.0651679 -1.57465 0
M  V30 3510 C 334.983 1.10359 -2.00882 0
M  V30 3511 C 335.996 1.346 -0.915788 0
M  V30 3512 O 337.185 1.32723 -1.1936 0
M  V30 3513 C 334.285 2.45312 -2.33828 0
M  V30 3514 C 333.458 2.40934 -3.65061 0
M  V30 3515 C 332.517 3.58047 -3.85602 0
M  V30 3516 O 331.543 3.39175 -4.57109 0
M  V30 3517 N 332.745 4.78637 -3.28462 0
M  V30 3518 H 335.51 0.733807 -2.90578 0
M  V30 3519 H 333.071 0.253719 -1.599 0
M  V30 3520 H 335.063 3.22314 -2.44737 0
M  V30 3521 H 333.633 2.74267 -1.49988 0
M  V30 3522 H 332.853 1.49273 -3.64844 0
M  V30 3523 H 334.141 2.35117 -4.51218 0
M  V30 3524 H 333.539 4.96872 -2.70433 0
M  V30 3525 H 332.096 5.53127 -3.44809 0
M  V30 3526 N 335.529 1.53961 0.336706 0
M  V30 3527 C 336.754 1.75797 1.10046 0
M  V30 3528 C 337.179 0.498985 1.81361 0
M  V30 3529 O 336.537 -0.548769 1.72795 0
M  V30 3530 C 336.585 2.94257 2.08436 0
M  V30 3531 O 335.689 2.64883 3.16087 0
M  V30 3532 H 335.03 0.582936 0.317934 0
M  V30 3533 H 337.56 2.00945 0.38501 0
M  V30 3534 H 337.57 3.21237 2.51537 0
M  V30 3535 H 336.245 3.85564 1.55927 0
M  V30 3536 H 334.822 2.48812 2.77753 0
M  V30 3537 N 337.007 -0.598083 1.45811 0
M  V30 3538 C 337.955 -1.72932 1.55555 0
M  V30 3539 C 338.949 -1.63984 0.424921 0
M  V30 3540 O 340.155 -1.69663 0.601205 0
M  V30 3541 H 336.53 -0.571489 0.488779 0
M  V30 3542 H 338.501 -1.61842 2.50699 0
M  V30 3543 C 337.25 -3.11318 1.54843 0
M  V30 3544 H 336.573 -3.18867 2.41172 0
M  V30 3545 H 338.013 -3.90274 1.65717 0
M  V30 3546 C 336.472 -3.3578 0.274427 0
M  V30 3547 O 337.002 -3.9654 -0.641778 0
M  V30 3548 N 335.208 -2.90119 0.167139 0
M  V30 3549 H 334.755 -2.40855 0.913596 0
M  V30 3550 H 334.713 -3.0686 -0.684435 0
M  V30 3551 N 338.485 -1.33259 -0.841409 0
M  V30 3552 C 339.395 -1.25332 -1.98316 0
M  V30 3553 C 340.411 -0.164364 -1.73222 0
M  V30 3554 O 341.587 -0.387486 -1.97637 0
M  V30 3555 C 338.652 -0.990078 -3.32262 0
M  V30 3556 C 337.713 -2.16879 -3.70489 0
M  V30 3557 C 336.946 -1.91801 -4.98044 0
M  V30 3558 O 337.169 -0.867075 -5.63771 0
M  V30 3559 O 336.103 -2.78267 -5.33714 0
M  V30 3560 H 339.929 -2.21344 -2.07944 0
M  V30 3561 H 337.514 -1.1328 -0.974058 0
M  V30 3562 H 339.396 -0.860321 -4.12524 0
M  V30 3563 H 338.071 -0.0602155 -3.23644 0
M  V30 3564 H 336.978 -2.35407 -2.90748 0
M  V30 3565 H 338.311 -3.0819 -3.8377 0
M  V30 3566 N 339.963 1.05934 -1.16686 0
M  V30 3567 C 341.188 1.83029 -0.975455 0
M  V30 3568 C 341.613 1.82096 0.471452 0
M  V30 3569 O 340.971 1.22443 1.33706 0
M  V30 3570 C 341.019 3.27372 -1.51195 0
M  V30 3571 O 340.123 4.06054 -0.720701 0
M  V30 3572 H 339.464 0.566194 -0.346872 0
M  V30 3573 H 341.994 1.33541 -1.55009 0
M  V30 3574 H 342.004 3.78186 -1.53099 0
M  V30 3575 H 340.679 3.27366 -2.56523 0
M  V30 3576 H 339.256 3.64812 -0.772458 0
M  V30 3577 N 341.441 0.965919 1.2453 0
M  V30 3578 C 342.718 0.543777 1.87889 0
M  V30 3579 C 343.098 -0.97909 1.87021 0
M  V30 3580 O 342.446 -1.84969 1.3416 0
M  V30 3581 C 342.656 1.13327 3.30088 0
M  V30 3582 C 344.004 1.21707 4.06783 0
M  V30 3583 O 345.028 1.08566 3.39252 0
M  V30 3584 O 343.887 1.42456 5.27606 0
M  V30 3585 H 340.981 0.181054 0.806938 0
M  V30 3586 H 343.527 1.06007 1.32516 0
M  V30 3587 H 342.299 2.17612 3.25209 0
M  V30 3588 H 341.922 0.600911 3.93033 0
M  V30 3589 N 342.919 -1.39368 0.735821 0
M  V30 3590 C 344.335 -1.54204 0.411492 0
M  V30 3591 C 344.535 -1.70268 -1.07755 0
M  V30 3592 O 343.591 -1.70364 -1.86366 0
M  V30 3593 C 344.904 -2.75925 1.19523 0
M  V30 3594 C 346.452 -2.89761 1.18354 0
M  V30 3595 C 346.927 -4.14421 1.94986 0
M  V30 3596 N 348.418 -4.21462 1.92156 0
M  V30 3597 C 349.153 -5.16871 2.48258 0
M  V30 3598 N 348.649 -6.18063 3.13001 0
M  V30 3599 N 350.442 -5.09093 2.38287 0
M  V30 3600 H 342.593 -1.27189 1.70108 0
M  V30 3601 H 344.856 -0.616517 0.720147 0
M  V30 3602 H 344.562 -2.70401 2.24892 0
M  V30 3603 H 344.436 -3.68614 0.800222 0
M  V30 3604 H 346.823 -2.94777 0.137975 0
M  V30 3605 H 346.904 -1.98133 1.61793 0
M  V30 3606 H 346.548 -4.10166 2.99543 0
M  V30 3607 H 346.478 -5.05095 1.48953 0
M  V30 3608 H 348.969 -3.48979 1.44991 0
M  V30 3609 H 349.282 -6.87326 3.53275 0
M  V30 3610 H 347.627 -6.18448 3.17091 0
M  V30 3611 H 350.818 -4.28973 1.8735 0
M  V30 3612 H 350.991 -5.83272 2.82308 0
M  V30 3613 N 344.397 -0.483516 -1.5 0
M  V30 3614 C 345.627 0.0643896 -2.065 0
M  V30 3615 C 346.035 1.32949 -1.34615 0
M  V30 3616 O 345.378 1.79003 -0.412756 0
M  V30 3617 C 345.44 0.405983 -3.572 0
M  V30 3618 C 345.104 -0.758875 -4.50655 0
M  V30 3619 C 346.101 -1.64445 -4.93208 0
M  V30 3620 C 343.786 -0.952725 -4.93182 0
M  V30 3621 C 345.78 -2.70818 -5.77006 0
M  V30 3622 C 343.467 -2.01966 -5.76761 0
M  V30 3623 C 344.465 -2.89574 -6.18576 0
M  V30 3624 O 344.153 -3.94429 -7.00486 0
M  V30 3625 H 343.885 -0.00934786 -0.675935 0
M  V30 3626 H 346.439 -0.674959 -1.93993 0
M  V30 3627 H 344.669 1.19869 -3.67652 0
M  V30 3628 H 346.358 0.890433 -3.96013 0
M  V30 3629 H 347.124 -1.50643 -4.61012 0
M  V30 3630 H 343.003 -0.280247 -4.60147 0
M  V30 3631 H 346.547 -3.3923 -6.09565 0
M  V30 3632 H 342.444 -2.1577 -6.0837 0
M  V30 3633 H 343.212 -3.91568 -7.1876 0
M  V30 3634 N 345.875 1.56104 -0.216619 0
M  V30 3635 C 347.124 1.97348 0.416744 0
M  V30 3636 C 347.437 1.10715 1.6125 0
M  V30 3637 O 348.643 1.41836 2.31506 0
M  V30 3638 C 347.099 3.51059 0.792835 0
M  V30 3639 C 346.707 4.46387 -0.379828 0
M  V30 3640 C 348.451 4.01026 1.39208 0
M  V30 3641 C 346.358 5.91397 0.0184223 0
M  V30 3642 H 345.288 0.736942 0.159475 0
M  V30 3643 H 347.939 1.80827 -0.31205 0
M  V30 3644 H 346.321 3.63162 1.57891 0
M  V30 3645 H 347.495 4.46029 -1.15737 0
M  V30 3646 H 345.81 4.06734 -0.891979 0
M  V30 3647 H 348.407 5.0686 1.70286 0
M  V30 3648 H 348.75 3.46587 2.30614 0
M  V30 3649 H 349.283 3.92125 0.669537 0
M  V30 3650 H 346.022 6.49807 -0.862002 0
M  V30 3651 H 345.542 5.94961 0.760384 0
M  V30 3652 H 347.221 6.45455 0.446818 0
M  V30 3653 N 347.353 -0.0568162 1.57498 0
M  V30 3654 C 348.316 -1.05038 2.03715 0
M  V30 3655 C 349.316 -1.30709 0.936577 0
M  V30 3656 O 350.506 -1.26178 1.20103 0
M  V30 3657 C 347.638 -2.39034 2.43055 0
M  V30 3658 H 348.831 -0.651715 2.92733 0
M  V30 3659 H 346.384 -0.302947 1.53336 0
M  V30 3660 H 347.119 -2.83703 1.57108 0
M  V30 3661 H 346.904 -2.21739 3.2338 0
M  V30 3662 H 348.394 -3.10421 2.79336 0
M  V30 3663 N 348.832 -1.54138 -0.328536 0
M  V30 3664 C 350.243 -1.63395 -0.903272 0
M  V30 3665 C 350.594 -0.524828 -1.8905 0
M  V30 3666 O 349.719 0.343068 -2.13663 0
M  V30 3667 C 350.314 -2.9618 -1.64507 0
M  V30 3668 C 348.873 -3.0765 -2.1686 0
M  V30 3669 C 348.02 -2.58933 -0.992416 0
M  V30 3670 H 350.971 -1.58344 -0.106253 0
M  V30 3671 H 350.992 -2.86061 -2.50897 0
M  V30 3672 H 350.504 -3.76884 -0.926302 0
M  V30 3673 H 348.605 -2.31611 -2.91868 0
M  V30 3674 H 348.718 -4.1337 -2.42202 0
M  V30 3675 H 347.082 -2.14706 -1.37016 0
M  V30 3676 H 347.865 -3.42089 -0.288041 0
M  V30 3677 N 350.31 0.590341 -1.46126 0
M  V30 3678 C 351.538 1.37504 -1.54597 0
M  V30 3679 C 351.953 1.87897 -0.184447 0
M  V30 3680 O 351.31 1.63192 0.816984 0
M  V30 3681 C 351.361 2.56779 -2.54454 0
M  V30 3682 O 351.082 2.08476 -3.85317 0
M  V30 3683 C 352.583 3.49427 -2.72792 0
M  V30 3684 H 349.803 0.420325 -0.523037 0
M  V30 3685 H 352.347 0.718383 -1.91467 0
M  V30 3686 H 350.502 3.1845 -2.20609 0
M  V30 3687 H 350.916 2.86097 -4.396 0
M  V30 3688 H 352.39 4.29619 -3.466 0
M  V30 3689 H 352.867 4.00876 -1.79429 0
M  V30 3690 H 353.473 2.93598 -3.07702 0
M  V30 3691 N 351.788 1.33704 0.83433 0
M  V30 3692 C 353.034 1.25603 1.59222 0
M  V30 3693 C 353.367 -0.176659 1.93395 0
M  V30 3694 O 352.642 -1.11915 1.59076 0
M  V30 3695 C 352.925 2.13576 2.89926 0
M  V30 3696 C 352.778 3.65326 2.62406 0
M  V30 3697 C 354.097 2.01238 3.91397 0
M  V30 3698 H 351.216 0.457613 0.577719 0
M  V30 3699 H 353.858 1.63848 0.961972 0
M  V30 3700 H 352.008 1.8109 3.43713 0
M  V30 3701 H 353.68 4.08124 2.15017 0
M  V30 3702 H 351.923 3.8698 1.96033 0
M  V30 3703 H 352.594 4.22232 3.55562 0
M  V30 3704 H 355.07 2.29738 3.46929 0
M  V30 3705 H 353.946 2.65036 4.80673 0
M  V30 3706 H 354.207 0.985951 4.30966 0
M  V30 3707 N 353.266 -1.05314 1.17247 0
M  V30 3708 C 354.196 -2.1498 0.911362 0
M  V30 3709 C 355.177 -1.69471 -0.146169 0
M  V30 3710 O 356.362 -1.942 0.003812 0
M  V30 3711 C 353.492 -3.4472 0.422528 0
M  V30 3712 C 352.446 -4.03789 1.4191 0
M  V30 3713 C 351.772 -5.28858 0.788274 0
M  V30 3714 C 353.072 -4.41418 2.7919 0
M  V30 3715 H 354.766 -2.3708 1.82848 0
M  V30 3716 H 352.312 -1.13938 0.880569 0
M  V30 3717 H 354.265 -4.20787 0.227289 0
M  V30 3718 H 352.989 -3.22269 -0.530123 0
M  V30 3719 H 351.648 -3.2979 1.60106 0
M  V30 3720 H 351.296 -5.02709 -0.171173 0
M  V30 3721 H 350.996 -5.69338 1.45353 0
M  V30 3722 H 352.52 -6.07612 0.603282 0
M  V30 3723 H 353.934 -5.08524 2.64719 0
M  V30 3724 H 352.331 -4.92913 3.42282 0
M  V30 3725 H 353.401 -3.51819 3.33693 0
M  V30 3726 N 354.744 -0.972509 -1.24016 0
M  V30 3727 C 355.99 -0.637978 -1.92504 0
M  V30 3728 C 356.323 0.825383 -1.75787 0
M  V30 3729 O 355.598 1.59442 -1.11393 0
M  V30 3730 C 355.881 -1.01942 -3.45369 0
M  V30 3731 C 355.734 -2.53983 -3.71231 0
M  V30 3732 C 357.053 -0.55751 -4.36555 0
M  V30 3733 H 354.172 -0.233248 -0.699117 0
M  V30 3734 H 356.814 -1.21238 -1.46292 0
M  V30 3735 H 354.964 -0.530656 -3.84859 0
M  V30 3736 H 356.636 -3.10374 -3.41271 0
M  V30 3737 H 354.879 -2.96968 -3.16216 0
M  V30 3738 H 355.55 -2.75723 -4.78206 0
M  V30 3739 H 358.026 -0.977029 -4.04467 0
M  V30 3740 H 356.902 -0.85292 -5.42233 0
M  V30 3741 H 357.163 0.542328 -4.38761 0
M  V30 3742 N 356.222 1.38976 -0.743202 0
M  V30 3743 C 357.499 1.94351 -0.220705 0
M  V30 3744 C 357.879 1.67935 1.2791 0
M  V30 3745 O 357.227 1.01211 2.04862 0
M  V30 3746 C 357.437 3.44426 -0.563171 0
M  V30 3747 C 358.785 4.2144 -0.517046 0
M  V30 3748 O 359.809 3.52661 -0.500846 0
M  V30 3749 O 358.668 5.44032 -0.518806 0
M  V30 3750 H 355.762 0.825879 -0.043047 0
M  V30 3751 H 358.308 1.48429 -0.822618 0
M  V30 3752 H 357.08 3.5712 -1.59941 0
M  V30 3753 H 356.703 3.97543 0.0672883 0
M  V30 3754 N 357.7 0.491464 1.49741 0
M  V30 3755 C 358.946 -0.0565092 2.02721 0
M  V30 3756 C 359.279 -1.37522 1.37118 0
M  V30 3757 O 358.554 -1.87866 0.503645 0
M  V30 3758 C 358.837 -0.219051 3.59433 0
M  V30 3759 C 358.69 1.12211 4.35579 0
M  V30 3760 C 360.009 -0.964157 4.29409 0
M  V30 3761 H 357.128 -0.0190627 0.736753 0
M  V30 3762 H 359.77 0.641021 1.7886 0
M  V30 3763 H 357.92 -0.813165 3.79895 0
M  V30 3764 H 359.592 1.75437 4.26637 0
M  V30 3765 H 357.835 1.71377 3.98513 0
M  V30 3766 H 358.506 0.961794 5.43556 0
M  V30 3767 H 360.982 -0.460378 4.13545 0
M  V30 3768 H 359.858 -1.04671 5.38828 0
M  V30 3769 H 360.119 -2.00563 3.93988 0
M  V30 3770 N 359.178 -1.55987 0.224894 0
M  V30 3771 C 360.11 -2.17722 -0.716224 0
M  V30 3772 C 361.123 -1.14723 -1.15509 0
M  V30 3773 O 362.312 -1.41688 -1.08567 0
M  V30 3774 C 359.412 -2.74873 -1.98238 0
M  V30 3775 C 358.585 -4.03074 -1.69853 0
M  V30 3776 C 357.644 -4.44757 -2.81208 0
M  V30 3777 O 356.67 -5.11587 -2.49534 0
M  V30 3778 N 357.872 -4.10716 -4.10235 0
M  V30 3779 H 360.637 -2.99109 -0.188123 0
M  V30 3780 H 358.198 -1.6184 0.0440123 0
M  V30 3781 H 360.19 -2.99727 -2.7193 0
M  V30 3782 H 358.76 -1.9777 -2.42086 0
M  V30 3783 H 357.98 -3.86041 -0.797875 0
M  V30 3784 H 359.268 -4.86701 -1.48324 0
M  V30 3785 H 358.666 -3.57019 -4.38809 0
M  V30 3786 H 357.223 -4.40455 -4.80461 0
M  V30 3787 N 360.656 0.0484629 -1.57525 0
M  V30 3788 C 361.566 1.07241 -2.08654 0
M  V30 3789 C 362.582 1.409 -1.02095 0
M  V30 3790 O 363.758 1.50609 -1.33712 0
M  V30 3791 C 360.823 2.36008 -2.5397 0
M  V30 3792 C 359.884 2.09108 -3.7493 0
M  V30 3793 C 359.117 3.31736 -4.18075 0
M  V30 3794 O 359.34 4.41714 -3.60895 0
M  V30 3795 O 358.274 3.18576 -5.10679 0
M  V30 3796 H 362.1 0.667965 -2.96263 0
M  V30 3797 H 359.685 0.26417 -1.47046 0
M  V30 3798 H 361.567 3.11747 -2.83535 0
M  V30 3799 H 360.242 2.75786 -1.69481 0
M  V30 3800 H 359.149 1.31 -3.50414 0
M  V30 3801 H 360.482 1.74198 -4.60343 0
M  V30 3802 N 362.134 1.5431 0.320358 0
M  V30 3803 C 363.362 1.76636 1.07738 0
M  V30 3804 C 363.777 0.51649 1.81598 0
M  V30 3805 O 363.134 -0.512942 1.75143 0
M  V30 3806 C 363.185 2.96158 2.07299 0
M  V30 3807 O 362.906 4.16313 1.36438 0
M  V30 3808 C 364.407 3.3072 2.95193 0
M  V30 3809 H 361.627 0.589597 0.320339 0
M  V30 3810 H 364.171 2.01207 0.36551 0
M  V30 3811 H 362.326 2.73851 2.74016 0
M  V30 3812 H 362.74 4.83565 2.03138 0
M  V30 3813 H 364.214 4.17643 3.60941 0
M  V30 3814 H 364.691 2.48026 3.62463 0
M  V30 3815 H 365.297 3.55117 2.34034 0
M  V30 3816 N 363.613 -0.582584 1.46437 0
M  V30 3817 C 364.523 -1.71949 1.59595 0
M  V30 3818 C 365.539 -1.67264 0.479443 0
M  V30 3819 O 366.715 -1.87171 0.743579 0
M  V30 3820 C 363.78 -3.08452 1.58298 0
M  V30 3821 C 362.841 -3.244 2.81182 0
M  V30 3822 C 362.074 -4.54391 2.79937 0
M  V30 3823 O 362.297 -5.38287 1.8869 0
M  V30 3824 O 361.231 -4.73588 3.71481 0
M  V30 3825 H 365.057 -1.63795 2.55744 0
M  V30 3826 H 362.642 -0.749643 1.29231 0
M  V30 3827 H 364.524 -3.89732 1.60271 0
M  V30 3828 H 363.199 -3.17043 0.653094 0
M  V30 3829 H 362.106 -2.42613 2.84763 0
M  V30 3830 H 363.439 -3.20699 3.7338 0
M  V30 3831 N 365.091 -1.34144 -0.827227 0
M  V30 3832 C 366.502 -1.23557 -1.39966 0
M  V30 3833 C 366.853 0.140731 -1.95695 0
M  V30 3834 O 365.978 1.04087 -1.89723 0
M  V30 3835 C 366.573 -2.23708 -2.54441 0
M  V30 3836 C 365.132 -2.16924 -3.07605 0
M  V30 3837 C 364.279 -2.10549 -1.80456 0
M  V30 3838 H 367.23 -1.45573 -0.631991 0
M  V30 3839 H 367.251 -1.85157 -3.32411 0
M  V30 3840 H 366.763 -3.23866 -2.13851 0
M  V30 3841 H 364.864 -1.20107 -3.52711 0
M  V30 3842 H 364.977 -3.07988 -3.66988 0
M  V30 3843 H 363.341 -1.56203 -2.01178 0
M  V30 3844 H 364.124 -3.12535 -1.42046 0
M  V30 3845 N 366.569 1.04691 -1.17803 0
M  V30 3846 C 367.815 1.78045 -0.970969 0
M  V30 3847 C 368.148 1.87686 0.498751 0
M  V30 3848 O 367.423 1.38035 1.37027 0
M  V30 3849 C 367.706 3.2166 -1.61884 0
M  V30 3850 C 367.559 3.20001 -3.161 0
M  V30 3851 C 368.878 4.1962 -1.3269 0
M  V30 3852 H 365.997 0.64633 -0.354155 0
M  V30 3853 H 368.639 1.22333 -1.45378 0
M  V30 3854 H 366.789 3.69232 -1.20831 0
M  V30 3855 H 368.461 2.80467 -3.66246 0
M  V30 3856 H 366.704 2.58203 -3.48588 0
M  V30 3857 H 367.375 4.21386 -3.56564 0
M  V30 3858 H 369.851 3.80567 -1.68249 0
M  V30 3859 H 368.727 5.18339 -1.80599 0
M  V30 3860 H 368.988 4.414 -0.248622 0
M  V30 3861 N 368.047 0.979072 1.23499 0
M  V30 3862 C 368.98 0.463027 2.23453 0
M  V30 3863 C 369.958 -0.469128 1.55685 0
M  V30 3864 O 371.142 -0.397882 1.84253 0
M  V30 3865 C 368.269 -0.330308 3.37086 0
M  V30 3866 C 367.315 0.545795 4.22993 0
M  V30 3867 S 368.148 1.99285 4.97037 0
M  V30 3868 C 369.304 1.20862 6.1412 0
M  V30 3869 H 369.537 1.31005 2.6688 0
M  V30 3870 H 367.07 0.784965 1.32957 0
M  V30 3871 H 369.028 -0.782027 4.02982 0
M  V30 3872 H 367.689 -1.15244 2.92194 0
M  V30 3873 H 366.882 -0.0638928 5.03959 0
M  V30 3874 H 366.484 0.933705 3.62157 0
M  V30 3875 H 368.776 0.469284 6.75873 0
M  V30 3876 H 369.719 1.99307 6.79472 0
M  V30 3877 H 370.127 0.727992 5.59786 0
M  V30 3878 N 369.525 -1.3858 0.750561 0
M  V30 3879 C 370.457 -2.29057 0.0810714 0
M  V30 3880 C 371.47 -1.47596 -0.686973 0
M  V30 3881 O 372.659 -1.70495 -0.528563 0
M  V30 3882 C 369.759 -3.26475 -0.909247 0
M  V30 3883 C 368.932 -4.36945 -0.199478 0
M  V30 3884 C 367.991 -5.14572 -1.10011 0
M  V30 3885 O 367.017 -5.66321 -0.57177 0
M  V30 3886 N 368.219 -5.27262 -2.42849 0
M  V30 3887 H 370.984 -2.87153 0.858087 0
M  V30 3888 H 368.545 -1.50328 0.60109 0
M  V30 3889 H 370.537 -3.75285 -1.51471 0
M  V30 3890 H 369.107 -2.69298 -1.58736 0
M  V30 3891 H 368.327 -3.8981 0.586664 0
M  V30 3892 H 369.615 -5.07963 0.291783 0
M  V30 3893 H 369.013 -4.86763 -2.88233 0
M  V30 3894 H 367.57 -5.79456 -2.98453 0
M  V30 3895 N 371.003 -0.499398 -1.49478 0
M  V30 3896 C 371.913 0.284489 -2.32869 0
M  V30 3897 C 372.929 0.968885 -1.44529 0
M  V30 3898 O 374.105 0.95062 -1.77553 0
M  V30 3899 C 371.17 1.33594 -3.19928 0
M  V30 3900 C 370.231 0.665149 -4.24116 0
M  V30 3901 C 369.464 1.6665 -5.07014 0
M  V30 3902 O 369.687 2.89618 -4.91404 0
M  V30 3903 O 368.621 1.22271 -5.8935 0
M  V30 3904 H 372.447 -0.39802 -3.01081 0
M  V30 3905 H 370.032 -0.260758 -1.47107 0
M  V30 3906 H 371.914 1.94431 -3.73864 0
M  V30 3907 H 370.589 2.0014 -2.54412 0
M  V30 3908 H 369.496 0.0170769 -3.74096 0
M  V30 3909 H 370.829 0.0421555 -4.92182 0
M  V30 3910 N 372.481 1.55866 -0.233164 0
M  V30 3911 C 373.391 2.24431 0.683217 0
M  V30 3912 C 374.407 1.2558 1.2044 0
M  V30 3913 O 375.583 1.58422 1.24356 0
M  V30 3914 C 372.648 2.91979 1.86947 0
M  V30 3915 C 371.709 4.06204 1.38912 0
M  V30 3916 C 370.942 4.70522 2.51883 0
M  V30 3917 O 371.165 4.33865 3.70293 0
M  V30 3918 O 370.099 5.59296 2.22423 0
M  V30 3919 H 373.925 3.03426 0.129059 0
M  V30 3920 H 371.51 1.494 -0.0022283 0
M  V30 3921 H 373.392 3.34573 2.56201 0
M  V30 3922 H 372.067 2.15935 2.41151 0
M  V30 3923 H 370.974 3.68155 0.664259 0
M  V30 3924 H 372.307 4.84025 0.893328 0
M  V30 3925 N 373.959 -0.0401083 1.57549 0
M  V30 3926 C 375.208 -0.732108 1.87944 0
M  V30 3927 C 375.521 -1.77107 0.830206 0
M  V30 3928 O 376.727 -2.51488 1.02302 0
M  V30 3929 C 375.183 -1.35315 3.33494 0
M  V30 3930 C 374.791 -0.351105 4.46622 0
M  V30 3931 C 376.535 -2.02566 3.73051 0
M  V30 3932 C 374.442 -0.979859 5.83226 0
M  V30 3933 H 373.372 -0.277188 0.701201 0
M  V30 3934 H 376.023 0.0138501 1.83495 0
M  V30 3935 H 374.405 -2.14844 3.32653 0
M  V30 3936 H 375.579 0.416674 4.58912 0
M  V30 3937 H 373.894 0.218708 4.15825 0
M  V30 3938 H 376.491 -2.50441 4.72423 0
M  V30 3939 H 376.834 -2.83904 3.04474 0
M  V30 3940 H 377.367 -1.29827 3.76018 0
M  V30 3941 H 374.106 -0.206135 6.55176 0
M  V30 3942 H 373.626 -1.71774 5.74677 0
M  V30 3943 H 375.305 -1.49046 6.29599 0
M  V30 3944 N 375.437 -1.54477 -0.31217 0
M  V30 3945 C 376.684 -1.73227 -1.04875 0
M  V30 3946 C 377.012 -0.512042 -1.87639 0
M  V30 3947 O 376.267 0.506131 -1.89042 0
M  V30 3948 C 376.566 -2.967 -1.99258 0
M  V30 3949 C 376.232 -4.30974 -1.32559 0
M  V30 3950 C 374.894 -4.67477 -1.141 0
M  V30 3951 C 377.246 -5.14258 -0.847835 0
M  V30 3952 C 374.574 -5.84852 -0.465326 0
M  V30 3953 C 376.926 -6.32327 -0.185931 0
M  V30 3954 C 375.59 -6.67499 0.0107077 0
M  V30 3955 H 374.86 -0.633881 -0.383765 0
M  V30 3956 H 377.507 -1.88727 -0.324731 0
M  V30 3957 H 375.812 -2.75935 -2.7815 0
M  V30 3958 H 377.509 -3.08401 -2.563 0
M  V30 3959 H 374.099 -4.02262 -1.4793 0
M  V30 3960 H 378.283 -4.86565 -0.978192 0
M  V30 3961 H 373.539 -6.10654 -0.301883 0
M  V30 3962 H 377.713 -6.96135 0.192211 0
M  V30 3963 H 375.34 -7.58306 0.536287 0
M  V30 3964 N 376.915 0.57481 -1.46744 0
M  V30 3965 C 378.163 1.33009 -1.52161 0
M  V30 3966 C 378.484 1.94185 -0.178092 0
M  V30 3967 O 377.754 1.7899 0.796196 0
M  V30 3968 H 376.334 0.493873 -0.560445 0
M  V30 3969 H 378.996 0.672589 -1.82927 0
M  V30 3970 H 378.092 2.13273 -2.27862 0
M  V30 3971 N 378.394 1.34581 0.820102 0
M  V30 3972 C 379.805 1.24298 1.39309 0
M  V30 3973 C 380.156 -0.130351 1.95767 0
M  V30 3974 O 379.281 -1.0308 1.90272 0
M  V30 3975 C 379.876 2.25054 2.53251 0
M  V30 3976 C 378.435 2.18552 3.0645 0
M  V30 3977 C 377.582 2.11503 1.79337 0
M  V30 3978 H 380.533 1.45906 0.624262 0
M  V30 3979 H 380.554 1.86917 3.31425 0
M  V30 3980 H 380.066 3.24996 2.1213 0
M  V30 3981 H 378.167 1.21976 3.52069 0
M  V30 3982 H 378.28 3.0993 3.65349 0
M  V30 3983 H 376.644 1.57268 2.00347 0
M  V30 3984 H 377.427 3.13284 1.40386 0
M  V30 3985 N 379.872 -1.04064 1.18357 0
M  V30 3986 C 381.121 -1.76662 0.973313 0
M  V30 3987 C 381.434 -1.89154 -0.497991 0
M  V30 3988 O 382.64 -2.58606 -0.826762 0
M  V30 3989 C 381.096 -3.17624 1.69242 0
M  V30 3990 C 380.704 -3.13225 3.20303 0
M  V30 3991 C 382.448 -3.946 1.56497 0
M  V30 3992 C 380.355 -4.49046 3.84853 0
M  V30 3993 H 379.285 -0.662214 0.36054 0
M  V30 3994 H 381.936 -1.16553 1.41731 0
M  V30 3995 H 380.318 -3.78129 1.1762 0
M  V30 3996 H 381.492 -2.62172 3.78949 0
M  V30 3997 H 379.807 -2.49749 3.33189 0
M  V30 3998 H 382.404 -4.95042 2.02084 0
M  V30 3999 H 382.747 -4.13074 0.517243 0
M  V30 4000 H 383.28 -3.4067 2.05399 0
M  V30 4001 H 380.019 -4.35777 4.89672 0
M  V30 4002 H 379.539 -5.00203 3.30994 0
M  V30 4003 H 381.218 -5.17961 3.87718 0
M  V30 4004 N 381.35 -0.985608 -1.22978 0
M  V30 4005 C 382.28 -0.549649 -2.26939 0
M  V30 4006 C 383.261 0.419803 -1.64838 0
M  V30 4007 O 384.446 0.31203 -1.91677 0
M  V30 4008 C 381.576 0.143652 -3.47003 0
M  V30 4009 C 380.53 -0.743606 -4.21491 0
M  V30 4010 C 379.856 0.0822027 -5.34637 0
M  V30 4011 C 381.156 -2.03694 -4.80943 0
M  V30 4012 H 382.85 -1.41862 -2.63658 0
M  V30 4013 H 380.396 -0.683571 -1.26741 0
M  V30 4014 H 382.349 0.459985 -4.18882 0
M  V30 4015 H 381.073 1.04711 -3.09359 0
M  V30 4016 H 379.732 -1.04347 -3.51436 0
M  V30 4017 H 379.38 0.986359 -4.93234 0
M  V30 4018 H 379.08 -0.508377 -5.85397 0
M  V30 4019 H 380.604 0.392797 -6.09335 0
M  V30 4020 H 382.018 -1.78504 -5.44802 0
M  V30 4021 H 380.415 -2.57573 -5.42011 0
M  V30 4022 H 381.485 -2.72042 -4.01399 0
M  V30 4023 N 382.828 1.3818 -0.7579 0
M  V30 4024 C 384.239 1.82726 -0.383134 0
M  V30 4025 C 384.59 1.63214 1.08884 0
M  V30 4026 O 383.715 1.13566 1.84205 0
M  V30 4027 C 384.31 3.31728 -0.688631 0
M  V30 4028 C 382.869 3.74606 -0.367091 0
M  V30 4029 C 382.016 2.60896 -0.939599 0
M  V30 4030 H 384.967 1.26847 -0.953699 0
M  V30 4031 H 384.988 3.80487 0.0316492 0
M  V30 4032 H 384.5 3.45898 -1.76001 0
M  V30 4033 H 382.601 3.66013 0.697532 0
M  V30 4034 H 382.714 4.71215 -0.865658 0
M  V30 4035 H 381.078 2.52075 -0.3647 0
M  V30 4036 H 381.861 2.77864 -2.0161 0
M  V30 4037 N 384.306 0.507319 1.49211 0
M  V30 4038 C 385.555 -0.0368315 2.01666 0
M  V30 4039 C 385.868 -1.37459 1.39156 0
M  V30 4040 O 387.074 -2.00579 1.82976 0
M  V30 4041 C 385.53 -0.116089 3.59713 0
M  V30 4042 C 385.138 1.2154 4.31198 0
M  V30 4043 C 386.882 -0.610268 4.2009 0
M  V30 4044 C 384.789 1.09796 5.81119 0
M  V30 4045 H 383.719 -0.0175376 0.753796 0
M  V30 4046 H 386.37 0.647691 1.71689 0
M  V30 4047 H 384.752 -0.8652 3.86433 0
M  V30 4048 H 385.926 1.9783 4.16173 0
M  V30 4049 H 384.241 1.64352 3.82593 0
M  V30 4050 H 386.838 -0.715742 5.29888 0
M  V30 4051 H 387.181 -1.61064 3.8388 0
M  V30 4052 H 387.714 0.0824916 3.97714 0
M  V30 4053 H 384.453 2.0728 6.21864 0
M  V30 4054 H 383.973 0.376058 5.9862 0
M  V30 4055 H 385.652 0.779281 6.4229 0
M  V30 4056 N 385.784 -1.5574 0.241426 0
M  V30 4057 C 387.03 -1.99104 -0.385406 0
M  V30 4058 C 387.363 -1.1293 -1.57988 0
M  V30 4059 O 386.638 -0.191449 -1.93555 0
M  V30 4060 C 386.921 -3.51087 -0.800616 0
M  V30 4061 C 386.774 -4.48028 0.398874 0
M  V30 4062 C 388.093 -4.08015 -1.64959 0
M  V30 4063 H 385.212 -0.723848 -0.138614 0
M  V30 4064 H 387.854 -1.86903 0.341642 0
M  V30 4065 H 386.004 -3.61615 -1.4201 0
M  V30 4066 H 387.676 -4.49487 1.03726 0
M  V30 4067 H 385.919 -4.21077 1.04293 0
M  V30 4068 H 386.59 -5.51962 0.0651056 0
M  V30 4069 H 389.066 -4.00555 -1.12672 0
M  V30 4070 H 387.942 -5.14635 -1.90898 0
M  V30 4071 H 388.203 -3.56131 -2.61961 0
M  V30 4072 N 387.262 0.0317525 -1.57568 0
M  V30 4073 C 388.21 1.05165 -2.07468 0
M  V30 4074 C 389.204 1.3761 -0.98792 0
M  V30 4075 O 390.41 1.36546 -1.17282 0
M  V30 4076 H 386.785 0.35666 -0.66204 0
M  V30 4077 H 388.756 0.604958 -2.92203 0
M  V30 4078 C 387.505 2.34488 -2.56731 0
M  V30 4079 H 386.828 2.10383 -3.39969 0
M  V30 4080 H 388.268 3.04203 -2.95358 0
M  V30 4081 C 386.727 3.03266 -1.46736 0
M  V30 4082 O 387.257 3.92988 -0.832069 0
M  V30 4083 N 385.463 2.6455 -1.20256 0
M  V30 4084 H 385.01 1.91674 -1.72102 0
M  V30 4085 H 384.968 3.10886 -0.468737 0
M  V30 4086 N 388.74 1.54641 0.303973 0
M  V30 4087 C 389.986 1.74038 1.04109 0
M  V30 4088 C 390.319 0.523051 1.87024 0
M  V30 4089 O 389.594 -0.479874 1.88487 0
M  V30 4090 C 389.877 3.02761 1.94955 0
M  V30 4091 C 389.73 4.34787 1.1524 0
M  V30 4092 C 391.049 3.27336 2.94175 0
M  V30 4093 H 388.168 0.63323 0.377079 0
M  V30 4094 H 390.81 1.87354 0.316001 0
M  V30 4095 H 388.96 2.9154 2.56782 0
M  V30 4096 H 390.632 4.57922 0.557236 0
M  V30 4097 H 388.875 4.31407 0.455053 0
M  V30 4098 H 389.546 5.21116 1.8205 0
M  V30 4099 H 392.022 3.38148 2.42477 0
M  V30 4100 H 390.898 4.18726 3.54908 0
M  V30 4101 H 391.159 2.45491 3.67677 0
M  V30 4102 N 390.218 -0.567019 1.47046 0
M  V30 4103 C 391.15 -1.68985 1.54844 0
M  V30 4104 C 392.163 -1.56869 0.435431 0
M  V30 4105 O 393.352 -1.64006 0.70457 0
M  V30 4106 C 390.452 -3.07373 1.42742 0
M  V30 4107 C 389.625 -3.45339 2.6844 0
M  V30 4108 C 388.684 -4.62849 2.50314 0
M  V30 4109 O 387.71 -4.67922 3.24095 0
M  V30 4110 N 388.912 -5.58726 1.57499 0
M  V30 4111 H 391.677 -1.62745 2.51663 0
M  V30 4112 H 389.238 -0.753411 1.43302 0
M  V30 4113 H 391.23 -3.83803 1.28365 0
M  V30 4114 H 389.8 -3.07893 0.540445 0
M  V30 4115 H 389.02 -2.58455 2.97648 0
M  V30 4116 H 390.308 -3.67476 3.51907 0
M  V30 4117 H 389.706 -5.57376 0.966876 0
M  V30 4118 H 388.263 -6.34523 1.49078 0
M  V30 4119 N 391.696 -1.35014 -0.812953 0
M  V30 4120 C 392.921 -1.31187 -1.60639 0
M  V30 4121 C 393.346 0.109382 -1.87782 0
M  V30 4122 O 392.704 1.07424 -1.46047 0
M  V30 4123 C 392.752 -2.11809 -2.91838 0
M  V30 4124 O 391.856 -1.49444 -3.8437 0
M  V30 4125 H 391.197 -0.450084 -0.488181 0
M  V30 4126 H 393.727 -1.77963 -1.00947 0
M  V30 4127 H 393.737 -2.23531 -3.41318 0
M  V30 4128 H 392.412 -3.15137 -2.71407 0
M  V30 4129 H 390.989 -1.46524 -3.42907 0
M  V30 4130 N 393.175 1.03435 -1.18907 0
M  V30 4131 C 394.421 1.77005 -0.989798 0
M  V30 4132 C 394.754 1.88205 0.478816 0
M  V30 4133 O 394.029 1.39481 1.35556 0
M  V30 4134 C 394.312 3.19925 -1.65287 0
M  V30 4135 C 394.165 3.1663 -3.19477 0
M  V30 4136 C 395.484 4.18189 -1.37134 0
M  V30 4137 H 392.603 0.642538 -0.360991 0
M  V30 4138 H 395.245 1.20784 -1.46667 0
M  V30 4139 H 393.395 3.67929 -1.24741 0
M  V30 4140 H 395.067 2.76567 -3.692 0
M  V30 4141 H 393.31 2.54491 -3.51307 0
M  V30 4142 H 393.981 4.1758 -3.61013 0
M  V30 4143 H 396.457 3.78761 -1.72276 0
M  V30 4144 H 395.333 5.16394 -1.86087 0
M  V30 4145 H 395.594 4.41112 -0.295424 0
M  V30 4146 N 394.653 0.992116 1.22453 0
M  V30 4147 C 395.93 0.583508 1.86694 0
M  V30 4148 C 396.31 -0.9392 1.89056 0
M  V30 4149 O 395.658 -1.82081 1.38053 0
M  V30 4150 C 395.868 1.20304 3.2761 0
M  V30 4151 C 397.216 1.30308 4.0411 0
M  V30 4152 O 398.24 1.15737 3.36873 0
M  V30 4153 O 397.099 1.53615 5.24466 0
M  V30 4154 H 394.193 0.198129 0.802916 0
M  V30 4155 H 396.739 1.08794 1.30238 0
M  V30 4156 H 395.511 2.24461 3.2052 0
M  V30 4157 H 395.134 0.684144 3.9167 0
M  V30 4158 N 396.131 -1.37776 0.765217 0
M  V30 4159 C 397.041 -2.34135 0.147666 0
M  V30 4160 C 398.057 -1.59854 -0.687215 0
M  V30 4161 O 399.233 -1.91983 -0.608659 0
M  V30 4162 C 396.298 -3.3901 -0.72617 0
M  V30 4163 C 395.359 -4.2912 0.124417 0
M  V30 4164 C 394.592 -5.28986 -0.707807 0
M  V30 4165 O 394.815 -5.36205 -1.94525 0
M  V30 4166 O 393.749 -6.01779 -0.12046 0
M  V30 4167 H 397.575 -2.88664 0.943758 0
M  V30 4168 H 395.16 -1.39824 0.526277 0
M  V30 4169 H 397.042 -4.03195 -1.22524 0
M  V30 4170 H 395.717 -2.86819 -1.50056 0
M  V30 4171 H 394.624 -3.68057 0.669696 0
M  V30 4172 H 395.957 -4.84598 0.861736 0
M  V30 4173 N 397.609 -0.515225 -1.4894 0
M  V30 4174 C 398.572 0.244681 -2.2789 0
M  V30 4175 C 399.572 0.881166 -1.34507 0
M  V30 4176 O 400.762 0.743497 -1.57537 0
M  V30 4177 C 397.894 1.35247 -3.12923 0
M  V30 4178 H 399.087 -0.448289 -2.96531 0
M  V30 4179 H 396.64 -0.270656 -1.53939 0
M  V30 4180 H 397.375 2.07916 -2.48881 0
M  V30 4181 H 397.16 0.901374 -3.81599 0
M  V30 4182 H 398.65 1.88737 -3.72516 0
M  V30 4183 N 399.087 1.5561 -0.249682 0
M  V30 4184 C 400.336 1.98187 0.37479 0
M  V30 4185 C 400.649 1.14111 1.58865 0
M  V30 4186 O 401.855 1.46714 2.28445 0
M  V30 4187 C 400.311 3.52661 0.718192 0
M  V30 4188 C 399.919 4.45481 -0.474428 0
M  V30 4189 C 401.663 4.03888 1.3067 0
M  V30 4190 C 399.57 5.91303 -0.107026 0
M  V30 4191 H 398.5 0.740159 0.143808 0
M  V30 4192 H 401.151 1.80125 -0.350336 0
M  V30 4193 H 399.533 3.66429 1.50152 0
M  V30 4194 H 400.707 4.43473 -1.25172 0
M  V30 4195 H 399.022 4.04751 -0.978052 0
M  V30 4196 H 401.619 5.10358 1.59496 0
M  V30 4197 H 401.962 3.51401 2.23211 0
M  V30 4198 H 402.495 3.93457 0.586211 0
M  V30 4199 H 399.234 6.47833 -0.999642 0
M  V30 4200 H 398.754 5.9644 0.634013 0
M  V30 4201 H 400.433 6.46258 0.309807 0
M  V30 4202 N 400.565 -0.0233959 1.57583 0
M  V30 4203 C 401.512 -1.02224 2.06927 0
M  V30 4204 C 402.482 -1.35575 0.959617 0
M  V30 4205 O 403.667 -1.45815 1.23055 0
M  V30 4206 C 400.807 -2.31636 2.5581 0
M  V30 4207 C 399.92 -2.04394 3.80588 0
M  V30 4208 C 399.055 -3.27717 4.18061 0
M  V30 4209 C 398.094 -2.96056 5.3574 0
M  V30 4210 N 397.231 -4.11847 5.68618 0
M  V30 4211 H 402.071 -0.594504 2.9201 0
M  V30 4212 H 399.608 -0.281921 1.44373 0
M  V30 4213 H 401.566 -3.07258 2.82221 0
M  V30 4214 H 400.196 -2.72122 1.73636 0
M  V30 4215 H 399.248 -1.19244 3.61227 0
M  V30 4216 H 400.56 -1.77042 4.66323 0
M  V30 4217 H 399.714 -4.11702 4.4563 0
M  V30 4218 H 398.453 -3.58188 3.30988 0
M  V30 4219 H 397.458 -2.10474 5.07918 0
M  V30 4220 H 398.683 -2.66857 6.24471 0
M  V30 4221 H 396.629 -4.42258 4.84504 0
M  V30 4222 H 396.546 -3.87938 6.48876 0
M  V30 4223 H 397.814 -4.96689 6.00766 0
M  V30 4224 N 402.043 -1.548 -0.295768 0
M  V30 4225 C 403.29 -1.74329 -1.03032 0
M  V30 4226 C 403.618 -0.531915 -1.87085 0
M  V30 4227 O 402.873 0.486052 -1.89568 0
M  V30 4228 C 403.172 -2.98797 -1.961 0
M  V30 4229 C 402.838 -4.32356 -1.2798 0
M  V30 4230 C 401.5 -4.68661 -1.09135 0
M  V30 4231 C 403.852 -5.15128 -0.793243 0
M  V30 4232 C 401.18 -5.85312 -0.403269 0
M  V30 4233 C 403.532 -6.32488 -0.118854 0
M  V30 4234 C 402.196 -6.6745 0.0815043 0
M  V30 4235 H 401.466 -0.637916 -0.37702 0
M  V30 4236 H 404.113 -1.8906 -0.304696 0
M  V30 4237 H 402.418 -2.78869 -2.75207 0
M  V30 4238 H 404.115 -3.11102 -2.53015 0
M  V30 4239 H 400.705 -4.03808 -1.43655 0
M  V30 4240 H 404.889 -4.87575 -0.92653 0
M  V30 4241 H 400.145 -6.1094 -0.237098 0
M  V30 4242 H 404.319 -6.95892 0.266035 0
M  V30 4243 H 401.946 -7.57695 0.616685 0
M  V30 4244 N 403.521 0.559213 -1.47345 0
M  V30 4245 C 404.77 1.31281 -1.53128 0
M  V30 4246 C 405.083 1.94602 -0.197344 0
M  V30 4247 O 406.289 2.71173 -0.133154 0
M  V30 4248 C 404.745 2.38051 -2.69925 0
M  V30 4249 C 404.353 1.8093 -4.0984 0
M  V30 4250 C 406.097 3.14604 -2.84999 0
M  V30 4251 C 404.004 2.85468 -5.1794 0
M  V30 4252 H 402.934 0.493614 -0.569966 0
M  V30 4253 H 405.585 0.594155 -1.73615 0
M  V30 4254 H 403.967 3.12822 -2.42814 0
M  V30 4255 H 405.141 1.12544 -4.46845 0
M  V30 4256 H 403.456 1.16967 -3.99634 0
M  V30 4257 H 406.053 3.92666 -3.62929 0
M  V30 4258 H 406.396 3.68665 -1.93369 0
M  V30 4259 H 406.929 2.46945 -3.1187 0
M  V30 4260 H 403.668 2.36264 -6.1144 0
M  V30 4261 H 403.188 3.52269 -4.85455 0
M  V30 4262 H 404.867 3.48996 -5.44803 0
M  V30 4263 N 404.999 1.35443 0.805782 0
M  V30 4264 C 405.947 1.28465 1.93906 0
M  V30 4265 C 406.941 0.17943 1.68447 0
M  V30 4266 O 408.147 0.345459 1.76654 0
M  V30 4267 H 404.522 0.399528 0.637088 0
M  V30 4268 H 406.493 2.24206 1.96912 0
M  V30 4269 C 405.242 1.07432 3.30687 0
M  V30 4270 H 404.565 1.91716 3.50835 0
M  V30 4271 H 406.005 1.06591 4.10383 0
M  V30 4272 C 404.464 -0.22179 3.36169 0
M  V30 4273 O 404.994 -1.21731 3.82811 0
M  V30 4274 N 403.2 -0.260841 2.89427 0
M  V30 4275 H 402.747 0.549884 2.51663 0
M  V30 4276 H 402.705 -1.12777 2.93477 0
M  V30 4277 N 406.477 -1.02803 1.19454 0
M  V30 4278 C 407.893 -1.28473 0.946937 0
M  V30 4279 C 408.093 -1.97881 -0.380202 0
M  V30 4280 O 407.149 -2.26719 -1.11151 0
M  V30 4281 C 408.462 -2.13099 2.12154 0
M  V30 4282 C 410.01 -2.26404 2.16126 0
M  V30 4283 C 410.485 -3.14402 3.33039 0
M  V30 4284 N 411.976 -3.21991 3.32981 0
M  V30 4285 C 412.711 -3.90272 4.20089 0
M  V30 4286 N 412.207 -4.60777 5.17355 0
M  V30 4287 N 414 -3.8668 4.07964 0
M  V30 4288 H 406.151 -0.561665 2.04839 0
M  V30 4289 H 408.414 -0.310438 0.89573 0
M  V30 4290 H 408.12 -1.69422 3.08203 0
M  V30 4291 H 407.994 -3.13813 2.09287 0
M  V30 4292 H 410.381 -2.69311 1.20647 0
M  V30 4293 H 410.462 -1.25237 2.23045 0
M  V30 4294 H 410.106 -2.72204 4.28798 0
M  V30 4295 H 410.036 -4.1563 3.23356 0
M  V30 4296 H 412.527 -2.71778 2.62574 0
M  V30 4297 H 412.84 -5.10513 5.80169 0
M  V30 4298 H 411.185 -4.5964 5.21302 0
M  V30 4299 H 414.376 -3.30739 3.31254 0
M  V30 4300 H 414.549 -4.39621 4.76064 0
M  V30 4301 N 407.956 -0.998596 -1.21925 0
M  V30 4302 C 408.888 -0.511879 -2.23411 0
M  V30 4303 C 409.901 0.396094 -1.57908 0
M  V30 4304 O 411.09 0.197316 -1.77406 0
M  V30 4305 C 408.19 0.276802 -3.37768 0
M  V30 4306 C 407.363 -0.628687 -4.32858 0
M  V30 4307 C 406.422 0.109272 -5.26087 0
M  V30 4308 O 405.448 -0.507237 -5.66935 0
M  V30 4309 N 406.65 1.38983 -5.63617 0
M  V30 4310 H 409.415 -1.38457 -2.658 0
M  V30 4311 H 406.976 -0.873981 -1.36283 0
M  V30 4312 H 408.968 0.77928 -3.97126 0
M  V30 4313 H 407.538 1.05063 -2.94415 0
M  V30 4314 H 406.758 -1.31175 -3.71735 0
M  V30 4315 H 408.046 -1.24514 -4.93329 0
M  V30 4316 H 407.444 1.91194 -5.32411 0
M  V30 4317 H 406.001 1.83739 -6.25367 0
M  V30 4318 N 409.434 1.37368 -0.772513 0
M  V30 4319 C 410.344 2.34053 -0.160081 0
M  V30 4320 C 411.36 1.60216 0.678728 0
M  V30 4321 O 412.536 1.92303 0.59847 0
M  V30 4322 C 409.601 3.3939 0.708182 0
M  V30 4323 C 408.662 4.29048 -0.147172 0
M  V30 4324 C 407.895 5.29354 0.679744 0
M  V30 4325 O 408.118 5.3723 1.91678 0
M  V30 4326 O 407.052 6.01835 0.0885444 0
M  V30 4327 H 410.878 2.88159 -0.959053 0
M  V30 4328 H 408.463 1.39543 -0.533685 0
M  V30 4329 H 410.345 4.03839 1.20384 0
M  V30 4330 H 409.02 2.8761 1.48533 0
M  V30 4331 H 407.927 3.67697 -0.689205 0
M  V30 4332 H 409.26 4.84134 -0.887423 0
M  V30 4333 N 410.912 0.523116 1.48665 0
M  V30 4334 C 411.859 -0.243398 2.29513 0
M  V30 4335 C 412.829 -0.940139 1.36933 0
M  V30 4336 O 414.014 -0.942503 1.65896 0
M  V30 4337 C 411.154 -1.28855 3.20141 0
M  V30 4338 C 410.267 -0.60135 4.27794 0
M  V30 4339 C 409.402 -1.62884 5.05611 0
M  V30 4340 C 408.441 -0.924726 6.05075 0
M  V30 4341 N 407.578 -1.89744 6.75975 0
M  V30 4342 H 412.418 0.452234 2.94549 0
M  V30 4343 H 409.955 0.234858 1.45213 0
M  V30 4344 H 411.913 -1.90674 3.71079 0
M  V30 4345 H 410.543 -1.95266 2.57043 0
M  V30 4346 H 409.595 0.130623 3.80176 0
M  V30 4347 H 410.907 -0.0481585 4.98777 0
M  V30 4348 H 410.061 -2.32149 5.60528 0
M  V30 4349 H 408.8 -2.21592 4.34452 0
M  V30 4350 H 407.805 -0.217966 5.49368 0
M  V30 4351 H 409.03 -0.343851 6.78229 0
M  V30 4352 H 406.976 -2.47373 6.07571 0
M  V30 4353 H 406.893 -1.3955 7.43009 0
M  V30 4354 H 408.161 -2.58229 7.35485 0
M  V30 4355 N 412.39 -1.55475 0.257931 0
M  V30 4356 C 413.801 -1.8511 -0.243135 0
M  V30 4357 C 414.152 -1.17986 -1.5676 0
M  V30 4358 O 413.277 -0.462102 -2.11409 0
M  V30 4359 C 413.872 -3.35826 -0.447929 0
M  V30 4360 C 412.431 -3.65647 -0.893245 0
M  V30 4361 C 411.578 -2.7729 0.0232965 0
M  V30 4362 H 414.529 -1.51261 0.480199 0
M  V30 4363 H 414.55 -3.58002 -1.28898 0
M  V30 4364 H 414.062 -3.84652 0.516196 0
M  V30 4365 H 412.163 -3.22308 -1.86945 0
M  V30 4366 H 412.276 -4.73312 -0.742469 0
M  V30 4367 H 410.64 -2.49942 -0.490021 0
M  V30 4368 H 411.423 -3.28926 0.982994 0
M  V30 4369 N 413.868 0.0150385 -1.57593 0
M  V30 4370 C 414.798 1.01047 -2.10503 0
M  V30 4371 C 415.779 1.36816 -1.01071 0
M  V30 4372 O 416.964 1.45455 -1.28672 0
M  V30 4373 C 414.094 2.30708 -2.59598 0
M  V30 4374 C 413.048 2.09142 -3.73421 0
M  V30 4375 C 412.374 3.44685 -4.08774 0
M  V30 4376 C 413.674 1.46619 -5.01298 0
M  V30 4377 H 415.368 0.569978 -2.93925 0
M  V30 4378 H 412.914 0.272724 -1.41394 0
M  V30 4379 H 414.867 3.00687 -2.95238 0
M  V30 4380 H 413.591 2.76843 -1.73279 0
M  V30 4381 H 412.25 1.41592 -3.38153 0
M  V30 4382 H 411.898 3.88495 -3.195 0
M  V30 4383 H 411.598 3.31077 -4.8545 0
M  V30 4384 H 413.122 4.16004 -4.4696 0
M  V30 4385 H 414.536 2.06535 -5.34805 0
M  V30 4386 H 412.933 1.43544 -5.82679 0
M  V30 4387 H 414.003 0.433611 -4.82957 0
M  V30 4388 N 415.346 1.54954 0.287554 0
M  V30 4389 C 416.309 1.86076 1.33823 0
M  V30 4390 C 417.309 0.734414 1.43049 0
M  V30 4391 O 418.499 1.00266 1.42452 0
M  V30 4392 C 415.631 2.05305 2.72144 0
M  V30 4393 H 416.824 2.79984 1.07465 0
M  V30 4394 H 414.377 1.47223 0.524902 0
M  V30 4395 H 415.112 1.1373 3.03704 0
M  V30 4396 H 414.897 2.873 2.66836 0
M  V30 4397 H 416.387 2.30706 3.48087 0
M  V30 4398 N 416.824 -0.551391 1.4764 0
M  V30 4399 C 417.754 -1.66757 1.63445 0
M  V30 4400 C 418.735 -1.63077 0.483742 0
M  V30 4401 O 419.92 -1.80607 0.71377 0
M  V30 4402 C 417.05 -3.05387 1.65396 0
M  V30 4403 C 416.004 -3.23918 2.79752 0
M  V30 4404 C 415.33 -4.63393 2.66779 0
M  V30 4405 C 416.63 -3.08735 4.21284 0
M  V30 4406 H 418.324 -1.53786 2.56886 0
M  V30 4407 H 415.87 -0.738415 1.23626 0
M  V30 4408 H 417.823 -3.83325 1.75043 0
M  V30 4409 H 416.547 -3.19332 0.685195 0
M  V30 4410 H 415.206 -2.48391 2.69625 0
M  V30 4411 H 414.854 -4.74144 1.67918 0
M  V30 4412 H 414.554 -4.7674 3.43501 0
M  V30 4413 H 416.078 -5.43458 2.78364 0
M  V30 4414 H 417.492 -3.76484 4.32357 0
M  V30 4415 H 415.889 -3.33588 4.98838 0
M  V30 4416 H 416.959 -2.0541 4.39243 0
M  V30 4417 N 418.302 -1.35869 -0.798587 0
M  V30 4418 C 419.532 -1.32529 -1.58491 0
M  V30 4419 C 419.94 0.0975405 -1.88948 0
M  V30 4420 O 419.283 1.06224 -1.49874 0
M  V30 4421 C 419.345 -2.07247 -2.9375 0
M  V30 4422 C 419.009 -3.56391 -2.86068 0
M  V30 4423 C 420.006 -4.50824 -2.58947 0
M  V30 4424 C 417.691 -3.9915 -3.04933 0
M  V30 4425 C 419.685 -5.85993 -2.5078 0
M  V30 4426 C 417.372 -5.34413 -2.96389 0
M  V30 4427 C 418.37 -6.27646 -2.69349 0
M  V30 4428 O 418.058 -7.60426 -2.60782 0
M  V30 4429 H 417.79 -0.456529 -0.498556 0
M  V30 4430 H 420.344 -1.79425 -0.999799 0
M  V30 4431 H 418.574 -1.55001 -3.54276 0
M  V30 4432 H 420.263 -1.96883 -3.54954 0
M  V30 4433 H 421.029 -4.19104 -2.44084 0
M  V30 4434 H 416.908 -3.26961 -3.24989 0
M  V30 4435 H 420.452 -6.58735 -2.29595 0
M  V30 4436 H 416.349 -5.65743 -3.10813 0
M  V30 4437 H 417.117 -7.70444 -2.76331 0
M  V30 4438 N 419.78 1.02168 -1.19998 0
M  V30 4439 C 420.743 2.08765 -0.94604 0
M  V30 4440 C 421.743 1.60618 0.0763846 0
M  V30 4441 O 422.933 1.73472 -0.159135 0
M  V30 4442 C 420.065 3.38262 -0.423255 0
M  V30 4443 H 421.258 2.32726 -1.89153 0
M  V30 4444 H 418.811 1.1889 -1.01464 0
M  V30 4445 H 419.546 3.19974 0.527938 0
M  V30 4446 H 419.331 3.74532 -1.16053 0
M  V30 4447 H 420.821 4.16759 -0.264911 0
M  V30 4448 N 421.258 1.00505 1.21394 0
M  V30 4449 C 422.505 0.687774 1.90462 0
M  V30 4450 C 422.833 -0.78147 1.7811 0
M  V30 4451 O 422.088 -1.58208 1.1519 0
M  V30 4452 C 422.387 1.0546 3.41486 0
M  V30 4453 C 422.053 2.51812 3.74034 0
M  V30 4454 C 420.715 2.91804 3.82628 0
M  V30 4455 C 423.067 3.46614 3.8924 0
M  V30 4456 C 420.395 4.2556 4.03876 0
M  V30 4457 C 422.747 4.80044 4.11995 0
M  V30 4458 C 421.411 5.19759 4.18816 0
M  V30 4459 H 420.681 0.251674 0.696951 0
M  V30 4460 H 423.328 1.26349 1.43903 0
M  V30 4461 H 421.633 0.397133 3.89782 0
M  V30 4462 H 423.33 0.786976 3.93202 0
M  V30 4463 H 419.92 2.1982 3.67936 0
M  V30 4464 H 424.104 3.16883 3.81967 0
M  V30 4465 H 419.36 4.55901 4.07387 0
M  V30 4466 H 423.534 5.53439 4.22704 0
M  V30 4467 H 421.161 6.23418 4.35033 0
M  V30 4468 N 422.737 -1.36956 0.779787 0
M  V30 4469 C 423.962 -2.04283 0.358224 0
M  V30 4470 C 424.387 -1.58422 -1.01411 0
M  V30 4471 O 423.745 -0.748179 -1.65142 0
M  V30 4472 C 423.793 -3.58152 0.419479 0
M  V30 4473 O 422.897 -4.08342 -0.577142 0
M  V30 4474 H 422.238 -0.645967 0.153698 0
M  V30 4475 H 424.768 -1.75108 1.05822 0
M  V30 4476 H 424.778 -4.07041 0.279636 0
M  V30 4477 H 423.453 -3.90886 1.42061 0
M  V30 4478 H 422.03 -3.70751 -0.399755 0
M  V30 4479 N 424.215 -0.530993 -1.48385 0
M  V30 4480 C 425.163 0.244595 -2.3131 0
M  V30 4481 C 426.157 0.93451 -1.41291 0
M  V30 4482 O 427.363 0.85878 -1.58193 0
M  V30 4483 H 423.738 0.0977472 -0.74562 0
M  V30 4484 H 425.709 -0.474369 -2.94605 0
M  V30 4485 C 424.458 1.2779 -3.23365 0
M  V30 4486 H 423.781 0.756439 -3.92579 0
M  V30 4487 H 425.221 1.79198 -3.84271 0
M  V30 4488 C 423.68 2.31205 -2.45042 0
M  V30 4489 O 424.21 3.37661 -2.17596 0
M  V30 4490 N 422.416 2.04446 -2.0652 0
M  V30 4491 H 421.963 1.17891 -2.2904 0
M  V30 4492 H 421.921 2.73861 -1.54427 0
M  V30 4493 N 425.693 1.55336 -0.266172 0
M  V30 4494 C 426.918 2.04258 0.359661 0
M  V30 4495 C 427.343 1.14359 1.49344 0
M  V30 4496 O 426.701 0.140369 1.80756 0
M  V30 4497 C 426.749 3.50997 0.826635 0
M  V30 4498 O 425.853 3.64204 1.93466 0
M  V30 4499 H 425.194 0.659668 0.075727 0
M  V30 4500 H 427.724 2.00694 -0.39786 0
M  V30 4501 H 427.734 3.9219 1.12477 0
M  V30 4502 H 426.409 4.159 -0.00293032 0
M  V30 4503 H 424.986 3.34913 1.63974 0
M  V30 4504 N 427.171 -0.0066808 1.57599 0
M  V30 4505 C 428.396 -0.707738 1.94951 0
M  V30 4506 C 428.821 -1.66882 0.867868 0
M  V30 4507 O 428.179 -1.80457 -0.17458 0
M  V30 4508 C 428.227 -1.42162 3.31394 0
M  V30 4509 O 427.331 -2.53578 3.25226 0
M  V30 4510 H 426.672 -0.188752 0.636607 0
M  V30 4511 H 429.202 0.0445193 2.04552 0
M  V30 4512 H 429.212 -1.78655 3.66806 0
M  V30 4513 H 427.887 -0.716903 4.09675 0
M  V30 4514 H 426.464 -2.19463 3.01481 0
M  V30 4515 N 428.649 -1.55105 -0.279332 0
M  V30 4516 C 429.581 -1.83952 -1.36727 0
M  V30 4517 C 430.594 -0.723642 -1.45833 0
M  V30 4518 O 431.783 -1.00141 -1.47763 0
M  V30 4519 C 428.883 -1.98183 -2.74912 0
M  V30 4520 C 428.056 -3.28787 -2.88475 0
M  V30 4521 C 427.115 -3.33162 -4.07295 0
M  V30 4522 O 426.141 -4.06576 -3.98353 0
M  V30 4523 N 427.343 -2.60109 -5.18964 0
M  V30 4524 H 430.108 -2.77853 -1.12328 0
M  V30 4525 H 427.669 -1.54945 -0.469442 0
M  V30 4526 H 429.661 -1.98488 -3.52682 0
M  V30 4527 H 428.231 -1.11177 -2.92162 0
M  V30 4528 H 427.451 -3.41075 -1.97641 0
M  V30 4529 H 428.739 -4.14933 -2.94463 0
M  V30 4530 H 428.137 -2.00136 -5.29115 0
M  V30 4531 H 426.694 -2.66143 -5.94988 0
M  V30 4532 N 430.127 0.543554 -1.4793 0
M  V30 4533 C 431.373 1.30201 -1.55485 0
M  V30 4534 C 431.706 1.92925 -0.222201 0
M  V30 4535 O 430.981 1.78586 0.77053 0
M  V30 4536 C 431.264 2.40174 -2.68307 0
M  V30 4537 C 431.117 1.8223 -4.11233 0
M  V30 4538 C 432.436 3.42024 -2.76961 0
M  V30 4539 H 429.555 0.472036 -0.565996 0
M  V30 4540 H 432.197 0.606914 -1.80046 0
M  V30 4541 H 430.347 2.99463 -2.47495 0
M  V30 4542 H 432.019 1.27096 -4.43446 0
M  V30 4543 H 430.262 1.12832 -4.18869 0
M  V30 4544 H 430.933 2.61793 -4.85972 0
M  V30 4545 H 433.409 2.92672 -2.95774 0
M  V30 4546 H 432.285 4.16383 -3.57654 0
M  V30 4547 H 432.546 4.0173 -1.84568 0
M  V30 4548 N 431.605 1.3629 0.791371 0
M  V30 4549 C 432.851 1.30605 1.55146 0
M  V30 4550 C 433.184 -0.115042 1.93859 0
M  V30 4551 O 432.459 -1.06798 1.62556 0
M  V30 4552 C 432.742 2.22692 2.82985 0
M  V30 4553 C 432.595 3.73489 2.50651 0
M  V30 4554 C 433.914 2.13588 3.84796 0
M  V30 4555 H 431.033 0.475761 0.562868 0
M  V30 4556 H 433.675 1.66825 0.909358 0
M  V30 4557 H 431.825 1.91933 3.37778 0
M  V30 4558 H 433.497 4.14758 2.01924 0
M  V30 4559 H 431.74 3.93021 1.83622 0
M  V30 4560 H 432.411 4.3333 3.41949 0
M  V30 4561 H 434.887 2.40659 3.39445 0
M  V30 4562 H 433.763 2.80195 4.71998 0
M  V30 4563 H 434.024 1.12256 4.27611 0
M  V30 4564 N 433.083 -1.0153 1.20538 0
M  V30 4565 C 434.031 -2.12215 0.952235 0
M  V30 4566 C 435.025 -1.69123 -0.0968735 0
M  V30 4567 O 436.231 -1.7992 0.0536006 0
M  V30 4568 H 432.606 -0.693576 0.290613 0
M  V30 4569 H 434.577 -2.3075 1.89201 0
M  V30 4570 C 433.326 -3.43755 0.522287 0
M  V30 4571 H 432.649 -3.7734 1.32115 0
M  V30 4572 H 434.089 -4.22254 0.384389 0
M  V30 4573 C 432.548 -3.28088 -0.765489 0
M  V30 4574 O 433.078 -3.57921 -1.8236 0
M  V30 4575 N 431.284 -2.81333 -0.728011 0
M  V30 4576 H 430.831 -2.57255 0.133332 0
M  V30 4577 H 430.789 -2.71232 -1.58999 0
M  V30 4578 N 434.561 -1.01147 -1.20859 0
M  V30 4579 C 435.493 -0.535546 -2.22855 0
M  V30 4580 C 436.506 0.379323 -1.58319 0
M  V30 4581 O 437.695 0.178489 -1.77605 0
M  V30 4582 C 434.795 0.240962 -3.38042 0
M  V30 4583 C 433.968 -0.674562 -4.32167 0
M  V30 4584 C 433.027 0.053467 -5.26173 0
M  V30 4585 O 432.053 -0.567339 -5.66366 0
M  V30 4586 N 433.255 1.32997 -5.65059 0
M  V30 4587 H 436.02 -1.41268 -2.64317 0
M  V30 4588 H 433.581 -0.888386 -1.35349 0
M  V30 4589 H 435.573 0.737115 -3.97931 0
M  V30 4590 H 434.143 1.01935 -2.95513 0
M  V30 4591 H 433.363 -1.35111 -3.70322 0
M  V30 4592 H 434.651 -1.2974 -4.91981 0
M  V30 4593 H 434.049 1.85536 -5.34409 0
M  V30 4594 H 432.606 1.77095 -6.2728 0
M  V30 4595 N 436.039 1.36541 -0.78704 0
M  V30 4596 C 436.972 2.27831 -0.129765 0
M  V30 4597 C 437.95 1.47105 0.692732 0
M  V30 4598 O 439.134 1.7641 0.664222 0
M  V30 4599 C 436.261 3.28577 0.821883 0
M  V30 4600 C 435.307 4.26422 0.0814771 0
M  V30 4601 S 436.14 5.20919 -1.24112 0
M  V30 4602 C 437.296 6.25212 -0.293409 0
M  V30 4603 H 437.529 2.83229 -0.903811 0
M  V30 4604 H 435.062 1.43046 -0.581144 0
M  V30 4605 H 437.02 3.87123 1.3655 0
M  V30 4606 H 435.681 2.72096 1.56916 0
M  V30 4607 H 434.874 4.97554 0.803485 0
M  V30 4608 H 434.476 3.71944 -0.391589 0
M  V30 4609 H 436.768 6.75435 0.528622 0
M  V30 4610 H 437.711 7.01378 -0.973344 0
M  V30 4611 H 438.119 5.64407 0.102196 0
M  V30 4612 N 437.518 0.538854 1.48102 0
M  V30 4613 C 438.448 -0.207654 2.32575 0
M  V30 4614 C 439.429 -0.926559 1.4265 0
M  V30 4615 O 440.614 -0.91061 1.71527 0
M  V30 4616 C 437.744 -1.24957 3.24042 0
M  V30 4617 C 436.698 -0.648263 4.23062 0
M  V30 4618 C 436.024 -1.79348 5.03725 0
M  V30 4619 C 437.324 0.385897 5.20872 0
M  V30 4620 H 439.018 0.497534 2.95237 0
M  V30 4621 H 436.564 0.240715 1.41974 0
M  V30 4622 H 438.517 -1.77983 3.81969 0
M  V30 4623 H 437.241 -1.98446 2.59397 0
M  V30 4624 H 435.9 -0.139452 3.66335 0
M  V30 4625 H 435.548 -2.51696 4.35498 0
M  V30 4626 H 435.248 -1.39702 5.70751 0
M  V30 4627 H 436.772 -2.32735 5.64506 0
M  V30 4628 H 438.186 -0.057607 5.73271 0
M  V30 4629 H 436.583 0.700227 5.96001 0
M  V30 4630 H 437.653 1.28848 4.67468 0
M  V30 4631 N 438.996 -1.55193 0.274407 0
M  V30 4632 C 439.906 -2.26164 -0.623473 0
M  V30 4633 C 440.922 -1.28729 -1.17068 0
M  V30 4634 O 442.098 -1.61663 -1.20112 0
M  V30 4635 C 439.163 -2.96833 -1.7914 0
M  V30 4636 C 438.224 -4.09745 -1.28093 0
M  V30 4637 C 437.457 -4.77034 -2.3932 0
M  V30 4638 O 437.68 -4.4353 -3.5866 0
M  V30 4639 O 436.614 -5.64996 -2.07516 0
M  V30 4640 H 440.44 -3.03661 -0.0485661 0
M  V30 4641 H 438.025 -1.49341 0.0418382 0
M  V30 4642 H 439.907 -3.41248 -2.4724 0
M  V30 4643 H 438.582 -2.22253 -2.35341 0
M  V30 4644 H 437.489 -3.69787 -0.566416 0
M  V30 4645 H 438.822 -4.86224 -0.764683 0
M  V30 4646 N 440.474 -0.00167713 -1.576 0
M  V30 4647 C 441.89 0.354422 -1.55615 0
M  V30 4648 C 442.09 1.74679 -1.00447 0
M  V30 4649 O 441.146 2.4428 -0.639022 0
M  V30 4650 C 442.459 0.22812 -2.99833 0
M  V30 4651 C 444.007 0.302934 -3.11531 0
M  V30 4652 C 444.482 0.205737 -4.57538 0
M  V30 4653 N 445.973 0.263584 -4.62449 0
M  V30 4654 C 446.708 0.211742 -5.73009 0
M  V30 4655 N 446.204 0.110399 -6.92712 0
M  V30 4656 N 447.997 0.263729 -5.61481 0
M  V30 4657 H 440.148 -0.912498 -1.918 0
M  V30 4658 H 442.411 -0.349928 -0.881053 0
M  V30 4659 H 442.117 -0.729934 -3.44042 0
M  V30 4660 H 441.991 1.00951 -3.6344 0
M  V30 4661 H 444.378 1.25143 -2.67251 0
M  V30 4662 H 444.459 -0.508357 -2.50698 0
M  V30 4663 H 444.103 -0.739225 -5.02492 0
M  V30 4664 H 444.033 1.03554 -5.16318 0
M  V30 4665 H 446.524 0.343173 -3.76339 0
M  V30 4666 H 446.837 0.0767828 -7.72762 0
M  V30 4667 H 445.182 0.0760025 -6.94958 0
M  V30 4668 H 448.373 0.34111 -4.66855 0
M  V30 4669 H 448.546 0.219862 -6.47627 0
M  V30 4670 N 441.952 1.55251 0.271103 0
M  V30 4671 C 443.18 1.79974 1.02064 0
M  V30 4672 C 443.595 0.574003 1.79863 0
M  V30 4673 O 442.952 -0.456962 1.76686 0
M  V30 4674 C 443.003 3.02603 1.97772 0
M  V30 4675 O 442.724 4.20443 1.23124 0
M  V30 4676 C 444.225 3.39944 2.84522 0
M  V30 4677 H 441.445 0.599489 0.301419 0
M  V30 4678 H 443.989 2.02268 0.301313 0
M  V30 4679 H 442.144 2.8243 2.65165 0
M  V30 4680 H 442.558 4.89783 1.87651 0
M  V30 4681 H 444.032 4.28915 3.47471 0
M  V30 4682 H 444.509 2.59432 3.54389 0
M  V30 4683 H 445.115 3.62383 2.22618 0
M  V30 4684 N 443.43 -0.535701 1.48216 0
M  V30 4685 C 444.655 -1.32149 1.59848 0
M  V30 4686 C 445.08 -1.86338 0.256842 0
M  V30 4687 O 444.438 -1.64107 -0.770632 0
M  V30 4688 C 444.486 -2.45224 2.64381 0
M  V30 4689 O 443.59 -3.48093 2.21144 0
M  V30 4690 H 442.931 -0.391634 0.536208 0
M  V30 4691 H 445.461 -0.645202 1.94161 0
M  V30 4692 H 445.471 -2.91491 2.85476 0
M  V30 4693 H 444.146 -2.05143 3.61786 0
M  V30 4694 H 442.723 -3.07984 2.10239 0
M  V30 4695 N 444.908 -1.36708 -0.784132 0
M  V30 4696 C 446.133 -1.34565 -1.5782 0
M  V30 4697 C 446.558 0.0695257 -1.87971 0
M  V30 4698 O 445.916 1.04302 -1.48293 0
M  V30 4699 C 445.964 -2.17952 -2.87279 0
M  V30 4700 O 445.068 -1.57563 -3.81114 0
M  V30 4701 H 444.409 -0.460337 -0.478524 0
M  V30 4702 H 446.939 -1.80064 -0.971495 0
M  V30 4703 H 446.949 -2.30721 -3.365 0
M  V30 4704 H 445.624 -3.20823 -2.64661 0
M  V30 4705 H 444.201 -1.53764 -3.39722 0
M  V30 4706 N 446.386 1.0089 -1.21074 0
M  V30 4707 C 447.634 1.74262 -1.02358 0
M  V30 4708 C 447.955 1.89869 0.444393 0
M  V30 4709 O 447.225 1.44677 1.32081 0
M  V30 4710 H 445.805 0.645615 -0.375754 0
M  V30 4711 H 448.467 1.21596 -1.52317 0
M  V30 4712 H 447.563 2.74328 -1.4883 0
M  V30 4713 N 447.864 1.01787 1.20321 0
M  V30 4714 C 449.089 0.727009 1.9424 0
M  V30 4715 C 449.514 -0.706179 1.74341 0
M  V30 4716 O 448.872 -1.48609 1.03852 0
M  V30 4717 C 448.92 1.06958 3.44372 0
M  V30 4718 O 448.024 0.181983 4.11998 0
M  V30 4719 H 447.365 0.269626 0.606793 0
M  V30 4720 H 449.895 1.36158 1.52716 0
M  V30 4721 H 449.905 1.02182 3.94997 0
M  V30 4722 H 448.58 2.11378 3.58179 0
M  V30 4723 H 447.157 0.287378 3.71791 0
M  V30 4724 N 449.342 -1.36122 0.79427 0
M  V30 4725 C 450.589 -1.99111 0.368905 0
M  V30 4726 C 450.917 -1.63032 -1.0607 0
M  V30 4727 O 450.172 -0.879303 -1.74833 0
M  V30 4728 C 450.471 -3.5409 0.48527 0
M  V30 4729 C 450.137 -4.10003 1.87638 0
M  V30 4730 C 448.799 -4.24986 2.257 0
M  V30 4731 C 451.151 -4.40423 2.78706 0
M  V30 4732 C 448.479 -4.67701 3.54221 0
M  V30 4733 C 450.831 -4.84573 4.0666 0
M  V30 4734 C 449.495 -4.97761 4.44737 0
M  V30 4735 H 448.765 -0.7286 0.134992 0
M  V30 4736 H 451.412 -1.62534 1.01267 0
M  V30 4737 H 449.717 -3.91052 -0.241984 0
M  V30 4738 H 451.414 -4.00766 0.137109 0
M  V30 4739 H 448.004 -3.98784 1.57064 0
M  V30 4740 H 452.188 -4.28412 2.50553 0
M  V30 4741 H 447.444 -4.761 3.83587 0
M  V30 4742 H 451.618 -5.07074 4.77336 0
M  V30 4743 H 449.245 -5.30618 5.44379 0
M  V30 4744 N 450.82 -0.546701 -1.47814 0
M  V30 4745 C 452.068 -0.0187037 -2.02091 0
M  V30 4746 C 452.389 1.33168 -1.42447 0
M  V30 4747 O 451.659 1.86619 -0.595839 0
M  V30 4748 H 450.239 -0.00392531 -0.74699 0
M  V30 4749 H 452.901 -0.714327 -1.81338 0
M  V30 4750 H 451.997 0.0772219 -3.12004 0
M  V30 4751 N 452.299 1.55045 -0.282633 0
M  V30 4752 C 453.547 1.99365 0.331334 0
M  V30 4753 C 453.868 1.1725 1.55812 0
M  V30 4754 O 453.138 0.263871 1.94115 0
M  V30 4755 H 451.718 0.736397 0.125414 0
M  V30 4756 H 454.38 1.90964 -0.389711 0
M  V30 4757 H 453.476 3.0596 0.616036 0
M  V30 4758 N 453.777 0.010035 1.57597 0
M  V30 4759 C 454.725 -0.996272 2.10184 0
M  V30 4760 C 455.719 -1.34942 1.02406 0
M  V30 4761 O 456.925 -1.33389 1.20861 0
M  V30 4762 H 453.3 -0.338982 0.671264 0
M  V30 4763 H 455.271 -0.527272 2.93705 0
M  V30 4764 C 454.02 -2.27599 2.62857 0
M  V30 4765 H 453.343 -2.01295 3.45428 0
M  V30 4766 H 454.783 -2.96265 3.0332 0
M  V30 4767 C 453.242 -2.99269 1.54725 0
M  V30 4768 O 453.772 -3.90644 0.93597 0
M  V30 4769 N 451.978 -2.61269 1.27228 0
M  V30 4770 H 451.525 -1.87043 1.77123 0
M  V30 4771 H 451.483 -3.09534 0.550999 0
M  V30 4772 N 455.255 -1.55392 -0.262866 0
M  V30 4773 C 456.165 -1.92077 -1.34698 0
M  V30 4774 C 457.181 -0.819227 -1.53508 0
M  V30 4775 O 458.357 -1.11921 -1.67439 0
M  V30 4776 C 455.422 -2.19407 -2.68443 0
M  V30 4777 C 454.483 -3.42905 -2.58292 0
M  V30 4778 C 453.716 -3.68921 -3.85659 0
M  V30 4779 O 453.939 -2.97275 -4.8681 0
M  V30 4780 O 452.873 -4.62455 -3.85252 0
M  V30 4781 H 456.699 -2.84384 -1.06581 0
M  V30 4782 H 454.284 -1.42069 -0.462264 0
M  V30 4783 H 456.166 -2.38365 -3.47506 0
M  V30 4784 H 454.841 -1.30282 -2.96325 0
M  V30 4785 H 453.748 -3.29272 -1.7757 0
M  V30 4786 H 455.081 -4.32282 -2.35358 0
M  V30 4787 N 456.733 0.527833 -1.48498 0
M  V30 4788 C 457.981 1.28101 -1.56316 0
M  V30 4789 C 458.302 1.9352 -0.239781 0
M  V30 4790 O 457.572 1.81433 0.738849 0
M  V30 4791 H 456.152 0.475793 -0.575873 0
M  V30 4792 H 458.814 0.614052 -1.84974 0
M  V30 4793 H 457.91 2.05916 -2.34532 0
M  V30 4794 N 458.211 1.37122 0.776871 0
M  V30 4795 C 459.458 1.32047 1.53524 0
M  V30 4796 C 459.786 -0.0965631 1.9426 0
M  V30 4797 O 459.041 -1.06866 1.63945 0
M  V30 4798 C 459.34 2.20068 2.81611 0
M  V30 4799 C 459.006 3.68423 2.59953 0
M  V30 4800 C 457.668 4.08854 2.53755 0
M  V30 4801 C 460.02 4.62431 2.40431 0
M  V30 4802 C 457.348 5.41417 2.26018 0
M  V30 4803 C 459.7 5.95225 2.14219 0
M  V30 4804 C 458.364 6.34767 2.06462 0
M  V30 4805 H 457.634 0.483196 0.561785 0
M  V30 4806 H 460.281 1.69284 0.895268 0
M  V30 4807 H 458.586 1.75809 3.50141 0
M  V30 4808 H 460.283 2.13458 3.39465 0
M  V30 4809 H 456.873 3.36354 2.65638 0
M  V30 4810 H 461.057 4.32057 2.44213 0
M  V30 4811 H 456.313 5.71022 2.18504 0
M  V30 4812 H 460.487 6.67626 1.98112 0
M  V30 4813 H 458.114 7.37413 1.84733 0
M  V30 4814 N 459.689 -1.00246 1.21608 0
M  V30 4815 C 460.917 -1.77631 1.06089 0
M  V30 4816 C 461.332 -1.84746 -0.38916 0
M  V30 4817 O 460.689 -1.31068 -1.26994 0
M  V30 4818 C 460.74 -3.21415 1.65453 0
M  V30 4819 O 460.461 -3.14703 3.04785 0
M  V30 4820 C 461.962 -4.15289 1.55079 0
M  V30 4821 H 459.182 -0.558162 0.37242 0
M  V30 4822 H 461.726 -1.26093 1.60999 0
M  V30 4823 H 459.881 -3.70053 1.14629 0
M  V30 4824 H 460.295 -4.05056 3.33212 0
M  V30 4825 H 461.769 -5.13965 2.01355 0
M  V30 4826 H 462.246 -4.36279 0.505665 0
M  V30 4827 H 462.852 -3.72543 2.05163 0
M  V30 4828 N 461.167 -1.02423 -1.1978 0
M  V30 4829 C 462.397 -0.736387 -1.93031 0
M  V30 4830 C 462.805 0.708023 -1.75453 0
M  V30 4831 O 462.148 1.4927 -1.07071 0
M  V30 4832 C 462.21 -1.00194 -3.45255 0
M  V30 4833 C 461.874 -2.43698 -3.86601 0
M  V30 4834 C 462.871 -3.41814 -3.91738 0
M  V30 4835 C 460.556 -2.77975 -4.18372 0
M  V30 4836 C 462.55 -4.72265 -4.28071 0
M  V30 4837 C 460.237 -4.08636 -4.54378 0
M  V30 4838 C 461.235 -5.05592 -4.59201 0
M  V30 4839 O 460.923 -6.33914 -4.94376 0
M  V30 4840 H 460.655 -0.269116 -0.620123 0
M  V30 4841 H 463.209 -1.37043 -1.52998 0
M  V30 4842 H 461.439 -0.310747 -3.85449 0
M  V30 4843 H 463.128 -0.704488 -3.9974 0
M  V30 4844 H 463.894 -3.16671 -3.67348 0
M  V30 4845 H 459.773 -2.0319 -4.13805 0
M  V30 4846 H 463.317 -5.4794 -4.3175 0
M  V30 4847 H 459.214 -4.33556 -4.78226 0
M  V30 4848 H 459.982 -6.38317 -5.12341 0
M  V30 4849 N 462.645 1.35699 -0.801477 0
M  V30 4850 C 463.894 1.98165 -0.375979 0
M  V30 4851 C 464.207 1.64306 1.06127 0
M  V30 4852 O 465.413 2.20097 1.58964 0
M  V30 4853 C 463.869 3.54497 -0.621305 0
M  V30 4854 C 463.477 3.9727 -2.07076 0
M  V30 4855 C 465.221 4.23697 -0.26091 0
M  V30 4856 C 463.128 5.46427 -2.26211 0
M  V30 4857 H 462.058 0.741478 -0.136844 0
M  V30 4858 H 464.709 1.54834 -0.984814 0
M  V30 4859 H 463.091 3.95958 0.0574112 0
M  V30 4860 H 464.265 3.66974 -2.78687 0
M  V30 4861 H 462.58 3.40943 -2.39054 0
M  V30 4862 H 465.177 5.33334 -0.381994 0
M  V30 4863 H 465.52 4.0869 0.792344 0
M  V30 4864 H 466.053 3.87639 -0.893339 0
M  V30 4865 H 462.792 5.66396 -3.29963 0
M  V30 4866 H 462.312 5.78309 -1.59119 0
M  V30 4867 H 463.991 6.12819 -2.07513 0
M  V30 4868 N 464.123 0.554532 1.47522 0
M  V30 4869 C 465.348 0.0322661 2.07375 0
M  V30 4870 C 465.773 -1.25079 1.40488 0
M  V30 4871 O 465.131 -1.74859 0.47896 0
M  V30 4872 C 465.179 -0.149397 3.6029 0
M  V30 4873 O 464.283 -1.21259 3.9417 0
M  V30 4874 H 463.624 0.0501228 0.662106 0
M  V30 4875 H 466.154 0.769452 1.8958 0
M  V30 4876 H 466.164 -0.364437 4.06369 0
M  V30 4877 H 464.839 0.787743 4.08372 0
M  V30 4878 H 463.416 -0.97825 3.5984 0
M  V30 4879 N 465.601 -1.54893 0.290851 0
M  V30 4880 C 466.531 -2.26103 -0.583084 0
M  V30 4881 C 467.512 -1.25684 -1.14619 0
M  V30 4882 O 468.697 -1.54436 -1.17741 0
M  V30 4883 C 465.827 -2.99409 -1.75987 0
M  V30 4884 C 464.781 -4.0689 -1.32758 0
M  V30 4885 C 464.107 -4.67856 -2.58872 0
M  V30 4886 C 465.407 -5.20215 -0.46624 0
M  V30 4887 H 467.101 -2.99398 0.0108214 0
M  V30 4888 H 464.647 -1.43998 0.00664468 0
M  V30 4889 H 466.6 -3.47943 -2.37727 0
M  V30 4890 H 465.324 -2.23675 -2.37985 0
M  V30 4891 H 463.983 -3.59191 -0.733299 0
M  V30 4892 H 463.631 -3.88772 -3.19163 0
M  V30 4893 H 463.331 -5.40438 -2.30653 0
M  V30 4894 H 464.855 -5.19147 -3.21433 0
M  V30 4895 H 466.269 -5.64704 -0.989047 0
M  V30 4896 H 464.666 -5.99455 -0.27826 0
M  V30 4897 H 465.736 -4.82198 0.511173 0
M  V30 4898 N 467.08 -0.0183926 -1.57589 0
M  V30 4899 C 468.01 0.965596 -2.12599 0
M  V30 4900 C 468.991 1.34641 -1.0395 0
M  V30 4901 O 470.176 1.42693 -1.31729 0
M  V30 4902 C 467.306 2.25149 -2.64434 0
M  V30 4903 C 466.26 2.01175 -3.77773 0
M  V30 4904 C 465.586 3.35937 -4.15994 0
M  V30 4905 C 466.886 1.35953 -5.04296 0
M  V30 4906 H 468.58 0.507504 -2.95067 0
M  V30 4907 H 466.126 0.242671 -1.41941 0
M  V30 4908 H 468.079 2.94357 -3.01549 0
M  V30 4909 H 466.803 2.73105 -1.79112 0
M  V30 4910 H 465.462 1.34388 -3.4108 0
M  V30 4911 H 465.11 3.81631 -3.27669 0
M  V30 4912 H 464.81 3.20705 -4.92364 0
M  V30 4913 H 466.334 4.0643 -4.55683 0
M  V30 4914 H 467.748 1.95144 -5.39065 0
M  V30 4915 H 466.145 1.31152 -5.85593 0
M  V30 4916 H 467.215 0.331071 -4.83768 0
M  V30 4917 N 468.558 1.5553 0.254621 0
M  V30 4918 C 469.783 1.81383 1.00573 0
M  V30 4919 C 470.208 0.594419 1.78461 0
M  V30 4920 O 469.566 -0.456403 1.75461 0
M  V30 4921 C 469.614 3.04892 1.92545 0
M  V30 4922 O 468.718 2.81266 3.01601 0
M  V30 4923 H 468.059 0.598969 0.286587 0
M  V30 4924 H 470.589 2.02703 0.277952 0
M  V30 4925 H 470.599 3.34119 2.34155 0
M  V30 4926 H 469.274 3.93287 1.3527 0
M  V30 4927 H 467.851 2.63185 2.64174 0
M  V30 4928 N 470.036 -0.519951 1.48776 0
M  V30 4929 C 471.282 -1.27711 1.57536 0
M  V30 4930 C 471.615 -1.92547 0.252866 0
M  V30 4931 O 470.89 -1.7979 -0.742021 0
M  V30 4932 C 471.173 -2.35875 2.72094 0
M  V30 4933 C 471.026 -1.75664 4.1408 0
M  V30 4934 C 472.345 -3.37575 2.82367 0
M  V30 4935 H 469.464 -0.462971 0.573434 0
M  V30 4936 H 472.106 -0.578194 1.80989 0
M  V30 4937 H 470.256 -2.95488 2.52228 0
M  V30 4938 H 471.928 -1.20025 4.45412 0
M  V30 4939 H 470.171 -1.06154 4.20611 0
M  V30 4940 H 470.842 -2.54029 4.90075 0
M  V30 4941 H 473.318 -2.87929 3.00393 0
M  V30 4942 H 472.194 -4.1064 3.64233 0
M  V30 4943 H 472.455 -3.98743 1.90936 0
M  V30 4944 N 471.514 -1.37532 -0.769588 0
M  V30 4945 C 472.925 -1.29382 -1.346 0
M  V30 4946 C 473.276 0.0576039 -1.96115 0
M  V30 4947 O 472.401 0.95947 -1.93967 0
M  V30 4948 C 472.996 -2.34298 -2.44724 0
M  V30 4949 C 471.555 -2.29776 -2.98128 0
M  V30 4950 C 470.702 -2.18013 -1.71364 0
M  V30 4951 H 473.653 -1.48123 -0.56968 0
M  V30 4952 H 473.674 -1.99089 -3.24259 0
M  V30 4953 H 473.186 -3.32645 -1.99922 0
M  V30 4954 H 471.287 -1.34959 -3.47299 0
M  V30 4955 H 471.4 -3.23276 -3.53595 0
M  V30 4956 H 469.764 -1.64595 -1.94372 0
M  V30 4957 H 470.547 -3.18278 -1.28662 0
M  V30 4958 N 472.992 0.995999 -1.22138 0
M  V30 4959 C 474.239 1.7351 -1.04406 0
M  V30 4960 C 474.567 1.89884 0.421244 0
M  V30 4961 O 473.822 1.43683 1.32867 0
M  V30 4962 C 474.121 3.14553 -1.6968 0
M  V30 4963 C 473.787 3.18102 -3.19565 0
M  V30 4964 C 472.449 3.18778 -3.60464 0
M  V30 4965 C 474.801 3.14636 -4.15516 0
M  V30 4966 C 472.129 3.13684 -4.95801 0
M  V30 4967 C 474.481 3.11084 -5.50826 0
M  V30 4968 C 473.145 3.10074 -5.91109 0
M  V30 4969 H 472.415 0.634916 -0.38205 0
M  V30 4970 H 475.062 1.1667 -1.51857 0
M  V30 4971 H 473.367 3.74682 -1.14546 0
M  V30 4972 H 475.064 3.70477 -1.53454 0
M  V30 4973 H 471.654 3.18324 -2.86998 0
M  V30 4974 H 475.838 3.13266 -3.84939 0
M  V30 4975 H 471.094 3.11245 -5.26247 0
M  V30 4976 H 475.268 3.07357 -6.24904 0
M  V30 4977 H 472.895 3.05882 -6.95946 0
M  V30 4978 N 474.47 1.03057 1.19235 0
M  V30 4979 C 475.718 0.726581 1.88587 0
M  V30 4980 C 476.039 -0.747227 1.80115 0
M  V30 4981 O 475.309 -1.53849 1.21274 0
M  V30 4982 H 473.889 0.265768 0.698124 0
M  V30 4983 H 476.551 1.30516 1.44746 0
M  V30 4984 H 475.647 1.0224 2.94879 0
M  V30 4985 N 475.948 -1.35272 0.808662 0
M  V30 4986 C 477.196 -1.98316 0.389233 0
M  V30 4987 C 477.517 -1.64465 -1.04767 0
M  V30 4988 O 476.787 -0.928175 -1.72516 0
M  V30 4989 H 475.367 -0.733585 0.140935 0
M  V30 4990 H 478.029 -1.6515 1.03496 0
M  V30 4991 H 477.125 -3.08123 0.496631 0
M  V30 4992 N 477.426 -0.562348 -1.47226 0
M  V30 4993 C 478.672 -0.0402761 -2.0276 0
M  V30 4994 C 479.005 1.30823 -1.43523 0
M  V30 4995 O 478.28 1.85249 -0.592705 0
M  V30 4996 C 478.563 0.047311 -3.60069 0
M  V30 4997 C 478.416 -1.32865 -4.29729 0
M  V30 4998 C 479.735 0.758182 -4.3352 0
M  V30 4999 H 476.854 -0.0161105 -0.736824 0
M  V30 5000 H 479.496 -0.725628 -1.75598 0
M  V30 5001 H 477.646 0.630986 -3.83342 0
M  V30 5002 H 479.318 -1.95593 -4.17781 0
M  V30 5003 H 477.561 -1.90195 -3.89882 0
M  V30 5004 H 478.232 -1.22004 -5.38349 0
M  V30 5005 H 480.708 0.262546 -4.15271 0
M  V30 5006 H 479.584 0.78844 -5.43208 0
M  V30 5007 H 479.845 1.81537 -4.03109 0
M  V30 5008 N 478.904 1.54736 -0.299062 0
M  V30 5009 C 480.152 1.99706 0.31017 0
M  V30 5010 C 480.473 1.18896 1.54559 0
M  V30 5011 O 479.743 0.284445 1.93824 0
M  V30 5012 H 478.323 0.737686 0.117596 0
M  V30 5013 H 480.985 1.9054 -0.409943 0
M  V30 5014 H 480.081 3.06596 0.58355 0
M  V30 5015 N 480.382 0.0267497 1.57577 0
M  V30 5016 C 481.332 -0.965003 2.06571 0
M  V30 5017 C 482.316 -1.28694 0.965746 0
M  V30 5018 O 483.508 -1.27345 1.22932 0
M  V30 5019 C 480.637 -2.24821 2.59443 0
M  V30 5020 C 479.723 -1.95474 3.76365 0
M  V30 5021 N 480.114 -1.36387 4.87065 0
M  V30 5022 C 478.412 -2.25478 3.84806 0
M  V30 5023 C 479.113 -1.24119 5.68304 0
M  V30 5024 N 478.089 -1.7359 5.15138 0
M  V30 5025 H 481.891 -0.503095 2.89562 0
M  V30 5026 H 479.405 -0.178322 1.61418 0
M  V30 5027 H 481.402 -2.9674 2.92833 0
M  V30 5028 H 480.062 -2.7164 1.77881 0
M  V30 5029 H 481.073 -1.03919 5.07367 0
M  V30 5030 H 477.75 -2.74987 3.14147 0
M  V30 5031 H 479.14 -0.784504 6.67304 0
M  V30 5032 N 481.861 -1.55662 -0.24637 0
M  V30 5033 C 483.086 -1.81914 -0.996093 0
M  V30 5034 C 483.511 -0.603875 -1.78143 0
M  V30 5035 O 482.869 0.447091 -1.75701 0
M  V30 5036 C 482.917 -3.05908 -1.90925 0
M  V30 5037 O 482.021 -2.82861 -3.00105 0
M  V30 5038 H 481.362 -0.600481 -0.283406 0
M  V30 5039 H 483.892 -2.02848 -0.267199 0
M  V30 5040 H 483.902 -3.35356 -2.3238 0
M  V30 5041 H 482.577 -3.93999 -1.33183 0
M  V30 5042 H 481.154 -2.64583 -2.62775 0
M  V30 5043 N 483.339 0.512053 -1.4905 0
M  V30 5044 C 484.587 1.26436 -1.57665 0
M  V30 5045 C 484.908 1.93255 -0.260293 0
M  V30 5046 O 484.178 1.82206 0.719564 0
M  V30 5047 H 482.758 0.469658 -0.580888 0
M  V30 5048 H 485.42 0.594398 -1.85615 0
M  V30 5049 H 484.516 2.03417 -2.36702 0
M  V30 5050 N 484.817 1.37938 0.762283 0
M  V30 5051 C 485.75 1.2884 1.88349 0
M  V30 5052 C 486.728 0.167084 1.61739 0
M  V30 5053 O 487.912 0.34292 1.85355 0
M  V30 5054 C 485.039 0.994257 3.23778 0
M  V30 5055 C 484.085 2.13376 3.69287 0
M  V30 5056 S 484.918 3.75439 3.81845 0
M  V30 5057 C 486.074 3.48195 5.20107 0
M  V30 5058 H 486.307 2.23736 1.95779 0
M  V30 5059 H 483.84 1.23672 0.924368 0
M  V30 5060 H 485.798 0.83138 4.01993 0
M  V30 5061 H 484.459 0.0626251 3.14038 0
M  V30 5062 H 483.652 1.88319 4.67495 0
M  V30 5063 H 483.254 2.25726 2.98201 0
M  V30 5064 H 485.546 3.0377 6.05583 0
M  V30 5065 H 486.489 4.45765 5.50181 0
M  V30 5066 H 486.897 2.82905 4.88493 0
M  V30 5067 N 486.295 -0.989507 1.22664 0
M  V30 5068 C 487.543 -1.72612 1.05117 0
M  V30 5069 C 487.864 -1.90552 -0.414131 0
M  V30 5070 O 487.134 -1.4676 -1.29762 0
M  V30 5071 H 485.714 -0.639555 0.385977 0
M  V30 5072 H 488.376 -1.19158 1.54232 0
M  V30 5073 H 487.472 -2.71926 1.53175 0
M  V30 5074 N 487.773 -1.03688 -1.18687 0
M  V30 5075 C 489.189 -0.755413 -1.4059 0
M  V30 5076 C 489.389 0.656659 -1.905 0
M  V30 5077 O 488.445 1.42144 -2.08689 0
M  V30 5078 C 489.758 -1.7983 -2.41001 0
M  V30 5079 C 491.306 -1.81877 -2.54735 0
M  V30 5080 C 491.781 -2.85148 -3.58406 0
M  V30 5081 N 493.272 -2.84015 -3.6591 0
M  V30 5082 C 494.007 -3.60573 -4.45841 0
M  V30 5083 N 493.503 -4.46871 -5.29413 0
M  V30 5084 N 495.296 -3.49079 -4.40568 0
M  V30 5085 H 487.447 -1.94818 -0.846148 0
M  V30 5086 H 489.71 -0.842727 -0.434184 0
M  V30 5087 H 489.416 -2.81097 -2.1137 0
M  V30 5088 H 489.29 -1.62727 -3.40294 0
M  V30 5089 H 491.677 -0.812836 -2.83685 0
M  V30 5090 H 491.758 -2.03057 -1.55568 0
M  V30 5091 H 491.402 -3.85918 -3.30197 0
M  V30 5092 H 491.332 -2.61224 -4.57241 0
M  V30 5093 H 493.823 -2.21431 -3.0623 0
M  V30 5094 H 494.136 -5.02007 -5.87545 0
M  V30 5095 H 492.481 -4.5094 -5.28846 0
M  V30 5096 H 495.672 -2.81066 -3.74325 0
M  V30 5097 H 495.845 -4.08994 -5.02621 0
M  V30 5098 N 489.251 1.34841 -0.815825 0
M  V30 5099 C 490.481 2.02436 -0.412695 0
M  V30 5100 C 490.889 1.61604 0.983906 0
M  V30 5101 O 490.232 0.813729 1.64694 0
M  V30 5102 C 490.294 3.56953 -0.427182 0
M  V30 5103 C 489.958 4.21083 -1.77589 0
M  V30 5104 C 490.955 4.42107 -2.73564 0
M  V30 5105 C 488.64 4.58006 -2.06243 0
M  V30 5106 C 490.634 4.99169 -3.9637 0
M  V30 5107 C 488.321 5.1478 -3.2931 0
M  V30 5108 C 489.319 5.35304 -4.24191 0
M  V30 5109 O 489.007 5.90878 -5.45086 0
M  V30 5110 H 488.739 0.655631 -0.164695 0
M  V30 5111 H 491.293 1.73246 -1.1034 0
M  V30 5112 H 489.523 3.85372 0.320175 0
M  V30 5113 H 491.212 4.05875 -0.0450875 0
M  V30 5114 H 491.978 4.13953 -2.52721 0
M  V30 5115 H 487.857 4.41339 -1.33196 0
M  V30 5116 H 491.401 5.15105 -4.70439 0
M  V30 5117 H 487.298 5.42362 -3.5002 0
M  V30 5118 H 488.066 6.0932 -5.46508 0
M  V30 5119 N 490.729 0.570148 1.46925 0
M  V30 5120 C 491.679 -0.190921 2.27199 0
M  V30 5121 C 492.663 -0.873457 1.35128 0
M  V30 5122 O 493.855 -0.769627 1.59392 0
M  V30 5123 C 490.984 -1.21204 3.21192 0
M  V30 5124 C 490.07 -0.532261 4.20747 0
M  V30 5125 N 490.461 0.405038 5.04176 0
M  V30 5126 C 488.759 -0.784582 4.39045 0
M  V30 5127 C 489.46 0.801149 5.76157 0
M  V30 5128 N 488.436 0.153082 5.43384 0
M  V30 5129 H 492.238 0.529535 2.8909 0
M  V30 5130 H 489.752 0.391019 1.57622 0
M  V30 5131 H 491.749 -1.77135 3.77398 0
M  V30 5132 H 490.409 -1.93345 2.6086 0
M  V30 5133 H 491.42 0.779903 5.11994 0
M  V30 5134 H 488.097 -1.49352 3.89872 0
M  V30 5135 H 489.487 1.57208 6.5325 0
M  V30 5136 N 492.207 -1.54576 0.307264 0
M  V30 5137 C 493.455 -1.99867 -0.299574 0
M  V30 5138 C 493.776 -1.19714 -1.53927 0
M  V30 5139 O 493.046 -0.29472 -1.9367 0
M  V30 5140 H 491.626 -0.738299 -0.113683 0
M  V30 5141 H 494.288 -1.9032 0.420042 0
M  V30 5142 H 493.384 -3.06901 -0.567283 0
M  V30 5143 N 493.685 -0.035106 -1.57561 0
M  V30 5144 C 494.632 0.94474 -2.10578 0
M  V30 5145 C 495.602 1.3192 -1.00927 0
M  V30 5146 O 496.787 1.41147 -1.28382 0
M  V30 5147 C 493.927 2.21982 -2.64231 0
M  V30 5148 C 493.04 1.90128 -3.87911 0
M  V30 5149 C 492.175 3.11975 -4.29936 0
M  V30 5150 C 491.214 2.75968 -5.46359 0
M  V30 5151 N 490.351 3.90459 -5.83512 0
M  V30 5152 H 495.191 0.485717 -2.94015 0
M  V30 5153 H 492.728 0.228143 -1.4532 0
M  V30 5154 H 494.686 2.96572 -2.9343 0
M  V30 5155 H 493.316 2.6549 -1.83616 0
M  V30 5156 H 492.368 1.05755 -3.65404 0
M  V30 5157 H 493.68 1.59613 -4.72573 0
M  V30 5158 H 492.834 3.9488 -4.60603 0
M  V30 5159 H 491.573 3.45657 -3.44053 0
M  V30 5160 H 490.578 1.91478 -5.1538 0
M  V30 5161 H 491.803 2.43497 -6.33945 0
M  V30 5162 H 489.749 4.23971 -5.00584 0
M  V30 5163 H 489.666 3.63588 -6.62827 0
M  V30 5164 H 490.934 4.7405 -6.18787 0
M  V30 5165 N 495.163 1.55791 0.238111 0
M  V30 5166 C 496.41 1.78033 0.964907 0
M  V30 5167 C 496.738 0.600984 1.84982 0
M  V30 5168 O 495.993 -0.41536 1.91241 0
M  V30 5169 C 496.292 3.05869 1.84875 0
M  V30 5170 C 495.958 4.36808 1.11846 0
M  V30 5171 C 494.62 4.72388 0.916662 0
M  V30 5172 C 496.972 5.17717 0.60151 0
M  V30 5173 C 494.3 5.86406 0.185756 0
M  V30 5174 C 496.652 6.32494 -0.115972 0
M  V30 5175 C 495.316 6.66688 -0.329168 0
M  V30 5176 H 494.586 0.651469 0.353085 0
M  V30 5177 H 497.233 1.90061 0.234318 0
M  V30 5178 H 495.538 2.88891 2.64668 0
M  V30 5179 H 497.235 3.20278 2.41294 0
M  V30 5180 H 493.825 4.08862 1.28569 0
M  V30 5181 H 498.009 4.90678 0.744932 0
M  V30 5182 H 493.265 6.11399 0.0101886 0
M  V30 5183 H 497.439 6.94425 -0.524127 0
M  V30 5184 H 495.066 7.54884 -0.897474 0
M  V30 5185 N 496.642 -0.504142 1.49319 0
M  V30 5186 C 497.87 -1.28256 1.62351 0
M  V30 5187 C 498.285 -1.86502 0.293682 0
M  V30 5188 O 497.642 -1.67678 -0.720449 0
M  V30 5189 C 497.693 -2.41507 2.68992 0
M  V30 5190 O 497.414 -1.85656 3.96817 0
M  V30 5191 C 498.915 -3.32929 2.927 0
M  V30 5192 H 496.135 -0.389115 0.546654 0
M  V30 5193 H 498.679 -0.605531 1.95329 0
M  V30 5194 H 496.834 -3.05046 2.38801 0
M  V30 5195 H 497.248 -2.59981 4.55533 0
M  V30 5196 H 498.722 -4.0868 3.71058 0
M  V30 5197 H 499.199 -3.89733 2.02496 0
M  V30 5198 H 499.805 -2.75158 3.24296 0
M  V30 5199 N 498.12 -1.38341 -0.754957 0
M  V30 5200 C 499.367 -1.34473 -1.51404 0
M  V30 5201 C 499.695 0.0656458 -1.94389 0
M  V30 5202 O 498.95 1.04244 -1.65625 0
M  V30 5203 C 499.249 -2.2452 -2.78075 0
M  V30 5204 C 498.915 -3.72512 -2.54059 0
M  V30 5205 C 497.577 -4.1284 -2.47218 0
M  V30 5206 C 499.929 -4.66197 -2.33044 0
M  V30 5207 C 497.257 -5.44945 -2.17376 0
M  V30 5208 C 499.609 -5.98558 -2.04723 0
M  V30 5209 C 498.273 -6.37972 -1.96337 0
M  V30 5210 H 497.543 -0.492072 -0.554027 0
M  V30 5211 H 500.19 -1.70687 -0.868223 0
M  V30 5212 H 498.495 -1.81357 -3.473 0
M  V30 5213 H 500.192 -2.18832 -3.36026 0
M  V30 5214 H 496.782 -3.40538 -2.60253 0
M  V30 5215 H 500.966 -4.35888 -2.37309 0
M  V30 5216 H 496.222 -5.74426 -2.09391 0
M  V30 5217 H 500.396 -6.70693 -1.87465 0
M  V30 5218 H 498.023 -7.40258 -1.72978 0
M  V30 5219 N 499.598 0.982988 -1.23187 0
M  V30 5220 C 500.875 1.69814 -0.970707 0
M  V30 5221 C 501.255 2.04811 0.511424 0
M  V30 5222 O 500.603 1.73924 1.48198 0
M  V30 5223 C 500.813 2.94143 -1.87831 0
M  V30 5224 C 502.161 3.66712 -2.14026 0
M  V30 5225 O 503.185 3.04171 -1.8536 0
M  V30 5226 O 502.044 4.79258 -2.62629 0
M  V30 5227 H 499.138 0.741659 -0.365884 0
M  V30 5228 H 501.684 1.03844 -1.34218 0
M  V30 5229 H 500.456 2.64858 -2.88038 0
M  V30 5230 H 500.079 3.6785 -1.50905 0
M  V30 5231 N 501.076 1.04316 1.18135 0
M  V30 5232 C 502.304 0.768117 1.92113 0
M  V30 5233 C 502.719 -0.675057 1.76319 0
M  V30 5234 O 502.076 -1.46038 1.09449 0
M  V30 5235 C 502.127 1.12808 3.43448 0
M  V30 5236 O 501.848 2.5146 3.58747 0
M  V30 5237 C 503.349 0.8779 4.3452 0
M  V30 5238 H 500.569 0.279937 0.609817 0
M  V30 5239 H 503.113 1.39149 1.49859 0
M  V30 5240 H 501.268 0.549623 3.83481 0
M  V30 5241 H 501.682 2.65313 4.52448 0
M  V30 5242 H 503.156 1.17959 5.39249 0
M  V30 5243 H 503.633 -0.187239 4.38801 0
M  V30 5244 H 504.239 1.43977 4.00188 0
M  V30 5245 N 502.554 -1.34406 0.822964 0
M  V30 5246 C 503.801 -1.98284 0.411057 0
M  V30 5247 C 504.129 -1.65245 -1.02588 0
M  V30 5248 O 503.384 -0.91619 -1.72929 0
M  V30 5249 C 503.683 -3.52981 0.560268 0
M  V30 5250 C 503.349 -4.05931 1.96293 0
M  V30 5251 C 502.011 -4.20103 2.34664 0
M  V30 5252 C 504.363 -4.34412 2.87985 0
M  V30 5253 C 501.691 -4.60082 3.64062 0
M  V30 5254 C 504.043 -4.75838 4.16847 0
M  V30 5255 C 502.707 -4.88215 4.55195 0
M  V30 5256 H 501.977 -0.725573 0.150416 0
M  V30 5257 H 504.624 -1.60349 1.04692 0
M  V30 5258 H 502.929 -3.91477 -0.158982 0
M  V30 5259 H 504.626 -4.00385 0.222087 0
M  V30 5260 H 501.216 -3.95363 1.65487 0
M  V30 5261 H 505.4 -4.23001 2.59584 0
M  V30 5262 H 500.656 -4.67856 3.93599 0
M  V30 5263 H 504.83 -4.96834 4.87984 0
M  V30 5264 H 502.457 -5.18952 5.55512 0
M  V30 5265 N 504.032 -0.577932 -1.46621 0
M  V30 5266 C 505.257 -0.0652536 -2.07297 0
M  V30 5267 C 505.682 1.22828 -1.4246 0
M  V30 5268 O 505.04 1.74075 -0.506718 0
M  V30 5269 C 505.088 0.0920589 -3.60482 0
M  V30 5270 O 504.192 1.14972 -3.96049 0
M  V30 5271 H 503.533 -0.06065 -0.661224 0
M  V30 5272 H 506.063 -0.799515 -1.88332 0
M  V30 5273 H 506.073 0.299741 -4.06897 0
M  V30 5274 H 504.748 -0.852612 -4.07067 0
M  V30 5275 H 503.325 0.920879 -3.61351 0
M  V30 5276 N 505.51 1.54411 -0.315457 0
M  V30 5277 C 506.46 2.20772 0.569549 0
M  V30 5278 C 507.444 1.18551 1.08787 0
M  V30 5279 O 508.636 1.44213 1.02624 0
M  V30 5280 C 505.765 2.96293 1.73394 0
M  V30 5281 C 504.851 4.05844 1.2309 0
M  V30 5282 N 505.242 5.03822 0.446927 0
M  V30 5283 C 503.54 4.19648 1.51035 0
M  V30 5284 C 504.241 5.8143 0.17725 0
M  V30 5285 N 503.217 5.38245 0.761118 0
M  V30 5286 H 507.019 2.93877 -0.0368076 0
M  V30 5287 H 504.533 1.61949 -0.120915 0
M  V30 5288 H 506.53 3.42313 2.37965 0
M  V30 5289 H 505.19 2.24708 2.34386 0
M  V30 5290 H 506.201 5.17821 0.0905027 0
M  V30 5291 H 502.878 3.59274 2.1267 0
M  V30 5292 H 504.268 6.70369 -0.45335 0
M  V30 5293 N 506.988 0.0434614 1.5754 0
M  V30 5294 C 507.938 -0.943039 2.07583 0
M  V30 5295 C 508.922 -1.27662 0.979342 0
M  V30 5296 O 510.114 -1.26034 1.24276 0
M  V30 5297 C 507.243 -2.22056 2.61813 0
M  V30 5298 C 506.329 -1.91471 3.78417 0
M  V30 5299 N 506.72 -1.31214 4.88484 0
M  V30 5300 C 505.018 -2.21384 3.87176 0
M  V30 5301 C 505.719 -1.18084 5.69588 0
M  V30 5302 N 504.695 -1.68116 5.16951 0
M  V30 5303 H 508.497 -0.472354 2.90079 0
M  V30 5304 H 506.011 -0.161191 1.61598 0
M  V30 5305 H 508.008 -2.93618 2.95963 0
M  V30 5306 H 506.668 -2.69738 1.80752 0
M  V30 5307 H 507.679 -0.985318 5.08441 0
M  V30 5308 H 504.356 -2.7164 3.17046 0
M  V30 5309 H 505.746 -0.713684 6.68099 0
M  V30 5310 N 508.466 -1.55915 -0.229846 0
M  V30 5311 C 509.882 -1.48721 -0.579166 0
M  V30 5312 C 510.082 -0.736976 -1.87539 0
M  V30 5313 O 509.138 -0.273258 -2.51017 0
M  V30 5314 C 510.451 -2.9323 -0.666082 0
M  V30 5315 C 511.999 -3.03701 -0.757267 0
M  V30 5316 C 512.474 -4.49552 -0.8756 0
M  V30 5317 N 513.965 -4.53561 -0.940035 0
M  V30 5318 C 514.7 -5.63683 -1.05116 0
M  V30 5319 N 514.196 -6.83576 -1.12675 0
M  V30 5320 N 515.989 -5.51516 -1.08565 0
M  V30 5321 H 508.14 -2.03123 0.620857 0
M  V30 5322 H 510.403 -0.922898 0.21671 0
M  V30 5323 H 510.109 -3.51032 0.21664 0
M  V30 5324 H 509.983 -3.44668 -1.53243 0
M  V30 5325 H 512.37 -2.45969 -1.63043 0
M  V30 5326 H 512.451 -2.55446 0.134583 0
M  V30 5327 H 512.095 -5.079 -0.00692351 0
M  V30 5328 H 512.025 -4.95506 -1.78274 0
M  V30 5329 H 514.516 -3.67215 -0.892269 0
M  V30 5330 H 514.829 -7.63251 -1.21109 0
M  V30 5331 H 513.174 -6.86303 -1.09603 0
M  V30 5332 H 516.365 -4.5678 -1.02319 0
M  V30 5333 H 516.538 -6.37372 -1.1688 0
M  V30 5334 N 509.944 0.496216 -1.49584 0
M  V30 5335 C 511.172 1.27394 -1.63029 0
M  V30 5336 C 511.587 1.86344 -0.303569 0
M  V30 5337 O 510.944 1.68057 0.711547 0
M  V30 5338 C 510.995 2.40077 -2.70269 0
M  V30 5339 O 510.716 1.83549 -3.97796 0
M  V30 5340 C 512.217 3.31372 -2.94462 0
M  V30 5341 H 509.437 0.386211 -0.54871 0
M  V30 5342 H 511.981 0.595163 -1.95648 0
M  V30 5343 H 510.136 3.03775 -2.40415 0
M  V30 5344 H 510.55 2.57561 -4.56905 0
M  V30 5345 H 512.024 4.06707 -3.73221 0
M  V30 5346 H 512.501 3.88654 -2.0456 0
M  V30 5347 H 513.107 2.73435 -3.25751 0
M  V30 5348 N 511.423 1.38739 0.74761 0
M  V30 5349 C 512.663 1.36695 1.51966 0
M  V30 5350 C 513.027 -0.0411889 1.91956 0
M  V30 5351 O 514.228 -0.186543 2.68152 0
M  V30 5352 C 512.499 2.30119 2.73459 0
M  V30 5353 S 514.058 2.4615 3.63257 0
M  V30 5354 H 510.876 0.484929 0.519966 0
M  V30 5355 H 513.478 1.7472 0.877104 0
M  V30 5356 H 512.182 3.31312 2.422 0
M  V30 5357 H 511.713 1.93265 3.42655 0
M  V30 5358 H 513.728 1.69001 4.66533 0
M  V30 5359 N 512.901 -0.976442 1.23707 0
M  V30 5360 C 513.831 -2.08749 1.04624 0
M  V30 5361 C 514.812 -1.70057 -0.0380956 0
M  V30 5362 O 515.997 -1.93782 0.127308 0
M  V30 5363 C 513.127 -3.41335 0.640902 0
M  V30 5364 C 512.081 -3.93947 1.67302 0
M  V30 5365 C 511.407 -5.22774 1.12301 0
M  V30 5366 C 512.707 -4.22769 3.06697 0
M  V30 5367 H 514.401 -2.24972 1.97555 0
M  V30 5368 H 511.947 -1.08108 0.951247 0
M  V30 5369 H 513.9 -4.18489 0.494434 0
M  V30 5370 H 512.624 -3.24988 -0.324099 0
M  V30 5371 H 511.283 -3.18941 1.80755 0
M  V30 5372 H 510.931 -5.0278 0.148877 0
M  V30 5373 H 510.631 -5.58942 1.81267 0
M  V30 5374 H 512.155 -6.02546 0.988479 0
M  V30 5375 H 513.569 -4.90659 2.96524 0
M  V30 5376 H 511.966 -4.70147 3.72937 0
M  V30 5377 H 513.036 -3.29885 3.55392 0
M  V30 5378 N 514.379 -1.04941 -1.1758 0
M  V30 5379 C 515.309 -0.669172 -2.23706 0
M  V30 5380 C 516.29 0.331835 -1.66832 0
M  V30 5381 O 517.475 0.209988 -1.93061 0
M  V30 5382 C 514.605 -0.0404889 -3.47276 0
M  V30 5383 C 513.559 -0.965983 -4.16957 0
M  V30 5384 C 512.885 -0.201312 -5.34321 0
M  V30 5385 C 514.185 -2.28902 -4.69469 0
M  V30 5386 H 515.879 -1.55639 -2.55767 0
M  V30 5387 H 513.425 -0.749793 -1.22939 0
M  V30 5388 H 515.378 0.237298 -4.20731 0
M  V30 5389 H 514.102 0.881658 -3.14475 0
M  V30 5390 H 512.761 -1.22829 -3.45411 0
M  V30 5391 H 512.409 0.723519 -4.97769 0
M  V30 5392 H 512.109 -0.817968 -5.81879 0
M  V30 5393 H 513.633 0.0692499 -6.10561 0
M  V30 5394 H 515.047 -2.07132 -5.34574 0
M  V30 5395 H 513.444 -2.85942 -5.27596 0
M  V30 5396 H 514.514 -2.92937 -3.86414 0
M  V30 5397 N 515.857 1.33968 -0.830081 0
M  V30 5398 C 516.82 2.27694 -0.26235 0
M  V30 5399 C 517.82 1.50589 0.563876 0
M  V30 5400 O 519.01 1.70028 0.378941 0
M  V30 5401 C 516.142 3.35002 0.63138 0
M  V30 5402 H 517.335 2.79419 -1.08928 0
M  V30 5403 H 514.888 1.44221 -0.602486 0
M  V30 5404 H 515.623 2.88504 1.48109 0
M  V30 5405 H 515.408 3.92079 0.0403276 0
M  V30 5406 H 516.898 4.04897 1.02217 0
M  V30 5407 N 517.335 0.585699 1.46312 0
M  V30 5408 C 518.746 0.159938 1.86014 0
M  V30 5409 C 519.097 -1.27775 1.48889 0
M  V30 5410 O 518.222 -1.96559 0.90519 0
M  V30 5411 C 518.817 0.283485 3.37612 0
M  V30 5412 C 517.376 -0.0874256 3.76298 0
M  V30 5413 C 516.523 0.618055 2.70325 0
M  V30 5414 H 519.474 0.793737 1.37425 0
M  V30 5415 H 519.495 -0.490348 3.77327 0
M  V30 5416 H 519.007 1.32995 3.64601 0
M  V30 5417 H 517.108 -1.13391 3.54927 0
M  V30 5418 H 517.221 0.290975 4.78216 0
M  V30 5419 H 515.585 0.057993 2.54634 0
M  V30 5420 H 516.368 1.66623 3.00153 0
M  V30 5421 N 518.813 -1.54241 0.323641 0
M  V30 5422 C 520.038 -2.05452 -0.283605 0
M  V30 5423 C 520.463 -1.19823 -1.44997 0
M  V30 5424 O 519.821 -0.207358 -1.8011 0
M  V30 5425 C 519.869 -3.53823 -0.695795 0
M  V30 5426 O 518.973 -3.71134 -1.79815 0
M  V30 5427 H 518.314 -0.662024 -0.0511917 0
M  V30 5428 H 520.844 -1.99079 0.472073 0
M  V30 5429 H 520.854 -3.96094 -0.978434 0
M  V30 5430 H 519.529 -4.15602 0.157287 0
M  V30 5431 H 518.106 -3.40768 -1.51431 0
M  V30 5432 N 520.291 -0.0518155 -1.57515 0
M  V30 5433 C 521.539 0.620595 -1.92336 0
M  V30 5434 C 521.86 1.71345 -0.930907 0
M  V30 5435 O 521.13 1.95885 0.0241341 0
M  V30 5436 H 519.71 0.232226 -0.709986 0
M  V30 5437 H 522.372 -0.104969 -1.94617 0
M  V30 5438 H 521.468 1.05879 -2.93592 0
M  V30 5439 N 521.769 1.56035 0.221574 0
M  V30 5440 C 522.699 1.95434 1.2778 0
M  V30 5441 C 523.68 0.822564 1.48889 0
M  V30 5442 O 524.865 1.08486 1.61072 0
M  V30 5443 C 521.995 2.27102 2.62759 0
M  V30 5444 C 520.949 3.4277 2.56306 0
M  V30 5445 C 520.275 3.60043 3.95314 0
M  V30 5446 C 521.575 4.77742 2.11093 0
M  V30 5447 H 523.269 2.83912 0.950504 0
M  V30 5448 H 520.815 1.36596 0.455791 0
M  V30 5449 H 522.768 2.53256 3.36807 0
M  V30 5450 H 521.492 1.35478 2.97176 0
M  V30 5451 H 520.151 3.16664 1.84715 0
M  V30 5452 H 519.799 2.65794 4.27039 0
M  V30 5453 H 519.499 4.37841 3.91879 0
M  V30 5454 H 521.023 3.88545 4.71025 0
M  V30 5455 H 522.437 5.03102 2.74885 0
M  V30 5456 H 520.834 5.58823 2.18716 0
M  V30 5457 H 521.904 4.731 1.06321 0
M  V30 5458 N 523.247 -0.488276 1.49845 0
M  V30 5459 C 524.157 -1.61451 1.70207 0
M  V30 5460 C 525.173 -1.63877 0.584846 0
M  V30 5461 O 526.349 -1.82063 0.861107 0
M  V30 5462 C 523.414 -2.9776 1.77594 0
M  V30 5463 C 522.475 -3.05861 3.01243 0
M  V30 5464 C 521.708 -4.35668 3.08268 0
M  V30 5465 O 521.931 -5.25197 2.22541 0
M  V30 5466 O 520.865 -4.49005 4.00847 0
M  V30 5467 H 524.691 -1.47199 2.65643 0
M  V30 5468 H 522.276 -0.665939 1.33737 0
M  V30 5469 H 524.158 -3.7875 1.84732 0
M  V30 5470 H 522.833 -3.12248 0.8534 0
M  V30 5471 H 521.74 -2.24012 2.99616 0
M  V30 5472 H 523.073 -2.96304 3.9302 0
M  V30 5473 N 524.725 -1.39134 -0.740242 0
M  V30 5474 C 525.672 -1.37434 -1.8542 0
M  V30 5475 C 526.642 -0.234822 -1.64432 0
M  V30 5476 O 527.827 -0.429125 -1.85912 0
M  V30 5477 C 524.967 -1.21844 -3.22875 0
M  V30 5478 C 524.08 -2.45296 -3.55603 0
M  V30 5479 C 523.215 -2.22334 -4.82432 0
M  V30 5480 C 522.254 -3.41488 -5.07988 0
M  V30 5481 N 521.391 -3.17877 -6.26018 0
M  V30 5482 H 526.231 -2.3266 -1.86207 0
M  V30 5483 H 523.768 -1.15578 -0.909946 0
M  V30 5484 H 525.726 -1.10818 -4.02213 0
M  V30 5485 H 524.356 -0.3025 -3.21379 0
M  V30 5486 H 523.408 -2.66945 -2.71006 0
M  V30 5487 H 524.72 -3.34063 -3.7041 0
M  V30 5488 H 523.874 -2.0852 -5.69741 0
M  V30 5489 H 522.613 -1.30954 -4.6979 0
M  V30 5490 H 521.618 -3.55807 -4.19144 0
M  V30 5491 H 522.843 -4.33763 -5.22519 0
M  V30 5492 H 520.789 -2.29156 -6.14673 0
M  V30 5493 H 520.706 -4.00198 -6.41387 0
M  V30 5494 H 521.974 -3.07746 -7.16179 0
M  V30 5495 N 526.204 0.969867 -1.24223 0
M  V30 5496 C 527.134 2.08191 -1.05729 0
M  V30 5497 C 528.115 1.70075 0.0290765 0
M  V30 5498 O 529.3 1.93712 -0.137583 0
M  V30 5499 C 526.43 3.40991 -0.658995 0
M  V30 5500 C 525.384 3.93054 -1.69389 0
M  V30 5501 C 524.71 5.22171 -1.15072 0
M  V30 5502 C 526.01 4.21137 -3.08935 0
M  V30 5503 H 527.704 2.23921 -1.98746 0
M  V30 5504 H 525.25 1.07602 -0.956967 0
M  V30 5505 H 527.203 4.18221 -0.51662 0
M  V30 5506 H 525.927 3.25155 0.30686 0
M  V30 5507 H 524.586 3.17977 -1.82444 0
M  V30 5508 H 524.234 5.02694 -0.175539 0
M  V30 5509 H 523.934 5.57973 -1.84229 0
M  V30 5510 H 525.458 6.02013 -1.02042 0
M  V30 5511 H 526.872 4.8908 -2.99121 0
M  V30 5512 H 525.269 4.68163 -3.75425 0
M  V30 5513 H 526.339 3.27996 -3.57137 0
M  V30 5514 N 527.682 1.05563 1.17022 0
M  V30 5515 C 528.629 0.659893 2.21165 0
M  V30 5516 C 529.599 -0.339813 1.62587 0
M  V30 5517 O 530.784 -0.230378 1.89404 0
M  V30 5518 C 527.924 0.0447297 3.45071 0
M  V30 5519 C 527.037 1.09372 4.17926 0
M  V30 5520 C 526.172 0.445481 5.29329 0
M  V30 5521 C 525.211 1.47852 5.93975 0
M  V30 5522 N 524.348 0.854172 6.96885 0
M  V30 5523 H 529.188 1.55243 2.54369 0
M  V30 5524 H 526.725 0.776336 1.24946 0
M  V30 5525 H 528.683 -0.329404 4.15898 0
M  V30 5526 H 527.313 -0.811244 3.1244 0
M  V30 5527 H 526.365 1.58564 3.45777 0
M  V30 5528 H 527.677 1.87773 4.62107 0
M  V30 5529 H 526.831 0.0179688 6.06697 0
M  V30 5530 H 525.57 -0.370481 4.86291 0
M  V30 5531 H 524.575 1.91601 5.15334 0
M  V30 5532 H 525.8 2.29645 6.39093 0
M  V30 5533 H 523.746 0.0587882 6.55974 0
M  V30 5534 H 523.663 1.57567 7.39397 0
M  V30 5535 H 524.931 0.451559 7.78191 0
M  V30 5536 N 529.16 -1.33526 0.837174 0
M  V30 5537 C 530.07 -2.33023 0.271568 0
M  V30 5538 C 531.086 -1.63272 -0.601514 0
M  V30 5539 O 532.262 -1.94939 -0.506038 0
M  V30 5540 C 529.327 -3.42382 -0.545448 0
M  V30 5541 C 528.388 -4.27857 0.351709 0
M  V30 5542 C 527.621 -5.31994 -0.426409 0
M  V30 5543 O 527.844 -5.45763 -1.65828 0
M  V30 5544 O 526.778 -6.01572 0.1987 0
M  V30 5545 H 530.604 -2.83256 1.09545 0
M  V30 5546 H 528.189 -1.36837 0.599655 0
M  V30 5547 H 530.071 -4.09122 -1.00979 0
M  V30 5548 H 528.746 -2.94369 -1.34641 0
M  V30 5549 H 527.653 -3.6399 0.863853 0
M  V30 5550 H 528.986 -4.79349 1.1174 0
M  V30 5551 N 530.638 -0.59345 -1.46 0
M  V30 5552 C 531.887 -0.0808084 -2.01538 0
M  V30 5553 C 532.2 1.29112 -1.46934 0
M  V30 5554 O 533.406 1.8957 -1.94359 0
M  V30 5555 C 531.862 -0.0938311 -3.59778 0
M  V30 5556 C 531.47 -1.46474 -4.23379 0
M  V30 5557 C 533.214 0.364306 -4.22934 0
M  V30 5558 C 531.121 -1.4349 -5.73729 0
M  V30 5559 H 530.051 -0.0264407 -0.753536 0
M  V30 5560 H 532.702 -0.746689 -1.67621 0
M  V30 5561 H 531.084 0.638427 -3.9082 0
M  V30 5562 H 532.258 -2.21758 -4.03931 0
M  V30 5563 H 530.573 -1.86379 -3.7236 0
M  V30 5564 H 533.17 0.405584 -5.3316 0
M  V30 5565 H 533.513 1.38409 -3.92618 0
M  V30 5566 H 534.046 -0.31423 -3.96557 0
M  V30 5567 H 530.785 -2.43184 -6.08722 0
M  V30 5568 H 530.305 -0.724431 -5.95409 0
M  V30 5569 H 531.984 -1.15243 -6.36654 0
M  V30 5570 N 532.116 1.54067 -0.331816 0
M  V30 5571 C 533.066 2.21363 0.546101 0
M  V30 5572 C 534.05 1.19698 1.07523 0
M  V30 5573 O 535.242 1.45293 1.01088 0
M  V30 5574 C 532.371 2.98115 1.70242 0
M  V30 5575 C 531.457 4.07127 1.18779 0
M  V30 5576 N 531.848 5.04267 0.393465 0
M  V30 5577 C 530.146 4.21226 1.46576 0
M  V30 5578 C 530.847 5.81585 0.115572 0
M  V30 5579 N 529.823 5.39022 0.703987 0
M  V30 5580 H 533.625 2.93821 -0.0679751 0
M  V30 5581 H 531.139 1.61812 -0.138085 0
M  V30 5582 H 533.136 3.44818 2.34321 0
M  V30 5583 H 531.796 2.27181 2.31989 0
M  V30 5584 H 532.807 5.17888 0.0355757 0
M  V30 5585 H 529.484 3.61509 2.08848 0
M  V30 5586 H 530.874 6.6985 -0.524426 0
M  V30 5587 N 533.594 0.0601682 1.57485 0
M  V30 5588 C 534.824 -0.620037 1.97076 0
M  V30 5589 C 535.232 -1.64381 0.936784 0
M  V30 5590 O 534.575 -1.83497 -0.0863377 0
M  V30 5591 C 534.637 -1.35617 3.32939 0
M  V30 5592 C 534.301 -0.487208 4.54396 0
M  V30 5593 C 535.298 0.250428 5.19297 0
M  V30 5594 C 532.983 -0.415494 5.00579 0
M  V30 5595 C 534.977 1.04812 6.28723 0
M  V30 5596 C 532.664 0.385879 6.0988 0
M  V30 5597 C 533.662 1.11637 6.73815 0
M  V30 5598 O 533.35 1.90454 7.81014 0
M  V30 5599 H 533.082 -0.173664 0.653312 0
M  V30 5600 H 535.636 0.1256 2.05016 0
M  V30 5601 H 533.866 -2.14763 3.2158 0
M  V30 5602 H 535.555 -1.92749 3.57215 0
M  V30 5603 H 536.321 0.204546 4.84568 0
M  V30 5604 H 532.2 -0.973679 4.506 0
M  V30 5605 H 535.744 1.6188 6.78558 0
M  V30 5606 H 531.641 0.433366 6.44044 0
M  V30 5607 H 532.409 1.82762 7.97835 0
M  V30 5608 N 535.072 -1.5615 -0.213296 0
M  V30 5609 C 536.483 -1.69645 -0.779582 0
M  V30 5610 C 536.834 -0.663615 -1.84636 0
M  V30 5611 O 535.959 0.183633 -2.15619 0
M  V30 5612 C 536.554 -3.07567 -1.42084 0
M  V30 5613 C 535.113 -3.22889 -1.93442 0
M  V30 5614 C 534.26 -2.65581 -0.797612 0
M  V30 5615 H 537.211 -1.58696 0.0114951 0
M  V30 5616 H 537.232 -3.03884 -2.28986 0
M  V30 5617 H 536.744 -3.82716 -0.644187 0
M  V30 5618 H 534.845 -2.52623 -2.73884 0
M  V30 5619 H 534.958 -4.30197 -2.10872 0
M  V30 5620 H 533.322 -2.24278 -1.20712 0
M  V30 5621 H 534.105 -3.43284 -0.033494 0
M  V30 5622 N 536.55 0.480323 -1.50102 0
M  V30 5623 C 537.961 1.06142 -1.53593 0
M  V30 5624 C 538.312 1.93335 -0.334055 0
M  V30 5625 O 537.437 2.09188 0.55403 0
M  V30 5626 C 538.032 1.9317 -2.78336 0
M  V30 5627 C 536.591 2.46405 -2.84538 0
M  V30 5628 C 535.738 1.24521 -2.4777 0
M  V30 5629 H 538.689 0.26333 -1.565 0
M  V30 5630 H 538.71 2.78123 -2.59669 0
M  V30 5631 H 538.222 1.29683 -3.65792 0
M  V30 5632 H 536.323 3.13472 -2.01411 0
M  V30 5633 H 536.436 2.82143 -3.87211 0
M  V30 5634 H 534.8 1.57706 -2.00003 0
M  V30 5635 H 535.583 0.627102 -3.37524 0
M  V30 5636 N 538.028 1.39524 0.732853 0
M  V30 5637 C 539.258 1.3994 1.51988 0
M  V30 5638 C 539.666 -0.00727973 1.89199 0
M  V30 5639 O 539.009 -0.989521 1.54771 0
M  V30 5640 C 539.071 2.21026 2.83527 0
M  V30 5641 C 538.735 3.69633 2.68738 0
M  V30 5642 C 539.732 4.62665 2.37143 0
M  V30 5643 C 537.417 4.13244 2.85542 0
M  V30 5644 C 539.411 5.97291 2.22536 0
M  V30 5645 C 537.098 5.47945 2.70554 0
M  V30 5646 C 538.096 6.39783 2.39097 0
M  V30 5647 O 537.784 7.72002 2.24204 0
M  V30 5648 H 537.516 0.479795 0.476206 0
M  V30 5649 H 540.07 1.8399 0.913054 0
M  V30 5650 H 538.3 1.71728 3.46477 0
M  V30 5651 H 539.989 2.13594 3.45156 0
M  V30 5652 H 540.755 4.30272 2.2381 0
M  V30 5653 H 536.634 3.42094 3.09019 0
M  V30 5654 H 540.178 6.68939 1.97905 0
M  V30 5655 H 536.075 5.79928 2.83466 0
M  V30 5656 H 536.843 7.8275 2.39258 0
M  V30 5657 N 539.506 -0.963266 1.24736 0
M  V30 5658 C 540.734 -1.74166 1.11686 0
M  V30 5659 C 541.149 -1.8589 -0.330187 0
M  V30 5660 O 540.506 -1.35042 -1.2276 0
M  V30 5661 C 540.557 -3.15989 1.75595 0
M  V30 5662 O 540.278 -3.04847 3.14642 0
M  V30 5663 C 541.779 -4.10145 1.68213 0
M  V30 5664 H 538.999 -0.546031 0.389989 0
M  V30 5665 H 541.543 -1.20907 1.64929 0
M  V30 5666 H 539.698 -3.66219 1.26343 0
M  V30 5667 H 540.112 -3.9425 3.4593 0
M  V30 5668 H 541.586 -5.07299 2.17604 0
M  V30 5669 H 542.063 -4.3445 0.644208 0
M  V30 5670 H 542.669 -3.65827 2.16912 0
M  V30 5671 N 540.985 -1.06182 -1.16461 0
M  V30 5672 C 542.262 -0.691364 -1.82974 0
M  V30 5673 C 542.642 0.827377 -1.9421 0
M  V30 5674 O 541.99 1.73723 -1.48434 0
M  V30 5675 C 542.2 -1.39199 -3.20038 0
M  V30 5676 C 543.548 -1.53647 -3.95825 0
M  V30 5677 O 544.572 -1.35181 -3.29552 0
M  V30 5678 O 543.431 -1.83932 -5.14618 0
M  V30 5679 H 540.525 -0.244605 -0.789998 0
M  V30 5680 H 543.071 -1.16203 -1.23673 0
M  V30 5681 H 541.843 -2.42766 -3.06888 0
M  V30 5682 H 541.466 -0.911335 -3.87015 0
M  V30 5683 N 542.463 1.3308 -0.844243 0
M  V30 5684 C 543.709 1.98304 -0.452453 0
M  V30 5685 C 544.064 1.65645 0.978746 0
M  V30 5686 O 543.357 0.928849 1.6758 0
M  V30 5687 C 543.551 3.52045 -0.616354 0
M  V30 5688 C 543.38 3.99643 -2.06193 0
M  V30 5689 C 542.15 4.27224 -2.69829 0
M  V30 5690 C 544.348 4.15471 -3.03131 0
M  V30 5691 N 542.33 4.60998 -4.05406 0
M  V30 5692 C 543.701 4.52665 -4.23668 0
M  V30 5693 C 545.756 3.97776 -2.99465 0
M  V30 5694 C 544.459 4.74011 -5.41023 0
M  V30 5695 C 546.485 4.20301 -4.16055 0
M  V30 5696 C 545.847 4.57801 -5.35348 0
M  V30 5697 H 541.946 0.752122 -0.214096 0
M  V30 5698 H 544.53 1.61096 -1.09344 0
M  V30 5699 H 542.701 3.884 -0.00513205 0
M  V30 5700 H 544.433 4.04228 -0.19548 0
M  V30 5701 H 541.188 4.18911 -2.20931 0
M  V30 5702 H 541.612 4.82087 -4.75312 0
M  V30 5703 H 546.254 3.67893 -2.08362 0
M  V30 5704 H 543.972 5.02753 -6.32665 0
M  V30 5705 H 547.558 4.08122 -4.14641 0
M  V30 5706 H 546.438 4.74884 -6.24063 0
M  V30 5707 N 543.941 0.601185 1.45683 0
M  V30 5708 C 544.889 -0.133955 2.32214 0
M  V30 5709 C 545.883 -0.866034 1.45589 0
M  V30 5710 O 547.089 -0.782326 1.6211 0
M  V30 5711 H 543.464 -0.0620613 0.749435 0
M  V30 5712 H 545.435 0.614389 2.92007 0
M  V30 5713 C 544.184 -1.12216 3.29094 0
M  V30 5714 H 543.507 -0.568273 3.95741 0
M  V30 5715 H 544.947 -1.60659 3.92383 0
M  V30 5716 C 543.406 -2.19251 2.55794 0
M  V30 5717 O 543.936 -3.26894 2.33459 0
M  V30 5718 N 542.142 -1.9436 2.16039 0
M  V30 5719 H 541.689 -1.06829 2.34404 0
M  V30 5720 H 541.647 -2.66181 1.67318 0
M  V30 5721 N 545.419 -1.53889 0.339982 0
M  V30 5722 C 546.351 -2.22435 -0.55275 0
M  V30 5723 C 547.364 -1.22975 -1.06681 0
M  V30 5724 O 548.553 -1.49351 -0.977575 0
M  V30 5725 C 545.653 -2.8882 -1.77302 0
M  V30 5726 C 544.826 -4.14563 -1.39486 0
M  V30 5727 C 543.885 -4.64391 -2.47442 0
M  V30 5728 O 542.911 -5.28687 -2.10899 0
M  V30 5729 N 544.113 -4.40015 -3.78639 0
M  V30 5730 H 546.878 -2.9968 0.0342669 0
M  V30 5731 H 544.439 -1.61068 0.16394 0
M  V30 5732 H 546.431 -3.19072 -2.48948 0
M  V30 5733 H 545.001 -2.15182 -2.26749 0
M  V30 5734 H 544.221 -3.90896 -0.509321 0
M  V30 5735 H 545.509 -4.96362 -1.11813 0
M  V30 5736 H 544.907 -3.88586 -4.11118 0
M  V30 5737 H 543.464 -4.74881 -4.46465 0
M  V30 5738 N 546.897 -0.0685191 -1.57451 0
M  V30 5739 C 547.829 0.929372 -2.09512 0
M  V30 5740 C 548.842 1.26354 -1.02657 0
M  V30 5741 O 550.031 1.2213 -1.30179 0
M  V30 5742 C 547.131 2.24612 -2.53777 0
M  V30 5743 C 546.304 2.09128 -3.84167 0
M  V30 5744 C 545.363 3.24079 -4.14559 0
M  V30 5745 O 544.389 2.99215 -4.8421 0
M  V30 5746 N 545.591 4.49077 -3.67845 0
M  V30 5747 H 548.356 0.484901 -2.95751 0
M  V30 5748 H 545.917 0.11729 -1.61475 0
M  V30 5749 H 547.909 3.00412 -2.71172 0
M  V30 5750 H 546.479 2.60569 -1.72692 0
M  V30 5751 H 545.699 1.17815 -3.76182 0
M  V30 5752 H 546.987 1.9603 -4.69521 0
M  V30 5753 H 546.385 4.72165 -3.11571 0
M  V30 5754 H 544.942 5.21915 -3.90446 0
M  V30 5755 N 548.375 1.56261 0.205012 0
M  V30 5756 C 549.305 1.96779 1.257 0
M  V30 5757 C 550.286 0.838309 1.48008 0
M  V30 5758 O 551.471 1.10189 1.59913 0
M  V30 5759 C 548.601 2.29876 2.60335 0
M  V30 5760 C 547.555 3.45469 2.52656 0
M  V30 5761 C 546.881 3.64215 3.91473 0
M  V30 5762 C 548.181 4.79954 2.06014 0
M  V30 5763 H 549.875 2.84904 0.920338 0
M  V30 5764 H 547.421 1.37072 0.441277 0
M  V30 5765 H 549.374 2.56814 3.34102 0
M  V30 5766 H 548.098 1.38622 2.95722 0
M  V30 5767 H 546.757 3.18605 1.81345 0
M  V30 5768 H 546.405 2.70309 4.24196 0
M  V30 5769 H 546.105 4.41973 3.87213 0
M  V30 5770 H 547.629 3.93519 4.66878 0
M  V30 5771 H 549.043 5.05989 2.69533 0
M  V30 5772 H 547.44 5.61111 2.12777 0
M  V30 5773 H 548.51 4.74201 1.01297 0
M  V30 5774 N 549.853 -0.472356 1.50355 0
M  V30 5775 C 550.783 -1.57859 1.72055 0
M  V30 5776 C 551.764 -1.60283 0.569505 0
M  V30 5777 O 552.949 -1.7657 0.808503 0
M  V30 5778 C 550.079 -2.96191 1.81351 0
M  V30 5779 C 549.033 -3.08633 2.96529 0
M  V30 5780 C 548.359 -4.486 2.90968 0
M  V30 5781 C 549.659 -2.85969 4.37057 0
M  V30 5782 H 551.353 -1.39953 2.64676 0
M  V30 5783 H 548.899 -0.671846 1.27367 0
M  V30 5784 H 550.852 -3.73507 1.95117 0
M  V30 5785 H 549.576 -3.15251 0.853502 0
M  V30 5786 H 548.235 -2.33749 2.82413 0
M  V30 5787 H 547.883 -4.64577 1.92815 0
M  V30 5788 H 547.583 -4.57861 3.68289 0
M  V30 5789 H 549.107 -5.27938 3.0678 0
M  V30 5790 H 550.521 -3.53036 4.51706 0
M  V30 5791 H 548.918 -3.06677 5.15819 0
M  V30 5792 H 549.988 -1.81838 4.49514 0
M  V30 5793 N 551.331 -1.39911 -0.725443 0
M  V30 5794 C 552.747 -1.21725 -1.03224 0
M  V30 5795 C 552.947 -0.0855224 -2.01318 0
M  V30 5796 O 552.003 0.55976 -2.46217 0
M  V30 5797 C 553.316 -2.55511 -1.58539 0
M  V30 5798 C 554.864 -2.62439 -1.70572 0
M  V30 5799 C 555.339 -3.9647 -2.29294 0
M  V30 5800 N 556.83 -3.98159 -2.36692 0
M  V30 5801 C 557.565 -4.98647 -2.83088 0
M  V30 5802 N 557.061 -6.0953 -3.2931 0
M  V30 5803 N 558.854 -4.8602 -2.82384 0
M  V30 5804 H 551.005 -2.12267 -0.075048 0
M  V30 5805 H 553.268 -0.943136 -0.0959066 0
M  V30 5806 H 552.974 -3.38926 -0.939249 0
M  V30 5807 H 552.848 -2.75905 -2.57208 0
M  V30 5808 H 555.235 -1.79401 -2.34306 0
M  V30 5809 H 555.316 -2.45885 -0.705297 0
M  V30 5810 H 554.96 -4.79942 -1.66186 0
M  V30 5811 H 554.89 -4.10349 -3.30032 0
M  V30 5812 H 557.381 -3.18085 -2.04035 0
M  V30 5813 H 557.694 -6.82106 -3.6325 0
M  V30 5814 H 556.039 -6.1311 -3.27294 0
M  V30 5815 H 559.23 -3.98493 -2.45603 0
M  V30 5816 H 559.403 -5.64478 -3.18226 0
M  V30 5817 N 552.809 0.956637 -1.25245 0
M  V30 5818 C 554.055 1.70413 -1.11044 0
M  V30 5819 C 554.41 1.89275 0.345377 0
M  V30 5820 O 553.703 1.45116 1.25107 0
M  V30 5821 C 553.897 3.08996 -1.79601 0
M  V30 5822 C 553.726 3.03654 -3.317 0
M  V30 5823 C 552.496 3.07521 -4.00947 0
M  V30 5824 C 554.694 2.84975 -4.28128 0
M  V30 5825 N 552.676 2.92316 -5.39838 0
M  V30 5826 C 554.047 2.7818 -5.5409 0
M  V30 5827 C 556.102 2.6964 -4.18568 0
M  V30 5828 C 554.805 2.57616 -6.71585 0
M  V30 5829 C 556.831 2.50447 -5.35752 0
M  V30 5830 C 556.193 2.4437 -6.60653 0
M  V30 5831 H 552.292 0.631642 -0.461035 0
M  V30 5832 H 554.876 1.13331 -1.58317 0
M  V30 5833 H 553.047 3.64248 -1.34826 0
M  V30 5834 H 554.779 3.72515 -1.58161 0
M  V30 5835 H 551.534 3.16635 -3.52192 0
M  V30 5836 H 551.958 2.87923 -6.12723 0
M  V30 5837 H 556.6 2.73113 -3.22752 0
M  V30 5838 H 554.318 2.52885 -7.67512 0
M  V30 5839 H 557.904 2.39509 -5.30214 0
M  V30 5840 H 556.784 2.29712 -7.49801 0
M  V30 5841 N 554.287 1.06798 1.15896 0
M  V30 5842 C 555.535 0.786211 1.8618 0
M  V30 5843 C 555.856 -0.689547 1.82401 0
M  V30 5844 O 555.126 -1.49913 1.26107 0
M  V30 5845 H 553.706 0.287843 0.689315 0
M  V30 5846 H 556.368 1.35055 1.40521 0
M  V30 5847 H 555.464 1.1157 2.91477 0
M  V30 5848 N 555.766 -1.3263 0.851289 0
M  V30 5849 C 556.699 -2.26952 0.238318 0
M  V30 5850 C 557.677 -1.50243 -0.621757 0
M  V30 5851 O 558.861 -1.79378 -0.579298 0
M  V30 5852 C 555.988 -3.32124 -0.664178 0
M  V30 5853 C 555.034 -4.26325 0.122067 0
M  V30 5854 S 555.867 -5.14404 1.48824 0
M  V30 5855 C 557.023 -6.231 0.591372 0
M  V30 5856 H 557.256 -2.78594 1.03791 0
M  V30 5857 H 554.789 -1.4011 0.648731 0
M  V30 5858 H 556.747 -3.93197 -1.17924 0
M  V30 5859 H 555.408 -2.79273 -1.43755 0
M  V30 5860 H 554.601 -5.00821 -0.565181 0
M  V30 5861 H 554.203 -3.69652 0.568602 0
M  V30 5862 H 556.495 -6.77187 -0.205762 0
M  V30 5863 H 557.438 -6.95936 1.30687 0
M  V30 5864 H 557.846 -5.64252 0.167206 0
M  V30 5865 N 557.244 -0.608902 -1.45362 0
M  V30 5866 C 558.492 -0.104401 -2.0183 0
M  V30 5867 C 558.813 1.27007 -1.47967 0
M  V30 5868 O 558.083 1.83924 -0.674455 0
M  V30 5869 H 556.663 -0.0356042 -0.746151 0
M  V30 5870 H 559.325 -0.790596 -1.78145 0
M  V30 5871 H 558.421 -0.0551793 -3.12051 0
M  V30 5872 N 558.722 1.53707 -0.348139 0
M  V30 5873 C 559.947 2.05877 0.250883 0
M  V30 5874 C 560.372 1.22115 1.43072 0
M  V30 5875 O 559.73 0.235986 1.79758 0
M  V30 5876 C 559.778 3.54886 0.639416 0
M  V30 5877 O 558.882 3.73948 1.73888 0
M  V30 5878 H 558.223 0.662754 0.040653 0
M  V30 5879 H 560.753 1.98303 -0.503685 0
M  V30 5880 H 560.763 3.97601 0.915295 0
M  V30 5881 H 559.438 4.153 -0.223386 0
M  V30 5882 H 558.015 3.43134 1.45991 0
M  V30 5883 N 560.2 0.0768682 1.57412 0
M  V30 5884 C 561.132 -0.918248 2.10002 0
M  V30 5885 C 562.145 -1.25808 1.03325 0
M  V30 5886 O 563.334 -1.21438 1.30824 0
M  V30 5887 C 560.434 -2.23263 2.54964 0
M  V30 5888 C 559.607 -2.07088 3.8527 0
M  V30 5889 C 558.666 -3.21876 4.16272 0
M  V30 5890 O 557.692 -2.96643 4.8579 0
M  V30 5891 N 558.894 -4.4712 3.70221 0
M  V30 5892 H 561.659 -0.469209 2.96004 0
M  V30 5893 H 559.22 -0.108725 1.61535 0
M  V30 5894 H 561.212 -2.9897 2.72762 0
M  V30 5895 H 559.782 -2.59649 1.74072 0
M  V30 5896 H 559.002 -1.15818 3.76802 0
M  V30 5897 H 560.29 -1.93537 4.70554 0
M  V30 5898 H 559.688 -4.70506 3.1407 0
M  V30 5899 H 558.245 -5.19837 3.93209 0
M  V30 5900 N 561.678 -1.56367 -0.196722 0
M  V30 5901 C 562.903 -1.84991 -0.937714 0
M  V30 5902 C 563.328 -0.660244 -1.76132 0
M  V30 5903 O 562.686 0.390967 -1.77034 0
M  V30 5904 C 562.734 -3.11828 -1.81096 0
M  V30 5905 O 561.838 -2.92266 -2.90955 0
M  V30 5906 H 561.179 -0.609193 -0.264159 0
M  V30 5907 H 563.709 -2.03595 -0.202529 0
M  V30 5908 H 563.719 -3.42579 -2.21594 0
M  V30 5909 H 562.394 -3.98037 -1.2058 0
M  V30 5910 H 560.971 -2.72809 -2.54224 0
M  V30 5911 N 563.156 0.464375 -1.50603 0
M  V30 5912 C 564.396 1.22573 -1.6357 0
M  V30 5913 C 564.76 1.89111 -0.331834 0
M  V30 5914 O 565.961 2.66679 -0.336999 0
M  V30 5915 C 564.232 2.23643 -2.7878 0
M  V30 5916 S 565.791 3.08628 -3.1192 0
M  V30 5917 H 562.609 0.416058 -0.576556 0
M  V30 5918 H 565.211 0.521637 -1.88412 0
M  V30 5919 H 563.915 1.73354 -3.7199 0
M  V30 5920 H 563.446 2.98672 -2.56044 0
M  V30 5921 H 565.461 4.24904 -2.56264 0
M  V30 5922 N 564.634 1.40294 0.718013 0
M  V30 5923 C 565.862 1.4175 1.50714 0
M  V30 5924 C 566.277 0.0165366 1.88793 0
M  V30 5925 O 565.634 -0.958942 1.55276 0
M  V30 5926 C 565.685 2.30598 2.784 0
M  V30 5927 O 565.406 3.6524 2.41932 0
M  V30 5928 C 566.907 2.4062 3.72313 0
M  V30 5929 H 564.127 0.483565 0.465194 0
M  V30 5930 H 566.671 1.84316 0.885889 0
M  V30 5931 H 564.826 1.91401 3.36815 0
M  V30 5932 H 565.24 4.12402 3.24076 0
M  V30 5933 H 566.714 3.07001 4.58753 0
M  V30 5934 H 567.191 1.4305 4.15251 0
M  V30 5935 H 567.797 2.80359 3.19811 0
M  V30 5936 N 566.112 -0.949982 1.2575 0
M  V30 5937 C 567.042 -2.06483 1.09028 0
M  V30 5938 C 568.023 -1.701 -0.00201532 0
M  V30 5939 O 569.208 -1.93469 0.168383 0
M  V30 5940 C 566.338 -3.39899 0.71316 0
M  V30 5941 C 565.292 -3.90309 1.75621 0
M  V30 5942 C 564.618 -5.20274 1.23365 0
M  V30 5943 C 565.918 -4.16169 3.15596 0
M  V30 5944 H 567.612 -2.20731 2.02283 0
M  V30 5945 H 565.158 -1.06066 0.973964 0
M  V30 5946 H 567.111 -4.17346 0.58309 0
M  V30 5947 H 565.835 -3.25602 -0.255091 0
M  V30 5948 H 564.494 -3.15035 1.8748 0
M  V30 5949 H 564.142 -5.02351 0.255491 0
M  V30 5950 H 563.842 -5.54971 1.93082 0
M  V30 5951 H 565.366 -6.00314 1.11607 0
M  V30 5952 H 566.78 -4.84259 3.06864 0
M  V30 5953 H 565.177 -4.62131 3.82825 0
M  V30 5954 H 566.247 -3.22273 3.6231 0
M  V30 5955 N 567.59 -1.07411 -1.15328 0
M  V30 5956 C 568.52 -0.716472 -2.22236 0
M  V30 5957 C 569.501 0.296373 -1.67498 0
M  V30 5958 O 570.686 0.168989 -1.93463 0
M  V30 5959 C 567.816 -0.114142 -3.47112 0
M  V30 5960 C 566.77 -1.05421 -4.14814 0
M  V30 5961 C 566.096 -0.314604 -5.33774 0
M  V30 5962 C 567.396 -2.38808 -4.64508 0
M  V30 5963 H 569.09 -1.61029 -2.52408 0
M  V30 5964 H 566.636 -0.775702 -1.21321 0
M  V30 5965 H 568.589 0.148001 -4.2114 0
M  V30 5966 H 567.313 0.814755 -3.16274 0
M  V30 5967 H 565.972 -1.30128 -3.42728 0
M  V30 5968 H 565.62 0.617772 -4.99192 0
M  V30 5969 H 565.32 -0.941209 -5.80013 0
M  V30 5970 H 566.844 -0.0602747 -6.1057 0
M  V30 5971 H 568.258 -2.18424 -5.3006 0
M  V30 5972 H 566.655 -2.97069 -5.21412 0
M  V30 5973 H 567.725 -3.01067 -3.80114 0
M  V30 5974 O 569.107 1.27418 -0.99231 0
M  V30 5975 H 569.798 1.82762 -0.641704 0
M  V30 END ATOM
M  V30 BEGIN BOND
M  V30 END BOND
M  V30 END CTAB
M  END
$$$$
