drugbank_target|Q53707 MecA PBP2' (penicillin binding protein 2') (DB00417; DB01603)
 OpenBabel12092120363D

  0  0  0     0  0            999 V3000
M  V30 BEGIN CTAB
M  V30 COUNTS 10792 10886 0 0 0
M  V30 BEGIN ATOM
M  V30 1 H -0.908 1.98254 -0.117106 0
M  V30 2 N 0 1.576 0 0
M  V30 3 C 0.933 2.03868 1.02534 0
M  V30 4 C 1.911 0.928543 1.3348 0
M  V30 5 O 3.095 1.19667 1.45644 0
M  V30 6 C 0.222 2.43627 2.35294 0
M  V30 7 C -0.732 3.65373 2.2001 0
M  V30 8 S 0.101 5.13292 1.52614 0
M  V30 9 C 1.257 5.56322 2.86805 0
M  V30 10 H 1.49 2.90518 0.631377 0
M  V30 11 H -0.977 1.52953 0.210867 0
M  V30 12 H 0.981 2.67203 3.11629 0
M  V30 13 H -0.358 1.57376 2.7183 0
M  V30 14 H -1.165 3.90944 3.18086 0
M  V30 15 H -1.563 3.418 1.51819 0
M  V30 16 H 0.729 5.58782 3.83104 0
M  V30 17 H 1.672 6.56266 2.65933 0
M  V30 18 H 2.08 4.83886 2.90714 0
M  V30 19 N 1.4781 -0.272755 1.55222 0
M  V30 20 C 2.4251 -1.33716 1.88119 0
M  V30 21 C 3.3951 -1.49066 0.73271 0
M  V30 22 O 4.5801 -1.63469 0.984002 0
M  V30 23 C 1.7201 -2.69238 2.15882 0
M  V30 24 C 0.8331 -2.62108 3.43399 0
M  V30 25 C -0.0319 -3.89811 3.60861 0
M  V30 26 C -0.9929 -3.77193 4.8207 0
M  V30 27 N -1.8559 -4.9673 4.96189 0
M  V30 28 H 2.9841 -1.04962 2.78903 0
M  V30 29 H 0.5211 -0.507088 1.38083 0
M  V30 30 H 2.4791 -3.48089 2.29978 0
M  V30 31 H 1.1091 -2.96194 1.28331 0
M  V30 32 H 0.1611 -1.74967 3.37773 0
M  V30 33 H 1.4731 -2.48685 4.32386 0
M  V30 34 H 0.6271 -4.77103 3.74777 0
M  V30 35 H -0.6339 -4.06102 2.7006 0
M  V30 36 H -1.6289 -2.88284 4.68159 0
M  V30 37 H -0.4039 -3.62421 5.74307 0
M  V30 38 H -2.4579 -5.13431 4.08319 0
M  V30 39 H -2.5409 -4.85839 5.79221 0
M  V30 40 H -1.2729 -5.85594 5.1449 0
M  V30 41 N 2.9562 -1.48159 -0.537278 0
M  V30 42 C 3.9032 -1.62138 -1.64256 0
M  V30 43 C 4.8732 -0.463668 -1.59497 0
M  V30 44 O 6.0582 -0.686241 -1.78032 0
M  V30 45 C 3.1982 -1.66028 -3.02537 0
M  V30 46 C 2.3112 -2.92855 -3.17585 0
M  V30 47 C 1.4462 -2.87952 -4.46382 0
M  V30 48 C 0.4852 -4.09516 -4.54932 0
M  V30 49 N -0.3778 -4.02733 -5.75109 0
M  V30 50 H 4.4622 -2.56529 -1.51647 0
M  V30 51 H 1.9992 -1.27224 -0.738414 0
M  V30 52 H 3.9572 -1.66265 -3.82638 0
M  V30 53 H 2.5872 -0.751331 -3.13934 0
M  V30 54 H 1.6392 -3.02395 -2.30784 0
M  V30 55 H 2.9512 -3.82822 -3.19764 0
M  V30 56 H 2.1052 -2.8655 -5.34765 0
M  V30 57 H 0.8442 -1.95702 -4.46712 0
M  V30 58 H -0.1508 -4.11201 -3.64957 0
M  V30 59 H 1.0742 -5.02917 -4.56346 0
M  V30 60 H -0.9798 -3.13299 -5.76351 0
M  V30 61 H -1.0628 -4.86397 -5.78752 0
M  V30 62 H 0.2052 -4.05379 -6.65799 0
M  V30 63 N 4.4343 0.785586 -1.36625 0
M  V30 64 C 5.6833 1.53883 -1.30396 0
M  V30 65 C 5.9963 1.95271 0.113452 0
M  V30 66 O 7.2023 2.69858 0.298142 0
M  V30 67 C 5.6583 2.77808 -2.28802 0
M  V30 68 C 5.2663 2.43574 -3.75999 0
M  V30 69 C 7.0103 3.55783 -2.31558 0
M  V30 70 C 4.9173 3.63919 -4.66173 0
M  V30 71 H 3.8473 0.577678 -0.484566 0
M  V30 72 H 6.4983 0.861705 -1.62009 0
M  V30 73 H 4.8803 3.47339 -1.90188 0
M  V30 74 H 6.0543 1.81916 -4.23371 0
M  V30 75 H 4.3693 1.78803 -3.76056 0
M  V30 76 H 6.9663 4.45205 -2.96137 0
M  V30 77 H 7.3093 3.94644 -1.3252 0
M  V30 78 H 7.8423 2.93235 -2.68809 0
M  V30 79 H 4.5813 3.3015 -5.66287 0
M  V30 80 H 4.1013 4.2473 -4.23515 0
M  V30 81 H 5.7803 4.30901 -4.82632 0
M  V30 82 N 5.9124 1.20967 1.01018 0
M  V30 83 C 6.8594 0.964281 2.09691 0
M  V30 84 C 7.8294 -0.107853 1.65749 0
M  V30 85 O 9.0144 0.0381987 1.90762 0
M  V30 86 C 6.1544 0.52943 3.41015 0
M  V30 87 C 5.2674 1.67043 3.98398 0
M  V30 88 C 4.4024 1.18525 5.17808 0
M  V30 89 C 3.4414 2.29892 5.67288 0
M  V30 90 N 2.5784 1.82546 6.77954 0
M  V30 91 H 7.4184 1.89463 2.30017 0
M  V30 92 H 4.9554 0.944289 1.1279 0
M  V30 93 H 6.9134 0.258588 4.16398 0
M  V30 94 H 5.5434 -0.363919 3.20742 0
M  V30 95 H 4.5954 2.05603 3.20049 0
M  V30 96 H 5.9074 2.50877 4.31117 0
M  V30 97 H 5.0614 0.870762 6.00419 0
M  V30 98 H 3.8004 0.316887 4.86669 0
M  V30 99 H 2.8054 2.6215 4.83278 0
M  V30 100 H 4.0304 3.17216 6.00459 0
M  V30 101 H 1.9764 0.980454 6.48632 0
M  V30 102 H 1.8934 2.59956 7.09901 0
M  V30 103 H 3.1614 1.54115 7.64113 0
M  V30 104 N 7.3905 -1.2043 1.01659 0
M  V30 105 C 8.6395 -1.89118 0.701237 0
M  V30 106 C 8.9525 -1.79705 -0.772358 0
M  V30 107 O 10.1585 -2.43528 -1.20026 0
M  V30 108 C 8.6145 -3.39168 1.20388 0
M  V30 109 C 8.2225 -3.57166 2.70438 0
M  V30 110 C 9.9665 -4.1341 0.963953 0
M  V30 111 C 7.8735 -5.01042 3.14183 0
M  V30 112 H 6.8035 -0.708267 0.2586 0
M  V30 113 H 9.4545 -1.36239 1.22927 0
M  V30 114 H 7.8365 -3.91369 0.603824 0
M  V30 115 H 9.0105 -3.15351 3.35992 0
M  V30 116 H 7.3255 -2.96294 2.92572 0
M  V30 117 H 9.9225 -5.19491 1.26621 0
M  V30 118 H 10.2655 -4.16181 -0.099578 0
M  V30 119 H 10.7985 -3.67309 1.52738 0
M  V30 120 H 7.5375 -5.03426 4.19812 0
M  V30 121 H 7.0575 -5.43668 2.53348 0
M  V30 122 H 8.7365 -5.69623 3.0682 0
M  V30 123 N 8.8686 -0.792821 -1.36206 0
M  V30 124 C 10.1146 -0.36733 -1.99446 0
M  V30 125 C 10.4476 1.05917 -1.62774 0
M  V30 126 O 9.7226 1.7324 -0.88421 0
M  V30 127 C 10.0056 -0.535044 -3.56103 0
M  V30 128 C 9.8586 -2.00548 -4.02617 0
M  V30 129 C 11.1776 0.0478191 -4.40074 0
M  V30 130 H 8.2966 -0.134941 -0.724541 0
M  V30 131 H 10.9386 -0.999794 -1.61568 0
M  V30 132 H 9.0886 0.00336329 -3.885 0
M  V30 133 H 10.7606 -2.60521 -3.80692 0
M  V30 134 H 9.0036 -2.50686 -3.54032 0
M  V30 135 H 9.6746 -2.07377 -5.11565 0
M  V30 136 H 12.1506 -0.411822 -4.14057 0
M  V30 137 H 11.0266 -0.0995336 -5.4881 0
M  V30 138 H 11.2876 1.14025 -4.27142 0
M  V30 139 N 10.3467 1.47872 -0.545128 0
M  V30 140 C 11.7577 1.86384 -0.108581 0
M  V30 141 C 12.1087 1.45309 1.31832 0
M  V30 142 O 11.2337 0.850641 1.9898 0
M  V30 143 C 11.8287 3.38265 -0.190274 0
M  V30 144 C 10.3877 3.75914 0.191164 0
M  V30 145 C 9.5347 2.71926 -0.543273 0
M  V30 146 H 12.4857 1.39561 -0.755537 0
M  V30 147 H 12.5067 3.75831 0.594217 0
M  V30 148 H 12.0187 3.6813 -1.2289 0
M  V30 149 H 10.1197 3.51665 1.23136 0
M  V30 150 H 10.2327 4.78836 -0.158987 0
M  V30 151 H 8.5967 2.54697 0.0122495 0
M  V30 152 H 9.3797 3.04634 -1.58282 0
M  V30 153 N 11.8248 0.280983 1.55075 0
M  V30 154 C 12.7548 -0.597469 2.25727 0
M  V30 155 C 13.7358 -1.15417 1.24952 0
M  V30 156 O 14.9208 -1.18722 1.53684 0
M  V30 157 C 12.0508 -1.7789 2.98283 0
M  V30 158 C 11.0048 -1.35347 4.06036 0
M  V30 159 C 10.3308 -2.61846 4.66198 0
M  V30 160 C 11.6308 -0.499354 5.19907 0
M  V30 161 H 13.3248 -0.00824265 2.99399 0
M  V30 162 H 10.8708 -0.0025244 1.44 0
M  V30 163 H 12.8238 -2.39937 3.46422 0
M  V30 164 H 11.5478 -2.39405 2.22155 0
M  V30 165 H 10.2068 -0.756156 3.58717 0
M  V30 166 H 9.8548 -3.21632 3.86732 0
M  V30 167 H 9.5548 -2.3409 5.38958 0
M  V30 168 H 11.0788 -3.24732 5.1709 0
M  V30 169 H 12.4928 -1.02498 5.64063 0
M  V30 170 H 10.8898 -0.316424 5.99265 0
M  V30 171 H 11.9598 0.480459 4.82514 0
M  V30 172 N 13.3029 -1.57598 0.00835791 0
M  V30 173 C 14.5519 -1.90107 -0.673968 0
M  V30 174 C 14.8649 -0.884275 -1.7447 0
M  V30 175 O 16.0709 -1.09987 -2.48224 0
M  V30 176 C 14.5269 -3.37497 -1.24995 0
M  V30 177 C 14.1349 -4.47491 -0.2136 0
M  V30 178 C 15.8789 -3.79104 -1.90999 0
M  V30 179 C 13.7859 -5.85963 -0.80005 0
M  V30 180 H 12.7159 -0.709393 -0.255495 0
M  V30 181 H 15.3669 -1.83365 0.0702693 0
M  V30 182 H 13.7489 -3.39102 -2.04513 0
M  V30 183 H 14.9229 -4.57414 0.557596 0
M  V30 184 H 13.2379 -4.14956 0.346474 0
M  V30 185 H 15.8349 -4.79901 -2.35795 0
M  V30 186 H 16.1779 -3.1306 -2.74407 0
M  V30 187 H 16.7109 -3.79833 -1.18203 0
M  V30 188 H 13.4499 -6.555 -0.00456708 0
M  V30 189 H 12.9699 -5.79687 -1.54021 0
M  V30 190 H 14.6489 -6.33884 -1.29615 0
M  V30 191 N 14.781 0.264519 -1.55364 0
M  V30 192 C 15.711 1.33121 -1.91836 0
M  V30 193 C 16.692 1.51101 -0.781192 0
M  V30 194 O 17.877 1.64003 -1.04003 0
M  V30 195 C 15.007 2.68921 -2.19769 0
M  V30 196 C 13.961 2.65661 -3.35571 0
M  V30 197 C 13.287 4.05093 -3.49004 0
M  V30 198 C 14.587 2.24187 -4.71739 0
M  V30 199 H 16.281 1.02844 -2.81182 0
M  V30 200 H 13.827 0.493286 -1.35287 0
M  V30 201 H 15.78 3.43663 -2.43872 0
M  V30 202 H 14.504 3.00799 -1.27231 0
M  V30 203 H 13.163 1.93377 -3.1145 0
M  V30 204 H 12.811 4.34206 -2.53917 0
M  V30 205 H 12.511 4.03804 -4.26868 0
M  V30 206 H 14.035 4.81561 -3.75408 0
M  V30 207 H 15.449 2.88654 -4.9533 0
M  V30 208 H 13.846 2.34044 -5.52579 0
M  V30 209 H 14.916 1.19327 -4.69988 0
M  V30 210 N 16.2591 1.48442 0.529413 0
M  V30 211 C 17.5081 1.55742 1.28169 0
M  V30 212 C 17.8211 0.236511 1.94165 0
M  V30 213 O 19.0271 0.187761 2.7085 0
M  V30 214 C 17.4831 2.74667 2.32564 0
M  V30 215 C 17.0911 4.13402 1.72636 0
M  V30 216 C 18.8351 2.9128 3.08798 0
M  V30 217 C 16.7421 5.23587 2.74975 0
M  V30 218 H 15.6721 0.579796 0.48203 0
M  V30 219 H 18.3231 1.74776 0.559056 0
M  V30 220 H 16.7051 2.49067 3.07866 0
M  V30 221 H 17.8791 4.49022 1.03519 0
M  V30 222 H 16.1941 4.0191 1.08892 0
M  V30 223 H 18.7911 3.70767 3.85274 0
M  V30 224 H 19.1341 2.00757 3.64695 0
M  V30 225 H 19.6671 3.16782 2.40611 0
M  V30 226 H 16.4061 6.16076 2.23897 0
M  V30 227 H 15.9261 4.92454 3.42417 0
M  V30 228 H 17.6051 5.51724 3.37949 0
M  V30 229 N 17.7372 -0.778329 1.37039 0
M  V30 230 C 18.9832 -1.53892 1.32079 0
M  V30 231 C 19.3162 -1.9396 -0.0965386 0
M  V30 232 O 18.5912 -1.63568 -1.05242 0
M  V30 233 C 18.8742 -2.80847 2.25382 0
M  V30 234 C 18.7272 -2.47076 3.75864 0
M  V30 235 C 20.0462 -3.82741 2.1725 0
M  V30 236 H 17.1652 -0.558303 0.48111 0
M  V30 237 H 19.8072 -0.893397 1.67685 0
M  V30 238 H 17.9572 -3.35931 1.95148 0
M  V30 239 H 19.6292 -1.97957 4.16666 0
M  V30 240 H 17.8722 -1.79863 3.94755 0
M  V30 241 H 18.5432 -3.37798 4.36574 0
M  V30 242 H 21.0192 -3.37133 2.43887 0
M  V30 243 H 19.8952 -4.69303 2.84686 0
M  V30 244 H 20.1562 -4.2652 1.16331 0
M  V30 245 N 19.2153 -1.21501 -1.00376 0
M  V30 246 C 20.4613 -1.03452 -1.74429 0
M  V30 247 C 20.7943 0.430764 -1.89362 0
M  V30 248 O 20.0693 1.31962 -1.42886 0
M  V30 249 C 20.3523 -1.73375 -3.15615 0
M  V30 250 C 20.2053 -3.27431 -3.08397 0
M  V30 251 C 21.5243 -1.47732 -4.14564 0
M  V30 252 H 18.6433 -0.377226 -0.633143 0
M  V30 253 H 21.2853 -1.49693 -1.17013 0
M  V30 254 H 19.4353 -1.34064 -3.64636 0
M  V30 255 H 21.1073 -3.76119 -2.67081 0
M  V30 256 H 19.3503 -3.5767 -2.45468 0
M  V30 257 H 20.0213 -3.71524 -4.08258 0
M  V30 258 H 22.4973 -1.8186 -3.74254 0
M  V30 259 H 21.3733 -1.99169 -5.11491 0
M  V30 260 H 21.6343 -0.407589 -4.40217 0
M  V30 261 N 20.6934 1.19889 -1.02296 0
M  V30 262 C 21.9394 1.89701 -0.717033 0
M  V30 263 C 22.2724 1.7905 0.751989 0
M  V30 264 O 21.5474 1.17891 1.547 0
M  V30 265 C 21.8304 3.40858 -1.16136 0
M  V30 266 C 21.6834 3.60411 -2.69117 0
M  V30 267 C 23.0024 4.33876 -0.737549 0
M  V30 268 H 20.1214 0.688874 -0.261957 0
M  V30 269 H 22.7634 1.41154 -1.27183 0
M  V30 270 H 20.9134 3.82335 -0.689342 0
M  V30 271 H 22.5854 3.28145 -3.2422 0
M  V30 272 H 20.8284 3.03665 -3.0979 0
M  V30 273 H 21.4994 4.66396 -2.95261 0
M  V30 274 H 23.9754 4.00081 -1.14344 0
M  V30 275 H 22.8514 5.38242 -1.0764 0
M  V30 276 H 23.1124 4.40628 0.360436 0
M  V30 277 N 22.1715 0.800033 1.35784 0
M  V30 278 C 23.4175 0.377901 1.99248 0
M  V30 279 C 23.7505 -1.05052 1.63333 0
M  V30 280 O 23.0255 -1.72768 0.893385 0
M  V30 281 C 23.3085 0.553922 3.55814 0
M  V30 282 C 23.1615 2.0268 4.01548 0
M  V30 283 C 24.4805 -0.0244802 4.40093 0
M  V30 284 H 21.5995 0.138782 0.723815 0
M  V30 285 H 24.2415 1.00835 1.61035 0
M  V30 286 H 22.3915 0.0172398 3.88496 0
M  V30 287 H 24.0635 2.62536 3.79305 0
M  V30 288 H 22.3065 2.5256 3.52698 0
M  V30 289 H 22.9775 2.10087 5.10458 0
M  V30 290 H 25.4535 0.433775 4.13833 0
M  V30 291 H 24.3295 0.128637 5.48749 0
M  V30 292 H 24.5905 -1.11758 4.27741 0
M  V30 293 N 23.6496 -1.47581 0.552962 0
M  V30 294 C 24.8976 -2.02082 0.0272703 0
M  V30 295 C 25.2186 -1.4301 -1.32563 0
M  V30 296 O 24.4886 -0.603745 -1.86365 0
M  V30 297 H 23.0686 -0.746966 0.00709182 0
M  V30 298 H 25.7306 -1.81033 0.722008 0
M  V30 299 H 24.8266 -3.12034 -0.0639951 0
M  V30 300 N 25.1277 -0.289203 -1.54924 0
M  V30 301 C 26.3747 0.323519 -1.99899 0
M  V30 302 C 26.7027 1.54797 -1.17762 0
M  V30 303 O 25.9577 1.94237 -0.238835 0
M  V30 304 C 26.2567 0.736119 -3.49737 0
M  V30 305 C 25.9227 -0.385276 -4.49251 0
M  V30 306 C 24.5847 -0.693156 -4.76181 0
M  V30 307 C 26.9367 -1.14021 -5.08575 0
M  V30 308 C 24.2647 -1.7593 -5.59701 0
M  V30 309 C 26.6167 -2.19619 -5.93254 0
M  V30 310 C 25.2807 -2.51026 -6.185 0
M  V30 311 H 24.5507 0.118384 -0.731482 0
M  V30 312 H 27.1977 -0.405847 -1.8715 0
M  V30 313 H 25.5027 1.54539 -3.60035 0
M  V30 314 H 27.1997 1.22118 -3.81953 0
M  V30 315 H 23.7897 -0.135202 -4.28387 0
M  V30 316 H 27.9737 -0.915611 -4.87781 0
M  V30 317 H 23.2297 -2.0075 -5.77503 0
M  V30 318 H 27.4037 -2.78581 -6.38252 0
M  V30 319 H 25.0307 -3.33772 -6.83008 0
M  V30 320 N 26.6058 1.57591 -0.0167156 0
M  V30 321 C 27.8538 1.90906 0.663285 0
M  V30 322 C 28.1748 0.892509 1.73376 0
M  V30 323 O 27.4448 -0.0677623 1.95783 0
M  V30 324 H 26.0248 0.704637 0.247983 0
M  V30 325 H 28.6868 1.94803 -0.0615909 0
M  V30 326 H 27.7828 2.9116 1.12393 0
M  V30 327 N 28.0839 -0.256276 1.55502 0
M  V30 328 C 29.3329 -0.983486 1.76098 0
M  V30 329 C 29.6459 -1.86837 0.578896 0
M  V30 330 O 30.8519 -2.63163 0.667648 0
M  V30 331 C 29.3079 -1.79868 3.1173 0
M  V30 332 C 28.9159 -0.961648 4.37557 0
M  V30 333 C 30.6599 -2.51919 3.41668 0
M  V30 334 C 28.5669 -1.77219 5.64223 0
M  V30 335 H 27.4969 -0.370936 0.656447 0
M  V30 336 H 30.1479 -0.238492 1.81944 0
M  V30 337 H 28.5299 -2.58527 2.99966 0
M  V30 338 H 29.7039 -0.218048 4.60284 0
M  V30 339 H 28.0189 -0.354913 4.14885 0
M  V30 340 H 30.6159 -3.12998 4.33516 0
M  V30 341 H 30.9589 -3.23059 2.62562 0
M  V30 342 H 31.4919 -1.80278 3.54605 0
M  V30 343 H 28.2309 -1.10471 6.46124 0
M  V30 344 H 27.7509 -2.49132 5.45613 0
M  V30 345 H 29.4299 -2.34169 6.03137 0
M  V30 346 N 29.562 -1.4872 -0.521534 0
M  V30 347 C 30.792 -1.6061 -1.29954 0
M  V30 348 C 31.2 -0.268728 -1.87282 0
M  V30 349 O 30.543 0.753221 -1.67548 0
M  V30 350 C 30.605 -2.60013 -2.48261 0
M  V30 351 C 30.269 -4.04874 -2.11957 0
M  V30 352 C 31.266 -4.92304 -1.67132 0
M  V30 353 C 28.951 -4.5047 -2.22221 0
M  V30 354 C 30.945 -6.2336 -1.33047 0
M  V30 355 C 28.632 -5.81544 -1.87748 0
M  V30 356 C 29.63 -6.67812 -1.43234 0
M  V30 357 O 29.318 -7.96446 -1.09217 0
M  V30 358 H 29.05 -0.544116 -0.401141 0
M  V30 359 H 31.604 -1.95339 -0.634958 0
M  V30 360 H 29.834 -2.20422 -3.17728 0
M  V30 361 H 31.523 -2.61648 -3.10315 0
M  V30 362 H 32.289 -4.58312 -1.58665 0
M  V30 363 H 28.168 -3.83504 -2.55823 0
M  V30 364 H 31.712 -6.90649 -0.982299 0
M  V30 365 H 27.609 -6.15069 -1.95858 0
M  V30 366 H 28.377 -8.09275 -1.22542 0
M  V30 367 N 31.0401 0.771051 -1.3745 0
M  V30 368 C 32.2871 1.52963 -1.32697 0
M  V30 369 C 32.6151 1.94299 0.0883274 0
M  V30 370 O 31.8701 1.64397 1.0617 0
M  V30 371 C 32.1691 2.80676 -2.2126 0
M  V30 372 C 31.8351 2.58389 -3.69521 0
M  V30 373 C 30.4971 2.52019 -4.09927 0
M  V30 374 C 32.8491 2.38469 -4.63446 0
M  V30 375 C 30.1771 2.23721 -5.42371 0
M  V30 376 C 32.5291 2.11694 -5.96128 0
M  V30 377 C 31.1931 2.03769 -6.35637 0
M  V30 378 H 30.4631 0.559732 -0.485573 0
M  V30 379 H 33.1101 0.888083 -1.69662 0
M  V30 380 H 31.4151 3.49392 -1.77291 0
M  V30 381 H 33.1121 3.38557 -2.14895 0
M  V30 382 H 29.7021 2.6421 -3.37478 0
M  V30 383 H 33.8861 2.4238 -4.33089 0
M  V30 384 H 29.1421 2.16081 -5.71943 0
M  V30 385 H 33.3161 1.9528 -6.6846 0
M  V30 386 H 30.9431 1.81606 -7.38189 0
M  V30 387 N 32.5182 1.22032 0.997298 0
M  V30 388 C 33.7482 1.06686 1.76923 0
M  V30 389 C 34.1562 -0.385838 1.85224 0
M  V30 390 O 33.4992 -1.27929 1.31833 0
M  V30 391 C 33.5612 1.59802 3.22031 0
M  V30 392 C 33.2252 3.08362 3.37286 0
M  V30 393 C 34.2222 4.05835 3.24952 0
M  V30 394 C 31.9072 3.47727 3.6248 0
M  V30 395 C 33.9012 5.4066 3.37588 0
M  V30 396 C 31.5882 4.82701 3.74757 0
M  V30 397 C 32.5862 5.78977 3.62319 0
M  V30 398 O 32.2742 7.11502 3.74193 0
M  V30 399 H 32.0062 0.374767 0.562606 0
M  V30 400 H 34.5602 1.61991 1.26286 0
M  V30 401 H 32.7902 0.989003 3.73839 0
M  V30 402 H 34.4792 1.40184 3.80924 0
M  V30 403 H 35.2452 3.76766 3.05405 0
M  V30 404 H 31.1242 2.73317 3.7124 0
M  V30 405 H 34.6682 6.15788 3.27796 0
M  V30 406 H 30.5652 5.11453 3.9381 0
M  V30 407 H 31.3332 7.19019 3.91093 0
M  V30 408 N 33.9963 -1.19345 1.0293 0
M  V30 409 C 34.9593 -2.20793 0.615069 0
M  V30 410 C 35.9593 -1.57553 -0.321533 0
M  V30 411 O 37.1493 -1.73862 -0.108483 0
M  V30 412 C 34.2813 -3.40754 -0.0999222 0
M  V30 413 H 35.4743 -2.58955 1.51269 0
M  V30 414 H 33.0273 -1.3303 0.820534 0
M  V30 415 H 33.7623 -3.0811 -1.01187 0
M  V30 416 H 33.5473 -3.87889 0.57309 0
M  V30 417 H 35.0373 -4.15898 -0.376645 0
M  V30 418 N 35.4744 -0.807222 -1.35358 0
M  V30 419 C 36.6994 -0.399309 -2.0352 0
M  V30 420 C 37.1244 0.981986 -1.60433 0
M  V30 421 O 36.4824 1.63601 -0.781299 0
M  V30 422 C 36.5304 -0.491552 -3.57234 0
M  V30 423 O 35.6344 0.494754 -4.09421 0
M  V30 424 H 34.9754 -0.166682 -0.642739 0
M  V30 425 H 37.5054 -1.09328 -1.72941 0
M  V30 426 H 37.5154 -0.361588 -4.06395 0
M  V30 427 H 36.1904 -1.49907 -3.87944 0
M  V30 428 H 34.7674 0.324977 -3.71481 0
M  V30 429 N 36.9525 1.47285 -0.560781 0
M  V30 430 C 37.8995 2.30058 0.18491 0
M  V30 431 C 38.8695 1.39281 0.904986 0
M  V30 432 O 40.0545 1.68241 0.899979 0
M  V30 433 C 37.1945 3.23317 1.20666 0
M  V30 434 C 36.3075 4.29186 0.492285 0
M  V30 435 C 35.4425 5.09592 1.49964 0
M  V30 436 C 34.4815 6.07232 0.770439 0
M  V30 437 N 33.6185 6.80584 1.72479 0
M  V30 438 H 38.4585 2.93302 -0.527048 0
M  V30 439 H 35.9955 1.44568 -0.271738 0
M  V30 440 H 37.9535 3.75811 1.81168 0
M  V30 441 H 36.5835 2.61929 1.88661 0
M  V30 442 H 35.6355 3.7972 -0.227333 0
M  V30 443 H 36.9475 4.98738 -0.0787929 0
M  V30 444 H 36.1015 5.66254 2.17809 0
M  V30 445 H 34.8405 4.3995 2.10464 0
M  V30 446 H 33.8455 5.49745 0.0780846 0
M  V30 447 H 35.0705 6.78884 0.171134 0
M  V30 448 H 33.0165 6.1367 2.3183 0
M  V30 449 H 32.9335 7.46319 1.20596 0
M  V30 450 H 34.2015 7.41818 2.39428 0
M  V30 451 N 38.4306 0.297415 1.54768 0
M  V30 452 C 39.7076 -0.365847 1.92148 0
M  V30 453 C 40.0876 -1.71975 1.22424 0
M  V30 454 O 39.4356 -2.25666 0.358739 0
M  V30 455 C 39.6456 -0.484056 3.45627 0
M  V30 456 C 40.9936 -0.756594 4.17805 0
M  V30 457 O 42.0176 -0.568007 3.51642 0
M  V30 458 O 40.8766 -1.11863 5.34929 0
M  V30 459 H 37.9706 -0.203919 0.801465 0
M  V30 460 H 40.5166 0.34521 1.66152 0
M  V30 461 H 39.2886 0.467865 3.88493 0
M  V30 462 H 38.9116 -1.24372 3.77647 0
M  V30 463 N 39.9087 -1.5758 0.0250728 0
M  V30 464 C 40.8557 -2.09973 -0.958129 0
M  V30 465 C 41.8257 -1.00085 -1.3256 0
M  V30 466 O 43.0107 -1.27481 -1.41962 0
M  V30 467 C 40.1507 -2.62812 -2.2366 0
M  V30 468 C 39.2637 -3.86693 -1.92594 0
M  V30 469 C 38.3987 -4.27941 -3.14707 0
M  V30 470 C 37.4377 -5.44591 -2.79442 0
M  V30 471 N 36.5747 -5.81014 -3.94167 0
M  V30 472 H 41.4147 -2.937 -0.504428 0
M  V30 473 H 38.9517 -1.45172 -0.237392 0
M  V30 474 H 40.9097 -2.91536 -2.98434 0
M  V30 475 H 39.5397 -1.81922 -2.66654 0
M  V30 476 H 38.5917 -3.64723 -1.0808 0
M  V30 477 H 39.9037 -4.71547 -1.62619 0
M  V30 478 H 39.0577 -4.58079 -3.97804 0
M  V30 479 H 37.7967 -3.41845 -3.4784 0
M  V30 480 H 36.8017 -5.1415 -1.94755 0
M  V30 481 H 38.0267 -6.32382 -2.47528 0
M  V30 482 H 35.9727 -4.97874 -4.2715 0
M  V30 483 H 35.8897 -6.60498 -3.67801 0
M  V30 484 H 37.1577 -6.15756 -4.7798 0
M  V30 485 N 41.3868 0.248026 -1.55636 0
M  V30 486 C 42.2968 1.32859 -1.93354 0
M  V30 487 C 43.3128 1.52719 -0.833838 0
M  V30 488 O 44.4888 1.66363 -1.13513 0
M  V30 489 C 41.5538 2.66337 -2.21958 0
M  V30 490 C 40.6148 2.55008 -3.45354 0
M  V30 491 C 39.8478 3.82121 -3.72584 0
M  V30 492 O 40.0708 4.83951 -3.01907 0
M  V30 493 O 39.0048 3.80822 -4.6611 0
M  V30 494 H 42.8308 1.03862 -2.85388 0
M  V30 495 H 40.4158 0.448686 -1.42503 0
M  V30 496 H 42.2978 3.45216 -2.4167 0
M  V30 497 H 40.9728 2.95068 -1.33103 0
M  V30 498 H 39.8798 1.7442 -3.30951 0
M  V30 499 H 41.2128 2.31222 -4.34508 0
M  V30 500 N 42.8649 1.48995 0.513639 0
M  V30 501 C 44.1139 1.57093 1.2651 0
M  V30 502 C 44.4269 0.257091 1.93903 0
M  V30 503 O 45.6329 0.216478 2.70636 0
M  V30 504 C 44.0889 2.77118 2.29638 0
M  V30 505 C 43.6969 4.15209 1.68241 0
M  V30 506 C 45.4409 2.94538 3.05692 0
M  V30 507 C 43.3479 5.26474 2.69406 0
M  V30 508 H 42.2779 0.584876 0.475854 0
M  V30 509 H 44.9289 1.7536 0.540487 0
M  V30 510 H 43.3109 2.52319 3.05207 0
M  V30 511 H 44.4849 4.50094 0.987505 0
M  V30 512 H 42.7999 4.03042 1.04623 0
M  V30 513 H 45.3969 3.74832 3.8132 0
M  V30 514 H 45.7399 2.04614 3.62545 0
M  V30 515 H 46.2729 3.19316 2.37238 0
M  V30 516 H 43.0119 6.18417 2.17351 0
M  V30 517 H 42.5319 4.96058 3.37175 0
M  V30 518 H 44.2109 5.55277 3.32078 0
M  V30 519 N 44.343 -0.763751 1.37857 0
M  V30 520 C 45.291 -1.89864 1.34367 0
M  V30 521 C 46.285 -1.67816 0.231143 0
M  V30 522 O 47.491 -1.75508 0.399617 0
M  V30 523 H 43.866 -0.624501 0.41893 0
M  V30 524 H 45.837 -1.89925 2.30155 0
M  V30 525 C 44.586 -3.27227 1.1755 0
M  V30 526 H 43.909 -3.44773 2.02414 0
M  V30 527 H 45.349 -4.06911 1.1916 0
M  V30 528 C 43.808 -3.36692 -0.118311 0
M  V30 529 O 44.338 -3.86374 -1.09902 0
M  V30 530 N 42.544 -2.90092 -0.171717 0
M  V30 531 H 42.091 -2.49853 0.627012 0
M  V30 532 H 42.049 -2.96806 -1.03699 0
M  V30 533 N 45.8211 -1.22559 -0.990812 0
M  V30 534 C 46.7691 -0.994798 -2.10253 0
M  V30 535 C 47.7631 0.0627798 -1.69284 0
M  V30 536 O 48.9691 -0.0898392 -1.79776 0
M  V30 537 H 45.3441 -0.304527 -0.687581 0
M  V30 538 H 47.3151 -1.93812 -2.26891 0
M  V30 539 C 46.0641 -0.591439 -3.42633 0
M  V30 540 H 45.3871 -1.3969 -3.74602 0
M  V30 541 H 46.8271 -0.469385 -4.21394 0
M  V30 542 C 45.2861 0.699232 -3.29564 0
M  V30 543 O 45.8161 1.75112 -3.61523 0
M  V30 544 N 44.0221 0.671182 -2.82743 0
M  V30 545 H 43.5691 -0.185136 -2.56934 0
M  V30 546 H 43.5271 1.53502 -2.7438 0
M  V30 547 N 47.2992 1.18797 -1.03562 0
M  V30 548 C 48.5272 1.92599 -0.755869 0
M  V30 549 C 48.9422 1.75886 0.686271 0
M  V30 550 O 48.2992 1.08517 1.46732 0
M  V30 551 C 48.3502 3.44159 -1.10619 0
M  V30 552 O 48.0712 3.60341 -2.4917 0
M  V30 553 C 49.5722 4.3507 -0.850214 0
M  V30 554 H 46.7922 0.611587 -0.276048 0
M  V30 555 H 49.3362 1.50742 -1.38192 0
M  V30 556 H 47.4912 3.83823 -0.525194 0
M  V30 557 H 47.9052 4.54128 -2.62427 0
M  V30 558 H 49.3792 5.39989 -1.14523 0
M  V30 559 H 49.8562 4.38673 0.215176 0
M  V30 560 H 50.4622 4.01097 -1.41426 0
M  V30 561 N 48.7773 0.814389 1.34928 0
M  V30 562 C 50.0263 0.394871 1.97797 0
M  V30 563 C 50.3393 -1.04555 1.65311 0
M  V30 564 O 51.5453 -1.56856 2.21604 0
M  V30 565 C 50.0013 0.655103 3.53888 0
M  V30 566 C 49.6093 2.10858 3.95276 0
M  V30 567 C 51.3533 0.301329 4.23429 0
M  V30 568 C 49.2603 2.31415 5.44244 0
M  V30 569 H 48.1903 0.143913 0.740139 0
M  V30 570 H 50.8413 0.999544 1.53888 0
M  V30 571 H 49.2233 -0.0196253 3.95995 0
M  V30 572 H 50.3973 2.82176 3.64298 0
M  V30 573 H 48.7123 2.42297 3.38646 0
M  V30 574 H 51.3093 0.432869 5.32945 0
M  V30 575 H 51.6523 -0.75331 4.09428 0
M  V30 576 H 52.1853 0.930288 3.86769 0
M  V30 577 H 48.9243 3.35353 5.63222 0
M  V30 578 H 48.4443 1.6463 5.76764 0
M  V30 579 H 50.1233 2.13352 6.10811 0
M  V30 580 N 50.2554 -1.46986 0.568584 0
M  V30 581 C 51.5324 -1.95592 -0.0174074 0
M  V30 582 C 51.9124 -1.51124 -1.47393 0
M  V30 583 O 51.2604 -0.755329 -2.15655 0
M  V30 584 C 51.4704 -3.48719 0.139913 0
M  V30 585 C 52.8184 -4.246 0.000426376 0
M  V30 586 O 53.8424 -3.56135 0.0680316 0
M  V30 587 O 52.7014 -5.46302 -0.146988 0
M  V30 588 H 49.7954 -0.82498 -0.0577599 0
M  V30 589 H 52.3414 -1.57335 0.635909 0
M  V30 590 H 51.1134 -3.73927 1.15301 0
M  V30 591 H 50.7364 -3.93771 -0.550491 0
M  V30 592 N 51.7335 -0.305618 -1.54608 0
M  V30 593 C 52.6965 0.555591 -2.22364 0
M  V30 594 C 53.6965 1.05768 -1.21119 0
M  V30 595 O 54.8865 0.952972 -1.45822 0
M  V30 596 C 52.0185 1.76974 -2.91364 0
M  V30 597 H 53.2115 -0.0364572 -2.99878 0
M  V30 598 H 50.7645 -0.0565007 -1.56198 0
M  V30 599 H 51.4995 2.40151 -2.17941 0
M  V30 600 H 51.2845 1.41732 -3.65588 0
M  V30 601 H 52.7745 2.38148 -3.43038 0
M  V30 602 N 53.2116 1.57565 -0.0334293 0
M  V30 603 C 54.4606 1.91155 0.643639 0
M  V30 604 C 54.7736 0.91192 1.73042 0
M  V30 605 O 55.9796 1.13923 2.46442 0
M  V30 606 C 54.4356 3.39443 1.1961 0
M  V30 607 C 54.0436 4.47774 0.142381 0
M  V30 608 C 55.7876 3.82094 1.84944 0
M  V30 609 C 53.6946 5.87162 0.706727 0
M  V30 610 H 52.6246 0.713368 0.244176 0
M  V30 611 H 55.2756 1.8323 -0.0994323 0
M  V30 612 H 53.6576 3.42313 1.99092 0
M  V30 613 H 54.8316 4.56469 -0.630296 0
M  V30 614 H 53.1466 4.14352 -0.412446 0
M  V30 615 H 55.7436 4.83591 2.2813 0
M  V30 616 H 56.0866 3.17386 2.69392 0
M  V30 617 H 56.6196 3.81665 1.12145 0
M  V30 618 H 53.3586 6.55424 -0.0997178 0
M  V30 619 H 52.8786 5.82064 1.44779 0
M  V30 620 H 54.5576 6.35866 1.19514 0
M  V30 621 N 54.6897 -0.239769 1.55765 0
M  V30 622 C 55.5997 -1.31831 1.94056 0
M  V30 623 C 56.6157 -1.52275 0.841925 0
M  V30 624 O 57.7917 -1.65759 1.14394 0
M  V30 625 C 54.8567 -2.65156 2.23368 0
M  V30 626 C 53.9177 -2.53173 3.46701 0
M  V30 627 C 53.1507 -3.8014 3.74606 0
M  V30 628 O 53.3737 -4.82343 3.04469 0
M  V30 629 O 52.3077 -3.78344 4.68123 0
M  V30 630 H 56.1337 -1.02347 2.85935 0
M  V30 631 H 53.7187 -0.441123 1.42739 0
M  V30 632 H 55.6007 -3.43929 2.43497 0
M  V30 633 H 54.2757 -2.94358 1.34666 0
M  V30 634 H 53.1827 -1.72662 3.31871 0
M  V30 635 H 54.5157 -2.28915 4.35728 0
M  V30 636 N 56.1678 -1.49265 -0.50573 0
M  V30 637 C 57.4448 -1.49012 -1.26707 0
M  V30 638 C 57.8248 -0.215205 -2.1 0
M  V30 639 O 57.1728 0.802547 -2.13943 0
M  V30 640 C 57.3828 -2.7663 -2.12783 0
M  V30 641 C 58.7308 -3.25932 -2.72127 0
M  V30 642 O 59.7548 -2.77715 -2.23054 0
M  V30 643 O 58.6138 -4.09897 -3.61451 0
M  V30 644 H 55.7078 -0.596197 -0.57313 0
M  V30 645 H 58.2538 -1.61524 -0.52039 0
M  V30 646 H 57.0258 -3.60916 -1.5118 0
M  V30 647 H 56.6488 -2.66956 -2.94653 0
M  V30 648 N 57.6459 0.756429 -1.3826 0
M  V30 649 C 58.5929 1.87011 -1.35261 0
M  V30 650 C 59.5629 1.64695 -0.215616 0
M  V30 651 O 60.7479 1.864 -0.407399 0
M  V30 652 C 57.8879 3.24275 -1.18068 0
M  V30 653 C 57.0009 3.58442 -2.41129 0
M  V30 654 C 56.1359 4.84994 -2.16689 0
M  V30 655 C 55.1749 5.11939 -3.35537 0
M  V30 656 N 54.3119 6.29685 -3.10549 0
M  V30 657 H 59.1519 1.8891 -2.30472 0
M  V30 658 H 56.6889 0.923373 -1.14509 0
M  V30 659 H 58.6469 4.03479 -1.06116 0
M  V30 660 H 57.2769 3.21711 -0.264973 0
M  V30 661 H 56.3289 2.74103 -2.63764 0
M  V30 662 H 57.6409 3.74283 -3.29717 0
M  V30 663 H 56.7949 5.72135 -2.01857 0
M  V30 664 H 55.5339 4.71286 -1.25462 0
M  V30 665 H 54.5389 4.23268 -3.50891 0
M  V30 666 H 55.7639 5.27546 -4.27635 0
M  V30 667 H 53.7099 6.17306 -2.21967 0
M  V30 668 H 53.6269 6.46014 -3.92686 0
M  V30 669 H 54.8949 7.19722 -2.99367 0
M  V30 670 N 59.124 1.23083 0.984299 0
M  V30 671 C 60.072 1.00593 2.09723 0
M  V30 672 C 61.066 -0.0538014 1.69315 0
M  V30 673 O 62.272 0.0993719 1.79725 0
M  V30 674 H 58.647 0.30817 0.685956 0
M  V30 675 H 60.618 1.95012 2.2586 0
M  V30 676 C 59.367 0.609601 3.42314 0
M  V30 677 H 58.69 1.41675 3.73856 0
M  V30 678 H 60.13 0.491726 4.21139 0
M  V30 679 C 58.589 -0.681745 3.2993 0
M  V30 680 O 59.119 -1.73192 3.62446 0
M  V30 681 N 57.325 -0.656178 2.83095 0
M  V30 682 H 56.872 0.198759 2.56832 0
M  V30 683 H 56.83 -1.52044 2.75191 0
M  V30 684 N 60.6021 -1.18246 1.0419 0
M  V30 685 C 61.8491 -1.88257 0.746017 0
M  V30 686 C 62.1771 -1.80429 -0.726331 0
M  V30 687 O 61.4321 -1.2 -1.54591 0
M  V30 688 C 61.7311 -3.38082 1.15911 0
M  V30 689 C 61.3971 -3.66114 2.63195 0
M  V30 690 C 60.0591 -3.73474 3.03432 0
M  V30 691 C 62.4111 -3.78398 3.5842 0
M  V30 692 C 59.7391 -3.90599 4.37778 0
M  V30 693 C 62.0911 -3.97039 4.92487 0
M  V30 694 C 60.7551 -4.02635 5.32392 0
M  V30 695 H 60.0251 -0.688883 0.272987 0
M  V30 696 H 62.6721 -1.3995 1.30715 0
M  V30 697 H 60.9771 -3.88377 0.516806 0
M  V30 698 H 62.6741 -3.90596 0.907516 0
M  V30 699 H 59.2641 -3.61003 2.3103 0
M  V30 700 H 63.4481 -3.72042 3.28479 0
M  V30 701 H 58.7041 -3.93175 4.68213 0
M  V30 702 H 62.8781 -4.05486 5.66175 0
M  V30 703 H 60.5051 -4.15657 6.36501 0
M  V30 704 N 62.0802 -0.821533 -1.34494 0
M  V30 705 C 63.0272 -0.240397 -2.29545 0
M  V30 706 C 63.9972 0.634031 -1.53523 0
M  V30 707 O 65.1822 0.575966 -1.81899 0
M  V30 708 C 62.3222 0.592869 -3.39969 0
M  V30 709 C 61.4352 -0.30365 -4.30932 0
M  V30 710 C 60.5702 0.539049 -5.28458 0
M  V30 711 C 59.6092 -0.356942 -6.11058 0
M  V30 712 N 58.7462 0.446603 -7.00678 0
M  V30 713 H 63.5862 -1.05632 -2.7865 0
M  V30 714 H 61.1232 -0.532413 -1.37127 0
M  V30 715 H 63.0812 1.09129 -4.02675 0
M  V30 716 H 61.7112 1.37392 -2.92102 0
M  V30 717 H 60.7632 -0.920276 -3.691 0
M  V30 718 H 62.0752 -0.992661 -4.88823 0
M  V30 719 H 61.2292 1.102 -5.96608 0
M  V30 720 H 59.9682 1.26157 -4.71101 0
M  V30 721 H 58.9732 -0.932047 -5.41842 0
M  V30 722 H 60.1982 -1.07755 -6.70497 0
M  V30 723 H 58.1442 1.15282 -6.45791 0
M  V30 724 H 58.0612 -0.184048 -7.55776 0
M  V30 725 H 59.3292 0.992352 -7.73158 0
M  V30 726 N 63.5583 1.46682 -0.576371 0
M  V30 727 C 64.4903 2.28341 0.198231 0
M  V30 728 C 65.5033 1.38141 0.861453 0
M  V30 729 O 66.6923 1.62797 0.732082 0
M  V30 730 C 63.7923 3.12986 1.29972 0
M  V30 731 C 62.9653 4.31271 0.729639 0
M  V30 732 C 62.0243 4.97363 1.71803 0
M  V30 733 O 61.0503 5.55156 1.25658 0
M  V30 734 N 62.2523 4.93796 3.05198 0
M  V30 735 H 65.0173 2.9546 -0.502324 0
M  V30 736 H 62.5783 1.56525 -0.413715 0
M  V30 737 H 64.5703 3.54066 1.96008 0
M  V30 738 H 63.1403 2.47984 1.90323 0
M  V30 739 H 62.3603 3.94052 -0.108012 0
M  V30 740 H 63.6483 5.07739 0.328438 0
M  V30 741 H 63.0463 4.48077 3.45317 0
M  V30 742 H 61.6033 5.38837 3.6674 0
M  V30 743 N 65.0364 0.313813 1.54444 0
M  V30 744 C 66.2824 -0.292108 2.00685 0
M  V30 745 C 66.6154 -1.52548 1.20177 0
M  V30 746 O 65.8904 -1.92452 0.281531 0
M  V30 747 C 66.1734 -0.635968 3.5444 0
M  V30 748 C 66.0264 0.607437 4.4568 0
M  V30 749 C 67.3454 -1.45747 4.15266 0
M  V30 750 H 64.4644 -0.104697 0.729526 0
M  V30 751 H 67.1064 0.428457 1.85106 0
M  V30 752 H 65.2564 -1.24986 3.67846 0
M  V30 753 H 66.9284 1.24581 4.44159 0
M  V30 754 H 65.1714 1.23822 4.15753 0
M  V30 755 H 65.8424 0.322515 5.51057 0
M  V30 756 H 68.3184 -0.938645 4.05375 0
M  V30 757 H 67.1944 -1.66683 5.2298 0
M  V30 758 H 67.4554 -2.45063 3.67963 0
M  V30 759 N 66.5145 -1.57545 0.0417849 0
M  V30 760 C 67.7445 -1.96339 -0.642995 0
M  V30 761 C 68.1525 -0.917536 -1.65463 0
M  V30 762 O 67.4955 0.107747 -1.83384 0
M  V30 763 C 67.5575 -3.31333 -1.39494 0
M  V30 764 C 67.2215 -4.53796 -0.540204 0
M  V30 765 C 68.2185 -5.19553 0.189806 0
M  V30 766 C 65.9035 -5.0006 -0.473886 0
M  V30 767 C 67.8975 -6.29904 0.974674 0
M  V30 768 C 65.5845 -6.10289 0.314677 0
M  V30 769 C 66.5825 -6.75072 1.03765 0
M  V30 770 O 66.2705 -7.83183 1.81327 0
M  V30 771 H 66.0025 -0.651241 -0.181277 0
M  V30 772 H 68.5565 -2.05148 0.101665 0
M  V30 773 H 66.7865 -3.19052 -2.18502 0
M  V30 774 H 68.4755 -3.54942 -1.96904 0
M  V30 775 H 69.2415 -4.84774 0.147981 0
M  V30 776 H 65.1205 -4.49433 -1.0262 0
M  V30 777 H 68.6645 -6.80401 1.5395 0
M  V30 778 H 64.5615 -6.44506 0.358174 0
M  V30 779 H 65.3295 -7.99913 1.73438 0
M  V30 780 N 67.9926 0.231505 -1.5589 0
M  V30 781 C 68.9396 1.28682 -1.91598 0
M  V30 782 C 69.9096 1.47071 -0.771974 0
M  V30 783 O 71.0946 1.60802 -1.027 0
M  V30 784 C 68.2346 2.6342 -2.22944 0
M  V30 785 C 67.3476 2.52912 -3.50228 0
M  V30 786 C 66.4826 3.80106 -3.7107 0
M  V30 787 C 65.5216 3.64279 -4.91902 0
M  V30 788 N 64.6586 4.834 -5.09184 0
M  V30 789 H 69.4986 0.975305 -2.81588 0
M  V30 790 H 67.0356 0.470299 -1.39379 0
M  V30 791 H 68.9936 3.41869 -2.39126 0
M  V30 792 H 67.6236 2.92687 -1.36139 0
M  V30 793 H 66.6756 1.6595 -3.42294 0
M  V30 794 H 67.9876 2.37133 -4.38827 0
M  V30 795 H 67.1416 4.66999 -3.87295 0
M  V30 796 H 65.8806 3.98799 -2.80733 0
M  V30 797 H 64.8856 2.7577 -4.75637 0
M  V30 798 H 66.1106 3.47067 -5.83714 0
M  V30 799 H 64.0566 5.02425 -4.21788 0
M  V30 800 H 63.9736 4.70311 -5.91898 0
M  V30 801 H 65.2416 5.71747 -5.29835 0
M  V30 802 N 69.4707 1.49531 0.497807 0
M  V30 803 C 70.7477 1.49682 1.25915 0
M  V30 804 C 71.1277 0.226339 2.09883 0
M  V30 805 O 70.4757 -0.791189 2.14365 0
M  V30 806 C 70.6857 2.77755 2.11313 0
M  V30 807 C 72.0337 3.27371 2.70395 0
M  V30 808 O 73.0577 2.78894 2.21578 0
M  V30 809 O 71.9167 4.11808 3.59272 0
M  V30 810 H 69.0107 0.599228 0.56996 0
M  V30 811 H 71.5567 1.61798 0.511816 0
M  V30 812 H 70.3287 3.61713 1.49264 0
M  V30 813 H 69.9517 2.68515 2.93233 0
M  V30 814 N 70.9488 -0.749086 1.3866 0
M  V30 815 C 72.1738 -1.54344 1.38538 0
M  V30 816 C 72.5988 -1.88088 -0.0216655 0
M  V30 817 O 71.9568 -1.50899 -1.00494 0
M  V30 818 C 72.0048 -2.8164 2.25192 0
M  V30 819 O 71.1088 -3.7698 1.67212 0
M  V30 820 H 70.4498 -0.466654 0.472367 0
M  V30 821 H 72.9798 -0.925355 1.82478 0
M  V30 822 H 72.9898 -3.30519 2.3921 0
M  V30 823 H 71.6648 -2.56411 3.27454 0
M  V30 824 H 70.2418 -3.35699 1.6236 0
M  V30 825 N 72.4269 -1.23603 -0.977757 0
M  V30 826 C 73.6519 -1.09735 -1.75991 0
M  V30 827 C 74.0769 0.346858 -1.84874 0
M  V30 828 O 73.4349 1.25093 -1.3123 0
M  V30 829 C 73.4829 -1.73051 -3.16363 0
M  V30 830 O 72.5869 -0.994452 -4.0023 0
M  V30 831 H 71.9279 -0.384476 -0.541364 0
M  V30 832 H 74.4579 -1.6371 -1.2272 0
M  V30 833 H 74.4679 -1.78398 -3.66931 0
M  V30 834 H 73.1429 -2.78137 -3.09213 0
M  V30 835 H 71.7199 -1.01812 -3.58732 0
M  V30 836 N 73.905 1.17692 -1.04816 0
M  V30 837 C 75.135 1.91508 -0.775128 0
M  V30 838 C 75.543 1.76844 0.67253 0
M  V30 839 O 74.886 1.10057 1.47082 0
M  V30 840 C 74.948 3.43167 -1.0713 0
M  V30 841 C 74.612 3.81612 -2.51438 0
M  V30 842 C 75.609 3.84772 -3.49638 0
M  V30 843 C 73.294 4.12687 -2.86348 0
M  V30 844 C 75.288 4.18469 -4.80794 0
M  V30 845 C 72.975 4.46053 -4.17708 0
M  V30 846 C 73.973 4.48921 -5.14741 0
M  V30 847 O 73.661 4.81504 -6.43746 0
M  V30 848 H 73.393 0.614575 -0.281555 0
M  V30 849 H 75.947 1.50206 -1.40098 0
M  V30 850 H 74.177 3.84745 -0.388342 0
M  V30 851 H 75.866 3.98239 -0.784883 0
M  V30 852 H 76.632 3.60893 -3.24008 0
M  V30 853 H 72.511 4.09627 -2.11486 0
M  V30 854 H 76.055 4.20623 -5.56527 0
M  V30 855 H 71.952 4.69393 -4.43103 0
M  V30 856 H 72.72 4.99377 -6.4851 0
M  V30 857 N 75.3831 0.828654 1.34056 0
M  V30 858 C 76.6321 0.415828 1.97367 0
M  V30 859 C 76.9451 -1.02796 1.6641 0
M  V30 860 O 78.1511 -1.54497 2.23255 0
M  V30 861 C 76.6071 0.692601 3.53173 0
M  V30 862 C 76.2151 2.15038 3.93017 0
M  V30 863 C 77.9591 0.346222 4.23086 0
M  V30 864 C 75.8661 2.37174 5.41758 0
M  V30 865 H 74.7961 0.151755 0.738571 0
M  V30 866 H 77.4471 1.01581 1.52819 0
M  V30 867 H 75.8291 0.0223764 3.95994 0
M  V30 868 H 77.0031 2.86024 3.61285 0
M  V30 869 H 75.3181 2.45875 3.36057 0
M  V30 870 H 77.9151 0.48937 5.32456 0
M  V30 871 H 78.2581 -0.709842 4.10204 0
M  V30 872 H 78.7911 0.971258 3.85761 0
M  V30 873 H 75.5301 3.41308 5.59633 0
M  V30 874 H 75.0501 1.70738 5.74986 0
M  V30 875 H 76.7291 2.19818 6.08514 0
M  V30 876 N 76.8612 -1.46375 0.584142 0
M  V30 877 C 78.0862 -2.07268 0.0740405 0
M  V30 878 C 78.5112 -1.42979 -1.22223 0
M  V30 879 O 77.8692 -0.514092 -1.73859 0
M  V30 880 C 77.9172 -3.60518 -0.0767769 0
M  V30 881 O 77.0212 -3.96533 -1.13292 0
M  V30 882 H 76.3622 -0.660961 0.0634524 0
M  V30 883 H 78.8922 -1.87991 0.807492 0
M  V30 884 H 78.9022 -4.07021 -0.282489 0
M  V30 885 H 77.5772 -4.06702 0.86986 0
M  V30 886 H 76.1542 -3.61738 -0.905553 0
M  V30 887 N 78.3393 -0.321999 -1.54275 0
M  V30 888 C 79.2863 0.544664 -2.24281 0
M  V30 889 C 80.2563 1.1129 -1.23303 0
M  V30 890 O 81.4413 1.15354 -1.51981 0
M  V30 891 C 78.5813 1.70045 -3.00298 0
M  V30 892 C 77.6943 1.16159 -4.1609 0
M  V30 893 C 76.8293 2.28293 -4.79641 0
M  V30 894 C 75.8683 1.71648 -5.8754 0
M  V30 895 N 75.0053 2.77438 -6.44959 0
M  V30 896 H 79.8453 -0.0588907 -2.97942 0
M  V30 897 H 77.3823 -0.0408345 -1.47043 0
M  V30 898 H 79.3403 2.38054 -3.42616 0
M  V30 899 H 77.9703 2.27531 -2.28975 0
M  V30 900 H 77.0223 0.373092 -3.78566 0
M  V30 901 H 78.3343 0.707087 -4.93763 0
M  V30 902 H 77.4883 3.0421 -5.2492 0
M  V30 903 H 76.2273 2.77079 -4.01346 0
M  V30 904 H 75.2323 0.942282 -5.41665 0
M  V30 905 H 76.4573 1.23741 -6.67731 0
M  V30 906 H 74.4033 3.25519 -5.69538 0
M  V30 907 H 74.3203 2.36547 -7.1804 0
M  V30 908 H 75.5883 3.53189 -6.94894 0
M  V30 909 N 79.8174 1.5752 -0.0501392 0
M  V30 910 C 81.0424 1.97376 0.636997 0
M  V30 911 C 81.4674 0.927466 1.63645 0
M  V30 912 O 80.8254 -0.10941 1.8097 0
M  V30 913 C 80.8734 3.36304 1.30123 0
M  V30 914 O 79.9774 3.34156 2.41689 0
M  V30 915 H 79.3184 0.642998 0.165679 0
M  V30 916 H 81.8484 2.04258 -0.118233 0
M  V30 917 H 81.8584 3.73008 1.65315 0
M  V30 918 H 80.5334 4.11993 0.568746 0
M  V30 919 H 79.1104 3.09196 2.08451 0
M  V30 920 N 81.2955 -0.223234 1.56011 0
M  V30 921 C 82.5725 -0.972108 1.69733 0
M  V30 922 C 82.9525 -2.02485 0.59691 0
M  V30 923 O 82.3005 -2.25037 -0.396324 0
M  V30 924 C 82.5105 -1.58407 3.10979 0
M  V30 925 C 83.8585 -2.07696 3.70334 0
M  V30 926 O 84.8825 -1.68304 3.1393 0
M  V30 927 O 83.7415 -2.80096 4.69264 0
M  V30 928 H 80.8355 -0.453993 0.691245 0
M  V30 929 H 83.3815 -0.215149 1.68331 0
M  V30 930 H 82.1535 -0.823831 3.82529 0
M  V30 931 H 81.7765 -2.40661 3.16493 0
M  V30 932 N 82.7736 -1.49793 -0.48987 0
M  V30 933 C 83.7216 -1.67783 -1.61095 0
M  V30 934 C 84.7156 -0.543683 -1.60438 0
M  V30 935 O 85.9216 -0.723647 -1.64813 0
M  V30 936 H 82.2966 -0.529255 -0.534222 0
M  V30 937 H 84.2676 -2.61861 -1.43078 0
M  V30 938 C 83.0166 -1.77191 -2.99164 0
M  V30 939 H 82.3396 -2.63841 -3.0038 0
M  V30 940 H 83.7796 -1.93809 -3.77113 0
M  V30 941 C 82.2386 -0.519203 -3.32875 0
M  V30 942 O 82.7686 0.350124 -4.00171 0
M  V30 943 N 80.9746 -0.378816 -2.8812 0
M  V30 944 H 80.5216 -1.08725 -2.33531 0
M  V30 945 H 80.4796 0.458239 -3.11043 0
M  V30 946 N 84.2517 0.741722 -1.39055 0
M  V30 947 C 85.4997 1.49818 -1.35643 0
M  V30 948 C 85.8207 1.94938 0.0491642 0
M  V30 949 O 85.0907 1.68505 0.999141 0
M  V30 950 H 83.6707 0.555755 -0.499144 0
M  V30 951 H 86.3327 0.880957 -1.73854 0
M  V30 952 H 85.4287 2.38348 -2.01486 0
M  V30 953 N 85.7298 1.2412 0.971189 0
M  V30 954 C 86.6398 1.04747 2.09917 0
M  V30 955 C 87.6558 -0.0107162 1.73997 0
M  V30 956 O 88.8318 0.186714 2.00533 0
M  V30 957 C 85.8968 0.650828 3.40537 0
M  V30 958 C 84.9578 1.7851 3.90426 0
M  V30 959 C 84.1908 1.40729 5.14812 0
M  V30 960 O 84.4138 0.29557 5.69634 0
M  V30 961 O 83.3478 2.23168 5.58999 0
M  V30 962 H 87.1738 1.99304 2.29154 0
M  V30 963 H 84.7588 1.02908 1.08307 0
M  V30 964 H 86.6408 0.440992 4.19086 0
M  V30 965 H 85.3158 -0.265649 3.22608 0
M  V30 966 H 84.2228 2.04966 3.12953 0
M  V30 967 H 85.5558 2.68023 4.12825 0
M  V30 968 N 87.2079 -1.17134 1.05439 0
M  V30 969 C 88.4539 -1.87733 0.767077 0
M  V30 970 C 88.7869 -1.8098 -0.704253 0
M  V30 971 O 88.0619 -1.21951 -1.5152 0
M  V30 972 C 88.3449 -3.37659 1.25133 0
M  V30 973 C 88.1979 -3.53149 2.78578 0
M  V30 974 C 89.5169 -4.31768 0.852324 0
M  V30 975 H 86.6359 -0.681687 0.280129 0
M  V30 976 H 89.2779 -1.37732 1.30881 0
M  V30 977 H 87.4279 -3.80373 0.790469 0
M  V30 978 H 89.0999 -3.19434 3.32806 0
M  V30 979 H 87.3429 -2.95345 3.17732 0
M  V30 980 H 88.0139 -4.58403 3.07523 0
M  V30 981 H 90.4899 -3.96909 1.24911 0
M  V30 982 H 89.3659 -5.35199 1.21873 0
M  V30 983 H 89.6269 -4.41429 -0.243485 0
M  V30 984 N 88.686 -0.835752 -1.33615 0
M  V30 985 C 89.596 -0.269088 -2.33052 0
M  V30 986 C 90.612 0.603251 -1.63208 0
M  V30 987 O 91.788 0.508112 -1.94885 0
M  V30 988 C 88.853 0.549091 -3.42324 0
M  V30 989 C 87.914 -0.347156 -4.27894 0
M  V30 990 C 87.147 0.43207 -5.31948 0
M  V30 991 O 87.37 1.66409 -5.45586 0
M  V30 992 O 86.304 -0.192298 -6.01593 0
M  V30 993 H 90.13 -1.09243 -2.83372 0
M  V30 994 H 87.715 -0.598198 -1.36901 0
M  V30 995 H 89.597 1.01414 -4.09015 0
M  V30 996 H 88.272 1.34955 -2.94226 0
M  V30 997 H 87.179 -0.859979 -3.64081 0
M  V30 998 H 88.512 -1.1123 -4.79467 0
M  V30 999 N 90.1641 1.46063 -0.591896 0
M  V30 1000 C 91.0971 2.27452 0.184617 0
M  V30 1001 C 92.0751 1.36188 0.888351 0
M  V30 1002 O 93.2591 1.65606 0.90039 0
M  V30 1003 C 90.3861 3.14162 1.26571 0
M  V30 1004 C 89.4321 4.21255 0.666814 0
M  V30 1005 S 90.2651 5.33034 -0.513345 0
M  V30 1006 C 91.4211 6.23311 0.56872 0
M  V30 1007 H 91.6541 2.92963 -0.505939 0
M  V30 1008 H 89.1871 1.49676 -0.379014 0
M  V30 1009 H 91.1451 3.6468 1.88463 0
M  V30 1010 H 89.8061 2.47946 1.92826 0
M  V30 1011 H 88.9991 4.81788 1.47974 0
M  V30 1012 H 88.6011 3.73797 0.123359 0
M  V30 1013 H 90.8931 6.61758 1.45198 0
M  V30 1014 H 91.8361 7.081 -7.23824e-05 0
M  V30 1015 H 92.2441 5.57646 0.876996 0
M  V30 1016 N 91.6422 0.330177 1.54103 0
M  V30 1017 C 92.8702 -0.272179 2.05102 0
M  V30 1018 C 93.2852 -1.45267 1.20595 0
M  V30 1019 O 92.6422 -1.8094 0.238144 0
M  V30 1020 C 92.6932 -0.70023 3.54653 0
M  V30 1021 O 92.4142 0.433301 4.35952 0
M  V30 1022 C 93.9152 -1.3647 4.21771 0
M  V30 1023 H 91.1352 -0.0549159 0.668749 0
M  V30 1024 H 93.6792 0.478285 1.98828 0
M  V30 1025 H 91.8342 -1.40066 3.61193 0
M  V30 1026 H 92.2482 0.0947539 5.24414 0
M  V30 1027 H 93.7222 -1.61509 5.27843 0
M  V30 1028 H 94.1992 -2.31409 3.73292 0
M  V30 1029 H 94.8052 -0.706675 4.19388 0
M  V30 1030 N 93.1203 -1.57491 0.0584922 0
M  V30 1031 C 94.0303 -2.15448 -0.928414 0
M  V30 1032 C 95.0463 -1.11416 -1.3365 0
M  V30 1033 O 96.2223 -1.4362 -1.41193 0
M  V30 1034 C 93.2873 -2.69393 -2.18239 0
M  V30 1035 C 92.3483 -3.88249 -1.83196 0
M  V30 1036 C 91.5813 -4.39613 -3.02616 0
M  V30 1037 O 91.8043 -3.90023 -4.16219 0
M  V30 1038 O 90.7383 -5.31111 -2.83204 0
M  V30 1039 H 94.5643 -3.00112 -0.465483 0
M  V30 1040 H 92.1493 -1.48499 -0.163826 0
M  V30 1041 H 94.0313 -3.04026 -2.91798 0
M  V30 1042 H 92.7063 -1.87796 -2.63656 0
M  V30 1043 H 91.6133 -3.58492 -1.06931 0
M  V30 1044 H 92.9463 -4.71098 -1.42573 0
M  V30 1045 N 94.5984 0.214957 -1.56127 0
M  V30 1046 C 96.0144 0.564948 -1.49267 0
M  V30 1047 C 96.2144 1.86827 -0.754838 0
M  V30 1048 O 95.2704 2.50745 -0.297198 0
M  V30 1049 C 96.5834 0.638071 -2.93852 0
M  V30 1050 C 98.1314 0.728253 -3.0441 0
M  V30 1051 C 98.6064 0.832663 -4.50367 0
M  V30 1052 N 100.097 0.896712 -4.54437 0
M  V30 1053 C 100.832 0.997324 -5.6466 0
M  V30 1054 N 100.328 1.06147 -6.8462 0
M  V30 1055 N 102.121 1.03297 -5.52527 0
M  V30 1056 H 94.2724 -0.640211 -2.02522 0
M  V30 1057 H 96.5354 -0.225507 -0.920788 0
M  V30 1058 H 96.2414 -0.250126 -3.50809 0
M  V30 1059 H 96.1154 1.49947 -3.46115 0
M  V30 1060 H 98.5024 1.60689 -2.47514 0
M  V30 1061 H 98.5834 -0.158952 -2.55306 0
M  V30 1062 H 98.2274 -0.0415417 -5.07883 0
M  V30 1063 H 98.1574 1.73538 -4.97184 0
M  V30 1064 H 100.648 0.857188 -3.6805 0
M  V30 1065 H 100.961 1.1382 -7.64372 0
M  V30 1066 H 99.3064 1.03049 -6.87318 0
M  V30 1067 H 102.497 0.979558 -4.57736 0
M  V30 1068 H 102.67 1.10793 -6.38458 0
M  V30 1069 N 96.0765 1.50051 0.48192 0
M  V30 1070 C 97.4875 1.5348 1.06305 0
M  V30 1071 C 97.8385 0.331997 1.93371 0
M  V30 1072 O 96.9635 -0.556256 2.09129 0
M  V30 1073 C 97.5585 2.7813 1.93466 0
M  V30 1074 C 96.1175 2.84275 2.46707 0
M  V30 1075 C 95.2645 2.47637 1.24785 0
M  V30 1076 H 98.2155 1.56472 0.264995 0
M  V30 1077 H 98.2365 2.59372 2.78399 0
M  V30 1078 H 97.7485 3.65654 1.30072 0
M  V30 1079 H 95.8495 2.01077 3.13686 0
M  V30 1080 H 95.9625 3.8691 2.82555 0
M  V30 1081 H 94.3265 1.99835 1.57918 0
M  V30 1082 H 95.1095 3.37457 0.630694 0
M  V30 1083 N 97.5546 -0.734337 1.39446 0
M  V30 1084 C 98.8036 -1.48937 1.36017 0
M  V30 1085 C 99.1166 -1.95557 -0.0409005 0
M  V30 1086 O 100.323 -2.70779 -0.19778 0
M  V30 1087 C 98.7786 -2.69125 2.38955 0
M  V30 1088 C 98.3866 -2.29452 3.8478 0
M  V30 1089 C 100.131 -3.46944 2.44603 0
M  V30 1090 C 98.0376 -3.46366 4.79358 0
M  V30 1091 H 96.9676 -0.559296 0.505672 0
M  V30 1092 H 99.6186 -0.800983 1.65095 0
M  V30 1093 H 98.0006 -3.40041 2.02948 0
M  V30 1094 H 99.1746 -1.66077 4.29831 0
M  V30 1095 H 97.4896 -1.64723 3.82433 0
M  V30 1096 H 100.087 -4.33907 3.12456 0
M  V30 1097 H 100.43 -3.89454 1.47076 0
M  V30 1098 H 100.963 -2.83056 2.79507 0
M  V30 1099 H 97.7016 -3.08905 5.78151 0
M  V30 1100 H 97.2216 -4.08719 4.38986 0
M  V30 1101 H 98.9006 -4.12691 4.98292 0
M  V30 1102 N 99.0327 -1.24633 -0.964593 0
M  V30 1103 C 99.9797 -1.04144 -2.05968 0
M  V30 1104 C 100.95 0.046262 -1.66036 0
M  V30 1105 O 102.135 -0.108972 -1.90489 0
M  V30 1106 C 99.2747 -0.65563 -3.38815 0
M  V30 1107 C 98.3877 -1.81714 -3.91923 0
M  V30 1108 C 97.5227 -1.37662 -5.13052 0
M  V30 1109 C 96.5617 -2.50788 -5.58365 0
M  V30 1110 N 95.6987 -2.07582 -6.70712 0
M  V30 1111 H 100.539 -1.9787 -2.22827 0
M  V30 1112 H 98.0757 -0.9855 -1.09208 0
M  V30 1113 H 100.034 -0.412954 -4.15151 0
M  V30 1114 H 98.6637 0.244627 -3.21872 0
M  V30 1115 H 97.7157 -2.1734 -3.12198 0
M  V30 1116 H 99.0277 -2.66705 -4.21509 0
M  V30 1117 H 98.1817 -1.093 -5.96773 0
M  V30 1118 H 96.9207 -0.497293 -4.85158 0
M  V30 1119 H 95.9257 -2.79906 -4.73215 0
M  V30 1120 H 97.1507 -3.39283 -5.88272 0
M  V30 1121 H 95.0967 -1.22051 -6.44546 0
M  V30 1122 H 95.0137 -2.86125 -6.99763 0
M  V30 1123 H 96.2817 -1.82369 -7.57867 0
M  V30 1124 N 100.511 1.16574 -1.06058 0
M  V30 1125 C 101.76 1.86385 -0.770944 0
M  V30 1126 C 102.073 1.82448 0.705129 0
M  V30 1127 O 103.279 2.47815 1.10905 0
M  V30 1128 C 101.735 3.34466 -1.32893 0
M  V30 1129 C 101.343 3.46883 -2.83507 0
M  V30 1130 C 103.087 4.09548 -1.11672 0
M  V30 1131 C 100.994 4.89036 -3.32562 0
M  V30 1132 H 99.9238 0.698181 -0.284709 0
M  V30 1133 H 102.575 1.31583 -1.27899 0
M  V30 1134 H 100.957 3.88859 -0.748662 0
M  V30 1135 H 102.131 3.02663 -3.47465 0
M  V30 1136 H 100.446 2.85232 -3.03368 0
M  V30 1137 H 103.043 5.14434 -1.45814 0
M  V30 1138 H 103.386 4.16264 -0.0549535 0
M  V30 1139 H 103.919 3.61387 -1.66265 0
M  V30 1140 H 100.658 4.87499 -4.38207 0
M  V30 1141 H 100.178 5.3389 -2.73351 0
M  V30 1142 H 101.857 5.57843 -3.2775 0
M  V30 1143 N 101.989 0.842826 1.3317 0
M  V30 1144 C 103.219 0.453397 2.01564 0
M  V30 1145 C 103.627 -0.951147 1.63554 0
M  V30 1146 O 102.97 -1.63021 0.846746 0
M  V30 1147 C 103.032 0.499013 3.5602 0
M  V30 1148 C 102.696 1.86037 4.1742 0
M  V30 1149 C 103.693 2.82416 4.36506 0
M  V30 1150 C 101.378 2.15428 4.53757 0
M  V30 1151 C 103.372 4.06346 4.91082 0
M  V30 1152 C 101.059 3.39615 5.0804 0
M  V30 1153 C 102.057 4.3489 5.26649 0
M  V30 1154 O 101.745 5.5688 5.79776 0
M  V30 1155 H 101.477 0.177871 0.652179 0
M  V30 1156 H 104.031 1.13808 1.70988 0
M  V30 1157 H 102.261 -0.242467 3.85939 0
M  V30 1158 H 103.95 0.126852 4.05702 0
M  V30 1159 H 104.716 2.6101 4.08777 0
M  V30 1160 H 100.595 1.42061 4.38565 0
M  V30 1161 H 104.139 4.80722 5.05522 0
M  V30 1162 H 100.036 3.60876 5.352 0
M  V30 1163 H 100.804 5.58674 5.98185 0
M  V30 1164 N 103.467 -1.45747 0.599634 0
M  V30 1165 C 104.415 -2.322 -0.136426 0
M  V30 1166 C 105.409 -1.45497 -0.867583 0
M  V30 1167 O 106.615 -1.62027 -0.78405 0
M  V30 1168 H 102.99 -0.749368 -0.0628588 0
M  V30 1169 H 104.961 -2.92072 0.611281 0
M  V30 1170 C 103.71 -3.28974 -1.12567 0
M  V30 1171 H 103.033 -3.9568 -0.572484 0
M  V30 1172 H 104.473 -3.92212 -1.61077 0
M  V30 1173 C 102.932 -2.55561 -2.19523 0
M  V30 1174 O 103.462 -2.33111 -3.27143 0
M  V30 1175 N 101.668 -2.15832 -1.94589 0
M  V30 1176 H 101.215 -2.3429 -1.07078 0
M  V30 1177 H 101.173 -1.67034 -2.66359 0
M  V30 1178 N 104.945 -0.338344 -1.53925 0
M  V30 1179 C 106.17 0.263987 -2.05713 0
M  V30 1180 C 106.595 1.43847 -1.21201 0
M  V30 1181 O 105.953 1.79904 -0.224535 0
M  V30 1182 C 106.001 0.662 -3.54471 0
M  V30 1183 O 105.105 1.76265 -3.72833 0
M  V30 1184 H 104.446 0.0448722 -0.662482 0
M  V30 1185 H 106.976 -0.491048 -1.9862 0
M  V30 1186 H 106.986 0.940594 -3.9701 0
M  V30 1187 H 105.661 -0.196937 -4.15433 0
M  V30 1188 H 104.238 1.48173 -3.42198 0
M  V30 1189 N 106.423 1.57458 -0.0668435 0
M  V30 1190 C 107.353 2.15468 0.899764 0
M  V30 1191 C 108.334 1.08042 1.31381 0
M  V30 1192 O 109.519 1.36054 1.38574 0
M  V30 1193 C 106.649 2.71232 2.16911 0
M  V30 1194 C 105.603 3.83781 1.89463 0
M  V30 1195 C 104.929 4.26127 3.22986 0
M  V30 1196 C 106.229 5.08238 1.20381 0
M  V30 1197 H 107.923 2.96488 0.416529 0
M  V30 1198 H 105.469 1.4262 0.198908 0
M  V30 1199 H 107.422 3.10458 2.84945 0
M  V30 1200 H 106.146 1.87426 2.67468 0
M  V30 1201 H 104.805 3.45051 1.23836 0
M  V30 1202 H 104.453 3.39249 3.71374 0
M  V30 1203 H 104.153 5.01993 3.05413 0
M  V30 1204 H 105.677 4.67966 3.92225 0
M  V30 1205 H 107.091 5.44811 1.78475 0
M  V30 1206 H 105.488 5.89349 1.13083 0
M  V30 1207 H 106.558 4.84558 0.182153 0
M  V30 1208 N 107.901 -0.206675 1.56239 0
M  V30 1209 C 109.149 -0.927007 1.79586 0
M  V30 1210 C 109.47 -1.8427 0.637929 0
M  V30 1211 O 108.74 -1.92849 -0.344398 0
M  V30 1212 H 107.32 -0.345292 0.662407 0
M  V30 1213 H 109.982 -0.21496 1.93711 0
M  V30 1214 H 109.078 -1.52501 2.72305 0
M  V30 1215 N 109.379 -1.50304 -0.473955 0
M  V30 1216 C 110.625 -1.61389 -1.22806 0
M  V30 1217 C 110.958 -0.311955 -1.91678 0
M  V30 1218 O 110.233 0.686384 -1.81986 0
M  V30 1219 C 110.516 -2.79219 -2.27396 0
M  V30 1220 C 110.369 -4.19286 -1.62848 0
M  V30 1221 C 111.688 -2.92614 -3.28732 0
M  V30 1222 H 108.807 -0.587399 -0.445119 0
M  V30 1223 H 111.449 -1.82681 -0.522265 0
M  V30 1224 H 109.599 -2.61195 -2.87592 0
M  V30 1225 H 111.271 -4.48892 -1.06271 0
M  V30 1226 H 109.514 -4.23677 -0.931693 0
M  V30 1227 H 110.185 -4.97655 -2.38838 0
M  V30 1228 H 112.661 -3.09105 -2.78556 0
M  V30 1229 H 111.537 -3.76688 -3.99246 0
M  V30 1230 H 111.798 -2.03107 -3.92683 0
M  V30 1231 N 110.857 0.726932 -1.39834 0
M  V30 1232 C 111.804 1.841 -1.39197 0
M  V30 1233 C 112.774 1.642 -0.250502 0
M  V30 1234 O 113.959 1.85494 -0.446846 0
M  V30 1235 C 111.099 3.21697 -1.24919 0
M  V30 1236 C 110.212 3.53247 -2.48678 0
M  V30 1237 C 109.347 4.80289 -2.26928 0
M  V30 1238 C 108.386 5.04707 -3.4632 0
M  V30 1239 N 107.523 6.22956 -3.23836 0
M  V30 1240 H 112.363 1.83979 -2.34427 0
M  V30 1241 H 109.9 0.898876 -1.16442 0
M  V30 1242 H 111.858 4.01137 -1.1465 0
M  V30 1243 H 110.488 3.21076 -0.333153 0
M  V30 1244 H 109.54 2.68447 -2.69519 0
M  V30 1245 H 110.852 3.67205 -3.37582 0
M  V30 1246 H 110.006 5.67725 -2.13947 0
M  V30 1247 H 108.745 4.68519 -1.35431 0
M  V30 1248 H 107.75 4.1573 -3.5979 0
M  V30 1249 H 108.975 5.18357 -4.38729 0
M  V30 1250 H 106.921 6.12459 -2.35011 0
M  V30 1251 H 106.838 6.37539 -4.063 0
M  V30 1252 H 108.106 7.1321 -3.14566 0
M  V30 1253 N 112.336 1.25143 0.95797 0
M  V30 1254 C 113.613 1.00472 1.67823 0
M  V30 1255 C 113.993 -0.470056 2.058 0
M  V30 1256 O 113.341 -1.44663 1.76875 0
M  V30 1257 C 113.551 1.9372 2.90299 0
M  V30 1258 C 114.899 2.21371 3.62326 0
M  V30 1259 O 115.923 1.91451 3.00375 0
M  V30 1260 O 114.782 2.72231 4.7387 0
M  V30 1261 H 111.876 0.380752 0.734137 0
M  V30 1262 H 114.422 1.36283 1.01119 0
M  V30 1263 H 113.194 2.93316 2.59001 0
M  V30 1264 H 112.817 1.58286 3.64735 0
M  V30 1265 N 113.814 -1.1601 1.06675 0
M  V30 1266 C 115.063 -1.85973 0.780818 0
M  V30 1267 C 115.376 -1.82819 -0.695444 0
M  V30 1268 O 116.582 -2.484 -1.09589 0
M  V30 1269 C 115.038 -3.33757 1.34665 0
M  V30 1270 C 114.646 -3.45374 2.85343 0
M  V30 1271 C 116.39 -4.0895 1.13843 0
M  V30 1272 C 114.297 -4.87266 3.35151 0
M  V30 1273 H 113.227 -0.696661 0.288407 0
M  V30 1274 H 115.878 -1.30903 1.28595 0
M  V30 1275 H 114.26 -3.88456 0.769274 0
M  V30 1276 H 115.434 -3.00816 3.49065 0
M  V30 1277 H 113.749 -2.83619 3.04876 0
M  V30 1278 H 116.346 -5.13654 1.4854 0
M  V30 1279 H 116.689 -4.16229 0.0770282 0
M  V30 1280 H 117.222 -3.605 1.68179 0
M  V30 1281 H 113.961 -4.85168 4.40786 0
M  V30 1282 H 113.481 -5.32433 2.76179 0
M  V30 1283 H 115.16 -5.56097 3.30704 0
M  V30 1284 N 115.292 -0.849877 -1.32721 0
M  V30 1285 C 116.24 -0.279745 -2.30912 0
M  V30 1286 C 117.234 0.594278 -1.58634 0
M  V30 1287 O 118.44 0.482613 -1.73409 0
M  V30 1288 H 114.815 -0.0717521 -0.748569 0
M  V30 1289 H 116.786 -1.12222 -2.76494 0
M  V30 1290 C 115.535 0.521108 -3.43773 0
M  V30 1291 H 114.858 -0.142141 -3.99547 0
M  V30 1292 H 116.298 0.885693 -4.14646 0
M  V30 1293 C 114.757 1.70442 -2.90605 0
M  V30 1294 O 115.287 2.8034 -2.87702 0
M  V30 1295 N 113.493 1.52991 -2.47067 0
M  V30 1296 H 113.04 0.635914 -2.49628 0
M  V30 1297 H 112.998 2.32311 -2.11847 0
M  V30 1298 N 116.77 1.45427 -0.607355 0
M  V30 1299 C 118.019 2.01452 -0.100036 0
M  V30 1300 C 118.332 1.48159 1.27704 0
M  V30 1301 O 119.538 1.96159 1.87707 0
M  V30 1302 C 117.994 3.59672 -0.128158 0
M  V30 1303 C 117.602 4.21962 -1.50507 0
M  V30 1304 C 119.346 4.23262 0.323932 0
M  V30 1305 C 117.253 5.72333 -1.48959 0
M  V30 1306 H 116.183 0.75325 -0.0336299 0
M  V30 1307 H 118.834 1.66901 -0.76265 0
M  V30 1308 H 117.216 3.91411 0.601105 0
M  V30 1309 H 118.39 4.01796 -2.25602 0
M  V30 1310 H 116.705 3.70565 -1.89923 0
M  V30 1311 H 119.302 5.33522 0.354691 0
M  V30 1312 H 119.645 3.93921 1.34656 0
M  V30 1313 H 120.178 3.96239 -0.352056 0
M  V30 1314 H 116.917 6.06373 -2.48981 0
M  V30 1315 H 116.437 5.94691 -0.781214 0
M  V30 1316 H 118.116 6.35525 -1.21313 0
M  V30 1317 N 118.248 0.346503 1.53744 0
M  V30 1318 C 119.18 -0.543316 2.22667 0
M  V30 1319 C 120.193 -1.06159 1.23427 0
M  V30 1320 O 121.382 -0.971235 1.49764 0
M  V30 1321 C 118.482 -1.76076 2.89569 0
M  V30 1322 C 117.655 -1.37727 4.15151 0
M  V30 1323 C 116.714 -2.45471 4.65436 0
M  V30 1324 O 115.74 -2.08655 5.29577 0
M  V30 1325 N 116.942 -3.7677 4.41616 0
M  V30 1326 H 119.707 0.0469703 2.99663 0
M  V30 1327 H 117.268 0.170766 1.60997 0
M  V30 1328 H 119.26 -2.47593 3.20125 0
M  V30 1329 H 117.83 -2.25835 2.16142 0
M  V30 1330 H 117.05 -0.492746 3.91108 0
M  V30 1331 H 118.338 -1.09708 4.96832 0
M  V30 1332 H 117.736 -4.09467 3.90325 0
M  V30 1333 H 116.293 -4.44448 4.7677 0
M  V30 1334 N 119.726 -1.57421 0.075193 0
M  V30 1335 C 121.003 -1.85029 -0.634329 0
M  V30 1336 C 121.383 -0.968305 -1.87582 0
M  V30 1337 O 120.731 -0.0354749 -2.28472 0
M  V30 1338 C 120.941 -3.35286 -0.968742 0
M  V30 1339 C 122.289 -4.02875 -1.34077 0
M  V30 1340 O 123.313 -3.40051 -1.06037 0
M  V30 1341 O 122.172 -5.13691 -1.86506 0
M  V30 1342 H 119.266 -0.7645 -0.315387 0
M  V30 1343 H 121.812 -1.69366 0.106382 0
M  V30 1344 H 120.584 -3.91203 -0.0871376 0
M  V30 1345 H 120.207 -3.56223 -1.7661 0
M  V30 1346 N 121.204 0.198386 -1.56346 0
M  V30 1347 C 122.62 0.549085 -1.49857 0
M  V30 1348 C 122.82 1.86016 -0.774611 0
M  V30 1349 O 121.876 2.50416 -0.323776 0
M  V30 1350 C 123.189 0.606868 -2.94512 0
M  V30 1351 C 124.737 0.695925 -3.05165 0
M  V30 1352 C 125.212 0.784848 -4.51225 0
M  V30 1353 N 126.703 0.848463 -4.55363 0
M  V30 1354 C 127.438 0.937378 -5.65686 0
M  V30 1355 N 126.934 0.9888 -6.85707 0
M  V30 1356 N 128.727 0.974312 -5.53592 0
M  V30 1357 H 120.878 -0.661655 -2.01831 0
M  V30 1358 H 123.141 -0.235261 -0.918344 0
M  V30 1359 H 122.847 -0.28732 -3.50524 0
M  V30 1360 H 122.721 1.46268 -3.47686 0
M  V30 1361 H 125.108 1.58055 -2.49204 0
M  V30 1362 H 125.189 -0.186022 -2.55123 0
M  V30 1363 H 124.833 -0.0954072 -5.0781 0
M  V30 1364 H 124.763 1.68255 -4.98997 0
M  V30 1365 H 127.254 0.818103 -3.68938 0
M  V30 1366 H 127.567 1.05707 -7.65536 0
M  V30 1367 H 125.912 0.957534 -6.88372 0
M  V30 1368 H 129.103 0.930954 -4.58749 0
M  V30 1369 H 129.276 1.04015 -6.39597 0
M  V30 1370 N 122.682 1.50554 0.465978 0
M  V30 1371 C 123.629 1.6979 1.56333 0
M  V30 1372 C 124.599 0.539239 1.57103 0
M  V30 1373 O 125.784 0.770401 1.74555 0
M  V30 1374 C 122.924 1.80273 2.94271 0
M  V30 1375 C 122.037 3.07674 3.0325 0
M  V30 1376 C 121.172 3.08922 4.32135 0
M  V30 1377 C 120.211 4.30755 4.34875 0
M  V30 1378 N 119.348 4.29714 5.55239 0
M  V30 1379 H 124.188 2.63472 1.39235 0
M  V30 1380 H 121.725 1.30602 0.676873 0
M  V30 1381 H 123.683 1.84332 3.74269 0
M  V30 1382 H 122.313 0.900258 3.09992 0
M  V30 1383 H 121.365 3.13062 2.16094 0
M  V30 1384 H 122.677 3.97642 3.01135 0
M  V30 1385 H 121.831 3.11738 5.20485 0
M  V30 1386 H 120.57 2.16792 4.36866 0
M  V30 1387 H 119.575 4.28146 3.44922 0
M  V30 1388 H 120.8 5.24117 4.31831 0
M  V30 1389 H 118.746 3.4044 5.60746 0
M  V30 1390 H 118.663 5.13456 5.54886 0
M  V30 1391 H 119.931 4.36683 6.457 0
M  V30 1392 N 124.16 -0.719506 1.40217 0
M  V30 1393 C 125.409 -1.47486 1.37589 0
M  V30 1394 C 125.722 -1.9559 -0.0201568 0
M  V30 1395 O 126.928 -2.70973 -0.169049 0
M  V30 1396 C 125.384 -2.66575 2.41796 0
M  V30 1397 C 124.992 -2.25358 3.87192 0
M  V30 1398 C 126.736 -3.4433 2.48269 0
M  V30 1399 C 124.643 -3.41262 4.83005 0
M  V30 1400 H 123.573 -0.553901 0.511576 0
M  V30 1401 H 126.224 -0.783427 1.65936 0
M  V30 1402 H 124.606 -3.3787 2.06543 0
M  V30 1403 H 125.78 -1.61509 4.31569 0
M  V30 1404 H 124.095 -1.60657 3.84159 0
M  V30 1405 H 126.692 -4.30569 3.17041 0
M  V30 1406 H 127.035 -3.87872 1.51198 0
M  V30 1407 H 127.568 -2.80076 2.82493 0
M  V30 1408 H 124.307 -3.02755 5.81394 0
M  V30 1409 H 123.827 -4.0404 4.43297 0
M  V30 1410 H 125.506 -4.07383 5.02641 0
M  V30 1411 N 125.638 -1.25649 -0.95132 0
M  V30 1412 C 126.585 -1.06323 -2.04851 0
M  V30 1413 C 127.555 0.0286491 -1.66075 0
M  V30 1414 O 128.74 -0.12917 -1.90362 0
M  V30 1415 C 125.88 -0.691529 -3.381 0
M  V30 1416 C 124.993 -1.85861 -3.89974 0
M  V30 1417 C 124.128 -1.43096 -5.11563 0
M  V30 1418 C 123.167 -2.56696 -5.55674 0
M  V30 1419 N 122.304 -2.14684 -6.68472 0
M  V30 1420 H 127.144 -2.00222 -2.20715 0
M  V30 1421 H 124.681 -0.997027 -1.08156 0
M  V30 1422 H 126.639 -0.456963 -4.1469 0
M  V30 1423 H 125.269 0.210474 -3.22113 0
M  V30 1424 H 124.321 -2.20639 -3.09875 0
M  V30 1425 H 125.633 -2.71161 -4.18657 0
M  V30 1426 H 124.787 -1.15624 -5.9558 0
M  V30 1427 H 123.526 -0.548722 -4.84603 0
M  V30 1428 H 122.531 -2.84909 -4.7022 0
M  V30 1429 H 123.756 -3.45503 -5.8464 0
M  V30 1430 H 121.702 -1.28881 -6.43215 0
M  V30 1431 H 121.619 -2.9353 -6.96689 0
M  V30 1432 H 122.887 -1.90397 -7.5589 0
M  V30 1433 N 127.117 1.15442 -1.07289 0
M  V30 1434 C 128.064 2.20161 -0.692653 0
M  V30 1435 C 129.034 1.63073 0.31564 0
M  V30 1436 O 130.219 1.89725 0.202235 0
M  V30 1437 C 127.359 3.44967 -0.0959509 0
M  V30 1438 C 126.472 4.16256 -1.15564 0
M  V30 1439 C 125.607 5.28609 -0.524011 0
M  V30 1440 C 124.646 5.91715 -1.56653 0
M  V30 1441 N 123.783 6.9554 -0.957531 0
M  V30 1442 H 128.623 2.52037 -1.59002 0
M  V30 1443 H 126.16 1.2378 -0.794798 0
M  V30 1444 H 128.118 4.16341 0.267628 0
M  V30 1445 H 126.748 3.1361 0.764772 0
M  V30 1446 H 125.8 3.43385 -1.6368 0
M  V30 1447 H 127.112 4.59268 -1.94613 0
M  V30 1448 H 126.266 6.06604 -0.108032 0
M  V30 1449 H 125.005 4.86787 0.29825 0
M  V30 1450 H 124.01 5.12433 -1.9923 0
M  V30 1451 H 125.235 6.35614 -2.39107 0
M  V30 1452 H 123.181 6.55814 -0.156162 0
M  V30 1453 H 123.098 7.36977 -1.68526 0
M  V30 1454 H 124.366 7.77435 -0.567032 0
M  V30 1455 N 128.595 0.856903 1.32268 0
M  V30 1456 C 129.841 0.462069 1.97466 0
M  V30 1457 C 130.174 -0.980298 1.67642 0
M  V30 1458 O 129.449 -1.68824 0.965858 0
M  V30 1459 C 129.732 0.704336 3.53145 0
M  V30 1460 C 129.585 2.19529 3.9259 0
M  V30 1461 C 130.904 0.1622 4.39801 0
M  V30 1462 H 128.023 0.169357 0.717278 0
M  V30 1463 H 130.665 1.07574 1.56614 0
M  V30 1464 H 128.815 0.181999 3.88073 0
M  V30 1465 H 130.487 2.78387 3.67829 0
M  V30 1466 H 128.73 2.67292 3.41668 0
M  V30 1467 H 129.401 2.31549 5.01088 0
M  V30 1468 H 131.877 0.608905 4.11621 0
M  V30 1469 H 130.753 0.361265 5.4771 0
M  V30 1470 H 131.014 -0.935158 4.32096 0
M  V30 1471 N 130.073 -1.45103 0.615059 0
M  V30 1472 C 131.298 -2.07064 0.117988 0
M  V30 1473 C 131.723 -1.4554 -1.19163 0
M  V30 1474 O 131.081 -0.550855 -1.72729 0
M  V30 1475 C 131.129 -3.606 -0.000288387 0
M  V30 1476 O 130.233 -3.98847 -1.04856 0
M  V30 1477 H 129.574 -0.659467 0.0774581 0
M  V30 1478 H 132.104 -1.86236 0.847186 0
M  V30 1479 H 132.114 -4.07529 -0.196091 0
M  V30 1480 H 130.789 -4.04765 0.955932 0
M  V30 1481 H 129.366 -3.63577 -0.828619 0
M  V30 1482 N 131.551 -0.354651 -1.53558 0
M  V30 1483 C 132.498 0.496968 -2.25386 0
M  V30 1484 C 133.468 1.0865 -1.25636 0
M  V30 1485 O 134.653 1.12104 -1.54394 0
M  V30 1486 C 131.793 1.63637 -3.03837 0
M  V30 1487 C 130.906 1.07307 -4.18461 0
M  V30 1488 C 130.041 2.18068 -4.84376 0
M  V30 1489 C 129.08 1.59147 -5.91049 0
M  V30 1490 N 128.217 2.63695 -6.50699 0
M  V30 1491 H 133.057 -0.122075 -2.9775 0
M  V30 1492 H 130.594 -0.0720154 -1.46924 0
M  V30 1493 H 132.552 2.30734 -3.47589 0
M  V30 1494 H 131.182 2.22623 -2.33749 0
M  V30 1495 H 130.234 0.292708 -3.79272 0
M  V30 1496 H 131.546 0.602193 -4.95152 0
M  V30 1497 H 130.7 2.93007 -5.31255 0
M  V30 1498 H 129.439 2.68504 -4.07133 0
M  V30 1499 H 128.444 0.827175 -5.43542 0
M  V30 1500 H 129.669 1.09549 -6.70206 0
M  V30 1501 H 127.615 3.13365 -5.76315 0
M  V30 1502 H 127.532 2.21263 -7.22896 0
M  V30 1503 H 128.8 3.3837 -7.02229 0
M  V30 1504 N 133.029 1.57378 -0.0835403 0
M  V30 1505 C 133.977 2.14602 0.89714 0
M  V30 1506 C 134.971 1.08589 1.30018 0
M  V30 1507 O 136.177 1.26952 1.27606 0
M  V30 1508 H 132.552 0.686346 0.3073 0
M  V30 1509 H 134.523 2.95845 0.38969 0
M  V30 1510 C 133.272 2.73188 2.15089 0
M  V30 1511 H 132.595 3.54442 1.84962 0
M  V30 1512 H 134.035 3.1681 2.81793 0
M  V30 1513 C 132.494 1.68517 2.91725 0
M  V30 1514 O 133.024 1.11718 3.85852 0
M  V30 1515 N 131.23 1.39277 2.55049 0
M  V30 1516 H 130.777 1.85655 1.78577 0
M  V30 1517 H 130.735 0.694791 3.06627 0
M  V30 1518 N 134.507 -0.190092 1.56449 0
M  V30 1519 C 135.454 -1.23557 1.94942 0
M  V30 1520 C 136.424 -1.44972 0.810696 0
M  V30 1521 O 137.609 -1.58023 1.06927 0
M  V30 1522 C 134.749 -2.57416 2.2985 0
M  V30 1523 C 133.862 -2.43537 3.5681 0
M  V30 1524 C 132.997 -3.70134 3.81017 0
M  V30 1525 C 132.036 -3.51109 5.01387 0
M  V30 1526 N 131.173 -4.6973 5.21822 0
M  V30 1527 H 136.013 -0.900304 2.84075 0
M  V30 1528 H 133.55 -0.43318 1.40577 0
M  V30 1529 H 135.508 -3.35409 2.48106 0
M  V30 1530 H 134.138 -2.88975 1.43852 0
M  V30 1531 H 133.19 -1.56816 3.46573 0
M  V30 1532 H 134.502 -2.25415 4.4496 0
M  V30 1533 H 133.656 -4.56566 3.9954 0
M  V30 1534 H 132.395 -3.91215 2.91207 0
M  V30 1535 H 131.4 -2.63063 4.82782 0
M  V30 1536 H 132.625 -3.31468 5.9271 0
M  V30 1537 H 130.571 -4.91065 4.34961 0
M  V30 1538 H 130.488 -4.54452 6.0416 0
M  V30 1539 H 131.756 -5.57499 5.44808 0
M  V30 1540 N 135.985 -1.50799 -0.457987 0
M  V30 1541 C 136.932 -1.70617 -1.5543 0
M  V30 1542 C 137.902 -0.547562 -1.56815 0
M  V30 1543 O 139.087 -0.779647 -1.74144 0
M  V30 1544 C 136.227 -1.81831 -2.93311 0
M  V30 1545 C 135.34 -3.09278 -3.01615 0
M  V30 1546 C 134.475 -3.11209 -4.30491 0
M  V30 1547 C 133.514 -4.33055 -4.32585 0
M  V30 1548 N 132.651 -4.32652 -5.52952 0
M  V30 1549 H 137.491 -2.64207 -1.37836 0
M  V30 1550 H 135.028 -1.30959 -0.669937 0
M  V30 1551 H 136.986 -1.86314 -3.73287 0
M  V30 1552 H 135.616 -0.916685 -3.0951 0
M  V30 1553 H 134.668 -3.14203 -2.1443 0
M  V30 1554 H 135.98 -3.99233 -2.99022 0
M  V30 1555 H 135.134 -3.14494 -5.18824 0
M  V30 1556 H 133.873 -2.19106 -4.35711 0
M  V30 1557 H 132.878 -4.29969 -3.42647 0
M  V30 1558 H 134.103 -5.264 -4.29046 0
M  V30 1559 H 132.049 -3.43409 -5.58933 0
M  V30 1560 H 131.966 -5.16392 -5.52155 0
M  V30 1561 H 133.234 -4.40101 -6.43375 0
M  V30 1562 N 137.463 0.71206 -1.40597 0
M  V30 1563 C 138.879 1.02058 -1.22704 0
M  V30 1564 C 139.079 2.01228 -0.104729 0
M  V30 1565 O 138.135 2.4674 0.53624 0
M  V30 1566 C 139.448 1.56094 -2.57012 0
M  V30 1567 C 140.996 1.6806 -2.64054 0
M  V30 1568 C 141.471 2.25501 -3.9864 0
M  V30 1569 N 142.962 2.32882 -4.004 0
M  V30 1570 C 143.697 2.78317 -5.01325 0
M  V30 1571 N 143.193 3.23478 -6.12645 0
M  V30 1572 N 144.986 2.77733 -4.88693 0
M  V30 1573 H 137.137 0.0547896 -2.12329 0
M  V30 1574 H 139.4 0.0869027 -0.944008 0
M  V30 1575 H 139.106 0.906865 -3.39807 0
M  V30 1576 H 138.98 2.54564 -2.78347 0
M  V30 1577 H 141.367 2.32583 -1.81629 0
M  V30 1578 H 141.448 0.681802 -2.46546 0
M  V30 1579 H 141.092 1.61598 -4.81506 0
M  V30 1580 H 141.022 3.26102 -4.13479 0
M  V30 1581 H 143.513 2.00991 -3.20017 0
M  V30 1582 H 143.826 3.56725 -6.85542 0
M  V30 1583 H 142.171 3.21429 -6.16205 0
M  V30 1584 H 145.362 2.4179 -4.00818 0
M  V30 1585 H 145.535 3.12826 -5.67489 0
M  V30 1586 N 138.941 1.26152 0.944643 0
M  V30 1587 C 140.187 1.11657 1.69294 0
M  V30 1588 C 140.52 -0.339926 1.91202 0
M  V30 1589 O 139.795 -1.24994 1.49019 0
M  V30 1590 C 140.078 1.88236 3.06984 0
M  V30 1591 C 139.931 3.41772 2.92424 0
M  V30 1592 C 141.25 1.67343 4.07043 0
M  V30 1593 H 138.369 0.407004 0.614424 0
M  V30 1594 H 141.011 1.55106 1.09737 0
M  V30 1595 H 139.161 1.51308 3.57824 0
M  V30 1596 H 140.833 3.88433 2.48832 0
M  V30 1597 H 139.076 3.68974 2.28124 0
M  V30 1598 H 139.747 3.90579 3.90067 0
M  V30 1599 H 142.223 1.99509 3.65151 0
M  V30 1600 H 141.099 2.23346 5.01406 0
M  V30 1601 H 141.36 0.617158 4.37771 0
M  V30 1602 N 140.419 -1.14872 1.07899 0
M  V30 1603 C 141.696 -1.81928 0.71845 0
M  V30 1604 C 142.076 -1.95417 -0.798455 0
M  V30 1605 O 141.424 -1.50997 -1.715 0
M  V30 1606 C 141.634 -3.17937 1.43935 0
M  V30 1607 C 142.982 -3.93501 1.59506 0
M  V30 1608 O 144.006 -3.27509 1.40058 0
M  V30 1609 O 142.865 -5.1183 1.91551 0
M  V30 1610 H 139.959 -0.78628 0.256305 0
M  V30 1611 H 142.505 -1.21934 1.18026 0
M  V30 1612 H 141.277 -3.0325 2.47295 0
M  V30 1613 H 140.9 -3.85619 0.968687 0
M  V30 1614 N 141.898 -0.863906 -1.31812 0
M  V30 1615 C 142.861 -0.320212 -2.26952 0
M  V30 1616 C 143.861 0.525369 -1.51975 0
M  V30 1617 O 145.051 0.335547 -1.70938 0
M  V30 1618 C 142.183 0.545919 -3.365 0
M  V30 1619 H 143.376 -1.16004 -2.76556 0
M  V30 1620 H 140.929 -0.638995 -1.42641 0
M  V30 1621 H 141.664 1.40718 -2.92179 0
M  V30 1622 H 141.449 -0.0594674 -3.92055 0
M  V30 1623 H 142.939 0.918796 -4.07367 0
M  V30 1624 N 143.376 1.44774 -0.622745 0
M  V30 1625 C 144.308 2.28856 0.125485 0
M  V30 1626 C 145.321 1.40811 0.817069 0
M  V30 1627 O 146.51 1.65044 0.679918 0
M  V30 1628 C 143.61 3.16963 1.19949 0
M  V30 1629 C 142.783 4.33374 0.592064 0
M  V30 1630 C 141.842 5.02577 1.55893 0
M  V30 1631 O 140.868 5.58873 1.07933 0
M  V30 1632 N 142.07 5.03256 2.89334 0
M  V30 1633 H 144.835 2.93713 -0.596068 0
M  V30 1634 H 142.396 1.55129 -0.463303 0
M  V30 1635 H 144.388 3.60123 1.84644 0
M  V30 1636 H 142.958 2.53913 1.82337 0
M  V30 1637 H 142.178 3.93509 -0.233322 0
M  V30 1638 H 143.466 5.08527 0.166738 0
M  V30 1639 H 142.864 4.58836 3.30887 0
M  V30 1640 H 141.421 5.50232 3.49412 0
M  V30 1641 N 144.854 0.36279 1.53368 0
M  V30 1642 C 146.084 -0.228281 2.05335 0
M  V30 1643 C 146.492 -1.43226 1.23625 0
M  V30 1644 O 145.835 -1.81717 0.269206 0
M  V30 1645 C 145.897 -0.688549 3.52845 0
M  V30 1646 C 145.561 0.398362 4.5526 0
M  V30 1647 C 146.558 1.24732 5.04716 0
M  V30 1648 C 144.243 0.557805 4.99193 0
M  V30 1649 C 146.237 2.2411 5.96702 0
M  V30 1650 C 143.924 1.55495 5.90986 0
M  V30 1651 C 144.922 2.39503 6.39631 0
M  V30 1652 O 144.61 3.37517 7.29615 0
M  V30 1653 H 144.342 -0.044395 0.674541 0
M  V30 1654 H 146.896 0.518668 1.98744 0
M  V30 1655 H 145.126 -1.48706 3.56964 0
M  V30 1656 H 146.815 -1.20231 3.87685 0
M  V30 1657 H 147.581 1.13532 4.71525 0
M  V30 1658 H 143.46 -0.0862959 4.60919 0
M  V30 1659 H 147.004 2.89718 6.34594 0
M  V30 1660 H 142.901 1.66744 6.23592 0
M  V30 1661 H 143.669 3.33213 7.47604 0
M  V30 1662 N 146.332 -1.57332 0.0918853 0
M  V30 1663 C 147.279 -2.13847 -0.868211 0
M  V30 1664 C 148.249 -1.05618 -1.28196 0
M  V30 1665 O 149.434 -1.33387 -1.36427 0
M  V30 1666 C 146.574 -2.72062 -2.12312 0
M  V30 1667 C 145.687 -3.94514 -1.7602 0
M  V30 1668 C 144.822 -4.40903 -2.96273 0
M  V30 1669 C 143.861 -5.55953 -2.56092 0
M  V30 1670 N 142.998 -5.97209 -3.69169 0
M  V30 1671 H 147.838 -2.95575 -0.379406 0
M  V30 1672 H 145.375 -1.46048 -0.175606 0
M  V30 1673 H 147.333 -3.03931 -2.858 0
M  V30 1674 H 145.963 -1.93068 -2.58698 0
M  V30 1675 H 145.015 -3.68979 -0.925135 0
M  V30 1676 H 146.327 -4.7802 -1.42472 0
M  V30 1677 H 145.481 -4.74539 -3.78018 0
M  V30 1678 H 144.22 -3.56291 -3.33029 0
M  V30 1679 H 143.225 -5.21948 -1.72773 0
M  V30 1680 H 144.45 -6.42311 -2.20484 0
M  V30 1681 H 142.396 -5.15543 -4.05649 0
M  V30 1682 H 142.313 -6.75504 -3.39456 0
M  V30 1683 H 143.581 -6.35475 -4.51434 0
M  V30 1684 N 147.81 0.181792 -1.56548 0
M  V30 1685 C 149.059 0.898348 -1.8059 0
M  V30 1686 C 149.372 1.83862 -0.667379 0
M  V30 1687 O 150.578 2.59678 -0.792446 0
M  V30 1688 C 149.034 1.64791 -3.19956 0
M  V30 1689 C 148.642 0.751789 -4.41647 0
M  V30 1690 C 150.386 2.35331 -3.53298 0
M  V30 1691 C 148.293 1.50098 -5.72035 0
M  V30 1692 H 147.223 0.339194 -0.673397 0
M  V30 1693 H 149.874 0.151413 -1.82874 0
M  V30 1694 H 148.256 2.43921 -3.11959 0
M  V30 1695 H 149.43 -0.0018076 -4.608 0
M  V30 1696 H 147.745 0.156562 -4.16106 0
M  V30 1697 H 150.342 2.91958 -4.47956 0
M  V30 1698 H 150.685 3.10164 -2.77676 0
M  V30 1699 H 151.218 1.63154 -3.62803 0
M  V30 1700 H 147.957 0.795175 -6.50659 0
M  V30 1701 H 147.477 2.22817 -5.56878 0
M  V30 1702 H 149.156 2.05125 -6.13622 0
M  V30 1703 N 149.288 1.51039 0.449983 0
M  V30 1704 C 150.235 1.71439 1.54523 0
M  V30 1705 C 151.205 0.555871 1.56522 0
M  V30 1706 O 152.39 0.788871 1.73728 0
M  V30 1707 C 149.53 1.83384 2.92343 0
M  V30 1708 C 148.643 3.10873 2.9997 0
M  V30 1709 C 147.778 3.13488 4.28834 0
M  V30 1710 C 146.817 4.35343 4.30282 0
M  V30 1711 N 145.954 4.35579 5.5065 0
M  V30 1712 H 150.794 2.64934 1.36433 0
M  V30 1713 H 148.331 1.31312 0.662982 0
M  V30 1714 H 150.289 1.88291 3.72293 0
M  V30 1715 H 148.919 0.933086 3.0902 0
M  V30 1716 H 147.971 3.15336 2.12761 0
M  V30 1717 H 149.283 4.00814 2.96901 0
M  V30 1718 H 148.437 3.17241 5.17149 0
M  V30 1719 H 147.176 2.21414 4.34543 0
M  V30 1720 H 146.181 4.3178 3.40362 0
M  V30 1721 H 147.406 5.28668 4.26248 0
M  V30 1722 H 145.352 3.46369 5.57104 0
M  V30 1723 H 145.269 5.19313 5.49409 0
M  V30 1724 H 146.537 4.43507 6.41032 0
M  V30 1725 N 150.766 -0.704594 1.40972 0
M  V30 1726 C 151.994 -1.49354 1.43182 0
M  V30 1727 C 152.409 -1.88768 0.0345508 0
M  V30 1728 O 151.766 -1.56184 -0.944081 0
M  V30 1729 C 151.817 -2.76187 2.33244 0
M  V30 1730 O 151.538 -2.38436 3.67532 0
M  V30 1731 C 153.039 -3.7 2.44162 0
M  V30 1732 H 150.259 -0.460559 0.487982 0
M  V30 1733 H 152.803 -0.868261 1.85153 0
M  V30 1734 H 150.958 -3.34974 1.94606 0
M  V30 1735 H 151.372 -3.20126 4.15475 0
M  V30 1736 H 152.846 -4.55803 3.11364 0
M  V30 1737 H 153.323 -4.13867 1.47006 0
M  V30 1738 H 153.929 -3.17121 2.83398 0
M  V30 1739 N 152.244 -1.26651 -0.937939 0
M  V30 1740 C 153.192 -1.08308 -2.05845 0
M  V30 1741 C 154.186 -0.0090757 -1.69398 0
M  V30 1742 O 155.392 -0.166007 -1.79233 0
M  V30 1743 H 151.767 -0.333416 -0.674046 0
M  V30 1744 H 153.738 -2.03261 -2.18467 0
M  V30 1745 C 152.487 -0.736229 -3.39816 0
M  V30 1746 H 151.81 -1.55453 -3.6834 0
M  V30 1747 H 153.25 -0.64769 -4.19024 0
M  V30 1748 C 151.709 0.558824 -3.32233 0
M  V30 1749 O 152.239 1.59621 -3.68624 0
M  V30 1750 N 150.445 0.550657 -2.85335 0
M  V30 1751 H 149.992 -0.293943 -2.55917 0
M  V30 1752 H 149.95 1.41726 -2.80644 0
M  V30 1753 N 153.722 1.14298 -1.08507 0
M  V30 1754 C 154.952 1.88945 -0.835663 0
M  V30 1755 C 155.36 1.78894 0.615928 0
M  V30 1756 O 154.703 1.1468 1.43506 0
M  V30 1757 C 154.765 3.39585 -1.17994 0
M  V30 1758 C 154.429 3.7342 -2.63451 0
M  V30 1759 C 155.426 3.73454 -3.61702 0
M  V30 1760 C 153.111 4.03368 -2.99332 0
M  V30 1761 C 155.105 4.02961 -4.93864 0
M  V30 1762 C 152.792 4.32538 -4.31687 0
M  V30 1763 C 153.79 4.32318 -5.28763 0
M  V30 1764 O 153.478 4.6078 -6.58739 0
M  V30 1765 H 153.21 0.605307 -0.300965 0
M  V30 1766 H 155.764 1.45673 -1.44806 0
M  V30 1767 H 153.994 3.83315 -0.51055 0
M  V30 1768 H 155.683 3.9554 -0.911182 0
M  V30 1769 H 156.449 3.50403 -3.35325 0
M  V30 1770 H 152.328 4.02692 -2.24411 0
M  V30 1771 H 155.872 4.02704 -5.69627 0
M  V30 1772 H 151.769 4.55059 -4.57812 0
M  V30 1773 H 152.537 4.78492 -6.64069 0
M  V30 1774 N 155.201 0.870884 1.31352 0
M  V30 1775 C 156.449 0.48132 1.96285 0
M  V30 1776 C 156.77 -0.969813 1.69173 0
M  V30 1777 O 156.04 -1.67998 1.00764 0
M  V30 1778 H 154.62 0.175002 0.726212 0
M  V30 1779 H 157.282 1.11087 1.60143 0
M  V30 1780 H 156.378 0.639825 3.05471 0
M  V30 1781 N 156.679 -1.44442 0.630414 0
M  V30 1782 C 157.627 -2.32437 -0.0871428 0
M  V30 1783 C 158.621 -1.47304 -0.836525 0
M  V30 1784 O 159.827 -1.63653 -0.749506 0
M  V30 1785 H 156.202 -0.750533 -0.0469495 0
M  V30 1786 H 158.173 -2.90709 0.673096 0
M  V30 1787 C 156.922 -3.31288 -1.05563 0
M  V30 1788 H 156.245 -3.96805 -0.488426 0
M  V30 1789 H 157.685 -3.9554 -1.52721 0
M  V30 1790 C 156.144 -2.6016 -2.14052 0
M  V30 1791 O 156.674 -2.39997 -3.22124 0
M  V30 1792 N 154.88 -2.19911 -1.89967 0
M  V30 1793 H 154.427 -2.36509 -1.02085 0
M  V30 1794 H 154.385 -1.72646 -2.62756 0
M  V30 1795 N 158.157 -0.370918 -1.53173 0
M  V30 1796 C 159.406 0.218249 -2.00516 0
M  V30 1797 C 159.719 1.49429 -1.26215 0
M  V30 1798 O 160.925 2.16239 -1.64174 0
M  V30 1799 C 159.381 0.43948 -3.57207 0
M  V30 1800 C 158.989 -0.822244 -4.4039 0
M  V30 1801 C 160.733 0.986012 -4.1289 0
M  V30 1802 C 158.64 -0.570304 -5.88644 0
M  V30 1803 H 157.57 0.0853333 -0.749156 0
M  V30 1804 H 160.221 -0.490483 -1.76823 0
M  V30 1805 H 158.603 1.20961 -3.77074 0
M  V30 1806 H 159.777 -1.59557 -4.32294 0
M  V30 1807 H 158.092 -1.29238 -3.95836 0
M  V30 1808 H 160.689 1.18991 -5.21292 0
M  V30 1809 H 161.032 1.94972 -3.6782 0
M  V30 1810 H 161.565 0.27592 -3.96842 0
M  V30 1811 H 158.304 -1.50449 -6.38001 0
M  V30 1812 H 157.824 0.164427 -5.99575 0
M  V30 1813 H 159.503 -0.19784 -6.46697 0
M  V30 1814 N 159.635 1.57281 -0.100228 0
M  V30 1815 C 160.912 1.86014 0.604812 0
M  V30 1816 C 161.292 0.998025 1.86018 0
M  V30 1817 O 160.64 0.0718184 2.28387 0
M  V30 1818 C 160.85 3.36784 0.915278 0
M  V30 1819 C 162.198 4.04957 1.27651 0
M  V30 1820 O 163.222 3.41695 1.00613 0
M  V30 1821 O 162.081 5.16593 1.7831 0
M  V30 1822 H 159.175 0.76942 0.303185 0
M  V30 1823 H 161.721 1.69176 -0.133313 0
M  V30 1824 H 160.493 3.91292 0.0248896 0
M  V30 1825 H 160.116 3.58987 1.70921 0
M  V30 1826 N 161.113 -0.173488 1.56642 0
M  V30 1827 C 162.529 -0.525174 1.50712 0
M  V30 1828 C 162.729 -1.8476 0.804107 0
M  V30 1829 O 161.785 -2.49869 0.363574 0
M  V30 1830 C 163.098 -0.559937 2.95441 0
M  V30 1831 C 164.646 -0.647288 3.06234 0
M  V30 1832 C 165.121 -0.712963 4.52417 0
M  V30 1833 N 166.612 -0.775911 4.56655 0
M  V30 1834 C 167.347 -0.847264 5.67106 0
M  V30 1835 N 166.843 -0.879585 6.87194 0
M  V30 1836 N 168.636 -0.886117 5.55071 0
M  V30 1837 H 160.787 0.693681 2.00753 0
M  V30 1838 H 163.05 0.249841 0.914485 0
M  V30 1839 H 162.756 0.343049 3.50023 0
M  V30 1840 H 162.63 -1.40718 3.49969 0
M  V30 1841 H 165.017 -1.5407 2.51687 0
M  V30 1842 H 165.098 0.226586 2.54794 0
M  V30 1843 H 164.742 0.176183 5.07594 0
M  V30 1844 H 164.672 -1.60295 5.0161 0
M  V30 1845 H 167.163 -0.759304 3.70193 0
M  V30 1846 H 167.476 -0.935144 7.67121 0
M  V30 1847 H 165.821 -0.847898 6.89808 0
M  V30 1848 H 169.012 -0.857853 4.60172 0
M  V30 1849 H 169.185 -0.938263 6.41171 0
M  V30 1850 N 162.591 -1.51276 -0.441967 0
M  V30 1851 C 163.539 -1.72823 -1.55676 0
M  V30 1852 C 164.533 -0.59445 -1.58627 0
M  V30 1853 O 165.739 -0.775715 -1.62427 0
M  V30 1854 H 162.114 -0.545983 -0.517113 0
M  V30 1855 H 164.085 -2.6628 -1.34675 0
M  V30 1856 C 162.834 -1.86619 -2.93375 0
M  V30 1857 H 162.157 -2.73264 -2.91834 0
M  V30 1858 H 163.597 -2.05709 -3.70756 0
M  V30 1859 C 162.056 -0.624842 -3.31055 0
M  V30 1860 O 162.586 0.222636 -4.01083 0
M  V30 1861 N 160.792 -0.470288 -2.86769 0
M  V30 1862 H 160.339 -1.161 -2.29953 0
M  V30 1863 H 160.297 0.359051 -3.12343 0
M  V30 1864 N 164.069 0.697108 -1.41344 0
M  V30 1865 C 165.315 1.4593 -1.40827 0
M  V30 1866 C 165.648 1.94193 -0.0167098 0
M  V30 1867 O 164.923 1.69425 0.955263 0
M  V30 1868 C 165.206 2.67229 -2.41373 0
M  V30 1869 C 165.059 2.24741 -3.8963 0
M  V30 1870 C 166.378 3.69423 -2.39196 0
M  V30 1871 H 163.497 0.529303 -0.512842 0
M  V30 1872 H 166.139 0.794112 -1.72609 0
M  V30 1873 H 164.289 3.23982 -2.14401 0
M  V30 1874 H 165.961 1.73327 -4.27499 0
M  V30 1875 H 164.204 1.56542 -4.0457 0
M  V30 1876 H 164.875 3.1177 -4.55525 0
M  V30 1877 H 167.351 3.2234 -2.63128 0
M  V30 1878 H 166.227 4.51907 -3.11563 0
M  V30 1879 H 166.488 4.19012 -1.41001 0
M  V30 1880 N 165.547 1.27147 0.931209 0
M  V30 1881 C 166.479 1.05364 2.03546 0
M  V30 1882 C 167.492 0.0108438 1.62796 0
M  V30 1883 O 168.681 0.25202 1.76712 0
M  V30 1884 C 165.781 0.575566 3.33977 0
M  V30 1885 C 164.954 1.68985 4.03439 0
M  V30 1886 C 164.013 1.20813 5.12143 0
M  V30 1887 O 163.039 1.90712 5.363 0
M  V30 1888 N 164.241 0.0618851 5.80467 0
M  V30 1889 H 167.006 2.00454 2.22796 0
M  V30 1890 H 164.567 1.18666 1.10136 0
M  V30 1891 H 166.559 0.237264 4.04004 0
M  V30 1892 H 165.129 -0.282016 3.11325 0
M  V30 1893 H 164.349 2.19861 3.27192 0
M  V30 1894 H 165.637 2.4378 4.46597 0
M  V30 1895 H 165.035 -0.521621 5.6329 0
M  V30 1896 H 163.592 -0.217264 6.51438 0
M  V30 1897 N 167.025 -1.13721 1.09112 0
M  V30 1898 C 168.272 -1.84924 0.825192 0
M  V30 1899 C 168.6 -1.83347 -0.649151 0
M  V30 1900 O 167.855 -1.26449 -1.49362 0
M  V30 1901 C 168.154 -3.32861 1.30146 0
M  V30 1902 C 167.82 -3.54621 2.78486 0
M  V30 1903 C 166.482 -3.60268 3.18999 0
M  V30 1904 C 168.834 -3.62855 3.74146 0
M  V30 1905 C 166.162 -3.71679 4.53951 0
M  V30 1906 C 168.514 -3.75793 5.08883 0
M  V30 1907 C 167.178 -3.79692 5.4899 0
M  V30 1908 H 166.448 -0.676684 0.301959 0
M  V30 1909 H 169.095 -1.3428 1.36533 0
M  V30 1910 H 167.4 -3.85835 0.681064 0
M  V30 1911 H 169.097 -3.86395 1.07236 0
M  V30 1912 H 165.687 -3.50879 2.46134 0
M  V30 1913 H 169.871 -3.57775 3.43963 0
M  V30 1914 H 165.127 -3.72963 4.84467 0
M  V30 1915 H 169.301 -3.81107 5.82864 0
M  V30 1916 H 166.928 -3.88287 6.53558 0
M  V30 1917 N 168.503 -0.877838 -1.30888 0
M  V30 1918 C 169.451 -0.328662 -2.30266 0
M  V30 1919 C 170.445 0.560496 -1.59859 0
M  V30 1920 O 171.651 0.445722 -1.74394 0
M  V30 1921 H 168.026 -0.0876142 -0.746879 0
M  V30 1922 H 169.997 -1.18061 -2.74051 0
M  V30 1923 C 168.746 0.448071 -3.44801 0
M  V30 1924 H 168.069 -0.226859 -3.99156 0
M  V30 1925 H 169.509 0.797541 -4.16432 0
M  V30 1926 C 167.968 1.64239 -2.94155 0
M  V30 1927 O 168.498 2.74175 -2.93583 0
M  V30 1928 N 166.704 1.47716 -2.50256 0
M  V30 1929 H 166.251 0.582821 -2.5092 0
M  V30 1930 H 166.209 2.27765 -2.16727 0
M  V30 1931 N 169.982 1.44106 -0.638065 0
M  V30 1932 C 171.229 2.01978 -0.14533 0
M  V30 1933 C 171.557 1.50234 1.23532 0
M  V30 1934 O 170.812 0.679548 1.83523 0
M  V30 1935 C 171.111 3.5729 -0.0887327 0
M  V30 1936 C 170.777 4.28317 -1.40909 0
M  V30 1937 C 169.439 4.47437 -1.77069 0
M  V30 1938 C 171.791 4.6867 -2.28031 0
M  V30 1939 C 169.119 5.04171 -3.00047 0
M  V30 1940 C 171.471 5.26766 -3.50286 0
M  V30 1941 C 170.135 5.44104 -3.86661 0
M  V30 1942 H 169.405 0.739089 -0.0531801 0
M  V30 1943 H 172.052 1.72781 -0.825761 0
M  V30 1944 H 170.357 3.8594 0.675095 0
M  V30 1945 H 172.054 3.99807 0.309145 0
M  V30 1946 H 168.644 4.1377 -1.1177 0
M  V30 1947 H 172.828 4.53604 -2.01388 0
M  V30 1948 H 168.084 5.15782 -3.28298 0
M  V30 1949 H 172.258 5.56983 -4.18023 0
M  V30 1950 H 169.885 5.87832 -4.82034 0
M  V30 1951 N 171.46 0.379036 1.52974 0
M  V30 1952 C 172.706 -0.206727 2.01744 0
M  V30 1953 C 173.039 -1.47314 1.26539 0
M  V30 1954 O 172.314 -1.91084 0.362903 0
M  V30 1955 C 172.597 -0.485066 3.56818 0
M  V30 1956 C 172.45 0.795919 4.42702 0
M  V30 1957 C 173.769 -1.28003 4.21074 0
M  V30 1958 H 170.888 -0.0736607 0.73331 0
M  V30 1959 H 173.53 0.506581 1.83122 0
M  V30 1960 H 171.68 -1.09272 3.72816 0
M  V30 1961 H 173.352 1.43307 4.38476 0
M  V30 1962 H 171.595 1.41344 4.10127 0
M  V30 1963 H 172.266 0.555947 5.49193 0
M  V30 1964 H 174.742 -0.765867 4.08991 0
M  V30 1965 H 173.618 -1.44352 5.29579 0
M  V30 1966 H 173.879 -2.29236 3.78026 0
M  V30 1967 N 172.938 -1.57226 0.108567 0
M  V30 1968 C 173.885 -2.14756 -0.845481 0
M  V30 1969 C 174.855 -1.06971 -1.27068 0
M  V30 1970 O 176.04 -1.34827 -1.35005 0
M  V30 1971 C 173.18 -2.74298 -2.09415 0
M  V30 1972 C 172.293 -3.96358 -1.71826 0
M  V30 1973 C 171.428 -4.44021 -2.9158 0
M  V30 1974 C 170.467 -5.58637 -2.50181 0
M  V30 1975 N 169.604 -6.01091 -3.62814 0
M  V30 1976 H 174.444 -2.95961 -0.348035 0
M  V30 1977 H 171.981 -1.46226 -0.160106 0
M  V30 1978 H 173.939 -3.06945 -2.82561 0
M  V30 1979 H 172.569 -1.95801 -2.56636 0
M  V30 1980 H 171.621 -3.69939 -0.885947 0
M  V30 1981 H 172.933 -4.79504 -1.37394 0
M  V30 1982 H 172.087 -4.78522 -3.72963 0
M  V30 1983 H 170.826 -3.59803 -3.29231 0
M  V30 1984 H 169.831 -5.23751 -1.67228 0
M  V30 1985 H 171.056 -6.44613 -2.13659 0
M  V30 1986 H 169.002 -5.19817 -4.00158 0
M  V30 1987 H 168.919 -6.79066 -3.32273 0
M  V30 1988 H 170.187 -6.40227 -4.44668 0
M  V30 1989 N 174.416 0.165178 -1.56732 0
M  V30 1990 C 175.326 1.22423 -2.00125 0
M  V30 1991 C 176.342 1.48084 -0.913619 0
M  V30 1992 O 177.518 1.60112 -1.22172 0
M  V30 1993 C 174.583 2.54197 -2.35764 0
M  V30 1994 C 173.644 2.36343 -3.58386 0
M  V30 1995 C 172.877 3.61834 -3.92316 0
M  V30 1996 O 173.1 4.67267 -3.27135 0
M  V30 1997 O 172.034 3.55579 -4.85641 0
M  V30 1998 H 175.86 0.885886 -2.90492 0
M  V30 1999 H 173.445 0.372518 -1.44681 0
M  V30 2000 H 175.327 3.3192 -2.59629 0
M  V30 2001 H 174.002 2.87598 -1.48557 0
M  V30 2002 H 172.909 1.56632 -3.39731 0
M  V30 2003 H 174.242 2.07865 -4.46154 0
M  V30 2004 N 175.894 1.51508 0.433938 0
M  V30 2005 C 177.171 1.54888 1.19453 0
M  V30 2006 C 177.551 0.315154 2.08734 0
M  V30 2007 O 176.899 -0.699558 2.17528 0
M  V30 2008 C 177.109 2.86467 1.99342 0
M  V30 2009 C 178.457 3.38545 2.56267 0
M  V30 2010 O 179.481 2.88041 2.0955 0
M  V30 2011 O 178.34 4.26675 3.41483 0
M  V30 2012 H 175.434 0.622863 0.544032 0
M  V30 2013 H 177.98 1.63823 0.442732 0
M  V30 2014 H 176.752 3.67718 1.33788 0
M  V30 2015 H 176.375 2.8071 2.8158 0
M  V30 2016 N 177.372 -0.689602 1.41712 0
M  V30 2017 C 178.62 -1.4468 1.4111 0
M  V30 2018 C 178.941 -1.94986 0.0232196 0
M  V30 2019 O 178.211 -1.72097 -0.935913 0
M  V30 2020 H 176.791 -0.536847 0.519427 0
M  V30 2021 H 179.453 -0.815825 1.77004 0
M  V30 2022 H 178.549 -2.30706 2.10193 0
M  V30 2023 N 178.85 -1.27639 -0.924453 0
M  V30 2024 C 179.783 -1.04966 -2.02626 0
M  V30 2025 C 180.761 0.0309505 -1.62571 0
M  V30 2026 O 181.945 -0.114846 -1.8815 0
M  V30 2027 C 179.072 -0.59292 -3.3347 0
M  V30 2028 C 178.118 -1.66858 -3.92506 0
M  V30 2029 S 178.951 -3.2619 -4.24689 0
M  V30 2030 C 180.107 -2.82325 -5.58609 0
M  V30 2031 H 180.34 -1.98252 -2.21547 0
M  V30 2032 H 177.873 -1.11506 -1.06798 0
M  V30 2033 H 179.831 -0.336086 -4.09122 0
M  V30 2034 H 178.492 0.319939 -3.12466 0
M  V30 2035 H 177.685 -1.30038 -4.86935 0
M  V30 2036 H 177.287 -1.87766 -3.2345 0
M  V30 2037 H 179.579 -2.2783 -6.38044 0
M  V30 2038 H 180.522 -3.75511 -6.00331 0
M  V30 2039 H 180.93 -2.21367 -5.19285 0
M  V30 2040 N 180.328 1.1314 -1.09713 0
M  V30 2041 C 181.574 1.84967 -0.846104 0
M  V30 2042 C 181.929 1.82082 0.621601 0
M  V30 2043 O 181.222 1.2501 1.452 0
M  V30 2044 C 181.416 3.32167 -1.3191 0
M  V30 2045 C 181.245 3.49386 -2.83125 0
M  V30 2046 C 180.015 3.63456 -3.51038 0
M  V30 2047 C 182.213 3.45179 -3.81256 0
M  V30 2048 N 180.195 3.68966 -4.9065 0
M  V30 2049 C 181.566 3.57094 -5.06837 0
M  V30 2050 C 183.621 3.28598 -3.74069 0
M  V30 2051 C 182.324 3.5414 -6.26081 0
M  V30 2052 C 184.35 3.26953 -4.92804 0
M  V30 2053 C 183.712 3.39422 -6.17229 0
M  V30 2054 H 179.811 0.692899 -0.362512 0
M  V30 2055 H 182.395 1.35506 -1.39808 0
M  V30 2056 H 180.566 3.80186 -0.794535 0
M  V30 2057 H 182.298 3.91815 -1.01308 0
M  V30 2058 H 179.053 3.65256 -3.01471 0
M  V30 2059 H 179.477 3.75404 -5.63383 0
M  V30 2060 H 184.119 3.17858 -2.78794 0
M  V30 2061 H 181.837 3.63653 -7.21653 0
M  V30 2062 H 185.423 3.15316 -4.88945 0
M  V30 2063 H 184.303 3.38114 -7.07565 0
M  V30 2064 N 181.806 0.884767 1.30421 0
M  V30 2065 C 182.753 0.349642 2.28136 0
M  V30 2066 C 183.723 -0.560061 1.56373 0
M  V30 2067 O 184.908 -0.488524 1.8444 0
M  V30 2068 C 182.048 -0.42999 3.42411 0
M  V30 2069 C 181.161 0.508907 4.28992 0
M  V30 2070 C 180.296 -0.286301 5.30428 0
M  V30 2071 C 179.335 0.648079 6.08659 0
M  V30 2072 N 178.472 -0.111792 7.02011 0
M  V30 2073 H 183.312 1.18807 2.73293 0
M  V30 2074 H 180.849 0.597231 1.3443 0
M  V30 2075 H 182.807 -0.897923 4.07423 0
M  V30 2076 H 181.437 -1.23299 2.98324 0
M  V30 2077 H 180.489 1.09533 3.64289 0
M  V30 2078 H 181.801 1.22475 4.8353 0
M  V30 2079 H 180.955 -0.816098 6.01186 0
M  V30 2080 H 179.694 -1.03536 4.76583 0
M  V30 2081 H 178.699 1.18951 5.36778 0
M  V30 2082 H 179.924 1.39623 6.64592 0
M  V30 2083 H 177.87 -0.843395 6.50556 0
M  V30 2084 H 177.787 0.544429 7.54037 0
M  V30 2085 H 179.055 -0.622339 7.77012 0
M  V30 2086 N 183.284 -1.43765 0.645699 0
M  V30 2087 C 184.214 -2.33471 -0.0370477 0
M  V30 2088 C 185.195 -1.49042 -0.819779 0
M  V30 2089 O 186.38 -1.77726 -0.782758 0
M  V30 2090 C 183.51 -3.32311 -1.0093 0
M  V30 2091 C 182.464 -4.2667 -0.337201 0
M  V30 2092 C 181.79 -5.1549 -1.42037 0
M  V30 2093 C 183.09 -5.16657 0.765706 0
M  V30 2094 H 184.784 -2.90809 0.712069 0
M  V30 2095 H 182.33 -1.39834 0.343876 0
M  V30 2096 H 184.283 -3.9396 -1.49578 0
M  V30 2097 H 183.007 -2.73213 -1.78948 0
M  V30 2098 H 181.666 -3.66374 0.128771 0
M  V30 2099 H 181.314 -4.52735 -2.1918 0
M  V30 2100 H 181.014 -5.79438 -0.975966 0
M  V30 2101 H 182.538 -5.80012 -1.90838 0
M  V30 2102 H 183.952 -5.72158 0.361702 0
M  V30 2103 H 182.349 -5.89286 1.13413 0
M  V30 2104 H 183.419 -4.56796 1.62683 0
M  V30 2105 N 184.763 -0.387143 -1.52771 0
M  V30 2106 C 186.04 0.253197 -1.93954 0
M  V30 2107 C 186.42 1.64545 -1.32243 0
M  V30 2108 O 185.768 2.23191 -0.489699 0
M  V30 2109 C 185.978 0.281722 -3.47861 0
M  V30 2110 C 187.326 0.511715 -4.21505 0
M  V30 2111 O 188.35 0.362023 -3.54356 0
M  V30 2112 O 187.209 0.804847 -5.40541 0
M  V30 2113 H 184.303 0.156845 -0.811991 0
M  V30 2114 H 186.849 -0.441494 -1.63856 0
M  V30 2115 H 185.621 -0.693571 -3.85104 0
M  V30 2116 H 185.244 1.02142 -3.84256 0
M  V30 2117 N 186.241 1.57166 -0.116904 0
M  V30 2118 C 187.487 1.96206 0.536166 0
M  V30 2119 C 187.842 0.99915 1.64422 0
M  V30 2120 O 187.135 0.0288195 1.91578 0
M  V30 2121 C 187.329 3.39508 1.11664 0
M  V30 2122 C 187.158 4.49651 0.0663474 0
M  V30 2123 C 185.928 5.03982 -0.36474 0
M  V30 2124 C 188.126 5.09322 -0.713829 0
M  V30 2125 N 186.108 5.97699 -1.40102 0
M  V30 2126 C 187.479 5.98963 -1.60136 0
M  V30 2127 C 189.534 4.91989 -0.764948 0
M  V30 2128 C 188.237 6.73128 -2.53556 0
M  V30 2129 C 190.263 5.66833 -1.68685 0
M  V30 2130 C 189.625 6.56158 -2.56196 0
M  V30 2131 H 185.724 0.764203 0.165886 0
M  V30 2132 H 188.308 1.93623 -0.204535 0
M  V30 2133 H 186.479 3.42743 1.82707 0
M  V30 2134 H 188.211 3.65677 1.73386 0
M  V30 2135 H 184.966 4.73592 0.027252 0
M  V30 2136 H 185.39 6.49262 -1.91802 0
M  V30 2137 H 190.032 4.22676 -0.102501 0
M  V30 2138 H 187.75 7.41689 -3.20816 0
M  V30 2139 H 191.336 5.55427 -1.73181 0
M  V30 2140 H 190.216 7.13057 -3.26372 0
M  V30 2141 N 187.719 -0.156864 1.56817 0
M  V30 2142 C 188.996 -0.899244 1.73704 0
M  V30 2143 C 189.376 -1.99771 0.682254 0
M  V30 2144 O 188.724 -2.26515 -0.300522 0
M  V30 2145 C 188.934 -1.45075 3.17418 0
M  V30 2146 C 190.282 -1.91802 3.7881 0
M  V30 2147 O 191.306 -1.54838 3.20786 0
M  V30 2148 O 190.165 -2.5994 4.80722 0
M  V30 2149 H 187.259 -0.424267 0.709878 0
M  V30 2150 H 189.805 -0.143561 1.69092 0
M  V30 2151 H 188.577 -0.660846 3.85679 0
M  V30 2152 H 188.2 -2.27021 3.26416 0
M  V30 2153 N 189.197 -1.51736 -0.425897 0
M  V30 2154 C 190.147 -1.70258 -1.51645 0
M  V30 2155 C 191.131 -0.556488 -1.5097 0
M  V30 2156 O 192.323 -0.812879 -1.5723 0
M  V30 2157 C 189.452 -1.84143 -2.89735 0
M  V30 2158 C 188.538 -3.04572 -2.95122 0
M  V30 2159 N 188.929 -4.2756 -2.70233 0
M  V30 2160 C 187.227 -3.04061 -3.26286 0
M  V30 2161 C 187.928 -5.08908 -2.81757 0
M  V30 2162 N 186.904 -4.43797 -3.13919 0
M  V30 2163 H 190.706 -2.63004 -1.31172 0
M  V30 2164 H 188.22 -1.4954 -0.633375 0
M  V30 2165 H 190.217 -1.95525 -3.68206 0
M  V30 2166 H 188.877 -0.925857 -3.1122 0
M  V30 2167 H 189.888 -4.56315 -2.44943 0
M  V30 2168 H 186.565 -2.22179 -3.53473 0
M  V30 2169 H 187.955 -6.16843 -2.66372 0
M  V30 2170 N 190.675 0.682077 -1.42076 0
M  V30 2171 C 191.9 1.47558 -1.45744 0
M  V30 2172 C 192.325 1.87977 -0.0680981 0
M  V30 2173 O 191.683 1.55522 0.9318 0
M  V30 2174 C 191.731 2.70575 -2.38373 0
M  V30 2175 O 190.835 3.68573 -1.85007 0
M  V30 2176 H 190.176 0.443585 -0.494093 0
M  V30 2177 H 192.706 0.837238 -1.86686 0
M  V30 2178 H 192.716 3.18729 -2.54707 0
M  V30 2179 H 191.391 2.40495 -3.39315 0
M  V30 2180 H 189.968 3.2757 -1.78192 0
M  V30 2181 N 192.153 1.28127 0.917671 0
M  V30 2182 C 193.399 1.15223 1.66888 0
M  V30 2183 C 193.732 -0.299293 1.9188 0
M  V30 2184 O 193.007 -1.21805 1.51637 0
M  V30 2185 C 193.29 1.94706 3.02922 0
M  V30 2186 C 193.143 3.47898 2.85109 0
M  V30 2187 C 194.462 1.75939 4.03402 0
M  V30 2188 H 191.581 0.419946 0.605652 0
M  V30 2189 H 194.223 1.57398 1.06423 0
M  V30 2190 H 192.373 1.58864 3.54534 0
M  V30 2191 H 194.045 3.93624 2.40537 0
M  V30 2192 H 192.288 3.7373 2.20246 0
M  V30 2193 H 192.959 3.98765 3.81694 0
M  V30 2194 H 195.435 2.07209 3.60837 0
M  V30 2195 H 194.311 2.33931 4.96556 0
M  V30 2196 H 194.572 0.709877 4.36364 0
M  V30 2197 N 193.631 -1.12557 1.10312 0
M  V30 2198 C 194.88 -1.83395 0.839588 0
M  V30 2199 C 195.193 -1.84939 -0.636929 0
M  V30 2200 O 196.399 -2.51761 -1.01631 0
M  V30 2201 C 194.855 -3.29303 1.45215 0
M  V30 2202 C 194.463 -3.36122 2.96186 0
M  V30 2203 C 196.207 -4.05121 1.26796 0
M  V30 2204 C 194.114 -4.76357 3.50483 0
M  V30 2205 H 193.044 -0.687133 0.310425 0
M  V30 2206 H 195.695 -1.26746 1.32694 0
M  V30 2207 H 194.077 -3.85812 0.892469 0
M  V30 2208 H 195.251 -2.89559 3.58458 0
M  V30 2209 H 193.566 -2.73776 3.13745 0
M  V30 2210 H 196.163 -5.08668 1.64806 0
M  V30 2211 H 196.506 -4.15773 0.209409 0
M  V30 2212 H 197.039 -3.54967 1.79563 0
M  V30 2213 H 193.778 -4.70899 4.55998 0
M  V30 2214 H 193.298 -5.23377 2.92978 0
M  V30 2215 H 194.977 -5.45294 3.48228 0
M  V30 2216 N 195.109 -0.891671 -1.2995 0
M  V30 2217 C 196.358 -0.509521 -1.95158 0
M  V30 2218 C 196.671 0.947388 -1.71125 0
M  V30 2219 O 197.877 1.43669 -2.30372 0
M  V30 2220 C 196.333 -0.860315 -3.49466 0
M  V30 2221 C 195.941 -2.33545 -3.8231 0
M  V30 2222 C 197.685 -0.547687 -4.20952 0
M  V30 2223 C 195.592 -2.62752 -5.29826 0
M  V30 2224 H 194.522 -0.18682 -0.730489 0
M  V30 2225 H 197.173 -1.08756 -1.47798 0
M  V30 2226 H 195.555 -0.211285 -3.95436 0
M  V30 2227 H 196.729 -3.02936 -3.47227 0
M  V30 2228 H 195.044 -2.61629 -3.23944 0
M  V30 2229 H 197.641 -0.742854 -5.29515 0
M  V30 2230 H 197.984 0.51332 -4.13123 0
M  V30 2231 H 198.517 -1.1542 -3.80688 0
M  V30 2232 H 195.256 -3.6762 -5.42712 0
M  V30 2233 H 194.776 -1.97977 -5.66185 0
M  V30 2234 H 196.455 -2.48601 -5.97333 0
M  V30 2235 N 196.587 1.43421 -0.653314 0
M  V30 2236 C 197.998 1.85065 -0.246537 0
M  V30 2237 C 198.349 1.54688 1.2069 0
M  V30 2238 O 197.474 0.995896 1.92122 0
M  V30 2239 C 198.069 3.35922 -0.440666 0
M  V30 2240 C 196.628 3.76297 -0.0882064 0
M  V30 2241 C 195.775 2.67147 -0.743484 0
M  V30 2242 H 198.726 1.33572 -0.856979 0
M  V30 2243 H 198.747 3.79204 0.313798 0
M  V30 2244 H 198.259 3.58 -1.49858 0
M  V30 2245 H 196.36 3.5983 0.96711 0
M  V30 2246 H 196.473 4.76338 -0.513738 0
M  V30 2247 H 194.837 2.54086 -0.176712 0
M  V30 2248 H 195.62 2.92053 -1.80443 0
M  V30 2249 N 198.065 0.39524 1.52563 0
M  V30 2250 C 199.313 -0.184678 2.01254 0
M  V30 2251 C 199.634 -1.46822 1.28329 0
M  V30 2252 O 198.904 -1.91666 0.405094 0
M  V30 2253 H 197.484 -0.0712355 0.743596 0
M  V30 2254 H 200.146 0.528293 1.87603 0
M  V30 2255 H 199.242 -0.390681 3.09645 0
M  V30 2256 N 199.544 -1.57102 0.125237 0
M  V30 2257 C 200.477 -2.11371 -0.860094 0
M  V30 2258 C 201.455 -1.03168 -1.25679 0
M  V30 2259 O 202.639 -1.30862 -1.35674 0
M  V30 2260 C 199.766 -2.61555 -2.1519 0
M  V30 2261 C 198.812 -3.81701 -1.9028 0
M  V30 2262 S 199.645 -5.23797 -1.11343 0
M  V30 2263 C 200.801 -5.77353 -2.41689 0
M  V30 2264 H 201.034 -2.94617 -0.39852 0
M  V30 2265 H 198.567 -1.54145 -0.0886555 0
M  V30 2266 H 200.525 -2.91122 -2.89411 0
M  V30 2267 H 199.186 -1.78479 -2.58465 0
M  V30 2268 H 198.379 -4.14985 -2.86014 0
M  V30 2269 H 197.981 -3.52783 -1.24178 0
M  V30 2270 H 200.273 -5.87458 -3.37489 0
M  V30 2271 H 201.216 -6.75323 -2.12942 0
M  V30 2272 H 201.624 -5.05457 -2.51342 0
M  V30 2273 N 201.022 0.148545 -1.56898 0
M  V30 2274 C 201.954 1.20852 -1.9475 0
M  V30 2275 C 202.967 1.39265 -0.843152 0
M  V30 2276 O 204.156 1.38864 -1.12156 0
M  V30 2277 C 201.256 2.57362 -2.20495 0
M  V30 2278 C 200.429 2.59947 -3.51776 0
M  V30 2279 C 199.488 3.77984 -3.6608 0
M  V30 2280 O 198.514 3.62929 -4.38487 0
M  V30 2281 N 199.716 4.95375 -3.02629 0
M  V30 2282 H 202.481 0.886804 -2.86279 0
M  V30 2283 H 200.042 0.338121 -1.5833 0
M  V30 2284 H 202.034 3.34833 -2.27307 0
M  V30 2285 H 200.604 2.81832 -1.35238 0
M  V30 2286 H 199.824 1.68403 -3.56419 0
M  V30 2287 H 201.112 2.58704 -4.38121 0
M  V30 2288 H 200.51 5.10509 -2.43715 0
M  V30 2289 H 199.067 5.70627 -3.15004 0
M  V30 2290 N 202.5 1.5196 0.417844 0
M  V30 2291 C 203.447 1.74678 1.50852 0
M  V30 2292 C 204.417 0.588947 1.55308 0
M  V30 2293 O 205.602 0.825544 1.72016 0
M  V30 2294 C 202.742 1.89544 2.88387 0
M  V30 2295 C 201.855 3.17166 2.93309 0
M  V30 2296 C 200.99 3.22513 4.22088 0
M  V30 2297 C 200.029 4.44372 4.20951 0
M  V30 2298 N 199.166 4.47161 5.41287 0
M  V30 2299 H 204.006 2.67768 1.30783 0
M  V30 2300 H 201.543 1.32689 0.63498 0
M  V30 2301 H 203.501 1.96146 3.68216 0
M  V30 2302 H 202.131 0.998424 3.06971 0
M  V30 2303 H 201.183 3.19778 2.06024 0
M  V30 2304 H 202.495 4.07021 2.88332 0
M  V30 2305 H 201.649 3.28139 5.10303 0
M  V30 2306 H 200.388 2.30581 4.29748 0
M  V30 2307 H 199.393 4.38902 3.31127 0
M  V30 2308 H 200.618 5.3759 4.14938 0
M  V30 2309 H 198.564 3.58108 5.49632 0
M  V30 2310 H 198.481 5.3085 5.3827 0
M  V30 2311 H 199.749 4.57005 6.3148 0
M  V30 2312 N 203.978 -0.674533 1.42435 0
M  V30 2313 C 205.255 -1.4305 1.33402 0
M  V30 2314 C 205.635 -2.11081 -0.0284674 0
M  V30 2315 O 204.983 -2.03257 -1.04397 0
M  V30 2316 C 205.193 -2.43272 2.50239 0
M  V30 2317 C 206.541 -3.07907 2.92367 0
M  V30 2318 O 207.565 -2.53599 2.50132 0
M  V30 2319 O 206.424 -4.0632 3.65467 0
M  V30 2320 H 203.518 -0.638076 0.526106 0
M  V30 2321 H 206.064 -0.703235 1.54443 0
M  V30 2322 H 204.836 -1.91803 3.41068 0
M  V30 2323 H 204.459 -3.23479 2.31186 0
M  V30 2324 N 205.456 -1.28612 -0.910864 0
M  V30 2325 C 206.388 -1.08589 -2.01844 0
M  V30 2326 C 207.401 -0.0367419 -1.62759 0
M  V30 2327 O 208.59 -0.280101 -1.76289 0
M  V30 2328 C 205.69 -0.628626 -3.33019 0
M  V30 2329 C 204.863 -1.75382 -4.00699 0
M  V30 2330 C 203.922 -1.28945 -5.10156 0
M  V30 2331 O 202.948 -1.9922 -5.33198 0
M  V30 2332 N 204.15 -0.154224 -5.80295 0
M  V30 2333 H 206.915 -2.03973 -2.19579 0
M  V30 2334 H 204.476 -1.20403 -1.08234 0
M  V30 2335 H 206.468 -0.301508 -4.03575 0
M  V30 2336 H 205.038 0.232451 -3.11735 0
M  V30 2337 H 204.258 -2.25039 -3.23653 0
M  V30 2338 H 205.546 -2.50854 -4.42662 0
M  V30 2339 H 204.944 0.43194 -5.64049 0
M  V30 2340 H 203.501 0.113599 -6.51701 0
M  V30 2341 N 206.934 1.1197 -1.10907 0
M  V30 2342 C 208.159 1.87942 -0.877064 0
M  V30 2343 C 208.584 1.79341 0.567314 0
M  V30 2344 O 207.942 1.15184 1.40009 0
M  V30 2345 C 207.99 3.34926 -1.33629 0
M  V30 2346 O 207.094 4.09303 -0.504447 0
M  V30 2347 H 206.435 0.583785 -0.316371 0
M  V30 2348 H 208.965 1.4157 -1.47712 0
M  V30 2349 H 208.975 3.8577 -1.32837 0
M  V30 2350 H 207.65 3.40504 -2.3881 0
M  V30 2351 H 206.227 3.68393 -0.577993 0
M  V30 2352 N 208.412 0.89855 1.29475 0
M  V30 2353 C 209.661 0.519863 1.94885 0
M  V30 2354 C 209.974 -0.9383 1.71625 0
M  V30 2355 O 211.18 -1.42445 2.31131 0
M  V30 2356 C 209.636 0.878836 3.49005 0
M  V30 2357 C 209.244 2.35569 3.81066 0
M  V30 2358 C 210.988 0.570004 4.20656 0
M  V30 2359 C 208.895 2.65558 5.28425 0
M  V30 2360 H 207.825 0.190692 0.729488 0
M  V30 2361 H 210.476 1.09539 1.47219 0
M  V30 2362 H 208.858 0.232253 3.95318 0
M  V30 2363 H 210.032 3.04773 3.45616 0
M  V30 2364 H 208.347 2.63343 3.22552 0
M  V30 2365 H 210.944 0.770925 5.29113 0
M  V30 2366 H 211.287 -0.491404 4.1339 0
M  V30 2367 H 211.82 1.17438 3.8007 0
M  V30 2368 H 208.559 3.70493 5.40754 0
M  V30 2369 H 208.079 2.00977 5.65127 0
M  V30 2370 H 209.758 2.51765 5.96006 0
M  V30 2371 N 209.89 -1.43072 0.660911 0
M  V30 2372 C 210.84 -2.27948 -0.04847 0
M  V30 2373 C 211.824 -1.40325 -0.787246 0
M  V30 2374 O 213.016 -1.63893 -0.668446 0
M  V30 2375 C 210.145 -3.28143 -1.00881 0
M  V30 2376 C 209.231 -4.23252 -0.268108 0
M  V30 2377 N 209.622 -5.00656 0.719528 0
M  V30 2378 C 207.92 -4.43092 -0.508493 0
M  V30 2379 C 208.621 -5.70019 1.15988 0
M  V30 2380 N 207.597 -5.41364 0.492584 0
M  V30 2381 H 211.399 -2.85213 0.709279 0
M  V30 2382 H 208.913 -1.54869 0.488822 0
M  V30 2383 H 210.91 -3.87736 -1.53188 0
M  V30 2384 H 209.57 -2.7244 -1.76654 0
M  V30 2385 H 210.581 -5.06115 1.09855 0
M  V30 2386 H 207.258 -3.98449 -1.24679 0
M  V30 2387 H 208.648 -6.4214 1.97751 0
M  V30 2388 N 211.368 -0.403325 -1.52352 0
M  V30 2389 C 212.617 0.175668 -2.00934 0
M  V30 2390 C 212.93 1.46718 -1.29356 0
M  V30 2391 O 214.136 2.12708 -1.68724 0
M  V30 2392 C 212.592 0.363612 -3.58058 0
M  V30 2393 C 212.2 -0.915472 -4.38547 0
M  V30 2394 C 213.944 0.89821 -4.14888 0
M  V30 2395 C 211.851 -0.695035 -5.87302 0
M  V30 2396 H 210.781 0.0694234 -0.750797 0
M  V30 2397 H 213.432 -0.527879 -1.75743 0
M  V30 2398 H 211.814 1.12935 -3.79555 0
M  V30 2399 H 212.988 -1.68691 -4.28812 0
M  V30 2400 H 211.303 -1.37606 -3.93006 0
M  V30 2401 H 213.9 1.07907 -5.23699 0
M  V30 2402 H 214.243 1.87126 -3.71873 0
M  V30 2403 H 214.776 0.191681 -3.97338 0
M  V30 2404 H 211.515 -1.63948 -6.34666 0
M  V30 2405 H 211.035 0.0372116 -5.99788 0
M  V30 2406 H 212.714 -0.33497 -6.46132 0
M  V30 2407 N 212.846 1.57033 -0.133567 0
M  V30 2408 C 213.756 2.19632 0.824564 0
M  V30 2409 C 214.772 1.17666 1.28182 0
M  V30 2410 O 215.948 1.50193 1.3418 0
M  V30 2411 C 213.013 2.79499 2.05137 0
M  V30 2412 C 212.074 3.96548 1.64464 0
M  V30 2413 C 211.307 4.5355 2.81297 0
M  V30 2414 O 211.53 4.09438 3.97136 0
M  V30 2415 O 210.464 5.44018 2.57542 0
M  V30 2416 H 214.29 3.01991 0.321766 0
M  V30 2417 H 211.875 1.49112 0.0927889 0
M  V30 2418 H 213.757 3.17602 2.7696 0
M  V30 2419 H 212.432 2.00162 2.54395 0
M  V30 2420 H 211.339 3.63186 0.897048 0
M  V30 2421 H 212.672 4.77364 1.19934 0
M  V30 2422 N 214.325 -0.140222 1.56975 0
M  V30 2423 C 215.273 -1.19207 1.99731 0
M  V30 2424 C 216.267 -1.44089 0.890777 0
M  V30 2425 O 217.473 -1.44301 1.07597 0
M  V30 2426 H 213.848 -0.40142 0.635898 0
M  V30 2427 H 215.819 -0.804813 2.87342 0
M  V30 2428 C 214.568 -2.51617 2.39967 0
M  V30 2429 H 213.891 -2.33303 3.24669 0
M  V30 2430 H 215.331 -3.23827 2.73701 0
M  V30 2431 C 213.79 -3.12654 1.25496 0
M  V30 2432 O 214.32 -3.97786 0.559371 0
M  V30 2433 N 212.526 -2.72206 1.01746 0
M  V30 2434 H 212.073 -2.03074 1.58489 0
M  V30 2435 H 212.031 -3.13377 0.253461 0
M  V30 2436 N 215.803 -1.52179 -0.40978 0
M  V30 2437 C 216.733 -1.78435 -1.5061 0
M  V30 2438 C 217.714 -0.635295 -1.57791 0
M  V30 2439 O 218.899 -0.880823 -1.73076 0
M  V30 2440 C 216.029 -1.93444 -2.88439 0
M  V30 2441 C 214.983 -3.09038 -2.96108 0
M  V30 2442 C 214.309 -3.09268 -4.36185 0
M  V30 2443 C 215.609 -4.48508 -2.67652 0
M  V30 2444 H 217.303 -2.70237 -1.28889 0
M  V30 2445 H 214.849 -1.30036 -0.618605 0
M  V30 2446 H 216.802 -2.10394 -3.65119 0
M  V30 2447 H 215.526 -0.983129 -3.11452 0
M  V30 2448 H 214.185 -2.91837 -2.21872 0
M  V30 2449 H 213.833 -2.11861 -4.56206 0
M  V30 2450 H 213.533 -3.86907 -4.42241 0
M  V30 2451 H 215.057 -3.28348 -5.14801 0
M  V30 2452 H 216.471 -4.65918 -3.34056 0
M  V30 2453 H 214.868 -5.28059 -2.85085 0
M  V30 2454 H 215.938 -4.56649 -1.63095 0
M  V30 2455 N 217.281 0.66697 -1.42791 0
M  V30 2456 C 218.228 1.7803 -1.4688 0
M  V30 2457 C 219.198 1.6299 -0.319919 0
M  V30 2458 O 220.383 1.83432 -0.525118 0
M  V30 2459 C 217.523 3.1611 -1.38451 0
M  V30 2460 C 216.636 3.42381 -2.63437 0
M  V30 2461 C 215.771 4.70232 -2.47094 0
M  V30 2462 C 214.81 4.89564 -3.67415 0
M  V30 2463 N 213.947 6.08661 -3.49966 0
M  V30 2464 H 218.787 1.7387 -2.42019 0
M  V30 2465 H 216.324 0.84868 -1.20149 0
M  V30 2466 H 218.282 3.95914 -1.31561 0
M  V30 2467 H 216.912 3.19374 -0.469033 0
M  V30 2468 H 215.964 2.56774 -2.80662 0
M  V30 2469 H 217.276 3.52557 -3.52853 0
M  V30 2470 H 216.43 5.5814 -2.37834 0
M  V30 2471 H 215.169 4.62353 -1.5518 0
M  V30 2472 H 214.174 4.00096 -3.77099 0
M  V30 2473 H 215.399 4.99282 -4.6032 0
M  V30 2474 H 213.345 6.0194 -2.60776 0
M  V30 2475 H 213.262 6.19733 -4.32975 0
M  V30 2476 H 214.53 6.99226 -3.44532 0
M  V30 2477 N 218.759 1.29093 0.90403 0
M  V30 2478 C 219.984 1.19809 1.69294 0
M  V30 2479 C 220.409 -0.238481 1.86582 0
M  V30 2480 O 219.767 -1.1723 1.383 0
M  V30 2481 C 219.815 1.91202 3.05736 0
M  V30 2482 O 218.919 1.22611 3.93752 0
M  V30 2483 H 218.26 0.415385 0.518027 0
M  V30 2484 H 220.79 1.70586 1.12967 0
M  V30 2485 H 220.8 1.99487 3.55906 0
M  V30 2486 H 219.475 2.95692 2.92471 0
M  V30 2487 H 218.052 1.22554 3.52186 0
M  V30 2488 N 220.237 -1.11381 1.11499 0
M  V30 2489 C 221.147 -2.21019 0.786628 0
M  V30 2490 C 222.163 -1.72597 -0.220507 0
M  V30 2491 O 223.339 -2.01321 -0.0565251 0
M  V30 2492 C 220.404 -3.459 0.235333 0
M  V30 2493 C 219.465 -4.09107 1.30115 0
M  V30 2494 C 218.698 -5.28027 0.776068 0
M  V30 2495 O 218.921 -5.6904 -0.393661 0
M  V30 2496 O 217.855 -5.81835 1.54114 0
M  V30 2497 H 221.681 -2.51521 1.70209 0
M  V30 2498 H 219.266 -1.19928 0.890928 0
M  V30 2499 H 221.148 -4.21346 -0.067715 0
M  V30 2500 H 219.823 -3.17049 -0.652828 0
M  V30 2501 H 218.73 -3.35391 1.65722 0
M  V30 2502 H 220.063 -4.42139 2.16273 0
M  V30 2503 N 221.715 -0.905404 -1.28997 0
M  V30 2504 C 223.131 -0.60233 -1.47798 0
M  V30 2505 C 223.331 0.854645 -1.82478 0
M  V30 2506 O 222.387 1.63439 -1.92468 0
M  V30 2507 C 223.7 -1.53306 -2.58685 0
M  V30 2508 C 225.248 -1.53887 -2.72558 0
M  V30 2509 C 225.723 -2.45602 -3.86579 0
M  V30 2510 N 227.214 -2.43681 -3.93921 0
M  V30 2511 C 227.949 -3.11347 -4.81509 0
M  V30 2512 N 227.445 -3.88313 -5.73746 0
M  V30 2513 N 229.238 -3.00476 -4.75048 0
M  V30 2514 H 221.389 -1.84765 -1.04764 0
M  V30 2515 H 223.652 -0.792025 -0.520961 0
M  V30 2516 H 223.358 -2.57141 -2.39941 0
M  V30 2517 H 223.232 -1.25787 -3.55609 0
M  V30 2518 H 225.619 -0.507941 -2.90696 0
M  V30 2519 H 225.7 -1.85447 -1.76191 0
M  V30 2520 H 225.344 -3.48792 -3.69197 0
M  V30 2521 H 225.274 -2.11349 -4.82327 0
M  V30 2522 H 227.765 -1.87767 -3.27951 0
M  V30 2523 H 228.078 -4.36985 -6.37389 0
M  V30 2524 H 226.423 -3.92419 -5.73614 0
M  V30 2525 H 229.614 -2.39858 -4.01977 0
M  V30 2526 H 229.787 -3.53485 -5.43095 0
M  V30 2527 N 223.193 1.4272 -0.668489 0
M  V30 2528 C 224.441 2.01226 -0.187769 0
M  V30 2529 C 224.762 1.53092 1.2078 0
M  V30 2530 O 224.032 0.74993 1.80977 0
M  V30 2531 H 222.612 0.744041 -0.0664272 0
M  V30 2532 H 225.274 1.74723 -0.863583 0
M  V30 2533 H 224.37 3.11556 -0.184166 0
M  V30 2534 N 224.671 0.411399 1.52136 0
M  V30 2535 C 225.618 -0.412975 2.27075 0
M  V30 2536 C 226.588 -1.03912 1.29582 0
M  V30 2537 O 227.773 -1.06296 1.58448 0
M  V30 2538 C 224.913 -1.52247 3.09701 0
M  V30 2539 C 224.026 -0.917021 4.22155 0
M  V30 2540 C 223.161 -1.9994 4.92135 0
M  V30 2541 C 222.2 -1.37101 5.96548 0
M  V30 2542 N 221.337 -2.39364 6.60038 0
M  V30 2543 H 226.177 0.232499 2.97092 0
M  V30 2544 H 223.714 0.126496 1.46555 0
M  V30 2545 H 225.672 -2.17674 3.55913 0
M  V30 2546 H 224.302 -2.13794 2.41851 0
M  V30 2547 H 223.354 -0.151742 3.80097 0
M  V30 2548 H 224.666 -0.418006 4.97045 0
M  V30 2549 H 223.82 -2.73088 5.41763 0
M  V30 2550 H 222.559 -2.53208 4.16818 0
M  V30 2551 H 221.564 -0.624873 5.46237 0
M  V30 2552 H 222.789 -0.845998 6.7381 0
M  V30 2553 H 220.735 -2.91759 5.87548 0
M  V30 2554 H 220.652 -1.9428 7.3061 0
M  V30 2555 H 221.92 -3.12074 7.14304 0
M  V30 2556 N 226.149 -1.5696 0.141893 0
M  V30 2557 C 227.398 -1.95135 -0.510427 0
M  V30 2558 C 227.711 -1.02896 -1.66348 0
M  V30 2559 O 228.917 -1.30629 -2.38009 0
M  V30 2560 C 227.373 -3.46876 -0.959427 0
M  V30 2561 C 226.981 -4.47691 0.166419 0
M  V30 2562 C 228.725 -3.93927 -1.58183 0
M  V30 2563 C 226.632 -5.90636 -0.300565 0
M  V30 2564 H 225.562 -0.728494 -0.194454 0
M  V30 2565 H 228.213 -1.8211 0.22542 0
M  V30 2566 H 226.595 -3.55215 -1.75038 0
M  V30 2567 H 227.769 -4.51043 0.94325 0
M  V30 2568 H 226.084 -4.10527 0.696905 0
M  V30 2569 H 228.681 -4.98158 -1.94275 0
M  V30 2570 H 229.024 -3.3519 -2.46888 0
M  V30 2571 H 229.557 -3.88484 -0.855863 0
M  V30 2572 H 226.296 -6.5318 0.550989 0
M  V30 2573 H 225.816 -5.90655 -1.04338 0
M  V30 2574 H 227.495 -6.42588 -0.754265 0
M  V30 2575 N 227.627 0.131896 -1.57047 0
M  V30 2576 C 228.557 1.16384 -2.02428 0
M  V30 2577 C 229.538 1.43936 -0.90644 0
M  V30 2578 O 230.723 1.54599 -1.17528 0
M  V30 2579 C 227.853 2.49328 -2.4177 0
M  V30 2580 C 226.807 2.36266 -3.56879 0
M  V30 2581 C 226.133 3.74057 -3.8208 0
M  V30 2582 C 227.433 1.834 -4.89042 0
M  V30 2583 H 229.127 0.786433 -2.88887 0
M  V30 2584 H 226.673 0.376855 -1.38981 0
M  V30 2585 H 228.626 3.21759 -2.7212 0
M  V30 2586 H 227.35 2.88934 -1.52266 0
M  V30 2587 H 226.009 1.66286 -3.26718 0
M  V30 2588 H 225.657 4.11125 -2.89803 0
M  V30 2589 H 225.357 3.66174 -4.59554 0
M  V30 2590 H 226.881 4.48012 -4.1487 0
M  V30 2591 H 228.295 2.45636 -5.18011 0
M  V30 2592 H 226.692 1.8637 -5.70426 0
M  V30 2593 H 227.762 0.790662 -4.7841 0
M  V30 2594 N 229.106 1.52395 0.401703 0
M  V30 2595 C 230.383 1.57387 1.16141 0
M  V30 2596 C 230.763 0.359359 2.08019 0
M  V30 2597 O 230.111 -0.65326 2.18963 0
M  V30 2598 C 230.321 2.90631 1.93221 0
M  V30 2599 C 231.669 3.43904 2.49028 0
M  V30 2600 O 232.693 2.92421 2.03393 0
M  V30 2601 O 231.552 4.33823 3.32356 0
M  V30 2602 H 228.646 0.634262 0.530698 0
M  V30 2603 H 231.192 1.64725 0.407883 0
M  V30 2604 H 229.964 3.70473 1.25958 0
M  V30 2605 H 229.587 2.8662 2.75563 0
M  V30 2606 N 230.584 -0.659388 1.43143 0
M  V30 2607 C 232 -0.974337 1.26407 0
M  V30 2608 C 232.2 -2.007 0.179341 0
M  V30 2609 O 231.256 -2.4856 -0.444295 0
M  V30 2610 C 232.569 -1.46447 2.62628 0
M  V30 2611 C 234.117 -1.58144 2.7011 0
M  V30 2612 C 234.592 -2.1055 4.06734 0
M  V30 2613 N 236.083 -2.17861 4.08767 0
M  V30 2614 C 236.818 -2.59519 5.1131 0
M  V30 2615 N 236.314 -3.00518 6.24228 0
M  V30 2616 N 238.107 -2.59404 4.98664 0
M  V30 2617 H 230.258 0.0240528 2.12386 0
M  V30 2618 H 232.521 -0.0518065 0.946583 0
M  V30 2619 H 232.227 -0.780123 3.42939 0
M  V30 2620 H 232.101 -2.44058 2.87603 0
M  V30 2621 H 234.488 -2.25682 1.90136 0
M  V30 2622 H 234.569 -0.589828 2.48907 0
M  V30 2623 H 234.213 -1.43616 4.87172 0
M  V30 2624 H 234.143 -3.10531 4.25298 0
M  V30 2625 H 236.634 -1.88975 3.27257 0
M  V30 2626 H 236.947 -3.31036 6.98309 0
M  V30 2627 H 235.292 -2.98337 6.2771 0
M  V30 2628 H 238.483 -2.26747 4.09516 0
M  V30 2629 H 238.656 -2.91548 5.78709 0
M  V30 2630 N 232.062 -1.29571 -0.897171 0
M  V30 2631 C 233.01 -1.14802 -2.02295 0
M  V30 2632 C 234.004 -0.0629637 -1.69283 0
M  V30 2633 O 235.21 -0.222945 -1.78614 0
M  V30 2634 H 231.585 -0.354692 -0.663097 0
M  V30 2635 H 233.556 -2.10108 -2.11889 0
M  V30 2636 C 232.305 -0.843966 -3.37302 0
M  V30 2637 H 231.628 -1.67093 -3.63208 0
M  V30 2638 H 233.068 -0.780672 -4.16751 0
M  V30 2639 C 231.527 0.452843 -3.33843 0
M  V30 2640 O 232.057 1.47813 -3.73516 0
M  V30 2641 N 230.263 0.459601 -2.86943 0
M  V30 2642 H 229.81 -0.375213 -2.54853 0
M  V30 2643 H 229.768 1.32726 -2.85011 0
M  V30 2644 N 233.54 1.10788 -1.12088 0
M  V30 2645 C 234.488 2.19111 -0.780587 0
M  V30 2646 C 235.482 1.67818 0.230961 0
M  V30 2647 O 236.688 1.79777 0.0895427 0
M  V30 2648 H 233.063 0.714477 -0.234578 0
M  V30 2649 H 235.034 2.45055 -1.70266 0
M  V30 2650 C 233.783 3.46818 -0.24747 0
M  V30 2651 H 233.106 3.86646 -1.01712 0
M  V30 2652 H 234.546 4.23973 -0.0476291 0
M  V30 2653 C 233.005 3.20968 1.02378 0
M  V30 2654 O 233.535 3.42298 2.10226 0
M  V30 2655 N 231.741 2.74658 0.949271 0
M  V30 2656 H 231.288 2.57501 0.0715173 0
M  V30 2657 H 231.246 2.57739 1.80049 0
M  V30 2658 N 235.018 0.912232 1.28515 0
M  V30 2659 C 236.264 0.545405 1.95328 0
M  V30 2660 C 236.597 -0.908313 1.71649 0
M  V30 2661 O 235.872 -1.64575 1.03659 0
M  V30 2662 C 236.155 0.853483 3.4984 0
M  V30 2663 C 236.008 2.35982 3.82926 0
M  V30 2664 C 237.327 0.348589 4.38717 0
M  V30 2665 H 234.446 0.199626 0.709449 0
M  V30 2666 H 237.088 1.1412 1.5191 0
M  V30 2667 H 235.238 0.34643 3.86952 0
M  V30 2668 H 236.91 2.93738 3.55691 0
M  V30 2669 H 235.153 2.81543 3.30024 0
M  V30 2670 H 235.824 2.52593 4.90816 0
M  V30 2671 H 238.3 0.78294 4.08668 0
M  V30 2672 H 237.176 0.593242 5.45685 0
M  V30 2673 H 237.437 -0.751049 4.35674 0
M  V30 2674 N 236.496 -1.42363 0.676048 0
M  V30 2675 C 237.406 -2.346 -0.00153389 0
M  V30 2676 C 238.422 -1.5516 -0.787485 0
M  V30 2677 O 239.598 -1.87723 -0.729521 0
M  V30 2678 C 236.663 -3.33705 -0.940298 0
M  V30 2679 C 235.724 -4.29042 -0.148739 0
M  V30 2680 C 234.957 -5.23413 -1.04279 0
M  V30 2681 O 235.18 -5.22749 -2.28232 0
M  V30 2682 O 234.114 -5.99795 -0.502925 0
M  V30 2683 H 237.94 -2.94082 0.758268 0
M  V30 2684 H 235.525 -1.42888 0.436289 0
M  V30 2685 H 237.407 -3.94586 -1.47917 0
M  V30 2686 H 236.082 -2.76695 -1.67993 0
M  V30 2687 H 234.989 -3.71571 0.43427 0
M  V30 2688 H 236.322 -4.89097 0.551805 0
M  V30 2689 N 237.974 -0.419461 -1.51915 0
M  V30 2690 C 238.904 0.391813 -2.30189 0
M  V30 2691 C 239.885 1.03699 -1.34836 0
M  V30 2692 O 241.07 1.04403 -1.63748 0
M  V30 2693 C 238.2 1.50312 -3.13087 0
M  V30 2694 C 237.154 0.9824 -4.16573 0
M  V30 2695 C 236.48 2.18809 -4.8788 0
M  V30 2696 C 237.78 0.0292356 -5.22292 0
M  V30 2697 H 239.474 -0.26135 -2.98257 0
M  V30 2698 H 237.02 -0.127134 -1.43438 0
M  V30 2699 H 238.973 2.07773 -3.66617 0
M  V30 2700 H 237.697 2.18431 -2.42807 0
M  V30 2701 H 236.356 0.430119 -3.64068 0
M  V30 2702 H 236.004 2.85507 -4.14119 0
M  V30 2703 H 235.704 1.84615 -5.57845 0
M  V30 2704 H 237.228 2.76858 -5.44226 0
M  V30 2705 H 238.642 0.512976 -5.71 0
M  V30 2706 H 237.039 -0.2244 -5.9968 0
M  V30 2707 H 238.109 -0.912931 -4.76228 0
M  V30 2708 N 239.452 1.56882 -0.150215 0
M  V30 2709 C 240.415 2.1573 0.774157 0
M  V30 2710 C 241.415 1.0999 1.17298 0
M  V30 2711 O 242.605 1.35613 1.09338 0
M  V30 2712 C 239.737 2.72302 2.05096 0
M  V30 2713 H 240.93 2.98752 0.262201 0
M  V30 2714 H 238.483 1.55985 0.099248 0
M  V30 2715 H 239.218 1.92956 2.6065 0
M  V30 2716 H 239.003 3.49665 1.77416 0
M  V30 2717 H 240.493 3.17632 2.71109 0
M  V30 2718 N 240.93 -0.123565 1.57115 0
M  V30 2719 C 241.878 -1.17082 2.00984 0
M  V30 2720 C 242.872 -1.43136 0.906009 0
M  V30 2721 O 244.078 -1.43152 1.09121 0
M  V30 2722 H 240.453 -0.394653 0.64012 0
M  V30 2723 H 242.424 -0.774292 2.88179 0
M  V30 2724 C 241.173 -2.49057 2.42623 0
M  V30 2725 H 240.496 -2.29846 3.27125 0
M  V30 2726 H 241.936 -3.20906 2.7712 0
M  V30 2727 C 240.395 -3.11305 1.28805 0
M  V30 2728 O 240.925 -3.97171 0.60153 0
M  V30 2729 N 239.131 -2.71111 1.04628 0
M  V30 2730 H 238.678 -2.01382 1.60634 0
M  V30 2731 H 238.636 -3.1309 0.286685 0
M  V30 2732 N 242.408 -1.52605 -0.393616 0
M  V30 2733 C 243.636 -1.71294 -1.16043 0
M  V30 2734 C 244.051 -0.429259 -1.83855 0
M  V30 2735 O 243.408 0.595921 -1.72496 0
M  V30 2736 C 243.459 -2.8593 -2.21193 0
M  V30 2737 O 243.18 -4.09329 -1.56146 0
M  V30 2738 C 244.681 -3.16259 -3.10636 0
M  V30 2739 H 241.901 -0.573641 -0.348104 0
M  V30 2740 H 244.445 -1.99234 -0.461092 0
M  V30 2741 H 242.6 -2.60465 -2.86769 0
M  V30 2742 H 243.014 -4.73323 -2.25978 0
M  V30 2743 H 244.488 -3.99946 -3.80456 0
M  V30 2744 H 244.965 -2.3045 -3.73884 0
M  V30 2745 H 245.571 -3.43547 -2.50711 0
M  V30 2746 N 243.887 0.651787 -1.4349 0
M  V30 2747 C 245.135 1.40888 -1.44897 0
M  V30 2748 C 245.456 1.94856 -0.0749086 0
M  V30 2749 O 244.726 1.74518 0.889956 0
M  V30 2750 H 243.306 0.522887 -0.533478 0
M  V30 2751 H 245.968 0.768609 -1.79104 0
M  V30 2752 H 245.064 2.25052 -2.16236 0
M  V30 2753 N 245.365 1.30045 0.890287 0
M  V30 2754 C 246.593 1.21472 1.67487 0
M  V30 2755 C 247.008 -0.223241 1.87476 0
M  V30 2756 O 246.365 -1.14828 1.41847 0
M  V30 2757 C 246.416 1.93394 3.05419 0
M  V30 2758 O 246.137 3.31576 2.86337 0
M  V30 2759 C 247.638 1.91414 3.99844 0
M  V30 2760 H 244.858 0.420604 0.522813 0
M  V30 2761 H 247.402 1.7158 1.11268 0
M  V30 2762 H 245.557 1.47099 3.58386 0
M  V30 2763 H 245.971 3.67929 3.73802 0
M  V30 2764 H 247.445 2.46285 4.94012 0
M  V30 2765 H 247.922 0.891833 4.3005 0
M  V30 2766 H 248.528 2.37496 3.52811 0
M  V30 2767 N 246.843 -1.10192 1.12674 0
M  V30 2768 C 247.793 -2.14754 0.765801 0
M  V30 2769 C 248.777 -1.59154 -0.236409 0
M  V30 2770 O 249.969 -1.76951 -0.0415261 0
M  V30 2771 C 247.098 -3.42563 0.224827 0
M  V30 2772 C 246.184 -4.05091 1.25548 0
M  V30 2773 N 246.575 -4.42287 2.4539 0
M  V30 2774 C 244.873 -4.32186 1.10142 0
M  V30 2775 C 245.574 -4.91441 3.11224 0
M  V30 2776 N 244.55 -4.88405 2.38666 0
M  V30 2777 H 248.352 -2.41309 1.67772 0
M  V30 2778 H 245.866 -1.27339 1.00789 0
M  V30 2779 H 247.863 -4.16868 -0.0519578 0
M  V30 2780 H 246.523 -3.17467 -0.681515 0
M  V30 2781 H 247.534 -4.33902 2.82754 0
M  V30 2782 H 244.211 -4.16735 0.252587 0
M  V30 2783 H 245.601 -5.29749 4.13298 0
M  V30 2784 N 248.321 -0.919034 -1.28029 0
M  V30 2785 C 249.254 -0.355887 -2.25408 0
M  V30 2786 C 250.232 0.542874 -1.5327 0
M  V30 2787 O 251.416 0.485338 -1.82145 0
M  V30 2788 C 248.543 0.490759 -3.35126 0
M  V30 2789 C 247.589 -0.343358 -4.25116 0
M  V30 2790 S 248.422 -1.75344 -5.05979 0
M  V30 2791 C 249.578 -0.914244 -6.19187 0
M  V30 2792 H 249.811 -1.18123 -2.72826 0
M  V30 2793 H 247.344 -0.720636 -1.36551 0
M  V30 2794 H 249.302 0.973404 -3.98792 0
M  V30 2795 H 247.963 1.29054 -2.86363 0
M  V30 2796 H 247.156 0.304266 -5.03081 0
M  V30 2797 H 246.758 -0.759851 -3.662 0
M  V30 2798 H 249.05 -0.146282 -6.77342 0
M  V30 2799 H 249.993 -1.66661 -6.88208 0
M  V30 2800 H 250.401 -0.460082 -5.62622 0
M  V30 2801 N 249.799 1.42003 -0.683588 0
M  V30 2802 C 251.215 1.55625 -0.353976 0
M  V30 2803 C 251.415 1.66151 1.14 0
M  V30 2804 O 250.471 1.63329 1.92561 0
M  V30 2805 C 251.784 2.80171 -1.092 0
M  V30 2806 C 253.332 2.93954 -1.07518 0
M  V30 2807 C 253.807 4.21372 -1.79471 0
M  V30 2808 N 255.298 4.28303 -1.76381 0
M  V30 2809 C 256.033 5.25729 -2.28904 0
M  V30 2810 N 255.529 6.29254 -2.89846 0
M  V30 2811 N 257.322 5.17586 -2.19228 0
M  V30 2812 H 249.473 1.33415 -1.6527 0
M  V30 2813 H 251.736 0.64282 -0.696769 0
M  V30 2814 H 251.442 2.78561 -2.14701 0
M  V30 2815 H 251.316 3.7133 -0.662862 0
M  V30 2816 H 253.703 2.95086 -0.028475 0
M  V30 2817 H 253.784 2.04002 -1.54328 0
M  V30 2818 H 253.428 4.21001 -2.84114 0
M  V30 2819 H 253.358 5.10275 -1.30104 0
M  V30 2820 H 255.849 3.54119 -1.31939 0
M  V30 2821 H 256.162 6.99964 -3.27522 0
M  V30 2822 H 254.507 6.29791 -2.93919 0
M  V30 2823 H 257.698 4.35631 -1.71299 0
M  V30 2824 H 257.871 5.93348 -2.60466 0
M  V30 2825 N 251.277 0.427512 1.51691 0
M  V30 2826 C 252.207 -0.3796 2.30394 0
M  V30 2827 C 253.188 -1.02982 1.35384 0
M  V30 2828 O 254.373 -1.03534 1.643 0
M  V30 2829 C 251.503 -1.48649 3.1388 0
M  V30 2830 C 250.457 -0.960294 4.17088 0
M  V30 2831 C 249.783 -2.16219 4.89033 0
M  V30 2832 C 251.083 -0.00153679 5.223 0
M  V30 2833 H 252.777 0.277164 2.98114 0
M  V30 2834 H 250.323 0.134739 1.43368 0
M  V30 2835 H 252.276 -2.05826 3.67714 0
M  V30 2836 H 251 -2.1714 2.43962 0
M  V30 2837 H 249.659 -0.410806 3.64291 0
M  V30 2838 H 249.307 -2.83307 4.15628 0
M  V30 2839 H 249.007 -1.81654 5.58816 0
M  V30 2840 H 250.531 -2.73968 5.45687 0
M  V30 2841 H 251.945 -0.482687 5.71264 0
M  V30 2842 H 250.342 0.256199 5.99553 0
M  V30 2843 H 251.412 0.938174 4.75738 0
M  V30 2844 N 252.755 -1.56801 0.158532 0
M  V30 2845 C 254.003 -1.96102 -0.488712 0
M  V30 2846 C 254.324 -1.04498 -1.64636 0
M  V30 2847 O 253.594 -0.108783 -1.95598 0
M  V30 2848 H 252.174 -0.724102 -0.183535 0
M  V30 2849 H 254.836 -1.93457 0.236728 0
M  V30 2850 H 253.932 -3.00097 -0.857219 0
M  V30 2851 N 254.233 0.115231 -1.57178 0
M  V30 2852 C 255.482 0.820945 -1.84237 0
M  V30 2853 C 255.795 1.80866 -0.744761 0
M  V30 2854 O 257.001 2.56083 -0.901871 0
M  V30 2855 C 255.457 1.51072 -3.26658 0
M  V30 2856 C 255.065 0.563795 -4.44438 0
M  V30 2857 C 256.809 2.20134 -3.62962 0
M  V30 2858 C 254.716 1.25701 -5.77887 0
M  V30 2859 H 253.646 0.310328 -0.687177 0
M  V30 2860 H 256.297 0.0737134 -1.83352 0
M  V30 2861 H 254.679 2.30471 -3.22024 0
M  V30 2862 H 255.853 -0.197247 -4.60378 0
M  V30 2863 H 254.168 -0.0200638 -4.16395 0
M  V30 2864 H 256.765 2.72696 -4.59936 0
M  V30 2865 H 257.108 2.98107 -2.90582 0
M  V30 2866 H 257.641 1.47619 -3.69396 0
M  V30 2867 H 254.38 0.518493 -6.53446 0
M  V30 2868 H 253.9 1.98997 -5.65827 0
M  V30 2869 H 255.579 1.78915 -6.2177 0
M  V30 2870 N 255.711 1.52812 0.385517 0
M  V30 2871 C 256.957 1.68275 1.13188 0
M  V30 2872 C 257.29 0.423179 1.89533 0
M  V30 2873 O 256.565 -0.579113 1.85679 0
M  V30 2874 C 256.848 2.92001 2.1073 0
M  V30 2875 C 256.701 4.28067 1.38125 0
M  V30 2876 C 258.02 3.11283 3.11113 0
M  V30 2877 H 255.139 0.612352 0.410115 0
M  V30 2878 H 257.781 1.85415 0.414869 0
M  V30 2879 H 255.931 2.77519 2.71874 0
M  V30 2880 H 257.603 4.54324 0.799187 0
M  V30 2881 H 255.846 4.28388 0.683092 0
M  V30 2882 H 256.517 5.10733 2.09417 0
M  V30 2883 H 258.993 3.2482 2.6006 0
M  V30 2884 H 257.869 3.99325 3.76605 0
M  V30 2885 H 258.13 2.25656 3.80173 0
M  V30 2886 N 257.189 -0.644168 1.43834 0
M  V30 2887 C 258.6 -1.22554 1.40845 0
M  V30 2888 C 258.951 -1.9585 0.117115 0
M  V30 2889 O 258.076 -2.01734 -0.783086 0
M  V30 2890 C 258.671 -2.22907 2.55143 0
M  V30 2891 C 257.23 -2.76501 2.5539 0
M  V30 2892 C 256.377 -1.51287 2.32396 0
M  V30 2893 H 259.328 -0.43563 1.52604 0
M  V30 2894 H 259.349 -3.05259 2.2715 0
M  V30 2895 H 258.861 -1.69533 3.49114 0
M  V30 2896 H 256.962 -3.33914 1.65324 0
M  V30 2897 H 257.075 -3.23429 3.53455 0
M  V30 2898 H 255.439 -1.78957 1.81236 0
M  V30 2899 H 256.222 -0.998336 3.28463 0
M  V30 2900 N 258.668 -1.30515 -0.883378 0
M  V30 2901 C 259.615 -1.17032 -1.98927 0
M  V30 2902 C 260.585 -0.0594241 -1.65994 0
M  V30 2903 O 261.77 -0.229895 -1.8941 0
M  V30 2904 C 258.91 -0.869777 -3.33959 0
M  V30 2905 C 258.023 -2.06271 -3.79574 0
M  V30 2906 C 257.158 -1.70011 -5.03259 0
M  V30 2907 C 256.197 -2.8579 -5.41286 0
M  V30 2908 N 255.334 -2.49816 -6.56153 0
M  V30 2909 H 260.174 -2.1164 -2.09792 0
M  V30 2910 H 257.711 -1.05296 -1.02719 0
M  V30 2911 H 259.669 -0.676138 -4.11685 0
M  V30 2912 H 258.299 0.0394332 -3.22776 0
M  V30 2913 H 257.351 -2.36755 -2.97744 0
M  V30 2914 H 258.663 -2.92971 -4.03694 0
M  V30 2915 H 257.817 -1.47032 -5.88614 0
M  V30 2916 H 256.556 -0.804829 -4.81013 0
M  V30 2917 H 255.561 -3.09434 -4.54456 0
M  V30 2918 H 256.786 -3.76008 -5.65504 0
M  V30 2919 H 254.732 -1.62795 -6.35479 0
M  V30 2920 H 254.649 -3.30048 -6.8015 0
M  V30 2921 H 255.917 -2.30197 -7.44735 0
M  V30 2922 N 260.146 1.09593 -1.13257 0
M  V30 2923 C 261.094 2.18271 -0.803783 0
M  V30 2924 C 262.088 1.68054 0.213148 0
M  V30 2925 O 263.294 1.79862 0.0704699 0
M  V30 2926 H 259.669 0.711949 -0.242143 0
M  V30 2927 H 261.64 2.43235 -1.72856 0
M  V30 2928 C 260.389 3.46536 -0.28424 0
M  V30 2929 H 259.712 3.85545 -1.05807 0
M  V30 2930 H 261.152 4.23899 -0.0925945 0
M  V30 2931 C 259.611 3.22036 0.989684 0
M  V30 2932 O 260.141 3.44509 2.06584 0
M  V30 2933 N 258.347 2.7565 0.920086 0
M  V30 2934 H 257.894 2.57562 0.0442019 0
M  V30 2935 H 257.852 2.59635 1.77306 0
M  V30 2936 N 261.624 0.925811 1.2754 0
M  V30 2937 C 262.87 0.566092 1.94739 0
M  V30 2938 C 263.203 -0.890057 1.72603 0
M  V30 2939 O 262.478 -1.63467 1.05399 0
M  V30 2940 C 262.761 0.89054 3.48915 0
M  V30 2941 C 262.614 2.4003 3.80402 0
M  V30 2942 C 263.933 0.395101 4.38323 0
M  V30 2943 H 261.052 0.20714 0.707292 0
M  V30 2944 H 263.694 1.15725 1.50691 0
M  V30 2945 H 261.844 0.387452 3.86563 0
M  V30 2946 H 263.516 2.97494 3.52555 0
M  V30 2947 H 261.759 2.85028 3.2702 0
M  V30 2948 H 262.43 2.57785 4.8811 0
M  V30 2949 H 264.906 0.826241 4.07814 0
M  V30 2950 H 263.782 0.651086 5.45025 0
M  V30 2951 H 264.043 -0.704798 4.36446 0
M  V30 2952 N 263.102 -1.41638 0.69111 0
M  V30 2953 C 264.327 -2.06148 0.227583 0
M  V30 2954 C 264.752 -1.51652 -1.11281 0
M  V30 2955 O 264.11 -0.64164 -1.69566 0
M  V30 2956 C 264.158 -3.60095 0.190858 0
M  V30 2957 O 263.262 -4.03845 -0.835664 0
M  V30 2958 H 262.603 -0.654434 0.112306 0
M  V30 2959 H 265.133 -1.81484 0.944714 0
M  V30 2960 H 265.143 -4.07995 0.020207 0
M  V30 2961 H 263.818 -3.99129 1.16915 0
M  V30 2962 H 262.395 -3.67458 -0.63473 0
M  V30 2963 N 264.58 -0.43555 -1.51462 0
M  V30 2964 C 265.527 0.376797 -2.27703 0
M  V30 2965 C 266.497 1.01838 -1.31219 0
M  V30 2966 O 267.682 1.03762 -1.60119 0
M  V30 2967 C 264.822 1.47301 -3.12084 0
M  V30 2968 C 263.935 0.849744 -4.2356 0
M  V30 2969 C 263.07 1.92086 -4.95254 0
M  V30 2970 C 262.109 1.27593 -5.98654 0
M  V30 2971 N 261.246 2.28833 -6.63762 0
M  V30 2972 H 266.086 -0.279734 -2.96684 0
M  V30 2973 H 263.623 -0.149795 -1.46335 0
M  V30 2974 H 265.581 2.11984 -3.59331 0
M  V30 2975 H 264.211 2.0992 -2.45221 0
M  V30 2976 H 263.263 0.0912529 -3.80291 0
M  V30 2977 H 264.575 0.338878 -4.97648 0
M  V30 2978 H 263.729 2.64435 -5.46039 0
M  V30 2979 H 262.468 2.46545 -4.20793 0
M  V30 2980 H 261.473 0.537893 -5.47162 0
M  V30 2981 H 262.698 0.738693 -6.7507 0
M  V30 2982 H 260.644 2.82375 -5.92115 0
M  V30 2983 H 260.561 1.82632 -7.33608 0
M  V30 2984 H 261.829 3.00671 -7.19178 0
M  V30 2985 N 266.058 1.56714 -0.166846 0
M  V30 2986 C 267.005 2.17746 0.765193 0
M  V30 2987 C 267.975 1.11614 1.23011 0
M  V30 2988 O 269.16 1.39745 1.29908 0
M  V30 2989 C 266.3 2.81882 1.9909 0
M  V30 2990 C 265.413 4.02462 1.56997 0
M  V30 2991 C 264.548 4.54537 2.749 0
M  V30 2992 C 263.587 5.67538 2.29275 0
M  V30 2993 N 262.724 6.14142 3.40255 0
M  V30 2994 H 267.564 2.97048 0.237952 0
M  V30 2995 H 265.101 1.4672 0.105725 0
M  V30 2996 H 267.059 3.17221 2.70974 0
M  V30 2997 H 265.689 2.05191 2.49192 0
M  V30 2998 H 264.741 3.72973 0.748037 0
M  V30 2999 H 266.053 4.84273 1.19503 0
M  V30 3000 H 265.207 4.92035 3.54946 0
M  V30 3001 H 263.946 3.71774 3.1565 0
M  V30 3002 H 262.951 5.29597 1.47674 0
M  V30 3003 H 264.176 6.52099 1.89588 0
M  V30 3004 H 262.122 5.3431 3.8059 0
M  V30 3005 H 262.039 6.9093 3.06841 0
M  V30 3006 H 263.307 6.56289 4.206 0
M  V30 3007 N 267.536 -0.106894 1.57237 0
M  V30 3008 C 268.813 -0.843526 1.76477 0
M  V30 3009 C 269.193 -1.97499 0.745464 0
M  V30 3010 O 268.541 -2.27357 -0.228306 0
M  V30 3011 C 268.751 -1.34903 3.21873 0
M  V30 3012 C 270.099 -1.79654 3.8472 0
M  V30 3013 O 271.123 -1.44554 3.2555 0
M  V30 3014 O 269.982 -2.44515 4.88748 0
M  V30 3015 H 267.076 -0.401468 0.723016 0
M  V30 3016 H 269.622 -0.0896927 1.69463 0
M  V30 3017 H 268.394 -0.53781 3.87586 0
M  V30 3018 H 268.017 -2.16522 3.33473 0
M  V30 3019 N 269.014 -1.53014 -0.377408 0
M  V30 3020 C 270.244 -1.72265 -1.14054 0
M  V30 3021 C 270.652 -0.44601 -1.83868 0
M  V30 3022 O 269.995 0.590095 -1.73964 0
M  V30 3023 C 270.057 -2.82492 -2.22348 0
M  V30 3024 C 269.721 -4.23233 -1.72402 0
M  V30 3025 C 270.718 -5.05992 -1.19448 0
M  V30 3026 C 268.403 -4.696 -1.78273 0
M  V30 3027 C 270.397 -6.33203 -0.730268 0
M  V30 3028 C 268.084 -5.96792 -1.31464 0
M  V30 3029 C 269.082 -6.78424 -0.789297 0
M  V30 3030 O 268.77 -8.0323 -0.328077 0
M  V30 3031 H 268.502 -0.579873 -0.347453 0
M  V30 3032 H 271.056 -2.00502 -0.445882 0
M  V30 3033 H 269.286 -2.49702 -2.95272 0
M  V30 3034 H 270.975 -2.90034 -2.83963 0
M  V30 3035 H 271.741 -4.71349 -1.14259 0
M  V30 3036 H 267.62 -4.06142 -2.18106 0
M  V30 3037 H 271.164 -6.96868 -0.319542 0
M  V30 3038 H 267.061 -6.30937 -1.36342 0
M  V30 3039 H 267.829 -8.1727 -0.448493 0
M  V30 3040 N 270.492 0.636531 -1.44174 0
M  V30 3041 C 271.439 1.74875 -1.50624 0
M  V30 3042 C 272.409 1.62275 -0.35442 0
M  V30 3043 O 273.594 1.82276 -0.563908 0
M  V30 3044 C 270.734 3.13102 -1.45125 0
M  V30 3045 C 269.847 3.36717 -2.7064 0
M  V30 3046 C 268.982 4.64885 -2.57013 0
M  V30 3047 C 268.021 4.8166 -3.77717 0
M  V30 3048 N 267.158 6.01101 -3.62798 0
M  V30 3049 H 271.998 1.68697 -2.45653 0
M  V30 3050 H 269.535 0.823004 -1.21922 0
M  V30 3051 H 271.493 3.93034 -1.39929 0
M  V30 3052 H 270.123 3.18308 -0.536671 0
M  V30 3053 H 269.175 2.50763 -2.86046 0
M  V30 3054 H 270.487 3.44993 -3.60252 0
M  V30 3055 H 269.641 5.52969 -2.49619 0
M  V30 3056 H 268.38 4.58957 -1.64953 0
M  V30 3057 H 267.385 3.92007 -3.85501 0
M  V30 3058 H 268.61 4.89406 -4.70807 0
M  V30 3059 H 266.556 5.96273 -2.73486 0
M  V30 3060 H 266.473 6.10409 -4.46023 0
M  V30 3061 H 267.741 6.91761 -3.59286 0
M  V30 3062 N 271.97 1.30982 0.876444 0
M  V30 3063 C 272.933 1.18054 1.96459 0
M  V30 3064 C 273.933 0.109399 1.60427 0
M  V30 3065 O 275.123 0.358173 1.70478 0
M  V30 3066 C 272.255 0.810616 3.31122 0
M  V30 3067 H 273.448 2.14735 2.09354 0
M  V30 3068 H 271.001 1.145 1.06392 0
M  V30 3069 H 271.736 -0.155322 3.23928 0
M  V30 3070 H 271.521 1.58481 3.58645 0
M  V30 3071 H 273.011 0.743876 4.10921 0
M  V30 3072 N 273.449 -1.08991 1.13837 0
M  V30 3073 C 274.698 -1.80631 0.897509 0
M  V30 3074 C 275.011 -1.86872 -0.57777 0
M  V30 3075 O 276.217 -2.54866 -0.935701 0
M  V30 3076 C 274.673 -3.24517 1.55618 0
M  V30 3077 C 274.281 -3.26529 3.0673 0
M  V30 3078 C 276.025 -4.00882 1.3962 0
M  V30 3079 C 273.932 -4.64965 3.65461 0
M  V30 3080 H 272.862 -0.67691 0.332129 0
M  V30 3081 H 275.513 -1.2246 1.3666 0
M  V30 3082 H 273.895 -3.82778 1.01476 0
M  V30 3083 H 275.069 -2.78008 3.67489 0
M  V30 3084 H 273.384 -2.63656 3.22296 0
M  V30 3085 H 275.981 -5.03167 1.80906 0
M  V30 3086 H 276.324 -4.14896 0.341578 0
M  V30 3087 H 276.857 -3.49075 1.90766 0
M  V30 3088 H 273.596 -4.56153 4.70749 0
M  V30 3089 H 273.116 -5.13792 3.09481 0
M  V30 3090 H 274.795 -5.3394 3.654 0
M  V30 3091 N 274.927 -0.932562 -1.27047 0
M  V30 3092 C 275.89 -0.440064 -2.24936 0
M  V30 3093 C 276.89 0.444071 -1.54547 0
M  V30 3094 O 278.08 0.244465 -1.72476 0
M  V30 3095 C 275.212 0.36678 -3.38921 0
M  V30 3096 H 276.405 -1.305 -2.70018 0
M  V30 3097 H 273.958 -0.713707 -1.39054 0
M  V30 3098 H 274.693 1.25033 -2.99228 0
M  V30 3099 H 274.478 -0.267204 -3.91188 0
M  V30 3100 H 275.968 0.701567 -4.11665 0
M  V30 3101 N 276.405 1.4127 -0.698611 0
M  V30 3102 C 277.352 2.30773 -0.0352094 0
M  V30 3103 C 278.322 1.47273 0.768111 0
M  V30 3104 O 279.507 1.76053 0.735524 0
M  V30 3105 C 276.647 3.33346 0.893 0
M  V30 3106 C 275.76 4.31924 0.0809695 0
M  V30 3107 C 274.895 5.21566 1.0071 0
M  V30 3108 C 273.934 6.11811 0.188155 0
M  V30 3109 N 273.071 6.93926 1.06825 0
M  V30 3110 H 277.911 2.86943 -0.804207 0
M  V30 3111 H 275.448 1.4132 -0.408294 0
M  V30 3112 H 277.406 3.91368 1.44523 0
M  V30 3113 H 276.036 2.78719 1.62836 0
M  V30 3114 H 275.088 3.75825 -0.588224 0
M  V30 3115 H 276.4 4.95716 -0.553801 0
M  V30 3116 H 275.554 5.84437 1.62845 0
M  V30 3117 H 274.293 4.58008 1.67572 0
M  V30 3118 H 273.298 5.47986 -0.446254 0
M  V30 3119 H 274.523 6.77425 -0.476716 0
M  V30 3120 H 272.469 6.32973 1.72283 0
M  V30 3121 H 272.386 7.54416 0.489123 0
M  V30 3122 H 273.654 7.61262 1.67632 0
M  V30 3123 N 277.883 0.443576 1.51229 0
M  V30 3124 C 278.793 -0.370721 2.31652 0
M  V30 3125 C 279.809 -1.02186 1.40833 0
M  V30 3126 O 280.985 -1.01586 1.73903 0
M  V30 3127 C 278.05 -1.45376 3.14749 0
M  V30 3128 C 277.111 -0.822099 4.21355 0
M  V30 3129 C 276.344 -1.85353 5.0048 0
M  V30 3130 O 276.567 -3.07656 4.80316 0
M  V30 3131 O 275.501 -1.4406 5.84406 0
M  V30 3132 H 279.327 0.286002 3.0235 0
M  V30 3133 H 276.912 0.20598 1.47973 0
M  V30 3134 H 278.794 -2.08173 3.66391 0
M  V30 3135 H 277.469 -2.09445 2.46809 0
M  V30 3136 H 276.376 -0.155909 3.73775 0
M  V30 3137 H 277.709 -0.224797 4.91686 0
M  V30 3138 N 279.361 -1.56624 0.175154 0
M  V30 3139 C 280.291 -2.21155 -0.749195 0
M  V30 3140 C 281.272 -1.16836 -1.23626 0
M  V30 3141 O 282.457 -1.45277 -1.28873 0
M  V30 3142 C 279.587 -2.8553 -1.97711 0
M  V30 3143 C 278.541 -3.95921 -1.62575 0
M  V30 3144 C 277.867 -4.47365 -2.92864 0
M  V30 3145 C 279.167 -5.15323 -0.850838 0
M  V30 3146 H 280.861 -2.98653 -0.211295 0
M  V30 3147 H 278.407 -1.43651 -0.100188 0
M  V30 3148 H 280.36 -3.2935 -2.62881 0
M  V30 3149 H 279.084 -2.05406 -2.53921 0
M  V30 3150 H 277.743 -3.52762 -0.997719 0
M  V30 3151 H 277.391 -3.64027 -3.47122 0
M  V30 3152 H 277.091 -5.21839 -2.70106 0
M  V30 3153 H 278.615 -4.93873 -3.59056 0
M  V30 3154 H 280.029 -5.55812 -1.40521 0
M  V30 3155 H 278.426 -5.95739 -0.722154 0
M  V30 3156 H 279.496 -4.84661 0.152082 0
M  V30 3157 N 280.839 0.0985539 -1.57292 0
M  V30 3158 C 282.064 0.820196 -1.90493 0
M  V30 3159 C 282.489 1.71658 -0.769094 0
M  V30 3160 O 281.847 1.79133 0.279495 0
M  V30 3161 C 281.895 1.61242 -3.22542 0
M  V30 3162 O 280.999 2.72108 -3.09888 0
M  V30 3163 H 280.34 0.225547 -0.62452 0
M  V30 3164 H 282.87 0.0748159 -2.04463 0
M  V30 3165 H 282.88 1.99737 -3.55766 0
M  V30 3166 H 281.555 0.954535 -4.04798 0
M  V30 3167 H 280.132 2.36667 -2.88172 0
M  V30 3168 N 282.317 1.53212 0.369288 0
M  V30 3169 C 283.566 1.68436 1.10961 0
M  V30 3170 C 283.879 0.440738 1.9057 0
M  V30 3171 O 285.085 0.473446 2.6734 0
M  V30 3172 C 283.541 2.97744 2.0218 0
M  V30 3173 C 283.149 4.29355 1.279 0
M  V30 3174 C 284.893 3.22334 2.76226 0
M  V30 3175 C 282.8 5.49755 2.17999 0
M  V30 3176 H 281.73 0.627568 0.41794 0
M  V30 3177 H 284.381 1.79713 0.370884 0
M  V30 3178 H 282.763 2.8026 2.79768 0
M  V30 3179 H 283.937 4.57458 0.554007 0
M  V30 3180 H 282.252 4.11179 0.657311 0
M  V30 3181 H 284.849 4.09471 3.43857 0
M  V30 3182 H 285.192 2.38238 3.41392 0
M  V30 3183 H 285.725 3.40475 2.05723 0
M  V30 3184 H 282.464 6.36318 1.57417 0
M  V30 3185 H 281.984 5.25937 2.88359 0
M  V30 3186 H 283.663 5.84401 2.77641 0
M  V30 3187 N 283.795 -0.628877 1.44509 0
M  V30 3188 C 285.02 -1.42048 1.5112 0
M  V30 3189 C 285.445 -1.87594 0.137818 0
M  V30 3190 O 284.803 -1.58873 -0.873437 0
M  V30 3191 C 284.851 -2.61541 2.48251 0
M  V30 3192 O 283.955 -3.61453 1.98559 0
M  V30 3193 H 283.296 -0.424942 0.510216 0
M  V30 3194 H 285.826 -0.767374 1.89664 0
M  V30 3195 H 285.836 -3.09057 2.66361 0
M  V30 3196 H 284.511 -2.27736 3.48007 0
M  V30 3197 H 283.088 -3.20731 1.90227 0
M  V30 3198 N 285.273 -1.31445 -0.869486 0
M  V30 3199 C 286.183 -1.21097 -2.0093 0
M  V30 3200 C 287.199 -0.127584 -1.73532 0
M  V30 3201 O 288.375 -0.345477 -1.98415 0
M  V30 3202 C 285.44 -0.919378 -3.34288 0
M  V30 3203 C 284.501 -2.08971 -3.75006 0
M  V30 3204 C 283.734 -1.81194 -5.02001 0
M  V30 3205 O 283.957 -0.747296 -5.65484 0
M  V30 3206 O 282.891 -2.66883 -5.39497 0
M  V30 3207 H 286.717 -2.16883 -2.12592 0
M  V30 3208 H 284.302 -1.11189 -0.997868 0
M  V30 3209 H 286.184 -0.772625 -4.14257 0
M  V30 3210 H 284.859 0.00844772 -3.23699 0
M  V30 3211 H 283.766 -2.29187 -2.95676 0
M  V30 3212 H 285.099 -2.9998 -3.90221 0
M  V30 3213 N 286.751 1.08385 -1.14413 0
M  V30 3214 C 288.028 1.77429 -0.823297 0
M  V30 3215 C 288.408 1.9974 0.683163 0
M  V30 3216 O 287.756 1.60739 1.62405 0
M  V30 3217 C 287.966 3.09004 -1.62227 0
M  V30 3218 C 289.314 3.83532 -1.82177 0
M  V30 3219 O 290.338 3.18786 -1.58915 0
M  V30 3220 O 289.197 4.99792 -2.21067 0
M  V30 3221 H 286.291 0.769999 -0.301712 0
M  V30 3222 H 288.837 1.14846 -1.24934 0
M  V30 3223 H 287.609 2.88316 -2.64555 0
M  V30 3224 H 287.232 3.79316 -1.19187 0
M  V30 3225 N 288.23 0.939286 1.26551 0
M  V30 3226 C 289.46 0.601663 1.97645 0
M  V30 3227 C 289.868 -0.827206 1.70159 0
M  V30 3228 O 289.211 -1.56291 0.965338 0
M  V30 3229 C 289.273 0.761725 3.51337 0
M  V30 3230 C 288.937 2.16487 4.0247 0
M  V30 3231 C 289.934 3.14016 4.14355 0
M  V30 3232 C 287.619 2.48494 4.36527 0
M  V30 3233 C 289.613 4.41654 4.59587 0
M  V30 3234 C 287.3 3.76364 4.81449 0
M  V30 3235 C 288.298 4.72758 4.92939 0
M  V30 3236 O 287.986 5.98352 5.36871 0
M  V30 3237 H 287.718 0.225758 0.637189 0
M  V30 3238 H 290.272 1.26178 1.62075 0
M  V30 3239 H 288.502 0.0444808 3.86674 0
M  V30 3240 H 290.191 0.427442 4.03643 0
M  V30 3241 H 290.957 2.90613 3.8829 0
M  V30 3242 H 286.836 1.74202 4.26819 0
M  V30 3243 H 290.38 5.16896 4.68471 0
M  V30 3244 H 286.277 3.99582 5.06956 0
M  V30 3245 H 287.045 6.01507 5.55096 0
M  V30 3246 N 289.708 -1.40897 0.706093 0
M  V30 3247 C 290.957 -2.00284 0.238574 0
M  V30 3248 C 291.27 -1.56604 -1.17194 0
M  V30 3249 O 292.476 -2.08624 -1.73748 0
M  V30 3250 C 290.932 -3.57934 0.375623 0
M  V30 3251 C 290.54 -4.10591 1.79217 0
M  V30 3252 C 292.284 -4.24488 -0.0315857 0
M  V30 3253 C 290.191 -5.60712 1.88032 0
M  V30 3254 H 289.121 -0.749144 0.0854398 0
M  V30 3255 H 291.772 -1.61251 0.875813 0
M  V30 3256 H 290.154 -3.94622 -0.330042 0
M  V30 3257 H 291.328 -3.85301 2.52745 0
M  V30 3258 H 289.643 -3.56601 2.15 0
M  V30 3259 H 292.24 -5.34698 0.0136842 0
M  V30 3260 H 292.583 -4.02261 -1.072 0
M  V30 3261 H 293.116 -3.92873 0.624181 0
M  V30 3262 H 289.855 -5.87781 2.90161 0
M  V30 3263 H 289.375 -5.87896 1.18903 0
M  V30 3264 H 291.054 -6.25658 1.64805 0
M  V30 3265 N 291.186 -0.45159 -1.50991 0
M  V30 3266 C 292.134 0.366864 -2.29689 0
M  V30 3267 C 293.128 1.00809 -1.36139 0
M  V30 3268 O 294.334 0.941427 -1.53418 0
M  V30 3269 H 290.709 0.137133 -0.739391 0
M  V30 3270 H 292.68 -0.317538 -2.96706 0
M  V30 3271 C 291.429 1.44751 -3.16137 0
M  V30 3272 H 290.752 0.963473 -3.88017 0
M  V30 3273 H 292.192 1.99315 -3.74232 0
M  V30 3274 C 290.651 2.43869 -2.32442 0
M  V30 3275 O 291.181 3.4872 -1.99392 0
M  V30 3276 N 289.387 2.15105 -1.95392 0
M  V30 3277 H 288.934 1.29866 -2.22469 0
M  V30 3278 H 288.892 2.81661 -1.39693 0
M  V30 3279 N 292.664 1.56529 -0.183458 0
M  V30 3280 C 293.612 2.19873 0.758845 0
M  V30 3281 C 294.606 1.16638 1.22849 0
M  V30 3282 O 295.812 1.3481 1.19274 0
M  V30 3283 H 292.187 0.7045 0.263029 0
M  V30 3284 H 294.158 2.97724 0.200755 0
M  V30 3285 C 292.907 2.86314 1.9728 0
M  V30 3286 H 292.23 3.65487 1.62047 0
M  V30 3287 H 293.67 3.3409 2.61075 0
M  V30 3288 C 292.129 1.86729 2.80418 0
M  V30 3289 O 292.659 1.36031 3.77966 0
M  V30 3290 N 290.865 1.55216 2.45675 0
M  V30 3291 H 290.412 1.96636 1.66409 0
M  V30 3292 H 290.37 0.888388 3.01588 0
M  V30 3293 N 294.142 -0.090211 1.57342 0
M  V30 3294 C 295.089 -1.10909 2.02405 0
M  V30 3295 C 296.059 -1.39523 0.901252 0
M  V30 3296 O 297.244 -1.50903 1.1676 0
M  V30 3297 C 294.384 -2.42277 2.45755 0
M  V30 3298 C 293.497 -2.20352 3.71576 0
M  V30 3299 C 292.632 -3.45154 4.03785 0
M  V30 3300 C 291.671 -3.18512 5.22701 0
M  V30 3301 N 290.808 -4.35593 5.50639 0
M  V30 3302 H 295.648 -0.71782 2.89225 0
M  V30 3303 H 293.185 -0.342901 1.43048 0
M  V30 3304 H 295.143 -3.18951 2.68935 0
M  V30 3305 H 293.773 -2.79242 1.61938 0
M  V30 3306 H 292.825 -1.34458 3.55844 0
M  V30 3307 H 294.137 -1.96661 4.58395 0
M  V30 3308 H 293.291 -4.30233 4.27767 0
M  V30 3309 H 292.03 -3.71904 3.15498 0
M  V30 3310 H 291.035 -2.31827 4.98534 0
M  V30 3311 H 292.26 -2.93103 6.12591 0
M  V30 3312 H 290.206 -4.6241 4.6531 0
M  V30 3313 H 290.123 -4.1511 6.31838 0
M  V30 3314 H 291.391 -5.21723 5.7916 0
M  V30 3315 N 295.62 -1.53406 -0.361157 0
M  V30 3316 C 296.866 -1.70999 -1.1014 0
M  V30 3317 C 297.221 -0.458425 -1.86859 0
M  V30 3318 O 296.514 0.548654 -1.83577 0
M  V30 3319 C 296.708 -2.90211 -2.08596 0
M  V30 3320 C 296.537 -4.26841 -1.41553 0
M  V30 3321 C 295.307 -4.91621 -1.16778 0
M  V30 3322 C 297.505 -5.07212 -0.850915 0
M  V30 3323 N 295.487 -6.12164 -0.461312 0
M  V30 3324 C 296.858 -6.19394 -0.274046 0
M  V30 3325 C 298.913 -4.92218 -0.750036 0
M  V30 3326 C 297.616 -7.18221 0.393868 0
M  V30 3327 C 299.642 -5.91322 -0.095894 0
M  V30 3328 C 299.004 -7.0283 0.470081 0
M  V30 3329 H 295.103 -0.678939 -0.388028 0
M  V30 3330 H 297.687 -1.90811 -0.38722 0
M  V30 3331 H 295.858 -2.71931 -2.77323 0
M  V30 3332 H 297.59 -2.96606 -2.7533 0
M  V30 3333 H 294.345 -4.50849 -1.45024 0
M  V30 3334 H 294.769 -6.76888 -0.123312 0
M  V30 3335 H 299.411 -4.06192 -1.17337 0
M  V30 3336 H 297.129 -8.03835 0.82914 0
M  V30 3337 H 300.715 -5.81797 -0.0187075 0
M  V30 3338 H 299.595 -7.782 0.968241 0
M  V30 3339 N 297.098 0.621204 -1.44841 0
M  V30 3340 C 298.347 1.37658 -1.47422 0
M  V30 3341 C 298.66 1.95264 -0.114629 0
M  V30 3342 O 299.866 2.71494 -0.0180199 0
M  V30 3343 C 298.322 2.49285 -2.59586 0
M  V30 3344 C 297.93 1.98149 -4.01797 0
M  V30 3345 C 299.674 3.26409 -2.71399 0
M  V30 3346 C 297.581 3.07178 -5.05367 0
M  V30 3347 H 296.511 0.517344 -0.548517 0
M  V30 3348 H 299.162 0.667257 -1.70938 0
M  V30 3349 H 297.544 3.22839 -2.29328 0
M  V30 3350 H 298.718 1.31395 -4.41669 0
M  V30 3351 H 297.033 1.33812 -3.94314 0
M  V30 3352 H 299.63 4.07706 -3.45948 0
M  V30 3353 H 299.973 3.76535 -1.77559 0
M  V30 3354 H 300.506 2.5995 -3.01116 0
M  V30 3355 H 297.245 2.61985 -6.00869 0
M  V30 3356 H 296.765 3.72542 -4.70077 0
M  V30 3357 H 298.444 3.71789 -5.29511 0
M  V30 3358 N 298.576 1.31904 0.862503 0
M  V30 3359 C 299.523 1.20182 1.9704 0
M  V30 3360 C 300.493 0.0858247 1.65878 0
M  V30 3361 O 301.678 0.26 1.8902 0
M  V30 3362 C 298.818 0.922797 3.32533 0
M  V30 3363 C 297.931 2.12284 3.76244 0
M  V30 3364 C 297.066 1.77996 5.00491 0
M  V30 3365 C 296.105 2.94366 5.36671 0
M  V30 3366 N 295.242 2.60223 6.52095 0
M  V30 3367 H 300.082 2.14951 2.06398 0
M  V30 3368 H 297.619 1.06917 1.01031 0
M  V30 3369 H 299.577 0.741548 4.10557 0
M  V30 3370 H 298.207 0.0119227 3.22798 0
M  V30 3371 H 297.259 2.41461 2.9394 0
M  V30 3372 H 298.571 2.99357 3.98982 0
M  V30 3373 H 297.725 1.56377 5.862 0
M  V30 3374 H 296.464 0.881252 4.79672 0
M  V30 3375 H 295.469 3.16625 4.49476 0
M  V30 3376 H 296.694 3.84957 5.59451 0
M  V30 3377 H 294.64 1.72884 6.32809 0
M  V30 3378 H 294.557 3.40827 6.74814 0
M  V30 3379 H 295.825 2.42016 7.40978 0
M  V30 3380 N 300.054 -1.07777 1.14986 0
M  V30 3381 C 301.303 -1.79669 0.916617 0
M  V30 3382 C 301.616 -1.87474 -0.557917 0
M  V30 3383 O 302.822 -2.55845 -0.908617 0
M  V30 3384 C 301.278 -3.22848 1.59051 0
M  V30 3385 C 300.886 -3.23257 3.10176 0
M  V30 3386 C 302.63 -3.99379 1.43864 0
M  V30 3387 C 300.537 -4.61063 3.70372 0
M  V30 3388 H 299.467 -0.673349 0.33929 0
M  V30 3389 H 302.118 -1.21003 1.37951 0
M  V30 3390 H 300.5 -3.8168 1.0553 0
M  V30 3391 H 301.674 -2.74095 3.70417 0
M  V30 3392 H 299.989 -2.60222 3.25074 0
M  V30 3393 H 302.586 -5.0122 1.86232 0
M  V30 3394 H 302.929 -4.14511 0.385564 0
M  V30 3395 H 303.462 -3.47032 1.94457 0
M  V30 3396 H 300.201 -4.51135 4.7556 0
M  V30 3397 H 299.721 -5.1048 3.14913 0
M  V30 3398 H 301.4 -5.30034 3.71043 0
M  V30 3399 N 301.532 -0.945985 -1.26051 0
M  V30 3400 C 302.78 -0.594941 -1.93145 0
M  V30 3401 C 303.101 0.86953 -1.7454 0
M  V30 3402 O 302.371 1.61838 -1.10387 0
M  V30 3403 H 300.951 -0.217044 -0.714773 0
M  V30 3404 H 303.613 -1.20235 -1.53393 0
M  V30 3405 H 302.709 -0.816835 -3.01221 0
M  V30 3406 N 303.011 1.40521 -0.713556 0
M  V30 3407 C 304.241 2.0494 -0.261395 0
M  V30 3408 C 304.649 1.53861 1.10107 0
M  V30 3409 O 303.992 0.689321 1.70276 0
M  V30 3410 C 304.054 3.59138 -0.161227 0
M  V30 3411 C 303.718 4.33096 -1.45865 0
M  V30 3412 C 304.715 4.61182 -2.40016 0
M  V30 3413 C 302.4 4.72043 -1.71701 0
M  V30 3414 C 304.394 5.27196 -3.58251 0
M  V30 3415 C 302.081 5.37789 -2.90218 0
M  V30 3416 C 303.079 5.65295 -3.83315 0
M  V30 3417 O 302.767 6.29683 -4.99754 0
M  V30 3418 H 302.499 0.666041 -0.115608 0
M  V30 3419 H 305.053 1.80954 -0.971849 0
M  V30 3420 H 303.283 3.81936 0.605153 0
M  V30 3421 H 304.972 4.05091 0.256105 0
M  V30 3422 H 305.738 4.31559 -2.21318 0
M  V30 3423 H 301.617 4.50003 -1.00092 0
M  V30 3424 H 305.161 5.48582 -4.30934 0
M  V30 3425 H 301.058 5.66831 -3.08825 0
M  V30 3426 H 301.826 6.4818 -4.99805 0
M  V30 3427 N 304.489 0.459591 1.5075 0
M  V30 3428 C 305.436 -0.340524 2.28274 0
M  V30 3429 C 306.406 -0.997371 1.32822 0
M  V30 3430 O 307.591 -1.01202 1.61749 0
M  V30 3431 C 304.731 -1.42317 3.14388 0
M  V30 3432 C 303.844 -0.782251 4.24859 0
M  V30 3433 C 302.979 -1.84182 4.98247 0
M  V30 3434 C 302.018 -1.18053 6.00608 0
M  V30 3435 N 301.155 -2.18244 6.67319 0
M  V30 3436 H 305.995 0.326899 2.96202 0
M  V30 3437 H 303.532 0.173057 1.46078 0
M  V30 3438 H 305.49 -2.06241 3.62658 0
M  V30 3439 H 304.12 -2.05992 2.4853 0
M  V30 3440 H 303.172 -0.0307404 3.80388 0
M  V30 3441 H 304.484 -0.259663 4.98124 0
M  V30 3442 H 303.638 -2.55714 5.50177 0
M  V30 3443 H 302.377 -2.39819 4.24662 0
M  V30 3444 H 301.382 -0.450776 5.47949 0
M  V30 3445 H 302.607 -0.631202 6.7616 0
M  V30 3446 H 300.553 -2.72919 5.96533 0
M  V30 3447 H 300.47 -1.70938 7.36421 0
M  V30 3448 H 301.738 -2.89191 7.23871 0
M  V30 3449 N 305.967 -1.56429 0.191757 0
M  V30 3450 C 306.9 -2.14829 -0.76967 0
M  V30 3451 C 307.878 -1.08405 -1.2119 0
M  V30 3452 O 309.062 -1.36498 -1.30002 0
M  V30 3453 C 306.189 -2.70446 -2.03903 0
M  V30 3454 C 305.235 -3.89428 -1.7392 0
M  V30 3455 S 306.068 -5.28048 -0.890265 0
M  V30 3456 C 307.224 -5.87085 -2.16984 0
M  V30 3457 H 307.457 -2.96042 -0.273204 0
M  V30 3458 H 304.99 -1.54383 -0.0231975 0
M  V30 3459 H 306.948 -3.03134 -2.76803 0
M  V30 3460 H 305.609 -1.89281 -2.50662 0
M  V30 3461 H 304.802 -4.26742 -2.68155 0
M  V30 3462 H 304.404 -3.57732 -1.09103 0
M  V30 3463 H 306.696 -6.01244 -3.12269 0
M  V30 3464 H 307.639 -6.83747 -1.84108 0
M  V30 3465 H 308.047 -5.15663 -2.29678 0
M  V30 3466 N 307.445 0.0818655 -1.57387 0
M  V30 3467 C 308.694 0.781681 -1.85937 0
M  V30 3468 C 309.007 1.79246 -0.782957 0
M  V30 3469 O 310.213 2.54112 -0.955987 0
M  V30 3470 C 308.669 1.44109 -3.29789 0
M  V30 3471 C 308.277 0.469396 -4.45534 0
M  V30 3472 C 310.021 2.12386 -3.67549 0
M  V30 3473 C 307.928 1.13415 -5.80423 0
M  V30 3474 H 306.858 0.295682 -0.693605 0
M  V30 3475 H 309.509 0.0348051 -1.83467 0
M  V30 3476 H 307.891 2.23588 -3.2684 0
M  V30 3477 H 309.065 -0.294856 -4.59856 0
M  V30 3478 H 307.38 -0.108383 -4.16259 0
M  V30 3479 H 309.977 2.62878 -4.65617 0
M  V30 3480 H 310.32 2.91877 -2.96839 0
M  V30 3481 H 310.853 1.39751 -3.72444 0
M  V30 3482 H 307.592 0.379771 -6.54399 0
M  V30 3483 H 307.112 1.8695 -5.69921 0
M  V30 3484 H 308.791 1.65686 -6.25426 0
M  V30 3485 N 308.923 1.53595 0.353017 0
M  V30 3486 C 310.334 1.61937 0.929153 0
M  V30 3487 C 310.685 0.494686 1.89861 0
M  V30 3488 O 309.81 -0.377017 2.1309 0
M  V30 3489 C 310.405 2.93526 1.69199 0
M  V30 3490 C 308.964 3.04161 2.21727 0
M  V30 3491 C 308.111 2.57322 1.03348 0
M  V30 3492 H 311.062 1.58155 0.131431 0
M  V30 3493 H 311.083 2.82034 2.55416 0
M  V30 3494 H 310.595 3.75362 0.986144 0
M  V30 3495 H 308.696 2.26938 2.95516 0
M  V30 3496 H 308.809 4.09465 2.48748 0
M  V30 3497 H 307.173 2.12499 1.40414 0
M  V30 3498 H 307.956 3.41588 0.342428 0
M  V30 3499 N 310.401 -0.613514 1.45168 0
M  V30 3500 C 311.626 -1.40437 1.52618 0
M  V30 3501 C 312.051 -1.87438 0.157707 0
M  V30 3502 O 311.409 -1.59791 -0.856537 0
M  V30 3503 C 311.457 -2.58894 2.51011 0
M  V30 3504 O 310.561 -3.59326 2.02382 0
M  V30 3505 H 309.902 -0.419506 0.514695 0
M  V30 3506 H 312.432 -0.747215 1.90467 0
M  V30 3507 H 312.442 -3.06214 2.69624 0
M  V30 3508 H 311.117 -2.24032 3.50403 0
M  V30 3509 H 309.694 -3.18695 1.93618 0
M  V30 3510 N 311.879 -1.3236 -0.855495 0
M  V30 3511 C 313.126 -1.22872 -1.60962 0
M  V30 3512 C 313.454 0.209658 -1.93367 0
M  V30 3513 O 312.709 1.16243 -1.57436 0
M  V30 3514 C 313.008 -2.03275 -2.93963 0
M  V30 3515 C 312.674 -3.5264 -2.80991 0
M  V30 3516 C 311.336 -3.93364 -2.7716 0
M  V30 3517 C 313.688 -4.47626 -2.66983 0
M  V30 3518 C 311.016 -5.27319 -2.572 0
M  V30 3519 C 313.368 -5.81723 -2.48558 0
M  V30 3520 C 312.032 -6.2165 -2.4312 0
M  V30 3521 H 311.302 -0.44962 -0.589001 0
M  V30 3522 H 313.949 -1.63777 -0.992442 0
M  V30 3523 H 312.254 -1.55095 -3.59795 0
M  V30 3524 H 313.951 -1.93303 -3.51333 0
M  V30 3525 H 310.541 -3.20295 -2.84797 0
M  V30 3526 H 314.725 -4.17084 -2.68988 0
M  V30 3527 H 309.981 -5.57311 -2.51424 0
M  V30 3528 H 314.155 -6.5494 -2.36699 0
M  V30 3529 H 311.782 -7.25388 -2.27412 0
M  V30 3530 N 313.357 1.07166 -1.15556 0
M  V30 3531 C 314.307 2.12649 -0.82247 0
M  V30 3532 C 315.291 1.59725 0.194129 0
M  V30 3533 O 316.483 1.76999 -0.00540402 0
M  V30 3534 C 313.612 3.41847 -0.315572 0
M  V30 3535 C 312.698 4.0162 -1.36244 0
M  V30 3536 N 313.089 4.35625 -2.5703 0
M  V30 3537 C 311.387 4.29114 -1.21562 0
M  V30 3538 C 312.088 4.83017 -3.24144 0
M  V30 3539 N 311.064 4.81906 -2.51531 0
M  V30 3540 H 314.866 2.36776 -1.74111 0
M  V30 3541 H 312.38 1.24622 -1.0413 0
M  V30 3542 H 314.377 4.16859 -0.0585855 0
M  V30 3543 H 313.037 3.19163 0.597105 0
M  V30 3544 H 314.048 4.26253 -2.94158 0
M  V30 3545 H 310.725 4.15919 -0.362988 0
M  V30 3546 H 312.115 5.18605 -4.27198 0
M  V30 3547 N 314.835 0.952656 1.25548 0
M  V30 3548 C 316.082 0.606373 1.93208 0
M  V30 3549 C 316.41 -0.85631 1.74636 0
M  V30 3550 O 315.665 -1.62951 1.08376 0
M  V30 3551 C 315.964 0.908818 3.45652 0
M  V30 3552 C 315.63 2.35722 3.84378 0
M  V30 3553 C 314.292 2.75312 3.9466 0
M  V30 3554 C 316.644 3.29793 4.03591 0
M  V30 3555 C 313.972 4.08047 4.21562 0
M  V30 3556 C 316.324 4.62138 4.31985 0
M  V30 3557 C 314.988 5.01528 4.40484 0
M  V30 3558 H 314.258 0.221888 0.706998 0
M  V30 3559 H 316.905 1.20132 1.49133 0
M  V30 3560 H 315.21 0.231456 3.91116 0
M  V30 3561 H 316.907 0.619498 3.96186 0
M  V30 3562 H 313.497 2.04017 3.76928 0
M  V30 3563 H 317.681 3.00397 3.95064 0
M  V30 3564 H 312.937 4.38212 4.26357 0
M  V30 3565 H 317.111 5.35012 4.45797 0
M  V30 3566 H 314.738 6.04406 4.61083 0
M  V30 3567 N 316.313 -1.40141 0.720998 0
M  V30 3568 C 317.26 -2.30688 0.071919 0
M  V30 3569 C 318.23 -1.48476 -0.744584 0
M  V30 3570 O 319.415 -1.77201 -0.707423 0
M  V30 3571 C 316.555 -3.34724 -0.839855 0
M  V30 3572 C 315.668 -4.31998 -0.0122438 0
M  V30 3573 C 314.803 -5.23102 -0.923995 0
M  V30 3574 C 313.842 -6.12033 -0.0907969 0
M  V30 3575 N 312.979 -6.95537 -0.957718 0
M  V30 3576 H 317.819 -2.85628 0.849755 0
M  V30 3577 H 315.356 -1.40653 0.430726 0
M  V30 3578 H 317.314 -3.93618 -1.38279 0
M  V30 3579 H 315.944 -2.81274 -1.58381 0
M  V30 3580 H 314.996 -3.74841 0.64794 0
M  V30 3581 H 316.308 -4.94772 0.632595 0
M  V30 3582 H 315.462 -5.86953 -1.53527 0
M  V30 3583 H 314.201 -4.60615 -1.60264 0
M  V30 3584 H 313.206 -5.47207 0.533377 0
M  V30 3585 H 314.431 -6.76581 0.584428 0
M  V30 3586 H 312.377 -6.35633 -1.62192 0
M  V30 3587 H 312.294 -7.55099 -0.36904 0
M  V30 3588 H 313.562 -7.63832 -1.555 0
M  V30 3589 N 317.792 -0.46758 -1.50504 0
M  V30 3590 C 319.02 0.0864133 -2.06719 0
M  V30 3591 C 319.435 1.33819 -1.33184 0
M  V30 3592 O 318.792 1.78061 -0.400083 0
M  V30 3593 C 318.843 0.378079 -3.59517 0
M  V30 3594 O 318.564 -0.824044 -4.3028 0
M  V30 3595 C 320.065 0.979426 -4.32345 0
M  V30 3596 H 317.285 -0.00551697 -0.670977 0
M  V30 3597 H 319.829 -0.655354 -1.93715 0
M  V30 3598 H 317.984 1.06977 -3.72337 0
M  V30 3599 H 318.398 -0.566518 -5.21432 0
M  V30 3600 H 319.872 1.1333 -5.40241 0
M  V30 3601 H 320.349 1.9686 -3.9261 0
M  V30 3602 H 320.955 0.326216 -4.24047 0
M  V30 3603 N 319.27 1.56325 -0.20005 0
M  V30 3604 C 320.516 1.98012 0.438059 0
M  V30 3605 C 320.849 1.08702 1.60927 0
M  V30 3606 O 320.124 0.140064 1.93995 0
M  V30 3607 C 320.407 3.48841 0.893419 0
M  V30 3608 C 320.26 4.48928 -0.279947 0
M  V30 3609 C 321.579 4.03498 1.75719 0
M  V30 3610 H 318.698 0.719918 0.157757 0
M  V30 3611 H 321.34 1.87743 -0.291968 0
M  V30 3612 H 319.49 3.57723 1.51547 0
M  V30 3613 H 321.162 4.52079 -0.91772 0
M  V30 3614 H 319.405 4.23694 -0.930919 0
M  V30 3615 H 320.076 5.5194 0.0812601 0
M  V30 3616 H 322.552 3.97427 1.23253 0
M  V30 3617 H 321.428 5.09393 2.04476 0
M  V30 3618 H 321.689 3.4906 2.71311 0
M  V30 3619 N 320.748 -0.0735177 1.57428 0
M  V30 3620 C 321.695 -1.08756 2.0357 0
M  V30 3621 C 322.665 -1.38559 0.916 0
M  V30 3622 O 323.85 -1.49656 1.18354 0
M  V30 3623 C 320.99 -2.39657 2.48311 0
M  V30 3624 C 320.103 -2.16399 3.73892 0
M  V30 3625 C 319.238 -3.40852 4.07423 0
M  V30 3626 C 318.277 -3.1295 5.2605 0
M  V30 3627 N 317.414 -4.29729 5.55228 0
M  V30 3628 H 322.254 -0.687104 2.8997 0
M  V30 3629 H 319.791 -0.327709 1.43403 0
M  V30 3630 H 321.749 -3.16081 2.72303 0
M  V30 3631 H 320.379 -2.77508 1.64891 0
M  V30 3632 H 319.431 -1.30676 3.57251 0
M  V30 3633 H 320.743 -1.91788 4.60455 0
M  V30 3634 H 319.897 -4.25671 4.32306 0
M  V30 3635 H 318.636 -3.68537 3.19425 0
M  V30 3636 H 317.641 -2.26526 5.00965 0
M  V30 3637 H 318.866 -2.86589 6.15665 0
M  V30 3638 H 316.812 -4.57448 4.70188 0
M  V30 3639 H 316.729 -4.08385 6.36206 0
M  V30 3640 H 317.997 -5.1555 5.84661 0
M  V30 3641 N 322.226 -1.5378 -0.344866 0
M  V30 3642 C 323.173 -1.81676 -1.42346 0
M  V30 3643 C 324.143 -0.662376 -1.52321 0
M  V30 3644 O 325.328 -0.906675 -1.67881 0
M  V30 3645 C 322.468 -2.03087 -2.79015 0
M  V30 3646 C 321.581 -3.30799 -2.77842 0
M  V30 3647 C 320.716 -3.42285 -4.0622 0
M  V30 3648 C 319.755 -4.6395 -3.9927 0
M  V30 3649 N 318.892 -4.72477 -5.19336 0
M  V30 3650 H 323.732 -2.73703 -1.17858 0
M  V30 3651 H 321.269 -1.35568 -0.570949 0
M  V30 3652 H 323.227 -2.1349 -3.58438 0
M  V30 3653 H 321.857 -1.14375 -3.01858 0
M  V30 3654 H 320.909 -3.29244 -1.90533 0
M  V30 3655 H 322.221 -4.20314 -2.68584 0
M  V30 3656 H 321.375 -3.52113 -4.94066 0
M  V30 3657 H 320.114 -2.50823 -4.18258 0
M  V30 3658 H 319.119 -4.54201 -3.09809 0
M  V30 3659 H 320.344 -5.56775 -3.88817 0
M  V30 3660 H 318.29 -3.83924 -5.3192 0
M  V30 3661 H 318.207 -5.55927 -5.12329 0
M  V30 3662 H 319.475 -4.86613 -6.08957 0
M  V30 3663 N 323.704 0.605807 -1.45491 0
M  V30 3664 C 324.637 1.73022 -1.48791 0
M  V30 3665 C 325.615 1.58917 -0.344112 0
M  V30 3666 O 326.799 1.80453 -0.544876 0
M  V30 3667 C 323.926 3.10865 -1.34463 0
M  V30 3668 C 322.972 3.43554 -2.5273 0
M  V30 3669 S 323.805 3.38196 -4.15191 0
M  V30 3670 C 324.961 4.78616 -4.03333 0
M  V30 3671 H 325.194 1.69961 -2.43928 0
M  V30 3672 H 322.727 0.782611 -1.33096 0
M  V30 3673 H 324.685 3.90398 -1.26884 0
M  V30 3674 H 323.346 3.1144 -0.40794 0
M  V30 3675 H 322.539 4.43924 -2.38637 0
M  V30 3676 H 322.141 2.71541 -2.5718 0
M  V30 3677 H 324.433 5.68463 -3.68587 0
M  V30 3678 H 325.376 4.97767 -5.03621 0
M  V30 3679 H 325.784 4.54381 -3.34959 0
M  V30 3680 N 325.182 1.32811 0.848464 0
M  V30 3681 C 326.459 1.14334 1.58704 0
M  V30 3682 C 326.839 -0.293948 2.09043 0
M  V30 3683 O 326.187 -1.29153 1.88499 0
M  V30 3684 C 326.397 2.17626 2.72837 0
M  V30 3685 C 327.745 2.51282 3.42261 0
M  V30 3686 O 328.769 2.16219 2.83068 0
M  V30 3687 O 327.628 3.11413 4.49093 0
M  V30 3688 H 324.722 0.441601 0.699226 0
M  V30 3689 H 327.268 1.44362 0.892053 0
M  V30 3690 H 326.04 3.14211 2.3321 0
M  V30 3691 H 325.663 1.88628 3.50008 0
M  V30 3692 N 326.66 -1.06551 1.16123 0
M  V30 3693 C 327.57 -2.17484 0.879662 0
M  V30 3694 C 328.586 -1.73377 -0.147104 0
M  V30 3695 O 329.762 -2.01379 0.0289128 0
M  V30 3696 C 326.827 -3.44591 0.381829 0
M  V30 3697 C 325.888 -4.0322 1.4735 0
M  V30 3698 C 325.121 -5.24261 0.999324 0
M  V30 3699 O 325.344 -5.70198 -0.151957 0
M  V30 3700 O 324.278 -5.74775 1.78653 0
M  V30 3701 H 328.104 -2.44075 1.80724 0
M  V30 3702 H 325.689 -1.16042 0.940992 0
M  V30 3703 H 327.571 -4.21254 0.111053 0
M  V30 3704 H 326.246 -3.19532 -0.51777 0
M  V30 3705 H 325.153 -3.2806 1.79798 0
M  V30 3706 H 326.486 -4.32568 2.34831 0
M  V30 3707 N 328.138 -0.959301 -1.25041 0
M  V30 3708 C 329.368 -0.63303 -1.96663 0
M  V30 3709 C 329.776 0.800031 -1.71453 0
M  V30 3710 O 329.119 1.54736 -0.99008 0
M  V30 3711 C 329.181 -0.817523 -3.50081 0
M  V30 3712 C 328.845 -2.22863 -3.98975 0
M  V30 3713 C 329.842 -3.20569 -4.09306 0
M  V30 3714 C 327.527 -2.55407 -4.32519 0
M  V30 3715 C 329.521 -4.4891 -4.52503 0
M  V30 3716 C 327.208 -3.83976 -4.754 0
M  V30 3717 C 328.206 -4.8054 -4.85356 0
M  V30 3718 O 327.894 -6.06817 -5.27284 0
M  V30 3719 H 327.626 -0.235866 -0.633516 0
M  V30 3720 H 330.18 -1.2874 -1.60047 0
M  V30 3721 H 328.41 -0.105992 -3.86555 0
M  V30 3722 H 330.099 -0.491604 -4.02912 0
M  V30 3723 H 330.865 -2.96753 -3.83618 0
M  V30 3724 H 326.744 -1.8097 -4.23994 0
M  V30 3725 H 330.288 -5.24283 -4.60188 0
M  V30 3726 H 326.185 -4.07596 -5.00535 0
M  V30 3727 H 326.953 -6.10262 -5.45457 0
M  V30 3728 N 329.616 1.39756 -0.72842 0
M  V30 3729 C 330.546 2.33289 -0.0991354 0
M  V30 3730 C 331.527 1.53568 0.731489 0
M  V30 3731 O 332.712 1.81987 0.677807 0
M  V30 3732 C 329.842 3.3763 0.813834 0
M  V30 3733 C 328.796 4.2791 0.0878663 0
M  V30 3734 C 328.122 5.22894 1.11741 0
M  V30 3735 C 329.422 5.11314 -1.06563 0
M  V30 3736 H 331.116 2.86163 -0.880408 0
M  V30 3737 H 328.662 1.37591 -0.424819 0
M  V30 3738 H 330.615 4.0201 1.26355 0
M  V30 3739 H 329.339 2.83181 1.62715 0
M  V30 3740 H 327.998 3.65 -0.342159 0
M  V30 3741 H 327.646 4.64744 1.92412 0
M  V30 3742 H 327.346 5.84143 0.636477 0
M  V30 3743 H 328.87 5.90151 1.56697 0
M  V30 3744 H 330.284 5.69076 -0.694671 0
M  V30 3745 H 328.681 5.81671 -1.47577 0
M  V30 3746 H 329.751 4.46534 -1.89038 0
M  V30 3747 N 331.094 0.475555 1.50254 0
M  V30 3748 C 332.319 -0.0777042 2.07254 0
M  V30 3749 C 332.744 -1.3235 1.3366 0
M  V30 3750 O 332.102 -1.77152 0.385597 0
M  V30 3751 C 332.15 -0.340169 3.58992 0
M  V30 3752 O 331.254 -1.41982 3.87188 0
M  V30 3753 H 330.595 0.0149556 0.663832 0
M  V30 3754 H 333.125 0.667878 1.93392 0
M  V30 3755 H 333.135 -0.579332 4.03866 0
M  V30 3756 H 331.81 0.570167 4.11973 0
M  V30 3757 H 330.387 -1.16762 3.54148 0
M  V30 3758 N 332.573 -1.56217 0.208337 0
M  V30 3759 C 333.85 -1.89739 -0.475234 0
M  V30 3760 C 334.23 -1.1238 -1.78701 0
M  V30 3761 O 333.578 -0.228979 -2.2735 0
M  V30 3762 C 333.788 -3.42289 -0.681101 0
M  V30 3763 C 335.136 -4.12789 -0.994507 0
M  V30 3764 O 336.16 -3.47814 -0.768357 0
M  V30 3765 O 335.019 -5.27649 -1.42299 0
M  V30 3766 H 332.113 -0.788478 -0.249461 0
M  V30 3767 H 334.659 -1.67855 0.249538 0
M  V30 3768 H 333.431 -3.90534 0.244722 0
M  V30 3769 H 333.054 -3.69909 -1.45785 0
M  V30 3770 N 334.051 0.0651679 -1.57465 0
M  V30 3771 C 335.298 0.763063 -1.87573 0
M  V30 3772 C 335.626 1.77242 -0.800961 0
M  V30 3773 O 334.881 1.94651 0.202316 0
M  V30 3774 C 335.18 1.50081 -3.24362 0
M  V30 3775 C 334.846 0.630816 -4.46466 0
M  V30 3776 C 333.508 0.391082 -4.79608 0
M  V30 3777 C 335.86 0.0279465 -5.21193 0
M  V30 3778 C 333.188 -0.460894 -5.84887 0
M  V30 3779 C 335.54 -0.811522 -6.27373 0
M  V30 3780 C 334.204 -1.06106 -6.59013 0
M  V30 3781 H 333.474 0.279224 -0.686378 0
M  V30 3782 H 336.121 0.0236726 -1.91485 0
M  V30 3783 H 334.426 2.31258 -3.16271 0
M  V30 3784 H 336.123 2.04571 -3.44894 0
M  V30 3785 H 332.713 0.8278 -4.2053 0
M  V30 3786 H 336.897 0.200262 -4.95896 0
M  V30 3787 H 332.153 -0.662907 -6.07796 0
M  V30 3788 H 336.327 -1.28537 -6.84435 0
M  V30 3789 H 333.954 -1.723 -7.40417 0
M  V30 3790 N 335.529 1.53961 0.336706 0
M  V30 3791 C 336.492 1.81724 1.39675 0
M  V30 3792 C 337.492 0.688532 1.45313 0
M  V30 3793 O 338.682 0.956829 1.45569 0
M  V30 3794 C 335.814 1.96543 2.78538 0
M  V30 3795 H 337.007 2.76424 1.16318 0
M  V30 3796 H 334.56 1.45478 0.571474 0
M  V30 3797 H 335.295 1.0401 3.07168 0
M  V30 3798 H 335.08 2.78665 2.75841 0
M  V30 3799 H 336.57 2.19516 3.5525 0
M  V30 3800 N 337.007 -0.598083 1.45811 0
M  V30 3801 C 337.954 -1.7082 1.55207 0
M  V30 3802 C 338.924 -1.61278 0.39732 0
M  V30 3803 O 340.109 -1.80717 0.612038 0
M  V30 3804 C 337.249 -3.09144 1.53376 0
M  V30 3805 C 336.362 -3.29423 2.79472 0
M  V30 3806 C 335.497 -4.57907 2.69248 0
M  V30 3807 C 334.536 -4.71476 3.90354 0
M  V30 3808 N 333.673 -5.9127 3.78608 0
M  V30 3809 H 338.513 -1.62125 2.50039 0
M  V30 3810 H 336.05 -0.790389 1.24062 0
M  V30 3811 H 338.008 -3.89186 1.50301 0
M  V30 3812 H 336.638 -3.16773 0.620876 0
M  V30 3813 H 335.69 -2.43091 2.92594 0
M  V30 3814 H 337.002 -3.3532 3.69272 0
M  V30 3815 H 336.156 -5.46157 2.64192 0
M  V30 3816 H 334.895 -4.54423 1.77063 0
M  V30 3817 H 333.9 -3.81648 3.95759 0
M  V30 3818 H 335.125 -4.76751 4.83617 0
M  V30 3819 H 333.071 -5.88813 2.89199 0
M  V30 3820 H 332.988 -5.98369 4.6205 0
M  V30 3821 H 334.256 -6.81992 3.77501 0
M  V30 3822 N 338.485 -1.33259 -0.841409 0
M  V30 3823 C 339.432 -1.23302 -1.95103 0
M  V30 3824 C 340.402 -0.112204 -1.65721 0
M  V30 3825 O 341.587 -0.290038 -1.88583 0
M  V30 3826 C 338.727 -0.975583 -3.31023 0
M  V30 3827 C 337.84 -2.18243 -3.72819 0
M  V30 3828 C 336.975 -1.85936 -4.97595 0
M  V30 3829 C 336.014 -3.02866 -5.3192 0
M  V30 3830 N 335.151 -2.70565 -6.47873 0
M  V30 3831 H 339.991 -2.18207 -2.02952 0
M  V30 3832 H 337.528 -1.0851 -0.993173 0
M  V30 3833 H 339.486 -0.80677 -4.09325 0
M  V30 3834 H 338.116 -0.0632755 -3.22738 0
M  V30 3835 H 337.168 -2.46107 -2.90061 0
M  V30 3836 H 338.48 -3.05666 -3.94169 0
M  V30 3837 H 337.634 -1.65684 -5.83638 0
M  V30 3838 H 336.373 -0.957452 -4.78209 0
M  V30 3839 H 335.378 -3.23736 -4.44382 0
M  V30 3840 H 336.603 -3.93809 -5.53255 0
M  V30 3841 H 334.549 -1.8293 -6.29978 0
M  V30 3842 H 334.466 -3.51519 -6.69306 0
M  V30 3843 H 335.734 -2.53774 -7.37034 0
M  V30 3844 N 339.963 1.05934 -1.16686 0
M  V30 3845 C 341.21 1.788 -0.950622 0
M  V30 3846 C 341.538 1.87384 0.521305 0
M  V30 3847 O 340.793 1.36438 1.40297 0
M  V30 3848 C 341.092 3.23105 -1.52767 0
M  V30 3849 C 340.758 3.34594 -3.02254 0
M  V30 3850 C 339.42 3.37437 -3.43059 0
M  V30 3851 C 341.772 3.36219 -3.98254 0
M  V30 3852 C 339.1 3.39525 -4.78477 0
M  V30 3853 C 341.452 3.39845 -5.33562 0
M  V30 3854 C 340.116 3.40971 -5.73842 0
M  V30 3855 H 339.386 0.654275 -0.347857 0
M  V30 3856 H 342.033 1.24555 -1.45459 0
M  V30 3857 H 340.338 3.80227 -0.94524 0
M  V30 3858 H 342.035 3.7809 -1.336 0
M  V30 3859 H 338.625 3.3309 -2.6972 0
M  V30 3860 H 342.809 3.33231 -3.67792 0
M  V30 3861 H 338.065 3.38703 -5.09009 0
M  V30 3862 H 342.239 3.4005 -6.07733 0
M  V30 3863 H 339.866 3.42342 -6.78753 0
M  V30 3864 N 341.441 0.965919 1.2453 0
M  V30 3865 C 342.391 0.465731 2.23193 0
M  V30 3866 C 343.375 -0.451277 1.54442 0
M  V30 3867 O 344.567 -0.282489 1.74731 0
M  V30 3868 C 341.696 -0.244511 3.42428 0
M  V30 3869 C 340.782 0.691222 4.18429 0
M  V30 3870 N 341.173 1.82771 4.71623 0
M  V30 3871 C 339.471 0.501649 4.4317 0
M  V30 3872 C 340.172 2.41285 5.29298 0
M  V30 3873 N 339.148 1.69819 5.16394 0
M  V30 3874 H 342.95 1.33291 2.61937 0
M  V30 3875 H 340.464 0.824789 1.39896 0
M  V30 3876 H 342.461 -0.620056 4.12263 0
M  V30 3877 H 341.121 -1.10815 3.05205 0
M  V30 3878 H 342.132 2.20929 4.68413 0
M  V30 3879 H 338.809 -0.318177 4.16286 0
M  V30 3880 H 340.199 3.37181 5.8117 0
M  V30 3881 N 342.919 -1.39368 0.735821 0
M  V30 3882 C 343.849 -2.33234 0.111506 0
M  V30 3883 C 344.83 -1.53954 -0.723334 0
M  V30 3884 O 346.015 -1.82344 -0.668147 0
M  V30 3885 C 343.145 -3.38057 -0.795917 0
M  V30 3886 C 342.099 -4.2795 -0.065172 0
M  V30 3887 C 341.425 -5.23479 -1.08967 0
M  V30 3888 C 342.725 -5.10741 1.09273 0
M  V30 3889 H 344.419 -2.85692 0.895571 0
M  V30 3890 H 341.965 -1.37364 0.432109 0
M  V30 3891 H 343.918 -4.02675 -1.24221 0
M  V30 3892 H 342.642 -2.8404 -1.61211 0
M  V30 3893 H 341.301 -3.64813 0.361511 0
M  V30 3894 H 340.949 -4.65758 -1.89944 0
M  V30 3895 H 340.649 -5.84472 -0.605489 0
M  V30 3896 H 342.173 -5.90974 -1.53565 0
M  V30 3897 H 343.587 -5.68699 0.724841 0
M  V30 3898 H 341.984 -5.8088 1.50659 0
M  V30 3899 H 343.054 -4.45525 1.91404 0
M  V30 3900 N 344.397 -0.483516 -1.5 0
M  V30 3901 C 345.625 0.0644831 -2.06799 0
M  V30 3902 C 346.04 1.32399 -1.34596 0
M  V30 3903 O 345.397 1.77626 -0.418946 0
M  V30 3904 C 345.448 0.339927 -3.59898 0
M  V30 3905 O 345.169 -0.869635 -4.29382 0
M  V30 3906 C 346.67 0.933515 -4.33359 0
M  V30 3907 H 343.89 -0.0126333 -0.670881 0
M  V30 3908 H 346.434 -0.675864 -1.93009 0
M  V30 3909 H 344.589 1.03022 -3.7345 0
M  V30 3910 H 345.003 -0.62179 -5.20801 0
M  V30 3911 H 346.477 1.07593 -5.41413 0
M  V30 3912 H 346.954 1.92685 -3.94676 0
M  V30 3913 H 347.56 0.281221 -4.24369 0
M  V30 3914 N 345.875 1.56104 -0.216619 0
M  V30 3915 C 347.103 2.02563 0.421413 0
M  V30 3916 C 347.518 1.0965 1.53695 0
M  V30 3917 O 346.875 0.10521 1.82196 0
M  V30 3918 C 346.926 3.48584 0.957665 0
M  V30 3919 O 346.647 4.37953 -0.113389 0
M  V30 3920 C 348.148 4.10664 1.66943 0
M  V30 3921 H 345.368 0.662944 0.103665 0
M  V30 3922 H 347.912 2.01793 -0.331629 0
M  V30 3923 H 346.067 3.49985 1.661 0
M  V30 3924 H 346.481 5.23704 0.288932 0
M  V30 3925 H 347.955 5.14622 1.99671 0
M  V30 3926 H 348.432 3.55373 2.58083 0
M  V30 3927 H 349.038 4.13098 1.01142 0
M  V30 3928 N 347.353 -0.0568162 1.57498 0
M  V30 3929 C 348.301 -1.08452 2.05769 0
M  V30 3930 C 349.295 -1.39164 0.965903 0
M  V30 3931 O 350.501 -1.38395 1.15095 0
M  V30 3932 H 346.876 -0.367148 0.656282 0
M  V30 3933 H 348.847 -0.651368 2.91204 0
M  V30 3934 C 347.596 -2.38543 2.52968 0
M  V30 3935 H 346.919 -2.15765 3.36579 0
M  V30 3936 H 348.359 -3.08863 2.90481 0
M  V30 3937 C 346.818 -3.05562 1.41893 0
M  V30 3938 O 347.348 -3.94262 0.769442 0
M  V30 3939 N 345.554 -2.6643 1.16032 0
M  V30 3940 H 345.101 -1.94387 1.6903 0
M  V30 3941 H 345.059 -3.11593 0.419219 0
M  V30 3942 N 348.832 -1.54138 -0.328536 0
M  V30 3943 C 349.742 -1.86192 -1.42723 0
M  V30 3944 C 350.758 -0.753382 -1.56844 0
M  V30 3945 O 351.934 -1.04718 -1.72035 0
M  V30 3946 C 348.999 -2.07824 -2.77507 0
M  V30 3947 C 348.06 -3.31641 -2.72603 0
M  V30 3948 C 347.293 -3.52232 -4.00959 0
M  V30 3949 O 347.516 -2.7636 -4.9898 0
M  V30 3950 O 346.45 -4.45699 -4.0452 0
M  V30 3951 H 350.276 -2.79608 -1.18547 0
M  V30 3952 H 347.861 -1.3998 -0.522104 0
M  V30 3953 H 349.743 -2.23411 -3.57303 0
M  V30 3954 H 348.418 -1.17596 -3.01584 0
M  V30 3955 H 347.325 -3.21444 -1.91376 0
M  V30 3956 H 348.658 -4.2191 -2.53481 0
M  V30 3957 N 350.31 0.590341 -1.46126 0
M  V30 3958 C 351.538 1.37504 -1.54597 0
M  V30 3959 C 351.953 1.87897 -0.184447 0
M  V30 3960 O 351.31 1.63192 0.816984 0
M  V30 3961 C 351.361 2.56779 -2.54454 0
M  V30 3962 O 351.082 2.08476 -3.85317 0
M  V30 3963 C 352.583 3.49427 -2.72792 0
M  V30 3964 H 349.803 0.420325 -0.523037 0
M  V30 3965 H 352.347 0.718383 -1.91467 0
M  V30 3966 H 350.502 3.1845 -2.20609 0
M  V30 3967 H 350.916 2.86097 -4.396 0
M  V30 3968 H 352.39 4.29619 -3.466 0
M  V30 3969 H 352.867 4.00876 -1.79429 0
M  V30 3970 H 353.473 2.93598 -3.07702 0
M  V30 3971 N 351.788 1.33704 0.83433 0
M  V30 3972 C 352.698 1.26382 1.97648 0
M  V30 3973 C 353.714 0.173548 1.73132 0
M  V30 3974 O 354.89 0.397962 1.97429 0
M  V30 3975 C 351.955 1.00769 3.31733 0
M  V30 3976 C 351.016 2.1884 3.69334 0
M  V30 3977 C 350.249 1.9444 4.9702 0
M  V30 3978 O 350.472 0.896961 5.63303 0
M  V30 3979 O 349.406 2.81093 5.32231 0
M  V30 3980 H 353.232 2.22444 2.06767 0
M  V30 3981 H 350.817 1.13795 0.968037 0
M  V30 3982 H 352.699 0.882186 4.12062 0
M  V30 3983 H 351.374 0.0773783 3.23608 0
M  V30 3984 H 350.281 2.36946 2.89495 0
M  V30 3985 H 351.614 3.10221 3.82131 0
M  V30 3986 N 353.266 -1.05314 1.17247 0
M  V30 3987 C 354.491 -1.82509 0.985148 0
M  V30 3988 C 354.916 -1.82343 -0.461788 0
M  V30 3989 O 354.274 -1.23151 -1.33055 0
M  V30 3990 C 354.322 -3.26566 1.52929 0
M  V30 3991 O 353.426 -4.05666 0.742225 0
M  V30 3992 H 352.767 -0.564347 0.349869 0
M  V30 3993 H 355.297 -1.32718 1.55715 0
M  V30 3994 H 355.307 -3.77369 1.55103 0
M  V30 3995 H 353.982 -3.26001 2.58256 0
M  V30 3996 H 352.559 -3.64397 0.791794 0
M  V30 3997 N 354.744 -0.972509 -1.24016 0
M  V30 3998 C 356.16 -0.679827 -1.44397 0
M  V30 3999 C 356.36 0.756716 -1.86751 0
M  V30 4000 O 355.416 1.53007 -2.00861 0
M  V30 4001 C 356.729 -1.66803 -2.50195 0
M  V30 4002 C 358.277 -1.68119 -2.64017 0
M  V30 4003 C 358.752 -2.65748 -3.73017 0
M  V30 4004 N 360.243 -2.64219 -3.8045 0
M  V30 4005 C 360.978 -3.36433 -4.64328 0
M  V30 4006 N 360.474 -4.1818 -5.52356 0
M  V30 4007 N 362.267 -3.25235 -4.58453 0
M  V30 4008 H 354.418 -1.90059 -0.948228 0
M  V30 4009 H 356.681 -0.818527 -0.478245 0
M  V30 4010 H 356.387 -2.69498 -2.25973 0
M  V30 4011 H 356.261 -1.4446 -3.48441 0
M  V30 4012 H 358.648 -0.661319 -2.87594 0
M  V30 4013 H 358.729 -1.94525 -1.66113 0
M  V30 4014 H 358.373 -3.67872 -3.50189 0
M  V30 4015 H 358.303 -2.36619 -4.70446 0
M  V30 4016 H 360.794 -2.04887 -3.17537 0
M  V30 4017 H 361.107 -4.70157 -6.13329 0
M  V30 4018 H 359.452 -4.22273 -5.52006 0
M  V30 4019 H 362.643 -2.60829 -3.88698 0
M  V30 4020 H 362.816 -3.81776 -5.23594 0
M  V30 4021 N 356.222 1.38976 -0.743202 0
M  V30 4022 C 357.17 2.32394 -0.0978389 0
M  V30 4023 C 358.164 1.53486 0.716824 0
M  V30 4024 O 359.37 1.69092 0.617088 0
M  V30 4025 H 355.745 0.75189 -0.0128402 0
M  V30 4026 H 357.716 2.84441 -0.901981 0
M  V30 4027 C 356.465 3.38629 0.789036 0
M  V30 4028 H 355.788 3.99432 0.171559 0
M  V30 4029 H 357.228 4.06426 1.20807 0
M  V30 4030 C 355.687 2.76347 1.92702 0
M  V30 4031 O 356.217 2.64836 3.02034 0
M  V30 4032 N 354.423 2.34311 1.71891 0
M  V30 4033 H 353.97 2.43873 0.829675 0
M  V30 4034 H 353.928 1.9298 2.48205 0
M  V30 4035 N 357.7 0.491464 1.49741 0
M  V30 4036 C 358.93 -0.0534375 2.06531 0
M  V30 4037 C 359.338 -1.32233 1.35318 0
M  V30 4038 O 358.681 -1.78781 0.422243 0
M  V30 4039 C 358.743 -0.387034 3.57411 0
M  V30 4040 C 358.407 0.782764 4.50246 0
M  V30 4041 C 359.404 1.67059 4.92329 0
M  V30 4042 C 357.089 0.978866 4.9267 0
M  V30 4043 C 359.083 2.73874 5.75562 0
M  V30 4044 C 356.77 2.05022 5.75682 0
M  V30 4045 C 357.768 2.92851 6.17031 0
M  V30 4046 O 357.456 3.98138 6.98385 0
M  V30 4047 H 357.188 0.0129324 0.675876 0
M  V30 4048 H 359.742 0.685238 1.93633 0
M  V30 4049 H 357.972 -1.17918 3.68283 0
M  V30 4050 H 359.661 -0.869419 3.96479 0
M  V30 4051 H 360.427 1.53086 4.60206 0
M  V30 4052 H 356.306 0.304646 4.59992 0
M  V30 4053 H 359.85 3.42458 6.07757 0
M  V30 4054 H 355.747 2.18993 6.07217 0
M  V30 4055 H 356.515 3.95374 7.16674 0
M  V30 4056 N 359.178 -1.55987 0.224894 0
M  V30 4057 C 360.589 -1.84553 -0.282345 0
M  V30 4058 C 360.94 -1.14634 -1.59227 0
M  V30 4059 O 360.065 -0.417155 -2.12341 0
M  V30 4060 C 360.66 -3.348 -0.519062 0
M  V30 4061 C 359.219 -3.63671 -0.970604 0
M  V30 4062 C 358.366 -2.77277 -0.0355261 0
M  V30 4063 H 361.317 -1.52245 0.448006 0
M  V30 4064 H 361.338 -3.55187 -1.36463 0
M  V30 4065 H 360.85 -3.8566 0.43449 0
M  V30 4066 H 358.951 -3.1827 -1.9374 0
M  V30 4067 H 359.064 -4.71631 -0.842698 0
M  V30 4068 H 357.428 -2.48846 -0.542927 0
M  V30 4069 H 358.211 -3.30937 0.913003 0
M  V30 4070 N 360.656 0.0484629 -1.57525 0
M  V30 4071 C 361.586 1.0549 -2.08313 0
M  V30 4072 C 362.567 1.38929 -0.981463 0
M  V30 4073 O 363.752 1.48151 -1.25558 0
M  V30 4074 C 360.882 2.36162 -2.54646 0
M  V30 4075 C 359.836 2.17016 -3.68901 0
M  V30 4076 C 359.162 3.53278 -4.01371 0
M  V30 4077 C 360.462 1.57219 -4.98076 0
M  V30 4078 H 362.156 0.632195 -2.92649 0
M  V30 4079 H 359.702 0.302654 -1.40784 0
M  V30 4080 H 361.655 3.06882 -2.88793 0
M  V30 4081 H 360.379 2.80456 -1.67368 0
M  V30 4082 H 359.038 1.48733 -3.35073 0
M  V30 4083 H 358.686 3.95185 -3.11188 0
M  V30 4084 H 358.386 3.41299 -4.78318 0
M  V30 4085 H 359.91 4.25391 -4.38035 0
M  V30 4086 H 361.324 2.17832 -5.30304 0
M  V30 4087 H 359.721 1.55871 -5.79503 0
M  V30 4088 H 360.791 0.535956 -4.81929 0
M  V30 4089 N 362.134 1.5431 0.320358 0
M  V30 4090 C 363.044 1.86946 1.41734 0
M  V30 4091 C 364.06 0.761689 1.56443 0
M  V30 4092 O 365.236 1.05629 1.71477 0
M  V30 4093 C 362.301 2.09293 2.76401 0
M  V30 4094 C 361.362 3.33082 2.70841 0
M  V30 4095 C 360.595 3.54353 3.99086 0
M  V30 4096 O 360.818 2.79002 4.97508 0
M  V30 4097 O 359.752 4.47838 4.0215 0
M  V30 4098 H 363.578 2.80232 1.17062 0
M  V30 4099 H 361.163 1.40255 0.514673 0
M  V30 4100 H 363.045 2.25303 3.56113 0
M  V30 4101 H 361.72 1.19194 3.00956 0
M  V30 4102 H 360.627 3.22454 1.89668 0
M  V30 4103 H 361.96 4.23249 2.5124 0
M  V30 4104 N 363.613 -0.582584 1.46437 0
M  V30 4105 C 364.56 -1.69164 1.5701 0
M  V30 4106 C 365.53 -1.60847 0.414403 0
M  V30 4107 O 366.715 -1.80058 0.631171 0
M  V30 4108 C 363.855 -3.075 1.56646 0
M  V30 4109 C 362.968 -3.2644 2.82951 0
M  V30 4110 C 362.103 -4.55026 2.7409 0
M  V30 4111 C 361.142 -4.6731 3.95333 0
M  V30 4112 N 360.279 -5.87221 3.84858 0
M  V30 4113 H 365.119 -1.59464 2.51744 0
M  V30 4114 H 362.656 -0.777186 1.24893 0
M  V30 4115 H 364.614 -3.8757 1.5442 0
M  V30 4116 H 363.244 -3.16096 0.654439 0
M  V30 4117 H 362.296 -2.39974 2.95155 0
M  V30 4118 H 363.608 -3.31385 3.72808 0
M  V30 4119 H 362.762 -5.43324 2.6997 0
M  V30 4120 H 361.501 -4.52519 1.81873 0
M  V30 4121 H 360.506 -3.77429 3.99784 0
M  V30 4122 H 361.731 -4.71595 4.88646 0
M  V30 4123 H 359.677 -5.85712 2.95427 0
M  V30 4124 H 359.594 -5.93435 4.6837 0
M  V30 4125 H 360.862 -6.7795 3.84713 0
M  V30 4126 N 365.091 -1.34144 -0.827227 0
M  V30 4127 C 366.054 -1.25264 -1.91942 0
M  V30 4128 C 367.054 -0.168866 -1.59911 0
M  V30 4129 O 368.244 -0.421198 -1.69031 0
M  V30 4130 C 365.376 -0.932952 -3.27885 0
M  V30 4131 H 366.569 -2.22357 -2.0124 0
M  V30 4132 H 364.122 -1.1837 -1.0207 0
M  V30 4133 H 364.857 0.0349917 -3.24281 0
M  V30 4134 H 364.642 -1.71682 -3.52516 0
M  V30 4135 H 366.132 -0.895874 -4.07877 0
M  V30 4136 N 366.569 1.04691 -1.17803 0
M  V30 4137 C 367.797 1.81446 -0.99423 0
M  V30 4138 C 368.212 1.83174 0.457459 0
M  V30 4139 O 367.569 1.26265 1.31771 0
M  V30 4140 C 367.62 3.27334 -1.5341 0
M  V30 4141 O 367.341 3.25798 -2.92895 0
M  V30 4142 C 368.842 4.20759 -1.39559 0
M  V30 4143 H 366.062 0.571599 -0.351447 0
M  V30 4144 H 368.606 1.31982 -1.56208 0
M  V30 4145 H 366.761 3.74052 -1.00815 0
M  V30 4146 H 367.175 4.17144 -3.17949 0
M  V30 4147 H 368.649 5.21084 -1.82141 0
M  V30 4148 H 369.126 4.37856 -0.343394 0
M  V30 4149 H 369.732 3.79901 -1.91195 0
M  V30 4150 N 368.047 0.979072 1.23499 0
M  V30 4151 C 369.272 0.664845 1.96455 0
M  V30 4152 C 369.697 -0.761287 1.72006 0
M  V30 4153 O 369.055 -1.51837 0.990713 0
M  V30 4154 C 369.103 0.959479 3.47601 0
M  V30 4155 O 368.207 0.0508168 4.12369 0
M  V30 4156 H 367.548 0.250185 0.615064 0
M  V30 4157 H 370.078 1.31231 1.5697 0
M  V30 4158 H 370.088 0.895642 3.98048 0
M  V30 4159 H 368.763 1.99876 3.64723 0
M  V30 4160 H 367.34 0.16895 3.72517 0
M  V30 4161 N 369.525 -1.3858 0.750561 0
M  V30 4162 C 370.475 -2.27795 0.0965949 0
M  V30 4163 C 371.459 -1.45048 -0.696411 0
M  V30 4164 O 372.651 -1.67812 -0.562863 0
M  V30 4165 C 369.78 -3.33894 -0.798085 0
M  V30 4166 C 368.866 -4.241 0.0016067 0
M  V30 4167 N 369.257 -4.95067 1.03647 0
M  V30 4168 C 367.555 -4.45429 -0.225674 0
M  V30 4169 C 368.256 -5.61489 1.52004 0
M  V30 4170 N 367.232 -5.37135 0.835874 0
M  V30 4171 H 371.034 -2.80125 0.889228 0
M  V30 4172 H 368.548 -1.51446 0.586323 0
M  V30 4173 H 370.545 -3.96693 -1.28219 0
M  V30 4174 H 369.205 -2.83123 -1.5897 0
M  V30 4175 H 370.216 -4.98104 1.41819 0
M  V30 4176 H 366.893 -4.05571 -0.990872 0
M  V30 4177 H 368.283 -6.28264 2.38188 0
M  V30 4178 N 371.003 -0.499398 -1.49478 0
M  V30 4179 C 371.933 0.269244 -2.31943 0
M  V30 4180 C 372.914 0.964054 -1.40143 0
M  V30 4181 O 374.099 0.955767 -1.69052 0
M  V30 4182 C 371.229 1.33504 -3.20615 0
M  V30 4183 C 370.183 0.760202 -4.21195 0
M  V30 4184 C 369.509 1.9264 -4.98792 0
M  V30 4185 C 370.809 -0.247661 -5.21712 0
M  V30 4186 H 372.503 -0.419082 -2.96452 0
M  V30 4187 H 370.049 -0.202988 -1.42562 0
M  V30 4188 H 372.002 1.88048 -3.77115 0
M  V30 4189 H 370.726 2.05253 -2.54045 0
M  V30 4190 H 369.385 0.23653 -3.65836 0
M  V30 4191 H 369.033 2.63154 -4.28671 0
M  V30 4192 H 368.733 1.54785 -5.66847 0
M  V30 4193 H 370.257 2.4762 -5.58137 0
M  V30 4194 H 371.671 0.209579 -5.72917 0
M  V30 4195 H 370.068 -0.541962 -5.97648 0
M  V30 4196 H 371.138 -1.16409 -4.7072 0
M  V30 4197 N 372.481 1.55866 -0.233164 0
M  V30 4198 C 373.411 2.23783 0.666599 0
M  V30 4199 C 374.392 1.21343 1.19205 0
M  V30 4200 O 375.577 1.4996 1.23392 0
M  V30 4201 C 372.707 2.92671 1.86978 0
M  V30 4202 C 371.661 4.01682 1.47768 0
M  V30 4203 C 370.987 4.57926 2.76058 0
M  V30 4204 C 372.287 5.18126 0.658993 0
M  V30 4205 H 373.981 2.99232 0.100306 0
M  V30 4206 H 371.527 1.43924 0.046804 0
M  V30 4207 H 373.48 3.3888 2.50476 0
M  V30 4208 H 372.204 2.14688 2.46123 0
M  V30 4209 H 370.863 3.56222 0.866106 0
M  V30 4210 H 370.511 3.76659 3.33372 0
M  V30 4211 H 370.211 5.31505 2.50552 0
M  V30 4212 H 371.735 5.06859 3.40479 0
M  V30 4213 H 373.149 5.60644 1.19795 0
M  V30 4214 H 371.546 5.98009 0.500552 0
M  V30 4215 H 372.616 4.83763 -0.331856 0
M  V30 4216 N 373.959 -0.0401083 1.57549 0
M  V30 4217 C 375.207 -0.731677 1.8839 0
M  V30 4218 C 375.528 -1.76481 0.829425 0
M  V30 4219 O 374.798 -1.95411 -0.1383 0
M  V30 4220 H 373.378 -0.273225 0.695239 0
M  V30 4221 H 376.04 -0.00867725 1.94898 0
M  V30 4222 H 375.136 -1.22816 2.86919 0
M  V30 4223 N 375.437 -1.54477 -0.31217 0
M  V30 4224 C 376.667 -1.76948 -1.06645 0
M  V30 4225 C 377.075 -0.523593 -1.81811 0
M  V30 4226 O 376.418 0.51578 -1.76311 0
M  V30 4227 C 376.48 -2.91668 -2.10166 0
M  V30 4228 C 376.144 -4.30165 -1.54296 0
M  V30 4229 C 377.141 -5.10603 -0.978793 0
M  V30 4230 C 374.826 -4.76738 -1.58196 0
M  V30 4231 C 376.82 -6.3573 -0.461048 0
M  V30 4232 C 374.507 -6.01831 -1.06034 0
M  V30 4233 C 375.505 -6.81161 -0.500844 0
M  V30 4234 O 375.193 -8.03899 0.0128958 0
M  V30 4235 H 374.925 -0.594088 -0.322546 0
M  V30 4236 H 377.479 -2.02213 -0.360441 0
M  V30 4237 H 375.709 -2.62001 -2.84416 0
M  V30 4238 H 377.398 -3.01817 -2.71406 0
M  V30 4239 H 378.164 -4.75771 -0.941651 0
M  V30 4240 H 374.043 -4.15027 -2.00683 0
M  V30 4241 H 377.587 -6.97596 -0.0236894 0
M  V30 4242 H 373.484 -6.36152 -1.09459 0
M  V30 4243 H 374.252 -8.18437 -0.101457 0
M  V30 4244 N 376.915 0.57481 -1.46744 0
M  V30 4245 C 378.161 1.3347 -1.52688 0
M  V30 4246 C 378.494 1.93353 -0.181229 0
M  V30 4247 O 377.769 1.76912 0.808237 0
M  V30 4248 C 378.052 2.45811 -2.63152 0
M  V30 4249 C 377.905 1.90912 -4.07275 0
M  V30 4250 C 379.224 3.47822 -2.69644 0
M  V30 4251 H 376.343 0.483935 -0.555856 0
M  V30 4252 H 378.985 0.644968 -1.78718 0
M  V30 4253 H 377.135 3.04646 -2.41088 0
M  V30 4254 H 378.807 1.36473 -4.4065 0
M  V30 4255 H 377.05 1.21691 -4.16382 0
M  V30 4256 H 377.721 2.72042 -4.80309 0
M  V30 4257 H 380.197 2.9888 -2.895 0
M  V30 4258 H 379.073 4.23876 -3.48742 0
M  V30 4259 H 379.334 4.05555 -1.76005 0
M  V30 4260 N 378.394 1.34581 0.820102 0
M  V30 4261 C 379.642 1.26845 1.57336 0
M  V30 4262 C 379.963 -0.160667 1.94337 0
M  V30 4263 O 379.233 -1.09396 1.6251 0
M  V30 4264 H 377.813 0.466514 0.583415 0
M  V30 4265 H 380.475 1.68526 0.979027 0
M  V30 4266 H 379.571 1.87513 2.4949 0
M  V30 4267 N 379.872 -1.04064 1.18357 0
M  V30 4268 C 381.283 -1.58719 0.98312 0
M  V30 4269 C 381.634 -1.90556 -0.467193 0
M  V30 4270 O 380.759 -1.69561 -1.34454 0
M  V30 4271 C 381.354 -2.88379 1.77828 0
M  V30 4272 C 379.913 -3.3965 1.62218 0
M  V30 4273 C 379.06 -2.13235 1.77274 0
M  V30 4274 H 382.011 -0.867359 1.32901 0
M  V30 4275 H 382.032 -3.58773 1.26737 0
M  V30 4276 H 381.544 -2.65176 2.83379 0
M  V30 4277 H 379.645 -3.67866 0.592036 0
M  V30 4278 H 379.758 -4.13475 2.42023 0
M  V30 4279 H 378.122 -2.24542 1.20221 0
M  V30 4280 H 378.905 -1.92487 2.8426 0
M  V30 4281 N 381.35 -0.985608 -1.22978 0
M  V30 4282 C 382.599 -0.652881 -1.90841 0
M  V30 4283 C 382.912 0.817842 -1.77681 0
M  V30 4284 O 384.118 1.26185 -2.40395 0
M  V30 4285 C 382.574 -1.11717 -3.42122 0
M  V30 4286 C 382.182 -2.6126 -3.63933 0
M  V30 4287 C 383.926 -0.85843 -4.1573 0
M  V30 4288 C 381.833 -3.0133 -5.08876 0
M  V30 4289 H 380.763 -0.240491 -0.714619 0
M  V30 4290 H 383.414 -1.1942 -1.39324 0
M  V30 4291 H 381.796 -0.504027 -3.92779 0
M  V30 4292 H 382.97 -3.27858 -3.23799 0
M  V30 4293 H 381.285 -2.84937 -3.03644 0
M  V30 4294 H 383.882 -1.13359 -5.22546 0
M  V30 4295 H 384.225 0.205461 -4.15793 0
M  V30 4296 H 384.758 -1.43341 -3.71077 0
M  V30 4297 H 381.497 -4.06864 -5.13947 0
M  V30 4298 H 381.017 -2.3943 -5.49939 0
M  V30 4299 H 382.696 -2.92224 -5.77247 0
M  V30 4300 N 382.828 1.3818 -0.7579 0
M  V30 4301 C 383.776 2.32277 -0.122482 0
M  V30 4302 C 384.77 1.54238 0.700505 0
M  V30 4303 O 385.976 1.69737 0.599119 0
M  V30 4304 H 382.351 0.751712 -0.0208143 0
M  V30 4305 H 384.322 2.83469 -0.932099 0
M  V30 4306 C 383.071 3.39447 0.753076 0
M  V30 4307 H 382.394 3.99591 0.129184 0
M  V30 4308 H 383.834 4.07684 1.16489 0
M  V30 4309 C 382.293 2.78375 1.8976 0
M  V30 4310 O 382.823 2.68025 2.99208 0
M  V30 4311 N 381.029 2.36121 1.69397 0
M  V30 4312 H 380.576 2.4474 0.803762 0
M  V30 4313 H 380.534 1.95602 2.46145 0
M  V30 4314 N 384.306 0.507319 1.49211 0
M  V30 4315 C 385.531 -0.033725 2.07373 0
M  V30 4316 C 385.956 -1.29485 1.36437 0
M  V30 4317 O 385.314 -1.76294 0.423087 0
M  V30 4318 C 385.362 -0.263945 3.59633 0
M  V30 4319 O 384.466 -1.33737 3.90113 0
M  V30 4320 H 383.807 0.0290331 0.663365 0
M  V30 4321 H 386.337 0.708749 1.91932 0
M  V30 4322 H 386.347 -0.493536 4.05004 0
M  V30 4323 H 385.022 0.657424 4.10671 0
M  V30 4324 H 383.599 -1.09224 3.56545 0
M  V30 4325 N 385.784 -1.5574 0.241426 0
M  V30 4326 C 386.694 -2.2479 -0.671305 0
M  V30 4327 C 387.71 -1.26217 -1.19772 0
M  V30 4328 O 388.886 -1.59079 -1.23514 0
M  V30 4329 C 385.951 -2.92966 -1.85396 0
M  V30 4330 C 385.012 -4.06935 -1.36756 0
M  V30 4331 C 384.245 -4.71851 -2.49384 0
M  V30 4332 O 384.468 -4.35823 -3.67987 0
M  V30 4333 O 383.402 -5.60467 -2.19454 0
M  V30 4334 H 387.228 -3.0349 -0.112966 0
M  V30 4335 H 384.813 -1.49397 0.0101513 0
M  V30 4336 H 386.695 -3.35927 -2.54423 0
M  V30 4337 H 385.37 -2.17211 -2.40002 0
M  V30 4338 H 384.277 -3.68503 -0.644726 0
M  V30 4339 H 385.61 -4.84492 -0.867647 0
M  V30 4340 N 387.262 0.0317525 -1.57568 0
M  V30 4341 C 388.172 1.05021 -2.0978 0
M  V30 4342 C 389.188 1.39809 -1.03583 0
M  V30 4343 O 390.364 1.49182 -1.35302 0
M  V30 4344 C 387.429 2.33301 -2.56459 0
M  V30 4345 C 386.49 2.0512 -3.77127 0
M  V30 4346 C 385.723 3.27283 -4.2157 0
M  V30 4347 O 385.946 4.37861 -3.65559 0
M  V30 4348 O 384.88 3.13141 -5.14029 0
M  V30 4349 H 388.706 0.636505 -2.96955 0
M  V30 4350 H 386.291 0.248559 -1.47318 0
M  V30 4351 H 388.173 3.08722 -2.86825 0
M  V30 4352 H 386.848 2.73973 -1.72397 0
M  V30 4353 H 385.755 1.27276 -3.51784 0
M  V30 4354 H 387.088 1.69305 -4.62165 0
M  V30 4355 N 388.74 1.54641 0.303973 0
M  V30 4356 C 389.67 1.88386 1.3796 0
M  V30 4357 C 390.651 0.742485 1.5304 0
M  V30 4358 O 391.836 0.997959 1.66597 0
M  V30 4359 C 388.966 2.12854 2.74427 0
M  V30 4360 C 387.92 3.28702 2.74115 0
M  V30 4361 C 387.246 3.38582 4.13844 0
M  V30 4362 C 388.546 4.65881 2.3612 0
M  V30 4363 H 390.24 2.78474 1.09966 0
M  V30 4364 H 387.786 1.33988 0.527556 0
M  V30 4365 H 389.739 2.35047 3.49758 0
M  V30 4366 H 388.463 1.19535 3.03939 0
M  V30 4367 H 387.122 3.06428 2.0124 0
M  V30 4368 H 386.77 2.42784 4.40528 0
M  V30 4369 H 386.47 4.16453 4.14537 0
M  V30 4370 H 387.994 3.63031 4.90959 0
M  V30 4371 H 389.408 4.87823 3.01167 0
M  V30 4372 H 387.805 5.46444 2.48031 0
M  V30 4373 H 388.875 4.66799 1.3125 0
M  V30 4374 N 390.218 -0.567019 1.47046 0
M  V30 4375 C 391.165 -1.67489 1.58796 0
M  V30 4376 C 392.135 -1.60399 0.43144 0
M  V30 4377 O 393.32 -1.79378 0.650233 0
M  V30 4378 C 390.46 -3.05821 1.59899 0
M  V30 4379 C 389.573 -3.2342 2.86397 0
M  V30 4380 C 388.708 -4.52093 2.789 0
M  V30 4381 C 387.747 -4.6309 4.00267 0
M  V30 4382 N 386.884 -5.83106 3.91064 0
M  V30 4383 H 391.724 -1.56785 2.53422 0
M  V30 4384 H 389.261 -0.763896 1.2571 0
M  V30 4385 H 391.219 -3.8591 1.58522 0
M  V30 4386 H 389.849 -3.15384 0.687929 0
M  V30 4387 H 388.901 -2.3683 2.97684 0
M  V30 4388 H 390.213 -3.27412 3.76301 0
M  V30 4389 H 389.367 -5.4043 2.75718 0
M  V30 4390 H 388.106 -4.50565 1.86662 0
M  V30 4391 H 387.111 -3.73168 4.03765 0
M  V30 4392 H 388.336 -4.66386 4.93621 0
M  V30 4393 H 386.282 -5.82546 3.01623 0
M  V30 4394 H 386.199 -5.88434 4.74638 0
M  V30 4395 H 387.467 -6.73831 3.91882 0
M  V30 4396 N 391.696 -1.35014 -0.812953 0
M  V30 4397 C 392.628 -1.23262 -1.93233 0
M  V30 4398 C 393.641 -0.157371 -1.62038 0
M  V30 4399 O 394.83 -0.410096 -1.73725 0
M  V30 4400 C 391.93 -0.87392 -3.27438 0
M  V30 4401 C 391.103 -2.04622 -3.86586 0
M  V30 4402 C 390.162 -1.66432 -4.99186 0
M  V30 4403 O 389.188 -2.38222 -5.16951 0
M  V30 4404 N 390.39 -0.584248 -5.77552 0
M  V30 4405 H 393.155 -2.19699 -2.03844 0
M  V30 4406 H 390.716 -1.281 -0.99005 0
M  V30 4407 H 392.708 -0.600039 -4.00227 0
M  V30 4408 H 391.278 0.00057392 -3.126 0
M  V30 4409 H 390.498 -2.48427 -3.06068 0
M  V30 4410 H 391.786 -2.82999 -4.22835 0
M  V30 4411 H 391.184 0.0123526 -5.65699 0
M  V30 4412 H 389.741 -0.37013 -6.50748 0
M  V30 4413 N 393.175 1.03435 -1.18907 0
M  V30 4414 C 394.122 2.11591 -0.921837 0
M  V30 4415 C 395.092 1.65499 0.141226 0
M  V30 4416 O 396.277 1.908 0.000242829 0
M  V30 4417 C 393.417 3.42012 -0.460616 0
M  V30 4418 C 392.53 4.01682 -1.58982 0
M  V30 4419 C 391.665 5.20091 -1.08069 0
M  V30 4420 C 390.704 5.71805 -2.18416 0
M  V30 4421 N 389.841 6.81494 -1.68849 0
M  V30 4422 H 394.681 2.33787 -1.8479 0
M  V30 4423 H 392.218 1.1467 -0.921373 0
M  V30 4424 H 394.176 4.16834 -0.174642 0
M  V30 4425 H 392.806 3.19944 0.428467 0
M  V30 4426 H 391.858 3.24127 -1.99113 0
M  V30 4427 H 393.17 4.36084 -2.4214 0
M  V30 4428 H 392.324 6.02051 -0.749615 0
M  V30 4429 H 391.063 4.87209 -0.218771 0
M  V30 4430 H 390.068 4.88461 -2.5236 0
M  V30 4431 H 391.293 6.06728 -3.05054 0
M  V30 4432 H 389.239 6.50475 -0.849572 0
M  V30 4433 H 389.156 7.14994 -2.45601 0
M  V30 4434 H 390.424 7.67063 -1.38689 0
M  V30 4435 N 394.653 0.992116 1.22453 0
M  V30 4436 C 395.563 0.55065 2.28046 0
M  V30 4437 C 396.579 -0.400189 1.69335 0
M  V30 4438 O 397.755 -0.267215 1.99619 0
M  V30 4439 C 394.82 -0.128496 3.46462 0
M  V30 4440 C 393.881 0.865208 4.20491 0
M  V30 4441 C 393.114 0.218377 5.33253 0
M  V30 4442 O 393.337 -0.987894 5.6178 0
M  V30 4443 O 392.271 0.922845 5.94783 0
M  V30 4444 H 396.097 1.4291 2.67975 0
M  V30 4445 H 393.682 0.760326 1.28606 0
M  V30 4446 H 395.564 -0.508947 4.18315 0
M  V30 4447 H 394.239 -0.981526 3.0846 0
M  V30 4448 H 393.146 1.29658 3.50913 0
M  V30 4449 H 394.479 1.68741 4.62371 0
M  V30 4450 N 396.131 -1.37776 0.765217 0
M  V30 4451 C 397.361 -2.03828 0.337277 0
M  V30 4452 C 397.769 -1.57841 -1.04321 0
M  V30 4453 O 397.112 -0.752043 -1.67601 0
M  V30 4454 C 397.174 -3.58292 0.294407 0
M  V30 4455 C 396.838 -4.27384 1.61838 0
M  V30 4456 C 397.835 -4.51956 2.56967 0
M  V30 4457 C 395.52 -4.65345 1.89102 0
M  V30 4458 C 397.514 -5.13536 3.77571 0
M  V30 4459 C 395.201 -5.26647 3.09978 0
M  V30 4460 C 396.199 -5.50679 4.04032 0
M  V30 4461 O 395.887 -6.10702 5.2278 0
M  V30 4462 H 395.619 -0.661292 0.140248 0
M  V30 4463 H 398.173 -1.77222 1.03834 0
M  V30 4464 H 396.403 -3.83918 -0.462983 0
M  V30 4465 H 398.092 -4.05763 -0.105581 0
M  V30 4466 H 398.858 -4.23048 2.37183 0
M  V30 4467 H 394.737 -4.45978 1.16725 0
M  V30 4468 H 398.281 -5.3221 4.50997 0
M  V30 4469 H 394.178 -5.54979 3.29649 0
M  V30 4470 H 394.946 -6.29183 5.23517 0
M  V30 4471 N 397.609 -0.515225 -1.4894 0
M  V30 4472 C 398.556 0.255567 -2.29381 0
M  V30 4473 C 399.526 0.947387 -1.36432 0
M  V30 4474 O 400.711 0.951288 -1.65394 0
M  V30 4475 C 397.851 1.30551 -3.19453 0
M  V30 4476 C 396.964 0.624029 -4.27469 0
M  V30 4477 C 396.099 1.65563 -5.0474 0
M  V30 4478 C 395.138 0.956802 -6.04576 0
M  V30 4479 N 394.275 1.93326 -6.74959 0
M  V30 4480 H 399.115 -0.436607 -2.94784 0
M  V30 4481 H 396.652 -0.227154 -1.45336 0
M  V30 4482 H 398.61 1.92639 -3.70062 0
M  V30 4483 H 397.24 1.96626 -2.56004 0
M  V30 4484 H 396.292 -0.110459 -3.8024 0
M  V30 4485 H 397.604 0.0746092 -4.98744 0
M  V30 4486 H 396.758 2.35119 -5.59289 0
M  V30 4487 H 395.497 2.23893 -4.3327 0
M  V30 4488 H 394.502 0.247097 -5.49244 0
M  V30 4489 H 395.727 0.379814 -6.78037 0
M  V30 4490 H 393.673 2.50591 -6.06251 0
M  V30 4491 H 393.59 1.43489 -7.42258 0
M  V30 4492 H 394.858 2.62126 -7.34105 0
M  V30 4493 N 399.087 1.5561 -0.249682 0
M  V30 4494 C 400.335 1.98618 0.373548 0
M  V30 4495 C 400.656 1.13919 1.58264 0
M  V30 4496 O 399.926 0.222637 1.94631 0
M  V30 4497 H 398.506 0.733571 0.141006 0
M  V30 4498 H 401.168 1.91748 -0.349117 0
M  V30 4499 H 400.264 3.04584 0.680796 0
M  V30 4500 N 400.565 -0.0233959 1.57583 0
M  V30 4501 C 401.795 -0.723631 1.93513 0
M  V30 4502 C 402.203 -1.69115 0.848333 0
M  V30 4503 O 401.546 -1.82781 -0.183484 0
M  V30 4504 C 401.608 -1.53075 3.25282 0
M  V30 4505 C 401.272 -0.727388 4.51174 0
M  V30 4506 C 402.269 -0.0251924 5.19894 0
M  V30 4507 C 399.954 -0.680256 4.97672 0
M  V30 4508 C 401.948 0.713374 6.33395 0
M  V30 4509 C 399.635 0.0620523 6.11068 0
M  V30 4510 C 400.633 0.757622 6.78785 0
M  V30 4511 O 400.321 1.48787 7.90011 0
M  V30 4512 H 400.053 -0.208051 0.643188 0
M  V30 4513 H 402.607 0.0167489 2.05393 0
M  V30 4514 H 400.837 -2.31508 3.09744 0
M  V30 4515 H 402.526 -2.11413 3.46496 0
M  V30 4516 H 403.292 -0.0526003 4.84971 0
M  V30 4517 H 399.171 -1.21116 4.44805 0
M  V30 4518 H 402.715 1.25683 6.86185 0
M  V30 4519 H 398.612 0.0913634 6.45435 0
M  V30 4520 H 399.38 1.40213 8.06401 0
M  V30 4521 N 402.043 -1.548 -0.295768 0
M  V30 4522 C 402.99 -1.86113 -1.36494 0
M  V30 4523 C 403.96 -0.7105 -1.50137 0
M  V30 4524 O 405.145 -0.959626 -1.64912 0
M  V30 4525 C 402.285 -2.11861 -2.72413 0
M  V30 4526 C 401.398 -3.39471 -2.67177 0
M  V30 4527 C 400.533 -3.55035 -3.95125 0
M  V30 4528 C 399.572 -4.76418 -3.84308 0
M  V30 4529 N 398.709 -4.8876 -5.04042 0
M  V30 4530 H 403.549 -2.77314 -1.09091 0
M  V30 4531 H 401.086 -1.37315 -0.52753 0
M  V30 4532 H 403.044 -2.24786 -3.51464 0
M  V30 4533 H 401.674 -1.2392 -2.98066 0
M  V30 4534 H 400.726 -3.35139 -1.79962 0
M  V30 4535 H 402.038 -4.28646 -2.55076 0
M  V30 4536 H 401.192 -3.67653 -4.82614 0
M  V30 4537 H 399.931 -2.64002 -4.10066 0
M  V30 4538 H 398.936 -4.63827 -2.95202 0
M  V30 4539 H 400.161 -5.68863 -3.70906 0
M  V30 4540 H 398.107 -4.00652 -5.19436 0
M  V30 4541 H 398.024 -5.71945 -4.94384 0
M  V30 4542 H 399.292 -5.0574 -5.93167 0
M  V30 4543 N 403.521 0.559213 -1.47345 0
M  V30 4544 C 404.798 1.31997 -1.44348 0
M  V30 4545 C 405.178 2.1064 -0.139358 0
M  V30 4546 O 404.526 2.1091 0.879153 0
M  V30 4547 C 404.736 2.22618 -2.68779 0
M  V30 4548 C 406.084 2.83701 -3.1591 0
M  V30 4549 O 407.108 2.32921 -2.69493 0
M  V30 4550 O 405.967 3.75993 -3.966 0
M  V30 4551 H 403.061 0.594251 -0.575147 0
M  V30 4552 H 405.607 0.578282 -1.59543 0
M  V30 4553 H 404.379 1.64093 -3.55231 0
M  V30 4554 H 404.002 3.04085 -2.5616 0
M  V30 4555 N 404.999 1.35443 0.805782 0
M  V30 4556 C 406.276 1.19325 1.54987 0
M  V30 4557 C 406.656 -0.227294 2.09873 0
M  V30 4558 O 406.004 -1.2309 1.92512 0
M  V30 4559 C 406.214 2.26196 2.65775 0
M  V30 4560 C 407.562 2.62043 3.34094 0
M  V30 4561 O 408.586 2.25115 2.76046 0
M  V30 4562 O 407.445 3.25542 4.38958 0
M  V30 4563 H 404.539 0.463623 0.684823 0
M  V30 4564 H 407.085 1.47127 0.845674 0
M  V30 4565 H 405.857 3.21471 2.23096 0
M  V30 4566 H 405.48 1.99667 3.43829 0
M  V30 4567 N 406.477 -1.02803 1.19454 0
M  V30 4568 C 407.44 -2.09264 0.934955 0
M  V30 4569 C 408.44 -1.60576 -0.0849015 0
M  V30 4570 O 409.63 -1.73554 0.149933 0
M  V30 4571 C 406.762 -3.38482 0.40531 0
M  V30 4572 H 407.955 -2.33726 1.87916 0
M  V30 4573 H 405.508 -1.19426 1.00832 0
M  V30 4574 H 406.243 -3.19689 -0.544899 0
M  V30 4575 H 406.028 -3.75142 1.14065 0
M  V30 4576 H 407.518 -4.16894 0.242806 0
M  V30 4577 N 407.956 -0.998596 -1.21925 0
M  V30 4578 C 409.202 -0.678667 -1.91107 0
M  V30 4579 C 409.535 0.78791 -1.77498 0
M  V30 4580 O 408.81 1.57043 -1.1475 0
M  V30 4581 C 409.093 -1.09245 -3.43129 0
M  V30 4582 C 408.946 -2.61801 -3.6576 0
M  V30 4583 C 410.265 -0.649984 -4.35274 0
M  V30 4584 H 407.384 -0.248025 -0.694012 0
M  V30 4585 H 410.026 -1.24314 -1.43688 0
M  V30 4586 H 408.176 -0.612171 -3.83647 0
M  V30 4587 H 409.848 -3.17543 -3.34611 0
M  V30 4588 H 408.091 -3.03609 -3.09845 0
M  V30 4589 H 408.762 -2.85804 -4.7225 0
M  V30 4590 H 411.238 -1.0626 -4.02303 0
M  V30 4591 H 410.114 -0.967743 -5.40302 0
M  V30 4592 H 410.375 0.449139 -4.39813 0
M  V30 4593 N 409.434 1.37368 -0.772513 0
M  V30 4594 C 410.683 1.98918 -0.333861 0
M  V30 4595 C 410.996 1.62017 1.09589 0
M  V30 4596 O 412.202 2.16676 1.63596 0
M  V30 4597 C 410.658 3.55735 -0.545971 0
M  V30 4598 C 410.266 4.01573 -1.98603 0
M  V30 4599 C 412.01 4.24156 -0.170979 0
M  V30 4600 C 409.917 5.51102 -2.1457 0
M  V30 4601 H 408.847 0.744214 -0.121085 0
M  V30 4602 H 411.498 1.56888 -0.95175 0
M  V30 4603 H 409.88 3.95748 0.141387 0
M  V30 4604 H 411.054 3.72803 -2.7084 0
M  V30 4605 H 409.369 3.45937 -2.31769 0
M  V30 4606 H 411.966 5.34024 -0.26878 0
M  V30 4607 H 412.309 4.06917 0.878855 0
M  V30 4608 H 412.842 3.89447 -0.810914 0
M  V30 4609 H 409.581 5.73268 -3.17875 0
M  V30 4610 H 409.101 5.81554 -1.46817 0
M  V30 4611 H 410.78 6.17083 -1.94468 0
M  V30 4612 N 410.912 0.523116 1.48665 0
M  V30 4613 C 412.16 -0.0134497 2.02096 0
M  V30 4614 C 412.481 -1.35418 1.40311 0
M  V30 4615 O 411.751 -1.87543 0.566074 0
M  V30 4616 H 410.331 -0.00795915 0.746958 0
M  V30 4617 H 412.993 0.685388 1.82451 0
M  V30 4618 H 412.089 -0.126849 3.11842 0
M  V30 4619 N 412.39 -1.55475 0.257931 0
M  V30 4620 C 413.337 -2.21837 -0.636939 0
M  V30 4621 C 414.307 -1.18596 -1.16294 0
M  V30 4622 O 415.492 -1.47081 -1.21539 0
M  V30 4623 C 412.632 -2.9301 -1.82317 0
M  V30 4624 C 411.745 -4.10931 -1.33265 0
M  V30 4625 C 410.88 -4.69791 -2.47931 0
M  V30 4626 C 409.919 -5.7994 -1.95796 0
M  V30 4627 N 409.056 -6.32935 -3.0387 0
M  V30 4628 H 413.896 -2.9793 -0.0643591 0
M  V30 4629 H 411.433 -1.47086 -0.0200031 0
M  V30 4630 H 413.391 -3.3248 -2.52018 0
M  V30 4631 H 412.021 -2.1937 -2.36805 0
M  V30 4632 H 411.073 -3.76699 -0.52931 0
M  V30 4633 H 412.385 -4.90417 -0.910654 0
M  V30 4634 H 411.539 -5.11892 -3.25656 0
M  V30 4635 H 410.278 -3.89545 -2.93438 0
M  V30 4636 H 409.283 -5.37305 -1.16546 0
M  V30 4637 H 410.508 -6.62043 -1.51246 0
M  V30 4638 H 408.454 -5.55591 -3.48791 0
M  V30 4639 H 408.371 -7.07645 -2.66035 0
M  V30 4640 H 409.639 -6.79695 -3.81621 0
M  V30 4641 N 413.868 0.0150385 -1.57593 0
M  V30 4642 C 414.815 1.01126 -2.07466 0
M  V30 4643 C 415.785 1.35064 -0.966794 0
M  V30 4644 O 416.97 1.4516 -1.23827 0
M  V30 4645 C 414.11 2.30276 -2.57035 0
M  V30 4646 C 413.223 2.02373 -3.81666 0
M  V30 4647 C 412.358 3.25496 -4.19793 0
M  V30 4648 C 411.397 2.93211 -5.37303 0
M  V30 4649 N 410.534 4.08826 -5.70794 0
M  V30 4650 H 415.374 0.57901 -2.92321 0
M  V30 4651 H 412.911 0.27426 -1.44521 0
M  V30 4652 H 414.869 3.05757 -2.83846 0
M  V30 4653 H 413.499 2.71197 -1.75077 0
M  V30 4654 H 412.551 1.17327 -3.61854 0
M  V30 4655 H 413.863 1.74567 -4.67256 0
M  V30 4656 H 413.017 4.09333 -4.47807 0
M  V30 4657 H 411.756 3.56428 -3.32882 0
M  V30 4658 H 410.761 2.07777 -5.09027 0
M  V30 4659 H 411.986 2.63542 -6.25877 0
M  V30 4660 H 409.932 4.39682 -4.86842 0
M  V30 4661 H 409.849 3.84491 -6.50924 0
M  V30 4662 H 411.117 4.93496 -6.03392 0
M  V30 4663 N 415.346 1.54954 0.287554 0
M  V30 4664 C 416.594 1.74528 1.01904 0
M  V30 4665 C 416.915 0.541349 1.87335 0
M  V30 4666 O 416.185 -0.444108 1.908 0
M  V30 4667 H 414.765 0.643576 0.379235 0
M  V30 4668 H 417.427 1.92333 0.315294 0
M  V30 4669 H 416.523 2.64015 1.6644 0
M  V30 4670 N 416.824 -0.551391 1.4764 0
M  V30 4671 C 417.754 -1.66757 1.63445 0
M  V30 4672 C 418.735 -1.63077 0.483742 0
M  V30 4673 O 419.92 -1.80607 0.71377 0
M  V30 4674 C 417.05 -3.05387 1.65396 0
M  V30 4675 C 416.004 -3.23918 2.79752 0
M  V30 4676 C 415.33 -4.63393 2.66779 0
M  V30 4677 C 416.63 -3.08735 4.21284 0
M  V30 4678 H 418.324 -1.53786 2.56886 0
M  V30 4679 H 415.87 -0.738415 1.23626 0
M  V30 4680 H 417.823 -3.83325 1.75043 0
M  V30 4681 H 416.547 -3.19332 0.685195 0
M  V30 4682 H 415.206 -2.48391 2.69625 0
M  V30 4683 H 414.854 -4.74144 1.67918 0
M  V30 4684 H 414.554 -4.7674 3.43501 0
M  V30 4685 H 416.078 -5.43458 2.78364 0
M  V30 4686 H 417.492 -3.76484 4.32357 0
M  V30 4687 H 415.889 -3.33588 4.98838 0
M  V30 4688 H 416.959 -2.0541 4.39243 0
M  V30 4689 N 418.302 -1.35869 -0.798587 0
M  V30 4690 C 419.212 -1.31578 -1.94228 0
M  V30 4691 C 420.228 -0.21939 -1.72611 0
M  V30 4692 O 421.404 -0.450167 -1.96305 0
M  V30 4693 C 418.469 -1.09528 -3.28944 0
M  V30 4694 C 417.53 -2.28556 -3.63402 0
M  V30 4695 C 416.763 -2.07549 -4.9169 0
M  V30 4696 O 416.986 -1.046 -5.60727 0
M  V30 4697 O 415.92 -2.95106 -5.24591 0
M  V30 4698 H 419.746 -2.27847 -2.00796 0
M  V30 4699 H 417.331 -1.16322 -0.937526 0
M  V30 4700 H 419.213 -0.991127 -4.09579 0
M  V30 4701 H 417.888 -0.16315 -3.23289 0
M  V30 4702 H 416.795 -2.44538 -2.83112 0
M  V30 4703 H 418.128 -3.20244 -3.73771 0
M  V30 4704 N 419.78 1.02168 -1.19998 0
M  V30 4705 C 420.727 2.10601 -0.944228 0
M  V30 4706 C 421.697 1.65639 0.123664 0
M  V30 4707 O 422.882 1.9079 -0.0199941 0
M  V30 4708 C 420.022 3.41504 -0.496865 0
M  V30 4709 C 419.135 3.99973 -1.63234 0
M  V30 4710 C 418.27 5.18915 -1.13579 0
M  V30 4711 C 417.309 5.69456 -2.24468 0
M  V30 4712 N 416.446 6.79665 -1.76068 0
M  V30 4713 H 421.286 2.31814 -1.8726 0
M  V30 4714 H 418.823 1.13686 -0.933483 0
M  V30 4715 H 420.781 4.16626 -0.218843 0
M  V30 4716 H 419.411 3.2038 0.394508 0
M  V30 4717 H 418.463 3.21997 -2.0254 0
M  V30 4718 H 419.775 4.33492 -2.46752 0
M  V30 4719 H 418.929 6.01222 -0.813429 0
M  V30 4720 H 417.668 4.8695 -0.270434 0
M  V30 4721 H 416.673 4.85757 -2.57526 0
M  V30 4722 H 417.898 6.03459 -3.11472 0
M  V30 4723 H 415.844 6.49538 -0.918516 0
M  V30 4724 H 415.761 7.12349 -2.5317 0
M  V30 4725 H 417.029 7.65549 -1.46817 0
M  V30 4726 N 421.258 1.00505 1.21394 0
M  V30 4727 C 422.188 0.585684 2.26035 0
M  V30 4728 C 423.169 -0.393525 1.65485 0
M  V30 4729 O 424.354 -0.281497 1.92149 0
M  V30 4730 C 421.484 -0.0884283 3.47187 0
M  V30 4731 C 420.438 0.810567 4.20254 0
M  V30 4732 C 419.764 0.00286382 5.347 0
M  V30 4733 C 421.064 2.1132 4.77641 0
M  V30 4734 H 422.758 1.46039 2.61368 0
M  V30 4735 H 420.304 0.703648 1.25638 0
M  V30 4736 H 422.257 -0.393286 4.19561 0
M  V30 4737 H 420.981 -0.997766 3.10986 0
M  V30 4738 H 419.64 1.09925 3.49731 0
M  V30 4739 H 419.288 -0.907765 4.94741 0
M  V30 4740 H 418.988 0.601444 5.84514 0
M  V30 4741 H 420.512 -0.295808 6.09883 0
M  V30 4742 H 421.926 1.87148 5.41893 0
M  V30 4743 H 420.323 2.66164 5.37845 0
M  V30 4744 H 421.393 2.78393 3.9702 0
M  V30 4745 N 422.737 -1.36956 0.779787 0
M  V30 4746 C 423.967 -2.03459 0.358877 0
M  V30 4747 C 424.375 -1.58939 -1.02641 0
M  V30 4748 O 423.718 -0.769777 -1.66794 0
M  V30 4749 C 423.78 -3.5796 0.332393 0
M  V30 4750 C 423.444 -4.25644 1.66362 0
M  V30 4751 C 424.441 -4.49205 2.61746 0
M  V30 4752 C 422.126 -4.63313 1.94027 0
M  V30 4753 C 424.12 -5.09503 3.82996 0
M  V30 4754 C 421.807 -5.2333 3.15546 0
M  V30 4755 C 422.805 -5.46363 4.0985 0
M  V30 4756 O 422.493 -6.05122 5.29228 0
M  V30 4757 H 422.225 -0.659767 0.147254 0
M  V30 4758 H 424.779 -1.76111 1.05708 0
M  V30 4759 H 423.009 -3.84388 -0.422237 0
M  V30 4760 H 424.698 -4.05852 -0.0625389 0
M  V30 4761 H 425.464 -4.20508 2.41657 0
M  V30 4762 H 421.343 -4.44715 1.21448 0
M  V30 4763 H 424.887 -5.27397 4.56617 0
M  V30 4764 H 420.784 -5.51451 3.35517 0
M  V30 4765 H 421.552 -6.23595 5.30161 0
M  V30 4766 N 424.215 -0.530993 -1.48385 0
M  V30 4767 C 425.492 0.0671788 -1.95485 0
M  V30 4768 C 425.872 1.51191 -1.47324 0
M  V30 4769 O 425.22 2.17507 -0.700202 0
M  V30 4770 C 425.43 -0.0511206 -3.48963 0
M  V30 4771 C 426.778 0.107632 -4.24464 0
M  V30 4772 O 427.802 0.0226248 -3.56193 0
M  V30 4773 O 426.661 0.285972 -5.45751 0
M  V30 4774 H 423.755 0.0787365 -0.823243 0
M  V30 4775 H 426.301 -0.595662 -1.58902 0
M  V30 4776 H 425.073 -1.05747 -3.7674 0
M  V30 4777 H 424.696 0.650525 -3.92242 0
M  V30 4778 N 425.693 1.55336 -0.266172 0
M  V30 4779 C 426.64 2.22172 0.625165 0
M  V30 4780 C 427.61 1.19211 1.15663 0
M  V30 4781 O 428.795 1.47723 1.20758 0
M  V30 4782 C 425.935 2.93972 1.8076 0
M  V30 4783 C 425.048 4.11632 1.31084 0
M  V30 4784 C 424.183 4.71099 2.45436 0
M  V30 4785 C 423.222 5.8097 1.92718 0
M  V30 4786 N 422.359 6.34538 3.00509 0
M  V30 4787 H 427.199 2.9796 0.0485582 0
M  V30 4788 H 424.736 1.47095 0.0122024 0
M  V30 4789 H 426.694 3.33811 2.50251 0
M  V30 4790 H 425.324 2.20623 2.35638 0
M  V30 4791 H 424.376 3.76975 0.509326 0
M  V30 4792 H 425.688 4.90893 0.884633 0
M  V30 4793 H 424.842 5.13612 3.22936 0
M  V30 4794 H 423.581 3.91096 2.91368 0
M  V30 4795 H 422.586 5.37916 1.13695 0
M  V30 4796 H 423.811 6.62836 1.47733 0
M  V30 4797 H 421.757 5.57433 3.45839 0
M  V30 4798 H 421.674 7.09046 2.62279 0
M  V30 4799 H 422.942 6.81709 3.78011 0
M  V30 4800 N 427.171 -0.0066808 1.57599 0
M  V30 4801 C 428.118 -1.00024 2.08 0
M  V30 4802 C 429.088 -1.34549 0.973943 0
M  V30 4803 O 430.273 -1.44502 1.24595 0
M  V30 4804 C 427.413 -2.2891 2.58252 0
M  V30 4805 C 426.526 -2.00346 3.82734 0
M  V30 4806 C 425.661 -3.23265 4.21513 0
M  V30 4807 C 424.7 -2.90357 5.3885 0
M  V30 4808 N 423.837 -4.05793 5.72954 0
M  V30 4809 H 428.677 -0.563499 2.92624 0
M  V30 4810 H 426.214 -0.266592 1.44664 0
M  V30 4811 H 428.172 -3.04247 2.85464 0
M  V30 4812 H 426.802 -2.70265 1.76512 0
M  V30 4813 H 425.854 -1.15406 3.62471 0
M  V30 4814 H 427.166 -1.72086 4.68175 0
M  V30 4815 H 426.32 -4.06953 4.49971 0
M  V30 4816 H 425.059 -3.54657 3.34768 0
M  V30 4817 H 424.064 -2.05075 5.10122 0
M  V30 4818 H 425.289 -2.60219 6.27266 0
M  V30 4819 H 423.235 -4.37094 4.89167 0
M  V30 4820 H 423.152 -3.81034 6.52954 0
M  V30 4821 H 424.42 -4.90289 6.06001 0
M  V30 4822 N 428.649 -1.55105 -0.279332 0
M  V30 4823 C 429.579 -1.90557 -1.34945 0
M  V30 4824 C 430.56 -0.766738 -1.51839 0
M  V30 4825 O 431.745 -1.02434 -1.64988 0
M  V30 4826 C 428.875 -2.17193 -2.71006 0
M  V30 4827 C 427.829 -3.33021 -2.68851 0
M  V30 4828 C 427.155 -3.45123 -4.08405 0
M  V30 4829 C 428.455 -4.69578 -2.28678 0
M  V30 4830 H 430.149 -2.80188 -1.05522 0
M  V30 4831 H 427.695 -1.34811 -0.506173 0
M  V30 4832 H 429.648 -2.40581 -3.45975 0
M  V30 4833 H 428.372 -1.24355 -3.01999 0
M  V30 4834 H 427.031 -3.0959 -1.9634 0
M  V30 4835 H 426.679 -2.49762 -4.3661 0
M  V30 4836 H 426.379 -4.22995 -4.07859 0
M  V30 4837 H 427.903 -3.70796 -4.85121 0
M  V30 4838 H 429.317 -4.92553 -2.93368 0
M  V30 4839 H 427.714 -5.5032 -2.39306 0
M  V30 4840 H 428.784 -4.68828 -1.23807 0
M  V30 4841 N 430.127 0.543554 -1.4793 0
M  V30 4842 C 431.059 1.665 -1.57513 0
M  V30 4843 C 432.072 1.56156 -0.460333 0
M  V30 4844 O 433.261 1.62865 -0.730573 0
M  V30 4845 C 430.361 3.05063 -1.47614 0
M  V30 4846 C 429.534 3.41024 -2.739 0
M  V30 4847 C 428.593 4.58809 -2.57645 0
M  V30 4848 O 427.619 4.62707 -3.31498 0
M  V30 4849 N 428.821 5.56149 -1.66368 0
M  V30 4850 H 431.586 1.5872 -2.5422 0
M  V30 4851 H 429.147 0.730517 -1.44482 0
M  V30 4852 H 431.139 3.81712 -1.34455 0
M  V30 4853 H 429.709 3.06994 -0.589359 0
M  V30 4854 H 428.929 2.53687 -3.01723 0
M  V30 4855 H 430.217 3.61831 -3.57709 0
M  V30 4856 H 429.615 5.55767 -1.05543 0
M  V30 4857 H 428.172 6.32071 -1.59154 0
M  V30 4858 N 431.605 1.3629 0.791371 0
M  V30 4859 C 432.555 1.26988 1.89362 0
M  V30 4860 C 433.539 0.161795 1.60084 0
M  V30 4861 O 434.731 0.394426 1.72549 0
M  V30 4862 C 431.86 1.05944 3.26544 0
M  V30 4863 C 430.946 2.21211 3.61838 0
M  V30 4864 N 431.337 3.46518 3.68455 0
M  V30 4865 C 429.635 2.12933 3.91887 0
M  V30 4866 C 430.336 4.2241 3.99931 0
M  V30 4867 N 429.312 3.51329 4.14812 0
M  V30 4868 H 433.114 2.21908 1.92702 0
M  V30 4869 H 430.628 1.28982 0.986787 0
M  V30 4870 H 432.625 0.973666 4.05371 0
M  V30 4871 H 431.285 0.119223 3.24481 0
M  V30 4872 H 432.296 3.80677 3.51148 0
M  V30 4873 H 428.973 1.26855 3.97761 0
M  V30 4874 H 430.363 5.30767 4.1199 0
M  V30 4875 N 433.083 -1.0153 1.20538 0
M  V30 4876 C 433.993 -2.13557 0.971113 0
M  V30 4877 C 435.009 -1.73845 -0.0734366 0
M  V30 4878 O 436.185 -2.01075 0.114299 0
M  V30 4879 C 433.25 -3.42661 0.527639 0
M  V30 4880 C 432.311 -3.96608 1.64319 0
M  V30 4881 C 431.544 -5.1955 1.22078 0
M  V30 4882 O 431.767 -5.70329 0.0900198 0
M  V30 4883 O 430.701 -5.66681 2.02871 0
M  V30 4884 H 434.527 -2.3619 1.90913 0
M  V30 4885 H 432.112 -1.11946 0.989362 0
M  V30 4886 H 433.994 -4.20404 0.289621 0
M  V30 4887 H 432.669 -3.21441 -0.381779 0
M  V30 4888 H 431.576 -3.20139 1.93551 0
M  V30 4889 H 432.909 -4.22219 2.52966 0
M  V30 4890 N 434.561 -1.01147 -1.20859 0
M  V30 4891 C 435.838 -0.613136 -1.85742 0
M  V30 4892 C 436.218 0.909004 -1.90526 0
M  V30 4893 O 435.566 1.79862 -1.40932 0
M  V30 4894 C 435.776 -1.255 -3.25654 0
M  V30 4895 C 437.124 -1.3672 -4.01986 0
M  V30 4896 O 438.148 -1.21082 -3.34989 0
M  V30 4897 O 437.007 -1.6194 -5.21956 0
M  V30 4898 H 434.101 -0.210878 -0.799662 0
M  V30 4899 H 436.647 -1.10853 -1.2849 0
M  V30 4900 H 435.419 -2.29532 -3.16908 0
M  V30 4901 H 435.042 -0.746369 -3.90532 0
M  V30 4902 N 436.039 1.36541 -0.78704 0
M  V30 4903 C 437.287 1.98911 -0.357633 0
M  V30 4904 C 437.608 1.62778 1.07371 0
M  V30 4905 O 436.878 0.900612 1.73971 0
M  V30 4906 H 435.458 0.735734 -0.129246 0
M  V30 4907 H 438.12 1.66776 -1.00855 0
M  V30 4908 H 437.216 3.08874 -0.447549 0
M  V30 4909 N 437.518 0.538854 1.48102 0
M  V30 4910 C 438.748 0.0122958 2.06596 0
M  V30 4911 C 439.156 -1.27861 1.39457 0
M  V30 4912 O 438.499 -1.77348 0.478907 0
M  V30 4913 C 438.561 -0.273131 3.58461 0
M  V30 4914 C 438.225 0.92561 4.47528 0
M  V30 4915 C 439.222 1.82637 4.86765 0
M  V30 4916 C 436.907 1.13511 4.89306 0
M  V30 4917 C 438.901 2.92047 5.66558 0
M  V30 4918 C 436.588 2.23233 5.68868 0
M  V30 4919 C 437.586 3.12333 6.07402 0
M  V30 4920 O 437.274 4.20155 6.85365 0
M  V30 4921 H 437.006 0.0344283 0.675123 0
M  V30 4922 H 439.56 0.746494 1.91355 0
M  V30 4923 H 437.79 -1.06141 3.71848 0
M  V30 4924 H 439.479 -0.742842 3.99045 0
M  V30 4925 H 440.245 1.67649 4.55103 0
M  V30 4926 H 436.124 0.450835 4.5879 0
M  V30 4927 H 439.668 3.6162 5.96554 0
M  V30 4928 H 435.565 2.38201 5.99942 0
M  V30 4929 H 436.333 4.17975 7.03732 0
M  V30 4930 N 438.996 -1.55193 0.274407 0
M  V30 4931 C 440.412 -1.59401 -0.0797543 0
M  V30 4932 C 440.612 -1.29162 -1.54659 0
M  V30 4933 O 439.668 -1.05215 -2.29534 0
M  V30 4934 C 440.981 -2.99257 0.294238 0
M  V30 4935 C 442.529 -3.12072 0.240796 0
M  V30 4936 C 443.004 -4.54194 0.589218 0
M  V30 4937 N 444.495 -4.60033 0.540744 0
M  V30 4938 C 445.23 -5.68027 0.783147 0
M  V30 4939 N 444.726 -6.8417 1.09013 0
M  V30 4940 N 446.519 -5.57572 0.711993 0
M  V30 4941 H 438.67 -1.73113 1.23067 0
M  V30 4942 H 440.933 -0.807197 0.497129 0
M  V30 4943 H 440.639 -3.26217 1.31435 0
M  V30 4944 H 440.513 -3.75427 -0.365281 0
M  V30 4945 H 442.9 -2.84877 -0.770024 0
M  V30 4946 H 442.981 -2.38117 0.934563 0
M  V30 4947 H 442.625 -4.82115 1.59772 0
M  V30 4948 H 442.555 -5.26448 -0.126331 0
M  V30 4949 H 445.046 -3.76599 0.313327 0
M  V30 4950 H 445.359 -7.6243 1.26178 0
M  V30 4951 H 443.704 -6.85787 1.12789 0
M  V30 4952 H 446.895 -4.65714 0.472014 0
M  V30 4953 H 447.068 -6.41659 0.90429 0
M  V30 4954 N 440.474 -0.00167713 -1.576 0
M  V30 4955 C 441.72 0.683832 -1.90923 0
M  V30 4956 C 442.053 1.7333 -0.875799 0
M  V30 4957 O 441.328 1.94215 0.10525 0
M  V30 4958 C 441.611 1.32543 -3.3482 0
M  V30 4959 C 441.464 0.287387 -4.48881 0
M  V30 4960 C 442.783 2.25114 -3.78169 0
M  V30 4961 H 439.902 0.247125 -0.694333 0
M  V30 4962 H 442.544 -0.0533149 -1.89925 0
M  V30 4963 H 440.694 1.95372 -3.35801 0
M  V30 4964 H 442.366 -0.341346 -4.60035 0
M  V30 4965 H 440.609 -0.39017 -4.32042 0
M  V30 4966 H 441.28 0.775393 -5.46527 0
M  V30 4967 H 443.756 1.723 -3.7875 0
M  V30 4968 H 442.632 2.66971 -4.79602 0
M  V30 4969 H 442.893 3.13092 -3.12131 0
M  V30 4970 N 441.952 1.55251 0.271103 0
M  V30 4971 C 443.18 1.79974 1.02064 0
M  V30 4972 C 443.595 0.574003 1.79863 0
M  V30 4973 O 442.952 -0.456962 1.76686 0
M  V30 4974 C 443.003 3.02603 1.97772 0
M  V30 4975 O 442.724 4.20443 1.23124 0
M  V30 4976 C 444.225 3.39944 2.84522 0
M  V30 4977 H 441.445 0.599489 0.301419 0
M  V30 4978 H 443.989 2.02268 0.301313 0
M  V30 4979 H 442.144 2.8243 2.65165 0
M  V30 4980 H 442.558 4.89783 1.87651 0
M  V30 4981 H 444.032 4.28915 3.47471 0
M  V30 4982 H 444.509 2.59432 3.54389 0
M  V30 4983 H 445.115 3.62383 2.22618 0
M  V30 4984 N 443.43 -0.535701 1.48216 0
M  V30 4985 C 444.679 -1.28828 1.55197 0
M  V30 4986 C 444.992 -1.94263 0.228278 0
M  V30 4987 O 446.198 -2.70927 0.176278 0
M  V30 4988 C 444.654 -2.33727 2.73678 0
M  V30 4989 C 444.262 -1.74386 4.12666 0
M  V30 4990 C 446.006 -3.1003 2.89968 0
M  V30 4991 C 443.913 -2.77192 5.22416 0
M  V30 4992 H 442.843 -0.484484 0.577747 0
M  V30 4993 H 445.494 -0.56646 1.74538 0
M  V30 4994 H 443.876 -3.08919 2.4776 0
M  V30 4995 H 445.05 -1.05421 4.48579 0
M  V30 4996 H 443.365 -1.10595 4.01445 0
M  V30 4997 H 445.962 -3.86842 3.6913 0
M  V30 4998 H 446.305 -3.65542 1.9921 0
M  V30 4999 H 446.838 -2.41952 3.15759 0
M  V30 5000 H 443.577 -2.26507 6.15122 0
M  V30 5001 H 443.097 -3.44502 4.90998 0
M  V30 5002 H 444.776 -3.40285 5.50286 0
M  V30 5003 N 444.908 -1.36708 -0.784132 0
M  V30 5004 C 446.154 -1.31426 -1.54451 0
M  V30 5005 C 446.487 0.10476 -1.93917 0
M  V30 5006 O 445.762 1.05934 -1.6312 0
M  V30 5007 C 446.045 -2.24189 -2.818 0
M  V30 5008 C 445.898 -3.74813 -2.48667 0
M  V30 5009 C 447.217 -2.15626 -3.83658 0
M  V30 5010 H 444.336 -0.478739 -0.560337 0
M  V30 5011 H 446.978 -1.67305 -0.900498 0
M  V30 5012 H 445.128 -1.93722 -3.36755 0
M  V30 5013 H 446.8 -4.15823 -1.99722 0
M  V30 5014 H 445.043 -3.93989 -1.81535 0
M  V30 5015 H 445.714 -4.35138 -3.39646 0
M  V30 5016 H 448.19 -2.42456 -3.38163 0
M  V30 5017 H 447.066 -2.82694 -4.70506 0
M  V30 5018 H 447.327 -1.14522 -4.27009 0
M  V30 5019 N 446.386 1.0089 -1.21074 0
M  V30 5020 C 447.663 1.71834 -0.934469 0
M  V30 5021 C 448.043 2.0368 0.554753 0
M  V30 5022 O 447.391 1.70742 1.51854 0
M  V30 5023 C 447.601 2.98061 -1.8155 0
M  V30 5024 C 448.949 3.7117 -2.06199 0
M  V30 5025 O 449.973 3.08034 -1.78867 0
M  V30 5026 O 448.832 4.84721 -2.52404 0
M  V30 5027 H 445.926 0.749253 -0.35007 0
M  V30 5028 H 448.472 1.06668 -1.31985 0
M  V30 5029 H 447.244 2.70908 -2.82355 0
M  V30 5030 H 446.867 3.70968 -1.43068 0
M  V30 5031 N 447.864 1.01787 1.20321 0
M  V30 5032 C 449.141 0.622978 1.85414 0
M  V30 5033 C 449.521 -0.898887 1.91006 0
M  V30 5034 O 448.869 -1.79112 1.41884 0
M  V30 5035 C 449.079 1.27226 3.24984 0
M  V30 5036 C 450.427 1.3885 4.01255 0
M  V30 5037 O 451.451 1.22857 3.34342 0
M  V30 5038 O 450.31 1.64705 5.2109 0
M  V30 5039 H 447.404 0.215116 0.798533 0
M  V30 5040 H 449.95 1.11533 1.27901 0
M  V30 5041 H 448.722 2.31209 3.15687 0
M  V30 5042 H 448.345 0.767069 3.90131 0
M  V30 5043 N 449.342 -1.36122 0.79427 0
M  V30 5044 C 450.29 -2.31871 0.184023 0
M  V30 5045 C 451.284 -1.56041 -0.659365 0
M  V30 5046 O 452.49 -1.71266 -0.553906 0
M  V30 5047 H 448.865 -0.750896 0.0407373 0
M  V30 5048 H 450.836 -2.80898 1.00693 0
M  V30 5049 C 449.585 -3.41324 -0.662813 0
M  V30 5050 H 448.908 -3.99793 -0.0231944 0
M  V30 5051 H 450.348 -4.10629 -1.05639 0
M  V30 5052 C 448.807 -2.83308 -1.82313 0
M  V30 5053 O 449.337 -2.75863 -2.91997 0
M  V30 5054 N 447.543 -2.40529 -1.63077 0
M  V30 5055 H 447.09 -2.46785 -0.738591 0
M  V30 5056 H 447.048 -2.02059 -2.40872 0
M  V30 5057 N 450.82 -0.546701 -1.47814 0
M  V30 5058 C 452.045 -0.021268 -2.07389 0
M  V30 5059 C 452.47 1.25822 -1.39822 0
M  V30 5060 O 451.828 1.75111 -0.46968 0
M  V30 5061 C 451.876 0.168502 -3.60206 0
M  V30 5062 O 450.98 1.23347 -3.93522 0
M  V30 5063 H 450.321 -0.0466108 -0.662362 0
M  V30 5064 H 452.851 -0.759387 -1.89985 0
M  V30 5065 H 452.861 0.385982 -4.0617 0
M  V30 5066 H 451.536 -0.766075 -4.08784 0
M  V30 5067 H 450.113 0.997319 -3.59316 0
M  V30 5068 N 452.299 1.55045 -0.282633 0
M  V30 5069 C 453.247 2.24254 0.617478 0
M  V30 5070 C 454.241 1.24215 1.15183 0
M  V30 5071 O 455.447 1.42123 1.10459 0
M  V30 5072 H 451.822 0.719801 0.217693 0
M  V30 5073 H 453.793 2.98398 0.0110076 0
M  V30 5074 C 452.542 2.98281 1.78672 0
M  V30 5075 H 451.865 3.75053 1.38475 0
M  V30 5076 H 453.305 3.50017 2.393 0
M  V30 5077 C 451.764 2.04184 2.67975 0
M  V30 5078 O 452.294 1.59792 3.6855 0
M  V30 5079 N 450.5 1.70526 2.35307 0
M  V30 5080 H 450.047 2.06821 1.53567 0
M  V30 5081 H 450.005 1.07839 2.95327 0
M  V30 5082 N 453.777 0.010035 1.57597 0
M  V30 5083 C 455.005 -0.683413 1.95287 0
M  V30 5084 C 455.42 -1.66747 0.885481 0
M  V30 5085 O 454.777 -1.82003 -0.134629 0
M  V30 5086 C 454.828 -1.40652 3.33015 0
M  V30 5087 O 454.549 -0.461916 4.35658 0
M  V30 5088 C 456.05 -2.19356 3.85225 0
M  V30 5089 H 453.27 -0.189708 0.643624 0
M  V30 5090 H 455.814 0.0641359 2.04399 0
M  V30 5091 H 453.969 -2.10562 3.2518 0
M  V30 5092 H 454.383 -0.973215 5.15392 0
M  V30 5093 H 455.857 -2.65433 4.83993 0
M  V30 5094 H 456.334 -3.02457 3.18459 0
M  V30 5095 H 456.94 -1.54442 3.96267 0
M  V30 5096 N 455.255 -1.55392 -0.262866 0
M  V30 5097 C 456.504 -1.75679 -0.990943 0
M  V30 5098 C 456.817 -0.57097 -1.87081 0
M  V30 5099 O 458.023 -0.656486 -2.63444 0
M  V30 5100 C 456.479 -3.10964 -1.81188 0
M  V30 5101 C 456.087 -4.37146 -0.980188 0
M  V30 5102 C 457.831 -3.40597 -2.53365 0
M  V30 5103 C 455.738 -5.63466 -1.7961 0
M  V30 5104 H 454.668 -0.654868 -0.373716 0
M  V30 5105 H 457.319 -1.81841 -0.246203 0
M  V30 5106 H 455.701 -2.98867 -2.59797 0
M  V30 5107 H 456.875 -4.60187 -0.237558 0
M  V30 5108 H 455.19 -4.14731 -0.372497 0
M  V30 5109 H 457.787 -4.32186 -3.14833 0
M  V30 5110 H 458.13 -2.6119 -3.24169 0
M  V30 5111 H 458.663 -3.53838 -1.81779 0
M  V30 5112 H 455.402 -6.4565 -1.13209 0
M  V30 5113 H 454.922 -5.44552 -2.51443 0
M  V30 5114 H 456.601 -6.02139 -2.36723 0
M  V30 5115 N 456.733 0.527833 -1.48498 0
M  V30 5116 C 457.696 1.61439 -1.62696 0
M  V30 5117 C 458.696 1.52824 -0.500136 0
M  V30 5118 O 459.886 1.56456 -0.765976 0
M  V30 5119 C 457.018 3.01063 -1.59918 0
M  V30 5120 H 458.211 1.50189 -2.59583 0
M  V30 5121 H 455.764 0.750055 -1.37127 0
M  V30 5122 H 456.499 3.17818 -0.645163 0
M  V30 5123 H 456.284 3.08725 -2.41726 0
M  V30 5124 H 457.774 3.80057 -1.73051 0
M  V30 5125 N 458.211 1.37122 0.776871 0
M  V30 5126 C 459.161 1.28989 1.88005 0
M  V30 5127 C 460.145 0.178765 1.59904 0
M  V30 5128 O 461.337 0.412705 1.72121 0
M  V30 5129 C 458.466 1.09402 3.25402 0
M  V30 5130 C 457.552 2.25036 3.59471 0
M  V30 5131 N 457.943 3.50407 3.64759 0
M  V30 5132 C 456.241 2.17078 3.89607 0
M  V30 5133 C 456.942 4.26628 3.95428 0
M  V30 5134 N 455.918 3.55709 4.11062 0
M  V30 5135 H 459.72 2.2394 1.90337 0
M  V30 5136 H 457.234 1.30021 0.973052 0
M  V30 5137 H 459.231 1.01661 4.04315 0
M  V30 5138 H 457.891 0.153632 3.24336 0
M  V30 5139 H 458.902 3.8438 3.47091 0
M  V30 5140 H 455.579 1.31067 3.96393 0
M  V30 5141 H 456.969 5.35107 4.06338 0
M  V30 5142 N 459.689 -1.00246 1.21608 0
M  V30 5143 C 460.917 -1.77631 1.06089 0
M  V30 5144 C 461.332 -1.84746 -0.38916 0
M  V30 5145 O 460.689 -1.31068 -1.26994 0
M  V30 5146 C 460.74 -3.21415 1.65453 0
M  V30 5147 O 460.461 -3.14703 3.04785 0
M  V30 5148 C 461.962 -4.15289 1.55079 0
M  V30 5149 H 459.182 -0.558162 0.37242 0
M  V30 5150 H 461.726 -1.26093 1.60999 0
M  V30 5151 H 459.881 -3.70053 1.14629 0
M  V30 5152 H 460.295 -4.05056 3.33212 0
M  V30 5153 H 461.769 -5.13965 2.01355 0
M  V30 5154 H 462.246 -4.36279 0.505665 0
M  V30 5155 H 462.852 -3.72543 2.05163 0
M  V30 5156 N 461.167 -1.02423 -1.1978 0
M  V30 5157 C 462.097 -0.62157 -2.25075 0
M  V30 5158 C 463.078 0.367148 -1.6609 0
M  V30 5159 O 464.263 0.250892 -1.92573 0
M  V30 5160 C 461.393 0.0331826 -3.47284 0
M  V30 5161 C 460.347 -0.877323 -4.18912 0
M  V30 5162 C 459.673 -0.0879296 -5.34628 0
M  V30 5163 C 460.973 -2.18892 -4.74219 0
M  V30 5164 H 462.667 -1.50179 -2.59011 0
M  V30 5165 H 460.213 -0.723547 -1.24502 0
M  V30 5166 H 462.166 0.326488 -4.20133 0
M  V30 5167 H 460.89 0.948164 -3.12534 0
M  V30 5168 H 459.549 -1.15475 -3.47938 0
M  V30 5169 H 459.197 0.828941 -4.96123 0
M  V30 5170 H 458.897 -0.694359 -5.83483 0
M  V30 5171 H 460.421 0.198743 -6.10276 0
M  V30 5172 H 461.835 -1.95746 -5.38847 0
M  V30 5173 H 460.232 -2.74686 -5.33542 0
M  V30 5174 H 461.302 -2.84674 -3.92541 0
M  V30 5175 N 462.645 1.35699 -0.801477 0
M  V30 5176 C 463.894 1.98165 -0.375979 0
M  V30 5177 C 464.207 1.64306 1.06127 0
M  V30 5178 O 465.413 2.20097 1.58964 0
M  V30 5179 C 463.869 3.54497 -0.621305 0
M  V30 5180 C 463.477 3.9727 -2.07076 0
M  V30 5181 C 465.221 4.23697 -0.26091 0
M  V30 5182 C 463.128 5.46427 -2.26211 0
M  V30 5183 H 462.058 0.741478 -0.136844 0
M  V30 5184 H 464.709 1.54834 -0.984814 0
M  V30 5185 H 463.091 3.95958 0.0574112 0
M  V30 5186 H 464.265 3.66974 -2.78687 0
M  V30 5187 H 462.58 3.40943 -2.39054 0
M  V30 5188 H 465.177 5.33334 -0.381994 0
M  V30 5189 H 465.52 4.0869 0.792344 0
M  V30 5190 H 466.053 3.87639 -0.893339 0
M  V30 5191 H 462.792 5.66396 -3.29963 0
M  V30 5192 H 462.312 5.78309 -1.59119 0
M  V30 5193 H 463.991 6.12819 -2.07513 0
M  V30 5194 N 464.123 0.554532 1.47522 0
M  V30 5195 C 465.033 -0.197865 2.33764 0
M  V30 5196 C 466.049 -0.914576 1.48025 0
M  V30 5197 O 467.225 -0.884067 1.80959 0
M  V30 5198 C 464.29 -1.21628 3.24665 0
M  V30 5199 C 463.351 -0.507283 4.26292 0
M  V30 5200 C 462.584 -1.47718 5.1285 0
M  V30 5201 O 462.807 -2.7118 5.01814 0
M  V30 5202 O 461.741 -1.00313 5.93482 0
M  V30 5203 H 465.567 0.50949 2.99396 0
M  V30 5204 H 463.152 0.315176 1.46038 0
M  V30 5205 H 465.034 -1.80421 3.80823 0
M  V30 5206 H 463.709 -1.9056 2.61665 0
M  V30 5207 H 462.616 0.121778 3.73902 0
M  V30 5208 H 463.949 0.140544 4.91999 0
M  V30 5209 N 465.601 -1.54893 0.290851 0
M  V30 5210 C 466.548 -2.23138 -0.58974 0
M  V30 5211 C 467.518 -1.21036 -1.13752 0
M  V30 5212 O 468.703 -1.49626 -1.18392 0
M  V30 5213 C 465.843 -2.96811 -1.76061 0
M  V30 5214 C 464.956 -4.13665 -1.24519 0
M  V30 5215 C 464.091 -4.74944 -2.3791 0
M  V30 5216 C 463.13 -5.83963 -1.83451 0
M  V30 5217 N 462.267 -6.39239 -2.90376 0
M  V30 5218 H 467.107 -2.98 -0.00114915 0
M  V30 5219 H 464.644 -1.47096 0.0112006 0
M  V30 5220 H 466.602 -3.37751 -2.44909 0
M  V30 5221 H 465.232 -2.24344 -2.32098 0
M  V30 5222 H 464.284 -3.77737 -0.449288 0
M  V30 5223 H 465.596 -4.92238 -0.806424 0
M  V30 5224 H 464.75 -5.18684 -3.14724 0
M  V30 5225 H 463.489 -3.95682 -2.85109 0
M  V30 5226 H 462.494 -5.39657 -1.05122 0
M  V30 5227 H 463.719 -6.65103 -1.37169 0
M  V30 5228 H 461.665 -5.62864 -3.36927 0
M  V30 5229 H 461.582 -7.13129 -2.50965 0
M  V30 5230 H 462.85 -6.87637 -3.67118 0
M  V30 5231 N 467.08 -0.0183926 -1.57589 0
M  V30 5232 C 468.027 0.967022 -2.09565 0
M  V30 5233 C 468.997 1.32983 -0.995225 0
M  V30 5234 O 470.182 1.42501 -1.26878 0
M  V30 5235 C 467.322 2.24772 -2.61861 0
M  V30 5236 C 466.435 1.94232 -3.85873 0
M  V30 5237 C 465.57 3.16518 -4.26603 0
M  V30 5238 C 464.609 2.81748 -5.43401 0
M  V30 5239 N 463.746 3.96626 -5.79338 0
M  V30 5240 H 468.586 0.516874 -2.93483 0
M  V30 5241 H 466.123 0.243544 -1.4507 0
M  V30 5242 H 468.081 2.99667 -2.90268 0
M  V30 5243 H 466.711 2.67423 -1.8079 0
M  V30 5244 H 465.763 1.09625 -3.64262 0
M  V30 5245 H 467.075 1.64616 -4.70853 0
M  V30 5246 H 466.229 3.99743 -4.56389 0
M  V30 5247 H 464.968 3.49286 -3.40368 0
M  V30 5248 H 463.973 1.96933 -5.1332 0
M  V30 5249 H 465.198 2.50207 -6.31327 0
M  V30 5250 H 463.144 4.29257 -4.96059 0
M  V30 5251 H 463.061 3.70598 -6.58933 0
M  V30 5252 H 464.329 4.80586 -6.13724 0
M  V30 5253 N 468.558 1.5553 0.254621 0
M  V30 5254 C 469.505 1.89666 1.31512 0
M  V30 5255 C 470.475 0.750057 1.482 0
M  V30 5256 O 471.66 1.00301 1.62309 0
M  V30 5257 C 468.8 2.19009 2.667 0
M  V30 5258 C 467.913 3.46435 2.58083 0
M  V30 5259 C 467.048 3.65386 3.85573 0
M  V30 5260 C 466.087 4.8644 3.71541 0
M  V30 5261 N 465.224 5.01952 4.90906 0
M  V30 5262 H 470.064 2.80109 1.017 0
M  V30 5263 H 467.601 1.38666 0.490938 0
M  V30 5264 H 469.559 2.34025 3.45381 0
M  V30 5265 H 468.189 1.31779 2.94676 0
M  V30 5266 H 467.241 3.39792 1.71013 0
M  V30 5267 H 468.553 4.35258 2.43622 0
M  V30 5268 H 467.707 3.80319 4.72697 0
M  V30 5269 H 466.446 2.74781 4.02922 0
M  V30 5270 H 465.451 4.71491 2.82801 0
M  V30 5271 H 466.676 5.78497 3.55694 0
M  V30 5272 H 464.622 4.14283 5.08631 0
M  V30 5273 H 464.539 5.84851 4.79046 0
M  V30 5274 H 465.807 5.21289 5.7955 0
M  V30 5275 N 470.036 -0.519951 1.48776 0
M  V30 5276 C 470.983 -1.62352 1.64044 0
M  V30 5277 C 471.953 -1.58945 0.482251 0
M  V30 5278 O 473.138 -1.77219 0.706971 0
M  V30 5279 C 470.278 -3.00579 1.69547 0
M  V30 5280 C 469.391 -3.14145 2.96541 0
M  V30 5281 C 468.526 -4.42991 2.93142 0
M  V30 5282 C 467.565 -4.50122 4.14797 0
M  V30 5283 N 466.702 -5.7037 4.09418 0
M  V30 5284 H 471.542 -1.48643 2.58281 0
M  V30 5285 H 469.079 -0.723516 1.28077 0
M  V30 5286 H 471.037 -3.80671 1.70719 0
M  V30 5287 H 469.667 -3.13036 0.787918 0
M  V30 5288 H 468.719 -2.27239 3.05068 0
M  V30 5289 H 470.031 -3.15275 3.86527 0
M  V30 5290 H 469.185 -5.31385 2.92772 0
M  V30 5291 H 467.924 -4.44398 2.00902 0
M  V30 5292 H 466.929 -3.60133 4.15433 0
M  V30 5293 H 468.154 -4.50445 5.08208 0
M  V30 5294 H 466.1 -5.72655 3.20004 0
M  V30 5295 H 466.017 -5.73036 4.93119 0
M  V30 5296 H 467.285 -6.61023 4.13121 0
M  V30 5297 N 471.514 -1.37532 -0.769588 0
M  V30 5298 C 472.791 -1.23392 -1.51768 0
M  V30 5299 C 473.171 0.17157 -2.10402 0
M  V30 5300 O 472.519 1.17943 -1.95708 0
M  V30 5301 C 472.729 -2.33163 -2.59685 0
M  V30 5302 C 474.077 -2.70809 -3.27028 0
M  V30 5303 O 475.101 -2.32355 -2.69981 0
M  V30 5304 O 473.96 -3.37066 -4.30173 0
M  V30 5305 H 471.054 -0.481617 -0.67229 0
M  V30 5306 H 473.6 -1.49318 -0.806368 0
M  V30 5307 H 472.372 -3.27273 -2.14494 0
M  V30 5308 H 471.995 -2.08713 -3.38415 0
M  V30 5309 N 472.992 0.995999 -1.22138 0
M  V30 5310 C 474.24 1.73167 -1.042 0
M  V30 5311 C 474.561 1.90329 0.42423 0
M  V30 5312 O 473.831 1.4607 1.30539 0
M  V30 5313 H 472.411 0.641593 -0.38258 0
M  V30 5314 H 475.073 1.19974 -1.53598 0
M  V30 5315 H 474.169 2.72734 -1.51731 0
M  V30 5316 N 474.47 1.03057 1.19235 0
M  V30 5317 C 475.417 0.612832 2.22515 0
M  V30 5318 C 476.387 -0.374224 1.61829 0
M  V30 5319 O 477.572 -0.270501 1.88873 0
M  V30 5320 C 474.712 -0.028475 3.45088 0
M  V30 5321 C 473.825 1.00483 4.20151 0
M  V30 5322 C 472.96 0.333102 5.30155 0
M  V30 5323 C 471.999 1.3522 5.96977 0
M  V30 5324 N 471.136 0.70616 6.9854 0
M  V30 5325 H 475.976 1.49812 2.57605 0
M  V30 5326 H 473.513 0.749658 1.26564 0
M  V30 5327 H 475.471 -0.417548 4.15105 0
M  V30 5328 H 474.101 -0.877334 3.10649 0
M  V30 5329 H 473.153 1.51194 3.49062 0
M  V30 5330 H 474.465 1.77929 4.65986 0
M  V30 5331 H 473.619 -0.110725 6.06599 0
M  V30 5332 H 472.358 -0.473547 4.85396 0
M  V30 5333 H 471.363 1.80627 5.19282 0
M  V30 5334 H 472.588 2.16037 6.4382 0
M  V30 5335 H 470.534 -0.0803667 6.55951 0
M  V30 5336 H 470.451 1.41848 7.42573 0
M  V30 5337 H 471.719 0.286391 7.78974 0
M  V30 5338 N 475.948 -1.35272 0.808662 0
M  V30 5339 C 477.225 -1.93077 0.313181 0
M  V30 5340 C 477.605 -1.73847 -1.19752 0
M  V30 5341 O 476.953 -1.1087 -1.998 0
M  V30 5342 C 477.163 -3.41347 0.726859 0
M  V30 5343 C 478.511 -4.18493 0.717532 0
M  V30 5344 O 479.535 -3.4987 0.668535 0
M  V30 5345 O 478.394 -5.40937 0.777779 0
M  V30 5346 H 475.488 -0.822885 0.0824018 0
M  V30 5347 H 478.034 -1.44335 0.892499 0
M  V30 5348 H 476.806 -3.49082 1.76797 0
M  V30 5349 H 476.429 -3.97411 0.122461 0
M  V30 5350 N 477.426 -0.562348 -1.47226 0
M  V30 5351 C 478.675 -0.038041 -2.01664 0
M  V30 5352 C 478.988 1.32199 -1.44162 0
M  V30 5353 O 480.194 1.9365 -1.90294 0
M  V30 5354 C 478.65 -0.0174958 -3.59896 0
M  V30 5355 C 478.258 -1.3746 -4.2639 0
M  V30 5356 C 480.002 0.453934 -4.22066 0
M  V30 5357 C 477.909 -1.31289 -5.76643 0
M  V30 5358 H 476.839 -0.0104511 -0.753928 0
M  V30 5359 H 479.49 -0.710966 -1.69167 0
M  V30 5360 H 477.872 0.721182 -3.89378 0
M  V30 5361 H 479.046 -2.1314 -4.08544 0
M  V30 5362 H 477.361 -1.78438 -3.7623 0
M  V30 5363 H 479.958 0.518584 -5.32179 0
M  V30 5364 H 480.301 1.46706 -3.89594 0
M  V30 5365 H 480.834 -0.230044 -3.97134 0
M  V30 5366 H 477.573 -2.30217 -6.13743 0
M  V30 5367 H 477.093 -0.597973 -5.96812 0
M  V30 5368 H 478.772 -1.01713 -6.38955 0
M  V30 5369 N 478.904 1.54736 -0.299062 0
M  V30 5370 C 479.836 2.20891 0.61153 0
M  V30 5371 C 480.849 1.20104 1.09904 0
M  V30 5372 O 482.038 1.46707 1.01683 0
M  V30 5373 C 479.138 2.84018 1.84897 0
M  V30 5374 C 478.311 4.10719 1.50428 0
M  V30 5375 C 477.37 4.57667 2.59667 0
M  V30 5376 O 476.396 5.2291 2.24842 0
M  V30 5377 N 477.598 4.29821 3.90172 0
M  V30 5378 H 480.363 2.99666 0.0452001 0
M  V30 5379 H 477.924 1.61446 -0.121178 0
M  V30 5380 H 479.916 3.1236 2.5732 0
M  V30 5381 H 478.486 2.09095 2.32375 0
M  V30 5382 H 477.706 3.89408 0.612781 0
M  V30 5383 H 478.994 4.93223 1.24934 0
M  V30 5384 H 478.392 3.77549 4.21276 0
M  V30 5385 H 476.949 4.62877 4.58899 0
M  V30 5386 N 480.382 0.0267497 1.57577 0
M  V30 5387 C 481.312 -0.954308 2.13108 0
M  V30 5388 C 482.293 -1.34088 1.04663 0
M  V30 5389 O 483.478 -1.41992 1.32484 0
M  V30 5390 C 480.608 -2.23744 2.65624 0
M  V30 5391 C 479.562 -1.99168 3.78835 0
M  V30 5392 C 478.888 -3.33726 4.17769 0
M  V30 5393 C 480.188 -1.33277 5.0501 0
M  V30 5394 H 481.882 -0.491848 2.95332 0
M  V30 5395 H 479.428 -0.23514 1.42067 0
M  V30 5396 H 481.381 -2.92754 3.03106 0
M  V30 5397 H 480.105 -2.72151 1.80558 0
M  V30 5398 H 478.764 -1.32577 3.41788 0
M  V30 5399 H 478.412 -3.79888 3.29688 0
M  V30 5400 H 478.112 -3.18089 4.94058 0
M  V30 5401 H 479.636 -4.04008 4.57832 0
M  V30 5402 H 481.05 -1.92283 5.40093 0
M  V30 5403 H 479.447 -1.28045 5.8628 0
M  V30 5404 H 480.517 -0.305411 4.83937 0
M  V30 5405 N 481.861 -1.55662 -0.24637 0
M  V30 5406 C 483.089 -1.81575 -0.991876 0
M  V30 5407 C 483.504 -0.602545 -1.78927 0
M  V30 5408 O 482.861 0.428795 -1.77391 0
M  V30 5409 C 482.912 -3.05711 -1.92933 0
M  V30 5410 O 482.633 -4.22348 -1.1642 0
M  V30 5411 C 484.134 -3.44428 -2.79078 0
M  V30 5412 H 481.354 -0.604209 -0.291844 0
M  V30 5413 H 483.898 -2.02722 -0.269095 0
M  V30 5414 H 482.053 -2.86612 -2.60638 0
M  V30 5415 H 482.467 -4.92706 -1.79835 0
M  V30 5416 H 483.941 -4.34388 -3.40603 0
M  V30 5417 H 484.418 -2.65037 -3.50217 0
M  V30 5418 H 485.024 -3.65879 -2.16824 0
M  V30 5419 N 483.339 0.512053 -1.4905 0
M  V30 5420 C 484.588 1.26343 -1.57227 0
M  V30 5421 C 484.901 1.93876 -0.259155 0
M  V30 5422 O 486.107 2.70612 -0.219358 0
M  V30 5423 C 484.563 2.29343 -2.77362 0
M  V30 5424 C 484.171 1.67799 -4.15388 0
M  V30 5425 C 485.915 3.05378 -2.94864 0
M  V30 5426 C 483.822 2.68845 -5.2676 0
M  V30 5427 H 482.752 0.475231 -0.585382 0
M  V30 5428 H 485.403 0.53862 -1.75417 0
M  V30 5429 H 483.785 3.04938 -2.52643 0
M  V30 5430 H 484.959 0.982715 -4.50199 0
M  V30 5431 H 483.274 1.04194 -4.03153 0
M  V30 5432 H 485.871 3.80921 -3.75238 0
M  V30 5433 H 486.214 3.62327 -2.05 0
M  V30 5434 H 486.747 2.36898 -3.19569 0
M  V30 5435 H 483.486 2.16692 -6.18647 0
M  V30 5436 H 483.006 3.36647 -4.96416 0
M  V30 5437 H 484.685 3.31487 -5.5563 0
M  V30 5438 N 484.817 1.37938 0.762283 0
M  V30 5439 C 486.094 1.24196 1.51112 0
M  V30 5440 C 486.474 -0.160409 2.1049 0
M  V30 5441 O 485.822 -1.16904 1.96331 0
M  V30 5442 C 486.032 2.34537 2.58445 0
M  V30 5443 C 487.38 2.7254 3.25588 0
M  V30 5444 O 488.404 2.33783 2.68745 0
M  V30 5445 O 487.263 3.39343 4.28379 0
M  V30 5446 H 484.357 0.485175 0.669727 0
M  V30 5447 H 486.903 1.49743 0.798438 0
M  V30 5448 H 485.675 3.28406 2.12756 0
M  V30 5449 H 485.298 2.10505 3.37303 0
M  V30 5450 N 486.295 -0.989507 1.22664 0
M  V30 5451 C 487.258 -2.06183 1.00106 0
M  V30 5452 C 488.258 -1.60765 -0.0337726 0
M  V30 5453 O 489.448 -1.72989 0.205072 0
M  V30 5454 C 486.58 -3.37021 0.51279 0
M  V30 5455 H 487.773 -2.27629 1.95256 0
M  V30 5456 H 485.326 -1.16158 1.0458 0
M  V30 5457 H 486.061 -3.21261 -0.442917 0
M  V30 5458 H 485.846 -3.71323 1.25942 0
M  V30 5459 H 487.336 -4.1591 0.375315 0
M  V30 5460 N 487.773 -1.03688 -1.18687 0
M  V30 5461 C 488.72 -0.624624 -2.22187 0
M  V30 5462 C 489.69 0.365636 -1.62026 0
M  V30 5463 O 490.875 0.260481 -1.89014 0
M  V30 5464 C 488.015 0.0101738 -3.45099 0
M  V30 5465 C 487.128 -1.02709 -4.19613 0
M  V30 5466 C 486.263 -0.361213 -5.2997 0
M  V30 5467 C 485.302 -1.38384 -5.96252 0
M  V30 5468 N 484.439 -0.743196 -6.98155 0
M  V30 5469 H 489.279 -1.51176 -2.56807 0
M  V30 5470 H 486.816 -0.75636 -1.26165 0
M  V30 5471 H 488.774 0.395528 -4.15321 0
M  V30 5472 H 487.404 0.860848 -3.1111 0
M  V30 5473 H 486.456 -1.53043 -3.48256 0
M  V30 5474 H 487.768 -1.80398 -4.65036 0
M  V30 5475 H 486.922 0.0785537 -6.06649 0
M  V30 5476 H 485.661 0.447799 -4.8564 0
M  V30 5477 H 484.666 -1.83378 -5.18317 0
M  V30 5478 H 485.891 -2.19448 -6.42666 0
M  V30 5479 H 483.837 0.0455789 -6.55984 0
M  V30 5480 H 483.754 -1.45784 -7.41811 0
M  V30 5481 H 485.022 -0.327698 -7.78811 0
M  V30 5482 N 489.251 1.34841 -0.815825 0
M  V30 5483 C 490.497 1.98793 -0.401129 0
M  V30 5484 C 490.83 1.64548 1.03139 0
M  V30 5485 O 490.105 0.913487 1.71714 0
M  V30 5486 C 490.388 3.55143 -0.595409 0
M  V30 5487 C 490.241 3.99155 -2.07352 0
M  V30 5488 C 491.56 4.40092 -0.0268823 0
M  V30 5489 H 488.679 0.722146 -0.14722 0
M  V30 5490 H 491.321 1.59847 -1.02707 0
M  V30 5491 H 489.471 3.8845 -0.0625779 0
M  V30 5492 H 491.143 3.76216 -2.66945 0
M  V30 5493 H 489.386 3.49726 -2.56659 0
M  V30 5494 H 490.057 5.07971 -2.1603 0
M  V30 5495 H 492.533 4.13298 -0.482042 0
M  V30 5496 H 491.409 5.48562 -0.19267 0
M  V30 5497 H 491.67 4.29016 1.06759 0
M  V30 5498 N 490.729 0.570148 1.46925 0
M  V30 5499 C 491.661 -0.207909 2.28255 0
M  V30 5500 C 492.674 -0.867301 1.37774 0
M  V30 5501 O 493.863 -0.738976 1.62485 0
M  V30 5502 C 490.963 -1.31298 3.12433 0
M  V30 5503 C 490.136 -0.747915 4.30958 0
M  V30 5504 C 489.195 -1.7391 4.9663 0
M  V30 5505 O 488.221 -1.2801 5.54619 0
M  V30 5506 N 489.423 -3.07288 4.92498 0
M  V30 5507 H 492.188 0.489794 2.95671 0
M  V30 5508 H 489.749 0.407076 1.56699 0
M  V30 5509 H 491.741 -1.97507 3.53232 0
M  V30 5510 H 490.311 -1.91373 2.47175 0
M  V30 5511 H 489.531 0.0913066 3.94094 0
M  V30 5512 H 490.819 -0.349958 5.07595 0
M  V30 5513 H 490.217 -3.47213 4.46609 0
M  V30 5514 H 488.774 -3.69021 5.37277 0
M  V30 5515 N 492.207 -1.54576 0.307264 0
M  V30 5516 C 493.154 -2.23751 -0.56604 0
M  V30 5517 C 494.124 -1.22235 -1.12462 0
M  V30 5518 O 495.309 -1.50873 -1.16799 0
M  V30 5519 C 492.449 -2.98661 -1.72903 0
M  V30 5520 C 491.562 -4.14963 -1.20124 0
M  V30 5521 C 490.697 -4.77441 -2.3286 0
M  V30 5522 C 489.736 -5.85875 -1.77247 0
M  V30 5523 N 488.873 -6.42282 -2.8358 0
M  V30 5524 H 493.713 -2.97984 0.0304578 0
M  V30 5525 H 491.25 -1.47076 0.0268015 0
M  V30 5526 H 493.208 -3.40329 -2.41313 0
M  V30 5527 H 491.838 -2.26793 -2.29706 0
M  V30 5528 H 490.89 -3.78193 -0.409198 0
M  V30 5529 H 492.202 -4.93066 -0.754171 0
M  V30 5530 H 491.356 -5.21993 -3.09205 0
M  V30 5531 H 490.095 -3.98684 -2.80896 0
M  V30 5532 H 489.1 -5.40741 -0.993926 0
M  V30 5533 H 490.325 -6.6652 -1.30107 0
M  V30 5534 H 488.271 -5.66406 -3.30939 0
M  V30 5535 H 488.188 -7.1575 -2.43388 0
M  V30 5536 H 489.456 -6.91492 -3.59804 0
M  V30 5537 N 493.685 -0.035106 -1.57561 0
M  V30 5538 C 494.91 0.655802 -1.96759 0
M  V30 5539 C 495.335 1.64523 -0.911809 0
M  V30 5540 O 494.693 1.80857 0.126673 0
M  V30 5541 C 494.741 1.33326 -3.35047 0
M  V30 5542 O 493.845 2.44866 -3.31835 0
M  V30 5543 H 493.186 0.171807 -0.641388 0
M  V30 5544 H 495.716 -0.0987369 -2.04362 0
M  V30 5545 H 495.726 1.68867 -3.71413 0
M  V30 5546 H 494.401 0.608033 -4.11431 0
M  V30 5547 H 492.978 2.11392 -3.07193 0
M  V30 5548 N 495.163 1.55791 0.238111 0
M  V30 5549 C 496.412 1.77234 0.962868 0
M  V30 5550 C 496.725 0.600661 1.86149 0
M  V30 5551 O 497.931 0.698315 2.62366 0
M  V30 5552 C 496.387 3.13808 1.76218 0
M  V30 5553 C 495.995 4.3865 0.910518 0
M  V30 5554 C 497.739 3.44585 2.47914 0
M  V30 5555 C 495.646 5.66252 1.70623 0
M  V30 5556 H 494.576 0.660731 0.36325 0
M  V30 5557 H 497.227 1.8221 0.217242 0
M  V30 5558 H 495.609 3.02963 2.55009 0
M  V30 5559 H 496.783 4.60507 0.164316 0
M  V30 5560 H 495.098 4.15271 0.30647 0
M  V30 5561 H 497.695 4.3714 3.07917 0
M  V30 5562 H 498.038 2.66314 3.19973 0
M  V30 5563 H 498.571 3.56685 1.76127 0
M  V30 5564 H 495.31 6.47369 1.02923 0
M  V30 5565 H 494.83 5.48483 2.42748 0
M  V30 5566 H 496.509 6.05829 2.27114 0
M  V30 5567 N 496.642 -0.504142 1.49319 0
M  V30 5568 C 497.872 -1.28071 1.62116 0
M  V30 5569 C 498.28 -1.86955 0.290566 0
M  V30 5570 O 497.623 -1.68415 -0.733616 0
M  V30 5571 C 497.685 -2.4521 2.62893 0
M  V30 5572 C 497.349 -2.07218 4.0732 0
M  V30 5573 C 498.346 -1.61375 4.94221 0
M  V30 5574 C 496.031 -2.16949 4.53033 0
M  V30 5575 C 498.025 -1.25763 6.2487 0
M  V30 5576 C 495.712 -1.80949 5.83696 0
M  V30 5577 C 496.71 -1.3543 6.69438 0
M  V30 5578 O 496.398 -0.99915 7.97667 0
M  V30 5579 H 496.13 -0.394763 0.54876 0
M  V30 5580 H 498.684 -0.612118 1.96067 0
M  V30 5581 H 496.914 -3.15134 2.24115 0
M  V30 5582 H 498.603 -3.0724 2.65252 0
M  V30 5583 H 499.369 -1.53306 4.60133 0
M  V30 5584 H 495.248 -2.5133 3.86463 0
M  V30 5585 H 498.792 -0.901631 6.91749 0
M  V30 5586 H 494.689 -1.88667 6.17313 0
M  V30 5587 H 495.457 -1.13089 8.1065 0
M  V30 5588 N 498.12 -1.38341 -0.754957 0
M  V30 5589 C 499.068 -1.35573 -1.89005 0
M  V30 5590 C 500.062 -0.241824 -1.67665 0
M  V30 5591 O 501.268 -0.410785 -1.7525 0
M  V30 5592 H 497.643 -0.422898 -0.621821 0
M  V30 5593 H 499.614 -2.31359 -1.88455 0
M  V30 5594 C 498.363 -1.19631 -3.26471 0
M  V30 5595 H 497.686 -2.04605 -3.43477 0
M  V30 5596 H 499.126 -1.21748 -4.06144 0
M  V30 5597 C 497.585 0.0968705 -3.36761 0
M  V30 5598 O 498.115 1.07439 -3.87066 0
M  V30 5599 N 496.321 0.153242 -2.90196 0
M  V30 5600 H 495.868 -0.642908 -2.49448 0
M  V30 5601 H 495.826 1.01807 -2.9746 0
M  V30 5602 N 499.598 0.982988 -1.23187 0
M  V30 5603 C 500.546 2.09616 -1.00817 0
M  V30 5604 C 501.54 1.6932 0.0519995 0
M  V30 5605 O 502.746 1.79715 -0.101284 0
M  V30 5606 H 499.121 0.685628 -0.308899 0
M  V30 5607 H 501.092 2.25652 -1.95253 0
M  V30 5608 C 499.841 3.42249 -0.613243 0
M  V30 5609 H 499.164 3.73705 -1.42073 0
M  V30 5610 H 500.604 4.21086 -0.496208 0
M  V30 5611 C 499.063 3.30002 0.678233 0
M  V30 5612 O 499.593 3.6263 1.72807 0
M  V30 5613 N 497.799 2.83164 0.653165 0
M  V30 5614 H 497.346 2.56811 -0.201492 0
M  V30 5615 H 497.304 2.75352 1.51752 0
M  V30 5616 N 501.076 1.04316 1.18135 0
M  V30 5617 C 502.009 0.580823 2.20685 0
M  V30 5618 C 502.987 -0.385943 1.57953 0
M  V30 5619 O 504.171 -0.299654 1.86103 0
M  V30 5620 C 501.298 -0.151162 3.38363 0
M  V30 5621 C 500.344 0.769247 4.19505 0
M  V30 5622 S 501.177 2.25352 4.85774 0
M  V30 5623 C 502.333 1.53246 6.0685 0
M  V30 5624 H 502.566 1.44968 2.5956 0
M  V30 5625 H 500.099 0.85434 1.28609 0
M  V30 5626 H 502.057 -0.567315 4.06561 0
M  V30 5627 H 500.718 -0.995936 2.97892 0
M  V30 5628 H 499.911 0.203335 5.0359 0
M  V30 5629 H 499.513 1.12436 3.56699 0
M  V30 5630 H 501.805 0.82689 6.72435 0
M  V30 5631 H 502.748 2.35044 6.67952 0
M  V30 5632 H 503.156 1.0237 5.5514 0
M  V30 5633 N 502.554 -1.34406 0.822964 0
M  V30 5634 C 503.501 -2.29519 0.24284 0
M  V30 5635 C 504.471 -1.5359 -0.632397 0
M  V30 5636 O 505.656 -1.8196 -0.57403 0
M  V30 5637 C 502.796 -3.40032 -0.58925 0
M  V30 5638 C 501.909 -4.30899 0.308236 0
M  V30 5639 C 501.044 -5.28515 -0.533425 0
M  V30 5640 C 500.083 -6.1102 0.363444 0
M  V30 5641 N 499.22 -7.00725 -0.439147 0
M  V30 5642 H 504.06 -2.78537 1.05929 0
M  V30 5643 H 501.597 -1.3707 0.533872 0
M  V30 5644 H 503.555 -4.0279 -1.087 0
M  V30 5645 H 502.185 -2.92248 -1.37081 0
M  V30 5646 H 501.237 -3.69002 0.924203 0
M  V30 5647 H 502.549 -4.88717 0.997862 0
M  V30 5648 H 501.703 -5.96725 -1.09565 0
M  V30 5649 H 500.442 -4.71235 -1.25656 0
M  V30 5650 H 499.447 -5.41743 0.937812 0
M  V30 5651 H 500.672 -6.70381 1.08469 0
M  V30 5652 H 498.618 -6.45913 -1.14595 0
M  V30 5653 H 498.535 -7.55756 0.19209 0
M  V30 5654 H 499.803 -7.73263 -0.984124 0
M  V30 5655 N 504.032 -0.577932 -1.46621 0
M  V30 5656 C 504.98 0.170882 -2.31971 0
M  V30 5657 C 505.974 0.889086 -1.44193 0
M  V30 5658 O 507.18 0.808017 -1.60845 0
M  V30 5659 H 503.555 0.0739763 -0.748353 0
M  V30 5660 H 505.526 -0.567856 -2.92947 0
M  V30 5661 C 504.275 1.17438 -3.27267 0
M  V30 5662 H 503.598 0.63116 -3.94787 0
M  V30 5663 H 505.038 1.66882 -3.89778 0
M  V30 5664 C 503.497 2.23292 -2.52274 0
M  V30 5665 O 504.027 3.30567 -2.28229 0
M  V30 5666 N 502.233 1.97772 -2.12919 0
M  V30 5667 H 501.78 1.10545 -2.32675 0
M  V30 5668 H 501.738 2.68809 -1.63062 0
M  V30 5669 N 505.51 1.54411 -0.315457 0
M  V30 5670 C 506.787 1.92562 0.343398 0
M  V30 5671 C 507.167 1.24423 1.70535 0
M  V30 5672 O 506.515 0.385051 2.25232 0
M  V30 5673 C 506.725 3.46168 0.443687 0
M  V30 5674 C 508.073 4.18659 0.707783 0
M  V30 5675 O 509.097 3.52281 0.52693 0
M  V30 5676 O 507.956 5.36198 1.05612 0
M  V30 5677 H 505.05 0.80379 0.194552 0
M  V30 5678 H 507.596 1.65738 -0.364577 0
M  V30 5679 H 506.368 3.8792 -0.513172 0
M  V30 5680 H 505.991 3.79073 1.19956 0
M  V30 5681 N 506.988 0.0434614 1.5754 0
M  V30 5682 C 508.218 -0.640905 1.96408 0
M  V30 5683 C 508.626 -1.65365 0.919297 0
M  V30 5684 O 507.969 -1.83395 -0.105795 0
M  V30 5685 C 508.031 -1.39141 3.31482 0
M  V30 5686 C 507.695 -0.535375 4.53853 0
M  V30 5687 C 508.692 0.195335 5.19533 0
M  V30 5688 C 506.377 -0.468564 5.0011 0
M  V30 5689 C 508.371 0.981377 6.298 0
M  V30 5690 C 506.058 0.321171 6.10255 0
M  V30 5691 C 507.056 1.04484 6.74961 0
M  V30 5692 O 506.744 1.8216 7.8299 0
M  V30 5693 H 506.476 -0.180584 0.651433 0
M  V30 5694 H 509.03 0.103848 2.05137 0
M  V30 5695 H 507.26 -2.18162 3.19284 0
M  V30 5696 H 508.949 -1.96526 3.55151 0
M  V30 5697 H 509.715 0.15314 4.84758 0
M  V30 5698 H 505.594 -1.02142 4.49542 0
M  V30 5699 H 509.138 1.54674 6.80237 0
M  V30 5700 H 505.035 0.365032 6.44467 0
M  V30 5701 H 505.803 1.74289 7.99728 0
M  V30 5702 N 508.466 -1.55915 -0.229846 0
M  V30 5703 C 509.714 -1.7819 -0.953565 0
M  V30 5704 C 510.035 -0.610504 -1.85197 0
M  V30 5705 O 509.305 0.372988 -1.92316 0
M  V30 5706 H 507.885 -0.657208 -0.355087 0
M  V30 5707 H 510.547 -1.9337 -0.243693 0
M  V30 5708 H 509.643 -2.70011 -1.56527 0
M  V30 5709 N 509.944 0.496216 -1.49584 0
M  V30 5710 C 511.169 1.27865 -1.63295 0
M  V30 5711 C 511.594 1.85592 -0.306156 0
M  V30 5712 O 510.952 1.66092 0.726851 0
M  V30 5713 C 511 2.38128 -2.7079 0
M  V30 5714 O 510.104 3.42108 -2.30296 0
M  V30 5715 H 509.445 0.377279 -0.546403 0
M  V30 5716 H 511.975 0.593497 -1.95803 0
M  V30 5717 H 511.985 2.8382 -2.93104 0
M  V30 5718 H 510.66 1.95479 -3.67098 0
M  V30 5719 H 509.237 3.02301 -2.18331 0
M  V30 5720 N 511.423 1.38739 0.74761 0
M  V30 5721 C 512.671 1.35007 1.50391 0
M  V30 5722 C 512.992 -0.0574274 1.94915 0
M  V30 5723 O 512.262 -1.00628 1.6808 0
M  V30 5724 H 510.842 0.496784 0.557866 0
M  V30 5725 H 513.504 1.73479 0.888319 0
M  V30 5726 H 512.6 2.00474 2.392 0
M  V30 5727 N 512.901 -0.976442 1.23707 0
M  V30 5728 C 514.129 -1.75341 1.09833 0
M  V30 5729 C 514.544 -1.8553 -0.349885 0
M  V30 5730 O 513.901 -1.33732 -1.24185 0
M  V30 5731 C 513.952 -3.17833 1.72233 0
M  V30 5732 O 513.673 -3.08167 3.11391 0
M  V30 5733 C 515.174 -4.11906 1.63853 0
M  V30 5734 H 512.394 -0.550137 0.384175 0
M  V30 5735 H 514.938 -1.2265 1.63638 0
M  V30 5736 H 513.093 -3.67538 1.22452 0
M  V30 5737 H 513.507 -3.97897 3.41729 0
M  V30 5738 H 514.981 -5.09579 2.12211 0
M  V30 5739 H 515.458 -4.35109 0.598092 0
M  V30 5740 H 516.064 -3.68107 2.13019 0
M  V30 5741 N 514.379 -1.04941 -1.1758 0
M  V30 5742 C 515.342 -0.652456 -2.19717 0
M  V30 5743 C 516.342 0.294745 -1.58076 0
M  V30 5744 O 517.532 0.0789579 -1.74021 0
M  V30 5745 C 514.664 0.0420712 -3.40874 0
M  V30 5746 H 515.857 -1.55642 -2.5635 0
M  V30 5747 H 513.41 -0.842995 -1.31618 0
M  V30 5748 H 514.145 0.95943 -3.09783 0
M  V30 5749 H 513.93 -0.638844 -3.86861 0
M  V30 5750 H 515.42 0.306 -4.16477 0
M  V30 5751 N 515.857 1.33968 -0.830081 0
M  V30 5752 C 517.106 1.97323 -0.417928 0
M  V30 5753 C 517.419 1.6652 1.02618 0
M  V30 5754 O 518.625 2.2342 1.54259 0
M  V30 5755 C 517.081 3.53099 -0.696359 0
M  V30 5756 C 516.689 3.92788 -2.15457 0
M  V30 5757 C 518.433 4.23049 -0.350724 0
M  V30 5758 C 516.34 5.41506 -2.37751 0
M  V30 5759 H 515.27 0.738409 -0.152541 0
M  V30 5760 H 517.921 1.52711 -1.01744 0
M  V30 5761 H 516.303 3.95991 -0.0265904 0
M  V30 5762 H 517.477 3.6098 -2.86408 0
M  V30 5763 H 515.792 3.35795 -2.46232 0
M  V30 5764 H 518.389 5.32403 -0.495036 0
M  V30 5765 H 518.732 4.10279 0.705476 0
M  V30 5766 H 519.265 3.85657 -0.975362 0
M  V30 5767 H 516.004 5.5927 -3.41903 0
M  V30 5768 H 515.524 5.74804 -1.7135 0
M  V30 5769 H 517.203 6.0828 -2.20465 0
M  V30 5770 N 517.335 0.585699 1.46312 0
M  V30 5771 C 518.285 -0.166813 2.27389 0
M  V30 5772 C 519.269 -0.859076 1.36047 0
M  V30 5773 O 520.461 -0.752678 1.60199 0
M  V30 5774 C 517.59 -1.17791 3.2246 0
M  V30 5775 C 516.676 -0.487605 4.21288 0
M  V30 5776 N 517.067 0.45849 5.03718 0
M  V30 5777 C 515.365 -0.737971 4.39852 0
M  V30 5778 C 516.066 0.862213 5.75275 0
M  V30 5779 N 515.042 0.210707 5.43191 0
M  V30 5780 H 518.844 0.560167 2.88512 0
M  V30 5781 H 516.358 0.407715 1.57199 0
M  V30 5782 H 518.355 -1.73122 3.79255 0
M  V30 5783 H 517.015 -1.90568 2.62896 0
M  V30 5784 H 518.026 0.834163 5.11138 0
M  V30 5785 H 514.703 -1.45209 3.91434 0
M  V30 5786 H 516.093 1.64128 6.51546 0
M  V30 5787 N 518.813 -1.54241 0.323641 0
M  V30 5788 C 520.224 -1.85975 -0.164405 0
M  V30 5789 C 520.575 -1.24529 -1.51615 0
M  V30 5790 O 519.7 -0.551351 -2.09258 0
M  V30 5791 C 520.295 -3.37424 -0.305091 0
M  V30 5792 C 518.854 -3.69107 -0.737358 0
M  V30 5793 C 518.001 -2.76942 0.140884 0
M  V30 5794 H 520.952 -1.49088 0.543922 0
M  V30 5795 H 520.973 -3.63147 -1.13598 0
M  V30 5796 H 520.485 -3.82116 0.678876 0
M  V30 5797 H 518.586 -3.29947 -1.73107 0
M  V30 5798 H 518.699 -4.76035 -0.541053 0
M  V30 5799 H 517.063 -2.51795 -0.383572 0
M  V30 5800 H 517.846 -3.24461 1.12162 0
M  V30 5801 N 520.291 -0.0518155 -1.57515 0
M  V30 5802 C 521.223 0.951542 -2.08515 0
M  V30 5803 C 522.236 1.27436 -1.01311 0
M  V30 5804 O 523.425 1.23504 -1.28876 0
M  V30 5805 C 520.525 2.27291 -2.5138 0
M  V30 5806 C 519.698 2.13191 -3.81927 0
M  V30 5807 C 518.757 3.28458 -4.11098 0
M  V30 5808 O 517.783 3.04334 -4.81009 0
M  V30 5809 N 518.985 4.52954 -3.63061 0
M  V30 5810 H 521.75 0.516242 -2.9522 0
M  V30 5811 H 519.311 0.13441 -1.61341 0
M  V30 5812 H 521.303 3.03272 -2.67971 0
M  V30 5813 H 519.873 2.62386 -1.69919 0
M  V30 5814 H 519.093 1.21798 -3.74912 0
M  V30 5815 H 520.381 2.00999 -4.67415 0
M  V30 5816 H 519.779 4.75444 -3.06545 0
M  V30 5817 H 518.336 5.26026 -3.84889 0
M  V30 5818 N 521.769 1.56035 0.221574 0
M  V30 5819 C 522.997 1.8313 0.962864 0
M  V30 5820 C 523.412 0.630934 1.77946 0
M  V30 5821 O 522.769 -0.400519 1.78051 0
M  V30 5822 C 522.82 3.08742 1.88045 0
M  V30 5823 O 522.541 4.24147 1.09686 0
M  V30 5824 C 524.042 3.48824 2.73563 0
M  V30 5825 H 521.262 0.608775 0.282194 0
M  V30 5826 H 523.806 2.03124 0.23681 0
M  V30 5827 H 521.961 2.90723 2.56045 0
M  V30 5828 H 522.375 4.95505 1.71974 0
M  V30 5829 H 523.849 4.39752 3.3365 0
M  V30 5830 H 524.326 2.70575 3.45956 0
M  V30 5831 H 524.932 3.69282 2.10976 0
M  V30 5832 N 523.247 -0.488276 1.49845 0
M  V30 5833 C 524.495 -1.23911 1.59657 0
M  V30 5834 C 524.816 -1.92816 0.291005 0
M  V30 5835 O 524.086 -1.83328 -0.690485 0
M  V30 5836 H 522.666 -0.460357 0.588286 0
M  V30 5837 H 525.328 -0.564794 1.86537 0
M  V30 5838 H 524.424 -1.99625 2.39909 0
M  V30 5839 N 524.725 -1.39134 -0.740242 0
M  V30 5840 C 525.635 -1.39697 -1.88473 0
M  V30 5841 C 526.651 -0.292403 -1.71526 0
M  V30 5842 O 527.827 -0.533021 -1.94219 0
M  V30 5843 C 524.892 -1.23382 -3.24003 0
M  V30 5844 C 523.953 -2.43763 -3.53381 0
M  V30 5845 C 523.186 -2.28216 -4.82445 0
M  V30 5846 O 523.409 -1.28288 -5.55786 0
M  V30 5847 O 522.343 -3.1709 -5.11603 0
M  V30 5848 H 526.169 -2.36159 -1.90952 0
M  V30 5849 H 523.754 -1.20194 -0.887346 0
M  V30 5850 H 525.636 -1.16395 -4.05006 0
M  V30 5851 H 524.311 -0.300121 -3.22306 0
M  V30 5852 H 523.218 -2.56325 -2.72485 0
M  V30 5853 H 524.551 -3.35808 -3.59852 0
M  V30 5854 N 526.204 0.969867 -1.24223 0
M  V30 5855 C 527.134 2.08191 -1.05729 0
M  V30 5856 C 528.115 1.70075 0.0290765 0
M  V30 5857 O 529.3 1.93712 -0.137583 0
M  V30 5858 C 526.43 3.40991 -0.658995 0
M  V30 5859 C 525.384 3.93054 -1.69389 0
M  V30 5860 C 524.71 5.22171 -1.15072 0
M  V30 5861 C 526.01 4.21137 -3.08935 0
M  V30 5862 H 527.704 2.23921 -1.98746 0
M  V30 5863 H 525.25 1.07602 -0.956967 0
M  V30 5864 H 527.203 4.18221 -0.51662 0
M  V30 5865 H 525.927 3.25155 0.30686 0
M  V30 5866 H 524.586 3.17977 -1.82444 0
M  V30 5867 H 524.234 5.02694 -0.175539 0
M  V30 5868 H 523.934 5.57973 -1.84229 0
M  V30 5869 H 525.458 6.02013 -1.02042 0
M  V30 5870 H 526.872 4.8908 -2.99121 0
M  V30 5871 H 525.269 4.68163 -3.75425 0
M  V30 5872 H 526.339 3.27996 -3.57137 0
M  V30 5873 N 527.682 1.05563 1.17022 0
M  V30 5874 C 528.612 0.681026 2.23348 0
M  V30 5875 C 529.593 -0.322983 1.67005 0
M  V30 5876 O 530.778 -0.199746 1.9317 0
M  V30 5877 C 527.908 0.0589053 3.4725 0
M  V30 5878 C 526.862 0.988082 4.16438 0
M  V30 5879 C 526.188 0.229646 5.34207 0
M  V30 5880 C 527.488 2.31388 4.68249 0
M  V30 5881 H 529.182 1.56993 2.54938 0
M  V30 5882 H 526.728 0.756302 1.2254 0
M  V30 5883 H 528.681 -0.214982 4.20851 0
M  V30 5884 H 527.405 -0.864968 3.14938 0
M  V30 5885 H 526.064 1.24659 3.44754 0
M  V30 5886 H 525.712 -0.697111 4.98146 0
M  V30 5887 H 525.412 0.848815 5.81437 0
M  V30 5888 H 526.936 -0.0368694 6.10589 0
M  V30 5889 H 528.35 2.09964 5.33468 0
M  V30 5890 H 526.747 2.88736 5.26072 0
M  V30 5891 H 527.817 2.94982 3.84855 0
M  V30 5892 N 529.16 -1.33526 0.837174 0
M  V30 5893 C 530.123 -2.27551 0.274421 0
M  V30 5894 C 531.123 -1.50886 -0.555881 0
M  V30 5895 O 532.313 -1.70227 -0.369918 0
M  V30 5896 C 529.445 -3.35332 -0.613605 0
M  V30 5897 H 530.638 -2.78837 1.10408 0
M  V30 5898 H 528.191 -1.439 0.610126 0
M  V30 5899 H 528.926 -2.89285 -1.46577 0
M  V30 5900 H 528.711 -3.92095 -0.0195341 0
M  V30 5901 H 530.201 -4.05433 -1.00068 0
M  V30 5902 N 530.638 -0.59345 -1.46 0
M  V30 5903 C 531.568 0.121192 -2.33185 0
M  V30 5904 C 532.549 0.872977 -1.4599 0
M  V30 5905 O 533.734 0.846321 -1.74789 0
M  V30 5906 C 530.864 1.12844 -3.28456 0
M  V30 5907 C 529.818 0.4908 -4.25177 0
M  V30 5908 C 529.144 1.60529 -5.10034 0
M  V30 5909 C 530.444 -0.578949 -5.19081 0
M  V30 5910 H 532.138 -0.606767 -2.93187 0
M  V30 5911 H 529.684 -0.293242 -1.40983 0
M  V30 5912 H 531.637 1.63684 -3.88311 0
M  V30 5913 H 530.361 1.88681 -2.66584 0
M  V30 5914 H 529.02 0.00339328 -3.666 0
M  V30 5915 H 528.668 2.35359 -4.44539 0
M  V30 5916 H 528.368 1.18422 -5.75543 0
M  V30 5917 H 529.892 2.11623 -5.72755 0
M  V30 5918 H 531.306 -0.155199 -5.7309 0
M  V30 5919 H 529.703 -0.920947 -5.92991 0
M  V30 5920 H 530.773 -1.46109 -4.62364 0
M  V30 5921 N 532.116 1.54067 -0.331816 0
M  V30 5922 C 533.362 2.01012 0.268667 0
M  V30 5923 C 533.695 1.2195 1.51136 0
M  V30 5924 O 532.97 0.303972 1.9211 0
M  V30 5925 C 533.253 3.55158 0.59456 0
M  V30 5926 C 533.106 4.4494 -0.659409 0
M  V30 5927 C 534.425 4.16939 1.4089 0
M  V30 5928 H 531.544 0.730698 0.0961756 0
M  V30 5929 H 534.186 1.84593 -0.450031 0
M  V30 5930 H 532.336 3.6928 1.20685 0
M  V30 5931 H 534.008 4.42675 -1.29756 0
M  V30 5932 H 532.251 4.1428 -1.28665 0
M  V30 5933 H 532.922 5.50643 -0.386804 0
M  V30 5934 H 535.398 4.06443 0.891272 0
M  V30 5935 H 534.274 5.24889 1.60569 0
M  V30 5936 H 534.535 3.70798 2.40752 0
M  V30 5937 N 533.594 0.0601682 1.57485 0
M  V30 5938 C 534.819 -0.624416 1.97777 0
M  V30 5939 C 535.244 -1.63051 0.937867 0
M  V30 5940 O 534.602 -1.81036 -0.0978845 0
M  V30 5941 C 534.65 -1.27979 3.37126 0
M  V30 5942 O 533.754 -2.39556 3.35688 0
M  V30 5943 H 533.095 -0.161581 0.64404 0
M  V30 5944 H 535.625 0.131237 2.04179 0
M  V30 5945 H 535.635 -1.62937 3.74053 0
M  V30 5946 H 534.31 -0.542501 4.12347 0
M  V30 5947 H 532.887 -2.06478 3.10517 0
M  V30 5948 N 535.072 -1.5615 -0.213296 0
M  V30 5949 C 536.3 -1.83638 -0.953139 0
M  V30 5950 C 536.715 -0.640362 -1.77609 0
M  V30 5951 O 536.072 0.391071 -1.78261 0
M  V30 5952 C 536.123 -3.09735 -1.86405 0
M  V30 5953 O 535.844 -4.24723 -1.07435 0
M  V30 5954 C 537.345 -3.5027 -2.71709 0
M  V30 5955 H 534.565 -0.610263 -0.278962 0
M  V30 5956 H 537.109 -2.03247 -0.226035 0
M  V30 5957 H 535.264 -2.92077 -2.545 0
M  V30 5958 H 535.678 -4.9641 -1.69343 0
M  V30 5959 H 537.152 -4.41515 -3.31313 0
M  V30 5960 H 537.629 -2.72406 -3.44516 0
M  V30 5961 H 538.235 -3.70396 -2.09015 0
M  V30 5962 N 536.55 0.480323 -1.50102 0
M  V30 5963 C 537.961 1.06142 -1.53593 0
M  V30 5964 C 538.312 1.93335 -0.334055 0
M  V30 5965 O 537.437 2.09188 0.55403 0
M  V30 5966 C 538.032 1.9317 -2.78336 0
M  V30 5967 C 536.591 2.46405 -2.84538 0
M  V30 5968 C 535.738 1.24521 -2.4777 0
M  V30 5969 H 538.689 0.26333 -1.565 0
M  V30 5970 H 538.71 2.78123 -2.59669 0
M  V30 5971 H 538.222 1.29683 -3.65792 0
M  V30 5972 H 536.323 3.13472 -2.01411 0
M  V30 5973 H 536.436 2.82143 -3.87211 0
M  V30 5974 H 534.8 1.57706 -2.00003 0
M  V30 5975 H 535.583 0.627102 -3.37524 0
M  V30 5976 N 538.028 1.39524 0.732853 0
M  V30 5977 C 539.253 1.40329 1.52717 0
M  V30 5978 C 539.678 0.000286574 1.881 0
M  V30 5979 O 539.036 -0.987262 1.52062 0
M  V30 5980 C 539.084 2.28464 2.78992 0
M  V30 5981 O 538.188 1.716 3.75003 0
M  V30 5982 H 537.529 0.47778 0.461109 0
M  V30 5983 H 540.059 1.83546 0.903996 0
M  V30 5984 H 540.069 2.43051 3.27705 0
M  V30 5985 H 538.744 3.30425 2.52572 0
M  V30 5986 H 537.321 1.66267 3.33781 0
M  V30 5987 N 539.506 -0.963266 1.24736 0
M  V30 5988 C 540.736 -1.73913 1.11524 0
M  V30 5989 C 541.144 -1.86218 -0.334612 0
M  V30 5990 O 540.487 -1.3531 -1.24245 0
M  V30 5991 C 540.549 -3.17501 1.68622 0
M  V30 5992 C 540.213 -3.28655 3.17546 0
M  V30 5993 C 541.21 -3.13637 4.14642 0
M  V30 5994 C 538.895 -3.52753 3.5759 0
M  V30 5995 C 540.889 -3.2255 5.49764 0
M  V30 5996 C 538.576 -3.61303 4.92852 0
M  V30 5997 C 539.574 -3.46214 5.88748 0
M  V30 5998 O 539.262 -3.5443 7.2155 0
M  V30 5999 H 538.994 -0.552057 0.390139 0
M  V30 6000 H 541.548 -1.2177 1.65412 0
M  V30 6001 H 539.778 -3.70969 1.09172 0
M  V30 6002 H 541.467 -3.76914 1.50635 0
M  V30 6003 H 542.233 -2.94899 3.85045 0
M  V30 6004 H 538.112 -3.63561 2.83451 0
M  V30 6005 H 541.656 -3.1069 6.24594 0
M  V30 6006 H 537.553 -3.79556 5.22118 0
M  V30 6007 H 538.321 -3.71116 7.29531 0
M  V30 6008 N 540.985 -1.06182 -1.16461 0
M  V30 6009 C 542.262 -0.691364 -1.82974 0
M  V30 6010 C 542.642 0.827377 -1.9421 0
M  V30 6011 O 541.99 1.73723 -1.48434 0
M  V30 6012 C 542.2 -1.39199 -3.20038 0
M  V30 6013 C 543.548 -1.53647 -3.95825 0
M  V30 6014 O 544.572 -1.35181 -3.29552 0
M  V30 6015 O 543.431 -1.83932 -5.14618 0
M  V30 6016 H 540.525 -0.244605 -0.789998 0
M  V30 6017 H 543.071 -1.16203 -1.23673 0
M  V30 6018 H 541.843 -2.42766 -3.06888 0
M  V30 6019 H 541.466 -0.911335 -3.87015 0
M  V30 6020 N 542.463 1.3308 -0.844243 0
M  V30 6021 C 543.709 1.97898 -0.443206 0
M  V30 6022 C 544.042 1.66699 0.99625 0
M  V30 6023 O 543.317 0.949704 1.69738 0
M  V30 6024 C 543.6 3.53801 -0.670606 0
M  V30 6025 C 543.453 3.94667 -2.15772 0
M  V30 6026 C 544.772 4.39936 -0.120226 0
M  V30 6027 H 541.891 0.718861 -0.162504 0
M  V30 6028 H 544.533 1.57633 -1.06075 0
M  V30 6029 H 542.683 3.88229 -0.14496 0
M  V30 6030 H 544.355 3.70469 -2.74865 0
M  V30 6031 H 542.598 3.44203 -2.6402 0
M  V30 6032 H 543.269 5.03275 -2.26757 0
M  V30 6033 H 545.745 4.12183 -0.5696 0
M  V30 6034 H 544.621 5.4803 -0.308984 0
M  V30 6035 H 544.882 4.31184 0.976347 0
M  V30 6036 N 543.941 0.601185 1.45683 0
M  V30 6037 C 545.171 0.0999093 2.06358 0
M  V30 6038 C 545.579 -1.21831 1.44754 0
M  V30 6039 O 544.922 -1.75157 0.553695 0
M  V30 6040 C 544.984 -0.12085 3.59297 0
M  V30 6041 C 544.648 1.11459 4.432 0
M  V30 6042 C 545.645 2.03118 4.7858 0
M  V30 6043 C 543.33 1.34162 4.84051 0
M  V30 6044 C 545.324 3.15814 5.53661 0
M  V30 6045 C 543.011 2.4716 5.58888 0
M  V30 6046 C 544.009 3.37814 5.93608 0
M  V30 6047 O 543.697 4.48846 6.66928 0
M  V30 6048 H 543.429 0.0630316 0.673055 0
M  V30 6049 H 545.983 0.826982 1.88016 0
M  V30 6050 H 544.213 -0.902744 3.76015 0
M  V30 6051 H 545.902 -0.572925 4.01836 0
M  V30 6052 H 546.668 1.86801 4.47583 0
M  V30 6053 H 542.547 0.645018 4.56465 0
M  V30 6054 H 546.091 3.86596 5.8068 0
M  V30 6055 H 541.988 2.63432 5.89299 0
M  V30 6056 H 542.756 4.47446 6.85371 0
M  V30 6057 N 545.419 -1.53889 0.339982 0
M  V30 6058 C 546.83 -1.86139 -0.144671 0
M  V30 6059 C 547.181 -1.2613 -1.50285 0
M  V30 6060 O 546.306 -0.573515 -2.08662 0
M  V30 6061 C 546.901 -3.37728 -0.269285 0
M  V30 6062 C 545.46 -3.69868 -0.698168 0
M  V30 6063 C 544.607 -2.76777 0.170249 0
M  V30 6064 H 547.558 -1.48503 0.559704 0
M  V30 6065 H 547.579 -3.64331 -1.0974 0
M  V30 6066 H 547.091 -3.81375 0.719366 0
M  V30 6067 H 545.192 -3.31764 -1.69597 0
M  V30 6068 H 545.305 -4.76582 -0.490533 0
M  V30 6069 H 543.669 -2.52188 -0.356844 0
M  V30 6070 H 544.452 -3.23253 1.15597 0
M  V30 6071 N 546.897 -0.0685191 -1.57451 0
M  V30 6072 C 548.144 0.601348 -1.93365 0
M  V30 6073 C 548.472 1.69816 -0.948294 0
M  V30 6074 O 547.727 1.95666 0.0366199 0
M  V30 6075 C 548.026 1.22051 -3.35914 0
M  V30 6076 C 547.692 0.250165 -4.50205 0
M  V30 6077 C 546.354 -0.0167954 -4.81197 0
M  V30 6078 C 548.706 -0.413867 -5.19554 0
M  V30 6079 C 546.034 -0.95493 -5.78876 0
M  V30 6080 C 548.386 -1.3403 -6.18238 0
M  V30 6081 C 547.05 -1.61576 -6.47649 0
M  V30 6082 H 546.32 0.220049 -0.707573 0
M  V30 6083 H 548.967 -0.138697 -1.90997 0
M  V30 6084 H 547.272 2.03622 -3.34732 0
M  V30 6085 H 548.969 1.74605 -3.6099 0
M  V30 6086 H 545.559 0.468421 -4.26033 0
M  V30 6087 H 549.743 -0.220733 -4.95809 0
M  V30 6088 H 544.999 -1.17563 -5.99991 0
M  V30 6089 H 549.173 -1.86081 -6.71079 0
M  V30 6090 H 546.8 -2.34431 -7.2315 0
M  V30 6091 N 548.375 1.56261 0.205012 0
M  V30 6092 C 549.308 1.88797 1.28183 0
M  V30 6093 C 550.286 0.747018 1.44424 0
M  V30 6094 O 551.47 0.997039 1.59973 0
M  V30 6095 C 548.597 2.10949 2.64987 0
M  V30 6096 C 547.643 3.33649 2.6567 0
M  V30 6097 S 548.476 4.89078 2.18088 0
M  V30 6098 C 549.632 5.14286 3.56736 0
M  V30 6099 H 549.865 2.79837 1.00393 0
M  V30 6100 H 547.398 1.48911 0.408042 0
M  V30 6101 H 549.356 2.24395 3.4374 0
M  V30 6102 H 548.017 1.20678 2.89993 0
M  V30 6103 H 547.21 3.46245 3.66239 0
M  V30 6104 H 546.812 3.19146 1.94992 0
M  V30 6105 H 549.104 5.04198 4.52537 0
M  V30 6106 H 550.047 6.16096 3.49043 0
M  V30 6107 H 550.455 4.41957 3.51189 0
M  V30 6108 N 549.853 -0.472356 1.50355 0
M  V30 6109 C 551.083 -1.24603 1.64796 0
M  V30 6110 C 551.491 -1.86297 0.330156 0
M  V30 6111 O 550.834 -1.69934 -0.697728 0
M  V30 6112 C 550.896 -2.39578 2.68035 0
M  V30 6113 C 550.56 -1.98531 4.11624 0
M  V30 6114 C 551.557 -1.50856 4.97532 0
M  V30 6115 C 549.242 -2.0729 4.57532 0
M  V30 6116 C 551.236 -1.12481 6.27397 0
M  V30 6117 C 548.923 -1.68527 5.87403 0
M  V30 6118 C 549.921 -1.212 6.7216 0
M  V30 6119 O 549.609 -0.829728 7.99607 0
M  V30 6120 H 549.341 -0.383035 0.55701 0
M  V30 6121 H 551.895 -0.570392 1.97321 0
M  V30 6122 H 550.125 -3.10309 2.30749 0
M  V30 6123 H 551.814 -3.01544 2.71709 0
M  V30 6124 H 552.58 -1.43511 4.63281 0
M  V30 6125 H 548.459 -2.43076 3.91708 0
M  V30 6126 H 552.003 -0.754698 6.93506 0
M  V30 6127 H 547.9 -1.7553 6.21176 0
M  V30 6128 H 548.668 -0.958689 8.12866 0
M  V30 6129 N 551.331 -1.39911 -0.725443 0
M  V30 6130 C 552.579 -1.37382 -1.48224 0
M  V30 6131 C 552.9 0.0264107 -1.94982 0
M  V30 6132 O 552.17 0.979408 -1.6966 0
M  V30 6133 H 550.75 -0.505596 -0.549892 0
M  V30 6134 H 553.412 -1.7487 -0.860608 0
M  V30 6135 H 552.508 -2.04254 -2.3598 0
M  V30 6136 N 552.809 0.956637 -1.25245 0
M  V30 6137 C 553.742 2.05232 -0.99775 0
M  V30 6138 C 554.72 1.62439 0.0723137 0
M  V30 6139 O 555.904 1.88381 -0.066926 0
M  V30 6140 C 553.031 3.34871 -0.507861 0
M  V30 6141 C 552.077 3.96625 -1.56815 0
M  V30 6142 S 552.91 4.32853 -3.15276 0
M  V30 6143 C 554.066 5.65613 -2.68017 0
M  V30 6144 H 554.299 2.26521 -1.9255 0
M  V30 6145 H 551.832 1.09601 -1.08752 0
M  V30 6146 H 553.79 4.09845 -0.231858 0
M  V30 6147 H 552.451 3.11551 0.399356 0
M  V30 6148 H 551.644 4.90087 -1.17604 0
M  V30 6149 H 551.246 3.28124 -1.79473 0
M  V30 6150 H 553.538 6.43635 -2.11518 0
M  V30 6151 H 554.481 6.09693 -3.60112 0
M  V30 6152 H 554.889 5.24751 -2.0808 0
M  V30 6153 N 554.287 1.06798 1.15896 0
M  V30 6154 C 555.512 0.808739 1.90982 0
M  V30 6155 C 555.937 -0.6316 1.77179 0
M  V30 6156 O 555.295 -1.4407 1.10061 0
M  V30 6157 C 555.343 1.21468 3.39526 0
M  V30 6158 O 554.447 0.356562 4.10856 0
M  V30 6159 H 553.788 0.29512 0.594811 0
M  V30 6160 H 556.318 1.42513 1.46804 0
M  V30 6161 H 556.328 1.18844 3.90308 0
M  V30 6162 H 555.003 2.26379 3.48891 0
M  V30 6163 H 553.58 0.444808 3.70238 0
M  V30 6164 N 555.766 -1.3263 0.851289 0
M  V30 6165 C 556.714 -2.30882 0.282202 0
M  V30 6166 C 557.708 -1.58697 -0.592589 0
M  V30 6167 O 558.914 -1.73461 -0.480768 0
M  V30 6168 H 555.289 -0.748492 0.0725487 0
M  V30 6169 H 557.26 -2.76374 1.12516 0
M  V30 6170 C 556.009 -3.43828 -0.517449 0
M  V30 6171 H 555.332 -3.99532 0.146392 0
M  V30 6172 H 556.772 -4.1474 -0.88128 0
M  V30 6173 C 555.231 -2.90786 -1.70133 0
M  V30 6174 O 555.761 -2.88 -2.80034 0
M  V30 6175 N 553.967 -2.4723 -1.52728 0
M  V30 6176 H 553.514 -2.49695 -0.633257 0
M  V30 6177 H 553.472 -2.12094 -2.32085 0
M  V30 6178 N 557.244 -0.608902 -1.45362 0
M  V30 6179 C 558.154 0.110969 -2.34337 0
M  V30 6180 C 559.17 0.859007 -1.51318 0
M  V30 6181 O 560.346 0.816296 -1.84116 0
M  V30 6182 C 557.411 1.09494 -3.28956 0
M  V30 6183 C 556.472 0.348718 -4.27881 0
M  V30 6184 C 555.705 1.28582 -5.17979 0
M  V30 6185 O 555.928 2.52369 -5.11533 0
M  V30 6186 O 554.862 0.782172 -5.96796 0
M  V30 6187 H 558.688 -0.620258 -2.97299 0
M  V30 6188 H 556.273 -0.36916 -1.44767 0
M  V30 6189 H 558.155 1.66163 -3.87257 0
M  V30 6190 H 556.83 1.80717 -2.68557 0
M  V30 6191 H 555.737 -0.260465 -3.73192 0
M  V30 6192 H 557.07 -0.323049 -4.91139 0
M  V30 6193 N 558.722 1.53707 -0.348139 0
M  V30 6194 C 559.632 2.28881 0.514857 0
M  V30 6195 C 560.648 1.34168 1.10793 0
M  V30 6196 O 561.824 1.6721 1.12262 0
M  V30 6197 C 558.889 3.05042 1.64774 0
M  V30 6198 C 557.95 4.15389 1.08398 0
M  V30 6199 C 557.183 4.87909 2.16287 0
M  V30 6200 O 557.406 4.60137 3.3709 0
M  V30 6201 O 556.34 5.74254 1.80323 0
M  V30 6202 H 560.166 3.03547 -0.0963699 0
M  V30 6203 H 557.751 1.48972 -0.113043 0
M  V30 6204 H 559.633 3.52656 2.30677 0
M  V30 6205 H 558.308 2.33228 2.24469 0
M  V30 6206 H 557.215 3.72068 0.389341 0
M  V30 6207 H 558.548 4.89318 0.531829 0
M  V30 6208 N 560.2 0.0768682 1.57412 0
M  V30 6209 C 561.43 -0.5991 1.97723 0
M  V30 6210 C 561.838 -1.63378 0.954166 0
M  V30 6211 O 561.181 -1.83578 -0.0668706 0
M  V30 6212 C 561.243 -1.32078 3.34358 0
M  V30 6213 C 560.907 -0.438985 4.54887 0
M  V30 6214 C 561.904 0.305492 5.19002 0
M  V30 6215 C 559.589 -0.362378 5.00991 0
M  V30 6216 C 561.583 1.11475 6.27576 0
M  V30 6217 C 559.27 0.450543 6.09437 0
M  V30 6218 C 560.268 1.18777 6.72593 0
M  V30 6219 O 559.956 1.98727 7.7895 0
M  V30 6220 H 559.688 -0.166725 0.655117 0
M  V30 6221 H 562.242 0.147337 2.04871 0
M  V30 6222 H 560.472 -2.1134 3.2384 0
M  V30 6223 H 562.161 -1.88949 3.5924 0
M  V30 6224 H 562.927 0.25593 4.84324 0
M  V30 6225 H 558.806 -0.925832 4.51608 0
M  V30 6226 H 562.35 1.69068 6.76803 0
M  V30 6227 H 558.247 0.501651 6.43548 0
M  V30 6228 H 559.015 1.91214 7.95851 0
M  V30 6229 N 561.678 -1.56367 -0.196722 0
M  V30 6230 C 562.626 -1.95304 -1.2633 0
M  V30 6231 C 563.62 -0.838252 -1.47206 0
M  V30 6232 O 564.826 -1.02325 -1.48087 0
M  V30 6233 H 561.201 -0.621013 -0.424083 0
M  V30 6234 H 563.172 -2.84254 -0.907879 0
M  V30 6235 C 561.921 -2.3074 -2.60104 0
M  V30 6236 H 561.244 -3.16047 -2.44856 0
M  V30 6237 H 562.684 -2.61849 -3.33484 0
M  V30 6238 C 561.143 -1.14143 -3.16975 0
M  V30 6239 O 561.673 -0.415602 -3.99544 0
M  V30 6240 N 559.879 -0.91867 -2.75697 0
M  V30 6241 H 559.426 -1.51065 -2.08656 0
M  V30 6242 H 559.384 -0.140321 -3.14087 0
M  V30 6243 N 563.156 0.464375 -1.50603 0
M  V30 6244 C 564.103 1.56152 -1.69956 0
M  V30 6245 C 565.073 1.57046 -0.54091 0
M  V30 6246 O 566.258 1.74473 -0.772258 0
M  V30 6247 C 563.398 2.94079 -1.80586 0
M  V30 6248 C 562.511 3.02923 -3.07996 0
M  V30 6249 C 561.646 4.31806 -3.09382 0
M  V30 6250 C 560.685 4.34417 -4.31218 0
M  V30 6251 N 559.822 5.54782 -4.30304 0
M  V30 6252 H 564.662 1.38955 -2.6362 0
M  V30 6253 H 562.199 0.675482 -1.30674 0
M  V30 6254 H 564.157 3.74073 -1.8473 0
M  V30 6255 H 562.787 3.09896 -0.903556 0
M  V30 6256 H 561.839 2.1576 -3.13292 0
M  V30 6257 H 563.151 3.00712 -3.97962 0
M  V30 6258 H 562.305 5.20153 -3.12292 0
M  V30 6259 H 561.044 4.36636 -2.17257 0
M  V30 6260 H 560.049 3.44467 -4.28512 0
M  V30 6261 H 561.274 4.31273 -5.24576 0
M  V30 6262 H 559.22 5.60384 -3.41037 0
M  V30 6263 H 559.137 5.54339 -5.14047 0
M  V30 6264 H 560.405 6.45235 -4.3737 0
M  V30 6265 N 564.634 1.40294 0.718013 0
M  V30 6266 C 565.564 1.43118 1.84498 0
M  V30 6267 C 566.545 0.292403 1.67568 0
M  V30 6268 O 567.73 0.500675 1.87635 0
M  V30 6269 C 564.86 1.29065 3.22427 0
M  V30 6270 C 563.814 2.40521 3.54025 0
M  V30 6271 C 563.14 2.11546 4.91073 0
M  V30 6272 C 564.44 3.82859 3.55269 0
M  V30 6273 H 566.134 2.37432 1.82391 0
M  V30 6274 H 563.68 1.14283 0.87609 0
M  V30 6275 H 565.633 1.29658 4.00957 0
M  V30 6276 H 564.357 0.312271 3.25104 0
M  V30 6277 H 563.016 2.39173 2.77834 0
M  V30 6278 H 562.664 1.12104 4.90348 0
M  V30 6279 H 562.364 2.86216 5.1318 0
M  V30 6280 H 563.888 2.13817 5.71939 0
M  V30 6281 H 565.302 3.86044 4.23843 0
M  V30 6282 H 563.699 4.57029 3.88902 0
M  V30 6283 H 564.769 4.12617 2.54706 0
M  V30 6284 N 566.112 -0.949982 1.2575 0
M  V30 6285 C 567.34 -1.72972 1.13527 0
M  V30 6286 C 567.755 -1.8623 -0.310453 0
M  V30 6287 O 567.112 -1.36336 -1.2132 0
M  V30 6288 C 567.163 -3.14108 1.78936 0
M  V30 6289 O 566.884 -3.01493 3.17858 0
M  V30 6290 C 568.385 -4.08338 1.72554 0
M  V30 6291 H 565.605 -0.541864 0.395758 0
M  V30 6292 H 568.149 -1.19151 1.66202 0
M  V30 6293 H 566.304 -3.64858 1.30221 0
M  V30 6294 H 566.718 -3.90559 3.50092 0
M  V30 6295 H 568.192 -5.04963 2.22973 0
M  V30 6296 H 568.669 -4.33742 0.690251 0
M  V30 6297 H 569.275 -3.63506 2.2078 0
M  V30 6298 N 567.59 -1.07411 -1.15328 0
M  V30 6299 C 568.5 -0.706438 -2.23711 0
M  V30 6300 C 569.516 0.282586 -1.7169 0
M  V30 6301 O 570.692 0.129066 -2.00986 0
M  V30 6302 C 567.757 -0.11048 -3.46524 0
M  V30 6303 C 566.818 -1.15282 -4.13532 0
M  V30 6304 C 566.051 -0.585205 -5.30482 0
M  V30 6305 O 566.274 0.598549 -5.67251 0
M  V30 6306 O 565.208 -1.33039 -5.87013 0
M  V30 6307 H 569.034 -1.61031 -2.57493 0
M  V30 6308 H 566.619 -0.847113 -1.23062 0
M  V30 6309 H 568.501 0.21957 -4.20828 0
M  V30 6310 H 567.176 0.766703 -3.14489 0
M  V30 6311 H 566.083 -1.53523 -3.41147 0
M  V30 6312 H 567.416 -2.00192 -4.49649 0
M  V30 6313 N 569.068 1.32177 -0.85831 0
M  V30 6314 C 570.345 1.91781 -0.384624 0
M  V30 6315 C 570.725 1.78171 1.13217 0
M  V30 6316 O 570.073 1.18209 1.95548 0
M  V30 6317 C 570.283 3.38414 -0.853047 0
M  V30 6318 C 571.631 4.15542 -0.872359 0
M  V30 6319 O 572.655 3.47148 -0.797926 0
M  V30 6320 O 571.514 5.37678 -0.978009 0
M  V30 6321 H 568.608 0.819259 -0.112886 0
M  V30 6322 H 571.154 1.40923 -0.945453 0
M  V30 6323 H 569.926 3.4228 -1.89632 0
M  V30 6324 H 569.549 3.96683 -0.269874 0
M  V30 6325 N 570.547 0.616602 1.45037 0
M  V30 6326 C 571.494 -0.0969439 2.30596 0
M  V30 6327 C 572.464 -0.851151 1.42635 0
M  V30 6328 O 573.649 -0.835092 1.71554 0
M  V30 6329 C 570.789 -1.08234 3.27688 0
M  V30 6330 C 569.902 -0.328072 4.30752 0
M  V30 6331 C 569.037 -1.30399 5.14946 0
M  V30 6332 C 568.076 -0.538049 6.09731 0
M  V30 6333 N 567.213 -1.46371 6.86673 0
M  V30 6334 H 572.053 0.63864 2.91076 0
M  V30 6335 H 569.59 0.326733 1.43425 0
M  V30 6336 H 571.548 -1.66688 3.82454 0
M  V30 6337 H 570.178 -1.78523 2.68941 0
M  V30 6338 H 569.23 0.372136 3.78575 0
M  V30 6339 H 570.542 0.269142 4.98073 0
M  V30 6340 H 569.696 -1.96032 5.74157 0
M  V30 6341 H 568.435 -1.93514 4.47665 0
M  V30 6342 H 567.44 0.131852 5.49642 0
M  V30 6343 H 568.665 0.0881732 6.79043 0
M  V30 6344 H 566.611 -2.08233 6.22073 0
M  V30 6345 H 566.528 -0.920152 7.50379 0
M  V30 6346 H 567.796 -2.10932 7.50418 0
M  V30 6347 N 572.025 -1.5352 0.356285 0
M  V30 6348 C 572.972 -2.25439 -0.494569 0
M  V30 6349 C 573.942 -1.25752 -1.08516 0
M  V30 6350 O 575.127 -1.54513 -1.1194 0
M  V30 6351 C 572.267 -3.04011 -1.63313 0
M  V30 6352 C 571.38 -4.18574 -1.06862 0
M  V30 6353 C 570.515 -4.84607 -2.17552 0
M  V30 6354 C 569.554 -5.91218 -1.58518 0
M  V30 6355 N 568.691 -6.50979 -2.63003 0
M  V30 6356 H 573.531 -2.97737 0.125244 0
M  V30 6357 H 571.068 -1.46916 0.0735789 0
M  V30 6358 H 573.026 -3.47834 -2.30363 0
M  V30 6359 H 571.656 -2.33986 -2.22374 0
M  V30 6360 H 570.708 -3.79303 -0.288672 0
M  V30 6361 H 572.02 -4.95215 -0.596924 0
M  V30 6362 H 571.174 -5.31566 -2.92442 0
M  V30 6363 H 569.913 -4.07418 -2.6807 0
M  V30 6364 H 568.918 -5.4363 -0.821391 0
M  V30 6365 H 570.143 -6.70322 -1.08836 0
M  V30 6366 H 568.089 -5.76648 -3.12751 0
M  V30 6367 H 568.006 -7.23131 -2.20493 0
M  V30 6368 H 569.274 -7.02589 -3.37623 0
M  V30 6369 N 573.503 -0.0852151 -1.57369 0
M  V30 6370 C 574.413 0.891712 -2.16992 0
M  V30 6371 C 575.429 1.3174 -1.13669 0
M  V30 6372 O 576.605 1.38735 -1.45995 0
M  V30 6373 C 573.67 2.13635 -2.73059 0
M  V30 6374 C 572.731 1.7658 -3.91303 0
M  V30 6375 C 571.964 2.95111 -4.44686 0
M  V30 6376 O 572.187 4.09539 -3.97032 0
M  V30 6377 O 571.121 2.74149 -5.35841 0
M  V30 6378 H 574.947 0.414477 -3.00858 0
M  V30 6379 H 572.532 0.138598 -1.48756 0
M  V30 6380 H 574.414 2.86595 -3.08935 0
M  V30 6381 H 573.089 2.6043 -1.92244 0
M  V30 6382 H 571.996 1.00831 -3.60255 0
M  V30 6383 H 573.329 1.34557 -4.7345 0
M  V30 6384 N 574.981 1.5647 0.188427 0
M  V30 6385 C 576.392 1.70864 0.752494 0
M  V30 6386 C 576.743 0.692905 1.83557 0
M  V30 6387 O 575.868 -0.149307 2.15884 0
M  V30 6388 C 576.463 3.09789 1.37173 0
M  V30 6389 C 575.022 3.25925 1.88281 0
M  V30 6390 C 574.169 2.66817 0.755259 0
M  V30 6391 H 577.12 1.58657 -0.0367408 0
M  V30 6392 H 577.141 3.07489 2.24122 0
M  V30 6393 H 576.653 3.83693 0.583219 0
M  V30 6394 H 574.754 2.56948 2.6983 0
M  V30 6395 H 574.867 4.33498 2.04001 0
M  V30 6396 H 573.231 2.2617 1.17128 0
M  V30 6397 H 574.014 3.43294 -0.0211237 0
M  V30 6398 N 576.459 -0.456382 1.50847 0
M  V30 6399 C 577.389 -1.56025 1.73719 0
M  V30 6400 C 578.37 -1.5967 0.586473 0
M  V30 6401 O 579.555 -1.75702 0.827185 0
M  V30 6402 C 576.685 -2.94251 1.84483 0
M  V30 6403 C 575.639 -3.05471 2.99786 0
M  V30 6404 C 574.965 -4.45489 2.95709 0
M  V30 6405 C 576.265 -2.81318 4.40065 0
M  V30 6406 H 577.959 -1.37138 2.66146 0
M  V30 6407 H 575.505 -0.658299 1.28072 0
M  V30 6408 H 577.458 -3.71417 1.99067 0
M  V30 6409 H 576.182 -3.14328 0.886891 0
M  V30 6410 H 574.841 -2.30741 2.84876 0
M  V30 6411 H 574.489 -4.62505 1.97732 0
M  V30 6412 H 574.189 -4.53929 3.73125 0
M  V30 6413 H 575.713 -5.24655 3.12362 0
M  V30 6414 H 577.127 -3.48226 4.55425 0
M  V30 6415 H 575.524 -3.01188 5.19043 0
M  V30 6416 H 576.594 -1.7706 4.51418 0
M  V30 6417 N 577.937 -1.40673 -0.710563 0
M  V30 6418 C 578.867 -1.44095 -1.83736 0
M  V30 6419 C 579.848 -0.301286 -1.67411 0
M  V30 6420 O 581.033 -0.510618 -1.87367 0
M  V30 6421 C 578.163 -1.30773 -3.21738 0
M  V30 6422 C 577.117 -2.42395 -3.52745 0
M  V30 6423 C 576.443 -2.14147 -4.89944 0
M  V30 6424 C 577.743 -3.84738 -3.53234 0
M  V30 6425 H 579.437 -2.38396 -1.81129 0
M  V30 6426 H 576.983 -1.14746 -0.870017 0
M  V30 6427 H 578.936 -1.31783 -4.00264 0
M  V30 6428 H 577.66 -0.329507 -3.24934 0
M  V30 6429 H 576.319 -2.40643 -2.76562 0
M  V30 6430 H 575.967 -1.14703 -4.89747 0
M  V30 6431 H 575.667 -2.88934 -5.11655 0
M  V30 6432 H 577.191 -2.16848 -5.70797 0
M  V30 6433 H 578.605 -3.88286 -4.2179 0
M  V30 6434 H 577.002 -4.59085 -3.86473 0
M  V30 6435 H 578.072 -4.13962 -2.52514 0
M  V30 6436 N 579.415 0.9433 -1.26252 0
M  V30 6437 C 580.363 2.06302 -1.07434 0
M  V30 6438 C 581.357 1.694 -0.00189471 0
M  V30 6439 O 582.563 1.79302 -0.158408 0
M  V30 6440 H 578.938 0.675453 -0.330556 0
M  V30 6441 H 580.909 2.19326 -2.02333 0
M  V30 6442 C 579.658 3.40125 -0.721817 0
M  V30 6443 H 578.981 3.68996 -1.5389 0
M  V30 6444 H 580.421 4.19295 -0.629922 0
M  V30 6445 C 578.88 3.31993 0.572902 0
M  V30 6446 O 579.41 3.67945 1.61182 0
M  V30 6447 N 577.616 2.85099 0.562748 0
M  V30 6448 H 577.163 2.5604 -0.283092 0
M  V30 6449 H 577.121 2.80041 1.42915 0
M  V30 6450 N 580.893 1.08022 1.14757 0
M  V30 6451 C 581.84 0.706657 2.19716 0
M  V30 6452 C 582.81 -0.30525 1.63271 0
M  V30 6453 O 583.995 -0.19015 1.8985 0
M  V30 6454 C 581.135 0.117914 3.44898 0
M  V30 6455 C 580.248 1.18212 4.15512 0
M  V30 6456 C 579.383 0.557659 5.28265 0
M  V30 6457 C 578.422 1.60418 5.90705 0
M  V30 6458 N 577.559 1.0018 6.94916 0
M  V30 6459 H 582.399 1.60603 2.51019 0
M  V30 6460 H 579.936 0.802664 1.23271 0
M  V30 6461 H 581.894 -0.241112 4.16503 0
M  V30 6462 H 580.524 -0.744788 3.1409 0
M  V30 6463 H 579.576 1.65863 3.42335 0
M  V30 6464 H 580.888 1.97533 4.5802 0
M  V30 6465 H 580.042 0.146654 6.06523 0
M  V30 6466 H 578.781 -0.267249 4.86967 0
M  V30 6467 H 577.786 2.02489 5.11154 0
M  V30 6468 H 579.011 2.43149 6.34078 0
M  V30 6469 H 576.957 0.197917 6.55701 0
M  V30 6470 H 576.874 1.73216 7.35889 0
M  V30 6471 H 578.142 0.616523 7.77058 0
M  V30 6472 N 582.371 -1.3172 0.865308 0
M  V30 6473 C 583.618 -1.96876 0.473931 0
M  V30 6474 C 583.946 -1.68425 -0.972786 0
M  V30 6475 O 583.201 -0.970742 -1.69927 0
M  V30 6476 C 583.5 -3.5102 0.672283 0
M  V30 6477 C 583.166 -3.9948 2.09108 0
M  V30 6478 C 581.828 -4.12425 2.4791 0
M  V30 6479 C 584.18 -4.2503 3.0166 0
M  V30 6480 C 581.508 -4.48267 3.78515 0
M  V30 6481 C 583.86 -4.62335 4.31774 0
M  V30 6482 C 582.524 -4.73486 4.70497 0
M  V30 6483 H 581.794 -0.72042 0.173424 0
M  V30 6484 H 584.441 -1.56937 1.0974 0
M  V30 6485 H 582.746 -3.91785 -0.034356 0
M  V30 6486 H 584.443 -3.99475 0.349353 0
M  V30 6487 H 581.033 -3.89898 1.77981 0
M  V30 6488 H 585.217 -4.14529 2.7291 0
M  V30 6489 H 580.473 -4.55097 4.08285 0
M  V30 6490 H 584.647 -4.81058 5.03543 0
M  V30 6491 H 582.274 -5.01016 5.71741 0
M  V30 6492 N 583.85 -0.624285 -1.44708 0
M  V30 6493 C 584.782 0.12305 -2.28869 0
M  V30 6494 C 585.795 0.81557 -1.40898 0
M  V30 6495 O 586.984 0.678162 -1.65116 0
M  V30 6496 C 584.084 1.19612 -3.1709 0
M  V30 6497 C 583.257 0.587452 -4.33437 0
M  V30 6498 C 582.316 1.55358 -5.02743 0
M  V30 6499 O 581.341 1.07338 -5.58988 0
M  V30 6500 N 582.543 2.88798 -5.03563 0
M  V30 6501 H 585.308 -0.599193 -2.93649 0
M  V30 6502 H 582.87 -0.464954 -1.5508 0
M  V30 6503 H 584.861 1.84261 -3.60319 0
M  V30 6504 H 583.432 1.82067 -2.54107 0
M  V30 6505 H 582.652 -0.237509 -3.93484 0
M  V30 6506 H 583.94 0.161326 -5.08544 0
M  V30 6507 H 583.338 3.30399 -4.59188 0
M  V30 6508 H 581.894 3.48826 -5.50603 0
M  V30 6509 N 585.328 1.53329 -0.364422 0
M  V30 6510 C 586.577 2.00421 0.226747 0
M  V30 6511 C 586.89 1.25581 1.49963 0
M  V30 6512 O 588.096 1.63256 2.16933 0
M  V30 6513 C 586.552 3.57017 0.454618 0
M  V30 6514 C 586.16 4.40734 -0.803568 0
M  V30 6515 C 587.904 4.12468 1.00351 0
M  V30 6516 C 585.811 5.8888 -0.545345 0
M  V30 6517 H 584.741 0.748787 0.0885082 0
M  V30 6518 H 587.392 1.7703 -0.482983 0
M  V30 6519 H 585.774 3.76558 1.22558 0
M  V30 6520 H 586.948 4.32967 -1.57723 0
M  V30 6521 H 585.263 3.96381 -1.27559 0
M  V30 6522 H 587.86 5.20783 1.212 0
M  V30 6523 H 588.203 3.6699 1.9653 0
M  V30 6524 H 588.736 3.96721 0.29274 0
M  V30 6525 H 585.475 6.38633 -1.47743 0
M  V30 6526 H 584.995 5.99499 0.189842 0
M  V30 6527 H 586.674 6.46776 -0.170425 0
M  V30 6528 N 586.806 0.0935595 1.57322 0
M  V30 6529 C 588.034 -0.578934 1.98635 0
M  V30 6530 C 588.449 -1.61819 0.972626 0
M  V30 6531 O 587.806 -1.82461 -0.0379638 0
M  V30 6532 C 587.857 -1.22802 3.40003 0
M  V30 6533 O 587.578 -0.230334 4.37494 0
M  V30 6534 C 589.079 -1.98627 3.96311 0
M  V30 6535 H 586.299 -0.155324 0.652775 0
M  V30 6536 H 588.843 0.172393 2.03772 0
M  V30 6537 H 586.998 -1.93029 3.35885 0
M  V30 6538 H 587.412 -0.698649 5.19826 0
M  V30 6539 H 588.886 -2.39405 4.97382 0
M  V30 6540 H 589.363 -2.85151 3.34044 0
M  V30 6541 H 589.969 -1.3322 4.03897 0
M  V30 6542 N 588.284 -1.56567 -0.180126 0
M  V30 6543 C 589.512 -1.85618 -0.913972 0
M  V30 6544 C 589.927 -0.677892 -1.7621 0
M  V30 6545 O 589.284 0.353171 -1.7905 0
M  V30 6546 C 589.335 -3.13619 -1.79793 0
M  V30 6547 O 589.056 -4.26906 -0.98402 0
M  V30 6548 C 590.557 -3.55954 -2.64219 0
M  V30 6549 H 587.777 -0.616043 -0.265954 0
M  V30 6550 H 590.321 -2.03681 -0.182872 0
M  V30 6551 H 588.476 -2.97409 -2.48247 0
M  V30 6552 H 588.89 -4.9989 -1.58776 0
M  V30 6553 H 590.364 -4.48444 -3.21873 0
M  V30 6554 H 590.841 -2.79653 -3.38661 0
M  V30 6555 H 591.447 -3.74746 -2.01111 0
M  V30 6556 N 589.762 0.448376 -1.51087 0
M  V30 6557 C 590.987 1.22605 -1.6728 0
M  V30 6558 C 591.412 1.84524 -0.365045 0
M  V30 6559 O 590.77 1.6832 0.673642 0
M  V30 6560 C 590.818 2.29393 -2.78229 0
M  V30 6561 O 589.922 3.34608 -2.41063 0
M  V30 6562 H 589.263 0.359705 -0.558129 0
M  V30 6563 H 591.793 0.530903 -1.97592 0
M  V30 6564 H 591.803 2.74352 -3.01986 0
M  V30 6565 H 590.478 1.83701 -3.73131 0
M  V30 6566 H 589.055 2.95202 -2.27838 0
M  V30 6567 N 591.24 1.41047 0.703093 0
M  V30 6568 C 592.651 1.35657 1.28274 0
M  V30 6569 C 593.002 0.0360309 1.96167 0
M  V30 6570 O 592.127 -0.865833 1.98324 0
M  V30 6571 C 592.722 2.45707 2.33267 0
M  V30 6572 C 591.281 2.43738 2.86825 0
M  V30 6573 C 590.428 2.25941 1.60767 0
M  V30 6574 H 593.379 1.50672 0.49836 0
M  V30 6575 H 593.4 2.14333 3.14391 0
M  V30 6576 H 592.912 3.41805 1.83824 0
M  V30 6577 H 591.013 1.51375 3.40465 0
M  V30 6578 H 591.126 3.39779 3.37768 0
M  V30 6579 H 589.49 1.73681 1.86298 0
M  V30 6580 H 590.273 3.24054 1.1333 0
M  V30 6581 N 592.718 -0.936591 1.26751 0
M  V30 6582 C 593.966 -1.67998 1.12343 0
M  V30 6583 C 594.287 -1.92137 -0.332938 0
M  V30 6584 O 593.557 -1.52132 -1.23421 0
M  V30 6585 H 592.137 -0.622609 0.412756 0
M  V30 6586 H 594.799 -1.12509 1.59147 0
M  V30 6587 H 593.895 -2.65185 1.64571 0
M  V30 6588 N 594.196 -1.08629 -1.14182 0
M  V30 6589 C 595.421 -0.83902 -1.89671 0
M  V30 6590 C 595.846 0.603332 -1.78161 0
M  V30 6591 O 595.204 1.42301 -1.12339 0
M  V30 6592 C 595.252 -1.26854 -3.37551 0
M  V30 6593 O 594.356 -0.42188 -4.10236 0
M  V30 6594 H 593.697 -0.304545 -0.590041 0
M  V30 6595 H 596.227 -1.4483 -1.44518 0
M  V30 6596 H 596.237 -1.25038 -3.88368 0
M  V30 6597 H 594.912 -2.31901 -3.45246 0
M  V30 6598 H 593.489 -0.503654 -3.69483 0
M  V30 6599 N 595.674 1.31259 -0.872281 0
M  V30 6600 C 596.902 2.00795 -0.498907 0
M  V30 6601 C 597.317 1.65464 0.909238 0
M  V30 6602 O 596.674 0.885073 1.59602 0
M  V30 6603 C 596.725 3.55625 -0.649092 0
M  V30 6604 O 596.446 3.89692 -2.00179 0
M  V30 6605 C 597.947 4.42434 -0.277034 0
M  V30 6606 H 595.167 0.642299 -0.194145 0
M  V30 6607 H 597.711 1.67438 -1.17408 0
M  V30 6608 H 595.866 3.87394 -0.0214402 0
M  V30 6609 H 596.28 4.84407 -2.01122 0
M  V30 6610 H 597.754 5.50299 -0.433064 0
M  V30 6611 H 598.231 4.32146 0.783989 0
M  V30 6612 H 598.837 4.16086 -0.880483 0
M  V30 6613 N 597.152 0.631951 1.44375 0
M  V30 6614 C 598.084 -0.110911 2.28931 0
M  V30 6615 C 599.097 -0.808086 1.41329 0
M  V30 6616 O 600.286 -0.669396 1.65473 0
M  V30 6617 C 597.386 -1.17928 3.1772 0
M  V30 6618 C 596.559 -0.564458 4.33743 0
M  V30 6619 C 595.618 -1.5269 5.0356 0
M  V30 6620 O 594.644 -1.04372 5.59549 0
M  V30 6621 N 595.846 -2.86123 5.05088 0
M  V30 6622 H 598.611 0.614758 2.93327 0
M  V30 6623 H 596.172 0.473171 1.54831 0
M  V30 6624 H 598.164 -1.82348 3.61291 0
M  V30 6625 H 596.734 -1.80717 2.55069 0
M  V30 6626 H 595.954 0.258373 3.93352 0
M  V30 6627 H 597.242 -0.134355 5.08623 0
M  V30 6628 H 596.64 -3.27959 4.60933 0
M  V30 6629 H 595.197 -3.45901 5.52445 0
M  V30 6630 N 598.631 -1.53133 0.372548 0
M  V30 6631 C 599.578 -2.25951 -0.470631 0
M  V30 6632 C 600.548 -1.26895 -1.07176 0
M  V30 6633 O 601.733 -1.55691 -1.10294 0
M  V30 6634 C 598.873 -3.05726 -1.6008 0
M  V30 6635 C 597.986 -4.19684 -1.02416 0
M  V30 6636 C 597.121 -4.86888 -2.124 0
M  V30 6637 C 596.16 -5.92866 -1.52238 0
M  V30 6638 N 595.297 -6.53732 -2.56084 0
M  V30 6639 H 600.137 -2.97587 0.156816 0
M  V30 6640 H 597.674 -1.4683 0.0891571 0
M  V30 6641 H 599.632 -3.50258 -2.26661 0
M  V30 6642 H 598.262 -2.36331 -2.1988 0
M  V30 6643 H 597.314 -3.79588 -0.248426 0
M  V30 6644 H 598.626 -4.95821 -0.544366 0
M  V30 6645 H 597.78 -5.34638 -2.86787 0
M  V30 6646 H 596.519 -4.10239 -2.63734 0
M  V30 6647 H 595.524 -5.4447 -0.763685 0
M  V30 6648 H 596.749 -6.71439 -1.0172 0
M  V30 6649 H 594.695 -5.79932 -3.06618 0
M  V30 6650 H 594.612 -7.25429 -2.12811 0
M  V30 6651 H 595.88 -7.0613 -3.30152 0
M  V30 6652 N 600.109 -0.101901 -1.5727 0
M  V30 6653 C 601.358 0.559922 -1.93772 0
M  V30 6654 C 601.671 1.68913 -0.98629 0
M  V30 6655 O 602.877 2.41256 -1.24529 0
M  V30 6656 C 601.333 1.04739 -3.44322 0
M  V30 6657 C 600.941 -0.05243 -4.47969 0
M  V30 6658 C 602.685 1.68157 -3.89774 0
M  V30 6659 C 600.592 0.450781 -5.8968 0
M  V30 6660 H 599.522 0.212931 -0.723309 0
M  V30 6661 H 602.173 -0.179001 -1.82625 0
M  V30 6662 H 600.555 1.84021 -3.50645 0
M  V30 6663 H 601.729 -0.828157 -4.53297 0
M  V30 6664 H 600.044 -0.592202 -4.12167 0
M  V30 6665 H 602.641 2.0689 -4.93052 0
M  V30 6666 H 602.984 2.55338 -3.28798 0
M  V30 6667 H 603.517 0.954453 -3.8618 0
M  V30 6668 H 600.256 -0.38458 -6.54371 0
M  V30 6669 H 599.776 1.19336 -5.87809 0
M  V30 6670 H 601.455 0.917555 -6.40461 0
M  V30 6671 N 601.587 1.56661 0.17182 0
M  V30 6672 C 602.517 1.99401 1.21498 0
M  V30 6673 C 603.498 0.869516 1.46197 0
M  V30 6674 O 604.683 1.13556 1.57539 0
M  V30 6675 C 601.813 2.35346 2.55401 0
M  V30 6676 C 600.767 3.5075 2.45272 0
M  V30 6677 C 600.093 3.72437 3.8366 0
M  V30 6678 C 601.393 4.84216 1.95787 0
M  V30 6679 H 603.087 2.86792 0.859699 0
M  V30 6680 H 600.633 1.37977 0.412103 0
M  V30 6681 H 602.586 2.63843 3.2858 0
M  V30 6682 H 601.31 1.44864 2.92715 0
M  V30 6683 H 599.969 3.2238 1.74547 0
M  V30 6684 H 599.617 2.79246 4.18367 0
M  V30 6685 H 599.317 4.50087 3.77751 0
M  V30 6686 H 600.841 4.03334 4.58426 0
M  V30 6687 H 602.255 5.11592 2.5874 0
M  V30 6688 H 600.652 5.65498 2.00827 0
M  V30 6689 H 601.722 4.76243 0.912159 0
M  V30 6690 N 603.065 -0.440357 1.51323 0
M  V30 6691 C 604.293 -1.21255 1.67645 0
M  V30 6692 C 604.708 -1.85088 0.37252 0
M  V30 6693 O 604.065 -1.70582 -0.648683 0
M  V30 6694 C 604.116 -2.29881 2.78993 0
M  V30 6695 O 603.837 -1.68659 4.04334 0
M  V30 6696 C 605.338 -3.20214 3.06558 0
M  V30 6697 H 602.558 -0.36558 0.562666 0
M  V30 6698 H 605.102 -0.52214 1.97722 0
M  V30 6699 H 603.257 -2.94643 2.51524 0
M  V30 6700 H 603.671 -2.40426 4.6615 0
M  V30 6701 H 605.145 -3.92575 3.88058 0
M  V30 6702 H 605.622 -3.80794 2.18844 0
M  V30 6703 H 606.228 -2.61156 3.35675 0
M  V30 6704 N 604.543 -1.41418 -0.695603 0
M  V30 6705 C 605.506 -1.42988 -1.79129 0
M  V30 6706 C 606.506 -0.320514 -1.57573 0
M  V30 6707 O 607.696 -0.58039 -1.64247 0
M  V30 6708 C 604.828 -1.24122 -3.175 0
M  V30 6709 H 606.021 -2.40526 -1.7913 0
M  V30 6710 H 603.574 -1.2756 -0.903225 0
M  V30 6711 H 604.309 -0.274253 -3.23138 0
M  V30 6712 H 604.094 -2.045 -3.34547 0
M  V30 6713 H 605.584 -1.28056 -3.97481 0
M  V30 6714 N 606.021 0.929856 -1.27246 0
M  V30 6715 C 606.954 2.03069 -1.04106 0
M  V30 6716 C 607.932 1.62556 0.0378417 0
M  V30 6717 O 609.116 1.88197 -0.106869 0
M  V30 6718 C 606.243 3.33718 -0.578778 0
M  V30 6719 C 605.289 3.93209 -1.65193 0
M  V30 6720 S 606.122 4.26068 -3.24386 0
M  V30 6721 C 607.278 5.598 -2.79954 0
M  V30 6722 H 607.511 2.22386 -1.97311 0
M  V30 6723 H 605.044 1.07269 -1.11053 0
M  V30 6724 H 607.002 4.09261 -0.31874 0
M  V30 6725 H 605.663 3.12328 0.333182 0
M  V30 6726 H 604.856 4.87482 -1.27973 0
M  V30 6727 H 604.458 3.24243 -1.86393 0
M  V30 6728 H 606.75 6.39004 -2.25123 0
M  V30 6729 H 607.693 6.01917 -3.72963 0
M  V30 6730 H 608.101 5.20219 -2.19164 0
M  V30 6731 N 607.499 1.09233 1.13605 0
M  V30 6732 C 608.748 0.82205 1.84188 0
M  V30 6733 C 609.061 -0.654548 1.84323 0
M  V30 6734 O 610.267 -1.04029 2.50779 0
M  V30 6735 C 608.723 1.42066 3.30674 0
M  V30 6736 C 608.331 2.92965 3.38933 0
M  V30 6737 C 610.075 1.22924 4.06313 0
M  V30 6738 C 607.982 3.45922 4.79679 0
M  V30 6739 H 606.912 0.303854 0.690064 0
M  V30 6740 H 609.563 1.31479 1.28006 0
M  V30 6741 H 607.945 0.855613 3.86646 0
M  V30 6742 H 609.119 3.55679 2.92966 0
M  V30 6743 H 607.434 3.11118 2.76757 0
M  V30 6744 H 610.031 1.59945 5.10217 0
M  V30 6745 H 610.374 0.169726 4.15954 0
M  V30 6746 H 610.907 1.76168 3.56665 0
M  V30 6747 H 607.646 4.51484 4.75229 0
M  V30 6748 H 607.166 2.87971 5.26149 0
M  V30 6749 H 608.845 3.43009 5.48592 0
M  V30 6750 N 608.977 -1.30795 0.87923 0
M  V30 6751 C 610.225 -1.95974 0.493809 0
M  V30 6752 C 610.546 -1.69787 -0.959021 0
M  V30 6753 O 609.816 -1.01832 -1.67353 0
M  V30 6754 H 608.396 -0.725083 0.179622 0
M  V30 6755 H 611.058 -1.59432 1.12105 0
M  V30 6756 H 610.154 -3.05058 0.659263 0
M  V30 6757 N 610.455 -0.639598 -1.44038 0
M  V30 6758 C 611.385 0.0469443 -2.33453 0
M  V30 6759 C 612.366 0.82609 -1.48694 0
M  V30 6760 O 613.551 0.790285 -1.77393 0
M  V30 6761 C 610.681 1.02338 -3.3188 0
M  V30 6762 C 609.635 0.355284 -4.26523 0
M  V30 6763 C 608.961 1.44221 -5.14883 0
M  V30 6764 C 610.261 -0.743798 -5.16977 0
M  V30 6765 H 611.955 -0.699735 -2.91108 0
M  V30 6766 H 609.501 -0.337946 -1.39978 0
M  V30 6767 H 611.454 1.51247 -3.93322 0
M  V30 6768 H 610.178 1.80105 -2.72451 0
M  V30 6769 H 608.837 -0.113239 -3.66425 0
M  V30 6770 H 608.485 2.21097 -4.51802 0
M  V30 6771 H 608.185 1.00052 -5.79019 0
M  V30 6772 H 609.709 1.93295 -5.79197 0
M  V30 6773 H 611.123 -0.337444 -5.72306 0
M  V30 6774 H 609.52 -1.10914 -5.89761 0
M  V30 6775 H 610.59 -1.60745 -4.57481 0
M  V30 6776 N 611.933 1.52934 -0.380664 0
M  V30 6777 C 612.881 2.27727 0.47361 0
M  V30 6778 C 613.875 1.31288 1.0705 0
M  V30 6779 O 615.081 1.4886 1.01197 0
M  V30 6780 H 611.456 0.732189 0.171475 0
M  V30 6781 H 613.427 2.97864 -0.178785 0
M  V30 6782 C 612.176 3.0904 1.59341 0
M  V30 6783 H 611.499 3.831 1.14343 0
M  V30 6784 H 612.939 3.64527 2.16555 0
M  V30 6785 C 611.398 2.20813 2.54447 0
M  V30 6786 O 611.928 1.82907 3.57642 0
M  V30 6787 N 610.134 1.85145 2.23986 0
M  V30 6788 H 609.681 2.16169 1.40103 0
M  V30 6789 H 609.639 1.26402 2.87871 0
M  V30 6790 N 613.412 0.11024 1.57214 0
M  V30 6791 C 614.36 -0.860586 2.16094 0
M  V30 6792 C 615.354 -1.28156 1.1078 0
M  V30 6793 O 616.56 -1.25433 1.29099 0
M  V30 6794 H 612.935 -0.295606 0.691463 0
M  V30 6795 H 614.906 -0.33942 2.96463 0
M  V30 6796 C 613.655 -2.10421 2.768 0
M  V30 6797 H 612.978 -1.7892 3.5753 0
M  V30 6798 H 614.418 -2.76375 3.21547 0
M  V30 6799 C 612.877 -2.88823 1.73444 0
M  V30 6800 O 613.407 -3.839 1.18251 0
M  V30 6801 N 611.613 -2.52649 1.43586 0
M  V30 6802 H 611.16 -1.754 1.8866 0
M  V30 6803 H 611.118 -3.05403 0.746735 0
M  V30 6804 N 614.89 -1.56749 -0.16351 0
M  V30 6805 C 615.837 -1.97011 -1.2023 0
M  V30 6806 C 616.807 -0.835186 -1.43575 0
M  V30 6807 O 617.992 -1.09594 -1.56185 0
M  V30 6808 C 615.132 -2.34186 -2.53478 0
M  V30 6809 C 614.245 -3.60893 -2.37446 0
M  V30 6810 C 613.38 -3.87245 -3.63614 0
M  V30 6811 C 612.419 -5.07274 -3.42548 0
M  V30 6812 N 611.556 -5.29719 -4.60806 0
M  V30 6813 H 616.396 -2.85562 -0.851958 0
M  V30 6814 H 613.933 -1.41292 -0.409257 0
M  V30 6815 H 615.891 -2.53764 -3.31149 0
M  V30 6816 H 614.521 -1.48736 -2.86492 0
M  V30 6817 H 613.573 -3.49185 -1.50911 0
M  V30 6818 H 614.885 -4.48722 -2.1783 0
M  V30 6819 H 614.039 -4.07232 -4.49719 0
M  V30 6820 H 612.778 -2.97806 -3.86216 0
M  V30 6821 H 611.783 -4.87177 -2.5483 0
M  V30 6822 H 613.008 -5.98251 -3.2136 0
M  V30 6823 H 610.954 -4.43233 -4.83612 0
M  V30 6824 H 610.871 -6.11786 -4.44132 0
M  V30 6825 H 612.139 -5.54192 -5.48171 0
M  V30 6826 N 616.368 0.432326 -1.51554 0
M  V30 6827 C 617.596 1.20364 -1.68286 0
M  V30 6828 C 618.011 1.84888 -0.38233 0
M  V30 6829 O 617.368 1.70924 0.639627 0
M  V30 6830 C 617.419 2.28398 -2.80208 0
M  V30 6831 O 617.14 1.66512 -4.05223 0
M  V30 6832 C 618.641 3.18584 -3.08251 0
M  V30 6833 H 615.861 0.36259 -0.564596 0
M  V30 6834 H 618.405 0.511647 -1.97996 0
M  V30 6835 H 616.56 2.93305 -2.53083 0
M  V30 6836 H 616.974 2.37951 -4.67418 0
M  V30 6837 H 618.448 3.90511 -3.90135 0
M  V30 6838 H 618.925 3.79628 -2.2086 0
M  V30 6839 H 619.531 2.59372 -3.37055 0
M  V30 6840 N 617.846 1.41785 0.688094 0
M  V30 6841 C 618.776 1.47 1.8142 0
M  V30 6842 C 619.757 0.327881 1.6691 0
M  V30 6843 O 620.942 0.540362 1.86531 0
M  V30 6844 C 618.072 1.35876 3.19617 0
M  V30 6845 C 617.026 2.47976 3.48844 0
M  V30 6846 C 616.352 2.21915 4.86475 0
M  V30 6847 C 617.652 3.90309 3.47068 0
M  V30 6848 H 619.346 2.41247 1.77314 0
M  V30 6849 H 616.892 1.16116 0.851651 0
M  V30 6850 H 618.845 1.38134 3.98117 0
M  V30 6851 H 617.569 0.38116 3.24368 0
M  V30 6852 H 616.228 2.45013 2.72698 0
M  V30 6853 H 615.876 1.2248 4.8786 0
M  V30 6854 H 615.576 2.97037 5.06994 0
M  V30 6855 H 617.1 2.25901 5.67275 0
M  V30 6856 H 618.514 3.94947 4.1556 0
M  V30 6857 H 616.911 4.65175 3.7912 0
M  V30 6858 H 617.981 4.17927 2.45896 0
M  V30 6859 N 619.324 -0.923095 1.27737 0
M  V30 6860 C 620.601 -1.64989 1.05062 0
M  V30 6861 C 620.981 -2.07018 -0.413124 0
M  V30 6862 O 620.329 -1.80797 -1.39731 0
M  V30 6863 C 620.539 -2.84847 2.01652 0
M  V30 6864 C 621.887 -3.56083 2.31279 0
M  V30 6865 O 622.911 -2.94981 1.99662 0
M  V30 6866 O 621.77 -4.66182 2.85196 0
M  V30 6867 H 618.864 -0.723357 0.400853 0
M  V30 6868 H 621.41 -0.973224 1.3902 0
M  V30 6869 H 620.182 -2.50814 3.00347 0
M  V30 6870 H 619.805 -3.60231 1.68284 0
M  V30 6871 N 620.802 -1.09834 -1.13024 0
M  V30 6872 C 622.079 -0.749225 -1.80682 0
M  V30 6873 C 622.459 0.765171 -1.96744 0
M  V30 6874 O 621.807 1.68912 -1.53886 0
M  V30 6875 C 622.017 -1.49311 -3.15448 0
M  V30 6876 C 623.365 -1.66162 -3.90737 0
M  V30 6877 O 624.389 -1.45597 -3.25085 0
M  V30 6878 O 623.248 -2.00211 -5.08505 0
M  V30 6879 H 620.342 -0.269614 -0.781817 0
M  V30 6880 H 622.888 -1.20078 -1.19914 0
M  V30 6881 H 621.66 -2.52407 -2.99009 0
M  V30 6882 H 621.283 -1.034 -3.8392 0
M  V30 6883 N 622.28 1.30327 -0.886154 0
M  V30 6884 C 623.227 2.28099 -0.352069 0
M  V30 6885 C 624.197 1.56433 0.558397 0
M  V30 6886 O 625.382 1.84492 0.486561 0
M  V30 6887 C 622.522 3.42456 0.426346 0
M  V30 6888 C 621.635 4.28938 -0.513472 0
M  V30 6889 C 620.77 5.30458 0.280657 0
M  V30 6890 C 619.809 6.0859 -0.654556 0
M  V30 6891 N 618.946 7.02022 0.104322 0
M  V30 6892 H 623.786 2.73166 -1.19097 0
M  V30 6893 H 621.323 1.34367 -0.598662 0
M  V30 6894 H 623.281 4.07518 0.893587 0
M  V30 6895 H 621.911 2.98455 1.22981 0
M  V30 6896 H 620.963 3.64173 -1.09921 0
M  V30 6897 H 622.275 4.83399 -1.2299 0
M  V30 6898 H 621.429 6.01273 0.8097 0
M  V30 6899 H 620.168 4.76693 1.03029 0
M  V30 6900 H 619.173 5.36651 -1.19522 0
M  V30 6901 H 620.398 6.64443 -1.4033 0
M  V30 6902 H 618.344 6.50645 0.836472 0
M  V30 6903 H 618.261 7.53979 -0.552453 0
M  V30 6904 H 619.529 7.77077 0.614069 0
M  V30 6905 N 623.758 0.647228 1.43697 0
M  V30 6906 C 624.986 0.16575 2.06235 0
M  V30 6907 C 625.401 -1.1662 1.48476 0
M  V30 6908 O 624.758 -1.7187 0.613762 0
M  V30 6909 C 624.809 0.0621651 3.61447 0
M  V30 6910 O 624.53 1.34146 4.17057 0
M  V30 6911 C 626.031 -0.446102 4.4105 0
M  V30 6912 H 623.251 0.0871158 0.665321 0
M  V30 6913 H 625.795 0.886183 1.84301 0
M  V30 6914 H 623.95 -0.608794 3.82587 0
M  V30 6915 H 624.364 1.19675 5.10664 0
M  V30 6916 H 625.838 -0.46755 5.50016 0
M  V30 6917 H 626.315 -1.47627 4.13646 0
M  V30 6918 H 626.921 0.192159 4.24866 0
M  V30 6919 N 625.236 -1.5273 0.388769 0
M  V30 6920 C 626.461 -2.0647 -0.19621 0
M  V30 6921 C 626.886 -1.25865 -1.39784 0
M  V30 6922 O 626.244 -0.283562 -1.79069 0
M  V30 6923 C 626.292 -3.56456 -0.5451 0
M  V30 6924 O 625.396 -3.78426 -1.63912 0
M  V30 6925 H 624.737 -0.663599 -0.023067 0
M  V30 6926 H 627.267 -1.96898 0.556084 0
M  V30 6927 H 627.277 -3.99888 -0.809557 0
M  V30 6928 H 625.952 -4.14561 0.333417 0
M  V30 6929 H 624.529 -3.46884 -1.36842 0
M  V30 6930 N 626.714 -0.118576 -1.57153 0
M  V30 6931 C 627.944 0.546466 -1.99242 0
M  V30 6932 C 628.352 1.60791 -0.997148 0
M  V30 6933 O 627.695 1.83691 0.0181745 0
M  V30 6934 C 627.757 1.23167 -3.37743 0
M  V30 6935 C 627.421 0.318226 -4.55891 0
M  V30 6936 C 628.418 -0.442988 -5.18009 0
M  V30 6937 C 626.103 0.229421 -5.01776 0
M  V30 6938 C 628.097 -1.28074 -6.244 0
M  V30 6939 C 625.784 -0.611966 -6.08028 0
M  V30 6940 C 626.782 -1.36568 -6.69207 0
M  V30 6941 O 626.47 -2.1931 -7.73407 0
M  V30 6942 H 626.202 0.149297 -0.659307 0
M  V30 6943 H 628.756 -0.201603 -2.04408 0
M  V30 6944 H 626.986 2.0268 -3.29329 0
M  V30 6945 H 628.675 1.79358 -3.64123 0
M  V30 6946 H 629.441 -0.38425 -4.83475 0
M  V30 6947 H 625.32 0.805771 -4.53903 0
M  V30 6948 H 628.864 -1.86952 -6.72082 0
M  V30 6949 H 624.761 -0.6721 -6.41991 0
M  V30 6950 H 625.529 -2.12247 -7.90502 0
M  V30 6951 N 628.193 1.56834 0.155195 0
M  V30 6952 C 629.14 1.97646 1.19184 0
M  V30 6953 C 630.11 0.842788 1.4313 0
M  V30 6954 O 631.295 1.1042 1.55602 0
M  V30 6955 C 628.435 2.35527 2.52232 0
M  V30 6956 C 627.548 3.62147 2.35529 0
M  V30 6957 C 626.683 3.89167 3.61555 0
M  V30 6958 C 625.722 5.09084 3.39853 0
M  V30 6959 N 624.859 5.32156 4.5799 0
M  V30 6960 H 629.699 2.8601 0.836802 0
M  V30 6961 H 627.236 1.41507 0.401758 0
M  V30 6962 H 629.194 2.55516 3.29799 0
M  V30 6963 H 627.824 1.50253 2.85699 0
M  V30 6964 H 626.876 3.4998 1.49057 0
M  V30 6965 H 628.188 4.49871 2.15448 0
M  V30 6966 H 627.342 4.09611 4.47553 0
M  V30 6967 H 626.081 2.9985 3.84632 0
M  V30 6968 H 625.086 4.88522 2.52243 0
M  V30 6969 H 626.311 5.99947 3.18183 0
M  V30 6970 H 624.257 4.45791 4.81255 0
M  V30 6971 H 624.174 6.14133 4.40882 0
M  V30 6972 H 625.442 5.57091 5.45225 0
M  V30 6973 N 629.671 -0.424282 1.51781 0
M  V30 6974 C 630.92 -1.16961 1.64326 0
M  V30 6975 C 631.233 -1.92035 0.371749 0
M  V30 6976 O 632.439 -2.68873 0.37676 0
M  V30 6977 C 630.895 -2.12782 2.90262 0
M  V30 6978 C 630.503 -1.43295 4.24465 0
M  V30 6979 C 632.247 -2.87667 3.12166 0
M  V30 6980 C 630.154 -2.37676 5.41538 0
M  V30 6981 H 629.084 -0.440293 0.612093 0
M  V30 6982 H 631.735 -0.435431 1.78259 0
M  V30 6983 H 630.117 -2.8969 2.69992 0
M  V30 6984 H 631.291 -0.718564 4.55163 0
M  V30 6985 H 629.606 -0.805118 4.08542 0
M  V30 6986 H 632.203 -3.58395 3.96808 0
M  V30 6987 H 632.546 -3.49758 2.25776 0
M  V30 6988 H 633.079 -2.17863 3.32837 0
M  V30 6989 H 629.818 -1.80255 6.30229 0
M  V30 6990 H 629.338 -3.07132 5.15199 0
M  V30 6991 H 631.017 -2.98529 5.74012 0
M  V30 6992 N 631.149 -1.42148 -0.680565 0
M  V30 6993 C 632.426 -1.32795 -1.43614 0
M  V30 6994 C 632.806 0.037415 -2.11067 0
M  V30 6995 O 632.154 1.05258 -2.02813 0
M  V30 6996 C 632.364 -2.49206 -2.44331 0
M  V30 6997 C 633.712 -2.91059 -3.09144 0
M  V30 6998 O 634.736 -2.49054 -2.54657 0
M  V30 6999 O 633.595 -3.63741 -4.07866 0
M  V30 7000 H 630.689 -0.523397 -0.640301 0
M  V30 7001 H 633.235 -1.54144 -0.709775 0
M  V30 7002 H 632.007 -3.40252 -1.93247 0
M  V30 7003 H 631.63 -2.29813 -3.24456 0
M  V30 7004 N 632.627 0.916307 -1.28225 0
M  V30 7005 C 633.875 1.6619 -1.15002 0
M  V30 7006 C 634.196 1.92642 0.302329 0
M  V30 7007 O 633.466 1.54076 1.20985 0
M  V30 7008 H 632.046 0.615964 -0.422608 0
M  V30 7009 H 634.708 1.09963 -1.60917 0
M  V30 7010 H 633.804 2.62533 -1.68769 0
M  V30 7011 N 634.105 1.10431 1.1244 0
M  V30 7012 C 635.052 0.753103 2.18167 0
M  V30 7013 C 636.022 -0.270549 1.63882 0
M  V30 7014 O 637.207 -0.149837 1.90211 0
M  V30 7015 C 634.347 0.191046 3.44571 0
M  V30 7016 C 633.46 1.26999 4.12911 0
M  V30 7017 C 632.595 0.669586 5.26963 0
M  V30 7018 C 631.634 1.72912 5.87169 0
M  V30 7019 N 630.771 1.14898 6.92635 0
M  V30 7020 H 635.611 1.65892 2.47556 0
M  V30 7021 H 633.148 0.828631 1.21541 0
M  V30 7022 H 635.106 -0.152712 4.1692 0
M  V30 7023 H 633.736 -0.677997 3.15599 0
M  V30 7024 H 632.788 1.73087 3.3874 0
M  V30 7025 H 634.1 2.07204 4.53727 0
M  V30 7026 H 633.254 0.275274 6.06075 0
M  V30 7027 H 631.993 -0.163895 4.87425 0
M  V30 7028 H 630.998 2.13286 5.06744 0
M  V30 7029 H 632.223 2.56544 6.28778 0
M  V30 7030 H 630.169 0.336956 6.55134 0
M  V30 7031 H 630.086 1.88786 7.32049 0
M  V30 7032 H 631.354 0.78121 7.75576 0
M  V30 7033 N 635.583 -1.29855 0.893053 0
M  V30 7034 C 636.831 -1.9544 0.514566 0
M  V30 7035 C 637.152 -1.70795 -0.940959 0
M  V30 7036 O 636.422 -1.03601 -1.66264 0
M  V30 7037 H 635.002 -0.723137 0.187302 0
M  V30 7038 H 637.664 -1.58234 1.13789 0
M  V30 7039 H 636.76 -3.04341 0.691581 0
M  V30 7040 N 637.061 -0.65484 -1.43351 0
M  V30 7041 C 638.307 -0.177749 -2.02622 0
M  V30 7042 C 638.662 1.19553 -1.50748 0
M  V30 7043 O 637.955 1.78683 -0.691599 0
M  V30 7044 C 638.149 -0.130424 -3.57162 0
M  V30 7045 C 637.978 -1.49757 -4.24032 0
M  V30 7046 C 636.748 -2.09036 -4.60035 0
M  V30 7047 C 638.946 -2.4363 -4.52934 0
M  V30 7048 N 636.928 -3.3874 -5.11985 0
M  V30 7049 C 638.299 -3.57968 -5.0622 0
M  V30 7050 C 640.354 -2.42412 -4.34903 0
M  V30 7051 C 639.057 -4.71314 -5.43374 0
M  V30 7052 C 641.083 -3.5484 -4.7312 0
M  V30 7053 C 640.445 -4.67903 -5.26541 0
M  V30 7054 H 636.544 -0.10951 -0.774294 0
M  V30 7055 H 639.128 -0.863495 -1.74505 0
M  V30 7056 H 637.299 0.524671 -3.8484 0
M  V30 7057 H 639.031 0.35769 -4.03116 0
M  V30 7058 H 635.786 -1.61729 -4.4513 0
M  V30 7059 H 636.21 -4.05116 -5.42412 0
M  V30 7060 H 640.852 -1.56236 -3.92874 0
M  V30 7061 H 638.57 -5.5818 -5.84346 0
M  V30 7062 H 642.156 -3.55101 -4.60863 0
M  V30 7063 H 641.036 -5.5346 -5.55564 0
M  V30 7064 N 638.539 1.52521 -0.396863 0
M  V30 7065 C 639.471 2.24333 0.469814 0
M  V30 7066 C 640.484 1.2685 1.02043 0
M  V30 7067 O 641.673 1.52876 0.92147 0
M  V30 7068 C 638.773 2.95202 1.66461 0
M  V30 7069 C 637.946 4.19454 1.24003 0
M  V30 7070 C 637.005 4.73255 2.30036 0
M  V30 7071 O 636.031 5.36151 1.91131 0
M  V30 7072 N 637.233 4.53765 3.62047 0
M  V30 7073 H 639.998 2.99347 -0.145468 0
M  V30 7074 H 637.559 1.60348 -0.223606 0
M  V30 7075 H 639.551 3.28092 2.36934 0
M  V30 7076 H 638.121 2.2345 2.18607 0
M  V30 7077 H 637.341 3.92517 0.363892 0
M  V30 7078 H 638.629 5.0017 0.933135 0
M  V30 7079 H 638.027 4.03576 3.96412 0
M  V30 7080 H 636.584 4.91124 4.28533 0
M  V30 7081 N 640.017 0.126909 1.57088 0
M  V30 7082 C 640.964 -0.82036 2.15728 0
M  V30 7083 C 641.934 -1.25811 1.08447 0
M  V30 7084 O 643.119 -1.33422 1.36393 0
M  V30 7085 C 640.259 -2.06199 2.76724 0
M  V30 7086 C 639.372 -1.67188 3.98337 0
M  V30 7087 C 638.507 -2.86378 4.47393 0
M  V30 7088 C 637.546 -2.43644 5.61519 0
M  V30 7089 N 636.683 -3.55775 6.05284 0
M  V30 7090 H 641.523 -0.313472 2.96347 0
M  V30 7091 H 639.06 -0.14303 1.46403 0
M  V30 7092 H 641.018 -2.78959 3.10222 0
M  V30 7093 H 639.648 -2.54333 1.98782 0
M  V30 7094 H 638.7 -0.842714 3.70948 0
M  V30 7095 H 640.012 -1.31789 4.81075 0
M  V30 7096 H 639.166 -3.67353 4.82842 0
M  V30 7097 H 637.905 -3.25009 3.63621 0
M  V30 7098 H 636.91 -1.61104 5.25667 0
M  V30 7099 H 638.135 -2.06122 6.47063 0
M  V30 7100 H 636.081 -3.94065 5.24451 0
M  V30 7101 H 635.998 -3.24325 6.82898 0
M  V30 7102 H 637.266 -4.37166 6.45373 0
M  V30 7103 N 641.495 -1.56914 -0.146875 0
M  V30 7104 C 642.772 -1.74273 -0.888165 0
M  V30 7105 C 643.152 -0.69496 -1.99333 0
M  V30 7106 O 642.5 0.286093 -2.26702 0
M  V30 7107 C 642.71 -3.18336 -1.43051 0
M  V30 7108 C 644.058 -3.80024 -1.89387 0
M  V30 7109 O 645.082 -3.21765 -1.52792 0
M  V30 7110 O 643.941 -4.82367 -2.56874 0
M  V30 7111 H 641.035 -0.712565 -0.419738 0
M  V30 7112 H 643.581 -1.6918 -0.132791 0
M  V30 7113 H 642.353 -3.86092 -0.636274 0
M  V30 7114 H 641.976 -3.27854 -2.24938 0
M  V30 7115 N 642.974 0.416227 -1.52004 0
M  V30 7116 C 643.921 1.50666 -1.74838 0
M  V30 7117 C 644.891 1.55245 -0.590599 0
M  V30 7118 O 646.076 1.71928 -0.827374 0
M  V30 7119 C 643.216 2.88185 -1.89851 0
M  V30 7120 C 642.329 2.92971 -3.17478 0
M  V30 7121 C 641.464 4.21745 -3.22962 0
M  V30 7122 C 640.503 4.20478 -4.4482 0
M  V30 7123 N 639.64 5.40811 -4.47736 0
M  V30 7124 H 644.48 1.30498 -2.67907 0
M  V30 7125 H 642.017 0.633568 -1.32757 0
M  V30 7126 H 643.975 3.68007 -1.96537 0
M  V30 7127 H 642.605 3.06865 -1.00169 0
M  V30 7128 H 641.657 2.05684 -3.19997 0
M  V30 7129 H 642.969 2.87899 -4.07328 0
M  V30 7130 H 642.123 5.09954 -3.28682 0
M  V30 7131 H 640.862 4.29503 -2.31038 0
M  V30 7132 H 639.867 3.30659 -4.39254 0
M  V30 7133 H 641.092 4.14366 -5.38031 0
M  V30 7134 H 639.038 5.4925 -3.58692 0
M  V30 7135 H 638.955 5.37705 -5.31422 0
M  V30 7136 H 640.223 6.30993 -4.57676 0
M  V30 7137 N 644.452 1.42507 0.673017 0
M  V30 7138 C 645.677 1.4668 1.46627 0
M  V30 7139 C 646.102 0.080066 1.8793 0
M  V30 7140 O 645.46 -0.921879 1.56112 0
M  V30 7141 C 645.508 2.40091 2.69051 0
M  V30 7142 O 644.612 1.8735 3.67387 0
M  V30 7143 H 643.953 0.496908 0.44043 0
M  V30 7144 H 646.483 1.87215 0.825334 0
M  V30 7145 H 646.493 2.56731 3.17101 0
M  V30 7146 H 645.168 3.4084 2.3833 0
M  V30 7147 H 643.745 1.80274 3.26429 0
M  V30 7148 N 645.93 -0.909495 1.28709 0
M  V30 7149 C 647.176 -1.66175 1.17293 0
M  V30 7150 C 647.531 -1.90426 -0.274891 0
M  V30 7151 O 646.824 -1.49659 -1.19635 0
M  V30 7152 C 647.018 -3.02117 1.90945 0
M  V30 7153 C 646.847 -2.91134 3.42741 0
M  V30 7154 C 645.617 -2.92429 4.12085 0
M  V30 7155 C 647.815 -2.68889 4.3841 0
M  V30 7156 N 645.797 -2.72078 5.50315 0
M  V30 7157 C 647.168 -2.57423 5.64033 0
M  V30 7158 C 649.223 -2.53919 4.28287 0
M  V30 7159 C 647.926 -2.32513 6.80683 0
M  V30 7160 C 649.952 -2.3039 5.44678 0
M  V30 7161 C 649.314 -2.19682 6.69268 0
M  V30 7162 H 645.413 -0.614095 0.48416 0
M  V30 7163 H 647.997 -1.07377 1.62414 0
M  V30 7164 H 646.168 -3.58993 1.48252 0
M  V30 7165 H 647.9 -3.66388 1.71878 0
M  V30 7166 H 644.655 -3.03345 3.63701 0
M  V30 7167 H 645.079 -2.64983 6.22987 0
M  V30 7168 H 649.721 -2.60946 3.32666 0
M  V30 7169 H 647.439 -2.24225 7.76369 0
M  V30 7170 H 651.025 -2.19665 5.38738 0
M  V30 7171 H 649.905 -2.01725 7.5781 0
M  V30 7172 N 647.408 -1.11026 -1.11852 0
M  V30 7173 C 648.656 -0.854769 -1.83134 0
M  V30 7174 C 648.977 0.621375 -1.84835 0
M  V30 7175 O 648.247 1.45129 -1.31584 0
M  V30 7176 H 646.827 -0.313229 -0.678157 0
M  V30 7177 H 649.489 -1.40178 -1.35411 0
M  V30 7178 H 648.585 -1.22311 -2.87135 0
M  V30 7179 N 648.886 1.2938 -0.899927 0
M  V30 7180 C 650.134 1.95164 -0.524924 0
M  V30 7181 C 650.455 1.71292 0.931888 0
M  V30 7182 O 649.725 1.04481 1.65712 0
M  V30 7183 H 648.305 0.722133 -0.191135 0
M  V30 7184 H 650.967 1.57628 -1.14627 0
M  V30 7185 H 650.063 3.0397 -0.707711 0
M  V30 7186 N 650.364 0.662433 1.43002 0
M  V30 7187 C 651.594 0.187343 2.05749 0
M  V30 7188 C 652.002 -1.15582 1.49791 0
M  V30 7189 O 651.345 -1.72651 0.627487 0
M  V30 7190 C 651.407 0.0316493 3.59486 0
M  V30 7191 C 651.071 1.30156 4.38073 0
M  V30 7192 C 652.068 2.23234 4.69535 0
M  V30 7193 C 649.753 1.54572 4.77926 0
M  V30 7194 C 651.747 3.39012 5.39768 0
M  V30 7195 C 649.434 2.70641 5.47902 0
M  V30 7196 C 650.432 3.62687 5.78746 0
M  V30 7197 O 650.12 4.76728 6.47291 0
M  V30 7198 H 649.852 0.0915214 0.669776 0
M  V30 7199 H 652.406 0.905982 1.8434 0
M  V30 7200 H 650.636 -0.742451 3.79506 0
M  V30 7201 H 652.325 -0.401977 4.03905 0
M  V30 7202 H 653.091 2.05616 4.39257 0
M  V30 7203 H 648.97 0.83804 4.53319 0
M  V30 7204 H 652.514 4.10877 5.63761 0
M  V30 7205 H 648.411 2.88189 5.77596 0
M  V30 7206 H 649.179 4.76113 6.65777 0
M  V30 7207 N 651.842 -1.52309 0.404946 0
M  V30 7208 C 652.79 -2.28452 -0.437321 0
M  V30 7209 C 653.784 -1.32975 -1.04948 0
M  V30 7210 O 654.99 -1.50451 -0.988159 0
M  V30 7211 H 651.365 -0.734824 -0.159805 0
M  V30 7212 H 653.336 -2.97542 0.22615 0
M  V30 7213 C 652.085 -3.11536 -1.54404 0
M  V30 7214 H 651.408 -3.84871 -1.08233 0
M  V30 7215 H 652.848 -3.67926 -2.10729 0
M  V30 7216 C 651.307 -2.24833 -2.50902 0
M  V30 7217 O 651.837 -1.88574 -3.54687 0
M  V30 7218 N 650.043 -1.88685 -2.21012 0
M  V30 7219 H 649.59 -2.18371 -1.36646 0
M  V30 7220 H 649.548 -1.30966 -2.85824 0
M  V30 7221 N 653.32 -0.135238 -1.57019 0
M  V30 7222 C 654.566 0.519563 -1.96032 0
M  V30 7223 C 654.899 1.65284 -1.01955 0
M  V30 7224 O 654.174 1.94408 -0.059727 0
M  V30 7225 C 654.457 1.0369 -3.44848 0
M  V30 7226 C 654.31 -0.0940754 -4.49702 0
M  V30 7227 C 655.629 1.92254 -3.95887 0
M  V30 7228 H 652.748 0.18739 -0.712779 0
M  V30 7229 H 655.39 -0.214086 -1.8879 0
M  V30 7230 H 653.54 1.66209 -3.5115 0
M  V30 7231 H 655.212 -0.73 -4.55487 0
M  V30 7232 H 653.455 -0.754924 -4.27181 0
M  V30 7233 H 654.126 0.309419 -5.51132 0
M  V30 7234 H 656.602 1.39581 -3.9199 0
M  V30 7235 H 655.478 2.25364 -5.00502 0
M  V30 7236 H 655.739 2.85513 -3.37543 0
M  V30 7237 N 654.798 1.5699 0.138552 0
M  V30 7238 C 656.026 1.87976 0.864437 0
M  V30 7239 C 656.441 0.724372 1.74351 0
M  V30 7240 O 655.798 -0.305575 1.79924 0
M  V30 7241 C 655.849 3.18276 1.71414 0
M  V30 7242 O 655.57 4.29365 0.870487 0
M  V30 7243 C 657.071 3.62834 2.54688 0
M  V30 7244 H 654.291 0.622878 0.249528 0
M  V30 7245 H 656.835 2.04094 0.128805 0
M  V30 7246 H 654.99 3.03886 2.40274 0
M  V30 7247 H 655.404 5.03924 1.45466 0
M  V30 7248 H 656.878 4.5682 3.0987 0
M  V30 7249 H 657.355 2.88533 3.31127 0
M  V30 7250 H 657.961 3.79946 1.91105 0
M  V30 7251 N 656.276 -0.40816 1.52223 0
M  V30 7252 C 657.692 -0.74685 1.41047 0
M  V30 7253 C 657.892 -1.94788 0.51573 0
M  V30 7254 O 656.948 -2.52494 -0.0181156 0
M  V30 7255 C 658.261 -0.999878 2.83589 0
M  V30 7256 C 659.809 -1.10253 2.92939 0
M  V30 7257 C 660.284 -1.38832 4.36451 0
M  V30 7258 N 661.775 -1.45694 4.3969 0
M  V30 7259 C 662.51 -1.69435 5.47795 0
M  V30 7260 N 662.006 -1.90774 6.66016 0
M  V30 7261 N 663.799 -1.71458 5.35312 0
M  V30 7262 H 655.95 0.382409 2.08929 0
M  V30 7263 H 658.213 0.108807 0.941735 0
M  V30 7264 H 657.919 -0.189723 3.51188 0
M  V30 7265 H 657.793 -1.91978 3.24691 0
M  V30 7266 H 660.18 -1.90328 2.2552 0
M  V30 7267 H 660.261 -0.160973 2.55293 0
M  V30 7268 H 659.905 -0.592741 5.04429 0
M  V30 7269 H 659.835 -2.34241 4.71634 0
M  V30 7270 H 662.326 -1.3099 3.54472 0
M  V30 7271 H 662.639 -2.08342 7.44186 0
M  V30 7272 H 660.984 -1.88037 6.69079 0
M  V30 7273 H 664.175 -1.54326 4.41929 0
M  V30 7274 H 664.348 -1.89621 6.19635 0
M  V30 7275 N 657.755 -1.42862 -0.66545 0
M  V30 7276 C 658.985 -1.47032 -1.45138 0
M  V30 7277 C 659.393 -0.0829977 -1.89018 0
M  V30 7278 O 658.736 0.914551 -1.59316 0
M  V30 7279 C 658.798 -2.34302 -2.72659 0
M  V30 7280 C 658.462 -3.82034 -2.50796 0
M  V30 7281 C 659.459 -4.73453 -2.14799 0
M  V30 7282 C 657.144 -4.26397 -2.655 0
M  V30 7283 C 659.138 -6.07228 -1.93785 0
M  V30 7284 C 656.825 -5.6023 -2.44103 0
M  V30 7285 C 657.823 -6.50462 -2.08299 0
M  V30 7286 O 657.511 -7.8182 -1.87116 0
M  V30 7287 H 657.243 -0.501969 -0.452772 0
M  V30 7288 H 659.797 -1.88137 -0.82423 0
M  V30 7289 H 658.027 -1.88063 -3.37889 0
M  V30 7290 H 659.716 -2.29818 -3.34572 0
M  V30 7291 H 660.482 -4.4046 -2.03026 0
M  V30 7292 H 656.361 -3.56448 -2.92345 0
M  V30 7293 H 659.905 -6.7762 -1.65763 0
M  V30 7294 H 655.802 -5.92793 -2.55475 0
M  V30 7295 H 656.57 -7.93274 -2.01639 0
M  V30 7296 N 659.233 0.902656 -1.29189 0
M  V30 7297 C 660.143 2.03946 -1.15944 0
M  V30 7298 C 661.159 1.738 -0.0833803 0
M  V30 7299 O 662.335 1.9923 -0.29487 0
M  V30 7300 C 659.4 3.36519 -0.834006 0
M  V30 7301 C 658.461 3.80203 -1.9936 0
M  V30 7302 C 657.694 5.06449 -1.68359 0
M  V30 7303 O 657.917 5.67202 -0.603141 0
M  V30 7304 O 656.851 5.46114 -2.53067 0
M  V30 7305 H 660.677 2.18043 -2.11403 0
M  V30 7306 H 658.262 1.02584 -1.08613 0
M  V30 7307 H 660.144 4.16089 -0.666949 0
M  V30 7308 H 658.819 3.23573 0.0908245 0
M  V30 7309 H 657.726 3.01413 -2.21588 0
M  V30 7310 H 659.059 3.97729 -2.89952 0
M  V30 7311 N 660.711 1.11618 1.11262 0
M  V30 7312 C 661.957 0.867463 1.83311 0
M  V30 7313 C 662.29 -0.605366 1.84524 0
M  V30 7314 O 661.565 -1.44704 1.29965 0
M  V30 7315 C 661.848 1.43207 3.30399 0
M  V30 7316 C 661.701 2.97265 3.3757 0
M  V30 7317 C 663.02 1.08454 4.26528 0
M  V30 7318 H 660.139 0.316578 0.665543 0
M  V30 7319 H 662.781 1.38137 1.30454 0
M  V30 7320 H 660.931 0.994982 3.75543 0
M  V30 7321 H 662.603 3.49591 3.00971 0
M  V30 7322 H 660.846 3.33237 2.77733 0
M  V30 7323 H 661.517 3.31859 4.41105 0
M  V30 7324 H 663.993 1.4619 3.89574 0
M  V30 7325 H 662.869 1.50633 5.27826 0
M  V30 7326 H 663.13 -0.00444568 4.421 0
M  V30 7327 N 662.189 -1.289 0.906776 0
M  V30 7328 C 663.435 -1.95558 0.53712 0
M  V30 7329 C 663.768 -1.71262 -0.915582 0
M  V30 7330 O 663.043 -1.02961 -1.65013 0
M  V30 7331 C 663.326 -3.50198 0.838645 0
M  V30 7332 C 663.179 -3.83923 2.34357 0
M  V30 7333 C 664.498 -4.38861 0.329988 0
M  V30 7334 H 661.617 -0.710289 0.196617 0
M  V30 7335 H 664.259 -1.52392 1.13475 0
M  V30 7336 H 662.409 -3.87096 0.330024 0
M  V30 7337 H 664.081 -3.56933 2.92227 0
M  V30 7338 H 662.324 -3.31215 2.80141 0
M  V30 7339 H 662.995 -4.91883 2.5051 0
M  V30 7340 H 665.471 -4.08996 0.765609 0
M  V30 7341 H 664.347 -5.45931 0.570105 0
M  V30 7342 H 664.608 -4.35352 -0.769511 0
M  V30 7343 N 663.667 -0.670007 -1.42649 0
M  V30 7344 C 664.615 0.0230106 -2.32589 0
M  V30 7345 C 665.609 0.795585 -1.49555 0
M  V30 7346 O 666.815 0.70409 -1.65658 0
M  V30 7347 H 663.19 0.0262342 -0.751542 0
M  V30 7348 H 665.161 -0.753009 -2.88743 0
M  V30 7349 C 663.91 0.963872 -3.34073 0
M  V30 7350 H 663.233 0.378813 -3.98001 0
M  V30 7351 H 664.673 1.41755 -3.99602 0
M  V30 7352 C 663.132 2.06797 -2.65964 0
M  V30 7353 O 663.662 3.15383 -2.48789 0
M  V30 7354 N 661.868 1.83831 -2.25066 0
M  V30 7355 H 661.415 0.955235 -2.39234 0
M  V30 7356 H 661.373 2.57895 -1.79827 0
M  V30 7357 N 665.145 1.52092 -0.413018 0
M  V30 7358 C 666.393 2.01456 0.161178 0
M  V30 7359 C 666.714 1.30034 1.45314 0
M  V30 7360 O 665.984 0.427435 1.9118 0
M  V30 7361 H 664.564 0.744376 0.0625526 0
M  V30 7362 H 667.226 1.86974 -0.550151 0
M  V30 7363 H 666.322 3.1008 0.354517 0
M  V30 7364 N 666.623 0.143563 1.56945 0
M  V30 7365 C 667.571 -0.814556 2.17871 0
M  V30 7366 C 668.565 -1.25778 1.13474 0
M  V30 7367 O 669.771 -1.22666 1.31731 0
M  V30 7368 H 666.146 -0.280873 0.697578 0
M  V30 7369 H 668.117 -0.276459 2.97117 0
M  V30 7370 C 666.866 -2.04503 2.81201 0
M  V30 7371 H 666.189 -1.71296 3.61245 0
M  V30 7372 H 667.629 -2.69493 3.27337 0
M  V30 7373 C 666.088 -2.85079 1.79532 0
M  V30 7374 O 666.618 -3.81306 1.26368 0
M  V30 7375 N 664.824 -2.49546 1.48913 0
M  V30 7376 H 664.371 -1.71359 1.92338 0
M  V30 7377 H 664.329 -3.03751 0.811348 0
M  V30 7378 N 668.101 -1.57061 -0.130224 0
M  V30 7379 C 669.35 -1.83446 -0.838488 0
M  V30 7380 C 669.663 -0.727468 -1.81569 0
M  V30 7381 O 670.869 -0.877394 -2.56932 0
M  V30 7382 C 669.325 -3.25201 -1.54182 0
M  V30 7383 C 668.933 -4.4388 -0.606178 0
M  V30 7384 C 670.677 -3.60844 -2.23588 0
M  V30 7385 C 668.584 -5.76661 -1.31209 0
M  V30 7386 H 667.514 -0.684185 -0.316871 0
M  V30 7387 H 670.165 -1.83273 -0.0912059 0
M  V30 7388 H 668.547 -3.1981 -2.33533 0
M  V30 7389 H 669.721 -4.60545 0.153308 0
M  V30 7390 H 668.036 -4.16395 -0.0196705 0
M  V30 7391 H 670.633 -4.57313 -2.77072 0
M  V30 7392 H 670.976 -2.87724 -3.00867 0
M  V30 7393 H 671.509 -3.67971 -1.51137 0
M  V30 7394 H 668.248 -6.52922 -0.580823 0
M  V30 7395 H 667.768 -5.63902 -2.04387 0
M  V30 7396 H 669.447 -6.20035 -1.8484 0
M  V30 7397 N 669.579 0.400081 -1.52437 0
M  V30 7398 C 670.856 1.15973 -1.57511 0
M  V30 7399 C 671.236 2.0798 -0.361572 0
M  V30 7400 O 670.584 2.19032 0.650929 0
M  V30 7401 C 670.794 1.92912 -2.90837 0
M  V30 7402 C 672.142 2.48662 -3.44169 0
M  V30 7403 O 673.166 2.03081 -2.92637 0
M  V30 7404 O 672.025 3.31894 -4.34176 0
M  V30 7405 H 669.119 0.530023 -0.634827 0
M  V30 7406 H 671.665 0.40613 -1.64769 0
M  V30 7407 H 670.437 1.25564 -3.70607 0
M  V30 7408 H 670.06 2.75257 -2.86913 0
M  V30 7409 N 671.057 1.43213 0.657864 0
M  V30 7410 C 671.987 1.50815 1.78262 0
M  V30 7411 C 672.968 0.363211 1.66177 0
M  V30 7412 O 674.153 0.579806 1.85343 0
M  V30 7413 C 671.283 1.42625 3.16663 0
M  V30 7414 C 670.237 2.5532 3.43505 0
M  V30 7415 C 669.563 2.32184 4.81658 0
M  V30 7416 C 670.863 3.97583 3.38711 0
M  V30 7417 H 672.557 2.44954 1.72157 0
M  V30 7418 H 670.103 1.17896 0.82683 0
M  V30 7419 H 672.056 1.46548 3.95097 0
M  V30 7420 H 670.78 0.449877 3.23487 0
M  V30 7421 H 669.439 2.50742 2.6744 0
M  V30 7422 H 669.087 1.32801 4.85153 0
M  V30 7423 H 668.787 3.07724 5.00579 0
M  V30 7424 H 670.311 2.37883 5.62356 0
M  V30 7425 H 671.725 4.03673 4.07089 0
M  V30 7426 H 670.122 4.73112 3.69168 0
M  V30 7427 H 671.192 4.23049 2.36976 0
M  V30 7428 N 672.536 -0.895792 1.29666 0
M  V30 7429 C 673.483 -2.00035 1.15129 0
M  V30 7430 C 674.453 -1.66043 0.0435819 0
M  V30 7431 O 675.638 -1.89621 0.211811 0
M  V30 7432 C 672.778 -3.34774 0.83787 0
M  V30 7433 C 671.891 -3.81525 2.0264 0
M  V30 7434 C 671.026 -5.04858 1.65201 0
M  V30 7435 C 670.065 -5.43988 2.80612 0
M  V30 7436 N 669.202 -6.58507 2.43544 0
M  V30 7437 H 674.042 -2.11802 2.09628 0
M  V30 7438 H 671.579 -1.03719 1.04311 0
M  V30 7439 H 673.537 -4.12311 0.636824 0
M  V30 7440 H 672.167 -3.22724 -0.0702314 0
M  V30 7441 H 671.219 -2.9999 2.33903 0
M  V30 7442 H 672.531 -4.06472 2.89106 0
M  V30 7443 H 671.685 -5.8999 1.41408 0
M  V30 7444 H 670.424 -4.81759 0.758893 0
M  V30 7445 H 669.429 -4.57388 3.05083 0
M  V30 7446 H 670.654 -5.69066 3.70595 0
M  V30 7447 H 668.6 -6.37004 1.56724 0
M  V30 7448 H 668.517 -6.83269 3.23542 0
M  V30 7449 H 669.785 -7.46897 2.2308 0
M  V30 7450 N 674.014 -1.12206 -1.10668 0
M  V30 7451 C 674.946 -0.74552 -2.16736 0
M  V30 7452 C 675.959 0.226696 -1.61214 0
M  V30 7453 O 677.148 0.0083936 -1.78498 0
M  V30 7454 C 674.248 -0.0823368 -3.388 0
M  V30 7455 C 673.421 -1.08341 -4.2377 0
M  V30 7456 C 672.48 -0.448292 -5.24287 0
M  V30 7457 O 671.506 -1.10458 -5.58379 0
M  V30 7458 N 672.708 0.785336 -5.75163 0
M  V30 7459 H 675.473 -1.65818 -2.49649 0
M  V30 7460 H 673.034 -1.01335 -1.26265 0
M  V30 7461 H 675.026 0.354476 -4.03145 0
M  V30 7462 H 673.596 0.733041 -3.03884 0
M  V30 7463 H 672.816 -1.69792 -3.55759 0
M  V30 7464 H 674.104 -1.76042 -4.77375 0
M  V30 7465 H 673.502 1.33755 -5.4966 0
M  V30 7466 H 672.059 1.16501 -6.41304 0
M  V30 7467 N 675.492 1.28418 -0.913599 0
M  V30 7468 C 676.455 2.25564 -0.406624 0
M  V30 7469 C 677.455 1.5387 0.466965 0
M  V30 7470 O 678.645 1.72094 0.270042 0
M  V30 7471 C 675.777 3.38339 0.417053 0
M  V30 7472 H 676.97 2.71926 -1.26477 0
M  V30 7473 H 674.523 1.40098 -0.692986 0
M  V30 7474 H 675.258 2.97339 1.29461 0
M  V30 7475 H 675.043 3.91542 -0.209102 0
M  V30 7476 H 676.533 4.10578 0.762602 0
M  V30 7477 N 676.97 0.677563 1.42291 0
M  V30 7478 C 678.219 0.198173 2.00724 0
M  V30 7479 C 678.532 -1.20325 1.54211 0
M  V30 7480 O 679.738 -1.77916 2.05081 0
M  V30 7481 C 678.194 0.303432 3.58619 0
M  V30 7482 C 677.802 1.70909 4.14119 0
M  V30 7483 C 679.546 -0.117103 4.24338 0
M  V30 7484 C 677.453 1.76696 5.64387 0
M  V30 7485 H 676.383 0.070329 0.750713 0
M  V30 7486 H 679.034 0.843147 1.62982 0
M  V30 7487 H 677.416 -0.409482 3.93877 0
M  V30 7488 H 678.59 2.44931 3.90315 0
M  V30 7489 H 676.905 2.07771 3.6086 0
M  V30 7490 H 679.502 -0.0940471 5.34617 0
M  V30 7491 H 679.845 -1.15283 4.00019 0
M  V30 7492 H 680.378 0.5449 3.9405 0
M  V30 7493 H 677.117 2.7826 5.93508 0
M  V30 7494 H 676.637 1.07034 5.90173 0
M  V30 7495 H 678.316 1.52166 6.28852 0
M  V30 7496 N 678.448 -1.51871 0.421078 0
M  V30 7497 C 679.358 -2.31077 -0.405069 0
M  V30 7498 C 680.374 -1.39301 -1.04265 0
M  V30 7499 O 681.55 -1.72376 -1.04157 0
M  V30 7500 C 678.615 -3.12556 -1.50032 0
M  V30 7501 C 677.676 -4.20088 -0.884559 0
M  V30 7502 C 676.909 -4.97673 -1.92762 0
M  V30 7503 O 677.132 -4.75696 -3.14753 0
M  V30 7504 O 676.066 -5.82203 -1.52719 0
M  V30 7505 H 679.892 -3.02742 0.241086 0
M  V30 7506 H 677.477 -1.48263 0.183991 0
M  V30 7507 H 679.359 -3.6326 -2.13589 0
M  V30 7508 H 678.034 -2.43672 -2.13086 0
M  V30 7509 H 676.941 -3.73502 -0.211379 0
M  V30 7510 H 678.274 -4.91298 -0.297763 0
M  V30 7511 N 679.926 -0.151884 -1.56866 0
M  V30 7512 C 681.151 0.508044 -2.01081 0
M  V30 7513 C 681.576 1.57306 -1.03134 0
M  V30 7514 O 680.934 1.81298 -0.0078309 0
M  V30 7515 C 680.982 1.08106 -3.44014 0
M  V30 7516 O 680.086 2.19577 -3.49084 0
M  V30 7517 H 679.427 0.123757 -0.652365 0
M  V30 7518 H 681.957 -0.250055 -2.03066 0
M  V30 7519 H 681.967 1.40851 -3.82916 0
M  V30 7520 H 680.642 0.301168 -4.14808 0
M  V30 7521 H 679.219 1.88023 -3.22027 0
M  V30 7522 N 681.404 1.57128 0.121893 0
M  V30 7523 C 682.629 1.89254 0.848385 0
M  V30 7524 C 683.054 0.743527 1.72781 0
M  V30 7525 O 682.412 -0.306056 1.78698 0
M  V30 7526 C 682.46 3.20113 1.66012 0
M  V30 7527 O 681.564 3.05815 2.76679 0
M  V30 7528 H 680.905 0.621103 0.234793 0
M  V30 7529 H 683.435 2.0433 0.10516 0
M  V30 7530 H 683.445 3.52761 2.04996 0
M  V30 7531 H 682.12 4.03336 1.01452 0
M  V30 7532 H 680.697 2.84627 2.40918 0
M  V30 7533 N 682.882 -0.391992 1.52647 0
M  V30 7534 C 684.159 -1.15136 1.58123 0
M  V30 7535 C 684.539 -2.07786 0.372597 0
M  V30 7536 O 683.887 -2.19374 -0.639304 0
M  V30 7537 C 684.097 -1.91367 2.91856 0
M  V30 7538 C 685.445 -2.46833 3.45483 0
M  V30 7539 O 686.469 -2.01527 2.9371 0
M  V30 7540 O 685.328 -3.29587 4.3593 0
M  V30 7541 H 682.422 -0.526649 0.637629 0
M  V30 7542 H 684.968 -0.397386 1.64982 0
M  V30 7543 H 683.74 -1.23597 3.71268 0
M  V30 7544 H 683.363 -2.73732 2.88369 0
M  V30 7545 N 684.36 -1.4356 -0.65026 0
M  V30 7546 C 685.308 -1.49219 -1.78427 0
M  V30 7547 C 686.302 -0.365528 -1.65409 0
M  V30 7548 O 687.508 -0.539649 -1.7172 0
M  V30 7549 H 683.883 -0.467858 -0.588738 0
M  V30 7550 H 685.854 -2.44701 -1.70774 0
M  V30 7551 C 684.603 -1.43519 -3.16698 0
M  V30 7552 H 683.926 -2.2952 -3.27354 0
M  V30 7553 H 685.366 -1.5154 -3.95995 0
M  V30 7554 C 683.825 -0.153197 -3.36552 0
M  V30 7555 O 684.355 0.784317 -3.93969 0
M  V30 7556 N 682.561 -0.0624402 -2.90533 0
M  V30 7557 H 682.108 -0.826172 -2.43992 0
M  V30 7558 H 682.066 0.794616 -3.04193 0
M  V30 7559 N 685.838 0.888903 -1.30139 0
M  V30 7560 C 687.087 1.63507 -1.18103 0
M  V30 7561 C 687.4 1.93808 0.264141 0
M  V30 7562 O 688.606 2.66744 0.505966 0
M  V30 7563 C 687.062 2.94673 -2.0663 0
M  V30 7564 C 686.67 2.71926 -3.56034 0
M  V30 7565 C 688.414 3.72626 -2.03346 0
M  V30 7566 C 686.321 3.98884 -4.3663 0
M  V30 7567 H 685.251 0.613426 -0.438435 0
M  V30 7568 H 687.902 0.984427 -1.54859 0
M  V30 7569 H 686.284 3.61009 -1.62754 0
M  V30 7570 H 687.458 2.14116 -4.08033 0
M  V30 7571 H 685.773 2.07353 -3.61101 0
M  V30 7572 H 688.37 4.66775 -2.60816 0
M  V30 7573 H 688.713 4.03712 -1.016 0
M  V30 7574 H 689.246 3.13147 -2.45324 0
M  V30 7575 H 685.985 3.72959 -5.39056 0
M  V30 7576 H 685.505 4.56214 -3.89396 0
M  V30 7577 H 687.184 4.66938 -4.47859 0
M  V30 7578 N 687.317 1.12792 1.10072 0
M  V30 7579 C 688.564 0.885545 1.82111 0
M  V30 7580 C 688.892 -0.588519 1.85383 0
M  V30 7581 O 688.147 -1.45124 1.31292 0
M  V30 7582 C 688.446 1.4102 3.28403 0
M  V30 7583 C 688.112 2.89995 3.45273 0
M  V30 7584 C 686.774 3.30671 3.49585 0
M  V30 7585 C 689.126 3.85874 3.50358 0
M  V30 7586 C 686.454 4.65925 3.56553 0
M  V30 7587 C 688.806 5.20963 3.58859 0
M  V30 7588 C 687.47 5.61177 3.61437 0
M  V30 7589 H 686.74 0.324044 0.666391 0
M  V30 7590 H 689.387 1.40874 1.29718 0
M  V30 7591 H 687.692 0.807551 3.83387 0
M  V30 7592 H 689.389 1.19882 3.82661 0
M  V30 7593 H 685.979 2.57537 3.42597 0
M  V30 7594 H 690.163 3.5554 3.46273 0
M  V30 7595 H 685.419 4.96468 3.56833 0
M  V30 7596 H 689.593 5.95079 3.61738 0
M  V30 7597 H 687.22 6.6597 3.66589 0
M  V30 7598 N 688.795 -1.27931 0.920396 0
M  V30 7599 C 690.042 -1.94689 0.557007 0
M  V30 7600 C 690.37 -1.724 -0.900476 0
M  V30 7601 O 689.625 -1.04194 -1.65657 0
M  V30 7602 C 689.924 -3.47853 0.820558 0
M  V30 7603 C 689.59 -3.90252 2.25863 0
M  V30 7604 C 688.252 -4.01539 2.65179 0
M  V30 7605 C 690.604 -4.11853 3.19415 0
M  V30 7606 C 687.932 -4.3181 3.97187 0
M  V30 7607 C 690.284 -4.43606 4.50995 0
M  V30 7608 C 688.948 -4.53105 4.90155 0
M  V30 7609 H 688.218 -0.712416 0.203823 0
M  V30 7610 H 690.865 -1.52142 1.16298 0
M  V30 7611 H 689.17 -3.91578 0.131844 0
M  V30 7612 H 690.867 -3.97634 0.51847 0
M  V30 7613 H 687.457 -3.81999 1.94358 0
M  V30 7614 H 691.641 -4.0258 2.90246 0
M  V30 7615 H 686.897 -4.37371 4.2722 0
M  V30 7616 H 691.071 -4.59268 5.23494 0
M  V30 7617 H 688.698 -4.76315 5.92476 0
M  V30 7618 N 690.273 -0.685099 -1.4193 0
M  V30 7619 C 691.236 -0.0222632 -2.29189 0
M  V30 7620 C 692.236 0.7186 -1.4385 0
M  V30 7621 O 693.426 0.555058 -1.6512 0
M  V30 7622 C 690.558 0.979013 -3.2654 0
M  V30 7623 H 691.751 -0.790424 -2.89296 0
M  V30 7624 H 689.304 -0.448012 -1.49742 0
M  V30 7625 H 690.039 1.77531 -2.71392 0
M  V30 7626 H 689.824 0.451037 -3.89497 0
M  V30 7627 H 691.314 1.44091 -3.91954 0
M  V30 7628 N 691.751 1.51645 -0.429126 0
M  V30 7629 C 693.167 1.59394 -0.080994 0
M  V30 7630 C 693.367 1.44064 1.40882 0
M  V30 7631 O 692.423 1.27771 2.17786 0
M  V30 7632 C 693.736 2.94779 -0.593773 0
M  V30 7633 C 695.284 3.08067 -0.553494 0
M  V30 7634 C 695.759 4.45963 -1.04311 0
M  V30 7635 N 697.25 4.5226 -1.00076 0
M  V30 7636 C 697.985 5.57268 -1.35056 0
M  V30 7637 N 697.481 6.69734 -1.77282 0
M  V30 7638 N 699.274 5.47582 -1.26925 0
M  V30 7639 H 691.425 1.59856 -1.39857 0
M  V30 7640 H 693.688 0.753095 -0.575805 0
M  V30 7641 H 693.394 3.11342 -1.63583 0
M  V30 7642 H 693.268 3.77197 -0.0142202 0
M  V30 7643 H 695.655 2.91177 0.479556 0
M  V30 7644 H 695.736 2.27508 -1.16935 0
M  V30 7645 H 695.38 4.63598 -2.07459 0
M  V30 7646 H 695.31 5.25049 -0.403873 0
M  V30 7647 H 697.801 3.71537 -0.690564 0
M  V30 7648 H 698.114 7.4587 -2.02232 0
M  V30 7649 H 696.459 6.70963 -1.81202 0
M  V30 7650 H 699.65 4.58604 -0.93809 0
M  V30 7651 H 699.823 6.29308 -1.54516 0
M  V30 7652 N 693.229 0.160201 1.56784 0
M  V30 7653 C 694.475 -0.48831 1.96833 0
M  V30 7654 C 694.808 -1.63641 1.04571 0
M  V30 7655 O 694.083 -1.94289 0.0906481 0
M  V30 7656 C 694.366 -0.981908 3.46454 0
M  V30 7657 C 694.219 0.165607 4.49495 0
M  V30 7658 C 695.538 -1.85931 3.98896 0
M  V30 7659 H 692.657 -0.176027 0.71567 0
M  V30 7660 H 695.299 0.244093 1.88426 0
M  V30 7661 H 693.449 -1.60602 3.5375 0
M  V30 7662 H 695.121 0.802372 4.54268 0
M  V30 7663 H 693.364 0.822789 4.25926 0
M  V30 7664 H 694.035 -0.221699 5.51555 0
M  V30 7665 H 696.511 -1.33327 3.94161 0
M  V30 7666 H 695.387 -2.17373 5.04024 0
M  V30 7667 H 695.648 -2.80106 3.42042 0
M  V30 7668 N 694.707 -1.5719 -0.113559 0
M  V30 7669 C 695.67 -1.99796 -1.12314 0
M  V30 7670 C 696.67 -0.888847 -1.34001 0
M  V30 7671 O 697.86 -1.15476 -1.30426 0
M  V30 7672 C 694.992 -2.34279 -2.47641 0
M  V30 7673 H 696.185 -2.90193 -0.756825 0
M  V30 7674 H 693.738 -1.52144 -0.358029 0
M  V30 7675 H 694.473 -1.46778 -2.89183 0
M  V30 7676 H 694.258 -3.15175 -2.33253 0
M  V30 7677 H 695.748 -2.67963 -3.2029 0
M  V30 7678 N 696.185 0.383891 -1.52853 0
M  V30 7679 C 697.115 1.47559 -1.80965 0
M  V30 7680 C 698.096 1.5669 -0.661986 0
M  V30 7681 O 699.281 1.71556 -0.910072 0
M  V30 7682 C 696.411 2.85114 -1.98312 0
M  V30 7683 C 695.365 2.9082 -3.14019 0
M  V30 7684 C 694.691 4.30873 -3.16627 0
M  V30 7685 C 695.991 2.60001 -4.52986 0
M  V30 7686 H 697.685 1.24283 -2.72386 0
M  V30 7687 H 695.231 0.596445 -1.31067 0
M  V30 7688 H 697.184 3.61496 -2.16561 0
M  V30 7689 H 695.908 3.09738 -1.03585 0
M  V30 7690 H 694.567 2.16886 -2.9556 0
M  V30 7691 H 694.215 4.52545 -2.19573 0
M  V30 7692 H 693.915 4.3561 -3.94357 0
M  V30 7693 H 695.439 5.09154 -3.37038 0
M  V30 7694 H 696.853 3.261 -4.71521 0
M  V30 7695 H 695.25 2.76081 -5.32822 0
M  V30 7696 H 696.32 1.5532 -4.59351 0
M  V30 7697 N 697.663 1.43903 0.642637 0
M  V30 7698 C 698.573 1.52349 1.78401 0
M  V30 7699 C 699.589 0.409869 1.69104 0
M  V30 7700 O 700.765 0.665548 1.90085 0
M  V30 7701 C 697.83 1.45408 3.14734 0
M  V30 7702 C 696.891 2.67528 3.35749 0
M  V30 7703 C 696.124 2.60909 4.65577 0
M  V30 7704 O 696.347 1.6627 5.45628 0
M  V30 7705 O 695.281 3.5158 4.88544 0
M  V30 7706 H 699.107 2.48752 1.7423 0
M  V30 7707 H 696.692 1.26021 0.802439 0
M  V30 7708 H 698.574 1.44019 3.96026 0
M  V30 7709 H 697.249 0.521437 3.19473 0
M  V30 7710 H 696.156 2.74487 2.5418 0
M  V30 7711 H 697.489 3.598 3.35864 0
M  V30 7712 N 699.141 -0.881989 1.30609 0
M  V30 7713 C 700.071 -2.00413 1.1982 0
M  V30 7714 C 701.052 -1.69871 0.0881538 0
M  V30 7715 O 702.237 -1.92304 0.2707 0
M  V30 7716 C 699.367 -3.35641 0.89233 0
M  V30 7717 C 698.321 -3.80451 1.96064 0
M  V30 7718 C 697.647 -5.13003 1.5077 0
M  V30 7719 C 698.947 -3.98855 3.37213 0
M  V30 7720 H 700.641 -2.09698 2.13699 0
M  V30 7721 H 698.187 -1.00754 1.02882 0
M  V30 7722 H 700.14 -4.13669 0.803497 0
M  V30 7723 H 698.864 -3.26497 -0.0821381 0
M  V30 7724 H 697.523 -3.04654 2.03916 0
M  V30 7725 H 697.171 -5.0029 0.521417 0
M  V30 7726 H 696.871 -5.43956 2.22229 0
M  V30 7727 H 698.395 -5.93554 1.43271 0
M  V30 7728 H 699.809 -4.67312 3.32103 0
M  V30 7729 H 698.206 -4.41188 4.06784 0
M  V30 7730 H 699.276 -3.02614 3.78883 0
M  V30 7731 N 700.619 -1.13374 -1.09472 0
M  V30 7732 C 701.867 -0.893422 -1.8128 0
M  V30 7733 C 702.188 0.582029 -1.86111 0
M  V30 7734 O 701.458 1.42305 -1.34633 0
M  V30 7735 H 700.038 -0.327543 -0.67136 0
M  V30 7736 H 702.7 -1.43018 -1.32408 0
M  V30 7737 H 701.796 -1.28374 -2.84476 0
M  V30 7738 N 702.098 1.27442 -0.927168 0
M  V30 7739 C 703.323 1.99036 -0.583042 0
M  V30 7740 C 703.748 1.68711 0.83176 0
M  V30 7741 O 703.106 0.927081 1.55804 0
M  V30 7742 C 703.154 3.51271 -0.814925 0
M  V30 7743 O 702.258 4.12226 0.119742 0
M  V30 7744 H 701.599 0.624883 -0.224538 0
M  V30 7745 H 704.129 1.62263 -1.24628 0
M  V30 7746 H 704.139 4.01411 -0.730282 0
M  V30 7747 H 702.814 3.72676 -1.84623 0
M  V30 7748 H 701.391 3.72897 -0.0147688 0
M  V30 7749 N 703.576 0.692616 1.41565 0
M  V30 7750 C 704.523 0.0254264 2.30786 0
M  V30 7751 C 705.493 -0.774347 1.46946 0
M  V30 7752 O 706.678 -0.742981 1.7574 0
M  V30 7753 C 703.818 -0.907123 3.32964 0
M  V30 7754 C 702.931 -0.0992784 4.31886 0
M  V30 7755 C 702.066 -1.0292 5.21134 0
M  V30 7756 C 701.105 -0.214088 6.11725 0
M  V30 7757 N 700.242 -1.09766 6.93467 0
M  V30 7758 H 705.082 0.792036 2.87282 0
M  V30 7759 H 702.619 0.4023 1.41492 0
M  V30 7760 H 704.577 -1.46181 3.90752 0
M  V30 7761 H 703.207 -1.64016 2.78026 0
M  V30 7762 H 702.259 0.572287 3.76071 0
M  V30 7763 H 703.571 0.532782 4.95946 0
M  V30 7764 H 702.725 -1.65321 5.83741 0
M  V30 7765 H 701.464 -1.69512 4.57293 0
M  V30 7766 H 700.469 0.42302 5.4817 0
M  V30 7767 H 701.694 0.447995 6.77621 0
M  V30 7768 H 699.64 -1.74965 6.32237 0
M  V30 7769 H 699.557 -0.521099 7.54202 0
M  V30 7770 H 700.825 -1.70858 7.60544 0
M  V30 7771 N 705.054 -1.51416 0.437162 0
M  V30 7772 C 706.001 -2.27743 -0.374374 0
M  V30 7773 C 706.971 -1.31327 -1.01698 0
M  V30 7774 O 708.156 -1.60229 -1.03592 0
M  V30 7775 C 705.296 -3.12241 -1.46969 0
M  V30 7776 C 704.409 -4.23651 -0.845236 0
M  V30 7777 C 703.544 -4.95458 -1.91559 0
M  V30 7778 C 702.583 -5.98789 -1.26956 0
M  V30 7779 N 701.72 -6.64005 -2.28126 0
M  V30 7780 H 706.56 -2.96654 0.282892 0
M  V30 7781 H 704.097 -1.46319 0.151352 0
M  V30 7782 H 706.055 -3.59556 -2.11602 0
M  V30 7783 H 704.685 -2.45445 -2.09659 0
M  V30 7784 H 703.737 -3.803 -0.0872059 0
M  V30 7785 H 705.049 -4.97683 -0.333582 0
M  V30 7786 H 704.203 -5.46321 -2.63854 0
M  V30 7787 H 702.942 -4.21055 -2.46097 0
M  V30 7788 H 701.947 -5.47219 -0.53207 0
M  V30 7789 H 703.172 -6.75149 -0.731509 0
M  V30 7790 H 701.118 -5.92415 -2.81745 0
M  V30 7791 H 701.035 -7.33802 -1.81852 0
M  V30 7792 H 702.303 -7.19498 -2.99905 0
M  V30 7793 N 706.532 -0.168513 -1.56696 0
M  V30 7794 C 707.779 0.477158 -1.96798 0
M  V30 7795 C 708.107 1.63442 -1.05437 0
M  V30 7796 O 707.362 1.95503 -0.0878903 0
M  V30 7797 C 707.661 1.00441 -3.42996 0
M  V30 7798 C 707.327 -0.0366556 -4.50885 0
M  V30 7799 C 705.989 -0.322785 -4.80116 0
M  V30 7800 C 708.341 -0.743447 -5.1587 0
M  V30 7801 C 705.669 -1.32114 -5.71632 0
M  V30 7802 C 708.021 -1.73077 -6.08463 0
M  V30 7803 C 706.685 -2.02437 -6.36062 0
M  V30 7804 H 705.955 0.174604 -0.720135 0
M  V30 7805 H 708.602 -0.259884 -1.89728 0
M  V30 7806 H 706.907 1.81922 -3.47004 0
M  V30 7807 H 708.604 1.51294 -3.71364 0
M  V30 7808 H 705.194 0.196532 -4.28149 0
M  V30 7809 H 709.378 -0.535602 -4.93401 0
M  V30 7810 H 704.634 -1.55482 -5.913 0
M  V30 7811 H 708.808 -2.28382 -6.57886 0
M  V30 7812 H 706.435 -2.79946 -7.06777 0
M  V30 7813 N 708.01 1.57248 0.105221 0
M  V30 7814 C 708.92 2.04653 1.14693 0
M  V30 7815 C 709.936 0.969488 1.44489 0
M  V30 7816 O 711.112 1.28196 1.55331 0
M  V30 7817 C 708.177 2.45297 2.45011 0
M  V30 7818 C 707.238 3.67148 2.22489 0
M  V30 7819 C 706.471 4.05844 3.46592 0
M  V30 7820 O 706.694 3.44736 4.54437 0
M  V30 7821 O 705.628 4.98862 3.36779 0
M  V30 7822 H 709.454 2.93663 0.774336 0
M  V30 7823 H 707.039 1.45998 0.31701 0
M  V30 7824 H 708.921 2.72112 3.21766 0
M  V30 7825 H 707.596 1.59429 2.81717 0
M  V30 7826 H 706.503 3.45463 1.43547 0
M  V30 7827 H 707.836 4.53764 1.9068 0
M  V30 7828 N 709.488 -0.375779 1.53054 0
M  V30 7829 C 710.435 -1.45978 1.78771 0
M  V30 7830 C 711.405 -1.53625 0.631552 0
M  V30 7831 O 712.59 -1.69674 0.872667 0
M  V30 7832 C 709.73 -2.8305 1.97425 0
M  V30 7833 C 708.843 -2.84451 3.25134 0
M  V30 7834 C 707.978 -4.13034 3.34031 0
M  V30 7835 C 707.017 -4.08536 4.55812 0
M  V30 7836 N 706.154 -5.2875 4.61918 0
M  V30 7837 H 710.994 -1.23349 2.71273 0
M  V30 7838 H 708.531 -0.598147 1.3439 0
M  V30 7839 H 710.489 -3.62666 2.06225 0
M  V30 7840 H 709.119 -3.04101 1.0827 0
M  V30 7841 H 708.171 -1.97127 3.25338 0
M  V30 7842 H 709.483 -2.76998 4.14818 0
M  V30 7843 H 708.637 -5.0106 3.42087 0
M  V30 7844 H 707.376 -4.23226 2.42345 0
M  V30 7845 H 706.381 -3.18897 4.47867 0
M  V30 7846 H 707.606 -3.99955 5.48828 0
M  V30 7847 H 705.552 -5.39547 3.73129 0
M  V30 7848 H 705.469 -5.23426 5.45492 0
M  V30 7849 H 706.737 -6.18637 4.74245 0
M  V30 7850 N 710.966 -1.44241 -0.634997 0
M  V30 7851 C 712.214 -1.46531 -1.39187 0
M  V30 7852 C 712.535 -0.0976441 -1.94755 0
M  V30 7853 O 711.805 0.869528 -1.75545 0
M  V30 7854 H 710.385 -0.539544 -0.516625 0
M  V30 7855 H 713.047 -1.79989 -0.747655 0
M  V30 7856 H 712.143 -2.18848 -2.22513 0
M  V30 7857 N 712.444 0.87505 -1.31075 0
M  V30 7858 C 713.377 1.98471 -1.12625 0
M  V30 7859 C 714.355 1.6257 -0.0311379 0
M  V30 7860 O 715.539 1.87574 -0.186594 0
M  V30 7861 C 712.666 3.30963 -0.719799 0
M  V30 7862 C 711.712 3.85849 -1.81722 0
M  V30 7863 S 712.545 4.11926 -3.42165 0
M  V30 7864 C 713.701 5.47423 -3.03445 0
M  V30 7865 H 713.934 2.13817 -2.06566 0
M  V30 7866 H 711.467 1.02463 -1.15502 0
M  V30 7867 H 713.425 4.07541 -0.492035 0
M  V30 7868 H 712.086 3.1346 0.200413 0
M  V30 7869 H 711.279 4.81616 -1.48533 0
M  V30 7870 H 710.881 3.16046 -1.99977 0
M  V30 7871 H 713.173 6.28881 -2.52023 0
M  V30 7872 H 714.116 5.85557 -3.98157 0
M  V30 7873 H 714.524 5.10455 -2.41031 0
M  V30 7874 N 713.922 1.13953 1.08869 0
M  V30 7875 C 714.869 0.82213 2.15661 0
M  V30 7876 C 715.839 -0.218274 1.6466 0
M  V30 7877 O 717.024 -0.0892475 1.90591 0
M  V30 7878 C 714.164 0.300572 3.43789 0
M  V30 7879 C 713.277 1.40071 4.08661 0
M  V30 7880 C 712.412 0.836897 5.24566 0
M  V30 7881 C 711.451 1.91504 5.81371 0
M  V30 7882 N 710.588 1.36875 6.88629 0
M  V30 7883 H 715.428 1.73683 2.42153 0
M  V30 7884 H 712.965 0.866879 1.18843 0
M  V30 7885 H 714.923 -0.0199943 4.17195 0
M  V30 7886 H 713.553 -0.577248 3.17597 0
M  V30 7887 H 712.605 1.83776 3.33062 0
M  V30 7888 H 713.917 2.21534 4.46905 0
M  V30 7889 H 713.071 0.467953 6.04893 0
M  V30 7890 H 711.81 -0.00874207 4.87699 0
M  V30 7891 H 710.815 2.29299 4.99702 0
M  V30 7892 H 712.04 2.76419 6.20298 0
M  V30 7893 H 709.986 0.545211 6.5373 0
M  V30 7894 H 709.903 2.1198 7.25672 0
M  V30 7895 H 711.171 1.02756 7.72698 0
M  V30 7896 N 715.4 -1.26948 0.933913 0
M  V30 7897 C 716.347 -2.26635 0.436484 0
M  V30 7898 C 717.317 -1.58397 -0.499953 0
M  V30 7899 O 718.502 -1.86171 -0.417753 0
M  V30 7900 C 715.642 -3.43803 -0.298951 0
M  V30 7901 C 714.755 -4.26736 0.672316 0
M  V30 7902 C 713.89 -5.31134 -0.0835872 0
M  V30 7903 C 712.929 -6.05742 0.879979 0
M  V30 7904 N 712.066 -7.01926 0.156301 0
M  V30 7905 H 716.906 -2.68558 1.29154 0
M  V30 7906 H 714.443 -1.32052 0.648118 0
M  V30 7907 H 716.401 -4.10554 -0.741723 0
M  V30 7908 H 715.031 -3.02814 -1.1182 0
M  V30 7909 H 714.083 -3.59842 1.23361 0
M  V30 7910 H 715.395 -4.78502 1.40846 0
M  V30 7911 H 714.549 -6.03863 -0.585984 0
M  V30 7912 H 713.288 -4.80188 -0.852661 0
M  V30 7913 H 712.293 -5.31846 1.39357 0
M  V30 7914 H 713.518 -6.58777 1.64894 0
M  V30 7915 H 711.464 -6.53301 -0.594413 0
M  V30 7916 H 711.381 -7.51409 0.831906 0
M  V30 7917 H 712.649 -7.78821 -0.325239 0
M  V30 7918 N 716.879 -0.700114 -1.41195 0
M  V30 7919 C 717.809 -0.0521132 -2.33442 0
M  V30 7920 C 718.79 0.76228 -1.52063 0
M  V30 7921 O 719.975 0.714336 -1.80585 0
M  V30 7922 C 717.105 0.881693 -3.35922 0
M  V30 7923 C 716.059 0.174062 -4.27646 0
M  V30 7924 C 715.385 1.22254 -5.20536 0
M  V30 7925 C 716.685 -0.962396 -5.13357 0
M  V30 7926 H 718.379 -0.822574 -2.87879 0
M  V30 7927 H 715.925 -0.397011 -1.38419 0
M  V30 7928 H 717.878 1.34429 -3.99383 0
M  V30 7929 H 716.602 1.68387 -2.79845 0
M  V30 7930 H 715.261 -0.268551 -3.65615 0
M  V30 7931 H 714.909 2.01736 -4.60773 0
M  V30 7932 H 714.609 0.754038 -5.82742 0
M  V30 7933 H 716.133 1.68555 -5.86874 0
M  V30 7934 H 717.547 -0.579875 -5.7036 0
M  V30 7935 H 715.944 -1.35828 -5.84526 0
M  V30 7936 H 717.014 -1.80003 -4.50252 0
M  V30 7937 N 718.357 1.51182 -0.445186 0
M  V30 7938 C 719.605 2.01753 0.11841 0
M  V30 7939 C 719.926 1.33087 1.42523 0
M  V30 7940 O 719.196 0.467891 1.9023 0
M  V30 7941 H 717.776 0.745536 0.0467492 0
M  V30 7942 H 720.438 1.85765 -0.589688 0
M  V30 7943 H 719.534 3.10762 0.288665 0
M  V30 7944 N 719.835 0.176821 1.56605 0
M  V30 7945 C 721.081 -0.467406 1.9734 0
M  V30 7946 C 721.414 -1.62523 1.06301 0
M  V30 7947 O 720.689 -1.94182 0.11125 0
M  V30 7948 C 720.972 -0.945106 3.47476 0
M  V30 7949 C 720.825 0.213273 4.49294 0
M  V30 7950 C 722.144 -1.8169 4.00845 0
M  V30 7951 H 719.263 -0.168426 0.717497 0
M  V30 7952 H 721.905 0.264065 1.88156 0
M  V30 7953 H 720.055 -1.56841 3.55434 0
M  V30 7954 H 721.727 0.850508 4.53392 0
M  V30 7955 H 719.97 0.867918 4.25029 0
M  V30 7956 H 720.641 -0.163187 5.51759 0
M  V30 7957 H 723.117 -1.29139 3.95553 0
M  V30 7958 H 721.993 -2.12015 5.06301 0
M  V30 7959 H 722.254 -2.76463 3.44994 0
M  V30 7960 N 721.313 -1.57302 -0.09688 0
M  V30 7961 C 722.561 -1.8563 -0.799117 0
M  V30 7962 C 722.882 -0.765263 -1.79356 0
M  V30 7963 O 722.152 0.208657 -1.94786 0
M  V30 7964 H 720.732 -0.684937 -0.298111 0
M  V30 7965 H 723.394 -1.9474 -0.0789341 0
M  V30 7966 H 722.49 -2.82305 -1.3308 0
M  V30 7967 N 722.791 0.367657 -1.53252 0
M  V30 7968 C 723.701 1.47415 -1.82499 0
M  V30 7969 C 724.717 1.58711 -0.713222 0
M  V30 7970 O 725.893 1.74644 -1.00306 0
M  V30 7971 C 722.958 2.82706 -2.00694 0
M  V30 7972 C 722.019 2.80955 -3.24596 0
M  V30 7973 C 721.252 4.09793 -3.41914 0
M  V30 7974 O 721.475 5.05852 -2.63572 0
M  V30 7975 O 720.409 4.15731 -4.3526 0
M  V30 7976 H 724.235 1.25624 -2.765 0
M  V30 7977 H 721.82 0.557559 -1.38606 0
M  V30 7978 H 723.702 3.62873 -2.14246 0
M  V30 7979 H 722.377 3.04479 -1.09883 0
M  V30 7980 H 721.284 1.99494 -3.16469 0
M  V30 7981 H 722.617 2.64136 -4.15323 0
M  V30 7982 N 724.269 1.44576 0.627338 0
M  V30 7983 C 725.546 1.38033 1.38586 0
M  V30 7984 C 725.926 0.0409468 2.1106 0
M  V30 7985 O 725.274 -0.976582 2.0658 0
M  V30 7986 C 725.484 2.58102 2.34913 0
M  V30 7987 C 726.832 3.02332 2.98129 0
M  V30 7988 O 727.856 2.58334 2.45238 0
M  V30 7989 O 726.715 3.78628 3.94085 0
M  V30 7990 H 723.809 0.546801 0.620434 0
M  V30 7991 H 726.355 1.56672 0.652077 0
M  V30 7992 H 725.127 3.4719 1.80485 0
M  V30 7993 H 724.75 2.41696 3.15703 0
M  V30 7994 N 725.747 -0.868086 1.31537 0
M  V30 7995 C 726.996 -1.61607 1.20689 0
M  V30 7996 C 727.309 -1.94204 -0.233275 0
M  V30 7997 O 728.515 -2.67515 -0.463465 0
M  V30 7998 C 726.971 -2.91348 2.11292 0
M  V30 7999 C 726.579 -2.66227 3.60315 0
M  V30 8000 C 728.323 -3.69344 2.09249 0
M  V30 8001 C 726.23 -3.91887 4.42921 0
M  V30 8002 H 725.16 -0.606373 0.448138 0
M  V30 8003 H 727.811 -0.959666 1.56405 0
M  V30 8004 H 726.193 -3.58374 1.68477 0
M  V30 8005 H 727.367 -2.07597 4.11388 0
M  V30 8006 H 725.682 -2.01582 3.64354 0
M  V30 8007 H 728.279 -4.62567 2.68209 0
M  V30 8008 H 728.622 -4.02044 1.0801 0
M  V30 8009 H 729.155 -3.09205 2.50274 0
M  V30 8010 H 725.894 -3.64336 5.44922 0
M  V30 8011 H 725.414 -4.49961 3.96605 0
M  V30 8012 H 727.093 -4.59754 4.55231 0
M  V30 8013 N 727.225 -1.14528 -1.08264 0
M  V30 8014 C 728.636 -0.925261 -1.6216 0
M  V30 8015 C 728.987 0.535587 -1.88748 0
M  V30 8016 O 728.112 1.4048 -1.64604 0
M  V30 8017 C 728.707 -1.67316 -2.94603 0
M  V30 8018 C 727.266 -1.49868 -3.45278 0
M  V30 8019 C 726.413 -1.69471 -2.19487 0
M  V30 8020 H 729.364 -1.29687 -0.914707 0
M  V30 8021 H 729.385 -1.13721 -3.63109 0
M  V30 8022 H 728.897 -2.73635 -2.75219 0
M  V30 8023 H 726.998 -0.459032 -3.69762 0
M  V30 8024 H 727.111 -2.2696 -4.21931 0
M  V30 8025 H 725.475 -1.12048 -2.2873 0
M  V30 8026 H 726.258 -2.77136 -2.0261 0
M  V30 8027 N 728.703 1.26451 -0.940633 0
M  V30 8028 C 729.928 1.98407 -0.60412 0
M  V30 8029 C 730.353 1.69584 0.81382 0
M  V30 8030 O 729.711 0.943553 1.54812 0
M  V30 8031 C 729.759 3.50387 -0.852136 0
M  V30 8032 O 728.863 4.1233 0.076013 0
M  V30 8033 H 728.204 0.622466 -0.231153 0
M  V30 8034 H 730.734 1.60932 -1.26342 0
M  V30 8035 H 730.744 4.00614 -0.772816 0
M  V30 8036 H 729.419 3.70696 -1.88566 0
M  V30 8037 H 727.996 3.7286 -0.0543187 0
M  V30 8038 N 730.181 0.707592 1.40822 0
M  V30 8039 C 731.458 0.171172 1.9485 0
M  V30 8040 C 731.838 -1.32143 1.64625 0
M  V30 8041 O 731.186 -2.07372 0.959647 0
M  V30 8042 C 731.396 0.475334 3.45748 0
M  V30 8043 C 732.744 0.409625 4.22619 0
M  V30 8044 O 733.768 0.410934 3.53822 0
M  V30 8045 O 732.627 0.380185 5.45176 0
M  V30 8046 H 729.721 0.022015 0.826707 0
M  V30 8047 H 732.267 0.784577 1.50474 0
M  V30 8048 H 731.039 1.50801 3.61075 0
M  V30 8049 H 730.662 -0.168439 3.97243 0
M  V30 8050 N 731.66 -1.50943 0.453197 0
M  V30 8051 C 732.89 -2.06328 -0.105981 0
M  V30 8052 C 733.298 -1.31909 -1.35634 0
M  V30 8053 O 732.641 -0.376607 -1.79798 0
M  V30 8054 C 732.703 -3.5631 -0.477868 0
M  V30 8055 C 732.367 -4.52093 0.667925 0
M  V30 8056 C 733.364 -4.96421 1.54475 0
M  V30 8057 C 731.049 -4.95001 0.853168 0
M  V30 8058 C 733.043 -5.82346 2.59138 0
M  V30 8059 C 730.73 -5.80713 1.90305 0
M  V30 8060 C 731.728 -6.24284 2.77053 0
M  V30 8061 O 731.416 -7.08291 3.80236 0
M  V30 8062 H 731.148 -0.675986 -0.00427247 0
M  V30 8063 H 733.702 -1.95314 0.635738 0
M  V30 8064 H 731.932 -3.65163 -1.27252 0
M  V30 8065 H 733.621 -3.94138 -0.970039 0
M  V30 8066 H 734.387 -4.63953 1.41324 0
M  V30 8067 H 730.266 -4.60619 0.187482 0
M  V30 8068 H 733.81 -6.16276 3.2688 0
M  V30 8069 H 729.707 -6.12593 2.03469 0
M  V30 8070 H 730.475 -7.26504 3.77007 0
M  V30 8071 N 733.138 -0.185124 -1.56509 0
M  V30 8072 C 734.549 0.329221 -1.83774 0
M  V30 8073 C 734.9 1.62093 -1.10545 0
M  V30 8074 O 734.025 2.13334 -0.36298 0
M  V30 8075 C 734.62 0.604099 -3.33371 0
M  V30 8076 C 733.179 1.06284 -3.61083 0
M  V30 8077 C 732.326 0.10608 -2.77097 0
M  V30 8078 H 735.277 -0.409116 -1.53336 0
M  V30 8079 H 735.298 1.45458 -3.51599 0
M  V30 8080 H 734.81 -0.336201 -3.86641 0
M  V30 8081 H 732.911 2.01777 -3.13236 0
M  V30 8082 H 733.024 0.962453 -4.69333 0
M  V30 8083 H 731.388 0.606082 -2.47384 0
M  V30 8084 H 732.171 -0.828486 -3.33153 0
M  V30 8085 N 734.616 1.57351 0.0885366 0
M  V30 8086 C 735.863 1.86419 0.790824 0
M  V30 8087 C 736.191 0.774561 1.78412 0
M  V30 8088 O 735.446 -0.23119 1.9433 0
M  V30 8089 C 735.745 3.22098 1.5488 0
M  V30 8090 C 735.411 4.4548 0.697025 0
M  V30 8091 C 734.073 4.78975 0.462237 0
M  V30 8092 C 736.425 5.21094 0.105315 0
M  V30 8093 C 733.753 5.85507 -0.374016 0
M  V30 8094 C 736.105 6.28509 -0.718298 0
M  V30 8095 C 734.769 6.60515 -0.963116 0
M  V30 8096 H 734.039 0.682157 0.289383 0
M  V30 8097 H 736.686 1.91429 0.0520961 0
M  V30 8098 H 734.991 3.12803 2.35927 0
M  V30 8099 H 736.688 3.41819 2.09669 0
M  V30 8100 H 733.278 4.19255 0.890137 0
M  V30 8101 H 737.462 4.95544 0.273856 0
M  V30 8102 H 732.718 6.08713 -0.572606 0
M  V30 8103 H 736.892 6.86268 -1.18362 0
M  V30 8104 H 734.519 7.42893 -1.6129 0
M  V30 8105 N 736.094 -0.359525 1.53444 0
M  V30 8106 C 737.324 -1.12036 1.73585 0
M  V30 8107 C 737.732 -1.83335 0.467438 0
M  V30 8108 O 737.075 -1.74641 -0.569753 0
M  V30 8109 C 737.137 -2.19036 2.85068 0
M  V30 8110 C 736.801 -1.67451 4.25217 0
M  V30 8111 C 737.798 -1.13534 5.07352 0
M  V30 8112 C 735.483 -1.72781 4.71648 0
M  V30 8113 C 737.477 -0.656321 6.34012 0
M  V30 8114 C 735.164 -1.2449 5.98285 0
M  V30 8115 C 736.162 -0.710068 6.79299 0
M  V30 8116 O 735.85 -0.234314 8.03558 0
M  V30 8117 H 735.582 -0.340662 0.583888 0
M  V30 8118 H 738.136 -0.422452 2.01009 0
M  V30 8119 H 736.366 -2.92338 2.53131 0
M  V30 8120 H 738.055 -2.80559 2.93328 0
M  V30 8121 H 738.821 -1.08751 4.7265 0
M  V30 8122 H 734.7 -2.13351 4.08659 0
M  V30 8123 H 738.244 -0.238193 6.97193 0
M  V30 8124 H 734.141 -1.28969 6.32485 0
M  V30 8125 H 734.909 -0.353084 8.17738 0
M  V30 8126 N 737.572 -1.44907 -0.619662 0
M  V30 8127 C 738.52 -1.52971 -1.75222 0
M  V30 8128 C 739.514 -0.400531 -1.64597 0
M  V30 8129 O 740.72 -0.575952 -1.70537 0
M  V30 8130 H 737.095 -0.480241 -0.578682 0
M  V30 8131 H 739.066 -2.48269 -1.65545 0
M  V30 8132 C 737.815 -1.50204 -3.13583 0
M  V30 8133 H 737.138 -2.36412 -3.22412 0
M  V30 8134 H 738.578 -1.59905 -3.92691 0
M  V30 8135 C 737.037 -0.22455 -3.36151 0
M  V30 8136 O 737.567 0.700574 -3.95544 0
M  V30 8137 N 735.773 -0.124052 -2.90335 0
M  V30 8138 H 735.32 -0.87774 -2.42185 0
M  V30 8139 H 735.278 0.729914 -3.0581 0
M  V30 8140 N 739.05 0.861098 -1.31996 0
M  V30 8141 C 740.013 1.95068 -1.20338 0
M  V30 8142 C 741.013 1.60289 -0.128114 0
M  V30 8143 O 742.203 1.70048 -0.378044 0
M  V30 8144 C 739.335 3.30153 -0.849205 0
M  V30 8145 H 740.528 2.06833 -2.17164 0
M  V30 8146 H 738.081 1.05049 -1.15734 0
M  V30 8147 H 738.816 3.24087 0.117508 0
M  V30 8148 H 738.601 3.56771 -1.62655 0
M  V30 8149 H 740.091 4.10025 -0.791782 0
M  V30 8150 N 740.528 1.15101 1.07655 0
M  V30 8151 C 741.46 0.802722 2.14684 0
M  V30 8152 C 742.473 -0.183874 1.61758 0
M  V30 8153 O 743.662 0.0389349 1.78458 0
M  V30 8154 C 740.762 0.172135 3.38463 0
M  V30 8155 C 739.935 1.19538 4.20749 0
M  V30 8156 C 738.994 0.58714 5.22914 0
M  V30 8157 O 738.02 1.25224 5.55255 0
M  V30 8158 N 739.222 -0.632566 5.77043 0
M  V30 8159 H 741.987 1.72379 2.45164 0
M  V30 8160 H 739.548 1.04647 1.23534 0
M  V30 8161 H 741.54 -0.247465 4.03943 0
M  V30 8162 H 740.11 -0.652214 3.0572 0
M  V30 8163 H 739.33 1.79165 3.51132 0
M  V30 8164 H 740.618 1.88636 4.7254 0
M  V30 8165 H 740.016 -1.19135 5.53013 0
M  V30 8166 H 738.573 -0.994566 6.44167 0
M  V30 8167 N 742.006 -1.2595 0.947325 0
M  V30 8168 C 743.255 -1.92759 0.593887 0
M  V30 8169 C 743.568 -1.75083 -0.872093 0
M  V30 8170 O 744.774 -2.36401 -1.33518 0
M  V30 8171 C 743.23 -3.45395 1.01144 0
M  V30 8172 C 742.838 -3.71795 2.49946 0
M  V30 8173 C 744.582 -4.18173 0.730185 0
M  V30 8174 C 742.489 -5.17901 2.85539 0
M  V30 8175 H 741.419 -0.721676 0.218403 0
M  V30 8176 H 744.07 -1.4293 1.15079 0
M  V30 8177 H 742.452 -3.94143 0.383007 0
M  V30 8178 H 743.626 -3.33728 3.17746 0
M  V30 8179 H 741.941 -3.12263 2.75465 0
M  V30 8180 H 744.538 -5.25784 0.972367 0
M  V30 8181 H 744.881 -4.14964 -0.333223 0
M  V30 8182 H 745.414 -3.75309 1.31862 0
M  V30 8183 H 742.153 -5.26216 3.90867 0
M  V30 8184 H 741.673 -5.57042 2.22406 0
M  V30 8185 H 743.352 -5.8596 2.74336 0
M  V30 8186 N 743.484 -0.715051 -1.40445 0
M  V30 8187 C 744.709 -0.26254 -2.05732 0
M  V30 8188 C 745.134 1.08691 -1.53519 0
M  V30 8189 O 744.492 1.68453 -0.670328 0
M  V30 8190 C 744.54 -0.25195 -3.59719 0
M  V30 8191 O 743.644 0.766998 -4.05205 0
M  V30 8192 H 742.985 -0.123398 -0.652433 0
M  V30 8193 H 745.515 -0.975382 -1.79854 0
M  V30 8194 H 745.525 -0.0894537 -4.07902 0
M  V30 8195 H 744.2 -1.23672 -3.97087 0
M  V30 8196 H 742.777 0.572269 -3.68483 0
M  V30 8197 N 744.962 1.50701 -0.461195 0
M  V30 8198 C 745.91 2.29918 0.352231 0
M  V30 8199 C 746.904 1.36778 0.999403 0
M  V30 8200 O 748.11 1.54015 0.931639 0
M  V30 8201 H 744.485 0.740249 0.132423 0
M  V30 8202 H 746.456 2.96497 -0.336424 0
M  V30 8203 C 745.205 3.17052 1.42736 0
M  V30 8204 H 744.528 3.88623 0.938747 0
M  V30 8205 H 745.968 3.75493 1.96928 0
M  V30 8206 C 744.427 2.3399 2.42384 0
M  V30 8207 O 744.957 2.01608 3.47444 0
M  V30 8208 N 743.163 1.96758 2.13857 0
M  V30 8209 H 742.71 2.23292 1.28447 0
M  V30 8210 H 742.668 1.41484 2.80766 0
M  V30 8211 N 746.441 0.193421 1.56409 0
M  V30 8212 C 747.388 -0.728124 2.19014 0
M  V30 8213 C 748.358 -1.21098 1.13686 0
M  V30 8214 O 749.543 -1.27517 1.4193 0
M  V30 8215 C 746.683 -1.94277 2.8522 0
M  V30 8216 C 745.796 -1.50143 4.05069 0
M  V30 8217 C 744.931 -2.67145 4.59137 0
M  V30 8218 C 743.97 -2.19609 5.71348 0
M  V30 8219 N 743.107 -3.29782 6.19829 0
M  V30 8220 H 747.947 -0.187499 2.9741 0
M  V30 8221 H 745.484 -0.0808064 1.46878 0
M  V30 8222 H 747.442 -2.65551 3.21774 0
M  V30 8223 H 746.072 -2.45673 2.09391 0
M  V30 8224 H 745.124 -0.684624 3.74189 0
M  V30 8225 H 746.436 -1.11266 4.86232 0
M  V30 8226 H 745.59 -3.46544 4.97988 0
M  V30 8227 H 744.329 -3.09295 3.77078 0
M  V30 8228 H 743.334 -1.38664 5.32027 0
M  V30 8229 H 744.559 -1.78492 6.55223 0
M  V30 8230 H 742.505 -3.71466 5.40693 0
M  V30 8231 H 742.422 -2.95069 6.96039 0
M  V30 8232 H 743.69 -4.094 6.63334 0
M  V30 8233 N 747.919 -1.57396 -0.0801906 0
M  V30 8234 C 748.867 -2.04136 -1.11495 0
M  V30 8235 C 749.861 -0.945137 -1.40583 0
M  V30 8236 O 751.067 -1.13028 -1.40088 0
M  V30 8237 H 747.442 -0.65076 -0.37685 0
M  V30 8238 H 749.413 -2.90205 -0.694526 0
M  V30 8239 C 748.162 -2.49399 -2.42272 0
M  V30 8240 H 747.485 -3.33339 -2.20737 0
M  V30 8241 H 748.925 -2.85864 -3.13142 0
M  V30 8242 C 747.384 -1.37341 -3.07635 0
M  V30 8243 O 747.914 -0.710829 -3.95361 0
M  V30 8244 N 746.12 -1.12064 -2.68123 0
M  V30 8245 H 745.667 -1.66126 -1.96875 0
M  V30 8246 H 745.625 -0.372916 -3.12181 0
M  V30 8247 N 749.397 0.351382 -1.53633 0
M  V30 8248 C 750.327 1.43688 -1.84055 0
M  V30 8249 C 751.308 1.55251 -0.695073 0
M  V30 8250 O 752.493 1.69587 -0.946257 0
M  V30 8251 C 749.623 2.80843 -2.04315 0
M  V30 8252 C 748.577 2.84094 -3.20117 0
M  V30 8253 C 747.903 4.2406 -3.25696 0
M  V30 8254 C 749.203 2.50334 -4.58399 0
M  V30 8255 H 750.897 1.18478 -2.74961 0
M  V30 8256 H 748.443 0.568509 -1.32303 0
M  V30 8257 H 750.396 3.56821 -2.2418 0
M  V30 8258 H 749.12 3.07471 -1.10132 0
M  V30 8259 H 747.779 2.10568 -3.00094 0
M  V30 8260 H 747.427 4.47785 -2.29123 0
M  V30 8261 H 747.127 4.27147 -4.03509 0
M  V30 8262 H 748.651 5.0189 -3.47762 0
M  V30 8263 H 750.065 3.16025 -4.78332 0
M  V30 8264 H 748.462 2.64717 -5.38558 0
M  V30 8265 H 749.532 1.45542 -4.62543 0
M  V30 8266 N 750.875 1.45233 0.611969 0
M  V30 8267 C 752.152 1.39495 1.37115 0
M  V30 8268 C 752.532 0.0633303 2.11005 0
M  V30 8269 O 751.88 -0.954617 2.07604 0
M  V30 8270 C 752.09 2.60579 2.32163 0
M  V30 8271 C 753.438 3.05477 2.94905 0
M  V30 8272 O 754.462 2.60921 2.42485 0
M  V30 8273 O 753.321 3.82787 3.90047 0
M  V30 8274 H 750.415 0.55335 0.614599 0
M  V30 8275 H 752.961 1.57355 0.635423 0
M  V30 8276 H 751.733 3.49085 1.76793 0
M  V30 8277 H 751.356 2.45031 3.13122 0
M  V30 8278 N 752.353 -0.854086 1.3245 0
M  V30 8279 C 753.301 -1.98411 1.21391 0
M  V30 8280 C 754.295 -1.68984 0.118586 0
M  V30 8281 O 755.501 -1.77784 0.281549 0
M  V30 8282 H 751.876 -0.651077 0.376301 0
M  V30 8283 H 753.847 -2.04867 2.16961 0
M  V30 8284 C 752.596 -3.34345 0.954407 0
M  V30 8285 H 751.919 -3.57518 1.78944 0
M  V30 8286 H 753.359 -4.13959 0.917269 0
M  V30 8287 C 751.818 -3.35151 -0.342838 0
M  V30 8288 O 752.348 -3.78174 -1.35452 0
M  V30 8289 N 750.554 -2.88298 -0.365012 0
M  V30 8290 H 750.101 -2.53481 0.4588 0
M  V30 8291 H 750.059 -2.8922 -1.23284 0
M  V30 8292 N 753.831 -1.1567 -1.07043 0
M  V30 8293 C 754.741 -0.870435 -2.17855 0
M  V30 8294 C 755.757 0.154452 -1.73313 0
M  V30 8295 O 756.933 -0.0203759 -2.0139 0
M  V30 8296 C 753.998 -0.367219 -3.4475 0
M  V30 8297 C 753.059 -1.45639 -4.03841 0
M  V30 8298 C 752.292 -0.977092 -5.2468 0
M  V30 8299 O 752.515 0.176127 -5.70128 0
M  V30 8300 O 751.449 -1.76215 -5.75527 0
M  V30 8301 H 755.275 -1.79687 -2.44839 0
M  V30 8302 H 752.86 -0.936064 -1.1644 0
M  V30 8303 H 754.742 -0.0931947 -4.21297 0
M  V30 8304 H 753.417 0.53131 -3.1931 0
M  V30 8305 H 752.324 -1.78406 -3.28819 0
M  V30 8306 H 753.657 -2.32995 -4.3356 0
M  V30 8307 N 755.309 1.25446 -0.953992 0
M  V30 8308 C 756.558 1.92441 -0.604101 0
M  V30 8309 C 756.871 1.75543 0.862796 0
M  V30 8310 O 758.077 2.37106 1.32262 0
M  V30 8311 C 756.533 3.44854 -1.02974 0
M  V30 8312 C 756.141 3.70464 -2.51914 0
M  V30 8313 C 757.885 4.1778 -0.752352 0
M  V30 8314 C 755.792 5.1638 -2.88281 0
M  V30 8315 H 754.722 0.720508 -0.222227 0
M  V30 8316 H 757.373 1.42318 -1.15836 0
M  V30 8317 H 755.755 3.93935 -0.403904 0
M  V30 8318 H 756.929 3.32038 -3.19511 0
M  V30 8319 H 755.244 3.10797 -2.77117 0
M  V30 8320 H 757.841 5.25261 -1.00024 0
M  V30 8321 H 758.184 4.15135 0.311212 0
M  V30 8322 H 758.717 3.74605 -1.33851 0
M  V30 8323 H 755.456 5.24135 -3.93653 0
M  V30 8324 H 754.976 5.55855 -2.25357 0
M  V30 8325 H 756.655 5.84497 -2.77439 0
M  V30 8326 N 756.787 0.722489 1.40064 0
M  V30 8327 C 757.717 0.0892452 2.33329 0
M  V30 8328 C 758.698 -0.737992 1.53257 0
M  V30 8329 O 759.883 -0.685516 1.81698 0
M  V30 8330 C 757.013 -0.828139 3.37282 0
M  V30 8331 C 755.967 -0.106005 4.27869 0
M  V30 8332 C 755.293 -1.13957 5.22415 0
M  V30 8333 C 756.593 1.04395 5.11761 0
M  V30 8334 H 758.287 0.868269 2.86534 0
M  V30 8335 H 755.833 0.418982 1.3777 0
M  V30 8336 H 757.786 -1.28058 4.01471 0
M  V30 8337 H 756.51 -1.63914 2.82489 0
M  V30 8338 H 755.169 0.326683 3.65142 0
M  V30 8339 H 754.817 -1.9438 4.63924 0
M  V30 8340 H 754.517 -0.661233 5.83868 0
M  V30 8341 H 756.041 -1.59197 5.89482 0
M  V30 8342 H 757.455 0.670541 5.69365 0
M  V30 8343 H 755.852 1.4511 5.82291 0
M  V30 8344 H 756.922 1.87144 4.47331 0
M  V30 8345 N 758.265 -1.50454 0.469181 0
M  V30 8346 C 759.195 -2.31353 -0.31592 0
M  V30 8347 C 760.176 -1.38172 -0.992094 0
M  V30 8348 O 761.361 -1.67093 -0.989633 0
M  V30 8349 C 758.491 -3.1786 -1.39937 0
M  V30 8350 C 757.445 -4.19578 -0.844909 0
M  V30 8351 C 756.771 -4.9481 -2.0265 0
M  V30 8352 C 758.071 -5.22106 0.142499 0
M  V30 8353 H 759.765 -2.97237 0.359269 0
M  V30 8354 H 757.311 -1.42942 0.174224 0
M  V30 8355 H 759.264 -3.7325 -1.95607 0
M  V30 8356 H 757.988 -2.49858 -2.1033 0
M  V30 8357 H 756.647 -3.65285 -0.310189 0
M  V30 8358 H 756.295 -4.23282 -2.71737 0
M  V30 8359 H 755.995 -5.63613 -1.66174 0
M  V30 8360 H 757.519 -5.53035 -2.58815 0
M  V30 8361 H 758.933 -5.72378 -0.324966 0
M  V30 8362 H 757.33 -5.98618 0.421441 0
M  V30 8363 H 758.4 -4.7297 1.06901 0
M  V30 8364 N 759.743 -0.201713 -1.56304 0
M  V30 8365 C 760.706 0.702811 -2.18159 0
M  V30 8366 C 761.706 1.13619 -1.13787 0
M  V30 8367 O 762.896 1.0482 -1.39134 0
M  V30 8368 C 760.028 1.96032 -2.78898 0
M  V30 8369 H 761.221 0.163836 -2.99452 0
M  V30 8370 H 758.774 0.04791 -1.56227 0
M  V30 8371 H 759.509 2.54165 -2.01421 0
M  V30 8372 H 759.294 1.65824 -3.55309 0
M  V30 8373 H 760.784 2.60519 -3.26373 0
M  V30 8374 N 761.222 1.57436 0.0718424 0
M  V30 8375 C 762.499 1.78312 0.804006 0
M  V30 8376 C 762.879 0.789273 1.9579 0
M  V30 8377 O 762.227 -0.177605 2.27809 0
M  V30 8378 C 762.437 3.24798 1.277 0
M  V30 8379 C 763.785 3.88627 1.71039 0
M  V30 8380 O 764.809 3.28689 1.37266 0
M  V30 8381 O 763.668 4.94073 2.33567 0
M  V30 8382 H 760.762 0.73178 0.385262 0
M  V30 8383 H 763.308 1.69621 0.0519219 0
M  V30 8384 H 762.08 3.88688 0.45134 0
M  V30 8385 H 761.703 3.38213 2.0904 0
M  V30 8386 N 762.7 -0.34323 1.53817 0
M  V30 8387 C 763.925 -1.1079 1.75329 0
M  V30 8388 C 764.35 -1.81571 0.491293 0
M  V30 8389 O 763.708 -1.72561 -0.556089 0
M  V30 8390 C 763.756 -2.09681 2.9337 0
M  V30 8391 O 762.86 -3.17207 2.63541 0
M  V30 8392 H 762.201 -0.320402 0.581583 0
M  V30 8393 H 764.731 -0.393525 2.0078 0
M  V30 8394 H 764.741 -2.52897 3.20168 0
M  V30 8395 H 763.416 -1.5756 3.84899 0
M  V30 8396 H 761.993 -2.78806 2.47632 0
M  V30 8397 N 764.178 -1.45556 -0.604258 0
M  V30 8398 C 765.426 -1.4945 -1.36048 0
M  V30 8399 C 765.747 -0.138933 -1.94504 0
M  V30 8400 O 765.017 0.832097 -1.7735 0
M  V30 8401 H 763.597 -0.550381 -0.505064 0
M  V30 8402 H 766.259 -1.81535 -0.709308 0
M  V30 8403 H 765.355 -2.23519 -2.17821 0
M  V30 8404 N 765.656 0.84705 -1.32902 0
M  V30 8405 C 766.886 1.63166 -1.26729 0
M  V30 8406 C 767.294 1.88474 0.165595 0
M  V30 8407 O 766.637 1.45947 1.11558 0
M  V30 8408 C 766.699 3.0103 -1.96522 0
M  V30 8409 C 766.363 2.9873 -3.45846 0
M  V30 8410 C 767.36 2.75032 -4.41196 0
M  V30 8411 C 765.045 3.19125 -3.87898 0
M  V30 8412 C 767.039 2.71743 -5.76571 0
M  V30 8413 C 764.726 3.15462 -5.2338 0
M  V30 8414 C 765.724 2.91801 -6.17528 0
M  V30 8415 O 765.412 2.88027 -7.5053 0
M  V30 8416 H 765.144 0.51469 -0.438258 0
M  V30 8417 H 767.698 1.06383 -1.75704 0
M  V30 8418 H 765.928 3.59634 -1.42128 0
M  V30 8419 H 767.617 3.61821 -1.83958 0
M  V30 8420 H 768.383 2.59034 -4.10032 0
M  V30 8421 H 764.262 3.36565 -3.15032 0
M  V30 8422 H 767.806 2.53194 -6.5003 0
M  V30 8423 H 763.703 3.31006 -5.54171 0
M  V30 8424 H 764.471 3.03927 -7.59981 0
M  V30 8425 N 767.134 1.16236 1.06428 0
M  V30 8426 C 768.382 0.941171 1.78847 0
M  V30 8427 C 768.703 -0.53248 1.87589 0
M  V30 8428 O 767.973 -1.38686 1.38358 0
M  V30 8429 H 766.553 0.345228 0.66244 0
M  V30 8430 H 769.215 1.46479 1.28569 0
M  V30 8431 H 768.311 1.35871 2.80972 0
M  V30 8432 N 768.612 -1.24939 0.960631 0
M  V30 8433 C 769.544 -2.24879 0.442937 0
M  V30 8434 C 770.557 -1.56615 -0.444464 0
M  V30 8435 O 771.746 -1.76715 -0.251776 0
M  V30 8436 C 768.846 -3.36757 -0.380537 0
M  V30 8437 C 768.019 -4.34587 0.495283 0
M  V30 8438 C 767.078 -5.25502 -0.270995 0
M  V30 8439 O 766.104 -5.68227 0.332661 0
M  V30 8440 N 767.306 -5.59077 -1.56249 0
M  V30 8441 H 770.071 -2.69932 1.30218 0
M  V30 8442 H 767.632 -1.38907 0.83166 0
M  V30 8443 H 769.624 -3.94542 -0.90103 0
M  V30 8444 H 768.194 -2.91045 -1.14067 0
M  V30 8445 H 767.414 -3.75593 1.19682 0
M  V30 8446 H 768.702 -4.96925 1.09285 0
M  V30 8447 H 768.1 -5.2628 -2.07476 0
M  V30 8448 H 766.657 -6.19421 -2.02882 0
M  V30 8449 N 770.09 -0.729906 -1.39679 0
M  V30 8450 C 771.338 -0.275077 -2.00219 0
M  V30 8451 C 771.659 1.1401 -1.58199 0
M  V30 8452 O 770.929 1.77546 -0.827904 0
M  V30 8453 H 769.509 -0.0987127 -0.740449 0
M  V30 8454 H 772.171 -0.93873 -1.70804 0
M  V30 8455 H 771.267 -0.319446 -3.10461 0
M  V30 8456 N 771.568 1.50203 -0.477153 0
M  V30 8457 C 772.478 2.32421 0.319027 0
M  V30 8458 C 773.494 1.43075 0.990233 0
M  V30 8459 O 774.67 1.76123 0.976873 0
M  V30 8460 C 771.735 3.17909 1.38328 0
M  V30 8461 C 770.796 4.23082 0.728036 0
M  V30 8462 C 770.029 5.04484 1.74158 0
M  V30 8463 O 770.252 4.8705 2.96881 0
M  V30 8464 O 769.186 5.8747 1.31006 0
M  V30 8465 H 773.012 3.01638 -0.353281 0
M  V30 8466 H 770.597 1.47478 -0.238891 0
M  V30 8467 H 772.479 3.70937 1.9996 0
M  V30 8468 H 771.154 2.51413 2.03895 0
M  V30 8469 H 770.061 3.7403 0.07261 0
M  V30 8470 H 771.394 4.92065 0.115216 0
M  V30 8471 N 773.046 0.209999 1.56195 0
M  V30 8472 C 774.295 -0.425106 1.97169 0
M  V30 8473 C 774.608 -1.61718 1.10031 0
M  V30 8474 O 775.814 -2.32105 1.40853 0
M  V30 8475 C 774.27 -0.80771 3.50719 0
M  V30 8476 C 773.878 0.360902 4.46544 0
M  V30 8477 C 775.622 -1.40906 4.00432 0
M  V30 8478 C 773.529 -0.0434919 5.91384 0
M  V30 8479 H 772.459 -0.162598 0.736259 0
M  V30 8480 H 775.11 0.304382 1.80958 0
M  V30 8481 H 773.492 -1.59429 3.62489 0
M  V30 8482 H 774.666 1.13846 4.46515 0
M  V30 8483 H 772.981 0.874729 4.07109 0
M  V30 8484 H 775.578 -1.72433 5.06133 0
M  V30 8485 H 775.921 -2.32081 3.45607 0
M  V30 8486 H 776.454 -0.686154 3.91838 0
M  V30 8487 H 773.193 0.834448 6.50167 0
M  V30 8488 H 772.713 -0.785598 5.94633 0
M  V30 8489 H 774.392 -0.474176 6.4526 0
M  V30 8490 N 774.524 -1.57472 -0.0634922 0
M  V30 8491 C 775.454 -2.07297 -1.07473 0
M  V30 8492 C 776.435 -0.968162 -1.39859 0
M  V30 8493 O 777.62 -1.24139 -1.49343 0
M  V30 8494 C 774.75 -2.52381 -2.38581 0
M  V30 8495 C 773.704 -3.66813 -2.20526 0
M  V30 8496 C 773.03 -3.97982 -3.57092 0
M  V30 8497 C 774.33 -4.96553 -1.61965 0
M  V30 8498 H 776.024 -2.92033 -0.660092 0
M  V30 8499 H 773.57 -1.40488 -0.316074 0
M  V30 8500 H 775.523 -2.85852 -3.09624 0
M  V30 8501 H 774.247 -1.64684 -2.8204 0
M  V30 8502 H 772.906 -3.33639 -1.51924 0
M  V30 8503 H 772.554 -3.07403 -3.98136 0
M  V30 8504 H 772.254 -4.7504 -3.45848 0
M  V30 8505 H 773.778 -4.33956 -4.29552 0
M  V30 8506 H 775.192 -5.28201 -2.22883 0
M  V30 8507 H 773.589 -5.7799 -1.61394 0
M  V30 8508 H 774.659 -4.81396 -0.581918 0
M  V30 8509 N 776.003 0.335068 -1.53997 0
M  V30 8510 C 777.252 1.07182 -1.70865 0
M  V30 8511 C 777.565 1.89541 -0.483078 0
M  V30 8512 O 778.771 2.66219 -0.532879 0
M  V30 8513 C 777.227 1.95497 -3.02174 0
M  V30 8514 C 776.835 1.18304 -4.32097 0
M  V30 8515 C 778.579 2.68978 -3.28407 0
M  V30 8516 C 776.486 2.05699 -5.54474 0
M  V30 8517 H 775.416 0.403857 -0.636722 0
M  V30 8518 H 778.067 0.33076 -1.80494 0
M  V30 8519 H 776.449 2.73456 -2.86423 0
M  V30 8520 H 777.623 0.451969 -4.58578 0
M  V30 8521 H 775.938 0.565556 -4.12541 0
M  V30 8522 H 778.535 3.34651 -4.17029 0
M  V30 8523 H 778.878 3.36 -2.45784 0
M  V30 8524 H 779.411 1.98087 -3.44973 0
M  V30 8525 H 776.15 1.43204 -6.39666 0
M  V30 8526 H 775.67 2.76572 -5.32229 0
M  V30 8527 H 777.349 2.64554 -5.90441 0
M  V30 8528 N 777.481 1.45874 0.596531 0
M  V30 8529 C 778.429 1.55739 1.72766 0
M  V30 8530 C 779.423 0.426666 1.63939 0
M  V30 8531 O 780.629 0.60301 1.69599 0
M  V30 8532 H 777.004 0.489386 0.570968 0
M  V30 8533 H 778.975 2.50871 1.61575 0
M  V30 8534 C 777.724 1.55174 3.11153 0
M  V30 8535 H 777.047 2.41511 3.1861 0
M  V30 8536 H 778.487 1.66133 3.90097 0
M  V30 8537 C 776.946 0.278001 3.35751 0
M  V30 8538 O 777.476 -0.637557 3.96608 0
M  V30 8539 N 775.682 0.170227 2.90101 0
M  V30 8540 H 775.229 0.916159 2.40758 0
M  V30 8541 H 775.187 -0.68117 3.06932 0
M  V30 8542 N 778.959 -0.83999 1.33349 0
M  V30 8543 C 780.37 -1.41139 1.22216 0
M  V30 8544 C 780.721 -1.95551 -0.159398 0
M  V30 8545 O 779.846 -1.88721 -1.05893 0
M  V30 8546 C 780.441 -2.56564 2.21269 0
M  V30 8547 C 779 -3.09661 2.13979 0
M  V30 8548 C 778.147 -1.82457 2.08818 0
M  V30 8549 H 781.098 -0.645853 1.44964 0
M  V30 8550 H 781.119 -3.34163 1.81976 0
M  V30 8551 H 780.631 -2.16932 3.21811 0
M  V30 8552 H 778.732 -3.53841 1.16736 0
M  V30 8553 H 778.845 -3.6991 3.04472 0
M  V30 8554 H 777.209 -2.0266 1.54276 0
M  V30 8555 H 777.992 -1.45022 3.11165 0
M  V30 8556 N 780.437 -1.16799 -1.0581 0
M  V30 8557 C 781.683 -0.953935 -1.78963 0
M  V30 8558 C 782.016 0.516638 -1.87202 0
M  V30 8559 O 781.291 1.38338 -1.36721 0
M  V30 8560 C 781.574 -1.58808 -3.23191 0
M  V30 8561 C 781.427 -3.13032 -3.23003 0
M  V30 8562 C 782.746 -1.2868 -4.20867 0
M  V30 8563 H 779.865 -0.347972 -0.64968 0
M  V30 8564 H 782.507 -1.44204 -1.23715 0
M  V30 8565 H 780.657 -1.17303 -3.70368 0
M  V30 8566 H 782.329 -3.63553 -2.83949 0
M  V30 8567 H 780.572 -3.46108 -2.61518 0
M  V30 8568 H 781.243 -3.52527 -4.24769 0
M  V30 8569 H 783.719 -1.6461 -3.82155 0
M  V30 8570 H 782.595 -1.75645 -5.20038 0
M  V30 8571 H 782.856 -0.206491 -4.41618 0
M  V30 8572 N 781.915 1.24427 -0.967243 0
M  V30 8573 C 782.847 2.24641 -0.454856 0
M  V30 8574 C 783.86 1.56849 0.436152 0
M  V30 8575 O 785.049 1.76846 0.242401 0
M  V30 8576 C 782.149 3.36954 0.362672 0
M  V30 8577 C 781.322 4.34318 -0.518324 0
M  V30 8578 C 780.381 5.25638 0.243122 0
M  V30 8579 O 779.407 5.68043 -0.362791 0
M  V30 8580 N 780.609 5.59897 1.53282 0
M  V30 8581 H 783.374 2.69238 -1.31648 0
M  V30 8582 H 780.935 1.38464 -0.839015 0
M  V30 8583 H 782.927 3.95014 0.880094 0
M  V30 8584 H 781.497 2.91646 1.12522 0
M  V30 8585 H 780.717 3.74953 -1.21672 0
M  V30 8586 H 782.005 4.96338 -1.11919 0
M  V30 8587 H 781.403 5.27373 2.04682 0
M  V30 8588 H 779.96 6.20488 1.99594 0
M  V30 8589 N 783.393 0.737304 1.3929 0
M  V30 8590 C 784.642 0.283129 1.99703 0
M  V30 8591 C 784.955 -1.13677 1.59176 0
M  V30 8592 O 786.161 -1.69058 2.12442 0
M  V30 8593 C 784.617 0.455262 3.57009 0
M  V30 8594 C 784.225 1.88319 4.06497 0
M  V30 8595 C 785.969 0.0629786 4.24453 0
M  V30 8596 C 783.876 2.00475 5.56385 0
M  V30 8597 H 782.806 0.102106 0.747054 0
M  V30 8598 H 785.457 0.911515 1.5926 0
M  V30 8599 H 783.839 -0.242057 3.9526 0
M  V30 8600 H 785.013 2.61265 3.79575 0
M  V30 8601 H 783.328 2.2289 3.51723 0
M  V30 8602 H 785.925 0.132787 5.34535 0
M  V30 8603 H 786.268 -0.982128 4.04549 0
M  V30 8604 H 786.801 0.71154 3.91385 0
M  V30 8605 H 783.54 3.03182 5.81172 0
M  V30 8606 H 783.06 1.31969 5.85102 0
M  V30 8607 H 784.739 1.787 6.21832 0
M  V30 8608 N 784.871 -1.49948 0.485112 0
M  V30 8609 C 785.801 -2.31675 -0.291364 0
M  V30 8610 C 786.782 -1.39216 -0.977383 0
M  V30 8611 O 787.967 -1.68133 -0.971855 0
M  V30 8612 C 785.097 -3.19326 -1.36558 0
M  V30 8613 C 784.051 -4.2045 -0.800359 0
M  V30 8614 C 783.377 -4.96931 -1.97391 0
M  V30 8615 C 784.677 -5.21925 0.197867 0
M  V30 8616 H 786.371 -2.96839 0.390775 0
M  V30 8617 H 783.917 -1.42749 0.189375 0
M  V30 8618 H 785.87 -3.75304 -1.91638 0
M  V30 8619 H 784.594 -2.52074 -2.07668 0
M  V30 8620 H 783.253 -3.65594 -0.271428 0
M  V30 8621 H 782.901 -4.26141 -2.67232 0
M  V30 8622 H 782.601 -5.65344 -1.60187 0
M  V30 8623 H 784.125 -5.55749 -2.52935 0
M  V30 8624 H 785.539 -5.72691 -0.264239 0
M  V30 8625 H 783.936 -5.98138 0.484908 0
M  V30 8626 H 785.006 -4.71809 1.11912 0
M  V30 8627 N 786.349 -0.21828 -1.56081 0
M  V30 8628 C 787.574 0.422302 -2.03055 0
M  V30 8629 C 787.999 1.5279 -1.09713 0
M  V30 8630 O 787.357 1.81102 -0.0847187 0
M  V30 8631 C 787.405 0.934177 -3.48289 0
M  V30 8632 O 786.509 2.04574 -3.58083 0
M  V30 8633 H 785.85 0.0959764 -0.657027 0
M  V30 8634 H 788.38 -0.335958 -2.01823 0
M  V30 8635 H 788.39 1.24484 -3.88546 0
M  V30 8636 H 787.065 0.124963 -4.15712 0
M  V30 8637 H 785.642 1.74196 -3.29712 0
M  V30 8638 N 787.827 1.57504 0.0551401 0
M  V30 8639 C 789.076 1.87237 0.750009 0
M  V30 8640 C 789.389 0.813268 1.77891 0
M  V30 8641 O 790.595 0.99898 2.52453 0
M  V30 8642 C 789.051 3.32187 1.38491 0
M  V30 8643 C 788.659 4.46267 0.393707 0
M  V30 8644 C 790.403 3.71101 2.06117 0
M  V30 8645 C 788.31 5.82265 1.03547 0
M  V30 8646 H 787.24 0.698524 0.283866 0
M  V30 8647 H 789.891 1.835 0.00365997 0
M  V30 8648 H 788.273 3.30588 2.18008 0
M  V30 8649 H 789.447 4.59289 -0.372865 0
M  V30 8650 H 787.762 4.16015 -0.17902 0
M  V30 8651 H 790.359 4.70012 2.54937 0
M  V30 8652 H 790.702 3.01751 2.86796 0
M  V30 8653 H 791.235 3.74762 1.33409 0
M  V30 8654 H 787.974 6.54949 0.268644 0
M  V30 8655 H 787.494 5.73012 1.7725 0
M  V30 8656 H 789.173 6.28148 1.55047 0
M  V30 8657 N 789.305 -0.326896 1.54172 0
M  V30 8658 C 790.535 -1.08328 1.75922 0
M  V30 8659 C 790.943 -1.82302 0.50622 0
M  V30 8660 O 790.286 -1.7581 -0.532581 0
M  V30 8661 C 790.348 -2.1294 2.8965 0
M  V30 8662 C 790.012 -1.58394 4.28673 0
M  V30 8663 C 791.009 -1.02747 5.09646 0
M  V30 8664 C 788.694 -1.62737 4.75207 0
M  V30 8665 C 790.688 -0.52169 6.35261 0
M  V30 8666 C 788.375 -1.11772 6.00791 0
M  V30 8667 C 789.373 -0.565819 6.80652 0
M  V30 8668 O 789.061 -0.0638146 8.03875 0
M  V30 8669 H 788.793 -0.3282 0.590983 0
M  V30 8670 H 791.347 -0.37972 2.0186 0
M  V30 8671 H 789.577 -2.86903 2.59275 0
M  V30 8672 H 791.266 -2.74274 2.99213 0
M  V30 8673 H 792.032 -0.987007 4.74851 0
M  V30 8674 H 787.911 -2.04635 4.13093 0
M  V30 8675 H 791.455 -0.0902544 6.97542 0
M  V30 8676 H 787.352 -1.15524 6.35078 0
M  V30 8677 H 788.12 -0.17955 8.18303 0
M  V30 8678 N 790.784 -1.46188 -0.588786 0
M  V30 8679 C 792.009 -1.5498 -1.37826 0
M  V30 8680 C 792.434 -0.189498 -1.87143 0
M  V30 8681 O 791.792 0.829293 -1.61222 0
M  V30 8682 C 791.84 -2.55369 -2.54596 0
M  V30 8683 O 790.944 -2.08452 -3.55839 0
M  V30 8684 H 790.285 -0.521741 -0.41071 0
M  V30 8685 H 792.815 -1.91708 -0.714779 0
M  V30 8686 H 792.825 -2.74782 -3.01594 0
M  V30 8687 H 791.5 -3.54155 -2.18052 0
M  V30 8688 H 790.077 -1.98999 -3.15363 0
M  V30 8689 N 792.262 0.832906 -1.33792 0
M  V30 8690 C 793.225 1.92471 -1.24449 0
M  V30 8691 C 794.225 1.59981 -0.162085 0
M  V30 8692 O 795.415 1.69208 -0.414029 0
M  V30 8693 C 792.547 3.28278 -0.919044 0
M  V30 8694 H 793.74 2.0218 -2.21502 0
M  V30 8695 H 791.293 1.0257 -1.17936 0
M  V30 8696 H 792.028 3.24263 0.048738 0
M  V30 8697 H 791.813 3.53241 -1.70187 0
M  V30 8698 H 793.303 4.08253 -0.878576 0
M  V30 8699 N 793.74 1.17359 1.05189 0
M  V30 8700 C 794.67 0.91365 2.14883 0
M  V30 8701 C 795.651 -0.144365 1.69486 0
M  V30 8702 O 796.836 0.00587861 1.94199 0
M  V30 8703 C 793.966 0.426196 3.44675 0
M  V30 8704 C 792.92 1.4234 4.03638 0
M  V30 8705 C 792.246 0.793902 5.28773 0
M  V30 8706 C 793.546 2.7966 4.41121 0
M  V30 8707 H 795.24 1.831 2.36885 0
M  V30 8708 H 792.786 0.881781 1.13845 0
M  V30 8709 H 794.739 0.231767 4.20762 0
M  V30 8710 H 793.463 -0.526693 3.22325 0
M  V30 8711 H 792.122 1.60457 3.2962 0
M  V30 8712 H 791.77 -0.165824 5.02727 0
M  V30 8713 H 791.47 1.45959 5.69183 0
M  V30 8714 H 792.994 0.609747 6.07548 0
M  V30 8715 H 794.408 2.6526 5.08242 0
M  V30 8716 H 792.805 3.42807 4.92548 0
M  V30 8717 H 793.875 3.34068 3.51464 0
M  V30 8718 N 795.218 -1.23913 0.973828 0
M  V30 8719 C 796.128 -2.28838 0.516735 0
M  V30 8720 C 797.144 -1.68723 -0.425282 0
M  V30 8721 O 798.32 -1.99201 -0.296819 0
M  V30 8722 C 795.385 -3.46233 -0.179914 0
M  V30 8723 C 794.446 -4.21729 0.80269 0
M  V30 8724 C 793.679 -5.33518 0.139191 0
M  V30 8725 O 793.902 -5.60252 -1.07118 0
M  V30 8726 O 792.836 -5.96088 0.834447 0
M  V30 8727 H 796.662 -2.70067 1.38916 0
M  V30 8728 H 794.247 -1.2972 0.74115 0
M  V30 8729 H 796.129 -4.17514 -0.570991 0
M  V30 8730 H 794.804 -3.06969 -1.02721 0
M  V30 8731 H 793.711 -3.52799 1.24434 0
M  V30 8732 H 795.044 -4.64825 1.61859 0
M  V30 8733 N 796.696 -0.74468 -1.38897 0
M  V30 8734 C 797.644 -0.100312 -2.32384 0
M  V30 8735 C 798.638 0.715191 -1.53562 0
M  V30 8736 O 799.844 0.615288 -1.69157 0
M  V30 8737 H 796.219 -0.0136403 -0.751876 0
M  V30 8738 H 798.19 -0.905007 -2.84345 0
M  V30 8739 C 796.939 0.785432 -3.38713 0
M  V30 8740 H 796.262 0.167308 -3.9945 0
M  V30 8741 H 797.702 1.20374 -4.06554 0
M  V30 8742 C 796.161 1.92408 -2.76552 0
M  V30 8743 O 796.691 3.01752 -2.65157 0
M  V30 8744 N 794.897 1.71642 -2.34494 0
M  V30 8745 H 794.444 0.827079 -2.43961 0
M  V30 8746 H 794.402 2.48 -1.93244 0
M  V30 8747 N 798.174 1.49689 -0.493057 0
M  V30 8748 C 799.122 2.30613 0.303383 0
M  V30 8749 C 800.116 1.38867 0.970165 0
M  V30 8750 O 801.322 1.55956 0.898761 0
M  V30 8751 H 797.697 0.742891 0.116691 0
M  V30 8752 H 799.668 2.95717 -0.39924 0
M  V30 8753 C 798.417 3.20008 1.35978 0
M  V30 8754 H 797.74 3.90526 0.856103 0
M  V30 8755 H 799.18 3.79586 1.88919 0
M  V30 8756 C 797.639 2.39079 2.37367 0
M  V30 8757 O 798.169 2.08933 3.43089 0
M  V30 8758 N 796.375 2.0125 2.09635 0
M  V30 8759 H 795.922 2.25966 1.23682 0
M  V30 8760 H 795.88 1.47408 2.77702 0
M  V30 8761 N 799.652 0.226554 1.55963 0
M  V30 8762 C 800.9 -0.402991 1.98041 0
M  V30 8763 C 801.221 -1.59938 1.11557 0
M  V30 8764 O 800.491 -1.9494 0.193719 0
M  V30 8765 H 799.071 -0.15188 0.731397 0
M  V30 8766 H 801.733 0.320613 1.92245 0
M  V30 8767 H 800.829 -0.725937 3.0354 0
M  V30 8768 N 801.13 -1.57531 -0.0467866 0
M  V30 8769 C 802.078 -2.06455 -1.0714 0
M  V30 8770 C 803.072 -0.974744 -1.38546 0
M  V30 8771 O 804.278 -1.15974 -1.37659 0
M  V30 8772 H 800.653 -0.658607 -0.362962 0
M  V30 8773 H 802.624 -2.91613 -0.632813 0
M  V30 8774 C 801.373 -2.54481 -2.36927 0
M  V30 8775 H 800.696 -3.37946 -2.13617 0
M  V30 8776 H 802.136 -2.92442 -3.07007 0
M  V30 8777 C 800.595 -1.43836 -3.04652 0
M  V30 8778 O 801.125 -0.794531 -3.93764 0
M  V30 8779 N 799.331 -1.17727 -2.65686 0
M  V30 8780 H 798.878 -1.70265 -1.93307 0
M  V30 8781 H 798.836 -0.439051 -3.11319 0
M  V30 8782 N 802.608 0.318715 -1.54344 0
M  V30 8783 C 803.857 1.05363 -1.71993 0
M  V30 8784 C 804.17 1.89018 -0.503155 0
M  V30 8785 O 805.376 2.65639 -0.561085 0
M  V30 8786 C 803.832 1.92281 -3.0423 0
M  V30 8787 C 803.44 1.13715 -4.33328 0
M  V30 8788 C 805.184 2.65479 -3.31242 0
M  V30 8789 C 803.091 1.99806 -5.56625 0
M  V30 8790 H 802.021 0.397081 -0.64097 0
M  V30 8791 H 804.672 0.311598 -1.80835 0
M  V30 8792 H 803.054 2.70402 -2.89307 0
M  V30 8793 H 804.228 0.403305 -4.59032 0
M  V30 8794 H 802.543 0.521769 -4.13118 0
M  V30 8795 H 805.14 3.30209 -4.20555 0
M  V30 8796 H 805.483 3.33374 -2.49334 0
M  V30 8797 H 806.016 1.94417 -3.47054 0
M  V30 8798 H 802.755 1.36411 -6.41149 0
M  V30 8799 H 802.275 2.70911 -5.35133 0
M  V30 8800 H 803.954 2.58277 -5.93213 0
M  V30 8801 N 804.086 1.46499 0.581025 0
M  V30 8802 C 805.034 1.57562 1.71105 0
M  V30 8803 C 806.028 0.44403 1.63477 0
M  V30 8804 O 807.234 0.620964 1.6895 0
M  V30 8805 H 803.609 0.495415 0.565746 0
M  V30 8806 H 805.58 2.5257 1.58905 0
M  V30 8807 C 804.329 1.58465 3.0949 0
M  V30 8808 H 803.652 2.44877 3.16031 0
M  V30 8809 H 805.092 1.70261 3.88313 0
M  V30 8810 C 803.551 0.313596 3.35437 0
M  V30 8811 O 804.081 -0.595456 3.97262 0
M  V30 8812 N 802.287 0.200986 2.89904 0
M  V30 8813 H 801.834 0.941643 2.39773 0
M  V30 8814 H 801.792 -0.648577 3.07638 0
M  V30 8815 N 805.565 -0.825799 1.34232 0
M  V30 8816 C 806.528 -1.91808 1.25468 0
M  V30 8817 C 807.528 -1.59893 0.170567 0
M  V30 8818 O 808.718 -1.68986 0.422996 0
M  V30 8819 C 805.85 -3.27786 0.93644 0
M  V30 8820 H 807.043 -2.01003 2.22571 0
M  V30 8821 H 804.596 -1.01944 1.18479 0
M  V30 8822 H 805.331 -3.24285 -0.0315408 0
M  V30 8823 H 805.116 -3.52333 1.72057 0
M  V30 8824 H 806.606 -4.07782 0.900214 0
M  V30 8825 N 807.043 -1.17915 -1.04565 0
M  V30 8826 C 808.454 -0.976383 -1.59134 0
M  V30 8827 C 808.805 0.475267 -1.90357 0
M  V30 8828 O 807.93 1.35172 -1.6899 0
M  V30 8829 C 808.525 -1.76604 -2.89131 0
M  V30 8830 C 807.084 -1.60777 -3.40335 0
M  V30 8831 C 806.231 -1.76369 -2.13985 0
M  V30 8832 H 809.182 -1.32532 -0.872985 0
M  V30 8833 H 809.203 -1.25215 -3.59307 0
M  V30 8834 H 808.715 -2.82252 -2.66375 0
M  V30 8835 H 806.816 -0.576436 -3.68114 0
M  V30 8836 H 806.929 -2.40268 -4.14497 0
M  V30 8837 H 805.293 -1.19268 -2.25049 0
M  V30 8838 H 806.076 -2.83441 -1.9369 0
M  V30 8839 N 808.521 1.23394 -0.980386 0
M  V30 8840 C 809.471 2.22634 -0.491747 0
M  V30 8841 C 810.455 1.54958 0.433222 0
M  V30 8842 O 811.647 1.75049 0.262078 0
M  V30 8843 C 808.776 3.4269 0.204531 0
M  V30 8844 C 807.862 4.17594 -0.740007 0
M  V30 8845 N 808.253 4.69458 -1.88263 0
M  V30 8846 C 806.551 4.42554 -0.553335 0
M  V30 8847 C 807.252 5.26446 -2.47446 0
M  V30 8848 N 806.228 5.14377 -1.75834 0
M  V30 8849 H 810.03 2.60363 -1.36339 0
M  V30 8850 H 807.544 1.38924 -0.841059 0
M  V30 8851 H 809.541 4.12959 0.571901 0
M  V30 8852 H 808.201 3.06477 1.07246 0
M  V30 8853 H 809.212 4.65803 -2.26381 0
M  V30 8854 H 805.889 4.16629 0.269573 0
M  V30 8855 H 807.279 5.77195 -3.43941 0
M  V30 8856 N 809.999 0.752036 1.385 0
M  V30 8857 C 810.929 0.138718 2.33088 0
M  V30 8858 C 811.91 -0.705318 1.54788 0
M  V30 8859 O 813.095 -0.646821 1.83112 0
M  V30 8860 C 810.225 -0.75641 3.38963 0
M  V30 8861 C 809.179 -0.0152239 4.27997 0
M  V30 8862 C 808.505 -1.0285 5.24715 0
M  V30 8863 C 809.805 1.15226 5.09431 0
M  V30 8864 H 811.499 0.928852 2.84627 0
M  V30 8865 H 809.045 0.448111 1.3685 0
M  V30 8866 H 810.998 -1.19513 4.04097 0
M  V30 8867 H 809.722 -1.57885 2.85902 0
M  V30 8868 H 808.381 0.404061 3.64366 0
M  V30 8869 H 808.029 -1.84496 4.67943 0
M  V30 8870 H 807.729 -0.537238 5.85139 0
M  V30 8871 H 809.253 -1.46657 5.92726 0
M  V30 8872 H 810.667 0.791161 5.67815 0
M  V30 8873 H 809.064 1.57428 5.79082 0
M  V30 8874 H 810.134 1.9659 4.43261 0
M  V30 8875 N 811.477 -1.49425 0.500989 0
M  V30 8876 C 812.407 -2.31971 -0.266775 0
M  V30 8877 C 813.388 -1.40245 -0.962563 0
M  V30 8878 O 814.573 -1.69154 -0.953968 0
M  V30 8879 C 811.703 -3.20757 -1.33163 0
M  V30 8880 C 810.657 -4.21275 -0.75572 0
M  V30 8881 C 809.983 -4.98997 -1.92109 0
M  V30 8882 C 811.283 -5.21686 0.253213 0
M  V30 8883 H 812.977 -2.96408 0.422237 0
M  V30 8884 H 810.523 -1.4254 0.204505 0
M  V30 8885 H 812.476 -3.77315 -1.87646 0
M  V30 8886 H 811.2 -2.54263 -2.04983 0
M  V30 8887 H 809.859 -3.65861 -0.232637 0
M  V30 8888 H 809.507 -4.28951 -2.62698 0
M  V30 8889 H 809.207 -5.67011 -1.54182 0
M  V30 8890 H 810.731 -5.584 -2.47026 0
M  V30 8891 H 812.145 -5.72939 -0.203483 0
M  V30 8892 H 810.542 -5.9759 0.548322 0
M  V30 8893 H 811.612 -4.70596 1.16909 0
M  V30 8894 N 812.955 -0.234822 -1.55841 0
M  V30 8895 C 813.902 0.6698 -2.20867 0
M  V30 8896 C 814.872 1.18042 -1.16856 0
M  V30 8897 O 816.057 1.23709 -1.45261 0
M  V30 8898 C 813.197 1.86646 -2.90271 0
M  V30 8899 C 812.31 1.39351 -4.08908 0
M  V30 8900 C 811.445 2.54878 -4.66059 0
M  V30 8901 C 810.484 2.04384 -5.76969 0
M  V30 8902 N 809.621 3.13233 -6.28355 0
M  V30 8903 H 814.461 0.10858 -2.97802 0
M  V30 8904 H 811.998 0.041836 -1.4704 0
M  V30 8905 H 813.956 2.56926 -3.28702 0
M  V30 8906 H 812.586 2.40035 -2.15831 0
M  V30 8907 H 811.638 0.585173 -3.75872 0
M  V30 8908 H 812.95 0.983356 -4.89011 0
M  V30 8909 H 812.104 3.33219 -5.07001 0
M  V30 8910 H 810.843 2.99188 -3.85146 0
M  V30 8911 H 809.848 1.24509 -5.35516 0
M  V30 8912 H 811.073 1.61057 -6.59725 0
M  V30 8913 H 809.019 3.57 -5.50352 0
M  V30 8914 H 808.936 2.76511 -7.03618 0
M  V30 8915 H 810.204 3.91669 -6.73955 0
M  V30 8916 N 814.433 1.57553 0.0384317 0
M  V30 8917 C 815.71 1.79977 0.766002 0
M  V30 8918 C 816.09 0.830625 1.94072 0
M  V30 8919 O 815.438 -0.129243 2.28134 0
M  V30 8920 C 815.648 3.27434 1.20781 0
M  V30 8921 C 816.996 3.92167 1.62758 0
M  V30 8922 O 818.02 3.31527 1.30263 0
M  V30 8923 O 816.879 4.98917 2.23035 0
M  V30 8924 H 813.973 0.739787 0.369654 0
M  V30 8925 H 816.519 1.69693 0.0159312 0
M  V30 8926 H 815.291 3.89558 0.368792 0
M  V30 8927 H 814.914 3.42571 2.01819 0
M  V30 8928 N 815.911 -0.310526 1.54511 0
M  V30 8929 C 817.139 -1.06611 1.77318 0
M  V30 8930 C 817.554 -1.81265 0.528043 0
M  V30 8931 O 816.911 -1.75466 -0.50178 0
M  V30 8932 C 816.962 -2.05409 2.97472 0
M  V30 8933 O 816.683 -1.33785 4.17173 0
M  V30 8934 C 818.184 -2.93082 3.32593 0
M  V30 8935 H 815.404 -0.316578 0.591624 0
M  V30 8936 H 817.948 -0.352691 2.01436 0
M  V30 8937 H 816.103 -2.72266 2.7559 0
M  V30 8938 H 816.517 -2.00055 4.84849 0
M  V30 8939 H 817.991 -3.58274 4.19933 0
M  V30 8940 H 818.468 -3.60877 2.50329 0
M  V30 8941 H 819.074 -2.31768 3.566 0
M  V30 8942 N 817.389 -1.46805 -0.573248 0
M  V30 8943 C 818.336 -1.58084 -1.68161 0
M  V30 8944 C 819.306 -0.424636 -1.6058 0
M  V30 8945 O 820.491 -0.642623 -1.79652 0
M  V30 8946 C 817.631 -1.58601 -3.06496 0
M  V30 8947 C 816.744 -2.85023 -3.24632 0
M  V30 8948 C 815.879 -2.76981 -4.53271 0
M  V30 8949 C 814.918 -3.983 -4.64783 0
M  V30 8950 N 814.055 -3.88589 -5.84759 0
M  V30 8951 H 818.895 -2.52755 -1.57858 0
M  V30 8952 H 816.432 -1.25385 -0.769218 0
M  V30 8953 H 818.39 -1.56885 -3.86579 0
M  V30 8954 H 817.02 -0.674553 -3.15673 0
M  V30 8955 H 816.072 -2.96678 -2.38089 0
M  V30 8956 H 817.384 -3.7491 -3.29004 0
M  V30 8957 H 816.538 -2.73424 -5.41594 0
M  V30 8958 H 815.277 -1.84751 -4.51352 0
M  V30 8959 H 814.282 -4.02179 -3.74876 0
M  V30 8960 H 815.507 -4.91639 -4.68474 0
M  V30 8961 H 813.453 -2.99151 -5.83819 0
M  V30 8962 H 813.37 -4.7214 -5.90441 0
M  V30 8963 H 814.638 -3.89022 -6.75486 0
M  V30 8964 N 818.867 0.818669 -1.34668 0
M  V30 8965 C 819.815 1.95123 -1.26609 0
M  V30 8966 C 820.809 1.68611 -0.163348 0
M  V30 8967 O 822.015 1.76975 -0.328586 0
M  V30 8968 H 818.39 0.640871 -0.393431 0
M  V30 8969 H 820.361 1.99043 -2.22316 0
M  V30 8970 C 819.11 3.31697 -1.04272 0
M  V30 8971 H 818.433 3.52648 -1.8836 0
M  V30 8972 H 819.873 4.11382 -1.0267 0
M  V30 8973 C 818.332 3.35942 0.253858 0
M  V30 8974 O 818.862 3.81632 1.25378 0
M  V30 8975 N 817.068 2.89165 0.288447 0
M  V30 8976 H 816.615 2.52176 -0.525845 0
M  V30 8977 H 816.573 2.92387 1.15572 0
M  V30 8978 N 820.346 1.18468 1.03938 0
M  V30 8979 C 821.293 0.912859 2.1198 0
M  V30 8980 C 822.263 -0.14824 1.65437 0
M  V30 8981 O 823.448 -0.008331 1.90798 0
M  V30 8982 C 820.588 0.446114 3.42204 0
M  V30 8983 C 819.701 1.57278 4.02353 0
M  V30 8984 C 818.836 1.05863 5.20544 0
M  V30 8985 C 817.875 2.1599 5.72726 0
M  V30 8986 N 817.012 1.65959 6.82204 0
M  V30 8987 H 821.852 1.83798 2.34569 0
M  V30 8988 H 819.389 0.916504 1.15059 0
M  V30 8989 H 821.347 0.15697 4.16905 0
M  V30 8990 H 819.977 -0.442025 3.19759 0
M  V30 8991 H 819.029 1.97737 3.24968 0
M  V30 8992 H 820.341 2.40289 4.37107 0
M  V30 8993 H 819.495 0.724087 6.02364 0
M  V30 8994 H 818.234 0.198116 4.87297 0
M  V30 8995 H 817.239 2.50287 4.89527 0
M  V30 8996 H 818.464 3.02479 6.08016 0
M  V30 8997 H 816.41 0.82199 6.5083 0
M  V30 8998 H 816.327 2.42567 7.16029 0
M  V30 8999 H 817.595 1.35436 7.67644 0
M  V30 9000 N 821.824 -1.22873 0.986916 0
M  V30 9001 C 823.07 -1.91746 0.660401 0
M  V30 9002 C 823.403 -1.76738 -0.804812 0
M  V30 9003 O 822.678 -1.13246 -1.58131 0
M  V30 9004 C 822.961 -3.44156 1.05966 0
M  V30 9005 C 822.814 -3.68242 2.58298 0
M  V30 9006 C 824.133 -4.35874 0.60842 0
M  V30 9007 H 821.252 -0.696347 0.241391 0
M  V30 9008 H 823.894 -1.44867 1.22937 0
M  V30 9009 H 822.044 -3.84213 0.575534 0
M  V30 9010 H 823.716 -3.37626 3.14335 0
M  V30 9011 H 821.959 -3.12728 3.00638 0
M  V30 9012 H 822.63 -4.74956 2.81285 0
M  V30 9013 H 825.106 -4.03299 1.02417 0
M  V30 9014 H 823.982 -5.41201 0.916142 0
M  V30 9015 H 824.243 -4.39364 -0.491086 0
M  V30 9016 N 823.302 -0.75937 -1.38099 0
M  V30 9017 C 824.548 -0.327559 -2.00745 0
M  V30 9018 C 824.903 1.08042 -1.592 0
M  V30 9019 O 824.196 1.7306 -0.822236 0
M  V30 9020 C 824.39 -0.394999 -3.55211 0
M  V30 9021 C 824.219 -1.80798 -4.11755 0
M  V30 9022 C 822.989 -2.42585 -4.43262 0
M  V30 9023 C 825.187 -2.76556 -4.33614 0
M  V30 9024 N 823.169 -3.75784 -4.85448 0
M  V30 9025 C 824.54 -3.94532 -4.78273 0
M  V30 9026 C 826.595 -2.74004 -4.15724 0
M  V30 9027 C 825.298 -5.10322 -5.06916 0
M  V30 9028 C 827.324 -3.88957 -4.45496 0
M  V30 9029 C 826.686 -5.05672 -4.90383 0
M  V30 9030 H 822.785 -0.166644 -0.764038 0
M  V30 9031 H 825.369 -0.99056 -1.67619 0
M  V30 9032 H 823.54 0.237761 -3.87672 0
M  V30 9033 H 825.272 0.0576828 -4.04659 0
M  V30 9034 H 822.027 -1.94302 -4.31907 0
M  V30 9035 H 822.451 -4.44234 -5.10867 0
M  V30 9036 H 827.093 -1.84948 -3.80203 0
M  V30 9037 H 824.811 -5.99988 -5.41332 0
M  V30 9038 H 828.397 -3.88308 -4.33253 0
M  V30 9039 H 827.277 -5.93146 -5.1298 0
M  V30 9040 N 824.78 1.49157 -0.508906 0
M  V30 9041 C 825.727 2.2927 0.265288 0
M  V30 9042 C 826.697 1.3603 0.953162 0
M  V30 9043 O 827.882 1.64989 0.958291 0
M  V30 9044 C 825.022 3.18897 1.31904 0
M  V30 9045 C 824.135 4.27201 0.642144 0
M  V30 9046 C 823.27 5.04033 1.67701 0
M  V30 9047 C 822.309 6.04165 0.982422 0
M  V30 9048 N 821.446 6.74133 1.96186 0
M  V30 9049 H 826.286 2.94967 -0.424107 0
M  V30 9050 H 823.823 1.45431 -0.220991 0
M  V30 9051 H 825.781 3.69242 1.94206 0
M  V30 9052 H 824.411 2.55168 1.97709 0
M  V30 9053 H 823.463 3.80283 -0.0943395 0
M  V30 9054 H 824.775 4.98708 0.0957507 0
M  V30 9055 H 823.929 5.58287 2.37487 0
M  V30 9056 H 822.668 4.32317 2.25728 0
M  V30 9057 H 821.673 5.49135 0.270378 0
M  V30 9058 H 822.898 6.7787 0.408554 0
M  V30 9059 H 820.844 6.05183 2.53159 0
M  V30 9060 H 820.761 7.41643 1.46634 0
M  V30 9061 H 822.029 7.32987 2.65236 0
M  V30 9062 N 826.258 0.243083 1.55714 0
M  V30 9063 C 827.205 -0.658078 2.21219 0
M  V30 9064 C 828.175 -1.1742 1.17481 0
M  V30 9065 O 829.36 -1.22937 1.45915 0
M  V30 9066 C 826.5 -1.85104 2.91257 0
M  V30 9067 C 825.613 -1.3718 4.09641 0
M  V30 9068 C 824.748 -2.52403 4.67404 0
M  V30 9069 C 823.787 -2.01321 5.78045 0
M  V30 9070 N 822.924 -3.09896 6.30007 0
M  V30 9071 H 827.764 -0.0927854 2.97856 0
M  V30 9072 H 825.301 -0.0340375 1.47061 0
M  V30 9073 H 827.259 -2.55179 3.3006 0
M  V30 9074 H 825.889 -2.38887 2.17101 0
M  V30 9075 H 824.941 -0.565232 3.76177 0
M  V30 9076 H 826.253 -0.957409 4.89525 0
M  V30 9077 H 825.407 -3.30525 5.08761 0
M  V30 9078 H 824.146 -2.97142 3.86728 0
M  V30 9079 H 823.151 -1.21667 5.36169 0
M  V30 9080 H 824.376 -1.57556 6.6057 0
M  V30 9081 H 822.322 -3.54077 5.52237 0
M  V30 9082 H 822.239 -2.72776 7.05074 0
M  V30 9083 H 823.507 -3.8809 6.76023 0
M  V30 9084 N 827.736 -1.57571 -0.0300757 0
M  V30 9085 C 828.684 -2.0758 -1.04944 0
M  V30 9086 C 829.678 -0.989384 -1.37505 0
M  V30 9087 O 830.884 -1.17427 -1.36422 0
M  V30 9088 H 827.259 -0.662419 -0.355956 0
M  V30 9089 H 829.23 -2.92268 -0.601848 0
M  V30 9090 C 827.979 -2.5698 -2.34215 0
M  V30 9091 H 827.302 -3.40193 -2.10021 0
M  V30 9092 H 828.742 -2.95682 -3.03888 0
M  V30 9093 C 827.201 -1.47059 -3.03109 0
M  V30 9094 O 827.731 -0.83625 -3.92899 0
M  V30 9095 N 825.937 -1.20538 -2.64422 0
M  V30 9096 H 825.484 -1.72305 -1.9149 0
M  V30 9097 H 825.442 -0.472045 -3.10836 0
M  V30 9098 N 829.214 0.302327 -1.54673 0
M  V30 9099 C 830.463 1.03533 -1.73101 0
M  V30 9100 C 830.776 1.88473 -0.523174 0
M  V30 9101 O 831.982 2.65029 -0.589229 0
M  V30 9102 C 830.438 1.89043 -3.06252 0
M  V30 9103 C 830.046 1.09112 -4.3451 0
M  V30 9104 C 831.79 2.61951 -3.34039 0
M  V30 9105 C 829.697 1.93891 -5.58713 0
M  V30 9106 H 828.627 0.390261 -0.645145 0
M  V30 9107 H 831.278 0.2924 -1.81155 0
M  V30 9108 H 829.66 2.67319 -2.92159 0
M  V30 9109 H 830.834 0.354596 -4.59434 0
M  V30 9110 H 829.149 0.477923 -4.13648 0
M  V30 9111 H 831.746 3.25729 -4.24033 0
M  V30 9112 H 832.089 3.30711 -2.52855 0
M  V30 9113 H 832.622 1.90725 -3.49097 0
M  V30 9114 H 829.361 1.29604 -6.4256 0
M  V30 9115 H 828.881 2.6522 -5.37976 0
M  V30 9116 H 830.56 2.51971 -5.95919 0
M  V30 9117 N 830.692 1.47107 0.565454 0
M  V30 9118 C 831.941 1.5257 1.31929 0
M  V30 9119 C 832.254 0.189092 1.94684 0
M  V30 9120 O 833.46 0.121657 2.71227 0
M  V30 9121 C 831.916 2.68914 2.39193 0
M  V30 9122 C 831.524 4.09069 1.82665 0
M  V30 9123 C 833.268 2.83663 3.1581 0
M  V30 9124 C 831.175 5.16726 2.87661 0
M  V30 9125 H 830.105 0.567869 0.496025 0
M  V30 9126 H 832.756 1.73361 0.60151 0
M  V30 9127 H 831.138 2.41486 3.13848 0
M  V30 9128 H 832.312 4.46364 1.14438 0
M  V30 9129 H 830.627 3.99135 1.1866 0
M  V30 9130 H 833.224 3.61261 3.94201 0
M  V30 9131 H 833.567 1.91804 3.69482 0
M  V30 9132 H 834.1 3.10821 2.48265 0
M  V30 9133 H 830.839 6.10433 2.38854 0
M  V30 9134 H 830.359 4.83957 3.54324 0
M  V30 9135 H 832.038 5.43319 3.51303 0
M  V30 9136 N 832.17 -0.811516 1.35101 0
M  V30 9137 C 833.395 -1.60499 1.31358 0
M  V30 9138 C 833.82 -1.87793 -0.107383 0
M  V30 9139 O 833.178 -1.46161 -1.07268 0
M  V30 9140 C 833.226 -2.91612 2.12119 0
M  V30 9141 O 832.33 -3.84211 1.49853 0
M  V30 9142 H 831.671 -0.487702 0.450603 0
M  V30 9143 H 834.201 -1.00758 1.7807 0
M  V30 9144 H 834.211 -3.4108 2.23894 0
M  V30 9145 H 832.886 -2.71071 3.15426 0
M  V30 9146 H 831.463 -3.42751 1.46889 0
M  V30 9147 N 833.648 -1.19017 -1.03309 0
M  V30 9148 C 834.595 -0.924088 -2.11493 0
M  V30 9149 C 835.565 0.139464 -1.65513 0
M  V30 9150 O 836.75 -0.00178761 -1.908 0
M  V30 9151 C 833.89 -0.464255 -3.41963 0
M  V30 9152 C 833.003 -1.5941 -4.01513 0
M  V30 9153 C 832.138 -1.08622 -5.19976 0
M  V30 9154 C 831.177 -2.19024 -5.71572 0
M  V30 9155 N 830.314 -1.69575 -6.81314 0
M  V30 9156 H 835.154 -1.85039 -2.33591 0
M  V30 9157 H 832.691 -0.922593 -1.14572 0
M  V30 9158 H 834.649 -0.179078 -4.16815 0
M  V30 9159 H 833.279 0.425062 -3.19989 0
M  V30 9160 H 832.331 -1.99458 -3.23915 0
M  V30 9161 H 833.643 -2.42604 -4.35826 0
M  V30 9162 H 832.797 -0.756022 -6.01971 0
M  V30 9163 H 831.536 -0.223955 -4.87186 0
M  V30 9164 H 830.541 -2.5288 -4.88193 0
M  V30 9165 H 831.766 -3.05699 -6.06403 0
M  V30 9166 H 829.712 -0.856494 -6.50385 0
M  V30 9167 H 829.629 -2.46361 -7.14732 0
M  V30 9168 H 830.897 -1.39505 -7.66915 0
M  V30 9169 N 835.127 1.22348 -0.993418 0
M  V30 9170 C 836.037 2.27987 -0.553076 0
M  V30 9171 C 837.053 1.69378 0.398386 0
M  V30 9172 O 838.229 1.99648 0.26509 0
M  V30 9173 C 835.294 3.46475 0.124809 0
M  V30 9174 C 834.355 4.20399 -0.869682 0
M  V30 9175 C 833.588 5.33229 -0.224052 0
M  V30 9176 O 833.811 5.61885 0.981915 0
M  V30 9177 O 832.745 5.94685 -0.929174 0
M  V30 9178 H 836.571 2.67822 -1.43195 0
M  V30 9179 H 834.156 1.28525 -0.761694 0
M  V30 9180 H 836.038 4.18369 0.504496 0
M  V30 9181 H 834.713 3.08565 0.978243 0
M  V30 9182 H 833.62 3.50774 -1.30031 0
M  V30 9183 H 834.953 4.62191 -1.69233 0
M  V30 9184 N 836.605 0.766683 1.37694 0
M  V30 9185 C 837.553 0.137269 2.32195 0
M  V30 9186 C 838.547 -0.69067 1.54681 0
M  V30 9187 O 839.753 -0.588299 1.70115 0
M  V30 9188 H 836.128 0.0256003 0.751564 0
M  V30 9189 H 838.099 0.950129 2.82869 0
M  V30 9190 C 836.848 -0.731446 3.39919 0
M  V30 9191 H 836.171 -0.103738 3.99665 0
M  V30 9192 H 837.611 -1.13891 4.08417 0
M  V30 9193 C 836.07 -1.87984 2.79578 0
M  V30 9194 O 836.6 -2.97496 2.69924 0
M  V30 9195 N 834.806 -1.6789 2.37195 0
M  V30 9196 H 834.353 -0.788162 2.45246 0
M  V30 9197 H 834.311 -2.44894 1.97165 0
M  V30 9198 N 838.083 -1.48885 0.516809 0
M  V30 9199 C 839.332 -2.01686 -0.0239899 0
M  V30 9200 C 839.645 -1.40029 -1.3657 0
M  V30 9201 O 840.851 -1.84249 -1.9941 0
M  V30 9202 C 839.307 -3.59779 -0.0931825 0
M  V30 9203 C 838.915 -4.30416 1.24283 0
M  V30 9204 C 840.659 -4.20471 -0.583507 0
M  V30 9205 C 838.566 -5.80408 1.13494 0
M  V30 9206 H 837.496 -0.753892 -0.0127376 0
M  V30 9207 H 840.147 -1.71273 0.65861 0
M  V30 9208 H 838.529 -3.86976 -0.840577 0
M  V30 9209 H 839.703 -4.14905 2.00476 0
M  V30 9210 H 838.018 -3.81539 1.66785 0
M  V30 9211 H 840.615 -5.30333 -0.681987 0
M  V30 9212 H 840.958 -3.84898 -1.58617 0
M  V30 9213 H 841.491 -3.97654 0.107814 0
M  V30 9214 H 838.23 -6.20532 2.11235 0
M  V30 9215 H 837.75 -5.98368 0.414167 0
M  V30 9216 H 839.429 -6.41781 0.820162 0
M  V30 9217 N 839.561 -0.251338 -1.55583 0
M  V30 9218 C 840.509 0.662534 -2.22965 0
M  V30 9219 C 841.503 1.17662 -1.21869 0
M  V30 9220 O 842.709 1.133 -1.39868 0
M  V30 9221 H 839.084 0.232151 -0.715269 0
M  V30 9222 H 841.055 0.0711252 -2.98315 0
M  V30 9223 C 839.804 1.84646 -2.94621 0
M  V30 9224 H 839.127 1.46003 -3.72187 0
M  V30 9225 H 840.567 2.46303 -3.45124 0
M  V30 9226 C 839.026 2.72034 -1.98744 0
M  V30 9227 O 839.556 3.71695 -1.52335 0
M  V30 9228 N 837.762 2.38695 -1.6575 0
M  V30 9229 H 837.309 1.57702 -2.03685 0
M  V30 9230 H 837.267 2.9744 -1.01867 0
M  V30 9231 N 841.039 1.57585 0.0217189 0
M  V30 9232 C 841.969 2.10073 1.01939 0
M  V30 9233 C 842.95 1.0049 1.37243 0
M  V30 9234 O 844.135 1.28055 1.45999 0
M  V30 9235 C 841.265 2.58618 2.31806 0
M  V30 9236 C 840.219 3.72531 2.10724 0
M  V30 9237 C 839.545 4.07309 3.46415 0
M  V30 9238 C 840.845 5.00672 1.48743 0
M  V30 9239 H 842.539 2.9368 0.582432 0
M  V30 9240 H 840.085 1.41277 0.278715 0
M  V30 9241 H 842.038 2.9396 3.01936 0
M  V30 9242 H 840.762 1.72104 2.77575 0
M  V30 9243 H 839.421 3.37549 1.43025 0
M  V30 9244 H 839.069 3.17851 3.89846 0
M  V30 9245 H 838.769 4.84042 3.33132 0
M  V30 9246 H 840.293 4.45192 4.17895 0
M  V30 9247 H 841.707 5.33925 2.088 0
M  V30 9248 H 840.104 5.82065 1.46013 0
M  V30 9249 H 841.174 4.82769 0.45408 0
M  V30 9250 N 842.517 -0.29412 1.54831 0
M  V30 9251 C 843.447 -1.36757 1.89261 0
M  V30 9252 C 844.428 -1.52564 0.752214 0
M  V30 9253 O 845.613 -1.65958 1.00855 0
M  V30 9254 C 842.743 -2.73066 2.14597 0
M  V30 9255 C 841.697 -2.72017 3.3044 0
M  V30 9256 C 841.023 -4.11679 3.4121 0
M  V30 9257 C 842.323 -2.33149 4.67375 0
M  V30 9258 H 844.017 -1.08191 2.79169 0
M  V30 9259 H 841.563 -0.519014 1.34321 0
M  V30 9260 H 843.516 -3.48255 2.37269 0
M  V30 9261 H 842.24 -3.03172 1.21467 0
M  V30 9262 H 840.899 -1.99285 3.07703 0
M  V30 9263 H 840.547 -4.38973 2.45584 0
M  V30 9264 H 840.247 -4.11877 4.19084 0
M  V30 9265 H 841.771 -4.88637 3.6615 0
M  V30 9266 H 843.185 -2.98054 4.89731 0
M  V30 9267 H 841.582 -2.44546 5.48012 0
M  V30 9268 H 842.652 -1.28275 4.67626 0
M  V30 9269 N 843.995 -1.47404 -0.557645 0
M  V30 9270 C 844.943 -1.60265 -1.68576 0
M  V30 9271 C 845.937 -0.469982 -1.6275 0
M  V30 9272 O 847.143 -0.647764 -1.67941 0
M  V30 9273 H 843.518 -0.504353 -0.557792 0
M  V30 9274 H 845.489 -2.55066 -1.54867 0
M  V30 9275 C 844.238 -1.63369 -3.0693 0
M  V30 9276 H 843.561 -2.49874 -3.12095 0
M  V30 9277 H 845.001 -1.76417 -3.85556 0
M  V30 9278 C 843.46 -0.366921 -3.34896 0
M  V30 9279 O 843.99 0.53218 -3.98159 0
M  V30 9280 N 842.196 -0.247082 -2.89548 0
M  V30 9281 H 841.743 -0.979669 -2.38244 0
M  V30 9282 H 841.701 0.599552 -3.0863 0
M  V30 9283 N 845.473 0.80434 -1.35529 0
M  V30 9284 C 846.75 1.5486 -1.1949 0
M  V30 9285 C 847.13 2.09897 0.22506 0
M  V30 9286 O 846.478 1.92643 1.22886 0
M  V30 9287 C 846.688 2.65535 -2.26478 0
M  V30 9288 C 848.036 3.33814 -2.62399 0
M  V30 9289 O 849.06 2.75807 -2.25409 0
M  V30 9290 O 847.919 4.38612 -3.26009 0
M  V30 9291 H 845.013 0.68433 -0.464351 0
M  V30 9292 H 847.559 0.844107 -1.47217 0
M  V30 9293 H 846.331 2.22754 -3.21709 0
M  V30 9294 H 845.954 3.43617 -2.00033 0
M  V30 9295 N 846.951 1.19563 1.02676 0
M  V30 9296 C 848.199 0.997593 1.75763 0
M  V30 9297 C 848.52 -0.47253 1.89188 0
M  V30 9298 O 847.79 -1.34214 1.42701 0
M  V30 9299 H 846.37 0.366128 0.651122 0
M  V30 9300 H 849.032 1.50495 1.23844 0
M  V30 9301 H 848.128 1.44741 2.76508 0
M  V30 9302 N 848.429 -1.21819 0.999893 0
M  V30 9303 C 849.362 -2.22635 0.500887 0
M  V30 9304 C 850.34 -1.56459 -0.442636 0
M  V30 9305 O 851.524 -1.84902 -0.366551 0
M  V30 9306 C 848.651 -3.37598 -0.273046 0
M  V30 9307 C 847.697 -4.22006 0.617511 0
M  V30 9308 S 848.53 -4.93583 2.07693 0
M  V30 9309 C 849.686 -6.1198 1.31269 0
M  V30 9310 H 849.919 -2.64618 1.35516 0
M  V30 9311 H 847.452 -1.31606 0.807419 0
M  V30 9312 H 849.41 -4.04251 -0.713515 0
M  V30 9313 H 848.071 -2.94108 -1.10268 0
M  V30 9314 H 847.264 -5.03995 0.0216543 0
M  V30 9315 H 846.866 -3.6052 0.99504 0
M  V30 9316 H 849.158 -6.74979 0.583933 0
M  V30 9317 H 850.101 -6.75991 2.10811 0
M  V30 9318 H 850.509 -5.5847 0.822901 0
M  V30 9319 N 849.908 -0.773975 -1.37286 0
M  V30 9320 C 850.84 -0.119938 -2.28886 0
M  V30 9321 C 851.853 0.661822 -1.48741 0
M  V30 9322 O 853.042 0.499548 -1.71367 0
M  V30 9323 C 850.142 0.853703 -3.27971 0
M  V30 9324 C 849.315 0.125286 -4.37221 0
M  V30 9325 C 848.374 1.01261 -5.16365 0
M  V30 9326 O 847.4 0.475565 -5.6721 0
M  V30 9327 N 848.602 2.33864 -5.31308 0
M  V30 9328 H 851.367 -0.906702 -2.85655 0
M  V30 9329 H 848.928 -0.626519 -1.49286 0
M  V30 9330 H 850.92 1.4508 -3.77801 0
M  V30 9331 H 849.49 1.54142 -2.71954 0
M  V30 9332 H 848.71 -0.652742 -3.88758 0
M  V30 9333 H 849.998 -0.377959 -5.07394 0
M  V30 9334 H 849.396 2.79929 -4.91585 0
M  V30 9335 H 847.953 2.88575 -5.84438 0
M  V30 9336 N 851.386 1.48609 -0.524698 0
M  V30 9337 C 852.318 2.27508 0.278 0
M  V30 9338 C 853.331 1.35042 0.909258 0
M  V30 9339 O 854.52 1.60136 0.788592 0
M  V30 9340 C 851.62 3.08247 1.40843 0
M  V30 9341 C 850.793 4.28455 0.880083 0
M  V30 9342 C 849.852 4.91048 1.891 0
M  V30 9343 O 848.878 5.5042 1.45005 0
M  V30 9344 N 850.08 4.82816 3.22288 0
M  V30 9345 H 852.845 2.97037 -0.398642 0
M  V30 9346 H 850.406 1.57876 -0.358698 0
M  V30 9347 H 852.398 3.46992 2.08276 0
M  V30 9348 H 850.968 2.41173 1.98883 0
M  V30 9349 H 850.188 3.94189 0.0299228 0
M  V30 9350 H 851.476 5.06279 0.505881 0
M  V30 9351 H 850.874 4.3572 3.60783 0
M  V30 9352 H 849.431 5.25676 3.85368 0
M  V30 9353 N 852.864 0.259585 1.55447 0
M  V30 9354 C 854.11 -0.362143 1.9954 0
M  V30 9355 C 854.443 -1.5666 1.14767 0
M  V30 9356 O 853.718 -1.93319 0.214025 0
M  V30 9357 C 854.001 -0.759588 3.51998 0
M  V30 9358 C 853.854 0.451134 4.47532 0
M  V30 9359 C 855.173 -1.60186 4.09913 0
M  V30 9360 H 852.292 -0.130157 0.725416 0
M  V30 9361 H 854.934 0.363431 1.86492 0
M  V30 9362 H 853.084 -1.3778 3.63248 0
M  V30 9363 H 854.756 1.08965 4.48246 0
M  V30 9364 H 852.999 1.092 4.19831 0
M  V30 9365 H 853.67 0.129518 5.51848 0
M  V30 9366 H 856.146 -1.0799 4.01842 0
M  V30 9367 H 855.022 -1.84879 5.16828 0
M  V30 9368 H 855.283 -2.57787 3.59163 0
M  V30 9369 N 854.342 -1.57594 -0.0133615 0
M  V30 9370 C 855.588 -1.90262 -0.702019 0
M  V30 9371 C 855.921 -0.859219 -1.74158 0
M  V30 9372 O 855.196 0.123778 -1.94106 0
M  V30 9373 C 855.479 -3.3354 -1.35732 0
M  V30 9374 C 855.332 -4.48586 -0.330208 0
M  V30 9375 C 856.651 -3.76004 -2.28712 0
M  V30 9376 H 853.77 -0.691943 -0.253739 0
M  V30 9377 H 856.412 -1.89967 0.0351894 0
M  V30 9378 H 854.562 -3.33921 -1.98567 0
M  V30 9379 H 856.234 -4.6034 0.297433 0
M  V30 9380 H 854.477 -4.32394 0.348926 0
M  V30 9381 H 855.148 -5.45762 -0.827508 0
M  V30 9382 H 857.624 -3.77089 -1.75906 0
M  V30 9383 H 856.5 -4.77032 -2.71535 0
M  V30 9384 H 856.761 -3.09129 -3.16056 0
M  V30 9385 N 855.82 0.285905 -1.54985 0
M  V30 9386 C 856.768 1.37302 -1.87752 0
M  V30 9387 C 857.762 1.51763 -0.752616 0
M  V30 9388 O 858.968 1.53701 -0.936805 0
M  V30 9389 H 855.343 0.458935 -0.59572 0
M  V30 9390 H 857.314 1.0691 -2.78591 0
M  V30 9391 C 856.063 2.72885 -2.15474 0
M  V30 9392 H 855.386 2.62545 -3.01513 0
M  V30 9393 H 856.826 3.47925 -2.42331 0
M  V30 9394 C 855.285 3.22989 -0.958124 0
M  V30 9395 O 855.815 4.01268 -0.186219 0
M  V30 9396 N 854.021 2.80503 -0.759354 0
M  V30 9397 H 853.568 2.16961 -1.38874 0
M  V30 9398 H 853.526 3.14375 0.0396937 0
M  V30 9399 N 857.298 1.47698 0.54982 0
M  V30 9400 C 858.245 1.60739 1.65625 0
M  V30 9401 C 859.215 0.450129 1.59884 0
M  V30 9402 O 860.4 0.671123 1.78607 0
M  V30 9403 C 857.54 1.63457 3.03934 0
M  V30 9404 C 856.653 2.90152 3.20056 0
M  V30 9405 C 855.788 2.84157 4.48807 0
M  V30 9406 C 854.827 4.05644 4.58387 0
M  V30 9407 N 853.964 3.97843 5.78503 0
M  V30 9408 H 858.804 2.55234 1.53817 0
M  V30 9409 H 856.341 1.26593 0.749173 0
M  V30 9410 H 858.299 1.63015 3.84034 0
M  V30 9411 H 856.929 0.724689 3.1456 0
M  V30 9412 H 855.981 3.00428 2.33339 0
M  V30 9413 H 857.293 3.80097 3.22998 0
M  V30 9414 H 856.447 2.82006 5.37175 0
M  V30 9415 H 855.186 1.91908 4.48356 0
M  V30 9416 H 854.191 4.08092 3.6843 0
M  V30 9417 H 855.416 4.9903 4.60593 0
M  V30 9418 H 853.362 3.08401 5.78986 0
M  V30 9419 H 853.279 4.81473 5.82855 0
M  V30 9420 H 854.547 3.99719 6.69212 0
M  V30 9421 N 858.776 -0.797141 1.35954 0
M  V30 9422 C 860.004 -1.5858 1.32891 0
M  V30 9423 C 860.419 -1.88578 -0.0915564 0
M  V30 9424 O 859.776 -1.49532 -1.04625 0
M  V30 9425 C 859.827 -2.91143 2.14284 0
M  V30 9426 O 859.548 -2.62442 3.50793 0
M  V30 9427 C 861.049 -3.85476 2.18914 0
M  V30 9428 H 858.269 -0.492111 0.456144 0
M  V30 9429 H 860.813 -0.98994 1.78943 0
M  V30 9430 H 858.968 -3.47219 1.71807 0
M  V30 9431 H 859.382 -3.4715 3.93175 0
M  V30 9432 H 860.856 -4.75574 2.80238 0
M  V30 9433 H 861.333 -4.22758 1.19047 0
M  V30 9434 H 861.939 -3.35334 2.61593 0
M  V30 9435 N 860.254 -1.20106 -1.0204 0
M  V30 9436 C 861.204 -0.914145 -2.08872 0
M  V30 9437 C 862.188 0.124503 -1.60418 0
M  V30 9438 O 863.38 -0.0823521 -1.76808 0
M  V30 9439 C 860.509 -0.463897 -3.40151 0
M  V30 9440 C 859.595 -1.53576 -3.95317 0
M  V30 9441 N 859.986 -2.75726 -4.24038 0
M  V30 9442 C 858.284 -1.40103 -4.23423 0
M  V30 9443 C 858.985 -3.44838 -4.68468 0
M  V30 9444 N 857.961 -2.72245 -4.70514 0
M  V30 9445 H 861.763 -1.8424 -2.28982 0
M  V30 9446 H 859.277 -1.0945 -1.19977 0
M  V30 9447 H 861.274 -0.239766 -4.1621 0
M  V30 9448 H 859.934 0.457779 -3.21457 0
M  V30 9449 H 860.945 -3.12412 -4.13061 0
M  V30 9450 H 857.622 -0.543472 -4.13948 0
M  V30 9451 H 859.012 -4.49342 -4.99541 0
M  V30 9452 N 861.732 1.21287 -1.00634 0
M  V30 9453 C 862.679 2.23705 -0.567876 0
M  V30 9454 C 863.649 1.61043 0.406753 0
M  V30 9455 O 864.834 1.88289 0.308499 0
M  V30 9456 C 861.974 3.44961 0.097996 0
M  V30 9457 C 861.087 4.22091 -0.919972 0
M  V30 9458 C 860.222 5.30718 -0.226222 0
M  V30 9459 C 859.261 5.99581 -1.23165 0
M  V30 9460 N 858.398 6.99821 -0.565278 0
M  V30 9461 H 863.238 2.60571 -1.44592 0
M  V30 9462 H 860.775 1.28049 -0.724006 0
M  V30 9463 H 862.733 4.1418 0.501097 0
M  V30 9464 H 861.363 3.08818 0.939744 0
M  V30 9465 H 860.415 3.52038 -1.44131 0
M  V30 9466 H 861.727 4.69476 -1.68505 0
M  V30 9467 H 860.881 6.06253 0.232917 0
M  V30 9468 H 859.62 4.84343 0.571247 0
M  V30 9469 H 858.625 5.22816 -1.70128 0
M  V30 9470 H 859.85 6.48042 -2.03022 0
M  V30 9471 H 857.796 6.55656 0.212508 0
M  V30 9472 H 857.713 7.4528 -1.26858 0
M  V30 9473 H 858.981 7.79393 -0.129389 0
M  V30 9474 N 863.21 0.781244 1.36873 0
M  V30 9475 C 864.12 0.174981 2.33947 0
M  V30 9476 C 865.136 -0.668512 1.60645 0
M  V30 9477 O 866.312 -0.586213 1.9268 0
M  V30 9478 C 863.377 -0.686557 3.39834 0
M  V30 9479 C 862.438 0.174489 4.28945 0
M  V30 9480 C 861.671 -0.646024 5.29776 0
M  V30 9481 O 861.894 -1.88254 5.38439 0
M  V30 9482 O 860.828 -0.0502214 6.01879 0
M  V30 9483 H 864.654 0.977382 2.87543 0
M  V30 9484 H 862.239 0.542559 1.392 0
M  V30 9485 H 864.121 -1.1781 4.04597 0
M  V30 9486 H 862.796 -1.46699 2.8855 0
M  V30 9487 H 861.703 0.712604 3.6725 0
M  V30 9488 H 863.036 0.918232 4.83559 0
M  V30 9489 N 864.689 -1.48329 0.532571 0
M  V30 9490 C 865.966 -1.95492 -0.0650985 0
M  V30 9491 C 866.346 -1.47485 -1.51034 0
M  V30 9492 O 865.694 -0.702516 -2.17433 0
M  V30 9493 C 865.904 -3.48957 0.0548341 0
M  V30 9494 C 867.252 -4.24475 -0.103115 0
M  V30 9495 O 868.276 -3.56195 -0.0188343 0
M  V30 9496 O 867.135 -5.45781 -0.280164 0
M  V30 9497 H 864.229 -0.823327 -0.0778603 0
M  V30 9498 H 866.775 -1.58839 0.597353 0
M  V30 9499 H 865.547 -3.76628 1.06148 0
M  V30 9500 H 865.17 -3.92311 -0.64635 0
M  V30 9501 N 866.167 -0.267825 -1.55308 0
M  V30 9502 C 867.416 0.351635 -1.98611 0
M  V30 9503 C 867.729 1.57522 -1.15957 0
M  V30 9504 O 868.935 2.26717 -1.49371 0
M  V30 9505 C 867.391 0.676986 -3.53475 0
M  V30 9506 C 866.999 -0.526385 -4.44897 0
M  V30 9507 C 868.743 1.25948 -4.05386 0
M  V30 9508 C 866.65 -0.176026 -5.91138 0
M  V30 9509 H 865.58 0.13516 -0.741787 0
M  V30 9510 H 868.231 -0.371333 -1.79704 0
M  V30 9511 H 866.613 1.45866 -3.68156 0
M  V30 9512 H 867.787 -1.30339 -4.41982 0
M  V30 9513 H 866.102 -1.02522 -4.03582 0
M  V30 9514 H 868.699 1.53529 -5.12184 0
M  V30 9515 H 869.042 2.19094 -3.53982 0
M  V30 9516 H 869.575 0.540253 -3.94114 0
M  V30 9517 H 866.314 -1.07518 -6.46622 0
M  V30 9518 H 865.834 0.564363 -5.97139 0
M  V30 9519 H 867.513 0.234365 -6.46575 0
M  V30 9520 N 867.645 1.57599 0.00500368 0
M  V30 9521 C 868.875 1.94344 0.700998 0
M  V30 9522 C 869.283 0.868011 1.68114 0
M  V30 9523 O 868.626 -0.16214 1.82983 0
M  V30 9524 C 868.688 3.27046 1.49268 0
M  V30 9525 C 868.352 4.51992 0.674684 0
M  V30 9526 C 869.349 5.19888 -0.0354833 0
M  V30 9527 C 867.034 4.98432 0.622129 0
M  V30 9528 C 869.028 6.3252 -0.787246 0
M  V30 9529 C 866.715 6.10954 -0.133362 0
M  V30 9530 C 867.713 6.77855 -0.836788 0
M  V30 9531 O 867.401 7.88221 -1.57996 0
M  V30 9532 H 867.133 0.645572 0.20053 0
M  V30 9533 H 869.687 2.0536 -0.040718 0
M  V30 9534 H 867.917 3.12424 2.27877 0
M  V30 9535 H 869.606 3.4894 2.07355 0
M  V30 9536 H 870.372 4.85 -0.00400159 0
M  V30 9537 H 866.251 4.46189 1.15917 0
M  V30 9538 H 869.795 6.84671 -1.33683 0
M  V30 9539 H 865.692 6.45285 -0.166682 0
M  V30 9540 H 866.46 8.0471 -1.49615 0
M  V30 9541 N 869.123 -0.277682 1.55134 0
M  V30 9542 C 870.539 -0.624625 1.46869 0
M  V30 9543 C 870.739 -1.89717 0.678958 0
M  V30 9544 O 869.795 -2.51739 0.195939 0
M  V30 9545 C 871.108 -0.755937 2.91043 0
M  V30 9546 C 872.656 -0.850299 3.01229 0
M  V30 9547 C 873.131 -1.01343 4.46647 0
M  V30 9548 N 874.622 -1.07906 4.50456 0
M  V30 9549 C 875.357 -1.224 5.60184 0
M  V30 9550 N 874.853 -1.33642 6.79788 0
M  V30 9551 N 876.646 -1.25473 5.47917 0
M  V30 9552 H 868.797 0.558102 2.04937 0
M  V30 9553 H 871.06 0.188228 0.929125 0
M  V30 9554 H 870.766 0.108593 3.51532 0
M  V30 9555 H 870.64 -1.6377 3.39793 0
M  V30 9556 H 873.027 -1.7053 2.40839 0
M  V30 9557 H 873.108 0.0559681 2.55739 0
M  V30 9558 H 872.752 -0.163102 5.07638 0
M  V30 9559 H 872.682 -1.93427 4.89789 0
M  V30 9560 H 875.173 -1.00477 3.64298 0
M  V30 9561 H 875.486 -1.44522 7.59166 0
M  V30 9562 H 873.831 -1.30655 6.82608 0
M  V30 9563 H 877.022 -1.16317 4.53418 0
M  V30 9564 H 877.195 -1.36424 6.33476 0
M  V30 9565 N 870.601 -1.47988 -0.541979 0
M  V30 9566 C 871.826 -1.59286 -1.32826 0
M  V30 9567 C 872.251 -0.24894 -1.86445 0
M  V30 9568 O 871.609 0.777581 -1.63778 0
M  V30 9569 C 871.657 -2.6334 -2.46343 0
M  V30 9570 O 870.761 -2.19667 -3.49028 0
M  V30 9571 H 870.102 -0.534543 -0.393903 0
M  V30 9572 H 872.632 -1.93885 -0.653427 0
M  V30 9573 H 872.642 -2.84238 -2.92699 0
M  V30 9574 H 871.317 -3.60913 -2.06675 0
M  V30 9575 H 869.894 -2.08932 -3.08872 0
M  V30 9576 N 872.079 0.78992 -1.36375 0
M  V30 9577 C 873.309 1.57644 -1.33536 0
M  V30 9578 C 873.717 1.89007 0.0855075 0
M  V30 9579 O 873.06 1.50547 1.05267 0
M  V30 9580 C 873.122 2.92424 -2.09113 0
M  V30 9581 C 872.786 2.83793 -3.58205 0
M  V30 9582 C 873.783 2.56072 -4.52464 0
M  V30 9583 C 871.468 3.02386 -4.01084 0
M  V30 9584 C 873.462 2.47044 -5.87578 0
M  V30 9585 C 871.149 2.9298 -5.36289 0
M  V30 9586 C 872.147 2.65347 -6.29349 0
M  V30 9587 O 871.835 2.55935 -7.62071 0
M  V30 9588 H 871.567 0.495639 -0.459694 0
M  V30 9589 H 874.121 0.988354 -1.80058 0
M  V30 9590 H 872.351 3.53282 -1.57254 0
M  V30 9591 H 874.04 3.53693 -1.99139 0
M  V30 9592 H 874.806 2.4141 -4.2065 0
M  V30 9593 H 870.685 3.229 -3.29023 0
M  V30 9594 H 874.229 2.25396 -6.60184 0
M  V30 9595 H 870.126 3.07204 -5.67711 0
M  V30 9596 H 870.894 2.7142 -7.72187 0
M  V30 9597 N 873.557 1.20646 1.01402 0
M  V30 9598 C 874.52 0.959314 2.08158 0
M  V30 9599 C 875.52 -0.0661558 1.60664 0
M  V30 9600 O 876.71 0.170177 1.73367 0
M  V30 9601 C 873.842 0.444785 3.37986 0
M  V30 9602 H 875.035 1.90631 2.31517 0
M  V30 9603 H 872.588 1.02219 1.18241 0
M  V30 9604 H 873.323 -0.507553 3.20304 0
M  V30 9605 H 873.108 1.18435 3.73785 0
M  V30 9606 H 874.598 0.291443 4.16582 0
M  V30 9607 N 875.035 -1.20752 1.01276 0
M  V30 9608 C 875.983 -2.25432 0.572989 0
M  V30 9609 C 876.977 -1.64935 -0.386354 0
M  V30 9610 O 878.183 -1.7816 -0.256696 0
M  V30 9611 H 874.558 -0.733229 0.166972 0
M  V30 9612 H 876.529 -2.59856 1.46687 0
M  V30 9613 C 875.278 -3.47615 -0.0768249 0
M  V30 9614 H 874.601 -3.94442 0.652354 0
M  V30 9615 H 876.041 -4.22572 -0.3477 0
M  V30 9616 C 874.5 -3.1003 -1.31845 0
M  V30 9617 O 875.03 -3.21216 -2.41211 0
M  V30 9618 N 873.236 -2.64616 -1.20111 0
M  V30 9619 H 872.783 -2.55714 -0.311184 0
M  V30 9620 H 872.741 -2.39838 -2.03286 0
M  V30 9621 N 876.513 -0.788492 -1.36457 0
M  V30 9622 C 877.443 -0.200468 -2.32638 0
M  V30 9623 C 878.424 0.664031 -1.56603 0
M  V30 9624 O 879.609 0.598045 -1.84762 0
M  V30 9625 C 876.739 0.666274 -3.40849 0
M  V30 9626 C 875.693 -0.0982574 -4.27887 0
M  V30 9627 C 875.019 0.889018 -5.27258 0
M  V30 9628 C 876.319 -1.28692 -5.06197 0
M  V30 9629 H 878.013 -1.00399 -2.82065 0
M  V30 9630 H 875.559 -0.484237 -1.35614 0
M  V30 9631 H 877.512 1.08757 -4.07124 0
M  V30 9632 H 876.236 1.50249 -2.89987 0
M  V30 9633 H 874.895 -0.500525 -3.63167 0
M  V30 9634 H 874.543 1.72024 -4.7267 0
M  V30 9635 H 874.243 0.381909 -5.86358 0
M  V30 9636 H 875.767 1.30891 -5.96406 0
M  V30 9637 H 877.181 -0.941429 -5.65517 0
M  V30 9638 H 875.578 -1.72726 -5.74705 0
M  V30 9639 H 876.648 -2.08273 -4.37893 0
M  V30 9640 N 877.991 1.48044 -0.54043 0
M  V30 9641 C 879.24 2.01698 -0.00809961 0
M  V30 9642 C 879.553 1.42184 1.34325 0
M  V30 9643 O 880.759 1.87398 1.96454 0
M  V30 9644 C 879.215 3.59882 0.035933 0
M  V30 9645 C 878.823 4.28384 -1.31115 0
M  V30 9646 C 880.567 4.21346 0.51654 0
M  V30 9647 C 878.474 5.78529 -1.22714 0
M  V30 9648 H 877.404 0.754 0.000742174 0
M  V30 9649 H 880.055 1.70204 -0.685775 0
M  V30 9650 H 878.437 3.88264 0.778906 0
M  V30 9651 H 879.611 4.11663 -2.07051 0
M  V30 9652 H 877.926 3.78837 -1.72834 0
M  V30 9653 H 880.523 5.31351 0.597529 0
M  V30 9654 H 880.866 3.87373 1.52473 0
M  V30 9655 H 881.399 3.97432 -0.171064 0
M  V30 9656 H 878.138 6.17093 -2.21081 0
M  V30 9657 H 877.658 5.97634 -0.50931 0
M  V30 9658 H 879.337 6.40395 -0.92216 0
M  V30 9659 N 879.47 0.276058 1.55163 0
M  V30 9660 C 880.718 -0.339782 1.99223 0
M  V30 9661 C 881.039 -1.56307 1.16589 0
M  V30 9662 O 880.309 -1.94225 0.25564 0
M  V30 9663 H 878.889 -0.128534 0.735859 0
M  V30 9664 H 881.551 0.381612 1.91128 0
M  V30 9665 H 880.647 -0.629 3.05696 0
M  V30 9666 N 880.948 -1.576 0.00335426 0
M  V30 9667 C 881.895 -2.08632 -0.986975 0
M  V30 9668 C 882.865 -0.982491 -1.33927 0
M  V30 9669 O 884.05 -1.25513 -1.43705 0
M  V30 9670 C 881.19 -2.59705 -2.27261 0
M  V30 9671 C 880.303 -3.84002 -1.97905 0
M  V30 9672 C 879.438 -4.23563 -3.20574 0
M  V30 9673 C 878.477 -5.40688 -2.8692 0
M  V30 9674 N 877.614 -5.75526 -4.02136 0
M  V30 9675 H 882.454 -2.92977 -0.544855 0
M  V30 9676 H 879.991 -1.44831 -0.257376 0
M  V30 9677 H 881.949 -2.87395 -3.02423 0
M  V30 9678 H 880.579 -1.7823 -2.69136 0
M  V30 9679 H 879.631 -3.63199 -1.13096 0
M  V30 9680 H 880.943 -4.69261 -1.69102 0
M  V30 9681 H 880.097 -4.52554 -4.04079 0
M  V30 9682 H 878.836 -3.37019 -3.52518 0
M  V30 9683 H 877.841 -5.11417 -2.01822 0
M  V30 9684 H 879.066 -6.2891 -2.5622 0
M  V30 9685 H 877.012 -4.9194 -4.33971 0
M  V30 9686 H 876.929 -6.55367 -3.76869 0
M  V30 9687 H 878.197 -6.0911 -4.8642 0
M  V30 9688 N 882.426 0.269451 -1.5528 0
M  V30 9689 C 883.651 1.02299 -1.80415 0
M  V30 9690 C 884.076 1.7902 -0.577363 0
M  V30 9691 O 883.434 1.75018 0.473125 0
M  V30 9692 C 883.482 1.95445 -3.0304 0
M  V30 9693 O 882.586 3.04271 -2.78375 0
M  V30 9694 H 881.927 0.292289 -0.596207 0
M  V30 9695 H 884.457 0.297282 -2.02429 0
M  V30 9696 H 884.467 2.37333 -3.31869 0
M  V30 9697 H 883.142 1.39017 -3.91978 0
M  V30 9698 H 881.719 2.66673 -2.60653 0
M  V30 9699 N 883.904 1.48273 0.534124 0
M  V30 9700 C 885.152 1.55771 1.28762 0
M  V30 9701 C 885.473 0.231575 1.9362 0
M  V30 9702 O 884.743 -0.746533 1.81118 0
M  V30 9703 H 883.323 0.573851 0.47823 0
M  V30 9704 H 885.985 1.84712 0.621888 0
M  V30 9705 H 885.081 2.33657 2.06908 0
M  V30 9706 N 885.382 -0.782676 1.36792 0
M  V30 9707 C 886.61 -1.57162 1.34565 0
M  V30 9708 C 887.025 -1.88664 -0.0715501 0
M  V30 9709 O 886.382 -1.50633 -1.03033 0
M  V30 9710 C 886.433 -2.88854 2.1736 0
M  V30 9711 O 886.154 -2.58707 3.53557 0
M  V30 9712 C 887.655 -3.83132 2.2299 0
M  V30 9713 H 884.875 -0.487245 0.461338 0
M  V30 9714 H 887.419 -0.970905 1.79982 0
M  V30 9715 H 885.574 -3.45377 1.7548 0
M  V30 9716 H 885.988 -3.42961 3.96835 0
M  V30 9717 H 887.462 -4.72575 2.85266 0
M  V30 9718 H 887.939 -4.21472 1.23524 0
M  V30 9719 H 888.545 -3.32541 2.65135 0
M  V30 9720 N 886.86 -1.21182 -1.00761 0
M  V30 9721 C 887.823 -0.970339 -2.07646 0
M  V30 9722 C 888.823 0.0576345 -1.60697 0
M  V30 9723 O 890.013 -0.179369 -1.73274 0
M  V30 9724 C 887.145 -0.462703 -3.37745 0
M  V30 9725 H 888.338 -1.91856 -2.30502 0
M  V30 9726 H 885.891 -1.02844 -1.17698 0
M  V30 9727 H 886.626 0.490559 -3.20568 0
M  V30 9728 H 886.411 -1.20416 -3.73152 0
M  V30 9729 H 887.901 -0.313531 -4.16421 0
M  V30 9730 N 888.338 1.20213 -1.01915 0
M  V30 9731 C 889.248 2.26763 -0.601311 0
M  V30 9732 C 890.264 1.70185 0.362369 0
M  V30 9733 O 891.44 2.00165 0.222682 0
M  V30 9734 C 888.505 3.46662 0.0512879 0
M  V30 9735 C 887.566 4.18459 -0.958659 0
M  V30 9736 C 886.799 5.32634 -0.337107 0
M  V30 9737 O 887.022 5.63841 0.86251 0
M  V30 9738 O 885.956 5.9258 -1.05511 0
M  V30 9739 H 889.782 2.64725 -1.48844 0
M  V30 9740 H 887.367 1.2688 -0.788784 0
M  V30 9741 H 889.249 4.19345 0.41564 0
M  V30 9742 H 887.924 3.1057 0.912572 0
M  V30 9743 H 886.831 3.47937 -1.37442 0
M  V30 9744 H 888.164 4.58498 -1.78999 0
M  V30 9745 N 889.816 0.795718 1.36037 0
M  V30 9746 C 890.746 0.212803 2.32528 0
M  V30 9747 C 891.727 -0.655716 1.56953 0
M  V30 9748 O 892.912 -0.588238 1.85077 0
M  V30 9749 C 890.042 -0.648189 3.41198 0
M  V30 9750 C 888.996 0.120948 4.27829 0
M  V30 9751 C 888.322 -0.861044 5.27722 0
M  V30 9752 C 889.622 1.31375 5.05508 0
M  V30 9753 H 891.316 1.01893 2.81528 0
M  V30 9754 H 888.862 0.491422 1.35355 0
M  V30 9755 H 890.815 -1.06597 4.07695 0
M  V30 9756 H 889.539 -1.48709 2.9078 0
M  V30 9757 H 888.198 0.519777 3.62897 0
M  V30 9758 H 887.846 -1.69515 4.73575 0
M  V30 9759 H 887.546 -0.350808 5.86552 0
M  V30 9760 H 889.07 -1.27726 5.97092 0
M  V30 9761 H 890.484 0.971406 5.6501 0
M  V30 9762 H 888.881 1.75772 5.73781 0
M  V30 9763 H 889.951 2.10593 4.36782 0
M  V30 9764 N 891.294 -1.47756 0.548274 0
M  V30 9765 C 892.241 -2.29893 -0.204408 0
M  V30 9766 C 893.211 -1.38509 -0.916761 0
M  V30 9767 O 894.396 -1.67472 -0.91421 0
M  V30 9768 C 891.536 -3.22282 -1.23403 0
M  V30 9769 C 890.649 -4.28753 -0.528654 0
M  V30 9770 C 889.784 -5.08303 -1.54279 0
M  V30 9771 C 888.823 -6.06557 -0.821893 0
M  V30 9772 N 887.96 -6.79098 -1.78243 0
M  V30 9773 H 892.8 -2.93739 0.502163 0
M  V30 9774 H 890.337 -1.44793 0.259471 0
M  V30 9775 H 892.295 -3.74262 -1.84348 0
M  V30 9776 H 890.925 -2.6032 -1.90875 0
M  V30 9777 H 889.977 -3.79899 0.195132 0
M  V30 9778 H 891.289 -4.98787 0.0365066 0
M  V30 9779 H 890.443 -5.64388 -2.22602 0
M  V30 9780 H 889.182 -4.3815 -2.14186 0
M  V30 9781 H 888.187 -5.49659 -0.12469 0
M  V30 9782 H 889.412 -6.78715 -0.228685 0
M  V30 9783 H 887.358 -6.11682 -2.37025 0
M  V30 9784 H 887.275 -7.4527 -1.26919 0
M  V30 9785 H 888.543 -7.39762 -2.45709 0
M  V30 9786 N 892.772 -0.284283 -1.55015 0
M  V30 9787 C 893.705 0.640779 -2.19019 0
M  V30 9788 C 894.683 1.14541 -1.15409 0
M  V30 9789 O 895.867 1.21669 -1.43975 0
M  V30 9790 C 892.994 1.87488 -2.82074 0
M  V30 9791 C 892.04 1.50494 -3.99066 0
M  V30 9792 S 892.873 0.575218 -5.32402 0
M  V30 9793 C 894.029 1.81749 -5.98931 0
M  V30 9794 H 894.262 0.0969761 -2.97142 0
M  V30 9795 H 891.795 -0.0684929 -1.54248 0
M  V30 9796 H 893.753 2.58319 -3.19032 0
M  V30 9797 H 892.414 2.38984 -2.03828 0
M  V30 9798 H 891.607 2.42349 -4.41908 0
M  V30 9799 H 891.209 0.876741 -3.63578 0
M  V30 9800 H 893.501 2.76026 -6.18721 0
M  V30 9801 H 894.444 1.43192 -6.93471 0
M  V30 9802 H 894.852 1.98661 -5.28388 0
M  V30 9803 N 894.251 1.57596 -0.0117121 0
M  V30 9804 C 895.198 2.09153 0.975897 0
M  V30 9805 C 896.168 0.989579 1.33404 0
M  V30 9806 O 897.353 1.26273 1.43038 0
M  V30 9807 C 894.493 2.60906 2.2588 0
M  V30 9808 C 893.606 3.85046 1.95866 0
M  V30 9809 C 892.741 4.25257 3.18323 0
M  V30 9810 C 891.78 5.42202 2.84049 0
M  V30 9811 N 890.917 5.77651 3.99079 0
M  V30 9812 H 895.757 2.93261 0.52931 0
M  V30 9813 H 893.294 1.44965 0.249691 0
M  V30 9814 H 895.252 2.88995 3.00895 0
M  V30 9815 H 893.882 1.79654 2.68187 0
M  V30 9816 H 892.934 3.63794 1.11168 0
M  V30 9817 H 894.246 4.70151 1.66611 0
M  V30 9818 H 893.4 4.5469 4.01674 0
M  V30 9819 H 892.139 3.38884 3.50726 0
M  V30 9820 H 891.144 5.1248 1.99107 0
M  V30 9821 H 892.369 6.3026 2.52881 0
M  V30 9822 H 890.315 4.94235 4.31356 0
M  V30 9823 H 890.232 6.57356 3.73388 0
M  V30 9824 H 891.5 6.11681 4.83183 0
M  V30 9825 N 895.729 -0.261212 1.5542 0
M  V30 9826 C 896.661 -1.34571 1.85535 0
M  V30 9827 C 897.674 -1.44979 0.740612 0
M  V30 9828 O 898.863 -1.46584 1.01859 0
M  V30 9829 C 895.963 -2.7258 2.01378 0
M  V30 9830 C 895.136 -2.84618 3.32131 0
M  V30 9831 C 894.195 -4.03379 3.37893 0
M  V30 9832 O 893.221 -3.93581 4.11197 0
M  V30 9833 N 894.423 -5.15893 2.66148 0
M  V30 9834 H 897.188 -1.09078 2.79145 0
M  V30 9835 H 894.749 -0.451327 1.55482 0
M  V30 9836 H 896.741 -3.50342 2.0259 0
M  V30 9837 H 895.311 -2.90844 1.14579 0
M  V30 9838 H 894.531 -1.93647 3.43358 0
M  V30 9839 H 895.819 -2.896 4.18341 0
M  V30 9840 H 895.217 -5.26743 2.06297 0
M  V30 9841 H 893.774 -5.91842 2.73069 0
M  V30 9842 N 897.207 -1.48554 -0.526253 0
M  V30 9843 C 898.455 -1.56452 -1.27935 0
M  V30 9844 C 898.776 -0.24184 -1.93495 0
M  V30 9845 O 898.046 0.736917 -1.81511 0
M  V30 9846 H 896.626 -0.576379 -0.47518 0
M  V30 9847 H 899.288 -1.85039 -0.612083 0
M  V30 9848 H 898.384 -2.34751 -2.05666 0
M  V30 9849 N 898.685 0.775411 -1.37205 0
M  V30 9850 C 899.595 1.91967 -1.34855 0
M  V30 9851 C 900.611 1.72214 -0.248656 0
M  V30 9852 O 901.787 1.95512 -0.483421 0
M  V30 9853 C 898.852 3.27038 -1.15096 0
M  V30 9854 C 897.913 3.5947 -2.34691 0
M  V30 9855 C 897.146 4.88097 -2.15865 0
M  V30 9856 O 897.369 5.58871 -1.14102 0
M  V30 9857 O 896.303 5.19507 -3.03967 0
M  V30 9858 H 900.129 1.969 -2.31223 0
M  V30 9859 H 897.714 0.917647 -1.17897 0
M  V30 9860 H 899.596 4.07837 -1.0605 0
M  V30 9861 H 898.271 3.22965 -0.217999 0
M  V30 9862 H 897.178 2.7892 -2.49308 0
M  V30 9863 H 898.511 3.68282 -3.26541 0
M  V30 9864 N 900.163 1.21714 1.00117 0
M  V30 9865 C 901.388 1.06357 1.78054 0
M  V30 9866 C 901.813 -0.382075 1.84179 0
M  V30 9867 O 901.171 -1.27575 1.28819 0
M  V30 9868 C 901.219 1.66982 3.19608 0
M  V30 9869 O 900.323 0.917892 4.02055 0
M  V30 9870 H 899.664 0.374074 0.548602 0
M  V30 9871 H 902.194 1.61338 1.25822 0
M  V30 9872 H 902.204 1.71363 3.70268 0
M  V30 9873 H 900.879 2.72185 3.14465 0
M  V30 9874 H 899.456 0.949473 3.6061 0
M  V30 9875 N 901.641 -1.19671 1.02551 0
M  V30 9876 C 902.889 -1.88894 0.71858 0
M  V30 9877 C 903.21 -1.79797 -0.754856 0
M  V30 9878 O 902.48 -1.20621 -1.54362 0
M  V30 9879 H 901.06 -0.699244 0.262806 0
M  V30 9880 H 903.722 -1.45298 1.29902 0
M  V30 9881 H 902.818 -2.95309 1.00989 0
M  V30 9882 N 903.119 -0.802921 -1.35613 0
M  V30 9883 C 904.535 -0.486214 -1.52014 0
M  V30 9884 C 904.735 0.993219 -1.75321 0
M  V30 9885 O 903.791 1.77835 -1.79251 0
M  V30 9886 C 905.104 -1.32839 -2.69767 0
M  V30 9887 C 906.652 -1.32346 -2.83643 0
M  V30 9888 C 907.127 -2.14967 -4.04417 0
M  V30 9889 N 908.618 -2.12484 -4.11588 0
M  V30 9890 C 909.353 -2.73173 -5.04147 0
M  V30 9891 N 908.849 -3.42774 -6.02061 0
M  V30 9892 N 910.642 -2.62834 -4.96865 0
M  V30 9893 H 902.793 -1.76109 -1.18741 0
M  V30 9894 H 905.056 -0.74936 -0.580658 0
M  V30 9895 H 904.762 -2.37813 -2.5911 0
M  V30 9896 H 904.636 -0.979058 -3.64272 0
M  V30 9897 H 907.023 -0.281586 -2.93753 0
M  V30 9898 H 907.104 -1.71264 -1.90006 0
M  V30 9899 H 906.748 -3.19193 -3.95068 0
M  V30 9900 H 906.678 -1.73411 -4.97228 0
M  V30 9901 H 909.169 -1.61839 -3.41492 0
M  V30 9902 H 909.482 -3.86378 -6.69277 0
M  V30 9903 H 907.827 -3.46878 -6.02246 0
M  V30 9904 H 911.018 -2.08049 -4.19325 0
M  V30 9905 H 911.191 -3.10421 -5.68808 0
M  V30 9906 N 904.597 1.47463 -0.556102 0
M  V30 9907 C 905.529 2.28046 0.22968 0
M  V30 9908 C 906.542 1.3694 0.880409 0
M  V30 9909 O 907.731 1.61773 0.754447 0
M  V30 9910 C 904.831 3.11165 1.34273 0
M  V30 9911 C 904.004 4.30225 0.789004 0
M  V30 9912 C 903.063 4.94948 1.78641 0
M  V30 9913 O 902.089 5.53372 1.33297 0
M  V30 9914 N 903.291 4.89543 3.11974 0
M  V30 9915 H 906.056 2.96125 -0.461558 0
M  V30 9916 H 903.617 1.5708 -0.392105 0
M  V30 9917 H 905.609 3.51331 2.00869 0
M  V30 9918 H 904.179 2.45337 1.93722 0
M  V30 9919 H 903.399 3.94163 -0.0536971 0
M  V30 9920 H 904.687 5.07238 0.398378 0
M  V30 9921 H 904.085 4.43275 3.51459 0
M  V30 9922 H 902.642 5.33732 3.74131 0
M  V30 9923 N 906.075 0.2925 1.54862 0
M  V30 9924 C 907.324 -0.319994 1.99146 0
M  V30 9925 C 907.637 -1.55658 1.18448 0
M  V30 9926 O 908.843 -2.24312 1.52959 0
M  V30 9927 C 907.299 -0.620665 3.54508 0
M  V30 9928 C 906.907 0.597098 4.44003 0
M  V30 9929 C 908.651 -1.19482 4.07338 0
M  V30 9930 C 906.558 0.270049 5.90783 0
M  V30 9931 H 905.488 -0.123342 0.743843 0
M  V30 9932 H 908.139 0.399876 1.7909 0
M  V30 9933 H 906.521 -1.3999 3.7043 0
M  V30 9934 H 907.695 1.37354 4.39853 0
M  V30 9935 H 906.01 1.0893 4.019 0
M  V30 9936 H 908.607 -1.45362 5.14562 0
M  V30 9937 H 908.95 -2.13435 3.57423 0
M  V30 9938 H 909.483 -0.477485 3.94924 0
M  V30 9939 H 906.222 1.17791 6.4483 0
M  V30 9940 H 905.742 -0.469292 5.97961 0
M  V30 9941 H 907.421 -0.131471 6.46866 0
M  V30 9942 N 907.553 -1.57587 0.0200696 0
M  V30 9943 C 908.801 -1.91046 -0.65922 0
M  V30 9944 C 909.122 -0.896197 -1.73186 0
M  V30 9945 O 908.392 0.0635952 -1.95797 0
M  V30 9946 H 906.972 -0.705163 -0.246483 0
M  V30 9947 H 909.634 -1.94789 0.0657368 0
M  V30 9948 H 908.73 -2.91399 -1.11773 0
M  V30 9949 N 909.032 0.252966 -1.55557 0
M  V30 9950 C 910.278 0.979092 -1.78284 0
M  V30 9951 C 910.633 1.83194 -0.588009 0
M  V30 9952 O 909.926 1.86965 0.418899 0
M  V30 9953 C 910.12 1.87785 -3.04091 0
M  V30 9954 C 909.949 1.11349 -4.35697 0
M  V30 9955 C 908.719 0.821038 -4.98585 0
M  V30 9956 C 910.917 0.494039 -5.11922 0
M  V30 9957 N 908.899 0.0319767 -6.13892 0
M  V30 9958 C 910.27 -0.159888 -6.19794 0
M  V30 9959 C 912.325 0.403894 -4.96259 0
M  V30 9960 C 911.028 -0.895295 -7.13706 0
M  V30 9961 C 913.054 -0.317968 -5.90545 0
M  V30 9962 C 912.416 -0.960555 -6.9782 0
M  V30 9963 H 908.515 0.339586 -0.704419 0
M  V30 9964 H 911.099 0.252801 -1.93052 0
M  V30 9965 H 909.27 2.57623 -2.90663 0
M  V30 9966 H 911.002 2.53908 -3.15139 0
M  V30 9967 H 907.757 1.13132 -4.59889 0
M  V30 9968 H 908.181 -0.35047 -6.76092 0
M  V30 9969 H 912.823 0.886366 -4.13405 0
M  V30 9970 H 910.541 -1.38939 -7.96066 0
M  V30 9971 H 914.127 -0.388302 -5.80503 0
M  V30 9972 H 913.007 -1.51022 -7.69521 0
M  V30 9973 N 910.51 1.48831 0.518367 0
M  V30 9974 C 911.757 1.57439 1.27355 0
M  V30 9975 C 912.085 0.25338 1.92843 0
M  V30 9976 O 911.34 -0.757323 1.80452 0
M  V30 9977 C 911.639 2.67003 2.3758 0
M  V30 9978 C 911.305 4.09069 1.89667 0
M  V30 9979 C 909.967 4.47733 1.76319 0
M  V30 9980 C 912.319 4.98052 1.53603 0
M  V30 9981 C 909.647 5.73173 1.25258 0
M  V30 9982 C 911.999 6.23992 1.04001 0
M  V30 9983 C 910.663 6.61503 0.892784 0
M  V30 9984 H 909.933 0.57611 0.466023 0
M  V30 9985 H 912.58 1.82595 0.577166 0
M  V30 9986 H 910.885 2.35751 3.12936 0
M  V30 9987 H 912.582 2.70876 2.95681 0
M  V30 9988 H 909.172 3.7854 2.01011 0
M  V30 9989 H 913.356 4.68849 1.62771 0
M  V30 9990 H 908.612 6.0095 1.12557 0
M  V30 9991 H 912.786 6.92331 0.751706 0
M  V30 9992 H 910.413 7.58587 0.494939 0
M  V30 9993 N 911.988 -0.768124 1.37614 0
M  V30 9994 C 913.237 -1.5221 1.32345 0
M  V30 9995 C 913.55 -1.95399 -0.0885761 0
M  V30 9996 O 914.756 -2.70216 -0.263752 0
M  V30 9997 C 913.212 -2.74872 2.32322 0
M  V30 9998 C 912.82 -2.38767 3.79071 0
M  V30 9999 C 914.564 -3.52805 2.36069 0
M  V30 10000 C 912.471 -3.57953 4.7077 0
M  V30 10001 H 911.401 -0.571461 0.491883 0
M  V30 10002 H 914.052 -0.841004 1.63093 0
M  V30 10003 H 912.434 -3.44889 1.94596 0
M  V30 10004 H 913.608 -1.7651 4.25654 0
M  V30 10005 H 911.923 -1.74 3.78303 0
M  V30 10006 H 914.52 -4.41397 3.01782 0
M  V30 10007 H 914.863 -3.92925 1.37535 0
M  V30 10008 H 915.396 -2.89788 2.72521 0
M  V30 10009 H 912.135 -3.22911 5.70446 0
M  V30 10010 H 911.655 -4.19302 4.28889 0
M  V30 10011 H 913.334 -4.2472 4.8808 0
M  V30 10012 N 913.466 -1.22244 -0.994698 0
M  V30 10013 C 914.691 -1.07299 -1.77487 0
M  V30 10014 C 915.116 0.372302 -1.84379 0
M  V30 10015 O 914.474 1.2689 -1.29494 0
M  V30 10016 C 914.522 -1.68675 -3.18718 0
M  V30 10017 O 913.626 -0.939202 -4.01563 0
M  V30 10018 H 912.967 -0.376979 -0.546611 0
M  V30 10019 H 915.497 -1.62003 -1.24965 0
M  V30 10020 H 915.507 -1.73324 -3.69354 0
M  V30 10021 H 914.182 -2.73849 -3.13017 0
M  V30 10022 H 912.759 -0.968583 -3.60101 0
M  V30 10023 N 914.944 1.19125 -1.03184 0
M  V30 10024 C 916.174 1.92558 -0.748663 0
M  V30 10025 C 916.582 1.759 0.696837 0
M  V30 10026 O 915.925 1.08019 1.48585 0
M  V30 10027 C 915.987 3.4461 -1.02391 0
M  V30 10028 C 915.651 3.85041 -2.46155 0
M  V30 10029 C 916.648 3.89554 -3.44302 0
M  V30 10030 C 914.333 4.16594 -2.80633 0
M  V30 10031 C 916.327 4.25055 -4.74981 0
M  V30 10032 C 914.014 4.51767 -4.11521 0
M  V30 10033 C 915.012 4.55972 -5.08506 0
M  V30 10034 O 914.7 4.9033 -6.37049 0
M  V30 10035 H 914.432 0.618397 -0.273059 0
M  V30 10036 H 916.986 1.52122 -1.38015 0
M  V30 10037 H 915.216 3.85244 -0.335284 0
M  V30 10038 H 916.905 3.99283 -0.729927 0
M  V30 10039 H 917.671 3.65324 -3.19003 0
M  V30 10040 H 913.55 4.12503 -2.05821 0
M  V30 10041 H 917.094 4.28252 -5.50678 0
M  V30 10042 H 912.991 4.75455 -4.36592 0
M  V30 10043 H 913.759 5.08266 -6.41566 0
M  V30 10044 N 916.422 0.810101 1.35185 0
M  V30 10045 C 917.699 0.315235 1.93043 0
M  V30 10046 C 918.079 -1.19567 1.73974 0
M  V30 10047 O 917.427 -1.99682 1.11083 0
M  V30 10048 C 917.637 0.730492 3.41269 0
M  V30 10049 C 918.985 0.721985 4.18417 0
M  V30 10050 O 920.009 0.672258 3.49799 0
M  V30 10051 O 918.868 0.783535 5.40854 0
M  V30 10052 H 915.962 0.0832774 0.822796 0
M  V30 10053 H 918.508 0.894034 1.4424 0
M  V30 10054 H 917.28 1.77169 3.48894 0
M  V30 10055 H 916.903 0.12669 3.97398 0
M  V30 10056 N 917.9 -1.47166 0.563914 0
M  V30 10057 C 918.847 -2.30097 -0.180013 0
M  V30 10058 C 919.817 -1.39473 -0.902019 0
M  V30 10059 O 921.002 -1.68432 -0.896396 0
M  V30 10060 C 918.142 -3.23573 -1.19978 0
M  V30 10061 C 917.255 -4.2929 -0.483149 0
M  V30 10062 C 916.39 -5.0991 -1.48879 0
M  V30 10063 C 915.429 -6.07395 -0.757513 0
M  V30 10064 N 914.566 -6.8095 -1.71031 0
M  V30 10065 H 919.406 -2.93189 0.53329 0
M  V30 10066 H 916.943 -1.4451 0.274814 0
M  V30 10067 H 918.901 -3.76196 -1.80368 0
M  V30 10068 H 917.531 -2.6233 -1.88103 0
M  V30 10069 H 916.583 -3.79671 0.235414 0
M  V30 10070 H 917.895 -4.9872 0.0894075 0
M  V30 10071 H 917.049 -5.66717 -2.16603 0
M  V30 10072 H 915.788 -4.40397 -2.09527 0
M  V30 10073 H 914.793 -5.4976 -0.0663841 0
M  V30 10074 H 916.018 -6.78919 -0.156685 0
M  V30 10075 H 913.964 -6.14162 -2.30524 0
M  V30 10076 H 913.881 -7.46574 -1.19007 0
M  V30 10077 H 915.149 -7.42326 -2.37849 0
M  V30 10078 N 919.378 -0.300708 -1.54705 0
M  V30 10079 C 920.655 0.361757 -1.92226 0
M  V30 10080 C 921.035 1.71714 -1.2279 0
M  V30 10081 O 920.383 2.2559 -0.363542 0
M  V30 10082 C 920.593 0.476699 -3.45729 0
M  V30 10083 C 921.941 0.7477 -4.17965 0
M  V30 10084 O 922.965 0.560521 -3.51762 0
M  V30 10085 O 921.824 1.10724 -5.35166 0
M  V30 10086 H 918.918 0.202213 -0.801897 0
M  V30 10087 H 921.464 -0.348746 -1.66078 0
M  V30 10088 H 920.236 -0.476132 -3.88392 0
M  V30 10089 H 919.859 1.23568 -3.77911 0
M  V30 10090 N 920.856 1.57574 -0.0284266 0
M  V30 10091 C 921.804 2.11332 0.971675 0
M  V30 10092 C 922.798 1.03974 1.33738 0
M  V30 10093 O 924.004 1.22409 1.31969 0
M  V30 10094 H 920.379 0.675174 0.331125 0
M  V30 10095 H 922.35 2.943 0.49296 0
M  V30 10096 C 921.099 2.65496 2.24516 0
M  V30 10097 H 920.422 3.47753 1.9725 0
M  V30 10098 H 921.862 3.06757 2.92705 0
M  V30 10099 C 920.321 1.58207 2.97443 0
M  V30 10100 O 920.851 0.981496 3.89525 0
M  V30 10101 N 919.057 1.30269 2.59766 0
M  V30 10102 H 918.604 1.79294 1.84963 0
M  V30 10103 H 918.562 0.587085 3.0887 0
M  V30 10104 N 922.334 -0.244713 1.55689 0
M  V30 10105 C 923.745 -0.813603 1.6804 0
M  V30 10106 C 924.096 -1.85936 0.626281 0
M  V30 10107 O 923.221 -2.15206 -0.227038 0
M  V30 10108 C 923.816 -1.48252 3.04642 0
M  V30 10109 C 922.375 -1.99908 3.18926 0
M  V30 10110 C 921.522 -0.850958 2.6392 0
M  V30 10111 H 924.473 -0.0204805 1.58687 0
M  V30 10112 H 924.494 -2.35062 2.99209 0
M  V30 10113 H 924.006 -0.721164 3.81341 0
M  V30 10114 H 922.107 -2.78918 2.47054 0
M  V30 10115 H 922.22 -2.19497 4.25862 0
M  V30 10116 H 920.584 -1.25206 2.21801 0
M  V30 10117 H 921.367 -0.10265 3.43146 0
M  V30 10118 N 923.813 -1.49104 -0.510467 0
M  V30 10119 C 924.761 -1.65547 -1.63392 0
M  V30 10120 C 925.755 -0.521522 -1.61172 0
M  V30 10121 O 926.961 -0.700865 -1.65795 0
M  V30 10122 H 923.336 -0.521843 -0.541464 0
M  V30 10123 H 925.307 -2.59864 -1.46673 0
M  V30 10124 C 924.056 -1.73051 -3.01577 0
M  V30 10125 H 923.379 -2.59676 -3.03987 0
M  V30 10126 H 924.819 -1.88594 -3.79748 0
M  V30 10127 C 923.278 -0.47328 -3.33559 0
M  V30 10128 O 923.808 0.405239 -3.99651 0
M  V30 10129 N 922.014 -0.339074 -2.88615 0
M  V30 10130 H 921.561 -1.05497 -2.35007 0
M  V30 10131 H 921.519 0.501061 -3.10382 0
M  V30 10132 N 925.291 0.760815 -1.38019 0
M  V30 10133 C 926.224 1.88212 -1.2904 0
M  V30 10134 C 927.202 1.61721 -0.168805 0
M  V30 10135 O 928.386 1.85318 -0.344893 0
M  V30 10136 C 925.513 3.23672 -0.997702 0
M  V30 10137 C 924.559 3.6906 -2.13769 0
M  V30 10138 S 925.392 3.81445 -3.75845 0
M  V30 10139 C 926.548 5.19736 -3.48748 0
M  V30 10140 H 926.781 1.95541 -2.23944 0
M  V30 10141 H 924.314 0.923051 -1.2377 0
M  V30 10142 H 926.272 4.01904 -0.835657 0
M  V30 10143 H 924.933 3.14031 -0.065967 0
M  V30 10144 H 924.126 4.67295 -1.88816 0
M  V30 10145 H 923.728 2.97961 -2.26043 0
M  V30 10146 H 926.02 6.05259 -3.04414 0
M  V30 10147 H 926.963 5.49706 -4.46351 0
M  V30 10148 H 927.371 4.88191 -2.83425 0
M  V30 10149 N 926.769 1.22769 0.988202 0
M  V30 10150 C 927.702 0.945196 2.07705 0
M  V30 10151 C 928.68 -0.11363 1.62202 0
M  V30 10152 O 929.864 0.0189624 1.8849 0
M  V30 10153 C 926.991 0.422474 3.36055 0
M  V30 10154 C 926.037 1.4667 4.00487 0
M  V30 10155 S 926.87 3.04158 4.40736 0
M  V30 10156 C 928.026 2.53536 5.7225 0
M  V30 10157 H 928.259 1.86723 2.31348 0
M  V30 10158 H 925.792 1.05928 1.12333 0
M  V30 10159 H 927.75 0.12748 4.10302 0
M  V30 10160 H 926.411 -0.478515 3.10434 0
M  V30 10161 H 925.604 1.05093 4.92921 0
M  V30 10162 H 925.206 1.71064 3.32585 0
M  V30 10163 H 927.498 1.95069 6.4881 0
M  V30 10164 H 928.441 3.44479 6.1866 0
M  V30 10165 H 928.849 1.94658 5.29876 0
M  V30 10166 N 928.247 -1.18576 1.03814 0
M  V30 10167 C 929.18 -2.20929 0.571463 0
M  V30 10168 C 930.158 -1.57788 -0.392636 0
M  V30 10169 O 931.342 -1.85974 -0.30754 0
M  V30 10170 C 928.469 -3.38295 -0.165504 0
M  V30 10171 C 927.515 -4.19828 0.751457 0
M  V30 10172 S 928.348 -4.86725 2.23291 0
M  V30 10173 C 929.504 -6.07494 1.50672 0
M  V30 10174 H 929.737 -2.60173 1.43866 0
M  V30 10175 H 927.27 -1.2897 0.84888 0
M  V30 10176 H 929.228 -4.06317 -0.584545 0
M  V30 10177 H 927.889 -2.97468 -1.00855 0
M  V30 10178 H 927.082 -5.03671 0.181986 0
M  V30 10179 H 926.684 -3.57172 1.10923 0
M  V30 10180 H 928.976 -6.72779 0.798377 0
M  V30 10181 H 929.919 -6.68942 2.3221 0
M  V30 10182 H 930.327 -5.55569 1.00016 0
M  V30 10183 N 929.725 -0.817259 -1.34754 0
M  V30 10184 C 930.688 -0.240611 -2.27934 0
M  V30 10185 C 931.688 0.578219 -1.50044 0
M  V30 10186 O 932.878 0.395148 -1.69659 0
M  V30 10187 C 930.01 0.663318 -3.34384 0
M  V30 10188 H 931.203 -1.06257 -2.80445 0
M  V30 10189 H 928.756 -0.588697 -1.4479 0
M  V30 10190 H 929.491 1.50855 -2.87077 0
M  V30 10191 H 929.276 0.0777388 -3.92023 0
M  V30 10192 H 930.766 1.06076 -4.03903 0
M  V30 10193 N 931.203 1.46865 -0.571711 0
M  V30 10194 C 932.452 2.01636 -0.050881 0
M  V30 10195 C 932.765 1.45001 1.31279 0
M  V30 10196 O 933.971 1.91523 1.92435 0
M  V30 10197 C 932.427 3.59877 -0.0404114 0
M  V30 10198 C 932.035 4.25506 -1.40172 0
M  V30 10199 C 933.779 4.22346 0.42705 0
M  V30 10200 C 931.686 5.75795 -1.34958 0
M  V30 10201 H 930.616 0.753846 -0.0152514 0
M  V30 10202 H 933.267 1.68711 -0.721723 0
M  V30 10203 H 931.649 3.89829 0.696374 0
M  V30 10204 H 932.823 4.07178 -2.15737 0
M  V30 10205 H 931.138 3.75086 -1.8083 0
M  V30 10206 H 933.735 5.32499 0.484688 0
M  V30 10207 H 934.078 3.9052 1.44222 0
M  V30 10208 H 934.611 3.9698 -0.255326 0
M  V30 10209 H 931.35 6.12265 -2.3412 0
M  V30 10210 H 930.87 5.96419 -0.635962 0
M  V30 10211 H 932.549 6.38294 -1.05779 0
M  V30 10212 N 932.681 0.308908 1.54543 0
M  V30 10213 C 933.629 -0.579326 2.2527 0
M  V30 10214 C 934.623 -1.13058 1.26152 0
M  V30 10215 O 935.829 -1.08031 1.43977 0
M  V30 10216 H 932.204 -0.205444 0.723392 0
M  V30 10217 H 934.175 0.0396415 2.98374 0
M  V30 10218 C 932.924 -1.73584 3.01271 0
M  V30 10219 H 932.247 -1.32089 3.77349 0
M  V30 10220 H 933.687 -2.33324 3.54028 0
M  V30 10221 C 932.146 -2.6447 2.08703 0
M  V30 10222 O 932.676 -3.65785 1.66025 0
M  V30 10223 N 930.882 -2.32379 1.74495 0
M  V30 10224 H 930.429 -1.50034 2.09398 0
M  V30 10225 H 930.387 -2.93454 1.12836 0
M  V30 10226 N 934.159 -1.57557 0.0367827 0
M  V30 10227 C 935.405 -1.92399 -0.641133 0
M  V30 10228 C 935.738 -0.914191 -1.71336 0
M  V30 10229 O 935.013 0.0619616 -1.94401 0
M  V30 10230 C 935.296 -3.37689 -1.25052 0
M  V30 10231 C 935.149 -4.4941 -0.187326 0
M  V30 10232 C 936.468 -3.8309 -2.16634 0
M  V30 10233 H 933.587 -0.699666 -0.231597 0
M  V30 10234 H 936.229 -1.89759 0.0956083 0
M  V30 10235 H 934.379 -3.40069 -1.87843 0
M  V30 10236 H 936.051 -4.59161 0.443736 0
M  V30 10237 H 934.294 -4.31065 0.486313 0
M  V30 10238 H 934.965 -5.48119 -0.653459 0
M  V30 10239 H 937.441 -3.82494 -1.63821 0
M  V30 10240 H 936.317 -4.85429 -2.56222 0
M  V30 10241 H 936.578 -3.19028 -3.06062 0
M  V30 10242 N 935.637 0.236453 -1.55816 0
M  V30 10243 C 936.584 1.29289 -1.91188 0
M  V30 10244 C 937.554 1.47315 -0.767301 0
M  V30 10245 O 938.739 1.61128 -1.02189 0
M  V30 10246 C 935.879 2.64126 -2.22107 0
M  V30 10247 C 934.992 2.54022 -3.49423 0
M  V30 10248 C 934.127 3.81282 -3.69861 0
M  V30 10249 C 933.166 3.65839 -4.90743 0
M  V30 10250 N 932.303 4.85014 -5.07647 0
M  V30 10251 H 937.143 0.98424 -2.81277 0
M  V30 10252 H 934.68 0.474722 -1.39229 0
M  V30 10253 H 936.638 3.42626 -2.3804 0
M  V30 10254 H 935.268 2.93118 -1.35209 0
M  V30 10255 H 934.32 1.67036 -3.41765 0
M  V30 10256 H 935.632 2.38525 -4.38072 0
M  V30 10257 H 934.786 4.68226 -3.8581 0
M  V30 10258 H 933.525 3.99688 -2.79465 0
M  V30 10259 H 932.53 2.77279 -4.74759 0
M  V30 10260 H 933.755 3.48918 -5.82609 0
M  V30 10261 H 931.701 5.03762 -4.20191 0
M  V30 10262 H 931.618 4.72188 -5.90402 0
M  V30 10263 H 932.886 5.73427 -5.28017 0
M  V30 10264 N 937.115 1.49373 0.502552 0
M  V30 10265 C 938.392 1.49282 1.26389 0
M  V30 10266 C 938.772 0.219674 2.09954 0
M  V30 10267 O 938.12 -0.797991 2.14113 0
M  V30 10268 C 938.33 2.77083 2.12194 0
M  V30 10269 C 939.678 3.26511 2.71433 0
M  V30 10270 O 940.702 2.78189 2.22462 0
M  V30 10271 O 939.561 4.10665 3.60578 0
M  V30 10272 H 936.655 0.597415 0.57186 0
M  V30 10273 H 939.201 1.61634 0.516951 0
M  V30 10274 H 937.973 3.61237 1.50411 0
M  V30 10275 H 937.596 2.67583 2.94084 0
M  V30 10276 N 938.594 -0.753485 1.38421 0
M  V30 10277 C 939.84 -1.51485 1.34834 0
M  V30 10278 C 940.173 -1.94102 -0.0615381 0
M  V30 10279 O 939.448 -1.65439 -1.02274 0
M  V30 10280 C 939.731 -2.76736 2.30411 0
M  V30 10281 C 939.584 -2.40256 3.80259 0
M  V30 10282 C 940.903 -3.7876 2.24119 0
M  V30 10283 H 938.022 -0.549534 0.491102 0
M  V30 10284 H 940.664 -0.863006 1.6927 0
M  V30 10285 H 938.814 -3.32357 2.01175 0
M  V30 10286 H 940.486 -1.90409 4.20169 0
M  V30 10287 H 938.729 -1.72714 3.97935 0
M  V30 10288 H 939.4 -3.29869 4.42595 0
M  V30 10289 H 941.876 -3.32679 2.49928 0
M  V30 10290 H 940.752 -4.64092 2.93104 0
M  V30 10291 H 941.013 -4.24352 1.24006 0
M  V30 10292 N 940.072 -1.23292 -0.981677 0
M  V30 10293 C 941.004 -0.970782 -2.07626 0
M  V30 10294 C 942.017 0.0547506 -1.62708 0
M  V30 10295 O 943.206 -0.180623 -1.77584 0
M  V30 10296 C 940.306 -0.44055 -3.36024 0
M  V30 10297 C 939.479 -1.52595 -4.09919 0
M  V30 10298 C 938.538 -1.00082 -5.16595 0
M  V30 10299 O 937.564 -1.68951 -5.43548 0
M  V30 10300 N 938.766 0.172017 -5.80245 0
M  V30 10301 H 941.531 -1.91316 -2.30691 0
M  V30 10302 H 939.092 -1.14133 -1.14828 0
M  V30 10303 H 941.084 -0.0743111 -4.04632 0
M  V30 10304 H 939.654 0.407211 -3.09936 0
M  V30 10305 H 938.874 -2.06501 -3.35784 0
M  V30 10306 H 940.162 -2.2559 -4.56055 0
M  V30 10307 H 939.56 0.748129 -5.60731 0
M  V30 10308 H 938.117 0.479532 -6.50034 0
M  V30 10309 N 941.55 1.18024 -1.04442 0
M  V30 10310 C 942.827 1.8398 -0.664125 0
M  V30 10311 C 943.207 1.92961 0.856116 0
M  V30 10312 O 942.555 1.45839 1.75907 0
M  V30 10313 C 942.765 3.22069 -1.34433 0
M  V30 10314 C 944.113 3.98063 -1.47754 0
M  V30 10315 O 945.137 3.31523 -1.30274 0
M  V30 10316 O 943.996 5.17291 -1.76272 0
M  V30 10317 H 941.09 0.793543 -0.23285 0
M  V30 10318 H 943.636 1.25385 -1.14354 0
M  V30 10319 H 942.408 3.10458 -2.38184 0
M  V30 10320 H 942.031 3.88325 -0.853782 0
M  V30 10321 N 943.028 0.824394 1.34319 0
M  V30 10322 C 943.975 0.245282 2.29493 0
M  V30 10323 C 944.945 -0.630762 1.53657 0
M  V30 10324 O 946.13 -0.572094 1.82021 0
M  V30 10325 C 943.27 -0.585631 3.40095 0
M  V30 10326 C 942.383 0.312821 4.30866 0
M  V30 10327 C 941.518 -0.527801 5.28571 0
M  V30 10328 C 940.557 0.369946 6.10981 0
M  V30 10329 N 939.694 -0.43169 7.00772 0
M  V30 10330 H 944.534 1.06225 2.78425 0
M  V30 10331 H 942.071 0.53533 1.37013 0
M  V30 10332 H 944.029 -1.08271 4.02906 0
M  V30 10333 H 942.659 -1.3677 2.92393 0
M  V30 10334 H 941.711 0.928129 3.68904 0
M  V30 10335 H 943.023 1.00306 4.8861 0
M  V30 10336 H 942.177 -1.0893 5.96841 0
M  V30 10337 H 940.916 -1.25154 4.71368 0
M  V30 10338 H 939.921 0.943577 5.41643 0
M  V30 10339 H 941.146 1.09182 6.70266 0
M  V30 10340 H 939.092 -1.13908 6.46035 0
M  V30 10341 H 939.009 0.200133 7.55735 0
M  V30 10342 H 940.277 -0.975894 7.73367 0
M  V30 10343 N 944.506 -1.46559 0.579492 0
M  V30 10344 C 945.754 -2.02 0.0637157 0
M  V30 10345 C 946.075 -1.45378 -1.29962 0
M  V30 10346 O 945.345 -0.637262 -1.85245 0
M  V30 10347 H 943.925 -0.746717 0.0205638 0
M  V30 10348 H 946.587 -1.79702 0.754544 0
M  V30 10349 H 945.683 -3.12099 -0.00770254 0
M  V30 10350 N 945.984 -0.3171 -1.54377 0
M  V30 10351 C 946.917 0.594178 -2.20329 0
M  V30 10352 C 947.895 1.12067 -1.17812 0
M  V30 10353 O 949.079 1.18588 -1.46524 0
M  V30 10354 C 946.206 1.81463 -2.85987 0
M  V30 10355 C 945.252 1.41996 -4.02168 0
M  V30 10356 S 946.085 0.462159 -5.33502 0
M  V30 10357 C 947.241 1.69004 -6.02651 0
M  V30 10358 H 947.474 0.0339261 -2.97281 0
M  V30 10359 H 945.007 -0.101196 -1.54068 0
M  V30 10360 H 946.965 2.51494 -3.2444 0
M  V30 10361 H 945.626 2.34606 -2.08851 0
M  V30 10362 H 944.819 2.32921 -4.4695 0
M  V30 10363 H 944.421 0.799423 -3.65356 0
M  V30 10364 H 946.713 2.62839 -6.24437 0
M  V30 10365 H 947.656 1.28451 -6.96352 0
M  V30 10366 H 948.064 1.87408 -5.32483 0
M  V30 10367 N 947.462 1.57535 -0.0451378 0
M  V30 10368 C 948.425 2.1008 0.916461 0
M  V30 10369 C 949.425 1.01913 1.2438 0
M  V30 10370 O 950.615 1.2801 1.18148 0
M  V30 10371 C 947.747 2.58001 2.22818 0
M  V30 10372 H 948.94 2.96334 0.461076 0
M  V30 10373 H 946.493 1.54974 0.203169 0
M  V30 10374 H 947.228 1.75123 2.72951 0
M  V30 10375 H 947.013 3.3704 2.00366 0
M  V30 10376 H 948.503 2.98822 2.9171 0
M  V30 10377 N 948.94 -0.228186 1.55939 0
M  V30 10378 C 950.165 -0.974795 1.83064 0
M  V30 10379 C 950.59 -1.77426 0.624624 0
M  V30 10380 O 949.948 -1.76211 -0.426556 0
M  V30 10381 C 949.996 -1.87342 3.08116 0
M  V30 10382 O 949.1 -2.96784 2.86344 0
M  V30 10383 H 948.441 -0.276379 0.603747 0
M  V30 10384 H 950.971 -0.243507 2.03146 0
M  V30 10385 H 950.981 -2.28451 3.38045 0
M  V30 10386 H 949.656 -1.28575 3.95526 0
M  V30 10387 H 948.233 -2.59669 2.67631 0
M  V30 10388 N 950.418 -1.49637 -0.494624 0
M  V30 10389 C 951.648 -1.62928 -1.27036 0
M  V30 10390 C 952.056 -0.302464 -1.86767 0
M  V30 10391 O 951.399 0.722878 -1.68879 0
M  V30 10392 C 951.461 -2.64449 -2.43531 0
M  V30 10393 C 951.125 -4.08632 -2.0462 0
M  V30 10394 C 952.122 -4.95238 -1.58225 0
M  V30 10395 C 949.807 -4.54405 -2.1406 0
M  V30 10396 C 951.801 -6.25658 -1.21782 0
M  V30 10397 C 949.488 -5.84836 -1.77228 0
M  V30 10398 C 950.486 -6.70287 -1.31165 0
M  V30 10399 O 950.174 -7.98287 -0.948339 0
M  V30 10400 H 949.906 -0.551263 -0.391261 0
M  V30 10401 H 952.46 -1.96453 -0.599621 0
M  V30 10402 H 950.69 -2.26117 -3.137 0
M  V30 10403 H 952.379 -2.67203 -3.05545 0
M  V30 10404 H 953.145 -4.611 -1.50373 0
M  V30 10405 H 949.024 -3.88056 -2.48865 0
M  V30 10406 H 952.568 -6.92309 -0.857566 0
M  V30 10407 H 948.465 -6.18502 -1.84732 0
M  V30 10408 H 949.233 -8.11353 -1.07925 0
M  V30 10409 N 951.896 0.746133 -1.38819 0
M  V30 10410 C 952.844 1.88137 -1.36774 0
M  V30 10411 C 953.838 1.67508 -0.252495 0
M  V30 10412 O 955.044 1.74985 -0.421935 0
M  V30 10413 H 951.419 0.619116 -0.426849 0
M  V30 10414 H 953.39 1.86978 -2.32555 0
M  V30 10415 C 952.139 3.25703 -1.21708 0
M  V30 10416 H 951.462 3.42168 -2.06788 0
M  V30 10417 H 952.902 4.05361 -1.24332 0
M  V30 10418 C 951.361 3.36816 0.0754257 0
M  V30 10419 O 951.891 3.87742 1.04972 0
M  V30 10420 N 950.097 2.90287 0.134761 0
M  V30 10421 H 949.644 2.49034 -0.658779 0
M  V30 10422 H 949.602 2.98103 0.999109 0
M  V30 10423 N 953.375 1.23811 0.975125 0
M  V30 10424 C 954.338 1.02505 2.05001 0
M  V30 10425 C 955.338 -0.0150084 1.60793 0
M  V30 10426 O 956.528 0.225246 1.72738 0
M  V30 10427 C 953.66 0.552087 3.364 0
M  V30 10428 H 954.853 1.979 2.25335 0
M  V30 10429 H 952.406 1.05929 1.1493 0
M  V30 10430 H 953.141 -0.405394 3.21756 0
M  V30 10431 H 952.926 1.30267 3.69828 0
M  V30 10432 H 954.416 0.423828 4.15444 0
M  V30 10433 N 954.853 -1.17469 1.05066 0
M  V30 10434 C 955.8 -2.21443 0.650512 0
M  V30 10435 C 956.77 -1.62441 -0.346702 0
M  V30 10436 O 957.955 -1.89305 -0.238404 0
M  V30 10437 C 955.095 -3.45087 0.0301014 0
M  V30 10438 C 954.208 -4.18385 1.07599 0
M  V30 10439 C 953.343 -5.29513 0.423038 0
M  V30 10440 C 952.382 -5.94596 1.45333 0
M  V30 10441 N 951.519 -6.97241 0.824623 0
M  V30 10442 H 956.359 -2.55025 1.54163 0
M  V30 10443 H 953.896 -1.25274 0.771032 0
M  V30 10444 H 955.854 -4.15754 -0.347032 0
M  V30 10445 H 954.484 -3.12093 -0.824481 0
M  V30 10446 H 953.536 -3.46446 1.57097 0
M  V30 10447 H 954.848 -4.62899 1.85813 0
M  V30 10448 H 954.002 -6.067 -0.00774975 0
M  V30 10449 H 952.741 -4.86129 -0.391092 0
M  V30 10450 H 951.746 -5.16142 1.89415 0
M  V30 10451 H 952.971 -6.40061 2.26934 0
M  V30 10452 H 950.917 -6.55993 0.0309804 0
M  V30 10453 H 950.834 -7.40059 1.54432 0
M  V30 10454 H 952.102 -7.78375 0.418567 0
M  V30 10455 N 956.331 -0.831506 -1.3388 0
M  V30 10456 C 957.58 -0.420028 -1.97278 0
M  V30 10457 C 957.893 1.02441 -1.66629 0
M  V30 10458 O 959.099 1.54021 -2.23584 0
M  V30 10459 C 957.555 -0.700116 -3.53025 0
M  V30 10460 C 957.163 -2.15874 -3.92559 0
M  V30 10461 C 958.907 -0.355226 -4.23011 0
M  V30 10462 C 956.814 -2.38327 -5.41252 0
M  V30 10463 H 955.744 -0.153326 -0.738246 0
M  V30 10464 H 958.395 -1.01906 -1.52602 0
M  V30 10465 H 956.777 -0.0308044 -3.95988 0
M  V30 10466 H 957.951 -2.86792 -3.60675 0
M  V30 10467 H 956.266 -2.4659 -3.35533 0
M  V30 10468 H 958.863 -0.500701 -5.32351 0
M  V30 10469 H 959.206 0.70111 -4.10354 0
M  V30 10470 H 959.739 -0.979466 -3.85553 0
M  V30 10471 H 956.478 -3.42498 -5.58906 0
M  V30 10472 H 955.998 -1.71962 -5.74621 0
M  V30 10473 H 957.677 -2.21113 -6.08045 0
M  V30 10474 N 957.809 1.4625 -0.587256 0
M  V30 10475 C 959.034 2.07252 -0.0784517 0
M  V30 10476 C 959.459 1.43239 1.21919 0
M  V30 10477 O 958.817 0.517791 1.73749 0
M  V30 10478 C 958.865 3.60534 0.0691037 0
M  V30 10479 O 957.969 3.96773 1.12448 0
M  V30 10480 H 957.31 0.660825 -0.064859 0
M  V30 10481 H 959.84 1.87819 -0.811491 0
M  V30 10482 H 959.85 4.0708 0.273826 0
M  V30 10483 H 958.525 4.06516 -0.878514 0
M  V30 10484 H 957.102 3.6193 0.897852 0
M  V30 10485 N 959.287 0.325282 1.54207 0
M  V30 10486 C 960.535 -0.276229 2.00203 0
M  V30 10487 C 960.856 -1.52519 1.21503 0
M  V30 10488 O 960.126 -1.93313 0.317302 0
M  V30 10489 H 958.706 -0.105059 0.739575 0
M  V30 10490 H 961.368 0.442225 1.89817 0
M  V30 10491 H 960.464 -0.531427 3.07542 0
M  V30 10492 N 960.765 -1.57509 0.0534917 0
M  V30 10493 C 961.712 -2.11667 -0.920101 0
M  V30 10494 C 962.682 -1.0246 -1.30733 0
M  V30 10495 O 963.867 -1.30021 -1.39639 0
M  V30 10496 C 961.007 -2.66803 -2.18883 0
M  V30 10497 C 960.12 -3.90104 -1.85588 0
M  V30 10498 C 959.255 -4.33547 -3.06937 0
M  V30 10499 C 958.294 -5.49542 -2.69573 0
M  V30 10500 N 957.431 -5.88029 -3.83623 0
M  V30 10501 H 962.271 -2.94562 -0.451371 0
M  V30 10502 H 959.808 -1.45576 -0.211168 0
M  V30 10503 H 961.766 -2.96871 -2.93127 0
M  V30 10504 H 960.396 -1.86702 -2.63329 0
M  V30 10505 H 959.448 -3.66613 -1.01484 0
M  V30 10506 H 960.76 -4.74404 -1.54087 0
M  V30 10507 H 959.914 -4.6518 -3.89477 0
M  V30 10508 H 958.653 -3.48064 -3.41618 0
M  V30 10509 H 957.658 -5.17579 -1.8545 0
M  V30 10510 H 958.883 -6.36743 -2.36082 0
M  V30 10511 H 956.829 -5.05498 -4.181 0
M  V30 10512 H 956.746 -6.67025 -3.55828 0
M  V30 10513 H 958.014 -6.24277 -4.66796 0
M  V30 10514 N 962.243 0.219913 -1.56058 0
M  V30 10515 C 963.489 0.945463 -1.79412 0
M  V30 10516 C 963.822 1.83922 -0.62341 0
M  V30 10517 O 963.097 1.90806 0.377256 0
M  V30 10518 C 963.38 1.783 -3.1286 0
M  V30 10519 C 963.233 0.915626 -4.40382 0
M  V30 10520 C 964.552 2.76045 -3.42764 0
M  V30 10521 H 961.671 0.342288 -0.652693 0
M  V30 10522 H 964.313 0.214235 -1.88788 0
M  V30 10523 H 962.463 2.40642 -3.04998 0
M  V30 10524 H 964.135 0.30882 -4.60265 0
M  V30 10525 H 962.378 0.221124 -4.33236 0
M  V30 10526 H 963.049 1.53607 -5.30197 0
M  V30 10527 H 965.525 2.23838 -3.50764 0
M  V30 10528 H 964.401 3.31748 -4.37304 0
M  V30 10529 H 964.662 3.53866 -2.65012 0
M  V30 10530 N 963.721 1.49897 0.486681 0
M  V30 10531 C 964.951 1.63599 1.2617 0
M  V30 10532 C 965.359 0.312365 1.86604 0
M  V30 10533 O 964.702 -0.713911 1.6926 0
M  V30 10534 C 964.764 2.65736 2.42125 0
M  V30 10535 C 964.428 4.09711 2.0245 0
M  V30 10536 C 965.425 4.9607 1.55596 0
M  V30 10537 C 963.11 4.55534 2.11647 0
M  V30 10538 C 965.104 6.26295 1.18462 0
M  V30 10539 C 962.791 5.85768 1.74124 0
M  V30 10540 C 963.789 6.70973 1.27608 0
M  V30 10541 O 963.477 7.98778 0.905991 0
M  V30 10542 H 963.209 0.55333 0.388332 0
M  V30 10543 H 965.763 1.96768 0.589195 0
M  V30 10544 H 963.993 2.27778 3.12497 0
M  V30 10545 H 965.682 2.68819 3.04123 0
M  V30 10546 H 966.448 4.61891 1.47925 0
M  V30 10547 H 962.327 3.8937 2.46803 0
M  V30 10548 H 965.871 6.92754 0.820839 0
M  V30 10549 H 961.768 6.19473 1.8145 0
M  V30 10550 H 962.536 8.11914 1.03621 0
M  V30 10551 N 965.199 -0.738761 1.39212 0
M  V30 10552 C 966.476 -1.48982 1.26742 0
M  V30 10553 C 966.856 -2.10732 -0.12466 0
M  V30 10554 O 966.204 -1.98287 -1.13554 0
M  V30 10555 C 966.414 -2.54427 2.38889 0
M  V30 10556 C 967.762 -3.20915 2.78027 0
M  V30 10557 O 968.786 -2.64738 2.38311 0
M  V30 10558 O 967.645 -4.22558 3.46565 0
M  V30 10559 H 964.739 -0.661395 0.496473 0
M  V30 10560 H 967.285 -0.772907 1.51077 0
M  V30 10561 H 966.057 -2.07151 3.3197 0
M  V30 10562 H 965.68 -3.33682 2.162 0
M  V30 10563 N 966.677 -1.24326 -0.968545 0
M  V30 10564 C 967.587 -1.05194 -2.09694 0
M  V30 10565 C 968.603 0.00701291 -1.73999 0
M  V30 10566 O 969.779 -0.190981 -2.00492 0
M  V30 10567 C 966.844 -0.658075 -3.40397 0
M  V30 10568 C 965.905 -1.79341 -3.90045 0
M  V30 10569 C 965.138 -1.41824 -5.14511 0
M  V30 10570 O 965.361 -0.307693 -5.69569 0
M  V30 10571 O 964.295 -2.24358 -5.58522 0
M  V30 10572 H 968.121 -1.99791 -2.2873 0
M  V30 10573 H 965.706 -1.03138 -1.08088 0
M  V30 10574 H 967.588 -0.449911 -4.18991 0
M  V30 10575 H 966.263 0.258782 -3.22664 0
M  V30 10576 H 965.17 -2.05632 -3.12516 0
M  V30 10577 H 966.503 -2.68901 -4.12254 0
M  V30 10578 N 968.156 1.1691 -1.05688 0
M  V30 10579 C 969.086 2.23275 -0.683402 0
M  V30 10580 C 970.067 1.6704 0.321206 0
M  V30 10581 O 971.252 1.93191 0.197691 0
M  V30 10582 C 968.382 3.47244 -0.0626006 0
M  V30 10583 C 967.336 4.16333 -0.992513 0
M  V30 10584 C 966.662 5.34182 -0.23533 0
M  V30 10585 C 967.962 4.68002 -2.31886 0
M  V30 10586 H 969.656 2.54771 -1.57264 0
M  V30 10587 H 967.202 1.2246 -0.757606 0
M  V30 10588 H 969.155 4.20874 0.210503 0
M  V30 10589 H 967.879 3.1503 0.861616 0
M  V30 10590 H 966.538 3.44622 -1.25026 0
M  V30 10591 H 966.186 4.9822 0.69181 0
M  V30 10592 H 965.886 5.81346 -0.855002 0
M  V30 10593 H 967.41 6.10592 0.0303717 0
M  V30 10594 H 968.824 5.33244 -2.10531 0
M  V30 10595 H 967.221 5.25764 -2.89296 0
M  V30 10596 H 968.291 3.84541 -2.95391 0
M  V30 10597 N 969.634 0.838594 1.33437 0
M  V30 10598 C 970.864 0.446995 2.01707 0
M  V30 10599 C 971.272 -0.956335 1.63251 0
M  V30 10600 O 970.615 -1.63289 0.841566 0
M  V30 10601 C 970.677 0.487707 3.56176 0
M  V30 10602 C 970.341 1.8471 4.18009 0
M  V30 10603 C 971.338 2.81028 4.374 0
M  V30 10604 C 969.023 2.13987 4.54439 0
M  V30 10605 C 971.017 4.04785 4.92369 0
M  V30 10606 C 968.704 3.38 5.09116 0
M  V30 10607 C 969.702 4.33216 5.28027 0
M  V30 10608 O 969.39 5.55036 5.81541 0
M  V30 10609 H 969.122 0.175799 0.652741 0
M  V30 10610 H 971.676 1.13265 1.71348 0
M  V30 10611 H 969.906 -0.254719 3.8586 0
M  V30 10612 H 971.595 0.113971 4.0574 0
M  V30 10613 H 972.361 2.5971 4.09604 0
M  V30 10614 H 968.24 1.40668 4.39014 0
M  V30 10615 H 971.784 4.79114 5.07046 0
M  V30 10616 H 967.681 3.59175 5.36343 0
M  V30 10617 H 968.449 5.56772 5.99956 0
M  V30 10618 N 971.112 -1.45937 0.595003 0
M  V30 10619 C 972.022 -2.34221 -0.133325 0
M  V30 10620 C 973.038 -1.50491 -0.873407 0
M  V30 10621 O 974.214 -1.83328 -0.833828 0
M  V30 10622 C 971.279 -3.27896 -1.12628 0
M  V30 10623 C 970.34 -4.27529 -0.389532 0
M  V30 10624 C 969.573 -5.16729 -1.33519 0
M  V30 10625 O 969.796 -5.09102 -2.57238 0
M  V30 10626 O 968.73 -5.96023 -0.839084 0
M  V30 10627 H 972.556 -2.97877 0.591861 0
M  V30 10628 H 970.141 -1.45113 0.355329 0
M  V30 10629 H 972.023 -3.85654 -1.69851 0
M  V30 10630 H 970.698 -2.6682 -1.83272 0
M  V30 10631 H 969.605 -3.73424 0.224843 0
M  V30 10632 H 970.938 -4.91425 0.276169 0
M  V30 10633 N 972.59 -0.333456 -1.54032 0
M  V30 10634 C 973.538 0.543414 -2.26163 0
M  V30 10635 C 974.532 1.11037 -1.27934 0
M  V30 10636 O 975.738 1.05727 -1.45677 0
M  V30 10637 H 972.113 0.19391 -0.726569 0
M  V30 10638 H 974.084 -0.0871052 -2.98273 0
M  V30 10639 C 972.833 1.68769 -3.03994 0
M  V30 10640 H 972.156 1.26069 -3.79403 0
M  V30 10641 H 973.596 2.27662 -3.57695 0
M  V30 10642 C 972.055 2.61117 -2.12884 0
M  V30 10643 O 972.585 3.63097 -1.71823 0
M  V30 10644 N 970.791 2.29573 -1.7817 0
M  V30 10645 H 970.338 1.46684 -2.11759 0
M  V30 10646 H 970.296 2.91622 -1.1749 0
M  V30 10647 N 974.068 1.57479 -0.061844 0
M  V30 10648 C 975.316 1.92727 0.608336 0
M  V30 10649 C 975.637 0.941799 1.70749 0
M  V30 10650 O 974.907 -0.0116608 1.95897 0
M  V30 10651 H 973.487 0.71145 0.2277 0
M  V30 10652 H 976.149 1.94546 -0.117359 0
M  V30 10653 H 975.245 2.9426 1.04007 0
M  V30 10654 N 975.546 -0.211634 1.56173 0
M  V30 10655 C 976.494 -1.28188 1.94089 0
M  V30 10656 C 977.488 -1.47999 0.824167 0
M  V30 10657 O 978.694 -1.49056 1.00907 0
M  V30 10658 H 975.069 -0.42999 0.616938 0
M  V30 10659 H 977.04 -0.934962 2.83374 0
M  V30 10660 C 975.789 -2.62294 2.28248 0
M  V30 10661 H 975.112 -2.4786 3.13696 0
M  V30 10662 H 976.552 -3.35967 2.58655 0
M  V30 10663 C 975.011 -3.18049 1.11113 0
M  V30 10664 O 975.541 -3.99923 0.377458 0
M  V30 10665 N 973.747 -2.76561 0.892321 0
M  V30 10666 H 973.294 -2.10088 1.49067 0
M  V30 10667 H 973.252 -3.14206 0.110344 0
M  V30 10668 N 977.024 -1.50153 -0.478725 0
M  V30 10669 C 977.971 -1.68458 -1.57767 0
M  V30 10670 C 978.941 -0.5259 -1.57555 0
M  V30 10671 O 980.126 -0.755574 -1.75202 0
M  V30 10672 C 977.266 -1.77772 -2.95789 0
M  V30 10673 C 976.379 -3.05092 -3.05848 0
M  V30 10674 C 975.514 -3.05247 -4.34739 0
M  V30 10675 C 974.553 -4.27053 -4.38512 0
M  V30 10676 N 973.69 -4.24991 -5.58862 0
M  V30 10677 H 978.53 -2.62282 -1.41464 0
M  V30 10678 H 976.067 -1.30023 -0.687921 0
M  V30 10679 H 978.025 -1.81152 -3.75819 0
M  V30 10680 H 976.655 -0.873944 -3.10744 0
M  V30 10681 H 975.707 -3.11219 -2.1874 0
M  V30 10682 H 977.019 -3.95075 -3.04495 0
M  V30 10683 H 976.173 -3.07314 -5.23109 0
M  V30 10684 H 974.912 -2.13081 -4.38689 0
M  V30 10685 H 973.917 -4.25206 -3.4854 0
M  V30 10686 H 975.142 -5.20437 -4.36259 0
M  V30 10687 H 973.088 -3.35674 -5.63612 0
M  V30 10688 H 973.005 -5.08734 -5.59219 0
M  V30 10689 H 974.273 -4.31193 -6.49379 0
M  V30 10690 N 978.502 0.731368 -1.39602 0
M  V30 10691 C 979.449 1.84541 -1.38612 0
M  V30 10692 C 980.419 1.64279 -0.245287 0
M  V30 10693 O 981.604 1.85635 -0.440954 0
M  V30 10694 C 978.744 3.22092 -1.23897 0
M  V30 10695 C 977.857 3.54034 -2.47555 0
M  V30 10696 C 976.992 4.81007 -2.25402 0
M  V30 10697 C 976.031 5.05804 -3.44716 0
M  V30 10698 N 975.168 6.23981 -3.21857 0
M  V30 10699 H 980.008 1.84722 -2.33841 0
M  V30 10700 H 977.545 0.902569 -1.16156 0
M  V30 10701 H 979.503 4.01499 -1.13376 0
M  V30 10702 H 978.133 3.2118 -0.322958 0
M  V30 10703 H 977.185 2.69301 -2.68665 0
M  V30 10704 H 978.497 3.68275 -3.36415 0
M  V30 10705 H 977.651 5.68401 -2.12143 0
M  V30 10706 H 976.39 4.68946 -1.33943 0
M  V30 10707 H 975.395 4.1687 -3.58468 0
M  V30 10708 H 976.62 5.19747 -4.37081 0
M  V30 10709 H 974.566 6.13202 -2.33065 0
M  V30 10710 H 974.483 6.38826 -4.04274 0
M  V30 10711 H 975.751 7.14205 -3.123 0
M  V30 10712 N 979.98 1.24838 0.961938 0
M  V30 10713 C 981.21 1.11709 1.73795 0
M  V30 10714 C 981.618 -0.33263 1.86253 0
M  V30 10715 O 980.961 -1.24101 1.35443 0
M  V30 10716 C 981.023 1.68959 3.17322 0
M  V30 10717 C 980.687 3.17895 3.28316 0
M  V30 10718 C 981.684 4.14975 3.13196 0
M  V30 10719 C 979.369 3.57966 3.52372 0
M  V30 10720 C 981.363 5.50107 3.21965 0
M  V30 10721 C 979.05 4.93237 3.60778 0
M  V30 10722 C 980.048 5.89116 3.45588 0
M  V30 10723 O 979.736 7.21927 3.53662 0
M  V30 10724 H 979.468 0.390726 0.551642 0
M  V30 10725 H 982.022 1.65541 1.21594 0
M  V30 10726 H 980.252 1.09567 3.70853 0
M  V30 10727 H 981.941 1.51036 3.76753 0
M  V30 10728 H 982.707 3.85359 2.94489 0
M  V30 10729 H 978.586 2.83837 3.63259 0
M  V30 10730 H 982.13 6.24924 3.10025 0
M  V30 10731 H 978.027 5.22522 3.79 0
M  V30 10732 H 978.795 7.29925 3.7034 0
M  V30 10733 N 981.458 -1.16348 1.06306 0
M  V30 10734 C 982.735 -1.829 0.69331 0
M  V30 10735 C 983.115 -1.94298 -0.82531 0
M  V30 10736 O 982.463 -1.48619 -1.73565 0
M  V30 10737 C 982.673 -3.1989 1.3954 0
M  V30 10738 C 984.021 -3.95662 1.54068 0
M  V30 10739 O 985.045 -3.29408 1.35532 0
M  V30 10740 O 983.904 -5.14422 1.84479 0
M  V30 10741 H 980.998 -0.789738 0.245445 0
M  V30 10742 H 983.544 -1.23549 1.16334 0
M  V30 10743 H 982.316 -3.06629 2.43093 0
M  V30 10744 H 981.939 -3.86918 0.915453 0
M  V30 10745 N 982.937 -0.845659 -1.3299 0
M  V30 10746 C 984.186 -0.440928 -1.96822 0
M  V30 10747 C 984.499 1.00668 -1.67706 0
M  V30 10748 O 985.705 1.51641 -2.25205 0
M  V30 10749 C 984.161 -0.73752 -3.52262 0
M  V30 10750 C 983.769 -2.20026 -3.90247 0
M  V30 10751 C 985.513 -0.400072 -4.22611 0
M  V30 10752 C 983.42 -2.44054 -5.38694 0
M  V30 10753 H 982.35 -0.161148 -0.736578 0
M  V30 10754 H 985.001 -1.03519 -1.51513 0
M  V30 10755 H 983.383 -0.0728025 -3.95933 0
M  V30 10756 H 984.557 -2.90602 -3.57613 0
M  V30 10757 H 982.872 -2.50135 -3.32899 0
M  V30 10758 H 985.469 -0.557136 -5.3179 0
M  V30 10759 H 985.812 0.657547 -4.11074 0
M  V30 10760 H 986.345 -1.0203 -3.84493 0
M  V30 10761 H 983.084 -3.48407 -5.55241 0
M  V30 10762 H 982.604 -1.78047 -5.72765 0
M  V30 10763 H 984.283 -2.27549 -6.05665 0
M  V30 10764 N 984.415 1.45619 -0.602734 0
M  V30 10765 C 985.692 1.9558 -0.0282472 0
M  V30 10766 C 986.072 1.54523 1.43826 0
M  V30 10767 O 985.42 0.805456 2.13833 0
M  V30 10768 C 985.63 3.48298 -0.221263 0
M  V30 10769 C 986.978 4.24483 -0.0995249 0
M  V30 10770 O 988.002 3.55879 -0.151132 0
M  V30 10771 O 986.861 5.46497 0.0194454 0
M  V30 10772 H 983.955 0.826104 0.0384897 0
M  V30 10773 H 986.501 1.55808 -0.672456 0
M  V30 10774 H 985.273 3.71134 -1.23997 0
M  V30 10775 H 984.896 3.94948 0.458437 0
M  V30 10776 N 985.893 0.34162 1.53853 0
M  V30 10777 C 986.803 -0.524555 2.2866 0
M  V30 10778 C 987.819 -1.1136 1.33697 0
M  V30 10779 O 988.995 -1.1297 1.66732 0
M  V30 10780 C 986.06 -1.66065 3.04341 0
M  V30 10781 C 985.121 -1.10158 4.14926 0
M  V30 10782 C 984.354 -2.18353 4.86988 0
M  V30 10783 O 984.577 -3.39038 4.58704 0
M  V30 10784 O 983.511 -1.82756 5.73484 0
M  V30 10785 H 987.337 0.0835014 3.03585 0
M  V30 10786 H 984.922 0.106727 1.49018 0
M  V30 10787 H 986.804 -2.3217 3.51674 0
M  V30 10788 H 985.479 -2.25456 2.32275 0
M  V30 10789 H 984.386 -0.405109 3.719 0
M  V30 10790 H 985.719 -0.552567 4.89088 0
M  V30 10791 O 987.41 -1.60131 0.209831 0
M  V30 10792 H 988.101 -1.90077 -0.372866 0
M  V30 END ATOM
M  V30 BEGIN BOND
M  V30 END BOND
M  V30 END CTAB
M  END
$$$$
