drugbank_target|Q9RRU8 S-ribosylhomocysteine lyase (DB02153)
 OpenBabel12092119543D

  0  0  0     0  0            999 V3000
M  V30 BEGIN CTAB
M  V30 COUNTS 2414 2437 0 0 0
M  V30 BEGIN ATOM
M  V30 1 H -0.908 1.98254 -0.117106 0
M  V30 2 N 0 1.576 0 0
M  V30 3 C 0.933 2.03868 1.02534 0
M  V30 4 C 1.911 0.928543 1.3348 0
M  V30 5 O 3.095 1.19667 1.45644 0
M  V30 6 C 0.222 2.43627 2.35294 0
M  V30 7 C -0.732 3.65373 2.2001 0
M  V30 8 S 0.101 5.13292 1.52614 0
M  V30 9 C 1.257 5.56322 2.86805 0
M  V30 10 H 1.49 2.90518 0.631377 0
M  V30 11 H -0.977 1.52953 0.210867 0
M  V30 12 H 0.981 2.67203 3.11629 0
M  V30 13 H -0.358 1.57376 2.7183 0
M  V30 14 H -1.165 3.90944 3.18086 0
M  V30 15 H -1.563 3.418 1.51819 0
M  V30 16 H 0.729 5.58782 3.83104 0
M  V30 17 H 1.672 6.56266 2.65933 0
M  V30 18 H 2.08 4.83886 2.90714 0
M  V30 19 N 1.4781 -0.272755 1.55222 0
M  V30 20 C 2.8891 -0.84378 1.66545 0
M  V30 21 C 3.2401 -1.87035 0.592641 0
M  V30 22 O 2.3651 -2.14761 -0.265818 0
M  V30 23 C 2.9601 -1.53723 3.01918 0
M  V30 24 C 1.5191 -2.05628 3.15268 0
M  V30 25 C 0.6661 -0.898424 2.62343 0
M  V30 26 H 3.6171 -0.0490998 1.58624 0
M  V30 27 H 3.6381 -2.40421 2.94921 0
M  V30 28 H 3.1501 -0.78983 3.79978 0
M  V30 29 H 1.2511 -2.83329 2.41983 0
M  V30 30 H 1.3641 -2.27142 4.21833 0
M  V30 31 H -0.2719 -1.29186 2.19506 0
M  V30 32 H 0.5111 -0.164528 3.42906 0
M  V30 33 N 2.9562 -1.48159 -0.537278 0
M  V30 34 C 4.2332 -1.46291 -1.29839 0
M  V30 35 C 4.6132 -0.170613 -2.10409 0
M  V30 36 O 3.9612 0.847746 -2.12192 0
M  V30 37 C 4.1712 -2.72055 -2.18603 0
M  V30 38 C 5.5192 -3.20087 -2.7898 0
M  V30 39 O 6.5432 -2.72921 -2.28894 0
M  V30 40 O 5.4022 -4.02138 -3.70064 0
M  V30 41 H 2.4962 -0.583906 -0.585647 0
M  V30 42 H 5.0422 -1.60384 -0.554534 0
M  V30 43 H 3.8142 -3.57628 -1.58801 0
M  V30 44 H 3.4372 -2.60646 -3.00249 0
M  V30 45 N 4.4343 0.785586 -1.36625 0
M  V30 46 C 5.3673 1.90509 -1.25625 0
M  V30 47 C 6.3453 1.62 -0.139607 0
M  V30 48 O 7.5293 1.8591 -0.31141 0
M  V30 49 C 4.6563 3.25419 -0.939158 0
M  V30 50 C 3.7023 3.72856 -2.07077 0
M  V30 51 S 4.5353 3.88162 -3.68904 0
M  V30 52 C 5.6913 5.25942 -3.39317 0
M  V30 53 H 5.9243 1.99549 -2.20381 0
M  V30 54 H 3.4573 0.945226 -1.22085 0
M  V30 55 H 5.4153 4.03346 -0.763029 0
M  V30 56 H 4.0763 3.14099 -0.00931402 0
M  V30 57 H 3.2693 4.70624 -1.80357 0
M  V30 58 H 2.8713 3.01989 -2.20632 0
M  V30 59 H 5.1633 6.10651 -2.93447 0
M  V30 60 H 6.1063 5.57668 -4.36363 0
M  V30 61 H 6.5143 4.93224 -2.74573 0
M  V30 62 N 5.9124 1.20967 1.01018 0
M  V30 63 C 6.8754 0.965918 2.07853 0
M  V30 64 C 7.8754 -0.0610545 1.60684 0
M  V30 65 O 9.0654 0.175681 1.73312 0
M  V30 66 C 6.1974 0.455513 3.37843 0
M  V30 67 H 7.3904 1.91365 2.3091 0
M  V30 68 H 4.9434 1.02594 1.17916 0
M  V30 69 H 5.6784 -0.497381 3.20463 0
M  V30 70 H 5.4634 1.19622 3.73407 0
M  V30 71 H 6.9534 0.304667 4.16487 0
M  V30 72 N 7.3905 -1.2043 1.01659 0
M  V30 73 C 8.3385 -2.25249 0.580143 0
M  V30 74 C 9.3325 -1.65057 -0.381115 0
M  V30 75 O 10.5385 -1.78241 -0.251039 0
M  V30 76 H 6.9135 -0.732695 0.169299 0
M  V30 77 H 8.8845 -2.59389 1.47512 0
M  V30 78 C 7.6335 -3.47638 -0.065788 0
M  V30 79 H 6.9565 -3.94233 0.664874 0
M  V30 80 H 8.3965 -4.2268 -0.334282 0
M  V30 81 C 6.8555 -3.10447 -1.3086 0
M  V30 82 O 7.3855 -3.21981 -2.4019 0
M  V30 83 N 5.5915 -2.64996 -1.1927 0
M  V30 84 H 5.1385 -2.55811 -0.303064 0
M  V30 85 H 5.0965 -2.40482 -2.02523 0
M  V30 86 N 8.8686 -0.792821 -1.36206 0
M  V30 87 C 10.1146 -0.36733 -1.99446 0
M  V30 88 C 10.4476 1.05917 -1.62774 0
M  V30 89 O 9.7226 1.7324 -0.88421 0
M  V30 90 C 10.0056 -0.535044 -3.56103 0
M  V30 91 C 9.8586 -2.00548 -4.02617 0
M  V30 92 C 11.1776 0.0478191 -4.40074 0
M  V30 93 H 8.2966 -0.134941 -0.724541 0
M  V30 94 H 10.9386 -0.999794 -1.61568 0
M  V30 95 H 9.0886 0.00336329 -3.885 0
M  V30 96 H 10.7606 -2.60521 -3.80692 0
M  V30 97 H 9.0036 -2.50686 -3.54032 0
M  V30 98 H 9.6746 -2.07377 -5.11565 0
M  V30 99 H 12.1506 -0.411822 -4.14057 0
M  V30 100 H 11.0266 -0.0995336 -5.4881 0
M  V30 101 H 11.2876 1.14025 -4.27142 0
M  V30 102 N 10.3467 1.47872 -0.545128 0
M  V30 103 C 11.2567 2.33633 0.212746 0
M  V30 104 C 12.2727 1.4744 0.923983 0
M  V30 105 O 13.4487 1.80393 0.895572 0
M  V30 106 C 10.5137 3.23884 1.23693 0
M  V30 107 C 9.5747 4.25961 0.534417 0
M  V30 108 C 8.8077 5.11899 1.5098 0
M  V30 109 O 9.0307 5.00077 2.7437 0
M  V30 110 O 7.9647 5.92831 1.0409 0
M  V30 111 H 11.7907 2.99714 -0.490416 0
M  V30 112 H 9.3757 1.46235 -0.305871 0
M  V30 113 H 11.2577 3.79666 1.82843 0
M  V30 114 H 9.9327 2.60446 1.92222 0
M  V30 115 H 8.8397 3.73972 -0.0979679 0
M  V30 116 H 10.1727 4.92079 -0.109213 0
M  V30 117 N 11.8248 0.280983 1.55075 0
M  V30 118 C 13.0498 -0.340154 2.04592 0
M  V30 119 C 13.4748 -1.48246 1.15779 0
M  V30 120 O 12.8328 -1.80614 0.15761 0
M  V30 121 C 12.8808 -0.793104 3.5177 0
M  V30 122 O 11.9848 -1.89981 3.66034 0
M  V30 123 H 11.3258 -0.0694289 0.66036 0
M  V30 124 H 13.8558 0.416993 2.00306 0
M  V30 125 H 13.8658 -1.08729 3.93245 0
M  V30 126 H 12.5408 0.0426163 4.15878 0
M  V30 127 H 11.1178 -1.60771 3.36463 0
M  V30 128 N 13.3029 -1.57598 0.00835791 0
M  V30 129 C 14.5499 -1.90928 -0.674732 0
M  V30 130 C 14.8779 -0.88277 -1.73313 0
M  V30 131 O 14.1329 0.111294 -1.95383 0
M  V30 132 C 14.4319 -3.3101 -1.34787 0
M  V30 133 C 14.0979 -4.48922 -0.421861 0
M  V30 134 C 12.7599 -4.8091 -0.166927 0
M  V30 135 C 15.1119 -5.20755 0.215211 0
M  V30 136 C 12.4399 -5.821 0.733232 0
M  V30 137 C 14.7919 -6.22905 1.1033 0
M  V30 138 C 13.4559 -6.53346 1.36733 0
M  V30 139 H 12.7259 -0.698656 -0.246902 0
M  V30 140 H 15.3729 -1.91387 0.0656779 0
M  V30 141 H 13.6779 -3.26714 -2.16253 0
M  V30 142 H 15.3749 -3.54061 -1.8826 0
M  V30 143 H 11.9649 -4.23934 -0.630729 0
M  V30 144 H 16.1489 -4.9629 0.0312829 0
M  V30 145 H 11.4049 -6.04042 0.945712 0
M  V30 146 H 15.5789 -6.77694 1.60325 0
M  V30 147 H 13.2059 -7.31573 2.06652 0
M  V30 148 N 14.781 0.264519 -1.55364 0
M  V30 149 C 16.058 1.01677 -1.67096 0
M  V30 150 C 16.438 2.03996 -0.543015 0
M  V30 151 O 15.786 2.23907 0.45585 0
M  V30 152 C 15.996 1.66596 -3.0667 0
M  V30 153 C 17.344 2.17442 -3.64697 0
M  V30 154 O 18.368 1.76568 -3.09358 0
M  V30 155 O 17.227 2.92439 -4.61673 0
M  V30 156 H 14.321 0.472161 -0.678965 0
M  V30 157 H 16.867 0.259703 -1.67701 0
M  V30 158 H 15.639 0.924962 -3.80211 0
M  V30 159 H 15.262 2.48968 -3.10001 0
M  V30 160 N 16.2591 1.48442 0.529413 0
M  V30 161 C 17.1891 1.65902 1.64313 0
M  V30 162 C 18.1701 0.507897 1.6234 0
M  V30 163 O 19.3551 0.740503 1.79528 0
M  V30 164 C 16.4851 1.69911 3.02898 0
M  V30 165 C 15.4391 2.8453 3.19729 0
M  V30 166 C 14.7651 2.73629 4.59381 0
M  V30 167 C 16.0651 4.25821 3.02447 0
M  V30 168 H 17.7591 2.5914 1.49955 0
M  V30 169 H 15.3051 1.24709 0.719982 0
M  V30 170 H 17.2581 1.80715 3.80684 0
M  V30 171 H 15.9821 0.732524 3.18279 0
M  V30 172 H 14.6411 2.73283 2.44361 0
M  V30 173 H 14.2891 1.74938 4.71599 0
M  V30 174 H 13.9891 3.50541 4.71588 0
M  V30 175 H 15.5131 2.86401 5.39265 0
M  V30 176 H 16.9271 4.37898 3.70024 0
M  V30 177 H 15.3241 5.03735 3.26146 0
M  V30 178 H 16.3941 4.42244 1.98867 0
M  V30 179 N 17.7372 -0.778329 1.37039 0
M  V30 180 C 19.0142 -1.52551 1.22424 0
M  V30 181 C 19.3942 -2.10288 -0.184964 0
M  V30 182 O 18.7422 -1.94953 -1.19187 0
M  V30 183 C 18.9522 -2.61164 2.31504 0
M  V30 184 C 20.3002 -3.28746 2.68721 0
M  V30 185 O 21.3242 -2.71455 2.30631 0
M  V30 186 O 20.1832 -4.3231 3.3432 0
M  V30 187 H 17.2772 -0.675343 0.477326 0
M  V30 188 H 19.8232 -0.815859 1.48801 0
M  V30 189 H 18.5952 -2.16574 3.25901 0
M  V30 190 H 18.2182 -3.39737 2.06554 0
M  V30 191 N 19.2153 -1.21501 -1.00376 0
M  V30 192 C 20.1653 -0.942843 -2.07592 0
M  V30 193 C 21.1493 0.102384 -1.60574 0
M  V30 194 O 22.3413 -0.10671 -1.76678 0
M  V30 195 C 19.4703 -0.510729 -3.3948 0
M  V30 196 C 18.5563 -1.59009 -3.93163 0
M  V30 197 N 18.9473 -2.81544 -4.20198 0
M  V30 198 C 17.2453 -1.45925 -4.21452 0
M  V30 199 C 17.9463 -3.51261 -4.63671 0
M  V30 200 N 16.9223 -2.78703 -4.66718 0
M  V30 201 H 20.7243 -1.87378 -2.26421 0
M  V30 202 H 18.2383 -1.11093 -1.18458 0
M  V30 203 H 20.2353 -0.297101 -4.1584 0
M  V30 204 H 18.8953 0.413436 -3.22057 0
M  V30 205 H 19.9063 -3.18075 -4.08716 0
M  V30 206 H 16.5833 -0.600467 -4.13159 0
M  V30 207 H 17.9733 -4.56183 -4.93302 0
M  V30 208 N 20.6934 1.19889 -1.02296 0
M  V30 209 C 21.9214 1.9339 -0.735399 0
M  V30 210 C 22.3364 1.75148 0.704887 0
M  V30 211 O 21.6934 1.06954 1.47875 0
M  V30 212 C 21.7444 3.45313 -1.06962 0
M  V30 213 O 21.4654 3.62964 -2.45334 0
M  V30 214 C 22.9664 4.35948 -0.804021 0
M  V30 215 H 20.1864 0.61448 -0.269546 0
M  V30 216 H 22.7304 1.522 -1.36585 0
M  V30 217 H 20.8854 3.84359 -0.484455 0
M  V30 218 H 21.2994 4.56886 -2.57595 0
M  V30 219 H 22.7734 5.41174 -1.0879 0
M  V30 220 H 23.2504 4.3842 0.261691 0
M  V30 221 H 23.8564 4.02574 -1.37164 0
M  V30 222 N 22.1715 0.800033 1.35784 0
M  V30 223 C 23.1185 0.203848 2.29898 0
M  V30 224 C 24.0885 -0.658375 1.52495 0
M  V30 225 O 25.2735 -0.604832 1.8096 0
M  V30 226 C 22.4135 -0.64688 3.38983 0
M  V30 227 C 21.5265 0.235054 4.3136 0
M  V30 228 C 20.6615 -0.623054 5.27533 0
M  V30 229 C 19.7005 0.259682 6.11549 0
M  V30 230 N 18.8375 -0.558019 6.99879 0
M  V30 231 H 23.6775 1.01186 2.80295 0
M  V30 232 H 21.2145 0.51053 1.37957 0
M  V30 233 H 23.1725 -1.15521 4.00887 0
M  V30 234 H 21.8025 -1.42021 2.89879 0
M  V30 235 H 20.8545 0.861438 3.70518 0
M  V30 236 H 22.1665 0.914768 4.9034 0
M  V30 237 H 21.3205 -1.19678 5.94779 0
M  V30 238 H 20.0595 -1.33636 4.69034 0
M  V30 239 H 19.0645 0.845726 5.43256 0
M  V30 240 H 20.2895 0.970748 6.72126 0
M  V30 241 H 18.2355 -1.25542 6.43875 0
M  V30 242 H 18.1525 0.0637872 7.55973 0
M  V30 243 H 19.4205 -1.11523 7.71481 0
M  V30 244 N 23.6496 -1.47581 0.552962 0
M  V30 245 C 24.8956 -2.02782 0.0273648 0
M  V30 246 C 25.2286 -1.42687 -1.31734 0
M  V30 247 O 24.5036 -0.580897 -1.85623 0
M  V30 248 C 24.7866 -3.60031 -0.0702371 0
M  V30 249 C 24.6396 -4.30566 1.30126 0
M  V30 250 C 25.9586 -4.33028 -0.785771 0
M  V30 251 H 23.0776 -0.736912 0.0114185 0
M  V30 252 H 25.7196 -1.76056 0.714432 0
M  V30 253 H 23.8696 -3.82932 -0.655382 0
M  V30 254 H 25.5416 -4.19018 1.92929 0
M  V30 255 H 23.7846 -3.91086 1.87709 0
M  V30 256 H 24.4556 -5.39114 1.18573 0
M  V30 257 H 26.9316 -4.15095 -0.288982 0
M  V30 258 H 25.8076 -5.42695 -0.823013 0
M  V30 259 H 26.0686 -4.01945 -1.841 0
M  V30 260 N 25.1277 -0.289203 -1.54924 0
M  V30 261 C 26.0747 0.592115 -2.23075 0
M  V30 262 C 27.0447 1.13881 -1.20915 0
M  V30 263 O 28.2297 1.18551 -1.495 0
M  V30 264 C 25.3697 1.76376 -2.96623 0
M  V30 265 C 24.4827 1.24959 -4.13533 0
M  V30 266 C 23.6177 2.38416 -4.74691 0
M  V30 267 C 22.6567 1.84072 -5.83767 0
M  V30 268 N 21.7937 2.91057 -6.38929 0
M  V30 269 H 26.6337 0.00432038 -2.98 0
M  V30 270 H 24.1707 -0.00963529 -1.47097 0
M  V30 271 H 26.1287 2.45268 -3.3749 0
M  V30 272 H 24.7587 2.32337 -2.24097 0
M  V30 273 H 23.8107 0.453307 -3.77689 0
M  V30 274 H 25.1227 0.811662 -4.92152 0
M  V30 275 H 24.2767 3.15276 -5.18349 0
M  V30 276 H 23.0157 2.8553 -3.95378 0
M  V30 277 H 22.0207 1.05697 -5.39545 0
M  V30 278 H 23.2457 1.37877 -6.64956 0
M  V30 279 H 21.1917 3.37526 -5.62505 0
M  V30 280 H 21.1087 2.51724 -7.12861 0
M  V30 281 H 22.3767 3.6785 -6.87246 0
M  V30 282 N 26.6058 1.57591 -0.0167156 0
M  V30 283 C 27.5688 2.08393 0.954204 0
M  V30 284 C 28.5688 0.996531 1.26198 0
M  V30 285 O 29.7588 1.25858 1.20438 0
M  V30 286 C 26.8908 2.5394 2.27436 0
M  V30 287 H 28.0838 2.95455 0.514451 0
M  V30 288 H 25.6368 1.54582 0.231089 0
M  V30 289 H 26.3718 1.70171 2.76066 0
M  V30 290 H 26.1568 3.33371 2.06412 0
M  V30 291 H 27.6468 2.93512 2.97053 0
M  V30 292 N 28.0839 -0.256276 1.55502 0
M  V30 293 C 29.4949 -0.826068 1.67431 0
M  V30 294 C 29.8459 -1.86396 0.612446 0
M  V30 295 O 28.9709 -2.15031 -0.243025 0
M  V30 296 C 29.5659 -1.50512 3.03532 0
M  V30 297 C 28.1249 -2.02273 3.17431 0
M  V30 298 C 27.2719 -0.870548 2.63281 0
M  V30 299 H 30.2229 -0.0322728 1.58667 0
M  V30 300 H 30.2439 -2.37279 2.97454 0
M  V30 301 H 29.7559 -0.749484 3.80794 0
M  V30 302 H 27.8569 -2.80746 2.44974 0
M  V30 303 H 27.9699 -2.22655 4.24219 0
M  V30 304 H 26.3339 -1.26851 2.20864 0
M  V30 305 H 27.1169 -0.128149 3.43061 0
M  V30 306 N 29.562 -1.4872 -0.521534 0
M  V30 307 C 30.792 -1.6061 -1.29954 0
M  V30 308 C 31.2 -0.268728 -1.87282 0
M  V30 309 O 30.543 0.753221 -1.67548 0
M  V30 310 C 30.605 -2.60013 -2.48261 0
M  V30 311 C 30.269 -4.04874 -2.11957 0
M  V30 312 C 31.266 -4.92304 -1.67132 0
M  V30 313 C 28.951 -4.5047 -2.22221 0
M  V30 314 C 30.945 -6.2336 -1.33047 0
M  V30 315 C 28.632 -5.81544 -1.87748 0
M  V30 316 C 29.63 -6.67812 -1.43234 0
M  V30 317 O 29.318 -7.96446 -1.09217 0
M  V30 318 H 29.05 -0.544116 -0.401141 0
M  V30 319 H 31.604 -1.95339 -0.634958 0
M  V30 320 H 29.834 -2.20422 -3.17728 0
M  V30 321 H 31.523 -2.61648 -3.10315 0
M  V30 322 H 32.289 -4.58312 -1.58665 0
M  V30 323 H 28.168 -3.83504 -2.55823 0
M  V30 324 H 31.712 -6.90649 -0.982299 0
M  V30 325 H 27.609 -6.15069 -1.95858 0
M  V30 326 H 28.377 -8.09275 -1.22542 0
M  V30 327 N 31.0401 0.771051 -1.3745 0
M  V30 328 C 32.2861 1.5319 -1.32894 0
M  V30 329 C 32.6191 1.94008 0.0862511 0
M  V30 330 O 31.8941 1.64124 1.04373 0
M  V30 331 C 32.1771 2.79648 -2.26868 0
M  V30 332 C 32.0301 2.45079 -3.77169 0
M  V30 333 C 33.3491 3.81583 -2.19277 0
M  V30 334 H 30.4681 0.555744 -0.484064 0
M  V30 335 H 33.1101 0.884492 -1.68157 0
M  V30 336 H 31.2601 3.34891 -1.96926 0
M  V30 337 H 32.9321 1.95745 -4.1771 0
M  V30 338 H 31.1751 1.77767 -3.95704 0
M  V30 339 H 31.8461 3.35478 -4.38359 0
M  V30 340 H 34.3221 3.35835 -2.45671 0
M  V30 341 H 33.1981 4.67787 -2.87171 0
M  V30 342 H 33.4591 4.25897 -1.18592 0
M  V30 343 N 32.5182 1.22032 0.997298 0
M  V30 344 C 33.9342 0.979326 1.26021 0
M  V30 345 C 34.1342 -0.32972 1.98784 0
M  V30 346 O 33.1902 -1.05345 2.29475 0
M  V30 347 C 34.5032 2.17509 2.07631 0
M  V30 348 C 36.0512 2.21817 2.2083 0
M  V30 349 C 36.5262 3.40933 3.05825 0
M  V30 350 N 38.0172 3.41067 3.13412 0
M  V30 351 C 38.7522 4.29885 3.79455 0
M  V30 352 N 38.2482 5.28914 4.47462 0
M  V30 353 N 40.0412 4.17673 3.76173 0
M  V30 354 H 32.1922 2.06202 0.509352 0
M  V30 355 H 34.4552 0.90334 0.287541 0
M  V30 356 H 34.1612 3.12415 1.61524 0
M  V30 357 H 34.0352 2.17206 3.08385 0
M  V30 358 H 36.4222 1.27462 2.66153 0
M  V30 359 H 36.5032 2.2616 1.1952 0
M  V30 360 H 36.1472 4.35586 2.61203 0
M  V30 361 H 36.0772 3.33829 4.07266 0
M  V30 362 H 38.5682 2.69406 2.65007 0
M  V30 363 H 38.8812 5.92973 4.95583 0
M  V30 364 H 37.2262 5.32831 4.46224 0
M  V30 365 H 40.4172 3.39564 3.22202 0
M  V30 366 H 40.5902 4.87098 4.27363 0
M  V30 367 N 33.9963 -1.19345 1.0293 0
M  V30 368 C 34.9263 -2.2481 0.631105 0
M  V30 369 C 35.9073 -1.66245 -0.360104 0
M  V30 370 O 37.0923 -1.92677 -0.242726 0
M  V30 371 C 34.2223 -3.47295 -0.0184607 0
M  V30 372 C 33.1763 -4.18536 0.895073 0
M  V30 373 C 32.5023 -5.34586 0.110592 0
M  V30 374 C 33.8023 -4.73287 2.209 0
M  V30 375 H 35.4963 -2.58372 1.51275 0
M  V30 376 H 33.0423 -1.24194 0.728818 0
M  V30 377 H 34.9953 -4.20268 -0.308675 0
M  V30 378 H 33.7193 -3.12933 -0.934907 0
M  V30 379 H 32.3783 -3.47446 1.16949 0
M  V30 380 H 32.0263 -4.96469 -0.807902 0
M  V30 381 H 31.7263 -5.83183 0.719087 0
M  V30 382 H 33.2503 -6.10355 -0.172871 0
M  V30 383 H 34.6643 -5.38013 1.98028 0
M  V30 384 H 33.0613 -5.32373 2.76946 0
M  V30 385 H 34.1313 -3.91331 2.86336 0
M  V30 386 N 35.4744 -0.807222 -1.35358 0
M  V30 387 C 36.4374 -0.223665 -2.28106 0
M  V30 388 C 37.4374 0.589354 -1.4961 0
M  V30 389 O 38.6274 0.407745 -1.69361 0
M  V30 390 C 35.7594 0.688149 -3.33882 0
M  V30 391 H 36.9524 -1.04169 -2.81227 0
M  V30 392 H 34.5054 -0.577921 -1.45223 0
M  V30 393 H 35.2404 1.52984 -2.85948 0
M  V30 394 H 35.0254 0.10687 -3.91954 0
M  V30 395 H 36.5154 1.09075 -4.03104 0
M  V30 396 N 36.9525 1.47285 -0.560781 0
M  V30 397 C 38.2005 2.02064 -0.0379868 0
M  V30 398 C 38.5215 1.43711 1.31803 0
M  V30 399 O 37.7915 0.61362 1.86042 0
M  V30 400 H 36.3715 0.746918 -0.0110531 0
M  V30 401 H 39.0335 1.80648 -0.731598 0
M  V30 402 H 38.1295 3.12064 0.0474463 0
M  V30 403 N 38.4306 0.297415 1.54768 0
M  V30 404 C 39.6766 -0.313376 2.00364 0
M  V30 405 C 40.0096 -1.53815 1.18553 0
M  V30 406 O 39.2846 -1.92739 0.261103 0
M  V30 407 C 39.5676 -0.673525 3.53745 0
M  V30 408 C 39.4206 0.560133 4.46299 0
M  V30 409 C 40.7396 -1.50143 4.13697 0
M  V30 410 H 37.8586 -0.112428 0.728374 0
M  V30 411 H 40.5006 0.4088 1.8555 0
M  V30 412 H 38.6506 -1.28881 3.665 0
M  V30 413 H 40.3226 1.19863 4.45455 0
M  V30 414 H 38.5656 1.19405 4.17043 0
M  V30 415 H 39.2366 0.26405 5.51368 0
M  V30 416 H 41.7126 -0.981588 4.04356 0
M  V30 417 H 40.5886 -1.72221 5.21182 0
M  V30 418 H 40.8496 -2.48952 3.65343 0
M  V30 419 N 39.9087 -1.5758 0.0250728 0
M  V30 420 C 40.8557 -2.09973 -0.958129 0
M  V30 421 C 41.8257 -1.00085 -1.3256 0
M  V30 422 O 43.0107 -1.27481 -1.41962 0
M  V30 423 C 40.1507 -2.62812 -2.2366 0
M  V30 424 C 39.2637 -3.86693 -1.92594 0
M  V30 425 C 38.3987 -4.27941 -3.14707 0
M  V30 426 C 37.4377 -5.44591 -2.79442 0
M  V30 427 N 36.5747 -5.81014 -3.94167 0
M  V30 428 H 41.4147 -2.937 -0.504428 0
M  V30 429 H 38.9517 -1.45172 -0.237392 0
M  V30 430 H 40.9097 -2.91536 -2.98434 0
M  V30 431 H 39.5397 -1.81922 -2.66654 0
M  V30 432 H 38.5917 -3.64723 -1.0808 0
M  V30 433 H 39.9037 -4.71547 -1.62619 0
M  V30 434 H 39.0577 -4.58079 -3.97804 0
M  V30 435 H 37.7967 -3.41845 -3.4784 0
M  V30 436 H 36.8017 -5.1415 -1.94755 0
M  V30 437 H 38.0267 -6.32382 -2.47528 0
M  V30 438 H 35.9727 -4.97874 -4.2715 0
M  V30 439 H 35.8897 -6.60498 -3.67801 0
M  V30 440 H 37.1577 -6.15756 -4.7798 0
M  V30 441 N 41.3868 0.248026 -1.55636 0
M  V30 442 C 42.6148 0.993808 -1.81469 0
M  V30 443 C 43.0298 1.78991 -0.60064 0
M  V30 444 O 42.3868 1.77345 0.430682 0
M  V30 445 C 42.4378 1.93258 -3.05506 0
M  V30 446 O 42.1588 1.16869 -4.22224 0
M  V30 447 C 43.6598 2.79444 -3.4413 0
M  V30 448 H 40.8798 0.292486 -0.603898 0
M  V30 449 H 43.4238 0.271253 -2.02693 0
M  V30 450 H 41.5788 2.60943 -2.86335 0
M  V30 451 H 41.9928 1.80359 -4.92515 0
M  V30 452 H 43.4668 3.41066 -4.34026 0
M  V30 453 H 43.9438 3.50499 -2.64665 0
M  V30 454 H 44.5498 2.17214 -3.65648 0
M  V30 455 N 42.8649 1.48995 0.513639 0
M  V30 456 C 44.0929 1.61531 1.29288 0
M  V30 457 C 44.5079 0.281801 1.86685 0
M  V30 458 O 43.8649 -0.731111 1.67215 0
M  V30 459 C 43.9159 2.67449 2.43215 0
M  V30 460 O 43.6369 3.95626 1.88179 0
M  V30 461 C 45.1379 2.90575 3.34785 0
M  V30 462 H 42.3579 0.544165 0.392588 0
M  V30 463 H 44.9019 1.9494 0.617956 0
M  V30 464 H 43.0569 2.36853 3.0656 0
M  V30 465 H 43.4709 4.53868 2.62876 0
M  V30 466 H 44.9449 3.68449 4.11035 0
M  V30 467 H 45.4219 2.00011 3.91015 0
M  V30 468 H 46.0279 3.22538 2.77218 0
M  V30 469 N 44.343 -0.763751 1.37857 0
M  V30 470 C 45.754 -1.3405 1.29952 0
M  V30 471 C 46.105 -1.96138 -0.0492898 0
M  V30 472 O 45.23 -1.94372 -0.951239 0
M  V30 473 C 45.825 -2.43729 2.35333 0
M  V30 474 C 44.384 -2.97151 2.31037 0
M  V30 475 C 43.531 -1.70438 2.18738 0
M  V30 476 H 46.482 -0.563396 1.48363 0
M  V30 477 H 46.503 -3.23412 2.00462 0
M  V30 478 H 46.015 -1.9851 3.33489 0
M  V30 479 H 44.116 -3.46724 1.3643 0
M  V30 480 H 44.229 -3.52221 3.24772 0
M  V30 481 H 42.593 -1.93673 1.65418 0
M  V30 482 H 43.376 -1.27312 3.18821 0
M  V30 483 N 45.8211 -1.22559 -0.990812 0
M  V30 484 C 46.7681 -0.997519 -2.0813 0
M  V30 485 C 47.7381 0.0814702 -1.659 0
M  V30 486 O 48.9231 -0.0685424 -1.90677 0
M  V30 487 C 46.0631 -0.583615 -3.40129 0
M  V30 488 C 45.1761 -1.7336 -3.9569 0
M  V30 489 C 44.3111 -1.26748 -5.15857 0
M  V30 490 C 43.3501 -2.38888 -5.63559 0
M  V30 491 N 42.4871 -1.93308 -6.74964 0
M  V30 492 H 47.3271 -1.93099 -2.26973 0
M  V30 493 H 44.8641 -0.962114 -1.11273 0
M  V30 494 H 46.8221 -0.324801 -4.15934 0
M  V30 495 H 45.4521 0.312845 -3.2128 0
M  V30 496 H 44.5041 -2.10669 -3.16738 0
M  V30 497 H 45.8161 -2.57704 -4.27071 0
M  V30 498 H 44.9701 -0.966173 -5.98957 0
M  V30 499 H 43.7091 -0.394272 -4.86104 0
M  V30 500 H 42.7141 -2.69805 -4.79046 0
M  V30 501 H 43.9391 -3.26728 -5.95336 0
M  V30 502 H 41.8851 -1.08352 -6.4699 0
M  V30 503 H 41.8021 -2.71217 -7.05675 0
M  V30 504 H 43.0701 -1.66252 -7.61564 0
M  V30 505 N 47.2992 1.18797 -1.03562 0
M  V30 506 C 48.5472 1.88278 -0.734569 0
M  V30 507 C 48.8682 1.8043 0.739586 0
M  V30 508 O 48.1382 1.21925 1.53333 0
M  V30 509 H 46.7182 0.696991 -0.268725 0
M  V30 510 H 49.3802 1.44192 -1.31129 0
M  V30 511 H 48.4762 2.94443 -1.03489 0
M  V30 512 N 48.7773 0.814389 1.34928 0
M  V30 513 C 50.0543 0.321363 1.92942 0
M  V30 514 C 50.4343 -1.19014 1.74353 0
M  V30 515 O 49.7823 -1.99328 1.11716 0
M  V30 516 C 49.9923 0.741323 3.41036 0
M  V30 517 C 51.3403 0.735266 4.18185 0
M  V30 518 O 52.3643 0.68336 3.49584 0
M  V30 519 O 51.2233 0.800703 5.40602 0
M  V30 520 H 48.3173 0.0858893 0.822528 0
M  V30 521 H 50.8633 0.898609 1.43955 0
M  V30 522 H 49.6353 1.78276 3.4833 0
M  V30 523 H 49.2583 0.139307 3.97356 0
M  V30 524 N 50.2554 -1.46986 0.568584 0
M  V30 525 C 51.1874 -2.28233 -0.210337 0
M  V30 526 C 52.2004 -1.37682 -0.868767 0
M  V30 527 O 53.3894 -1.62406 -0.740705 0
M  V30 528 C 50.4894 -3.12293 -1.3163 0
M  V30 529 C 49.6624 -4.30878 -0.7525 0
M  V30 530 C 48.7214 -4.96445 -1.74439 0
M  V30 531 O 47.7474 -5.54482 -1.286 0
M  V30 532 N 48.9494 -4.92171 -3.07812 0
M  V30 533 H 51.7144 -2.95723 0.486648 0
M  V30 534 H 49.2754 -1.56742 0.405409 0
M  V30 535 H 51.2674 -3.53022 -1.97883 0
M  V30 536 H 49.8374 -2.46971 -1.91636 0
M  V30 537 H 49.0574 -3.94104 0.0871128 0
M  V30 538 H 50.3454 -5.07558 -0.35536 0
M  V30 539 H 49.7434 -4.46239 -3.47688 0
M  V30 540 H 48.3004 -5.36884 -3.69592 0
M  V30 541 N 51.7335 -0.305618 -1.54608 0
M  V30 542 C 52.9825 0.303098 -1.9941 0
M  V30 543 C 53.2955 1.54648 -1.19764 0
M  V30 544 O 54.5015 2.23007 -1.54855 0
M  V30 545 C 52.9575 0.590588 -3.55021 0
M  V30 546 C 52.5655 -0.634719 -4.43481 0
M  V30 547 C 54.3095 1.16025 -4.08336 0
M  V30 548 C 52.2165 -0.320126 -5.90533 0
M  V30 549 H 51.1465 0.117031 -0.744862 0
M  V30 550 H 53.7975 -0.415045 -1.78745 0
M  V30 551 H 52.1795 1.36845 -3.71604 0
M  V30 552 H 53.3535 -1.41079 -4.38672 0
M  V30 553 H 51.6685 -1.12333 -4.00962 0
M  V30 554 H 54.2655 1.40994 -5.15776 0
M  V30 555 H 54.6085 2.10397 -3.5922 0
M  V30 556 H 55.1415 0.443985 -3.95315 0
M  V30 557 H 51.8805 -1.23254 -6.43808 0
M  V30 558 H 51.4005 0.418579 -5.98338 0
M  V30 559 H 53.0795 0.0766241 -6.46955 0
M  V30 560 N 53.2116 1.57565 -0.0334293 0
M  V30 561 C 54.4366 1.96689 0.657895 0
M  V30 562 C 54.8616 0.910057 1.64619 0
M  V30 563 O 54.2196 -0.128598 1.80843 0
M  V30 564 C 54.2676 3.34905 1.33683 0
M  V30 565 O 53.3716 3.31574 2.45219 0
M  V30 566 H 52.7126 0.641205 0.172489 0
M  V30 567 H 55.2426 2.04372 -0.0965621 0
M  V30 568 H 55.2526 3.71234 1.69262 0
M  V30 569 H 53.9276 4.11366 0.612411 0
M  V30 570 H 52.5046 3.06968 2.11719 0
M  V30 571 N 54.6897 -0.239769 1.55765 0
M  V30 572 C 55.6367 -1.29696 1.90913 0
M  V30 573 C 56.6067 -1.47478 0.764164 0
M  V30 574 O 57.7917 -1.61345 1.01845 0
M  V30 575 C 54.9317 -2.64598 2.21544 0
M  V30 576 C 54.0447 -2.54765 3.48882 0
M  V30 577 C 53.1797 -3.82069 3.69049 0
M  V30 578 C 52.2187 -3.66883 4.89963 0
M  V30 579 N 51.3557 -4.86094 5.06614 0
M  V30 580 H 56.1957 -0.990224 2.81067 0
M  V30 581 H 53.7327 -0.477684 1.39128 0
M  V30 582 H 55.6907 -3.43132 2.3731 0
M  V30 583 H 54.3207 -2.93405 1.34585 0
M  V30 584 H 53.3727 -1.67763 3.41409 0
M  V30 585 H 54.6847 -2.39457 4.37563 0
M  V30 586 H 53.8387 -4.69046 3.84812 0
M  V30 587 H 52.5777 -4.00282 2.78614 0
M  V30 588 H 51.5827 -2.78289 4.74168 0
M  V30 589 H 52.8077 -3.50157 5.81865 0
M  V30 590 H 50.7537 -5.04655 4.19117 0
M  V30 591 H 50.6707 -4.73443 5.89396 0
M  V30 592 H 51.9387 -5.74549 5.26795 0
M  V30 593 N 56.1678 -1.49265 -0.50573 0
M  V30 594 C 57.3978 -1.61979 -1.28243 0
M  V30 595 C 57.8058 -0.288576 -1.86986 0
M  V30 596 O 57.1488 0.735408 -1.68337 0
M  V30 597 C 57.2108 -2.62632 -2.45489 0
M  V30 598 C 56.8748 -4.071 -2.07651 0
M  V30 599 C 57.8718 -4.94049 -1.61901 0
M  V30 600 C 55.5568 -4.52801 -2.17431 0
M  V30 601 C 57.5508 -6.24736 -1.26428 0
M  V30 602 C 55.2378 -5.83503 -1.8157 0
M  V30 603 C 56.2358 -6.69294 -1.36142 0
M  V30 604 O 55.9238 -7.9756 -1.00764 0
M  V30 605 H 55.6558 -0.54834 -0.395347 0
M  V30 606 H 58.2098 -1.96002 -0.614204 0
M  V30 607 H 56.4398 -2.2378 -3.15372 0
M  V30 608 H 58.1288 -2.64925 -3.07522 0
M  V30 609 H 58.8948 -4.5997 -1.53795 0
M  V30 610 H 54.7738 -3.86196 -2.51742 0
M  V30 611 H 58.3178 -6.91652 -0.908992 0
M  V30 612 H 54.2148 -6.17112 -1.89324 0
M  V30 613 H 54.9828 -8.10529 -1.13952 0
M  V30 614 N 57.6459 0.756429 -1.3826 0
M  V30 615 C 58.9229 1.50584 -1.24835 0
M  V30 616 C 59.3029 2.10556 0.151485 0
M  V30 617 O 58.6509 1.96825 1.1607 0
M  V30 618 C 58.8609 2.57448 -2.3563 0
M  V30 619 C 60.2089 3.24429 -2.73917 0
M  V30 620 O 61.2329 2.67751 -2.34921 0
M  V30 621 O 60.0919 4.26937 -3.41156 0
M  V30 622 H 57.1859 0.667664 -0.48801 0
M  V30 623 H 59.7319 0.792083 -1.5008 0
M  V30 624 H 58.5039 2.11362 -3.29305 0
M  V30 625 H 58.1269 3.36408 -2.11933 0
M  V30 626 N 59.124 1.23083 0.984299 0
M  V30 627 C 60.054 1.03292 2.09411 0
M  V30 628 C 61.035 -0.048923 1.7003 0
M  V30 629 O 62.22 0.114967 1.93859 0
M  V30 630 C 59.35 0.619155 3.41736 0
M  V30 631 C 58.304 1.64791 3.95004 0
M  V30 632 C 57.63 1.0897 5.23478 0
M  V30 633 C 58.93 3.03999 4.24714 0
M  V30 634 H 60.624 1.96119 2.26225 0
M  V30 635 H 58.17 0.944344 1.08711 0
M  V30 636 H 60.123 0.467777 4.18796 0
M  V30 637 H 58.847 -0.344786 3.24775 0
M  V30 638 H 57.506 1.78721 3.20085 0
M  V30 639 H 57.154 0.11686 5.02864 0
M  V30 640 H 56.854 1.77704 5.60085 0
M  V30 641 H 58.378 0.950093 6.03163 0
M  V30 642 H 59.792 2.93393 4.92538 0
M  V30 643 H 58.189 3.69936 4.72512 0
M  V30 644 H 59.259 3.53285 3.32142 0
M  V30 645 N 60.6021 -1.18246 1.0419 0
M  V30 646 C 62.0181 -1.40269 0.761366 0
M  V30 647 C 62.2181 -1.90777 -0.648578 0
M  V30 648 O 61.2741 -2.0929 -1.41258 0
M  V30 649 C 62.5871 -2.40237 1.8085 0
M  V30 650 C 64.1351 -2.53961 1.82955 0
M  V30 651 C 64.6101 -3.57194 2.86664 0
M  V30 652 N 66.1011 -3.64702 2.85563 0
M  V30 653 C 66.8361 -4.44309 3.6246 0
M  V30 654 N 66.3321 -5.27514 4.49111 0
M  V30 655 N 68.1251 -4.39084 3.50944 0
M  V30 656 H 60.2761 -0.837882 1.95175 0
M  V30 657 H 62.5391 -0.430608 0.84456 0
M  V30 658 H 62.2451 -2.10176 2.81991 0
M  V30 659 H 62.1191 -3.39601 1.64168 0
M  V30 660 H 64.5061 -2.83338 0.824855 0
M  V30 661 H 64.5871 -1.54706 2.03715 0
M  V30 662 H 64.2311 -3.28558 3.87314 0
M  V30 663 H 64.1611 -4.5613 2.6316 0
M  V30 664 H 66.6521 -3.05289 2.22727 0
M  V30 665 H 66.9651 -5.85411 5.04493 0
M  V30 666 H 65.3101 -5.2693 4.53178 0
M  V30 667 H 68.5011 -3.7313 2.82651 0
M  V30 668 H 68.6741 -5.00883 4.11121 0
M  V30 669 N 62.0802 -0.821533 -1.34494 0
M  V30 670 C 63.3272 -0.408946 -1.98328 0
M  V30 671 C 63.6552 1.02764 -1.65136 0
M  V30 672 O 62.9102 1.73026 -0.914349 0
M  V30 673 C 63.2092 -0.556512 -3.53041 0
M  V30 674 C 62.8752 -1.95861 -4.0614 0
M  V30 675 C 61.5372 -2.34217 -4.20352 0
M  V30 676 C 63.8892 -2.87523 -4.34718 0
M  V30 677 C 61.2172 -3.63572 -4.6047 0
M  V30 678 C 63.5692 -4.1634 -4.76281 0
M  V30 679 C 62.2332 -4.54675 -4.88699 0
M  V30 680 H 61.5032 -0.149644 -0.725732 0
M  V30 681 H 64.1502 -1.04521 -1.6046 0
M  V30 682 H 62.4552 0.163148 -3.9146 0
M  V30 683 H 64.1522 -0.217826 -4.00408 0
M  V30 684 H 60.7422 -1.65066 -3.95539 0
M  V30 685 H 64.9262 -2.59133 -4.23277 0
M  V30 686 H 60.1822 -3.93101 -4.68275 0
M  V30 687 H 64.3562 -4.87455 -4.97354 0
M  V30 688 H 61.9832 -5.54959 -5.19542 0
M  V30 689 N 63.5583 1.46682 -0.576371 0
M  V30 690 C 64.4883 2.33028 0.148397 0
M  V30 691 C 65.4693 1.44961 0.889956 0
M  V30 692 O 66.6543 1.73789 0.866662 0
M  V30 693 C 63.7843 3.27117 1.1667 0
M  V30 694 C 62.7383 4.24575 0.540386 0
M  V30 695 C 62.0643 5.08126 1.6647 0
M  V30 696 C 63.3643 5.19722 -0.518331 0
M  V30 697 H 65.0583 2.93875 -0.572509 0
M  V30 698 H 62.6043 1.41315 -0.276768 0
M  V30 699 H 64.5573 3.86374 1.68204 0
M  V30 700 H 63.2813 2.64364 1.9178 0
M  V30 701 H 61.9403 3.66571 0.0461769 0
M  V30 702 H 61.5883 4.41762 2.40531 0
M  V30 703 H 61.2883 5.74122 1.25131 0
M  V30 704 H 62.8123 5.70246 2.18293 0
M  V30 705 H 64.2263 5.73232 -0.0883058 0
M  V30 706 H 62.6233 5.94026 -0.851679 0
M  V30 707 H 63.6933 4.64037 -1.40703 0
M  V30 708 N 65.0364 0.313813 1.54444 0
M  V30 709 C 65.9684 -0.590425 2.21465 0
M  V30 710 C 66.9814 -1.08753 1.21147 0
M  V30 711 O 68.1704 -1.00278 1.4767 0
M  V30 712 C 65.2704 -1.82179 2.85769 0
M  V30 713 C 64.4434 -1.46502 4.12136 0
M  V30 714 C 63.5024 -2.55288 4.60124 0
M  V30 715 O 62.5284 -2.19842 5.25032 0
M  V30 716 N 63.7304 -3.86053 4.33525 0
M  V30 717 H 66.4954 -0.0166033 2.99695 0
M  V30 718 H 64.0564 0.136578 1.61323 0
M  V30 719 H 66.0484 -2.54328 3.14801 0
M  V30 720 H 64.6184 -2.30369 2.11303 0
M  V30 721 H 63.8384 -0.575595 3.89975 0
M  V30 722 H 65.1264 -1.20221 4.94393 0
M  V30 723 H 64.5244 -4.17654 3.81552 0
M  V30 724 H 63.0814 -4.54461 4.67235 0
M  V30 725 N 66.5145 -1.57545 0.0417849 0
M  V30 726 C 67.9255 -1.80011 -0.495259 0
M  V30 727 C 68.2765 -0.953199 -1.71489 0
M  V30 728 O 67.4015 -0.167138 -2.15754 0
M  V30 729 C 67.9965 -3.26482 -0.905265 0
M  V30 730 C 66.5555 -3.499 -1.38734 0
M  V30 731 C 65.7025 -2.74979 -0.358056 0
M  V30 732 H 68.6535 -1.56425 0.267736 0
M  V30 733 H 68.6745 -3.36887 -1.76882 0
M  V30 734 H 68.1865 -3.88096 -0.017401 0
M  V30 735 H 66.2875 -2.93553 -2.29471 0
M  V30 736 H 66.4005 -4.58615 -1.38598 0
M  V30 737 H 64.7645 -2.40834 -0.828912 0
M  V30 738 H 65.5475 -3.39315 0.521561 0
M  V30 739 N 67.9926 0.231505 -1.5589 0
M  V30 740 C 68.9406 1.30649 -1.92441 0
M  V30 741 C 69.9346 1.49037 -0.805254 0
M  V30 742 O 71.1406 1.50329 -0.990007 0
M  V30 743 H 67.5156 0.437812 -0.611412 0
M  V30 744 H 69.4866 0.970973 -2.82161 0
M  V30 745 C 68.2356 2.65179 -2.24889 0
M  V30 746 H 67.5586 2.51835 -3.10514 0
M  V30 747 H 68.9986 3.39234 -2.54355 0
M  V30 748 C 67.4576 3.19439 -1.07054 0
M  V30 749 O 67.9876 4.00371 -0.326499 0
M  V30 750 N 66.1936 2.77675 -0.85703 0
M  V30 751 H 65.7406 2.11969 -1.46379 0
M  V30 752 H 65.6986 3.14321 -0.0703223 0
M  V30 753 N 69.4707 1.49531 0.497807 0
M  V30 754 C 70.4027 1.62559 1.61578 0
M  V30 755 C 71.4157 0.508134 1.54667 0
M  V30 756 O 72.6047 0.780309 1.60541 0
M  V30 757 C 69.7047 1.56925 3.00379 0
M  V30 758 C 68.8777 2.84257 3.3244 0
M  V30 759 C 67.9367 2.71632 4.50669 0
M  V30 760 O 66.9627 3.4557 4.52294 0
M  V30 761 N 68.1647 1.83391 5.5077 0
M  V30 762 H 70.9297 2.58981 1.50828 0
M  V30 763 H 68.4907 1.4666 0.685743 0
M  V30 764 H 70.4827 1.46129 3.77397 0
M  V30 765 H 69.0527 0.683483 3.05037 0
M  V30 766 H 68.2727 3.09381 2.44289 0
M  V30 767 H 69.5607 3.68666 3.5066 0
M  V30 768 H 68.9587 1.22583 5.52259 0
M  V30 769 H 67.5157 1.78515 6.26878 0
M  V30 770 N 70.9488 -0.749086 1.3866 0
M  V30 771 C 72.1968 -1.50535 1.34847 0
M  V30 772 C 72.5178 -1.94909 -0.0595016 0
M  V30 773 O 71.7878 -1.67973 -1.00806 0
M  V30 774 H 70.3678 -0.558395 0.49619 0
M  V30 775 H 73.0298 -0.890165 1.73384 0
M  V30 776 H 72.1258 -2.39413 2.00219 0
M  V30 777 N 72.4269 -1.23603 -0.977757 0
M  V30 778 C 73.3899 -1.02069 -2.05218 0
M  V30 779 C 74.3899 0.0184305 -1.60789 0
M  V30 780 O 75.5799 -0.221569 -1.72785 0
M  V30 781 C 72.7119 -0.544926 -3.36517 0
M  V30 782 H 73.9049 -1.9742 -2.25755 0
M  V30 783 H 71.4579 -1.05684 -1.15155 0
M  V30 784 H 72.1929 0.412241 -3.21669 0
M  V30 785 H 71.9779 -1.2948 -3.70105 0
M  V30 786 H 73.4679 -0.414985 -4.15533 0
M  V30 787 N 73.905 1.17692 -1.04816 0
M  V30 788 C 75.154 1.87192 -0.751132 0
M  V30 789 C 75.467 1.8169 0.724441 0
M  V30 790 O 76.673 2.46625 1.13527 0
M  V30 791 C 75.129 3.35857 -1.29338 0
M  V30 792 C 74.737 3.4987 -2.79812 0
M  V30 793 C 76.481 4.10709 -1.07322 0
M  V30 794 C 74.388 4.92536 -3.27356 0
M  V30 795 H 73.318 0.701162 -0.277288 0
M  V30 796 H 75.969 1.32932 -1.26496 0
M  V30 797 H 74.351 3.89631 -0.707376 0
M  V30 798 H 75.525 3.06332 -3.44235 0
M  V30 799 H 73.84 2.88433 -3.00325 0
M  V30 800 H 76.437 5.15952 -1.4035 0
M  V30 801 H 76.78 4.16299 -0.0108001 0
M  V30 802 H 77.313 3.6313 -1.62423 0
M  V30 803 H 74.052 4.92119 -4.33012 0
M  V30 804 H 73.572 5.3676 -2.67673 0
M  V30 805 H 75.251 5.61288 -3.21815 0
M  V30 806 N 75.3831 0.828654 1.34056 0
M  V30 807 C 76.6601 0.341809 1.9259 0
M  V30 808 C 77.0401 -1.17158 1.75605 0
M  V30 809 O 76.3881 -1.98132 1.13824 0
M  V30 810 C 76.5981 0.777453 3.4023 0
M  V30 811 C 77.9461 0.779579 4.17382 0
M  V30 812 O 78.9701 0.7204 3.48839 0
M  V30 813 O 77.8291 0.857996 5.39723 0
M  V30 814 H 74.9231 0.0946085 0.821571 0
M  V30 815 H 77.4691 0.913827 1.42994 0
M  V30 816 H 76.2411 1.8196 3.46419 0
M  V30 817 H 75.8641 0.181444 3.97186 0
M  V30 818 N 76.8612 -1.46375 0.584142 0
M  V30 819 C 78.2722 -1.86031 0.157959 0
M  V30 820 C 78.6232 -1.48753 -1.27933 0
M  V30 821 O 77.7482 -0.903098 -1.96655 0
M  V30 822 C 78.3432 -3.37642 0.279892 0
M  V30 823 C 76.9022 -3.76289 -0.09143 0
M  V30 824 C 76.0492 -2.7039 0.615178 0
M  V30 825 H 79.0002 -1.37509 0.792274 0
M  V30 826 H 79.0212 -3.77275 -0.494364 0
M  V30 827 H 78.5332 -3.64742 1.32607 0
M  V30 828 H 76.6342 -3.54806 -1.13769 0
M  V30 829 H 76.7472 -4.78246 0.285886 0
M  V30 830 H 75.1112 -2.5464 0.0552833 0
M  V30 831 H 75.8942 -3.0033 1.66303 0
M  V30 832 N 78.3393 -0.321999 -1.54275 0
M  V30 833 C 79.3023 0.531975 -2.22941 0
M  V30 834 C 80.3023 1.04478 -1.22234 0
M  V30 835 O 81.4923 0.937452 -1.46825 0
M  V30 836 C 78.6243 1.73874 -2.93224 0
M  V30 837 H 79.8173 -0.0682612 -2.99822 0
M  V30 838 H 77.3703 -0.0730644 -1.56129 0
M  V30 839 H 78.1053 2.37825 -2.20476 0
M  V30 840 H 77.8903 1.37847 -3.6707 0
M  V30 841 H 79.3803 2.34496 -3.45545 0
M  V30 842 N 79.8174 1.5752 -0.0501392 0
M  V30 843 C 80.7804 2.1037 0.909786 0
M  V30 844 C 81.7804 1.02308 1.24056 0
M  V30 845 O 82.9704 1.28385 1.17741 0
M  V30 846 C 80.1024 2.58708 2.21998 0
M  V30 847 H 81.2954 2.96479 0.451665 0
M  V30 848 H 78.8484 1.55038 0.198248 0
M  V30 849 H 79.5834 1.75989 2.72394 0
M  V30 850 H 79.3684 3.37675 1.99295 0
M  V30 851 H 80.8584 2.99747 2.9076 0
M  V30 852 N 81.2955 -0.223234 1.56011 0
M  V30 853 C 82.5445 -0.945912 1.78144 0
M  V30 854 C 82.8575 -1.85567 0.618396 0
M  V30 855 O 84.0635 -2.61688 0.723318 0
M  V30 856 C 82.5195 -1.73216 3.15475 0
M  V30 857 C 82.1275 -0.868619 4.39499 0
M  V30 858 C 83.8715 -2.44615 3.46935 0
M  V30 859 C 81.7785 -1.65212 5.67855 0
M  V30 860 H 80.7085 -0.356929 0.664167 0
M  V30 861 H 83.3595 -0.199845 1.82409 0
M  V30 862 H 81.7415 -2.52107 3.05382 0
M  V30 863 H 82.9155 -0.120366 4.60643 0
M  V30 864 H 81.2305 -0.26683 4.15544 0
M  V30 865 H 83.8275 -3.03732 4.40058 0
M  V30 866 H 84.1705 -3.17417 2.69355 0
M  V30 867 H 84.7035 -1.72715 3.58349 0
M  V30 868 H 81.4425 -0.967407 6.48322 0
M  V30 869 H 80.9625 -2.37503 5.50774 0
M  V30 870 H 82.6415 -2.21322 6.07968 0
M  V30 871 N 82.7736 -1.49793 -0.48987 0
M  V30 872 C 83.7236 -1.63673 -1.5873 0
M  V30 873 C 84.7076 -0.491956 -1.53195 0
M  V30 874 O 85.8996 -0.745461 -1.60536 0
M  V30 875 C 83.0286 -1.71689 -2.97284 0
M  V30 876 C 82.1146 -2.91781 -3.07774 0
M  V30 877 N 82.5056 -4.15714 -2.88124 0
M  V30 878 C 80.8036 -2.89949 -3.38889 0
M  V30 879 C 81.5046 -4.965 -3.03088 0
M  V30 880 N 80.4806 -4.30083 -3.3246 0
M  V30 881 H 84.2826 -2.57204 -1.42208 0
M  V30 882 H 81.7966 -1.46719 -0.69623 0
M  V30 883 H 83.7936 -1.79732 -3.76168 0
M  V30 884 H 82.4536 -0.793024 -3.14867 0
M  V30 885 H 83.4646 -4.45515 -2.64077 0
M  V30 886 H 80.1416 -2.06987 -3.62578 0
M  V30 887 H 81.5316 -6.04991 -2.92294 0
M  V30 888 N 84.2517 0.741722 -1.39055 0
M  V30 889 C 85.4797 1.53098 -1.39171 0
M  V30 890 C 85.8947 1.88794 0.0155099 0
M  V30 891 O 85.2517 1.53626 0.985159 0
M  V30 892 C 85.3027 2.82274 -2.2584 0
M  V30 893 O 85.0237 2.48097 -3.61081 0
M  V30 894 C 86.5247 3.76343 -2.34266 0
M  V30 895 H 83.7447 0.473335 -0.4756 0
M  V30 896 H 86.2887 0.917045 -1.82785 0
M  V30 897 H 84.4437 3.40015 -1.85656 0
M  V30 898 H 84.8577 3.31029 -4.06842 0
M  V30 899 H 86.3317 4.63898 -2.9917 0
M  V30 900 H 86.8087 4.17619 -1.35982 0
M  V30 901 H 87.4147 3.24523 -2.74891 0
M  V30 902 N 85.7298 1.2412 0.971189 0
M  V30 903 C 86.6598 1.05508 2.08304 0
M  V30 904 C 87.6408 -0.0308864 1.70072 0
M  V30 905 O 88.8258 0.135521 1.93727 0
M  V30 906 C 85.9558 0.655365 3.4106 0
M  V30 907 C 84.9098 1.68971 3.93234 0
M  V30 908 C 84.2358 1.14516 5.22293 0
M  V30 909 C 85.5358 3.08487 4.21465 0
M  V30 910 H 87.2298 1.98507 2.24132 0
M  V30 911 H 84.7758 0.955821 1.07704 0
M  V30 912 H 86.7288 0.51217 4.18276 0
M  V30 913 H 85.4528 -0.31032 3.25122 0
M  V30 914 H 84.1118 1.82106 3.18171 0
M  V30 915 H 83.7598 0.170189 5.02712 0
M  V30 916 H 83.4598 1.83635 5.58168 0
M  V30 917 H 84.9838 1.01401 6.02121 0
M  V30 918 H 86.3978 2.98601 4.89398 0
M  V30 919 H 84.7948 3.74926 4.68562 0
M  V30 920 H 85.8648 3.56787 3.28376 0
M  V30 921 N 87.2079 -1.17134 1.05439 0
M  V30 922 C 88.1179 -2.24878 0.668365 0
M  V30 923 C 89.1339 -1.71186 -0.311687 0
M  V30 924 O 90.3099 -2.00738 -0.163161 0
M  V30 925 C 87.3749 -3.46662 0.051648 0
M  V30 926 C 86.4359 -4.15429 1.08246 0
M  V30 927 C 85.6689 -5.31399 0.495082 0
M  V30 928 O 85.8919 -5.66153 -0.694743 0
M  V30 929 O 84.8259 -5.89187 1.23056 0
M  V30 930 H 88.6519 -2.60189 1.56637 0
M  V30 931 H 86.2369 -1.24482 0.826104 0
M  V30 932 H 88.1189 -4.20394 -0.290966 0
M  V30 933 H 86.7939 -3.13142 -0.819971 0
M  V30 934 H 85.7009 -3.43704 1.47711 0
M  V30 935 H 87.0339 -4.52982 1.92532 0
M  V30 936 N 88.686 -0.835752 -1.33615 0
M  V30 937 C 89.636 -0.238856 -2.26745 0
M  V30 938 C 90.62 0.604343 -1.49119 0
M  V30 939 O 91.812 0.456822 -1.71003 0
M  V30 940 C 88.941 0.587725 -3.38232 0
M  V30 941 C 88.027 -0.266811 -4.2326 0
M  V30 942 N 88.418 -1.34403 -4.87616 0
M  V30 943 C 86.716 -0.0533131 -4.45968 0
M  V30 944 C 87.417 -1.86819 -5.50884 0
M  V30 945 N 86.393 -1.17013 -5.30857 0
M  V30 946 H 90.195 -1.06266 -2.74016 0
M  V30 947 H 87.709 -0.679881 -1.47483 0
M  V30 948 H 89.706 1.03161 -4.03935 0
M  V30 949 H 88.366 1.40954 -2.9251 0
M  V30 950 H 89.377 -1.7269 -4.88261 0
M  V30 951 H 86.054 0.735312 -4.10974 0
M  V30 952 H 87.444 -2.7701 -6.1214 0
M  V30 953 N 90.1641 1.46063 -0.591896 0
M  V30 954 C 91.0941 2.33172 0.123673 0
M  V30 955 C 92.0751 1.45897 0.87453 0
M  V30 956 O 93.2601 1.74698 0.848181 0
M  V30 957 C 90.3901 3.28336 1.13194 0
M  V30 958 C 89.3441 4.25124 0.495324 0
M  V30 959 C 88.6701 5.09863 1.61071 0
M  V30 960 C 89.9701 5.19143 -0.573425 0
M  V30 961 H 91.6641 2.93252 -0.603646 0
M  V30 962 H 89.2101 1.41014 -0.291741 0
M  V30 963 H 91.1631 3.88137 1.64097 0
M  V30 964 H 89.8871 2.66383 1.88965 0
M  V30 965 H 88.5461 3.66599 0.00729452 0
M  V30 966 H 88.1941 4.44288 2.35832 0
M  V30 967 H 87.8941 5.75417 1.19035 0
M  V30 968 H 89.4181 5.72529 2.12233 0
M  V30 969 H 90.8321 5.73106 -0.1491 0
M  V30 970 H 89.2291 5.93089 -0.914636 0
M  V30 971 H 90.2991 4.62519 -1.45617 0
M  V30 972 N 91.6422 0.330177 1.54103 0
M  V30 973 C 92.5722 -0.525353 2.27513 0
M  V30 974 C 93.5532 -1.11383 1.2856 0
M  V30 975 O 94.7382 -1.13773 1.57383 0
M  V30 976 C 91.8682 -1.6831 3.03791 0
M  V30 977 C 90.8222 -1.2236 4.10137 0
M  V30 978 C 90.1482 -2.46882 4.74293 0
M  V30 979 C 91.4482 -0.333697 5.21233 0
M  V30 980 H 93.1422 0.087013 2.99274 0
M  V30 981 H 90.6882 0.0432893 1.43935 0
M  V30 982 H 92.6412 -2.28795 3.5388 0
M  V30 983 H 91.3652 -2.32216 2.29659 0
M  V30 984 H 90.0242 -0.64165 3.60941 0
M  V30 985 H 89.6722 -3.09165 3.96769 0
M  V30 986 H 89.3722 -2.16825 5.46133 0
M  V30 987 H 90.8962 -3.08117 5.27159 0
M  V30 988 H 92.3102 -0.845013 5.67038 0
M  V30 989 H 90.7072 -0.125612 5.99969 0
M  V30 990 H 91.7772 0.633724 4.80741 0
M  V30 991 N 93.1203 -1.57491 0.0584922 0
M  V30 992 C 94.0833 -2.1085 -0.898617 0
M  V30 993 C 95.0833 -1.02964 -1.23511 0
M  V30 994 O 96.2733 -1.29007 -1.17059 0
M  V30 995 C 93.4053 -2.59881 -2.20623 0
M  V30 996 H 94.5983 -2.96715 -0.435936 0
M  V30 997 H 92.1513 -1.55141 -0.190023 0
M  V30 998 H 92.8863 -1.77431 -2.71457 0
M  V30 999 H 92.6713 -3.38727 -1.97501 0
M  V30 1000 H 94.1613 -3.01285 -2.89166 0
M  V30 1001 N 94.5984 0.214957 -1.56127 0
M  V30 1002 C 95.8464 0.936518 -1.79091 0
M  V30 1003 C 96.1674 1.84606 -0.628148 0
M  V30 1004 O 95.4374 1.92664 0.35462 0
M  V30 1005 H 94.0174 0.3488 -0.660566 0
M  V30 1006 H 96.6794 0.22523 -1.93594 0
M  V30 1007 H 95.7754 1.53943 -2.71492 0
M  V30 1008 N 96.0765 1.50051 0.48192 0
M  V30 1009 C 97.3065 1.63999 1.2565 0
M  V30 1010 C 97.7145 0.318288 1.86504 0
M  V30 1011 O 97.0575 -0.708534 1.69486 0
M  V30 1012 C 97.1195 2.66504 2.4128 0
M  V30 1013 C 96.7835 4.10352 2.01148 0
M  V30 1014 C 97.7805 4.96562 1.54021 0
M  V30 1015 C 95.4655 4.56203 2.10199 0
M  V30 1016 C 97.4595 6.26668 1.16473 0
M  V30 1017 C 95.1465 5.86318 1.72264 0
M  V30 1018 C 96.1445 6.71375 1.25477 0
M  V30 1019 O 95.8325 7.99062 0.880626 0
M  V30 1020 H 95.5645 0.55456 0.386574 0
M  V30 1021 H 98.1185 1.96954 0.582944 0
M  V30 1022 H 96.3485 2.28769 3.11772 0
M  V30 1023 H 98.0375 2.69783 3.03268 0
M  V30 1024 H 98.8035 4.62358 1.46458 0
M  V30 1025 H 94.6825 3.90152 2.45566 0
M  V30 1026 H 98.2265 6.93011 0.798841 0
M  V30 1027 H 94.1235 6.20046 1.79482 0
M  V30 1028 H 94.8915 8.12239 1.01043 0
M  V30 1029 N 97.5546 -0.734337 1.39446 0
M  V30 1030 C 98.4876 -1.85715 1.32609 0
M  V30 1031 C 99.4656 -1.6137 0.199636 0
M  V30 1032 O 100.65 -1.84626 0.380195 0
M  V30 1033 C 97.7766 -3.21709 1.05929 0
M  V30 1034 C 96.8226 -3.64913 2.20773 0
M  V30 1035 S 97.6556 -3.74203 3.83056 0
M  V30 1036 C 98.8116 -5.12986 3.58603 0
M  V30 1037 H 99.0446 -1.91232 2.27635 0
M  V30 1038 H 96.5776 -0.899263 1.25509 0
M  V30 1039 H 98.5356 -4.00236 0.912203 0
M  V30 1040 H 97.1966 -3.13848 0.125883 0
M  V30 1041 H 96.3896 -4.63606 1.97699 0
M  V30 1042 H 95.9916 -2.93593 2.31688 0
M  V30 1043 H 98.2836 -5.99339 3.15909 0
M  V30 1044 H 99.2266 -5.41088 4.5676 0
M  V30 1045 H 99.6346 -4.82694 2.9269 0
M  V30 1046 N 99.0327 -1.24633 -0.964593 0
M  V30 1047 C 100.449 -1.01239 -1.2338 0
M  V30 1048 C 100.649 0.2769 -1.99588 0
M  V30 1049 O 99.7047 0.992241 -2.32187 0
M  V30 1050 C 101.018 -2.22937 -2.01791 0
M  V30 1051 C 102.566 -2.27594 -2.14872 0
M  V30 1052 C 103.041 -3.48921 -2.96678 0
M  V30 1053 N 104.532 -3.49257 -3.04259 0
M  V30 1054 C 105.267 -4.39795 -3.67924 0
M  V30 1055 N 104.763 -5.40591 -4.33281 0
M  V30 1056 N 106.556 -4.275 -3.64966 0
M  V30 1057 H 98.7067 -2.0748 -0.454502 0
M  V30 1058 H 100.97 -0.910647 -0.26349 0
M  V30 1059 H 100.676 -3.16587 -1.53184 0
M  V30 1060 H 100.55 -2.25306 -3.02518 0
M  V30 1061 H 102.937 -1.34473 -2.6268 0
M  V30 1062 H 103.018 -2.2925 -1.13482 0
M  V30 1063 H 102.662 -4.42359 -2.49562 0
M  V30 1064 H 102.592 -3.4451 -3.98272 0
M  V30 1065 H 105.083 -2.76337 -2.57771 0
M  V30 1066 H 105.396 -6.05904 -4.79687 0
M  V30 1067 H 103.741 -5.44475 -4.3194 0
M  V30 1068 H 106.932 -3.47987 -3.13086 0
M  V30 1069 H 107.105 -4.98258 -4.14298 0
M  V30 1070 N 100.511 1.16574 -1.06058 0
M  V30 1071 C 101.788 1.83048 -0.689416 0
M  V30 1072 C 102.168 1.94122 0.829443 0
M  V30 1073 O 101.516 1.48249 1.7388 0
M  V30 1074 C 101.726 3.20186 -1.38859 0
M  V30 1075 C 103.074 3.95989 -1.53226 0
M  V30 1076 O 104.098 3.29696 -1.3483 0
M  V30 1077 O 102.957 5.14813 -1.83384 0
M  V30 1078 H 100.051 0.790258 -0.243764 0
M  V30 1079 H 102.597 1.23797 -1.16071 0
M  V30 1080 H 101.369 3.07146 -2.4244 0
M  V30 1081 H 100.992 3.87112 -0.907216 0
M  V30 1082 N 101.989 0.842826 1.3317 0
M  V30 1083 C 102.939 0.250877 2.26616 0
M  V30 1084 C 103.923 -0.596427 1.49437 0
M  V30 1085 O 105.115 -0.447747 1.71243 0
M  V30 1086 C 102.244 -0.569779 3.38539 0
M  V30 1087 C 101.33 0.289254 4.23112 0
M  V30 1088 N 101.721 1.36987 4.86897 0
M  V30 1089 C 100.019 0.0769631 4.45934 0
M  V30 1090 C 100.72 1.89737 5.49886 0
M  V30 1091 N 99.6959 1.19827 5.30229 0
M  V30 1092 H 103.498 1.07718 2.73448 0
M  V30 1093 H 101.012 0.687693 1.47121 0
M  V30 1094 H 103.009 -1.01018 4.04476 0
M  V30 1095 H 101.669 -1.39401 2.93253 0
M  V30 1096 H 102.68 1.75277 4.87338 0
M  V30 1097 H 99.3569 -0.713507 4.11358 0
M  V30 1098 H 100.747 2.80253 6.10662 0
M  V30 1099 N 103.467 -1.45747 0.599634 0
M  V30 1100 C 104.397 -2.33235 -0.111306 0
M  V30 1101 C 105.378 -1.46359 -0.866781 0
M  V30 1102 O 106.563 -1.75146 -0.838904 0
M  V30 1103 C 103.693 -3.28932 -1.11451 0
M  V30 1104 C 102.647 -4.25381 -0.472772 0
M  V30 1105 C 101.973 -5.1071 -1.58365 0
M  V30 1106 C 103.273 -5.18831 0.600948 0
M  V30 1107 H 104.967 -2.92927 0.61919 0
M  V30 1108 H 102.513 -1.40857 0.299215 0
M  V30 1109 H 104.466 -3.89002 -1.62036 0
M  V30 1110 H 103.19 -2.67381 -1.8755 0
M  V30 1111 H 101.849 -3.66598 0.0121472 0
M  V30 1112 H 101.497 -4.45533 -2.33473 0
M  V30 1113 H 101.197 -5.7604 -1.15982 0
M  V30 1114 H 102.721 -5.73647 -2.09194 0
M  V30 1115 H 104.135 -5.73019 0.179491 0
M  V30 1116 H 102.532 -5.92595 0.946076 0
M  V30 1117 H 103.602 -4.6174 1.48068 0
M  V30 1118 N 104.945 -0.338344 -1.53925 0
M  V30 1119 C 105.855 0.529421 -2.28548 0
M  V30 1120 C 106.871 1.11645 -1.3346 0
M  V30 1121 O 108.047 1.13325 -1.66492 0
M  V30 1122 C 105.112 1.66713 -3.03987 0
M  V30 1123 C 104.173 1.11041 -4.14691 0
M  V30 1124 C 103.406 2.19389 -4.86522 0
M  V30 1125 O 103.629 3.40013 -4.57982 0
M  V30 1126 O 102.563 1.83976 -5.73094 0
M  V30 1127 H 106.389 -0.0770399 -3.03602 0
M  V30 1128 H 103.974 -0.103555 -1.49041 0
M  V30 1129 H 105.856 2.32918 -3.5118 0
M  V30 1130 H 104.531 2.25949 -2.31794 0
M  V30 1131 H 103.438 0.413024 -3.71813 0
M  V30 1132 H 104.771 0.562975 -4.8897 0
M  V30 1133 N 106.423 1.57458 -0.0668435 0
M  V30 1134 C 107.671 1.92919 0.602214 0
M  V30 1135 C 107.992 0.947215 1.70449 0
M  V30 1136 O 107.262 -0.00544117 1.95899 0
M  V30 1137 H 105.842 0.71217 0.22544 0
M  V30 1138 H 108.504 1.94508 -0.123535 0
M  V30 1139 H 107.6 2.94589 1.03073 0
M  V30 1140 N 107.901 -0.206675 1.56239 0
M  V30 1141 C 109.147 -0.930218 1.80208 0
M  V30 1142 C 109.48 -1.83387 0.638981 0
M  V30 1143 O 108.755 -1.91119 -0.361066 0
M  V30 1144 C 109.038 -1.75641 3.1436 0
M  V30 1145 C 108.891 -0.878257 4.41142 0
M  V30 1146 C 110.21 -2.73129 3.45092 0
M  V30 1147 H 107.329 -0.336742 0.655571 0
M  V30 1148 H 109.971 -0.198222 1.88963 0
M  V30 1149 H 108.121 -2.38048 3.07027 0
M  V30 1150 H 109.793 -0.269787 4.6051 0
M  V30 1151 H 108.036 -0.184385 4.33408 0
M  V30 1152 H 108.707 -1.49106 5.3148 0
M  V30 1153 H 111.183 -2.20856 3.52649 0
M  V30 1154 H 110.059 -3.28028 4.40101 0
M  V30 1155 H 110.32 -3.51606 2.68003 0
M  V30 1156 N 109.379 -1.50304 -0.473955 0
M  V30 1157 C 110.625 -1.61389 -1.22806 0
M  V30 1158 C 110.958 -0.311955 -1.91678 0
M  V30 1159 O 110.233 0.686384 -1.81986 0
M  V30 1160 C 110.516 -2.79219 -2.27396 0
M  V30 1161 C 110.369 -4.19286 -1.62848 0
M  V30 1162 C 111.688 -2.92614 -3.28732 0
M  V30 1163 H 108.807 -0.587399 -0.445119 0
M  V30 1164 H 111.449 -1.82681 -0.522265 0
M  V30 1165 H 109.599 -2.61195 -2.87592 0
M  V30 1166 H 111.271 -4.48892 -1.06271 0
M  V30 1167 H 109.514 -4.23677 -0.931693 0
M  V30 1168 H 110.185 -4.97655 -2.38838 0
M  V30 1169 H 112.661 -3.09105 -2.78556 0
M  V30 1170 H 111.537 -3.76688 -3.99246 0
M  V30 1171 H 111.798 -2.03107 -3.92683 0
M  V30 1172 N 110.857 0.726932 -1.39834 0
M  V30 1173 C 112.134 1.47902 -1.28001 0
M  V30 1174 C 112.514 2.1083 0.106789 0
M  V30 1175 O 111.862 1.99242 1.11869 0
M  V30 1176 C 112.072 2.52392 -2.41038 0
M  V30 1177 C 113.42 3.18546 -2.80737 0
M  V30 1178 O 114.444 2.62708 -2.40547 0
M  V30 1179 O 113.303 4.19604 -3.50135 0
M  V30 1180 H 110.397 0.657163 -0.502062 0
M  V30 1181 H 112.943 0.760071 -1.51727 0
M  V30 1182 H 111.715 2.04329 -3.33715 0
M  V30 1183 H 111.338 3.31837 -2.19021 0
M  V30 1184 N 112.336 1.25143 0.95797 0
M  V30 1185 C 113.582 1.09855 1.70469 0
M  V30 1186 C 113.915 -0.360187 1.90831 0
M  V30 1187 O 113.19 -1.26568 1.47685 0
M  V30 1188 C 113.473 1.8497 3.08963 0
M  V30 1189 C 113.326 3.38652 2.96032 0
M  V30 1190 C 114.645 1.63016 4.08795 0
M  V30 1191 H 111.764 0.400465 0.618706 0
M  V30 1192 H 114.406 1.53933 1.11376 0
M  V30 1193 H 112.556 1.47505 3.59409 0
M  V30 1194 H 114.228 3.85772 2.52938 0
M  V30 1195 H 112.471 3.66534 2.32025 0
M  V30 1196 H 113.142 3.8642 3.94187 0
M  V30 1197 H 115.618 1.95625 3.67247 0
M  V30 1198 H 114.494 2.18015 5.03747 0
M  V30 1199 H 114.755 0.570692 4.38401 0
M  V30 1200 N 113.814 -1.1601 1.06675 0
M  V30 1201 C 115.039 -1.91068 0.806706 0
M  V30 1202 C 115.464 -1.77112 -0.633485 0
M  V30 1203 O 114.822 -1.09908 -1.44187 0
M  V30 1204 C 114.87 -3.39655 1.21106 0
M  V30 1205 O 113.974 -4.10893 0.352189 0
M  V30 1206 H 113.315 -0.595125 0.294486 0
M  V30 1207 H 115.845 -1.46955 1.42356 0
M  V30 1208 H 115.855 -3.90434 1.18428 0
M  V30 1209 H 114.53 -3.49132 2.26008 0
M  V30 1210 H 113.107 -3.70285 0.440868 0
M  V30 1211 N 115.292 -0.849877 -1.32721 0
M  V30 1212 C 116.703 -0.506188 -1.79707 0
M  V30 1213 C 117.054 0.975627 -1.70223 0
M  V30 1214 O 116.179 1.76078 -1.25799 0
M  V30 1215 C 116.774 -0.912044 -3.26293 0
M  V30 1216 C 115.333 -0.620326 -3.71253 0
M  V30 1217 C 114.48 -1.11439 -2.53922 0
M  V30 1218 H 117.431 -1.03754 -1.20087 0
M  V30 1219 H 117.452 -0.226493 -3.79825 0
M  V30 1220 H 116.964 -1.99057 -3.33164 0
M  V30 1221 H 115.065 0.447674 -3.69901 0
M  V30 1222 H 115.178 -1.18327 -4.64258 0
M  V30 1223 H 113.542 -0.534834 -2.49021 0
M  V30 1224 H 114.325 -2.19992 -2.6355 0
M  V30 1225 N 116.77 1.45427 -0.607355 0
M  V30 1226 C 117.703 2.27635 0.160482 0
M  V30 1227 C 118.681 1.37122 0.873857 0
M  V30 1228 O 119.865 1.66551 0.882775 0
M  V30 1229 C 116.992 3.15486 1.23231 0
M  V30 1230 C 116.038 4.21939 0.622097 0
M  V30 1231 S 116.871 5.32459 -0.569852 0
M  V30 1232 C 118.027 6.23879 0.502577 0
M  V30 1233 H 118.26 2.9241 -0.536983 0
M  V30 1234 H 115.793 1.49265 -0.394868 0
M  V30 1235 H 117.751 3.66659 1.84585 0
M  V30 1236 H 116.412 2.49977 1.90185 0
M  V30 1237 H 115.605 4.8333 1.42856 0
M  V30 1238 H 115.207 3.73906 0.0837063 0
M  V30 1239 H 117.499 6.63261 1.38171 0
M  V30 1240 H 118.442 7.0806 -0.0751759 0
M  V30 1241 H 118.85 5.58545 0.8178 0
M  V30 1242 N 118.248 0.346503 1.53744 0
M  V30 1243 C 119.496 -0.248612 2.00565 0
M  V30 1244 C 119.817 -1.5083 1.23593 0
M  V30 1245 O 119.087 -1.92858 0.343912 0
M  V30 1246 H 117.667 -0.0948564 0.740953 0
M  V30 1247 H 120.329 0.468341 1.89189 0
M  V30 1248 H 119.425 -0.488994 3.08245 0
M  V30 1249 N 119.726 -1.57421 0.075193 0
M  V30 1250 C 120.966 -1.95495 -0.596757 0
M  V30 1251 C 121.33 -0.954886 -1.66571 0
M  V30 1252 O 122.531 -1.22341 -2.39345 0
M  V30 1253 C 120.802 -3.382 -1.15566 0
M  V30 1254 S 122.361 -3.98254 -1.84226 0
M  V30 1255 H 119.179 -0.683649 -0.195307 0
M  V30 1256 H 121.781 -1.94925 0.149859 0
M  V30 1257 H 120.485 -4.08766 -0.36588 0
M  V30 1258 H 120.016 -3.42321 -1.93856 0
M  V30 1259 H 122.031 -3.85435 -3.12497 0
M  V30 1260 N 121.204 0.198386 -1.56346 0
M  V30 1261 C 122.62 0.549085 -1.49857 0
M  V30 1262 C 122.82 1.86016 -0.774611 0
M  V30 1263 O 121.876 2.50416 -0.323776 0
M  V30 1264 C 123.189 0.606868 -2.94512 0
M  V30 1265 C 124.737 0.695925 -3.05165 0
M  V30 1266 C 125.212 0.784848 -4.51225 0
M  V30 1267 N 126.703 0.848463 -4.55363 0
M  V30 1268 C 127.438 0.937378 -5.65686 0
M  V30 1269 N 126.934 0.9888 -6.85707 0
M  V30 1270 N 128.727 0.974312 -5.53592 0
M  V30 1271 H 120.878 -0.661655 -2.01831 0
M  V30 1272 H 123.141 -0.235261 -0.918344 0
M  V30 1273 H 122.847 -0.28732 -3.50524 0
M  V30 1274 H 122.721 1.46268 -3.47686 0
M  V30 1275 H 125.108 1.58055 -2.49204 0
M  V30 1276 H 125.189 -0.186022 -2.55123 0
M  V30 1277 H 124.833 -0.0954072 -5.0781 0
M  V30 1278 H 124.763 1.68255 -4.98997 0
M  V30 1279 H 127.254 0.818103 -3.68938 0
M  V30 1280 H 127.567 1.05707 -7.65536 0
M  V30 1281 H 125.912 0.957534 -6.88372 0
M  V30 1282 H 129.103 0.930954 -4.58749 0
M  V30 1283 H 129.276 1.04015 -6.39597 0
M  V30 1284 N 122.682 1.50554 0.465978 0
M  V30 1285 C 123.91 1.65563 1.24083 0
M  V30 1286 C 124.325 0.341051 1.85694 0
M  V30 1287 O 123.682 -0.677543 1.69457 0
M  V30 1288 C 123.733 2.75051 2.34583 0
M  V30 1289 O 123.454 4.01413 1.75497 0
M  V30 1290 C 124.955 3.01078 3.25372 0
M  V30 1291 H 122.175 0.55638 0.375077 0
M  V30 1292 H 124.719 1.96807 0.555624 0
M  V30 1293 H 122.874 2.46486 2.9887 0
M  V30 1294 H 123.288 4.62002 2.48303 0
M  V30 1295 H 124.762 3.81339 3.99105 0
M  V30 1296 H 125.239 2.12349 3.84453 0
M  V30 1297 H 125.845 3.31194 2.66816 0
M  V30 1298 N 124.16 -0.719506 1.40217 0
M  V30 1299 C 125.408 -1.47641 1.3801 0
M  V30 1300 C 125.729 -1.94992 -0.018145 0
M  V30 1301 O 124.999 -1.70073 -0.972207 0
M  V30 1302 H 123.579 -0.547744 0.507923 0
M  V30 1303 H 126.241 -0.853187 1.75233 0
M  V30 1304 H 125.337 -2.35112 2.05253 0
M  V30 1305 N 125.638 -1.25649 -0.95132 0
M  V30 1306 C 126.571 -1.00644 -2.04807 0
M  V30 1307 C 127.549 0.0654271 -1.62468 0
M  V30 1308 O 128.733 -0.074911 -1.88351 0
M  V30 1309 C 125.86 -0.522052 -3.34653 0
M  V30 1310 C 124.906 -1.58495 -3.95957 0
M  V30 1311 S 125.739 -3.17108 -4.31512 0
M  V30 1312 C 126.895 -2.70412 -5.64471 0
M  V30 1313 H 127.128 -1.93508 -2.25703 0
M  V30 1314 H 124.661 -1.09216 -1.09139 0
M  V30 1315 H 126.619 -0.24923 -4.09743 0
M  V30 1316 H 125.28 0.386146 -3.11717 0
M  V30 1317 H 124.473 -1.1968 -4.89584 0
M  V30 1318 H 124.075 -1.80862 -3.2736 0
M  V30 1319 H 126.367 -2.14245 -6.42733 0
M  V30 1320 H 127.31 -3.62693 -6.08161 0
M  V30 1321 H 127.718 -2.10302 -5.23864 0
M  V30 1322 N 127.117 1.15442 -1.07289 0
M  V30 1323 C 128.347 1.89821 -0.815576 0
M  V30 1324 C 128.755 1.7823 0.634867 0
M  V30 1325 O 128.098 1.13152 1.44715 0
M  V30 1326 C 128.16 3.40817 -1.14385 0
M  V30 1327 C 127.824 3.76193 -2.59476 0
M  V30 1328 C 128.821 3.77269 -3.57721 0
M  V30 1329 C 126.506 4.0652 -2.95037 0
M  V30 1330 C 128.5 4.08176 -4.89562 0
M  V30 1331 C 126.187 4.37092 -4.27076 0
M  V30 1332 C 127.185 4.37902 -5.24148 0
M  V30 1333 O 126.873 4.67741 -6.53815 0
M  V30 1334 H 126.605 0.608465 -0.294528 0
M  V30 1335 H 129.159 1.472 -1.43252 0
M  V30 1336 H 127.389 3.83835 -0.469865 0
M  V30 1337 H 129.078 3.96485 -0.869179 0
M  V30 1338 H 129.844 3.5394 -3.3159 0
M  V30 1339 H 125.723 4.05049 -2.20128 0
M  V30 1340 H 129.267 4.08723 -5.65324 0
M  V30 1341 H 125.164 4.59889 -4.5296 0
M  V30 1342 H 125.932 4.85509 -6.58957 0
M  V30 1343 N 128.595 0.856903 1.32268 0
M  V30 1344 C 129.528 0.247937 2.26849 0
M  V30 1345 C 130.506 -0.615382 1.50505 0
M  V30 1346 O 131.69 -0.571689 1.79622 0
M  V30 1347 C 128.817 -0.650093 3.32403 0
M  V30 1348 C 127.863 0.140138 4.2627 0
M  V30 1349 S 128.696 1.51004 5.13769 0
M  V30 1350 C 129.852 0.61778 6.22844 0
M  V30 1351 H 130.085 1.04971 2.78152 0
M  V30 1352 H 127.618 0.654665 1.39834 0
M  V30 1353 H 129.576 -1.16256 3.93694 0
M  V30 1354 H 128.237 -1.4257 2.7988 0
M  V30 1355 H 127.43 -0.543945 5.01056 0
M  V30 1356 H 127.032 0.584267 3.69408 0
M  V30 1357 H 129.324 -0.177053 6.77269 0
M  V30 1358 H 130.267 1.33636 6.95375 0
M  V30 1359 H 130.675 0.191124 5.64176 0
M  V30 1360 N 130.073 -1.45103 0.615059 0
M  V30 1361 C 131.036 -2.29025 -0.0895485 0
M  V30 1362 C 132.036 -1.40174 -0.787906 0
M  V30 1363 O 133.226 -1.62217 -0.634933 0
M  V30 1364 C 130.358 -3.21376 -1.13711 0
M  V30 1365 H 131.551 -2.92807 0.648382 0
M  V30 1366 H 129.104 -1.51749 0.374444 0
M  V30 1367 H 129.839 -2.6241 -1.90556 0
M  V30 1368 H 129.624 -3.86834 -0.640475 0
M  V30 1369 H 131.114 -3.84459 -1.63036 0
M  V30 1370 N 131.551 -0.354651 -1.53558 0
M  V30 1371 C 132.797 0.238797 -2.01389 0
M  V30 1372 C 133.13 1.49309 -1.2418 0
M  V30 1373 O 132.405 1.91638 -0.332457 0
M  V30 1374 C 132.688 0.541771 -3.56001 0
M  V30 1375 C 132.541 -0.725388 -4.43912 0
M  V30 1376 C 133.86 1.34685 -4.18984 0
M  V30 1377 H 130.979 0.0853177 -0.732045 0
M  V30 1378 H 133.621 -0.477384 -1.83905 0
M  V30 1379 H 131.771 1.15189 -3.71031 0
M  V30 1380 H 133.443 -1.36313 -4.407 0
M  V30 1381 H 131.686 -1.34801 -4.12324 0
M  V30 1382 H 132.357 -0.468505 -5.50008 0
M  V30 1383 H 134.833 0.830837 -4.07721 0
M  V30 1384 H 133.709 1.52759 -5.27215 0
M  V30 1385 H 133.97 2.35221 -3.74331 0
M  V30 1386 N 133.029 1.57378 -0.0835403 0
M  V30 1387 C 134.278 1.93106 0.582498 0
M  V30 1388 C 134.591 0.96651 1.70053 0
M  V30 1389 O 135.797 1.21705 2.42693 0
M  V30 1390 C 134.253 3.43076 1.08751 0
M  V30 1391 C 133.861 4.48 -0.000146404 0
M  V30 1392 C 135.605 3.87785 1.72694 0
M  V30 1393 C 133.512 5.89113 0.519568 0
M  V30 1394 H 132.442 0.720775 0.221358 0
M  V30 1395 H 135.093 1.82821 -0.157675 0
M  V30 1396 H 133.475 3.48474 1.88101 0
M  V30 1397 H 134.649 4.54233 -0.775199 0
M  V30 1398 H 132.964 4.1283 -0.54406 0
M  V30 1399 H 135.561 4.90604 2.1263 0
M  V30 1400 H 135.904 3.25796 2.59158 0
M  V30 1401 H 136.437 3.8504 0.999457 0
M  V30 1402 H 133.176 6.54775 -0.308186 0
M  V30 1403 H 132.696 5.86376 1.26188 0
M  V30 1404 H 134.375 6.39346 0.992237 0
M  V30 1405 N 134.507 -0.190092 1.56449 0
M  V30 1406 C 135.755 -0.907908 1.80559 0
M  V30 1407 C 136.076 -1.83583 0.657438 0
M  V30 1408 O 135.346 -1.93203 -0.323924 0
M  V30 1409 H 133.926 -0.338247 0.666032 0
M  V30 1410 H 136.588 -0.194403 1.93928 0
M  V30 1411 H 135.684 -1.49604 2.73907 0
M  V30 1412 N 135.985 -1.50799 -0.457987 0
M  V30 1413 C 136.895 -1.73426 -1.57989 0
M  V30 1414 C 137.911 -0.617745 -1.62665 0
M  V30 1415 O 139.087 -0.897614 -1.80291 0
M  V30 1416 C 136.152 -1.83557 -2.94122 0
M  V30 1417 C 135.213 -3.07345 -2.99729 0
M  V30 1418 C 134.446 -3.16983 -4.29368 0
M  V30 1419 O 134.669 -2.33077 -5.20607 0
M  V30 1420 O 133.603 -4.09812 -4.40837 0
M  V30 1421 H 137.429 -2.68555 -1.41817 0
M  V30 1422 H 135.014 -1.35052 -0.638859 0
M  V30 1423 H 136.896 -1.92326 -3.74952 0
M  V30 1424 H 135.571 -0.916137 -3.10465 0
M  V30 1425 H 134.478 -3.04068 -2.1793 0
M  V30 1426 H 135.811 -3.9891 -2.88326 0
M  V30 1427 N 137.463 0.71206 -1.40597 0
M  V30 1428 C 138.874 1.29135 -1.34837 0
M  V30 1429 C 139.225 1.96186 -0.0235395 0
M  V30 1430 O 138.35 1.97768 0.878444 0
M  V30 1431 C 138.945 2.34827 -2.44217 0
M  V30 1432 C 137.504 2.88371 -2.41907 0
M  V30 1433 C 136.651 1.62202 -2.24913 0
M  V30 1434 H 139.602 0.507944 -1.50352 0
M  V30 1435 H 139.623 3.15749 -2.12327 0
M  V30 1436 H 139.135 1.85996 -3.40627 0
M  V30 1437 H 137.236 3.41422 -1.49204 0
M  V30 1438 H 137.349 3.39925 -3.37621 0
M  V30 1439 H 135.713 1.874 -1.72492 0
M  V30 1440 H 136.496 1.15391 -3.23326 0
M  V30 1441 N 138.941 1.26152 0.944643 0
M  V30 1442 C 140.218 1.02247 1.66748 0
M  V30 1443 C 140.598 -0.448202 2.06287 0
M  V30 1444 O 139.946 -1.42779 1.78399 0
M  V30 1445 C 140.156 1.96788 2.88228 0
M  V30 1446 C 141.504 2.25201 3.59958 0
M  V30 1447 O 142.528 1.94626 2.98327 0
M  V30 1448 O 141.387 2.77242 4.70956 0
M  V30 1449 H 138.481 0.388517 0.730057 0
M  V30 1450 H 141.027 1.37348 0.99668 0
M  V30 1451 H 139.799 2.96047 2.55875 0
M  V30 1452 H 139.422 1.62145 3.63035 0
M  V30 1453 N 140.419 -1.14872 1.07899 0
M  V30 1454 C 141.329 -2.2341 0.715915 0
M  V30 1455 C 142.345 -1.71808 -0.275306 0
M  V30 1456 O 143.521 -2.01039 -0.120545 0
M  V30 1457 C 140.586 -3.46474 0.125168 0
M  V30 1458 C 139.647 -4.13039 1.17034 0
M  V30 1459 C 138.88 -5.30229 0.607688 0
M  V30 1460 O 139.103 -5.675 -0.574497 0
M  V30 1461 O 138.037 -5.86444 1.35526 0
M  V30 1462 H 141.863 -2.56808 1.62121 0
M  V30 1463 H 139.448 -1.22702 0.852322 0
M  V30 1464 H 141.33 -4.20917 -0.201729 0
M  V30 1465 H 140.005 -3.14811 -0.753364 0
M  V30 1466 H 138.912 -3.40493 1.54968 0
M  V30 1467 H 140.245 -4.48796 2.02097 0
M  V30 1468 N 141.898 -0.863906 -1.31812 0
M  V30 1469 C 142.83 -0.272485 -2.27575 0
M  V30 1470 C 143.843 0.56104 -1.52827 0
M  V30 1471 O 145.032 0.384021 -1.7432 0
M  V30 1472 C 142.132 0.63283 -3.32939 0
M  V30 1473 C 141.305 -0.166902 -4.37081 0
M  V30 1474 C 140.364 0.665608 -5.21973 0
M  V30 1475 O 139.39 0.0958091 -5.69119 0
M  V30 1476 N 140.592 1.9787 -5.45736 0
M  V30 1477 H 143.357 -1.0954 -2.78964 0
M  V30 1478 H 140.918 -0.724791 -1.4477 0
M  V30 1479 H 142.91 1.19532 -3.86645 0
M  V30 1480 H 141.48 1.35642 -2.81638 0
M  V30 1481 H 140.7 -0.910838 -3.83533 0
M  V30 1482 H 141.988 -0.715874 -5.03739 0
M  V30 1483 H 141.386 2.46484 -5.09178 0
M  V30 1484 H 139.943 2.48911 -6.024 0
M  V30 1485 N 143.376 1.44774 -0.622745 0
M  V30 1486 C 144.624 2.01721 -0.123655 0
M  V30 1487 C 144.945 1.49172 1.25589 0
M  V30 1488 O 144.215 0.691974 1.83272 0
M  V30 1489 H 142.795 0.745777 -0.0427225 0
M  V30 1490 H 145.457 1.77382 -0.807559 0
M  V30 1491 H 144.553 3.11984 -0.0849534 0
M  V30 1492 N 144.854 0.36279 1.53368 0
M  V30 1493 C 146.1 -0.228113 2.01513 0
M  V30 1494 C 146.433 -1.48648 1.2497 0
M  V30 1495 O 145.708 -1.91459 0.342616 0
M  V30 1496 C 145.991 -0.522884 3.56284 0
M  V30 1497 C 145.844 0.74892 4.43521 0
M  V30 1498 C 147.163 -1.32461 4.19693 0
M  V30 1499 H 144.282 -0.0814343 0.732487 0
M  V30 1500 H 146.924 0.48713 1.83649 0
M  V30 1501 H 145.074 -1.1322 3.71636 0
M  V30 1502 H 146.746 1.38648 4.39971 0
M  V30 1503 H 144.989 1.36986 4.11603 0
M  V30 1504 H 145.66 0.497667 5.49752 0
M  V30 1505 H 148.136 -0.809203 4.08156 0
M  V30 1506 H 147.012 -1.49961 5.28018 0
M  V30 1507 H 147.273 -2.33232 3.75573 0
M  V30 1508 N 146.332 -1.57332 0.0918853 0
M  V30 1509 C 147.265 -2.09499 -0.904735 0
M  V30 1510 C 148.243 -1.00479 -1.27839 0
M  V30 1511 O 149.427 -1.27954 -1.38419 0
M  V30 1512 C 146.554 -2.56931 -2.2069 0
M  V30 1513 C 145.6 -3.77579 -1.98334 0
M  V30 1514 S 146.433 -5.21317 -1.22428 0
M  V30 1515 C 147.589 -5.72097 -2.53882 0
M  V30 1516 H 147.822 -2.93705 -0.460922 0
M  V30 1517 H 145.355 -1.53923 -0.121332 0
M  V30 1518 H 147.313 -2.84917 -2.95521 0
M  V30 1519 H 145.974 -1.72956 -2.62192 0
M  V30 1520 H 145.167 -4.08824 -2.94752 0
M  V30 1521 H 144.769 -3.5007 -1.31633 0
M  V30 1522 H 147.061 -5.80168 -3.49874 0
M  V30 1523 H 148.004 -6.70654 -2.27219 0
M  V30 1524 H 148.412 -5.00012 -2.62007 0
M  V30 1525 N 147.81 0.181792 -1.56548 0
M  V30 1526 C 148.757 1.22521 -1.95595 0
M  V30 1527 C 149.727 1.4454 -0.818373 0
M  V30 1528 O 150.912 1.57454 -1.07763 0
M  V30 1529 C 148.052 2.56193 -2.31212 0
M  V30 1530 C 147.165 2.41641 -3.58097 0
M  V30 1531 C 146.3 3.68108 -3.82975 0
M  V30 1532 C 145.339 3.48445 -5.03242 0
M  V30 1533 N 144.476 4.66956 -5.24306 0
M  V30 1534 H 149.316 0.885226 -2.84548 0
M  V30 1535 H 146.853 0.425718 -1.40805 0
M  V30 1536 H 148.811 3.34088 -2.49882 0
M  V30 1537 H 147.441 2.88208 -1.45382 0
M  V30 1538 H 146.493 1.54976 -3.474 0
M  V30 1539 H 147.805 2.23052 -4.46149 0
M  V30 1540 H 146.959 4.54441 -4.01956 0
M  V30 1541 H 145.698 3.89666 -2.93278 0
M  V30 1542 H 144.703 2.60499 -4.8417 0
M  V30 1543 H 145.928 3.2832 -5.9446 0
M  V30 1544 H 143.874 4.88752 -4.37559 0
M  V30 1545 H 143.791 4.51242 -6.06561 0
M  V30 1546 H 145.059 5.54602 -5.47756 0
M  V30 1547 N 149.288 1.51039 0.449983 0
M  V30 1548 C 150.251 1.70863 1.5277 0
M  V30 1549 C 151.251 0.578846 1.5002 0
M  V30 1550 O 152.441 0.846213 1.52266 0
M  V30 1551 C 149.573 1.75341 2.9235 0
M  V30 1552 H 150.766 2.67034 1.36502 0
M  V30 1553 H 148.319 1.40838 0.677812 0
M  V30 1554 H 149.054 0.809383 3.14037 0
M  V30 1555 H 148.839 2.57436 2.95752 0
M  V30 1556 H 150.329 1.92559 3.70555 0
M  V30 1557 N 150.766 -0.704594 1.40972 0
M  V30 1558 C 152.013 -1.46458 1.39844 0
M  V30 1559 C 152.341 -1.94499 0.00447594 0
M  V30 1560 O 151.596 -1.69275 -0.982057 0
M  V30 1561 C 151.895 -2.698 2.34399 0
M  V30 1562 C 151.561 -2.40464 3.81429 0
M  V30 1563 C 150.223 -2.32174 4.21484 0
M  V30 1564 C 152.575 -2.16086 4.74296 0
M  V30 1565 C 149.903 -1.97589 5.52427 0
M  V30 1566 C 152.255 -1.83011 6.05549 0
M  V30 1567 C 150.919 -1.7321 6.44635 0
M  V30 1568 H 150.189 -0.535927 0.511725 0
M  V30 1569 H 152.836 -0.806124 1.73706 0
M  V30 1570 H 151.141 -3.40536 1.93759 0
M  V30 1571 H 152.838 -3.27919 2.30804 0
M  V30 1572 H 149.428 -2.47808 3.49699 0
M  V30 1573 H 153.612 -2.2144 4.4416 0
M  V30 1574 H 148.868 -1.88547 5.81601 0
M  V30 1575 H 153.042 -1.63164 6.77016 0
M  V30 1576 H 150.669 -1.46179 7.46013 0
M  V30 1577 N 152.244 -1.26651 -0.937939 0
M  V30 1578 C 153.154 -1.10276 -2.07066 0
M  V30 1579 C 154.17 -0.0354197 -1.73964 0
M  V30 1580 O 155.346 -0.239816 -1.99967 0
M  V30 1581 C 152.411 -0.740887 -3.38691 0
M  V30 1582 C 151.472 -1.88799 -3.85556 0
M  V30 1583 C 150.705 -1.54329 -5.10899 0
M  V30 1584 O 150.928 -0.446494 -5.6865 0
M  V30 1585 O 149.862 -2.37911 -5.52885 0
M  V30 1586 H 153.688 -2.05309 -2.23789 0
M  V30 1587 H 151.273 -1.05743 -1.0554 0
M  V30 1588 H 153.155 -0.55195 -4.1777 0
M  V30 1589 H 151.83 0.180022 -3.23199 0
M  V30 1590 H 150.737 -2.13191 -3.07409 0
M  V30 1591 H 152.07 -2.78874 -4.05574 0
M  V30 1592 N 153.722 1.14298 -1.08507 0
M  V30 1593 C 154.685 2.17607 -0.719711 0
M  V30 1594 C 155.685 1.58907 0.245997 0
M  V30 1595 O 156.875 1.74181 0.0254081 0
M  V30 1596 C 154.007 3.40842 -0.0627695 0
M  V30 1597 H 155.2 2.51443 -1.63452 0
M  V30 1598 H 152.753 1.28963 -0.88307 0
M  V30 1599 H 153.488 3.12587 0.863716 0
M  V30 1600 H 153.273 3.84713 -0.757504 0
M  V30 1601 H 154.763 4.17221 0.177786 0
M  V30 1602 N 155.201 0.870884 1.31352 0
M  V30 1603 C 156.164 0.332243 2.26779 0
M  V30 1604 C 157.164 -0.517302 1.52252 0
M  V30 1605 O 158.354 -0.326477 1.71113 0
M  V30 1606 C 155.486 -0.528066 3.36785 0
M  V30 1607 H 156.679 1.17469 2.75937 0
M  V30 1608 H 154.232 0.64655 1.423 0
M  V30 1609 H 154.967 -1.39167 2.92922 0
M  V30 1610 H 154.752 0.0802582 3.92018 0
M  V30 1611 H 156.242 -0.897179 4.07849 0
M  V30 1612 N 156.679 -1.44442 0.630414 0
M  V30 1613 C 157.609 -2.33418 -0.0618083 0
M  V30 1614 C 158.59 -1.48165 -0.835541 0
M  V30 1615 O 159.775 -1.76886 -0.801564 0
M  V30 1616 C 156.905 -3.31222 -1.04449 0
M  V30 1617 C 155.859 -4.26288 -0.382436 0
M  V30 1618 C 155.185 -5.13954 -1.47497 0
M  V30 1619 C 156.485 -5.1744 0.710865 0
M  V30 1620 H 158.179 -2.91548 0.681184 0
M  V30 1621 H 155.725 -1.40191 0.329026 0
M  V30 1622 H 157.678 -3.92351 -1.53748 0
M  V30 1623 H 156.402 -2.71299 -1.81836 0
M  V30 1624 H 155.061 -3.6649 0.0899054 0
M  V30 1625 H 154.709 -4.50385 -2.2397 0
M  V30 1626 H 154.409 -5.7837 -1.03737 0
M  V30 1627 H 155.933 -5.77955 -1.96979 0
M  V30 1628 H 157.347 -5.72509 0.300996 0
M  V30 1629 H 155.744 -5.90455 1.07156 0
M  V30 1630 H 156.814 -4.58496 1.57829 0
M  V30 1631 N 158.157 -0.370918 -1.53173 0
M  V30 1632 C 159.104 0.473035 -2.259 0
M  V30 1633 C 160.074 1.07311 -1.26781 0
M  V30 1634 O 161.259 1.1046 -1.55574 0
M  V30 1635 C 158.399 1.60405 -3.05556 0
M  V30 1636 C 157.512 1.02863 -4.19575 0
M  V30 1637 C 156.647 2.12918 -4.86661 0
M  V30 1638 C 155.686 1.52869 -5.92704 0
M  V30 1639 N 154.823 2.56779 -6.53459 0
M  V30 1640 H 159.663 -0.153649 -2.97604 0
M  V30 1641 H 157.2 -0.0875946 -1.46839 0
M  V30 1642 H 159.158 2.27034 -3.50016 0
M  V30 1643 H 157.788 2.20131 -2.36097 0
M  V30 1644 H 156.84 0.252465 -3.79561 0
M  V30 1645 H 158.152 0.549642 -4.95762 0
M  V30 1646 H 157.306 2.87356 -5.34333 0
M  V30 1647 H 156.045 2.6417 -4.09958 0
M  V30 1648 H 155.05 0.769479 -5.44389 0
M  V30 1649 H 156.275 1.02435 -6.7133 0
M  V30 1650 H 154.221 3.07235 -5.79606 0
M  V30 1651 H 154.138 2.13583 -7.25202 0
M  V30 1652 H 155.406 3.30903 -7.05779 0
M  V30 1653 N 159.635 1.57281 -0.100228 0
M  V30 1654 C 160.912 1.86014 0.604812 0
M  V30 1655 C 161.292 0.998025 1.86018 0
M  V30 1656 O 160.64 0.0718184 2.28387 0
M  V30 1657 C 160.85 3.36784 0.915278 0
M  V30 1658 C 162.198 4.04957 1.27651 0
M  V30 1659 O 163.222 3.41695 1.00613 0
M  V30 1660 O 162.081 5.16593 1.7831 0
M  V30 1661 H 159.175 0.76942 0.303185 0
M  V30 1662 H 161.721 1.69176 -0.133313 0
M  V30 1663 H 160.493 3.91292 0.0248896 0
M  V30 1664 H 160.116 3.58987 1.70921 0
M  V30 1665 N 161.113 -0.173488 1.56642 0
M  V30 1666 C 162.341 -0.906095 1.86004 0
M  V30 1667 C 162.756 -1.75921 0.685355 0
M  V30 1668 O 162.113 -1.79198 -0.345578 0
M  V30 1669 C 162.164 -1.78462 3.14378 0
M  V30 1670 O 161.885 -0.965914 4.27319 0
M  V30 1671 C 163.386 -2.62707 3.57071 0
M  V30 1672 H 160.606 -0.263341 0.617165 0
M  V30 1673 H 163.15 -0.174236 2.03756 0
M  V30 1674 H 161.305 -2.46984 2.98459 0
M  V30 1675 H 161.719 -1.56655 5.00559 0
M  V30 1676 H 163.193 -3.19969 4.49804 0
M  V30 1677 H 163.67 -3.37472 2.81086 0
M  V30 1678 H 164.276 -1.99521 3.75595 0
M  V30 1679 N 162.591 -1.51276 -0.441967 0
M  V30 1680 C 163.554 -1.7167 -1.51862 0
M  V30 1681 C 164.554 -0.586793 -1.49711 0
M  V30 1682 O 165.744 -0.854276 -1.51815 0
M  V30 1683 C 162.876 -1.76889 -2.91416 0
M  V30 1684 H 164.069 -2.67754 -1.35084 0
M  V30 1685 H 161.622 -1.41196 -0.670333 0
M  V30 1686 H 162.357 -0.826026 -3.13604 0
M  V30 1687 H 162.142 -2.59001 -2.94382 0
M  V30 1688 H 163.632 -1.94522 -3.69528 0
M  V30 1689 N 164.069 0.697108 -1.41344 0
M  V30 1690 C 165.317 1.45426 -1.40341 0
M  V30 1691 C 165.638 1.94996 -0.0128787 0
M  V30 1692 O 164.908 1.71599 0.945027 0
M  V30 1693 H 163.488 0.539594 -0.516573 0
M  V30 1694 H 166.15 0.825201 -1.76569 0
M  V30 1695 H 165.246 2.31817 -2.08967 0
M  V30 1696 N 165.547 1.27147 0.931209 0
M  V30 1697 C 166.497 1.06227 2.01742 0
M  V30 1698 C 167.481 -0.00859065 1.60898 0
M  V30 1699 O 168.673 0.209537 1.75755 0
M  V30 1700 C 165.802 0.707787 3.35924 0
M  V30 1701 C 164.888 1.81661 3.83223 0
M  V30 1702 N 165.279 3.05564 4.03069 0
M  V30 1703 C 163.577 1.70249 4.12227 0
M  V30 1704 C 164.278 3.77697 4.42403 0
M  V30 1705 N 163.254 3.0544 4.49675 0
M  V30 1706 H 167.056 2.00261 2.15111 0
M  V30 1707 H 164.57 1.1781 1.11779 0
M  V30 1708 H 166.567 0.539043 4.134 0
M  V30 1709 H 165.227 -0.224964 3.2392 0
M  V30 1710 H 166.238 3.41363 3.89476 0
M  V30 1711 H 162.915 0.840329 4.08956 0
M  V30 1712 H 164.305 4.84168 4.65866 0
M  V30 1713 N 167.025 -1.13721 1.09112 0
M  V30 1714 C 168.302 -1.81155 0.737706 0
M  V30 1715 C 168.682 -1.96253 -0.777683 0
M  V30 1716 O 168.03 -1.52807 -1.69889 0
M  V30 1717 C 168.24 -3.16392 1.47299 0
M  V30 1718 C 169.588 -3.91787 1.63671 0
M  V30 1719 O 170.612 -3.26005 1.43524 0
M  V30 1720 O 169.471 -5.0977 1.96969 0
M  V30 1721 H 166.565 -0.783518 0.26463 0
M  V30 1722 H 169.111 -1.20676 1.19312 0
M  V30 1723 H 167.883 -3.0061 2.50498 0
M  V30 1724 H 167.506 -3.8457 1.00953 0
M  V30 1725 N 168.503 -0.877838 -1.30888 0
M  V30 1726 C 169.435 -0.296607 -2.27273 0
M  V30 1727 C 170.448 0.544799 -1.53414 0
M  V30 1728 O 171.637 0.365511 -1.74718 0
M  V30 1729 C 168.737 0.597481 -3.33592 0
M  V30 1730 C 167.91 -0.213251 -4.3688 0
M  V30 1731 C 166.969 0.610208 -5.2265 0
M  V30 1732 O 165.995 0.035441 -5.69189 0
M  V30 1733 N 167.197 1.92071 -5.47804 0
M  V30 1734 H 169.962 -1.12492 -2.77787 0
M  V30 1735 H 167.523 -0.740105 -1.43993 0
M  V30 1736 H 169.515 1.15425 -3.87891 0
M  V30 1737 H 168.085 1.32647 -2.83061 0
M  V30 1738 H 167.305 -0.951466 -3.82545 0
M  V30 1739 H 168.593 -0.769262 -5.02951 0
M  V30 1740 H 167.991 2.4107 -5.11763 0
M  V30 1741 H 166.548 2.42508 -6.05007 0
M  V30 1742 N 169.982 1.44106 -0.638065 0
M  V30 1743 C 171.393 1.85316 -0.226894 0
M  V30 1744 C 171.744 1.53399 1.22324 0
M  V30 1745 O 170.869 0.975463 1.93167 0
M  V30 1746 C 171.464 3.3637 -0.405013 0
M  V30 1747 C 170.023 3.76369 -0.0482902 0
M  V30 1748 C 169.17 2.67921 -0.715108 0
M  V30 1749 H 172.121 1.34474 -0.842764 0
M  V30 1750 H 172.142 3.7885 0.354 0
M  V30 1751 H 171.654 3.59569 -1.46053 0
M  V30 1752 H 169.755 3.58784 1.00522 0
M  V30 1753 H 169.868 4.76856 -0.463187 0
M  V30 1754 H 168.232 2.54259 -0.149753 0
M  V30 1755 H 169.015 2.93951 -1.77335 0
M  V30 1756 N 171.46 0.379036 1.52974 0
M  V30 1757 C 172.709 -0.207612 2.00629 0
M  V30 1758 C 173.022 -1.48758 1.27006 0
M  V30 1759 O 174.228 -2.15365 1.65318 0
M  V30 1760 C 172.684 -0.42053 3.57435 0
M  V30 1761 C 172.292 0.845587 4.39948 0
M  V30 1762 C 174.036 -0.964102 4.13407 0
M  V30 1763 C 171.943 0.601513 5.88333 0
M  V30 1764 H 170.873 -0.0813591 0.749598 0
M  V30 1765 H 173.524 0.499853 1.76561 0
M  V30 1766 H 171.906 -1.18959 3.7771 0
M  V30 1767 H 173.08 1.61848 4.31442 0
M  V30 1768 H 171.395 1.31336 3.95145 0
M  V30 1769 H 173.992 -1.16225 5.21916 0
M  V30 1770 H 174.335 -1.93019 3.68849 0
M  V30 1771 H 174.868 -0.25487 3.96983 0
M  V30 1772 H 171.607 1.53831 6.37194 0
M  V30 1773 H 171.127 -0.132628 5.99653 0
M  V30 1774 H 172.806 0.232134 6.46583 0
M  V30 1775 N 172.938 -1.57226 0.108567 0
M  V30 1776 C 174.349 -1.8195 -0.418464 0
M  V30 1777 C 174.7 -1.02508 -1.67292 0
M  V30 1778 O 173.825 -0.258496 -2.14851 0
M  V30 1779 C 174.42 -3.30028 -0.765979 0
M  V30 1780 C 172.979 -3.55469 -1.23769 0
M  V30 1781 C 172.126 -2.7625 -0.241106 0
M  V30 1782 H 175.077 -1.55149 0.33384 0
M  V30 1783 H 175.098 -3.44086 -1.62434 0
M  V30 1784 H 174.61 -3.87821 0.147219 0
M  V30 1785 H 172.711 -3.03022 -2.16814 0
M  V30 1786 H 172.824 -4.6408 -1.19022 0
M  V30 1787 H 171.188 -2.44133 -0.72602 0
M  V30 1788 H 171.971 -3.36797 0.665007 0
M  V30 1789 N 174.416 0.165178 -1.56732 0
M  V30 1790 C 175.664 0.879068 -1.8198 0
M  V30 1791 C 175.985 1.82514 -0.686561 0
M  V30 1792 O 175.255 1.93694 0.293146 0
M  V30 1793 H 173.835 0.327608 -0.671329 0
M  V30 1794 H 176.497 0.163526 -1.94213 0
M  V30 1795 H 175.593 1.45228 -2.76252 0
M  V30 1796 N 175.894 1.51508 0.433938 0
M  V30 1797 C 177.14 1.64588 1.18484 0
M  V30 1798 C 177.473 0.362666 1.90784 0
M  V30 1799 O 176.748 -0.637892 1.83742 0
M  V30 1800 C 177.031 2.85149 2.19913 0
M  V30 1801 C 176.884 4.23456 1.51674 0
M  V30 1802 C 178.203 3.01227 3.20858 0
M  V30 1803 H 175.322 0.598994 0.429389 0
M  V30 1804 H 177.964 1.84002 0.473647 0
M  V30 1805 H 176.114 2.68729 2.80566 0
M  V30 1806 H 177.786 4.51552 0.943322 0
M  V30 1807 H 176.029 4.25998 0.819035 0
M  V30 1808 H 176.7 5.03812 2.2556 0
M  V30 1809 H 179.176 3.16382 2.70263 0
M  V30 1810 H 178.052 3.87141 3.89118 0
M  V30 1811 H 178.313 2.13447 3.8716 0
M  V30 1812 N 177.372 -0.689602 1.41712 0
M  V30 1813 C 178.597 -1.48329 1.44959 0
M  V30 1814 C 179.022 -1.8801 0.0581283 0
M  V30 1815 O 178.38 -1.55026 -0.940035 0
M  V30 1816 C 178.428 -2.71835 2.36935 0
M  V30 1817 O 177.532 -3.69549 1.8305 0
M  V30 1818 H 176.873 -0.446199 0.491734 0
M  V30 1819 H 179.403 -0.847127 1.86239 0
M  V30 1820 H 179.413 -3.20076 2.53013 0
M  V30 1821 H 178.088 -2.42291 3.38035 0
M  V30 1822 H 176.665 -3.2851 1.76452 0
M  V30 1823 N 178.85 -1.27639 -0.924453 0
M  V30 1824 C 179.76 -1.12466 -2.05885 0
M  V30 1825 C 180.776 -0.053869 -1.73917 0
M  V30 1826 O 181.952 -0.261012 -1.99702 0
M  V30 1827 C 179.017 -0.776768 -3.37886 0
M  V30 1828 C 178.078 -1.92878 -3.83532 0
M  V30 1829 C 177.311 -1.59739 -5.09234 0
M  V30 1830 O 177.534 -0.506782 -5.68144 0
M  V30 1831 O 176.468 -2.43761 -5.50331 0
M  V30 1832 H 180.294 -2.07671 -2.21599 0
M  V30 1833 H 177.879 -1.06857 -1.04413 0
M  V30 1834 H 179.761 -0.596229 -4.17161 0
M  V30 1835 H 178.436 0.145732 -3.23372 0
M  V30 1836 H 177.343 -2.1644 -3.0513 0
M  V30 1837 H 178.676 -2.8316 -4.02593 0
M  V30 1838 N 180.328 1.1314 -1.09713 0
M  V30 1839 C 181.258 2.20748 -0.761102 0
M  V30 1840 C 182.239 1.68061 0.262566 0
M  V30 1841 O 183.424 1.93765 0.129977 0
M  V30 1842 C 180.554 3.46812 -0.184054 0
M  V30 1843 C 179.508 4.12606 -1.13757 0
M  V30 1844 C 178.834 5.33031 -0.422083 0
M  V30 1845 C 180.134 4.59603 -2.48118 0
M  V30 1846 H 181.828 2.49113 -1.66082 0
M  V30 1847 H 179.374 1.19734 -0.799987 0
M  V30 1848 H 181.327 4.21353 0.0631215 0
M  V30 1849 H 180.051 3.17851 0.750868 0
M  V30 1850 H 178.71 3.40036 -1.37007 0
M  V30 1851 H 178.358 5.00335 0.517072 0
M  V30 1852 H 178.058 5.77999 -1.05788 0
M  V30 1853 H 179.582 6.10325 -0.183277 0
M  V30 1854 H 180.996 5.25552 -2.29059 0
M  V30 1855 H 179.393 5.15321 -3.07514 0
M  V30 1856 H 180.463 3.73971 -3.08665 0
M  V30 1857 N 181.806 0.884767 1.30421 0
M  V30 1858 C 182.716 0.355398 2.31892 0
M  V30 1859 C 183.732 -0.542261 1.65335 0
M  V30 1860 O 184.908 -0.435432 1.96637 0
M  V30 1861 C 181.973 -0.421661 3.44126 0
M  V30 1862 C 181.034 0.505727 4.26311 0
M  V30 1863 C 180.267 -0.234343 5.33185 0
M  V30 1864 O 180.49 -1.46045 5.51386 0
M  V30 1865 O 179.424 0.415443 6.00465 0
M  V30 1866 H 183.25 1.19685 2.79122 0
M  V30 1867 H 180.835 0.648596 1.34587 0
M  V30 1868 H 182.717 -0.861641 4.12497 0
M  V30 1869 H 181.392 -1.23942 2.99032 0
M  V30 1870 H 180.299 0.994513 3.60639 0
M  V30 1871 H 181.632 1.28948 4.75009 0
M  V30 1872 N 183.284 -1.43765 0.645699 0
M  V30 1873 C 184.524 -2.03776 0.159542 0
M  V30 1874 C 184.888 -1.49792 -1.2011 0
M  V30 1875 O 186.089 -2.01398 -1.78023 0
M  V30 1876 C 184.36 -3.57036 0.161251 0
M  V30 1877 S 185.919 -4.3804 -0.258159 0
M  V30 1878 H 182.737 -0.707717 0.0682454 0
M  V30 1879 H 185.339 -1.75941 0.852352 0
M  V30 1880 H 184.043 -3.9383 1.15439 0
M  V30 1881 H 183.574 -3.89503 -0.552339 0
M  V30 1882 H 185.589 -4.7302 -1.49889 0
M  V30 1883 N 184.763 -0.387143 -1.52771 0
M  V30 1884 C 186.011 0.195349 -2.01154 0
M  V30 1885 C 186.332 1.475 -1.27549 0
M  V30 1886 O 185.602 1.91878 -0.394924 0
M  V30 1887 H 184.182 0.075178 -0.743207 0
M  V30 1888 H 186.844 -0.518337 -1.87881 0
M  V30 1889 H 185.94 0.407096 -3.09434 0
M  V30 1890 N 186.241 1.57166 -0.116904 0
M  V30 1891 C 187.189 2.16457 0.851418 0
M  V30 1892 C 188.183 1.11323 1.27686 0
M  V30 1893 O 189.389 1.2963 1.24884 0
M  V30 1894 H 185.764 0.69271 0.292672 0
M  V30 1895 H 187.735 2.96605 0.32685 0
M  V30 1896 C 186.484 2.77689 2.09246 0
M  V30 1897 H 185.807 3.58285 1.77402 0
M  V30 1898 H 187.247 3.22716 2.7501 0
M  V30 1899 C 185.706 1.74667 2.88085 0
M  V30 1900 O 186.236 1.19877 3.83396 0
M  V30 1901 N 184.442 1.44656 2.52038 0
M  V30 1902 H 183.989 1.89402 1.74599 0
M  V30 1903 H 183.947 0.759675 3.05084 0
M  V30 1904 N 187.719 -0.156864 1.56817 0
M  V30 1905 C 188.949 -0.885031 1.86684 0
M  V30 1906 C 189.357 -1.75696 0.701954 0
M  V30 1907 O 188.7 -1.80569 -0.337732 0
M  V30 1908 C 188.762 -1.80092 3.11138 0
M  V30 1909 C 188.426 -1.10714 4.43386 0
M  V30 1910 C 189.423 -0.465714 5.1781 0
M  V30 1911 C 187.108 -1.09959 4.90117 0
M  V30 1912 C 189.102 0.174002 6.37162 0
M  V30 1913 C 186.789 -0.456055 6.09396 0
M  V30 1914 C 187.787 0.179622 6.82764 0
M  V30 1915 O 187.475 0.812975 7.99779 0
M  V30 1916 H 187.207 -0.261813 0.623242 0
M  V30 1917 H 189.761 -0.157383 2.04796 0
M  V30 1918 H 187.991 -2.56926 2.89009 0
M  V30 1919 H 189.68 -2.40018 3.27332 0
M  V30 1920 H 190.446 -0.463427 4.82781 0
M  V30 1921 H 186.325 -1.58378 4.3294 0
M  V30 1922 H 189.869 0.670765 6.94368 0
M  V30 1923 H 185.766 -0.455975 6.43888 0
M  V30 1924 H 186.534 0.71366 8.15383 0
M  V30 1925 N 189.197 -1.51736 -0.425897 0
M  V30 1926 C 190.613 -1.40166 -0.76326 0
M  V30 1927 C 190.813 -0.492962 -1.95377 0
M  V30 1928 O 189.869 0.0475815 -2.52455 0
M  V30 1929 C 191.182 -2.82403 -1.03291 0
M  V30 1930 C 192.73 -2.91632 -1.13665 0
M  V30 1931 C 193.205 -4.34801 -1.43916 0
M  V30 1932 N 194.696 -4.3796 -1.50816 0
M  V30 1933 C 195.431 -5.4578 -1.75817 0
M  V30 1934 N 194.927 -6.63744 -1.98534 0
M  V30 1935 N 196.72 -5.33274 -1.77694 0
M  V30 1936 H 188.871 -2.09361 0.358 0
M  V30 1937 H 191.134 -0.942941 0.0978094 0
M  V30 1938 H 190.84 -3.50943 -0.230696 0
M  V30 1939 H 190.714 -3.22428 -1.95754 0
M  V30 1940 H 193.101 -2.23284 -1.92947 0
M  V30 1941 H 193.182 -2.55088 -0.190756 0
M  V30 1942 H 192.826 -5.03703 -0.65157 0
M  V30 1943 H 192.756 -4.68868 -2.39729 0
M  V30 1944 H 195.247 -3.52919 -1.35118 0
M  V30 1945 H 195.56 -7.41704 -2.17013 0
M  V30 1946 H 193.905 -6.66839 -1.95832 0
M  V30 1947 H 197.096 -4.40098 -1.59473 0
M  V30 1948 H 197.269 -6.1738 -1.9684 0
M  V30 1949 N 190.675 0.682077 -1.42076 0
M  V30 1950 C 191.952 1.43755 -1.32642 0
M  V30 1951 C 192.332 2.11063 0.0396611 0
M  V30 1952 O 191.68 2.02701 1.05474 0
M  V30 1953 C 191.89 2.44596 -2.48946 0
M  V30 1954 C 193.238 3.09454 -2.9073 0
M  V30 1955 O 194.262 2.54922 -2.48783 0
M  V30 1956 O 193.121 4.08253 -3.63307 0
M  V30 1957 H 190.215 0.640857 -0.522715 0
M  V30 1958 H 192.761 0.711415 -1.54068 0
M  V30 1959 H 191.533 1.93609 -3.40046 0
M  V30 1960 H 191.156 3.24701 -2.29467 0
M  V30 1961 N 192.153 1.28127 0.917671 0
M  V30 1962 C 193.103 1.08361 2.00604 0
M  V30 1963 C 194.087 0.00847518 1.60898 0
M  V30 1964 O 195.279 0.228167 1.75523 0
M  V30 1965 C 192.408 0.743376 3.35155 0
M  V30 1966 C 191.494 1.85716 3.81275 0
M  V30 1967 N 191.885 3.09822 3.99805 0
M  V30 1968 C 190.183 1.74612 4.10398 0
M  V30 1969 C 190.884 3.82368 4.38372 0
M  V30 1970 N 189.86 3.10192 4.4641 0
M  V30 1971 H 193.662 2.02531 2.12975 0
M  V30 1972 H 191.176 1.18989 1.10523 0
M  V30 1973 H 193.173 0.582859 4.12805 0
M  V30 1974 H 191.833 -0.190595 3.2414 0
M  V30 1975 H 192.844 3.45475 3.85833 0
M  V30 1976 H 189.521 0.883657 4.08041 0
M  V30 1977 H 190.911 4.89082 4.60704 0
M  V30 1978 N 193.631 -1.12557 1.10312 0
M  V30 1979 C 194.908 -1.80363 0.756878 0
M  V30 1980 C 195.288 -1.97067 -0.756824 0
M  V30 1981 O 194.636 -1.54601 -1.68259 0
M  V30 1982 C 194.846 -3.14812 1.50647 0
M  V30 1983 C 196.194 -3.90029 1.67817 0
M  V30 1984 O 197.218 -3.24464 1.46974 0
M  V30 1985 O 196.077 -5.07652 2.02365 0
M  V30 1986 H 193.171 -0.780667 0.272926 0
M  V30 1987 H 195.717 -1.19404 1.20586 0
M  V30 1988 H 194.489 -2.97936 2.53672 0
M  V30 1989 H 194.112 -3.83478 1.05026 0
M  V30 1990 N 195.109 -0.891671 -1.2995 0
M  V30 1991 C 196.039 -0.379797 -2.30391 0
M  V30 1992 C 197.02 0.540919 -1.6127 0
M  V30 1993 O 198.205 0.453352 -1.88834 0
M  V30 1994 C 195.335 0.400654 -3.44981 0
M  V30 1995 C 194.289 -0.428905 -4.25846 0
M  V30 1996 C 193.615 0.478557 -5.32554 0
M  V30 1997 C 194.915 -1.67458 -4.94727 0
M  V30 1998 H 196.609 -1.21914 -2.73454 0
M  V30 1999 H 194.155 -0.587675 -1.31462 0
M  V30 2000 H 196.108 0.769434 -4.14316 0
M  V30 2001 H 194.832 1.27371 -3.0074 0
M  V30 2002 H 193.491 -0.779911 -3.58208 0
M  V30 2003 H 193.139 1.34951 -4.84559 0
M  V30 2004 H 192.839 -0.0727433 -5.87555 0
M  V30 2005 H 194.363 0.843705 -6.04743 0
M  V30 2006 H 195.777 -1.376 -5.56542 0
M  V30 2007 H 194.174 -2.16659 -5.59624 0
M  V30 2008 H 195.244 -2.41518 -4.20473 0
M  V30 2009 N 196.587 1.43421 -0.653314 0
M  V30 2010 C 197.55 2.29182 0.0287951 0
M  V30 2011 C 198.55 1.42213 0.750465 0
M  V30 2012 O 199.74 1.63843 0.591701 0
M  V30 2013 C 196.872 3.24278 1.05151 0
M  V30 2014 H 198.065 2.90985 -0.725786 0
M  V30 2015 H 195.618 1.50702 -0.414545 0
M  V30 2016 H 196.353 2.6737 1.83532 0
M  V30 2017 H 196.138 3.88396 0.537687 0
M  V30 2018 H 197.628 3.88647 1.52786 0
M  V30 2019 N 198.065 0.39524 1.52563 0
M  V30 2020 C 199.028 -0.425001 2.25225 0
M  V30 2021 C 200.028 -0.985266 1.27079 0
M  V30 2022 O 201.218 -0.866332 1.5113 0
M  V30 2023 C 198.35 -1.59686 3.01186 0
M  V30 2024 H 199.543 0.211233 2.99155 0
M  V30 2025 H 197.096 0.147472 1.55603 0
M  V30 2026 H 197.831 -2.27035 2.31572 0
M  V30 2027 H 197.616 -1.20176 3.73229 0
M  V30 2028 H 199.106 -2.17743 3.5634 0
M  V30 2029 N 199.544 -1.57102 0.125237 0
M  V30 2030 C 200.507 -2.14471 -0.80838 0
M  V30 2031 C 201.507 -1.0811 -1.19033 0
M  V30 2032 O 202.697 -1.33856 -1.11482 0
M  V30 2033 C 199.829 -2.69005 -2.09402 0
M  V30 2034 H 201.022 -2.98297 -0.309696 0
M  V30 2035 H 198.575 -1.55807 -0.124051 0
M  V30 2036 H 199.31 -1.88785 -2.63687 0
M  V30 2037 H 199.095 -3.46799 -1.82957 0
M  V30 2038 H 200.585 -3.13278 -2.76128 0
M  V30 2039 N 201.022 0.148545 -1.56898 0
M  V30 2040 C 202.438 0.501131 -1.51528 0
M  V30 2041 C 202.638 1.83458 -0.833399 0
M  V30 2042 O 201.694 2.49259 -0.40328 0
M  V30 2043 C 203.007 0.512864 -2.96294 0
M  V30 2044 C 204.555 0.598487 -3.07225 0
M  V30 2045 C 205.03 0.640897 -4.53494 0
M  V30 2046 N 206.521 0.703163 -4.57832 0
M  V30 2047 C 207.256 0.756935 -5.68382 0
M  V30 2048 N 206.752 0.770147 -6.88506 0
M  V30 2049 N 208.545 0.797698 -5.56411 0
M  V30 2050 H 200.696 -0.725532 -1.99624 0
M  V30 2051 H 202.959 -0.264358 -0.910395 0
M  V30 2052 H 202.665 -0.398691 -3.49433 0
M  V30 2053 H 202.539 1.35133 -3.52163 0
M  V30 2054 H 204.926 1.50046 -2.54106 0
M  V30 2055 H 205.007 -0.267093 -2.54402 0
M  V30 2056 H 204.651 -0.256915 -5.0725 0
M  V30 2057 H 204.581 1.52295 -5.04097 0
M  V30 2058 H 207.072 0.700314 -3.71354 0
M  V30 2059 H 207.385 0.812983 -7.68512 0
M  V30 2060 H 205.73 0.738049 -6.9107 0
M  V30 2061 H 208.921 0.784535 -4.61479 0
M  V30 2062 H 209.094 0.83614 -6.42583 0
M  V30 2063 N 202.5 1.5196 0.417844 0
M  V30 2064 C 203.432 1.70895 1.52733 0
M  V30 2065 C 204.445 0.589405 1.51756 0
M  V30 2066 O 205.634 0.864312 1.56179 0
M  V30 2067 C 202.734 1.72627 2.91639 0
M  V30 2068 C 201.907 3.01479 3.16905 0
M  V30 2069 C 200.966 2.95139 4.35637 0
M  V30 2070 O 199.992 3.69059 4.3334 0
M  V30 2071 N 201.194 2.12328 5.40275 0
M  V30 2072 H 203.959 2.66612 1.36888 0
M  V30 2073 H 201.52 1.50089 0.607037 0
M  V30 2074 H 203.512 1.65928 3.6912 0
M  V30 2075 H 202.082 0.844216 3.00985 0
M  V30 2076 H 201.302 3.21895 2.27546 0
M  V30 2077 H 202.59 3.86736 3.30625 0
M  V30 2078 H 201.988 1.51685 5.44985 0
M  V30 2079 H 200.545 2.11494 6.16534 0
M  V30 2080 N 203.978 -0.674533 1.42435 0
M  V30 2081 C 204.928 -1.7807 1.4239 0
M  V30 2082 C 205.912 -1.58169 0.295202 0
M  V30 2083 O 207.104 -1.68643 0.537449 0
M  V30 2084 C 204.233 -3.16532 1.32901 0
M  V30 2085 C 203.319 -3.42055 2.50717 0
M  V30 2086 N 203.71 -3.38162 3.76139 0
M  V30 2087 C 202.008 -3.72692 2.44983 0
M  V30 2088 C 202.709 -3.63177 4.54398 0
M  V30 2089 N 201.685 -3.83954 3.84812 0
M  V30 2090 H 205.487 -1.73454 2.37257 0
M  V30 2091 H 203.001 -0.875381 1.36788 0
M  V30 2092 H 204.998 -3.958 1.30951 0
M  V30 2093 H 203.658 -3.22345 0.390363 0
M  V30 2094 H 204.669 -3.18057 4.0873 0
M  V30 2095 H 201.346 -3.85749 1.59699 0
M  V30 2096 H 202.736 -3.66125 5.63384 0
M  V30 2097 N 205.456 -1.28612 -0.910864 0
M  V30 2098 C 206.419 -1.12803 -1.9952 0
M  V30 2099 C 207.419 -0.0668264 -1.60661 0
M  V30 2100 O 208.609 -0.312847 -1.71368 0
M  V30 2101 C 205.741 -0.72254 -3.33155 0
M  V30 2102 H 206.934 -2.09109 -2.14973 0
M  V30 2103 H 204.487 -1.11639 -1.09391 0
M  V30 2104 H 205.222 0.241152 -3.23402 0
M  V30 2105 H 205.007 -1.48916 -3.62721 0
M  V30 2106 H 206.497 -0.634666 -4.12749 0
M  V30 2107 N 206.934 1.1197 -1.10907 0
M  V30 2108 C 208.35 1.35591 -0.841852 0
M  V30 2109 C 208.55 1.94233 0.536246 0
M  V30 2110 O 207.606 2.1717 1.28816 0
M  V30 2111 C 208.919 2.29284 -1.94549 0
M  V30 2112 C 210.467 2.42862 -1.97451 0
M  V30 2113 C 210.942 3.39873 -3.07002 0
M  V30 2114 N 212.433 3.47433 -3.06341 0
M  V30 2115 C 213.168 4.22421 -3.87748 0
M  V30 2116 N 212.664 5.00432 -4.79103 0
M  V30 2117 N 214.457 4.17876 -3.75946 0
M  V30 2118 H 206.608 0.722664 -1.99728 0
M  V30 2119 H 208.871 0.380635 -0.868229 0
M  V30 2120 H 208.577 1.93378 -2.93765 0
M  V30 2121 H 208.451 3.29452 -1.83688 0
M  V30 2122 H 210.838 2.78046 -0.988645 0
M  V30 2123 H 210.919 1.42566 -2.12388 0
M  V30 2124 H 210.563 3.05417 -4.05811 0
M  V30 2125 H 210.493 4.40011 -2.89306 0
M  V30 2126 H 212.984 2.91784 -2.40147 0
M  V30 2127 H 213.297 5.55002 -5.37766 0
M  V30 2128 H 211.642 4.99612 -4.83128 0
M  V30 2129 H 214.833 3.56016 -3.03924 0
M  V30 2130 H 215.006 4.76061 -4.39624 0
M  V30 2131 N 208.412 0.89855 1.29475 0
M  V30 2132 C 209.689 0.443416 1.90508 0
M  V30 2133 C 210.069 -1.07685 1.81569 0
M  V30 2134 O 209.417 -1.9182 1.24166 0
M  V30 2135 C 209.627 0.956708 3.35631 0
M  V30 2136 C 210.975 0.999728 4.12663 0
M  V30 2137 O 211.999 0.904299 3.4453 0
M  V30 2138 O 210.858 1.14289 5.34416 0
M  V30 2139 H 207.952 0.138025 0.815401 0
M  V30 2140 H 210.498 0.98834 1.37949 0
M  V30 2141 H 209.27 2.00067 3.36287 0
M  V30 2142 H 208.893 0.391728 3.95666 0
M  V30 2143 N 209.89 -1.43072 0.660911 0
M  V30 2144 C 211.136 -2.0202 0.177708 0
M  V30 2145 C 211.469 -1.52066 -1.20787 0
M  V30 2146 O 210.744 -0.716987 -1.80802 0
M  V30 2147 C 211.027 -3.59561 0.197019 0
M  V30 2148 C 210.88 -4.19727 1.61706 0
M  V30 2149 C 212.199 -4.37664 -0.462396 0
M  V30 2150 H 209.318 -0.734034 0.0660494 0
M  V30 2151 H 211.96 -1.70272 0.843058 0
M  V30 2152 H 210.11 -3.86739 -0.369527 0
M  V30 2153 H 211.782 -4.03553 2.23479 0
M  V30 2154 H 210.025 -3.76084 2.16201 0
M  V30 2155 H 210.696 -5.28834 1.58237 0
M  V30 2156 H 213.172 -4.16095 0.0197215 0
M  V30 2157 H 212.048 -5.47305 -0.418188 0
M  V30 2158 H 212.309 -4.14493 -1.53778 0
M  V30 2159 N 211.368 -0.403325 -1.52352 0
M  V30 2160 C 212.298 0.416205 -2.29761 0
M  V30 2161 C 213.279 1.05123 -1.33728 0
M  V30 2162 O 214.464 1.06134 -1.62632 0
M  V30 2163 C 211.594 1.53624 -3.11475 0
M  V30 2164 C 210.548 1.02653 -4.15507 0
M  V30 2165 C 209.874 2.23971 -4.85532 0
M  V30 2166 C 211.174 0.08463 -5.22231 0
M  V30 2167 H 212.868 -0.229701 -2.98518 0
M  V30 2168 H 210.414 -0.111913 -1.43564 0
M  V30 2169 H 212.367 2.1165 -3.64393 0
M  V30 2170 H 211.091 2.20994 -2.40477 0
M  V30 2171 H 209.75 0.46871 -3.63591 0
M  V30 2172 H 209.398 2.89883 -4.11068 0
M  V30 2173 H 209.098 1.90521 -5.55856 0
M  V30 2174 H 210.622 2.82614 -5.41259 0
M  V30 2175 H 212.036 0.573509 -5.70424 0
M  V30 2176 H 210.433 -0.160783 -5.99885 0
M  V30 2177 H 211.503 -0.86237 -4.7717 0
M  V30 2178 N 212.846 1.57033 -0.133567 0
M  V30 2179 C 214.123 1.87256 0.56522 0
M  V30 2180 C 214.503 1.03726 1.83859 0
M  V30 2181 O 213.851 0.120247 2.28183 0
M  V30 2182 C 214.061 3.3865 0.843636 0
M  V30 2183 C 215.409 4.07574 1.19032 0
M  V30 2184 O 216.433 3.43752 0.933429 0
M  V30 2185 O 215.292 5.20259 1.67312 0
M  V30 2186 H 212.386 0.775678 0.286796 0
M  V30 2187 H 214.932 1.68855 -0.169168 0
M  V30 2188 H 213.704 3.91257 -0.0581149 0
M  V30 2189 H 213.327 3.62532 1.63268 0
M  V30 2190 N 214.325 -0.140222 1.56975 0
M  V30 2191 C 215.257 -1.19818 1.95388 0
M  V30 2192 C 216.27 -1.38816 0.850525 0
M  V30 2193 O 217.459 -1.38267 1.12891 0
M  V30 2194 C 214.559 -2.56189 2.21857 0
M  V30 2195 C 213.732 -2.58077 3.5315 0
M  V30 2196 C 212.791 -3.76037 3.6808 0
M  V30 2197 O 211.817 -3.60598 4.40406 0
M  V30 2198 N 213.019 -4.93763 3.05251 0
M  V30 2199 H 215.784 -0.871609 2.86746 0
M  V30 2200 H 213.345 -0.32972 1.58507 0
M  V30 2201 H 215.337 -3.33623 2.2908 0
M  V30 2202 H 213.907 -2.81111 1.36731 0
M  V30 2203 H 213.127 -1.6651 3.57307 0
M  V30 2204 H 214.415 -2.56377 4.39486 0
M  V30 2205 H 213.813 -5.09209 2.46419 0
M  V30 2206 H 212.37 -5.68949 3.18026 0
M  V30 2207 N 215.803 -1.52179 -0.40978 0
M  V30 2208 C 217.051 -1.65878 -1.15451 0
M  V30 2209 C 217.372 -0.390771 -1.91044 0
M  V30 2210 O 216.642 0.594323 -1.86667 0
M  V30 2211 H 215.222 -0.611405 -0.429177 0
M  V30 2212 H 217.884 -1.89219 -0.467134 0
M  V30 2213 H 216.98 -2.49954 -1.86894 0
M  V30 2214 N 217.281 0.66697 -1.42791 0
M  V30 2215 C 218.211 1.79218 -1.49677 0
M  V30 2216 C 219.192 1.66405 -0.352623 0
M  V30 2217 O 220.377 1.85708 -0.567993 0
M  V30 2218 C 217.507 3.17565 -1.40605 0
M  V30 2219 C 216.461 3.45124 -2.53127 0
M  V30 2220 C 215.787 4.83127 -2.29112 0
M  V30 2221 C 217.087 3.41236 -3.95418 0
M  V30 2222 H 218.781 1.73713 -2.43853 0
M  V30 2223 H 216.327 0.83432 -1.17367 0
M  V30 2224 H 218.28 3.96022 -1.44029 0
M  V30 2225 H 217.004 3.23767 -0.429271 0
M  V30 2226 H 215.663 2.69031 -2.49034 0
M  V30 2227 H 215.311 4.85988 -1.29709 0
M  V30 2228 H 215.011 5.02528 -3.04531 0
M  V30 2229 H 216.535 5.63859 -2.34297 0
M  V30 2230 H 217.949 4.09651 -4.01073 0
M  V30 2231 H 216.346 3.72173 -4.70752 0
M  V30 2232 H 217.416 2.39665 -4.21532 0
M  V30 2233 N 218.759 1.29093 0.90403 0
M  V30 2234 C 219.706 1.13853 2.00764 0
M  V30 2235 C 220.676 0.0330084 1.66067 0
M  V30 2236 O 221.861 0.199733 1.89752 0
M  V30 2237 C 219.001 0.816537 3.35301 0
M  V30 2238 C 218.114 2.00206 3.82807 0
M  V30 2239 C 217.249 1.61983 5.059 0
M  V30 2240 C 216.288 2.77143 5.45764 0
M  V30 2241 N 215.425 2.39346 6.60044 0
M  V30 2242 H 220.265 2.08276 2.13132 0
M  V30 2243 H 217.802 1.03648 1.04381 0
M  V30 2244 H 219.76 0.610557 4.12708 0
M  V30 2245 H 218.39 -0.090779 3.22672 0
M  V30 2246 H 217.442 2.31988 3.01473 0
M  V30 2247 H 218.754 2.86512 4.08304 0
M  V30 2248 H 217.908 1.37649 5.90879 0
M  V30 2249 H 216.647 0.728202 4.82233 0
M  V30 2250 H 215.652 3.02165 4.59322 0
M  V30 2251 H 216.877 3.66964 5.71414 0
M  V30 2252 H 214.823 1.52665 6.37989 0
M  V30 2253 H 214.74 3.19185 6.85315 0
M  V30 2254 H 216.008 2.1832 7.48303 0
M  V30 2255 N 220.237 -1.11381 1.11499 0
M  V30 2256 C 221.483 -1.83403 0.865512 0
M  V30 2257 C 221.816 -1.84459 -0.607329 0
M  V30 2258 O 221.091 -1.29811 -1.44842 0
M  V30 2259 C 221.374 -3.30552 1.42855 0
M  V30 2260 C 221.227 -3.37886 2.96906 0
M  V30 2261 C 222.546 -4.26643 1.08 0
M  V30 2262 H 219.665 -0.665879 0.31587 0
M  V30 2263 H 222.307 -1.30601 1.37998 0
M  V30 2264 H 220.457 -3.75648 0.990985 0
M  V30 2265 H 222.129 -3.01343 3.49271 0
M  V30 2266 H 220.372 -2.78088 3.32941 0
M  V30 2267 H 221.043 -4.41458 3.31389 0
M  V30 2268 H 223.519 -3.89729 1.45775 0
M  V30 2269 H 222.395 -5.27986 1.50072 0
M  V30 2270 H 222.656 -4.42099 -0.00915037 0
M  V30 2271 N 221.715 -0.905404 -1.28997 0
M  V30 2272 C 222.647 -0.344748 -2.26592 0
M  V30 2273 C 223.66 0.512135 -1.54535 0
M  V30 2274 O 224.849 0.328368 -1.75454 0
M  V30 2275 C 221.949 0.526587 -3.34784 0
M  V30 2276 C 221.122 -0.305871 -4.36329 0
M  V30 2277 C 220.181 0.499209 -5.23827 0
M  V30 2278 O 219.207 -0.0853004 -5.69136 0
M  V30 2279 N 220.409 1.80408 -5.51755 0
M  V30 2280 H 223.174 -1.18359 -2.75338 0
M  V30 2281 H 220.735 -0.770481 -1.42391 0
M  V30 2282 H 222.727 1.07171 -3.90252 0
M  V30 2283 H 221.297 1.26613 -2.85811 0
M  V30 2284 H 220.517 -1.0324 -3.80441 0
M  V30 2285 H 221.805 -0.875773 -5.01206 0
M  V30 2286 H 221.203 2.3016 -5.16762 0
M  V30 2287 H 219.76 2.29621 -6.10014 0
M  V30 2288 N 223.193 1.4272 -0.668489 0
M  V30 2289 C 224.103 2.34596 0.0139753 0
M  V30 2290 C 225.119 1.5474 0.795703 0
M  V30 2291 O 226.295 1.87334 0.739466 0
M  V30 2292 C 223.36 3.33202 0.957982 0
M  V30 2293 C 222.421 4.28957 0.17149 0
M  V30 2294 C 221.654 5.22853 1.07053 0
M  V30 2295 O 221.877 5.21531 2.31001 0
M  V30 2296 O 220.811 5.9952 0.534727 0
M  V30 2297 H 224.637 2.9448 -0.742661 0
M  V30 2298 H 222.222 1.43117 -0.428705 0
M  V30 2299 H 224.104 3.93796 1.50008 0
M  V30 2300 H 222.779 2.758 1.69458 0
M  V30 2301 H 221.686 3.71796 -0.414558 0
M  V30 2302 H 223.019 4.89383 -0.52586 0
M  V30 2303 N 224.671 0.411399 1.52136 0
M  V30 2304 C 225.899 -0.163076 2.06256 0
M  V30 2305 C 226.314 -1.3867 1.28125 0
M  V30 2306 O 225.671 -1.79423 0.333721 0
M  V30 2307 C 225.722 -0.511252 3.57867 0
M  V30 2308 O 225.443 0.66378 4.33042 0
M  V30 2309 C 226.944 -1.13921 4.28412 0
M  V30 2310 H 224.164 -0.0193897 0.67072 0
M  V30 2311 H 226.708 0.583007 1.96013 0
M  V30 2312 H 224.863 -1.20723 3.6811 0
M  V30 2313 H 225.277 0.372601 5.23175 0
M  V30 2314 H 226.751 -1.33302 5.35663 0
M  V30 2315 H 227.228 -2.11296 3.85033 0
M  V30 2316 H 227.834 -0.483373 4.22544 0
M  V30 2317 N 226.149 -1.5696 0.141893 0
M  V30 2318 C 227.398 -1.95135 -0.510427 0
M  V30 2319 C 227.711 -1.02896 -1.66348 0
M  V30 2320 O 228.917 -1.30629 -2.38009 0
M  V30 2321 C 227.373 -3.46876 -0.959427 0
M  V30 2322 C 226.981 -4.47691 0.166419 0
M  V30 2323 C 228.725 -3.93927 -1.58183 0
M  V30 2324 C 226.632 -5.90636 -0.300565 0
M  V30 2325 H 225.562 -0.728494 -0.194454 0
M  V30 2326 H 228.213 -1.8211 0.22542 0
M  V30 2327 H 226.595 -3.55215 -1.75038 0
M  V30 2328 H 227.769 -4.51043 0.94325 0
M  V30 2329 H 226.084 -4.10527 0.696905 0
M  V30 2330 H 228.681 -4.98158 -1.94275 0
M  V30 2331 H 229.024 -3.3519 -2.46888 0
M  V30 2332 H 229.557 -3.88484 -0.855863 0
M  V30 2333 H 226.296 -6.5318 0.550989 0
M  V30 2334 H 225.816 -5.90655 -1.04338 0
M  V30 2335 H 227.495 -6.42588 -0.754265 0
M  V30 2336 N 227.627 0.131896 -1.57047 0
M  V30 2337 C 228.557 1.16384 -2.02428 0
M  V30 2338 C 229.538 1.43936 -0.90644 0
M  V30 2339 O 230.723 1.54599 -1.17528 0
M  V30 2340 C 227.853 2.49328 -2.4177 0
M  V30 2341 C 226.807 2.36266 -3.56879 0
M  V30 2342 C 226.133 3.74057 -3.8208 0
M  V30 2343 C 227.433 1.834 -4.89042 0
M  V30 2344 H 229.127 0.786433 -2.88887 0
M  V30 2345 H 226.673 0.376855 -1.38981 0
M  V30 2346 H 228.626 3.21759 -2.7212 0
M  V30 2347 H 227.35 2.88934 -1.52266 0
M  V30 2348 H 226.009 1.66286 -3.26718 0
M  V30 2349 H 225.657 4.11125 -2.89803 0
M  V30 2350 H 225.357 3.66174 -4.59554 0
M  V30 2351 H 226.881 4.48012 -4.1487 0
M  V30 2352 H 228.295 2.45636 -5.18011 0
M  V30 2353 H 226.692 1.8637 -5.70426 0
M  V30 2354 H 227.762 0.790662 -4.7841 0
M  V30 2355 N 229.106 1.52395 0.401703 0
M  V30 2356 C 230.036 1.79231 1.49661 0
M  V30 2357 C 231.017 0.643654 1.57452 0
M  V30 2358 O 232.202 0.889989 1.72606 0
M  V30 2359 C 229.332 1.94971 2.87409 0
M  V30 2360 C 228.286 3.10604 2.94465 0
M  V30 2361 C 227.612 3.11577 4.34538 0
M  V30 2362 C 228.912 4.49921 2.6527 0
M  V30 2363 H 230.606 2.70917 1.27454 0
M  V30 2364 H 228.152 1.30362 0.6117 0
M  V30 2365 H 230.105 2.12328 3.63999 0
M  V30 2366 H 228.829 0.999632 3.10926 0
M  V30 2367 H 227.488 2.93009 2.20321 0
M  V30 2368 H 227.136 2.14277 4.55076 0
M  V30 2369 H 226.836 3.89247 4.40183 0
M  V30 2370 H 228.36 3.31073 5.13053 0
M  V30 2371 H 229.774 4.67683 3.31581 0
M  V30 2372 H 228.171 5.29564 2.82281 0
M  V30 2373 H 229.241 4.57507 1.60671 0
M  V30 2374 N 230.584 -0.659388 1.43143 0
M  V30 2375 C 231.494 -1.80167 1.50256 0
M  V30 2376 C 232.51 -1.69571 0.390106 0
M  V30 2377 O 233.686 -1.90849 0.643319 0
M  V30 2378 C 230.751 -3.16409 1.41725 0
M  V30 2379 C 229.812 -3.38848 2.63591 0
M  V30 2380 C 229.045 -4.68591 2.55458 0
M  V30 2381 O 229.268 -5.47532 1.59891 0
M  V30 2382 O 228.202 -4.92614 3.45854 0
M  V30 2383 H 232.028 -1.77121 2.46702 0
M  V30 2384 H 229.613 -0.817092 1.25076 0
M  V30 2385 H 231.495 -3.9768 1.39387 0
M  V30 2386 H 230.17 -3.20059 0.484118 0
M  V30 2387 H 229.077 -2.57366 2.71502 0
M  V30 2388 H 230.41 -3.4004 3.55856 0
M  V30 2389 N 232.062 -1.29571 -0.897171 0
M  V30 2390 C 233.478 -1.07637 -1.17841 0
M  V30 2391 C 233.678 0.170713 -2.00776 0
M  V30 2392 O 232.734 0.867768 -2.3712 0
M  V30 2393 C 234.047 -2.3332 -1.8969 0
M  V30 2394 C 235.595 -2.38664 -2.02505 0
M  V30 2395 C 236.07 -3.64157 -2.77765 0
M  V30 2396 N 237.561 -3.64894 -2.85318 0
M  V30 2397 C 238.296 -4.58679 -3.44094 0
M  V30 2398 N 237.792 -5.62799 -4.04017 0
M  V30 2399 N 239.585 -4.46245 -3.41793 0
M  V30 2400 H 231.736 -2.09598 -0.343883 0
M  V30 2401 H 233.999 -0.923333 -0.214848 0
M  V30 2402 H 233.705 -3.24262 -1.36187 0
M  V30 2403 H 233.579 -2.41025 -2.9015 0
M  V30 2404 H 235.966 -1.48208 -2.55183 0
M  V30 2405 H 236.047 -2.34943 -1.01171 0
M  V30 2406 H 235.691 -4.54965 -2.25763 0
M  V30 2407 H 235.621 -3.65137 -3.7945 0
M  V30 2408 H 238.112 -2.89613 -2.42761 0
M  V30 2409 H 238.425 -6.3048 -4.46895 0
M  V30 2410 H 236.77 -5.66605 -4.02472 0
M  V30 2411 H 239.961 -3.64094 -2.94199 0
M  V30 2412 H 240.134 -5.19518 -3.87304 0
M  V30 2413 O 233.579 1.03276 -1.24162 0
M  V30 2414 H 234.27 1.64832 -1.01735 0
M  V30 END ATOM
M  V30 BEGIN BOND
M  V30 END BOND
M  V30 END CTAB
M  END
$$$$
