drugbank_target|Q8TC12 Retinol dehydrogenase 11 (DB00162)
 OpenBabel12092120093D

  0  0  0     0  0            999 V3000
M  V30 BEGIN CTAB
M  V30 COUNTS 5022 5076 0 0 0
M  V30 BEGIN ATOM
M  V30 1 H -0.908 1.98254 -0.117106 0
M  V30 2 N 0 1.576 0 0
M  V30 3 C 0.933 2.03868 1.02534 0
M  V30 4 C 1.911 0.928543 1.3348 0
M  V30 5 O 3.095 1.19667 1.45644 0
M  V30 6 C 0.222 2.43627 2.35294 0
M  V30 7 C -0.732 3.65373 2.2001 0
M  V30 8 S 0.101 5.13292 1.52614 0
M  V30 9 C 1.257 5.56322 2.86805 0
M  V30 10 H 1.49 2.90518 0.631377 0
M  V30 11 H -0.977 1.52953 0.210867 0
M  V30 12 H 0.981 2.67203 3.11629 0
M  V30 13 H -0.358 1.57376 2.7183 0
M  V30 14 H -1.165 3.90944 3.18086 0
M  V30 15 H -1.563 3.418 1.51819 0
M  V30 16 H 0.729 5.58782 3.83104 0
M  V30 17 H 1.672 6.56266 2.65933 0
M  V30 18 H 2.08 4.83886 2.90714 0
M  V30 19 N 1.4781 -0.272755 1.55222 0
M  V30 20 C 2.7241 -1.00581 1.761 0
M  V30 21 C 3.0571 -1.85932 0.560625 0
M  V30 22 O 2.3321 -1.89416 -0.441801 0
M  V30 23 C 2.6151 -1.88816 3.06628 0
M  V30 24 C 2.4681 -1.06457 4.37021 0
M  V30 25 C 3.7871 -2.8752 3.33197 0
M  V30 26 H 0.9061 -0.364244 0.640699 0
M  V30 27 H 3.5481 -0.278189 1.87952 0
M  V30 28 H 1.6981 -2.50856 2.96654 0
M  V30 29 H 3.3701 -0.464863 4.58952 0
M  V30 30 H 1.6131 -0.368043 4.32236 0
M  V30 31 H 2.2841 -1.71514 5.24678 0
M  V30 32 H 4.7601 -2.35615 3.42965 0
M  V30 33 H 3.6361 -3.46399 4.25792 0
M  V30 34 H 3.8971 -3.62657 2.52849 0
M  V30 35 N 2.9562 -1.48159 -0.537278 0
M  V30 36 C 3.8662 -1.64807 -1.6696 0
M  V30 37 C 4.8822 -0.530651 -1.65711 0
M  V30 38 O 6.0582 -0.800784 -1.84796 0
M  V30 39 C 3.1232 -1.67708 -3.03438 0
M  V30 40 C 2.1842 -2.91025 -3.156 0
M  V30 41 C 1.4172 -2.93778 -4.45567 0
M  V30 42 O 1.6402 -2.05153 -5.3223 0
M  V30 43 O 0.5742 -3.85868 -4.61941 0
M  V30 44 H 4.4002 -2.6066 -1.55853 0
M  V30 45 H 1.9852 -1.31475 -0.709549 0
M  V30 46 H 3.8672 -1.7218 -3.84619 0
M  V30 47 H 2.5422 -0.750278 -3.14885 0
M  V30 48 H 1.4492 -2.92089 -2.33741 0
M  V30 49 H 2.7822 -3.83065 -3.09066 0
M  V30 50 N 4.4343 0.785586 -1.36625 0
M  V30 51 C 5.3643 1.91259 -1.33949 0
M  V30 52 C 6.3453 1.68795 -0.210325 0
M  V30 53 O 7.5303 1.89854 -0.408561 0
M  V30 54 C 4.6603 3.28339 -1.13186 0
M  V30 55 C 3.6143 3.65335 -2.22967 0
M  V30 56 C 2.9403 5.00806 -1.87342 0
M  V30 57 C 4.2403 3.7352 -3.65075 0
M  V30 58 H 5.9343 1.93755 -2.28253 0
M  V30 59 H 3.4803 0.930788 -1.09874 0
M  V30 60 H 5.4333 4.06804 -1.09948 0
M  V30 61 H 4.1573 3.2624 -0.153332 0
M  V30 62 H 2.8163 2.89169 -2.25337 0
M  V30 63 H 2.4643 4.95233 -0.880545 0
M  V30 64 H 2.1643 5.26529 -2.60846 0
M  V30 65 H 3.6883 5.81687 -1.85667 0
M  V30 66 H 5.1023 4.42168 -3.64911 0
M  V30 67 H 3.4993 4.10731 -4.37516 0
M  V30 68 H 4.5693 2.74527 -3.99703 0
M  V30 69 N 5.9124 1.20967 1.01018 0
M  V30 70 C 6.8454 0.907578 2.09376 0
M  V30 71 C 7.8234 -0.142868 1.61971 0
M  V30 72 O 9.0074 -0.0150391 1.88494 0
M  V30 73 C 6.1344 0.361791 3.36762 0
M  V30 74 C 5.1804 1.39423 4.03068 0
M  V30 75 S 6.0134 2.96159 4.4615 0
M  V30 76 C 7.1694 2.43173 5.7673 0
M  V30 77 H 7.4024 1.82519 2.34678 0
M  V30 78 H 4.9354 1.03884 1.14225 0
M  V30 79 H 6.8934 0.0534523 4.10465 0
M  V30 80 H 5.5544 -0.53443 3.0952 0
M  V30 81 H 4.7474 0.961853 4.94737 0
M  V30 82 H 4.3494 1.65038 3.35617 0
M  V30 83 H 6.6414 1.83335 6.52223 0
M  V30 84 H 7.5844 3.33264 6.24773 0
M  V30 85 H 7.9924 1.85069 5.33301 0
M  V30 86 N 7.3905 -1.2043 1.01659 0
M  V30 87 C 8.6375 -1.89797 0.705917 0
M  V30 88 C 8.9655 -1.78848 -0.764439 0
M  V30 89 O 8.2205 -1.16694 -1.57102 0
M  V30 90 C 8.5195 -3.40464 1.08714 0
M  V30 91 C 8.1855 -3.71614 2.5537 0
M  V30 92 C 6.8475 -3.79826 2.95441 0
M  V30 93 C 9.1995 -3.85915 3.50313 0
M  V30 94 C 6.5275 -3.99797 4.29394 0
M  V30 95 C 8.8795 -4.07396 4.83954 0
M  V30 96 C 7.5435 -4.13837 5.23732 0
M  V30 97 H 6.8135 -0.694518 0.258313 0
M  V30 98 H 9.4605 -1.42691 1.27717 0
M  V30 99 H 7.7655 -3.89385 0.434309 0
M  V30 100 H 9.4625 -3.92433 0.824461 0
M  V30 101 H 6.0525 -3.65822 2.23321 0
M  V30 102 H 10.2365 -3.78926 3.20513 0
M  V30 103 H 5.4925 -4.03018 4.59768 0
M  V30 104 H 9.6665 -4.17404 5.57447 0
M  V30 105 H 7.2935 -4.29064 6.27541 0
M  V30 106 N 8.8686 -0.792821 -1.36206 0
M  V30 107 C 10.2796 -0.429513 -1.81692 0
M  V30 108 C 10.6306 1.04695 -1.65932 0
M  V30 109 O 9.7556 1.81256 -1.18218 0
M  V30 110 C 10.3506 -0.772831 -3.29868 0
M  V30 111 C 8.9096 -0.462307 -3.7355 0
M  V30 112 C 8.0566 -1.00569 -2.5842 0
M  V30 113 H 11.0076 -0.985672 -1.24379 0
M  V30 114 H 11.0286 -0.0651928 -3.80444 0
M  V30 115 H 10.5406 -1.84747 -3.41307 0
M  V30 116 H 8.6416 0.604158 -3.67669 0
M  V30 117 H 8.7546 -0.985299 -4.68859 0
M  V30 118 H 7.1186 -0.428734 -2.51066 0
M  V30 119 H 7.9016 -2.08616 -2.72643 0
M  V30 120 N 10.3467 1.47872 -0.545128 0
M  V30 121 C 11.2767 2.32661 0.197793 0
M  V30 122 C 12.2577 1.43041 0.920504 0
M  V30 123 O 13.4427 1.71912 0.90333 0
M  V30 124 C 10.5727 3.24569 1.23582 0
M  V30 125 C 9.5267 4.23333 0.630323 0
M  V30 126 C 8.8527 5.0448 1.77211 0
M  V30 127 C 10.1527 5.20704 -0.407974 0
M  V30 128 H 11.8467 2.95024 -0.510045 0
M  V30 129 H 9.3927 1.4187 -0.246731 0
M  V30 130 H 11.3457 3.8272 1.76362 0
M  V30 131 H 10.0697 2.60236 1.97344 0
M  V30 132 H 8.7287 3.6639 0.123922 0
M  V30 133 H 8.3767 4.36561 2.49847 0
M  V30 134 H 8.0767 5.71339 1.37281 0
M  V30 135 H 9.6007 5.65487 2.3034 0
M  V30 136 H 11.0147 5.7329 0.033305 0
M  V30 137 H 9.4117 5.95699 -0.725486 0
M  V30 138 H 10.4817 4.66917 -1.30828 0
M  V30 139 N 11.8248 0.280983 1.55075 0
M  V30 140 C 12.7548 -0.597469 2.25727 0
M  V30 141 C 13.7358 -1.15417 1.24952 0
M  V30 142 O 14.9208 -1.18722 1.53684 0
M  V30 143 C 12.0508 -1.7789 2.98283 0
M  V30 144 C 11.0048 -1.35347 4.06036 0
M  V30 145 C 10.3308 -2.61846 4.66198 0
M  V30 146 C 11.6308 -0.499354 5.19907 0
M  V30 147 H 13.3248 -0.00824265 2.99399 0
M  V30 148 H 10.8708 -0.0025244 1.44 0
M  V30 149 H 12.8238 -2.39937 3.46422 0
M  V30 150 H 11.5478 -2.39405 2.22155 0
M  V30 151 H 10.2068 -0.756156 3.58717 0
M  V30 152 H 9.8548 -3.21632 3.86732 0
M  V30 153 H 9.5548 -2.3409 5.38958 0
M  V30 154 H 11.0788 -3.24732 5.1709 0
M  V30 155 H 12.4928 -1.02498 5.64063 0
M  V30 156 H 10.8898 -0.316424 5.99265 0
M  V30 157 H 11.9598 0.480459 4.82514 0
M  V30 158 N 13.3029 -1.57598 0.00835791 0
M  V30 159 C 14.2329 -2.1198 -0.979113 0
M  V30 160 C 15.2139 -1.03091 -1.35301 0
M  V30 161 O 16.3989 -1.30818 -1.43528 0
M  V30 162 C 13.5289 -2.62995 -2.26828 0
M  V30 163 C 12.4829 -3.76485 -2.03576 0
M  V30 164 C 11.8089 -4.13846 -3.38579 0
M  V30 165 C 13.1089 -5.0342 -1.39161 0
M  V30 166 H 14.8029 -2.94738 -0.526281 0
M  V30 167 H 12.3489 -1.41783 -0.251704 0
M  V30 168 H 14.3019 -2.99669 -2.96271 0
M  V30 169 H 13.0259 -1.7737 -2.7424 0
M  V30 170 H 11.6849 -3.40217 -1.36557 0
M  V30 171 H 11.3329 -3.25232 -3.83709 0
M  V30 172 H 11.0329 -4.90312 -3.23834 0
M  V30 173 H 12.5569 -4.53086 -4.09323 0
M  V30 174 H 13.9709 -5.37812 -1.98573 0
M  V30 175 H 12.3679 -5.84746 -1.34878 0
M  V30 176 H 13.4379 -4.83548 -0.361868 0
M  V30 177 N 14.781 0.264519 -1.55364 0
M  V30 178 C 15.711 1.33121 -1.91836 0
M  V30 179 C 16.692 1.51101 -0.781192 0
M  V30 180 O 17.877 1.64003 -1.04003 0
M  V30 181 C 15.007 2.68921 -2.19769 0
M  V30 182 C 13.961 2.65661 -3.35571 0
M  V30 183 C 13.287 4.05093 -3.49004 0
M  V30 184 C 14.587 2.24187 -4.71739 0
M  V30 185 H 16.281 1.02844 -2.81182 0
M  V30 186 H 13.827 0.493286 -1.35287 0
M  V30 187 H 15.78 3.43663 -2.43872 0
M  V30 188 H 14.504 3.00799 -1.27231 0
M  V30 189 H 13.163 1.93377 -3.1145 0
M  V30 190 H 12.811 4.34206 -2.53917 0
M  V30 191 H 12.511 4.03804 -4.26868 0
M  V30 192 H 14.035 4.81561 -3.75408 0
M  V30 193 H 15.449 2.88654 -4.9533 0
M  V30 194 H 13.846 2.34044 -5.52579 0
M  V30 195 H 14.916 1.19327 -4.69988 0
M  V30 196 N 16.2591 1.48442 0.529413 0
M  V30 197 C 17.1891 1.65902 1.64313 0
M  V30 198 C 18.1701 0.507897 1.6234 0
M  V30 199 O 19.3551 0.740503 1.79528 0
M  V30 200 C 16.4851 1.69911 3.02898 0
M  V30 201 C 15.4391 2.8453 3.19729 0
M  V30 202 C 14.7651 2.73629 4.59381 0
M  V30 203 C 16.0651 4.25821 3.02447 0
M  V30 204 H 17.7591 2.5914 1.49955 0
M  V30 205 H 15.3051 1.24709 0.719982 0
M  V30 206 H 17.2581 1.80715 3.80684 0
M  V30 207 H 15.9821 0.732524 3.18279 0
M  V30 208 H 14.6411 2.73283 2.44361 0
M  V30 209 H 14.2891 1.74938 4.71599 0
M  V30 210 H 13.9891 3.50541 4.71588 0
M  V30 211 H 15.5131 2.86401 5.39265 0
M  V30 212 H 16.9271 4.37898 3.70024 0
M  V30 213 H 15.3241 5.03735 3.26146 0
M  V30 214 H 16.3941 4.42244 1.98867 0
M  V30 215 N 17.7372 -0.778329 1.37039 0
M  V30 216 C 18.6672 -1.90546 1.34962 0
M  V30 217 C 19.6482 -1.68681 0.219274 0
M  V30 218 O 20.8332 -1.89634 0.418624 0
M  V30 219 C 17.9632 -3.27734 1.14925 0
M  V30 220 C 16.9172 -3.64147 2.24902 0
M  V30 221 C 16.2432 -4.99806 1.89996 0
M  V30 222 C 17.5432 -3.71579 3.67051 0
M  V30 223 H 19.2372 -1.92541 2.29277 0
M  V30 224 H 16.7832 -0.924948 1.10366 0
M  V30 225 H 18.7362 -4.06215 1.12104 0
M  V30 226 H 17.4602 -3.26154 0.170631 0
M  V30 227 H 16.1192 -2.8797 2.26868 0
M  V30 228 H 15.7672 -4.94759 0.906796 0
M  V30 229 H 15.4672 -5.25139 2.63634 0
M  V30 230 H 16.9912 -5.80694 1.88749 0
M  V30 231 H 18.4052 -4.40227 3.67251 0
M  V30 232 H 16.8022 -4.08405 4.39688 0
M  V30 233 H 17.8722 -2.72404 4.01154 0
M  V30 234 N 19.2153 -1.21501 -1.00376 0
M  V30 235 C 20.6263 -1.03146 -1.55621 0
M  V30 236 C 20.9773 0.408375 -1.91903 0
M  V30 237 O 20.1023 1.29177 -1.73616 0
M  V30 238 C 20.6973 -1.86612 -2.82775 0
M  V30 239 C 19.2563 -1.72586 -3.34501 0
M  V30 240 C 18.4033 -1.83747 -2.07683 0
M  V30 241 H 21.3543 -1.35505 -0.826081 0
M  V30 242 H 21.3753 -1.3771 -3.54706 0
M  V30 243 H 20.8873 -2.91399 -2.56336 0
M  V30 244 H 18.9883 -0.704877 -3.65872 0
M  V30 245 H 19.1013 -2.54623 -4.05837 0
M  V30 246 H 17.4653 -1.27069 -2.20739 0
M  V30 247 H 18.2483 -2.90044 -1.83655 0
M  V30 248 N 20.6934 1.19889 -1.02296 0
M  V30 249 C 21.9404 1.8942 -0.715972 0
M  V30 250 C 22.2684 1.79251 0.754944 0
M  V30 251 O 21.5234 1.17526 1.56481 0
M  V30 252 C 21.8224 3.39883 -1.10518 0
M  V30 253 C 21.4884 3.70254 -2.57337 0
M  V30 254 C 20.1504 3.78254 -2.97452 0
M  V30 255 C 22.5024 3.84052 -3.52354 0
M  V30 256 C 19.8304 3.97514 -4.31509 0
M  V30 257 C 22.1824 4.04824 -4.86108 0
M  V30 258 C 20.8464 4.11054 -5.25919 0
M  V30 259 H 20.1164 0.693138 -0.261993 0
M  V30 260 H 22.7634 1.42012 -1.28472 0
M  V30 261 H 21.0684 3.8915 -0.454953 0
M  V30 262 H 22.7654 3.9199 -0.845261 0
M  V30 263 H 19.3554 3.64632 -2.25258 0
M  V30 264 H 23.5394 3.77221 -3.22518 0
M  V30 265 H 18.7954 4.00574 -4.61898 0
M  V30 266 H 22.9694 4.14442 -5.59653 0
M  V30 267 H 20.5964 4.2573 -6.29808 0
M  V30 268 N 22.1715 0.800033 1.35784 0
M  V30 269 C 23.1015 0.220184 2.3246 0
M  V30 270 C 24.0825 -0.65073 1.57161 0
M  V30 271 O 25.2675 -0.582359 1.85263 0
M  V30 272 C 22.3975 -0.637353 3.41402 0
M  V30 273 C 21.3515 0.134531 4.27789 0
M  V30 274 C 20.6775 -0.844285 5.27992 0
M  V30 275 C 21.9775 1.32979 5.05088 0
M  V30 276 H 23.6715 1.02787 2.81203 0
M  V30 277 H 21.2175 0.495717 1.35199 0
M  V30 278 H 23.1705 -1.05302 4.08031 0
M  V30 279 H 21.8945 -1.47785 2.91251 0
M  V30 280 H 20.5535 0.531296 3.6273 0
M  V30 281 H 20.2015 -1.68011 4.74111 0
M  V30 282 H 19.9015 -0.332184 5.8666 0
M  V30 283 H 21.4255 -1.2583 5.97494 0
M  V30 284 H 22.8395 0.98934 5.64699 0
M  V30 285 H 21.2365 1.77593 5.7322 0
M  V30 286 H 22.3065 2.11978 4.36111 0
M  V30 287 N 23.6496 -1.47581 0.552962 0
M  V30 288 C 24.5796 -2.32762 -0.185451 0
M  V30 289 C 25.5606 -1.43527 -0.912905 0
M  V30 290 O 26.7456 -1.72388 -0.894201 0
M  V30 291 C 23.8756 -3.25219 -1.21859 0
M  V30 292 C 22.8296 -4.23661 -0.607864 0
M  V30 293 C 22.1556 -5.05413 -1.74533 0
M  V30 294 C 23.4556 -5.20481 0.435582 0
M  V30 295 H 25.1496 -2.94749 0.525684 0
M  V30 296 H 22.6956 -1.41738 0.254251 0
M  V30 297 H 24.6486 -3.8365 -1.7433 0
M  V30 298 H 23.3726 -2.61279 -1.95961 0
M  V30 299 H 22.0316 -3.66451 -0.104489 0
M  V30 300 H 21.6796 -4.3788 -2.47529 0
M  V30 301 H 21.3796 -5.72059 -1.34249 0
M  V30 302 H 22.9036 -5.66701 -2.27338 0
M  V30 303 H 24.3176 -5.733 -0.00290157 0
M  V30 304 H 22.7146 -5.95305 0.757067 0
M  V30 305 H 23.7846 -4.66217 1.33303 0
M  V30 306 N 25.1277 -0.289203 -1.54924 0
M  V30 307 C 26.3577 0.325989 -2.04012 0
M  V30 308 C 26.7657 1.48961 -1.1665 0
M  V30 309 O 26.1087 1.82794 -0.1822 0
M  V30 310 C 26.1707 0.856112 -3.49158 0
M  V30 311 C 25.8347 -0.180697 -4.56643 0
M  V30 312 C 26.8317 -1.0051 -5.10092 0
M  V30 313 C 24.5167 -0.318998 -5.01286 0
M  V30 314 C 26.5107 -1.95385 -6.06715 0
M  V30 315 C 24.1977 -1.27121 -5.97732 0
M  V30 316 C 25.1957 -2.08713 -6.50329 0
M  V30 317 O 24.8837 -3.02322 -7.44887 0
M  V30 318 H 24.6157 0.0765276 -0.671654 0
M  V30 319 H 27.1697 -0.423254 -2.00992 0
M  V30 320 H 25.3997 1.65567 -3.49463 0
M  V30 321 H 27.0887 1.38591 -3.81507 0
M  V30 322 H 27.8547 -0.90906 -4.76404 0
M  V30 323 H 23.7337 0.306108 -4.59983 0
M  V30 324 H 27.2777 -2.59111 -6.47694 0
M  V30 325 H 23.1747 -1.36801 -6.30837 0
M  V30 326 H 23.9427 -2.97165 -7.6265 0
M  V30 327 N 26.6058 1.57591 -0.0167156 0
M  V30 328 C 27.5388 2.04944 1.00366 0
M  V30 329 C 28.5168 0.942648 1.32487 0
M  V30 330 O 29.7008 1.21205 1.44367 0
M  V30 331 C 26.8278 2.46109 2.32697 0
M  V30 332 C 25.8738 3.67686 2.16123 0
M  V30 333 S 26.7068 5.14882 1.47161 0
M  V30 334 C 27.8628 5.59332 2.80888 0
M  V30 335 H 28.0958 2.91172 0.600528 0
M  V30 336 H 25.6288 1.53168 0.194632 0
M  V30 337 H 27.5868 2.70493 3.08778 0
M  V30 338 H 26.2478 1.6025 2.70146 0
M  V30 339 H 25.4408 3.94296 3.13922 0
M  V30 340 H 25.0428 3.43391 1.48185 0
M  V30 341 H 27.3348 5.62814 3.77156 0
M  V30 342 H 28.2778 6.5905 2.58958 0
M  V30 343 H 28.6858 4.86942 2.85565 0
M  V30 344 N 28.0839 -0.256276 1.55502 0
M  V30 345 C 29.0469 -1.30047 1.88734 0
M  V30 346 C 30.0469 -1.4154 0.763086 0
M  V30 347 O 31.2369 -1.40403 1.03115 0
M  V30 348 C 28.3689 -2.67953 2.10747 0
M  V30 349 H 29.5619 -1.01802 2.82093 0
M  V30 350 H 27.1149 -0.495134 1.4825 0
M  V30 351 H 27.8499 -3.01351 1.19825 0
M  V30 352 H 27.6349 -2.60993 2.92617 0
M  V30 353 H 29.1249 -3.43368 2.37673 0
M  V30 354 N 29.562 -1.4872 -0.521534 0
M  V30 355 C 30.525 -1.63379 -1.60748 0
M  V30 356 C 31.525 -0.50661 -1.52611 0
M  V30 357 O 32.715 -0.772601 -1.5613 0
M  V30 358 C 29.847 -1.61192 -3.00383 0
M  V30 359 H 31.04 -2.60217 -1.49087 0
M  V30 360 H 28.593 -1.37444 -0.744235 0
M  V30 361 H 29.328 -0.65863 -3.17541 0
M  V30 362 H 29.113 -2.43032 -3.07698 0
M  V30 363 H 30.603 -1.7466 -3.7932 0
M  V30 364 N 31.0401 0.771051 -1.3745 0
M  V30 365 C 32.4511 1.34737 -1.29239 0
M  V30 366 C 32.8021 1.96109 0.0596908 0
M  V30 367 O 31.9271 1.93865 0.961534 0
M  V30 368 C 32.5221 2.44973 -2.34037 0
M  V30 369 C 31.0811 2.98372 -2.29458 0
M  V30 370 C 30.2281 1.71595 -2.17831 0
M  V30 371 H 33.1791 0.571256 -1.48062 0
M  V30 372 H 33.2001 3.24471 -1.98744 0
M  V30 373 H 32.7121 2.00276 -3.32432 0
M  V30 374 H 30.8131 3.47443 -1.34589 0
M  V30 375 H 30.9261 3.53939 -3.229 0
M  V30 376 H 29.2901 1.94547 -1.64388 0
M  V30 377 H 30.0731 1.29001 -3.18141 0
M  V30 378 N 32.5182 1.22032 0.997298 0
M  V30 379 C 33.4502 0.944263 2.08845 0
M  V30 380 C 34.4632 -0.0754663 1.62625 0
M  V30 381 O 35.6522 0.157994 1.77799 0
M  V30 382 C 32.7522 0.397723 3.36558 0
M  V30 383 C 31.9252 1.47362 4.11829 0
M  V30 384 C 30.9842 0.934951 5.17827 0
M  V30 385 O 30.0102 1.62016 5.45655 0
M  V30 386 N 31.2122 -0.245895 5.79979 0
M  V30 387 H 33.9772 1.88363 2.33109 0
M  V30 388 H 31.5382 1.12661 1.16272 0
M  V30 389 H 33.5302 0.0227771 4.04694 0
M  V30 390 H 32.1002 -0.446646 3.09393 0
M  V30 391 H 31.3202 2.02208 3.38386 0
M  V30 392 H 32.6082 2.19764 4.58891 0
M  V30 393 H 32.0062 -0.819475 5.59733 0
M  V30 394 H 30.5632 -0.562272 6.4937 0
M  V30 395 N 33.9963 -1.19345 1.0293 0
M  V30 396 C 35.2453 -1.88363 0.721256 0
M  V30 397 C 35.5583 -1.80514 -0.753254 0
M  V30 398 O 36.7643 -2.44788 -1.17436 0
M  V30 399 C 35.2203 -3.37872 1.23978 0
M  V30 400 C 34.8283 -3.54278 2.74211 0
M  V30 401 C 36.5723 -4.12365 1.00775 0
M  V30 402 C 34.4793 -4.97682 3.19479 0
M  V30 403 H 33.4093 -0.705484 0.266098 0
M  V30 404 H 36.0603 -1.34928 1.24365 0
M  V30 405 H 34.4423 -3.90707 0.6453 0
M  V30 406 H 35.6163 -3.11769 3.39318 0
M  V30 407 H 33.9313 -2.93174 2.95699 0
M  V30 408 H 36.5283 -5.18119 1.32123 0
M  V30 409 H 36.8713 -4.16263 -0.0554308 0
M  V30 410 H 37.4043 -3.65668 1.56625 0
M  V30 411 H 34.1433 -4.98945 4.25128 0
M  V30 412 H 33.6633 -5.4095 2.591 0
M  V30 413 H 35.3423 -5.66337 3.12845 0
M  V30 414 N 35.4744 -0.807222 -1.35358 0
M  V30 415 C 36.8904 -0.491038 -1.51858 0
M  V30 416 C 37.0904 0.987648 -1.75635 0
M  V30 417 O 36.1464 1.77265 -1.79815 0
M  V30 418 C 37.4594 -1.33695 -2.69344 0
M  V30 419 C 39.0074 -1.33246 -2.83222 0
M  V30 420 C 39.4824 -2.1625 -4.03733 0
M  V30 421 N 40.9734 -2.1379 -4.10911 0
M  V30 422 C 41.7084 -2.74772 -5.03277 0
M  V30 423 N 41.2044 -3.44684 -6.0097 0
M  V30 424 N 42.9974 -2.6441 -4.96028 0
M  V30 425 H 35.1484 -1.76485 -1.18181 0
M  V30 426 H 37.4114 -0.751199 -0.578276 0
M  V30 427 H 37.1174 -2.38634 -2.58354 0
M  V30 428 H 36.9914 -0.990618 -3.6396 0
M  V30 429 H 39.3784 -0.290911 -2.93663 0
M  V30 430 H 39.4594 -1.71866 -1.89461 0
M  V30 431 H 39.1034 -3.20445 -3.94052 0
M  V30 432 H 39.0334 -1.74989 -4.96675 0
M  V30 433 H 41.5244 -1.62923 -3.40976 0
M  V30 434 H 41.8374 -3.88501 -6.68047 0
M  V30 435 H 40.1824 -3.48788 -6.01142 0
M  V30 436 H 43.3734 -2.0938 -4.18662 0
M  V30 437 H 43.5464 -3.12225 -5.6782 0
M  V30 438 N 36.9525 1.47285 -0.560781 0
M  V30 439 C 37.8995 2.30058 0.18491 0
M  V30 440 C 38.8695 1.39281 0.904986 0
M  V30 441 O 40.0545 1.68241 0.899979 0
M  V30 442 C 37.1945 3.23317 1.20666 0
M  V30 443 C 36.3075 4.29186 0.492285 0
M  V30 444 C 35.4425 5.09592 1.49964 0
M  V30 445 C 34.4815 6.07232 0.770439 0
M  V30 446 N 33.6185 6.80584 1.72479 0
M  V30 447 H 38.4585 2.93302 -0.527048 0
M  V30 448 H 35.9955 1.44568 -0.271738 0
M  V30 449 H 37.9535 3.75811 1.81168 0
M  V30 450 H 36.5835 2.61929 1.88661 0
M  V30 451 H 35.6355 3.7972 -0.227333 0
M  V30 452 H 36.9475 4.98738 -0.0787929 0
M  V30 453 H 36.1015 5.66254 2.17809 0
M  V30 454 H 34.8405 4.3995 2.10464 0
M  V30 455 H 33.8455 5.49745 0.0780846 0
M  V30 456 H 35.0705 6.78884 0.171134 0
M  V30 457 H 33.0165 6.1367 2.3183 0
M  V30 458 H 32.9335 7.46319 1.20596 0
M  V30 459 H 34.2015 7.41818 2.39428 0
M  V30 460 N 38.4306 0.297415 1.54768 0
M  V30 461 C 39.3636 -0.622188 2.19554 0
M  V30 462 C 40.3416 -1.13558 1.16376 0
M  V30 463 O 41.5256 -1.20444 1.45002 0
M  V30 464 C 38.6526 -1.8509 2.83653 0
M  V30 465 C 37.6986 -1.47106 4.00328 0
M  V30 466 S 38.5316 -0.53006 5.3287 0
M  V30 467 C 39.6876 -1.76665 6.0045 0
M  V30 468 H 39.9206 -0.0717806 2.97213 0
M  V30 469 H 37.4536 0.0815678 1.54184 0
M  V30 470 H 39.4116 -2.55605 3.21211 0
M  V30 471 H 38.0726 -2.37247 2.05846 0
M  V30 472 H 37.2656 -2.38594 4.43947 0
M  V30 473 H 36.8676 -0.845885 3.64309 0
M  V30 474 H 39.1596 -2.7077 6.21039 0
M  V30 475 H 40.1026 -1.37308 6.9466 0
M  V30 476 H 40.5106 -1.94174 5.30054 0
M  V30 477 N 39.9087 -1.5758 0.0250728 0
M  V30 478 C 40.8387 -2.13007 -0.956575 0
M  V30 479 C 41.8197 -1.0452 -1.342 0
M  V30 480 O 43.0047 -1.32332 -1.42133 0
M  V30 481 C 40.1347 -2.65386 -2.24026 0
M  V30 482 C 39.0887 -3.78623 -1.99571 0
M  V30 483 C 38.4147 -4.17414 -3.3417 0
M  V30 484 C 39.7147 -5.04867 -1.33814 0
M  V30 485 H 41.4087 -2.9528 -0.494991 0
M  V30 486 H 38.9547 -1.42042 -0.236651 0
M  V30 487 H 40.9077 -3.02794 -2.93076 0
M  V30 488 H 39.6317 -1.80268 -2.72343 0
M  V30 489 H 38.2907 -3.41646 -1.32941 0
M  V30 490 H 37.9387 -3.29284 -3.80238 0
M  V30 491 H 37.6387 -4.93719 -3.18615 0
M  V30 492 H 39.1627 -4.57402 -4.04495 0
M  V30 493 H 40.5767 -5.39888 -1.92857 0
M  V30 494 H 38.9737 -5.86144 -1.28669 0
M  V30 495 H 40.0437 -4.83904 -0.310561 0
M  V30 496 N 41.3868 0.248026 -1.55636 0
M  V30 497 C 42.6118 0.998028 -1.81808 0
M  V30 498 C 43.0368 1.78207 -0.601979 0
M  V30 499 O 42.3948 1.75653 0.448961 0
M  V30 500 C 42.4428 1.9125 -3.05705 0
M  V30 501 O 41.5468 3.00406 -2.82542 0
M  V30 502 H 40.8878 0.284045 -0.600179 0
M  V30 503 H 43.4178 0.269357 -2.02819 0
M  V30 504 H 43.4278 2.32737 -3.35108 0
M  V30 505 H 42.1028 1.33602 -3.93857 0
M  V30 506 H 40.6798 2.63056 -2.64303 0
M  V30 507 N 42.8649 1.48995 0.513639 0
M  V30 508 C 44.0899 1.61792 1.29762 0
M  V30 509 C 44.5149 0.284475 1.85936 0
M  V30 510 O 43.8729 -0.746185 1.65232 0
M  V30 511 C 43.9209 2.67993 2.41272 0
M  V30 512 O 43.0249 2.26287 3.44772 0
M  V30 513 H 42.3659 0.541963 0.38363 0
M  V30 514 H 44.8959 1.95097 0.616307 0
M  V30 515 H 44.9059 2.89772 2.87221 0
M  V30 516 H 43.5809 3.64791 1.9975 0
M  V30 517 H 42.1579 2.14788 3.04829 0
M  V30 518 N 44.343 -0.763751 1.37857 0
M  V30 519 C 45.591 -1.51957 1.33243 0
M  V30 520 C 45.912 -1.94835 -0.0801709 0
M  V30 521 O 45.182 -1.66894 -1.02582 0
M  V30 522 H 43.762 -0.563626 0.49024 0
M  V30 523 H 46.424 -0.908504 1.7243 0
M  V30 524 H 45.52 -2.41523 1.97669 0
M  V30 525 N 45.8211 -1.22559 -0.990812 0
M  V30 526 C 47.0671 -1.05297 -1.73322 0
M  V30 527 C 47.4001 0.410655 -1.89808 0
M  V30 528 O 46.6751 1.30439 -1.44277 0
M  V30 529 C 46.9581 -1.76713 -3.13759 0
M  V30 530 C 46.8111 -3.30684 -3.04907 0
M  V30 531 C 48.1301 -1.52121 -4.12974 0
M  V30 532 H 45.2491 -0.38392 -0.629106 0
M  V30 533 H 47.8911 -1.50926 -1.15418 0
M  V30 534 H 46.0411 -1.37924 -3.63193 0
M  V30 535 H 47.7131 -3.7893 -2.63077 0
M  V30 536 H 45.9561 -3.60253 -2.41661 0
M  V30 537 H 46.6271 -3.75833 -4.04294 0
M  V30 538 H 49.1031 -1.85819 -3.72304 0
M  V30 539 H 47.9791 -2.04582 -5.0935 0
M  V30 540 H 48.2401 -0.454257 -4.3976 0
M  V30 541 N 47.2992 1.18797 -1.03562 0
M  V30 542 C 48.5392 1.90346 -0.744832 0
M  V30 543 C 48.9032 1.78231 0.713972 0
M  V30 544 O 50.1042 2.44441 1.11813 0
M  V30 545 C 48.3752 3.36942 -1.19184 0
M  V30 546 S 49.9342 4.26638 -1.02593 0
M  V30 547 H 46.7522 0.657343 -0.270963 0
M  V30 548 H 49.3542 1.43579 -1.32685 0
M  V30 549 H 48.0582 3.43287 -2.24905 0
M  V30 550 H 47.5892 3.88745 -0.603397 0
M  V30 551 H 49.6042 4.96164 0.0596033 0
M  V30 552 N 48.7773 0.814389 1.34928 0
M  V30 553 C 50.0053 0.411136 2.02774 0
M  V30 554 C 50.4203 -0.980316 1.61354 0
M  V30 555 O 49.7773 -1.63299 0.814847 0
M  V30 556 C 49.8283 0.493865 3.58111 0
M  V30 557 O 49.5493 1.83047 3.98027 0
M  V30 558 C 51.0503 0.0844174 4.4322 0
M  V30 559 H 48.2703 0.166037 0.650133 0
M  V30 560 H 50.8143 1.10018 1.72384 0
M  V30 561 H 48.9693 -0.147006 3.87121 0
M  V30 562 H 49.3833 1.79872 4.92693 0
M  V30 563 H 50.8573 0.193404 5.51661 0
M  V30 564 H 51.3343 -0.97113 4.28329 0
M  V30 565 H 51.9403 0.69875 4.19521 0
M  V30 566 N 50.2554 -1.46986 0.568584 0
M  V30 567 C 51.4804 -2.07335 0.0520528 0
M  V30 568 C 51.9054 -1.41675 -1.23733 0
M  V30 569 O 51.2634 -0.495623 -1.74394 0
M  V30 570 C 51.3114 -3.60417 -0.11501 0
M  V30 571 O 50.4154 -3.95309 -1.17492 0
M  V30 572 H 49.7564 -0.661597 0.0564385 0
M  V30 573 H 52.2864 -1.88837 0.787507 0
M  V30 574 H 52.2964 -4.06698 -0.325644 0
M  V30 575 H 50.9714 -4.07601 0.826675 0
M  V30 576 H 49.5484 -3.60757 -0.943869 0
M  V30 577 N 51.7335 -0.305618 -1.54608 0
M  V30 578 C 52.9615 0.304775 -2.04643 0
M  V30 579 C 53.3765 1.47167 -1.18268 0
M  V30 580 O 52.7335 1.81296 -0.209328 0
M  V30 581 C 52.7845 0.756564 -3.53495 0
M  V30 582 O 52.5055 -0.36389 -4.36586 0
M  V30 583 C 54.0065 1.43163 -4.19546 0
M  V30 584 H 51.2265 0.0655481 -0.667791 0
M  V30 585 H 53.7705 -0.446592 -1.99564 0
M  V30 586 H 51.9255 1.45794 -3.58919 0
M  V30 587 H 52.3395 -0.0113121 -5.24499 0
M  V30 588 H 53.8135 1.69886 -5.25207 0
M  V30 589 H 54.2905 2.37318 -3.69563 0
M  V30 590 H 54.8965 0.773307 -4.18211 0
M  V30 591 N 53.2116 1.57565 -0.0334293 0
M  V30 592 C 54.4576 1.92262 0.645226 0
M  V30 593 C 54.7906 0.910543 1.71531 0
M  V30 594 O 54.0656 -0.066099 1.94388 0
M  V30 595 C 54.3486 3.37422 1.2577 0
M  V30 596 C 54.2016 4.49369 0.196891 0
M  V30 597 C 55.5206 3.82628 2.17449 0
M  V30 598 H 52.6396 0.699171 0.233085 0
M  V30 599 H 55.2816 1.89779 -0.0915694 0
M  V30 600 H 53.4316 3.39669 1.88566 0
M  V30 601 H 55.1036 4.59254 -0.433962 0
M  V30 602 H 53.3466 4.31168 -0.477137 0
M  V30 603 H 54.0176 5.47978 0.665124 0
M  V30 604 H 56.4936 3.82145 1.64634 0
M  V30 605 H 55.3696 4.84883 2.57254 0
M  V30 606 H 55.6306 3.18376 3.0674 0
M  V30 607 N 54.6897 -0.239769 1.55765 0
M  V30 608 C 55.6217 -1.32001 1.87372 0
M  V30 609 C 56.6347 -1.43944 0.760522 0
M  V30 610 O 57.8237 -1.45167 1.0387 0
M  V30 611 C 54.9237 -2.69779 2.05115 0
M  V30 612 C 54.0967 -2.80014 3.36022 0
M  V30 613 C 53.1557 -3.98684 3.4342 0
M  V30 614 O 52.1817 -3.87877 4.16582 0
M  V30 615 N 53.3837 -5.12176 2.73232 0
M  V30 616 H 56.1487 -1.0522 2.80622 0
M  V30 617 H 53.7097 -0.429857 1.56089 0
M  V30 618 H 55.7017 -3.47517 2.07399 0
M  V30 619 H 54.2717 -2.89237 1.18577 0
M  V30 620 H 53.4917 -1.88896 3.45994 0
M  V30 621 H 54.7797 -2.83808 4.22292 0
M  V30 622 H 54.1777 -5.2385 2.13536 0
M  V30 623 H 52.7347 -5.88022 2.81199 0
M  V30 624 N 56.1678 -1.49265 -0.50573 0
M  V30 625 C 57.0978 -1.68495 -1.61653 0
M  V30 626 C 58.0788 -0.53366 -1.61512 0
M  V30 627 O 59.2638 -0.76897 -1.78327 0
M  V30 628 C 56.3938 -1.74709 -3.00157 0
M  V30 629 C 55.3478 -2.89581 -3.15162 0
M  V30 630 C 54.6738 -2.80903 -4.5497 0
M  V30 631 C 55.9738 -4.30578 -2.95634 0
M  V30 632 H 57.6678 -2.61493 -1.45814 0
M  V30 633 H 55.2138 -1.25838 -0.70005 0
M  V30 634 H 57.1668 -1.86748 -3.77761 0
M  V30 635 H 55.8908 -0.783067 -3.17074 0
M  V30 636 H 54.5498 -2.77136 -2.39982 0
M  V30 637 H 54.1978 -1.82419 -4.68756 0
M  V30 638 H 53.8978 -3.57999 -4.65951 0
M  V30 639 H 55.4218 -2.94944 -5.34641 0
M  V30 640 H 56.8358 -4.4373 -3.63011 0
M  V30 641 H 55.2328 -5.0886 -3.18091 0
M  V30 642 H 56.3028 -4.45352 -1.91806 0
M  V30 643 N 57.6459 0.756429 -1.3826 0
M  V30 644 C 59.0569 1.33359 -1.30661 0
M  V30 645 C 59.4079 1.96161 0.0388875 0
M  V30 646 O 58.5329 1.94874 0.940918 0
M  V30 647 C 59.1279 2.42477 -2.36622 0
M  V30 648 C 57.6869 2.95922 -2.3261 0
M  V30 649 C 56.8339 1.69275 -2.19639 0
M  V30 650 H 59.7849 0.55552 -1.4866 0
M  V30 651 H 59.8059 3.22345 -2.02174 0
M  V30 652 H 59.3179 1.96739 -3.34538 0
M  V30 653 H 57.4189 3.45996 -1.38267 0
M  V30 654 H 57.5319 3.50494 -3.26636 0
M  V30 655 H 55.8959 1.92793 -1.66442 0
M  V30 656 H 56.6789 1.25619 -3.19491 0
M  V30 657 N 59.124 1.23083 0.984299 0
M  V30 658 C 60.372 1.05848 1.72165 0
M  V30 659 C 60.693 -0.406049 1.90726 0
M  V30 660 O 59.963 -1.29139 1.47309 0
M  V30 661 H 58.543 0.388685 0.637913 0
M  V30 662 H 61.205 1.54736 1.18503 0
M  V30 663 H 60.301 1.54327 2.71274 0
M  V30 664 N 60.6021 -1.18246 1.0419 0
M  V30 665 C 61.5491 -2.2192 0.634037 0
M  V30 666 C 62.5191 -1.62179 -0.358765 0
M  V30 667 O 63.7041 -1.89122 -0.252466 0
M  V30 668 C 60.8441 -3.451 0.00445535 0
M  V30 669 C 59.9571 -4.19174 1.04487 0
M  V30 670 C 59.0921 -5.29813 0.383676 0
M  V30 671 C 58.1311 -5.9566 1.4091 0
M  V30 672 N 57.2681 -6.97834 0.772784 0
M  V30 673 H 62.1081 -2.56164 1.52263 0
M  V30 674 H 59.6451 -1.25843 0.761701 0
M  V30 675 H 61.6031 -4.15485 -0.377919 0
M  V30 676 H 60.2331 -3.11472 -0.847652 0
M  V30 677 H 59.2851 -3.47604 1.54518 0
M  V30 678 H 60.5971 -4.64267 1.82368 0
M  V30 679 H 59.7511 -6.06677 -0.0528366 0
M  V30 680 H 58.4901 -4.85825 -0.427208 0
M  V30 681 H 57.4951 -5.17535 1.85574 0
M  V30 682 H 58.7201 -6.4173 2.22171 0
M  V30 683 H 56.6661 -6.55998 -0.0177708 0
M  V30 684 H 56.5831 -7.41186 1.48928 0
M  V30 685 H 57.8511 -7.78665 0.36071 0
M  V30 686 N 62.0802 -0.821533 -1.34494 0
M  V30 687 C 63.3262 -0.409552 -1.98622 0
M  V30 688 C 63.6592 1.0244 -1.64984 0
M  V30 689 O 62.9342 1.71325 -0.920758 0
M  V30 690 C 63.2172 -0.610458 -3.54888 0
M  V30 691 C 63.0702 -2.09043 -3.98273 0
M  V30 692 C 64.3892 -0.0455379 -4.40076 0
M  V30 693 H 61.5082 -0.15028 -0.721516 0
M  V30 694 H 64.1502 -1.03384 -1.59411 0
M  V30 695 H 62.3002 -0.079044 -3.8842 0
M  V30 696 H 63.9722 -2.68537 -3.75081 0
M  V30 697 H 62.2152 -2.58139 -3.48635 0
M  V30 698 H 62.8862 -2.18182 -5.07051 0
M  V30 699 H 65.3622 -0.499557 -4.1309 0
M  V30 700 H 64.2382 -0.215922 -5.48475 0
M  V30 701 H 64.4992 1.04939 -4.29465 0
M  V30 702 N 63.5583 1.46682 -0.576371 0
M  V30 703 C 64.8043 2.02712 -0.0596221 0
M  V30 704 C 65.1373 1.44765 1.29448 0
M  V30 705 O 64.4123 0.610355 1.84675 0
M  V30 706 C 64.6953 3.60098 0.0129503 0
M  V30 707 C 64.5483 4.28441 -1.3696 0
M  V30 708 C 65.8673 4.34224 0.71678 0
M  V30 709 H 62.9863 0.736637 -0.0231407 0
M  V30 710 H 65.6283 1.74898 -0.742351 0
M  V30 711 H 63.7783 3.83926 0.594378 0
M  V30 712 H 65.4503 4.15896 -1.9957 0
M  V30 713 H 63.6933 3.8805 -1.93907 0
M  V30 714 H 64.3643 5.3716 -1.27135 0
M  V30 715 H 66.8403 4.15503 0.222908 0
M  V30 716 H 65.7163 5.43936 0.73657 0
M  V30 717 H 65.9773 4.04823 1.77682 0
M  V30 718 N 65.0364 0.313813 1.54444 0
M  V30 719 C 66.2824 -0.292108 2.00685 0
M  V30 720 C 66.6154 -1.52548 1.20177 0
M  V30 721 O 65.8904 -1.92452 0.281531 0
M  V30 722 C 66.1734 -0.635968 3.5444 0
M  V30 723 C 66.0264 0.607437 4.4568 0
M  V30 724 C 67.3454 -1.45747 4.15266 0
M  V30 725 H 64.4644 -0.104697 0.729526 0
M  V30 726 H 67.1064 0.428457 1.85106 0
M  V30 727 H 65.2564 -1.24986 3.67846 0
M  V30 728 H 66.9284 1.24581 4.44159 0
M  V30 729 H 65.1714 1.23822 4.15753 0
M  V30 730 H 65.8424 0.322515 5.51057 0
M  V30 731 H 68.3184 -0.938645 4.05375 0
M  V30 732 H 67.1944 -1.66683 5.2298 0
M  V30 733 H 67.4554 -2.45063 3.67963 0
M  V30 734 N 66.5145 -1.57545 0.0417849 0
M  V30 735 C 67.7605 -1.92601 -0.635021 0
M  V30 736 C 68.0935 -0.919627 -1.71045 0
M  V30 737 O 67.3685 0.0557892 -1.9442 0
M  V30 738 C 67.6515 -3.38085 -1.23979 0
M  V30 739 C 67.5045 -4.49467 -0.173057 0
M  V30 740 C 68.8235 -3.83776 -2.15416 0
M  V30 741 H 65.9425 -0.700397 -0.229374 0
M  V30 742 H 68.5845 -1.89728 0.101633 0
M  V30 743 H 66.7345 -3.40664 -1.86762 0
M  V30 744 H 68.4065 -4.59018 0.458312 0
M  V30 745 H 66.6495 -4.30909 0.499996 0
M  V30 746 H 67.3205 -5.48323 -0.636054 0
M  V30 747 H 69.7965 -3.83013 -1.62605 0
M  V30 748 H 68.6725 -4.8624 -2.54679 0
M  V30 749 H 68.9335 -3.19998 -3.05047 0
M  V30 750 N 67.9926 0.231505 -1.5589 0
M  V30 751 C 69.2206 0.974505 -1.82513 0
M  V30 752 C 69.6356 1.78344 -0.619591 0
M  V30 753 O 68.9926 1.77792 0.411848 0
M  V30 754 C 69.0436 1.90007 -3.07538 0
M  V30 755 O 68.7646 1.12385 -4.2344 0
M  V30 756 C 70.2656 2.75779 -3.47075 0
M  V30 757 H 67.4856 0.286065 -0.606966 0
M  V30 758 H 70.0296 0.249739 -2.02969 0
M  V30 759 H 68.1846 2.57891 -2.89086 0
M  V30 760 H 68.5986 1.75125 -4.944 0
M  V30 761 H 70.0726 3.36443 -4.37619 0
M  V30 762 H 70.5496 3.47672 -2.68367 0
M  V30 763 H 71.1556 2.13323 -3.67931 0
M  V30 764 N 69.4707 1.49531 0.497807 0
M  V30 765 C 70.7187 1.58865 1.24926 0
M  V30 766 C 71.0397 0.278721 1.92998 0
M  V30 767 O 70.3097 -0.702144 1.82885 0
M  V30 768 H 68.8897 0.585343 0.464094 0
M  V30 769 H 71.5517 1.86174 0.57666 0
M  V30 770 H 70.6477 2.38633 2.01149 0
M  V30 771 N 70.9488 -0.749086 1.3866 0
M  V30 772 C 71.9118 -1.84457 1.36045 0
M  V30 773 C 72.9118 -1.58682 0.260122 0
M  V30 774 O 74.1018 -1.66343 0.517261 0
M  V30 775 C 71.2338 -3.22008 1.11911 0
M  V30 776 H 72.4268 -1.88182 2.33512 0
M  V30 777 H 69.9798 -0.951266 1.24019 0
M  V30 778 H 70.7148 -3.2395 0.150686 0
M  V30 779 H 70.4998 -3.42111 1.91579 0
M  V30 780 H 71.9898 -4.0208 1.12788 0
M  V30 781 N 72.4269 -1.23603 -0.977757 0
M  V30 782 C 73.3749 -1.01704 -2.09187 0
M  V30 783 C 74.3689 0.0448214 -1.69341 0
M  V30 784 O 75.5749 -0.108902 -1.7967 0
M  V30 785 H 71.9499 -0.311803 -0.684312 0
M  V30 786 H 73.9209 -1.96207 -2.24823 0
M  V30 787 C 72.6699 -0.627746 -3.41986 0
M  V30 788 H 71.9929 -1.43656 -3.73099 0
M  V30 789 H 73.4329 -0.514053 -4.20872 0
M  V30 790 C 71.8919 0.664238 -3.30287 0
M  V30 791 O 72.4219 1.71268 -3.6336 0
M  V30 792 N 70.6279 0.641156 -2.83439 0
M  V30 793 H 70.1749 -0.212376 -2.56723 0
M  V30 794 H 70.1329 1.50583 -2.75993 0
M  V30 795 N 73.905 1.17692 -1.04816 0
M  V30 796 C 75.133 1.91786 -0.776254 0
M  V30 797 C 75.548 1.76604 0.667577 0
M  V30 798 O 74.905 1.10067 1.45573 0
M  V30 799 C 74.956 3.42967 -1.14263 0
M  V30 800 O 74.677 3.57678 -2.52978 0
M  V30 801 C 76.178 4.34144 -0.896311 0
M  V30 802 H 73.398 0.608624 -0.282519 0
M  V30 803 H 75.942 1.49268 -1.39783 0
M  V30 804 H 74.097 3.83245 -0.565874 0
M  V30 805 H 74.511 4.51319 -2.67229 0
M  V30 806 H 75.985 5.38744 -1.20244 0
M  V30 807 H 76.462 4.38876 0.168636 0
M  V30 808 H 77.068 3.99574 -1.45672 0
M  V30 809 N 75.3831 0.828654 1.34056 0
M  V30 810 C 76.6311 0.41863 1.97717 0
M  V30 811 C 76.9521 -1.02314 1.66002 0
M  V30 812 O 76.2221 -1.71119 0.953683 0
M  V30 813 H 74.8021 0.151809 0.731412 0
M  V30 814 H 77.4641 1.05936 1.63596 0
M  V30 815 H 76.5601 0.542318 3.07352 0
M  V30 816 N 76.8612 -1.46375 0.584142 0
M  V30 817 C 78.1102 -2.01585 0.0679741 0
M  V30 818 C 78.4232 -1.46109 -1.30045 0
M  V30 819 O 79.6292 -1.93148 -1.90804 0
M  V30 820 C 78.0852 -3.5983 0.0709207 0
M  V30 821 C 77.6932 -4.24303 1.43775 0
M  V30 822 C 79.4372 -4.22693 -0.391228 0
M  V30 823 C 77.3442 -5.74631 1.39834 0
M  V30 824 H 76.2742 -0.753689 0.0216421 0
M  V30 825 H 78.9252 -1.68093 0.736001 0
M  V30 826 H 77.3072 -3.90405 -0.663299 0
M  V30 827 H 78.4812 -4.05335 2.19181 0
M  V30 828 H 76.7962 -3.73539 1.84004 0
M  V30 829 H 79.3932 -5.3289 -0.439524 0
M  V30 830 H 79.7362 -3.91728 -1.40906 0
M  V30 831 H 80.2692 -3.96749 0.288974 0
M  V30 832 H 77.0082 -6.10258 2.39303 0
M  V30 833 H 76.5282 -5.95858 0.686505 0
M  V30 834 H 78.2072 -6.37375 1.11187 0
M  V30 835 N 78.3393 -0.321999 -1.54275 0
M  V30 836 C 79.5873 0.280489 -2.00144 0
M  V30 837 C 79.9083 1.52777 -1.21178 0
M  V30 838 O 79.1783 1.9338 -0.313187 0
M  V30 839 H 77.7583 0.106632 -0.73935 0
M  V30 840 H 80.4203 -0.438184 -1.8991 0
M  V30 841 H 79.5163 0.537972 -3.07428 0
M  V30 842 N 79.8174 1.5752 -0.0501392 0
M  V30 843 C 80.7644 2.1147 0.924603 0
M  V30 844 C 81.7344 1.02182 1.30951 0
M  V30 845 O 82.9194 1.29723 1.39916 0
M  V30 846 C 80.0594 2.66337 2.19451 0
M  V30 847 C 79.1724 3.89708 1.86418 0
M  V30 848 C 78.3074 4.32893 3.07859 0
M  V30 849 C 77.3464 5.48967 2.70742 0
M  V30 850 N 76.4834 5.87211 3.84874 0
M  V30 851 H 81.3234 2.94465 0.457639 0
M  V30 852 H 78.8604 1.45531 0.214266 0
M  V30 853 H 80.8184 2.96247 2.93758 0
M  V30 854 H 79.4484 1.86141 2.63726 0
M  V30 855 H 78.5004 3.66396 1.02264 0
M  V30 856 H 79.8124 4.74074 1.55096 0
M  V30 857 H 78.9664 4.6435 3.90466 0
M  V30 858 H 77.7054 3.47336 3.42358 0
M  V30 859 H 76.7104 5.17183 1.86551 0
M  V30 860 H 77.9354 6.3624 2.37436 0
M  V30 861 H 75.8814 5.04607 4.19175 0
M  V30 862 H 75.7984 6.66266 3.57247 0
M  V30 863 H 77.0664 6.23282 4.68123 0
M  V30 864 N 81.2955 -0.223234 1.56011 0
M  V30 865 C 82.2055 -1.29766 1.95443 0
M  V30 866 C 83.2215 -1.51373 0.858028 0
M  V30 867 O 84.3975 -1.64536 1.16146 0
M  V30 868 C 81.4625 -2.62772 2.26167 0
M  V30 869 C 80.5235 -2.49482 3.49367 0
M  V30 870 C 79.7565 -3.76145 3.78616 0
M  V30 871 O 79.9795 -4.79087 3.09568 0
M  V30 872 O 78.9135 -3.73358 4.72109 0
M  V30 873 H 82.7395 -0.99309 2.87004 0
M  V30 874 H 80.3245 -0.425958 1.43199 0
M  V30 875 H 82.2065 -3.41327 2.47131 0
M  V30 876 H 80.8815 -2.92913 1.37781 0
M  V30 877 H 79.7885 -1.69133 3.33684 0
M  V30 878 H 81.1215 -2.2428 4.38131 0
M  V30 879 N 82.7736 -1.49793 -0.48987 0
M  V30 880 C 84.0016 -1.63568 -1.26701 0
M  V30 881 C 84.4166 -0.311465 -1.86213 0
M  V30 882 O 83.7736 0.704416 -1.68357 0
M  V30 883 C 83.8246 -2.71284 -2.38929 0
M  V30 884 O 83.5456 -3.9857 -1.81861 0
M  V30 885 C 85.0466 -2.95864 -3.3012 0
M  V30 886 H 82.2666 -0.550342 -0.383881 0
M  V30 887 H 84.8106 -1.95898 -0.586864 0
M  V30 888 H 82.9656 -2.417 -3.02753 0
M  V30 889 H 83.3796 -4.57993 -2.55622 0
M  V30 890 H 84.8536 -3.74941 -4.05121 0
M  V30 891 H 85.3306 -2.06206 -3.87783 0
M  V30 892 H 85.9366 -3.26907 -2.72051 0
M  V30 893 N 84.2517 0.741722 -1.39055 0
M  V30 894 C 85.2147 1.83733 -1.37021 0
M  V30 895 C 86.2147 1.58542 -0.268534 0
M  V30 896 O 87.4047 1.66067 -0.526076 0
M  V30 897 C 84.5367 3.2141 -1.13617 0
M  V30 898 H 85.7297 1.86941 -2.34506 0
M  V30 899 H 83.2827 0.944676 -1.24521 0
M  V30 900 H 84.0177 3.23865 -0.167863 0
M  V30 901 H 83.8027 3.4109 -1.93391 0
M  V30 902 H 85.2927 4.01477 -1.14918 0
M  V30 903 N 85.7298 1.2412 0.971189 0
M  V30 904 C 86.6768 1.0305 2.06517 0
M  V30 905 C 87.6468 -0.0550666 1.66009 0
M  V30 906 O 88.8318 0.0988688 1.90544 0
M  V30 907 C 85.9718 0.637653 3.39158 0
M  V30 908 C 85.0848 1.79633 3.92882 0
M  V30 909 C 84.2198 1.34939 5.13775 0
M  V30 910 C 83.2588 2.47823 5.59687 0
M  V30 911 N 82.3958 2.04022 6.71803 0
M  V30 912 H 87.2358 1.96685 2.23873 0
M  V30 913 H 84.7728 0.979694 1.09729 0
M  V30 914 H 86.7308 0.390931 4.15364 0
M  V30 915 H 85.3608 -0.261693 3.21737 0
M  V30 916 H 84.4128 2.15681 3.13346 0
M  V30 917 H 85.7248 2.64466 4.22918 0
M  V30 918 H 84.8788 1.06134 5.97345 0
M  V30 919 H 83.6178 0.471557 4.85415 0
M  V30 920 H 82.6228 2.77392 4.74693 0
M  V30 921 H 83.8478 3.36158 5.90063 0
M  V30 922 H 81.7938 1.18632 6.45184 0
M  V30 923 H 81.7108 2.82409 7.01271 0
M  V30 924 H 82.9788 1.78347 7.58823 0
M  V30 925 N 87.2079 -1.17134 1.05439 0
M  V30 926 C 88.1179 -2.24878 0.668365 0
M  V30 927 C 89.1339 -1.71186 -0.311687 0
M  V30 928 O 90.3099 -2.00738 -0.163161 0
M  V30 929 C 87.3749 -3.46662 0.051648 0
M  V30 930 C 86.4359 -4.15429 1.08246 0
M  V30 931 C 85.6689 -5.31399 0.495082 0
M  V30 932 O 85.8919 -5.66153 -0.694743 0
M  V30 933 O 84.8259 -5.89187 1.23056 0
M  V30 934 H 88.6519 -2.60189 1.56637 0
M  V30 935 H 86.2369 -1.24482 0.826104 0
M  V30 936 H 88.1189 -4.20394 -0.290966 0
M  V30 937 H 86.7939 -3.13142 -0.819971 0
M  V30 938 H 85.7009 -3.43704 1.47711 0
M  V30 939 H 87.0339 -4.52982 1.92532 0
M  V30 940 N 88.686 -0.835752 -1.33615 0
M  V30 941 C 89.616 -0.281739 -2.31794 0
M  V30 942 C 90.597 0.608833 -1.58831 0
M  V30 943 O 91.782 0.533035 -1.86741 0
M  V30 944 C 88.912 0.546612 -3.42971 0
M  V30 945 C 87.866 -0.247904 -4.27281 0
M  V30 946 C 87.192 0.704001 -5.30045 0
M  V30 947 C 88.492 -1.46324 -5.01385 0
M  V30 948 H 90.186 -1.10206 -2.78379 0
M  V30 949 H 87.732 -0.531388 -1.33837 0
M  V30 950 H 89.685 0.944467 -4.1068 0
M  V30 951 H 88.409 1.40011 -2.95067 0
M  V30 952 H 87.068 -0.627281 -3.61194 0
M  V30 953 H 86.716 1.55381 -4.78399 0
M  V30 954 H 86.416 0.176524 -5.87335 0
M  V30 955 H 87.94 1.09944 -6.0062 0
M  V30 956 H 89.354 -1.13871 -5.61877 0
M  V30 957 H 87.751 -1.92728 -5.6831 0
M  V30 958 H 88.821 -2.23467 -4.30338 0
M  V30 959 N 90.1641 1.46063 -0.591896 0
M  V30 960 C 91.1271 2.28854 0.125973 0
M  V30 961 C 92.1271 1.38903 0.810107 0
M  V30 962 O 93.3171 1.61186 0.66066 0
M  V30 963 C 90.4491 3.19526 1.1881 0
M  V30 964 H 91.6421 2.93802 -0.601717 0
M  V30 965 H 89.1951 1.52325 -0.350254 0
M  V30 966 H 89.9301 2.59345 1.94707 0
M  V30 967 H 89.7151 3.85766 0.701936 0
M  V30 968 H 91.2051 3.81817 1.69132 0
M  V30 969 N 91.6422 0.330177 1.54103 0
M  V30 970 C 92.5742 -0.566902 2.22079 0
M  V30 971 C 93.5872 -1.07462 1.22294 0
M  V30 972 O 94.7762 -0.987065 1.48726 0
M  V30 973 C 91.8762 -1.79138 2.87685 0
M  V30 974 C 91.0492 -1.42123 4.13666 0
M  V30 975 C 90.1082 -2.50394 4.62806 0
M  V30 976 O 89.1342 -2.14261 5.27334 0
M  V30 977 N 90.3362 -3.81433 4.37595 0
M  V30 978 H 93.1012 0.0151844 2.99696 0
M  V30 979 H 90.6622 0.153681 1.61169 0
M  V30 980 H 92.6542 -2.50975 3.1748 0
M  V30 981 H 91.2242 -2.28115 2.13734 0
M  V30 982 H 90.4442 -0.534201 3.90564 0
M  V30 983 H 91.7322 -1.14971 4.9564 0
M  V30 984 H 91.1302 -4.13584 3.8596 0
M  V30 985 H 89.6872 -4.4948 4.72029 0
M  V30 986 N 93.1203 -1.57491 0.0584922 0
M  V30 987 C 94.5363 -1.56792 -0.298091 0
M  V30 988 C 94.7363 -1.06679 -1.70944 0
M  V30 989 O 93.7923 -0.726672 -2.41818 0
M  V30 990 C 95.1053 -3.00461 -0.119879 0
M  V30 991 C 96.6533 -3.1242 -0.190428 0
M  V30 992 C 97.1283 -4.57982 -0.0406567 0
M  V30 993 N 98.6193 -4.63099 -0.0966958 0
M  V30 994 C 99.3543 -5.734 -0.00502943 0
M  V30 995 N 98.8503 -6.9266 0.139402 0
M  V30 996 N 100.643 -5.62067 -0.0611391 0
M  V30 997 H 92.7943 -1.88386 0.98105 0
M  V30 998 H 95.0573 -0.867865 0.381463 0
M  V30 999 H 94.7633 -3.41187 0.85349 0
M  V30 1000 H 94.6373 -3.66843 -0.877833 0
M  V30 1001 H 97.0243 -2.71589 -1.15427 0
M  V30 1002 H 97.1053 -2.48702 0.598405 0
M  V30 1003 H 96.7493 -4.995 0.919897 0
M  V30 1004 H 96.6793 -5.19715 -0.848727 0
M  V30 1005 H 99.1703 -3.77331 -0.207277 0
M  V30 1006 H 99.4833 -7.72536 0.201855 0
M  V30 1007 H 97.8283 -6.94781 0.174586 0
M  V30 1008 H 101.019 -4.67782 -0.172583 0
M  V30 1009 H 101.192 -6.47999 0.0137562 0
M  V30 1010 N 94.5984 0.214957 -1.56127 0
M  V30 1011 C 95.8464 0.936518 -1.79091 0
M  V30 1012 C 96.1674 1.84606 -0.628148 0
M  V30 1013 O 95.4374 1.92664 0.35462 0
M  V30 1014 H 94.0174 0.3488 -0.660566 0
M  V30 1015 H 96.6794 0.22523 -1.93594 0
M  V30 1016 H 95.7754 1.53943 -2.71492 0
M  V30 1017 N 96.0765 1.50051 0.48192 0
M  V30 1018 C 97.0395 1.67584 1.5636 0
M  V30 1019 C 98.0395 0.546894 1.51214 0
M  V30 1020 O 99.2295 0.813725 1.54026 0
M  V30 1021 C 96.3615 1.691 2.96003 0
M  V30 1022 H 97.5545 2.64078 1.42136 0
M  V30 1023 H 95.1075 1.39369 0.707533 0
M  V30 1024 H 95.8425 0.742589 3.15684 0
M  V30 1025 H 95.6275 2.51105 3.01146 0
M  V30 1026 H 97.1175 1.84656 3.74556 0
M  V30 1027 N 97.5546 -0.734337 1.39446 0
M  V30 1028 C 98.9706 -1.03997 1.21065 0
M  V30 1029 C 99.1706 -2.01369 0.0727019 0
M  V30 1030 O 98.2266 -2.45856 -0.575426 0
M  V30 1031 C 99.5396 -1.60163 2.54496 0
M  V30 1032 C 101.088 -1.7224 2.61347 0
M  V30 1033 C 101.563 -2.31814 3.95002 0
M  V30 1034 N 103.054 -2.39223 3.96644 0
M  V30 1035 C 103.789 -2.86258 4.96834 0
M  V30 1036 N 103.285 -3.33184 6.07421 0
M  V30 1037 N 105.078 -2.85473 4.84213 0
M  V30 1038 H 97.2286 -0.0885624 2.12215 0
M  V30 1039 H 99.4916 -0.10191 0.942506 0
M  V30 1040 H 99.1976 -0.960811 3.38321 0
M  V30 1041 H 99.0716 -2.5896 2.74262 0
M  V30 1042 H 101.459 -2.35443 1.77906 0
M  V30 1043 H 101.54 -0.720939 2.4543 0
M  V30 1044 H 101.184 -1.69238 4.78875 0
M  V30 1045 H 101.114 -3.32638 4.08239 0
M  V30 1046 H 103.605 -2.06057 3.16779 0
M  V30 1047 H 103.918 -3.67586 6.7978 0
M  V30 1048 H 102.263 -3.31191 6.11013 0
M  V30 1049 H 105.454 -2.48136 3.96921 0
M  V30 1050 H 105.627 -3.21814 5.62441 0
M  V30 1051 N 99.0327 -1.24633 -0.964593 0
M  V30 1052 C 100.279 -1.08949 -1.71049 0
M  V30 1053 C 100.612 0.370302 -1.90637 0
M  V30 1054 O 99.8867 1.27349 -1.47011 0
M  V30 1055 C 100.17 -1.83329 -3.0994 0
M  V30 1056 C 100.023 -3.37077 -2.97824 0
M  V30 1057 C 101.342 -1.60846 -4.09654 0
M  V30 1058 H 98.4607 -0.397178 -0.620821 0
M  V30 1059 H 101.103 -1.5334 -1.12191 0
M  V30 1060 H 99.2527 -1.45597 -3.60186 0
M  V30 1061 H 100.925 -3.84425 -2.5498 0
M  V30 1062 H 99.1677 -3.65298 -2.33965 0
M  V30 1063 H 99.8387 -3.84324 -3.96231 0
M  V30 1064 H 102.315 -1.93674 -3.68279 0
M  V30 1065 H 101.191 -2.1534 -5.04896 0
M  V30 1066 H 101.452 -0.547434 -4.38698 0
M  V30 1067 N 100.511 1.16574 -1.06058 0
M  V30 1068 C 101.741 1.90675 -0.795397 0
M  V30 1069 C 102.149 1.77547 0.653735 0
M  V30 1070 O 101.492 1.11611 1.45907 0
M  V30 1071 C 101.554 3.42011 -1.10764 0
M  V30 1072 C 101.218 3.78924 -2.55471 0
M  V30 1073 C 102.215 3.81042 -3.53699 0
M  V30 1074 C 99.8998 4.09626 -2.90708 0
M  V30 1075 C 101.894 4.13346 -4.85205 0
M  V30 1076 C 99.5808 4.41597 -4.22416 0
M  V30 1077 C 100.579 4.43436 -5.19474 0
M  V30 1078 O 100.267 4.74649 -6.48817 0
M  V30 1079 H 99.9988 0.611554 -0.288058 0
M  V30 1080 H 102.553 1.48711 -1.41683 0
M  V30 1081 H 100.783 3.84312 -0.429128 0
M  V30 1082 H 102.472 3.97384 -0.827077 0
M  V30 1083 H 103.238 3.57437 -3.27817 0
M  V30 1084 H 99.1168 4.07361 -2.15819 0
M  V30 1085 H 102.661 4.14696 -5.60957 0
M  V30 1086 H 98.5578 4.64667 -4.48056 0
M  V30 1087 H 99.3258 4.9247 -6.5377 0
M  V30 1088 N 101.989 0.842826 1.3317 0
M  V30 1089 C 102.919 0.294028 2.31641 0
M  V30 1090 C 103.9 -0.600401 1.59151 0
M  V30 1091 O 105.085 -0.523124 1.87022 0
M  V30 1092 C 102.215 -0.528416 3.43257 0
M  V30 1093 C 101.169 0.27056 4.27144 0
M  V30 1094 C 100.495 -0.675881 5.30411 0
M  V30 1095 C 101.795 1.48981 5.00602 0
M  V30 1096 H 103.489 1.11681 2.77791 0
M  V30 1097 H 101.035 0.538478 1.33553 0
M  V30 1098 H 102.988 -0.922674 4.11175 0
M  V30 1099 H 101.712 -1.38445 2.95805 0
M  V30 1100 H 100.371 0.646427 3.60856 0
M  V30 1101 H 100.019 -1.52842 4.79216 0
M  V30 1102 H 99.7189 -0.145374 5.8742 0
M  V30 1103 H 101.243 -1.06757 6.01195 0
M  V30 1104 H 102.657 1.16849 5.61266 0
M  V30 1105 H 101.054 1.95739 5.6728 0
M  V30 1106 H 102.124 2.25746 4.29147 0
M  V30 1107 N 103.467 -1.45747 0.599634 0
M  V30 1108 C 104.43 -2.28917 -0.113835 0
M  V30 1109 C 105.43 -1.3933 -0.802729 0
M  V30 1110 O 106.62 -1.61534 -0.652103 0
M  V30 1111 C 103.752 -3.20152 -1.17114 0
M  V30 1112 H 104.945 -2.93478 0.617289 0
M  V30 1113 H 102.498 -1.52137 0.358327 0
M  V30 1114 H 103.233 -2.60374 -1.93329 0
M  V30 1115 H 103.018 -3.86133 -0.681468 0
M  V30 1116 H 104.508 -3.82708 -1.67105 0
M  V30 1117 N 104.945 -0.338344 -1.53925 0
M  V30 1118 C 106.185 0.260168 -2.02737 0
M  V30 1119 C 106.549 1.48181 -1.22092 0
M  V30 1120 O 107.75 2.15416 -1.60777 0
M  V30 1121 C 106.021 0.571627 -3.52799 0
M  V30 1122 S 107.58 1.14769 -4.23525 0
M  V30 1123 H 104.398 0.077791 -0.706732 0
M  V30 1124 H 107 -0.474899 -1.89644 0
M  V30 1125 H 105.704 -0.325392 -4.09108 0
M  V30 1126 H 105.235 1.3365 -3.70002 0
M  V30 1127 H 107.25 2.43372 -4.32417 0
M  V30 1128 N 106.423 1.57458 -0.0668435 0
M  V30 1129 C 107.839 1.56947 0.289772 0
M  V30 1130 C 108.039 1.07584 1.70376 0
M  V30 1131 O 107.095 0.739486 2.41429 0
M  V30 1132 C 108.408 3.0052 0.103943 0
M  V30 1133 C 109.956 3.12517 0.173857 0
M  V30 1134 C 110.431 4.57997 0.0163682 0
M  V30 1135 N 111.922 4.63144 0.0721352 0
M  V30 1136 C 112.657 5.73394 -0.0253794 0
M  V30 1137 N 112.153 6.92576 -0.176133 0
M  V30 1138 N 113.946 5.62091 0.0313305 0
M  V30 1139 H 106.097 1.87863 -0.991027 0
M  V30 1140 H 108.36 0.86583 -0.38606 0
M  V30 1141 H 108.066 3.40729 -0.871572 0
M  V30 1142 H 107.94 3.67304 0.858366 0
M  V30 1143 H 110.327 2.72197 1.13985 0
M  V30 1144 H 110.408 2.48381 -0.611586 0
M  V30 1145 H 110.052 4.99005 -0.946374 0
M  V30 1146 H 109.982 5.20158 0.821153 0
M  V30 1147 H 112.473 3.77436 0.187263 0
M  V30 1148 H 112.786 7.72418 -0.242821 0
M  V30 1149 H 111.131 6.94678 -0.211429 0
M  V30 1150 H 114.322 4.67867 0.147773 0
M  V30 1151 H 114.495 6.47982 -0.048121 0
M  V30 1152 N 107.901 -0.206675 1.56239 0
M  V30 1153 C 109.178 -0.954051 1.70755 0
M  V30 1154 C 109.558 -2.01841 0.618353 0
M  V30 1155 O 108.906 -2.25444 -0.372434 0
M  V30 1156 C 109.116 -1.551 3.12642 0
M  V30 1157 C 110.464 -2.03757 3.72516 0
M  V30 1158 O 111.488 -1.64965 3.15698 0
M  V30 1159 O 110.347 -2.75103 4.72208 0
M  V30 1160 H 107.441 -0.446636 0.696021 0
M  V30 1161 H 109.987 -0.197283 1.68549 0
M  V30 1162 H 108.759 -0.783212 3.83382 0
M  V30 1163 H 108.382 -2.37291 3.19028 0
M  V30 1164 N 109.379 -1.50304 -0.473955 0
M  V30 1165 C 110.625 -1.61389 -1.22806 0
M  V30 1166 C 110.958 -0.311955 -1.91678 0
M  V30 1167 O 110.233 0.686384 -1.81986 0
M  V30 1168 C 110.516 -2.79219 -2.27396 0
M  V30 1169 C 110.369 -4.19286 -1.62848 0
M  V30 1170 C 111.688 -2.92614 -3.28732 0
M  V30 1171 H 108.807 -0.587399 -0.445119 0
M  V30 1172 H 111.449 -1.82681 -0.522265 0
M  V30 1173 H 109.599 -2.61195 -2.87592 0
M  V30 1174 H 111.271 -4.48892 -1.06271 0
M  V30 1175 H 109.514 -4.23677 -0.931693 0
M  V30 1176 H 110.185 -4.97655 -2.38838 0
M  V30 1177 H 112.661 -3.09105 -2.78556 0
M  V30 1178 H 111.537 -3.76688 -3.99246 0
M  V30 1179 H 111.798 -2.03107 -3.92683 0
M  V30 1180 N 110.857 0.726932 -1.39834 0
M  V30 1181 C 111.767 1.87131 -1.41489 0
M  V30 1182 C 112.783 1.71239 -0.308757 0
M  V30 1183 O 113.959 1.93701 -0.551529 0
M  V30 1184 C 111.024 3.22811 -1.26468 0
M  V30 1185 C 110.085 3.51039 -2.47124 0
M  V30 1186 C 109.318 4.80245 -2.3281 0
M  V30 1187 O 109.541 5.54537 -1.33585 0
M  V30 1188 O 108.475 5.08554 -3.21957 0
M  V30 1189 H 112.301 1.8869 -2.3797 0
M  V30 1190 H 109.886 0.875837 -1.21035 0
M  V30 1191 H 111.768 4.03877 -1.20255 0
M  V30 1192 H 110.443 3.22005 -0.330862 0
M  V30 1193 H 109.35 2.70027 -2.58914 0
M  V30 1194 H 110.683 3.56632 -3.39227 0
M  V30 1195 N 112.336 1.25143 0.95797 0
M  V30 1196 C 113.283 1.05235 2.05412 0
M  V30 1197 C 114.253 -0.0374561 1.66058 0
M  V30 1198 O 115.438 0.119073 1.90428 0
M  V30 1199 C 112.578 0.673589 3.38462 0
M  V30 1200 C 111.691 1.8379 3.90954 0
M  V30 1201 C 110.826 1.40381 5.12315 0
M  V30 1202 C 109.865 2.53746 5.57027 0
M  V30 1203 N 109.002 2.11136 6.69601 0
M  V30 1204 H 113.842 1.99048 2.21774 0
M  V30 1205 H 111.379 0.991277 1.08683 0
M  V30 1206 H 113.337 0.434964 4.14926 0
M  V30 1207 H 111.967 -0.227554 3.21997 0
M  V30 1208 H 111.019 2.18992 3.11041 0
M  V30 1209 H 112.331 2.68937 4.20089 0
M  V30 1210 H 111.485 1.12464 5.96185 0
M  V30 1211 H 110.224 0.523015 4.84887 0
M  V30 1212 H 109.229 2.82412 4.71724 0
M  V30 1213 H 110.454 3.42398 5.86464 0
M  V30 1214 H 108.4 1.25468 6.4389 0
M  V30 1215 H 108.317 2.89832 6.98236 0
M  V30 1216 H 109.585 1.86385 7.56889 0
M  V30 1217 N 113.814 -1.1601 1.06675 0
M  V30 1218 C 115.062 -1.86264 0.784229 0
M  V30 1219 C 115.383 -1.82328 -0.691488 0
M  V30 1220 O 114.653 -1.25947 -1.50047 0
M  V30 1221 H 113.233 -0.689621 0.28711 0
M  V30 1222 H 115.895 -1.40664 1.34906 0
M  V30 1223 H 114.991 -2.91595 1.11259 0
M  V30 1224 N 115.292 -0.849877 -1.32721 0
M  V30 1225 C 116.202 -0.293791 -2.32753 0
M  V30 1226 C 117.218 0.585906 -1.63839 0
M  V30 1227 O 118.394 0.487413 -1.95413 0
M  V30 1228 C 115.459 0.512752 -3.42887 0
M  V30 1229 C 114.52 -0.39252 -4.27502 0
M  V30 1230 C 113.753 0.375625 -5.32377 0
M  V30 1231 O 113.976 1.60613 -5.4732 0
M  V30 1232 O 112.91 -0.256094 -6.01355 0
M  V30 1233 H 116.736 -1.12242 -2.82197 0
M  V30 1234 H 114.321 -0.612685 -1.36259 0
M  V30 1235 H 116.203 0.970704 -4.10067 0
M  V30 1236 H 114.878 1.31826 -2.95641 0
M  V30 1237 H 113.785 -0.898547 -3.63149 0
M  V30 1238 H 115.118 -1.16309 -4.7826 0
M  V30 1239 N 116.77 1.45427 -0.607355 0
M  V30 1240 C 117.7 2.3329 0.0989352 0
M  V30 1241 C 118.681 1.46816 0.859007 0
M  V30 1242 O 119.866 1.75588 0.829604 0
M  V30 1243 C 116.996 3.29518 1.09705 0
M  V30 1244 C 115.95 4.25626 0.450206 0
M  V30 1245 C 115.276 5.11542 1.55655 0
M  V30 1246 C 116.576 5.18505 -0.628455 0
M  V30 1247 H 118.27 2.92595 -0.634716 0
M  V30 1248 H 115.816 1.40696 -0.306681 0
M  V30 1249 H 117.769 3.89855 1.59971 0
M  V30 1250 H 116.493 2.68372 1.86129 0
M  V30 1251 H 115.152 3.66586 -0.0315886 0
M  V30 1252 H 114.8 4.46765 2.31107 0
M  V30 1253 H 114.5 5.76647 1.12925 0
M  V30 1254 H 116.024 5.74748 2.06148 0
M  V30 1255 H 117.438 5.72916 -0.209877 0
M  V30 1256 H 115.835 5.92085 -0.977489 0
M  V30 1257 H 116.905 4.60948 -1.50514 0
M  V30 1258 N 118.248 0.346503 1.53744 0
M  V30 1259 C 119.494 -0.249473 2.0126 0
M  V30 1260 C 119.827 -1.49965 1.23386 0
M  V30 1261 O 119.102 -1.91811 0.32229 0
M  V30 1262 C 119.385 -0.560643 3.55709 0
M  V30 1263 C 119.238 0.701836 4.44291 0
M  V30 1264 C 120.557 -1.36905 4.18264 0
M  V30 1265 H 117.676 -0.0891987 0.731582 0
M  V30 1266 H 120.318 0.467624 1.84156 0
M  V30 1267 H 118.468 -1.17156 3.70414 0
M  V30 1268 H 120.14 1.33974 4.41417 0
M  V30 1269 H 118.383 1.32612 4.13033 0
M  V30 1270 H 119.054 0.43933 5.50249 0
M  V30 1271 H 121.53 -0.852448 4.07275 0
M  V30 1272 H 120.406 -1.55553 5.26398 0
M  V30 1273 H 120.667 -2.37203 3.73078 0
M  V30 1274 N 119.726 -1.57421 0.075193 0
M  V30 1275 C 120.689 -2.11791 -0.876203 0
M  V30 1276 C 121.689 -1.04268 -1.22412 0
M  V30 1277 O 122.879 -1.30242 -1.15684 0
M  V30 1278 C 120.011 -2.62207 -2.17854 0
M  V30 1279 H 121.204 -2.9716 -0.40444 0
M  V30 1280 H 118.757 -1.55333 -0.173557 0
M  V30 1281 H 119.492 -1.803 -2.6956 0
M  V30 1282 H 119.277 -3.40802 -1.93897 0
M  V30 1283 H 120.767 -3.04335 -2.85955 0
M  V30 1284 N 121.204 0.198386 -1.56346 0
M  V30 1285 C 122.151 1.24589 -1.94284 0
M  V30 1286 C 123.121 1.454 -0.802997 0
M  V30 1287 O 124.306 1.58588 -1.06087 0
M  V30 1288 C 121.446 2.58631 -2.28482 0
M  V30 1289 C 120.559 2.45426 -3.55514 0
M  V30 1290 C 119.694 3.7215 -3.79049 0
M  V30 1291 C 118.733 3.53763 -4.99518 0
M  V30 1292 N 117.87 4.72491 -5.19323 0
M  V30 1293 H 122.71 0.915356 -2.83593 0
M  V30 1294 H 120.247 0.440629 -1.40346 0
M  V30 1295 H 122.205 3.3672 -2.46324 0
M  V30 1296 H 120.835 2.89734 -1.42317 0
M  V30 1297 H 119.887 1.58652 -3.45737 0
M  V30 1298 H 121.199 2.27772 -4.43758 0
M  V30 1299 H 120.353 4.58679 -3.97113 0
M  V30 1300 H 119.092 3.92754 -2.89129 0
M  V30 1301 H 118.097 2.65619 -4.8138 0
M  V30 1302 H 119.322 3.34607 -5.90944 0
M  V30 1303 H 117.268 4.93365 -4.3235 0
M  V30 1304 H 117.185 4.5765 -6.01741 0
M  V30 1305 H 118.453 5.6038 -5.41843 0
M  V30 1306 N 122.682 1.50554 0.465978 0
M  V30 1307 C 123.592 1.72585 1.58907 0
M  V30 1308 C 124.608 0.60911 1.6299 0
M  V30 1309 O 125.784 0.88804 1.80765 0
M  V30 1310 C 122.849 1.81995 2.95091 0
M  V30 1311 C 121.91 3.05751 3.01355 0
M  V30 1312 C 121.143 3.14702 4.31043 0
M  V30 1313 O 121.366 2.30313 5.21835 0
M  V30 1314 O 120.3 4.07468 4.43005 0
M  V30 1315 H 124.126 2.67799 1.43239 0
M  V30 1316 H 121.711 1.34711 0.646013 0
M  V30 1317 H 123.593 1.90335 3.75966 0
M  V30 1318 H 122.268 0.899659 3.10947 0
M  V30 1319 H 121.175 3.02908 2.19539 0
M  V30 1320 H 122.508 3.97375 2.90437 0
M  V30 1321 N 124.16 -0.719506 1.40217 0
M  V30 1322 C 125.409 -1.47486 1.37589 0
M  V30 1323 C 125.722 -1.9559 -0.0201568 0
M  V30 1324 O 126.928 -2.70973 -0.169049 0
M  V30 1325 C 125.384 -2.66575 2.41796 0
M  V30 1326 C 124.992 -2.25358 3.87192 0
M  V30 1327 C 126.736 -3.4433 2.48269 0
M  V30 1328 C 124.643 -3.41262 4.83005 0
M  V30 1329 H 123.573 -0.553901 0.511576 0
M  V30 1330 H 126.224 -0.783427 1.65936 0
M  V30 1331 H 124.606 -3.3787 2.06543 0
M  V30 1332 H 125.78 -1.61509 4.31569 0
M  V30 1333 H 124.095 -1.60657 3.84159 0
M  V30 1334 H 126.692 -4.30569 3.17041 0
M  V30 1335 H 127.035 -3.87872 1.51198 0
M  V30 1336 H 127.568 -2.80076 2.82493 0
M  V30 1337 H 124.307 -3.02755 5.81394 0
M  V30 1338 H 123.827 -4.0404 4.43297 0
M  V30 1339 H 125.506 -4.07383 5.02641 0
M  V30 1340 N 125.638 -1.25649 -0.95132 0
M  V30 1341 C 126.57 -1.02112 -2.05197 0
M  V30 1342 C 127.583 0.0150571 -1.62793 0
M  V30 1343 O 128.772 -0.223874 -1.77091 0
M  V30 1344 C 125.872 -0.522361 -3.3485 0
M  V30 1345 C 125.045 -1.62546 -4.06076 0
M  V30 1346 C 124.104 -1.12649 -5.14001 0
M  V30 1347 O 123.13 -1.82156 -5.39266 0
M  V30 1348 N 124.332 0.03047 -5.80492 0
M  V30 1349 H 127.097 -1.96885 -2.25957 0
M  V30 1350 H 124.658 -1.16899 -1.1201 0
M  V30 1351 H 126.65 -0.172961 -4.0433 0
M  V30 1352 H 125.22 0.33151 -3.10837 0
M  V30 1353 H 124.44 -2.14628 -3.30649 0
M  V30 1354 H 125.728 -2.36644 -4.50419 0
M  V30 1355 H 125.126 0.611169 -5.62389 0
M  V30 1356 H 123.683 0.320875 -6.5101 0
M  V30 1357 N 127.117 1.15442 -1.07289 0
M  V30 1358 C 128.345 1.90096 -0.81676 0
M  V30 1359 C 128.76 1.7798 0.629966 0
M  V30 1360 O 128.117 1.1313 1.43206 0
M  V30 1361 C 128.168 3.40466 -1.21512 0
M  V30 1362 O 127.889 3.52232 -2.60508 0
M  V30 1363 C 129.39 4.32145 -0.988198 0
M  V30 1364 H 126.61 0.602495 -0.295366 0
M  V30 1365 H 129.154 1.4627 -1.42918 0
M  V30 1366 H 127.309 3.81958 -0.647039 0
M  V30 1367 H 127.723 4.45549 -2.76742 0
M  V30 1368 H 129.197 5.36072 -1.31645 0
M  V30 1369 H 129.674 4.39135 0.0755063 0
M  V30 1370 H 130.28 3.96395 -1.54115 0
M  V30 1371 N 128.595 0.856903 1.32268 0
M  V30 1372 C 129.823 0.475439 2.01363 0
M  V30 1373 C 130.238 -0.928486 1.64392 0
M  V30 1374 O 129.595 -1.60624 0.866387 0
M  V30 1375 C 129.646 0.607545 3.56358 0
M  V30 1376 O 129.367 1.95617 3.92002 0
M  V30 1377 C 130.868 0.225382 4.42727 0
M  V30 1378 H 128.088 0.186636 0.644521 0
M  V30 1379 H 130.632 1.15446 1.68797 0
M  V30 1380 H 128.787 -0.0237719 3.87393 0
M  V30 1381 H 129.201 1.95455 4.86721 0
M  V30 1382 H 130.675 0.368813 5.50767 0
M  V30 1383 H 131.152 -0.834369 4.31202 0
M  V30 1384 H 131.758 0.831864 4.17085 0
M  V30 1385 N 130.073 -1.45103 0.615059 0
M  V30 1386 C 131.301 -2.06553 0.11977 0
M  V30 1387 C 131.716 -1.45842 -1.19898 0
M  V30 1388 O 131.073 -0.575325 -1.73194 0
M  V30 1389 C 131.124 -3.61495 -0.018364 0
M  V30 1390 O 130.845 -4.19942 1.24822 0
M  V30 1391 C 132.346 -4.39947 -0.544237 0
M  V30 1392 H 129.566 -0.667096 0.0722739 0
M  V30 1393 H 132.11 -1.8623 0.84491 0
M  V30 1394 H 130.265 -3.81135 -0.693865 0
M  V30 1395 H 130.679 -5.13204 1.0827 0
M  V30 1396 H 132.153 -5.48838 -0.589953 0
M  V30 1397 H 132.63 -4.10255 -1.56805 0
M  V30 1398 H 133.236 -4.25188 0.0974703 0
M  V30 1399 N 131.551 -0.354651 -1.53558 0
M  V30 1400 C 132.799 0.237972 -2.00694 0
M  V30 1401 C 133.12 1.50173 -1.24391 0
M  V30 1402 O 132.39 1.92673 -0.354135 0
M  V30 1403 H 130.97 0.0909256 -0.741446 0
M  V30 1404 H 133.632 -0.478368 -1.88938 0
M  V30 1405 H 132.728 0.47264 -3.085 0
M  V30 1406 N 133.029 1.57378 -0.0835403 0
M  V30 1407 C 133.977 2.14602 0.89714 0
M  V30 1408 C 134.971 1.08589 1.30018 0
M  V30 1409 O 136.177 1.26952 1.27606 0
M  V30 1410 H 132.552 0.686346 0.3073 0
M  V30 1411 H 134.523 2.95845 0.38969 0
M  V30 1412 C 133.272 2.73188 2.15089 0
M  V30 1413 H 132.595 3.54442 1.84962 0
M  V30 1414 H 134.035 3.1681 2.81793 0
M  V30 1415 C 132.494 1.68517 2.91725 0
M  V30 1416 O 133.024 1.11718 3.85852 0
M  V30 1417 N 131.23 1.39277 2.55049 0
M  V30 1418 H 130.777 1.85655 1.78577 0
M  V30 1419 H 130.735 0.694791 3.06627 0
M  V30 1420 N 134.507 -0.190092 1.56449 0
M  V30 1421 C 135.439 -1.25973 1.91477 0
M  V30 1422 C 136.452 -1.41452 0.805931 0
M  V30 1423 O 137.641 -1.41789 1.08435 0
M  V30 1424 C 134.741 -2.63117 2.13594 0
M  V30 1425 C 133.914 -2.69182 3.4476 0
M  V30 1426 C 132.973 -3.87557 3.5593 0
M  V30 1427 O 131.999 -3.74427 4.28711 0
M  V30 1428 N 133.201 -5.03224 2.89388 0
M  V30 1429 H 135.966 -0.962394 2.83828 0
M  V30 1430 H 133.527 -0.379981 1.57378 0
M  V30 1431 H 135.519 -3.40742 2.1835 0
M  V30 1432 H 134.089 -2.85319 1.27719 0
M  V30 1433 H 133.309 -1.77793 3.51828 0
M  V30 1434 H 134.597 -2.70229 4.31107 0
M  V30 1435 H 133.995 -5.16791 2.30094 0
M  V30 1436 H 132.552 -5.78778 2.99764 0
M  V30 1437 N 135.985 -1.50799 -0.457987 0
M  V30 1438 C 136.917 -1.66786 -1.57211 0
M  V30 1439 C 137.93 -0.548962 -1.53265 0
M  V30 1440 O 139.119 -0.8226 -1.58416 0
M  V30 1441 C 136.219 -1.64834 -2.96113 0
M  V30 1442 C 135.392 -2.92971 -3.24787 0
M  V30 1443 C 134.451 -2.83485 -4.43309 0
M  V30 1444 O 133.477 -3.5744 -4.42973 0
M  V30 1445 N 134.679 -1.97929 -5.45714 0
M  V30 1446 H 137.444 -2.62889 -1.43909 0
M  V30 1447 H 135.005 -1.48427 -0.646617 0
M  V30 1448 H 136.997 -1.56084 -3.7339 0
M  V30 1449 H 135.567 -0.764118 -3.03117 0
M  V30 1450 H 134.787 -3.15749 -2.36 0
M  V30 1451 H 136.075 -3.77834 -3.40762 0
M  V30 1452 H 135.473 -1.37182 -5.48815 0
M  V30 1453 H 134.03 -1.95073 -6.21924 0
M  V30 1454 N 137.463 0.71206 -1.40597 0
M  V30 1455 C 138.709 1.47416 -1.39271 0
M  V30 1456 C 139.042 1.942 0.00388791 0
M  V30 1457 O 138.317 1.68403 0.973179 0
M  V30 1458 C 138.6 2.69774 -2.38525 0
M  V30 1459 C 138.453 2.28861 -3.87224 0
M  V30 1460 C 139.772 3.71939 -2.35264 0
M  V30 1461 H 136.891 0.534713 -0.5072 0
M  V30 1462 H 139.533 0.812375 -1.71757 0
M  V30 1463 H 137.683 3.26238 -2.10953 0
M  V30 1464 H 139.355 1.77852 -4.25636 0
M  V30 1465 H 137.598 1.60824 -4.02887 0
M  V30 1466 H 138.269 3.16584 -4.52193 0
M  V30 1467 H 140.745 3.25113 -2.59694 0
M  V30 1468 H 139.621 4.55186 -3.06753 0
M  V30 1469 H 139.882 4.20484 -1.36549 0
M  V30 1470 N 138.941 1.26152 0.944643 0
M  V30 1471 C 139.871 1.09902 2.06019 0
M  V30 1472 C 140.852 0.00519538 1.70099 0
M  V30 1473 O 142.037 0.176583 1.93396 0
M  V30 1474 C 139.167 0.727562 3.39594 0
M  V30 1475 C 138.121 1.77274 3.89561 0
M  V30 1476 C 137.447 1.25569 5.19747 0
M  V30 1477 C 138.747 3.17357 4.14827 0
M  V30 1478 H 140.441 2.03217 2.19871 0
M  V30 1479 H 137.987 0.978452 1.05652 0
M  V30 1480 H 139.94 0.600777 4.17095 0
M  V30 1481 H 138.664 -0.241287 3.25707 0
M  V30 1482 H 137.323 1.88814 3.14237 0
M  V30 1483 H 136.971 0.276783 5.02238 0
M  V30 1484 H 136.671 1.95433 5.54148 0
M  V30 1485 H 138.195 1.1415 5.99835 0
M  V30 1486 H 139.609 3.08914 4.82954 0
M  V30 1487 H 138.006 3.84781 4.60504 0
M  V30 1488 H 139.076 3.63673 3.20734 0
M  V30 1489 N 140.419 -1.14872 1.07899 0
M  V30 1490 C 141.665 -1.86064 0.806725 0
M  V30 1491 C 141.998 -1.82434 -0.665706 0
M  V30 1492 O 141.273 -1.25138 -1.48899 0
M  V30 1493 C 141.556 -3.34929 1.32267 0
M  V30 1494 C 141.409 -3.47161 2.86006 0
M  V30 1495 C 142.728 -4.29863 0.943717 0
M  V30 1496 H 139.847 -0.675591 0.294526 0
M  V30 1497 H 142.489 -1.34925 1.33773 0
M  V30 1498 H 140.639 -3.78611 0.870974 0
M  V30 1499 H 142.311 -3.12302 3.39507 0
M  V30 1500 H 140.554 -2.88539 3.23925 0
M  V30 1501 H 141.225 -4.51777 3.17177 0
M  V30 1502 H 143.701 -3.9417 1.33302 0
M  V30 1503 H 142.577 -5.32494 1.33198 0
M  V30 1504 H 142.838 -4.41846 -0.149796 0
M  V30 1505 N 141.898 -0.863906 -1.31812 0
M  V30 1506 C 143.314 -0.555004 -1.49639 0
M  V30 1507 C 143.514 0.912266 -1.79666 0
M  V30 1508 O 142.57 1.69479 -1.87171 0
M  V30 1509 C 143.883 -1.44998 -2.63431 0
M  V30 1510 C 145.431 -1.45138 -2.77316 0
M  V30 1511 C 145.906 -2.33179 -3.94197 0
M  V30 1512 N 147.397 -2.31025 -4.01474 0
M  V30 1513 C 148.132 -2.95871 -4.9117 0
M  V30 1514 N 147.628 -3.69863 -5.8581 0
M  V30 1515 N 149.421 -2.85211 -4.84367 0
M  V30 1516 H 141.572 -1.81339 -1.10589 0
M  V30 1517 H 143.835 -0.77505 -0.545895 0
M  V30 1518 H 143.541 -2.49377 -2.48 0
M  V30 1519 H 143.415 -1.14409 -3.59431 0
M  V30 1520 H 145.802 -0.415201 -2.92164 0
M  V30 1521 H 145.883 -1.79747 -1.82001 0
M  V30 1522 H 145.527 -3.3687 -3.80107 0
M  V30 1523 H 145.457 -1.95897 -4.88807 0
M  V30 1524 H 147.948 -1.77238 -3.33759 0
M  V30 1525 H 148.261 -4.16486 -6.50968 0
M  V30 1526 H 146.606 -3.73971 -5.85808 0
M  V30 1527 H 149.797 -2.26948 -4.09405 0
M  V30 1528 H 149.97 -3.36027 -5.54066 0
M  V30 1529 N 143.376 1.44774 -0.622745 0
M  V30 1530 C 144.323 2.30635 0.0871679 0
M  V30 1531 C 145.293 1.42994 0.845097 0
M  V30 1532 O 146.478 1.71907 0.827812 0
M  V30 1533 C 143.618 3.28144 1.06844 0
M  V30 1534 C 142.731 4.30888 0.309809 0
M  V30 1535 C 141.866 5.15494 1.28215 0
M  V30 1536 C 140.905 6.09953 0.512198 0
M  V30 1537 N 140.042 6.87287 1.43458 0
M  V30 1538 H 144.882 2.90803 -0.650974 0
M  V30 1539 H 142.419 1.43286 -0.33281 0
M  V30 1540 H 144.377 3.83157 1.65066 0
M  V30 1541 H 143.007 2.69695 1.77382 0
M  V30 1542 H 142.059 3.78414 -0.388181 0
M  V30 1543 H 143.371 4.97955 -0.290254 0
M  V30 1544 H 142.525 5.74983 1.93596 0
M  V30 1545 H 141.264 4.48481 1.91614 0
M  V30 1546 H 140.269 5.49581 -0.155151 0
M  V30 1547 H 141.494 6.78999 -0.116958 0
M  V30 1548 H 139.44 6.2295 2.05594 0
M  V30 1549 H 139.357 7.50763 0.888335 0
M  V30 1550 H 140.625 7.51306 2.07749 0
M  V30 1551 N 144.854 0.36279 1.53368 0
M  V30 1552 C 145.784 -0.476976 2.28576 0
M  V30 1553 C 146.765 -1.08631 1.30894 0
M  V30 1554 O 147.95 -1.10409 1.59761 0
M  V30 1555 C 145.08 -1.61828 3.07293 0
M  V30 1556 C 144.034 -1.13633 4.1264 0
M  V30 1557 C 143.36 -2.36766 4.79423 0
M  V30 1558 C 144.66 -0.223061 5.21823 0
M  V30 1559 H 146.354 0.150474 2.99022 0
M  V30 1560 H 143.9 0.0738103 1.43811 0
M  V30 1561 H 145.853 -2.21237 3.58653 0
M  V30 1562 H 144.577 -2.27292 2.34533 0
M  V30 1563 H 143.236 -0.564945 3.62221 0
M  V30 1564 H 142.884 -3.0068 4.03238 0
M  V30 1565 H 142.584 -2.05192 5.50609 0
M  V30 1566 H 144.108 -2.96865 5.33576 0
M  V30 1567 H 145.522 -0.724545 5.68703 0
M  V30 1568 H 143.919 0.001678 6.001 0
M  V30 1569 H 144.989 0.735553 4.79289 0
M  V30 1570 N 146.332 -1.57332 0.0918853 0
M  V30 1571 C 147.609 -1.85691 -0.614668 0
M  V30 1572 C 147.989 -0.988146 -1.86545 0
M  V30 1573 O 147.337 -0.0597055 -2.28422 0
M  V30 1574 C 147.547 -3.36294 -0.933126 0
M  V30 1575 C 148.895 -4.04275 -1.29796 0
M  V30 1576 O 149.919 -3.41157 -1.02424 0
M  V30 1577 O 148.778 -5.1564 -1.81047 0
M  V30 1578 H 145.872 -0.767802 -0.307261 0
M  V30 1579 H 148.418 -1.69244 0.12434 0
M  V30 1580 H 147.19 -3.91273 -0.0456404 0
M  V30 1581 H 146.813 -3.58076 -1.72822 0
M  V30 1582 N 147.81 0.181792 -1.56548 0
M  V30 1583 C 148.74 1.22765 -1.98623 0
M  V30 1584 C 149.721 1.46747 -0.860189 0
M  V30 1585 O 150.906 1.58259 -1.12551 0
M  V30 1586 C 148.036 2.56894 -2.33715 0
M  V30 1587 C 146.99 2.475 -3.49182 0
M  V30 1588 C 146.316 3.86023 -3.69986 0
M  V30 1589 C 147.616 1.98866 -4.82959 0
M  V30 1590 H 149.31 0.877942 -2.86239 0
M  V30 1591 H 146.856 0.42088 -1.37712 0
M  V30 1592 H 148.809 3.30253 -2.61746 0
M  V30 1593 H 147.533 2.93632 -1.42997 0
M  V30 1594 H 146.192 1.76596 -3.21262 0
M  V30 1595 H 145.84 4.20136 -2.76576 0
M  V30 1596 H 145.54 3.80609 -4.47672 0
M  V30 1597 H 147.064 4.60984 -4.00407 0
M  V30 1598 H 148.478 2.61992 -5.09934 0
M  V30 1599 H 146.875 2.04424 -5.64208 0
M  V30 1600 H 147.945 0.942465 -4.75653 0
M  V30 1601 N 149.288 1.51039 0.449983 0
M  V30 1602 C 150.513 1.6715 1.22783 0
M  V30 1603 C 150.938 0.363081 1.84563 0
M  V30 1604 O 150.296 -0.675433 1.68249 0
M  V30 1605 C 150.344 2.77985 2.29689 0
M  V30 1606 O 149.448 2.40707 3.34864 0
M  V30 1607 H 148.789 0.557746 0.360299 0
M  V30 1608 H 151.319 1.97535 0.533005 0
M  V30 1609 H 151.329 3.01693 2.74673 0
M  V30 1610 H 150.004 3.72935 1.84098 0
M  V30 1611 H 148.581 2.27523 2.95445 0
M  V30 1612 N 150.766 -0.704594 1.40972 0
M  V30 1613 C 152.043 -1.45847 1.30338 0
M  V30 1614 C 152.423 -2.10973 -0.0732344 0
M  V30 1615 O 151.771 -2.00997 -1.08685 0
M  V30 1616 C 151.981 -2.48525 2.45023 0
M  V30 1617 C 153.329 -3.1404 2.8577 0
M  V30 1618 O 154.353 -2.58848 2.44696 0
M  V30 1619 O 153.212 -4.13981 3.56766 0
M  V30 1620 H 150.306 -0.649092 0.512454 0
M  V30 1621 H 152.852 -0.735836 1.52917 0
M  V30 1622 H 151.624 -1.98994 3.36923 0
M  V30 1623 H 151.247 -3.2831 2.24272 0
M  V30 1624 N 152.244 -1.26651 -0.937939 0
M  V30 1625 C 153.472 -1.15173 -1.7188 0
M  V30 1626 C 153.887 0.292668 -1.86518 0
M  V30 1627 O 153.244 1.20014 -1.37488 0
M  V30 1628 C 153.295 -1.81925 -3.12387 0
M  V30 1629 O 153.016 -3.2072 -2.98446 0
M  V30 1630 C 154.517 -1.76442 -4.06673 0
M  V30 1631 H 151.737 -0.400911 -0.538063 0
M  V30 1632 H 154.281 -1.67332 -1.1756 0
M  V30 1633 H 152.436 -1.33696 -3.63599 0
M  V30 1634 H 152.85 -3.53802 -3.872 0
M  V30 1635 H 154.324 -2.27781 -5.02812 0
M  V30 1636 H 154.801 -0.731608 -4.33064 0
M  V30 1637 H 155.407 -2.24238 -3.61382 0
M  V30 1638 N 153.722 1.14298 -1.08507 0
M  V30 1639 C 154.669 2.19414 -0.715965 0
M  V30 1640 C 155.639 1.63399 0.298326 0
M  V30 1641 O 156.824 1.89929 0.182101 0
M  V30 1642 C 153.964 3.44845 -0.132534 0
M  V30 1643 C 153.077 4.15007 -1.19973 0
M  V30 1644 C 152.212 5.28024 -0.580048 0
M  V30 1645 C 151.251 5.9002 -1.62921 0
M  V30 1646 N 150.388 6.94485 -1.03125 0
M  V30 1647 H 155.228 2.50336 -1.61666 0
M  V30 1648 H 152.765 1.2293 -0.807882 0
M  V30 1649 H 154.723 4.16601 0.223454 0
M  V30 1650 H 153.353 3.14403 0.731467 0
M  V30 1651 H 152.405 3.41629 -1.67313 0
M  V30 1652 H 153.717 4.57178 -1.99473 0
M  V30 1653 H 152.871 6.06455 -0.172364 0
M  V30 1654 H 151.61 4.87076 0.246603 0
M  V30 1655 H 150.615 5.10291 -2.04654 0
M  V30 1656 H 151.84 6.33042 -2.45835 0
M  V30 1657 H 149.786 6.55612 -0.225711 0
M  V30 1658 H 149.703 7.35148 -1.76334 0
M  V30 1659 H 150.971 7.7679 -0.649458 0
M  V30 1660 N 155.201 0.870884 1.31352 0
M  V30 1661 C 156.426 0.495957 2.01383 0
M  V30 1662 C 156.851 -0.904324 1.64935 0
M  V30 1663 O 156.209 -1.59687 0.858466 0
M  V30 1664 C 156.257 0.661433 3.54482 0
M  V30 1665 O 155.361 -0.298851 4.11316 0
M  V30 1666 H 154.702 0.197158 0.634054 0
M  V30 1667 H 157.232 1.17455 1.67527 0
M  V30 1668 H 157.242 0.555072 4.04207 0
M  V30 1669 H 155.917 1.68246 3.8035 0
M  V30 1670 H 154.494 -0.147368 3.72609 0
M  V30 1671 N 156.679 -1.44442 0.630414 0
M  V30 1672 C 157.928 -2.01267 0.132073 0
M  V30 1673 C 158.241 -1.50172 -1.25331 0
M  V30 1674 O 159.447 -1.9912 -1.84562 0
M  V30 1675 C 157.903 -3.59422 0.185362 0
M  V30 1676 C 157.511 -4.19514 1.57201 0
M  V30 1677 C 159.255 -4.23724 -0.256553 0
M  V30 1678 C 157.162 -5.69891 1.58045 0
M  V30 1679 H 156.092 -0.752619 0.0456092 0
M  V30 1680 H 158.743 -1.65666 0.789106 0
M  V30 1681 H 157.125 -3.92318 -0.538759 0
M  V30 1682 H 158.299 -3.98156 2.31966 0
M  V30 1683 H 156.614 -3.67496 1.95795 0
M  V30 1684 H 159.211 -5.34019 -0.269767 0
M  V30 1685 H 159.554 -3.96013 -1.28372 0
M  V30 1686 H 160.087 -3.95629 0.41505 0
M  V30 1687 H 156.826 -6.02336 2.58597 0
M  V30 1688 H 156.346 -5.93373 0.875725 0
M  V30 1689 H 158.025 -6.33515 1.31408 0
M  V30 1690 N 158.157 -0.370918 -1.53173 0
M  V30 1691 C 159.573 -0.0200818 -1.59587 0
M  V30 1692 C 159.773 1.46279 -1.38581 0
M  V30 1693 O 158.829 2.22506 -1.19363 0
M  V30 1694 C 160.142 -0.4808 -2.96831 0
M  V30 1695 C 161.69 -0.435477 -3.09956 0
M  V30 1696 C 162.165 -0.872092 -4.4962 0
M  V30 1697 N 163.656 -0.827364 -4.55751 0
M  V30 1698 C 164.391 -1.13683 -5.62018 0
M  V30 1699 N 163.887 -1.51584 -6.76014 0
M  V30 1700 N 165.68 -1.05927 -5.52029 0
M  V30 1701 H 157.831 -1.33652 -1.65079 0
M  V30 1702 H 160.094 -0.546634 -0.774529 0
M  V30 1703 H 159.8 -1.51577 -3.1736 0
M  V30 1704 H 159.674 0.129796 -3.76977 0
M  V30 1705 H 162.061 0.590371 -2.89134 0
M  V30 1706 H 162.142 -1.08164 -2.31806 0
M  V30 1707 H 161.786 -1.89608 -4.71181 0
M  V30 1708 H 161.716 -0.203127 -5.26208 0
M  V30 1709 H 164.207 -0.548216 -3.73902 0
M  V30 1710 H 164.52 -1.73609 -7.53047 0
M  V30 1711 H 162.865 -1.55454 -6.77391 0
M  V30 1712 H 166.056 -0.762321 -4.61851 0
M  V30 1713 H 166.229 -1.30378 -6.34749 0
M  V30 1714 N 159.635 1.57281 -0.100228 0
M  V30 1715 C 160.598 2.13158 0.842398 0
M  V30 1716 C 161.598 1.06202 1.20738 0
M  V30 1717 O 162.788 1.32066 1.13597 0
M  V30 1718 C 159.92 2.65639 2.13655 0
M  V30 1719 H 161.113 2.97766 0.357114 0
M  V30 1720 H 158.666 1.5559 0.148823 0
M  V30 1721 H 159.401 1.84566 2.66657 0
M  V30 1722 H 159.186 3.43844 1.88451 0
M  V30 1723 H 160.676 3.08846 2.81077 0
M  V30 1724 N 161.113 -0.173488 1.56642 0
M  V30 1725 C 162.36 -0.890465 1.81871 0
M  V30 1726 C 162.688 -1.82339 0.67696 0
M  V30 1727 O 161.943 -1.92795 -0.335926 0
M  V30 1728 C 162.242 -1.72069 3.13252 0
M  V30 1729 C 161.908 -0.936878 4.41059 0
M  V30 1730 C 160.57 -0.720545 4.75775 0
M  V30 1731 C 162.922 -0.386919 5.19762 0
M  V30 1732 C 160.25 0.0568829 5.86672 0
M  V30 1733 C 162.602 0.37741 6.31473 0
M  V30 1734 C 161.266 0.604563 6.64757 0
M  V30 1735 H 160.536 -0.325844 0.665512 0
M  V30 1736 H 163.183 -0.155527 1.90867 0
M  V30 1737 H 161.488 -2.52496 2.99588 0
M  V30 1738 H 163.185 -2.27844 3.29982 0
M  V30 1739 H 159.775 -1.11553 4.13828 0
M  V30 1740 H 163.959 -0.541398 4.93338 0
M  V30 1741 H 159.215 0.242635 6.10918 0
M  V30 1742 H 163.389 0.810825 6.91664 0
M  V30 1743 H 161.016 1.20885 7.50527 0
M  V30 1744 N 162.591 -1.51276 -0.441967 0
M  V30 1745 C 163.554 -1.7167 -1.51862 0
M  V30 1746 C 164.554 -0.586793 -1.49711 0
M  V30 1747 O 165.744 -0.854276 -1.51815 0
M  V30 1748 C 162.876 -1.76889 -2.91416 0
M  V30 1749 H 164.069 -2.67754 -1.35084 0
M  V30 1750 H 161.622 -1.41196 -0.670333 0
M  V30 1751 H 162.357 -0.826026 -3.13604 0
M  V30 1752 H 162.142 -2.59001 -2.94382 0
M  V30 1753 H 163.632 -1.94522 -3.69528 0
M  V30 1754 N 164.069 0.697108 -1.41344 0
M  V30 1755 C 165.016 1.81106 -1.43071 0
M  V30 1756 C 165.986 1.63632 -0.285275 0
M  V30 1757 O 167.171 1.84504 -0.486091 0
M  V30 1758 C 164.311 3.18975 -1.31715 0
M  V30 1759 C 163.424 3.47892 -2.56115 0
M  V30 1760 C 162.559 4.75367 -2.37064 0
M  V30 1761 C 161.598 4.97247 -3.56948 0
M  V30 1762 N 160.735 6.15947 -3.36977 0
M  V30 1763 H 165.575 1.78965 -2.38276 0
M  V30 1764 H 163.112 0.873975 -1.18322 0
M  V30 1765 H 165.07 3.98615 -1.23133 0
M  V30 1766 H 163.7 3.20297 -0.401183 0
M  V30 1767 H 162.752 2.62669 -2.75153 0
M  V30 1768 H 164.064 3.59962 -3.45295 0
M  V30 1769 H 163.218 5.63059 -2.25941 0
M  V30 1770 H 161.957 4.65541 -1.45338 0
M  V30 1771 H 160.962 4.08004 -3.68527 0
M  V30 1772 H 162.187 5.08934 -4.49626 0
M  V30 1773 H 160.133 6.07336 -2.47949 0
M  V30 1774 H 160.05 6.28777 -4.19732 0
M  V30 1775 H 161.318 7.06377 -3.29623 0
M  V30 1776 N 165.547 1.27147 0.931209 0
M  V30 1777 C 166.795 1.13055 1.6752 0
M  V30 1778 C 167.116 -0.324791 1.92276 0
M  V30 1779 O 166.386 -1.22775 1.52654 0
M  V30 1780 H 164.966 0.415391 0.620854 0
M  V30 1781 H 167.628 1.59623 1.11833 0
M  V30 1782 H 166.724 1.65694 2.64485 0
M  V30 1783 N 167.025 -1.13721 1.09112 0
M  V30 1784 C 168.272 -1.84924 0.825192 0
M  V30 1785 C 168.6 -1.83347 -0.649151 0
M  V30 1786 O 167.855 -1.26449 -1.49362 0
M  V30 1787 C 168.154 -3.32861 1.30146 0
M  V30 1788 C 167.82 -3.54621 2.78486 0
M  V30 1789 C 166.482 -3.60268 3.18999 0
M  V30 1790 C 168.834 -3.62855 3.74146 0
M  V30 1791 C 166.162 -3.71679 4.53951 0
M  V30 1792 C 168.514 -3.75793 5.08883 0
M  V30 1793 C 167.178 -3.79692 5.4899 0
M  V30 1794 H 166.448 -0.676684 0.301959 0
M  V30 1795 H 169.095 -1.3428 1.36533 0
M  V30 1796 H 167.4 -3.85835 0.681064 0
M  V30 1797 H 169.097 -3.86395 1.07236 0
M  V30 1798 H 165.687 -3.50879 2.46134 0
M  V30 1799 H 169.871 -3.57775 3.43963 0
M  V30 1800 H 165.127 -3.72963 4.84467 0
M  V30 1801 H 169.301 -3.81107 5.82864 0
M  V30 1802 H 166.928 -3.88287 6.53558 0
M  V30 1803 N 168.503 -0.877838 -1.30888 0
M  V30 1804 C 169.433 -0.35534 -2.3078 0
M  V30 1805 C 170.414 0.557994 -1.60687 0
M  V30 1806 O 171.599 0.473355 -1.88343 0
M  V30 1807 C 168.729 0.437221 -3.44537 0
M  V30 1808 C 167.683 -0.383715 -4.26276 0
M  V30 1809 C 167.009 0.535014 -5.32017 0
M  V30 1810 C 168.309 -1.62201 -4.96476 0
M  V30 1811 H 170.003 -1.19007 -2.74732 0
M  V30 1812 H 167.549 -0.573698 -1.32078 0
M  V30 1813 H 169.502 0.813334 -4.13477 0
M  V30 1814 H 168.226 1.30553 -2.99372 0
M  V30 1815 H 166.885 -0.741874 -3.59015 0
M  V30 1816 H 166.533 1.40083 -4.831 0
M  V30 1817 H 166.233 -0.0104211 -5.87599 0
M  V30 1818 H 167.757 0.907799 -6.03814 0
M  V30 1819 H 169.171 -1.31689 -5.5797 0
M  V30 1820 H 167.568 -2.10711 -5.61891 0
M  V30 1821 H 168.638 -2.37044 -4.23011 0
M  V30 1822 N 169.982 1.44106 -0.638065 0
M  V30 1823 C 170.945 2.29138 0.0531013 0
M  V30 1824 C 171.945 1.41409 0.765506 0
M  V30 1825 O 173.135 1.63206 0.609046 0
M  V30 1826 C 170.267 3.23144 1.08584 0
M  V30 1827 H 171.46 2.91739 -0.694883 0
M  V30 1828 H 169.013 1.51134 -0.398538 0
M  V30 1829 H 169.748 2.65408 1.86357 0
M  V30 1830 H 169.533 3.87804 0.578852 0
M  V30 1831 H 171.023 3.87004 1.56899 0
M  V30 1832 N 171.46 0.379036 1.52974 0
M  V30 1833 C 172.37 -0.468639 2.29872 0
M  V30 1834 C 173.386 -1.08067 1.36373 0
M  V30 1835 O 174.562 -1.08871 1.69438 0
M  V30 1836 C 171.627 -1.58594 3.083 0
M  V30 1837 C 170.688 -1.00007 4.17489 0
M  V30 1838 C 169.921 -2.06413 4.92168 0
M  V30 1839 O 170.144 -3.27751 4.66835 0
M  V30 1840 O 169.078 -1.68717 5.7777 0
M  V30 1841 H 172.904 0.157508 3.03291 0
M  V30 1842 H 170.489 0.143035 1.48714 0
M  V30 1843 H 172.371 -2.23525 3.57232 0
M  V30 1844 H 171.046 -2.19724 2.37703 0
M  V30 1845 H 169.953 -0.314299 3.72777 0
M  V30 1846 H 171.286 -0.433135 4.90291 0
M  V30 1847 N 172.938 -1.57226 0.108567 0
M  V30 1848 C 173.848 -2.18292 -0.859401 0
M  V30 1849 C 174.864 -1.15612 -1.30038 0
M  V30 1850 O 176.04 -1.48039 -1.36552 0
M  V30 1851 C 173.105 -2.762 -2.09558 0
M  V30 1852 C 172.166 -3.93881 -1.70752 0
M  V30 1853 C 171.399 -4.49018 -2.88477 0
M  V30 1854 O 171.622 -4.03068 -4.036 0
M  V30 1855 O 170.556 -5.39852 -2.66164 0
M  V30 1856 H 174.382 -3.01441 -0.369769 0
M  V30 1857 H 171.967 -1.48945 -0.1165 0
M  V30 1858 H 173.849 -3.13156 -2.81978 0
M  V30 1859 H 172.524 -1.96089 -2.57548 0
M  V30 1860 H 171.431 -3.61713 -0.954714 0
M  V30 1861 H 172.764 -4.75396 -1.27513 0
M  V30 1862 N 174.416 0.165178 -1.56732 0
M  V30 1863 C 175.363 1.2044 -1.96883 0
M  V30 1864 C 176.333 1.43664 -0.833657 0
M  V30 1865 O 177.518 1.56302 -1.09427 0
M  V30 1866 C 174.658 2.53727 -2.33916 0
M  V30 1867 C 173.771 2.3783 -3.6064 0
M  V30 1868 C 172.906 3.64026 -3.86857 0
M  V30 1869 C 171.945 3.43088 -5.06909 0
M  V30 1870 N 171.082 4.61369 -5.29229 0
M  V30 1871 H 175.922 0.854996 -2.85471 0
M  V30 1872 H 173.459 0.41076 -1.41249 0
M  V30 1873 H 175.417 3.31419 -2.53411 0
M  V30 1874 H 174.047 2.8665 -1.48431 0
M  V30 1875 H 173.099 1.51282 -3.49024 0
M  V30 1876 H 174.411 2.18308 -4.4849 0
M  V30 1877 H 173.565 4.50152 -4.06753 0
M  V30 1878 H 172.304 3.86533 -2.97394 0
M  V30 1879 H 171.309 2.55349 -4.86906 0
M  V30 1880 H 172.534 3.21997 -5.97909 0
M  V30 1881 H 170.48 4.84084 -4.42718 0
M  V30 1882 H 170.397 4.44783 -6.11313 0
M  V30 1883 H 171.665 5.48761 -5.53608 0
M  V30 1884 N 175.894 1.51508 0.433938 0
M  V30 1885 C 176.844 1.69451 1.52546 0
M  V30 1886 C 177.828 0.548474 1.51263 0
M  V30 1887 O 179.02 0.804529 1.57659 0
M  V30 1888 C 176.149 1.82604 2.90707 0
M  V30 1889 C 175.235 3.03002 2.96733 0
M  V30 1890 N 175.626 4.26121 2.72496 0
M  V30 1891 C 173.924 3.02327 3.27894 0
M  V30 1892 C 174.625 5.07407 2.84452 0
M  V30 1893 N 173.601 4.42126 3.16269 0
M  V30 1894 H 177.403 2.62305 1.32564 0
M  V30 1895 H 174.917 1.49202 0.641297 0
M  V30 1896 H 176.914 1.93569 3.69238 0
M  V30 1897 H 175.574 0.909339 3.11707 0
M  V30 1898 H 176.585 4.55009 2.4736 0
M  V30 1899 H 173.262 2.20301 3.54646 0
M  V30 1900 H 174.652 6.15422 2.69639 0
M  V30 1901 N 177.372 -0.689602 1.41712 0
M  V30 1902 C 178.302 -1.81577 1.46806 0
M  V30 1903 C 179.283 -1.66945 0.326105 0
M  V30 1904 O 180.468 -1.86588 0.538377 0
M  V30 1905 C 177.598 -3.19762 1.35535 0
M  V30 1906 C 176.552 -3.49107 2.47605 0
M  V30 1907 C 175.878 -4.86711 2.21397 0
M  V30 1908 C 177.178 -3.47483 3.89939 0
M  V30 1909 H 178.872 -1.7757 2.41058 0
M  V30 1910 H 176.418 -0.852887 1.16025 0
M  V30 1911 H 178.371 -3.98263 1.3771 0
M  V30 1912 H 177.095 -3.24409 0.377708 0
M  V30 1913 H 175.754 -2.72959 2.44722 0
M  V30 1914 H 175.402 -4.8799 1.21961 0
M  V30 1915 H 175.102 -5.0731 2.96497 0
M  V30 1916 H 176.626 -5.67515 2.25297 0
M  V30 1917 H 178.04 -4.1598 3.94505 0
M  V30 1918 H 176.437 -3.79615 4.64771 0
M  V30 1919 H 177.507 -2.46341 4.17665 0
M  V30 1920 N 178.85 -1.27639 -0.924453 0
M  V30 1921 C 179.8 -1.07295 -2.01176 0
M  V30 1922 C 180.784 5.77352e-05 -1.609 0
M  V30 1923 O 181.976 -0.218855 -1.75642 0
M  V30 1924 C 179.105 -0.725592 -3.35544 0
M  V30 1925 C 178.191 -1.83691 -3.82254 0
M  V30 1926 N 178.582 -3.07697 -4.01443 0
M  V30 1927 C 176.88 -1.72433 -4.11319 0
M  V30 1928 C 177.581 -3.80037 -4.40394 0
M  V30 1929 N 176.557 -3.0782 -4.48049 0
M  V30 1930 H 180.359 -2.01399 -2.14046 0
M  V30 1931 H 177.873 -1.18401 -1.11153 0
M  V30 1932 H 179.87 -0.560959 -4.13109 0
M  V30 1933 H 178.53 0.207782 -3.24034 0
M  V30 1934 H 179.541 -3.43424 -3.8766 0
M  V30 1935 H 176.218 -0.862005 -4.08504 0
M  V30 1936 H 177.608 -4.86632 -4.63291 0
M  V30 1937 N 180.328 1.1314 -1.09713 0
M  V30 1938 C 181.574 1.84757 -0.836224 0
M  V30 1939 C 181.907 1.8347 0.636598 0
M  V30 1940 O 181.182 1.27491 1.46889 0
M  V30 1941 C 181.465 3.32782 -1.37578 0
M  V30 1942 C 181.318 3.42567 -2.91493 0
M  V30 1943 C 182.637 4.28307 -1.01198 0
M  V30 1944 H 179.756 0.67082 -0.305236 0
M  V30 1945 H 182.398 1.3278 -1.35903 0
M  V30 1946 H 180.548 3.77177 -0.931097 0
M  V30 1947 H 182.22 3.06862 -3.44432 0
M  V30 1948 H 180.463 2.83349 -3.28475 0
M  V30 1949 H 181.134 4.46674 -3.24324 0
M  V30 1950 H 183.61 3.91999 -1.39556 0
M  V30 1951 H 182.486 5.30307 -1.41653 0
M  V30 1952 H 182.747 4.42029 0.0794833 0
M  V30 1953 N 181.806 0.884767 1.30421 0
M  V30 1954 C 182.736 0.367574 2.30589 0
M  V30 1955 C 183.717 -0.549464 1.60981 0
M  V30 1956 O 184.902 -0.46336 1.88591 0
M  V30 1957 C 182.032 -0.418944 3.44764 0
M  V30 1958 C 180.986 0.406316 4.26067 0
M  V30 1959 C 180.312 -0.506793 5.32293 0
M  V30 1960 C 181.612 1.64832 4.95608 0
M  V30 1961 H 183.306 1.20462 2.74097 0
M  V30 1962 H 180.852 0.580695 1.31772 0
M  V30 1963 H 182.805 -0.791395 4.13902 0
M  V30 1964 H 181.529 -1.28964 3.0006 0
M  V30 1965 H 180.188 0.760903 3.58617 0
M  V30 1966 H 179.836 -1.37519 4.83836 0
M  V30 1967 H 179.536 0.0415828 5.87585 0
M  V30 1968 H 181.06 -0.875764 6.04287 0
M  V30 1969 H 182.474 1.34646 5.57264 0
M  V30 1970 H 180.871 2.13688 5.60765 0
M  V30 1971 H 181.941 2.39284 4.21748 0
M  V30 1972 N 183.284 -1.43765 0.645699 0
M  V30 1973 C 184.533 -2.01116 0.153412 0
M  V30 1974 C 184.846 -1.51493 -1.23731 0
M  V30 1975 O 186.052 -2.01067 -1.8244 0
M  V30 1976 C 184.508 -3.59206 0.223473 0
M  V30 1977 C 184.116 -4.17823 1.61642 0
M  V30 1978 C 185.86 -4.23972 -0.211597 0
M  V30 1979 C 183.767 -5.68183 1.64081 0
M  V30 1980 H 182.697 -0.752093 0.0535891 0
M  V30 1981 H 185.348 -1.6482 0.806633 0
M  V30 1982 H 183.73 -3.92867 -0.497118 0
M  V30 1983 H 184.904 -3.95674 2.36176 0
M  V30 1984 H 183.219 -3.65399 1.99681 0
M  V30 1985 H 185.816 -5.34275 -0.213112 0
M  V30 1986 H 186.159 -3.97352 -1.24165 0
M  V30 1987 H 186.692 -3.95166 0.456988 0
M  V30 1988 H 183.431 -5.99559 2.64971 0
M  V30 1989 H 182.951 -5.9241 0.938611 0
M  V30 1990 H 184.63 -6.32085 1.3812 0
M  V30 1991 N 184.763 -0.387143 -1.52771 0
M  V30 1992 C 185.711 0.463953 -2.27926 0
M  V30 1993 C 186.705 1.06493 -1.31741 0
M  V30 1994 O 187.911 1.00565 -1.49287 0
M  V30 1995 H 184.286 0.16837 -0.732909 0
M  V30 1996 H 186.257 -0.19141 -2.97785 0
M  V30 1997 C 185.006 1.5803 -3.09713 0
M  V30 1998 H 184.329 1.12718 -3.83581 0
M  V30 1999 H 185.769 2.15008 -3.65442 0
M  V30 2000 C 184.228 2.53509 -2.2189 0
M  V30 2001 O 184.758 3.56863 -1.84422 0
M  V30 2002 N 182.964 2.23199 -1.86093 0
M  V30 2003 H 182.511 1.39185 -2.16761 0
M  V30 2004 H 182.469 2.87333 -1.27621 0
M  V30 2005 N 186.241 1.57166 -0.116904 0
M  V30 2006 C 187.189 2.16457 0.851418 0
M  V30 2007 C 188.183 1.11323 1.27686 0
M  V30 2008 O 189.389 1.2963 1.24884 0
M  V30 2009 H 185.764 0.69271 0.292672 0
M  V30 2010 H 187.735 2.96605 0.32685 0
M  V30 2011 C 186.484 2.77689 2.09246 0
M  V30 2012 H 185.807 3.58285 1.77402 0
M  V30 2013 H 187.247 3.22716 2.7501 0
M  V30 2014 C 185.706 1.74667 2.88085 0
M  V30 2015 O 186.236 1.19877 3.83396 0
M  V30 2016 N 184.442 1.44656 2.52038 0
M  V30 2017 H 183.989 1.89402 1.74599 0
M  V30 2018 H 183.947 0.759675 3.05084 0
M  V30 2019 N 187.719 -0.156864 1.56817 0
M  V30 2020 C 188.682 -1.17781 1.96622 0
M  V30 2021 C 189.682 -1.36401 0.851555 0
M  V30 2022 O 190.872 -1.33561 1.11836 0
M  V30 2023 C 188.004 -2.54008 2.27361 0
M  V30 2024 H 189.197 -0.836564 2.87996 0
M  V30 2025 H 186.75 -0.39985 1.51099 0
M  V30 2026 H 187.485 -2.9312 1.38748 0
M  V30 2027 H 187.27 -2.41856 3.08623 0
M  V30 2028 H 188.76 -3.27558 2.59029 0
M  V30 2029 N 189.197 -1.51736 -0.425897 0
M  V30 2030 C 190.445 -1.64644 -1.17204 0
M  V30 2031 C 190.766 -0.370486 -1.91448 0
M  V30 2032 O 190.036 0.614088 -1.86026 0
M  V30 2033 H 188.616 -0.606819 -0.435638 0
M  V30 2034 H 191.278 -1.88713 -0.487177 0
M  V30 2035 H 190.374 -2.47958 -1.89534 0
M  V30 2036 N 190.675 0.682077 -1.42076 0
M  V30 2037 C 191.921 1.44428 -1.42367 0
M  V30 2038 C 192.254 1.94164 -0.0373056 0
M  V30 2039 O 191.529 1.70429 0.937239 0
M  V30 2040 C 191.812 2.64654 -2.44194 0
M  V30 2041 C 191.665 2.20596 -3.91991 0
M  V30 2042 C 192.984 3.66865 -2.431 0
M  V30 2043 H 190.103 0.523834 -0.518428 0
M  V30 2044 H 192.745 0.77576 -1.73442 0
M  V30 2045 H 190.895 3.2169 -2.17826 0
M  V30 2046 H 192.567 1.68783 -4.29313 0
M  V30 2047 H 190.81 1.52242 -4.06208 0
M  V30 2048 H 191.481 3.06921 -4.58807 0
M  V30 2049 H 193.957 3.19531 -2.66532 0
M  V30 2050 H 192.833 4.48577 -3.16339 0
M  V30 2051 H 193.094 4.17493 -1.45437 0
M  V30 2052 N 192.153 1.28127 0.917671 0
M  V30 2053 C 193.086 1.06039 2.02067 0
M  V30 2054 C 194.064 -0.0223285 1.62585 0
M  V30 2055 O 195.248 0.124823 1.88086 0
M  V30 2056 C 192.375 0.610596 3.33151 0
M  V30 2057 C 191.421 1.68937 3.91615 0
M  V30 2058 S 192.254 3.28437 4.22953 0
M  V30 2059 C 193.41 2.85283 5.57103 0
M  V30 2060 H 193.643 1.99425 2.20493 0
M  V30 2061 H 191.176 1.12071 1.06205 0
M  V30 2062 H 193.134 0.357778 4.08938 0
M  V30 2063 H 191.795 -0.303364 3.12632 0
M  V30 2064 H 190.988 1.32619 4.86239 0
M  V30 2065 H 190.59 1.89478 3.2245 0
M  V30 2066 H 192.882 2.3121 6.36827 0
M  V30 2067 H 193.825 3.7869 5.98331 0
M  V30 2068 H 194.233 2.24118 5.18104 0
M  V30 2069 N 193.631 -1.12557 1.10312 0
M  V30 2070 C 194.564 -2.1737 0.694674 0
M  V30 2071 C 195.542 -1.59745 -0.303373 0
M  V30 2072 O 196.726 -1.87408 -0.202578 0
M  V30 2073 C 193.853 -3.38691 0.0248052 0
M  V30 2074 C 192.899 -4.14943 0.986121 0
M  V30 2075 S 193.732 -4.73413 2.50281 0
M  V30 2076 C 194.888 -5.9807 1.84562 0
M  V30 2077 H 195.121 -2.5168 1.58255 0
M  V30 2078 H 192.654 -1.23998 0.919992 0
M  V30 2079 H 194.612 -4.08959 -0.355361 0
M  V30 2080 H 193.273 -3.02664 -0.839851 0
M  V30 2081 H 192.466 -5.01854 0.464651 0
M  V30 2082 H 192.068 -3.50377 1.30813 0
M  V30 2083 H 194.36 -6.67232 1.17507 0
M  V30 2084 H 195.303 -6.54841 2.69423 0
M  V30 2085 H 195.711 -5.49073 1.31069 0
M  V30 2086 N 195.109 -0.891671 -1.2995 0
M  V30 2087 C 196.349 -0.520296 -1.97667 0
M  V30 2088 C 196.713 0.914797 -1.68806 0
M  V30 2089 O 197.914 1.39263 -2.29911 0
M  V30 2090 C 196.185 -0.795222 -3.48441 0
M  V30 2091 S 197.744 -0.526953 -4.35624 0
M  V30 2092 H 194.562 -0.19333 -0.684211 0
M  V30 2093 H 197.164 -1.15238 -1.57926 0
M  V30 2094 H 195.868 -1.83805 -3.66938 0
M  V30 2095 H 195.399 -0.15095 -3.9311 0
M  V30 2096 H 197.414 0.631533 -4.92165 0
M  V30 2097 N 196.587 1.43421 -0.653314 0
M  V30 2098 C 197.998 1.85065 -0.246537 0
M  V30 2099 C 198.349 1.54688 1.2069 0
M  V30 2100 O 197.474 0.995896 1.92122 0
M  V30 2101 C 198.069 3.35922 -0.440666 0
M  V30 2102 C 196.628 3.76297 -0.0882064 0
M  V30 2103 C 195.775 2.67147 -0.743484 0
M  V30 2104 H 198.726 1.33572 -0.856979 0
M  V30 2105 H 198.747 3.79204 0.313798 0
M  V30 2106 H 198.259 3.58 -1.49858 0
M  V30 2107 H 196.36 3.5983 0.96711 0
M  V30 2108 H 196.473 4.76338 -0.513738 0
M  V30 2109 H 194.837 2.54086 -0.176712 0
M  V30 2110 H 195.62 2.92053 -1.80443 0
M  V30 2111 N 198.065 0.39524 1.52563 0
M  V30 2112 C 199.295 -0.184675 2.05773 0
M  V30 2113 C 199.703 -1.40571 1.26635 0
M  V30 2114 O 199.046 -1.81105 0.30769 0
M  V30 2115 C 199.108 -0.613551 3.54226 0
M  V30 2116 C 198.772 0.49484 4.54313 0
M  V30 2117 C 199.769 1.3541 5.01956 0
M  V30 2118 C 197.454 0.663565 4.97898 0
M  V30 2119 C 199.448 2.36716 5.91814 0
M  V30 2120 C 197.135 1.67996 5.87555 0
M  V30 2121 C 198.133 2.53017 6.34406 0
M  V30 2122 O 197.821 3.52917 7.22291 0
M  V30 2123 H 197.553 -0.030077 0.675331 0
M  V30 2124 H 200.107 0.560708 1.97599 0
M  V30 2125 H 198.337 -1.411 3.60038 0
M  V30 2126 H 200.026 -1.11981 3.90148 0
M  V30 2127 H 200.792 1.23509 4.6901 0
M  V30 2128 H 196.671 0.0114913 4.60999 0
M  V30 2129 H 200.215 3.03113 6.28306 0
M  V30 2130 H 196.112 1.79933 6.19915 0
M  V30 2131 H 196.88 3.48996 7.40367 0
M  V30 2132 N 199.544 -1.57102 0.125237 0
M  V30 2133 C 200.769 -2.0019 -0.542101 0
M  V30 2134 C 201.194 -1.00449 -1.59034 0
M  V30 2135 O 200.552 0.0229423 -1.81285 0
M  V30 2136 C 200.6 -3.42129 -1.13929 0
M  V30 2137 O 199.704 -3.45307 -2.2547 0
M  V30 2138 H 199.045 -0.650171 -0.134812 0
M  V30 2139 H 201.575 -2.03461 0.215553 0
M  V30 2140 H 201.585 -3.80471 -1.4733 0
M  V30 2141 H 200.26 -4.14237 -0.371531 0
M  V30 2142 H 198.837 -3.1879 -1.93462 0
M  V30 2143 N 201.022 0.148545 -1.56898 0
M  V30 2144 C 201.969 1.18345 -1.98149 0
M  V30 2145 C 202.939 1.42772 -0.848848 0
M  V30 2146 O 204.124 1.55132 -1.11079 0
M  V30 2147 C 201.264 2.51231 -2.36594 0
M  V30 2148 C 200.377 2.33991 -3.63142 0
M  V30 2149 C 199.512 3.59902 -3.90697 0
M  V30 2150 C 198.551 3.37692 -5.1052 0
M  V30 2151 N 197.688 4.5573 -5.34092 0
M  V30 2152 H 202.528 0.82467 -2.86362 0
M  V30 2153 H 200.065 0.395756 -1.41676 0
M  V30 2154 H 202.023 3.28713 -2.56912 0
M  V30 2155 H 200.653 2.85059 -1.51463 0
M  V30 2156 H 199.705 1.47572 -3.50609 0
M  V30 2157 H 201.017 2.13539 -4.5078 0
M  V30 2158 H 200.171 4.45813 -4.11505 0
M  V30 2159 H 198.91 3.83357 -3.01477 0
M  V30 2160 H 197.915 2.5017 -4.89587 0
M  V30 2161 H 199.14 3.15637 -6.0129 0
M  V30 2162 H 197.086 4.79361 -4.47827 0
M  V30 2163 H 197.003 4.38274 -6.15996 0
M  V30 2164 H 198.271 5.42858 -5.59397 0
M  V30 2165 N 202.5 1.5196 0.417844 0
M  V30 2166 C 203.728 1.69426 1.18753 0
M  V30 2167 C 204.143 0.399955 1.84515 0
M  V30 2168 O 203.5 -0.623288 1.71527 0
M  V30 2169 C 203.551 2.82375 2.25714 0
M  V30 2170 O 203.272 4.06793 1.62638 0
M  V30 2171 C 204.773 3.11277 3.15628 0
M  V30 2172 H 201.993 0.568031 0.357186 0
M  V30 2173 H 204.537 1.98475 0.49273 0
M  V30 2174 H 202.692 2.5587 2.90877 0
M  V30 2175 H 203.106 4.69667 2.3348 0
M  V30 2176 H 204.58 3.93843 3.86771 0
M  V30 2177 H 205.057 2.24473 3.77503 0
M  V30 2178 H 205.663 3.39515 2.56144 0
M  V30 2179 N 203.978 -0.674533 1.42435 0
M  V30 2180 C 204.941 -1.76986 1.45632 0
M  V30 2181 C 205.941 -1.5708 0.343871 0
M  V30 2182 O 207.131 -1.63367 0.604709 0
M  V30 2183 C 204.263 -3.15623 1.28822 0
M  V30 2184 H 205.456 -1.75539 2.43158 0
M  V30 2185 H 203.009 -0.884189 1.28887 0
M  V30 2186 H 203.744 -3.22696 0.322193 0
M  V30 2187 H 203.529 -3.31475 2.09444 0
M  V30 2188 H 205.019 -3.95537 1.33942 0
M  V30 2189 N 205.456 -1.28612 -0.910864 0
M  V30 2190 C 206.733 -1.06632 -1.63979 0
M  V30 2191 C 207.113 0.393351 -2.07403 0
M  V30 2192 O 206.461 1.37999 -1.82122 0
M  V30 2193 C 206.671 -2.0436 -2.8291 0
M  V30 2194 C 208.019 -2.34666 -3.5386 0
M  V30 2195 O 209.043 -2.02467 -2.93062 0
M  V30 2196 O 207.902 -2.89631 -4.63439 0
M  V30 2197 H 204.996 -0.407737 -0.7195 0
M  V30 2198 H 207.542 -1.39942 -0.959914 0
M  V30 2199 H 206.314 -3.02727 -2.47936 0
M  V30 2200 H 205.937 -1.71714 -3.58609 0
M  V30 2201 N 206.934 1.1197 -1.10907 0
M  V30 2202 C 208.182 1.83225 -0.852819 0
M  V30 2203 C 208.503 1.84769 0.623341 0
M  V30 2204 O 207.773 1.3143 1.45269 0
M  V30 2205 H 206.353 0.67849 -0.312507 0
M  V30 2206 H 209.015 1.3556 -1.40033 0
M  V30 2207 H 208.111 2.87265 -1.22005 0
M  V30 2208 N 208.412 0.89855 1.29475 0
M  V30 2209 C 209.659 0.523882 1.95606 0
M  V30 2210 C 209.987 -0.929608 1.70847 0
M  V30 2211 O 209.242 -1.67401 1.01367 0
M  V30 2212 C 209.541 0.761398 3.49195 0
M  V30 2213 C 209.207 2.19207 3.94029 0
M  V30 2214 C 207.869 2.58326 4.05982 0
M  V30 2215 C 210.221 3.12379 4.17216 0
M  V30 2216 C 207.549 3.898 4.38489 0
M  V30 2217 C 209.901 4.43401 4.51197 0
M  V30 2218 C 208.565 4.82394 4.61359 0
M  V30 2219 H 207.835 0.191702 0.715773 0
M  V30 2220 H 210.482 1.13699 1.54094 0
M  V30 2221 H 208.787 0.0653622 3.91745 0
M  V30 2222 H 210.484 0.450904 3.98457 0
M  V30 2223 H 207.074 1.87846 3.85242 0
M  V30 2224 H 211.258 2.83371 4.07449 0
M  V30 2225 H 206.514 4.19734 4.44559 0
M  V30 2226 H 210.688 5.15623 4.68087 0
M  V30 2227 H 208.315 5.84306 4.86303 0
M  V30 2228 N 209.89 -1.43072 0.660911 0
M  V30 2229 C 210.8 -2.34585 -0.0264163 0
M  V30 2230 C 211.816 -1.54316 -0.803898 0
M  V30 2231 O 212.992 -1.86939 -0.749391 0
M  V30 2232 C 210.057 -3.32689 -0.975639 0
M  V30 2233 C 209.118 -4.2886 -0.194236 0
M  V30 2234 C 208.351 -5.22278 -1.09825 0
M  V30 2235 O 208.574 -5.20299 -2.33763 0
M  V30 2236 O 207.508 -5.99228 -0.566513 0
M  V30 2237 H 211.334 -2.94869 0.727034 0
M  V30 2238 H 208.919 -1.43342 0.42111 0
M  V30 2239 H 210.801 -3.92995 -1.52094 0
M  V30 2240 H 209.476 -2.74898 -1.70918 0
M  V30 2241 H 208.383 -3.72011 0.394835 0
M  V30 2242 H 209.716 -4.89655 0.499899 0
M  V30 2243 N 211.368 -0.403325 -1.52352 0
M  V30 2244 C 212.301 0.469463 -2.23319 0
M  V30 2245 C 213.279 1.05272 -1.23922 0
M  V30 2246 O 214.463 1.10169 -1.52954 0
M  V30 2247 C 211.59 1.6511 -2.9573 0
M  V30 2248 C 210.636 1.19178 -4.0951 0
M  V30 2249 S 211.469 0.161718 -5.35256 0
M  V30 2250 C 212.625 1.34882 -6.11194 0
M  V30 2251 H 212.858 -0.133134 -2.97002 0
M  V30 2252 H 210.391 -0.187588 -1.53256 0
M  V30 2253 H 212.349 2.3287 -3.38056 0
M  V30 2254 H 211.01 2.22503 -2.21701 0
M  V30 2255 H 210.203 2.07444 -4.59329 0
M  V30 2256 H 209.805 0.592911 -3.6927 0
M  V30 2257 H 212.097 2.27345 -6.38217 0
M  V30 2258 H 213.04 0.89128 -7.02468 0
M  V30 2259 H 213.448 1.57198 -5.42171 0
M  V30 2260 N 212.846 1.57033 -0.133567 0
M  V30 2261 C 213.796 2.12641 0.822671 0
M  V30 2262 C 214.78 1.05081 1.21847 0
M  V30 2263 O 215.972 1.31287 1.18713 0
M  V30 2264 C 213.101 2.74094 2.06706 0
M  V30 2265 C 212.187 3.88757 1.69497 0
M  V30 2266 N 212.578 4.95194 1.03037 0
M  V30 2267 C 210.876 3.99213 1.98859 0
M  V30 2268 C 211.577 5.75414 0.852873 0
M  V30 2269 N 210.553 5.25726 1.3825 0
M  V30 2270 H 214.355 2.92308 0.305537 0
M  V30 2271 H 211.869 1.62256 0.0684276 0
M  V30 2272 H 213.866 3.12285 2.76195 0
M  V30 2273 H 212.526 1.95896 2.5895 0
M  V30 2274 H 213.537 5.13247 0.692669 0
M  V30 2275 H 210.214 3.32075 2.53047 0
M  V30 2276 H 211.604 6.71089 0.330091 0
M  V30 2277 N 214.325 -0.140222 1.56975 0
M  V30 2278 C 215.574 -0.850152 1.82908 0
M  V30 2279 C 215.887 -1.82028 0.715892 0
M  V30 2280 O 217.093 -2.57485 0.861016 0
M  V30 2281 C 215.549 -1.5625 3.24213 0
M  V30 2282 C 215.157 -0.63443 4.43485 0
M  V30 2283 C 216.901 -2.25881 3.59413 0
M  V30 2284 C 214.808 -1.34879 5.75814 0
M  V30 2285 H 213.738 -0.321221 0.682153 0
M  V30 2286 H 216.389 -0.102874 1.83211 0
M  V30 2287 H 214.771 -2.35565 3.18316 0
M  V30 2288 H 215.945 0.12398 4.60633 0
M  V30 2289 H 214.26 -0.0461836 4.16374 0
M  V30 2290 H 216.857 -2.79978 4.5554 0
M  V30 2291 H 217.2 -3.02693 2.85802 0
M  V30 2292 H 217.733 -1.53477 3.67001 0
M  V30 2293 H 214.472 -0.622385 6.52539 0
M  V30 2294 H 213.992 -2.07974 5.6259 0
M  V30 2295 H 215.671 -1.88784 6.18845 0
M  V30 2296 N 215.803 -1.52179 -0.40978 0
M  V30 2297 C 217.051 -1.65878 -1.15451 0
M  V30 2298 C 217.372 -0.390771 -1.91044 0
M  V30 2299 O 216.642 0.594323 -1.86667 0
M  V30 2300 H 215.222 -0.611405 -0.429177 0
M  V30 2301 H 217.884 -1.89219 -0.467134 0
M  V30 2302 H 216.98 -2.49954 -1.86894 0
M  V30 2303 N 217.281 0.66697 -1.42791 0
M  V30 2304 C 218.527 1.4291 -1.43891 0
M  V30 2305 C 218.86 1.94114 -0.0578972 0
M  V30 2306 O 218.135 1.71414 0.91911 0
M  V30 2307 C 218.418 2.62049 -2.46987 0
M  V30 2308 C 218.271 2.16426 -3.94309 0
M  V30 2309 C 219.59 3.64266 -2.46978 0
M  V30 2310 H 216.709 0.518306 -0.523954 0
M  V30 2311 H 219.351 0.757321 -1.74255 0
M  V30 2312 H 217.501 3.19361 -2.21225 0
M  V30 2313 H 219.173 1.64221 -4.31079 0
M  V30 2314 H 217.416 1.47925 -4.078 0
M  V30 2315 H 218.087 3.02038 -4.62036 0
M  V30 2316 H 220.563 3.16686 -2.69906 0
M  V30 2317 H 219.439 4.45196 -3.21079 0
M  V30 2318 H 219.7 4.15927 -1.49857 0
M  V30 2319 N 218.759 1.29093 0.90403 0
M  V30 2320 C 219.707 1.13727 2.02901 0
M  V30 2321 C 220.701 0.0539853 1.69314 0
M  V30 2322 O 221.907 0.213469 1.7873 0
M  V30 2323 H 218.282 0.35117 0.664969 0
M  V30 2324 H 220.253 2.08982 2.13001 0
M  V30 2325 C 219.002 0.826066 3.37745 0
M  V30 2326 H 218.325 1.65164 3.64089 0
M  V30 2327 H 219.765 0.758559 4.17159 0
M  V30 2328 C 218.224 -0.470541 3.33598 0
M  V30 2329 O 218.754 -1.49792 3.72727 0
M  V30 2330 N 216.96 -0.474812 2.86695 0
M  V30 2331 H 216.507 0.361692 2.55048 0
M  V30 2332 H 216.465 -1.34236 2.84303 0
M  V30 2333 N 220.237 -1.11381 1.11499 0
M  V30 2334 C 221.187 -2.15555 0.74298 0
M  V30 2335 C 222.171 -1.58894 -0.253276 0
M  V30 2336 O 223.363 -1.76897 -0.0602918 0
M  V30 2337 C 220.492 -3.42782 0.188481 0
M  V30 2338 C 219.578 -4.064 1.21244 0
M  V30 2339 N 219.969 -4.44864 2.40685 0
M  V30 2340 C 218.267 -4.3333 1.05552 0
M  V30 2341 C 218.968 -4.94715 3.05994 0
M  V30 2342 N 217.944 -4.90909 2.33472 0
M  V30 2343 H 221.746 -2.43074 1.65203 0
M  V30 2344 H 219.26 -1.28401 0.994329 0
M  V30 2345 H 221.257 -4.16789 -0.0961693 0
M  V30 2346 H 219.917 -3.16727 -0.715149 0
M  V30 2347 H 220.928 -4.36876 2.78136 0
M  V30 2348 H 217.605 -4.1698 0.208372 0
M  V30 2349 H 218.995 -5.34103 4.07656 0
M  V30 2350 N 221.715 -0.905404 -1.28997 0
M  V30 2351 C 222.645 -0.404212 -2.29975 0
M  V30 2352 C 223.626 0.523784 -1.61835 0
M  V30 2353 O 224.811 0.433298 -1.89304 0
M  V30 2354 C 221.941 0.364042 -3.45387 0
M  V30 2355 C 220.895 -0.474048 -4.25367 0
M  V30 2356 C 220.221 0.422045 -5.33032 0
M  V30 2357 C 221.521 -1.72696 -4.92923 0
M  V30 2358 H 223.215 -1.24807 -2.72146 0
M  V30 2359 H 220.761 -0.601585 -1.30832 0
M  V30 2360 H 222.714 0.725447 -4.15109 0
M  V30 2361 H 221.438 1.24174 -3.02074 0
M  V30 2362 H 220.097 -0.81786 -3.57361 0
M  V30 2363 H 219.745 1.29804 -4.85963 0
M  V30 2364 H 219.445 -0.135057 -5.87445 0
M  V30 2365 H 220.969 0.779517 -6.05604 0
M  V30 2366 H 222.383 -1.43495 -5.55051 0
M  V30 2367 H 220.78 -2.22582 -5.57295 0
M  V30 2368 H 221.85 -2.45964 -4.17887 0
M  V30 2369 N 223.193 1.4272 -0.668489 0
M  V30 2370 C 224.441 2.01226 -0.187769 0
M  V30 2371 C 224.762 1.53092 1.2078 0
M  V30 2372 O 224.032 0.74993 1.80977 0
M  V30 2373 H 222.612 0.744041 -0.0664272 0
M  V30 2374 H 225.274 1.74723 -0.863583 0
M  V30 2375 H 224.37 3.11556 -0.184166 0
M  V30 2376 N 224.671 0.411399 1.52136 0
M  V30 2377 C 225.621 -0.430376 2.23901 0
M  V30 2378 C 226.605 -1.0116 1.25121 0
M  V30 2379 O 227.797 -0.934044 1.50348 0
M  V30 2380 C 224.926 -1.54527 3.06556 0
M  V30 2381 C 224.012 -0.9747 4.12747 0
M  V30 2382 N 224.403 -0.130991 5.0563 0
M  V30 2383 C 222.701 -1.24497 4.28271 0
M  V30 2384 C 223.402 0.186689 5.814 0
M  V30 2385 N 222.378 -0.42304 5.41951 0
M  V30 2386 H 226.18 0.220509 2.93072 0
M  V30 2387 H 223.694 0.221952 1.60876 0
M  V30 2388 H 225.691 -2.16093 3.56524 0
M  V30 2389 H 224.351 -2.19875 2.38925 0
M  V30 2390 H 225.362 0.23349 5.17373 0
M  V30 2391 H 222.039 -1.89787 3.7187 0
M  V30 2392 H 223.429 0.871673 6.66222 0
M  V30 2393 N 226.149 -1.5696 0.141893 0
M  V30 2394 C 227.396 -1.9596 -0.510492 0
M  V30 2395 C 227.724 -1.02648 -1.65208 0
M  V30 2396 O 226.979 -0.0546947 -1.95624 0
M  V30 2397 C 227.278 -3.41242 -1.06249 0
M  V30 2398 C 226.944 -4.50882 -0.0398791 0
M  V30 2399 C 225.606 -4.80595 0.241247 0
M  V30 2400 C 227.958 -5.17058 0.65578 0
M  V30 2401 C 225.286 -5.73792 1.22393 0
M  V30 2402 C 227.638 -6.11313 1.62724 0
M  V30 2403 C 226.302 -6.39407 1.91612 0
M  V30 2404 H 225.572 -0.717068 -0.186802 0
M  V30 2405 H 228.219 -1.90142 0.227643 0
M  V30 2406 H 226.524 -3.43866 -1.87785 0
M  V30 2407 H 228.221 -3.68742 -1.57576 0
M  V30 2408 H 224.811 -4.27754 -0.269174 0
M  V30 2409 H 228.995 -4.94239 0.451779 0
M  V30 2410 H 224.251 -5.93853 1.45424 0
M  V30 2411 H 228.425 -6.61668 2.17183 0
M  V30 2412 H 226.052 -7.11427 2.6791 0
M  V30 2413 N 227.627 0.131896 -1.57047 0
M  V30 2414 C 228.557 1.16384 -2.02428 0
M  V30 2415 C 229.538 1.43936 -0.90644 0
M  V30 2416 O 230.723 1.54599 -1.17528 0
M  V30 2417 C 227.853 2.49328 -2.4177 0
M  V30 2418 C 226.807 2.36266 -3.56879 0
M  V30 2419 C 226.133 3.74057 -3.8208 0
M  V30 2420 C 227.433 1.834 -4.89042 0
M  V30 2421 H 229.127 0.786433 -2.88887 0
M  V30 2422 H 226.673 0.376855 -1.38981 0
M  V30 2423 H 228.626 3.21759 -2.7212 0
M  V30 2424 H 227.35 2.88934 -1.52266 0
M  V30 2425 H 226.009 1.66286 -3.26718 0
M  V30 2426 H 225.657 4.11125 -2.89803 0
M  V30 2427 H 225.357 3.66174 -4.59554 0
M  V30 2428 H 226.881 4.48012 -4.1487 0
M  V30 2429 H 228.295 2.45636 -5.18011 0
M  V30 2430 H 226.692 1.8637 -5.70426 0
M  V30 2431 H 227.762 0.790662 -4.7841 0
M  V30 2432 N 229.106 1.52395 0.401703 0
M  V30 2433 C 230.036 1.79231 1.49661 0
M  V30 2434 C 231.017 0.643654 1.57452 0
M  V30 2435 O 232.202 0.889989 1.72606 0
M  V30 2436 C 229.332 1.94971 2.87409 0
M  V30 2437 C 228.286 3.10604 2.94465 0
M  V30 2438 C 227.612 3.11577 4.34538 0
M  V30 2439 C 228.912 4.49921 2.6527 0
M  V30 2440 H 230.606 2.70917 1.27454 0
M  V30 2441 H 228.152 1.30362 0.6117 0
M  V30 2442 H 230.105 2.12328 3.63999 0
M  V30 2443 H 228.829 0.999632 3.10926 0
M  V30 2444 H 227.488 2.93009 2.20321 0
M  V30 2445 H 227.136 2.14277 4.55076 0
M  V30 2446 H 226.836 3.89247 4.40183 0
M  V30 2447 H 228.36 3.31073 5.13053 0
M  V30 2448 H 229.774 4.67683 3.31581 0
M  V30 2449 H 228.171 5.29564 2.82281 0
M  V30 2450 H 229.241 4.57507 1.60671 0
M  V30 2451 N 230.584 -0.659388 1.43143 0
M  V30 2452 C 231.812 -1.44723 1.47861 0
M  V30 2453 C 232.227 -1.88563 0.0945886 0
M  V30 2454 O 231.584 -1.59108 -0.893915 0
M  V30 2455 C 231.635 -2.68627 2.41913 0
M  V30 2456 O 231.356 -2.26623 3.74932 0
M  V30 2457 C 232.857 -3.62045 2.55809 0
M  V30 2458 H 230.077 -0.444801 0.502387 0
M  V30 2459 H 232.621 -0.808916 1.87821 0
M  V30 2460 H 230.776 -3.28613 2.05164 0
M  V30 2461 H 231.19 -3.06745 4.2545 0
M  V30 2462 H 232.664 -4.45666 3.25708 0
M  V30 2463 H 233.141 -4.08981 1.60099 0
M  V30 2464 H 233.747 -3.07944 2.93344 0
M  V30 2465 N 232.062 -1.29571 -0.897171 0
M  V30 2466 C 233.012 -1.11539 -1.98855 0
M  V30 2467 C 233.996 -0.0340716 -1.60864 0
M  V30 2468 O 235.188 -0.256062 -1.75138 0
M  V30 2469 C 232.317 -0.796603 -3.3393 0
M  V30 2470 C 231.403 -1.91758 -3.78272 0
M  V30 2471 N 231.794 -3.16143 -3.94826 0
M  V30 2472 C 230.092 -1.81119 -4.07568 0
M  V30 2473 C 230.793 -3.89293 -4.32233 0
M  V30 2474 N 229.769 -3.17255 -4.41419 0
M  V30 2475 H 233.571 -2.05894 -2.09726 0
M  V30 2476 H 231.085 -1.20732 -1.08616 0
M  V30 2477 H 233.082 -0.648459 -4.11826 0
M  V30 2478 H 231.742 0.139003 -3.24402 0
M  V30 2479 H 232.753 -3.5157 -3.80288 0
M  V30 2480 H 229.43 -0.948461 -4.06584 0
M  V30 2481 H 230.82 -4.9635 -4.52865 0
M  V30 2482 N 233.54 1.10788 -1.12088 0
M  V30 2483 C 234.47 2.19083 -0.807755 0
M  V30 2484 C 235.451 1.6858 0.226859 0
M  V30 2485 O 236.636 1.93997 0.0888475 0
M  V30 2486 C 233.766 3.46344 -0.257576 0
M  V30 2487 C 232.72 4.101 -1.22483 0
M  V30 2488 C 232.046 5.32016 -0.535052 0
M  V30 2489 C 233.346 4.54236 -2.57811 0
M  V30 2490 H 235.04 2.45534 -1.71328 0
M  V30 2491 H 232.586 1.1801 -0.825205 0
M  V30 2492 H 234.539 4.21392 -0.0262679 0
M  V30 2493 H 233.263 3.19373 0.683278 0
M  V30 2494 H 231.922 3.37054 -1.44189 0
M  V30 2495 H 231.57 5.01319 0.410827 0
M  V30 2496 H 231.27 5.75625 -1.18024 0
M  V30 2497 H 232.794 6.09799 -0.312695 0
M  V30 2498 H 234.208 5.20575 -2.40155 0
M  V30 2499 H 232.605 5.08682 -3.18375 0
M  V30 2500 H 233.675 3.6734 -3.16528 0
M  V30 2501 N 235.018 0.912232 1.28515 0
M  V30 2502 C 235.948 0.416403 2.29757 0
M  V30 2503 C 236.929 -0.515194 1.6211 0
M  V30 2504 O 238.114 -0.423253 1.89532 0
M  V30 2505 C 235.244 -0.34572 3.45575 0
M  V30 2506 C 234.198 0.496599 4.25109 0
M  V30 2507 C 233.524 -0.393771 5.33248 0
M  V30 2508 C 234.824 1.75307 4.92001 0
M  V30 2509 H 236.518 1.26249 2.7148 0
M  V30 2510 H 234.064 0.608515 1.30511 0
M  V30 2511 H 236.017 -0.703422 4.15488 0
M  V30 2512 H 234.741 -1.2257 3.02728 0
M  V30 2513 H 233.4 0.8368 3.56922 0
M  V30 2514 H 233.048 -1.27225 4.86644 0
M  V30 2515 H 232.748 0.166209 5.87365 0
M  V30 2516 H 234.272 -0.747389 6.06009 0
M  V30 2517 H 235.686 1.46437 5.54283 0
M  V30 2518 H 234.083 2.25534 5.56106 0
M  V30 2519 H 235.153 2.48176 4.16577 0
M  V30 2520 N 236.496 -1.42363 0.676048 0
M  V30 2521 C 237.426 -2.33497 0.0124832 0
M  V30 2522 C 238.407 -1.50748 -0.787981 0
M  V30 2523 O 239.592 -1.79346 -0.744884 0
M  V30 2524 C 236.722 -3.34377 -0.938582 0
M  V30 2525 C 235.676 -4.27289 -0.246622 0
M  V30 2526 C 235.002 -5.18386 -1.31071 0
M  V30 2527 C 236.302 -5.14916 0.875125 0
M  V30 2528 H 237.996 -2.89233 0.773593 0
M  V30 2529 H 235.542 -1.39073 0.37346 0
M  V30 2530 H 237.495 -3.97044 -1.41188 0
M  V30 2531 H 236.219 -2.76947 -1.73113 0
M  V30 2532 H 234.878 -3.66018 0.206456 0
M  V30 2533 H 234.526 -4.57282 -2.09528 0
M  V30 2534 H 234.226 -5.81378 -0.852839 0
M  V30 2535 H 235.75 -5.83929 -1.78492 0
M  V30 2536 H 237.164 -5.71262 0.482983 0
M  V30 2537 H 235.561 -5.86747 1.25887 0
M  V30 2538 H 236.631 -4.53242 1.72335 0
M  V30 2539 N 237.974 -0.419461 -1.51915 0
M  V30 2540 C 238.884 0.407528 -2.31033 0
M  V30 2541 C 239.9 1.04413 -1.3919 0
M  V30 2542 O 241.076 1.0434 -1.72265 0
M  V30 2543 C 238.141 1.50365 -3.12396 0
M  V30 2544 C 237.202 0.889029 -4.19994 0
M  V30 2545 C 236.435 1.93291 -4.97468 0
M  V30 2546 O 236.658 3.15259 -4.75361 0
M  V30 2547 O 235.592 1.53339 -5.8204 0
M  V30 2548 H 239.418 -0.237865 -3.02767 0
M  V30 2549 H 237.003 -0.182413 -1.48282 0
M  V30 2550 H 238.885 2.13975 -3.63032 0
M  V30 2551 H 237.56 2.13345 -2.43445 0
M  V30 2552 H 236.467 0.215353 -3.7348 0
M  V30 2553 H 237.8 0.302991 -4.91267 0
M  V30 2554 N 239.452 1.56882 -0.150215 0
M  V30 2555 C 240.399 2.16922 0.788244 0
M  V30 2556 C 241.369 1.10303 1.24187 0
M  V30 2557 O 242.554 1.38359 1.31383 0
M  V30 2558 C 239.694 2.79754 2.02068 0
M  V30 2559 C 238.807 4.00775 1.61257 0
M  V30 2560 C 237.942 4.51595 2.79705 0
M  V30 2561 C 236.981 5.65074 2.35282 0
M  V30 2562 N 236.118 6.10499 3.4675 0
M  V30 2563 H 240.958 2.96779 0.269444 0
M  V30 2564 H 238.495 1.46599 0.12128 0
M  V30 2565 H 240.453 3.14329 2.74323 0
M  V30 2566 H 239.083 2.02536 2.51354 0
M  V30 2567 H 238.135 3.72158 0.787553 0
M  V30 2568 H 239.447 4.82978 1.24633 0
M  V30 2569 H 238.601 4.88242 3.60145 0
M  V30 2570 H 237.34 3.68406 3.19576 0
M  V30 2571 H 236.345 5.28 1.53283 0
M  V30 2572 H 237.57 6.50052 1.96493 0
M  V30 2573 H 235.516 5.30243 3.86236 0
M  V30 2574 H 235.433 6.87637 3.14152 0
M  V30 2575 H 236.701 6.51791 4.27537 0
M  V30 2576 N 240.93 -0.123565 1.57115 0
M  V30 2577 C 241.86 -1.15309 2.03042 0
M  V30 2578 C 242.841 -1.43454 0.914061 0
M  V30 2579 O 244.026 -1.53973 1.18347 0
M  V30 2580 C 241.156 -2.48043 2.43089 0
M  V30 2581 C 240.11 -2.3437 3.58127 0
M  V30 2582 C 239.436 -3.72026 3.84059 0
M  V30 2583 C 240.736 -1.80804 4.90007 0
M  V30 2584 H 242.43 -0.771102 2.893 0
M  V30 2585 H 239.976 -0.369479 1.39179 0
M  V30 2586 H 241.929 -3.20311 2.73823 0
M  V30 2587 H 240.653 -2.88122 1.53796 0
M  V30 2588 H 239.312 -1.64551 3.27595 0
M  V30 2589 H 238.96 -4.09582 2.91979 0
M  V30 2590 H 238.66 -3.63732 4.6149 0
M  V30 2591 H 240.184 -4.45806 4.1724 0
M  V30 2592 H 241.598 -2.42886 5.19307 0
M  V30 2593 H 239.995 -1.83343 5.71407 0
M  V30 2594 H 241.065 -0.76528 4.78823 0
M  V30 2595 N 242.408 -1.52605 -0.393616 0
M  V30 2596 C 243.355 -1.77055 -1.48054 0
M  V30 2597 C 244.325 -0.61358 -1.54352 0
M  V30 2598 O 245.51 -0.852806 -1.70681 0
M  V30 2599 C 242.65 -1.94108 -2.85335 0
M  V30 2600 C 241.763 -3.21792 -2.88226 0
M  V30 2601 C 240.898 -3.29188 -4.16904 0
M  V30 2602 C 239.937 -4.51013 -4.13828 0
M  V30 2603 N 239.074 -4.55716 -5.34105 0
M  V30 2604 H 243.914 -2.69815 -1.26506 0
M  V30 2605 H 241.451 -1.33683 -0.61379 0
M  V30 2606 H 243.409 -2.01979 -3.65049 0
M  V30 2607 H 242.039 -1.04713 -3.05344 0
M  V30 2608 H 241.091 -3.23015 -2.00911 0
M  V30 2609 H 242.403 -4.11557 -2.8182 0
M  V30 2610 H 241.557 -3.36216 -5.05018 0
M  V30 2611 H 240.296 -2.37389 -4.26026 0
M  V30 2612 H 239.301 -4.44115 -3.24102 0
M  V30 2613 H 240.526 -5.44123 -4.06333 0
M  V30 2614 H 238.472 -3.66807 -5.43865 0
M  V30 2615 H 238.389 -5.39346 -5.29756 0
M  V30 2616 H 239.657 -4.66993 -6.2413 0
M  V30 2617 N 243.887 0.651787 -1.4349 0
M  V30 2618 C 244.797 1.79368 -1.5121 0
M  V30 2619 C 245.813 1.69361 -0.399093 0
M  V30 2620 O 246.989 1.90505 -0.653431 0
M  V30 2621 C 244.054 3.15653 -1.43401 0
M  V30 2622 C 243.115 3.37446 -2.65384 0
M  V30 2623 C 242.348 4.67229 -2.57939 0
M  V30 2624 O 242.571 5.46676 -1.62792 0
M  V30 2625 O 241.505 4.90773 -3.48462 0
M  V30 2626 H 245.331 1.7581 -2.47638 0
M  V30 2627 H 242.916 0.810447 -1.25507 0
M  V30 2628 H 244.798 3.96935 -1.41494 0
M  V30 2629 H 243.473 3.19798 -0.501085 0
M  V30 2630 H 242.38 2.55923 -2.72863 0
M  V30 2631 H 243.713 3.38148 -3.57654 0
M  V30 2632 N 245.365 1.30045 0.890287 0
M  V30 2633 C 246.59 1.21598 1.68014 0
M  V30 2634 C 247.015 -0.218678 1.86825 0
M  V30 2635 O 246.373 -1.15756 1.39536 0
M  V30 2636 C 246.421 1.94434 3.03691 0
M  V30 2637 O 245.525 1.2678 3.92429 0
M  V30 2638 H 244.866 0.420856 0.513592 0
M  V30 2639 H 247.396 1.71775 1.11151 0
M  V30 2640 H 247.406 2.03251 3.5377 0
M  V30 2641 H 246.081 2.98777 2.89318 0
M  V30 2642 H 244.658 1.26282 3.50866 0
M  V30 2643 N 246.843 -1.10192 1.12674 0
M  V30 2644 C 247.806 -2.14786 0.799979 0
M  V30 2645 C 248.806 -1.59711 -0.18685 0
M  V30 2646 O 249.996 -1.74156 0.0392558 0
M  V30 2647 C 247.128 -3.40374 0.189228 0
M  V30 2648 H 248.321 -2.45203 1.72671 0
M  V30 2649 H 245.874 -1.25597 0.930326 0
M  V30 2650 H 246.609 -3.15577 -0.747107 0
M  V30 2651 H 246.394 -3.81637 0.899766 0
M  V30 2652 H 247.884 -4.17594 -0.0228143 0
M  V30 2653 N 248.321 -0.919034 -1.28029 0
M  V30 2654 C 249.732 -0.600735 -1.76771 0
M  V30 2655 C 250.083 0.884024 -1.75156 0
M  V30 2656 O 249.208 1.69163 -1.34956 0
M  V30 2657 C 249.803 -1.08372 -3.21 0
M  V30 2658 C 248.362 -0.816248 -3.67443 0
M  V30 2659 C 247.509 -1.24742 -2.47658 0
M  V30 2660 H 250.46 -1.09974 -1.14418 0
M  V30 2661 H 250.481 -0.427512 -3.78091 0
M  V30 2662 H 249.993 -2.16437 -3.22144 0
M  V30 2663 H 248.094 0.250968 -3.71754 0
M  V30 2664 H 248.207 -1.4277 -4.57333 0
M  V30 2665 H 246.571 -0.666083 -2.45836 0
M  V30 2666 H 247.354 -2.33653 -2.51518 0
M  V30 2667 N 249.799 1.42003 -0.683588 0
M  V30 2668 C 251.024 2.06265 -0.216647 0
M  V30 2669 C 251.449 1.51059 1.12083 0
M  V30 2670 O 250.807 0.632638 1.69904 0
M  V30 2671 C 250.855 3.60191 -0.171759 0
M  V30 2672 O 249.959 4.03396 0.857069 0
M  V30 2673 H 249.3 0.65502 -0.108834 0
M  V30 2674 H 251.83 1.81982 -0.935077 0
M  V30 2675 H 251.84 4.08 0.0014303 0
M  V30 2676 H 250.515 3.99743 -1.14796 0
M  V30 2677 H 249.092 3.67117 0.654208 0
M  V30 2678 N 251.277 0.427512 1.51691 0
M  V30 2679 C 252.693 0.0792977 1.59403 0
M  V30 2680 C 252.893 -1.41035 1.43914 0
M  V30 2681 O 251.949 -2.17922 1.27539 0
M  V30 2682 C 253.262 0.590636 2.94842 0
M  V30 2683 C 254.81 0.550215 3.08126 0
M  V30 2684 C 255.285 1.03836 4.46074 0
M  V30 2685 N 256.776 0.995943 4.52366 0
M  V30 2686 C 257.511 1.34463 5.57411 0
M  V30 2687 N 257.007 1.76569 6.69922 0
M  V30 2688 N 258.8 1.26343 5.47717 0
M  V30 2689 H 250.951 1.39687 1.60004 0
M  V30 2690 H 253.214 0.575003 0.753708 0
M  V30 2691 H 252.92 1.63251 3.11516 0
M  V30 2692 H 252.794 0.0102061 3.77199 0
M  V30 2693 H 255.181 -0.482654 2.91126 0
M  V30 2694 H 255.262 1.16693 2.27632 0
M  V30 2695 H 254.906 2.06965 4.63819 0
M  V30 2696 H 254.836 0.398286 5.25092 0
M  V30 2697 H 257.327 0.68661 3.7161 0
M  V30 2698 H 257.64 2.01438 7.46085 0
M  V30 2699 H 255.985 1.80488 6.71155 0
M  V30 2700 H 259.176 0.933209 4.58703 0
M  V30 2701 H 259.349 1.53846 6.29472 0
M  V30 2702 N 252.755 -1.56801 0.158532 0
M  V30 2703 C 254.004 -1.95665 -0.489702 0
M  V30 2704 C 254.317 -1.04654 -1.65248 0
M  V30 2705 O 255.523 -1.33146 -2.3661 0
M  V30 2706 C 253.979 -3.47874 -0.922582 0
M  V30 2707 C 253.587 -4.47489 0.213893 0
M  V30 2708 C 255.331 -3.95583 -1.53996 0
M  V30 2709 C 253.238 -5.90921 -0.237903 0
M  V30 2710 H 252.168 -0.730516 -0.186716 0
M  V30 2711 H 254.819 -1.81861 0.244722 0
M  V30 2712 H 253.201 -3.57051 -1.71261 0
M  V30 2713 H 254.375 -4.50017 0.991036 0
M  V30 2714 H 252.69 -4.09764 0.740407 0
M  V30 2715 H 255.287 -5.0019 -1.8898 0
M  V30 2716 H 255.63 -3.37789 -2.43319 0
M  V30 2717 H 256.163 -3.8937 -0.814611 0
M  V30 2718 H 252.902 -6.52559 0.620236 0
M  V30 2719 H 252.422 -5.91729 -0.980676 0
M  V30 2720 H 254.101 -6.43352 -0.686067 0
M  V30 2721 N 254.233 0.115231 -1.57178 0
M  V30 2722 C 255.479 0.82357 -1.85325 0
M  V30 2723 C 255.812 1.79349 -0.744814 0
M  V30 2724 O 255.087 1.92899 0.249024 0
M  V30 2725 C 255.37 1.57014 -3.24066 0
M  V30 2726 C 255.223 0.619565 -4.45513 0
M  V30 2727 C 256.542 2.52545 -3.60429 0
M  V30 2728 H 253.661 0.297948 -0.674089 0
M  V30 2729 H 256.303 0.0877138 -1.89797 0
M  V30 2730 H 254.453 2.19742 -3.20383 0
M  V30 2731 H 256.125 0.000837639 -4.613 0
M  V30 2732 H 254.368 -0.0686174 -4.33746 0
M  V30 2733 H 255.039 1.17866 -5.3927 0
M  V30 2734 H 257.515 1.9992 -3.64926 0
M  V30 2735 H 256.391 3.01811 -4.58477 0
M  V30 2736 H 256.652 3.35383 -2.88047 0
M  V30 2737 N 255.711 1.52812 0.385517 0
M  V30 2738 C 256.659 1.78482 1.49155 0
M  V30 2739 C 257.653 0.652914 1.56312 0
M  V30 2740 O 258.859 0.835464 1.59436 0
M  V30 2741 H 255.234 0.5648 0.496493 0
M  V30 2742 H 257.205 2.71095 1.24699 0
M  V30 2743 C 255.954 1.97378 2.86247 0
M  V30 2744 H 255.277 2.83907 2.81491 0
M  V30 2745 H 256.717 2.19327 3.62866 0
M  V30 2746 C 255.176 0.74728 3.28508 0
M  V30 2747 O 255.706 -0.0736232 4.01633 0
M  V30 2748 N 253.912 0.576396 2.84826 0
M  V30 2749 H 253.459 1.24555 2.25486 0
M  V30 2750 H 253.417 -0.24288 3.1346 0
M  V30 2751 N 257.189 -0.644168 1.43834 0
M  V30 2752 C 258.435 -1.40603 1.46146 0
M  V30 2753 C 258.768 -1.93997 0.0887717 0
M  V30 2754 O 258.043 -1.72854 -0.891724 0
M  V30 2755 C 258.326 -2.58086 2.51124 0
M  V30 2756 C 258.179 -2.10126 3.97702 0
M  V30 2757 C 259.498 -3.60291 2.52742 0
M  V30 2758 H 256.617 -0.509905 0.532134 0
M  V30 2759 H 259.259 -0.729502 1.75437 0
M  V30 2760 H 257.409 -3.15801 2.26278 0
M  V30 2761 H 259.081 -1.57342 4.33637 0
M  V30 2762 H 257.324 -1.41419 4.10101 0
M  V30 2763 H 257.995 -2.94649 4.66783 0
M  V30 2764 H 260.471 -3.12352 2.7491 0
M  V30 2765 H 259.347 -4.40032 3.28121 0
M  V30 2766 H 259.608 -4.1349 1.56455 0
M  V30 2767 N 258.668 -1.30515 -0.883378 0
M  V30 2768 C 259.893 -1.22487 -1.67367 0
M  V30 2769 C 260.318 0.208767 -1.86938 0
M  V30 2770 O 259.676 1.15015 -1.40148 0
M  V30 2771 C 259.724 -1.96041 -3.02655 0
M  V30 2772 O 258.828 -1.28859 -3.91751 0
M  V30 2773 H 258.169 -0.423573 -0.511353 0
M  V30 2774 H 260.699 -1.72362 -1.10239 0
M  V30 2775 H 260.709 -2.05124 -3.52687 0
M  V30 2776 H 259.384 -3.00307 -2.8773 0
M  V30 2777 H 257.961 -1.28141 -3.50192 0
M  V30 2778 N 260.146 1.09593 -1.13257 0
M  V30 2779 C 261.371 1.8604 -0.916732 0
M  V30 2780 C 261.796 1.80504 0.529146 0
M  V30 2781 O 261.154 1.18127 1.37534 0
M  V30 2782 C 261.202 3.32017 -1.40703 0
M  V30 2783 O 260.306 4.08141 -0.591153 0
M  V30 2784 H 259.647 0.576943 -0.328683 0
M  V30 2785 H 262.177 1.38405 -1.50682 0
M  V30 2786 H 262.187 3.82865 -1.4099 0
M  V30 2787 H 260.862 3.35361 -2.45979 0
M  V30 2788 H 259.439 3.67084 -0.656005 0
M  V30 2789 N 261.624 0.925811 1.2754 0
M  V30 2790 C 262.554 0.440748 2.29303 0
M  V30 2791 C 263.535 -0.497971 1.62648 0
M  V30 2792 O 264.72 -0.403126 1.8997 0
M  V30 2793 C 261.85 -0.309048 3.45922 0
M  V30 2794 C 260.804 0.54166 4.24559 0
M  V30 2795 C 260.13 -0.337191 5.33636 0
M  V30 2796 C 261.43 1.80516 4.90114 0
M  V30 2797 H 263.124 1.29121 2.70126 0
M  V30 2798 H 260.67 0.622323 1.29858 0
M  V30 2799 H 262.623 -0.659315 4.1621 0
M  V30 2800 H 261.347 -1.19352 3.04011 0
M  V30 2801 H 260.006 0.874609 3.56014 0
M  V30 2802 H 259.654 -1.22056 4.87966 0
M  V30 2803 H 259.354 0.228497 5.87156 0
M  V30 2804 H 260.878 -0.683072 6.06767 0
M  V30 2805 H 262.292 1.52307 5.52698 0
M  V30 2806 H 260.689 2.3142 5.53683 0
M  V30 2807 H 261.759 2.52581 4.13921 0
M  V30 2808 N 263.102 -1.41638 0.69111 0
M  V30 2809 C 264.065 -2.29178 0.0319786 0
M  V30 2810 C 265.065 -1.44153 -0.712496 0
M  V30 2811 O 266.255 -1.65354 -0.548053 0
M  V30 2812 C 263.387 -3.26952 -0.965161 0
M  V30 2813 H 264.58 -2.88959 0.802681 0
M  V30 2814 H 262.133 -1.4955 0.454356 0
M  V30 2815 H 262.868 -2.72142 -1.76378 0
M  V30 2816 H 262.653 -3.89685 -0.434522 0
M  V30 2817 H 264.143 -3.92561 -1.42428 0
M  V30 2818 N 264.58 -0.43555 -1.51462 0
M  V30 2819 C 265.53 0.394701 -2.24558 0
M  V30 2820 C 266.514 0.99157 -1.26715 0
M  V30 2821 O 267.706 0.910007 -1.51815 0
M  V30 2822 C 264.835 1.4963 -3.08975 0
M  V30 2823 C 263.921 0.908912 -4.14246 0
M  V30 2824 N 264.312 0.0505335 -5.05775 0
M  V30 2825 C 262.61 1.17668 -4.30198 0
M  V30 2826 C 263.311 -0.279161 -5.8103 0
M  V30 2827 N 262.287 0.336767 -5.42556 0
M  V30 2828 H 266.089 -0.267106 -2.92684 0
M  V30 2829 H 263.603 -0.247518 -1.60503 0
M  V30 2830 H 265.6 2.10394 -3.59917 0
M  V30 2831 H 264.26 2.16046 -2.42393 0
M  V30 2832 H 265.271 -0.31577 -5.16936 0
M  V30 2833 H 261.948 1.83847 -3.74842 0
M  V30 2834 H 263.338 -0.977553 -6.64751 0
M  V30 2835 N 266.058 1.56714 -0.166846 0
M  V30 2836 C 267.008 2.14338 0.777382 0
M  V30 2837 C 267.992 1.07642 1.19591 0
M  V30 2838 O 269.184 1.33775 1.15902 0
M  V30 2839 C 266.313 2.78417 2.00846 0
M  V30 2840 C 265.399 3.92264 1.61212 0
M  V30 2841 N 265.79 4.97268 0.925104 0
M  V30 2842 C 264.088 4.03342 1.90346 0
M  V30 2843 C 264.789 5.77093 0.730627 0
M  V30 2844 N 263.765 5.2854 1.27067 0
M  V30 2845 H 267.567 2.9289 0.243466 0
M  V30 2846 H 265.081 1.62364 0.0339954 0
M  V30 2847 H 267.078 3.18073 2.69509 0
M  V30 2848 H 265.738 2.01344 2.54736 0
M  V30 2849 H 266.749 5.14601 0.583646 0
M  V30 2850 H 263.426 3.37368 2.45946 0
M  V30 2851 H 264.816 6.71638 0.187668 0
M  V30 2852 N 267.536 -0.106894 1.57237 0
M  V30 2853 C 268.466 -1.13148 2.04254 0
M  V30 2854 C 269.447 -1.42476 0.929224 0
M  V30 2855 O 270.632 -1.52709 1.19973 0
M  V30 2856 C 267.762 -2.4545 2.45706 0
M  V30 2857 C 266.716 -2.30558 3.60592 0
M  V30 2858 C 266.042 -3.67931 3.87983 0
M  V30 2859 C 267.342 -1.75597 4.91897 0
M  V30 2860 H 269.036 -0.740374 2.90101 0
M  V30 2861 H 266.582 -0.354696 1.39563 0
M  V30 2862 H 268.535 -3.17389 2.77205 0
M  V30 2863 H 267.259 -2.86475 1.56843 0
M  V30 2864 H 265.918 -1.61067 3.29322 0
M  V30 2865 H 265.566 -4.06462 2.96306 0
M  V30 2866 H 265.266 -3.58817 4.65322 0
M  V30 2867 H 266.79 -4.41356 4.21945 0
M  V30 2868 H 268.204 -2.37364 5.21854 0
M  V30 2869 H 266.601 -1.77272 5.73319 0
M  V30 2870 H 267.671 -0.714451 4.79608 0
M  V30 2871 N 269.014 -1.53014 -0.377408 0
M  V30 2872 C 270.262 -1.6829 -1.11906 0
M  V30 2873 C 270.583 -0.431206 -1.90173 0
M  V30 2874 O 269.853 0.554595 -1.87886 0
M  V30 2875 H 268.433 -0.620371 -0.416112 0
M  V30 2876 H 271.095 -1.90167 -0.426893 0
M  V30 2877 H 270.191 -2.53862 -1.8155 0
M  V30 2878 N 270.492 0.636531 -1.44174 0
M  V30 2879 C 271.908 0.954104 -1.27941 0
M  V30 2880 C 272.108 2.0039 -0.211248 0
M  V30 2881 O 271.164 2.49236 0.404695 0
M  V30 2882 C 272.477 1.4225 -2.64925 0
M  V30 2883 C 274.025 1.53827 -2.72592 0
M  V30 2884 C 274.5 2.04053 -4.10032 0
M  V30 2885 N 275.991 2.11331 -4.12182 0
M  V30 2886 C 276.726 2.51352 -5.15374 0
M  V30 2887 N 276.222 2.90549 -6.2893 0
M  V30 2888 N 278.015 2.51438 -5.02728 0
M  V30 2889 H 270.166 -0.0578386 -2.12321 0
M  V30 2890 H 272.429 0.0367406 -0.947288 0
M  V30 2891 H 272.135 0.725466 -3.44136 0
M  V30 2892 H 272.009 2.39451 -2.9145 0
M  V30 2893 H 274.396 2.22628 -1.93702 0
M  V30 2894 H 274.477 0.550154 -2.49814 0
M  V30 2895 H 274.121 1.35848 -4.89395 0
M  V30 2896 H 274.051 3.03726 -4.30184 0
M  V30 2897 H 276.542 1.83745 -3.30222 0
M  V30 2898 H 276.855 3.19884 -7.03487 0
M  V30 2899 H 275.2 2.88313 -6.32377 0
M  V30 2900 H 278.391 2.20203 -4.13072 0
M  V30 2901 H 278.564 2.82304 -5.83274 0
M  V30 2902 N 271.97 1.30982 0.876444 0
M  V30 2903 C 273.219 1.19658 1.62373 0
M  V30 2904 C 273.532 -0.245636 1.94052 0
M  V30 2905 O 274.738 -0.48049 2.67214 0
M  V30 2906 C 273.194 2.09433 2.92687 0
M  V30 2907 C 272.802 3.58613 2.68516 0
M  V30 2908 C 274.546 2.06893 3.70669 0
M  V30 2909 C 272.453 4.40416 3.94699 0
M  V30 2910 H 271.383 0.444268 0.609214 0
M  V30 2911 H 274.034 1.55791 0.969605 0
M  V30 2912 H 272.416 1.66191 3.59439 0
M  V30 2913 H 273.59 4.10058 2.10212 0
M  V30 2914 H 271.905 3.63063 2.03898 0
M  V30 2915 H 274.502 2.65258 4.64265 0
M  V30 2916 H 274.845 1.05448 4.02724 0
M  V30 2917 H 275.378 2.48301 3.10792 0
M  V30 2918 H 272.117 5.42591 3.67798 0
M  V30 2919 H 271.637 3.93731 4.52477 0
M  V30 2920 H 273.316 4.52294 4.62644 0
M  V30 2921 N 273.449 -1.08991 1.13837 0
M  V30 2922 C 274.399 -2.1393 0.788535 0
M  V30 2923 C 275.383 -1.59396 -0.219516 0
M  V30 2924 O 276.575 -1.76985 -0.0227557 0
M  V30 2925 C 273.704 -3.42305 0.261147 0
M  V30 2926 C 272.79 -4.03736 1.29837 0
M  V30 2927 N 273.181 -4.39659 2.50067 0
M  V30 2928 C 271.479 -4.30993 1.1472 0
M  V30 2929 C 272.18 -4.88113 3.16419 0
M  V30 2930 N 271.156 -4.85846 2.43832 0
M  V30 2931 H 274.958 -2.39516 1.70322 0
M  V30 2932 H 272.472 -1.26263 1.02134 0
M  V30 2933 H 274.469 -4.16899 -0.0077405 0
M  V30 2934 H 273.129 -3.18172 -0.647805 0
M  V30 2935 H 274.14 -4.30878 2.8734 0
M  V30 2936 H 270.817 -4.16444 0.296773 0
M  V30 2937 H 272.207 -5.25336 4.18894 0
M  V30 2938 N 274.927 -0.932562 -1.27047 0
M  V30 2939 C 276.174 -0.575559 -1.94148 0
M  V30 2940 C 276.502 0.883984 -1.73251 0
M  V30 2941 O 275.757 1.64655 -1.0577 0
M  V30 2942 C 276.056 -0.853713 -3.47054 0
M  V30 2943 C 275.722 -2.29577 -3.88079 0
M  V30 2944 C 274.384 -2.68999 -3.9899 0
M  V30 2945 C 276.736 -3.23331 -4.08787 0
M  V30 2946 C 274.064 -4.01289 -4.28 0
M  V30 2947 C 276.416 -4.55207 -4.39282 0
M  V30 2948 C 275.08 -4.94457 -4.48407 0
M  V30 2949 H 274.35 -0.210612 -0.710439 0
M  V30 2950 H 276.997 -1.17744 -1.51025 0
M  V30 2951 H 275.302 -0.169204 -3.91434 0
M  V30 2952 H 276.999 -0.55639 -3.97121 0
M  V30 2953 H 273.589 -1.97994 -3.80127 0
M  V30 2954 H 277.773 -2.94074 -3.99793 0
M  V30 2955 H 273.029 -4.31374 -4.33275 0
M  V30 2956 H 277.203 -5.27852 -4.54252 0
M  V30 2957 H 274.83 -5.96994 -4.7064 0
M  V30 2958 N 276.405 1.4127 -0.698611 0
M  V30 2959 C 277.355 2.27997 -0.0119836 0
M  V30 2960 C 278.339 1.42363 0.749765 0
M  V30 2961 O 279.531 1.65607 0.624758 0
M  V30 2962 C 276.66 3.30702 0.921458 0
M  V30 2963 C 275.746 4.23814 0.155796 0
M  V30 2964 N 276.137 4.98572 -0.852015 0
M  V30 2965 C 274.435 4.44284 0.390836 0
M  V30 2966 C 275.136 5.66744 -1.3106 0
M  V30 2967 N 274.112 5.39867 -0.635944 0
M  V30 2968 H 277.914 2.83232 -0.784649 0
M  V30 2969 H 275.428 1.53518 -0.529711 0
M  V30 2970 H 277.425 3.91661 1.42854 0
M  V30 2971 H 276.085 2.77028 1.69369 0
M  V30 2972 H 277.096 5.03024 -1.23235 0
M  V30 2973 H 273.773 4.01614 1.14071 0
M  V30 2974 H 275.163 6.36672 -2.14707 0
M  V30 2975 N 277.883 0.443576 1.51229 0
M  V30 2976 C 278.831 -0.37904 2.29491 0
M  V30 2977 C 279.825 -1.0153 1.35603 0
M  V30 2978 O 281.031 -0.94955 1.52917 0
M  V30 2979 H 277.406 -0.141053 0.738653 0
M  V30 2980 H 279.377 0.301799 2.9687 0
M  V30 2981 C 278.126 -1.46426 3.15364 0
M  V30 2982 H 277.449 -0.984037 3.87501 0
M  V30 2983 H 278.889 -2.01297 3.7317 0
M  V30 2984 C 277.348 -2.45099 2.31146 0
M  V30 2985 O 277.878 -3.49773 1.9754 0
M  V30 2986 N 276.084 -2.16139 1.94249 0
M  V30 2987 H 275.631 -1.31044 2.21777 0
M  V30 2988 H 275.589 -2.82398 1.38198 0
M  V30 2989 N 279.361 -1.56624 0.175154 0
M  V30 2990 C 280.291 -2.21155 -0.749195 0
M  V30 2991 C 281.272 -1.16836 -1.23626 0
M  V30 2992 O 282.457 -1.45277 -1.28873 0
M  V30 2993 C 279.587 -2.8553 -1.97711 0
M  V30 2994 C 278.541 -3.95921 -1.62575 0
M  V30 2995 C 277.867 -4.47365 -2.92864 0
M  V30 2996 C 279.167 -5.15323 -0.850838 0
M  V30 2997 H 280.861 -2.98653 -0.211295 0
M  V30 2998 H 278.407 -1.43651 -0.100188 0
M  V30 2999 H 280.36 -3.2935 -2.62881 0
M  V30 3000 H 279.084 -2.05406 -2.53921 0
M  V30 3001 H 277.743 -3.52762 -0.997719 0
M  V30 3002 H 277.391 -3.64027 -3.47122 0
M  V30 3003 H 277.091 -5.21839 -2.70106 0
M  V30 3004 H 278.615 -4.93873 -3.59056 0
M  V30 3005 H 280.029 -5.55812 -1.40521 0
M  V30 3006 H 278.426 -5.95739 -0.722154 0
M  V30 3007 H 279.496 -4.84661 0.152082 0
M  V30 3008 N 280.839 0.0985539 -1.57292 0
M  V30 3009 C 281.771 1.14595 -1.98496 0
M  V30 3010 C 282.784 1.36512 -0.887031 0
M  V30 3011 O 283.973 1.35225 -1.16518 0
M  V30 3012 C 281.073 2.50216 -2.28572 0
M  V30 3013 C 280.246 2.48624 -3.59868 0
M  V30 3014 C 279.305 3.66146 -3.7792 0
M  V30 3015 O 278.331 3.48795 -4.49812 0
M  V30 3016 N 279.533 4.85496 -3.18235 0
M  V30 3017 H 282.298 0.795277 -2.88956 0
M  V30 3018 H 279.859 0.287579 -1.59325 0
M  V30 3019 H 281.851 3.27432 -2.37845 0
M  V30 3020 H 280.421 2.77387 -1.44136 0
M  V30 3021 H 279.641 1.56978 -3.61596 0
M  V30 3022 H 280.929 2.44635 -4.46129 0
M  V30 3023 H 280.327 5.02497 -2.59833 0
M  V30 3024 H 278.884 5.60317 -3.32999 0
M  V30 3025 N 282.317 1.53212 0.369288 0
M  V30 3026 C 283.565 1.68881 1.11012 0
M  V30 3027 C 283.886 0.441285 1.89941 0
M  V30 3028 O 283.156 -0.544623 1.88177 0
M  V30 3029 H 281.736 0.622569 0.412816 0
M  V30 3030 H 284.398 1.90391 0.416802 0
M  V30 3031 H 283.494 2.54822 1.80201 0
M  V30 3032 N 283.795 -0.628877 1.44509 0
M  V30 3033 C 284.705 -1.7694 1.54044 0
M  V30 3034 C 285.721 -1.68705 0.425987 0
M  V30 3035 O 286.897 -1.89442 0.683656 0
M  V30 3036 C 283.962 -3.13332 1.48405 0
M  V30 3037 C 283.023 -3.33181 2.70719 0
M  V30 3038 C 282.256 -4.63067 2.6534 0
M  V30 3039 O 282.479 -5.44017 1.71469 0
M  V30 3040 O 281.413 -4.85167 3.56226 0
M  V30 3041 H 285.239 -1.71848 2.50403 0
M  V30 3042 H 282.824 -0.790378 1.26781 0
M  V30 3043 H 284.706 -3.94634 1.47791 0
M  V30 3044 H 283.381 -3.1896 0.551898 0
M  V30 3045 H 282.288 -2.51549 2.769 0
M  V30 3046 H 283.621 -3.32416 3.62988 0
M  V30 3047 N 285.273 -1.31445 -0.869486 0
M  V30 3048 C 286.22 -1.19135 -1.97675 0
M  V30 3049 C 287.19 -0.0770266 -1.65921 0
M  V30 3050 O 288.375 -0.249972 -1.89155 0
M  V30 3051 C 285.515 -0.905149 -3.33018 0
M  V30 3052 C 284.628 -2.10285 -3.77365 0
M  V30 3053 C 283.763 -1.75339 -5.01427 0
M  V30 3054 C 282.802 -2.91515 -5.38224 0
M  V30 3055 N 281.939 -2.56762 -6.53466 0
M  V30 3056 H 286.779 -2.13853 -2.07535 0
M  V30 3057 H 284.316 -1.06379 -1.01597 0
M  V30 3058 H 286.274 -0.719765 -4.10944 0
M  V30 3059 H 284.904 0.00519624 -3.228 0
M  V30 3060 H 283.956 -2.39899 -2.95216 0
M  V30 3061 H 285.268 -2.97237 -4.00564 0
M  V30 3062 H 284.422 -1.53266 -5.87022 0
M  V30 3063 H 283.161 -0.855801 -4.80133 0
M  V30 3064 H 282.166 -3.14237 -4.51149 0
M  V30 3065 H 283.391 -3.81985 -5.61484 0
M  V30 3066 H 281.337 -1.69526 -6.33717 0
M  V30 3067 H 281.254 -3.37243 -6.76612 0
M  V30 3068 H 282.522 -2.38083 -7.42251 0
M  V30 3069 N 286.751 1.08385 -1.14413 0
M  V30 3070 C 287.998 1.80776 -0.912482 0
M  V30 3071 C 288.326 1.86236 0.560934 0
M  V30 3072 O 287.581 1.33431 1.43159 0
M  V30 3073 C 287.88 3.26273 -1.45879 0
M  V30 3074 C 287.546 3.4093 -2.95089 0
M  V30 3075 C 286.208 3.44638 -3.35824 0
M  V30 3076 C 288.56 3.44591 -3.91033 0
M  V30 3077 C 285.888 3.49597 -4.71167 0
M  V30 3078 C 288.24 3.51086 -5.26233 0
M  V30 3079 C 286.904 3.53067 -5.6648 0
M  V30 3080 H 286.174 0.661507 -0.333901 0
M  V30 3081 H 288.821 1.27613 -1.42784 0
M  V30 3082 H 287.126 3.82146 -0.864376 0
M  V30 3083 H 288.823 3.80839 -1.2555 0
M  V30 3084 H 285.413 3.38736 -2.62594 0
M  V30 3085 H 289.597 3.40957 -3.60641 0
M  V30 3086 H 284.853 3.49424 -5.0171 0
M  V30 3087 H 289.027 3.52864 -6.00383 0
M  V30 3088 H 286.654 3.56662 -6.71339 0
M  V30 3089 N 288.23 0.939286 1.26551 0
M  V30 3090 C 289.46 0.601663 1.97645 0
M  V30 3091 C 289.868 -0.827206 1.70159 0
M  V30 3092 O 289.211 -1.56291 0.965338 0
M  V30 3093 C 289.273 0.761725 3.51337 0
M  V30 3094 C 288.937 2.16487 4.0247 0
M  V30 3095 C 289.934 3.14016 4.14355 0
M  V30 3096 C 287.619 2.48494 4.36527 0
M  V30 3097 C 289.613 4.41654 4.59587 0
M  V30 3098 C 287.3 3.76364 4.81449 0
M  V30 3099 C 288.298 4.72758 4.92939 0
M  V30 3100 O 287.986 5.98352 5.36871 0
M  V30 3101 H 287.718 0.225758 0.637189 0
M  V30 3102 H 290.272 1.26178 1.62075 0
M  V30 3103 H 288.502 0.0444808 3.86674 0
M  V30 3104 H 290.191 0.427442 4.03643 0
M  V30 3105 H 290.957 2.90613 3.8829 0
M  V30 3106 H 286.836 1.74202 4.26819 0
M  V30 3107 H 290.38 5.16896 4.68471 0
M  V30 3108 H 286.277 3.99582 5.06956 0
M  V30 3109 H 287.045 6.01507 5.55096 0
M  V30 3110 N 289.708 -1.40897 0.706093 0
M  V30 3111 C 290.656 -2.32572 0.0361893 0
M  V30 3112 C 291.65 -1.51532 -0.757266 0
M  V30 3113 O 292.856 -1.67396 -0.661703 0
M  V30 3114 H 289.231 -0.751966 -0.00709935 0
M  V30 3115 H 291.202 -2.86733 0.826249 0
M  V30 3116 C 289.951 -3.36418 -0.87854 0
M  V30 3117 H 289.274 -3.98836 -0.277401 0
M  V30 3118 H 290.714 -4.0308 -1.3154 0
M  V30 3119 C 289.173 -2.71141 -1.99961 0
M  V30 3120 O 289.703 -2.56735 -3.0895 0
M  V30 3121 N 287.909 -2.29671 -1.78043 0
M  V30 3122 H 287.456 -2.41588 -0.894042 0
M  V30 3123 H 287.414 -1.86332 -2.53235 0
M  V30 3124 N 291.186 -0.45159 -1.50991 0
M  V30 3125 C 292.149 0.341117 -2.26647 0
M  V30 3126 C 293.149 0.937422 -1.30649 0
M  V30 3127 O 294.339 0.809644 -1.54241 0
M  V30 3128 C 291.471 1.48398 -3.06905 0
M  V30 3129 H 292.664 -0.322117 -2.98165 0
M  V30 3130 H 290.217 -0.205122 -1.54948 0
M  V30 3131 H 290.952 2.18284 -2.39838 0
M  V30 3132 H 290.737 1.06241 -3.77432 0
M  V30 3133 H 292.227 2.04367 -3.64176 0
M  V30 3134 N 292.664 1.56529 -0.183458 0
M  V30 3135 C 293.912 1.96855 0.457452 0
M  V30 3136 C 294.233 1.07104 1.62953 0
M  V30 3137 O 293.503 0.139887 1.954 0
M  V30 3138 H 292.083 0.72693 0.171992 0
M  V30 3139 H 294.745 1.93056 -0.267476 0
M  V30 3140 H 293.841 3.01423 0.809368 0
M  V30 3141 N 294.142 -0.090211 1.57342 0
M  V30 3142 C 295.072 -1.10976 2.05443 0
M  V30 3143 C 296.053 -1.41482 0.944284 0
M  V30 3144 O 297.238 -1.51428 1.21586 0
M  V30 3145 C 294.368 -2.42831 2.48295 0
M  V30 3146 C 293.322 -2.26721 3.63018 0
M  V30 3147 C 292.648 -3.63796 3.91863 0
M  V30 3148 C 293.948 -1.7037 4.93732 0
M  V30 3149 H 295.642 -0.709564 2.9087 0
M  V30 3150 H 293.188 -0.339874 1.39932 0
M  V30 3151 H 295.141 -3.14431 2.80555 0
M  V30 3152 H 293.865 -2.84795 1.59873 0
M  V30 3153 H 292.524 -1.57565 3.31012 0
M  V30 3154 H 292.172 -4.03297 3.00601 0
M  V30 3155 H 291.872 -3.53861 4.69101 0
M  V30 3156 H 293.396 -4.36855 4.26603 0
M  V30 3157 H 294.81 -2.31816 5.24342 0
M  V30 3158 H 293.207 -1.71181 5.75167 0
M  V30 3159 H 294.277 -0.663542 4.80339 0
M  V30 3160 N 295.62 -1.53406 -0.361157 0
M  V30 3161 C 296.583 -1.79479 -1.42548 0
M  V30 3162 C 297.583 -0.665327 -1.4639 0
M  V30 3163 O 298.773 -0.933549 -1.47073 0
M  V30 3164 C 295.905 -1.92087 -2.8163 0
M  V30 3165 H 297.098 -2.74538 -1.20701 0
M  V30 3166 H 294.651 -1.4455 -0.594546 0
M  V30 3167 H 295.386 -0.991099 -3.08784 0
M  V30 3168 H 295.171 -2.74241 -2.80239 0
M  V30 3169 H 296.661 -2.13836 -3.58697 0
M  V30 3170 N 297.098 0.621204 -1.44841 0
M  V30 3171 C 298.328 1.40548 -1.51426 0
M  V30 3172 C 298.736 1.88673 -0.141083 0
M  V30 3173 O 298.079 1.62053 0.865128 0
M  V30 3174 C 298.141 2.65325 -2.42576 0
M  V30 3175 C 297.805 2.3893 -3.89566 0
M  V30 3176 C 298.802 2.00138 -4.79834 0
M  V30 3177 C 296.487 2.52263 -4.3436 0
M  V30 3178 C 298.481 1.75021 -6.129 0
M  V30 3179 C 296.168 2.2676 -5.67471 0
M  V30 3180 C 297.166 1.88199 -6.56559 0
M  V30 3181 O 296.854 1.62986 -7.87204 0
M  V30 3182 H 296.586 0.437122 -0.515655 0
M  V30 3183 H 299.14 0.765987 -1.90583 0
M  V30 3184 H 297.37 3.31947 -1.98364 0
M  V30 3185 H 299.059 3.27347 -2.39998 0
M  V30 3186 H 299.825 1.89386 -4.46495 0
M  V30 3187 H 295.704 2.81246 -3.65269 0
M  V30 3188 H 299.248 1.44848 -6.82396 0
M  V30 3189 H 295.145 2.37125 -6.00368 0
M  V30 3190 H 295.913 1.7715 -7.991 0
M  V30 3191 N 298.576 1.31904 0.862503 0
M  V30 3192 C 299.816 1.23324 1.63004 0
M  V30 3193 C 300.18 -0.203724 1.90916 0
M  V30 3194 O 301.381 -0.413132 2.65606 0
M  V30 3195 C 299.652 2.06116 2.91978 0
M  V30 3196 S 301.211 2.14478 3.82812 0
M  V30 3197 H 298.029 0.439117 0.559193 0
M  V30 3198 H 300.631 1.66658 1.02202 0
M  V30 3199 H 299.335 3.09593 2.69407 0
M  V30 3200 H 298.866 1.6353 3.57801 0
M  V30 3201 H 300.881 1.28855 4.79177 0
M  V30 3202 N 300.054 -1.07777 1.14986 0
M  V30 3203 C 301.004 -2.13082 0.811181 0
M  V30 3204 C 301.988 -1.59619 -0.202597 0
M  V30 3205 O 303.18 -1.77 -0.00398275 0
M  V30 3206 C 300.309 -3.42009 0.297439 0
M  V30 3207 C 299.395 -4.02337 1.34112 0
M  V30 3208 N 299.786 -4.36982 2.54716 0
M  V30 3209 C 298.084 -4.29752 1.19285 0
M  V30 3210 C 298.785 -4.84729 3.21578 0
M  V30 3211 N 297.761 -4.83233 2.48972 0
M  V30 3212 H 301.563 -2.37696 1.72853 0
M  V30 3213 H 299.077 -1.25173 1.03468 0
M  V30 3214 H 301.074 -4.16884 0.0364777 0
M  V30 3215 H 299.734 -3.18841 -0.614022 0
M  V30 3216 H 300.745 -4.27807 2.91894 0
M  V30 3217 H 297.422 -4.16106 0.340926 0
M  V30 3218 H 298.812 -5.20863 4.24442 0
M  V30 3219 N 301.532 -0.945985 -1.26051 0
M  V30 3220 C 302.757 -0.612525 -1.98149 0
M  V30 3221 C 303.182 0.806623 -1.69927 0
M  V30 3222 O 302.54 1.54411 -0.950108 0
M  V30 3223 C 302.588 -0.866981 -3.50023 0
M  V30 3224 O 301.692 0.0585333 -4.12358 0
M  V30 3225 H 301.033 -0.23379 -0.621481 0
M  V30 3226 H 303.563 -1.27023 -1.60395 0
M  V30 3227 H 303.573 -0.789792 -4.00283 0
M  V30 3228 H 302.248 -1.90135 -3.69894 0
M  V30 3229 H 300.825 -0.0701241 -3.72834 0
M  V30 3230 N 303.011 1.40521 -0.713556 0
M  V30 3231 C 303.958 2.30723 -0.059684 0
M  V30 3232 C 304.928 1.48079 0.752448 0
M  V30 3233 O 306.113 1.76823 0.71681 0
M  V30 3234 C 303.253 3.34274 0.857594 0
M  V30 3235 C 302.366 4.31986 0.0351536 0
M  V30 3236 C 301.501 5.22605 0.951724 0
M  V30 3237 C 300.54 6.11976 0.123253 0
M  V30 3238 N 299.677 6.9502 0.99459 0
M  V30 3239 H 304.517 2.86074 -0.834596 0
M  V30 3240 H 302.054 1.40879 -0.42326 0
M  V30 3241 H 304.012 3.92879 1.40364 0
M  V30 3242 H 302.642 2.8043 1.59871 0
M  V30 3243 H 301.694 3.7518 -0.628052 0
M  V30 3244 H 303.006 4.95101 -0.606347 0
M  V30 3245 H 302.16 5.86131 1.56638 0
M  V30 3246 H 300.899 4.59759 1.62705 0
M  V30 3247 H 299.904 5.47482 -0.50435 0
M  V30 3248 H 301.129 6.76881 -0.548539 0
M  V30 3249 H 299.075 6.34764 1.6556 0
M  V30 3250 H 298.992 7.54892 0.40908 0
M  V30 3251 H 300.26 7.62997 1.59549 0
M  V30 3252 N 304.489 0.459591 1.5075 0
M  V30 3253 C 305.419 -0.330644 2.31147 0
M  V30 3254 C 306.4 -1.00087 1.37538 0
M  V30 3255 O 307.585 -1.00025 1.66459 0
M  V30 3256 C 304.715 -1.41958 3.16962 0
M  V30 3257 C 303.669 -0.871608 4.19031 0
M  V30 3258 C 302.995 -2.05797 4.9351 0
M  V30 3259 C 304.295 0.109251 5.22186 0
M  V30 3260 H 305.989 0.340336 2.97459 0
M  V30 3261 H 303.535 0.165119 1.4305 0
M  V30 3262 H 305.488 -1.9798 3.71997 0
M  V30 3263 H 304.212 -2.11917 2.48513 0
M  V30 3264 H 302.871 -0.333442 3.6508 0
M  V30 3265 H 302.519 -2.74427 4.21544 0
M  V30 3266 H 302.219 -1.6976 5.62544 0
M  V30 3267 H 303.743 -2.62331 5.51375 0
M  V30 3268 H 305.157 -0.361405 5.7216 0
M  V30 3269 H 303.554 0.383316 5.98875 0
M  V30 3270 H 304.624 1.03887 4.73641 0
M  V30 3271 N 305.967 -1.56429 0.191757 0
M  V30 3272 C 306.93 -2.17707 -0.716688 0
M  V30 3273 C 307.93 -1.13061 -1.14341 0
M  V30 3274 O 309.12 -1.38464 -1.05704 0
M  V30 3275 C 306.252 -2.77644 -1.97804 0
M  V30 3276 H 307.445 -2.99342 -0.1829 0
M  V30 3277 H 304.998 -1.56193 -0.0578566 0
M  V30 3278 H 305.733 -1.99799 -2.55443 0
M  V30 3279 H 305.518 -3.54246 -1.68083 0
M  V30 3280 H 307.008 -3.24708 -2.62592 0
M  V30 3281 N 307.445 0.0818655 -1.57387 0
M  V30 3282 C 308.393 1.11712 -2.04018 0
M  V30 3283 C 309.387 1.40683 -0.94364 0
M  V30 3284 O 310.593 1.40209 -1.12878 0
M  V30 3285 H 306.968 0.377542 -0.650358 0
M  V30 3286 H 308.939 0.697614 -2.90131 0
M  V30 3287 C 307.688 2.42537 -2.49141 0
M  V30 3288 H 307.011 2.21092 -3.33104 0
M  V30 3289 H 308.451 3.13446 -2.85531 0
M  V30 3290 C 306.91 3.0778 -1.37014 0
M  V30 3291 O 307.44 3.95436 -0.706621 0
M  V30 3292 N 305.646 2.68242 -1.11779 0
M  V30 3293 H 305.193 1.97052 -1.65917 0
M  V30 3294 H 305.151 3.1222 -0.369594 0
M  V30 3295 N 308.923 1.53595 0.353017 0
M  V30 3296 C 310.172 1.69603 1.09168 0
M  V30 3297 C 310.485 0.460925 1.90092 0
M  V30 3298 O 311.691 0.501774 2.66823 0
M  V30 3299 C 310.147 2.99872 1.9901 0
M  V30 3300 C 309.755 4.30687 1.23339 0
M  V30 3301 C 311.499 3.25246 2.72792 0
M  V30 3302 C 309.406 5.52036 2.12156 0
M  V30 3303 H 308.336 0.631966 0.411261 0
M  V30 3304 H 310.987 1.80096 0.351802 0
M  V30 3305 H 309.369 2.83212 2.7678 0
M  V30 3306 H 310.543 4.58019 0.505456 0
M  V30 3307 H 308.858 4.11853 0.613663 0
M  V30 3308 H 311.455 4.13095 3.39495 0
M  V30 3309 H 311.798 2.41846 3.38846 0
M  V30 3310 H 312.331 3.42638 2.021 0
M  V30 3311 H 309.07 6.37951 1.50659 0
M  V30 3312 H 308.59 5.28966 2.82764 0
M  V30 3313 H 310.269 5.87313 2.71427 0
M  V30 3314 N 310.401 -0.613514 1.45168 0
M  V30 3315 C 311.331 -1.7354 1.56225 0
M  V30 3316 C 312.312 -1.64981 0.41414 0
M  V30 3317 O 313.497 -1.83472 0.636526 0
M  V30 3318 C 310.627 -3.12128 1.52295 0
M  V30 3319 C 309.581 -3.35491 2.65762 0
M  V30 3320 C 308.907 -4.74291 2.46885 0
M  V30 3321 C 310.207 -3.26325 4.0781 0
M  V30 3322 H 311.901 -1.64543 2.50132 0
M  V30 3323 H 309.447 -0.790185 1.20383 0
M  V30 3324 H 311.4 -3.90404 1.58628 0
M  V30 3325 H 310.124 -3.2195 0.549139 0
M  V30 3326 H 308.783 -2.59603 2.58847 0
M  V30 3327 H 308.431 -4.80839 1.47657 0
M  V30 3328 H 308.131 -4.9088 3.22972 0
M  V30 3329 H 309.655 -5.54775 2.55063 0
M  V30 3330 H 311.069 -3.94483 4.16 0
M  V30 3331 H 309.466 -3.54445 4.8424 0
M  V30 3332 H 310.536 -2.23855 4.30136 0
M  V30 3333 N 311.879 -1.3236 -0.855495 0
M  V30 3334 C 313.126 -1.22872 -1.60962 0
M  V30 3335 C 313.454 0.209658 -1.93367 0
M  V30 3336 O 312.709 1.16243 -1.57436 0
M  V30 3337 C 313.008 -2.03275 -2.93963 0
M  V30 3338 C 312.674 -3.5264 -2.80991 0
M  V30 3339 C 311.336 -3.93364 -2.7716 0
M  V30 3340 C 313.688 -4.47626 -2.66983 0
M  V30 3341 C 311.016 -5.27319 -2.572 0
M  V30 3342 C 313.368 -5.81723 -2.48558 0
M  V30 3343 C 312.032 -6.2165 -2.4312 0
M  V30 3344 H 311.302 -0.44962 -0.589001 0
M  V30 3345 H 313.949 -1.63777 -0.992442 0
M  V30 3346 H 312.254 -1.55095 -3.59795 0
M  V30 3347 H 313.951 -1.93303 -3.51333 0
M  V30 3348 H 310.541 -3.20295 -2.84797 0
M  V30 3349 H 314.725 -4.17084 -2.68988 0
M  V30 3350 H 309.981 -5.57311 -2.51424 0
M  V30 3351 H 314.155 -6.5494 -2.36699 0
M  V30 3352 H 311.782 -7.25388 -2.27412 0
M  V30 3353 N 313.357 1.07166 -1.15556 0
M  V30 3354 C 314.585 1.83514 -0.955519 0
M  V30 3355 C 315 1.82163 0.49621 0
M  V30 3356 O 314.357 1.23441 1.34419 0
M  V30 3357 C 314.408 3.30515 -1.46432 0
M  V30 3358 O 314.129 3.31937 -2.85918 0
M  V30 3359 C 315.63 4.23625 -1.30603 0
M  V30 3360 H 312.85 0.578926 -0.339244 0
M  V30 3361 H 315.394 1.35265 -1.53374 0
M  V30 3362 H 313.549 3.76106 -0.928584 0
M  V30 3363 H 313.963 4.23794 -3.09029 0
M  V30 3364 H 315.437 5.24831 -1.71047 0
M  V30 3365 H 315.914 4.38485 -0.250441 0
M  V30 3366 H 316.52 3.83871 -1.83094 0
M  V30 3367 N 314.835 0.952656 1.25548 0
M  V30 3368 C 315.767 0.428609 2.25157 0
M  V30 3369 C 316.78 -0.454428 1.56329 0
M  V30 3370 O 317.969 -0.263023 1.76552 0
M  V30 3371 C 315.069 -0.401972 3.36508 0
M  V30 3372 C 314.242 0.467601 4.34893 0
M  V30 3373 C 313.301 -0.30445 5.25319 0
M  V30 3374 O 312.327 0.296473 5.68427 0
M  V30 3375 N 313.529 -1.59805 5.5807 0
M  V30 3376 H 316.294 1.28497 2.70756 0
M  V30 3377 H 313.855 0.822798 1.39433 0
M  V30 3378 H 315.847 -0.926134 3.9396 0
M  V30 3379 H 314.417 -1.15918 2.90313 0
M  V30 3380 H 313.637 1.17288 3.76347 0
M  V30 3381 H 314.925 1.06119 4.97611 0
M  V30 3382 H 314.323 -2.10823 5.24948 0
M  V30 3383 H 312.88 -2.06822 6.18116 0
M  V30 3384 N 316.313 -1.40141 0.720998 0
M  V30 3385 C 317.223 -2.34486 0.0731031 0
M  V30 3386 C 318.239 -1.57587 -0.737723 0
M  V30 3387 O 319.415 -1.89949 -0.669429 0
M  V30 3388 C 316.48 -3.36528 -0.833656 0
M  V30 3389 C 315.541 -4.29298 -0.0121673 0
M  V30 3390 C 314.774 -5.26466 -0.875742 0
M  V30 3391 O 314.997 -5.29745 -2.11485 0
M  V30 3392 O 313.931 -6.01092 -0.31185 0
M  V30 3393 H 317.757 -2.9152 0.851444 0
M  V30 3394 H 315.342 -1.41427 0.481527 0
M  V30 3395 H 317.224 -3.99093 -1.35289 0
M  V30 3396 H 315.899 -2.81899 -1.59105 0
M  V30 3397 H 314.806 -3.70001 0.552262 0
M  V30 3398 H 316.139 -4.87094 0.707129 0
M  V30 3399 N 317.792 -0.46758 -1.50504 0
M  V30 3400 C 318.722 0.318381 -2.31319 0
M  V30 3401 C 319.703 0.993564 -1.38066 0
M  V30 3402 O 320.888 0.991411 -1.66987 0
M  V30 3403 C 318.018 1.40275 -3.17711 0
M  V30 3404 C 316.972 0.849373 -4.19487 0
M  V30 3405 C 316.298 2.03177 -4.94594 0
M  V30 3406 C 317.598 -0.136942 -5.2212 0
M  V30 3407 H 319.292 -0.356106 -2.97275 0
M  V30 3408 H 316.838 -0.172703 -1.42961 0
M  V30 3409 H 318.791 1.96004 -3.73042 0
M  V30 3410 H 317.515 2.10596 -2.49634 0
M  V30 3411 H 316.174 0.314076 -3.65252 0
M  V30 3412 H 315.822 2.72187 -4.22993 0
M  V30 3413 H 315.522 1.66774 -5.63436 0
M  V30 3414 H 317.046 2.59403 -5.52759 0
M  V30 3415 H 318.46 0.331056 -5.72343 0
M  V30 3416 H 316.857 -0.41507 -5.98663 0
M  V30 3417 H 317.927 -1.06398 -4.73083 0
M  V30 3418 N 319.27 1.56325 -0.20005 0
M  V30 3419 C 320.233 2.18084 0.705132 0
M  V30 3420 C 321.233 1.13666 1.1374 0
M  V30 3421 O 322.423 1.39023 1.04968 0
M  V30 3422 C 319.555 2.78689 1.96329 0
M  V30 3423 H 320.748 2.99435 0.167023 0
M  V30 3424 H 318.301 1.56221 0.0495725 0
M  V30 3425 H 319.036 2.0115 2.5438 0
M  V30 3426 H 318.821 3.55133 1.66202 0
M  V30 3427 H 320.311 3.26096 2.60866 0
M  V30 3428 N 320.748 -0.0735177 1.57428 0
M  V30 3429 C 322.164 -0.428264 1.53747 0
M  V30 3430 C 322.364 -1.79272 0.91998 0
M  V30 3431 O 321.42 -2.47051 0.521745 0
M  V30 3432 C 322.733 -0.370914 2.98404 0
M  V30 3433 C 324.281 -0.451224 3.0973 0
M  V30 3434 C 324.756 -0.4238 4.56035 0
M  V30 3435 N 326.247 -0.483925 4.60665 0
M  V30 3436 C 326.982 -0.484891 5.71346 0
M  V30 3437 N 326.478 -0.440775 6.91396 0
M  V30 3438 N 328.271 -0.531319 5.59583 0
M  V30 3439 H 320.422 0.819949 1.95935 0
M  V30 3440 H 322.685 0.307493 0.896745 0
M  V30 3441 H 322.391 0.564956 3.47133 0
M  V30 3442 H 322.265 -1.18176 3.5821 0
M  V30 3443 H 324.652 -1.37752 2.60976 0
M  V30 3444 H 324.733 0.388167 2.52838 0
M  V30 3445 H 324.377 0.498638 5.05446 0
M  V30 3446 H 324.307 -1.2807 5.10789 0
M  V30 3447 H 326.798 -0.522338 3.74273 0
M  V30 3448 H 327.111 -0.44539 7.71515 0
M  V30 3449 H 325.456 -0.40749 6.93804 0
M  V30 3450 H 328.647 -0.563464 4.64696 0
M  V30 3451 H 328.82 -0.528603 6.4584 0
M  V30 3452 N 322.226 -1.5378 -0.344866 0
M  V30 3453 C 323.642 -1.44015 -0.687888 0
M  V30 3454 C 323.842 -0.595834 -1.92489 0
M  V30 3455 O 322.898 -0.0863064 -2.52352 0
M  V30 3456 C 324.211 -2.87481 -0.881758 0
M  V30 3457 C 325.759 -2.97247 -0.980459 0
M  V30 3458 C 326.234 -4.41819 -1.20665 0
M  V30 3459 N 327.725 -4.45339 -1.27389 0
M  V30 3460 C 328.46 -5.54333 -1.46639 0
M  V30 3461 N 327.956 -6.73335 -1.63071 0
M  V30 3462 N 329.749 -5.41944 -1.49176 0
M  V30 3463 H 321.9 -2.07169 0.468475 0
M  V30 3464 H 324.163 -0.93643 0.147655 0
M  V30 3465 H 323.869 -3.51672 -0.0443444 0
M  V30 3466 H 323.743 -3.32352 -1.78388 0
M  V30 3467 H 326.13 -2.33197 -1.8084 0
M  V30 3468 H 326.211 -2.5574 -0.0552713 0
M  V30 3469 H 325.855 -5.06449 -0.383652 0
M  V30 3470 H 325.785 -4.80917 -2.14539 0
M  V30 3471 H 328.276 -3.59585 -1.1622 0
M  V30 3472 H 328.589 -7.52165 -1.77391 0
M  V30 3473 H 326.934 -6.76282 -1.60209 0
M  V30 3474 H 330.125 -4.47932 -1.3592 0
M  V30 3475 H 330.298 -6.26946 -1.63837 0
M  V30 3476 N 323.704 0.605807 -1.45491 0
M  V30 3477 C 324.634 1.72709 -1.57143 0
M  V30 3478 C 325.615 1.6476 -0.422884 0
M  V30 3479 O 326.8 1.83132 -0.646247 0
M  V30 3480 C 323.93 3.11316 -1.53948 0
M  V30 3481 C 322.884 3.34077 -2.67537 0
M  V30 3482 C 322.21 4.72975 -2.49397 0
M  V30 3483 C 323.51 3.24158 -4.09535 0
M  V30 3484 H 325.204 1.63214 -2.51001 0
M  V30 3485 H 322.75 0.78379 -1.208 0
M  V30 3486 H 324.703 3.89557 -1.60696 0
M  V30 3487 H 323.427 3.21655 -0.566205 0
M  V30 3488 H 322.086 2.58227 -2.6022 0
M  V30 3489 H 321.734 4.8005 -1.50205 0
M  V30 3490 H 321.434 4.8916 -3.25571 0
M  V30 3491 H 322.958 5.53414 -2.58002 0
M  V30 3492 H 324.372 3.92271 -4.18086 0
M  V30 3493 H 322.769 3.51872 -4.86113 0
M  V30 3494 H 323.839 2.2157 -4.31317 0
M  V30 3495 N 325.182 1.32811 0.848464 0
M  V30 3496 C 326.129 1.22265 1.95755 0
M  V30 3497 C 327.099 0.103413 1.65778 0
M  V30 3498 O 328.284 0.280033 1.88734 0
M  V30 3499 C 325.424 0.958014 3.31536 0
M  V30 3500 C 324.537 2.16262 3.73971 0
M  V30 3501 C 323.672 1.83295 4.98575 0
M  V30 3502 C 322.711 3.00041 5.33518 0
M  V30 3503 N 321.848 2.67125 6.49299 0
M  V30 3504 H 326.688 2.17128 2.04107 0
M  V30 3505 H 324.225 1.07982 0.998913 0
M  V30 3506 H 326.183 0.785052 4.09747 0
M  V30 3507 H 324.813 0.046159 3.22767 0
M  V30 3508 H 323.865 2.44565 2.91362 0
M  V30 3509 H 325.177 3.03572 3.95785 0
M  V30 3510 H 324.331 1.62586 5.84509 0
M  V30 3511 H 323.07 0.932078 4.7871 0
M  V30 3512 H 322.075 3.21374 4.46093 0
M  V30 3513 H 323.3 3.90869 5.55336 0
M  V30 3514 H 321.246 1.79586 6.3094 0
M  V30 3515 H 321.163 3.47965 6.71161 0
M  V30 3516 H 322.431 2.49861 7.3837 0
M  V30 3517 N 326.66 -1.06551 1.16123 0
M  V30 3518 C 327.908 -1.78947 0.939267 0
M  V30 3519 C 328.229 -1.87532 -0.534476 0
M  V30 3520 O 327.499 -1.38211 -1.38833 0
M  V30 3521 H 326.079 -0.662807 0.344523 0
M  V30 3522 H 328.741 -1.28725 1.46342 0
M  V30 3523 H 327.837 -2.81117 1.35572 0
M  V30 3524 N 328.138 -0.959301 -1.25041 0
M  V30 3525 C 329.363 -0.633507 -1.97488 0
M  V30 3526 C 329.788 0.788555 -1.70773 0
M  V30 3527 O 329.146 1.53394 -0.966431 0
M  V30 3528 C 329.194 -0.904057 -3.49083 0
M  V30 3529 O 328.298 0.0147939 -4.12397 0
M  V30 3530 H 327.639 -0.240368 -0.618966 0
M  V30 3531 H 330.169 -1.28717 -1.59038 0
M  V30 3532 H 330.179 -0.832203 -3.99423 0
M  V30 3533 H 328.854 -1.94048 -3.67856 0
M  V30 3534 H 327.431 -0.109664 -3.72739 0
M  V30 3535 N 329.616 1.39756 -0.72842 0
M  V30 3536 C 330.864 2.00248 -0.272946 0
M  V30 3537 C 331.185 1.58077 1.14178 0
M  V30 3538 O 330.455 0.826014 1.77634 0
M  V30 3539 H 329.035 0.740554 -0.0979247 0
M  V30 3540 H 331.697 1.70903 -0.936912 0
M  V30 3541 H 330.793 3.10495 -0.316142 0
M  V30 3542 N 331.094 0.475555 1.50254 0
M  V30 3543 C 332.34 -0.0780073 2.0265 0
M  V30 3544 C 332.673 -1.38968 1.35652 0
M  V30 3545 O 331.948 -1.8839 0.483691 0
M  V30 3546 C 332.231 -0.257161 3.59181 0
M  V30 3547 C 332.084 1.07585 4.36744 0
M  V30 3548 C 333.403 -1.00965 4.28362 0
M  V30 3549 H 330.522 -0.0268758 0.73651 0
M  V30 3550 H 333.164 0.622015 1.7953 0
M  V30 3551 H 331.314 -0.853412 3.79011 0
M  V30 3552 H 332.986 1.70902 4.28474 0
M  V30 3553 H 331.229 1.6714 4.00308 0
M  V30 3554 H 331.9 0.904088 5.44546 0
M  V30 3555 H 334.376 -0.504214 4.13034 0
M  V30 3556 H 333.252 -1.10381 5.37687 0
M  V30 3557 H 333.513 -2.04731 3.91839 0
M  V30 3558 N 332.573 -1.56217 0.208337 0
M  V30 3559 C 333.801 -2.02337 -0.43215 0
M  V30 3560 C 334.216 -1.08834 -1.54275 0
M  V30 3561 O 333.573 -0.0955462 -1.8225 0
M  V30 3562 C 333.624 -3.48072 -0.976138 0
M  V30 3563 O 333.345 -4.38007 0.0901621 0
M  V30 3564 C 334.846 -4.09773 -1.69119 0
M  V30 3565 H 332.066 -0.662385 -0.10718 0
M  V30 3566 H 334.61 -2.01966 0.320923 0
M  V30 3567 H 332.765 -3.49099 -1.67954 0
M  V30 3568 H 333.179 -5.23543 -0.316701 0
M  V30 3569 H 334.653 -5.13556 -2.02397 0
M  V30 3570 H 335.13 -3.53999 -2.59964 0
M  V30 3571 H 335.736 -4.12556 -1.03332 0
M  V30 3572 N 334.051 0.0651679 -1.57465 0
M  V30 3573 C 335.279 0.775808 -1.91804 0
M  V30 3574 C 335.694 1.70782 -0.804916 0
M  V30 3575 O 335.051 1.81153 0.221311 0
M  V30 3576 C 335.102 1.56381 -3.25925 0
M  V30 3577 O 334.823 0.669248 -4.32958 0
M  V30 3578 C 336.324 2.37485 -3.7432 0
M  V30 3579 H 333.544 0.2202 -0.63384 0
M  V30 3580 H 336.088 0.0334587 -2.04473 0
M  V30 3581 H 334.243 2.25837 -3.14764 0
M  V30 3582 H 334.657 1.21801 -5.10162 0
M  V30 3583 H 336.131 2.88223 -4.70778 0
M  V30 3584 H 336.608 3.17307 -3.03666 0
M  V30 3585 H 337.214 1.73173 -3.88447 0
M  V30 3586 N 335.529 1.53961 0.336706 0
M  V30 3587 C 336.759 1.75229 1.09446 0
M  V30 3588 C 337.167 0.494602 1.82621 0
M  V30 3589 O 336.51 -0.543764 1.75468 0
M  V30 3590 C 336.572 2.88288 2.1478 0
M  V30 3591 C 336.236 4.27656 1.6112 0
M  V30 3592 C 337.233 5.08981 1.0599 0
M  V30 3593 C 334.918 4.74161 1.6576 0
M  V30 3594 C 336.912 6.34916 0.562129 0
M  V30 3595 C 334.599 6.00067 1.15595 0
M  V30 3596 C 335.597 6.80278 0.609147 0
M  V30 3597 O 335.285 8.03818 0.114999 0
M  V30 3598 H 335.017 0.588881 0.331956 0
M  V30 3599 H 337.571 2.01614 0.392566 0
M  V30 3600 H 335.801 2.57443 2.88548 0
M  V30 3601 H 337.49 2.97461 2.76174 0
M  V30 3602 H 338.256 4.74213 1.01722 0
M  V30 3603 H 334.135 4.11781 2.07261 0
M  V30 3604 H 337.679 6.9747 0.134668 0
M  V30 3605 H 333.576 6.3433 1.19566 0
M  V30 3606 H 334.344 8.18172 0.231651 0
M  V30 3607 N 337.007 -0.598083 1.45811 0
M  V30 3608 C 338.232 -1.3881 1.54099 0
M  V30 3609 C 338.657 -1.8726 0.177578 0
M  V30 3610 O 338.015 -1.6069 -0.839541 0
M  V30 3611 C 338.063 -2.56217 2.53743 0
M  V30 3612 O 337.167 -3.5716 2.06182 0
M  V30 3613 H 336.508 -0.414024 0.519115 0
M  V30 3614 H 339.038 -0.726971 1.91249 0
M  V30 3615 H 339.048 -3.03337 2.72856 0
M  V30 3616 H 337.723 -2.20303 3.5276 0
M  V30 3617 H 336.3 -3.16624 1.96987 0
M  V30 3618 N 338.485 -1.33259 -0.841409 0
M  V30 3619 C 339.731 -1.24757 -1.59886 0
M  V30 3620 C 340.064 0.186913 -1.93298 0
M  V30 3621 O 339.339 1.12757 -1.5848 0
M  V30 3622 C 339.622 -2.12036 -2.91055 0
M  V30 3623 C 339.475 -3.63929 -2.6434 0
M  V30 3624 C 340.794 -1.9916 -3.92458 0
M  V30 3625 H 337.913 -0.454542 -0.580138 0
M  V30 3626 H 340.555 -1.63335 -0.970647 0
M  V30 3627 H 338.705 -1.79265 -3.44669 0
M  V30 3628 H 340.377 -4.06978 -2.17178 0
M  V30 3629 H 338.62 -3.85935 -1.98082 0
M  V30 3630 H 339.291 -4.20341 -3.57796 0
M  V30 3631 H 341.767 -2.27895 -3.48143 0
M  V30 3632 H 340.643 -2.62484 -4.82072 0
M  V30 3633 H 340.904 -0.963082 -4.31482 0
M  V30 3634 N 339.963 1.05934 -1.16686 0
M  V30 3635 C 340.913 2.11764 -0.844978 0
M  V30 3636 C 341.897 1.59922 0.177178 0
M  V30 3637 O 343.089 1.76983 -0.0241768 0
M  V30 3638 C 340.218 3.41493 -0.351812 0
M  V30 3639 C 339.304 4.00152 -1.40496 0
M  V30 3640 N 339.695 4.32874 -2.61636 0
M  V30 3641 C 337.993 4.278 -1.26106 0
M  V30 3642 C 338.694 4.79552 -3.29249 0
M  V30 3643 N 337.67 4.79211 -2.56628 0
M  V30 3644 H 341.472 2.34916 -1.76612 0
M  V30 3645 H 338.986 1.23511 -1.05446 0
M  V30 3646 H 340.983 4.16773 -0.102796 0
M  V30 3647 H 339.643 3.19778 0.56322 0
M  V30 3648 H 340.654 4.23109 -2.98663 0
M  V30 3649 H 337.331 4.15511 -0.407081 0
M  V30 3650 H 338.721 5.14045 -4.32675 0
M  V30 3651 N 341.441 0.965919 1.2453 0
M  V30 3652 C 342.852 0.665929 1.7442 0
M  V30 3653 C 343.203 -0.818407 1.78316 0
M  V30 3654 O 342.328 -1.64037 1.41141 0
M  V30 3655 C 342.923 1.20211 3.16757 0
M  V30 3656 C 341.482 0.952059 3.6416 0
M  V30 3657 C 340.629 1.33848 2.42858 0
M  V30 3658 H 343.58 1.14144 1.10258 0
M  V30 3659 H 343.601 0.567544 3.76244 0
M  V30 3660 H 343.113 2.28244 3.13889 0
M  V30 3661 H 341.214 -0.112821 3.72429 0
M  V30 3662 H 341.327 1.59645 4.51719 0
M  V30 3663 H 339.691 0.756864 2.43195 0
M  V30 3664 H 340.474 2.42827 2.42673 0
M  V30 3665 N 342.919 -1.39368 0.735821 0
M  V30 3666 C 344.167 -2.00101 0.283562 0
M  V30 3667 C 344.488 -1.5868 -1.13338 0
M  V30 3668 O 343.758 -0.835423 -1.77193 0
M  V30 3669 H 342.338 -0.740024 0.101851 0
M  V30 3670 H 345 -1.70404 0.945962 0
M  V30 3671 H 344.096 -3.10323 0.332604 0
M  V30 3672 N 344.397 -0.483516 -1.5 0
M  V30 3673 C 345.625 0.0644831 -2.06799 0
M  V30 3674 C 346.04 1.32399 -1.34596 0
M  V30 3675 O 345.397 1.77626 -0.418946 0
M  V30 3676 C 345.448 0.339927 -3.59898 0
M  V30 3677 O 345.169 -0.869635 -4.29382 0
M  V30 3678 C 346.67 0.933515 -4.33359 0
M  V30 3679 H 343.89 -0.0126333 -0.670881 0
M  V30 3680 H 346.434 -0.675864 -1.93009 0
M  V30 3681 H 344.589 1.03022 -3.7345 0
M  V30 3682 H 345.003 -0.62179 -5.20801 0
M  V30 3683 H 346.477 1.07593 -5.41413 0
M  V30 3684 H 346.954 1.92685 -3.94676 0
M  V30 3685 H 347.56 0.281221 -4.24369 0
M  V30 3686 N 345.875 1.56104 -0.216619 0
M  V30 3687 C 347.121 1.98466 0.417033 0
M  V30 3688 C 347.454 1.10403 1.59765 0
M  V30 3689 O 346.729 0.160632 1.93836 0
M  V30 3690 C 347.012 3.49769 0.85637 0
M  V30 3691 C 346.865 4.48606 -0.327546 0
M  V30 3692 C 348.184 4.05339 1.7143 0
M  V30 3693 H 345.303 0.721551 0.150112 0
M  V30 3694 H 347.945 1.87423 -0.311864 0
M  V30 3695 H 346.095 3.5931 1.47745 0
M  V30 3696 H 347.767 4.5108 -0.965618 0
M  V30 3697 H 346.01 4.22682 -0.975805 0
M  V30 3698 H 346.681 5.51995 0.0227149 0
M  V30 3699 H 349.157 3.98712 1.19031 0
M  V30 3700 H 348.033 5.11533 1.99061 0
M  V30 3701 H 348.294 3.51918 2.67593 0
M  V30 3702 N 347.353 -0.0568162 1.57498 0
M  V30 3703 C 348.285 -1.09292 2.01464 0
M  V30 3704 C 349.298 -1.34112 0.922913 0
M  V30 3705 O 350.487 -1.32089 1.20062 0
M  V30 3706 C 347.587 -2.44068 2.35125 0
M  V30 3707 C 346.76 -2.38995 3.66333 0
M  V30 3708 C 345.819 -3.55997 3.87495 0
M  V30 3709 O 344.845 -3.36746 4.58901 0
M  V30 3710 N 346.047 -4.76888 3.30996 0
M  V30 3711 H 348.812 -0.718386 2.90963 0
M  V30 3712 H 346.373 -0.245235 1.60032 0
M  V30 3713 H 348.365 -3.21011 2.46443 0
M  V30 3714 H 346.935 -2.73468 1.5144 0
M  V30 3715 H 346.155 -1.47336 3.65631 0
M  V30 3716 H 347.443 -2.3272 4.52458 0
M  V30 3717 H 346.841 -4.95431 2.73065 0
M  V30 3718 H 345.398 -5.51291 3.47738 0
M  V30 3719 N 348.832 -1.54138 -0.328536 0
M  V30 3720 C 350.057 -1.76378 -1.09112 0
M  V30 3721 C 350.482 -0.508596 -1.81094 0
M  V30 3722 O 349.84 0.539598 -1.73084 0
M  V30 3723 C 349.888 -2.95358 -2.06872 0
M  V30 3724 O 348.992 -2.66556 -3.14677 0
M  V30 3725 H 348.333 -0.584614 -0.314838 0
M  V30 3726 H 350.863 -2.01146 -0.374348 0
M  V30 3727 H 350.873 -3.22566 -2.4983 0
M  V30 3728 H 349.548 -3.86385 -1.5388 0
M  V30 3729 H 348.125 -2.50282 -2.7643 0
M  V30 3730 N 350.31 0.590341 -1.46126 0
M  V30 3731 C 351.22 1.72793 -1.58681 0
M  V30 3732 C 352.236 1.67516 -0.470566 0
M  V30 3733 O 353.412 1.87562 -0.733642 0
M  V30 3734 C 350.477 3.09287 -1.5666 0
M  V30 3735 C 349.538 3.25886 -2.79458 0
M  V30 3736 C 348.771 4.55869 -2.77524 0
M  V30 3737 O 348.994 5.3928 -1.85832 0
M  V30 3738 O 347.928 4.75552 -3.68964 0
M  V30 3739 H 351.754 1.65149 -2.54872 0
M  V30 3740 H 349.339 0.756486 -1.28832 0
M  V30 3741 H 351.221 3.90577 -1.58202 0
M  V30 3742 H 349.896 3.17385 -0.636271 0
M  V30 3743 H 348.803 2.44119 -2.83472 0
M  V30 3744 H 350.136 3.22675 -3.71674 0
M  V30 3745 N 351.788 1.33704 0.83433 0
M  V30 3746 C 352.718 1.26967 1.95963 0
M  V30 3747 C 353.699 0.149337 1.69443 0
M  V30 3748 O 354.884 0.339852 1.91203 0
M  V30 3749 C 352.014 1.01275 3.32206 0
M  V30 3750 C 350.968 2.09652 3.73136 0
M  V30 3751 C 350.294 1.69166 5.07235 0
M  V30 3752 C 351.594 3.51372 3.86439 0
M  V30 3753 H 353.288 2.2112 2.01857 0
M  V30 3754 H 350.834 1.06447 0.969793 0
M  V30 3755 H 352.787 0.952106 4.10503 0
M  V30 3756 H 351.511 0.0356203 3.26581 0
M  V30 3757 H 350.17 2.14766 2.97104 0
M  V30 3758 H 349.818 0.701437 4.98085 0
M  V30 3759 H 349.518 2.41694 5.35591 0
M  V30 3760 H 351.042 1.64576 5.88003 0
M  V30 3761 H 352.456 3.48734 4.55036 0
M  V30 3762 H 350.853 4.22425 4.26236 0
M  V30 3763 H 351.923 3.89546 2.88759 0
M  V30 3764 N 353.266 -1.05314 1.17247 0
M  V30 3765 C 354.512 -1.78557 0.961513 0
M  V30 3766 C 354.845 -1.87419 -0.508697 0
M  V30 3767 O 354.12 -1.37307 -1.37757 0
M  V30 3768 C 354.403 -3.22514 1.60176 0
M  V30 3769 C 354.256 -3.21673 3.14399 0
M  V30 3770 C 355.575 -4.20318 1.30463 0
M  V30 3771 H 352.694 -0.6482 0.350723 0
M  V30 3772 H 355.336 -1.23102 1.44727 0
M  V30 3773 H 353.486 -3.69867 1.18871 0
M  V30 3774 H 355.158 -2.82405 3.64753 0
M  V30 3775 H 353.401 -2.60048 3.47214 0
M  V30 3776 H 354.072 -4.23271 3.54324 0
M  V30 3777 H 356.548 -3.81454 1.66229 0
M  V30 3778 H 355.424 -5.19289 1.77848 0
M  V30 3779 H 355.685 -4.41526 0.22521 0
M  V30 3780 N 354.744 -0.972509 -1.24016 0
M  V30 3781 C 356.16 -0.679827 -1.44397 0
M  V30 3782 C 356.36 0.756716 -1.86751 0
M  V30 3783 O 355.416 1.53007 -2.00861 0
M  V30 3784 C 356.729 -1.66803 -2.50195 0
M  V30 3785 C 358.277 -1.68119 -2.64017 0
M  V30 3786 C 358.752 -2.65748 -3.73017 0
M  V30 3787 N 360.243 -2.64219 -3.8045 0
M  V30 3788 C 360.978 -3.36433 -4.64328 0
M  V30 3789 N 360.474 -4.1818 -5.52356 0
M  V30 3790 N 362.267 -3.25235 -4.58453 0
M  V30 3791 H 354.418 -1.90059 -0.948228 0
M  V30 3792 H 356.681 -0.818527 -0.478245 0
M  V30 3793 H 356.387 -2.69498 -2.25973 0
M  V30 3794 H 356.261 -1.4446 -3.48441 0
M  V30 3795 H 358.648 -0.661319 -2.87594 0
M  V30 3796 H 358.729 -1.94525 -1.66113 0
M  V30 3797 H 358.373 -3.67872 -3.50189 0
M  V30 3798 H 358.303 -2.36619 -4.70446 0
M  V30 3799 H 360.794 -2.04887 -3.17537 0
M  V30 3800 H 361.107 -4.70157 -6.13329 0
M  V30 3801 H 359.452 -4.22273 -5.52006 0
M  V30 3802 H 362.643 -2.60829 -3.88698 0
M  V30 3803 H 362.816 -3.81776 -5.23594 0
M  V30 3804 N 356.222 1.38976 -0.743202 0
M  V30 3805 C 357.172 2.27843 -0.084513 0
M  V30 3806 C 358.156 1.44677 0.704094 0
M  V30 3807 O 359.348 1.67511 0.571755 0
M  V30 3808 C 356.477 3.33466 0.815781 0
M  V30 3809 C 355.563 4.24095 0.0208844 0
M  V30 3810 N 355.954 4.95609 -1.0102 0
M  V30 3811 C 354.252 4.45303 0.249293 0
M  V30 3812 C 354.953 5.62287 -1.49024 0
M  V30 3813 N 353.929 5.37571 -0.807377 0
M  V30 3814 H 357.731 2.80593 -0.87436 0
M  V30 3815 H 355.245 1.51755 -0.578283 0
M  V30 3816 H 357.242 3.96008 1.30321 0
M  V30 3817 H 355.902 2.82276 1.6047 0
M  V30 3818 H 356.913 4.98849 -1.39176 0
M  V30 3819 H 353.59 4.0504 1.01237 0
M  V30 3820 H 354.98 6.29519 -2.34853 0
M  V30 3821 N 357.7 0.491464 1.49741 0
M  V30 3822 C 358.925 -0.0557177 2.07325 0
M  V30 3823 C 359.35 -1.30925 1.35056 0
M  V30 3824 O 358.708 -1.76733 0.404365 0
M  V30 3825 C 358.756 -0.302074 3.59333 0
M  V30 3826 O 357.86 -1.37868 3.88672 0
M  V30 3827 H 357.201 0.0219956 0.663636 0
M  V30 3828 H 359.731 0.688352 1.92673 0
M  V30 3829 H 359.741 -0.536464 4.04458 0
M  V30 3830 H 358.416 0.61383 4.11345 0
M  V30 3831 H 356.993 -1.12999 3.55367 0
M  V30 3832 N 359.178 -1.55987 0.224894 0
M  V30 3833 C 360.403 -2.03232 -0.41369 0
M  V30 3834 C 360.828 -1.10359 -1.52323 0
M  V30 3835 O 360.186 -0.092395 -1.81064 0
M  V30 3836 C 360.234 -3.48682 -0.919405 0
M  V30 3837 O 359.338 -3.58947 -2.03054 0
M  V30 3838 H 358.679 -0.657428 -0.0931903 0
M  V30 3839 H 361.209 -2.01679 0.34451 0
M  V30 3840 H 361.219 -3.8907 -1.22835 0
M  V30 3841 H 359.894 -4.15761 -0.107339 0
M  V30 3842 H 358.471 -3.30448 -1.72796 0
M  V30 3843 N 360.656 0.0484629 -1.57525 0
M  V30 3844 C 361.903 0.743125 -1.88372 0
M  V30 3845 C 362.231 1.76383 -0.819715 0
M  V30 3846 O 361.486 1.94855 0.181659 0
M  V30 3847 C 361.785 1.46632 -3.25935 0
M  V30 3848 C 361.451 0.583427 -4.4711 0
M  V30 3849 C 360.113 0.340191 -4.79996 0
M  V30 3850 C 362.465 -0.0273345 -5.21193 0
M  V30 3851 C 359.793 -0.522903 -5.84365 0
M  V30 3852 C 362.145 -0.878017 -6.26477 0
M  V30 3853 C 360.809 -1.1309 -6.5785 0
M  V30 3854 H 360.079 0.271929 -0.689301 0
M  V30 3855 H 362.726 0.00336166 -1.915 0
M  V30 3856 H 361.031 2.2789 -3.18706 0
M  V30 3857 H 362.728 2.00902 -3.47044 0
M  V30 3858 H 359.318 0.783151 -4.21384 0
M  V30 3859 H 363.502 0.147654 -4.9608 0
M  V30 3860 H 358.758 -0.727335 -6.07058 0
M  V30 3861 H 362.932 -1.35789 -6.83033 0
M  V30 3862 H 360.559 -1.80144 -7.38547 0
M  V30 3863 N 362.134 1.5431 0.320358 0
M  V30 3864 C 363.067 1.78769 1.41834 0
M  V30 3865 C 364.045 0.63783 1.49568 0
M  V30 3866 O 365.229 0.875628 1.66928 0
M  V30 3867 C 362.356 1.90712 2.79905 0
M  V30 3868 C 361.402 3.13023 2.89687 0
M  V30 3869 S 362.235 4.71554 2.53766 0
M  V30 3870 C 363.391 4.86408 3.93902 0
M  V30 3871 H 363.624 2.71619 1.20874 0
M  V30 3872 H 361.157 1.45474 0.517377 0
M  V30 3873 H 363.115 1.98279 3.59438 0
M  V30 3874 H 361.776 0.988343 2.98145 0
M  V30 3875 H 360.969 3.18124 3.90913 0
M  V30 3876 H 360.571 3.03803 2.18128 0
M  V30 3877 H 362.863 4.69241 4.88691 0
M  V30 3878 H 363.806 5.88508 3.93782 0
M  V30 3879 H 364.214 4.14689 3.83005 0
M  V30 3880 N 363.613 -0.582584 1.46437 0
M  V30 3881 C 365.029 -0.905962 1.31394 0
M  V30 3882 C 365.229 -1.99468 0.285476 0
M  V30 3883 O 364.285 -2.50566 -0.311914 0
M  V30 3884 C 365.598 -1.3232 2.70022 0
M  V30 3885 C 367.146 -1.43604 2.78113 0
M  V30 3886 C 367.621 -1.88694 4.17323 0
M  V30 3887 N 369.112 -1.95887 4.19741 0
M  V30 3888 C 369.847 -2.32051 5.24347 0
M  V30 3889 N 369.343 -2.67006 6.39281 0
M  V30 3890 N 371.136 -2.32606 5.11713 0
M  V30 3891 H 363.287 0.1366 2.1196 0
M  V30 3892 H 365.55 -0.00155736 0.947999 0
M  V30 3893 H 365.256 -0.597242 3.46592 0
M  V30 3894 H 365.13 -2.28469 3.00136 0
M  V30 3895 H 367.517 -2.15286 2.01832 0
M  V30 3896 H 367.598 -0.457059 2.51684 0
M  V30 3897 H 367.242 -1.1759 4.941 0
M  V30 3898 H 367.172 -2.8755 4.4116 0
M  V30 3899 H 369.663 -1.71362 3.36814 0
M  V30 3900 H 369.976 -2.93554 7.14875 0
M  V30 3901 H 368.321 -2.64644 6.42642 0
M  V30 3902 H 371.512 -2.04721 4.2096 0
M  V30 3903 H 371.685 -2.60462 5.93349 0
M  V30 3904 N 365.091 -1.34144 -0.827227 0
M  V30 3905 C 366.337 -1.27455 -1.58515 0
M  V30 3906 C 366.692 0.155271 -1.91772 0
M  V30 3907 O 365.985 1.10042 -1.56848 0
M  V30 3908 C 366.179 -2.09464 -2.89585 0
M  V30 3909 C 366.008 -3.60276 -2.69131 0
M  V30 3910 C 364.778 -4.29565 -2.66087 0
M  V30 3911 C 366.976 -4.54367 -2.40947 0
M  V30 3912 N 364.958 -5.66252 -2.37132 0
M  V30 3913 C 366.329 -5.79027 -2.21648 0
M  V30 3914 C 368.384 -4.43327 -2.26639 0
M  V30 3915 C 367.087 -6.93891 -1.89492 0
M  V30 3916 C 369.113 -5.58019 -1.95878 0
M  V30 3917 C 368.475 -6.81695 -1.774 0
M  V30 3918 H 364.574 -0.521614 -0.582617 0
M  V30 3919 H 367.158 -1.68811 -0.970105 0
M  V30 3920 H 365.329 -1.70411 -3.49019 0
M  V30 3921 H 367.061 -1.94453 -3.54923 0
M  V30 3922 H 363.816 -3.81959 -2.80008 0
M  V30 3923 H 364.24 -6.38338 -2.25507 0
M  V30 3924 H 368.882 -3.48333 -2.39633 0
M  V30 3925 H 366.6 -7.88871 -1.75236 0
M  V30 3926 H 370.186 -5.5142 -1.85546 0
M  V30 3927 H 369.066 -7.68942 -1.53941 0
M  V30 3928 N 366.569 1.04691 -1.17803 0
M  V30 3929 C 367.502 2.12068 -0.842765 0
M  V30 3930 C 368.48 1.61455 0.192608 0
M  V30 3931 O 369.664 1.88359 0.072995 0
M  V30 3932 C 366.791 3.37715 -0.258063 0
M  V30 3933 C 365.837 4.07164 -1.26962 0
M  V30 3934 S 366.67 4.55047 -2.82299 0
M  V30 3935 C 367.826 5.83935 -2.25323 0
M  V30 3936 H 368.059 2.4018 -1.75217 0
M  V30 3937 H 365.592 1.17366 -1.00323 0
M  V30 3938 H 367.55 4.10435 0.0727935 0
M  V30 3939 H 366.211 3.0773 0.629357 0
M  V30 3940 H 365.404 4.9746 -0.809263 0
M  V30 3941 H 365.006 3.40533 -1.54639 0
M  V30 3942 H 367.298 6.57552 -1.63192 0
M  V30 3943 H 368.241 6.34725 -3.13894 0
M  V30 3944 H 368.649 5.3874 -1.68582 0
M  V30 3945 N 368.047 0.979072 1.23499 0
M  V30 3946 C 369.293 0.6578 1.9247 0
M  V30 3947 C 369.648 -0.799746 1.74991 0
M  V30 3948 O 368.941 -1.56922 1.09937 0
M  V30 3949 C 369.135 0.981932 3.43646 0
M  V30 3950 C 368.964 2.46944 3.75831 0
M  V30 3951 C 367.734 3.13119 3.96591 0
M  V30 3952 C 369.932 3.45006 3.81412 0
M  V30 3953 N 367.914 4.51489 4.15969 0
M  V30 3954 C 369.285 4.68778 4.05768 0
M  V30 3955 C 371.34 3.39505 3.64198 0
M  V30 3956 C 370.043 5.87723 4.14697 0
M  V30 3957 C 372.069 4.57814 3.7438 0
M  V30 3958 C 371.431 5.80381 3.99171 0
M  V30 3959 H 367.53 0.291746 0.72554 0
M  V30 3960 H 370.114 1.25626 1.48749 0
M  V30 3961 H 368.285 0.412179 3.86207 0
M  V30 3962 H 370.017 0.618068 3.99953 0
M  V30 3963 H 366.772 2.63619 3.93449 0
M  V30 3964 H 367.196 5.23221 4.29615 0
M  V30 3965 H 371.838 2.45773 3.44029 0
M  V30 3966 H 369.556 6.81874 4.33675 0
M  V30 3967 H 373.142 4.55132 3.62417 0
M  V30 3968 H 372.022 6.70398 4.06861 0
M  V30 3969 N 369.525 -1.3858 0.750561 0
M  V30 3970 C 370.771 -2.0095 0.31477 0
M  V30 3971 C 371.126 -1.58509 -1.09053 0
M  V30 3972 O 370.419 -0.8112 -1.7358 0
M  V30 3973 C 370.613 -3.55455 0.372373 0
M  V30 3974 C 370.442 -4.12898 1.78173 0
M  V30 3975 C 369.212 -4.44797 2.39757 0
M  V30 3976 C 371.41 -4.35366 2.7379 0
M  V30 3977 N 369.392 -4.87831 3.72685 0
M  V30 3978 C 370.763 -4.80775 3.91478 0
M  V30 3979 C 372.818 -4.1746 2.71351 0
M  V30 3980 C 371.521 -5.10155 5.07084 0
M  V30 3981 C 373.547 -4.47963 3.86113 0
M  V30 3982 C 372.909 -4.93593 5.02539 0
M  V30 3983 H 369.008 -0.765083 0.161776 0
M  V30 3984 H 371.592 -1.68246 0.979867 0
M  V30 3985 H 369.763 -3.87512 -0.26244 0
M  V30 3986 H 371.495 -4.04614 -0.0834479 0
M  V30 3987 H 368.25 -4.33135 1.91548 0
M  V30 3988 H 368.674 -5.13685 4.40972 0
M  V30 3989 H 373.316 -3.81372 1.82524 0
M  V30 3990 H 371.034 -5.45141 5.96529 0
M  V30 3991 H 374.62 -4.35717 3.85542 0
M  V30 3992 H 373.5 -5.16746 5.89867 0
M  V30 3993 N 371.003 -0.499398 -1.49478 0
M  V30 3994 C 371.933 0.269244 -2.31943 0
M  V30 3995 C 372.914 0.964054 -1.40143 0
M  V30 3996 O 374.099 0.955767 -1.69052 0
M  V30 3997 C 371.229 1.33504 -3.20615 0
M  V30 3998 C 370.183 0.760202 -4.21195 0
M  V30 3999 C 369.509 1.9264 -4.98792 0
M  V30 4000 C 370.809 -0.247661 -5.21712 0
M  V30 4001 H 372.503 -0.419082 -2.96452 0
M  V30 4002 H 370.049 -0.202988 -1.42562 0
M  V30 4003 H 372.002 1.88048 -3.77115 0
M  V30 4004 H 370.726 2.05253 -2.54045 0
M  V30 4005 H 369.385 0.23653 -3.65836 0
M  V30 4006 H 369.033 2.63154 -4.28671 0
M  V30 4007 H 368.733 1.54785 -5.66847 0
M  V30 4008 H 370.257 2.4762 -5.58137 0
M  V30 4009 H 371.671 0.209579 -5.72917 0
M  V30 4010 H 370.068 -0.541962 -5.97648 0
M  V30 4011 H 371.138 -1.16409 -4.7072 0
M  V30 4012 N 372.481 1.55866 -0.233164 0
M  V30 4013 C 373.728 1.98603 0.395374 0
M  V30 4014 C 374.056 1.12105 1.58942 0
M  V30 4015 O 373.311 0.168656 1.94972 0
M  V30 4016 C 373.61 3.46856 0.861724 0
M  V30 4017 C 373.276 4.50348 -0.223066 0
M  V30 4018 C 371.938 4.78371 -0.521038 0
M  V30 4019 C 374.29 5.12355 -0.956124 0
M  V30 4020 C 371.618 5.6568 -1.55638 0
M  V30 4021 C 373.97 6.00786 -1.98089 0
M  V30 4022 C 372.634 6.27148 -2.28565 0
M  V30 4023 H 371.904 0.726739 0.144677 0
M  V30 4024 H 374.551 1.88491 -0.338114 0
M  V30 4025 H 372.856 3.5423 1.67418 0
M  V30 4026 H 374.553 3.77302 1.35809 0
M  V30 4027 H 371.143 4.28596 0.0193234 0
M  V30 4028 H 375.327 4.90765 -0.739166 0
M  V30 4029 H 370.583 5.84365 -1.798 0
M  V30 4030 H 374.757 6.4788 -2.55391 0
M  V30 4031 H 372.384 6.94597 -3.08932 0
M  V30 4032 N 373.959 -0.0401083 1.57549 0
M  V30 4033 C 375.184 -0.748931 1.93406 0
M  V30 4034 C 375.609 -1.68686 0.832274 0
M  V30 4035 O 374.967 -1.80047 -0.212818 0
M  V30 4036 C 375.015 -1.4916 3.28304 0
M  V30 4037 O 374.119 -2.6042 3.19774 0
M  V30 4038 H 373.46 -0.202212 0.63246 0
M  V30 4039 H 375.99 0.00112086 2.046 0
M  V30 4040 H 376 -1.86395 3.62934 0
M  V30 4041 H 374.675 -0.80364 4.08062 0
M  V30 4042 H 373.252 -2.25808 2.96758 0
M  V30 4043 N 375.437 -1.54477 -0.31217 0
M  V30 4044 C 376.684 -1.73227 -1.04875 0
M  V30 4045 C 377.012 -0.512042 -1.87639 0
M  V30 4046 O 376.267 0.506131 -1.89042 0
M  V30 4047 C 376.566 -2.967 -1.99258 0
M  V30 4048 C 376.232 -4.30974 -1.32559 0
M  V30 4049 C 374.894 -4.67477 -1.141 0
M  V30 4050 C 377.246 -5.14258 -0.847835 0
M  V30 4051 C 374.574 -5.84852 -0.465326 0
M  V30 4052 C 376.926 -6.32327 -0.185931 0
M  V30 4053 C 375.59 -6.67499 0.0107077 0
M  V30 4054 H 374.86 -0.633881 -0.383765 0
M  V30 4055 H 377.507 -1.88727 -0.324731 0
M  V30 4056 H 375.812 -2.75935 -2.7815 0
M  V30 4057 H 377.509 -3.08401 -2.563 0
M  V30 4058 H 374.099 -4.02262 -1.4793 0
M  V30 4059 H 378.283 -4.86565 -0.978192 0
M  V30 4060 H 373.539 -6.10654 -0.301883 0
M  V30 4061 H 377.713 -6.96135 0.192211 0
M  V30 4062 H 375.34 -7.58306 0.536287 0
M  V30 4063 N 376.915 0.57481 -1.46744 0
M  V30 4064 C 378.162 1.33272 -1.52462 0
M  V30 4065 C 378.49 1.93669 -0.179572 0
M  V30 4066 O 377.745 1.7743 0.825664 0
M  V30 4067 C 378.044 2.476 -2.57738 0
M  V30 4068 C 377.71 2.05146 -4.01529 0
M  V30 4069 C 376.372 1.93284 -4.40676 0
M  V30 4070 C 378.724 1.72506 -4.91824 0
M  V30 4071 C 376.052 1.47049 -5.67973 0
M  V30 4072 C 378.404 1.27748 -6.19567 0
M  V30 4073 C 377.068 1.14468 -6.57612 0
M  V30 4074 H 376.338 0.487678 -0.557899 0
M  V30 4075 H 378.985 0.646456 -1.80259 0
M  V30 4076 H 377.29 3.21708 -2.23632 0
M  V30 4077 H 378.987 3.05807 -2.5939 0
M  V30 4078 H 375.577 2.15316 -3.7059 0
M  V30 4079 H 379.761 1.80552 -4.62293 0
M  V30 4080 H 375.017 1.35417 -5.96215 0
M  V30 4081 H 379.191 1.01547 -6.88957 0
M  V30 4082 H 376.818 0.78419 -7.56145 0
M  V30 4083 N 378.394 1.34581 0.820102 0
M  V30 4084 C 379.643 1.26437 1.57151 0
M  V30 4085 C 379.956 -0.163111 1.94919 0
M  V30 4086 O 381.162 -0.366722 2.69012 0
M  V30 4087 C 379.618 2.21658 2.83541 0
M  V30 4088 C 379.226 3.69679 2.53065 0
M  V30 4089 C 380.97 2.22428 3.61561 0
M  V30 4090 C 378.877 4.56761 3.75664 0
M  V30 4091 H 377.807 0.469707 0.589823 0
M  V30 4092 H 380.458 1.59763 0.902656 0
M  V30 4093 H 378.84 1.81287 3.52067 0
M  V30 4094 H 380.014 4.18605 1.92631 0
M  V30 4095 H 378.329 3.71384 1.88316 0
M  V30 4096 H 380.926 2.8471 4.52597 0
M  V30 4097 H 381.269 1.22434 3.97889 0
M  V30 4098 H 381.802 2.61259 2.99981 0
M  V30 4099 H 378.541 5.57702 3.44454 0
M  V30 4100 H 378.061 4.12568 4.35371 0
M  V30 4101 H 379.74 4.71509 4.43044 0
M  V30 4102 N 379.872 -1.04064 1.18357 0
M  V30 4103 C 380.819 -2.12077 0.910603 0
M  V30 4104 C 381.789 -1.65421 -0.15 0
M  V30 4105 O 382.974 -1.90797 -0.0103614 0
M  V30 4106 C 380.114 -3.42252 0.442472 0
M  V30 4107 C 379.227 -4.0252 1.5685 0
M  V30 4108 C 378.362 -5.20657 1.05309 0
M  V30 4109 C 377.401 -5.72955 2.1538 0
M  V30 4110 N 376.538 -6.8238 1.65233 0
M  V30 4111 H 381.378 -2.34764 1.83548 0
M  V30 4112 H 378.915 -1.15157 0.915279 0
M  V30 4113 H 380.873 -4.16921 0.152534 0
M  V30 4114 H 379.503 -3.19712 -0.445428 0
M  V30 4115 H 378.555 -3.25178 1.97391 0
M  V30 4116 H 379.867 -4.37362 2.39824 0
M  V30 4117 H 379.021 -6.0244 0.717677 0
M  V30 4118 H 377.76 -4.87318 0.19293 0
M  V30 4119 H 376.765 -4.89793 2.49766 0
M  V30 4120 H 377.99 -6.08337 3.01832 0
M  V30 4121 H 375.936 -6.50917 0.815064 0
M  V30 4122 H 375.853 -7.16286 2.41805 0
M  V30 4123 H 377.121 -7.67788 1.34619 0
M  V30 4124 N 381.35 -0.985608 -1.22978 0
M  V30 4125 C 382.578 -0.675582 -1.95559 0
M  V30 4126 C 382.993 0.758413 -1.72897 0
M  V30 4127 O 382.35 1.51094 -1.02357 0
M  V30 4128 C 382.401 -0.96293 -3.48439 0
M  V30 4129 O 382.122 -2.34057 -3.70336 0
M  V30 4130 C 383.623 -0.669585 -4.38214 0
M  V30 4131 H 380.843 -0.250523 -0.622478 0
M  V30 4132 H 383.387 -1.3184 -1.56328 0
M  V30 4133 H 381.542 -0.366033 -3.85667 0
M  V30 4134 H 381.956 -2.43424 -4.64591 0
M  V30 4135 H 383.43 -0.920967 -5.44263 0
M  V30 4136 H 383.907 0.396383 -4.37408 0
M  V30 4137 H 384.513 -1.2472 -4.06602 0
M  V30 4138 N 382.828 1.3818 -0.7579 0
M  V30 4139 C 384.239 1.82726 -0.383134 0
M  V30 4140 C 384.59 1.63214 1.08884 0
M  V30 4141 O 383.715 1.13566 1.84205 0
M  V30 4142 C 384.31 3.31728 -0.688631 0
M  V30 4143 C 382.869 3.74606 -0.367091 0
M  V30 4144 C 382.016 2.60896 -0.939599 0
M  V30 4145 H 384.967 1.26847 -0.953699 0
M  V30 4146 H 384.988 3.80487 0.0316492 0
M  V30 4147 H 384.5 3.45898 -1.76001 0
M  V30 4148 H 382.601 3.66013 0.697532 0
M  V30 4149 H 382.714 4.71215 -0.865658 0
M  V30 4150 H 381.078 2.52075 -0.3647 0
M  V30 4151 H 381.861 2.77864 -2.0161 0
M  V30 4152 N 384.306 0.507319 1.49211 0
M  V30 4153 C 385.238 -0.304532 2.27168 0
M  V30 4154 C 386.251 -0.924956 1.33972 0
M  V30 4155 O 387.44 -0.807227 1.59205 0
M  V30 4156 C 384.54 -1.44431 3.06583 0
M  V30 4157 C 383.713 -0.930026 4.27398 0
M  V30 4158 C 382.772 -1.94817 4.88807 0
M  V30 4159 O 381.798 -1.51418 5.4869 0
M  V30 4160 N 383 -3.279 4.79022 0
M  V30 4161 H 385.765 0.36395 2.97482 0
M  V30 4162 H 383.326 0.340249 1.58284 0
M  V30 4163 H 385.318 -2.12311 3.44537 0
M  V30 4164 H 383.888 -2.01684 2.38835 0
M  V30 4165 H 383.108 -0.0759244 3.94127 0
M  V30 4166 H 384.396 -0.564932 5.05654 0
M  V30 4167 H 383.794 -3.65843 4.3148 0
M  V30 4168 H 382.351 -3.91476 5.21142 0
M  V30 4169 N 385.784 -1.5574 0.241426 0
M  V30 4170 C 386.716 -2.18469 -0.693091 0
M  V30 4171 C 387.729 -1.15942 -1.14286 0
M  V30 4172 O 388.918 -1.42832 -1.07058 0
M  V30 4173 C 386.018 -2.7696 -1.95311 0
M  V30 4174 C 385.191 -4.04853 -1.65568 0
M  V30 4175 C 384.25 -4.47715 -2.76474 0
M  V30 4176 O 383.276 -5.14205 -2.44094 0
M  V30 4177 N 384.478 -4.15044 -4.05855 0
M  V30 4178 H 387.243 -2.99292 -0.156388 0
M  V30 4179 H 384.804 -1.61784 0.0611752 0
M  V30 4180 H 386.796 -3.02594 -2.68736 0
M  V30 4181 H 385.366 -2.00326 -2.39975 0
M  V30 4182 H 384.586 -3.86865 -0.756886 0
M  V30 4183 H 385.874 -4.88246 -1.43153 0
M  V30 4184 H 385.272 -3.61654 -4.34998 0
M  V30 4185 H 383.829 -4.45526 -4.75762 0
M  V30 4186 N 387.262 0.0317525 -1.57568 0
M  V30 4187 C 388.51 0.721676 -1.88776 0
M  V30 4188 C 388.831 1.76039 -0.838772 0
M  V30 4189 O 388.101 1.95482 0.127935 0
M  V30 4190 H 386.681 0.269534 -0.696678 0
M  V30 4191 H 389.343 -0.00165879 -1.949 0
M  V30 4192 H 388.439 1.21293 -2.87566 0
M  V30 4193 N 388.74 1.54641 0.303973 0
M  V30 4194 C 389.703 1.84646 1.35789 0
M  V30 4195 C 390.703 0.7192 1.4382 0
M  V30 4196 O 391.893 0.987491 1.43507 0
M  V30 4197 C 389.025 2.02407 2.74307 0
M  V30 4198 H 390.218 2.78829 1.10429 0
M  V30 4199 H 387.771 1.46658 0.540487 0
M  V30 4200 H 388.506 1.10502 3.04893 0
M  V30 4201 H 388.291 2.84453 2.69868 0
M  V30 4202 H 389.781 2.27002 3.50514 0
M  V30 4203 N 390.218 -0.567019 1.47046 0
M  V30 4204 C 391.15 -1.68985 1.54844 0
M  V30 4205 C 392.163 -1.56869 0.435431 0
M  V30 4206 O 393.352 -1.64006 0.70457 0
M  V30 4207 C 390.452 -3.07373 1.42742 0
M  V30 4208 C 389.625 -3.45339 2.6844 0
M  V30 4209 C 388.684 -4.62849 2.50314 0
M  V30 4210 O 387.71 -4.67922 3.24095 0
M  V30 4211 N 388.912 -5.58726 1.57499 0
M  V30 4212 H 391.677 -1.62745 2.51663 0
M  V30 4213 H 389.238 -0.753411 1.43302 0
M  V30 4214 H 391.23 -3.83803 1.28365 0
M  V30 4215 H 389.8 -3.07893 0.540445 0
M  V30 4216 H 389.02 -2.58455 2.97648 0
M  V30 4217 H 390.308 -3.67476 3.51907 0
M  V30 4218 H 389.706 -5.57376 0.966876 0
M  V30 4219 H 388.263 -6.34523 1.49078 0
M  V30 4220 N 391.696 -1.35014 -0.812953 0
M  V30 4221 C 392.924 -1.31031 -1.6012 0
M  V30 4222 C 393.339 0.113558 -1.88458 0
M  V30 4223 O 392.696 1.06363 -1.48301 0
M  V30 4224 C 392.747 -2.10872 -2.93624 0
M  V30 4225 O 392.468 -3.47706 -2.66518 0
M  V30 4226 C 393.969 -2.14401 -3.88004 0
M  V30 4227 H 391.189 -0.45037 -0.497401 0
M  V30 4228 H 393.733 -1.77775 -1.01076 0
M  V30 4229 H 391.888 -1.67744 -3.492 0
M  V30 4230 H 392.302 -3.89097 -3.51715 0
M  V30 4231 H 393.776 -2.74669 -4.78812 0
M  V30 4232 H 394.253 -1.14105 -4.24119 0
M  V30 4233 H 394.859 -2.57662 -3.38364 0
M  V30 4234 N 393.175 1.03435 -1.18907 0
M  V30 4235 C 394.4 1.80919 -1.01406 0
M  V30 4236 C 394.825 1.83055 0.432721 0
M  V30 4237 O 394.183 1.25252 1.31079 0
M  V30 4238 C 394.231 3.24091 -1.58105 0
M  V30 4239 O 393.335 4.04434 -0.806669 0
M  V30 4240 H 392.676 0.558709 -0.358803 0
M  V30 4241 H 395.206 1.30223 -1.57807 0
M  V30 4242 H 395.216 3.74853 -1.61087 0
M  V30 4243 H 393.891 3.21851 -2.6341 0
M  V30 4244 H 392.468 3.63091 -0.849666 0
M  V30 4245 N 394.653 0.992116 1.22453 0
M  V30 4246 C 395.583 0.561677 2.26644 0
M  V30 4247 C 396.564 -0.411055 1.65059 0
M  V30 4248 O 397.749 -0.301861 1.9184 0
M  V30 4249 C 394.879 -0.125247 3.47074 0
M  V30 4250 C 393.833 0.765948 4.21091 0
M  V30 4251 C 393.159 -0.0538484 5.34673 0
M  V30 4252 C 394.459 2.06242 4.79856 0
M  V30 4253 H 396.153 1.43259 2.62902 0
M  V30 4254 H 393.699 0.690283 1.26377 0
M  V30 4255 H 395.652 -0.437764 4.1912 0
M  V30 4256 H 394.376 -1.03069 3.0991 0
M  V30 4257 H 393.035 1.0621 3.50878 0
M  V30 4258 H 392.683 -0.960188 4.9375 0
M  V30 4259 H 392.383 0.539415 5.85119 0
M  V30 4260 H 393.907 -0.360477 6.09535 0
M  V30 4261 H 395.321 1.8139 5.43848 0
M  V30 4262 H 393.718 2.60444 5.40638 0
M  V30 4263 H 394.788 2.74167 3.99951 0
M  V30 4264 N 396.131 -1.37776 0.765217 0
M  V30 4265 C 397.081 -2.2768 0.12075 0
M  V30 4266 C 398.065 -1.45778 -0.680988 0
M  V30 4267 O 399.257 -1.684 -0.545033 0
M  V30 4268 C 396.386 -3.34722 -0.762626 0
M  V30 4269 C 395.472 -4.24074 0.0465881 0
M  V30 4270 N 395.863 -4.93939 1.08892 0
M  V30 4271 C 394.161 -4.45643 -0.178418 0
M  V30 4272 C 394.862 -5.59845 1.57951 0
M  V30 4273 N 393.838 -5.36218 0.892797 0
M  V30 4274 H 397.64 -2.79166 0.918889 0
M  V30 4275 H 395.154 -1.50816 0.602353 0
M  V30 4276 H 397.151 -3.98031 -1.24005 0
M  V30 4277 H 395.811 -2.84793 -1.55959 0
M  V30 4278 H 396.822 -4.96572 1.47095 0
M  V30 4279 H 393.499 -4.06599 -0.9478 0
M  V30 4280 H 394.889 -6.25703 2.44838 0
M  V30 4281 N 397.609 -0.515225 -1.4894 0
M  V30 4282 C 398.849 0.0223983 -2.04388 0
M  V30 4283 C 399.213 1.32961 -1.38511 0
M  V30 4284 O 400.414 1.95236 -1.8476 0
M  V30 4285 C 398.685 0.157056 -3.57055 0
M  V30 4286 S 400.244 0.646875 -4.34006 0
M  V30 4287 H 397.062 -0.00500662 -0.710982 0
M  V30 4288 H 399.664 -0.69243 -1.82827 0
M  V30 4289 H 398.368 -0.799412 -4.02539 0
M  V30 4290 H 397.899 0.896704 -3.83044 0
M  V30 4291 H 399.914 1.91381 -4.57808 0
M  V30 4292 N 399.087 1.5561 -0.249682 0
M  V30 4293 C 400.05 2.20217 0.635394 0
M  V30 4294 C 401.05 1.17227 1.10066 0
M  V30 4295 O 402.24 1.42292 1.00492 0
M  V30 4296 C 399.372 2.84794 1.87363 0
M  V30 4297 H 400.565 2.99814 0.0716752 0
M  V30 4298 H 398.118 1.563 -0.000153234 0
M  V30 4299 H 398.853 2.09142 2.47851 0
M  V30 4300 H 398.638 3.60241 1.5482 0
M  V30 4301 H 400.128 3.3423 2.5036 0
M  V30 4302 N 400.565 -0.0233959 1.57583 0
M  V30 4303 C 401.495 -1.02162 2.09965 0
M  V30 4304 C 402.476 -1.3735 1.00344 0
M  V30 4305 O 403.661 -1.46135 1.27899 0
M  V30 4306 C 400.791 -2.32081 2.58371 0
M  V30 4307 C 399.745 -2.1112 3.72307 0
M  V30 4308 C 399.071 -3.46848 4.06941 0
M  V30 4309 C 400.371 -1.49276 5.00514 0
M  V30 4310 H 402.065 -0.585557 2.93618 0
M  V30 4311 H 399.611 -0.280218 1.41247 0
M  V30 4312 H 401.564 -3.02249 2.93639 0
M  V30 4313 H 400.288 -2.77758 1.71808 0
M  V30 4314 H 398.947 -1.43384 3.37397 0
M  V30 4315 H 398.595 -3.90184 3.17436 0
M  V30 4316 H 398.295 -3.33646 4.83688 0
M  V30 4317 H 399.819 -4.18369 4.44747 0
M  V30 4318 H 401.233 -2.09368 5.33702 0
M  V30 4319 H 399.63 -1.46632 5.8191 0
M  V30 4320 H 400.7 -0.459217 4.82721 0
M  V30 4321 N 402.043 -1.548 -0.295768 0
M  V30 4322 C 403.271 -1.78327 -1.04914 0
M  V30 4323 C 403.686 -0.545316 -1.80753 0
M  V30 4324 O 403.043 0.485013 -1.75937 0
M  V30 4325 C 403.094 -2.99418 -2.02561 0
M  V30 4326 O 402.815 -4.18431 -1.29798 0
M  V30 4327 C 404.316 -3.35375 -2.89895 0
M  V30 4328 H 401.536 -0.594618 -0.310918 0
M  V30 4329 H 404.08 -2.01763 -0.333454 0
M  V30 4330 H 402.235 -2.78175 -2.69624 0
M  V30 4331 H 402.649 -4.86736 -1.95419 0
M  V30 4332 H 404.123 -4.23332 -3.54251 0
M  V30 4333 H 404.6 -2.53761 -3.58472 0
M  V30 4334 H 405.206 -3.58796 -2.28355 0
M  V30 4335 N 403.521 0.559213 -1.47345 0
M  V30 4336 C 404.431 1.69388 -1.62311 0
M  V30 4337 C 405.447 1.6648 -0.505993 0
M  V30 4338 O 406.623 1.85964 -0.773262 0
M  V30 4339 C 403.688 3.05894 -1.63185 0
M  V30 4340 C 402.749 3.19885 -2.86307 0
M  V30 4341 C 401.982 4.49879 -2.87131 0
M  V30 4342 O 402.205 5.35217 -1.97229 0
M  V30 4343 O 401.139 4.67618 -3.78968 0
M  V30 4344 H 404.965 1.59706 -2.58317 0
M  V30 4345 H 402.55 0.728989 -1.30407 0
M  V30 4346 H 404.432 3.87133 -1.66451 0
M  V30 4347 H 403.107 3.15964 -0.70345 0
M  V30 4348 H 402.014 2.38052 -2.88587 0
M  V30 4349 H 403.347 3.14718 -3.78435 0
M  V30 4350 N 404.999 1.35443 0.805782 0
M  V30 4351 C 406.247 1.28507 1.55982 0
M  V30 4352 C 406.568 -0.140046 1.94496 0
M  V30 4353 O 405.838 -1.07666 1.63661 0
M  V30 4354 H 404.418 0.472676 0.578434 0
M  V30 4355 H 407.08 1.69555 0.961098 0
M  V30 4356 H 406.176 1.90148 2.47488 0
M  V30 4357 N 406.477 -1.02803 1.19454 0
M  V30 4358 C 407.407 -2.12999 0.956758 0
M  V30 4359 C 408.388 -1.69743 -0.110188 0
M  V30 4360 O 409.573 -1.94148 0.0450038 0
M  V30 4361 C 406.703 -3.43746 0.495553 0
M  V30 4362 C 405.657 -4.00688 1.50443 0
M  V30 4363 C 404.983 -5.27067 0.900275 0
M  V30 4364 C 406.283 -4.35397 2.8849 0
M  V30 4365 H 407.977 -2.33148 1.87836 0
M  V30 4366 H 405.523 -1.12045 0.904539 0
M  V30 4367 H 407.476 -4.2021 0.316493 0
M  V30 4368 H 406.2 -3.23321 -0.461646 0
M  V30 4369 H 404.859 -3.2632 1.67065 0
M  V30 4370 H 404.507 -5.02959 -0.064503 0
M  V30 4371 H 404.207 -5.66127 1.57397 0
M  V30 4372 H 405.731 -6.06196 0.73203 0
M  V30 4373 H 407.145 -5.02795 2.75446 0
M  V30 4374 H 405.542 -4.85541 3.52661 0
M  V30 4375 H 406.612 -3.44662 3.41081 0
M  V30 4376 N 407.956 -0.998596 -1.21925 0
M  V30 4377 C 408.866 -0.562736 -2.27751 0
M  V30 4378 C 409.882 0.391203 -1.69545 0
M  V30 4379 O 411.058 0.256625 -1.99758 0
M  V30 4380 C 408.123 0.11012 -3.46525 0
M  V30 4381 C 407.184 -0.887495 -4.20026 0
M  V30 4382 C 406.417 -0.246654 -5.3313 0
M  V30 4383 O 406.64 0.958088 -5.62296 0
M  V30 4384 O 405.574 -0.954374 -5.94286 0
M  V30 4385 H 409.4 -1.44329 -2.67213 0
M  V30 4386 H 406.985 -0.767135 -1.28201 0
M  V30 4387 H 408.867 0.486756 -4.18579 0
M  V30 4388 H 407.542 0.965154 -3.08976 0
M  V30 4389 H 406.449 -1.31517 -3.5022 0
M  V30 4390 H 407.782 -1.71191 -4.6147 0
M  V30 4391 N 409.434 1.37368 -0.772513 0
M  V30 4392 C 410.683 1.98918 -0.333861 0
M  V30 4393 C 410.996 1.62017 1.09589 0
M  V30 4394 O 412.202 2.16676 1.63596 0
M  V30 4395 C 410.658 3.55735 -0.545971 0
M  V30 4396 C 410.266 4.01573 -1.98603 0
M  V30 4397 C 412.01 4.24156 -0.170979 0
M  V30 4398 C 409.917 5.51102 -2.1457 0
M  V30 4399 H 408.847 0.744214 -0.121085 0
M  V30 4400 H 411.498 1.56888 -0.95175 0
M  V30 4401 H 409.88 3.95748 0.141387 0
M  V30 4402 H 411.054 3.72803 -2.7084 0
M  V30 4403 H 409.369 3.45937 -2.31769 0
M  V30 4404 H 411.966 5.34024 -0.26878 0
M  V30 4405 H 412.309 4.06917 0.878855 0
M  V30 4406 H 412.842 3.89447 -0.810914 0
M  V30 4407 H 409.581 5.73268 -3.17875 0
M  V30 4408 H 409.101 5.81554 -1.46817 0
M  V30 4409 H 410.78 6.17083 -1.94468 0
M  V30 4410 N 410.912 0.523116 1.48665 0
M  V30 4411 C 411.842 -0.23231 2.32342 0
M  V30 4412 C 412.823 -0.941637 1.41659 0
M  V30 4413 O 414.008 -0.928751 1.70552 0
M  V30 4414 C 411.138 -1.28387 3.22698 0
M  V30 4415 C 410.092 -0.693098 4.22351 0
M  V30 4416 C 409.418 -1.8468 5.01794 0
M  V30 4417 C 410.718 0.33063 5.21252 0
M  V30 4418 H 412.412 0.466192 2.95748 0
M  V30 4419 H 409.958 0.225643 1.42221 0
M  V30 4420 H 411.911 -1.82024 3.80059 0
M  V30 4421 H 410.635 -2.01186 2.57278 0
M  V30 4422 H 409.294 -0.178299 3.66166 0
M  V30 4423 H 408.942 -2.56301 4.32804 0
M  V30 4424 H 408.642 -1.45747 5.69238 0
M  V30 4425 H 410.166 -2.38709 5.62006 0
M  V30 4426 H 411.58 -0.118407 5.73178 0
M  V30 4427 H 409.977 0.636974 5.9671 0
M  V30 4428 H 411.047 1.23883 4.68808 0
M  V30 4429 N 412.39 -1.55475 0.257931 0
M  V30 4430 C 413.615 -2.04064 -0.370488 0
M  V30 4431 C 414.04 -1.13565 -1.49948 0
M  V30 4432 O 413.398 -0.130781 -1.80828 0
M  V30 4433 C 413.446 -3.50554 -0.845237 0
M  V30 4434 O 412.55 -3.63173 -1.95394 0
M  V30 4435 H 411.891 -0.659257 -0.0792243 0
M  V30 4436 H 414.421 -2.00903 0.387212 0
M  V30 4437 H 414.431 -3.91588 -1.14555 0
M  V30 4438 H 413.106 -4.15896 -0.0191259 0
M  V30 4439 H 411.683 -3.34039 -1.65748 0
M  V30 4440 N 413.868 0.0150385 -1.57593 0
M  V30 4441 C 415.116 0.701613 -1.8953 0
M  V30 4442 C 415.437 1.75139 -0.857396 0
M  V30 4443 O 414.707 1.95607 0.107194 0
M  V30 4444 H 413.287 0.26213 -0.699498 0
M  V30 4445 H 415.949 -0.0223304 -1.94887 0
M  V30 4446 H 415.045 1.18236 -2.88837 0
M  V30 4447 N 415.346 1.54954 0.287554 0
M  V30 4448 C 416.294 1.87606 1.37502 0
M  V30 4449 C 417.288 0.751001 1.51843 0
M  V30 4450 O 418.494 0.935169 1.53801 0
M  V30 4451 H 414.869 0.595231 0.459569 0
M  V30 4452 H 416.84 2.78477 1.07206 0
M  V30 4453 C 415.589 2.15183 2.73115 0
M  V30 4454 H 414.912 3.01234 2.62866 0
M  V30 4455 H 416.352 2.4196 3.48183 0
M  V30 4456 C 414.811 0.954686 3.2309 0
M  V30 4457 O 415.341 0.181949 4.01288 0
M  V30 4458 N 413.547 0.756368 2.80584 0
M  V30 4459 H 413.094 1.38643 2.17108 0
M  V30 4460 H 413.052 -0.0430391 3.14371 0
M  V30 4461 N 416.824 -0.551391 1.4764 0
M  V30 4462 C 417.774 -1.65362 1.56969 0
M  V30 4463 C 418.758 -1.55098 0.428189 0
M  V30 4464 O 419.95 -1.63481 0.678441 0
M  V30 4465 C 417.079 -3.04129 1.59249 0
M  V30 4466 C 416.165 -3.19576 2.78804 0
M  V30 4467 N 416.556 -3.05067 4.03445 0
M  V30 4468 C 414.854 -3.50588 2.75688 0
M  V30 4469 C 415.555 -3.2336 4.83543 0
M  V30 4470 N 414.531 -3.4996 4.15968 0
M  V30 4471 H 418.333 -1.52722 2.51104 0
M  V30 4472 H 415.847 -0.756303 1.43714 0
M  V30 4473 H 417.844 -3.83278 1.64024 0
M  V30 4474 H 416.504 -3.17877 0.662148 0
M  V30 4475 H 417.515 -2.82273 4.34215 0
M  V30 4476 H 414.192 -3.70827 1.91817 0
M  V30 4477 H 415.582 -3.17061 5.92387 0
M  V30 4478 N 418.302 -1.35869 -0.798587 0
M  V30 4479 C 419.549 -1.29588 -1.55606 0
M  V30 4480 C 419.877 0.127456 -1.94082 0
M  V30 4481 O 419.132 1.09461 -1.62225 0
M  V30 4482 C 419.431 -2.1556 -2.85077 0
M  V30 4483 C 419.097 -3.6424 -2.65781 0
M  V30 4484 C 417.759 -4.04766 -2.60227 0
M  V30 4485 C 420.111 -4.58547 -2.47758 0
M  V30 4486 C 417.439 -5.37753 -2.34603 0
M  V30 4487 C 419.791 -5.91742 -2.23662 0
M  V30 4488 C 418.455 -6.31402 -2.16534 0
M  V30 4489 H 417.725 -0.474197 -0.569402 0
M  V30 4490 H 420.372 -1.67839 -0.922086 0
M  V30 4491 H 418.677 -1.70216 -3.52893 0
M  V30 4492 H 420.374 -2.08031 -3.42818 0
M  V30 4493 H 416.964 -3.32086 -2.70956 0
M  V30 4494 H 421.148 -4.28117 -2.51056 0
M  V30 4495 H 416.404 -5.67474 -2.2756 0
M  V30 4496 H 420.578 -6.6439 -2.08708 0
M  V30 4497 H 418.205 -7.34381 -1.96441 0
M  V30 4498 N 419.78 1.02168 -1.19998 0
M  V30 4499 C 421.005 1.79833 -1.03319 0
M  V30 4500 C 421.43 1.83504 0.413281 0
M  V30 4501 O 420.788 1.26635 1.29743 0
M  V30 4502 C 420.836 3.22396 -1.61533 0
M  V30 4503 O 419.94 4.03555 -0.849519 0
M  V30 4504 H 419.281 0.554872 -0.364709 0
M  V30 4505 H 421.811 1.28542 -1.59179 0
M  V30 4506 H 421.821 3.73124 -1.65054 0
M  V30 4507 H 420.496 3.19039 -2.66809 0
M  V30 4508 H 419.073 3.62169 -0.888129 0
M  V30 4509 N 421.258 1.00505 1.21394 0
M  V30 4510 C 422.535 0.603277 1.86064 0
M  V30 4511 C 422.915 -0.919095 1.90042 0
M  V30 4512 O 422.263 -1.80607 1.39977 0
M  V30 4513 C 422.473 1.23772 3.26315 0
M  V30 4514 C 423.821 1.34586 4.02705 0
M  V30 4515 O 424.845 1.19304 3.35626 0
M  V30 4516 O 423.704 1.59169 5.22807 0
M  V30 4517 H 420.798 0.206634 0.800769 0
M  V30 4518 H 423.344 1.1017 1.29076 0
M  V30 4519 H 422.116 2.27848 3.18121 0
M  V30 4520 H 421.739 0.725648 3.90922 0
M  V30 4521 N 422.737 -1.36956 0.779787 0
M  V30 4522 C 423.977 -2.01328 0.353043 0
M  V30 4523 C 424.341 -1.60558 -1.05286 0
M  V30 4524 O 425.542 -2.1745 -1.58016 0
M  V30 4525 C 423.813 -3.53874 0.500822 0
M  V30 4526 S 425.372 -4.38506 0.16053 0
M  V30 4527 H 422.19 -0.69799 0.13539 0
M  V30 4528 H 424.792 -1.67016 1.01617 0
M  V30 4529 H 423.496 -3.81034 1.52451 0
M  V30 4530 H 423.027 -3.92994 -0.178574 0
M  V30 4531 H 425.042 -4.85153 -1.04121 0
M  V30 4532 N 424.215 -0.530993 -1.48385 0
M  V30 4533 C 425.165 0.251092 -2.26613 0
M  V30 4534 C 426.149 0.908977 -1.32765 0
M  V30 4535 O 427.341 0.811616 -1.57295 0
M  V30 4536 C 424.47 1.29677 -3.17866 0
M  V30 4537 C 423.556 0.643627 -4.19188 0
M  V30 4538 N 423.947 -0.271223 -5.05072 0
M  V30 4539 C 422.245 0.900711 -4.3681 0
M  V30 4540 C 422.946 -0.648109 -5.78078 0
M  V30 4541 N 421.922 -0.00895987 -5.43599 0
M  V30 4542 H 425.724 -0.452702 -2.90393 0
M  V30 4543 H 423.238 -0.349091 -1.58604 0
M  V30 4544 H 425.235 1.87079 -3.72568 0
M  V30 4545 H 423.895 2.00193 -2.55642 0
M  V30 4546 H 424.906 -0.643883 -5.13882 0
M  V30 4547 H 421.583 1.59636 -3.85775 0
M  V30 4548 H 422.973 -1.39833 -6.57188 0
M  V30 4549 N 425.693 1.55336 -0.266172 0
M  V30 4550 C 426.939 1.99692 0.353681 0
M  V30 4551 C 427.272 1.1543 1.56172 0
M  V30 4552 O 426.547 0.222218 1.93226 0
M  V30 4553 C 426.83 3.52316 0.74466 0
M  V30 4554 C 426.683 4.47337 -0.470101 0
M  V30 4555 C 428.002 4.10588 1.58447 0
M  V30 4556 H 425.121 0.725961 0.12708 0
M  V30 4557 H 427.763 1.86336 -0.371333 0
M  V30 4558 H 425.913 3.63829 1.36239 0
M  V30 4559 H 427.585 4.4778 -1.10864 0
M  V30 4560 H 425.828 4.19364 -1.10978 0
M  V30 4561 H 426.499 5.51788 -0.15291 0
M  V30 4562 H 428.975 4.02297 1.06286 0
M  V30 4563 H 427.851 5.17607 1.82686 0
M  V30 4564 H 428.112 3.60253 2.56262 0
M  V30 4565 N 427.171 -0.0066808 1.57599 0
M  V30 4566 C 428.134 -0.985035 2.06953 0
M  V30 4567 C 429.134 -1.27663 0.977687 0
M  V30 4568 O 430.324 -1.22293 1.24057 0
M  V30 4569 C 427.456 -2.3118 2.50536 0
M  V30 4570 H 428.649 -0.558255 2.94658 0
M  V30 4571 H 426.202 -0.254011 1.54222 0
M  V30 4572 H 426.937 -2.78561 1.66054 0
M  V30 4573 H 426.722 -2.11338 3.3027 0
M  V30 4574 H 428.212 -3.01377 2.8907 0
M  V30 4575 N 428.649 -1.55105 -0.279332 0
M  V30 4576 C 429.895 -1.76597 -1.00921 0
M  V30 4577 C 430.25 -0.556831 -1.84166 0
M  V30 4578 O 429.543 0.450573 -1.86227 0
M  V30 4579 C 429.737 -3.0086 -1.92919 0
M  V30 4580 C 429.566 -4.33744 -1.18728 0
M  V30 4581 C 428.336 -4.9712 -0.905545 0
M  V30 4582 C 430.534 -5.11009 -0.580857 0
M  V30 4583 N 428.516 -6.13749 -0.136169 0
M  V30 4584 C 429.887 -6.19976 0.0546661 0
M  V30 4585 C 431.942 -4.95502 -0.488067 0
M  V30 4586 C 430.645 -7.15123 0.774028 0
M  V30 4587 C 432.671 -5.90999 0.217688 0
M  V30 4588 C 432.033 -6.9935 0.841975 0
M  V30 4589 H 428.132 -0.698553 -0.351493 0
M  V30 4590 H 430.716 -1.92595 -0.285531 0
M  V30 4591 H 428.887 -2.86249 -2.62519 0
M  V30 4592 H 430.619 -3.10784 -2.59221 0
M  V30 4593 H 427.374 -4.57903 -1.20921 0
M  V30 4594 H 427.798 -6.7659 0.235665 0
M  V30 4595 H 432.44 -4.11841 -0.956406 0
M  V30 4596 H 430.158 -7.9831 1.25407 0
M  V30 4597 H 433.744 -5.81078 0.289717 0
M  V30 4598 H 432.624 -7.71973 1.37939 0
M  V30 4599 N 430.127 0.543554 -1.4793 0
M  V30 4600 C 431.373 1.30201 -1.55485 0
M  V30 4601 C 431.706 1.92925 -0.222201 0
M  V30 4602 O 430.981 1.78586 0.77053 0
M  V30 4603 C 431.264 2.40174 -2.68307 0
M  V30 4604 C 431.117 1.8223 -4.11233 0
M  V30 4605 C 432.436 3.42024 -2.76961 0
M  V30 4606 H 429.555 0.472036 -0.565996 0
M  V30 4607 H 432.197 0.606914 -1.80046 0
M  V30 4608 H 430.347 2.99463 -2.47495 0
M  V30 4609 H 432.019 1.27096 -4.43446 0
M  V30 4610 H 430.262 1.12832 -4.18869 0
M  V30 4611 H 430.933 2.61793 -4.85972 0
M  V30 4612 H 433.409 2.92672 -2.95774 0
M  V30 4613 H 432.285 4.16383 -3.57654 0
M  V30 4614 H 432.546 4.0173 -1.84568 0
M  V30 4615 N 431.605 1.3629 0.791371 0
M  V30 4616 C 432.83 1.33726 1.58531 0
M  V30 4617 C 433.255 -0.0794933 1.87932 0
M  V30 4618 O 432.613 -1.05087 1.47738 0
M  V30 4619 C 432.661 2.16425 2.88431 0
M  V30 4620 O 431.765 1.5554 3.81944 0
M  V30 4621 H 431.106 0.457793 0.480959 0
M  V30 4622 H 433.636 1.79547 0.981031 0
M  V30 4623 H 433.646 2.28933 3.37718 0
M  V30 4624 H 432.321 3.19415 2.66359 0
M  V30 4625 H 430.898 1.51961 3.40532 0
M  V30 4626 N 433.083 -1.0153 1.20538 0
M  V30 4627 C 434.046 -2.0826 0.957098 0
M  V30 4628 C 435.046 -1.60657 -0.0678655 0
M  V30 4629 O 436.236 -1.73385 0.168332 0
M  V30 4630 C 433.368 -3.38033 0.441188 0
M  V30 4631 H 434.561 -2.31719 1.90384 0
M  V30 4632 H 432.114 -1.1835 1.02093 0
M  V30 4633 H 432.849 -3.20249 -0.510961 0
M  V30 4634 H 432.634 -3.73911 1.18038 0
M  V30 4635 H 434.124 -4.16613 0.287009 0
M  V30 4636 N 434.561 -1.01147 -1.20859 0
M  V30 4637 C 435.493 -0.535546 -2.22855 0
M  V30 4638 C 436.506 0.379323 -1.58319 0
M  V30 4639 O 437.695 0.178489 -1.77605 0
M  V30 4640 C 434.795 0.240962 -3.38042 0
M  V30 4641 C 433.968 -0.674562 -4.32167 0
M  V30 4642 C 433.027 0.053467 -5.26173 0
M  V30 4643 O 432.053 -0.567339 -5.66366 0
M  V30 4644 N 433.255 1.32997 -5.65059 0
M  V30 4645 H 436.02 -1.41268 -2.64317 0
M  V30 4646 H 433.581 -0.888386 -1.35349 0
M  V30 4647 H 435.573 0.737115 -3.97931 0
M  V30 4648 H 434.143 1.01935 -2.95513 0
M  V30 4649 H 433.363 -1.35111 -3.70322 0
M  V30 4650 H 434.651 -1.2974 -4.91981 0
M  V30 4651 H 434.049 1.85536 -5.34409 0
M  V30 4652 H 432.606 1.77095 -6.2728 0
M  V30 4653 N 436.039 1.36541 -0.78704 0
M  V30 4654 C 437.002 2.28413 -0.189778 0
M  V30 4655 C 438.002 1.48719 0.611499 0
M  V30 4656 O 439.192 1.68737 0.432842 0
M  V30 4657 C 436.324 3.32824 0.737638 0
M  V30 4658 H 437.517 2.82743 -0.999831 0
M  V30 4659 H 435.07 1.46065 -0.556298 0
M  V30 4660 H 435.805 2.83646 1.57212 0
M  V30 4661 H 435.59 3.91752 0.165044 0
M  V30 4662 H 437.08 4.0144 1.15047 0
M  V30 4663 N 437.518 0.538854 1.48102 0
M  V30 4664 C 438.934 0.19732 1.58376 0
M  V30 4665 C 439.134 -1.29971 1.5398 0
M  V30 4666 O 438.19 -2.07861 1.43352 0
M  V30 4667 C 439.503 0.807716 2.89649 0
M  V30 4668 C 441.051 0.77726 3.03196 0
M  V30 4669 C 441.526 1.36639 4.37143 0
M  V30 4670 N 443.017 1.32875 4.43732 0
M  V30 4671 C 443.752 1.7544 5.45901 0
M  V30 4672 N 443.248 2.25776 6.54979 0
M  V30 4673 N 445.041 1.66623 5.36836 0
M  V30 4674 H 437.192 1.5117 1.49202 0
M  V30 4675 H 439.455 0.629327 0.708979 0
M  V30 4676 H 439.161 1.85909 2.98548 0
M  V30 4677 H 439.035 0.289975 3.76084 0
M  V30 4678 H 441.422 -0.265374 2.93904 0
M  V30 4679 H 441.503 1.33256 2.18349 0
M  V30 4680 H 441.147 2.408 4.47189 0
M  V30 4681 H 441.077 0.786689 5.20691 0
M  V30 4682 H 443.568 0.96037 3.65493 0
M  V30 4683 H 443.881 2.56226 7.29087 0
M  V30 4684 H 442.226 2.29775 6.55918 0
M  V30 4685 H 445.417 1.27089 4.50517 0
M  V30 4686 H 445.59 2.00115 6.16326 0
M  V30 4687 N 438.996 -1.55193 0.274407 0
M  V30 4688 C 439.944 -2.23924 -0.629362 0
M  V30 4689 C 440.938 -1.23602 -1.1584 0
M  V30 4690 O 442.144 -1.41535 -1.11211 0
M  V30 4691 H 438.519 -0.718637 -0.221507 0
M  V30 4692 H 440.49 -2.98388 -0.0268322 0
M  V30 4693 C 439.239 -2.97329 -1.80252 0
M  V30 4694 H 438.562 -3.74313 -1.40462 0
M  V30 4695 H 440.002 -3.48743 -2.41152 0
M  V30 4696 C 438.461 -2.0276 -2.69054 0
M  V30 4697 O 438.991 -1.57836 -3.69392 0
M  V30 4698 N 437.197 -1.69275 -2.36208 0
M  V30 4699 H 436.744 -2.06004 -1.54661 0
M  V30 4700 H 436.702 -1.06271 -2.95895 0
M  V30 4701 N 440.474 -0.00167713 -1.576 0
M  V30 4702 C 441.384 1.00548 -2.1196 0
M  V30 4703 C 442.4 1.3758 -1.06526 0
M  V30 4704 O 443.576 1.46278 -1.38436 0
M  V30 4705 C 440.641 2.27809 -2.6135 0
M  V30 4706 C 439.702 1.97074 -3.81393 0
M  V30 4707 C 438.935 3.18267 -4.28417 0
M  V30 4708 O 439.158 4.30009 -3.74765 0
M  V30 4709 O 438.092 3.02167 -5.20556 0
M  V30 4710 H 441.918 0.573373 -2.98238 0
M  V30 4711 H 439.503 0.217255 -1.47812 0
M  V30 4712 H 441.385 3.02568 -2.93309 0
M  V30 4713 H 440.06 2.70254 -1.78169 0
M  V30 4714 H 438.967 1.19785 -3.54404 0
M  V30 4715 H 440.3 1.59464 -4.65652 0
M  V30 4716 N 441.952 1.55251 0.271103 0
M  V30 4717 C 443.18 1.79974 1.02064 0
M  V30 4718 C 443.595 0.574003 1.79863 0
M  V30 4719 O 442.952 -0.456962 1.76686 0
M  V30 4720 C 443.003 3.02603 1.97772 0
M  V30 4721 O 442.724 4.20443 1.23124 0
M  V30 4722 C 444.225 3.39944 2.84522 0
M  V30 4723 H 441.445 0.599489 0.301419 0
M  V30 4724 H 443.989 2.02268 0.301313 0
M  V30 4725 H 442.144 2.8243 2.65165 0
M  V30 4726 H 442.558 4.89783 1.87651 0
M  V30 4727 H 444.032 4.28915 3.47471 0
M  V30 4728 H 444.509 2.59432 3.54389 0
M  V30 4729 H 445.115 3.62383 2.22618 0
M  V30 4730 N 443.43 -0.535701 1.48216 0
M  V30 4731 C 444.679 -1.28828 1.55197 0
M  V30 4732 C 444.992 -1.94263 0.228278 0
M  V30 4733 O 446.198 -2.70927 0.176278 0
M  V30 4734 C 444.654 -2.33727 2.73678 0
M  V30 4735 C 444.262 -1.74386 4.12666 0
M  V30 4736 C 446.006 -3.1003 2.89968 0
M  V30 4737 C 443.913 -2.77192 5.22416 0
M  V30 4738 H 442.843 -0.484484 0.577747 0
M  V30 4739 H 445.494 -0.56646 1.74538 0
M  V30 4740 H 443.876 -3.08919 2.4776 0
M  V30 4741 H 445.05 -1.05421 4.48579 0
M  V30 4742 H 443.365 -1.10595 4.01445 0
M  V30 4743 H 445.962 -3.86842 3.6913 0
M  V30 4744 H 446.305 -3.65542 1.9921 0
M  V30 4745 H 446.838 -2.41952 3.15759 0
M  V30 4746 H 443.577 -2.26507 6.15122 0
M  V30 4747 H 443.097 -3.44502 4.90998 0
M  V30 4748 H 444.776 -3.40285 5.50286 0
M  V30 4749 N 444.908 -1.36708 -0.784132 0
M  V30 4750 C 445.871 -1.31307 -1.87859 0
M  V30 4751 C 446.871 -0.219654 -1.59293 0
M  V30 4752 O 448.061 -0.47476 -1.67606 0
M  V30 4753 C 445.193 -1.03679 -3.24751 0
M  V30 4754 H 446.386 -2.28647 -1.94064 0
M  V30 4755 H 443.939 -1.21558 -0.98252 0
M  V30 4756 H 444.674 -0.0681936 -3.24228 0
M  V30 4757 H 444.459 -1.82811 -3.46876 0
M  V30 4758 H 445.949 -1.02518 -4.04821 0
M  V30 4759 N 446.386 1.0089 -1.21074 0
M  V30 4760 C 447.802 1.2695 -0.967257 0
M  V30 4761 C 448.002 1.9846 0.348673 0
M  V30 4762 O 447.058 2.28459 1.0753 0
M  V30 4763 C 448.371 2.09697 -2.15517 0
M  V30 4764 C 449.919 2.22937 -2.197 0
M  V30 4765 C 450.394 3.09064 -3.37999 0
M  V30 4766 N 451.885 3.16653 -3.38061 0
M  V30 4767 C 452.62 3.8354 -4.26245 0
M  V30 4768 N 452.116 4.52488 -5.2462 0
M  V30 4769 N 453.909 3.80141 -4.14064 0
M  V30 4770 H 446.06 0.529005 -2.05707 0
M  V30 4771 H 448.323 0.296148 -0.900556 0
M  V30 4772 H 448.029 1.64497 -3.10859 0
M  V30 4773 H 447.903 3.10444 -2.14253 0
M  V30 4774 H 450.29 2.67357 -1.24916 0
M  V30 4775 H 450.371 1.21673 -2.2501 0
M  V30 4776 H 450.015 2.65347 -4.33074 0
M  V30 4777 H 449.945 4.10433 -3.29928 0
M  V30 4778 H 452.436 2.67566 -2.66865 0
M  V30 4779 H 452.749 5.01219 -5.88217 0
M  V30 4780 H 451.094 4.51288 -5.28549 0
M  V30 4781 H 454.285 3.25427 -3.36474 0
M  V30 4782 H 454.458 4.31992 -4.82998 0
M  V30 4783 N 447.864 1.01787 1.20321 0
M  V30 4784 C 449.28 0.732951 1.41774 0
M  V30 4785 C 449.48 -0.686883 1.89431 0
M  V30 4786 O 448.536 -1.45446 2.06402 0
M  V30 4787 C 449.849 1.75973 2.43832 0
M  V30 4788 C 451.397 1.77802 2.57596 0
M  V30 4789 C 451.872 2.7941 3.62897 0
M  V30 4790 N 453.363 2.78157 3.70382 0
M  V30 4791 C 454.098 3.53434 4.51521 0
M  V30 4792 N 453.594 4.38392 5.36455 0
M  V30 4793 N 455.387 3.42026 4.46066 0
M  V30 4794 H 447.538 1.93447 0.877035 0
M  V30 4795 H 449.801 0.835712 0.447536 0
M  V30 4796 H 449.507 2.77699 2.15815 0
M  V30 4797 H 449.381 1.57292 3.4284 0
M  V30 4798 H 451.768 0.767602 2.84942 0
M  V30 4799 H 451.849 2.00557 1.58779 0
M  V30 4800 H 451.493 3.80616 3.36295 0
M  V30 4801 H 451.423 2.53916 4.61339 0
M  V30 4802 H 453.914 2.16531 3.09714 0
M  V30 4803 H 454.227 4.92596 5.95457 0
M  V30 4804 H 452.572 4.4247 5.35953 0
M  V30 4805 H 455.763 2.75075 3.78749 0
M  V30 4806 H 455.936 4.00946 5.09064 0
M  V30 4807 N 449.342 -1.36122 0.79427 0
M  V30 4808 C 450.272 -2.32551 0.210328 0
M  V30 4809 C 451.253 -1.56884 -0.657386 0
M  V30 4810 O 452.438 -1.85014 -0.590207 0
M  V30 4811 C 449.568 -3.41128 -0.651819 0
M  V30 4812 C 448.522 -4.27842 0.116395 0
M  V30 4813 C 447.848 -5.2763 -0.86666 0
M  V30 4814 C 449.148 -5.05647 1.30837 0
M  V30 4815 H 450.842 -2.81636 1.01594 0
M  V30 4816 H 448.388 -1.35407 0.489981 0
M  V30 4817 H 450.341 -4.07581 -1.07031 0
M  V30 4818 H 449.065 -2.90622 -1.49019 0
M  V30 4819 H 447.724 -3.62952 0.515915 0
M  V30 4820 H 447.372 -4.73395 -1.70019 0
M  V30 4821 H 447.072 -5.86514 -0.35705 0
M  V30 4822 H 448.596 -5.96955 -1.28361 0
M  V30 4823 H 450.01 -5.65113 0.965393 0
M  V30 4824 H 448.407 -5.73967 1.75161 0
M  V30 4825 H 449.477 -4.37006 2.10128 0
M  V30 4826 N 450.82 -0.546701 -1.47814 0
M  V30 4827 C 452.066 -0.0269594 -2.03382 0
M  V30 4828 C 452.421 1.30406 -1.41464 0
M  V30 4829 O 451.714 1.8332 -0.557151 0
M  V30 4830 C 451.908 0.134869 -3.57145 0
M  V30 4831 C 451.737 -1.17891 -4.33972 0
M  V30 4832 C 450.507 -1.74336 -4.74273 0
M  V30 4833 C 452.705 -2.09361 -4.69758 0
M  V30 4834 N 450.687 -2.99829 -5.35701 0
M  V30 4835 C 452.058 -3.19431 -5.31379 0
M  V30 4836 C 454.113 -2.09484 -4.51687 0
M  V30 4837 C 452.816 -4.2971 -5.76838 0
M  V30 4838 C 454.842 -3.18767 -4.98138 0
M  V30 4839 C 454.204 -4.27557 -5.59799 0
M  V30 4840 H 450.303 -0.0517733 -0.780284 0
M  V30 4841 H 452.887 -0.731673 -1.80429 0
M  V30 4842 H 451.058 0.80869 -3.79888 0
M  V30 4843 H 452.79 0.655726 -3.99352 0
M  V30 4844 H 449.545 -1.28265 -4.559 0
M  V30 4845 H 449.969 -3.63765 -5.70968 0
M  V30 4846 H 454.611 -1.26663 -4.03381 0
M  V30 4847 H 452.329 -5.13297 -6.24141 0
M  V30 4848 H 455.915 -3.19937 -4.85934 0
M  V30 4849 H 454.795 -5.10725 -5.95088 0
M  V30 4850 N 452.299 1.55045 -0.282633 0
M  V30 4851 C 453.576 1.9179 0.384166 0
M  V30 4852 C 453.956 1.20778 1.73136 0
M  V30 4853 O 453.304 0.33719 2.25998 0
M  V30 4854 C 453.514 3.45149 0.517014 0
M  V30 4855 C 454.862 4.17064 0.796427 0
M  V30 4856 O 455.886 3.51084 0.601535 0
M  V30 4857 O 454.745 5.33837 1.16962 0
M  V30 4858 H 451.839 0.799483 0.211558 0
M  V30 4859 H 454.385 1.66474 -0.32934 0
M  V30 4860 H 453.157 3.88922 -0.430772 0
M  V30 4861 H 452.78 3.76443 1.2797 0
M  V30 4862 N 453.777 0.010035 1.57597 0
M  V30 4863 C 455.023 -0.673697 1.91283 0
M  V30 4864 C 455.356 -1.72863 0.884979 0
M  V30 4865 O 454.631 -1.94268 -0.0949487 0
M  V30 4866 C 454.914 -1.30766 3.35518 0
M  V30 4867 C 454.767 -0.263578 4.49027 0
M  V30 4868 C 456.086 -2.23105 3.79358 0
M  V30 4869 H 453.205 -0.243439 0.695634 0
M  V30 4870 H 455.847 0.0633864 1.89894 0
M  V30 4871 H 453.997 -1.93588 3.36832 0
M  V30 4872 H 455.669 0.365738 4.59848 0
M  V30 4873 H 453.912 0.413077 4.31829 0
M  V30 4874 H 454.583 -0.746398 5.4693 0
M  V30 4875 H 457.059 -1.70289 3.79659 0
M  V30 4876 H 455.935 -2.64424 4.81011 0
M  V30 4877 H 456.196 -3.11433 3.13787 0
M  V30 4878 N 455.255 -1.55392 -0.262866 0
M  V30 4879 C 456.48 -1.80847 -1.01533 0
M  V30 4880 C 456.905 -0.584946 -1.78774 0
M  V30 4881 O 456.263 0.465701 -1.75217 0
M  V30 4882 C 456.311 -3.03866 -1.94159 0
M  V30 4883 O 455.415 -2.79662 -3.03089 0
M  V30 4884 H 454.756 -0.597441 -0.289759 0
M  V30 4885 H 457.286 -2.02553 -0.288698 0
M  V30 4886 H 457.296 -3.32872 -2.35924 0
M  V30 4887 H 455.971 -3.92564 -1.37354 0
M  V30 4888 H 454.548 -2.61781 -2.65566 0
M  V30 4889 N 456.733 0.527833 -1.48498 0
M  V30 4890 C 457.973 1.29401 -1.58224 0
M  V30 4891 C 458.337 1.90348 -0.251327 0
M  V30 4892 O 459.538 2.67868 -0.223588 0
M  V30 4893 C 457.809 2.35266 -2.69044 0
M  V30 4894 S 459.368 3.2158 -2.98549 0
M  V30 4895 H 456.186 0.440138 -0.558391 0
M  V30 4896 H 458.788 0.601079 -1.8603 0
M  V30 4897 H 457.492 1.88975 -3.64303 0
M  V30 4898 H 457.023 3.09263 -2.43146 0
M  V30 4899 H 459.038 4.35391 -2.38011 0
M  V30 4900 N 458.211 1.37122 0.776871 0
M  V30 4901 C 459.488 1.22586 1.52421 0
M  V30 4902 C 459.868 -0.182726 2.10308 0
M  V30 4903 O 459.216 -1.18979 1.9508 0
M  V30 4904 C 459.426 2.31782 2.60918 0
M  V30 4905 C 460.774 2.69071 3.2846 0
M  V30 4906 O 461.798 2.3092 2.71209 0
M  V30 4907 O 460.657 3.3478 4.31954 0
M  V30 4908 H 457.751 0.478045 0.674835 0
M  V30 4909 H 460.297 1.48888 0.814275 0
M  V30 4910 H 459.069 3.26131 2.16227 0
M  V30 4911 H 458.692 2.06916 3.39517 0
M  V30 4912 N 459.689 -1.00246 1.21608 0
M  V30 4913 C 460.619 -2.10921 1.00172 0
M  V30 4914 C 461.6 -1.69938 -0.0741587 0
M  V30 4915 O 462.785 -1.94009 0.0861753 0
M  V30 4916 C 459.915 -3.42618 0.568355 0
M  V30 4917 C 458.869 -3.97407 1.58909 0
M  V30 4918 C 458.195 -5.25038 1.01187 0
M  V30 4919 C 459.495 -4.2918 2.97661 0
M  V30 4920 H 461.189 -2.29112 1.92739 0
M  V30 4921 H 458.735 -1.10101 0.928102 0
M  V30 4922 H 460.688 -4.19444 0.405555 0
M  V30 4923 H 459.412 -3.24227 -0.392961 0
M  V30 4924 H 458.071 -3.22703 1.73949 0
M  V30 4925 H 457.719 -5.02982 0.0421965 0
M  V30 4926 H 457.419 -5.62661 1.6937 0
M  V30 4927 H 458.943 -6.04507 0.860448 0
M  V30 4928 H 460.357 -4.96839 2.86049 0
M  V30 4929 H 458.754 -4.77952 3.6288 0
M  V30 4930 H 459.824 -3.3735 3.48315 0
M  V30 4931 N 461.167 -1.02423 -1.1978 0
M  V30 4932 C 462.097 -0.62157 -2.25075 0
M  V30 4933 C 463.078 0.367148 -1.6609 0
M  V30 4934 O 464.263 0.250892 -1.92573 0
M  V30 4935 C 461.393 0.0331826 -3.47284 0
M  V30 4936 C 460.347 -0.877323 -4.18912 0
M  V30 4937 C 459.673 -0.0879296 -5.34628 0
M  V30 4938 C 460.973 -2.18892 -4.74219 0
M  V30 4939 H 462.667 -1.50179 -2.59011 0
M  V30 4940 H 460.213 -0.723547 -1.24502 0
M  V30 4941 H 462.166 0.326488 -4.20133 0
M  V30 4942 H 460.89 0.948164 -3.12534 0
M  V30 4943 H 459.549 -1.15475 -3.47938 0
M  V30 4944 H 459.197 0.828941 -4.96123 0
M  V30 4945 H 458.897 -0.694359 -5.83483 0
M  V30 4946 H 460.421 0.198743 -6.10276 0
M  V30 4947 H 461.835 -1.95746 -5.38847 0
M  V30 4948 H 460.232 -2.74686 -5.33542 0
M  V30 4949 H 461.302 -2.84674 -3.92541 0
M  V30 4950 N 462.645 1.35699 -0.801477 0
M  V30 4951 C 463.893 1.9852 -0.37871 0
M  V30 4952 C 464.214 1.63907 1.05638 0
M  V30 4953 O 463.484 0.919013 1.73006 0
M  V30 4954 H 462.064 0.734322 -0.137042 0
M  V30 4955 H 464.726 1.65697 -1.02619 0
M  V30 4956 H 463.822 3.08382 -0.480284 0
M  V30 4957 N 464.123 0.554532 1.47522 0
M  V30 4958 C 465.053 -0.182974 2.32782 0
M  V30 4959 C 466.034 -0.911377 1.43624 0
M  V30 4960 O 467.219 -0.892366 1.72483 0
M  V30 4961 C 464.349 -1.21513 3.25349 0
M  V30 4962 C 463.303 -0.603355 4.23726 0
M  V30 4963 C 462.629 -1.73995 5.05598 0
M  V30 4964 C 463.929 0.441121 5.20434 0
M  V30 4965 H 465.623 0.52882 2.94693 0
M  V30 4966 H 463.169 0.255759 1.41711 0
M  V30 4967 H 465.122 -1.73922 3.83835 0
M  V30 4968 H 463.846 -1.95683 2.61487 0
M  V30 4969 H 462.505 -0.10059 3.66462 0
M  V30 4970 H 462.153 -2.47063 4.38143 0
M  V30 4971 H 461.853 -1.3364 5.72201 0
M  V30 4972 H 463.377 -2.26735 5.66942 0
M  V30 4973 H 464.791 0.00319931 5.733 0
M  V30 4974 H 463.188 0.763402 5.95224 0
M  V30 4975 H 464.258 1.33799 4.66075 0
M  V30 4976 N 465.601 -1.54893 0.290851 0
M  V30 4977 C 467.012 -1.85584 -0.203816 0
M  V30 4978 C 467.363 -1.21285 -1.54222 0
M  V30 4979 O 466.488 -0.506841 -2.10381 0
M  V30 4980 C 467.083 -3.367 -0.376595 0
M  V30 4981 C 465.642 -3.6746 -0.815485 0
M  V30 4982 C 464.789 -2.77178 0.0821087 0
M  V30 4983 H 467.74 -1.50208 0.512175 0
M  V30 4984 H 467.761 -3.60656 -1.21275 0
M  V30 4985 H 467.273 -3.8347 0.59767 0
M  V30 4986 H 465.374 -3.26201 -1.80066 0
M  V30 4987 H 465.487 -4.7478 -0.641905 0
M  V30 4988 H 463.851 -2.50925 -0.436895 0
M  V30 4989 H 464.634 -3.26767 1.05254 0
M  V30 4990 N 467.08 -0.0183926 -1.57589 0
M  V30 4991 C 468.329 0.66185 -1.90532 0
M  V30 4992 C 468.642 1.73904 -0.895366 0
M  V30 4993 O 469.848 2.47518 -1.11566 0
M  V30 4994 C 468.304 1.22844 -3.38286 0
M  V30 4995 C 467.912 0.185103 -4.47617 0
M  V30 4996 C 469.656 1.88581 -3.80312 0
M  V30 4997 C 467.563 0.762723 -5.86461 0
M  V30 4998 H 466.493 0.250972 -0.711006 0
M  V30 4999 H 469.144 -0.0819435 -1.83317 0
M  V30 5000 H 467.526 2.0235 -3.40398 0
M  V30 5001 H 468.7 -0.58671 -4.5705 0
M  V30 5002 H 467.015 -0.372889 -4.14727 0
M  V30 5003 H 469.612 2.32735 -4.81392 0
M  V30 5004 H 469.955 2.72408 -3.14801 0
M  V30 5005 H 470.488 1.15782 -3.80578 0
M  V30 5006 H 467.227 -0.0371713 -6.55489 0
M  V30 5007 H 466.747 1.50327 -5.80656 0
M  V30 5008 H 468.426 1.25576 -6.34697 0
M  V30 5009 N 468.558 1.5553 0.254621 0
M  V30 5010 C 469.835 1.6774 1.00611 0
M  V30 5011 C 470.215 0.555993 2.03647 0
M  V30 5012 O 469.563 -0.441583 2.24193 0
M  V30 5013 C 469.773 3.07725 1.6464 0
M  V30 5014 C 471.121 3.66074 2.15116 0
M  V30 5015 O 472.145 3.10476 1.74595 0
M  V30 5016 O 471.004 4.63526 2.89493 0
M  V30 5017 H 468.098 0.681958 0.467828 0
M  V30 5018 H 470.644 1.67863 0.24902 0
M  V30 5019 H 469.416 3.80792 0.900734 0
M  V30 5020 H 469.039 3.1158 2.46989 0
M  V30 5021 O 470.075 -0.400303 1.5646 0
M  V30 5022 H 470.766 -1.05256 1.62607 0
M  V30 END ATOM
M  V30 BEGIN BOND
M  V30 END BOND
M  V30 END CTAB
M  END
$$$$
