drugbank_target|P28566 5-hydroxytryptamine receptor 1E (DB00246; DB00247; DB00315; DB00363; DB00408; DB01224; DB01238; DB14185)
 OpenBabel12092119323D

  0  0  0     0  0            999 V3000
M  V30 BEGIN CTAB
M  V30 COUNTS 5951 6021 0 0 0
M  V30 BEGIN ATOM
M  V30 1 H -0.908 1.98254 -0.117106 0
M  V30 2 N 0 1.576 0 0
M  V30 3 C 0.933 2.03868 1.02534 0
M  V30 4 C 1.911 0.928543 1.3348 0
M  V30 5 O 3.095 1.19667 1.45644 0
M  V30 6 C 0.222 2.43627 2.35294 0
M  V30 7 C -0.732 3.65373 2.2001 0
M  V30 8 S 0.101 5.13292 1.52614 0
M  V30 9 C 1.257 5.56322 2.86805 0
M  V30 10 H 1.49 2.90518 0.631377 0
M  V30 11 H -0.977 1.52953 0.210867 0
M  V30 12 H 0.981 2.67203 3.11629 0
M  V30 13 H -0.358 1.57376 2.7183 0
M  V30 14 H -1.165 3.90944 3.18086 0
M  V30 15 H -1.563 3.418 1.51819 0
M  V30 16 H 0.729 5.58782 3.83104 0
M  V30 17 H 1.672 6.56266 2.65933 0
M  V30 18 H 2.08 4.83886 2.90714 0
M  V30 19 N 1.4781 -0.272755 1.55222 0
M  V30 20 C 2.4261 -1.35705 1.88909 0
M  V30 21 C 3.4201 -1.5112 0.765456 0
M  V30 22 O 4.6261 -1.52901 0.949802 0
M  V30 23 H 1.0011 -0.453868 0.59959 0
M  V30 24 H 2.9721 -1.04544 2.79487 0
M  V30 25 C 1.7211 -2.71049 2.17779 0
M  V30 26 H 1.0441 -2.59979 3.03728 0
M  V30 27 H 2.4841 -3.45858 2.45272 0
M  V30 28 C 0.9431 -3.22165 0.985473 0
M  V30 29 O 1.4731 -4.01096 0.220233 0
M  V30 30 N -0.3209 -2.7985 0.783108 0
M  V30 31 H -0.7739 -2.15775 1.40708 0
M  V30 32 H -0.8159 -3.14397 -0.0130392 0
M  V30 33 N 2.9562 -1.48159 -0.537278 0
M  V30 34 C 4.2052 -1.5506 -1.28993 0
M  V30 35 C 4.5182 -0.226211 -1.94288 0
M  V30 36 O 5.7242 -0.173395 -2.70946 0
M  V30 37 C 4.1802 -2.73429 -2.34018 0
M  V30 38 C 3.7882 -4.1248 -1.74825 0
M  V30 39 C 5.5322 -2.89638 -3.10339 0
M  V30 40 C 3.4392 -5.22121 -2.77747 0
M  V30 41 H 2.3692 -0.577231 -0.485098 0
M  V30 42 H 5.0202 -1.74478 -0.568317 0
M  V30 43 H 3.4022 -2.47431 -3.09182 0
M  V30 44 H 4.5762 -4.48466 -1.05899 0
M  V30 45 H 2.8912 -4.01327 -1.11022 0
M  V30 46 H 5.4882 -3.68718 -3.87235 0
M  V30 47 H 5.8312 -1.9882 -3.65754 0
M  V30 48 H 6.3642 -3.15502 -2.42288 0
M  V30 49 H 3.1032 -6.1488 -2.27161 0
M  V30 50 H 2.6232 -4.90631 -3.45024 0
M  V30 51 H 4.3022 -5.49924 -3.4087 0
M  V30 52 N 4.4343 0.785586 -1.36625 0
M  V30 53 C 5.6623 1.57448 -1.3423 0
M  V30 54 C 6.0773 1.88649 0.0755653 0
M  V30 55 O 5.4343 1.50414 1.03354 0
M  V30 56 C 5.4853 2.89316 -2.16745 0
M  V30 57 O 5.2063 2.59459 -3.53005 0
M  V30 58 C 6.7073 3.83606 -2.22174 0
M  V30 59 H 3.9273 0.488226 -0.4603 0
M  V30 60 H 6.4713 0.974733 -1.79775 0
M  V30 61 H 4.6263 3.4575 -1.74745 0
M  V30 62 H 5.0403 3.43804 -3.96105 0
M  V30 63 H 6.5143 4.73181 -2.8426 0
M  V30 64 H 6.9913 4.21734 -1.22627 0
M  V30 65 H 7.5973 3.33104 -2.64427 0
M  V30 66 N 5.9124 1.20967 1.01018 0
M  V30 67 C 6.8604 0.961223 2.1181 0
M  V30 68 C 7.8544 -0.0897034 1.69162 0
M  V30 69 O 9.0604 0.0612271 1.79896 0
M  V30 70 H 5.4354 0.29355 0.692338 0
M  V30 71 H 7.4064 1.90178 2.29946 0
M  V30 72 C 6.1554 0.536854 3.4353 0
M  V30 73 H 5.4784 1.33713 3.76777 0
M  V30 74 H 6.9184 0.402286 4.22087 0
M  V30 75 C 5.3774 -0.751574 3.2841 0
M  V30 76 O 5.9074 -1.80841 3.58691 0
M  V30 77 N 4.1134 -0.716079 2.81639 0
M  V30 78 H 3.6604 0.144236 2.57196 0
M  V30 79 H 3.6184 -1.57847 2.71904 0
M  V30 80 N 7.3905 -1.2043 1.01659 0
M  V30 81 C 8.6305 -1.91507 0.714456 0
M  V30 82 C 8.9945 -1.77073 -0.742237 0
M  V30 83 O 10.1955 -2.42631 -1.15688 0
M  V30 84 C 8.4665 -3.38795 1.13809 0
M  V30 85 S 10.0255 -4.28216 0.957925 0
M  V30 86 H 6.8435 -0.661571 0.260471 0
M  V30 87 H 9.4455 -1.45671 1.30384 0
M  V30 88 H 8.1495 -3.46822 2.19415 0
M  V30 89 H 7.6805 -3.89656 0.541474 0
M  V30 90 H 9.6955 -4.96007 -0.138531 0
M  V30 91 N 8.8686 -0.792821 -1.36206 0
M  V30 92 C 10.0966 -0.378825 -2.03402 0
M  V30 93 C 10.5116 1.00586 -1.59774 0
M  V30 94 O 9.8686 1.64574 -0.788764 0
M  V30 95 C 9.9196 -0.43683 -3.58851 0
M  V30 96 O 9.6406 -1.76691 -4.00889 0
M  V30 97 C 11.1416 -0.0138943 -4.43298 0
M  V30 98 H 8.3616 -0.155673 -0.652692 0
M  V30 99 H 10.9056 -1.07261 -1.74113 0
M  V30 100 H 9.0606 0.208575 -3.86838 0
M  V30 101 H 9.4746 -1.72011 -4.95492 0
M  V30 102 H 10.9486 -0.105615 -5.51899 0
M  V30 103 H 11.4256 1.03915 -4.2673 0
M  V30 104 H 12.0316 -0.63192 -4.20579 0
M  V30 105 N 10.3467 1.47872 -0.545128 0
M  V30 106 C 11.5747 2.06889 -0.021084 0
M  V30 107 C 11.9897 1.39955 1.2672 0
M  V30 108 O 11.3467 0.492036 1.75742 0
M  V30 109 C 11.3977 3.60996 0.190817 0
M  V30 110 O 11.1187 4.25419 -1.04644 0
M  V30 111 C 12.6197 4.36849 0.753521 0
M  V30 112 H 9.8397 0.669785 -0.0403635 0
M  V30 113 H 12.3837 1.90049 -0.755095 0
M  V30 114 H 10.5387 3.77391 0.87492 0
M  V30 115 H 10.9527 5.17785 -0.836611 0
M  V30 116 H 12.4267 5.45399 0.851139 0
M  V30 117 H 12.9037 4.02306 1.762 0
M  V30 118 H 13.5097 4.25169 0.105503 0
M  V30 119 N 11.8248 0.280983 1.55075 0
M  V30 120 C 12.7348 -0.61388 2.26426 0
M  V30 121 C 13.7508 -1.16521 1.29224 0
M  V30 122 O 14.9268 -1.19426 1.62171 0
M  V30 123 C 11.9918 -1.7788 2.9759 0
M  V30 124 C 11.0528 -1.26355 4.10284 0
M  V30 125 C 10.2858 -2.37295 4.78045 0
M  V30 126 O 10.5088 -3.56777 4.45047 0
M  V30 127 O 9.4428 -2.05119 5.65871 0
M  V30 128 H 13.2688 -0.0356932 3.03679 0
M  V30 129 H 10.8538 0.0481686 1.49322 0
M  V30 130 H 12.7358 -2.45791 3.42293 0
M  V30 131 H 11.4108 -2.34397 2.23249 0
M  V30 132 H 10.3178 -0.550735 3.70024 0
M  V30 133 H 11.6508 -0.744065 4.86543 0
M  V30 134 N 13.3029 -1.57598 0.00835791 0
M  V30 135 C 14.2659 -2.07884 -0.965242 0
M  V30 136 C 15.2659 -0.989825 -1.26725 0
M  V30 137 O 16.4559 -1.25218 -1.21104 0
M  V30 138 C 13.5879 -2.52731 -2.28779 0
M  V30 139 H 14.7809 -2.95178 -0.530112 0
M  V30 140 H 12.3339 -1.54458 -0.239283 0
M  V30 141 H 13.0689 -1.68705 -2.76964 0
M  V30 142 H 12.8539 -3.32272 -2.08177 0
M  V30 143 H 14.3439 -2.91933 -2.98605 0
M  V30 144 N 14.781 0.264519 -1.55364 0
M  V30 145 C 16.006 1.01726 -1.80739 0
M  V30 146 C 16.431 1.78836 -0.583044 0
M  V30 147 O 15.789 1.75167 0.467566 0
M  V30 148 C 15.837 1.94482 -3.03659 0
M  V30 149 O 14.941 3.03386 -2.7934 0
M  V30 150 H 14.282 0.290395 -0.597132 0
M  V30 151 H 16.812 0.290854 -2.02522 0
M  V30 152 H 16.822 2.36278 -3.32621 0
M  V30 153 H 15.497 1.37772 -3.92418 0
M  V30 154 H 14.074 2.65844 -2.61498 0
M  V30 155 N 16.2591 1.48442 0.529413 0
M  V30 156 C 17.1921 1.57577 1.65059 0
M  V30 157 C 18.1701 0.426198 1.56915 0
M  V30 158 O 19.3541 0.637877 1.77379 0
M  V30 159 C 16.4811 1.5043 3.03461 0
M  V30 160 C 15.5271 2.70235 3.29962 0
M  V30 161 S 16.3601 4.32198 3.16172 0
M  V30 162 C 17.5161 4.2765 4.57019 0
M  V30 163 H 17.7491 2.52427 1.5706 0
M  V30 164 H 15.2821 1.36982 0.712417 0
M  V30 165 H 17.2401 1.46992 3.8328 0
M  V30 166 H 15.9011 0.569167 3.089 0
M  V30 167 H 15.0941 2.61374 4.30929 0
M  V30 168 H 14.6961 2.70938 2.57815 0
M  V30 169 H 16.9881 3.97618 5.48549 0
M  V30 170 H 17.9311 5.28797 4.70934 0
M  V30 171 H 18.3391 3.5811 4.36368 0
M  V30 172 N 17.7372 -0.778329 1.37039 0
M  V30 173 C 18.7002 -1.87301 1.32102 0
M  V30 174 C 19.7002 -1.59198 0.226405 0
M  V30 175 O 20.8902 -1.67403 0.481861 0
M  V30 176 C 18.0222 -3.24309 1.05055 0
M  V30 177 H 19.2152 -1.93093 2.29467 0
M  V30 178 H 16.7682 -0.977358 1.21973 0
M  V30 179 H 17.5032 -3.24196 0.0819373 0
M  V30 180 H 17.2882 -3.46098 1.84279 0
M  V30 181 H 18.7782 -4.04382 1.04234 0
M  V30 182 N 19.2153 -1.21501 -1.00376 0
M  V30 183 C 20.4643 -1.02718 -1.73586 0
M  V30 184 C 20.7773 0.439589 -1.90596 0
M  V30 185 O 21.9833 0.746848 -2.61026 0
M  V30 186 C 20.4393 -1.78929 -3.1227 0
M  V30 187 C 20.0473 -3.29783 -3.03228 0
M  V30 188 C 21.7913 -1.68557 -3.89601 0
M  V30 189 C 19.6983 -3.98479 -4.36999 0
M  V30 190 H 18.6283 -0.380733 -0.650814 0
M  V30 191 H 21.2793 -1.45248 -1.1214 0
M  V30 192 H 19.6613 -1.29192 -3.74333 0
M  V30 193 H 20.8353 -3.86832 -2.50395 0
M  V30 194 H 19.1503 -3.40711 -2.39385 0
M  V30 195 H 21.7473 -2.17211 -4.88593 0
M  V30 196 H 22.0903 -0.644021 -4.11288 0
M  V30 197 H 22.6233 -2.15778 -3.34193 0
M  V30 198 H 19.3623 -5.02841 -4.20513 0
M  V30 199 H 18.8823 -3.46219 -4.89788 0
M  V30 200 H 20.5613 -4.03462 -5.05794 0
M  V30 201 N 20.6934 1.19889 -1.02296 0
M  V30 202 C 22.1094 1.41462 -0.738954 0
M  V30 203 C 22.3094 1.89721 0.678846 0
M  V30 204 O 21.3654 2.07016 1.4457 0
M  V30 205 C 22.6784 2.43083 -1.77005 0
M  V30 206 C 24.2264 2.5684 -1.78892 0
M  V30 207 C 24.7014 3.61709 -2.80945 0
M  V30 208 N 26.1924 3.69199 -2.79725 0
M  V30 209 C 26.9274 4.50019 -3.55345 0
M  V30 210 N 26.4234 5.34592 -4.40662 0
M  V30 211 N 28.2164 4.44612 -3.43914 0
M  V30 212 H 20.3674 0.868827 -1.93817 0
M  V30 213 H 22.6304 0.44399 -0.837602 0
M  V30 214 H 22.3364 2.14636 -2.78612 0
M  V30 215 H 22.2104 3.4217 -1.58744 0
M  V30 216 H 24.5974 2.84614 -0.779674 0
M  V30 217 H 24.6784 1.57927 -2.01228 0
M  V30 218 H 24.3224 3.34678 -3.82038 0
M  V30 219 H 24.2524 4.60259 -2.5587 0
M  V30 220 H 26.7434 3.08794 -2.17842 0
M  V30 221 H 27.0564 5.93363 -4.95116 0
M  V30 222 H 25.4014 5.34073 -4.44737 0
M  V30 223 H 28.5924 3.7758 -2.76679 0
M  V30 224 H 28.7654 5.0736 -4.031 0
M  V30 225 N 22.1715 0.800033 1.35784 0
M  V30 226 C 23.5825 0.439142 1.81462 0
M  V30 227 C 23.9335 -1.03813 1.66485 0
M  V30 228 O 23.0585 -1.80626 1.19177 0
M  V30 229 C 23.6535 0.790314 3.29453 0
M  V30 230 C 22.2125 0.482111 3.733 0
M  V30 231 C 21.3595 1.01938 2.57883 0
M  V30 232 H 24.3105 0.992254 1.23855 0
M  V30 233 H 24.3315 0.0853677 3.80404 0
M  V30 234 H 23.8435 1.86554 3.40322 0
M  V30 235 H 21.9445 -0.584652 3.67984 0
M  V30 236 H 22.0575 1.01015 4.6833 0
M  V30 237 H 20.4215 0.442043 2.50835 0
M  V30 238 H 21.2045 2.10059 2.71533 0
M  V30 239 N 23.6496 -1.47581 0.552962 0
M  V30 240 C 24.5966 -2.29957 -0.197108 0
M  V30 241 C 25.5666 -1.38799 -0.912359 0
M  V30 242 O 26.7516 -1.67761 -0.908888 0
M  V30 243 C 23.8916 -3.22672 -1.22379 0
M  V30 244 C 23.0046 -4.28919 -0.515038 0
M  V30 245 C 22.1396 -5.0879 -1.52664 0
M  V30 246 C 21.1786 -6.06815 -0.802631 0
M  V30 247 N 20.3156 -6.7966 -1.76086 0
M  V30 248 H 25.1556 -2.93578 0.511486 0
M  V30 249 H 22.6926 -1.4471 0.264067 0
M  V30 250 H 24.6506 -3.74845 -1.83159 0
M  V30 251 H 23.2806 -2.60925 -1.90047 0
M  V30 252 H 22.3326 -3.79835 0.207192 0
M  V30 253 H 23.6446 -4.98773 0.0523425 0
M  V30 254 H 22.7986 -5.65091 -2.20809 0
M  V30 255 H 21.5376 -4.38828 -2.12794 0
M  V30 256 H 20.5426 -5.49695 -0.107238 0
M  V30 257 H 21.7676 -6.78784 -0.207135 0
M  V30 258 H 19.7136 -6.12432 -2.35081 0
M  V30 259 H 19.6306 -7.45669 -1.24552 0
M  V30 260 H 20.8986 -7.40538 -2.43359 0
M  V30 261 N 25.1277 -0.289203 -1.54924 0
M  V30 262 C 26.3557 0.326463 -2.04308 0
M  V30 263 C 26.7707 1.48413 -1.16701 0
M  V30 264 O 26.1277 1.81507 -0.190087 0
M  V30 265 C 26.1787 0.794014 -3.52672 0
M  V30 266 O 25.8997 -0.317564 -4.36948 0
M  V30 267 C 27.4007 1.47605 -4.18004 0
M  V30 268 H 24.6207 0.0726272 -0.667058 0
M  V30 269 H 27.1647 -0.425401 -2.00026 0
M  V30 270 H 25.3197 1.49593 -3.57352 0
M  V30 271 H 25.7337 0.0443186 -5.24481 0
M  V30 272 H 27.2077 1.75447 -5.23376 0
M  V30 273 H 27.6847 2.41224 -3.67025 0
M  V30 274 H 28.2907 0.81762 -4.17367 0
M  V30 275 N 26.6058 1.57591 -0.0167156 0
M  V30 276 C 27.8548 1.90461 0.663877 0
M  V30 277 C 28.1678 0.893515 1.73999 0
M  V30 278 O 29.3738 1.11302 2.47637 0
M  V30 279 C 27.8298 3.38155 1.23204 0
M  V30 280 C 27.4378 4.47597 0.189866 0
M  V30 281 C 29.1818 3.80111 1.88986 0
M  V30 282 C 27.0888 5.86379 0.768964 0
M  V30 283 H 26.0188 0.710738 0.251729 0
M  V30 284 H 28.6698 1.83326 -0.0799926 0
M  V30 285 H 27.0518 3.40182 2.02712 0
M  V30 286 H 28.2258 4.57112 -0.581846 0
M  V30 287 H 26.5408 4.14766 -0.368475 0
M  V30 288 H 29.1378 4.81145 2.33247 0
M  V30 289 H 29.4808 3.14511 2.72743 0
M  V30 290 H 30.0138 3.80454 1.16187 0
M  V30 291 H 26.7528 6.55493 -0.0301957 0
M  V30 292 H 26.2728 5.80496 1.50945 0
M  V30 293 H 27.9518 6.34563 1.26251 0
M  V30 294 N 28.0839 -0.256276 1.55502 0
M  V30 295 C 29.3119 -1.00342 1.8094 0
M  V30 296 C 29.7269 -1.79307 0.59114 0
M  V30 297 O 29.0839 -1.77114 -0.440081 0
M  V30 298 C 29.1349 -1.94875 3.04476 0
M  V30 299 O 28.8559 -1.19107 4.21598 0
M  V30 300 C 30.3569 -2.81266 3.42644 0
M  V30 301 H 27.5769 -0.295685 0.602338 0
M  V30 302 H 30.1209 -0.281998 2.02546 0
M  V30 303 H 28.2759 -2.62457 2.84947 0
M  V30 304 H 28.6899 -1.82969 4.91551 0
M  V30 305 H 30.1639 -3.43362 4.32211 0
M  V30 306 H 30.6409 -3.51897 2.62802 0
M  V30 307 H 31.2469 -2.1915 3.64491 0
M  V30 308 N 29.562 -1.4872 -0.521534 0
M  V30 309 C 30.472 -1.66569 -1.65203 0
M  V30 310 C 31.488 -0.548197 -1.65139 0
M  V30 311 O 32.664 -0.820339 -1.83936 0
M  V30 312 C 29.729 -1.70917 -3.01642 0
M  V30 313 C 28.79 -2.94356 -3.12495 0
M  V30 314 C 28.023 -2.98487 -4.42426 0
M  V30 315 O 28.246 -2.10786 -5.30024 0
M  V30 316 O 27.18 -3.90746 -4.57822 0
M  V30 317 H 31.006 -2.62298 -1.5308 0
M  V30 318 H 28.591 -1.3222 -0.695565 0
M  V30 319 H 30.473 -1.7625 -3.82771 0
M  V30 320 H 29.148 -0.783633 -3.14071 0
M  V30 321 H 28.055 -2.94552 -2.3063 0
M  V30 322 H 29.388 -3.86322 -3.04986 0
M  V30 323 N 31.0401 0.771051 -1.3745 0
M  V30 324 C 31.9871 1.88435 -1.3327 0
M  V30 325 C 32.9571 1.64914 -0.198136 0
M  V30 326 O 34.1421 1.86821 -0.387606 0
M  V30 327 C 31.2821 3.25509 -1.14622 0
M  V30 328 C 30.3951 3.60979 -2.37314 0
M  V30 329 C 29.5301 4.87265 -2.11533 0
M  V30 330 C 28.5691 5.15469 -3.30088 0
M  V30 331 N 27.7061 6.32944 -3.03853 0
M  V30 332 H 32.5461 1.91344 -2.28455 0
M  V30 333 H 30.0831 0.935466 -1.13523 0
M  V30 334 H 32.0411 4.04582 -1.01831 0
M  V30 335 H 30.6711 3.21974 -0.230837 0
M  V30 336 H 29.7231 2.76885 -2.60842 0
M  V30 337 H 31.0351 3.77759 -3.25729 0
M  V30 338 H 30.1891 5.74244 -1.95777 0
M  V30 339 H 28.9281 4.7259 -1.20457 0
M  V30 340 H 27.9331 4.26966 -3.46382 0
M  V30 341 H 29.1581 5.32052 -4.22016 0
M  V30 342 H 27.1041 6.19625 -2.15407 0
M  V30 343 H 27.0211 6.50143 -3.85812 0
M  V30 344 H 28.2891 7.22857 -2.91716 0
M  V30 345 N 32.5182 1.22032 0.997298 0
M  V30 346 C 33.4512 0.929735 2.08401 0
M  V30 347 C 34.4292 -0.125681 1.62114 0
M  V30 348 O 35.6132 0.00495409 1.88499 0
M  V30 349 C 32.7402 0.397488 3.3636 0
M  V30 350 C 31.7862 1.4369 4.01566 0
M  V30 351 S 32.6192 3.00874 4.42984 0
M  V30 352 C 33.7752 2.49276 5.74119 0
M  V30 353 H 34.0082 1.84998 2.32729 0
M  V30 354 H 31.5412 1.0509 1.13117 0
M  V30 355 H 33.4992 0.0969846 4.10385 0
M  V30 356 H 32.1602 -0.501571 3.10069 0
M  V30 357 H 31.3532 1.01427 4.93689 0
M  V30 358 H 30.9552 1.68588 3.33847 0
M  V30 359 H 33.2472 1.90242 6.50242 0
M  V30 360 H 34.1902 3.39872 6.21203 0
M  V30 361 H 34.5982 1.90714 5.31308 0
M  V30 362 N 33.9963 -1.19345 1.0293 0
M  V30 363 C 34.9263 -2.2481 0.631105 0
M  V30 364 C 35.9073 -1.66245 -0.360104 0
M  V30 365 O 37.0923 -1.92677 -0.242726 0
M  V30 366 C 34.2223 -3.47295 -0.0184607 0
M  V30 367 C 33.1763 -4.18536 0.895073 0
M  V30 368 C 32.5023 -5.34586 0.110592 0
M  V30 369 C 33.8023 -4.73287 2.209 0
M  V30 370 H 35.4963 -2.58372 1.51275 0
M  V30 371 H 33.0423 -1.24194 0.728818 0
M  V30 372 H 34.9953 -4.20268 -0.308675 0
M  V30 373 H 33.7193 -3.12933 -0.934907 0
M  V30 374 H 32.3783 -3.47446 1.16949 0
M  V30 375 H 32.0263 -4.96469 -0.807902 0
M  V30 376 H 31.7263 -5.83183 0.719087 0
M  V30 377 H 33.2503 -6.10355 -0.172871 0
M  V30 378 H 34.6643 -5.38013 1.98028 0
M  V30 379 H 33.0613 -5.32373 2.76946 0
M  V30 380 H 34.1313 -3.91331 2.86336 0
M  V30 381 N 35.4744 -0.807222 -1.35358 0
M  V30 382 C 36.7234 -0.384376 -1.98004 0
M  V30 383 C 37.0364 1.0543 -1.64754 0
M  V30 384 O 38.2424 1.58029 -2.20769 0
M  V30 385 C 36.6984 -0.636326 -3.5423 0
M  V30 386 C 36.3064 -2.08759 -3.96388 0
M  V30 387 C 38.0504 -0.278869 -4.23583 0
M  V30 388 C 35.9574 -2.28525 -5.45463 0
M  V30 389 H 34.8874 -0.139986 -0.740891 0
M  V30 390 H 37.5384 -0.991369 -1.54415 0
M  V30 391 H 35.9204 0.0406256 -3.95979 0
M  V30 392 H 37.0944 -2.8024 -3.6579 0
M  V30 393 H 35.4094 -2.40497 -3.39926 0
M  V30 394 H 38.0064 -0.404599 -5.33167 0
M  V30 395 H 38.3494 0.775012 -4.09022 0
M  V30 396 H 38.8824 -0.909764 -3.87257 0
M  V30 397 H 35.6214 -3.32361 -5.64992 0
M  V30 398 H 35.1414 -1.61569 -5.77629 0
M  V30 399 H 36.8204 -2.10109 -6.11934 0
M  V30 400 N 36.9525 1.47285 -0.560781 0
M  V30 401 C 38.1925 2.0436 -0.0404627 0
M  V30 402 C 38.5565 1.42534 1.28639 0
M  V30 403 O 39.7575 1.90677 1.89462 0
M  V30 404 C 38.0285 3.57369 0.0471856 0
M  V30 405 S 39.5875 4.3579 0.513109 0
M  V30 406 H 36.4055 0.710492 -0.0268674 0
M  V30 407 H 39.0075 1.80611 -0.748323 0
M  V30 408 H 37.7115 3.9989 -0.922817 0
M  V30 409 H 37.2425 3.8562 0.778491 0
M  V30 410 H 39.2575 4.63476 1.77212 0
M  V30 411 N 38.4306 0.297415 1.54768 0
M  V30 412 C 39.3636 -0.622188 2.19554 0
M  V30 413 C 40.3416 -1.13558 1.16376 0
M  V30 414 O 41.5256 -1.20444 1.45002 0
M  V30 415 C 38.6526 -1.8509 2.83653 0
M  V30 416 C 37.6986 -1.47106 4.00328 0
M  V30 417 S 38.5316 -0.53006 5.3287 0
M  V30 418 C 39.6876 -1.76665 6.0045 0
M  V30 419 H 39.9206 -0.0717806 2.97213 0
M  V30 420 H 37.4536 0.0815678 1.54184 0
M  V30 421 H 39.4116 -2.55605 3.21211 0
M  V30 422 H 38.0726 -2.37247 2.05846 0
M  V30 423 H 37.2656 -2.38594 4.43947 0
M  V30 424 H 36.8676 -0.845885 3.64309 0
M  V30 425 H 39.1596 -2.7077 6.21039 0
M  V30 426 H 40.1026 -1.37308 6.9466 0
M  V30 427 H 40.5106 -1.94174 5.30054 0
M  V30 428 N 39.9087 -1.5758 0.0250728 0
M  V30 429 C 41.1367 -1.9593 -0.664747 0
M  V30 430 C 41.5517 -0.901352 -1.65895 0
M  V30 431 O 40.9087 0.117255 -1.82123 0
M  V30 432 C 40.9597 -3.34342 -1.37468 0
M  V30 433 O 40.6807 -4.36079 -0.420324 0
M  V30 434 C 42.1817 -3.873 -2.1567 0
M  V30 435 H 39.4017 -0.645405 -0.183557 0
M  V30 436 H 41.9457 -2.04329 0.0836372 0
M  V30 437 H 40.1007 -3.27175 -2.0745 0
M  V30 438 H 40.5147 -5.16297 -0.923991 0
M  V30 439 H 41.9887 -4.86504 -2.60803 0
M  V30 440 H 42.4657 -3.21331 -2.99405 0
M  V30 441 H 43.0717 -3.97723 -1.50654 0
M  V30 442 N 41.3868 0.248026 -1.55636 0
M  V30 443 C 42.3168 1.31079 -1.93237 0
M  V30 444 C 43.2978 1.50264 -0.797174 0
M  V30 445 O 44.4828 1.62891 -1.05737 0
M  V30 446 C 41.6128 2.66575 -2.22609 0
M  V30 447 C 40.5668 2.62087 -3.3837 0
M  V30 448 C 39.8928 4.01369 -3.53281 0
M  V30 449 C 41.1928 2.19171 -4.7409 0
M  V30 450 H 42.8868 0.998556 -2.82257 0
M  V30 451 H 40.4328 0.47891 -1.35803 0
M  V30 452 H 42.3858 3.41057 -2.47503 0
M  V30 453 H 41.1098 2.99432 -1.30414 0
M  V30 454 H 39.7688 1.90063 -3.13483 0
M  V30 455 H 39.4168 4.31489 -2.58508 0
M  V30 456 H 39.1168 3.99254 -4.31127 0
M  V30 457 H 40.6408 4.77552 -3.80495 0
M  V30 458 H 42.0548 2.83384 -4.98363 0
M  V30 459 H 40.4518 2.2817 -5.5503 0
M  V30 460 H 41.5218 1.14336 -4.71227 0
M  V30 461 N 42.8649 1.48995 0.513639 0
M  V30 462 C 44.1109 1.58076 1.27042 0
M  V30 463 C 44.4439 0.261026 1.92438 0
M  V30 464 O 43.7189 -0.734393 1.80103 0
M  V30 465 C 44.0019 2.73091 2.34719 0
M  V30 466 C 43.8549 4.14821 1.73907 0
M  V30 467 C 45.1739 2.83796 3.36375 0
M  V30 468 H 42.2929 0.575391 0.460536 0
M  V30 469 H 44.9349 1.81232 0.570516 0
M  V30 470 H 43.0849 2.53479 2.94416 0
M  V30 471 H 44.7569 4.45917 1.18135 0
M  V30 472 H 42.9999 4.21058 1.0437 0
M  V30 473 H 43.6709 4.91147 2.51949 0
M  V30 474 H 46.1469 3.01611 2.86653 0
M  V30 475 H 45.0229 3.65971 4.09093 0
M  V30 476 H 45.2839 1.92624 3.9793 0
M  V30 477 N 44.343 -0.763751 1.37857 0
M  V30 478 C 45.589 -1.52483 1.33704 0
M  V30 479 C 45.922 -1.94051 -0.0759612 0
M  V30 480 O 45.197 -1.64675 -1.03501 0
M  V30 481 C 45.48 -2.78441 2.28348 0
M  V30 482 C 45.333 -2.43075 3.78463 0
M  V30 483 C 46.652 -3.80415 2.21298 0
M  V30 484 H 43.771 -0.553169 0.487005 0
M  V30 485 H 46.413 -0.875562 1.68624 0
M  V30 486 H 44.563 -3.33842 1.987 0
M  V30 487 H 46.235 -1.93527 4.18742 0
M  V30 488 H 44.478 -1.75666 3.96641 0
M  V30 489 H 45.149 -3.33149 4.40132 0
M  V30 490 H 47.625 -3.34527 2.47449 0
M  V30 491 H 46.501 -4.66257 2.89647 0
M  V30 492 H 46.762 -4.25262 1.20849 0
M  V30 493 N 45.8211 -1.22559 -0.990812 0
M  V30 494 C 47.0701 -1.04553 -1.72486 0
M  V30 495 C 47.3831 0.419349 -1.91052 0
M  V30 496 O 48.5891 0.719121 -2.61803 0
M  V30 497 C 47.0451 -1.82231 -3.10355 0
M  V30 498 C 46.6531 -3.32981 -2.99713 0
M  V30 499 C 48.3971 -1.7268 -3.87791 0
M  V30 500 C 46.3041 -4.03091 -4.32748 0
M  V30 501 H 45.2341 -0.387614 -0.646739 0
M  V30 502 H 47.8851 -1.46429 -1.10593 0
M  V30 503 H 46.2671 -1.33155 -3.72942 0
M  V30 504 H 47.4411 -3.89466 -2.46278 0
M  V30 505 H 45.7561 -3.43231 -2.35758 0
M  V30 506 H 48.3531 -2.22381 -4.86262 0
M  V30 507 H 48.6961 -0.687607 -4.10582 0
M  V30 508 H 49.2291 -2.1931 -3.31885 0
M  V30 509 H 45.9681 -5.07273 -4.15156 0
M  V30 510 H 45.4881 -3.51394 -4.86089 0
M  V30 511 H 47.1671 -4.08804 -5.01486 0
M  V30 512 N 47.2992 1.18797 -1.03562 0
M  V30 513 C 48.5272 1.92599 -0.755869 0
M  V30 514 C 48.9422 1.75886 0.686271 0
M  V30 515 O 48.2992 1.08517 1.46732 0
M  V30 516 C 48.3502 3.44159 -1.10619 0
M  V30 517 O 48.0712 3.60341 -2.4917 0
M  V30 518 C 49.5722 4.3507 -0.850214 0
M  V30 519 H 46.7922 0.611587 -0.276048 0
M  V30 520 H 49.3362 1.50742 -1.38192 0
M  V30 521 H 47.4912 3.83823 -0.525194 0
M  V30 522 H 47.9052 4.54128 -2.62427 0
M  V30 523 H 49.3792 5.39989 -1.14523 0
M  V30 524 H 49.8562 4.38673 0.215176 0
M  V30 525 H 50.4622 4.01097 -1.41426 0
M  V30 526 N 48.7773 0.814389 1.34928 0
M  V30 527 C 50.0053 0.411136 2.02774 0
M  V30 528 C 50.4203 -0.980316 1.61354 0
M  V30 529 O 49.7773 -1.63299 0.814847 0
M  V30 530 C 49.8283 0.493865 3.58111 0
M  V30 531 O 49.5493 1.83047 3.98027 0
M  V30 532 C 51.0503 0.0844174 4.4322 0
M  V30 533 H 48.2703 0.166037 0.650133 0
M  V30 534 H 50.8143 1.10018 1.72384 0
M  V30 535 H 48.9693 -0.147006 3.87121 0
M  V30 536 H 49.3833 1.79872 4.92693 0
M  V30 537 H 50.8573 0.193404 5.51661 0
M  V30 538 H 51.3343 -0.97113 4.28329 0
M  V30 539 H 51.9403 0.69875 4.19521 0
M  V30 540 N 50.2554 -1.46986 0.568584 0
M  V30 541 C 51.1854 -2.32946 -0.160753 0
M  V30 542 C 52.1664 -1.44487 -0.897631 0
M  V30 543 O 53.3514 -1.73327 -0.875867 0
M  V30 544 C 50.4814 -3.26494 -1.18403 0
M  V30 545 C 49.4354 -4.24282 -0.562895 0
M  V30 546 C 48.7614 -5.07236 -1.69163 0
M  V30 547 C 50.0614 -5.19989 0.490761 0
M  V30 548 H 51.7554 -2.94175 0.556916 0
M  V30 549 H 49.3014 -1.4146 0.26927 0
M  V30 550 H 51.2544 -3.85477 -1.70251 0
M  V30 551 H 49.9784 -2.63343 -1.93179 0
M  V30 552 H 48.6374 -3.66541 -0.0656164 0
M  V30 553 H 48.2854 -4.4048 -2.42871 0
M  V30 554 H 47.9854 -5.7345 -1.28174 0
M  V30 555 H 49.5094 -5.6908 -2.21314 0
M  V30 556 H 50.9234 -5.73271 0.0579047 0
M  V30 557 H 49.3204 -5.94469 0.820165 0
M  V30 558 H 50.3904 -4.64777 1.3824 0
M  V30 559 N 51.7335 -0.305618 -1.54608 0
M  V30 560 C 52.9615 0.304775 -2.04643 0
M  V30 561 C 53.3765 1.47167 -1.18268 0
M  V30 562 O 52.7335 1.81296 -0.209328 0
M  V30 563 C 52.7845 0.756564 -3.53495 0
M  V30 564 O 52.5055 -0.36389 -4.36586 0
M  V30 565 C 54.0065 1.43163 -4.19546 0
M  V30 566 H 51.2265 0.0655481 -0.667791 0
M  V30 567 H 53.7705 -0.446592 -1.99564 0
M  V30 568 H 51.9255 1.45794 -3.58919 0
M  V30 569 H 52.3395 -0.0113121 -5.24499 0
M  V30 570 H 53.8135 1.69886 -5.25207 0
M  V30 571 H 54.2905 2.37318 -3.69563 0
M  V30 572 H 54.8965 0.773307 -4.18211 0
M  V30 573 N 53.2116 1.57565 -0.0334293 0
M  V30 574 C 54.4396 1.9628 0.654347 0
M  V30 575 C 54.8546 0.910138 1.65414 0
M  V30 576 O 54.2116 -0.107595 1.82183 0
M  V30 577 C 54.2626 3.35067 1.35693 0
M  V30 578 O 53.9836 4.36296 0.397191 0
M  V30 579 C 55.4846 3.88439 2.13613 0
M  V30 580 H 52.7046 0.646369 0.180132 0
M  V30 581 H 55.2486 2.04282 -0.0944721 0
M  V30 582 H 53.4036 3.2827 2.05712 0
M  V30 583 H 53.8176 5.1678 0.896597 0
M  V30 584 H 55.2916 4.8788 2.58219 0
M  V30 585 H 55.7686 3.22914 2.97696 0
M  V30 586 H 56.3746 3.98516 1.48543 0
M  V30 587 N 54.6897 -0.239769 1.55765 0
M  V30 588 C 55.6197 -1.30052 1.9393 0
M  V30 589 C 56.6007 -1.49839 0.805132 0
M  V30 590 O 57.7857 -1.62328 1.06599 0
M  V30 591 C 54.9157 -2.65391 2.2402 0
M  V30 592 C 53.8697 -2.60289 3.39755 0
M  V30 593 C 53.1957 -3.99489 3.55405 0
M  V30 594 C 54.4957 -2.16654 4.75246 0
M  V30 595 H 56.1897 -0.983573 2.82783 0
M  V30 596 H 53.7357 -0.471701 1.36055 0
M  V30 597 H 55.6887 -3.3974 2.49308 0
M  V30 598 H 54.4127 -2.98736 1.32 0
M  V30 599 H 53.0717 -1.88398 3.14487 0
M  V30 600 H 52.7197 -4.30112 2.60793 0
M  V30 601 H 52.4197 -3.96962 4.33238 0
M  V30 602 H 53.9437 -4.75528 3.83022 0
M  V30 603 H 55.3577 -2.80737 4.99859 0
M  V30 604 H 53.7547 -2.25223 5.56232 0
M  V30 605 H 54.8247 -1.11835 4.71827 0
M  V30 606 N 56.1678 -1.49265 -0.50573 0
M  V30 607 C 57.0978 -1.68495 -1.61653 0
M  V30 608 C 58.0788 -0.53366 -1.61512 0
M  V30 609 O 59.2638 -0.76897 -1.78327 0
M  V30 610 C 56.3938 -1.74709 -3.00157 0
M  V30 611 C 55.3478 -2.89581 -3.15162 0
M  V30 612 C 54.6738 -2.80903 -4.5497 0
M  V30 613 C 55.9738 -4.30578 -2.95634 0
M  V30 614 H 57.6678 -2.61493 -1.45814 0
M  V30 615 H 55.2138 -1.25838 -0.70005 0
M  V30 616 H 57.1668 -1.86748 -3.77761 0
M  V30 617 H 55.8908 -0.783067 -3.17074 0
M  V30 618 H 54.5498 -2.77136 -2.39982 0
M  V30 619 H 54.1978 -1.82419 -4.68756 0
M  V30 620 H 53.8978 -3.57999 -4.65951 0
M  V30 621 H 55.4218 -2.94944 -5.34641 0
M  V30 622 H 56.8358 -4.4373 -3.63011 0
M  V30 623 H 55.2328 -5.0886 -3.18091 0
M  V30 624 H 56.3028 -4.45352 -1.91806 0
M  V30 625 N 57.6459 0.756429 -1.3826 0
M  V30 626 C 58.5939 1.89149 -1.35372 0
M  V30 627 C 59.5879 1.67691 -0.24004 0
M  V30 628 O 60.7939 1.75294 -0.408919 0
M  V30 629 H 57.1689 0.622271 -0.422236 0
M  V30 630 H 59.1399 1.88701 -2.31159 0
M  V30 631 C 57.8889 3.26599 -1.19284 0
M  V30 632 H 57.2119 3.43695 -2.0424 0
M  V30 633 H 58.6519 4.06274 -1.21316 0
M  V30 634 C 57.1109 3.3675 0.100454 0
M  V30 635 O 57.6409 3.86951 1.07851 0
M  V30 636 N 55.8469 2.90179 0.15633 0
M  V30 637 H 55.3939 2.49517 -0.640253 0
M  V30 638 H 55.3519 2.97352 1.02123 0
M  V30 639 N 59.124 1.23083 0.984299 0
M  V30 640 C 60.054 1.03292 2.09411 0
M  V30 641 C 61.035 -0.048923 1.7003 0
M  V30 642 O 62.22 0.114967 1.93859 0
M  V30 643 C 59.35 0.619155 3.41736 0
M  V30 644 C 58.304 1.64791 3.95004 0
M  V30 645 C 57.63 1.0897 5.23478 0
M  V30 646 C 58.93 3.03999 4.24714 0
M  V30 647 H 60.624 1.96119 2.26225 0
M  V30 648 H 58.17 0.944344 1.08711 0
M  V30 649 H 60.123 0.467777 4.18796 0
M  V30 650 H 58.847 -0.344786 3.24775 0
M  V30 651 H 57.506 1.78721 3.20085 0
M  V30 652 H 57.154 0.11686 5.02864 0
M  V30 653 H 56.854 1.77704 5.60085 0
M  V30 654 H 58.378 0.950093 6.03163 0
M  V30 655 H 59.792 2.93393 4.92538 0
M  V30 656 H 58.189 3.69936 4.72512 0
M  V30 657 H 59.259 3.53285 3.32142 0
M  V30 658 N 60.6021 -1.18246 1.0419 0
M  V30 659 C 61.5651 -2.20128 0.638452 0
M  V30 660 C 62.5651 -1.57885 -0.304805 0
M  V30 661 O 63.7551 -1.73967 -0.0900369 0
M  V30 662 C 60.8871 -3.4084 -0.0637751 0
M  V30 663 H 62.0801 -2.57336 1.54007 0
M  V30 664 H 59.6331 -1.32152 0.834598 0
M  V30 665 H 60.3681 -3.09166 -0.979136 0
M  V30 666 H 60.1531 -3.8726 0.614198 0
M  V30 667 H 61.6431 -4.16274 -0.332512 0
M  V30 668 N 62.0802 -0.821533 -1.34494 0
M  V30 669 C 63.3262 -0.409552 -1.98622 0
M  V30 670 C 63.6592 1.0244 -1.64984 0
M  V30 671 O 62.9342 1.71325 -0.920758 0
M  V30 672 C 63.2172 -0.610458 -3.54888 0
M  V30 673 C 63.0702 -2.09043 -3.98273 0
M  V30 674 C 64.3892 -0.0455379 -4.40076 0
M  V30 675 H 61.5082 -0.15028 -0.721516 0
M  V30 676 H 64.1502 -1.03384 -1.59411 0
M  V30 677 H 62.3002 -0.079044 -3.8842 0
M  V30 678 H 63.9722 -2.68537 -3.75081 0
M  V30 679 H 62.2152 -2.58139 -3.48635 0
M  V30 680 H 62.8862 -2.18182 -5.07051 0
M  V30 681 H 65.3622 -0.499557 -4.1309 0
M  V30 682 H 64.2382 -0.215922 -5.48475 0
M  V30 683 H 64.4992 1.04939 -4.29465 0
M  V30 684 N 63.5583 1.46682 -0.576371 0
M  V30 685 C 64.8073 2.01619 -0.0572825 0
M  V30 686 C 65.1203 1.45417 1.30818 0
M  V30 687 O 66.3263 1.92133 1.91825 0
M  V30 688 C 64.7823 3.59863 -0.0518371 0
M  V30 689 C 64.3903 4.25059 -1.41523 0
M  V30 690 C 66.1343 4.2248 0.413639 0
M  V30 691 C 64.0413 5.75364 -1.36785 0
M  V30 692 H 62.9713 0.753794 -0.0176448 0
M  V30 693 H 65.6223 1.68481 -0.727076 0
M  V30 694 H 64.0043 3.90048 0.683994 0
M  V30 695 H 65.1783 4.06491 -2.17029 0
M  V30 696 H 63.4933 3.7451 -1.8202 0
M  V30 697 H 66.0903 5.3265 0.467779 0
M  V30 698 H 66.4333 3.90976 1.42982 0
M  V30 699 H 66.9663 3.96897 -0.267929 0
M  V30 700 H 63.7053 6.11518 -2.36063 0
M  V30 701 H 63.2253 5.96214 -0.654895 0
M  V30 702 H 64.9043 6.37955 -1.07805 0
M  V30 703 N 65.0364 0.313813 1.54444 0
M  V30 704 C 65.9694 -0.598866 2.20202 0
M  V30 705 C 66.9474 -1.12318 1.17573 0
M  V30 706 O 68.1314 -1.18899 1.46271 0
M  V30 707 C 65.2584 -1.82071 2.85601 0
M  V30 708 C 64.3044 -1.42851 4.01865 0
M  V30 709 S 65.1374 -0.473512 5.33402 0
M  V30 710 C 66.2934 -1.70286 6.0229 0
M  V30 711 H 66.5264 -0.0402532 2.97273 0
M  V30 712 H 64.0594 0.0979165 1.54089 0
M  V30 713 H 66.0174 -2.52184 3.23904 0
M  V30 714 H 64.6784 -2.3505 2.08351 0
M  V30 715 H 63.8714 -2.33871 4.46453 0
M  V30 716 H 63.4734 -0.807198 3.65185 0
M  V30 717 H 65.7654 -2.64168 6.23876 0
M  V30 718 H 66.7084 -1.29932 6.96077 0
M  V30 719 H 67.1164 -1.88541 5.32083 0
M  V30 720 N 66.5145 -1.57545 0.0417849 0
M  V30 721 C 67.4775 -2.09885 -0.92093 0
M  V30 722 C 68.4775 -1.01648 -1.24596 0
M  V30 723 O 69.6675 -1.27759 -1.1842 0
M  V30 724 C 66.7995 -2.57527 -2.23367 0
M  V30 725 H 67.9925 -2.96236 -0.467382 0
M  V30 726 H 65.5455 -1.5493 -0.206467 0
M  V30 727 H 66.2805 -1.74542 -2.73323 0
M  V30 728 H 66.0655 -3.36613 -2.01083 0
M  V30 729 H 67.5555 -2.98201 -2.92346 0
M  V30 730 N 67.9926 0.231505 -1.5589 0
M  V30 731 C 69.2416 0.955346 -1.7764 0
M  V30 732 C 69.5546 1.85893 -0.608546 0
M  V30 733 O 70.7606 2.62067 -0.70943 0
M  V30 734 C 69.2166 1.74886 -3.14552 0
M  V30 735 C 68.8246 0.891915 -4.39032 0
M  V30 736 C 70.5686 2.46452 -3.45633 0
M  V30 737 C 68.4756 1.68221 -5.66971 0
M  V30 738 H 67.4056 0.360446 -0.662265 0
M  V30 739 H 70.0566 0.209516 -1.823 0
M  V30 740 H 68.4386 2.53723 -3.04041 0
M  V30 741 H 69.6126 0.144793 -4.60572 0
M  V30 742 H 67.9276 0.288863 -4.15397 0
M  V30 743 H 70.5246 3.06061 -4.38441 0
M  V30 744 H 70.8676 3.18841 -2.67668 0
M  V30 745 H 71.4006 1.74613 -3.57428 0
M  V30 746 H 68.1396 1.00178 -6.478 0
M  V30 747 H 67.6596 2.4042 -5.49507 0
M  V30 748 H 69.3386 2.24544 -6.06786 0
M  V30 749 N 69.4707 1.49531 0.497807 0
M  V30 750 C 70.7187 1.58865 1.24926 0
M  V30 751 C 71.0397 0.278721 1.92998 0
M  V30 752 O 70.3097 -0.702144 1.82885 0
M  V30 753 H 68.8897 0.585343 0.464094 0
M  V30 754 H 71.5517 1.86174 0.57666 0
M  V30 755 H 70.6477 2.38633 2.01149 0
M  V30 756 N 70.9488 -0.749086 1.3866 0
M  V30 757 C 72.1768 -1.53834 1.38358 0
M  V30 758 C 72.5918 -1.88783 -0.0255219 0
M  V30 759 O 71.9488 -1.53101 -0.993292 0
M  V30 760 C 71.9998 -2.83468 2.2434 0
M  V30 761 O 71.7208 -2.50008 3.5976 0
M  V30 762 C 73.2218 -3.7758 2.32267 0
M  V30 763 H 70.4418 -0.47585 0.473083 0
M  V30 764 H 72.9858 -0.926726 1.82297 0
M  V30 765 H 71.1408 -3.40995 1.83851 0
M  V30 766 H 71.5548 -3.33182 4.05081 0
M  V30 767 H 73.0288 -4.65478 2.96706 0
M  V30 768 H 73.5058 -4.18334 1.33765 0
M  V30 769 H 74.1118 -3.25976 2.73166 0
M  V30 770 N 72.4269 -1.23603 -0.977757 0
M  V30 771 C 73.6549 -1.09646 -1.75458 0
M  V30 772 C 74.0699 0.351859 -1.85492 0
M  V30 773 O 73.4269 1.24327 -1.336 0
M  V30 774 C 73.4779 -1.71895 -3.18016 0
M  V30 775 O 73.1989 -3.11063 -3.08498 0
M  V30 776 C 74.6999 -1.63415 -4.12081 0
M  V30 777 H 71.9199 -0.38359 -0.550545 0
M  V30 778 H 74.4639 -1.63507 -1.22824 0
M  V30 779 H 72.6189 -1.22061 -3.67668 0
M  V30 780 H 73.0329 -3.41305 -3.9826 0
M  V30 781 H 74.5069 -2.11669 -5.09804 0
M  V30 782 H 74.9839 -0.593462 -4.35172 0
M  V30 783 H 75.5899 -2.12628 -3.68334 0
M  V30 784 N 73.905 1.17692 -1.04816 0
M  V30 785 C 74.852 2.21581 -0.645797 0
M  V30 786 C 75.822 1.62367 0.350159 0
M  V30 787 O 77.007 1.89254 0.242433 0
M  V30 788 C 74.147 3.45092 -0.0227568 0
M  V30 789 C 73.26 4.18613 -1.06709 0
M  V30 790 C 72.395 5.29602 -0.411767 0
M  V30 791 C 71.434 5.94904 -1.44067 0
M  V30 792 N 70.571 6.97414 -0.809781 0
M  V30 793 H 75.411 2.55353 -1.5362 0
M  V30 794 H 72.948 1.25438 -0.768364 0
M  V30 795 H 74.906 4.15679 0.35588 0
M  V30 796 H 73.536 3.11917 0.831122 0
M  V30 797 H 72.588 3.46779 -1.5636 0
M  V30 798 H 73.9 4.63293 -1.84827 0
M  V30 799 H 73.054 6.06696 0.0206623 0
M  V30 800 H 71.793 4.86045 0.401438 0
M  V30 801 H 70.798 5.16544 -1.88316 0
M  V30 802 H 72.023 6.40542 -2.25571 0
M  V30 803 H 69.969 6.55998 -0.0170186 0
M  V30 804 H 69.886 7.40386 -1.52856 0
M  V30 805 H 71.154 7.78463 -0.401999 0
M  V30 806 N 75.3831 0.828654 1.34056 0
M  V30 807 C 76.3301 0.252567 2.29414 0
M  V30 808 C 77.3001 -0.62588 1.53857 0
M  V30 809 O 78.4851 -0.566312 1.82202 0
M  V30 810 C 75.6251 -0.574831 3.40279 0
M  V30 811 C 74.7381 0.326499 4.30764 0
M  V30 812 C 73.8731 -0.511016 5.28736 0
M  V30 813 C 72.9121 0.389342 6.1086 0
M  V30 814 N 72.0491 -0.409439 7.00905 0
M  V30 815 H 76.8891 1.07108 2.78086 0
M  V30 816 H 74.4261 0.539677 1.36843 0
M  V30 817 H 76.3841 -1.06992 4.03248 0
M  V30 818 H 75.0141 -1.35841 2.92826 0
M  V30 819 H 74.0661 0.939837 3.68607 0
M  V30 820 H 75.3781 1.01857 4.88289 0
M  V30 821 H 74.5321 -1.07035 5.97184 0
M  V30 822 H 73.2711 -1.23657 4.71763 0
M  V30 823 H 72.2761 0.960769 5.4134 0
M  V30 824 H 73.5011 1.1131 6.69916 0
M  V30 825 H 71.4471 -1.11856 6.46393 0
M  V30 826 H 71.3641 0.224126 7.55668 0
M  V30 827 H 72.6321 -0.951336 7.73673 0
M  V30 828 N 76.8612 -1.46375 0.584142 0
M  V30 829 C 77.7912 -2.33103 -0.136037 0
M  V30 830 C 78.7722 -1.45431 -0.882255 0
M  V30 831 O 79.9572 -1.74246 -0.857434 0
M  V30 832 C 77.0872 -3.27731 -1.14933 0
M  V30 833 C 76.0412 -4.24855 -0.517862 0
M  V30 834 C 75.3672 -5.09001 -1.63773 0
M  V30 835 C 76.6672 -5.19439 0.545886 0
M  V30 836 H 78.3612 -2.93568 0.588086 0
M  V30 837 H 75.9072 -1.41166 0.284259 0
M  V30 838 H 77.8602 -3.87261 -1.66153 0
M  V30 839 H 76.5842 -2.65377 -1.90375 0
M  V30 840 H 75.2432 -3.6659 -0.0267361 0
M  V30 841 H 74.8912 -4.43031 -2.38185 0
M  V30 842 H 74.5912 -5.74777 -1.22085 0
M  V30 843 H 76.1152 -5.71396 -2.15266 0
M  V30 844 H 77.5292 -5.73177 0.118704 0
M  V30 845 H 75.9262 -5.93566 0.88317 0
M  V30 846 H 76.9962 -4.63285 1.43162 0
M  V30 847 N 78.3393 -0.321999 -1.54275 0
M  V30 848 C 79.2893 0.560185 -2.21011 0
M  V30 849 C 80.2733 1.08283 -1.19011 0
M  V30 850 O 81.4653 1.02011 -1.44647 0
M  V30 851 C 78.5943 1.72137 -2.97025 0
M  V30 852 C 77.6803 1.21369 -4.06363 0
M  V30 853 N 78.0713 0.425566 -5.04007 0
M  V30 854 C 76.3693 1.49255 -4.20284 0
M  V30 855 C 77.0703 0.152601 -5.815 0
M  V30 856 N 76.0463 0.738294 -5.38563 0
M  V30 857 H 79.8483 -0.049265 -2.93859 0
M  V30 858 H 77.3623 -0.127779 -1.61897 0
M  V30 859 H 79.3593 2.36512 -3.43319 0
M  V30 860 H 78.0193 2.33431 -2.25699 0
M  V30 861 H 79.0303 0.068551 -5.17855 0
M  V30 862 H 75.7073 2.11145 -3.60172 0
M  V30 863 H 77.0973 -0.481764 -6.70171 0
M  V30 864 N 79.8174 1.5752 -0.0501392 0
M  V30 865 C 80.7494 2.08413 0.95376 0
M  V30 866 C 81.7624 1.01175 1.27544 0
M  V30 867 O 82.9514 1.28744 1.23641 0
M  V30 868 C 80.0514 2.51138 2.27559 0
M  V30 869 C 79.2244 3.817 2.13598 0
M  V30 870 C 78.2834 4.10749 3.28895 0
M  V30 871 O 77.3094 4.80685 3.04845 0
M  V30 872 N 78.5114 3.62579 4.5334 0
M  V30 873 H 81.2764 2.95165 0.519383 0
M  V30 874 H 78.8374 1.61327 0.136127 0
M  V30 875 H 80.8294 2.67648 3.03557 0
M  V30 876 H 79.3994 1.6964 2.62567 0
M  V30 877 H 78.6194 3.74782 1.22197 0
M  V30 878 H 79.9074 4.67201 2.01496 0
M  V30 879 H 79.3054 3.06039 4.75769 0
M  V30 880 H 77.8624 3.84329 5.26436 0
M  V30 881 N 81.2955 -0.223234 1.56011 0
M  V30 882 C 82.7065 -0.790368 1.69145 0
M  V30 883 C 83.0575 -1.85055 0.651845 0
M  V30 884 O 82.1825 -2.15498 -0.197359 0
M  V30 885 C 82.7775 -1.4404 3.06656 0
M  V30 886 C 81.3365 -1.95494 3.2165 0
M  V30 887 C 80.4835 -0.814506 2.65068 0
M  V30 888 H 83.4345 0.00139011 1.587 0
M  V30 889 H 83.4555 -2.30916 3.0242 0
M  V30 890 H 82.9675 -0.668543 3.82298 0
M  V30 891 H 81.0685 -2.75487 2.50874 0
M  V30 892 H 81.1815 -2.13607 4.28846 0
M  V30 893 H 79.5455 -1.22137 2.23505 0
M  V30 894 H 80.3285 -0.0553515 3.43255 0
M  V30 895 N 82.7736 -1.49793 -0.48987 0
M  V30 896 C 83.7366 -1.66752 -1.57246 0
M  V30 897 C 84.7366 -0.538867 -1.51502 0
M  V30 898 O 85.9266 -0.805545 -1.54456 0
M  V30 899 C 83.0586 -1.67528 -2.96896 0
M  V30 900 H 84.2516 -2.63321 -1.43534 0
M  V30 901 H 81.8046 -1.38992 -0.714914 0
M  V30 902 H 82.5396 -0.725837 -3.16073 0
M  V30 903 H 82.3246 -2.49504 -3.02473 0
M  V30 904 H 83.8146 -1.82667 -3.7553 0
M  V30 905 N 84.2517 0.741722 -1.39055 0
M  V30 906 C 85.1997 1.87702 -1.3737 0
M  V30 907 C 86.1937 1.67427 -0.257812 0
M  V30 908 O 87.3997 1.7485 -0.427489 0
M  V30 909 H 83.7747 0.617757 -0.428812 0
M  V30 910 H 85.7457 1.86239 -2.33147 0
M  V30 911 C 84.4947 3.25315 -1.22741 0
M  V30 912 H 83.8177 3.41509 -2.07873 0
M  V30 913 H 85.2577 4.04964 -1.25618 0
M  V30 914 C 83.7167 3.36838 0.0647316 0
M  V30 915 O 84.2467 3.88073 1.03741 0
M  V30 916 N 82.4527 2.90329 0.125544 0
M  V30 917 H 81.9997 2.48823 -0.666682 0
M  V30 918 H 81.9577 2.98418 0.989639 0
M  V30 919 N 85.7298 1.2412 0.971189 0
M  V30 920 C 86.9598 1.10415 1.7462 0
M  V30 921 C 87.3678 -0.346462 1.86001 0
M  V30 922 O 86.7108 -1.25104 1.34517 0
M  V30 923 C 86.7728 1.66596 3.18568 0
M  V30 924 C 86.4368 3.15446 3.3067 0
M  V30 925 C 87.4338 4.12636 3.16271 0
M  V30 926 C 85.1188 3.55337 3.55022 0
M  V30 927 C 87.1128 5.47699 3.26044 0
M  V30 928 C 84.7998 4.90542 3.64434 0
M  V30 929 C 85.7978 5.86532 3.49956 0
M  V30 930 O 85.4858 7.19279 3.59017 0
M  V30 931 H 85.2178 0.386616 0.55453 0
M  V30 932 H 87.7718 1.64633 1.22821 0
M  V30 933 H 86.0018 1.06808 3.71657 0
M  V30 934 H 87.6908 1.48232 3.77865 0
M  V30 935 H 88.4568 3.8316 2.97344 0
M  V30 936 H 84.3358 2.8113 3.65359 0
M  V30 937 H 87.8798 6.22603 3.14661 0
M  V30 938 H 83.7768 5.19691 3.82873 0
M  V30 939 H 84.5448 7.27153 3.75754 0
M  V30 940 N 87.2079 -1.17134 1.05439 0
M  V30 941 C 88.1379 -2.2342 0.678649 0
M  V30 942 C 89.1189 -1.66971 -0.32476 0
M  V30 943 O 90.3039 -1.93149 -0.201802 0
M  V30 944 C 87.4339 -3.47256 0.0552099 0
M  V30 945 C 86.3879 -4.16543 0.98365 0
M  V30 946 C 85.7139 -5.34231 0.223961 0
M  V30 947 C 87.0139 -4.68495 2.3089 0
M  V30 948 H 88.7079 -2.55105 1.56722 0
M  V30 949 H 86.2539 -1.2262 0.754998 0
M  V30 950 H 88.2069 -4.20828 -0.21946 0
M  V30 951 H 86.9309 -3.14846 -0.868319 0
M  V30 952 H 85.5899 -3.44887 1.24293 0
M  V30 953 H 85.2379 -4.98071 -0.702412 0
M  V30 954 H 84.9379 -5.81527 0.842627 0
M  V30 955 H 86.4619 -6.10585 -0.0433671 0
M  V30 956 H 87.8759 -5.33691 2.09396 0
M  V30 957 H 86.2729 -5.26379 2.88176 0
M  V30 958 H 87.3429 -3.85169 2.94572 0
M  V30 959 N 88.686 -0.835752 -1.33615 0
M  V30 960 C 89.935 -0.426289 -1.97144 0
M  V30 961 C 90.248 1.01912 -1.66953 0
M  V30 962 O 91.454 1.53311 -2.24072 0
M  V30 963 C 89.91 -0.711321 -3.52801 0
M  V30 964 C 89.518 -2.1712 -3.91871 0
M  V30 965 C 91.262 -0.368654 -4.22896 0
M  V30 966 C 89.169 -2.40044 -5.40493 0
M  V30 967 H 88.099 -0.15567 -0.737755 0
M  V30 968 H 90.75 -1.0239 -1.52278 0
M  V30 969 H 89.132 -0.0433766 -3.95976 0
M  V30 970 H 90.306 -2.87936 -3.59763 0
M  V30 971 H 88.621 -2.47654 -3.34749 0
M  V30 972 H 91.218 -0.517601 -5.32189 0
M  V30 973 H 91.561 0.688078 -4.10574 0
M  V30 974 H 92.094 -0.991702 -3.8524 0
M  V30 975 H 88.833 -3.44271 -5.57815 0
M  V30 976 H 88.353 -1.73785 -5.74072 0
M  V30 977 H 90.032 -2.23042 -6.0734 0
M  V30 978 N 90.1641 1.46063 -0.591896 0
M  V30 979 C 91.4041 2.04228 -0.0838014 0
M  V30 980 C 91.7681 1.45231 1.25587 0
M  V30 981 O 92.9691 1.94653 1.85375 0
M  V30 982 C 91.2401 3.57389 -0.0286282 0
M  V30 983 S 92.7991 4.3678 0.420557 0
M  V30 984 H 89.6171 0.709762 -0.0419319 0
M  V30 985 H 92.2191 1.78983 -0.786465 0
M  V30 986 H 90.9231 3.97843 -1.00743 0
M  V30 987 H 90.4541 3.87185 0.69652 0
M  V30 988 H 92.4691 4.67131 1.67341 0
M  V30 989 N 91.6422 0.330177 1.54103 0
M  V30 990 C 92.8672 -0.274893 2.0557 0
M  V30 991 C 93.2922 -1.44487 1.20437 0
M  V30 992 O 92.6502 -1.80021 0.214991 0
M  V30 993 C 92.6982 -0.68079 3.54115 0
M  V30 994 O 91.8022 -1.7824 3.71893 0
M  V30 995 H 91.1432 -0.0483849 0.662235 0
M  V30 996 H 93.6732 0.480508 1.98878 0
M  V30 997 H 93.6832 -0.961635 3.96505 0
M  V30 998 H 92.3582 0.174903 4.15532 0
M  V30 999 H 90.9352 -1.49985 3.41407 0
M  V30 1000 N 93.1203 -1.57491 0.0584922 0
M  V30 1001 C 94.0503 -2.14988 -0.911178 0
M  V30 1002 C 95.0313 -1.07343 -1.31952 0
M  V30 1003 O 96.2163 -1.35318 -1.39294 0
M  V30 1004 C 93.3463 -2.70078 -2.18347 0
M  V30 1005 C 92.3003 -3.82771 -1.91495 0
M  V30 1006 C 91.6263 -4.24408 -3.25241 0
M  V30 1007 C 92.9263 -5.07592 -1.23075 0
M  V30 1008 H 94.6203 -2.96263 -0.432246 0
M  V30 1009 H 92.1663 -1.42512 -0.206469 0
M  V30 1010 H 94.1193 -3.08943 -2.86587 0
M  V30 1011 H 92.8433 -1.86005 -2.68458 0
M  V30 1012 H 91.5023 -3.44389 -1.25664 0
M  V30 1013 H 91.1503 -3.37275 -3.73168 0
M  V30 1014 H 90.8503 -5.00366 -3.08071 0
M  V30 1015 H 92.3743 -4.65879 -3.94701 0
M  V30 1016 H 93.7883 -5.43857 -1.81362 0
M  V30 1017 H 92.1853 -5.88741 -1.16207 0
M  V30 1018 H 93.2553 -4.84454 -0.207847 0
M  V30 1019 N 94.5984 0.214957 -1.56127 0
M  V30 1020 C 95.5614 1.24997 -1.92116 0
M  V30 1021 C 96.5614 1.39467 -0.800344 0
M  V30 1022 O 97.7514 1.37619 -1.06802 0
M  V30 1023 C 94.8834 2.62271 -2.17777 0
M  V30 1024 H 96.0764 0.942875 -2.84693 0
M  V30 1025 H 93.6294 0.455654 -1.49511 0
M  V30 1026 H 94.3644 2.98068 -1.27773 0
M  V30 1027 H 94.1494 2.53143 -2.99434 0
M  V30 1028 H 95.6394 3.36946 -2.46693 0
M  V30 1029 N 96.0765 1.50051 0.48192 0
M  V30 1030 C 97.3225 1.60736 1.2366 0
M  V30 1031 C 97.6555 0.301786 1.91841 0
M  V30 1032 O 96.9305 -0.696025 1.8162 0
M  V30 1033 C 97.2135 2.78009 2.28874 0
M  V30 1034 C 97.0665 4.18416 1.65069 0
M  V30 1035 C 98.3855 2.90867 3.30279 0
M  V30 1036 H 95.5045 0.585031 0.448228 0
M  V30 1037 H 98.1465 1.82402 0.531946 0
M  V30 1038 H 96.2965 2.59667 2.88973 0
M  V30 1039 H 97.9685 4.48322 1.0865 0
M  V30 1040 H 96.2115 4.23177 0.954148 0
M  V30 1041 H 96.8825 4.96381 2.41474 0
M  V30 1042 H 99.3585 3.07623 2.80191 0
M  V30 1043 H 98.2345 3.74566 4.01238 0
M  V30 1044 H 98.4955 2.01021 3.93755 0
M  V30 1045 N 97.5546 -0.734337 1.39446 0
M  V30 1046 C 98.7826 -1.52358 1.39981 0
M  V30 1047 C 99.1976 -1.88799 -0.0054975 0
M  V30 1048 O 98.5546 -1.54146 -0.976998 0
M  V30 1049 C 98.6056 -2.81072 2.27333 0
M  V30 1050 O 98.3266 -2.46178 3.62392 0
M  V30 1051 C 99.8276 -3.75096 2.36259 0
M  V30 1052 H 97.0476 -0.470806 0.478103 0
M  V30 1053 H 99.5916 -0.907339 1.83269 0
M  V30 1054 H 97.7466 -3.39026 1.87457 0
M  V30 1055 H 98.1606 -3.28866 4.08592 0
M  V30 1056 H 99.6346 -4.62305 3.01626 0
M  V30 1057 H 100.112 -4.16892 1.38194 0
M  V30 1058 H 100.718 -3.23061 2.76608 0
M  V30 1059 N 99.0327 -1.24633 -0.964593 0
M  V30 1060 C 100.31 -0.995809 -1.68354 0
M  V30 1061 C 100.69 0.480964 -2.05548 0
M  V30 1062 O 100.038 1.45599 -1.76105 0
M  V30 1063 C 100.248 -1.92177 -2.91323 0
M  V30 1064 C 101.596 -2.19446 -3.63495 0
M  V30 1065 O 102.62 -1.89855 -3.01386 0
M  V30 1066 O 101.479 -2.69714 -4.75307 0
M  V30 1067 H 98.5727 -0.376854 -0.736146 0
M  V30 1068 H 101.119 -1.35745 -1.0184 0
M  V30 1069 H 99.8907 -2.91938 -2.60553 0
M  V30 1070 H 99.5137 -1.56349 -3.65569 0
M  V30 1071 N 100.511 1.16574 -1.06058 0
M  V30 1072 C 101.441 2.23057 -0.690488 0
M  V30 1073 C 102.422 1.67141 0.315901 0
M  V30 1074 O 103.607 1.93253 0.191556 0
M  V30 1075 C 100.737 3.47222 -0.073625 0
M  V30 1076 C 99.6908 4.16016 -1.00573 0
M  V30 1077 C 99.0168 5.34104 -0.252289 0
M  V30 1078 C 100.317 4.67264 -2.33371 0
M  V30 1079 H 102.011 2.54271 -1.58072 0
M  V30 1080 H 99.5568 1.22218 -0.76149 0
M  V30 1081 H 101.51 4.20939 0.19714 0
M  V30 1082 H 100.234 3.15302 0.85161 0
M  V30 1083 H 98.8928 3.44223 -1.2612 0
M  V30 1084 H 98.5408 4.98437 0.675988 0
M  V30 1085 H 98.2408 5.81072 -0.873455 0
M  V30 1086 H 99.7648 6.10599 0.0109857 0
M  V30 1087 H 101.179 5.32573 -2.12223 0
M  V30 1088 H 99.5758 5.24843 -2.90963 0
M  V30 1089 H 100.646 3.83602 -2.96611 0
M  V30 1090 N 101.989 0.842826 1.3317 0
M  V30 1091 C 102.919 0.294028 2.31641 0
M  V30 1092 C 103.9 -0.600401 1.59151 0
M  V30 1093 O 105.085 -0.523124 1.87022 0
M  V30 1094 C 102.215 -0.528416 3.43257 0
M  V30 1095 C 101.169 0.27056 4.27144 0
M  V30 1096 C 100.495 -0.675881 5.30411 0
M  V30 1097 C 101.795 1.48981 5.00602 0
M  V30 1098 H 103.489 1.11681 2.77791 0
M  V30 1099 H 101.035 0.538478 1.33553 0
M  V30 1100 H 102.988 -0.922674 4.11175 0
M  V30 1101 H 101.712 -1.38445 2.95805 0
M  V30 1102 H 100.371 0.646427 3.60856 0
M  V30 1103 H 100.019 -1.52842 4.79216 0
M  V30 1104 H 99.7189 -0.145374 5.8742 0
M  V30 1105 H 101.243 -1.06757 6.01195 0
M  V30 1106 H 102.657 1.16849 5.61266 0
M  V30 1107 H 101.054 1.95739 5.6728 0
M  V30 1108 H 102.124 2.25746 4.29147 0
M  V30 1109 N 103.467 -1.45747 0.599634 0
M  V30 1110 C 104.713 -2.02592 0.0918643 0
M  V30 1111 C 105.046 -1.46806 -1.27128 0
M  V30 1112 O 104.321 -0.639658 -1.83681 0
M  V30 1113 C 104.604 -3.60073 0.0443398 0
M  V30 1114 C 104.457 -4.26208 1.43759 0
M  V30 1115 C 105.776 -4.35309 -0.647608 0
M  V30 1116 H 102.895 -0.736175 0.034857 0
M  V30 1117 H 105.537 -1.73694 0.770081 0
M  V30 1118 H 103.687 -3.84823 -0.533224 0
M  V30 1119 H 105.359 -4.12668 2.06162 0
M  V30 1120 H 103.602 -3.84916 2.00056 0
M  V30 1121 H 104.273 -5.35069 1.35665 0
M  V30 1122 H 106.749 -4.15805 -0.156776 0
M  V30 1123 H 105.625 -5.45038 -0.649942 0
M  V30 1124 H 105.886 -4.07598 -1.71219 0
M  V30 1125 N 104.945 -0.338344 -1.53925 0
M  V30 1126 C 105.908 0.508299 -2.23493 0
M  V30 1127 C 106.908 1.03175 -1.23335 0
M  V30 1128 O 108.098 0.921826 -1.47811 0
M  V30 1129 C 105.23 1.70754 -2.95052 0
M  V30 1130 H 106.423 -0.100058 -2.99733 0
M  V30 1131 H 103.976 -0.0896198 -1.56043 0
M  V30 1132 H 104.711 2.35474 -2.22986 0
M  V30 1133 H 104.496 1.33946 -3.68512 0
M  V30 1134 H 105.986 2.30818 -3.48013 0
M  V30 1135 N 106.423 1.57458 -0.0668435 0
M  V30 1136 C 107.669 1.93587 0.6043 0
M  V30 1137 C 108.002 0.946722 1.69561 0
M  V30 1138 O 107.277 -0.0248516 1.94484 0
M  V30 1139 C 107.56 3.40014 1.18585 0
M  V30 1140 C 107.413 4.49685 0.101529 0
M  V30 1141 C 108.732 3.87154 2.09284 0
M  V30 1142 H 105.851 0.703958 0.218202 0
M  V30 1143 H 108.493 1.89542 -0.131804 0
M  V30 1144 H 106.643 3.43592 1.81319 0
M  V30 1145 H 108.315 4.5823 -0.531279 0
M  V30 1146 H 106.558 4.30059 -0.568487 0
M  V30 1147 H 107.229 5.49266 0.54874 0
M  V30 1148 H 109.705 3.85551 1.56491 0
M  V30 1149 H 108.581 4.90231 2.46911 0
M  V30 1150 H 108.842 3.2481 2.99918 0
M  V30 1151 N 107.901 -0.206675 1.56239 0
M  V30 1152 C 108.831 -1.25909 1.96645 0
M  V30 1153 C 109.812 -1.48097 0.836734 0
M  V30 1154 O 110.997 -1.6003 1.10019 0
M  V30 1155 C 108.127 -2.6058 2.29599 0
M  V30 1156 C 107.081 -2.53024 3.452 0
M  V30 1157 C 106.407 -3.91861 3.63798 0
M  V30 1158 C 107.707 -2.06524 4.79734 0
M  V30 1159 H 109.401 -0.923369 2.84806 0
M  V30 1160 H 106.947 -0.442735 1.37025 0
M  V30 1161 H 108.9 -3.34375 2.56459 0
M  V30 1162 H 107.624 -2.95869 1.38307 0
M  V30 1163 H 106.283 -1.81684 3.18412 0
M  V30 1164 H 105.931 -4.24483 2.69857 0
M  V30 1165 H 105.631 -3.87683 4.4156 0
M  V30 1166 H 107.155 -4.67296 3.93022 0
M  V30 1167 H 108.569 -2.70072 5.05702 0
M  V30 1168 H 106.966 -2.13374 5.60885 0
M  V30 1169 H 108.036 -1.01802 4.74093 0
M  V30 1170 N 109.379 -1.50304 -0.473955 0
M  V30 1171 C 110.625 -1.61389 -1.22806 0
M  V30 1172 C 110.958 -0.311955 -1.91678 0
M  V30 1173 O 110.233 0.686384 -1.81986 0
M  V30 1174 C 110.516 -2.79219 -2.27396 0
M  V30 1175 C 110.369 -4.19286 -1.62848 0
M  V30 1176 C 111.688 -2.92614 -3.28732 0
M  V30 1177 H 108.807 -0.587399 -0.445119 0
M  V30 1178 H 111.449 -1.82681 -0.522265 0
M  V30 1179 H 109.599 -2.61195 -2.87592 0
M  V30 1180 H 111.271 -4.48892 -1.06271 0
M  V30 1181 H 109.514 -4.23677 -0.931693 0
M  V30 1182 H 110.185 -4.97655 -2.38838 0
M  V30 1183 H 112.661 -3.09105 -2.78556 0
M  V30 1184 H 111.537 -3.76688 -3.99246 0
M  V30 1185 H 111.798 -2.03107 -3.92683 0
M  V30 1186 N 110.857 0.726932 -1.39834 0
M  V30 1187 C 111.79 1.8501 -1.33592 0
M  V30 1188 C 112.768 1.61262 -0.208191 0
M  V30 1189 O 113.952 1.84422 -0.389981 0
M  V30 1190 C 111.079 3.21143 -1.07633 0
M  V30 1191 C 110.125 3.63737 -2.22705 0
M  V30 1192 S 110.958 3.72167 -3.85035 0
M  V30 1193 C 112.114 5.11077 -3.61318 0
M  V30 1194 H 112.347 1.90022 -2.28646 0
M  V30 1195 H 109.88 0.892595 -1.25985 0
M  V30 1196 H 111.838 3.99747 -0.933415 0
M  V30 1197 H 110.499 3.13776 -0.142526 0
M  V30 1198 H 109.692 4.62551 -2.00155 0
M  V30 1199 H 109.294 2.9236 -2.33242 0
M  V30 1200 H 111.586 5.97656 -3.19083 0
M  V30 1201 H 112.529 5.38658 -4.59623 0
M  V30 1202 H 112.937 4.81135 -2.95245 0
M  V30 1203 N 112.336 1.25143 0.95797 0
M  V30 1204 C 113.747 1.08851 1.51685 0
M  V30 1205 C 114.098 -0.33687 1.93286 0
M  V30 1206 O 113.223 -1.22644 1.7829 0
M  V30 1207 C 113.818 1.96978 2.75654 0
M  V30 1208 C 112.377 1.84881 3.27866 0
M  V30 1209 C 111.524 1.91329 2.0072 0
M  V30 1210 H 114.475 1.38478 0.77522 0
M  V30 1211 H 114.496 1.5078 3.4935 0
M  V30 1212 H 114.008 3.00712 2.45345 0
M  V30 1213 H 112.109 0.840182 3.63004 0
M  V30 1214 H 112.222 2.6951 3.96107 0
M  V30 1215 H 110.586 1.35174 2.15871 0
M  V30 1216 H 111.369 2.96661 1.72764 0
M  V30 1217 N 113.814 -1.1601 1.06675 0
M  V30 1218 C 114.744 -2.22688 0.702307 0
M  V30 1219 C 115.725 -1.67306 -0.307032 0
M  V30 1220 O 116.91 -1.93352 -0.181305 0
M  V30 1221 C 114.04 -3.47178 0.092038 0
M  V30 1222 C 112.994 -4.15477 1.02777 0
M  V30 1223 C 112.32 -5.33963 0.28061 0
M  V30 1224 C 113.62 -4.66019 2.35846 0
M  V30 1225 H 115.314 -2.53429 1.59419 0
M  V30 1226 H 112.86 -1.21813 0.767961 0
M  V30 1227 H 114.813 -4.21037 -0.174814 0
M  V30 1228 H 113.537 -3.15749 -0.834877 0
M  V30 1229 H 112.196 -3.43549 1.27944 0
M  V30 1230 H 111.844 -4.98788 -0.649545 0
M  V30 1231 H 111.544 -5.806 0.904258 0
M  V30 1232 H 113.068 -6.10596 0.021396 0
M  V30 1233 H 114.482 -5.3144 2.15045 0
M  V30 1234 H 112.879 -5.23293 2.93743 0
M  V30 1235 H 113.949 -3.82023 2.98641 0
M  V30 1236 N 115.292 -0.849877 -1.32721 0
M  V30 1237 C 116.517 -0.463856 -2.02146 0
M  V30 1238 C 116.942 0.930449 -1.63476 0
M  V30 1239 O 116.3 1.61033 -0.832952 0
M  V30 1240 C 116.348 -0.604955 -3.55489 0
M  V30 1241 O 115.452 0.36425 -4.10788 0
M  V30 1242 H 114.793 -0.187046 -0.637111 0
M  V30 1243 H 117.323 -1.14775 -1.69375 0
M  V30 1244 H 117.333 -0.490696 -4.05038 0
M  V30 1245 H 116.008 -1.62174 -3.82978 0
M  V30 1246 H 114.585 0.206628 -3.72327 0
M  V30 1247 N 116.77 1.45427 -0.607355 0
M  V30 1248 C 118.019 2.01452 -0.100036 0
M  V30 1249 C 118.332 1.48159 1.27704 0
M  V30 1250 O 119.538 1.96159 1.87707 0
M  V30 1251 C 117.994 3.59672 -0.128158 0
M  V30 1252 C 117.602 4.21962 -1.50507 0
M  V30 1253 C 119.346 4.23262 0.323932 0
M  V30 1254 C 117.253 5.72333 -1.48959 0
M  V30 1255 H 116.183 0.75325 -0.0336299 0
M  V30 1256 H 118.834 1.66901 -0.76265 0
M  V30 1257 H 117.216 3.91411 0.601105 0
M  V30 1258 H 118.39 4.01796 -2.25602 0
M  V30 1259 H 116.705 3.70565 -1.89923 0
M  V30 1260 H 119.302 5.33522 0.354691 0
M  V30 1261 H 119.645 3.93921 1.34656 0
M  V30 1262 H 120.178 3.96239 -0.352056 0
M  V30 1263 H 116.917 6.06373 -2.48981 0
M  V30 1264 H 116.437 5.94691 -0.781214 0
M  V30 1265 H 118.116 6.35525 -1.21313 0
M  V30 1266 N 118.248 0.346503 1.53744 0
M  V30 1267 C 119.497 -0.250122 2.00143 0
M  V30 1268 C 119.81 -1.51418 1.23822 0
M  V30 1269 O 121.016 -2.18823 1.60713 0
M  V30 1270 C 119.472 -0.496252 3.56462 0
M  V30 1271 C 119.08 0.752077 4.41642 0
M  V30 1272 C 120.824 -1.05157 4.11269 0
M  V30 1273 C 118.731 0.476583 5.89477 0
M  V30 1274 H 117.661 -0.0972409 0.747703 0
M  V30 1275 H 120.312 0.46229 1.77581 0
M  V30 1276 H 118.694 -1.26944 3.75102 0
M  V30 1277 H 119.868 1.5266 4.34778 0
M  V30 1278 H 118.183 1.22925 3.97842 0
M  V30 1279 H 120.78 -1.27269 5.19333 0
M  V30 1280 H 121.123 -2.00799 3.64672 0
M  V30 1281 H 121.656 -0.339019 3.96353 0
M  V30 1282 H 118.395 1.4028 6.40314 0
M  V30 1283 H 117.915 -0.259794 5.99237 0
M  V30 1284 H 119.594 0.0949315 6.4693 0
M  V30 1285 N 119.726 -1.57421 0.075193 0
M  V30 1286 C 120.956 -1.97659 -0.601203 0
M  V30 1287 C 121.364 -0.952427 -1.63479 0
M  V30 1288 O 120.707 0.0688241 -1.83571 0
M  V30 1289 C 120.769 -3.34218 -1.32434 0
M  V30 1290 C 120.433 -4.5484 -0.443826 0
M  V30 1291 C 121.43 -5.19034 0.299969 0
M  V30 1292 C 119.115 -5.00952 -0.367709 0
M  V30 1293 C 121.109 -6.27695 1.10807 0
M  V30 1294 C 118.796 -6.09484 0.444058 0
M  V30 1295 C 119.794 -6.72719 1.18061 0
M  V30 1296 O 119.482 -7.79161 1.97898 0
M  V30 1297 H 119.214 -0.65494 -0.167422 0
M  V30 1298 H 121.768 -2.04886 0.145157 0
M  V30 1299 H 119.998 -3.23615 -2.11685 0
M  V30 1300 H 121.687 -3.59038 -1.89331 0
M  V30 1301 H 122.453 -4.84351 0.250776 0
M  V30 1302 H 118.332 -4.51509 -0.930638 0
M  V30 1303 H 121.876 -6.76982 1.68347 0
M  V30 1304 H 117.773 -6.43601 0.494803 0
M  V30 1305 H 118.541 -7.96055 1.90367 0
M  V30 1306 N 121.204 0.198386 -1.56346 0
M  V30 1307 C 122.453 0.917451 -1.79627 0
M  V30 1308 C 122.766 1.8456 -0.64784 0
M  V30 1309 O 123.972 2.60504 -0.764859 0
M  V30 1310 C 122.428 1.68175 -3.18191 0
M  V30 1311 C 122.036 0.798589 -4.40825 0
M  V30 1312 C 123.78 2.39065 -3.50782 0
M  V30 1313 C 121.687 1.56157 -5.70411 0
M  V30 1314 H 120.617 0.346317 -0.669762 0
M  V30 1315 H 123.268 0.170801 -1.82703 0
M  V30 1316 H 121.65 2.47216 -3.09354 0
M  V30 1317 H 122.824 0.0470665 -4.60776 0
M  V30 1318 H 121.139 0.200686 -4.15916 0
M  V30 1319 H 123.736 2.96692 -4.44835 0
M  V30 1320 H 124.079 3.13091 -2.74371 0
M  V30 1321 H 124.612 1.66993 -3.61052 0
M  V30 1322 H 121.351 0.864142 -6.49779 0
M  V30 1323 H 120.871 2.2871 -5.54483 0
M  V30 1324 H 122.55 2.11622 -6.11412 0
M  V30 1325 N 122.682 1.50554 0.465978 0
M  V30 1326 C 123.928 1.62038 1.21949 0
M  V30 1327 C 124.261 0.322116 1.9151 0
M  V30 1328 O 123.536 -0.676723 1.82348 0
M  V30 1329 C 123.819 2.80421 2.25912 0
M  V30 1330 C 123.672 4.20144 1.60622 0
M  V30 1331 C 124.991 2.94354 3.27176 0
M  V30 1332 H 122.11 0.589752 0.441998 0
M  V30 1333 H 124.752 1.82956 0.51257 0
M  V30 1334 H 122.902 2.62717 2.86203 0
M  V30 1335 H 124.574 4.49449 1.03889 0
M  V30 1336 H 122.817 4.24165 0.909211 0
M  V30 1337 H 123.488 4.98914 2.36196 0
M  V30 1338 H 125.964 3.10578 2.76913 0
M  V30 1339 H 124.84 3.788 3.97242 0
M  V30 1340 H 125.101 2.05186 3.916 0
M  V30 1341 N 124.16 -0.719506 1.40217 0
M  V30 1342 C 125.093 -1.84298 1.34571 0
M  V30 1343 C 126.071 -1.61149 0.216741 0
M  V30 1344 O 127.255 -1.84212 0.399756 0
M  V30 1345 C 124.382 -3.20568 1.09335 0
M  V30 1346 C 123.428 -3.62551 2.24631 0
M  V30 1347 S 124.261 -3.7012 3.87004 0
M  V30 1348 C 125.417 -5.09154 3.64024 0
M  V30 1349 H 125.65 -1.88807 2.2965 0
M  V30 1350 H 123.183 -0.885901 1.26456 0
M  V30 1351 H 125.141 -3.99246 0.954602 0
M  V30 1352 H 123.802 -3.13696 0.159164 0
M  V30 1353 H 122.995 -4.61483 2.02606 0
M  V30 1354 H 122.597 -2.91119 2.34789 0
M  V30 1355 H 124.889 -5.95955 3.22248 0
M  V30 1356 H 125.832 -5.36213 4.62473 0
M  V30 1357 H 126.24 -4.79562 2.97793 0
M  V30 1358 N 125.638 -1.25649 -0.95132 0
M  V30 1359 C 126.915 -1.01361 -1.67288 0
M  V30 1360 C 127.295 0.459135 -2.06046 0
M  V30 1361 O 126.643 1.43723 -1.7764 0
M  V30 1362 C 126.853 -1.95256 -2.89268 0
M  V30 1363 C 128.201 -2.23289 -3.61147 0
M  V30 1364 O 129.225 -1.93041 -2.99355 0
M  V30 1365 O 128.084 -2.74741 -4.72419 0
M  V30 1366 H 125.178 -0.38464 -0.732107 0
M  V30 1367 H 127.724 -1.36817 -1.00395 0
M  V30 1368 H 126.496 -2.94685 -2.57442 0
M  V30 1369 H 126.119 -1.60218 -3.6389 0
M  V30 1370 N 127.117 1.15442 -1.07289 0
M  V30 1371 C 128.533 1.38201 -0.798288 0
M  V30 1372 C 128.733 1.92429 0.597769 0
M  V30 1373 O 127.789 2.12962 1.3566 0
M  V30 1374 C 129.102 2.35357 -1.87156 0
M  V30 1375 C 130.65 2.49021 -1.89624 0
M  V30 1376 C 131.125 3.49468 -2.96034 0
M  V30 1377 N 132.616 3.57003 -2.95132 0
M  V30 1378 C 133.351 4.34543 -3.74112 0
M  V30 1379 N 132.847 5.15421 -4.6294 0
M  V30 1380 N 134.64 4.29625 -3.62462 0
M  V30 1381 H 126.791 0.78584 -1.97328 0
M  V30 1382 H 129.054 0.408065 -0.855679 0
M  V30 1383 H 128.76 2.02626 -2.87464 0
M  V30 1384 H 128.634 3.35129 -1.73114 0
M  V30 1385 H 131.021 2.81051 -0.899687 0
M  V30 1386 H 131.102 1.4925 -2.07745 0
M  V30 1387 H 130.746 3.18173 -3.95889 0
M  V30 1388 H 130.676 4.48992 -2.75161 0
M  V30 1389 H 133.167 2.99276 -2.30743 0
M  V30 1390 H 133.48 5.7183 -5.19837 0
M  V30 1391 H 131.825 5.14729 -4.66989 0
M  V30 1392 H 135.016 3.65505 -2.92444 0
M  V30 1393 H 135.189 4.89807 -4.24256 0
M  V30 1394 N 128.595 0.856903 1.32268 0
M  V30 1395 C 129.841 0.471355 1.97863 0
M  V30 1396 C 130.196 -0.962896 1.66572 0
M  V30 1397 O 129.489 -1.66686 0.944797 0
M  V30 1398 C 129.683 0.649919 3.51441 0
M  V30 1399 C 129.512 2.09997 3.97657 0
M  V30 1400 C 128.282 2.73893 4.2463 0
M  V30 1401 C 130.48 3.07081 4.1256 0
M  V30 1402 N 128.462 4.09786 4.57109 0
M  V30 1403 C 129.833 4.27968 4.48602 0
M  V30 1404 C 131.888 3.03247 3.949 0
M  V30 1405 C 130.591 5.45521 4.68827 0
M  V30 1406 C 132.617 4.20046 4.16311 0
M  V30 1407 C 131.979 5.39692 4.52672 0
M  V30 1408 H 128.078 0.221263 0.750044 0
M  V30 1409 H 130.662 1.10876 1.60045 0
M  V30 1410 H 128.833 0.0421938 3.88377 0
M  V30 1411 H 130.565 0.234044 4.04023 0
M  V30 1412 H 127.32 2.24918 4.16784 0
M  V30 1413 H 127.744 4.7989 4.7753 0
M  V30 1414 H 132.386 2.11863 3.65888 0
M  V30 1415 H 130.104 6.37434 4.96693 0
M  V30 1416 H 133.69 4.18517 4.04147 0
M  V30 1417 H 132.57 6.28566 4.68907 0
M  V30 1418 N 130.073 -1.45103 0.615059 0
M  V30 1419 C 131.02 -2.30586 -0.0993978 0
M  V30 1420 C 131.99 -1.42544 -0.852669 0
M  V30 1421 O 133.175 -1.71465 -0.836917 0
M  V30 1422 C 130.315 -3.27572 -1.08583 0
M  V30 1423 C 129.428 -4.30717 -0.332656 0
M  V30 1424 C 128.563 -5.14807 -1.30947 0
M  V30 1425 C 127.602 -6.09673 -0.544538 0
M  V30 1426 N 126.739 -6.86517 -1.47101 0
M  V30 1427 H 131.579 -2.91144 0.635542 0
M  V30 1428 H 129.116 -1.4346 0.325206 0
M  V30 1429 H 131.074 -3.82276 -1.67095 0
M  V30 1430 H 129.704 -2.68751 -1.78809 0
M  V30 1431 H 128.756 -3.78615 0.368107 0
M  V30 1432 H 130.068 -4.98102 0.263842 0
M  V30 1433 H 129.222 -5.73948 -1.96643 0
M  V30 1434 H 127.961 -4.47458 -1.9399 0
M  V30 1435 H 126.966 -5.49656 0.126003 0
M  V30 1436 H 128.191 -6.79052 0.080947 0
M  V30 1437 H 126.137 -6.21851 -2.08895 0
M  V30 1438 H 126.054 -7.50281 -0.928137 0
M  V30 1439 H 127.322 -7.50194 -2.11731 0
M  V30 1440 N 131.551 -0.354651 -1.53558 0
M  V30 1441 C 132.481 0.489091 -2.2832 0
M  V30 1442 C 133.462 1.09324 -1.30316 0
M  V30 1443 O 134.647 1.11255 -1.59173 0
M  V30 1444 C 131.777 1.63456 -3.0643 0
M  V30 1445 C 130.731 1.1582 -4.12031 0
M  V30 1446 C 130.057 2.39305 -4.7816 0
M  V30 1447 C 131.357 0.250731 -5.21698 0
M  V30 1448 H 133.051 -0.134614 -2.99097 0
M  V30 1449 H 130.597 -0.0661826 -1.43848 0
M  V30 1450 H 132.55 2.23136 -3.57475 0
M  V30 1451 H 131.274 2.28533 -2.33325 0
M  V30 1452 H 129.933 0.584146 -3.61916 0
M  V30 1453 H 129.581 3.02814 -4.01637 0
M  V30 1454 H 129.281 2.08109 -5.49513 0
M  V30 1455 H 130.805 2.99691 -5.31994 0
M  V30 1456 H 132.219 0.754695 -5.68311 0
M  V30 1457 H 130.616 0.0301468 -6.00092 0
M  V30 1458 H 131.686 -0.710125 -4.79672 0
M  V30 1459 N 133.029 1.57378 -0.0835403 0
M  V30 1460 C 134.277 1.93547 0.581718 0
M  V30 1461 C 134.598 0.96524 1.69435 0
M  V30 1462 O 133.868 0.0153369 1.95894 0
M  V30 1463 H 132.448 0.714521 0.217874 0
M  V30 1464 H 135.11 1.94366 -0.144158 0
M  V30 1465 H 134.206 2.95665 0.999423 0
M  V30 1466 N 134.507 -0.190092 1.56449 0
M  V30 1467 C 135.737 -0.92443 1.84764 0
M  V30 1468 C 136.145 -1.77146 0.664529 0
M  V30 1469 O 135.488 -1.79812 -0.375957 0
M  V30 1470 C 135.55 -1.86651 3.07248 0
M  V30 1471 C 135.214 -1.20094 4.40938 0
M  V30 1472 C 136.211 -0.575445 5.16706 0
M  V30 1473 C 133.896 -1.2033 4.87674 0
M  V30 1474 C 135.89 0.0388111 6.37388 0
M  V30 1475 C 133.577 -0.585214 6.08291 0
M  V30 1476 C 134.575 0.0347578 6.82991 0
M  V30 1477 O 134.263 0.643147 8.01323 0
M  V30 1478 H 133.995 -0.274974 0.617548 0
M  V30 1479 H 136.549 -0.200788 2.04416 0
M  V30 1480 H 134.779 -2.62998 2.83494 0
M  V30 1481 H 136.468 -2.46907 3.22167 0
M  V30 1482 H 137.234 -0.565728 4.81689 0
M  V30 1483 H 133.113 -1.67526 4.29484 0
M  V30 1484 H 136.657 0.523329 6.95634 0
M  V30 1485 H 132.554 -0.592451 6.42775 0
M  V30 1486 H 133.322 0.540545 8.16713 0
M  V30 1487 N 135.985 -1.50799 -0.457987 0
M  V30 1488 C 137.232 -1.62442 -1.20908 0
M  V30 1489 C 137.56 -0.330865 -1.91665 0
M  V30 1490 O 136.815 0.68401 -1.83357 0
M  V30 1491 C 137.114 -2.76358 -2.2663 0
M  V30 1492 C 136.78 -4.16378 -1.73033 0
M  V30 1493 C 135.442 -4.54473 -1.58138 0
M  V30 1494 C 137.794 -5.03836 -1.33413 0
M  V30 1495 C 135.122 -5.77754 -1.02065 0
M  V30 1496 C 137.474 -6.27676 -0.78778 0
M  V30 1497 C 136.138 -6.64562 -0.625561 0
M  V30 1498 H 135.408 -0.594417 -0.442435 0
M  V30 1499 H 138.055 -1.84772 -0.503136 0
M  V30 1500 H 136.36 -2.48167 -3.03184 0
M  V30 1501 H 138.057 -2.82568 -2.84528 0
M  V30 1502 H 134.647 -3.86331 -1.85598 0
M  V30 1503 H 138.831 -4.75026 -1.4375 0
M  V30 1504 H 134.087 -6.04997 -0.882547 0
M  V30 1505 H 138.261 -6.94797 -0.472177 0
M  V30 1506 H 135.888 -7.59965 -0.188926 0
M  V30 1507 N 137.463 0.71206 -1.40597 0
M  V30 1508 C 138.393 1.83889 -1.43899 0
M  V30 1509 C 139.374 1.67442 -0.299504 0
M  V30 1510 O 140.559 1.87421 -0.508624 0
M  V30 1511 C 137.689 3.21877 -1.30431 0
M  V30 1512 C 136.643 3.53002 -2.42019 0
M  V30 1513 C 135.969 4.90172 -2.13626 0
M  V30 1514 C 137.269 3.53643 -3.84362 0
M  V30 1515 H 138.963 1.81383 -2.38203 0
M  V30 1516 H 136.509 0.871237 -1.14654 0
M  V30 1517 H 138.462 4.00404 -1.31357 0
M  V30 1518 H 137.186 3.24968 -0.326049 0
M  V30 1519 H 135.845 2.76818 -2.40349 0
M  V30 1520 H 135.493 4.89869 -1.14182 0
M  V30 1521 H 135.193 5.11962 -2.88389 0
M  V30 1522 H 136.717 5.71028 -2.1624 0
M  V30 1523 H 138.131 4.22203 -3.87837 0
M  V30 1524 H 136.528 3.86961 -4.58673 0
M  V30 1525 H 137.598 2.52954 -4.13693 0
M  V30 1526 N 138.941 1.26152 0.944643 0
M  V30 1527 C 140.181 1.12708 1.70517 0
M  V30 1528 C 140.545 -0.324727 1.89234 0
M  V30 1529 O 141.746 -0.581211 2.62441 0
M  V30 1530 C 140.017 1.8713 3.04495 0
M  V30 1531 S 141.576 1.89698 3.95677 0
M  V30 1532 H 138.394 0.402665 0.585988 0
M  V30 1533 H 140.996 1.59821 1.12594 0
M  V30 1534 H 139.7 2.91833 2.88551 0
M  V30 1535 H 139.231 1.40444 3.67477 0
M  V30 1536 H 141.246 0.981198 4.86402 0
M  V30 1537 N 140.419 -1.14872 1.07899 0
M  V30 1538 C 141.329 -2.2341 0.715915 0
M  V30 1539 C 142.345 -1.71808 -0.275306 0
M  V30 1540 O 143.521 -2.01039 -0.120545 0
M  V30 1541 C 140.586 -3.46474 0.125168 0
M  V30 1542 C 139.647 -4.13039 1.17034 0
M  V30 1543 C 138.88 -5.30229 0.607688 0
M  V30 1544 O 139.103 -5.675 -0.574497 0
M  V30 1545 O 138.037 -5.86444 1.35526 0
M  V30 1546 H 141.863 -2.56808 1.62121 0
M  V30 1547 H 139.448 -1.22702 0.852322 0
M  V30 1548 H 141.33 -4.20917 -0.201729 0
M  V30 1549 H 140.005 -3.14811 -0.753364 0
M  V30 1550 H 138.912 -3.40493 1.54968 0
M  V30 1551 H 140.245 -4.48796 2.02097 0
M  V30 1552 N 141.898 -0.863906 -1.31812 0
M  V30 1553 C 143.144 -0.472535 -1.97218 0
M  V30 1554 C 143.477 0.971394 -1.68159 0
M  V30 1555 O 142.752 1.68309 -0.974798 0
M  V30 1556 C 143.035 -0.723054 -3.52766 0
M  V30 1557 C 142.888 -2.21608 -3.91421 0
M  V30 1558 C 144.207 -0.185522 -4.39709 0
M  V30 1559 H 141.326 -0.173158 -0.71637 0
M  V30 1560 H 143.968 -1.08403 -1.56041 0
M  V30 1561 H 142.118 -0.202577 -3.87971 0
M  V30 1562 H 143.79 -2.80334 -3.66347 0
M  V30 1563 H 142.033 -2.691 -3.40246 0
M  V30 1564 H 142.704 -2.34203 -4.99853 0
M  V30 1565 H 145.18 -0.630726 -4.11292 0
M  V30 1566 H 144.056 -0.390306 -5.47511 0
M  V30 1567 H 144.317 0.912229 -4.32586 0
M  V30 1568 N 143.376 1.44774 -0.622745 0
M  V30 1569 C 144.622 2.02968 -0.13257 0
M  V30 1570 C 144.977 1.48047 1.22881 0
M  V30 1571 O 144.27 0.651625 1.80179 0
M  V30 1572 C 144.464 3.57364 -0.0508323 0
M  V30 1573 C 144.293 4.27262 -1.40275 0
M  V30 1574 C 143.063 4.64577 -1.98737 0
M  V30 1575 C 145.261 4.58248 -2.3348 0
M  V30 1576 N 143.243 5.19404 -3.27251 0
M  V30 1577 C 144.614 5.14069 -3.46603 0
M  V30 1578 C 146.669 4.40195 -2.32664 0
M  V30 1579 C 145.372 5.53738 -4.59093 0
M  V30 1580 C 147.398 4.80907 -3.44213 0
M  V30 1581 C 146.76 5.36834 -4.56058 0
M  V30 1582 H 142.859 0.776541 -0.0922354 0
M  V30 1583 H 145.443 1.76385 -0.82441 0
M  V30 1584 H 143.614 3.83576 0.610265 0
M  V30 1585 H 145.346 4.02219 0.447397 0
M  V30 1586 H 142.101 4.48622 -1.51774 0
M  V30 1587 H 142.525 5.51301 -3.92933 0
M  V30 1588 H 147.167 3.96257 -1.47446 0
M  V30 1589 H 144.885 5.96635 -5.45025 0
M  V30 1590 H 148.471 4.68659 -3.44747 0
M  V30 1591 H 147.351 5.67755 -5.40947 0
M  V30 1592 N 144.854 0.36279 1.53368 0
M  V30 1593 C 145.784 -0.476976 2.28576 0
M  V30 1594 C 146.765 -1.08631 1.30894 0
M  V30 1595 O 147.95 -1.10409 1.59761 0
M  V30 1596 C 145.08 -1.61828 3.07293 0
M  V30 1597 C 144.034 -1.13633 4.1264 0
M  V30 1598 C 143.36 -2.36766 4.79423 0
M  V30 1599 C 144.66 -0.223061 5.21823 0
M  V30 1600 H 146.354 0.150474 2.99022 0
M  V30 1601 H 143.9 0.0738103 1.43811 0
M  V30 1602 H 145.853 -2.21237 3.58653 0
M  V30 1603 H 144.577 -2.27292 2.34533 0
M  V30 1604 H 143.236 -0.564945 3.62221 0
M  V30 1605 H 142.884 -3.0068 4.03238 0
M  V30 1606 H 142.584 -2.05192 5.50609 0
M  V30 1607 H 144.108 -2.96865 5.33576 0
M  V30 1608 H 145.522 -0.724545 5.68703 0
M  V30 1609 H 143.919 0.001678 6.001 0
M  V30 1610 H 144.989 0.735553 4.79289 0
M  V30 1611 N 146.332 -1.57332 0.0918853 0
M  V30 1612 C 147.557 -1.98995 -0.584442 0
M  V30 1613 C 147.982 -0.970528 -1.61128 0
M  V30 1614 O 147.34 0.0613904 -1.81196 0
M  V30 1615 C 147.388 -3.39636 -1.21161 0
M  V30 1616 O 146.492 -3.40447 -2.32744 0
M  V30 1617 H 145.833 -0.647165 -0.148572 0
M  V30 1618 H 148.363 -2.03873 0.172347 0
M  V30 1619 H 148.373 -3.7726 -1.55367 0
M  V30 1620 H 147.048 -4.13356 -0.459313 0
M  V30 1621 H 145.625 -3.14614 -2.0018 0
M  V30 1622 N 147.81 0.181792 -1.56548 0
M  V30 1623 C 149.056 0.901431 -1.81665 0
M  V30 1624 C 149.389 1.82347 -0.668075 0
M  V30 1625 O 148.664 1.91669 0.330615 0
M  V30 1626 C 148.947 1.70618 -3.17115 0
M  V30 1627 C 148.8 0.807964 -4.42484 0
M  V30 1628 C 150.119 2.67605 -3.49393 0
M  V30 1629 H 147.238 0.32627 -0.660846 0
M  V30 1630 H 149.88 0.168134 -1.89255 0
M  V30 1631 H 148.03 2.33133 -3.10775 0
M  V30 1632 H 149.702 0.19649 -4.60881 0
M  V30 1633 H 147.945 0.115411 -4.33646 0
M  V30 1634 H 148.616 1.40632 -5.33785 0
M  V30 1635 H 151.092 2.15218 -3.56118 0
M  V30 1636 H 149.968 3.20985 -4.45264 0
M  V30 1637 H 150.229 3.47298 -2.73563 0
M  V30 1638 N 149.288 1.51039 0.449983 0
M  V30 1639 C 150.565 1.53612 1.21089 0
M  V30 1640 C 150.945 0.292997 2.09057 0
M  V30 1641 O 150.293 -0.72259 2.16774 0
M  V30 1642 C 150.503 2.84337 2.0237 0
M  V30 1643 C 151.851 3.35807 2.59843 0
M  V30 1644 O 152.875 2.85802 2.12593 0
M  V30 1645 O 151.734 4.23029 3.45989 0
M  V30 1646 H 148.828 0.617057 0.550608 0
M  V30 1647 H 151.374 1.63344 0.460082 0
M  V30 1648 H 150.146 3.66278 1.37681 0
M  V30 1649 H 149.769 2.77708 2.84542 0
M  V30 1650 N 150.766 -0.704594 1.40972 0
M  V30 1651 C 151.699 -1.82861 1.36518 0
M  V30 1652 C 152.677 -1.6091 0.23382 0
M  V30 1653 O 153.861 -1.83778 0.419271 0
M  V30 1654 C 150.988 -3.1939 1.12729 0
M  V30 1655 C 150.034 -3.60148 2.28463 0
M  V30 1656 S 150.867 -3.65994 3.90907 0
M  V30 1657 C 152.023 -5.05264 3.69403 0
M  V30 1658 H 152.256 -1.86361 2.3164 0
M  V30 1659 H 149.789 -0.872439 1.27389 0
M  V30 1660 H 151.747 -3.98211 0.996893 0
M  V30 1661 H 150.408 -3.1351 0.192427 0
M  V30 1662 H 149.601 -4.59309 2.07489 0
M  V30 1663 H 149.203 -2.88612 2.37863 0
M  V30 1664 H 151.495 -5.92504 3.28551 0
M  V30 1665 H 152.438 -5.31278 4.68134 0
M  V30 1666 H 152.846 -4.76377 3.02862 0
M  V30 1667 N 152.244 -1.26651 -0.937939 0
M  V30 1668 C 153.472 -1.15173 -1.7188 0
M  V30 1669 C 153.887 0.292668 -1.86518 0
M  V30 1670 O 153.244 1.20014 -1.37488 0
M  V30 1671 C 153.295 -1.81925 -3.12387 0
M  V30 1672 O 153.016 -3.2072 -2.98446 0
M  V30 1673 C 154.517 -1.76442 -4.06673 0
M  V30 1674 H 151.737 -0.400911 -0.538063 0
M  V30 1675 H 154.281 -1.67332 -1.1756 0
M  V30 1676 H 152.436 -1.33696 -3.63599 0
M  V30 1677 H 152.85 -3.53802 -3.872 0
M  V30 1678 H 154.324 -2.27781 -5.02812 0
M  V30 1679 H 154.801 -0.731608 -4.33064 0
M  V30 1680 H 155.407 -2.24238 -3.61382 0
M  V30 1681 N 153.722 1.14298 -1.08507 0
M  V30 1682 C 154.962 1.87016 -0.824894 0
M  V30 1683 C 155.326 1.81099 0.637735 0
M  V30 1684 O 156.527 2.48963 1.01345 0
M  V30 1685 C 154.798 3.31584 -1.33368 0
M  V30 1686 S 156.357 4.21903 -1.20596 0
M  V30 1687 H 153.175 0.645259 -0.2986 0
M  V30 1688 H 155.777 1.37822 -1.38656 0
M  V30 1689 H 154.481 3.33439 -2.39262 0
M  V30 1690 H 154.012 3.85836 -0.767734 0
M  V30 1691 H 156.027 4.95971 -0.150891 0
M  V30 1692 N 155.201 0.870884 1.31352 0
M  V30 1693 C 156.441 0.488783 1.9847 0
M  V30 1694 C 156.805 -0.941536 1.67329 0
M  V30 1695 O 158.006 -1.42903 2.27667 0
M  V30 1696 C 156.277 0.739688 3.49662 0
M  V30 1697 S 157.836 0.457582 4.36408 0
M  V30 1698 H 154.654 0.18242 0.6872 0
M  V30 1699 H 157.256 1.12711 1.59739 0
M  V30 1700 H 155.96 1.77944 3.69816 0
M  V30 1701 H 155.491 0.0883905 3.93301 0
M  V30 1702 H 157.506 -0.709752 4.91098 0
M  V30 1703 N 156.679 -1.44442 0.630414 0
M  V30 1704 C 157.907 -2.06414 0.141671 0
M  V30 1705 C 158.322 -1.47105 -1.18345 0
M  V30 1706 O 157.679 -0.593662 -1.72574 0
M  V30 1707 C 157.73 -3.61494 0.0199784 0
M  V30 1708 O 157.451 -4.18594 1.29269 0
M  V30 1709 C 158.952 -4.40499 -0.497544 0
M  V30 1710 H 156.172 -0.666292 0.0793452 0
M  V30 1711 H 158.716 -1.85323 0.864614 0
M  V30 1712 H 156.871 -3.8185 -0.653402 0
M  V30 1713 H 157.285 -5.12026 1.13707 0
M  V30 1714 H 158.759 -5.49433 -0.531708 0
M  V30 1715 H 159.236 -4.11895 -1.52445 0
M  V30 1716 H 159.842 -4.25061 0.142562 0
M  V30 1717 N 158.157 -0.370918 -1.53173 0
M  V30 1718 C 159.397 0.217106 -2.03244 0
M  V30 1719 C 159.761 1.45558 -1.25207 0
M  V30 1720 O 160.962 2.11957 -1.65311 0
M  V30 1721 C 159.233 0.496664 -3.53932 0
M  V30 1722 S 160.792 1.0576 -4.25864 0
M  V30 1723 H 157.61 0.0627827 -0.708223 0
M  V30 1724 H 160.212 -0.515019 -1.88594 0
M  V30 1725 H 158.916 -0.412096 -4.08326 0
M  V30 1726 H 158.447 1.25772 -3.72753 0
M  V30 1727 H 160.462 2.34145 -4.37482 0
M  V30 1728 N 159.635 1.57281 -0.100228 0
M  V30 1729 C 160.86 1.99302 0.573881 0
M  V30 1730 C 161.285 0.979059 1.60611 0
M  V30 1731 O 160.643 -0.0517803 1.81226 0
M  V30 1732 C 160.691 3.40274 1.19358 0
M  V30 1733 O 159.795 3.41676 2.30935 0
M  V30 1734 H 159.136 0.647944 0.145138 0
M  V30 1735 H 161.666 2.03779 -0.183156 0
M  V30 1736 H 161.676 3.78078 1.53365 0
M  V30 1737 H 160.351 4.13594 0.437385 0
M  V30 1738 H 158.928 3.15672 1.98509 0
M  V30 1739 N 161.113 -0.173488 1.56642 0
M  V30 1740 C 162.362 -0.888758 1.81063 0
M  V30 1741 C 162.675 -1.83506 0.67712 0
M  V30 1742 O 163.881 -2.59254 0.806206 0
M  V30 1743 C 162.337 -1.63091 3.20826 0
M  V30 1744 C 161.945 -0.728357 4.4204 0
M  V30 1745 C 163.689 -2.33454 3.54541 0
M  V30 1746 C 161.596 -1.47062 5.72823 0
M  V30 1747 H 160.526 -0.335618 0.675186 0
M  V30 1748 H 163.177 -0.141712 1.82952 0
M  V30 1749 H 161.559 -2.42263 3.13248 0
M  V30 1750 H 162.733 0.0262449 4.60793 0
M  V30 1751 H 161.048 -0.134492 4.16183 0
M  V30 1752 H 163.645 -2.89578 4.49498 0
M  V30 1753 H 163.988 -3.08687 2.79317 0
M  V30 1754 H 164.521 -1.61227 3.63663 0
M  V30 1755 H 161.26 -0.760658 6.51072 0
M  V30 1756 H 160.78 -2.1986 5.58052 0
M  V30 1757 H 162.459 -2.01868 6.14702 0
M  V30 1758 N 162.591 -1.51276 -0.441967 0
M  V30 1759 C 163.521 -1.752 -1.54361 0
M  V30 1760 C 164.502 -0.601682 -1.59103 0
M  V30 1761 O 165.687 -0.843913 -1.74905 0
M  V30 1762 C 162.817 -1.87282 -2.92477 0
M  V30 1763 C 161.771 -3.02687 -3.02596 0
M  V30 1764 C 161.097 -2.99947 -4.42647 0
M  V30 1765 C 162.397 -4.4273 -2.77106 0
M  V30 1766 H 164.091 -2.67442 -1.34592 0
M  V30 1767 H 161.637 -1.28694 -0.646048 0
M  V30 1768 H 163.59 -2.02602 -3.695 0
M  V30 1769 H 162.314 -0.916844 -3.13467 0
M  V30 1770 H 160.973 -2.87065 -2.28012 0
M  V30 1771 H 160.621 -2.02136 -4.60597 0
M  V30 1772 H 160.321 -3.77439 -4.50348 0
M  V30 1773 H 161.845 -3.17354 -5.2165 0
M  V30 1774 H 163.259 -4.58727 -3.43864 0
M  V30 1775 H 161.656 -5.21893 -2.96222 0
M  V30 1776 H 162.726 -4.53087 -1.72744 0
M  V30 1777 N 164.069 0.697108 -1.41344 0
M  V30 1778 C 165.019 1.80313 -1.39539 0
M  V30 1779 C 166.003 1.58618 -0.270001 0
M  V30 1780 O 167.195 1.69477 -0.510551 0
M  V30 1781 C 164.324 3.18606 -1.27848 0
M  V30 1782 C 163.41 3.46001 -2.45244 0
M  V30 1783 N 163.801 3.44103 -3.70711 0
M  V30 1784 C 162.099 3.76542 -2.39023 0
M  V30 1785 C 162.8 3.7036 -4.48563 0
M  V30 1786 N 161.776 3.90027 -3.78655 0
M  V30 1787 H 165.578 1.77207 -2.34468 0
M  V30 1788 H 163.092 0.897031 -1.35378 0
M  V30 1789 H 165.089 3.97833 -1.24637 0
M  V30 1790 H 163.749 3.22925 -0.339032 0
M  V30 1791 H 164.76 3.2452 -4.03618 0
M  V30 1792 H 161.437 3.88241 -1.53542 0
M  V30 1793 H 162.827 3.75042 -5.57488 0
M  V30 1794 N 165.547 1.27147 0.931209 0
M  V30 1795 C 166.477 1.12081 2.04842 0
M  V30 1796 C 167.458 0.0232364 1.70084 0
M  V30 1797 O 168.643 0.197085 1.93197 0
M  V30 1798 C 165.773 0.76354 3.38803 0
M  V30 1799 C 164.727 1.81396 3.87659 0
M  V30 1800 C 164.053 1.31075 5.18385 0
M  V30 1801 C 165.353 3.21739 4.11438 0
M  V30 1802 H 167.047 2.05537 2.17703 0
M  V30 1803 H 164.593 0.989603 1.04608 0
M  V30 1804 H 166.546 0.644982 4.16435 0
M  V30 1805 H 165.27 -0.206727 3.25945 0
M  V30 1806 H 163.929 1.92136 3.12217 0
M  V30 1807 H 163.577 0.330037 5.01916 0
M  V30 1808 H 163.277 2.013 5.52044 0
M  V30 1809 H 164.801 1.20506 5.98591 0
M  V30 1810 H 166.215 3.14019 4.79651 0
M  V30 1811 H 164.612 3.89644 4.56397 0
M  V30 1812 H 165.682 3.67054 3.16859 0
M  V30 1813 N 167.025 -1.13721 1.09112 0
M  V30 1814 C 168.265 -1.86576 0.834801 0
M  V30 1815 C 168.629 -1.81435 -0.628122 0
M  V30 1816 O 169.83 -2.49497 -1.00024 0
M  V30 1817 C 168.101 -3.30872 1.35124 0
M  V30 1818 S 169.66 -4.21257 1.22832 0
M  V30 1819 H 166.478 -0.643666 0.302017 0
M  V30 1820 H 169.08 -1.37085 1.39385 0
M  V30 1821 H 167.784 -3.32166 2.41027 0
M  V30 1822 H 167.315 -3.85423 0.788185 0
M  V30 1823 H 169.33 -4.95884 0.177191 0
M  V30 1824 N 168.503 -0.877838 -1.30888 0
M  V30 1825 C 169.749 -0.493426 -1.96706 0
M  V30 1826 C 170.082 0.953504 -1.6918 0
M  V30 1827 O 169.357 1.67266 -0.992594 0
M  V30 1828 C 169.64 -0.760429 -3.51979 0
M  V30 1829 C 169.493 -2.25747 -3.89048 0
M  V30 1830 C 170.812 -0.232148 -4.39487 0
M  V30 1831 H 167.931 -0.180746 -0.714493 0
M  V30 1832 H 170.573 -1.10052 -1.54882 0
M  V30 1833 H 168.723 -0.243715 -3.87735 0
M  V30 1834 H 170.395 -2.84204 -3.63354 0
M  V30 1835 H 168.638 -2.72694 -3.37373 0
M  V30 1836 H 169.309 -2.39491 -4.97341 0
M  V30 1837 H 171.785 -0.674314 -4.106 0
M  V30 1838 H 170.661 -0.448355 -5.47066 0
M  V30 1839 H 170.922 0.866297 -4.33529 0
M  V30 1840 N 169.982 1.44106 -0.638065 0
M  V30 1841 C 171.231 2.01194 -0.142744 0
M  V30 1842 C 171.544 1.50835 1.24532 0
M  V30 1843 O 172.75 2.00096 1.83504 0
M  V30 1844 C 171.206 3.59319 -0.20442 0
M  V30 1845 C 170.814 4.18674 -1.59423 0
M  V30 1846 C 172.558 4.23854 0.234079 0
M  V30 1847 C 170.465 5.69045 -1.61065 0
M  V30 1848 H 169.395 0.752367 -0.0495998 0
M  V30 1849 H 172.046 1.65246 -0.797881 0
M  V30 1850 H 170.428 3.92598 0.517946 0
M  V30 1851 H 171.602 3.96921 -2.34074 0
M  V30 1852 H 169.917 3.66453 -1.97741 0
M  V30 1853 H 172.514 5.34155 0.241443 0
M  V30 1854 H 172.857 3.96688 1.2627 0
M  V30 1855 H 173.39 3.95403 -0.436025 0
M  V30 1856 H 170.129 6.00956 -2.61787 0
M  V30 1857 H 169.649 5.929 -0.90718 0
M  V30 1858 H 171.328 6.32809 -1.34766 0
M  V30 1859 N 171.46 0.379036 1.52974 0
M  V30 1860 C 172.423 -0.448865 2.24762 0
M  V30 1861 C 173.423 -0.998689 1.26027 0
M  V30 1862 O 174.613 -0.882313 1.50203 0
M  V30 1863 C 171.745 -1.62872 2.99476 0
M  V30 1864 H 172.938 0.179491 2.99362 0
M  V30 1865 H 170.491 0.13096 1.5575 0
M  V30 1866 H 171.226 -2.29479 2.29151 0
M  V30 1867 H 171.011 -1.24128 3.71934 0
M  V30 1868 H 172.501 -2.2151 3.5401 0
M  V30 1869 N 172.938 -1.57226 0.108567 0
M  V30 1870 C 173.868 -2.17778 -0.84232 0
M  V30 1871 C 174.849 -1.11487 -1.2847 0
M  V30 1872 O 176.034 -1.39681 -1.34918 0
M  V30 1873 C 173.164 -2.76888 -2.09644 0
M  V30 1874 C 172.118 -3.88669 -1.79221 0
M  V30 1875 C 171.444 -4.34541 -3.11574 0
M  V30 1876 C 172.744 -5.11251 -1.06864 0
M  V30 1877 H 174.438 -2.97489 -0.337774 0
M  V30 1878 H 171.984 -1.43097 -0.161025 0
M  V30 1879 H 173.937 -3.17904 -2.76614 0
M  V30 1880 H 172.661 -1.94451 -2.62405 0
M  V30 1881 H 171.32 -3.48213 -1.14644 0
M  V30 1882 H 170.968 -3.48977 -3.62249 0
M  V30 1883 H 170.668 -5.09914 -2.91996 0
M  V30 1884 H 172.192 -4.782 -3.7968 0
M  V30 1885 H 173.606 -5.49352 -1.63968 0
M  V30 1886 H 172.003 -5.9214 -0.974178 0
M  V30 1887 H 173.073 -4.8487 -0.0536168 0
M  V30 1888 N 174.416 0.165178 -1.56732 0
M  V30 1889 C 175.693 0.908443 -1.73224 0
M  V30 1890 C 176.073 2.0013 -0.67165 0
M  V30 1891 O 175.421 2.26353 0.31253 0
M  V30 1892 C 175.631 1.46756 -3.16644 0
M  V30 1893 C 176.979 1.93809 -3.77787 0
M  V30 1894 O 178.003 1.56537 -3.1996 0
M  V30 1895 O 176.862 2.62486 -4.79336 0
M  V30 1896 H 173.956 0.428025 -0.707618 0
M  V30 1897 H 176.502 0.152526 -1.69013 0
M  V30 1898 H 175.274 0.68129 -3.85323 0
M  V30 1899 H 174.897 2.28749 -3.25207 0
M  V30 1900 N 175.894 1.51508 0.433938 0
M  V30 1901 C 177.31 1.39759 0.770682 0
M  V30 1902 C 177.51 0.482594 1.95636 0
M  V30 1903 O 176.566 -0.0609691 2.52426 0
M  V30 1904 C 177.879 2.81851 1.04787 0
M  V30 1905 C 179.427 2.91025 1.1521 0
M  V30 1906 C 179.902 4.34032 1.46219 0
M  V30 1907 N 181.393 4.37154 1.53136 0
M  V30 1908 C 182.128 5.4484 1.78709 0
M  V30 1909 N 181.624 6.62682 2.02051 0
M  V30 1910 N 183.417 5.32324 1.80519 0
M  V30 1911 H 175.568 2.09548 -0.346892 0
M  V30 1912 H 177.831 0.943446 -0.0928074 0
M  V30 1913 H 177.537 3.50815 0.249304 0
M  V30 1914 H 177.411 3.21386 1.97461 0
M  V30 1915 H 179.798 2.22257 1.94128 0
M  V30 1916 H 179.879 2.54983 0.204281 0
M  V30 1917 H 179.523 5.03351 0.678274 0
M  V30 1918 H 179.453 4.6759 2.42212 0
M  V30 1919 H 181.944 3.52197 1.36987 0
M  V30 1920 H 182.257 7.40543 2.20943 0
M  V30 1921 H 180.602 6.65791 1.99366 0
M  V30 1922 H 183.793 4.39246 1.61805 0
M  V30 1923 H 183.966 6.16328 2.00111 0
M  V30 1924 N 177.372 -0.689602 1.41712 0
M  V30 1925 C 178.602 -1.47613 1.44548 0
M  V30 1926 C 179.01 -1.89132 0.0509034 0
M  V30 1927 O 178.353 -1.57741 -0.94146 0
M  V30 1928 C 178.415 -2.76596 2.2964 0
M  V30 1929 C 178.079 -2.57245 3.77722 0
M  V30 1930 C 179.076 -2.22804 4.69739 0
M  V30 1931 C 176.761 -2.727 4.2183 0
M  V30 1932 C 178.755 -2.04064 6.03851 0
M  V30 1933 C 176.442 -2.53576 5.56006 0
M  V30 1934 C 177.44 -2.1931 6.46832 0
M  V30 1935 O 177.128 -2.00359 7.78532 0
M  V30 1936 H 176.86 -0.461227 0.494212 0
M  V30 1937 H 179.414 -0.856045 1.86711 0
M  V30 1938 H 177.644 -3.41033 1.82301 0
M  V30 1939 H 179.333 -3.38424 2.24107 0
M  V30 1940 H 180.099 -2.10473 4.36951 0
M  V30 1941 H 175.978 -2.98353 3.51435 0
M  V30 1942 H 179.522 -1.77241 6.74708 0
M  V30 1943 H 175.419 -2.65499 5.88371 0
M  V30 1944 H 176.187 -2.15075 7.89737 0
M  V30 1945 N 178.85 -1.27639 -0.924453 0
M  V30 1946 C 180.096 -1.15345 -1.67532 0
M  V30 1947 C 180.451 0.297096 -1.90092 0
M  V30 1948 O 179.744 1.21374 -1.48253 0
M  V30 1949 C 179.938 -1.87407 -3.04325 0
M  V30 1950 C 179.767 -3.3932 -2.95114 0
M  V30 1951 C 178.537 -4.08644 -2.97218 0
M  V30 1952 C 180.735 -4.35242 -2.73987 0
M  V30 1953 N 178.717 -5.47102 -2.78482 0
M  V30 1954 C 180.088 -5.6099 -2.63988 0
M  V30 1955 C 182.143 -4.25294 -2.589 0
M  V30 1956 C 180.846 -6.77924 -2.40442 0
M  V30 1957 C 182.872 -5.41952 -2.36731 0
M  V30 1958 C 182.234 -6.66658 -2.27478 0
M  V30 1959 H 178.333 -0.47696 -0.619704 0
M  V30 1960 H 180.917 -1.6115 -1.09265 0
M  V30 1961 H 179.088 -1.44053 -3.60699 0
M  V30 1962 H 180.82 -1.6759 -3.68369 0
M  V30 1963 H 177.575 -3.60136 -3.07569 0
M  V30 1964 H 177.999 -6.19852 -2.72236 0
M  V30 1965 H 182.641 -3.29598 -2.64811 0
M  V30 1966 H 180.359 -7.73699 -2.3327 0
M  V30 1967 H 183.945 -5.36137 -2.25938 0
M  V30 1968 H 182.825 -7.55405 -2.10555 0
M  V30 1969 N 180.328 1.1314 -1.09713 0
M  V30 1970 C 181.291 2.16831 -0.742751 0
M  V30 1971 C 182.291 1.59159 0.229129 0
M  V30 1972 O 183.481 1.74199 0.00693237 0
M  V30 1973 C 180.613 3.40756 -0.0989168 0
M  V30 1974 H 181.806 2.49695 -1.66109 0
M  V30 1975 H 179.359 1.2802 -0.896699 0
M  V30 1976 H 180.094 3.13485 0.830514 0
M  V30 1977 H 179.879 3.83888 -0.798265 0
M  V30 1978 H 181.369 4.17386 0.133524 0
M  V30 1979 N 181.806 0.884767 1.30421 0
M  V30 1980 C 183.055 0.499164 1.95426 0
M  V30 1981 C 183.368 -0.95645 1.70621 0
M  V30 1982 O 184.574 -1.44889 2.29607 0
M  V30 1983 C 183.03 0.84177 3.49917 0
M  V30 1984 C 182.638 2.31514 3.83543 0
M  V30 1985 C 184.382 0.525355 4.21237 0
M  V30 1986 C 182.289 2.59939 5.31212 0
M  V30 1987 H 181.219 0.182944 0.73147 0
M  V30 1988 H 183.87 1.07971 1.48373 0
M  V30 1989 H 182.252 0.190311 3.95542 0
M  V30 1990 H 183.426 3.0109 3.48829 0
M  V30 1991 H 181.741 2.59907 3.25326 0
M  V30 1992 H 184.338 0.714762 5.29901 0
M  V30 1993 H 184.681 -0.535222 4.12845 0
M  V30 1994 H 185.214 1.134 3.81294 0
M  V30 1995 H 181.953 3.64736 5.44654 0
M  V30 1996 H 181.473 1.94972 5.67227 0
M  V30 1997 H 183.152 2.45429 5.98643 0
M  V30 1998 N 183.284 -1.43765 0.645699 0
M  V30 1999 C 184.512 -2.06253 0.163556 0
M  V30 2000 C 184.927 -1.48352 -1.16778 0
M  V30 2001 O 184.284 -0.611932 -1.71935 0
M  V30 2002 C 184.335 -3.61453 0.0583186 0
M  V30 2003 O 184.056 -4.172 1.33702 0
M  V30 2004 C 185.557 -4.41002 -0.450795 0
M  V30 2005 H 182.777 -0.665413 0.0864077 0
M  V30 2006 H 185.321 -1.84396 0.884222 0
M  V30 2007 H 183.476 -3.82522 -0.612865 0
M  V30 2008 H 183.89 -5.10791 1.19131 0
M  V30 2009 H 185.364 -5.49966 -0.473403 0
M  V30 2010 H 185.841 -4.13488 -1.48068 0
M  V30 2011 H 186.447 -4.24886 0.187637 0
M  V30 2012 N 184.763 -0.387143 -1.52771 0
M  V30 2013 C 185.711 0.463953 -2.27926 0
M  V30 2014 C 186.705 1.06493 -1.31741 0
M  V30 2015 O 187.911 1.00565 -1.49287 0
M  V30 2016 H 184.286 0.16837 -0.732909 0
M  V30 2017 H 186.257 -0.19141 -2.97785 0
M  V30 2018 C 185.006 1.5803 -3.09713 0
M  V30 2019 H 184.329 1.12718 -3.83581 0
M  V30 2020 H 185.769 2.15008 -3.65442 0
M  V30 2021 C 184.228 2.53509 -2.2189 0
M  V30 2022 O 184.758 3.56863 -1.84422 0
M  V30 2023 N 182.964 2.23199 -1.86093 0
M  V30 2024 H 182.511 1.39185 -2.16761 0
M  V30 2025 H 182.469 2.87333 -1.27621 0
M  V30 2026 N 186.241 1.57166 -0.116904 0
M  V30 2027 C 187.204 2.14039 0.819742 0
M  V30 2028 C 188.204 1.07477 1.19605 0
M  V30 2029 O 189.394 1.33263 1.1219 0
M  V30 2030 C 186.526 2.67891 2.10826 0
M  V30 2031 H 187.719 2.98128 0.325511 0
M  V30 2032 H 185.272 1.55739 0.132312 0
M  V30 2033 H 186.007 1.87384 2.64685 0
M  V30 2034 H 185.792 3.45823 1.84793 0
M  V30 2035 H 187.282 3.11809 2.77785 0
M  V30 2036 N 187.719 -0.156864 1.56817 0
M  V30 2037 C 188.968 -0.869504 1.81996 0
M  V30 2038 C 189.281 -1.82777 0.696545 0
M  V30 2039 O 190.487 -2.58384 0.833658 0
M  V30 2040 C 188.943 -1.59679 3.22538 0
M  V30 2041 C 188.551 -0.681431 4.42787 0
M  V30 2042 C 190.295 -2.2968 3.56997 0
M  V30 2043 C 188.202 -1.40978 5.74351 0
M  V30 2044 H 187.132 -0.328438 0.678708 0
M  V30 2045 H 189.783 -0.1223 1.83092 0
M  V30 2046 H 188.165 -2.38927 3.158 0
M  V30 2047 H 189.339 0.0751166 4.60739 0
M  V30 2048 H 187.654 -0.0903431 4.16302 0
M  V30 2049 H 190.251 -2.84794 4.52544 0
M  V30 2050 H 190.594 -3.05707 2.82576 0
M  V30 2051 H 191.127 -1.57361 3.65352 0
M  V30 2052 H 187.866 -0.691561 6.51842 0
M  V30 2053 H 187.386 -2.13929 5.60352 0
M  V30 2054 H 189.065 -1.95337 6.16808 0
M  V30 2055 N 189.197 -1.51736 -0.425897 0
M  V30 2056 C 190.107 -1.76738 -1.54275 0
M  V30 2057 C 191.123 -0.65211 -1.61318 0
M  V30 2058 O 192.299 -0.935654 -1.78346 0
M  V30 2059 C 189.364 -1.89755 -2.90162 0
M  V30 2060 C 188.425 -3.13633 -2.93143 0
M  V30 2061 C 187.658 -3.2602 -4.22548 0
M  V30 2062 O 187.881 -2.44067 -5.15546 0
M  V30 2063 O 186.815 -4.19071 -4.32046 0
M  V30 2064 H 190.641 -2.71502 -1.36089 0
M  V30 2065 H 188.226 -1.36376 -0.610069 0
M  V30 2066 H 190.108 -2.00236 -3.70788 0
M  V30 2067 H 188.783 -0.981785 -3.08452 0
M  V30 2068 H 187.69 -3.08622 -2.11431 0
M  V30 2069 H 189.023 -4.04936 -2.798 0
M  V30 2070 N 190.675 0.682077 -1.42076 0
M  V30 2071 C 191.905 1.46844 -1.45329 0
M  V30 2072 C 192.313 1.89102 -0.0609328 0
M  V30 2073 O 191.656 1.58238 0.933082 0
M  V30 2074 C 191.718 2.75375 -2.31104 0
M  V30 2075 C 191.382 2.55238 -3.79081 0
M  V30 2076 C 192.379 2.20309 -4.70914 0
M  V30 2077 C 190.064 2.70459 -4.2327 0
M  V30 2078 C 192.058 2.00859 -6.04925 0
M  V30 2079 C 189.745 2.50624 -5.57343 0
M  V30 2080 C 190.743 2.15876 -6.47986 0
M  V30 2081 O 190.431 1.96227 -7.79583 0
M  V30 2082 H 190.163 0.4586 -0.496651 0
M  V30 2083 H 192.717 0.846131 -1.87162 0
M  V30 2084 H 190.947 3.40061 -1.84107 0
M  V30 2085 H 192.636 3.37231 -2.25898 0
M  V30 2086 H 193.402 2.08153 -4.38061 0
M  V30 2087 H 189.281 2.96485 -3.53012 0
M  V30 2088 H 192.825 1.7366 -6.75639 0
M  V30 2089 H 188.722 2.62375 -5.89771 0
M  V30 2090 H 189.49 2.10883 -7.90867 0
M  V30 2091 N 192.153 1.28127 0.917671 0
M  V30 2092 C 193.116 1.11744 2.00115 0
M  V30 2093 C 194.116 0.0583052 1.60694 0
M  V30 2094 O 195.306 0.303755 1.71531 0
M  V30 2095 C 192.438 0.704862 3.33533 0
M  V30 2096 H 193.631 2.07966 2.16079 0
M  V30 2097 H 191.184 1.11058 1.09981 0
M  V30 2098 H 191.919 -0.258299 3.2327 0
M  V30 2099 H 191.704 1.4699 3.63505 0
M  V30 2100 H 193.194 0.612768 4.1308 0
M  V30 2101 N 193.631 -1.12557 1.10312 0
M  V30 2102 C 195.047 -1.36036 0.834649 0
M  V30 2103 C 195.247 -1.93946 -0.546539 0
M  V30 2104 O 194.303 -2.16484 -1.29966 0
M  V30 2105 C 195.616 -2.30312 1.9333 0
M  V30 2106 C 197.164 -2.43906 1.9616 0
M  V30 2107 C 197.639 -3.41496 3.05195 0
M  V30 2108 N 199.13 -3.49053 3.04494 0
M  V30 2109 C 199.865 -4.24471 3.85502 0
M  V30 2110 N 199.361 -5.02966 4.76442 0
M  V30 2111 N 201.154 -4.19864 3.73725 0
M  V30 2112 H 193.305 -0.733246 1.99342 0
M  V30 2113 H 195.568 -0.385234 0.866198 0
M  V30 2114 H 195.274 -1.94933 2.92735 0
M  V30 2115 H 195.148 -3.30421 1.81939 0
M  V30 2116 H 197.535 -2.78567 0.973886 0
M  V30 2117 H 197.616 -1.4369 2.11629 0
M  V30 2118 H 197.26 -3.07565 4.04186 0
M  V30 2119 H 197.19 -4.41539 2.86968 0
M  V30 2120 H 199.681 -2.93053 2.38596 0
M  V30 2121 H 199.994 -5.57846 5.34815 0
M  V30 2122 H 198.339 -5.02167 4.80472 0
M  V30 2123 H 201.53 -3.57623 3.02032 0
M  V30 2124 H 201.703 -4.78386 4.37093 0
M  V30 2125 N 195.109 -0.891671 -1.2995 0
M  V30 2126 C 196.056 -0.361736 -2.27948 0
M  V30 2127 C 197.026 0.551761 -1.56668 0
M  V30 2128 O 198.211 0.478736 -1.84696 0
M  V30 2129 C 195.351 0.411825 -3.42634 0
M  V30 2130 C 194.464 -0.531651 -4.28716 0
M  V30 2131 C 193.599 0.258167 -5.30572 0
M  V30 2132 C 192.638 -0.680349 -6.08307 0
M  V30 2133 N 191.775 0.0745613 -7.0206 0
M  V30 2134 H 196.615 -1.20254 -2.72659 0
M  V30 2135 H 194.152 -0.604352 -1.34112 0
M  V30 2136 H 196.11 0.876304 -4.07893 0
M  V30 2137 H 194.74 1.21715 -2.98974 0
M  V30 2138 H 193.792 -1.11463 -3.63703 0
M  V30 2139 H 195.104 -1.25038 -4.82874 0
M  V30 2140 H 194.258 0.784204 -6.0161 0
M  V30 2141 H 192.997 1.01008 -4.77126 0
M  V30 2142 H 192.002 -1.21796 -5.3614 0
M  V30 2143 H 193.227 -1.43145 -6.63842 0
M  V30 2144 H 191.173 0.808883 -6.50994 0
M  V30 2145 H 191.09 -0.584409 -7.53738 0
M  V30 2146 H 192.358 0.581123 -7.77331 0
M  V30 2147 N 196.587 1.43421 -0.653314 0
M  V30 2148 C 198.003 1.56341 -0.320886 0
M  V30 2149 C 198.203 1.63696 1.17499 0
M  V30 2150 O 197.259 1.59208 1.95982 0
M  V30 2151 C 198.572 2.82424 -1.03233 0
M  V30 2152 C 200.12 2.96168 -1.01259 0
M  V30 2153 C 200.595 4.25084 -1.70492 0
M  V30 2154 N 202.086 4.31948 -1.67257 0
M  V30 2155 C 202.821 5.30466 -2.17701 0
M  V30 2156 N 202.317 6.35261 -2.76434 0
M  V30 2157 N 204.11 5.2212 -2.082 0
M  V30 2158 H 196.261 1.3689 -1.62403 0
M  V30 2159 H 198.524 0.657455 -0.682977 0
M  V30 2160 H 198.23 2.83053 -2.08744 0
M  V30 2161 H 198.104 3.72653 -0.583948 0
M  V30 2162 H 200.491 2.9508 0.0341235 0
M  V30 2163 H 200.572 2.07229 -1.49966 0
M  V30 2164 H 200.216 4.26932 -2.7512 0
M  V30 2165 H 200.146 5.1292 -1.19251 0
M  V30 2166 H 202.637 3.56838 -1.24398 0
M  V30 2167 H 202.95 7.06754 -3.12601 0
M  V30 2168 H 201.295 6.35884 -2.80495 0
M  V30 2169 H 204.486 4.39166 -1.62021 0
M  V30 2170 H 204.659 5.98739 -2.47822 0
M  V30 2171 N 198.065 0.39524 1.52563 0
M  V30 2172 C 199.293 -0.184943 2.06072 0
M  V30 2173 C 199.708 -1.40021 1.26647 0
M  V30 2174 O 199.065 -1.79767 0.314672 0
M  V30 2175 C 199.116 -0.549179 3.57304 0
M  V30 2176 O 198.837 0.617813 4.33722 0
M  V30 2177 C 200.338 -1.18459 4.2718 0
M  V30 2178 H 197.558 -0.0265025 0.670476 0
M  V30 2179 H 200.102 0.562184 1.96621 0
M  V30 2180 H 198.257 -1.2462 3.66809 0
M  V30 2181 H 198.671 0.317091 5.23541 0
M  V30 2182 H 200.145 -1.38976 5.34219 0
M  V30 2183 H 200.622 -2.15368 3.82771 0
M  V30 2184 H 201.228 -0.528163 4.22008 0
M  V30 2185 N 199.544 -1.57102 0.125237 0
M  V30 2186 C 200.507 -2.14471 -0.80838 0
M  V30 2187 C 201.507 -1.0811 -1.19033 0
M  V30 2188 O 202.697 -1.33856 -1.11482 0
M  V30 2189 C 199.829 -2.69005 -2.09402 0
M  V30 2190 H 201.022 -2.98297 -0.309696 0
M  V30 2191 H 198.575 -1.55807 -0.124051 0
M  V30 2192 H 199.31 -1.88785 -2.63687 0
M  V30 2193 H 199.095 -3.46799 -1.82957 0
M  V30 2194 H 200.585 -3.13278 -2.76128 0
M  V30 2195 N 201.022 0.148545 -1.56898 0
M  V30 2196 C 201.969 1.18345 -1.98149 0
M  V30 2197 C 202.939 1.42772 -0.848848 0
M  V30 2198 O 204.124 1.55132 -1.11079 0
M  V30 2199 C 201.264 2.51231 -2.36594 0
M  V30 2200 C 200.377 2.33991 -3.63142 0
M  V30 2201 C 199.512 3.59902 -3.90697 0
M  V30 2202 C 198.551 3.37692 -5.1052 0
M  V30 2203 N 197.688 4.5573 -5.34092 0
M  V30 2204 H 202.528 0.82467 -2.86362 0
M  V30 2205 H 200.065 0.395756 -1.41676 0
M  V30 2206 H 202.023 3.28713 -2.56912 0
M  V30 2207 H 200.653 2.85059 -1.51463 0
M  V30 2208 H 199.705 1.47572 -3.50609 0
M  V30 2209 H 201.017 2.13539 -4.5078 0
M  V30 2210 H 200.171 4.45813 -4.11505 0
M  V30 2211 H 198.91 3.83357 -3.01477 0
M  V30 2212 H 197.915 2.5017 -4.89587 0
M  V30 2213 H 199.14 3.15637 -6.0129 0
M  V30 2214 H 197.086 4.79361 -4.47827 0
M  V30 2215 H 197.003 4.38274 -6.15996 0
M  V30 2216 H 198.271 5.42858 -5.59397 0
M  V30 2217 N 202.5 1.5196 0.417844 0
M  V30 2218 C 203.916 1.40569 0.755816 0
M  V30 2219 C 204.116 0.503316 1.95113 0
M  V30 2220 O 203.172 -0.0341925 2.52477 0
M  V30 2221 C 204.485 2.82947 1.01791 0
M  V30 2222 C 206.033 2.92231 1.12116 0
M  V30 2223 C 206.508 4.35559 1.41608 0
M  V30 2224 N 207.999 4.38753 1.48491 0
M  V30 2225 C 208.734 5.46705 1.7292 0
M  V30 2226 N 208.23 6.64788 1.95011 0
M  V30 2227 N 210.023 5.34209 1.74863 0
M  V30 2228 H 202.174 2.09168 -0.369098 0
M  V30 2229 H 204.437 0.942409 -0.102809 0
M  V30 2230 H 204.143 3.5106 0.212081 0
M  V30 2231 H 204.017 3.23462 1.94042 0
M  V30 2232 H 206.404 2.24304 1.9176 0
M  V30 2233 H 206.485 2.55185 0.177225 0
M  V30 2234 H 206.129 5.04042 0.624848 0
M  V30 2235 H 206.059 4.70133 2.37239 0
M  V30 2236 H 208.55 3.5363 1.33244 0
M  V30 2237 H 208.863 7.42845 2.13076 0
M  V30 2238 H 207.208 6.67869 1.92293 0
M  V30 2239 H 210.399 4.40937 1.57137 0
M  V30 2240 H 210.572 6.18415 1.93563 0
M  V30 2241 N 203.978 -0.674533 1.42435 0
M  V30 2242 C 204.941 -1.76986 1.45632 0
M  V30 2243 C 205.941 -1.5708 0.343871 0
M  V30 2244 O 207.131 -1.63367 0.604709 0
M  V30 2245 C 204.263 -3.15623 1.28822 0
M  V30 2246 H 205.456 -1.75539 2.43158 0
M  V30 2247 H 203.009 -0.884189 1.28887 0
M  V30 2248 H 203.744 -3.22696 0.322193 0
M  V30 2249 H 203.529 -3.31475 2.09444 0
M  V30 2250 H 205.019 -3.95537 1.33942 0
M  V30 2251 N 205.456 -1.28612 -0.910864 0
M  V30 2252 C 206.419 -1.12803 -1.9952 0
M  V30 2253 C 207.419 -0.0668264 -1.60661 0
M  V30 2254 O 208.609 -0.312847 -1.71368 0
M  V30 2255 C 205.741 -0.72254 -3.33155 0
M  V30 2256 H 206.934 -2.09109 -2.14973 0
M  V30 2257 H 204.487 -1.11639 -1.09391 0
M  V30 2258 H 205.222 0.241152 -3.23402 0
M  V30 2259 H 205.007 -1.48916 -3.62721 0
M  V30 2260 H 206.497 -0.634666 -4.12749 0
M  V30 2261 N 206.934 1.1197 -1.10907 0
M  V30 2262 C 207.864 2.19928 -0.784473 0
M  V30 2263 C 208.845 1.6833 0.244726 0
M  V30 2264 O 210.03 1.93892 0.109418 0
M  V30 2265 C 207.16 3.46597 -0.220827 0
M  V30 2266 C 206.114 4.11376 -1.18127 0
M  V30 2267 C 205.44 5.32554 -0.478594 0
M  V30 2268 C 206.74 4.56945 -2.52979 0
M  V30 2269 H 208.434 2.47337 -1.68715 0
M  V30 2270 H 205.98 1.18879 -0.812642 0
M  V30 2271 H 207.933 4.21396 0.0184278 0
M  V30 2272 H 206.657 3.1863 0.717113 0
M  V30 2273 H 205.316 3.38564 -1.40606 0
M  V30 2274 H 204.964 5.00856 0.463976 0
M  V30 2275 H 204.664 5.76844 -1.11912 0
M  V30 2276 H 206.188 6.10096 -0.248 0
M  V30 2277 H 207.602 5.23093 -2.3462 0
M  V30 2278 H 205.999 5.1203 -3.12962 0
M  V30 2279 H 207.069 3.70676 -3.12614 0
M  V30 2280 N 208.412 0.89855 1.29475 0
M  V30 2281 C 209.345 0.319981 2.25945 0
M  V30 2282 C 210.323 -0.567189 1.52387 0
M  V30 2283 O 211.507 -0.514254 1.8135 0
M  V30 2284 C 208.634 -0.544013 3.34303 0
M  V30 2285 C 207.68 0.275682 4.25608 0
M  V30 2286 S 208.513 1.67272 5.08704 0
M  V30 2287 C 209.669 0.815621 6.20563 0
M  V30 2288 H 209.902 1.13767 2.74671 0
M  V30 2289 H 207.435 0.69882 1.3768 0
M  V30 2290 H 209.393 -1.03673 3.97193 0
M  V30 2291 H 208.054 -1.33593 2.84274 0
M  V30 2292 H 207.247 -0.384263 5.02533 0
M  V30 2293 H 206.849 0.701496 3.67362 0
M  V30 2294 H 209.141 0.0385042 6.77489 0
M  V30 2295 H 210.084 1.55691 6.90772 0
M  V30 2296 H 210.492 0.370516 5.63283 0
M  V30 2297 N 209.89 -1.43072 0.660911 0
M  V30 2298 C 211.139 -2.00942 0.174735 0
M  V30 2299 C 211.452 -1.52797 -1.22117 0
M  V30 2300 O 212.658 -2.02991 -1.80297 0
M  V30 2301 C 211.114 -3.58948 0.261559 0
M  V30 2302 C 210.722 -4.16085 1.66064 0
M  V30 2303 C 212.466 -4.24173 -0.166617 0
M  V30 2304 C 210.373 -5.6641 1.70098 0
M  V30 2305 H 209.303 -0.751483 0.0615631 0
M  V30 2306 H 211.954 -1.63955 0.824069 0
M  V30 2307 H 210.336 -3.93372 -0.455421 0
M  V30 2308 H 211.51 -3.93147 2.40359 0
M  V30 2309 H 209.825 -3.6326 2.03546 0
M  V30 2310 H 212.422 -5.34471 -0.156433 0
M  V30 2311 H 212.765 -3.98647 -1.19943 0
M  V30 2312 H 213.298 -3.94659 0.498875 0
M  V30 2313 H 210.037 -5.96715 2.71315 0
M  V30 2314 H 209.557 -5.91382 1.00139 0
M  V30 2315 H 211.236 -6.30585 1.44816 0
M  V30 2316 N 211.368 -0.403325 -1.52352 0
M  V30 2317 C 212.298 0.416205 -2.29761 0
M  V30 2318 C 213.279 1.05123 -1.33728 0
M  V30 2319 O 214.464 1.06134 -1.62632 0
M  V30 2320 C 211.594 1.53624 -3.11475 0
M  V30 2321 C 210.548 1.02653 -4.15507 0
M  V30 2322 C 209.874 2.23971 -4.85532 0
M  V30 2323 C 211.174 0.08463 -5.22231 0
M  V30 2324 H 212.868 -0.229701 -2.98518 0
M  V30 2325 H 210.414 -0.111913 -1.43564 0
M  V30 2326 H 212.367 2.1165 -3.64393 0
M  V30 2327 H 211.091 2.20994 -2.40477 0
M  V30 2328 H 209.75 0.46871 -3.63591 0
M  V30 2329 H 209.398 2.89883 -4.11068 0
M  V30 2330 H 209.098 1.90521 -5.55856 0
M  V30 2331 H 210.622 2.82614 -5.41259 0
M  V30 2332 H 212.036 0.573509 -5.70424 0
M  V30 2333 H 210.433 -0.160783 -5.99885 0
M  V30 2334 H 211.503 -0.86237 -4.7717 0
M  V30 2335 N 212.846 1.57033 -0.133567 0
M  V30 2336 C 214.074 2.00044 0.528195 0
M  V30 2337 C 214.489 1.01349 1.59291 0
M  V30 2338 O 213.846 0.00848369 1.82498 0
M  V30 2339 C 213.897 3.43018 1.1411 0
M  V30 2340 O 213.618 4.37939 0.11892 0
M  V30 2341 C 215.119 4.01237 1.88477 0
M  V30 2342 H 212.339 0.656517 0.138661 0
M  V30 2343 H 214.883 2.03267 -0.224196 0
M  V30 2344 H 213.038 3.40688 1.84418 0
M  V30 2345 H 213.452 5.21436 0.56613 0
M  V30 2346 H 214.926 5.03314 2.26669 0
M  V30 2347 H 215.403 3.41193 2.76558 0
M  V30 2348 H 216.009 4.07156 1.22898 0
M  V30 2349 N 214.325 -0.140222 1.56975 0
M  V30 2350 C 215.571 -0.852949 1.83991 0
M  V30 2351 C 215.904 -1.80512 0.716187 0
M  V30 2352 O 215.179 -1.92479 -0.279681 0
M  V30 2353 C 215.462 -1.6215 3.21527 0
M  V30 2354 C 215.315 -0.690363 4.4447 0
M  V30 2355 C 216.634 -2.58247 3.56366 0
M  V30 2356 H 213.753 -0.308634 0.669264 0
M  V30 2357 H 216.395 -0.117898 1.89634 0
M  V30 2358 H 214.545 -2.24812 3.16847 0
M  V30 2359 H 216.217 -0.0742264 4.6124 0
M  V30 2360 H 214.46 -0.000396433 4.338 0
M  V30 2361 H 215.131 -1.2643 5.37326 0
M  V30 2362 H 217.607 -2.05701 3.61699 0
M  V30 2363 H 216.483 -3.09067 4.53617 0
M  V30 2364 H 216.744 -3.39923 2.82674 0
M  V30 2365 N 215.803 -1.52179 -0.40978 0
M  V30 2366 C 217.049 -1.67408 -1.15525 0
M  V30 2367 C 217.404 -0.398746 -1.88223 0
M  V30 2368 O 216.697 0.60678 -1.81738 0
M  V30 2369 C 216.891 -2.83428 -2.17723 0
M  V30 2370 C 216.72 -4.22121 -1.55061 0
M  V30 2371 C 215.49 -4.87657 -1.3236 0
M  V30 2372 C 217.688 -5.04248 -1.01185 0
M  V30 2373 N 215.67 -6.10387 -0.655834 0
M  V30 2374 C 217.041 -6.18209 -0.470963 0
M  V30 2375 C 219.096 -4.89583 -0.906252 0
M  V30 2376 C 217.799 -7.1911 0.165172 0
M  V30 2377 C 219.825 -5.90718 -0.28397 0
M  V30 2378 C 219.187 -7.03969 0.246243 0
M  V30 2379 H 215.286 -0.666251 -0.409431 0
M  V30 2380 H 217.87 -1.89482 -0.447729 0
M  V30 2381 H 216.041 -2.6297 -2.85834 0
M  V30 2382 H 217.773 -2.87697 -2.84627 0
M  V30 2383 H 214.528 -4.46007 -1.59294 0
M  V30 2384 H 214.952 -6.76153 -0.338596 0
M  V30 2385 H 219.594 -4.02253 -1.302 0
M  V30 2386 H 217.312 -8.06066 0.572986 0
M  V30 2387 H 220.898 -5.81443 -0.203792 0
M  V30 2388 H 219.778 -7.80886 0.720173 0
M  V30 2389 N 217.281 0.66697 -1.42791 0
M  V30 2390 C 218.509 1.45505 -1.47091 0
M  V30 2391 C 218.924 1.8861 -0.0845873 0
M  V30 2392 O 218.281 1.58632 0.90234 0
M  V30 2393 C 218.332 2.69906 -2.40485 0
M  V30 2394 O 218.053 2.28608 -3.73725 0
M  V30 2395 C 219.554 3.63396 -2.53886 0
M  V30 2396 H 216.774 0.447459 -0.500022 0
M  V30 2397 H 219.318 0.818866 -1.8739 0
M  V30 2398 H 217.473 3.29696 -2.03419 0
M  V30 2399 H 217.887 3.08997 -4.23817 0
M  V30 2400 H 219.361 4.47387 -3.2334 0
M  V30 2401 H 219.838 4.09824 -1.57927 0
M  V30 2402 H 220.444 3.09495 -2.91706 0
M  V30 2403 N 218.759 1.29093 0.90403 0
M  V30 2404 C 220.008 1.16187 1.64874 0
M  V30 2405 C 220.321 -0.286742 1.93487 0
M  V30 2406 O 221.527 -0.537062 2.66135 0
M  V30 2407 C 219.983 2.03177 2.97064 0
M  V30 2408 C 219.591 3.52836 2.76062 0
M  V30 2409 C 221.335 1.98984 3.74974 0
M  V30 2410 C 219.242 4.31945 4.03952 0
M  V30 2411 H 218.172 0.431246 0.618501 0
M  V30 2412 H 220.823 1.53699 1.00243 0
M  V30 2413 H 219.205 1.5853 3.62883 0
M  V30 2414 H 220.379 4.05507 2.18863 0
M  V30 2415 H 218.694 3.58656 2.11553 0
M  V30 2416 H 221.291 2.55351 4.69787 0
M  V30 2417 H 221.634 0.968815 4.0487 0
M  V30 2418 H 222.167 2.41652 3.15989 0
M  V30 2419 H 218.906 5.34667 3.79225 0
M  V30 2420 H 218.426 3.84045 4.60727 0
M  V30 2421 H 220.105 4.42379 4.72133 0
M  V30 2422 N 220.237 -1.11381 1.11499 0
M  V30 2423 C 221.462 -1.87475 0.887019 0
M  V30 2424 C 221.887 -1.79639 -0.557796 0
M  V30 2425 O 221.245 -1.15924 -1.39396 0
M  V30 2426 C 221.293 -3.34213 1.35403 0
M  V30 2427 O 220.397 -4.0903 0.526146 0
M  V30 2428 H 219.738 -0.582099 0.319463 0
M  V30 2429 H 222.268 -1.40785 1.48461 0
M  V30 2430 H 222.278 -3.8506 1.34881 0
M  V30 2431 H 220.953 -3.39232 2.40612 0
M  V30 2432 H 219.53 -3.68082 0.597522 0
M  V30 2433 N 221.715 -0.905404 -1.28997 0
M  V30 2434 C 222.964 -0.530191 -1.94607 0
M  V30 2435 C 223.277 0.929185 -1.72121 0
M  V30 2436 O 224.483 1.41218 -2.31883 0
M  V30 2437 C 222.939 -0.897333 -3.48534 0
M  V30 2438 C 222.547 -2.37587 -3.79811 0
M  V30 2439 C 224.291 -0.592304 -4.20347 0
M  V30 2440 C 222.198 -2.68357 -5.27009 0
M  V30 2441 H 221.128 -0.194558 -0.728466 0
M  V30 2442 H 223.779 -1.10318 -1.46636 0
M  V30 2443 H 222.161 -0.253214 -3.9519 0
M  V30 2444 H 223.335 -3.06602 -3.43994 0
M  V30 2445 H 221.65 -2.6505 -3.2115 0
M  V30 2446 H 224.247 -0.798975 -5.28697 0
M  V30 2447 H 224.59 0.469474 -4.13644 0
M  V30 2448 H 225.123 -1.19452 -3.79442 0
M  V30 2449 H 221.862 -3.73355 -5.38782 0
M  V30 2450 H 221.382 -2.03971 -5.64053 0
M  V30 2451 H 223.061 -2.54922 -5.94663 0
M  V30 2452 N 223.193 1.4272 -0.668489 0
M  V30 2453 C 224.44 2.01624 -0.18814 0
M  V30 2454 C 224.768 1.5282 1.20317 0
M  V30 2455 O 224.023 0.718323 1.8204 0
M  V30 2456 C 224.322 3.57021 -0.164499 0
M  V30 2457 C 223.988 4.25232 -1.49962 0
M  V30 2458 C 222.65 4.4358 -1.8652 0
M  V30 2459 C 225.002 4.63727 -2.37921 0
M  V30 2460 C 222.33 4.97694 -3.10674 0
M  V30 2461 C 224.682 5.19218 -3.6138 0
M  V30 2462 C 223.346 5.3578 -3.98115 0
M  V30 2463 H 222.616 0.737795 -0.0688454 0
M  V30 2464 H 225.263 1.70991 -0.862225 0
M  V30 2465 H 223.568 3.87285 0.593079 0
M  V30 2466 H 225.265 4.00372 0.224271 0
M  V30 2467 H 221.855 4.11306 -1.20522 0
M  V30 2468 H 226.039 4.4923 -2.10964 0
M  V30 2469 H 221.295 5.08702 -3.39164 0
M  V30 2470 H 225.469 5.4799 -4.29743 0
M  V30 2471 H 223.096 5.77475 -4.94395 0
M  V30 2472 N 224.671 0.411399 1.52136 0
M  V30 2473 C 225.92 -0.165009 2.01024 0
M  V30 2474 C 226.233 -1.4603 1.30133 0
M  V30 2475 O 227.439 -2.1181 1.69849 0
M  V30 2476 C 225.895 -0.344618 3.58246 0
M  V30 2477 C 225.503 0.938716 4.38055 0
M  V30 2478 C 227.247 -0.876195 4.15359 0
M  V30 2479 C 225.154 0.726172 5.86925 0
M  V30 2480 H 224.084 -0.0654407 0.751155 0
M  V30 2481 H 226.735 0.537192 1.75461 0
M  V30 2482 H 225.117 -1.10921 3.80148 0
M  V30 2483 H 226.291 1.70963 4.27912 0
M  V30 2484 H 224.606 1.39688 3.92271 0
M  V30 2485 H 227.203 -1.05128 5.24263 0
M  V30 2486 H 227.546 -1.85152 3.7286 0
M  V30 2487 H 228.079 -0.170607 3.97434 0
M  V30 2488 H 224.818 1.67312 6.33788 0
M  V30 2489 H 224.338 -0.00540283 5.998 0
M  V30 2490 H 226.017 0.369231 6.45946 0
M  V30 2491 N 226.149 -1.5696 0.141893 0
M  V30 2492 C 227.374 -2.00754 -0.520838 0
M  V30 2493 C 227.799 -1.0213 -1.57959 0
M  V30 2494 O 227.157 0.00371324 -1.813 0
M  V30 2495 C 227.205 -3.43318 -1.10294 0
M  V30 2496 O 226.309 -3.47679 -2.21795 0
M  V30 2497 H 225.65 -0.651564 -0.127908 0
M  V30 2498 H 228.18 -2.03221 0.23712 0
M  V30 2499 H 228.19 -3.82012 -1.43287 0
M  V30 2500 H 226.865 -4.14608 -0.327574 0
M  V30 2501 H 225.442 -3.20824 -1.9007 0
M  V30 2502 N 227.627 0.131896 -1.57047 0
M  V30 2503 C 228.56 1.19236 -1.94571 0
M  V30 2504 C 229.538 1.40782 -0.813576 0
M  V30 2505 O 230.722 1.55148 -1.07058 0
M  V30 2506 C 227.849 2.54858 -2.23081 0
M  V30 2507 C 226.895 2.49817 -3.45679 0
M  V30 2508 S 227.728 1.95036 -4.98719 0
M  V30 2509 C 228.884 3.32357 -5.30367 0
M  V30 2510 H 229.117 0.872297 -2.84215 0
M  V30 2511 H 226.65 0.338134 -1.50652 0
M  V30 2512 H 228.608 3.32898 -2.40185 0
M  V30 2513 H 227.269 2.84047 -1.34074 0
M  V30 2514 H 226.462 3.49688 -3.62952 0
M  V30 2515 H 226.064 1.79892 -3.27895 0
M  V30 2516 H 228.356 4.28525 -5.2476 0
M  V30 2517 H 229.299 3.19923 -6.31708 0
M  V30 2518 H 229.707 3.3019 -4.57859 0
M  V30 2519 N 229.106 1.52395 0.401703 0
M  V30 2520 C 230.517 1.58899 0.980202 0
M  V30 2521 C 230.868 0.434032 1.91339 0
M  V30 2522 O 229.993 -0.444619 2.11783 0
M  V30 2523 C 230.588 2.87994 1.78451 0
M  V30 2524 C 229.147 2.96953 2.31292 0
M  V30 2525 C 228.294 2.53903 1.11483 0
M  V30 2526 H 231.245 1.57657 0.18168 0
M  V30 2527 H 231.266 2.73765 2.64259 0
M  V30 2528 H 230.778 3.72035 1.10506 0
M  V30 2529 H 228.879 2.17422 3.02586 0
M  V30 2530 H 228.992 4.01344 2.61649 0
M  V30 2531 H 227.356 2.07925 1.47104 0
M  V30 2532 H 228.139 3.40326 0.450928 0
M  V30 2533 N 230.584 -0.659388 1.43143 0
M  V30 2534 C 231.995 -1.24041 1.39537 0
M  V30 2535 C 232.346 -1.95963 0.0963364 0
M  V30 2536 O 231.471 -2.00892 -0.804438 0
M  V30 2537 C 232.066 -2.25601 2.52764 0
M  V30 2538 C 230.625 -2.79195 2.52443 0
M  V30 2539 C 229.772 -1.53743 2.30778 0
M  V30 2540 H 232.723 -0.451792 1.52133 0
M  V30 2541 H 232.744 -3.07651 2.23899 0
M  V30 2542 H 232.256 -1.73226 3.47296 0
M  V30 2543 H 230.357 -3.35649 1.61773 0
M  V30 2544 H 230.47 -3.2716 3.50004 0
M  V30 2545 H 228.834 -1.80869 1.79328 0
M  V30 2546 H 229.617 -1.03312 3.27386 0
M  V30 2547 N 232.062 -1.29571 -0.897171 0
M  V30 2548 C 232.992 -1.17473 -2.01798 0
M  V30 2549 C 233.973 -0.068323 -1.69963 0
M  V30 2550 O 235.158 -0.248239 -1.92607 0
M  V30 2551 C 232.288 -0.853099 -3.36659 0
M  V30 2552 C 231.242 -1.9161 -3.82713 0
M  V30 2553 C 230.568 -1.44773 -5.14728 0
M  V30 2554 C 231.868 -3.32535 -4.02763 0
M  V30 2555 H 233.562 -2.11237 -2.12177 0
M  V30 2556 H 231.108 -1.01699 -1.01948 0
M  V30 2557 H 233.061 -0.755165 -4.14578 0
M  V30 2558 H 231.785 0.120236 -3.26379 0
M  V30 2559 H 230.444 -2.00346 -3.07013 0
M  V30 2560 H 230.092 -0.462995 -5.00865 0
M  V30 2561 H 229.792 -2.15865 -5.46513 0
M  V30 2562 H 231.316 -1.36334 -5.95185 0
M  V30 2563 H 232.73 -3.26626 -4.71156 0
M  V30 2564 H 231.127 -4.01607 -4.45905 0
M  V30 2565 H 232.197 -3.75326 -3.07016 0
M  V30 2566 N 233.54 1.10788 -1.12088 0
M  V30 2567 C 234.787 1.82671 -0.873931 0
M  V30 2568 C 235.115 1.85004 0.600311 0
M  V30 2569 O 234.37 1.30365 1.45957 0
M  V30 2570 C 234.669 3.29294 -1.38926 0
M  V30 2571 C 234.335 3.47113 -2.87791 0
M  V30 2572 C 232.997 3.51684 -3.28439 0
M  V30 2573 C 235.349 3.52808 -3.83635 0
M  V30 2574 C 232.677 3.59513 -4.63646 0
M  V30 2575 C 235.029 3.62169 -5.18668 0
M  V30 2576 C 233.693 3.65003 -5.58864 0
M  V30 2577 H 232.963 0.668441 -0.319794 0
M  V30 2578 H 235.61 1.30613 -1.40045 0
M  V30 2579 H 233.915 3.83894 -0.783122 0
M  V30 2580 H 235.612 3.83416 -1.17443 0
M  V30 2581 H 232.202 3.4423 -2.5535 0
M  V30 2582 H 236.386 3.4853 -3.53328 0
M  V30 2583 H 231.642 3.59987 -4.94185 0
M  V30 2584 H 235.816 3.6552 -5.92763 0
M  V30 2585 H 233.443 3.70822 -6.63623 0
M  V30 2586 N 235.018 0.912232 1.28515 0
M  V30 2587 C 236.264 0.554851 1.95686 0
M  V30 2588 C 236.619 -0.89138 1.70506 0
M  V30 2589 O 235.912 -1.62529 1.01464 0
M  V30 2590 C 236.106 0.798392 3.48368 0
M  V30 2591 C 235.935 2.26674 3.88393 0
M  V30 2592 C 234.705 2.91657 4.12631 0
M  V30 2593 C 236.903 3.24303 3.99164 0
M  V30 2594 N 234.885 4.28805 4.39317 0
M  V30 2595 C 236.256 4.4661 4.30046 0
M  V30 2596 C 238.311 3.19723 3.81683 0
M  V30 2597 C 237.014 5.64915 4.45268 0
M  V30 2598 C 239.04 4.37325 3.98121 0
M  V30 2599 C 238.402 5.58406 4.29375 0
M  V30 2600 H 234.501 0.252876 0.739985 0
M  V30 2601 H 237.085 1.17565 1.55199 0
M  V30 2602 H 235.256 0.20688 3.87849 0
M  V30 2603 H 236.988 0.405193 4.02666 0
M  V30 2604 H 233.743 2.42393 4.06869 0
M  V30 2605 H 234.167 4.99712 4.56746 0
M  V30 2606 H 238.809 2.27191 3.56573 0
M  V30 2607 H 236.527 6.57927 4.6921 0
M  V30 2608 H 240.113 4.35282 3.86033 0
M  V30 2609 H 238.993 6.47889 4.41825 0
M  V30 2610 N 236.496 -1.42363 0.676048 0
M  V30 2611 C 237.912 -1.55811 0.345718 0
M  V30 2612 C 238.112 -1.65544 -1.14879 0
M  V30 2613 O 237.168 -1.62306 -1.93424 0
M  V30 2614 C 238.481 -2.80746 1.07713 0
M  V30 2615 C 240.029 -2.9452 1.05958 0
M  V30 2616 C 240.504 -4.22318 1.77233 0
M  V30 2617 N 241.995 -4.29233 1.74108 0
M  V30 2618 C 242.73 -5.26935 2.26113 0
M  V30 2619 N 242.226 -6.30783 2.86505 0
M  V30 2620 N 244.019 -5.18741 2.1648 0
M  V30 2621 H 236.17 -1.34289 1.6456 0
M  V30 2622 H 238.433 -0.646506 0.69335 0
M  V30 2623 H 238.139 -2.79696 2.13221 0
M  V30 2624 H 238.013 -3.71676 0.64316 0
M  V30 2625 H 240.4 -2.95097 0.0128255 0
M  V30 2626 H 240.481 -2.04817 1.53244 0
M  V30 2627 H 240.125 -4.22502 2.81877 0
M  V30 2628 H 240.055 -5.10958 1.27396 0
M  V30 2629 H 242.546 -3.54814 1.30059 0
M  V30 2630 H 242.859 -7.01691 3.23805 0
M  V30 2631 H 241.204 -6.31341 2.90575 0
M  V30 2632 H 244.395 -4.36533 1.68987 0
M  V30 2633 H 244.568 -5.94721 2.57316 0
M  V30 2634 N 237.974 -0.419461 -1.51915 0
M  V30 2635 C 239.199 0.154572 -2.06823 0
M  V30 2636 C 239.624 1.3722 -1.28656 0
M  V30 2637 O 238.982 1.78461 -0.319583 0
M  V30 2638 C 239.03 0.473172 -3.57482 0
M  V30 2639 O 238.134 1.56255 -3.81652 0
M  V30 2640 H 237.475 0.0096924 -0.663929 0
M  V30 2641 H 240.005 -0.595642 -1.95738 0
M  V30 2642 H 240.015 0.728825 -4.01438 0
M  V30 2643 H 238.69 -0.416873 -4.13805 0
M  V30 2644 H 237.267 1.29825 -3.49571 0
M  V30 2645 N 239.452 1.56882 -0.150215 0
M  V30 2646 C 240.402 2.13501 0.800071 0
M  V30 2647 C 241.386 1.06368 1.20726 0
M  V30 2648 O 242.578 1.32538 1.17314 0
M  V30 2649 C 239.707 2.76271 2.03787 0
M  V30 2650 C 238.793 3.90533 1.65364 0
M  V30 2651 N 239.184 4.96259 0.977794 0
M  V30 2652 C 237.482 4.013 1.94613 0
M  V30 2653 C 238.183 5.76286 0.791794 0
M  V30 2654 N 237.159 5.27163 1.32666 0
M  V30 2655 H 240.961 2.92615 0.274517 0
M  V30 2656 H 238.475 1.62319 0.0512144 0
M  V30 2657 H 240.472 3.15197 2.72867 0
M  V30 2658 H 239.132 1.98631 2.56857 0
M  V30 2659 H 240.143 5.13953 0.638193 0
M  V30 2660 H 236.82 3.3474 2.4951 0
M  V30 2661 H 238.21 6.71401 0.258894 0
M  V30 2662 N 240.93 -0.123565 1.57115 0
M  V30 2663 C 242.346 -0.476961 1.52306 0
M  V30 2664 C 242.546 -1.82109 0.86248 0
M  V30 2665 O 241.602 -2.48586 0.442884 0
M  V30 2666 C 242.915 -0.465661 2.97073 0
M  V30 2667 C 244.463 -0.549534 3.08138 0
M  V30 2668 C 244.938 -0.568669 4.54456 0
M  V30 2669 N 246.429 -0.630237 4.58892 0
M  V30 2670 C 247.164 -0.666415 5.69514 0
M  V30 2671 N 246.66 -0.660514 6.89644 0
M  V30 2672 N 248.453 -0.709077 5.5761 0
M  V30 2673 H 240.604 0.757198 1.98445 0
M  V30 2674 H 242.867 0.278808 0.906074 0
M  V30 2675 H 242.573 0.454232 3.48754 0
M  V30 2676 H 242.447 -1.29513 3.54269 0
M  V30 2677 H 244.834 -1.45985 2.56461 0
M  V30 2678 H 244.915 0.307532 2.53945 0
M  V30 2679 H 244.559 0.337581 5.06777 0
M  V30 2680 H 244.489 -1.44256 5.06456 0
M  V30 2681 H 246.98 -0.641146 3.72421 0
M  V30 2682 H 247.293 -0.690616 7.69708 0
M  V30 2683 H 245.638 -0.628012 6.92157 0
M  V30 2684 H 248.829 -0.711019 4.62668 0
M  V30 2685 H 249.002 -0.733804 6.43832 0
M  V30 2686 N 242.408 -1.52605 -0.393616 0
M  V30 2687 C 243.824 -1.41753 -0.733357 0
M  V30 2688 C 244.024 -0.534293 -1.94287 0
M  V30 2689 O 243.08 -0.0059787 -2.52499 0
M  V30 2690 C 244.393 -2.84531 -0.972772 0
M  V30 2691 C 245.941 -2.93978 -1.07453 0
M  V30 2692 C 246.416 -4.37756 -1.3466 0
M  V30 2693 N 247.907 -4.4106 -1.41492 0
M  V30 2694 C 248.642 -5.49387 -1.642 0
M  V30 2695 N 248.138 -6.67806 -1.8441 0
M  V30 2696 N 249.931 -5.36923 -1.66342 0
M  V30 2697 H 242.082 -2.08555 0.402328 0
M  V30 2698 H 244.345 -0.940654 0.117789 0
M  V30 2699 H 244.051 -3.51353 -0.156204 0
M  V30 2700 H 243.925 -3.26508 -1.88871 0
M  V30 2701 H 246.312 -2.27326 -1.88167 0
M  V30 2702 H 246.393 -2.55435 -0.136605 0
M  V30 2703 H 246.037 -5.04972 -0.544581 0
M  V30 2704 H 245.967 -4.73848 -2.2973 0
M  V30 2705 H 248.458 -3.55705 -1.27601 0
M  V30 2706 H 248.771 -7.46141 -2.01231 0
M  V30 2707 H 247.116 -6.70843 -1.81644 0
M  V30 2708 H 250.307 -4.43381 -1.50102 0
M  V30 2709 H 250.48 -6.21416 -1.837 0
M  V30 2710 N 243.887 0.651787 -1.4349 0
M  V30 2711 C 244.817 1.77621 -1.51569 0
M  V30 2712 C 245.798 1.66022 -0.370253 0
M  V30 2713 O 246.983 1.85095 -0.587658 0
M  V30 2714 C 244.113 3.16056 -1.43966 0
M  V30 2715 C 243.067 3.4242 -2.56774 0
M  V30 2716 C 242.393 4.8067 -2.34223 0
M  V30 2717 C 243.693 3.37023 -3.99015 0
M  V30 2718 H 245.387 1.71117 -2.45681 0
M  V30 2719 H 242.933 0.821825 -1.18246 0
M  V30 2720 H 244.886 3.94472 -1.48221 0
M  V30 2721 H 243.61 3.23293 -0.463586 0
M  V30 2722 H 242.269 2.66375 -2.51873 0
M  V30 2723 H 241.917 4.84585 -1.34856 0
M  V30 2724 H 241.617 4.9927 -3.09844 0
M  V30 2725 H 243.141 5.61342 -2.40265 0
M  V30 2726 H 244.555 4.05374 -4.05395 0
M  V30 2727 H 242.952 3.67159 -4.74673 0
M  V30 2728 H 244.022 2.3518 -4.2405 0
M  V30 2729 N 245.365 1.30045 0.890287 0
M  V30 2730 C 246.59 1.21598 1.68014 0
M  V30 2731 C 247.015 -0.218678 1.86825 0
M  V30 2732 O 246.373 -1.15756 1.39536 0
M  V30 2733 C 246.421 1.94434 3.03691 0
M  V30 2734 O 245.525 1.2678 3.92429 0
M  V30 2735 H 244.866 0.420856 0.513592 0
M  V30 2736 H 247.396 1.71775 1.11151 0
M  V30 2737 H 247.406 2.03251 3.5377 0
M  V30 2738 H 246.081 2.98777 2.89318 0
M  V30 2739 H 244.658 1.26282 3.50866 0
M  V30 2740 N 246.843 -1.10192 1.12674 0
M  V30 2741 C 248.254 -1.63707 0.897604 0
M  V30 2742 C 248.605 -1.87812 -0.567546 0
M  V30 2743 O 247.73 -1.62196 -1.43253 0
M  V30 2744 C 248.325 -2.974 1.62292 0
M  V30 2745 C 246.884 -3.47772 1.43986 0
M  V30 2746 C 246.031 -2.22332 1.65722 0
M  V30 2747 H 248.982 -0.936587 1.28116 0
M  V30 2748 H 249.003 -3.64986 1.07541 0
M  V30 2749 H 248.515 -2.79824 2.68924 0
M  V30 2750 H 246.616 -3.70487 0.396206 0
M  V30 2751 H 246.729 -4.25723 2.19765 0
M  V30 2752 H 245.093 -2.30599 1.08149 0
M  V30 2753 H 245.876 -2.07285 2.73657 0
M  V30 2754 N 248.321 -0.919034 -1.28029 0
M  V30 2755 C 249.732 -0.600735 -1.76771 0
M  V30 2756 C 250.083 0.884024 -1.75156 0
M  V30 2757 O 249.208 1.69163 -1.34956 0
M  V30 2758 C 249.803 -1.08372 -3.21 0
M  V30 2759 C 248.362 -0.816248 -3.67443 0
M  V30 2760 C 247.509 -1.24742 -2.47658 0
M  V30 2761 H 250.46 -1.09974 -1.14418 0
M  V30 2762 H 250.481 -0.427512 -3.78091 0
M  V30 2763 H 249.993 -2.16437 -3.22144 0
M  V30 2764 H 248.094 0.250968 -3.71754 0
M  V30 2765 H 248.207 -1.4277 -4.57333 0
M  V30 2766 H 246.571 -0.666083 -2.45836 0
M  V30 2767 H 247.354 -2.33653 -2.51518 0
M  V30 2768 N 249.799 1.42003 -0.683588 0
M  V30 2769 C 251.21 1.84501 -0.285736 0
M  V30 2770 C 251.561 1.57213 1.17382 0
M  V30 2771 O 250.686 1.03642 1.89966 0
M  V30 2772 C 251.281 3.34912 -0.511821 0
M  V30 2773 C 249.84 3.76025 -0.168005 0
M  V30 2774 C 248.987 2.6551 -0.799983 0
M  V30 2775 H 251.938 1.31724 -0.885119 0
M  V30 2776 H 251.959 3.79784 0.233292 0
M  V30 2777 H 251.471 3.54741 -1.57418 0
M  V30 2778 H 249.572 3.61801 0.890567 0
M  V30 2779 H 249.685 4.75141 -0.614661 0
M  V30 2780 H 248.049 2.53654 -0.230568 0
M  V30 2781 H 248.832 2.8816 -1.86597 0
M  V30 2782 N 251.277 0.427512 1.51691 0
M  V30 2783 C 252.502 -0.143601 2.06902 0
M  V30 2784 C 252.927 -1.36536 1.29382 0
M  V30 2785 O 252.285 -1.78289 0.329043 0
M  V30 2786 C 252.333 -0.454207 3.57728 0
M  V30 2787 O 251.437 -1.54228 3.82475 0
M  V30 2788 H 250.778 -0.00617128 0.663971 0
M  V30 2789 H 253.308 0.606014 1.95419 0
M  V30 2790 H 253.318 -0.707525 4.01818 0
M  V30 2791 H 251.993 0.438812 4.13579 0
M  V30 2792 H 250.57 -1.2797 3.50254 0
M  V30 2793 N 252.755 -1.56801 0.158532 0
M  V30 2794 C 253.687 -2.14488 -0.807923 0
M  V30 2795 C 254.7 -1.09721 -1.20271 0
M  V30 2796 O 255.889 -1.36956 -1.14478 0
M  V30 2797 C 252.989 -2.66217 -2.09718 0
M  V30 2798 C 252.162 -3.95507 -1.86796 0
M  V30 2799 C 251.221 -4.3243 -2.99818 0
M  V30 2800 O 250.247 -5.00543 -2.71008 0
M  V30 2801 N 251.449 -3.92947 -4.27285 0
M  V30 2802 H 254.214 -2.98042 -0.314816 0
M  V30 2803 H 251.775 -1.61881 -0.0246692 0
M  V30 2804 H 253.767 -2.87924 -2.84398 0
M  V30 2805 H 252.337 -1.87324 -2.50257 0
M  V30 2806 H 251.557 -3.82309 -0.96089 0
M  V30 2807 H 252.845 -4.79972 -1.68833 0
M  V30 2808 H 252.243 -3.38087 -4.53557 0
M  V30 2809 H 250.8 -4.19681 -4.9871 0
M  V30 2810 N 254.233 0.115231 -1.57178 0
M  V30 2811 C 255.473 0.828199 -1.8687 0
M  V30 2812 C 255.837 1.76873 -0.747002 0
M  V30 2813 O 257.038 2.52354 -0.925785 0
M  V30 2814 C 255.309 1.55515 -3.21792 0
M  V30 2815 S 256.868 2.30917 -3.73125 0
M  V30 2816 H 253.686 0.27634 -0.655101 0
M  V30 2817 H 256.288 0.0863469 -1.95309 0
M  V30 2818 H 254.992 0.856248 -4.01368 0
M  V30 2819 H 254.523 2.3373 -3.16439 0
M  V30 2820 H 256.538 3.56705 -3.44929 0
M  V30 2821 N 255.711 1.52812 0.385517 0
M  V30 2822 C 256.939 1.71907 1.15133 0
M  V30 2823 C 257.354 0.439004 1.83625 0
M  V30 2824 O 256.711 -0.586765 1.7281 0
M  V30 2825 C 256.762 2.87099 2.19673 0
M  V30 2826 O 256.483 4.10151 1.53973 0
M  V30 2827 C 257.984 3.17902 3.08955 0
M  V30 2828 H 255.204 0.575479 0.345057 0
M  V30 2829 H 257.748 1.99476 0.45052 0
M  V30 2830 H 255.903 2.61982 2.85384 0
M  V30 2831 H 256.317 4.74514 2.23465 0
M  V30 2832 H 257.791 4.01959 3.7833 0
M  V30 2833 H 258.268 2.3243 3.72657 0
M  V30 2834 H 258.874 3.44871 2.48885 0
M  V30 2835 N 257.189 -0.644168 1.43834 0
M  V30 2836 C 258.438 -1.39985 1.45214 0
M  V30 2837 C 258.751 -1.95421 0.0835494 0
M  V30 2838 O 259.957 -2.71488 -0.0251748 0
M  V30 2839 C 258.413 -2.53384 2.55587 0
M  V30 2840 C 258.021 -2.04517 3.98594 0
M  V30 2841 C 259.765 -3.30685 2.66172 0
M  V30 2842 C 257.672 -3.1518 5.00416 0
M  V30 2843 H 256.602 -0.526005 0.540218 0
M  V30 2844 H 259.253 -0.694367 1.69855 0
M  V30 2845 H 257.635 -3.26446 2.24163 0
M  V30 2846 H 258.809 -1.38405 4.39523 0
M  V30 2847 H 257.124 -1.40068 3.92135 0
M  V30 2848 H 259.721 -4.13158 3.39418 0
M  V30 2849 H 260.064 -3.79312 1.71546 0
M  V30 2850 H 260.597 -2.64708 2.96942 0
M  V30 2851 H 257.336 -2.71511 5.96625 0
M  V30 2852 H 256.856 -3.79974 4.64091 0
M  V30 2853 H 258.535 -3.80166 5.23529 0
M  V30 2854 N 258.668 -1.30515 -0.883378 0
M  V30 2855 C 259.6 -1.12846 -1.99496 0
M  V30 2856 C 260.613 -0.0712571 -1.62644 0
M  V30 2857 O 261.802 -0.317432 -1.75655 0
M  V30 2858 C 258.902 -0.699123 -3.3161 0
M  V30 2859 C 258.075 -1.83842 -3.96889 0
M  V30 2860 C 257.134 -1.39737 -5.07307 0
M  V30 2861 O 256.16 -2.10485 -5.28852 0
M  V30 2862 N 257.362 -0.277279 -5.79837 0
M  V30 2863 H 260.127 -2.08585 -2.15203 0
M  V30 2864 H 257.688 -1.22672 -1.05656 0
M  V30 2865 H 259.68 -0.387044 -4.02845 0
M  V30 2866 H 258.25 0.166276 -3.12157 0
M  V30 2867 H 257.47 -2.31853 -3.18807 0
M  V30 2868 H 258.758 -2.60187 -4.37241 0
M  V30 2869 H 258.156 0.3122 -5.64838 0
M  V30 2870 H 256.713 -0.0246623 -6.51795 0
M  V30 2871 N 260.146 1.09593 -1.13257 0
M  V30 2872 C 261.096 2.14345 -0.777179 0
M  V30 2873 C 262.08 1.59277 0.227966 0
M  V30 2874 O 263.272 1.76971 0.0321413 0
M  V30 2875 C 260.401 3.42439 -0.242991 0
M  V30 2876 C 259.487 4.04419 -1.27694 0
M  V30 2877 N 259.878 4.40979 -2.47732 0
M  V30 2878 C 258.176 4.31596 -1.12432 0
M  V30 2879 C 258.877 4.89784 -3.13826 0
M  V30 2880 N 257.853 4.87133 -2.41252 0
M  V30 2881 H 261.655 2.40415 -1.69049 0
M  V30 2882 H 259.169 1.26803 -1.01463 0
M  V30 2883 H 261.166 4.16889 0.0298496 0
M  V30 2884 H 259.826 3.17824 0.66467 0
M  V30 2885 H 260.837 4.32396 -2.85051 0
M  V30 2886 H 257.514 4.16595 -0.274684 0
M  V30 2887 H 258.904 5.2755 -4.16102 0
M  V30 2888 N 261.624 0.925811 1.2754 0
M  V30 2889 C 262.901 0.483726 1.89524 0
M  V30 2890 C 263.281 -1.03809 1.83812 0
M  V30 2891 O 262.629 -1.89143 1.28207 0
M  V30 2892 C 262.839 1.02769 3.33526 0
M  V30 2893 C 264.187 1.08703 4.10449 0
M  V30 2894 O 265.211 0.977175 3.42534 0
M  V30 2895 O 264.07 1.25599 5.31871 0
M  V30 2896 H 261.164 0.15529 0.812289 0
M  V30 2897 H 263.71 1.01738 1.35822 0
M  V30 2898 H 262.482 2.07155 3.31967 0
M  V30 2899 H 262.105 0.475567 3.94746 0
M  V30 2900 N 263.102 -1.41638 0.69111 0
M  V30 2901 C 264.052 -2.28 -0.000107832 0
M  V30 2902 C 265.036 -1.41964 -0.757304 0
M  V30 2903 O 266.228 -1.65274 -0.633532 0
M  V30 2904 C 263.357 -3.30209 -0.938983 0
M  V30 2905 C 262.443 -4.23725 -0.17827 0
M  V30 2906 N 262.834 -4.99017 0.825563 0
M  V30 2907 C 261.132 -4.44071 -0.414392 0
M  V30 2908 C 261.833 -5.67431 1.28052 0
M  V30 2909 N 260.809 -5.40197 0.607304 0
M  V30 2910 H 264.611 -2.83644 0.769617 0
M  V30 2911 H 262.125 -1.53797 0.521562 0
M  V30 2912 H 264.122 -3.90898 -1.44929 0
M  V30 2913 H 262.782 -2.76126 -1.70836 0
M  V30 2914 H 263.793 -5.03671 1.20566 0
M  V30 2915 H 260.47 -4.01004 -1.162 0
M  V30 2916 H 261.86 -6.37801 2.11327 0
M  V30 2917 N 264.58 -0.43555 -1.51462 0
M  V30 2918 C 265.826 0.131709 -2.02372 0
M  V30 2919 C 266.159 1.42516 -1.3192 0
M  V30 2920 O 265.434 1.89606 -0.433573 0
M  V30 2921 C 265.717 0.352301 -3.58373 0
M  V30 2922 C 265.57 -0.959676 -4.39443 0
M  V30 2923 C 266.889 1.12286 -4.25535 0
M  V30 2924 H 264.008 0.0463936 -0.735538 0
M  V30 2925 H 266.65 -0.574197 -1.81116 0
M  V30 2926 H 264.8 0.9536 -3.76615 0
M  V30 2927 H 266.472 -1.59482 -4.32855 0
M  V30 2928 H 264.715 -1.56468 -4.04599 0
M  V30 2929 H 265.386 -0.759394 -5.46752 0
M  V30 2930 H 267.862 0.613545 -4.11552 0
M  V30 2931 H 266.738 1.24598 -5.34571 0
M  V30 2932 H 266.999 2.15048 -3.86273 0
M  V30 2933 N 266.058 1.56714 -0.166846 0
M  V30 2934 C 267.307 1.95922 0.479318 0
M  V30 2935 C 267.62 1.05529 1.6469 0
M  V30 2936 O 268.826 1.34399 2.35901 0
M  V30 2937 C 267.282 3.48359 0.90412 0
M  V30 2938 C 266.89 4.47369 -0.237621 0
M  V30 2939 C 268.634 3.96394 1.51896 0
M  V30 2940 C 266.541 5.91039 0.206561 0
M  V30 2941 H 265.471 0.731495 0.18284 0
M  V30 2942 H 268.122 1.81728 -0.254363 0
M  V30 2943 H 266.504 3.57955 1.69365 0
M  V30 2944 H 267.678 4.49485 -1.01489 0
M  V30 2945 H 265.993 4.09366 -0.762128 0
M  V30 2946 H 268.59 5.01186 1.86325 0
M  V30 2947 H 268.933 3.39075 2.41524 0
M  V30 2948 H 269.466 3.89796 0.79395 0
M  V30 2949 H 266.205 6.52221 -0.654834 0
M  V30 2950 H 265.725 5.9224 0.949282 0
M  V30 2951 H 267.404 6.43707 0.651939 0
M  V30 2952 N 267.536 -0.106894 1.57237 0
M  V30 2953 C 268.766 -0.825191 1.89405 0
M  V30 2954 C 269.174 -1.73374 0.757496 0
M  V30 2955 O 268.517 -1.81552 -0.280115 0
M  V30 2956 C 268.579 -1.70102 3.1671 0
M  V30 2957 C 268.243 -0.965523 4.46684 0
M  V30 2958 C 269.24 -0.300741 5.19029 0
M  V30 2959 C 266.925 -0.943105 4.93367 0
M  V30 2960 C 268.919 0.376622 6.36286 0
M  V30 2961 C 266.606 -0.261949 6.10538 0
M  V30 2962 C 267.604 0.396748 6.81847 0
M  V30 2963 O 267.292 1.06701 7.96787 0
M  V30 2964 H 267.024 -0.241852 0.631255 0
M  V30 2965 H 269.578 -0.0921491 2.05193 0
M  V30 2966 H 267.808 -2.47601 2.97036 0
M  V30 2967 H 269.497 -2.29483 3.34802 0
M  V30 2968 H 270.263 -0.309599 4.84011 0
M  V30 2969 H 266.142 -1.44524 4.3776 0
M  V30 2970 H 269.686 0.891334 6.91882 0
M  V30 2971 H 265.583 -0.250896 6.45012 0
M  V30 2972 H 266.351 0.972707 8.127 0
M  V30 2973 N 269.014 -1.53014 -0.377408 0
M  V30 2974 C 270.242 -1.72515 -1.14219 0
M  V30 2975 C 270.657 -0.448735 -1.8339 0
M  V30 2976 O 270.014 0.577592 -1.73119 0
M  V30 2977 C 270.065 -2.8826 -2.18148 0
M  V30 2978 O 269.786 -4.10962 -1.51795 0
M  V30 2979 C 271.287 -3.19536 -3.07264 0
M  V30 2980 H 268.507 -0.577301 -0.342001 0
M  V30 2981 H 271.051 -1.99712 -0.439935 0
M  V30 2982 H 269.206 -2.63492 -2.83991 0
M  V30 2983 H 269.62 -4.75693 -2.20945 0
M  V30 2984 H 271.094 -4.03959 -3.76193 0
M  V30 2985 H 271.571 -2.34403 -3.71419 0
M  V30 2986 H 272.177 -3.46186 -2.47053 0
M  V30 2987 N 270.492 0.636531 -1.44174 0
M  V30 2988 C 271.741 1.39213 -1.45954 0
M  V30 2989 C 272.054 1.95374 -0.0939119 0
M  V30 2990 O 273.26 2.71498 0.0107767 0
M  V30 2991 C 271.716 2.52025 -2.56927 0
M  V30 2992 C 271.324 2.024 -3.99673 0
M  V30 2993 C 273.068 3.29269 -2.67922 0
M  V30 2994 C 270.975 3.12521 -5.0208 0
M  V30 2995 H 269.905 0.523132 -0.542999 0
M  V30 2996 H 272.556 0.685349 -1.70221 0
M  V30 2997 H 270.938 3.25253 -2.25891 0
M  V30 2998 H 272.112 1.36073 -4.40251 0
M  V30 2999 H 270.427 1.37987 -3.92872 0
M  V30 3000 H 273.024 4.11352 -3.41605 0
M  V30 3001 H 273.367 3.78397 -1.73555 0
M  V30 3002 H 273.9 2.63129 -2.98342 0
M  V30 3003 H 270.639 2.68343 -5.98057 0
M  V30 3004 H 270.159 3.77507 -4.66099 0
M  V30 3005 H 271.838 3.77385 -5.25538 0
M  V30 3006 N 271.97 1.30982 0.876444 0
M  V30 3007 C 273.2 1.23063 1.65949 0
M  V30 3008 C 273.608 -0.207537 1.88058 0
M  V30 3009 O 272.951 -1.14781 1.43426 0
M  V30 3010 C 273.013 1.89768 3.05333 0
M  V30 3011 C 272.677 3.39106 3.0636 0
M  V30 3012 C 273.674 4.3496 2.84791 0
M  V30 3013 C 271.359 3.80693 3.27686 0
M  V30 3014 C 273.353 5.70375 2.84519 0
M  V30 3015 C 271.04 5.16223 3.27043 0
M  V30 3016 C 272.038 6.10875 3.05485 0
M  V30 3017 O 271.726 7.43928 3.04674 0
M  V30 3018 H 271.458 0.426685 0.524324 0
M  V30 3019 H 274.012 1.7329 1.10271 0
M  V30 3020 H 272.242 1.34082 3.6271 0
M  V30 3021 H 273.931 1.75853 3.65829 0
M  V30 3022 H 274.697 4.0416 2.68103 0
M  V30 3023 H 270.576 3.07457 3.43499 0
M  V30 3024 H 274.12 6.44228 2.67611 0
M  V30 3025 H 270.017 5.4666 3.43269 0
M  V30 3026 H 270.785 7.53022 3.2078 0
M  V30 3027 N 273.449 -1.08991 1.13837 0
M  V30 3028 C 274.674 -1.85551 0.926585 0
M  V30 3029 C 275.099 -1.80782 -0.519566 0
M  V30 3030 O 274.457 -1.18855 -1.36906 0
M  V30 3031 C 274.505 -3.31266 1.42462 0
M  V30 3032 O 273.609 -4.07822 0.612789 0
M  V30 3033 H 272.95 -0.575192 0.331738 0
M  V30 3034 H 275.48 -1.37604 1.51414 0
M  V30 3035 H 275.49 -3.82112 1.43019 0
M  V30 3036 H 274.165 -3.34052 2.47754 0
M  V30 3037 H 272.742 -3.66731 0.675463 0
M  V30 3038 N 274.927 -0.932562 -1.27047 0
M  V30 3039 C 276.155 -0.592031 -1.98249 0
M  V30 3040 C 276.57 0.831062 -1.69525 0
M  V30 3041 O 275.927 1.55299 -0.958561 0
M  V30 3042 C 275.978 -0.814279 -3.5221 0
M  V30 3043 O 275.699 -2.18139 -3.7993 0
M  V30 3044 C 277.2 -0.483121 -4.4066 0
M  V30 3045 H 274.42 -0.223896 -0.632544 0
M  V30 3046 H 276.964 -1.25091 -1.61779 0
M  V30 3047 H 275.119 -0.20213 -3.86872 0
M  V30 3048 H 275.533 -2.235 -4.74498 0
M  V30 3049 H 277.007 -0.689298 -5.47679 0
M  V30 3050 H 277.484 0.581546 -4.35333 0
M  V30 3051 H 278.09 -1.07362 -4.11526 0
M  V30 3052 N 276.405 1.4127 -0.698611 0
M  V30 3053 C 277.335 2.33447 -0.049629 0
M  V30 3054 C 278.316 1.51982 0.763898 0
M  V30 3055 O 279.501 1.80509 0.716257 0
M  V30 3056 C 276.631 3.35828 0.885267 0
M  V30 3057 C 275.585 4.27627 0.178613 0
M  V30 3058 C 274.911 5.20406 1.22807 0
M  V30 3059 C 276.211 5.13459 -0.956933 0
M  V30 3060 H 277.905 2.87966 -0.81951 0
M  V30 3061 H 275.451 1.38461 -0.395538 0
M  V30 3062 H 277.404 3.9924 1.34854 0
M  V30 3063 H 276.128 2.79666 1.68685 0
M  V30 3064 H 274.787 3.65643 -0.26466 0
M  V30 3065 H 274.435 4.60558 2.02226 0
M  V30 3066 H 274.135 5.82661 0.760239 0
M  V30 3067 H 275.659 5.86695 1.69179 0
M  V30 3068 H 277.073 5.70421 -0.573805 0
M  V30 3069 H 275.47 5.8467 -1.35205 0
M  V30 3070 H 276.54 4.50443 -1.79524 0
M  V30 3071 N 277.883 0.443576 1.51229 0
M  V30 3072 C 279.131 -0.120557 2.0174 0
M  V30 3073 C 279.452 -1.42665 1.32935 0
M  V30 3074 O 278.722 -1.9028 0.465866 0
M  V30 3075 H 277.302 -0.0475426 0.745486 0
M  V30 3076 H 279.964 0.587711 1.85828 0
M  V30 3077 H 279.06 -0.291972 3.10731 0
M  V30 3078 N 279.361 -1.56624 0.175154 0
M  V30 3079 C 280.324 -2.16934 -0.739738 0
M  V30 3080 C 281.324 -1.11842 -1.15533 0
M  V30 3081 O 282.514 -1.37335 -1.07167 0
M  V30 3082 C 279.646 -2.75531 -2.00738 0
M  V30 3083 H 280.839 -2.99131 -0.214639 0
M  V30 3084 H 278.392 -1.56123 -0.0744197 0
M  V30 3085 H 279.127 -1.97078 -2.57548 0
M  V30 3086 H 278.912 -3.52444 -1.71831 0
M  V30 3087 H 280.402 -3.21904 -2.66021 0
M  V30 3088 N 280.839 0.0985539 -1.57292 0
M  V30 3089 C 282.086 0.802678 -1.85912 0
M  V30 3090 C 282.414 1.78901 -0.763186 0
M  V30 3091 O 281.669 1.94178 0.243559 0
M  V30 3092 C 281.968 1.56927 -3.21105 0
M  V30 3093 C 281.634 0.725376 -4.45027 0
M  V30 3094 C 280.296 0.492726 -4.78671 0
M  V30 3095 C 282.648 0.138493 -5.21016 0
M  V30 3096 C 279.976 -0.336727 -5.85733 0
M  V30 3097 C 282.328 -0.678264 -6.28953 0
M  V30 3098 C 280.992 -0.921039 -6.61115 0
M  V30 3099 H 280.262 0.293721 -0.680301 0
M  V30 3100 H 282.909 0.0642841 -1.91392 0
M  V30 3101 H 281.214 2.37914 -3.11294 0
M  V30 3102 H 282.911 2.11841 -3.40477 0
M  V30 3103 H 279.501 0.916815 -4.18679 0
M  V30 3104 H 283.685 0.305404 -4.95359 0
M  V30 3105 H 278.941 -0.533836 -6.09065 0
M  V30 3106 H 283.115 -1.1399 -6.87007 0
M  V30 3107 H 280.742 -1.56556 -7.43905 0
M  V30 3108 N 282.317 1.53212 0.369288 0
M  V30 3109 C 283.547 1.72868 1.13139 0
M  V30 3110 C 283.955 0.455754 1.83629 0
M  V30 3111 O 283.298 -0.580861 1.74275 0
M  V30 3112 C 283.36 2.83667 2.20847 0
M  V30 3113 C 283.024 4.24142 1.70155 0
M  V30 3114 C 284.021 5.06619 1.16763 0
M  V30 3115 C 281.706 4.70539 1.7578 0
M  V30 3116 C 283.7 6.33581 0.696678 0
M  V30 3117 C 281.387 5.97481 1.28297 0
M  V30 3118 C 282.385 6.78833 0.753307 0
M  V30 3119 O 282.073 8.03393 0.285475 0
M  V30 3120 H 281.805 0.581707 0.344373 0
M  V30 3121 H 284.359 2.00736 0.435243 0
M  V30 3122 H 282.589 2.51265 2.93944 0
M  V30 3123 H 284.278 2.91536 2.82421 0
M  V30 3124 H 285.044 4.71948 1.11758 0
M  V30 3125 H 280.923 4.07293 2.15949 0
M  V30 3126 H 284.467 6.97027 0.282581 0
M  V30 3127 H 280.364 6.31651 1.32994 0
M  V30 3128 H 281.132 8.17497 0.405145 0
M  V30 3129 N 283.795 -0.628877 1.44509 0
M  V30 3130 C 285.044 -1.38437 1.4669 0
M  V30 3131 C 285.357 -1.95322 0.104272 0
M  V30 3132 O 286.563 -2.715 0.00362163 0
M  V30 3133 C 285.019 -2.50659 2.5826 0
M  V30 3134 C 284.627 -2.00277 4.0074 0
M  V30 3135 C 286.371 -3.27844 2.69664 0
M  V30 3136 C 284.278 -3.09854 5.0373 0
M  V30 3137 H 283.208 -0.520245 0.545766 0
M  V30 3138 H 285.859 -0.676313 1.70582 0
M  V30 3139 H 284.241 -3.2405 2.27612 0
M  V30 3140 H 285.415 -1.33736 4.40966 0
M  V30 3141 H 283.73 -1.35901 3.93599 0
M  V30 3142 H 286.327 -4.09534 3.43781 0
M  V30 3143 H 286.67 -3.77471 1.75559 0
M  V30 3144 H 287.203 -2.61543 2.99733 0
M  V30 3145 H 283.942 -2.65168 5.99472 0
M  V30 3146 H 283.462 -3.7503 4.68095 0
M  V30 3147 H 285.141 -3.74592 5.27532 0
M  V30 3148 N 285.273 -1.31445 -0.869486 0
M  V30 3149 C 286.684 -1.19042 -1.43826 0
M  V30 3150 C 287.035 0.202919 -1.95148 0
M  V30 3151 O 286.16 1.10071 -1.86315 0
M  V30 3152 C 286.755 -2.15499 -2.6143 0
M  V30 3153 C 285.314 -2.07028 -3.14351 0
M  V30 3154 C 284.461 -2.04701 -1.87063 0
M  V30 3155 H 287.412 -1.43489 -0.677984 0
M  V30 3156 H 287.433 -1.74488 -3.38134 0
M  V30 3157 H 286.945 -3.16899 -2.24046 0
M  V30 3158 H 285.046 -1.08825 -3.56354 0
M  V30 3159 H 285.159 -2.96157 -3.766 0
M  V30 3160 H 283.523 -1.49724 -2.06046 0
M  V30 3161 H 284.306 -3.07857 -1.51917 0
M  V30 3162 N 286.751 1.08385 -1.14413 0
M  V30 3163 C 287.681 2.17321 -0.854044 0
M  V30 3164 C 288.662 1.69024 0.191049 0
M  V30 3165 O 289.847 1.94141 0.0476779 0
M  V30 3166 C 286.977 3.45719 -0.330983 0
M  V30 3167 C 285.931 4.07409 -1.31155 0
M  V30 3168 C 285.257 5.30762 -0.64778 0
M  V30 3169 C 286.557 4.48665 -2.67388 0
M  V30 3170 H 288.251 2.41845 -1.76498 0
M  V30 3171 H 285.797 1.16233 -0.850051 0
M  V30 3172 H 287.75 4.21241 -0.115645 0
M  V30 3173 H 286.474 3.2075 0.615381 0
M  V30 3174 H 285.133 3.33919 -1.51306 0
M  V30 3175 H 284.781 5.02078 0.304398 0
M  V30 3176 H 284.481 5.72992 -1.30207 0
M  V30 3177 H 286.005 6.08998 -0.441972 0
M  V30 3178 H 287.419 5.15364 -2.51143 0
M  V30 3179 H 285.816 5.01814 -3.29093 0
M  V30 3180 H 286.886 3.60543 -3.24248 0
M  V30 3181 N 288.23 0.939286 1.26551 0
M  V30 3182 C 289.458 0.602536 1.97932 0
M  V30 3183 C 289.873 -0.82206 1.69964 0
M  V30 3184 O 289.23 -1.54789 0.966784 0
M  V30 3185 C 289.281 0.832946 3.51773 0
M  V30 3186 O 289.002 2.20151 3.78768 0
M  V30 3187 C 290.503 0.506483 4.40397 0
M  V30 3188 H 287.723 0.227248 0.631347 0
M  V30 3189 H 290.267 1.25948 1.61113 0
M  V30 3190 H 288.422 0.222644 3.8676 0
M  V30 3191 H 288.836 2.26013 4.73306 0
M  V30 3192 H 290.31 0.718333 5.47306 0
M  V30 3193 H 290.787 -0.558451 4.35635 0
M  V30 3194 H 291.393 1.09543 4.10951 0
M  V30 3195 N 289.708 -1.40897 0.706093 0
M  V30 3196 C 290.638 -2.33418 0.0620085 0
M  V30 3197 C 291.619 -1.52385 -0.755827 0
M  V30 3198 O 292.804 -1.80886 -0.706674 0
M  V30 3199 C 289.934 -3.36293 -0.867445 0
M  V30 3200 C 288.888 -4.27716 -0.155932 0
M  V30 3201 C 288.214 -5.2105 -1.20046 0
M  V30 3202 C 289.514 -5.12944 0.984149 0
M  V30 3203 H 291.208 -2.87527 0.83477 0
M  V30 3204 H 288.754 -1.38249 0.402875 0
M  V30 3205 H 290.707 -3.99949 -1.32735 0
M  V30 3206 H 289.431 -2.80556 -1.67199 0
M  V30 3207 H 288.09 -3.65498 0.284047 0
M  V30 3208 H 287.738 -4.61624 -1.99781 0
M  V30 3209 H 287.438 -5.83056 -0.729328 0
M  V30 3210 H 288.962 -5.87584 -1.66066 0
M  V30 3211 H 290.376 -5.70109 0.604048 0
M  V30 3212 H 288.773 -5.83945 1.38304 0
M  V30 3213 H 289.843 -4.49485 1.81911 0
M  V30 3214 N 291.186 -0.45159 -1.50991 0
M  V30 3215 C 292.435 0.111653 -2.01391 0
M  V30 3216 C 292.748 1.42529 -1.33959 0
M  V30 3217 O 293.954 2.07232 -1.75405 0
M  V30 3218 C 292.41 0.249514 -3.59034 0
M  V30 3219 C 292.018 -1.05453 -4.35412 0
M  V30 3220 C 293.762 0.765762 -4.17536 0
M  V30 3221 C 291.669 -0.881529 -5.84793 0
M  V30 3222 H 290.599 0.0455022 -0.752626 0
M  V30 3223 H 293.25 -0.583524 -1.73975 0
M  V30 3224 H 291.632 1.00803 -3.82955 0
M  V30 3225 H 292.806 -1.82248 -4.23229 0
M  V30 3226 H 291.121 -1.50039 -3.88429 0
M  V30 3227 H 293.718 0.911913 -5.26866 0
M  V30 3228 H 294.061 1.75201 -3.77638 0
M  V30 3229 H 294.594 0.0651744 -3.97747 0
M  V30 3230 H 291.333 -1.84057 -6.29129 0
M  V30 3231 H 290.853 -0.153625 -5.99603 0
M  V30 3232 H 292.532 -0.540363 -6.4474 0
M  V30 3233 N 292.664 1.56529 -0.183458 0
M  V30 3234 C 293.594 2.21549 0.737456 0
M  V30 3235 C 294.575 1.17489 1.23005 0
M  V30 3236 O 295.76 1.45959 1.281 0
M  V30 3237 C 292.89 2.86575 1.96194 0
M  V30 3238 C 291.844 3.96778 1.60473 0
M  V30 3239 C 291.17 4.48911 2.90487 0
M  V30 3240 C 292.47 5.15767 0.823497 0
M  V30 3241 H 294.164 2.98761 0.195453 0
M  V30 3242 H 291.71 1.43702 0.0925686 0
M  V30 3243 H 293.663 3.30739 2.61131 0
M  V30 3244 H 292.387 2.06749 2.52828 0
M  V30 3245 H 291.046 3.53286 0.978997 0
M  V30 3246 H 290.694 3.65862 3.45186 0
M  V30 3247 H 290.394 5.23265 2.67335 0
M  V30 3248 H 291.918 4.95771 3.56432 0
M  V30 3249 H 293.332 5.56549 1.37571 0
M  V30 3250 H 291.729 5.96114 0.690551 0
M  V30 3251 H 292.799 4.84574 -0.177782 0
M  V30 3252 N 294.142 -0.090211 1.57342 0
M  V30 3253 C 295.391 -0.791531 1.8552 0
M  V30 3254 C 295.704 -1.79659 0.773441 0
M  V30 3255 O 296.91 -2.54616 0.942497 0
M  V30 3256 C 295.366 -1.45856 3.2902 0
M  V30 3257 C 294.974 -0.493017 4.45279 0
M  V30 3258 C 296.718 -2.14332 3.66418 0
M  V30 3259 C 294.625 -1.16491 5.79814 0
M  V30 3260 H 293.555 -0.299356 0.692027 0
M  V30 3261 H 296.206 -0.0445343 1.83446 0
M  V30 3262 H 294.588 -2.25318 3.2565 0
M  V30 3263 H 295.762 0.270464 4.60006 0
M  V30 3264 H 294.077 0.0863061 4.16311 0
M  V30 3265 H 296.674 -2.65344 4.64216 0
M  V30 3266 H 297.017 -2.93447 2.95287 0
M  V30 3267 H 297.55 -1.41724 3.71698 0
M  V30 3268 H 294.289 -0.41447 6.54188 0
M  V30 3269 H 293.809 -1.8997 5.68921 0
M  V30 3270 H 295.488 -1.69001 6.24538 0
M  V30 3271 N 295.62 -1.53406 -0.361157 0
M  V30 3272 C 296.55 -1.83136 -1.44857 0
M  V30 3273 C 297.531 -0.685174 -1.5569 0
M  V30 3274 O 298.716 -0.93544 -1.70186 0
M  V30 3275 C 295.846 -2.02522 -2.82138 0
M  V30 3276 C 294.8 -3.18302 -2.86126 0
M  V30 3277 C 294.126 -3.22989 -4.26125 0
M  V30 3278 C 295.426 -4.56796 -2.53248 0
M  V30 3279 H 297.12 -2.74201 -1.20226 0
M  V30 3280 H 294.666 -1.31938 -0.576922 0
M  V30 3281 H 296.619 -2.21904 -3.58241 0
M  V30 3282 H 295.343 -1.08172 -3.08166 0
M  V30 3283 H 294.002 -2.98747 -2.12475 0
M  V30 3284 H 293.65 -2.26267 -4.49235 0
M  V30 3285 H 293.35 -4.00781 -4.29708 0
M  V30 3286 H 294.874 -3.44559 -5.04094 0
M  V30 3287 H 296.288 -4.7631 -3.19064 0
M  V30 3288 H 294.685 -5.36862 -2.68141 0
M  V30 3289 H 295.755 -4.61606 -1.48484 0
M  V30 3290 N 297.098 0.621204 -1.44841 0
M  V30 3291 C 298.328 1.40548 -1.51426 0
M  V30 3292 C 298.736 1.88673 -0.141083 0
M  V30 3293 O 298.079 1.62053 0.865128 0
M  V30 3294 C 298.141 2.65325 -2.42576 0
M  V30 3295 C 297.805 2.3893 -3.89566 0
M  V30 3296 C 298.802 2.00138 -4.79834 0
M  V30 3297 C 296.487 2.52263 -4.3436 0
M  V30 3298 C 298.481 1.75021 -6.129 0
M  V30 3299 C 296.168 2.2676 -5.67471 0
M  V30 3300 C 297.166 1.88199 -6.56559 0
M  V30 3301 O 296.854 1.62986 -7.87204 0
M  V30 3302 H 296.586 0.437122 -0.515655 0
M  V30 3303 H 299.14 0.765987 -1.90583 0
M  V30 3304 H 297.37 3.31947 -1.98364 0
M  V30 3305 H 299.059 3.27347 -2.39998 0
M  V30 3306 H 299.825 1.89386 -4.46495 0
M  V30 3307 H 295.704 2.81246 -3.65269 0
M  V30 3308 H 299.248 1.44848 -6.82396 0
M  V30 3309 H 295.145 2.37125 -6.00368 0
M  V30 3310 H 295.913 1.7715 -7.991 0
M  V30 3311 N 298.576 1.31904 0.862503 0
M  V30 3312 C 299.806 1.24817 1.64634 0
M  V30 3313 C 300.214 -0.187579 1.88268 0
M  V30 3314 O 299.557 -1.13253 1.44635 0
M  V30 3315 C 299.619 1.92996 3.03303 0
M  V30 3316 C 299.283 3.42336 3.02746 0
M  V30 3317 C 300.28 4.37956 2.80162 0
M  V30 3318 C 297.965 3.84147 3.2363 0
M  V30 3319 C 299.959 5.73361 2.78453 0
M  V30 3320 C 297.646 5.19663 3.21549 0
M  V30 3321 C 298.644 6.14081 2.98988 0
M  V30 3322 O 298.332 7.47118 2.96766 0
M  V30 3323 H 298.064 0.432222 0.519769 0
M  V30 3324 H 300.618 1.7445 1.08427 0
M  V30 3325 H 298.848 1.37922 3.61268 0
M  V30 3326 H 300.537 1.79723 3.63943 0
M  V30 3327 H 301.303 4.06981 2.63802 0
M  V30 3328 H 297.182 3.11083 3.40218 0
M  V30 3329 H 300.726 6.4703 2.60763 0
M  V30 3330 H 296.623 5.5027 3.37451 0
M  V30 3331 H 297.391 7.56382 3.12775 0
M  V30 3332 N 300.054 -1.07777 1.14986 0
M  V30 3333 C 301.47 -1.32373 0.891596 0
M  V30 3334 C 301.67 -1.9609 -0.463788 0
M  V30 3335 O 300.726 -2.21801 -1.20667 0
M  V30 3336 C 302.039 -2.21905 2.02925 0
M  V30 3337 C 303.587 -2.35367 2.06329 0
M  V30 3338 C 304.062 -3.28245 3.19405 0
M  V30 3339 N 305.553 -3.35824 3.19024 0
M  V30 3340 C 306.288 -4.07739 4.03158 0
M  V30 3341 N 305.784 -4.82306 4.97346 0
M  V30 3342 N 307.577 -4.03635 3.91197 0
M  V30 3343 H 299.728 -0.648039 2.02273 0
M  V30 3344 H 301.991 -0.348149 0.881757 0
M  V30 3345 H 301.697 -1.82342 3.0074 0
M  V30 3346 H 301.571 -3.22407 1.95789 0
M  V30 3347 H 303.958 -2.74186 1.09116 0
M  V30 3348 H 304.039 -1.34585 2.17533 0
M  V30 3349 H 303.683 -2.90146 4.16867 0
M  V30 3350 H 303.613 -4.28971 3.05437 0
M  V30 3351 H 306.104 -2.8267 2.50811 0
M  V30 3352 H 306.417 -5.34661 5.57994 0
M  V30 3353 H 304.762 -4.81337 5.01338 0
M  V30 3354 H 307.953 -3.44491 3.16928 0
M  V30 3355 H 308.126 -4.59417 4.5699 0
M  V30 3356 N 301.532 -0.945985 -1.26051 0
M  V30 3357 C 302.781 -0.591836 -1.92822 0
M  V30 3358 C 303.094 0.873956 -1.7499 0
M  V30 3359 O 304.3 1.33769 -2.36259 0
M  V30 3360 C 302.756 -1.00776 -3.45503 0
M  V30 3361 C 302.364 -2.4955 -3.7206 0
M  V30 3362 C 304.108 -0.725735 -4.1825 0
M  V30 3363 C 302.015 -2.84988 -5.18205 0
M  V30 3364 H 300.945 -0.217635 -0.721908 0
M  V30 3365 H 303.596 -1.14927 -1.43052 0
M  V30 3366 H 301.978 -0.378812 -3.94184 0
M  V30 3367 H 303.152 -3.1739 -3.34066 0
M  V30 3368 H 301.467 -2.75133 -3.12555 0
M  V30 3369 H 304.064 -0.966771 -5.25887 0
M  V30 3370 H 304.407 0.337639 -4.14929 0
M  V30 3371 H 304.94 -1.31463 -3.7545 0
M  V30 3372 H 301.679 -3.90307 -5.26631 0
M  V30 3373 H 301.199 -2.21813 -5.57278 0
M  V30 3374 H 302.878 -2.73712 -5.86252 0
M  V30 3375 N 303.011 1.40521 -0.713556 0
M  V30 3376 C 304.241 2.0494 -0.261395 0
M  V30 3377 C 304.649 1.53861 1.10107 0
M  V30 3378 O 303.992 0.689321 1.70276 0
M  V30 3379 C 304.054 3.59138 -0.161227 0
M  V30 3380 C 303.718 4.33096 -1.45865 0
M  V30 3381 C 304.715 4.61182 -2.40016 0
M  V30 3382 C 302.4 4.72043 -1.71701 0
M  V30 3383 C 304.394 5.27196 -3.58251 0
M  V30 3384 C 302.081 5.37789 -2.90218 0
M  V30 3385 C 303.079 5.65295 -3.83315 0
M  V30 3386 O 302.767 6.29683 -4.99754 0
M  V30 3387 H 302.499 0.666041 -0.115608 0
M  V30 3388 H 305.053 1.80954 -0.971849 0
M  V30 3389 H 303.283 3.81936 0.605153 0
M  V30 3390 H 304.972 4.05091 0.256105 0
M  V30 3391 H 305.738 4.31559 -2.21318 0
M  V30 3392 H 301.617 4.50003 -1.00092 0
M  V30 3393 H 305.161 5.48582 -4.30934 0
M  V30 3394 H 301.058 5.66831 -3.08825 0
M  V30 3395 H 301.826 6.4818 -4.99805 0
M  V30 3396 N 304.489 0.459591 1.5075 0
M  V30 3397 C 305.439 -0.358926 2.25157 0
M  V30 3398 C 306.423 -0.971285 1.28276 0
M  V30 3399 O 307.615 -0.885739 1.53244 0
M  V30 3400 C 304.744 -1.44695 3.11317 0
M  V30 3401 C 303.83 -0.842894 4.15639 0
M  V30 3402 N 304.221 0.0299373 5.05791 0
M  V30 3403 C 302.519 -1.10809 4.32015 0
M  V30 3404 C 303.22 0.371563 5.80512 0
M  V30 3405 N 302.196 -0.250409 5.43023 0
M  V30 3406 H 305.998 0.313636 2.92222 0
M  V30 3407 H 303.512 0.273021 1.60089 0
M  V30 3408 H 305.509 -2.04641 3.63218 0
M  V30 3409 H 304.169 -2.12162 2.45799 0
M  V30 3410 H 305.18 0.39797 5.16369 0
M  V30 3411 H 301.857 -1.7786 3.77719 0
M  V30 3412 H 303.247 1.08319 6.63111 0
M  V30 3413 N 305.967 -1.56429 0.191757 0
M  V30 3414 C 306.93 -2.17707 -0.716688 0
M  V30 3415 C 307.93 -1.13061 -1.14341 0
M  V30 3416 O 309.12 -1.38464 -1.05704 0
M  V30 3417 C 306.252 -2.77644 -1.97804 0
M  V30 3418 H 307.445 -2.99342 -0.1829 0
M  V30 3419 H 304.998 -1.56193 -0.0578566 0
M  V30 3420 H 305.733 -1.99799 -2.55443 0
M  V30 3421 H 305.518 -3.54246 -1.68083 0
M  V30 3422 H 307.008 -3.24708 -2.62592 0
M  V30 3423 N 307.445 0.0818655 -1.57387 0
M  V30 3424 C 308.408 1.08265 -2.02018 0
M  V30 3425 C 309.408 1.32183 -0.915664 0
M  V30 3426 O 310.598 1.28073 -1.18081 0
M  V30 3427 C 307.73 2.42871 -2.39221 0
M  V30 3428 H 308.923 0.698204 -2.91659 0
M  V30 3429 H 306.476 0.327303 -1.52835 0
M  V30 3430 H 307.211 2.86167 -1.52575 0
M  V30 3431 H 306.996 2.26855 -3.19811 0
M  V30 3432 H 308.486 3.14826 -2.74362 0
M  V30 3433 N 308.923 1.53595 0.353017 0
M  V30 3434 C 309.87 1.80919 1.43308 0
M  V30 3435 C 310.84 0.654288 1.5267 0
M  V30 3436 O 312.025 0.897759 1.6836 0
M  V30 3437 C 309.165 2.01605 2.80089 0
M  V30 3438 C 308.278 3.29321 2.79593 0
M  V30 3439 C 307.413 3.40125 4.0803 0
M  V30 3440 C 306.452 4.61826 4.01725 0
M  V30 3441 N 305.589 4.69716 5.21834 0
M  V30 3442 H 310.429 2.73074 1.19308 0
M  V30 3443 H 307.966 1.35263 0.578131 0
M  V30 3444 H 309.924 2.11586 3.59565 0
M  V30 3445 H 308.554 1.12772 3.0246 0
M  V30 3446 H 307.606 3.28229 1.92276 0
M  V30 3447 H 308.918 4.18884 2.70809 0
M  V30 3448 H 308.072 3.49488 4.95927 0
M  V30 3449 H 306.811 2.48601 4.19582 0
M  V30 3450 H 305.816 4.52552 3.12213 0
M  V30 3451 H 307.041 5.54705 3.91764 0
M  V30 3452 H 304.987 3.81097 5.33948 0
M  V30 3453 H 304.904 5.53202 5.1527 0
M  V30 3454 H 306.172 4.83376 6.11529 0
M  V30 3455 N 310.401 -0.613514 1.45168 0
M  V30 3456 C 311.626 -1.40437 1.52618 0
M  V30 3457 C 312.051 -1.87438 0.157707 0
M  V30 3458 O 311.409 -1.59791 -0.856537 0
M  V30 3459 C 311.457 -2.58894 2.51011 0
M  V30 3460 O 310.561 -3.59326 2.02382 0
M  V30 3461 H 309.902 -0.419506 0.514695 0
M  V30 3462 H 312.432 -0.747215 1.90467 0
M  V30 3463 H 312.442 -3.06214 2.69624 0
M  V30 3464 H 311.117 -2.24032 3.50403 0
M  V30 3465 H 309.694 -3.18695 1.93618 0
M  V30 3466 N 311.879 -1.3236 -0.855495 0
M  V30 3467 C 312.809 -1.23833 -1.97958 0
M  V30 3468 C 313.79 -0.122361 -1.69659 0
M  V30 3469 O 314.975 -0.30939 -1.9172 0
M  V30 3470 C 312.105 -0.959772 -3.33775 0
M  V30 3471 C 311.059 -2.03689 -3.76424 0
M  V30 3472 C 310.385 -1.61075 -5.09862 0
M  V30 3473 C 311.685 -3.4518 -3.9198 0
M  V30 3474 H 313.379 -2.1788 -2.0535 0
M  V30 3475 H 310.925 -1.04891 -0.986605 0
M  V30 3476 H 312.878 -0.886678 -4.11966 0
M  V30 3477 H 311.602 0.0163404 -3.26596 0
M  V30 3478 H 310.261 -2.10012 -3.00484 0
M  V30 3479 H 309.909 -0.622107 -4.99138 0
M  V30 3480 H 309.609 -2.33143 -5.39368 0
M  V30 3481 H 311.133 -1.55201 -5.90546 0
M  V30 3482 H 312.547 -3.4145 -4.60526 0
M  V30 3483 H 310.944 -4.1559 -4.32903 0
M  V30 3484 H 312.014 -3.84903 -2.94919 0
M  V30 3485 N 313.357 1.07166 -1.15556 0
M  V30 3486 C 314.587 1.83248 -0.954133 0
M  V30 3487 C 314.995 1.82449 0.500911 0
M  V30 3488 O 314.338 1.23575 1.35923 0
M  V30 3489 C 314.4 3.31393 -1.39351 0
M  V30 3490 C 314.064 3.5591 -2.86666 0
M  V30 3491 C 315.061 3.49695 -3.8472 0
M  V30 3492 C 312.746 3.83515 -3.24379 0
M  V30 3493 C 314.74 3.70737 -5.18491 0
M  V30 3494 C 312.427 4.04209 -4.58321 0
M  V30 3495 C 313.425 3.97815 -5.55186 0
M  V30 3496 O 313.113 4.17954 -6.86709 0
M  V30 3497 H 312.845 0.584941 -0.338851 0
M  V30 3498 H 315.399 1.36169 -1.53777 0
M  V30 3499 H 313.629 3.79292 -0.75329 0
M  V30 3500 H 315.318 3.88945 -1.16089 0
M  V30 3501 H 316.084 3.28368 -3.56931 0
M  V30 3502 H 311.963 3.87605 -2.49567 0
M  V30 3503 H 315.507 3.65663 -5.94085 0
M  V30 3504 H 311.404 4.25023 -4.85825 0
M  V30 3505 H 312.172 4.35291 -6.93155 0
M  V30 3506 N 314.835 0.952656 1.25548 0
M  V30 3507 C 315.767 0.428609 2.25157 0
M  V30 3508 C 316.78 -0.454428 1.56329 0
M  V30 3509 O 317.969 -0.263023 1.76552 0
M  V30 3510 C 315.069 -0.401972 3.36508 0
M  V30 3511 C 314.242 0.467601 4.34893 0
M  V30 3512 C 313.301 -0.30445 5.25319 0
M  V30 3513 O 312.327 0.296473 5.68427 0
M  V30 3514 N 313.529 -1.59805 5.5807 0
M  V30 3515 H 316.294 1.28497 2.70756 0
M  V30 3516 H 313.855 0.822798 1.39433 0
M  V30 3517 H 315.847 -0.926134 3.9396 0
M  V30 3518 H 314.417 -1.15918 2.90313 0
M  V30 3519 H 313.637 1.17288 3.76347 0
M  V30 3520 H 314.925 1.06119 4.97611 0
M  V30 3521 H 314.323 -2.10823 5.24948 0
M  V30 3522 H 312.88 -2.06822 6.18116 0
M  V30 3523 N 316.313 -1.40141 0.720998 0
M  V30 3524 C 317.26 -2.30688 0.071919 0
M  V30 3525 C 318.23 -1.48476 -0.744584 0
M  V30 3526 O 319.415 -1.77201 -0.707423 0
M  V30 3527 C 316.555 -3.34724 -0.839855 0
M  V30 3528 C 315.668 -4.31998 -0.0122438 0
M  V30 3529 C 314.803 -5.23102 -0.923995 0
M  V30 3530 C 313.842 -6.12033 -0.0907969 0
M  V30 3531 N 312.979 -6.95537 -0.957718 0
M  V30 3532 H 317.819 -2.85628 0.849755 0
M  V30 3533 H 315.356 -1.40653 0.430726 0
M  V30 3534 H 317.314 -3.93618 -1.38279 0
M  V30 3535 H 315.944 -2.81274 -1.58381 0
M  V30 3536 H 314.996 -3.74841 0.64794 0
M  V30 3537 H 316.308 -4.94772 0.632595 0
M  V30 3538 H 315.462 -5.86953 -1.53527 0
M  V30 3539 H 314.201 -4.60615 -1.60264 0
M  V30 3540 H 313.206 -5.47207 0.533377 0
M  V30 3541 H 314.431 -6.76581 0.584428 0
M  V30 3542 H 312.377 -6.35633 -1.62192 0
M  V30 3543 H 312.294 -7.55099 -0.36904 0
M  V30 3544 H 313.562 -7.63832 -1.555 0
M  V30 3545 N 317.792 -0.46758 -1.50504 0
M  V30 3546 C 319.208 -0.121533 -1.59137 0
M  V30 3547 C 319.408 1.3717 -1.47603 0
M  V30 3548 O 318.464 2.14464 -1.33272 0
M  V30 3549 C 319.777 -0.6686 -2.93173 0
M  V30 3550 C 321.325 -0.631716 -3.06559 0
M  V30 3551 C 321.8 -1.15627 -4.43164 0
M  V30 3552 N 323.291 -1.11553 -4.49567 0
M  V30 3553 C 324.026 -1.49195 -5.5365 0
M  V30 3554 N 323.522 -1.94269 -6.65005 0
M  V30 3555 N 325.315 -1.4082 -5.44175 0
M  V30 3556 H 317.466 -1.4388 -1.56245 0
M  V30 3557 H 319.729 -0.594784 -0.738198 0
M  V30 3558 H 319.435 -1.71453 -3.07078 0
M  V30 3559 H 319.309 -0.11021 -3.77039 0
M  V30 3560 H 321.696 0.405297 -2.92304 0
M  V30 3561 H 321.777 -1.22687 -2.24458 0
M  V30 3562 H 321.421 -2.1919 -4.58168 0
M  V30 3563 H 321.351 -0.537365 -5.23851 0
M  V30 3564 H 323.842 -0.784895 -3.69659 0
M  V30 3565 H 324.155 -2.21148 -7.40482 0
M  V30 3566 H 322.5 -1.98219 -6.66134 0
M  V30 3567 H 325.691 -1.0545 -4.56068 0
M  V30 3568 H 325.864 -1.70481 -6.25172 0
M  V30 3569 N 319.27 1.56325 -0.20005 0
M  V30 3570 C 320.518 1.97329 0.436547 0
M  V30 3571 C 320.839 1.08826 1.61808 0
M  V30 3572 O 320.109 0.160604 1.95241 0
M  V30 3573 H 318.689 0.728714 0.164272 0
M  V30 3574 H 321.351 1.92761 -0.287937 0
M  V30 3575 H 320.447 3.02264 0.777353 0
M  V30 3576 N 320.748 -0.0735177 1.57428 0
M  V30 3577 C 321.973 -0.789787 1.91774 0
M  V30 3578 C 322.398 -1.70413 0.796306 0
M  V30 3579 O 321.756 -1.79555 -0.250961 0
M  V30 3580 C 321.804 -1.5609 3.25067 0
M  V30 3581 O 320.908 -2.67144 3.14178 0
M  V30 3582 H 320.249 -0.215582 0.628029 0
M  V30 3583 H 322.779 -0.0422781 2.04556 0
M  V30 3584 H 322.789 -1.94052 3.58898 0
M  V30 3585 H 321.464 -0.890015 4.06265 0
M  V30 3586 H 320.041 -2.32052 2.91901 0
M  V30 3587 N 322.226 -1.5378 -0.344866 0
M  V30 3588 C 323.451 -1.75211 -1.10977 0
M  V30 3589 C 323.876 -0.48936 -1.81623 0
M  V30 3590 O 323.234 0.557925 -1.72502 0
M  V30 3591 C 323.282 -2.93147 -2.09993 0
M  V30 3592 O 322.386 -2.63203 -3.17487 0
M  V30 3593 H 321.727 -0.581241 -0.321021 0
M  V30 3594 H 324.257 -2.00738 -0.395661 0
M  V30 3595 H 324.267 -3.19898 -2.53237 0
M  V30 3596 H 322.942 -3.84731 -1.5797 0
M  V30 3597 H 321.519 -2.47336 -2.79069 0
M  V30 3598 N 323.704 0.605807 -1.45491 0
M  V30 3599 C 325.12 0.926751 -1.29936 0
M  V30 3600 C 325.32 1.99896 -0.253706 0
M  V30 3601 O 324.376 2.50038 0.351737 0
M  V30 3602 C 325.689 1.36599 -2.67883 0
M  V30 3603 C 327.237 1.4801 -2.75793 0
M  V30 3604 C 327.712 1.95309 -4.14268 0
M  V30 3605 N 329.203 2.0254 -4.16571 0
M  V30 3606 C 329.938 2.40363 -5.20589 0
M  V30 3607 N 329.434 2.77143 -6.34952 0
M  V30 3608 N 331.227 2.40718 -5.07948 0
M  V30 3609 H 323.378 -0.102862 -2.12151 0
M  V30 3610 H 325.641 0.016639 -0.947854 0
M  V30 3611 H 325.347 0.652306 -3.45598 0
M  V30 3612 H 325.221 2.33215 -2.96463 0
M  V30 3613 H 327.608 2.1847 -1.98381 0
M  V30 3614 H 327.689 0.497041 -2.50925 0
M  V30 3615 H 327.333 1.25436 -4.92167 0
M  V30 3616 H 327.263 2.94532 -4.3653 0
M  V30 3617 H 329.754 1.76699 -3.34045 0
M  V30 3618 H 330.067 3.0489 -7.10114 0
M  V30 3619 H 328.412 2.74834 -6.3835 0
M  V30 3620 H 331.603 2.11392 -4.1765 0
M  V30 3621 H 331.776 2.69869 -5.89131 0
M  V30 3622 N 325.182 1.32811 0.848464 0
M  V30 3623 C 326.132 1.18842 1.94578 0
M  V30 3624 C 327.116 0.0937517 1.60627 0
M  V30 3625 O 328.308 0.320887 1.74067 0
M  V30 3626 C 325.437 0.91999 3.30743 0
M  V30 3627 C 324.523 2.05665 3.70894 0
M  V30 3628 N 324.914 3.30579 3.8282 0
M  V30 3629 C 323.212 1.9612 4.00566 0
M  V30 3630 C 323.913 4.05067 4.17487 0
M  V30 3631 N 322.889 3.33419 4.2934 0
M  V30 3632 H 326.691 2.13536 2.0194 0
M  V30 3633 H 324.205 1.2468 1.0406 0
M  V30 3634 H 326.202 0.800859 4.09136 0
M  V30 3635 H 324.862 -0.0185076 3.24695 0
M  V30 3636 H 325.873 3.65441 3.66978 0
M  V30 3637 H 322.55 1.09871 4.02784 0
M  V30 3638 H 323.94 5.12815 4.34131 0
M  V30 3639 N 326.66 -1.06551 1.16123 0
M  V30 3640 C 327.59 -2.15935 0.88851 0
M  V30 3641 C 328.571 -1.69306 -0.164135 0
M  V30 3642 O 329.756 -1.94193 -0.0167857 0
M  V30 3643 C 326.886 -3.45149 0.385942 0
M  V30 3644 C 325.84 -4.05271 1.3762 0
M  V30 3645 C 325.166 -5.29664 0.732137 0
M  V30 3646 C 326.466 -4.44355 2.74493 0
M  V30 3647 H 328.16 -2.39006 1.80323 0
M  V30 3648 H 325.706 -1.14866 0.868435 0
M  V30 3649 H 327.659 -4.21004 0.182647 0
M  V30 3650 H 326.383 -3.21689 -0.564274 0
M  V30 3651 H 325.042 -3.3147 1.56599 0
M  V30 3652 H 324.69 -5.02499 -0.224483 0
M  V30 3653 H 324.39 -5.70848 1.39307 0
M  V30 3654 H 325.914 -6.08218 0.538802 0
M  V30 3655 H 327.328 -5.11303 2.59311 0
M  V30 3656 H 325.725 -4.96515 3.37035 0
M  V30 3657 H 326.795 -3.55339 3.29943 0
M  V30 3658 N 328.138 -0.959301 -1.25041 0
M  V30 3659 C 329.363 -0.633507 -1.97488 0
M  V30 3660 C 329.788 0.788555 -1.70773 0
M  V30 3661 O 329.146 1.53394 -0.966431 0
M  V30 3662 C 329.194 -0.904057 -3.49083 0
M  V30 3663 O 328.298 0.0147939 -4.12397 0
M  V30 3664 H 327.639 -0.240368 -0.618966 0
M  V30 3665 H 330.169 -1.28717 -1.59038 0
M  V30 3666 H 330.179 -0.832203 -3.99423 0
M  V30 3667 H 328.854 -1.94048 -3.67856 0
M  V30 3668 H 327.431 -0.109664 -3.72739 0
M  V30 3669 N 329.616 1.39756 -0.72842 0
M  V30 3670 C 330.564 2.32485 -0.0731849 0
M  V30 3671 C 331.558 1.52717 0.733063 0
M  V30 3672 O 332.764 1.68428 0.634988 0
M  V30 3673 H 329.139 0.751984 -0.00486469 0
M  V30 3674 H 331.11 2.85382 -0.871761 0
M  V30 3675 C 329.859 3.37773 0.824908 0
M  V30 3676 H 329.182 3.99227 0.213915 0
M  V30 3677 H 330.622 4.05121 1.25111 0
M  V30 3678 C 329.081 2.74287 1.95622 0
M  V30 3679 O 329.611 2.61618 3.04826 0
M  V30 3680 N 327.817 2.32475 1.74367 0
M  V30 3681 H 327.364 2.4298 0.855494 0
M  V30 3682 H 327.322 1.90337 2.50238 0
M  V30 3683 N 331.094 0.475555 1.50254 0
M  V30 3684 C 332.51 0.12997 1.5907 0
M  V30 3685 C 332.71 -1.36385 1.48328 0
M  V30 3686 O 331.766 -2.13754 1.34407 0
M  V30 3687 C 333.079 0.684139 2.92814 0
M  V30 3688 C 334.627 0.647965 3.0622 0
M  V30 3689 C 335.102 1.17975 4.42545 0
M  V30 3690 N 336.593 1.13936 4.48969 0
M  V30 3691 C 337.328 1.52129 5.52851 0
M  V30 3692 N 336.824 1.97793 6.63965 0
M  V30 3693 N 338.617 1.43704 5.4342 0
M  V30 3694 H 330.768 1.44706 1.55479 0
M  V30 3695 H 333.031 0.598691 0.735033 0
M  V30 3696 H 332.737 1.73079 3.06164 0
M  V30 3697 H 332.611 0.130204 3.76975 0
M  V30 3698 H 334.998 -0.38979 2.92514 0
M  V30 3699 H 335.079 1.23876 2.23805 0
M  V30 3700 H 334.723 2.21616 4.57 0
M  V30 3701 H 334.653 0.565138 5.23559 0
M  V30 3702 H 337.144 0.804488 3.69238 0
M  V30 3703 H 337.457 2.25072 7.39299 0
M  V30 3704 H 335.802 2.01749 6.65073 0
M  V30 3705 H 338.993 1.07867 4.55502 0
M  V30 3706 H 339.166 1.73794 6.24259 0
M  V30 3707 N 332.573 -1.56217 0.208337 0
M  V30 3708 C 333.798 -2.02782 -0.435222 0
M  V30 3709 C 334.223 -1.08738 -1.53485 0
M  V30 3710 O 333.581 -0.0731855 -1.81152 0
M  V30 3711 C 333.629 -3.47687 -0.956335 0
M  V30 3712 O 332.733 -3.56773 -2.06849 0
M  V30 3713 H 332.074 -0.656403 -0.100158 0
M  V30 3714 H 334.604 -2.02033 0.3231 0
M  V30 3715 H 334.614 -3.87745 -1.26955 0
M  V30 3716 H 333.289 -4.15624 -0.15143 0
M  V30 3717 H 331.866 -3.28597 -1.76292 0
M  V30 3718 N 334.051 0.0651679 -1.57465 0
M  V30 3719 C 335.279 0.775808 -1.91804 0
M  V30 3720 C 335.694 1.70782 -0.804916 0
M  V30 3721 O 335.051 1.81153 0.221311 0
M  V30 3722 C 335.102 1.56381 -3.25925 0
M  V30 3723 O 334.823 0.669248 -4.32958 0
M  V30 3724 C 336.324 2.37485 -3.7432 0
M  V30 3725 H 333.544 0.2202 -0.63384 0
M  V30 3726 H 336.088 0.0334587 -2.04473 0
M  V30 3727 H 334.243 2.25837 -3.14764 0
M  V30 3728 H 334.657 1.21801 -5.10162 0
M  V30 3729 H 336.131 2.88223 -4.70778 0
M  V30 3730 H 336.608 3.17307 -3.03666 0
M  V30 3731 H 337.214 1.73173 -3.88447 0
M  V30 3732 N 335.529 1.53961 0.336706 0
M  V30 3733 C 336.806 1.62171 1.09361 0
M  V30 3734 C 337.186 0.447263 2.06307 0
M  V30 3735 O 336.534 -0.559802 2.21537 0
M  V30 3736 C 336.744 2.98565 1.80721 0
M  V30 3737 C 338.092 3.54157 2.34218 0
M  V30 3738 O 339.116 3.00784 1.90807 0
M  V30 3739 O 337.975 4.47528 3.13657 0
M  V30 3740 H 335.069 0.6562 0.503319 0
M  V30 3741 H 337.615 1.66307 0.33765 0
M  V30 3742 H 336.387 3.75482 1.10132 0
M  V30 3743 H 336.01 2.9805 2.63158 0
M  V30 3744 N 337.007 -0.598083 1.45811 0
M  V30 3745 C 338.232 -1.3881 1.54099 0
M  V30 3746 C 338.657 -1.8726 0.177578 0
M  V30 3747 O 338.015 -1.6069 -0.839541 0
M  V30 3748 C 338.063 -2.56217 2.53743 0
M  V30 3749 O 337.167 -3.5716 2.06182 0
M  V30 3750 H 336.508 -0.414024 0.519115 0
M  V30 3751 H 339.038 -0.726971 1.91249 0
M  V30 3752 H 339.048 -3.03337 2.72856 0
M  V30 3753 H 337.723 -2.20303 3.5276 0
M  V30 3754 H 336.3 -3.16624 1.96987 0
M  V30 3755 N 338.485 -1.33259 -0.841409 0
M  V30 3756 C 339.417 -1.19136 -1.95804 0
M  V30 3757 C 340.43 -0.122965 -1.62335 0
M  V30 3758 O 341.619 -0.373154 -1.74556 0
M  V30 3759 C 338.719 -0.804268 -3.29218 0
M  V30 3760 C 337.892 -1.96376 -3.90839 0
M  V30 3761 C 336.951 -1.55806 -5.02604 0
M  V30 3762 O 335.977 -2.27203 -5.21888 0
M  V30 3763 N 337.179 -0.461609 -5.78662 0
M  V30 3764 H 339.944 -2.15326 -2.08458 0
M  V30 3765 H 337.505 -1.25971 -1.017 0
M  V30 3766 H 339.497 -0.51501 -4.0141 0
M  V30 3767 H 338.067 0.0668809 -3.12528 0
M  V30 3768 H 337.287 -2.41879 -3.11269 0
M  V30 3769 H 338.575 -2.73966 -4.28742 0
M  V30 3770 H 337.973 0.132343 -5.65545 0
M  V30 3771 H 336.53 -0.232013 -6.51387 0
M  V30 3772 N 339.963 1.05934 -1.16686 0
M  V30 3773 C 340.911 2.15603 -0.872817 0
M  V30 3774 C 341.905 1.68647 0.159576 0
M  V30 3775 O 343.111 1.79995 0.0132125 0
M  V30 3776 H 339.486 0.703885 -0.264671 0
M  V30 3777 H 341.457 2.37613 -1.80507 0
M  V30 3778 C 340.206 3.45457 -0.394344 0
M  V30 3779 H 339.529 3.81984 -1.18019 0
M  V30 3780 H 340.969 4.2339 -0.227408 0
M  V30 3781 C 339.428 3.25021 0.88673 0
M  V30 3782 O 339.958 3.50906 1.95519 0
M  V30 3783 N 338.164 2.78437 0.831925 0
M  V30 3784 H 337.711 2.57572 -0.0377619 0
M  V30 3785 H 337.669 2.65144 1.68956 0
M  V30 3786 N 341.441 0.965919 1.2453 0
M  V30 3787 C 342.666 0.643971 1.97149 0
M  V30 3788 C 343.091 -0.779487 1.71189 0
M  V30 3789 O 342.449 -1.5288 0.974553 0
M  V30 3790 C 342.497 0.922557 3.48599 0
M  V30 3791 O 341.601 0.00707672 4.12399 0
M  V30 3792 H 340.942 0.243647 0.617683 0
M  V30 3793 H 343.472 1.29558 1.58353 0
M  V30 3794 H 343.482 0.853373 3.98976 0
M  V30 3795 H 342.157 1.95996 3.66822 0
M  V30 3796 H 340.734 0.12943 3.72675 0
M  V30 3797 N 342.919 -1.39368 0.735821 0
M  V30 3798 C 344.166 -2.00497 0.284123 0
M  V30 3799 C 344.494 -1.58387 -1.12889 0
M  V30 3800 O 343.749 -0.804359 -1.78406 0
M  V30 3801 C 344.048 -3.5583 0.334651 0
M  V30 3802 C 343.714 -4.17593 1.7008 0
M  V30 3803 C 342.376 -4.34176 2.07472 0
M  V30 3804 C 344.728 -4.51848 2.59775 0
M  V30 3805 C 342.056 -4.82304 3.34065 0
M  V30 3806 C 344.408 -5.01384 3.85741 0
M  V30 3807 C 343.072 -5.16175 4.23225 0
M  V30 3808 H 342.342 -0.73367 0.103968 0
M  V30 3809 H 344.989 -1.66683 0.942825 0
M  V30 3810 H 343.294 -3.89674 -0.407625 0
M  V30 3811 H 344.991 -4.00986 -0.0329927 0
M  V30 3812 H 341.581 -4.05087 1.40008 0
M  V30 3813 H 345.765 -4.38653 2.32157 0
M  V30 3814 H 341.021 -4.91941 3.63049 0
M  V30 3815 H 345.195 -5.26863 4.55399 0
M  V30 3816 H 342.822 -5.5323 5.21384 0
M  V30 3817 N 344.397 -0.483516 -1.5 0
M  V30 3818 C 345.36 0.292965 -2.2732 0
M  V30 3819 C 346.36 0.909499 -1.32608 0
M  V30 3820 O 347.55 0.776745 -1.55924 0
M  V30 3821 C 344.682 1.41854 -3.09984 0
M  V30 3822 H 345.875 -0.385289 -2.97415 0
M  V30 3823 H 343.428 -0.237942 -1.54478 0
M  V30 3824 H 344.163 2.13148 -2.44414 0
M  V30 3825 H 343.948 0.982114 -3.79601 0
M  V30 3826 H 345.438 1.96597 -3.68429 0
M  V30 3827 N 345.875 1.56104 -0.216619 0
M  V30 3828 C 347.1 2.0301 0.424462 0
M  V30 3829 C 347.525 1.0955 1.52907 0
M  V30 3830 O 346.883 0.0827914 1.81111 0
M  V30 3831 C 346.931 3.4819 0.937883 0
M  V30 3832 O 346.035 3.57865 2.04955 0
M  V30 3833 H 345.376 0.656925 0.0966755 0
M  V30 3834 H 347.906 2.01859 -0.33381 0
M  V30 3835 H 347.916 3.88413 1.24897 0
M  V30 3836 H 346.591 4.15699 0.129387 0
M  V30 3837 H 345.168 3.29527 1.74546 0
M  V30 3838 N 347.353 -0.0568162 1.57498 0
M  V30 3839 C 348.593 -0.758273 1.89815 0
M  V30 3840 C 348.957 -1.73978 0.812132 0
M  V30 3841 O 350.158 -2.48744 1.01881 0
M  V30 3842 C 348.429 -1.43465 3.27342 0
M  V30 3843 S 349.988 -2.1691 3.81439 0
M  V30 3844 H 346.806 -0.251836 0.664906 0
M  V30 3845 H 349.408 -0.0137997 1.95495 0
M  V30 3846 H 348.112 -0.706693 4.0427 0
M  V30 3847 H 347.643 -2.21825 3.24896 0
M  V30 3848 H 349.658 -3.43658 3.5793 0
M  V30 3849 N 348.832 -1.54138 -0.328536 0
M  V30 3850 C 349.779 -1.83176 -1.40411 0
M  V30 3851 C 350.749 -0.678494 -1.5161 0
M  V30 3852 O 351.934 -0.92443 -1.6691 0
M  V30 3853 C 349.074 -2.06035 -2.76846 0
M  V30 3854 C 348.187 -3.33727 -2.74318 0
M  V30 3855 C 347.322 -3.46574 -4.02567 0
M  V30 3856 C 346.361 -4.68159 -3.94327 0
M  V30 3857 N 345.498 -4.77959 -5.14296 0
M  V30 3858 H 350.338 -2.74938 -1.14948 0
M  V30 3859 H 347.875 -1.36166 -0.556538 0
M  V30 3860 H 349.833 -2.1728 -3.56153 0
M  V30 3861 H 348.463 -1.1757 -3.00628 0
M  V30 3862 H 347.515 -3.31246 -1.8703 0
M  V30 3863 H 348.827 -4.23139 -2.64111 0
M  V30 3864 H 347.981 -3.57333 -4.90304 0
M  V30 3865 H 346.72 -2.55245 -4.15574 0
M  V30 3866 H 345.725 -4.57461 -3.04974 0
M  V30 3867 H 346.95 -5.60868 -3.82889 0
M  V30 3868 H 344.896 -3.89544 -5.27818 0
M  V30 3869 H 344.813 -5.6133 -5.06404 0
M  V30 3870 H 346.081 -4.93044 -6.03761 0
M  V30 3871 N 350.31 0.590341 -1.46126 0
M  V30 3872 C 351.24 1.71032 -1.58966 0
M  V30 3873 C 352.221 1.64302 -0.440335 0
M  V30 3874 O 353.406 1.82436 -0.665634 0
M  V30 3875 C 350.536 3.09665 -1.57241 0
M  V30 3876 C 349.49 3.31221 -2.71066 0
M  V30 3877 C 348.816 4.70303 -2.54399 0
M  V30 3878 C 350.116 3.19796 -4.1295 0
M  V30 3879 H 351.81 1.60543 -2.52718 0
M  V30 3880 H 349.356 0.770933 -1.21625 0
M  V30 3881 H 351.309 3.87831 -1.64819 0
M  V30 3882 H 350.033 3.21036 -0.600289 0
M  V30 3883 H 348.692 2.55452 -2.62944 0
M  V30 3884 H 348.34 4.78429 -1.55288 0
M  V30 3885 H 348.04 4.85679 -3.30741 0
M  V30 3886 H 349.564 5.50647 -2.63857 0
M  V30 3887 H 350.978 3.87815 -4.22223 0
M  V30 3888 H 349.375 3.46696 -4.89818 0
M  V30 3889 H 350.445 2.16983 -4.33643 0
M  V30 3890 N 351.788 1.33704 0.83433 0
M  V30 3891 C 353.016 1.28467 1.62185 0
M  V30 3892 C 353.431 -0.143526 1.88254 0
M  V30 3893 O 352.788 -1.08709 1.4659 0
M  V30 3894 C 352.839 2.06174 2.96942 0
M  V30 3895 O 352.56 3.43422 2.72016 0
M  V30 3896 C 354.061 2.08201 3.91366 0
M  V30 3897 H 351.281 0.4424 0.504503 0
M  V30 3898 H 353.825 1.76145 1.03891 0
M  V30 3899 H 351.98 1.62167 3.51825 0
M  V30 3900 H 352.394 3.83453 3.57861 0
M  V30 3901 H 353.868 2.67017 4.83121 0
M  V30 3902 H 354.345 1.07343 4.2588 0
M  V30 3903 H 354.951 2.52246 3.42421 0
M  V30 3904 N 353.266 -1.05314 1.17247 0
M  V30 3905 C 354.198 -2.13023 0.845812 0
M  V30 3906 C 355.211 -1.62096 -0.151246 0
M  V30 3907 O 356.4 -1.78343 0.0748818 0
M  V30 3908 C 353.5 -3.38047 0.240292 0
M  V30 3909 C 352.673 -4.18255 1.27991 0
M  V30 3910 C 351.732 -5.21625 0.692375 0
M  V30 3911 O 350.758 -5.52619 1.36385 0
M  V30 3912 N 351.96 -5.78201 -0.516178 0
M  V30 3913 H 354.725 -2.41642 1.77283 0
M  V30 3914 H 352.286 -1.21401 1.07115 0
M  V30 3915 H 354.278 -4.04359 -0.16603 0
M  V30 3916 H 352.848 -3.06972 -0.590487 0
M  V30 3917 H 352.068 -3.47451 1.86203 0
M  V30 3918 H 353.356 -4.68643 1.98119 0
M  V30 3919 H 352.754 -5.55301 -1.07969 0
M  V30 3920 H 351.311 -6.4604 -0.86458 0
M  V30 3921 N 354.744 -0.972509 -1.24016 0
M  V30 3922 C 355.972 -0.654803 -1.96265 0
M  V30 3923 C 356.387 0.776708 -1.72083 0
M  V30 3924 O 355.744 1.52171 -1.00748 0
M  V30 3925 C 355.795 -0.92592 -3.49441 0
M  V30 3926 O 355.516 -2.30116 -3.72798 0
M  V30 3927 C 357.017 -0.623068 -4.38899 0
M  V30 3928 H 354.237 -0.243907 -0.6251 0
M  V30 3929 H 356.781 -1.30175 -1.57717 0
M  V30 3930 H 354.936 -0.325108 -3.86033 0
M  V30 3931 H 355.35 -2.38483 -4.67147 0
M  V30 3932 H 356.824 -0.863189 -5.45209 0
M  V30 3933 H 357.301 0.442754 -4.36963 0
M  V30 3934 H 357.907 -1.204 -4.07902 0
M  V30 3935 N 356.222 1.38976 -0.743202 0
M  V30 3936 C 357.469 2.00343 -0.294752 0
M  V30 3937 C 357.797 1.58983 1.12047 0
M  V30 3938 O 357.052 0.813809 1.77977 0
M  V30 3939 C 357.351 3.55647 -0.353517 0
M  V30 3940 C 357.017 4.16685 -1.72292 0
M  V30 3941 C 355.679 4.3307 -2.09771 0
M  V30 3942 C 358.031 4.50464 -2.62168 0
M  V30 3943 C 355.359 4.80526 -3.36618 0
M  V30 3944 C 357.711 4.99332 -3.88395 0
M  V30 3945 C 356.375 5.13924 -4.25956 0
M  V30 3946 H 355.645 0.733108 -0.107857 0
M  V30 3947 H 358.292 1.6618 -0.951651 0
M  V30 3948 H 356.597 3.89884 0.386954 0
M  V30 3949 H 358.294 4.00998 0.0117269 0
M  V30 3950 H 354.884 4.04339 -1.42155 0
M  V30 3951 H 359.068 4.37416 -2.3448 0
M  V30 3952 H 354.324 4.90008 -3.65653 0
M  V30 3953 H 358.498 5.2444 -4.58187 0
M  V30 3954 H 356.125 5.50457 -5.2431 0
M  V30 3955 N 357.7 0.491464 1.49741 0
M  V30 3956 C 358.94 -0.0549118 2.04326 0
M  V30 3957 C 359.304 -1.35148 1.36378 0
M  V30 3958 O 360.505 -1.9815 1.81631 0
M  V30 3959 C 358.776 -0.213841 3.5676 0
M  V30 3960 S 360.335 -0.715839 4.32922 0
M  V30 3961 H 357.153 -0.00630513 0.710972 0
M  V30 3962 H 359.755 0.663257 1.83905 0
M  V30 3963 H 358.459 0.73527 4.0376 0
M  V30 3964 H 357.99 -0.957529 3.81569 0
M  V30 3965 H 360.005 -1.9864 4.54705 0
M  V30 3966 N 359.178 -1.55987 0.224894 0
M  V30 3967 C 360.424 -1.98684 -0.406502 0
M  V30 3968 C 360.757 -1.11248 -1.59177 0
M  V30 3969 O 360.032 -0.170909 -1.93748 0
M  V30 3970 C 360.315 -3.50218 -0.837808 0
M  V30 3971 C 360.168 -4.48426 0.351332 0
M  V30 3972 C 361.487 -4.06243 -1.69278 0
M  V30 3973 H 358.606 -0.722337 -0.146283 0
M  V30 3974 H 361.248 -1.87255 0.321799 0
M  V30 3975 H 359.398 -3.60089 -1.45837 0
M  V30 3976 H 361.07 -4.50562 0.989526 0
M  V30 3977 H 359.313 -4.22159 0.998207 0
M  V30 3978 H 359.984 -5.52 0.00655905 0
M  V30 3979 H 362.46 -3.99337 -1.16914 0
M  V30 3980 H 361.336 -5.12581 -1.96346 0
M  V30 3981 H 361.597 -3.53332 -2.65723 0
M  V30 3982 N 360.656 0.0484629 -1.57525 0
M  V30 3983 C 361.881 0.759177 -1.93006 0
M  V30 3984 C 362.306 1.69125 -0.823317 0
M  V30 3985 O 361.664 1.79931 0.222364 0
M  V30 3986 C 361.712 1.50899 -3.27509 0
M  V30 3987 O 360.816 2.62112 -3.18388 0
M  V30 3988 H 360.157 0.205564 -0.631379 0
M  V30 3989 H 362.687 0.00972959 -2.04598 0
M  V30 3990 H 362.697 1.88317 -3.6194 0
M  V30 3991 H 361.372 0.825269 -4.0763 0
M  V30 3992 H 359.949 2.27379 -2.95556 0
M  V30 3993 N 362.134 1.5431 0.320358 0
M  V30 3994 C 363.411 1.63322 1.07635 0
M  V30 3995 C 363.791 0.46912 2.05821 0
M  V30 3996 O 363.139 -0.536274 2.22118 0
M  V30 3997 C 363.349 3.00465 1.77544 0
M  V30 3998 C 364.697 3.56621 2.30449 0
M  V30 3999 O 365.721 3.02791 1.87606 0
M  V30 4000 O 364.58 4.5083 3.08892 0
M  V30 4001 H 361.674 0.661502 0.496331 0
M  V30 4002 H 364.22 1.66656 0.319992 0
M  V30 4003 H 362.992 3.76629 1.06143 0
M  V30 4004 H 362.615 3.00824 2.59982 0
M  V30 4005 N 363.613 -0.582584 1.46437 0
M  V30 4006 C 364.86 -1.34079 1.51753 0
M  V30 4007 C 365.188 -1.93762 0.169299 0
M  V30 4008 O 364.443 -1.76989 -0.835062 0
M  V30 4009 C 364.742 -2.48964 2.56421 0
M  V30 4010 C 364.408 -2.07273 4.00436 0
M  V30 4011 C 363.07 -1.95618 4.39644 0
M  V30 4012 C 365.422 -1.75111 4.90903 0
M  V30 4013 C 362.75 -1.5006 5.67185 0
M  V30 4014 C 365.102 -1.31032 6.18881 0
M  V30 4015 C 363.766 -1.17954 6.56996 0
M  V30 4016 H 363.036 -0.49063 0.555304 0
M  V30 4017 H 365.683 -0.656007 1.79913 0
M  V30 4018 H 363.988 -3.22889 2.21923 0
M  V30 4019 H 365.685 -3.07178 2.57765 0
M  V30 4020 H 362.275 -2.17279 3.69443 0
M  V30 4021 H 366.459 -1.83001 4.61329 0
M  V30 4022 H 361.715 -1.38577 5.95488 0
M  V30 4023 H 365.889 -1.052 6.88408 0
M  V30 4024 H 363.516 -0.824279 7.55718 0
M  V30 4025 N 365.091 -1.34144 -0.827227 0
M  V30 4026 C 366.316 -1.29476 -1.62021 0
M  V30 4027 C 366.741 0.129292 -1.87655 0
M  V30 4028 O 366.099 1.08967 -1.449 0
M  V30 4029 C 366.147 -2.08702 -2.94068 0
M  V30 4030 O 365.251 -1.45359 -3.85933 0
M  V30 4031 H 364.592 -0.444881 -0.492927 0
M  V30 4032 H 367.122 -1.76882 -1.02829 0
M  V30 4033 H 367.132 -2.19898 -3.43669 0
M  V30 4034 H 365.807 -3.12241 -2.74734 0
M  V30 4035 H 364.384 -1.42879 -3.44442 0
M  V30 4036 N 366.569 1.04691 -1.17803 0
M  V30 4037 C 367.797 1.81446 -0.99423 0
M  V30 4038 C 368.212 1.83174 0.457459 0
M  V30 4039 O 367.569 1.26265 1.31771 0
M  V30 4040 C 367.62 3.27334 -1.5341 0
M  V30 4041 O 367.341 3.25798 -2.92895 0
M  V30 4042 C 368.842 4.20759 -1.39559 0
M  V30 4043 H 366.062 0.571599 -0.351447 0
M  V30 4044 H 368.606 1.31982 -1.56208 0
M  V30 4045 H 366.761 3.74052 -1.00815 0
M  V30 4046 H 367.175 4.17144 -3.17949 0
M  V30 4047 H 368.649 5.21084 -1.82141 0
M  V30 4048 H 369.126 4.37856 -0.343394 0
M  V30 4049 H 369.732 3.79901 -1.91195 0
M  V30 4050 N 368.047 0.979072 1.23499 0
M  V30 4051 C 369.272 0.664845 1.96455 0
M  V30 4052 C 369.697 -0.761287 1.72006 0
M  V30 4053 O 369.055 -1.51837 0.990713 0
M  V30 4054 C 369.103 0.959479 3.47601 0
M  V30 4055 O 368.207 0.0508168 4.12369 0
M  V30 4056 H 367.548 0.250185 0.615064 0
M  V30 4057 H 370.078 1.31231 1.5697 0
M  V30 4058 H 370.088 0.895642 3.98048 0
M  V30 4059 H 368.763 1.99876 3.64723 0
M  V30 4060 H 367.34 0.16895 3.72517 0
M  V30 4061 N 369.525 -1.3858 0.750561 0
M  V30 4062 C 370.802 -1.94231 0.231009 0
M  V30 4063 C 371.182 -1.68611 -1.27018 0
M  V30 4064 O 370.53 -1.02296 -2.04323 0
M  V30 4065 C 370.74 -3.44123 0.581428 0
M  V30 4066 C 372.088 -4.2116 0.539389 0
M  V30 4067 O 373.112 -3.52391 0.519541 0
M  V30 4068 O 371.971 -5.43749 0.54765 0
M  V30 4069 H 369.065 -0.825639 0.0474263 0
M  V30 4070 H 371.611 -1.4799 0.830478 0
M  V30 4071 H 370.383 -3.56267 1.61833 0
M  V30 4072 H 370.006 -3.97573 -0.0462047 0
M  V30 4073 N 371.003 -0.499398 -1.49478 0
M  V30 4074 C 372.414 -0.051215 -1.8663 0
M  V30 4075 C 372.765 1.36238 -1.41186 0
M  V30 4076 O 371.89 2.01502 -0.789051 0
M  V30 4077 C 372.485 -0.0861651 -3.3869 0
M  V30 4078 C 371.044 0.30667 -3.75149 0
M  V30 4079 C 370.191 -0.459397 -2.73468 0
M  V30 4080 H 373.142 -0.712264 -1.41818 0
M  V30 4081 H 373.163 0.709507 -3.73826 0
M  V30 4082 H 372.675 -1.11512 -3.71735 0
M  V30 4083 H 370.776 1.33892 -3.47712 0
M  V30 4084 H 370.889 -0.0116669 -4.79099 0
M  V30 4085 H 369.253 0.0905645 -2.54539 0
M  V30 4086 H 370.036 -1.4884 -3.09357 0
M  V30 4087 N 372.481 1.55866 -0.233164 0
M  V30 4088 C 373.709 2.02998 0.399905 0
M  V30 4089 C 374.124 1.11274 1.52524 0
M  V30 4090 O 373.481 0.124528 1.82075 0
M  V30 4091 C 373.532 3.4958 0.920639 0
M  V30 4092 O 373.253 4.37808 -0.159834 0
M  V30 4093 C 374.754 4.12411 1.62578 0
M  V30 4094 H 371.974 0.664006 0.0966281 0
M  V30 4095 H 374.518 2.0143 -0.353013 0
M  V30 4096 H 372.673 3.51727 1.62379 0
M  V30 4097 H 373.087 5.23981 0.23337 0
M  V30 4098 H 374.561 5.16711 1.94201 0
M  V30 4099 H 375.038 3.5809 2.54299 0
M  V30 4100 H 375.644 4.14148 0.967553 0
M  V30 4101 N 373.959 -0.0401083 1.57549 0
M  V30 4102 C 375.187 -0.745196 1.93014 0
M  V30 4103 C 375.602 -1.6948 0.831984 0
M  V30 4104 O 374.959 -1.81482 -0.192463 0
M  V30 4105 C 375.01 -1.51176 3.28372 0
M  V30 4106 O 374.731 -0.600284 4.33968 0
M  V30 4107 C 376.232 -2.315 3.78051 0
M  V30 4108 H 373.452 -0.210088 0.637263 0
M  V30 4109 H 375.996 -0.000924689 2.045 0
M  V30 4110 H 374.151 -2.20801 3.18317 0
M  V30 4111 H 374.565 -1.13669 5.12035 0
M  V30 4112 H 376.039 -2.80697 4.75303 0
M  V30 4113 H 376.516 -3.12436 3.08675 0
M  V30 4114 H 377.122 -1.66971 3.91153 0
M  V30 4115 N 375.437 -1.54477 -0.31217 0
M  V30 4116 C 376.347 -1.87695 -1.4074 0
M  V30 4117 C 377.363 -0.769975 -1.56036 0
M  V30 4118 O 378.539 -1.06537 -1.70915 0
M  V30 4119 C 375.604 -2.10755 -2.75287 0
M  V30 4120 C 374.665 -3.34514 -2.69071 0
M  V30 4121 C 373.898 -3.56465 -3.97201 0
M  V30 4122 O 374.121 -2.81637 -4.96021 0
M  V30 4123 O 373.055 -4.49964 -3.9977 0
M  V30 4124 H 376.881 -2.80849 -1.15574 0
M  V30 4125 H 374.466 -1.40526 -0.507228 0
M  V30 4126 H 376.348 -2.27188 -3.54913 0
M  V30 4127 H 375.023 -1.20788 -3.0032 0
M  V30 4128 H 373.93 -3.23456 -1.87955 0
M  V30 4129 H 375.263 -4.24575 -2.48992 0
M  V30 4130 N 376.915 0.57481 -1.46744 0
M  V30 4131 C 378.162 1.33272 -1.52462 0
M  V30 4132 C 378.49 1.93669 -0.179572 0
M  V30 4133 O 377.745 1.7743 0.825664 0
M  V30 4134 C 378.044 2.476 -2.57738 0
M  V30 4135 C 377.71 2.05146 -4.01529 0
M  V30 4136 C 376.372 1.93284 -4.40676 0
M  V30 4137 C 378.724 1.72506 -4.91824 0
M  V30 4138 C 376.052 1.47049 -5.67973 0
M  V30 4139 C 378.404 1.27748 -6.19567 0
M  V30 4140 C 377.068 1.14468 -6.57612 0
M  V30 4141 H 376.338 0.487678 -0.557899 0
M  V30 4142 H 378.985 0.646456 -1.80259 0
M  V30 4143 H 377.29 3.21708 -2.23632 0
M  V30 4144 H 378.987 3.05807 -2.5939 0
M  V30 4145 H 375.577 2.15316 -3.7059 0
M  V30 4146 H 379.761 1.80552 -4.62293 0
M  V30 4147 H 375.017 1.35417 -5.96215 0
M  V30 4148 H 379.191 1.01547 -6.88957 0
M  V30 4149 H 376.818 0.78419 -7.56145 0
M  V30 4150 N 378.394 1.34581 0.820102 0
M  V30 4151 C 379.304 1.28471 1.96297 0
M  V30 4152 C 380.32 0.191902 1.72939 0
M  V30 4153 O 381.496 0.418879 1.96996 0
M  V30 4154 C 378.561 1.04281 3.30645 0
M  V30 4155 C 377.622 2.22745 3.66992 0
M  V30 4156 C 376.855 1.997 4.9493 0
M  V30 4157 O 377.078 0.956656 5.6232 0
M  V30 4158 O 376.012 2.86723 5.2922 0
M  V30 4159 H 379.838 2.24624 2.04396 0
M  V30 4160 H 377.423 1.14816 0.955913 0
M  V30 4161 H 379.305 0.925841 4.11104 0
M  V30 4162 H 377.98 0.111697 3.23507 0
M  V30 4163 H 376.887 2.40003 2.86966 0
M  V30 4164 H 378.22 3.14257 3.78819 0
M  V30 4165 N 379.872 -1.04064 1.18357 0
M  V30 4166 C 380.819 -2.12077 0.910603 0
M  V30 4167 C 381.789 -1.65421 -0.15 0
M  V30 4168 O 382.974 -1.90797 -0.0103614 0
M  V30 4169 C 380.114 -3.42252 0.442472 0
M  V30 4170 C 379.227 -4.0252 1.5685 0
M  V30 4171 C 378.362 -5.20657 1.05309 0
M  V30 4172 C 377.401 -5.72955 2.1538 0
M  V30 4173 N 376.538 -6.8238 1.65233 0
M  V30 4174 H 381.378 -2.34764 1.83548 0
M  V30 4175 H 378.915 -1.15157 0.915279 0
M  V30 4176 H 380.873 -4.16921 0.152534 0
M  V30 4177 H 379.503 -3.19712 -0.445428 0
M  V30 4178 H 378.555 -3.25178 1.97391 0
M  V30 4179 H 379.867 -4.37362 2.39824 0
M  V30 4180 H 379.021 -6.0244 0.717677 0
M  V30 4181 H 377.76 -4.87318 0.19293 0
M  V30 4182 H 376.765 -4.89793 2.49766 0
M  V30 4183 H 377.99 -6.08337 3.01832 0
M  V30 4184 H 375.936 -6.50917 0.815064 0
M  V30 4185 H 375.853 -7.16286 2.41805 0
M  V30 4186 H 377.121 -7.67788 1.34619 0
M  V30 4187 N 381.35 -0.985608 -1.22978 0
M  V30 4188 C 382.597 -0.657386 -1.91532 0
M  V30 4189 C 382.925 0.809707 -1.76845 0
M  V30 4190 O 382.18 1.60021 -1.12658 0
M  V30 4191 C 382.479 -1.00014 -3.43121 0
M  V30 4192 C 382.145 -2.4583 -3.77993 0
M  V30 4193 C 380.807 -2.85679 -3.87222 0
M  V30 4194 C 383.159 -3.40378 -3.94705 0
M  V30 4195 C 380.487 -4.19081 -4.10595 0
M  V30 4196 C 382.839 -4.73429 -4.1958 0
M  V30 4197 C 381.503 -5.1303 -4.27032 0
M  V30 4198 H 380.773 -0.240555 -0.700867 0
M  V30 4199 H 383.42 -1.24044 -1.45895 0
M  V30 4200 H 381.725 -0.335072 -3.90365 0
M  V30 4201 H 383.422 -0.724322 -3.94404 0
M  V30 4202 H 380.012 -2.13939 -3.71387 0
M  V30 4203 H 384.196 -3.10766 -3.8696 0
M  V30 4204 H 379.452 -4.49362 -4.14589 0
M  V30 4205 H 383.626 -5.46644 -4.31455 0
M  V30 4206 H 381.253 -6.16418 -4.44896 0
M  V30 4207 N 382.828 1.3818 -0.7579 0
M  V30 4208 C 383.778 2.27741 -0.108674 0
M  V30 4209 C 384.762 1.45415 0.688709 0
M  V30 4210 O 385.954 1.68108 0.553956 0
M  V30 4211 C 383.083 3.34313 0.780367 0
M  V30 4212 C 382.169 4.24093 -0.0240977 0
M  V30 4213 N 382.56 4.9451 -1.06271 0
M  V30 4214 C 380.858 4.45542 0.202049 0
M  V30 4215 C 381.559 5.60675 -1.54979 0
M  V30 4216 N 380.535 5.36684 -0.864348 0
M  V30 4217 H 384.337 2.79649 -0.904071 0
M  V30 4218 H 381.851 1.51133 -0.594346 0
M  V30 4219 H 383.848 3.97368 1.26114 0
M  V30 4220 H 382.508 2.83962 1.57467 0
M  V30 4221 H 383.519 4.97345 -1.44459 0
M  V30 4222 H 380.196 4.06091 0.96935 0
M  V30 4223 H 381.586 6.26992 -2.41517 0
M  V30 4224 N 384.306 0.507319 1.49211 0
M  V30 4225 C 385.269 -0.256763 2.27757 0
M  V30 4226 C 386.269 -0.888287 1.34038 0
M  V30 4227 O 387.459 -0.751841 1.5714 0
M  V30 4228 C 384.591 -1.36905 3.12202 0
M  V30 4229 H 385.784 0.432557 2.96764 0
M  V30 4230 H 383.337 0.262488 1.5408 0
M  V30 4231 H 384.072 -2.09233 2.47775 0
M  V30 4232 H 383.857 -0.921599 3.81115 0
M  V30 4233 H 385.347 -1.9071 3.7151 0
M  V30 4234 N 385.784 -1.5574 0.241426 0
M  V30 4235 C 387.009 -2.0366 -0.392111 0
M  V30 4236 C 387.434 -1.11969 -1.51144 0
M  V30 4237 O 386.792 -0.111594 -1.80956 0
M  V30 4238 C 386.84 -3.49638 -0.882371 0
M  V30 4239 O 385.944 -3.6108 -1.99235 0
M  V30 4240 H 385.285 -0.658379 -0.0862122 0
M  V30 4241 H 387.815 -2.01302 0.365881 0
M  V30 4242 H 387.825 -3.90351 -1.18702 0
M  V30 4243 H 386.5 -4.15852 -0.0632361 0
M  V30 4244 H 385.077 -3.32262 -1.69282 0
M  V30 4245 N 387.262 0.0317525 -1.57568 0
M  V30 4246 C 388.511 0.722131 -1.8833 0
M  V30 4247 C 388.824 1.76664 -0.839587 0
M  V30 4248 O 390.03 2.50942 -1.03635 0
M  V30 4249 C 388.486 1.33544 -3.34207 0
M  V30 4250 C 388.094 0.327415 -4.46802 0
M  V30 4251 C 389.838 2.00585 -3.7412 0
M  V30 4252 C 387.745 0.948915 -5.83738 0
M  V30 4253 H 386.675 0.273466 -0.702661 0
M  V30 4254 H 389.326 -0.0235811 -1.83485 0
M  V30 4255 H 387.708 2.13077 -3.33788 0
M  V30 4256 H 388.882 -0.441006 -4.58685 0
M  V30 4257 H 387.197 -0.240758 -4.15703 0
M  V30 4258 H 389.794 2.47932 -4.73744 0
M  V30 4259 H 390.137 2.82285 -3.05975 0
M  V30 4260 H 390.67 1.27831 -3.76702 0
M  V30 4261 H 387.409 0.171387 -6.55276 0
M  V30 4262 H 386.929 1.68724 -5.7558 0
M  V30 4263 H 388.608 1.45705 -6.3038 0
M  V30 4264 N 388.74 1.54641 0.303973 0
M  V30 4265 C 390.156 1.45788 0.649463 0
M  V30 4266 C 390.356 0.64666 1.90842 0
M  V30 4267 O 389.412 0.153183 2.52035 0
M  V30 4268 C 390.725 2.89718 0.805227 0
M  V30 4269 C 392.273 2.99742 0.901305 0
M  V30 4270 C 392.748 4.44863 1.08909 0
M  V30 4271 N 394.239 4.48559 1.15536 0
M  V30 4272 C 394.974 5.58026 1.3189 0
M  V30 4273 N 394.47 6.77422 1.45161 0
M  V30 4274 N 396.263 5.45708 1.34755 0
M  V30 4275 H 388.414 2.05854 -0.523237 0
M  V30 4276 H 390.677 0.932186 -0.172431 0
M  V30 4277 H 390.383 3.51666 -0.0489108 0
M  V30 4278 H 390.257 3.36964 1.69513 0
M  V30 4279 H 392.644 2.3791 1.74593 0
M  V30 4280 H 392.725 2.55797 -0.0125531 0
M  V30 4281 H 392.369 5.07288 0.249241 0
M  V30 4282 H 392.299 4.86436 2.01713 0
M  V30 4283 H 394.79 3.6254 1.06646 0
M  V30 4284 H 395.103 7.56604 1.57387 0
M  V30 4285 H 393.448 6.80292 1.42223 0
M  V30 4286 H 396.639 4.51378 1.23996 0
M  V30 4287 H 396.812 6.3107 1.47157 0
M  V30 4288 N 390.218 -0.567019 1.47046 0
M  V30 4289 C 391.467 -1.32091 1.5243 0
M  V30 4290 C 391.78 -1.94704 0.187021 0
M  V30 4291 O 392.986 -2.7124 0.118771 0
M  V30 4292 C 391.442 -2.39479 2.68659 0
M  V30 4293 C 391.05 -1.831 4.08874 0
M  V30 4294 C 392.794 -3.16111 2.83327 0
M  V30 4295 C 390.701 -2.8821 5.16419 0
M  V30 4296 H 389.631 -0.496629 0.56734 0
M  V30 4297 H 392.282 -0.603354 1.73297 0
M  V30 4298 H 390.664 -3.14105 2.41152 0
M  V30 4299 H 391.838 -1.14913 4.46242 0
M  V30 4300 H 390.153 -1.19085 3.99008 0
M  V30 4301 H 392.75 -3.94585 3.60842 0
M  V30 4302 H 393.093 -3.69686 1.91411 0
M  V30 4303 H 393.626 -2.48595 3.10556 0
M  V30 4304 H 390.365 -2.39504 6.10179 0
M  V30 4305 H 389.885 -3.54839 4.8358 0
M  V30 4306 H 391.564 -3.51881 5.42945 0
M  V30 4307 N 391.696 -1.35014 -0.812953 0
M  V30 4308 C 393.107 -1.25035 -1.38648 0
M  V30 4309 C 393.458 0.119967 -1.95833 0
M  V30 4310 O 392.583 1.02069 -1.90816 0
M  V30 4311 C 393.178 -2.26394 -2.52054 0
M  V30 4312 C 391.737 -2.20175 -3.05287 0
M  V30 4313 C 390.884 -2.12451 -1.78213 0
M  V30 4314 H 393.835 -1.46235 -0.616516 0
M  V30 4315 H 393.856 -1.88672 -3.30429 0
M  V30 4316 H 393.368 -3.26116 -2.10404 0
M  V30 4317 H 391.469 -1.23841 -3.51417 0
M  V30 4318 H 391.582 -3.11863 -3.63701 0
M  V30 4319 H 389.946 -1.58328 -1.9951 0
M  V30 4320 H 390.729 -3.14024 -1.38723 0
M  V30 4321 N 393.175 1.03435 -1.18907 0
M  V30 4322 C 394.586 1.58195 -0.991523 0
M  V30 4323 C 394.937 1.90801 0.457081 0
M  V30 4324 O 394.062 1.70272 1.33553 0
M  V30 4325 C 394.657 2.87432 -1.79355 0
M  V30 4326 C 393.216 3.38785 -1.64017 0
M  V30 4327 C 392.363 2.12292 -1.78402 0
M  V30 4328 H 395.314 0.860299 -1.33359 0
M  V30 4329 H 395.335 3.58096 -1.28638 0
M  V30 4330 H 394.847 2.63669 -2.84781 0
M  V30 4331 H 392.948 3.67547 -0.611536 0
M  V30 4332 H 393.061 4.12186 -2.44212 0
M  V30 4333 H 391.425 2.23901 -1.2141 0
M  V30 4334 H 392.208 1.90977 -2.85277 0
M  V30 4335 N 394.653 0.992116 1.22453 0
M  V30 4336 C 395.9 0.667534 1.91181 0
M  V30 4337 C 396.228 -0.800317 1.77271 0
M  V30 4338 O 395.483 -1.59421 1.13505 0
M  V30 4339 C 395.782 1.01832 3.42586 0
M  V30 4340 C 395.448 2.47831 3.76684 0
M  V30 4341 C 394.11 2.87729 3.85701 0
M  V30 4342 C 396.462 3.42466 3.92895 0
M  V30 4343 C 393.79 4.21252 4.08367 0
M  V30 4344 C 396.142 4.75648 4.17064 0
M  V30 4345 C 394.806 5.15288 4.24305 0
M  V30 4346 H 394.076 0.244268 0.699581 0
M  V30 4347 H 396.723 1.24816 1.45235 0
M  V30 4348 H 395.028 0.355769 3.90181 0
M  V30 4349 H 396.725 0.745228 3.94014 0
M  V30 4350 H 393.315 2.15905 3.70247 0
M  V30 4351 H 397.499 3.12814 3.85307 0
M  V30 4352 H 392.755 4.51554 4.122 0
M  V30 4353 H 396.929 5.48924 4.2855 0
M  V30 4354 H 394.556 6.18769 4.41621 0
M  V30 4355 N 396.131 -1.37776 0.765217 0
M  V30 4356 C 397.408 -1.93975 0.251596 0
M  V30 4357 C 397.788 -1.69949 -1.25222 0
M  V30 4358 O 397.136 -1.04457 -2.03226 0
M  V30 4359 C 397.346 -3.43487 0.617895 0
M  V30 4360 C 398.694 -4.20564 0.584029 0
M  V30 4361 O 399.718 -3.5182 0.556888 0
M  V30 4362 O 398.577 -5.43138 0.605291 0
M  V30 4363 H 395.671 -0.82509 0.0561806 0
M  V30 4364 H 398.217 -1.47101 0.846128 0
M  V30 4365 H 396.989 -3.5453 1.65602 0
M  V30 4366 H 396.612 -3.976 -0.00403411 0
M  V30 4367 N 397.609 -0.515225 -1.4894 0
M  V30 4368 C 398.557 0.269115 -2.31038 0
M  V30 4369 C 399.551 0.949443 -1.40292 0
M  V30 4370 O 400.757 0.87551 -1.57273 0
M  V30 4371 H 397.132 0.10565 -0.744542 0
M  V30 4372 H 399.103 -0.443096 -2.95092 0
M  V30 4373 C 397.852 1.31213 -3.21991 0
M  V30 4374 H 397.175 0.798034 -3.91754 0
M  V30 4375 H 398.615 1.83263 -3.82349 0
M  V30 4376 C 397.074 2.33791 -2.42576 0
M  V30 4377 O 397.604 3.3995 -2.14003 0
M  V30 4378 N 395.81 2.06625 -2.0434 0
M  V30 4379 H 395.357 1.20314 -2.27777 0
M  V30 4380 H 395.315 2.75483 -1.51514 0
M  V30 4381 N 399.087 1.5561 -0.249682 0
M  V30 4382 C 400.364 1.90932 0.424761 0
M  V30 4383 C 400.744 1.17078 1.75658 0
M  V30 4384 O 400.092 0.289176 2.26663 0
M  V30 4385 C 400.302 3.43975 0.590109 0
M  V30 4386 C 401.65 4.15281 0.884714 0
M  V30 4387 O 402.674 3.49729 0.67587 0
M  V30 4388 O 401.533 5.31236 1.28259 0
M  V30 4389 H 398.627 0.794815 0.228468 0
M  V30 4390 H 401.173 1.67135 -0.293954 0
M  V30 4391 H 399.945 3.89748 -0.34818 0
M  V30 4392 H 399.568 3.73644 1.35926 0
M  V30 4393 N 400.565 -0.0233959 1.57583 0
M  V30 4394 C 401.495 -1.02162 2.09965 0
M  V30 4395 C 402.476 -1.3735 1.00344 0
M  V30 4396 O 403.661 -1.46135 1.27899 0
M  V30 4397 C 400.791 -2.32081 2.58371 0
M  V30 4398 C 399.745 -2.1112 3.72307 0
M  V30 4399 C 399.071 -3.46848 4.06941 0
M  V30 4400 C 400.371 -1.49276 5.00514 0
M  V30 4401 H 402.065 -0.585557 2.93618 0
M  V30 4402 H 399.611 -0.280218 1.41247 0
M  V30 4403 H 401.564 -3.02249 2.93639 0
M  V30 4404 H 400.288 -2.77758 1.71808 0
M  V30 4405 H 398.947 -1.43384 3.37397 0
M  V30 4406 H 398.595 -3.90184 3.17436 0
M  V30 4407 H 398.295 -3.33646 4.83688 0
M  V30 4408 H 399.819 -4.18369 4.44747 0
M  V30 4409 H 401.233 -2.09368 5.33702 0
M  V30 4410 H 399.63 -1.46632 5.8191 0
M  V30 4411 H 400.7 -0.459217 4.82721 0
M  V30 4412 N 402.043 -1.548 -0.295768 0
M  V30 4413 C 403.32 -1.65014 -1.05023 0
M  V30 4414 C 403.7 -0.501805 -2.05049 0
M  V30 4415 O 403.048 0.500869 -2.22943 0
M  V30 4416 C 403.258 -3.03252 -1.72741 0
M  V30 4417 C 404.606 -3.60242 -2.24746 0
M  V30 4418 O 405.63 -3.05737 -1.82765 0
M  V30 4419 O 404.489 -4.55687 -3.01681 0
M  V30 4420 H 401.583 -0.669314 -0.485744 0
M  V30 4421 H 404.129 -1.67144 -0.293438 0
M  V30 4422 H 402.901 -3.7827 -1.00138 0
M  V30 4423 H 402.524 -3.04922 -2.55163 0
M  V30 4424 N 403.521 0.559213 -1.47345 0
M  V30 4425 C 404.471 1.66192 -1.5609 0
M  V30 4426 C 405.455 1.55323 -0.419957 0
M  V30 4427 O 406.647 1.63839 -0.669762 0
M  V30 4428 C 403.776 3.0497 -1.57634 0
M  V30 4429 C 402.862 3.2105 -2.77106 0
M  V30 4430 N 403.253 3.07203 -4.01821 0
M  V30 4431 C 401.551 3.52046 -2.73825 0
M  V30 4432 C 402.252 3.25919 -4.81821 0
M  V30 4433 N 401.228 3.52161 -4.14106 0
M  V30 4434 H 405.03 1.54052 -2.5029 0
M  V30 4435 H 402.544 0.763914 -1.43311 0
M  V30 4436 H 404.541 3.84142 -1.61989 0
M  V30 4437 H 403.201 3.18224 -0.645281 0
M  V30 4438 H 404.212 2.84572 -4.32711 0
M  V30 4439 H 400.889 3.71839 -1.89848 0
M  V30 4440 H 402.279 3.20198 -5.90697 0
M  V30 4441 N 404.999 1.35443 0.805782 0
M  V30 4442 C 406.41 1.25768 1.37983 0
M  V30 4443 C 406.761 -0.10958 1.95894 0
M  V30 4444 O 405.886 -1.01056 1.91355 0
M  V30 4445 C 406.481 2.27727 2.5085 0
M  V30 4446 C 405.04 2.2179 3.04115 0
M  V30 4447 C 404.187 2.13393 1.77084 0
M  V30 4448 H 407.138 1.4656 0.608752 0
M  V30 4449 H 407.159 1.90422 3.29424 0
M  V30 4450 H 406.671 3.27227 2.08671 0
M  V30 4451 H 404.772 1.25703 3.50756 0
M  V30 4452 H 404.885 3.13788 3.62042 0
M  V30 4453 H 403.249 1.59384 1.98668 0
M  V30 4454 H 404.032 3.14755 1.37056 0
M  V30 4455 N 406.477 -1.02803 1.19454 0
M  V30 4456 C 407.725 -1.75869 0.995722 0
M  V30 4457 C 408.046 -1.89138 -0.474543 0
M  V30 4458 O 407.316 -1.42558 -1.34366 0
M  V30 4459 H 405.896 -0.651511 0.365435 0
M  V30 4460 H 408.558 -1.24004 1.50363 0
M  V30 4461 H 407.654 -2.76661 1.44447 0
M  V30 4462 N 407.956 -0.998596 -1.21925 0
M  V30 4463 C 408.866 -0.562736 -2.27751 0
M  V30 4464 C 409.882 0.391203 -1.69545 0
M  V30 4465 O 411.058 0.256625 -1.99758 0
M  V30 4466 C 408.123 0.11012 -3.46525 0
M  V30 4467 C 407.184 -0.887495 -4.20026 0
M  V30 4468 C 406.417 -0.246654 -5.3313 0
M  V30 4469 O 406.64 0.958088 -5.62296 0
M  V30 4470 O 405.574 -0.954374 -5.94286 0
M  V30 4471 H 409.4 -1.44329 -2.67213 0
M  V30 4472 H 406.985 -0.767135 -1.28201 0
M  V30 4473 H 408.867 0.486756 -4.18579 0
M  V30 4474 H 407.542 0.965154 -3.08976 0
M  V30 4475 H 406.449 -1.31517 -3.5022 0
M  V30 4476 H 407.782 -1.71191 -4.6147 0
M  V30 4477 N 409.434 1.37368 -0.772513 0
M  V30 4478 C 410.85 1.53059 -0.452231 0
M  V30 4479 C 411.05 1.73065 1.03203 0
M  V30 4480 O 410.106 1.75245 1.81784 0
M  V30 4481 C 411.419 2.72659 -1.26797 0
M  V30 4482 C 412.967 2.86521 -1.25995 0
M  V30 4483 C 413.442 4.09105 -2.05905 0
M  V30 4484 N 414.933 4.16219 -2.03263 0
M  V30 4485 C 415.668 5.10107 -2.61875 0
M  V30 4486 N 415.164 6.09547 -3.29278 0
M  V30 4487 N 416.957 5.02596 -2.51701 0
M  V30 4488 H 409.108 1.22634 -1.7342 0
M  V30 4489 H 411.371 0.597206 -0.736239 0
M  V30 4490 H 411.077 2.64343 -2.31982 0
M  V30 4491 H 410.951 3.66363 -0.897672 0
M  V30 4492 H 413.338 2.94308 -0.216081 0
M  V30 4493 H 413.419 1.93774 -1.66989 0
M  V30 4494 H 413.063 4.0208 -3.10313 0
M  V30 4495 H 412.993 5.00968 -1.62292 0
M  V30 4496 H 415.484 3.45012 -1.54192 0
M  V30 4497 H 415.797 6.77718 -3.71374 0
M  V30 4498 H 414.142 6.09824 -3.33377 0
M  V30 4499 H 417.333 4.23855 -1.98657 0
M  V30 4500 H 417.506 5.75582 -2.97673 0
M  V30 4501 N 410.912 0.523116 1.48665 0
M  V30 4502 C 411.844 -0.280421 2.27478 0
M  V30 4503 C 412.857 -0.910694 1.34945 0
M  V30 4504 O 414.046 -0.790295 1.60052 0
M  V30 4505 C 411.146 -1.41171 3.08097 0
M  V30 4506 C 410.319 -0.884642 4.28361 0
M  V30 4507 C 409.378 -1.89622 4.90846 0
M  V30 4508 O 408.404 -1.4559 5.50265 0
M  V30 4509 N 409.606 -3.22801 4.82472 0
M  V30 4510 H 412.371 0.395481 2.97079 0
M  V30 4511 H 409.932 0.357018 1.57915 0
M  V30 4512 H 411.924 -2.08645 3.4677 0
M  V30 4513 H 410.494 -1.99139 2.40961 0
M  V30 4514 H 409.714 -0.0341177 3.94185 0
M  V30 4515 H 411.002 -0.511268 5.06225 0
M  V30 4516 H 410.4 -3.61246 4.35336 0
M  V30 4517 H 408.957 -3.85927 5.25265 0
M  V30 4518 N 412.39 -1.55475 0.257931 0
M  V30 4519 C 413.322 -2.19192 -0.669881 0
M  V30 4520 C 414.335 -1.17148 -1.1305 0
M  V30 4521 O 415.524 -1.43959 -1.05537 0
M  V30 4522 C 412.624 -2.79016 -1.92363 0
M  V30 4523 C 411.797 -4.06586 -1.61265 0
M  V30 4524 C 410.856 -4.50622 -2.7171 0
M  V30 4525 O 409.882 -5.16765 -2.38627 0
M  V30 4526 N 411.084 -4.19325 -4.01431 0
M  V30 4527 H 413.849 -2.99441 -0.124635 0
M  V30 4528 H 411.41 -1.6171 0.0783311 0
M  V30 4529 H 413.402 -3.05427 -2.65511 0
M  V30 4530 H 411.972 -2.0286 -2.37837 0
M  V30 4531 H 411.192 -3.87646 -0.715811 0
M  V30 4532 H 412.48 -4.89737 -1.37967 0
M  V30 4533 H 411.878 -3.66247 -4.31138 0
M  V30 4534 H 410.435 -4.50547 -4.7101 0
M  V30 4535 N 413.868 0.0150385 -1.57593 0
M  V30 4536 C 415.117 0.702115 -1.89085 0
M  V30 4537 C 415.43 1.75764 -0.858277 0
M  V30 4538 O 416.636 2.49829 -1.0629 0
M  V30 4539 C 415.092 1.29992 -3.35604 0
M  V30 4540 C 414.7 0.280007 -4.47124 0
M  V30 4541 C 416.444 1.96606 -3.76227 0
M  V30 4542 C 414.351 0.886949 -5.84711 0
M  V30 4543 H 413.281 0.265997 -0.705522 0
M  V30 4544 H 415.932 -0.0430408 -1.8345 0
M  V30 4545 H 414.314 2.09525 -3.36029 0
M  V30 4546 H 415.488 -0.489631 -4.58191 0
M  V30 4547 H 413.803 -0.284835 -4.15425 0
M  V30 4548 H 416.4 2.42893 -4.76347 0
M  V30 4549 H 416.743 2.79024 -3.08952 0
M  V30 4550 H 417.276 1.23828 -3.78036 0
M  V30 4551 H 414.015 0.101876 -6.55421 0
M  V30 4552 H 413.535 1.6261 -5.77337 0
M  V30 4553 H 415.214 1.39011 -6.3189 0
M  V30 4554 N 415.346 1.54954 0.287554 0
M  V30 4555 C 416.571 1.79209 1.04397 0
M  V30 4556 C 416.996 0.556431 1.79682 0
M  V30 4557 O 416.354 -0.493518 1.74454 0
M  V30 4558 C 416.402 3.00739 1.98969 0
M  V30 4559 O 415.506 2.74805 3.075 0
M  V30 4560 H 414.847 0.592755 0.299227 0
M  V30 4561 H 417.377 2.02068 0.320886 0
M  V30 4562 H 417.387 3.29077 2.4119 0
M  V30 4563 H 416.062 3.90329 1.43582 0
M  V30 4564 H 414.639 2.57523 2.69697 0
M  V30 4565 N 416.824 -0.551391 1.4764 0
M  V30 4566 C 418.049 -1.33837 1.58437 0
M  V30 4567 C 418.474 -1.866 0.237063 0
M  V30 4568 O 417.832 -1.6328 -0.787994 0
M  V30 4569 C 417.88 -2.48014 2.61766 0
M  V30 4570 O 416.984 -3.50419 2.1744 0
M  V30 4571 H 416.325 -0.397299 0.532024 0
M  V30 4572 H 418.855 -0.665759 1.93465 0
M  V30 4573 H 418.865 -2.94503 2.82369 0
M  V30 4574 H 417.54 -2.08969 3.5959 0
M  V30 4575 H 416.117 -3.10196 2.06961 0
M  V30 4576 N 418.302 -1.35869 -0.798587 0
M  V30 4577 C 419.53 -1.32722 -1.58722 0
M  V30 4578 C 419.945 0.0935631 -1.88568 0
M  V30 4579 O 419.302 1.04784 -1.49421 0
M  V30 4580 C 419.353 -2.13974 -2.91371 0
M  V30 4581 O 419.074 -3.50514 -2.62815 0
M  V30 4582 C 420.575 -2.18504 -3.85708 0
M  V30 4583 H 417.795 -0.45562 -0.492596 0
M  V30 4584 H 420.339 -1.78837 -0.991843 0
M  V30 4585 H 418.494 -1.71438 -3.47402 0
M  V30 4586 H 418.908 -3.92806 -3.47568 0
M  V30 4587 H 420.382 -2.79732 -4.75872 0
M  V30 4588 H 420.859 -1.18597 -4.22885 0
M  V30 4589 H 421.465 -2.61236 -3.35612 0
M  V30 4590 N 419.78 1.02168 -1.19998 0
M  V30 4591 C 421.196 1.27969 -0.953737 0
M  V30 4592 C 421.396 1.98079 0.369703 0
M  V30 4593 O 420.452 2.27306 1.09947 0
M  V30 4594 C 421.765 2.11971 -2.13281 0
M  V30 4595 C 423.313 2.25255 -2.17323 0
M  V30 4596 C 423.788 3.12632 -3.34702 0
M  V30 4597 N 425.279 3.2022 -3.34684 0
M  V30 4598 C 426.014 3.88039 -4.22153 0
M  V30 4599 N 425.51 4.58027 -5.19791 0
M  V30 4600 N 427.303 3.84511 -4.10009 0
M  V30 4601 H 419.454 0.550794 -2.05134 0
M  V30 4602 H 421.717 0.305683 -0.897364 0
M  V30 4603 H 421.423 1.67785 -3.09097 0
M  V30 4604 H 421.297 3.12699 -2.10949 0
M  V30 4605 H 423.684 2.68667 -1.22073 0
M  V30 4606 H 423.765 1.24053 -2.23706 0
M  V30 4607 H 423.409 2.69926 -4.30235 0
M  V30 4608 H 423.339 4.13909 -3.25556 0
M  V30 4609 H 425.83 2.70382 -2.64012 0
M  V30 4610 H 426.143 5.07429 -5.82868 0
M  V30 4611 H 424.488 4.56869 -5.23733 0
M  V30 4612 H 427.679 3.28978 -3.33003 0
M  V30 4613 H 427.852 4.3709 -4.78389 0
M  V30 4614 N 421.258 1.00505 1.21394 0
M  V30 4615 C 422.168 0.574806 2.27449 0
M  V30 4616 C 423.184 -0.382206 1.6975 0
M  V30 4617 O 424.36 -0.246027 1.99892 0
M  V30 4618 C 421.425 -0.0917414 3.46579 0
M  V30 4619 C 420.486 0.909758 4.1955 0
M  V30 4620 C 419.719 0.274924 5.32991 0
M  V30 4621 O 419.942 -0.928254 5.62796 0
M  V30 4622 O 418.876 0.985877 5.93771 0
M  V30 4623 H 422.702 1.45744 2.66444 0
M  V30 4624 H 420.287 0.773923 1.27792 0
M  V30 4625 H 422.169 -0.464551 4.18832 0
M  V30 4626 H 420.844 -0.948755 3.09484 0
M  V30 4627 H 419.751 1.33372 3.49518 0
M  V30 4628 H 421.084 1.73636 4.60555 0
M  V30 4629 N 422.737 -1.36956 0.779787 0
M  V30 4630 C 424.153 -1.52817 0.460342 0
M  V30 4631 C 424.353 -1.7361 -1.02283 0
M  V30 4632 O 423.409 -1.76207 -1.80852 0
M  V30 4633 C 424.722 -2.71983 1.28241 0
M  V30 4634 C 426.27 -2.85849 1.27512 0
M  V30 4635 C 426.745 -4.08008 2.08072 0
M  V30 4636 N 428.236 -4.15135 2.05467 0
M  V30 4637 C 428.971 -5.08711 2.64577 0
M  V30 4638 N 428.467 -6.07792 3.32506 0
M  V30 4639 N 430.26 -5.01254 2.54363 0
M  V30 4640 H 422.411 -1.21713 1.74068 0
M  V30 4641 H 424.674 -0.593294 0.739396 0
M  V30 4642 H 424.38 -2.63109 2.33381 0
M  V30 4643 H 424.254 -3.65882 0.917088 0
M  V30 4644 H 426.641 -2.94189 0.231686 0
M  V30 4645 H 426.722 -1.92886 1.68014 0
M  V30 4646 H 426.366 -4.00429 3.12441 0
M  V30 4647 H 426.296 -5.001 1.64947 0
M  V30 4648 H 428.787 -3.44189 1.5602 0
M  V30 4649 H 429.1 -6.75739 3.74963 0
M  V30 4650 H 427.445 -6.08047 3.36606 0
M  V30 4651 H 430.636 -4.22795 2.00902 0
M  V30 4652 H 430.809 -5.73995 3.00722 0
M  V30 4653 N 424.215 -0.530993 -1.48385 0
M  V30 4654 C 425.162 0.231223 -2.29639 0
M  V30 4655 C 426.132 0.932864 -1.37429 0
M  V30 4656 O 427.317 0.933692 -1.66394 0
M  V30 4657 C 424.457 1.27155 -3.2082 0
M  V30 4658 C 423.57 0.578655 -4.28107 0
M  V30 4659 C 422.705 1.602 -5.06467 0
M  V30 4660 C 421.744 0.892625 -6.05556 0
M  V30 4661 N 420.881 1.86157 -6.76971 0
M  V30 4662 H 425.721 -0.467848 -2.94305 0
M  V30 4663 H 423.258 -0.242556 -1.45086 0
M  V30 4664 H 425.216 1.88703 -3.72085 0
M  V30 4665 H 423.846 1.939 -2.58075 0
M  V30 4666 H 422.898 -0.150782 -3.80101 0
M  V30 4667 H 424.21 0.0217065 -4.98795 0
M  V30 4668 H 423.364 2.29173 -5.61751 0
M  V30 4669 H 422.103 2.19285 -4.35621 0
M  V30 4670 H 421.108 0.188829 -5.49476 0
M  V30 4671 H 422.333 0.307878 -6.78402 0
M  V30 4672 H 420.279 2.44147 -6.08875 0
M  V30 4673 H 420.196 1.35608 -7.43738 0
M  V30 4674 H 421.464 2.54325 -7.36844 0
M  V30 4675 N 425.693 1.55336 -0.266172 0
M  V30 4676 C 426.656 2.20878 0.612001 0
M  V30 4677 C 427.656 1.18388 1.08816 0
M  V30 4678 O 428.846 1.4335 0.989774 0
M  V30 4679 C 425.978 2.86765 1.84332 0
M  V30 4680 H 427.171 2.99873 0.0398718 0
M  V30 4681 H 424.724 1.56291 -0.0167309 0
M  V30 4682 H 425.459 2.11759 2.45619 0
M  V30 4683 H 425.244 3.61862 1.5099 0
M  V30 4684 H 426.734 3.36867 2.46801 0
M  V30 4685 N 427.171 -0.0066808 1.57599 0
M  V30 4686 C 428.134 -0.985035 2.06953 0
M  V30 4687 C 429.134 -1.27663 0.977687 0
M  V30 4688 O 430.324 -1.22293 1.24057 0
M  V30 4689 C 427.456 -2.3118 2.50536 0
M  V30 4690 H 428.649 -0.558255 2.94658 0
M  V30 4691 H 426.202 -0.254011 1.54222 0
M  V30 4692 H 426.937 -2.78561 1.66054 0
M  V30 4693 H 426.722 -2.11338 3.3027 0
M  V30 4694 H 428.212 -3.01377 2.8907 0
M  V30 4695 N 428.649 -1.55105 -0.279332 0
M  V30 4696 C 430.065 -1.46803 -0.626187 0
M  V30 4697 C 430.265 -0.676939 -1.89789 0
M  V30 4698 O 429.321 -0.19326 -2.51759 0
M  V30 4699 C 430.634 -2.90962 -0.759034 0
M  V30 4700 C 432.182 -3.01138 -0.853504 0
M  V30 4701 C 432.657 -4.46539 -1.01818 0
M  V30 4702 N 434.148 -4.50341 -1.08386 0
M  V30 4703 C 434.883 -5.60053 -1.22996 0
M  V30 4704 N 434.379 -6.79645 -1.34366 0
M  V30 4705 N 436.172 -5.47783 -1.26056 0
M  V30 4706 H 428.323 -2.04996 0.555921 0
M  V30 4707 H 430.586 -0.929325 0.187239 0
M  V30 4708 H 430.292 -3.51544 0.104852 0
M  V30 4709 H 430.166 -3.39619 -1.64131 0
M  V30 4710 H 432.553 -2.40658 -1.70786 0
M  V30 4711 H 432.634 -2.55745 0.0532466 0
M  V30 4712 H 432.278 -5.0762 -0.168504 0
M  V30 4713 H 432.208 -4.89583 -1.93948 0
M  V30 4714 H 434.699 -3.64191 -1.00864 0
M  V30 4715 H 435.012 -7.59012 -1.4533 0
M  V30 4716 H 433.357 -6.82469 -1.31382 0
M  V30 4717 H 436.548 -4.53294 -1.168 0
M  V30 4718 H 436.721 -6.33331 -1.37098 0
M  V30 4719 N 430.127 0.543554 -1.4793 0
M  V30 4720 C 431.376 1.29649 -1.54512 0
M  V30 4721 C 431.689 1.94382 -0.217973 0
M  V30 4722 O 432.895 2.71017 -0.161908 0
M  V30 4723 C 431.351 2.35175 -2.72435 0
M  V30 4724 C 430.959 1.76572 -4.11736 0
M  V30 4725 C 432.703 3.11564 -2.8832 0
M  V30 4726 C 430.61 2.79958 -5.20939 0
M  V30 4727 H 429.54 0.487541 -0.57517 0
M  V30 4728 H 432.191 0.575708 -1.74235 0
M  V30 4729 H 430.573 3.10229 -2.46118 0
M  V30 4730 H 431.747 1.07799 -4.48013 0
M  V30 4731 H 430.062 1.12722 -4.00852 0
M  V30 4732 H 432.659 3.88794 -3.67074 0
M  V30 4733 H 433.002 3.66594 -1.97268 0
M  V30 4734 H 433.535 2.43623 -3.14472 0
M  V30 4735 H 430.274 2.29766 -6.13912 0
M  V30 4736 H 429.794 3.47101 -4.89164 0
M  V30 4737 H 431.473 3.43198 -5.48474 0
M  V30 4738 N 431.605 1.3629 0.791371 0
M  V30 4739 C 432.535 1.33137 1.91825 0
M  V30 4740 C 433.516 0.203168 1.68882 0
M  V30 4741 O 434.701 0.400509 1.90025 0
M  V30 4742 C 431.831 1.11793 3.28816 0
M  V30 4743 C 430.785 2.21417 3.66277 0
M  V30 4744 C 430.111 1.85218 5.01596 0
M  V30 4745 C 431.411 3.63489 3.75064 0
M  V30 4746 H 433.105 2.2743 1.9472 0
M  V30 4747 H 430.651 1.09479 0.935437 0
M  V30 4748 H 432.604 1.08222 4.07266 0
M  V30 4749 H 431.328 0.139501 3.26302 0
M  V30 4750 H 429.987 2.2411 2.90121 0
M  V30 4751 H 429.635 0.859544 4.95602 0
M  V30 4752 H 429.335 2.58611 5.27631 0
M  V30 4753 H 430.859 1.832 5.82469 0
M  V30 4754 H 432.273 3.63034 4.43711 0
M  V30 4755 H 430.67 4.35771 4.12582 0
M  V30 4756 H 431.74 3.98536 2.76219 0
M  V30 4757 N 433.083 -1.0153 1.20538 0
M  V30 4758 C 434.331 -1.74803 1.01432 0
M  V30 4759 C 434.652 -1.8963 -0.454456 0
M  V30 4760 O 433.922 -1.43975 -1.32846 0
M  V30 4761 H 432.502 -0.647598 0.372324 0
M  V30 4762 H 435.164 -1.22402 1.5167 0
M  V30 4763 H 434.26 -2.75114 1.47373 0
M  V30 4764 N 434.561 -1.01147 -1.20859 0
M  V30 4765 C 435.491 -0.597663 -2.25722 0
M  V30 4766 C 436.472 0.384744 -1.65692 0
M  V30 4767 O 437.657 0.271303 -1.92296 0
M  V30 4768 C 434.787 0.0700149 -3.47229 0
M  V30 4769 C 433.741 -0.832843 -4.19819 0
M  V30 4770 C 433.067 -0.0312202 -5.34691 0
M  V30 4771 C 434.367 -2.1385 -4.76514 0
M  V30 4772 H 436.061 -1.47423 -2.60589 0
M  V30 4773 H 433.607 -0.710301 -1.25263 0
M  V30 4774 H 435.56 0.37103 -4.19763 0
M  V30 4775 H 434.284 0.981259 -3.11511 0
M  V30 4776 H 432.943 -1.11778 -3.49144 0
M  V30 4777 H 432.591 0.881515 -4.95215 0
M  V30 4778 H 432.291 -0.632434 -5.84187 0
M  V30 4779 H 433.815 0.26346 -6.10031 0
M  V30 4780 H 435.229 -1.9002 -5.40893 0
M  V30 4781 H 433.626 -2.69012 -5.36426 0
M  V30 4782 H 434.696 -2.80495 -3.95538 0
M  V30 4783 N 436.039 1.36541 -0.78704 0
M  V30 4784 C 437.288 1.98552 -0.35494 0
M  V30 4785 C 437.601 1.63171 1.07864 0
M  V30 4786 O 438.807 2.18399 1.61289 0
M  V30 4787 C 437.263 3.55136 -0.583671 0
M  V30 4788 C 436.871 3.99444 -2.02851 0
M  V30 4789 C 438.615 4.2395 -0.215957 0
M  V30 4790 C 436.522 5.48796 -2.20403 0
M  V30 4791 H 435.452 0.742888 -0.128972 0
M  V30 4792 H 438.103 1.5587 -0.968337 0
M  V30 4793 H 436.485 3.95875 0.0994046 0
M  V30 4794 H 437.659 3.6991 -2.74779 0
M  V30 4795 H 435.974 3.43459 -2.35425 0
M  V30 4796 H 438.571 5.33709 -0.325405 0
M  V30 4797 H 438.914 4.07827 0.835646 0
M  V30 4798 H 439.447 3.88565 -0.852175 0
M  V30 4799 H 436.186 5.69864 -3.23937 0
M  V30 4800 H 435.706 5.79964 -1.52977 0
M  V30 4801 H 437.385 6.14986 -2.01002 0
M  V30 4802 N 437.518 0.538854 1.48102 0
M  V30 4803 C 438.448 -0.207654 2.32575 0
M  V30 4804 C 439.429 -0.926559 1.4265 0
M  V30 4805 O 440.614 -0.91061 1.71527 0
M  V30 4806 C 437.744 -1.24957 3.24042 0
M  V30 4807 C 436.698 -0.648263 4.23062 0
M  V30 4808 C 436.024 -1.79348 5.03725 0
M  V30 4809 C 437.324 0.385897 5.20872 0
M  V30 4810 H 439.018 0.497534 2.95237 0
M  V30 4811 H 436.564 0.240715 1.41974 0
M  V30 4812 H 438.517 -1.77983 3.81969 0
M  V30 4813 H 437.241 -1.98446 2.59397 0
M  V30 4814 H 435.9 -0.139452 3.66335 0
M  V30 4815 H 435.548 -2.51696 4.35498 0
M  V30 4816 H 435.248 -1.39702 5.70751 0
M  V30 4817 H 436.772 -2.32735 5.64506 0
M  V30 4818 H 438.186 -0.057607 5.73271 0
M  V30 4819 H 436.583 0.700227 5.96001 0
M  V30 4820 H 437.653 1.28848 4.67468 0
M  V30 4821 N 438.996 -1.55193 0.274407 0
M  V30 4822 C 440.244 -1.99187 -0.341902 0
M  V30 4823 C 440.565 -1.16422 -1.56431 0
M  V30 4824 O 439.835 -0.253573 -1.94252 0
M  V30 4825 H 438.415 -0.735721 -0.129317 0
M  V30 4826 H 441.077 -1.91168 0.379578 0
M  V30 4827 H 440.173 -3.05629 -0.632253 0
M  V30 4828 N 440.474 -0.00167713 -1.576 0
M  V30 4829 C 441.437 0.974046 -2.07473 0
M  V30 4830 C 442.437 1.27143 -0.984444 0
M  V30 4831 O 443.627 1.21633 -1.24703 0
M  V30 4832 C 440.759 2.29849 -2.51759 0
M  V30 4833 H 441.952 0.54262 -2.9495 0
M  V30 4834 H 439.505 0.245829 -1.54355 0
M  V30 4835 H 440.24 2.77677 -1.67529 0
M  V30 4836 H 440.025 2.09584 -3.31386 0
M  V30 4837 H 441.515 2.9984 -2.90664 0
M  V30 4838 N 441.952 1.55251 0.271103 0
M  V30 4839 C 443.199 1.75946 1.00245 0
M  V30 4840 C 443.527 0.561611 1.86215 0
M  V30 4841 O 442.782 -0.455832 1.90317 0
M  V30 4842 C 443.081 3.01879 1.91321 0
M  V30 4843 C 442.747 4.34337 1.21086 0
M  V30 4844 C 441.409 4.70338 1.01666 0
M  V30 4845 C 443.761 5.16325 0.71119 0
M  V30 4846 C 441.089 5.8588 0.310099 0
M  V30 4847 C 443.441 6.32597 0.0182157 0
M  V30 4848 C 442.105 6.67236 -0.18768 0
M  V30 4849 H 441.375 0.643833 0.366824 0
M  V30 4850 H 444.022 1.89521 0.27458 0
M  V30 4851 H 442.327 2.83212 2.70736 0
M  V30 4852 H 444.024 3.15088 2.48033 0
M  V30 4853 H 440.614 4.06043 1.37213 0
M  V30 4854 H 444.798 4.88987 0.848844 0
M  V30 4855 H 440.054 6.1124 0.139873 0
M  V30 4856 H 444.228 6.9538 -0.376711 0
M  V30 4857 H 441.855 7.56618 -0.73715 0
M  V30 4858 N 443.43 -0.535701 1.48216 0
M  V30 4859 C 444.679 -1.28828 1.55197 0
M  V30 4860 C 444.992 -1.94263 0.228278 0
M  V30 4861 O 446.198 -2.70927 0.176278 0
M  V30 4862 C 444.654 -2.33727 2.73678 0
M  V30 4863 C 444.262 -1.74386 4.12666 0
M  V30 4864 C 446.006 -3.1003 2.89968 0
M  V30 4865 C 443.913 -2.77192 5.22416 0
M  V30 4866 H 442.843 -0.484484 0.577747 0
M  V30 4867 H 445.494 -0.56646 1.74538 0
M  V30 4868 H 443.876 -3.08919 2.4776 0
M  V30 4869 H 445.05 -1.05421 4.48579 0
M  V30 4870 H 443.365 -1.10595 4.01445 0
M  V30 4871 H 445.962 -3.86842 3.6913 0
M  V30 4872 H 446.305 -3.65542 1.9921 0
M  V30 4873 H 446.838 -2.41952 3.15759 0
M  V30 4874 H 443.577 -2.26507 6.15122 0
M  V30 4875 H 443.097 -3.44502 4.90998 0
M  V30 4876 H 444.776 -3.40285 5.50286 0
M  V30 4877 N 444.908 -1.36708 -0.784132 0
M  V30 4878 C 445.838 -1.34153 -1.91116 0
M  V30 4879 C 446.819 -0.212121 -1.68772 0
M  V30 4880 O 448.004 -0.410581 -1.8981 0
M  V30 4881 C 445.134 -1.13535 -3.28218 0
M  V30 4882 C 444.088 -2.23356 -3.65097 0
M  V30 4883 C 443.414 -1.87875 -5.00607 0
M  V30 4884 C 444.714 -3.65473 -3.73131 0
M  V30 4885 H 446.408 -2.28459 -1.93512 0
M  V30 4886 H 443.954 -1.09973 -0.929618 0
M  V30 4887 H 445.907 -1.10381 -4.06687 0
M  V30 4888 H 444.631 -0.156804 -3.26223 0
M  V30 4889 H 443.29 -2.25645 -2.88929 0
M  V30 4890 H 442.938 -0.885814 -4.95139 0
M  V30 4891 H 442.638 -2.61406 -5.26252 0
M  V30 4892 H 444.162 -1.86286 -5.81489 0
M  V30 4893 H 445.576 -3.65382 -4.41779 0
M  V30 4894 H 443.973 -4.37953 -4.10265 0
M  V30 4895 H 445.043 -3.99995 -2.74102 0
M  V30 4896 N 446.386 1.0089 -1.21074 0
M  V30 4897 C 447.611 1.78727 -1.05221 0
M  V30 4898 C 448.036 1.83932 0.393795 0
M  V30 4899 O 447.394 1.28004 1.28393 0
M  V30 4900 C 447.442 3.20665 -1.64944 0
M  V30 4901 O 446.546 4.02632 -0.892273 0
M  V30 4902 H 445.887 0.550973 -0.370574 0
M  V30 4903 H 448.417 1.26847 -1.60534 0
M  V30 4904 H 448.427 3.71352 -1.69002 0
M  V30 4905 H 447.102 3.16191 -2.70177 0
M  V30 4906 H 445.679 3.61207 -0.926492 0
M  V30 4907 N 447.864 1.01787 1.20321 0
M  V30 4908 C 449.11 0.718699 1.90279 0
M  V30 4909 C 449.465 -0.743669 1.77447 0
M  V30 4910 O 448.758 -1.53345 1.14874 0
M  V30 4911 C 448.952 1.09076 3.40349 0
M  V30 4912 C 448.781 2.58775 3.67784 0
M  V30 4913 C 447.551 3.25578 3.86428 0
M  V30 4914 C 449.749 3.56966 3.70243 0
M  V30 4915 N 447.731 4.64495 4.01395 0
M  V30 4916 C 449.102 4.8145 3.90649 0
M  V30 4917 C 451.157 3.5092 3.53213 0
M  V30 4918 C 449.86 6.00619 3.95789 0
M  V30 4919 C 451.886 4.69493 3.59625 0
M  V30 4920 C 451.248 5.92786 3.80505 0
M  V30 4921 H 447.347 0.31468 0.715891 0
M  V30 4922 H 449.931 1.30295 1.44677 0
M  V30 4923 H 448.102 0.534839 3.847 0
M  V30 4924 H 449.834 0.744997 3.97784 0
M  V30 4925 H 446.589 2.76003 3.84862 0
M  V30 4926 H 447.013 5.36624 4.12752 0
M  V30 4927 H 451.655 2.56593 3.36035 0
M  V30 4928 H 449.373 6.95326 4.11762 0
M  V30 4929 H 452.959 4.66432 3.47754 0
M  V30 4930 H 451.839 6.83003 3.85327 0
M  V30 4931 N 449.342 -1.36122 0.79427 0
M  V30 4932 C 450.272 -2.32551 0.210328 0
M  V30 4933 C 451.253 -1.56884 -0.657386 0
M  V30 4934 O 452.438 -1.85014 -0.590207 0
M  V30 4935 C 449.568 -3.41128 -0.651819 0
M  V30 4936 C 448.522 -4.27842 0.116395 0
M  V30 4937 C 447.848 -5.2763 -0.86666 0
M  V30 4938 C 449.148 -5.05647 1.30837 0
M  V30 4939 H 450.842 -2.81636 1.01594 0
M  V30 4940 H 448.388 -1.35407 0.489981 0
M  V30 4941 H 450.341 -4.07581 -1.07031 0
M  V30 4942 H 449.065 -2.90622 -1.49019 0
M  V30 4943 H 447.724 -3.62952 0.515915 0
M  V30 4944 H 447.372 -4.73395 -1.70019 0
M  V30 4945 H 447.072 -5.86514 -0.35705 0
M  V30 4946 H 448.596 -5.96955 -1.28361 0
M  V30 4947 H 450.01 -5.65113 0.965393 0
M  V30 4948 H 448.407 -5.73967 1.75161 0
M  V30 4949 H 449.477 -4.37006 2.10128 0
M  V30 4950 N 450.82 -0.546701 -1.47814 0
M  V30 4951 C 452.231 -0.110564 -1.86372 0
M  V30 4952 C 452.582 1.31678 -1.45449 0
M  V30 4953 O 451.707 1.98889 -0.852758 0
M  V30 4954 C 452.302 -0.193873 -3.38245 0
M  V30 4955 C 450.861 0.187164 -3.75934 0
M  V30 4956 C 450.008 -0.546166 -2.71868 0
M  V30 4957 H 452.959 -0.757022 -1.39481 0
M  V30 4958 H 452.98 0.590218 -3.75895 0
M  V30 4959 H 452.492 -1.23282 -3.67999 0
M  V30 4960 H 450.593 1.22762 -3.51796 0
M  V30 4961 H 450.706 -0.164083 -4.78819 0
M  V30 4962 H 449.07 0.00953904 -2.54698 0
M  V30 4963 H 449.853 -1.58606 -3.04465 0
M  V30 4964 N 452.299 1.55045 -0.282633 0
M  V30 4965 C 453.546 1.9976 0.33199 0
M  V30 4966 C 453.874 1.17105 1.55295 0
M  V30 4967 O 453.129 0.230599 1.94337 0
M  V30 4968 C 453.428 3.49422 0.750938 0
M  V30 4969 C 453.094 4.4941 -0.366228 0
M  V30 4970 C 451.756 4.76471 -0.672964 0
M  V30 4971 C 454.108 5.09054 -1.11864 0
M  V30 4972 C 451.436 5.60442 -1.73556 0
M  V30 4973 C 453.788 5.9418 -2.17102 0
M  V30 4974 C 452.452 6.19558 -2.48402 0
M  V30 4975 H 451.722 0.730974 0.121484 0
M  V30 4976 H 454.369 1.8732 -0.39791 0
M  V30 4977 H 452.674 3.59377 1.56063 0
M  V30 4978 H 454.371 3.81432 1.23736 0
M  V30 4979 H 450.961 4.2844 -0.117041 0
M  V30 4980 H 455.145 4.88165 -0.894925 0
M  V30 4981 H 450.401 5.78349 -1.983 0
M  V30 4982 H 454.575 6.39427 -2.75873 0
M  V30 4983 H 452.202 6.84417 -3.30874 0
M  V30 4984 N 453.777 0.010035 1.57597 0
M  V30 4985 C 455.024 -0.6727 1.91 0
M  V30 4986 C 455.352 -1.73219 0.884614 0
M  V30 4987 O 454.607 -1.95395 -0.109215 0
M  V30 4988 C 454.906 -1.34434 3.31153 0
M  V30 4989 C 454.572 -0.417083 4.48967 0
M  V30 4990 C 453.234 -0.161809 4.80928 0
M  V30 4991 C 455.586 0.220753 5.20732 0
M  V30 4992 C 452.914 0.739426 5.82022 0
M  V30 4993 C 455.266 1.10993 6.22787 0
M  V30 4994 C 453.93 1.37428 6.532 0
M  V30 4995 H 453.2 -0.246158 0.698918 0
M  V30 4996 H 455.847 0.0677145 1.9138 0
M  V30 4997 H 454.152 -2.15905 3.26944 0
M  V30 4998 H 455.849 -1.87883 3.54261 0
M  V30 4999 H 452.439 -0.626217 4.24001 0
M  V30 5000 H 456.623 0.0365643 4.96287 0
M  V30 5001 H 451.879 0.952139 6.03941 0
M  V30 5002 H 456.053 1.61046 6.77523 0
M  V30 5003 H 453.68 2.0743 7.31353 0
M  V30 5004 N 455.255 -1.55392 -0.262866 0
M  V30 5005 C 456.504 -1.75679 -0.990943 0
M  V30 5006 C 456.817 -0.57097 -1.87081 0
M  V30 5007 O 458.023 -0.656486 -2.63444 0
M  V30 5008 C 456.479 -3.10964 -1.81188 0
M  V30 5009 C 456.087 -4.37146 -0.980188 0
M  V30 5010 C 457.831 -3.40597 -2.53365 0
M  V30 5011 C 455.738 -5.63466 -1.7961 0
M  V30 5012 H 454.668 -0.654868 -0.373716 0
M  V30 5013 H 457.319 -1.81841 -0.246203 0
M  V30 5014 H 455.701 -2.98867 -2.59797 0
M  V30 5015 H 456.875 -4.60187 -0.237558 0
M  V30 5016 H 455.19 -4.14731 -0.372497 0
M  V30 5017 H 457.787 -4.32186 -3.14833 0
M  V30 5018 H 458.13 -2.6119 -3.24169 0
M  V30 5019 H 458.663 -3.53838 -1.81779 0
M  V30 5020 H 455.402 -6.4565 -1.13209 0
M  V30 5021 H 454.922 -5.44552 -2.51443 0
M  V30 5022 H 456.601 -6.02139 -2.36723 0
M  V30 5023 N 456.733 0.527833 -1.48498 0
M  V30 5024 C 457.68 1.6322 -1.6318 0
M  V30 5025 C 458.65 1.59199 -0.473815 0
M  V30 5026 O 459.835 1.77591 -0.697563 0
M  V30 5027 C 456.975 3.01474 -1.67951 0
M  V30 5028 C 456.088 3.15713 -2.94871 0
M  V30 5029 C 455.223 4.44539 -2.90789 0
M  V30 5030 C 454.262 4.52315 -4.12404 0
M  V30 5031 N 453.399 5.72533 -4.06387 0
M  V30 5032 H 458.239 1.50011 -2.57489 0
M  V30 5033 H 455.776 0.730298 -1.27691 0
M  V30 5034 H 457.734 3.81572 -1.68698 0
M  V30 5035 H 456.364 3.1345 -0.771306 0
M  V30 5036 H 455.416 2.28854 -3.03859 0
M  V30 5037 H 456.728 3.1732 -3.8485 0
M  V30 5038 H 455.882 5.3293 -2.89949 0
M  V30 5039 H 454.621 4.45457 -1.98542 0
M  V30 5040 H 453.626 3.62331 -4.13517 0
M  V30 5041 H 454.851 4.53134 -5.05812 0
M  V30 5042 H 452.797 5.74344 -3.16962 0
M  V30 5043 H 452.714 5.75643 -4.90073 0
M  V30 5044 H 453.982 6.63204 -4.0961 0
M  V30 5045 N 458.211 1.37122 0.776871 0
M  V30 5046 C 459.121 1.34651 1.9211 0
M  V30 5047 C 460.137 0.246824 1.7224 0
M  V30 5048 O 461.313 0.48134 1.95563 0
M  V30 5049 C 458.378 1.14748 3.2716 0
M  V30 5050 C 457.439 2.34308 3.5972 0
M  V30 5051 C 456.672 2.15345 4.88326 0
M  V30 5052 O 456.895 1.13507 5.58992 0
M  V30 5053 O 455.829 3.03414 5.1983 0
M  V30 5054 H 459.655 2.31013 1.97146 0
M  V30 5055 H 457.24 1.17799 0.918901 0
M  V30 5056 H 459.122 1.05616 4.0795 0
M  V30 5057 H 457.797 0.214562 3.22988 0
M  V30 5058 H 456.704 2.49011 2.79185 0
M  V30 5059 H 458.037 3.26149 3.68629 0
M  V30 5060 N 459.689 -1.00246 1.21608 0
M  V30 5061 C 460.619 -2.10921 1.00172 0
M  V30 5062 C 461.6 -1.69938 -0.0741587 0
M  V30 5063 O 462.785 -1.94009 0.0861753 0
M  V30 5064 C 459.915 -3.42618 0.568355 0
M  V30 5065 C 458.869 -3.97407 1.58909 0
M  V30 5066 C 458.195 -5.25038 1.01187 0
M  V30 5067 C 459.495 -4.2918 2.97661 0
M  V30 5068 H 461.189 -2.29112 1.92739 0
M  V30 5069 H 458.735 -1.10101 0.928102 0
M  V30 5070 H 460.688 -4.19444 0.405555 0
M  V30 5071 H 459.412 -3.24227 -0.392961 0
M  V30 5072 H 458.071 -3.22703 1.73949 0
M  V30 5073 H 457.719 -5.02982 0.0421965 0
M  V30 5074 H 457.419 -5.62661 1.6937 0
M  V30 5075 H 458.943 -6.04507 0.860448 0
M  V30 5076 H 460.357 -4.96839 2.86049 0
M  V30 5077 H 458.754 -4.77952 3.6288 0
M  V30 5078 H 459.824 -3.3735 3.48315 0
M  V30 5079 N 461.167 -1.02423 -1.1978 0
M  V30 5080 C 462.416 -0.713265 -1.88667 0
M  V30 5081 C 462.729 0.7609 -1.80193 0
M  V30 5082 O 463.935 1.18473 -2.44288 0
M  V30 5083 C 462.391 -1.22545 -3.38394 0
M  V30 5084 C 461.999 -2.72706 -3.55437 0
M  V30 5085 C 463.743 -0.990257 -4.12788 0
M  V30 5086 C 461.65 -3.17367 -4.99031 0
M  V30 5087 H 460.58 -0.263105 -0.706606 0
M  V30 5088 H 463.231 -1.23792 -1.35454 0
M  V30 5089 H 461.613 -0.628732 -3.90977 0
M  V30 5090 H 462.787 -3.37993 -3.13205 0
M  V30 5091 H 461.102 -2.94453 -2.94425 0
M  V30 5092 H 463.699 -1.29926 -5.18675 0
M  V30 5093 H 464.042 0.0730761 -4.16236 0
M  V30 5094 H 464.575 -1.55074 -3.66329 0
M  V30 5095 H 461.314 -4.23009 -5.00743 0
M  V30 5096 H 460.834 -2.56805 -5.42044 0
M  V30 5097 H 462.513 -3.10441 -5.67658 0
M  V30 5098 N 462.645 1.35699 -0.801477 0
M  V30 5099 C 463.891 1.99208 -0.380022 0
M  V30 5100 C 464.224 1.63445 1.04878 0
M  V30 5101 O 463.499 0.895223 1.72673 0
M  V30 5102 C 463.782 3.55755 -0.557708 0
M  V30 5103 C 463.635 4.01332 -2.03107 0
M  V30 5104 C 464.954 4.40096 0.0197968 0
M  V30 5105 H 462.073 0.723667 -0.139552 0
M  V30 5106 H 464.715 1.60928 -1.01006 0
M  V30 5107 H 462.865 3.88494 -0.0213741 0
M  V30 5108 H 464.537 3.79026 -2.62939 0
M  V30 5109 H 462.78 3.52429 -2.52936 0
M  V30 5110 H 463.451 5.10234 -2.1063 0
M  V30 5111 H 465.927 4.13786 -0.438179 0
M  V30 5112 H 464.803 5.48735 -0.134477 0
M  V30 5113 H 465.064 4.2786 1.11303 0
M  V30 5114 N 464.123 0.554532 1.47522 0
M  V30 5115 C 465.371 0.0294208 2.02079 0
M  V30 5116 C 465.692 -1.32411 1.43151 0
M  V30 5117 O 464.962 -1.863 0.605728 0
M  V30 5118 H 463.542 0.00788672 0.746958 0
M  V30 5119 H 466.204 0.723934 1.80956 0
M  V30 5120 H 465.3 -0.0606745 3.12041 0
M  V30 5121 N 465.601 -1.54893 0.290851 0
M  V30 5122 C 466.531 -2.26103 -0.583084 0
M  V30 5123 C 467.512 -1.25684 -1.14619 0
M  V30 5124 O 468.697 -1.54436 -1.17741 0
M  V30 5125 C 465.827 -2.99409 -1.75987 0
M  V30 5126 C 464.781 -4.0689 -1.32758 0
M  V30 5127 C 464.107 -4.67856 -2.58872 0
M  V30 5128 C 465.407 -5.20215 -0.46624 0
M  V30 5129 H 467.101 -2.99398 0.0108214 0
M  V30 5130 H 464.647 -1.43998 0.00664468 0
M  V30 5131 H 466.6 -3.47943 -2.37727 0
M  V30 5132 H 465.324 -2.23675 -2.37985 0
M  V30 5133 H 463.983 -3.59191 -0.733299 0
M  V30 5134 H 463.631 -3.88772 -3.19163 0
M  V30 5135 H 463.331 -5.40438 -2.30653 0
M  V30 5136 H 464.855 -5.19147 -3.21433 0
M  V30 5137 H 466.269 -5.64704 -0.989047 0
M  V30 5138 H 464.666 -5.99455 -0.27826 0
M  V30 5139 H 465.736 -4.82198 0.511173 0
M  V30 5140 N 467.08 -0.0183926 -1.57589 0
M  V30 5141 C 468.305 0.676634 -1.96052 0
M  V30 5142 C 468.73 1.6548 -0.894307 0
M  V30 5143 O 468.088 1.80712 0.145849 0
M  V30 5144 C 468.136 1.36872 -3.33614 0
M  V30 5145 O 467.24 2.48372 -3.29219 0
M  V30 5146 H 466.581 0.1786 -0.63953 0
M  V30 5147 H 469.111 -0.077056 -2.04455 0
M  V30 5148 H 469.121 1.72797 -3.69601 0
M  V30 5149 H 467.796 0.651636 -4.10763 0
M  V30 5150 H 466.373 2.14639 -3.04934 0
M  V30 5151 N 468.558 1.5553 0.254621 0
M  V30 5152 C 469.807 1.76202 0.981612 0
M  V30 5153 C 470.12 0.580883 1.86776 0
M  V30 5154 O 471.326 0.670448 2.63092 0
M  V30 5155 C 469.782 3.11921 1.79537 0
M  V30 5156 C 469.39 4.37659 0.956991 0
M  V30 5157 C 471.134 3.41936 2.51555 0
M  V30 5158 C 469.041 5.64411 1.76619 0
M  V30 5159 H 467.971 0.656841 0.370237 0
M  V30 5160 H 470.622 1.81969 0.236556 0
M  V30 5161 H 469.004 3.00241 2.58208 0
M  V30 5162 H 470.178 4.60307 0.21315 0
M  V30 5163 H 468.493 4.14922 0.350497 0
M  V30 5164 H 471.09 4.33849 3.12536 0
M  V30 5165 H 471.433 2.62905 3.22779 0
M  V30 5166 H 471.966 3.54797 1.799 0
M  V30 5167 H 468.705 6.46241 1.09783 0
M  V30 5168 H 468.225 5.45877 2.48551 0
M  V30 5169 H 469.904 6.03386 2.33527 0
M  V30 5170 N 470.036 -0.519951 1.48776 0
M  V30 5171 C 471.266 -1.29783 1.60748 0
M  V30 5172 C 471.674 -1.87253 0.27072 0
M  V30 5173 O 471.017 -1.67628 -0.751438 0
M  V30 5174 C 471.079 -2.47984 2.60277 0
M  V30 5175 C 470.743 -2.11526 4.051 0
M  V30 5176 C 471.74 -1.66608 4.92481 0
M  V30 5177 C 469.425 -2.21742 4.50706 0
M  V30 5178 C 471.419 -1.32384 6.23501 0
M  V30 5179 C 469.106 -1.87129 5.81744 0
M  V30 5180 C 470.104 -1.42523 6.67964 0
M  V30 5181 O 469.792 -1.0837 7.96562 0
M  V30 5182 H 469.524 -0.400562 0.544542 0
M  V30 5183 H 472.078 -0.632879 1.95407 0
M  V30 5184 H 470.308 -3.17493 2.2076 0
M  V30 5185 H 471.997 -3.10036 2.61978 0
M  V30 5186 H 472.763 -1.58178 4.58481 0
M  V30 5187 H 468.642 -2.55415 3.83776 0
M  V30 5188 H 472.186 -0.974949 6.90754 0
M  V30 5189 H 468.083 -1.95204 6.15277 0
M  V30 5190 H 468.851 -1.21681 8.09405 0
M  V30 5191 N 471.514 -1.37532 -0.769588 0
M  V30 5192 C 472.742 -1.36059 -1.55871 0
M  V30 5193 C 473.157 0.053544 -1.88724 0
M  V30 5194 O 472.514 1.01591 -1.5161 0
M  V30 5195 C 472.565 -2.20107 -2.86767 0
M  V30 5196 O 472.286 -3.56009 -2.55321 0
M  V30 5197 C 473.787 -2.26636 -3.80987 0
M  V30 5198 H 471.007 -0.465967 -0.482821 0
M  V30 5199 H 473.551 -1.80901 -0.953686 0
M  V30 5200 H 471.706 -1.78768 -3.43687 0
M  V30 5201 H 472.12 -4.0009 -3.39158 0
M  V30 5202 H 473.594 -2.89763 -4.69831 0
M  V30 5203 H 474.071 -1.2754 -4.20274 0
M  V30 5204 H 474.677 -2.68296 -3.29996 0
M  V30 5205 N 472.992 0.995999 -1.22138 0
M  V30 5206 C 474.238 1.73767 -1.04561 0
M  V30 5207 C 474.571 1.89633 0.418698 0
M  V30 5208 O 473.846 1.43723 1.3105 0
M  V30 5209 C 474.129 3.14505 -1.75382 0
M  V30 5210 C 473.982 3.06306 -3.29388 0
M  V30 5211 C 475.301 4.13615 -1.50369 0
M  V30 5212 H 472.42 0.630728 -0.38125 0
M  V30 5213 H 475.062 1.16057 -1.50435 0
M  V30 5214 H 473.212 3.63775 -1.36383 0
M  V30 5215 H 474.884 2.64681 -3.77812 0
M  V30 5216 H 473.127 2.43186 -3.59226 0
M  V30 5217 H 473.798 4.05884 -3.74116 0
M  V30 5218 H 476.274 3.73089 -1.84239 0
M  V30 5219 H 475.15 5.10212 -2.02421 0
M  V30 5220 H 475.411 4.39949 -0.435611 0
M  V30 5221 N 474.47 1.03057 1.19235 0
M  V30 5222 C 475.695 0.74757 1.93458 0
M  V30 5223 C 476.12 -0.687648 1.7508 0
M  V30 5224 O 475.478 -1.47499 1.05422 0
M  V30 5225 C 475.526 1.10604 3.43219 0
M  V30 5226 O 474.63 0.225671 4.11782 0
M  V30 5227 H 473.971 0.276047 0.603899 0
M  V30 5228 H 476.501 1.3777 1.51263 0
M  V30 5229 H 476.511 1.06366 3.93891 0
M  V30 5230 H 475.186 2.15165 3.55917 0
M  V30 5231 H 473.763 0.326795 3.71465 0
M  V30 5232 N 475.948 -1.35272 0.808662 0
M  V30 5233 C 477.173 -2.03477 0.401475 0
M  V30 5234 C 477.598 -1.60537 -0.980279 0
M  V30 5235 O 476.956 -0.78304 -1.63518 0
M  V30 5236 C 477.004 -3.57181 0.495354 0
M  V30 5237 O 476.108 -4.09474 -0.490397 0
M  V30 5238 H 475.449 -0.642561 0.167366 0
M  V30 5239 H 477.979 -1.72824 1.09512 0
M  V30 5240 H 477.989 -4.06356 0.365912 0
M  V30 5241 H 476.664 -3.87784 1.5032 0
M  V30 5242 H 475.241 -3.71516 -0.321023 0
M  V30 5243 N 477.426 -0.562348 -1.47226 0
M  V30 5244 C 478.336 0.185466 -2.33866 0
M  V30 5245 C 479.352 0.906713 -1.48508 0
M  V30 5246 O 480.528 0.874458 -1.81425 0
M  V30 5247 C 477.593 1.19904 -3.25306 0
M  V30 5248 C 476.654 0.484669 -4.26555 0
M  V30 5249 C 475.887 1.44996 -5.13626 0
M  V30 5250 O 476.11 2.68515 -5.03245 0
M  V30 5251 O 475.044 0.971642 -5.94006 0
M  V30 5252 H 478.87 -0.525361 -2.99121 0
M  V30 5253 H 476.455 -0.322916 -1.45868 0
M  V30 5254 H 478.337 1.78399 -3.81774 0
M  V30 5255 H 477.012 1.8917 -2.62672 0
M  V30 5256 H 475.919 -0.141605 -3.73832 0
M  V30 5257 H 477.252 -0.166634 -4.91918 0
M  V30 5258 N 478.904 1.54736 -0.299062 0
M  V30 5259 C 480.15 2.00397 0.311244 0
M  V30 5260 C 480.483 1.18716 1.53688 0
M  V30 5261 O 479.758 0.263154 1.92712 0
M  V30 5262 C 480.041 3.53817 0.669761 0
M  V30 5263 C 479.894 4.46239 -0.564882 0
M  V30 5264 C 481.213 4.13856 1.49702 0
M  V30 5265 H 478.332 0.728493 0.111653 0
M  V30 5266 H 480.974 1.85506 -0.410774 0
M  V30 5267 H 479.124 3.66637 1.28491 0
M  V30 5268 H 480.796 4.45328 -1.20337 0
M  V30 5269 H 479.039 4.16916 -1.19849 0
M  V30 5270 H 479.71 5.5134 -0.269918 0
M  V30 5271 H 482.186 4.04461 0.977284 0
M  V30 5272 H 481.062 5.21365 1.71666 0
M  V30 5273 H 481.323 3.65608 2.48563 0
M  V30 5274 N 480.382 0.0267497 1.57577 0
M  V30 5275 C 481.345 -0.940916 2.08996 0
M  V30 5276 C 482.345 -1.25561 1.00455 0
M  V30 5277 O 483.535 -1.19634 1.26623 0
M  V30 5278 C 480.667 -2.25814 2.55384 0
M  V30 5279 H 481.86 -0.495628 2.95776 0
M  V30 5280 H 479.413 -0.221241 1.54726 0
M  V30 5281 H 480.148 -2.74976 1.71926 0
M  V30 5282 H 479.933 -2.04285 3.34679 0
M  V30 5283 H 481.423 -2.95178 2.95398 0
M  V30 5284 N 481.861 -1.55662 -0.24637 0
M  V30 5285 C 483.138 -1.68272 -0.997198 0
M  V30 5286 C 483.518 -0.566785 -2.03349 0
M  V30 5287 O 482.866 0.429688 -2.24424 0
M  V30 5288 C 483.076 -3.08594 -1.63006 0
M  V30 5289 C 484.424 -3.6721 -2.13171 0
M  V30 5290 O 485.448 -3.11397 -1.72946 0
M  V30 5291 O 484.307 -4.65054 -2.87031 0
M  V30 5292 H 481.401 -0.684429 -0.464205 0
M  V30 5293 H 483.947 -1.67993 -0.240114 0
M  V30 5294 H 482.719 -3.81264 -0.880527 0
M  V30 5295 H 482.342 -3.12886 -2.45333 0
M  V30 5296 N 483.339 0.512053 -1.4905 0
M  V30 5297 C 484.586 1.26686 -1.57978 0
M  V30 5298 C 484.914 1.92733 -0.261553 0
M  V30 5299 O 484.169 1.80772 0.749667 0
M  V30 5300 C 484.468 2.36446 -2.68008 0
M  V30 5301 C 484.134 1.87932 -4.09869 0
M  V30 5302 C 482.796 1.74419 -4.48477 0
M  V30 5303 C 485.148 1.5149 -4.98698 0
M  V30 5304 C 482.476 1.22827 -5.73699 0
M  V30 5305 C 484.828 1.01355 -6.24428 0
M  V30 5306 C 483.492 0.864735 -6.61875 0
M  V30 5307 H 482.762 0.463577 -0.578081 0
M  V30 5308 H 485.409 0.569421 -1.82838 0
M  V30 5309 H 483.714 3.11933 -2.37076 0
M  V30 5310 H 485.411 2.9453 -2.72127 0
M  V30 5311 H 482.001 1.99405 -3.79389 0
M  V30 5312 H 486.185 1.60782 -4.69535 0
M  V30 5313 H 481.441 1.10008 -6.01422 0
M  V30 5314 H 485.615 0.722351 -6.92644 0
M  V30 5315 H 483.242 0.462777 -7.5879 0
M  V30 5316 N 484.817 1.37938 0.762283 0
M  V30 5317 C 485.747 1.37176 1.88958 0
M  V30 5318 C 486.728 0.238945 1.68413 0
M  V30 5319 O 487.913 0.440726 1.89133 0
M  V30 5320 C 485.043 1.18742 3.2637 0
M  V30 5321 C 483.997 2.29136 3.61498 0
M  V30 5322 C 483.323 1.95816 4.97554 0
M  V30 5323 C 484.623 3.71363 3.6727 0
M  V30 5324 H 486.317 2.31509 1.89853 0
M  V30 5325 H 483.863 1.11438 0.912005 0
M  V30 5326 H 485.816 1.16837 4.04879 0
M  V30 5327 H 484.54 0.208683 3.25933 0
M  V30 5328 H 483.199 2.30213 2.85303 0
M  V30 5329 H 482.847 0.964475 4.93667 0
M  V30 5330 H 482.547 2.69745 5.22026 0
M  V30 5331 H 484.071 1.95513 5.78452 0
M  V30 5332 H 485.485 3.72364 4.35911 0
M  V30 5333 H 483.882 4.44425 4.03245 0
M  V30 5334 H 484.952 4.04305 2.67704 0
M  V30 5335 N 486.295 -0.989507 1.22664 0
M  V30 5336 C 487.523 -1.76496 1.07967 0
M  V30 5337 C 487.938 -1.85148 -0.369543 0
M  V30 5338 O 487.295 -1.32408 -1.25596 0
M  V30 5339 C 487.346 -3.19642 1.68853 0
M  V30 5340 O 487.067 -3.11453 3.08105 0
M  V30 5341 C 488.568 -4.13621 1.59475 0
M  V30 5342 H 485.788 -0.55418 0.378319 0
M  V30 5343 H 488.332 -1.24378 1.62328 0
M  V30 5344 H 486.487 -3.68816 1.18547 0
M  V30 5345 H 486.901 -4.01499 3.37489 0
M  V30 5346 H 488.375 -5.11801 2.06795 0
M  V30 5347 H 488.852 -4.35718 0.55191 0
M  V30 5348 H 489.458 -3.70346 2.09103 0
M  V30 5349 N 487.773 -1.03688 -1.18687 0
M  V30 5350 C 489.019 -0.74888 -1.89112 0
M  V30 5351 C 489.374 0.715345 -1.78607 0
M  V30 5352 O 488.667 1.51498 -1.17299 0
M  V30 5353 C 488.861 -1.14477 -3.3857 0
M  V30 5354 C 488.69 -2.64594 -3.63621 0
M  V30 5355 C 487.46 -3.31685 -3.812 0
M  V30 5356 C 489.658 -3.62811 -3.64517 0
M  V30 5357 N 487.64 -4.70822 -3.93955 0
M  V30 5358 C 489.011 -4.87603 -3.8294 0
M  V30 5359 C 491.066 -3.56495 -3.47585 0
M  V30 5360 C 489.769 -6.0684 -3.86184 0
M  V30 5361 C 491.795 -4.75155 -3.52111 0
M  V30 5362 C 491.157 -5.98765 -3.71026 0
M  V30 5363 H 487.256 -0.32603 -0.710794 0
M  V30 5364 H 489.84 -1.3258 -1.42586 0
M  V30 5365 H 488.011 -0.595974 -3.838 0
M  V30 5366 H 489.743 -0.808187 -3.96548 0
M  V30 5367 H 486.498 -2.82091 -3.80423 0
M  V30 5368 H 486.922 -5.43122 -4.04163 0
M  V30 5369 H 491.564 -2.61907 -3.31911 0
M  V30 5370 H 489.282 -7.01788 -4.00648 0
M  V30 5371 H 492.868 -4.71905 -3.40289 0
M  V30 5372 H 491.748 -6.89047 -3.74412 0
M  V30 5373 N 489.251 1.34841 -0.815825 0
M  V30 5374 C 490.181 2.32187 -0.247298 0
M  V30 5375 C 491.162 1.5791 0.632344 0
M  V30 5376 O 492.347 1.8593 0.560698 0
M  V30 5377 C 489.477 3.42122 0.597466 0
M  V30 5378 C 488.431 4.27602 -0.184446 0
M  V30 5379 C 487.757 5.28942 0.782609 0
M  V30 5380 C 489.057 5.03502 -1.38865 0
M  V30 5381 H 490.751 2.79985 -1.06061 0
M  V30 5382 H 488.297 1.34611 -0.511461 0
M  V30 5383 H 490.25 4.09232 1.00533 0
M  V30 5384 H 488.974 2.92956 1.44376 0
M  V30 5385 H 487.633 3.62085 -0.573592 0
M  V30 5386 H 487.281 4.7604 1.62466 0
M  V30 5387 H 486.981 5.87008 0.263695 0
M  V30 5388 H 488.505 5.98922 1.18848 0
M  V30 5389 H 489.919 5.63506 -1.05518 0
M  V30 5390 H 488.316 5.71108 -1.8427 0
M  V30 5391 H 489.386 4.33608 -2.17054 0
M  V30 5392 N 490.729 0.570148 1.46925 0
M  V30 5393 C 491.977 0.0508523 2.02036 0
M  V30 5394 C 492.298 -1.30885 1.44548 0
M  V30 5395 O 491.568 -1.85647 0.625453 0
M  V30 5396 H 490.148 0.0158088 0.746833 0
M  V30 5397 H 492.81 0.743086 1.80178 0
M  V30 5398 H 491.906 -0.027575 3.12088 0
M  V30 5399 N 492.207 -1.54576 0.307264 0
M  V30 5400 C 493.437 -2.04378 -0.302158 0
M  V30 5401 C 493.845 -1.18381 -1.47589 0
M  V30 5402 O 493.188 -0.20352 -1.82569 0
M  V30 5403 C 493.25 -3.50133 -0.815305 0
M  V30 5404 C 492.914 -4.56401 0.233977 0
M  V30 5405 C 493.911 -5.08884 1.06456 0
M  V30 5406 C 491.596 -5.0088 0.377478 0
M  V30 5407 C 493.59 -6.04394 2.02452 0
M  V30 5408 C 491.277 -5.96208 1.34088 0
M  V30 5409 C 492.275 -6.47849 2.16288 0
M  V30 5410 O 491.963 -7.41308 3.10994 0
M  V30 5411 H 491.695 -0.672502 -0.0686839 0
M  V30 5412 H 494.249 -2.00484 0.446682 0
M  V30 5413 H 492.479 -3.51371 -1.61478 0
M  V30 5414 H 494.168 -3.83098 -1.34129 0
M  V30 5415 H 494.934 -4.75311 0.964596 0
M  V30 5416 H 490.813 -4.60309 -0.252405 0
M  V30 5417 H 494.357 -6.44626 2.66652 0
M  V30 5418 H 490.254 -6.29198 1.44154 0
M  V30 5419 H 491.022 -7.5913 3.06045 0
M  V30 5420 N 493.685 -0.035106 -1.57561 0
M  V30 5421 C 494.931 0.64318 -1.92331 0
M  V30 5422 C 495.264 1.71434 -0.912368 0
M  V30 5423 O 494.539 1.94395 0.0640303 0
M  V30 5424 C 494.822 1.25411 -3.37556 0
M  V30 5425 C 494.675 0.192109 -4.4939 0
M  V30 5426 C 495.994 2.17041 -3.82859 0
M  V30 5427 H 493.113 0.232341 -0.699419 0
M  V30 5428 H 495.755 -0.0935889 -1.89769 0
M  V30 5429 H 493.905 1.88205 -3.39869 0
M  V30 5430 H 495.577 -0.438849 -4.59208 0
M  V30 5431 H 493.82 -0.481725 -4.31117 0
M  V30 5432 H 494.491 0.659292 -5.48049 0
M  V30 5433 H 496.967 1.64228 -3.8232 0
M  V30 5434 H 495.843 2.56738 -4.85157 0
M  V30 5435 H 496.104 3.06401 -3.18702 0
M  V30 5436 N 495.163 1.55791 0.238111 0
M  V30 5437 C 496.111 1.91885 1.31464 0
M  V30 5438 C 497.105 0.798929 1.49377 0
M  V30 5439 O 498.311 0.983626 1.50747 0
M  V30 5440 H 494.686 0.609551 0.440399 0
M  V30 5441 H 496.657 2.81747 0.982925 0
M  V30 5442 C 495.406 2.23763 2.6613 0
M  V30 5443 H 494.729 3.09444 2.53149 0
M  V30 5444 H 496.169 2.52915 3.40309 0
M  V30 5445 C 494.628 1.05699 3.1989 0
M  V30 5446 O 495.158 0.309524 4.00506 0
M  V30 5447 N 493.364 0.845251 2.78036 0
M  V30 5448 H 492.911 1.4548 2.12588 0
M  V30 5449 H 492.869 0.0569973 3.14348 0
M  V30 5450 N 496.642 -0.504142 1.49319 0
M  V30 5451 C 497.867 -1.28729 1.62615 0
M  V30 5452 C 498.292 -1.85752 0.296309 0
M  V30 5453 O 497.65 -1.65704 -0.735649 0
M  V30 5454 C 497.698 -2.39561 2.69524 0
M  V30 5455 O 496.802 -3.43324 2.28478 0
M  V30 5456 H 496.143 -0.380172 0.544395 0
M  V30 5457 H 498.673 -0.603872 1.95485 0
M  V30 5458 H 498.683 -2.8537 2.91595 0
M  V30 5459 H 497.358 -1.97423 3.66056 0
M  V30 5460 H 495.935 -3.03455 2.16725 0
M  V30 5461 N 498.12 -1.38341 -0.754957 0
M  V30 5462 C 499.05 -1.38176 -1.88227 0
M  V30 5463 C 500.031 -0.247873 -1.68284 0
M  V30 5464 O 501.216 -0.45075 -1.88896 0
M  V30 5465 C 498.346 -1.20471 -3.25736 0
M  V30 5466 C 497.3 -2.3105 -3.60278 0
M  V30 5467 C 496.626 -1.98452 -4.96509 0
M  V30 5468 C 497.926 -3.73305 -3.65295 0
M  V30 5469 H 499.62 -2.32512 -1.88622 0
M  V30 5470 H 497.166 -1.1192 -0.906082 0
M  V30 5471 H 499.119 -1.18982 -4.04254 0
M  V30 5472 H 497.843 -0.225965 -3.25817 0
M  V30 5473 H 496.502 -2.31723 -2.84078 0
M  V30 5474 H 496.15 -0.990641 -4.93148 0
M  V30 5475 H 495.85 -2.7251 -5.20588 0
M  V30 5476 H 497.374 -1.98578 -5.77407 0
M  V30 5477 H 498.788 -3.7467 -4.3393 0
M  V30 5478 H 497.185 -4.46557 -4.00883 0
M  V30 5479 H 498.255 -4.05719 -2.65556 0
M  V30 5480 N 499.598 0.982988 -1.23187 0
M  V30 5481 C 500.847 1.71817 -1.05649 0
M  V30 5482 C 501.16 1.91315 0.407176 0
M  V30 5483 O 502.366 2.62256 0.702436 0
M  V30 5484 C 500.822 3.09188 -1.84203 0
M  V30 5485 C 500.43 2.97586 -3.34882 0
M  V30 5486 C 502.174 3.86684 -1.75146 0
M  V30 5487 C 500.081 4.30173 -4.05839 0
M  V30 5488 H 499.011 0.644258 -0.391724 0
M  V30 5489 H 501.662 1.09659 -1.4713 0
M  V30 5490 H 500.044 3.72087 -1.35527 0
M  V30 5491 H 501.218 2.43793 -3.91026 0
M  V30 5492 H 499.533 2.33567 -3.44725 0
M  V30 5493 H 502.13 4.84836 -2.25473 0
M  V30 5494 H 502.473 4.10136 -0.713737 0
M  V30 5495 H 503.006 3.30482 -2.21419 0
M  V30 5496 H 499.745 4.11918 -5.09906 0
M  V30 5497 H 499.265 4.83841 -3.54482 0
M  V30 5498 H 500.944 4.98873 -4.11989 0
M  V30 5499 N 501.076 1.04316 1.18135 0
M  V30 5500 C 502.024 0.630175 2.23901 0
M  V30 5501 C 503.018 -0.344254 1.65865 0
M  V30 5502 O 504.224 -0.211273 1.78756 0
M  V30 5503 H 500.599 0.185578 0.728742 0
M  V30 5504 H 502.57 1.53253 2.56039 0
M  V30 5505 C 501.319 0.011666 3.47698 0
M  V30 5506 H 500.642 0.752526 3.92654 0
M  V30 5507 H 502.082 -0.240046 4.2332 0
M  V30 5508 C 500.541 -1.23913 3.13285 0
M  V30 5509 O 501.071 -2.32959 3.27251 0
M  V30 5510 N 499.277 -1.13338 2.67587 0
M  V30 5511 H 498.824 -0.246006 2.56423 0
M  V30 5512 H 498.782 -1.97116 2.44934 0
M  V30 5513 N 502.554 -1.34406 0.822964 0
M  V30 5514 C 503.965 -1.8069 0.469879 0
M  V30 5515 C 504.316 -1.68223 -1.00972 0
M  V30 5516 O 503.441 -1.22226 -1.78577 0
M  V30 5517 C 504.036 -3.28064 0.846118 0
M  V30 5518 C 502.595 -3.72428 0.545402 0
M  V30 5519 C 501.742 -2.56116 1.06301 0
M  V30 5520 H 504.693 -1.22153 1.01313 0
M  V30 5521 H 504.714 -3.80205 0.149922 0
M  V30 5522 H 504.226 -3.37107 1.92304 0
M  V30 5523 H 502.327 -3.68924 -0.522109 0
M  V30 5524 H 502.44 -4.66548 1.0895 0
M  V30 5525 H 500.804 -2.50048 0.484554 0
M  V30 5526 H 501.587 -2.67928 2.14638 0
M  V30 5527 N 504.032 -0.577932 -1.46621 0
M  V30 5528 C 504.962 0.145917 -2.33044 0
M  V30 5529 C 505.943 0.888412 -1.45056 0
M  V30 5530 O 507.128 0.864812 -1.73881 0
M  V30 5531 C 504.258 1.16322 -3.27241 0
M  V30 5532 C 503.212 0.535868 -4.24632 0
M  V30 5533 C 502.538 1.65929 -5.08303 0
M  V30 5534 C 503.838 -0.523861 -5.19666 0
M  V30 5535 H 505.532 -0.575636 -2.93814 0
M  V30 5536 H 503.078 -0.278272 -1.41286 0
M  V30 5537 H 505.031 1.67793 -3.86553 0
M  V30 5538 H 503.755 1.91498 -2.64567 0
M  V30 5539 H 502.414 0.0422759 -3.66576 0
M  V30 5540 H 502.062 2.40061 -4.42018 0
M  V30 5541 H 501.762 1.2452 -5.74255 0
M  V30 5542 H 503.286 2.17686 -5.70478 0
M  V30 5543 H 504.7 -0.0944059 -5.73222 0
M  V30 5544 H 503.097 -0.858 -5.93935 0
M  V30 5545 H 504.167 -1.41197 -4.63887 0
M  V30 5546 N 505.51 1.54411 -0.315457 0
M  V30 5547 C 506.44 2.27002 0.547039 0
M  V30 5548 C 507.421 1.27492 1.12605 0
M  V30 5549 O 508.606 1.5629 1.15269 0
M  V30 5550 C 505.736 3.02171 1.71201 0
M  V30 5551 C 504.69 4.0895 1.26268 0
M  V30 5552 C 504.016 4.71915 2.51396 0
M  V30 5553 C 505.316 5.20891 0.383419 0
M  V30 5554 H 507.01 2.99343 -0.0584517 0
M  V30 5555 H 504.556 1.4397 -0.0295527 0
M  V30 5556 H 506.509 3.51681 2.32161 0
M  V30 5557 H 505.233 2.27433 2.34397 0
M  V30 5558 H 503.892 3.60312 0.676062 0
M  V30 5559 H 503.54 3.93801 3.12937 0
M  V30 5560 H 503.24 5.44039 2.22026 0
M  V30 5561 H 504.764 5.24195 3.13133 0
M  V30 5562 H 506.178 5.66206 0.899082 0
M  V30 5563 H 504.575 5.99821 0.182857 0
M  V30 5564 H 505.645 4.81324 -0.587821 0
M  V30 5565 N 506.988 0.0434614 1.5754 0
M  V30 5566 C 508.218 -0.640905 1.96408 0
M  V30 5567 C 508.626 -1.65365 0.919297 0
M  V30 5568 O 507.969 -1.83395 -0.105795 0
M  V30 5569 C 508.031 -1.39141 3.31482 0
M  V30 5570 C 507.695 -0.535375 4.53853 0
M  V30 5571 C 508.692 0.195335 5.19533 0
M  V30 5572 C 506.377 -0.468564 5.0011 0
M  V30 5573 C 508.371 0.981377 6.298 0
M  V30 5574 C 506.058 0.321171 6.10255 0
M  V30 5575 C 507.056 1.04484 6.74961 0
M  V30 5576 O 506.744 1.8216 7.8299 0
M  V30 5577 H 506.476 -0.180584 0.651433 0
M  V30 5578 H 509.03 0.103848 2.05137 0
M  V30 5579 H 507.26 -2.18162 3.19284 0
M  V30 5580 H 508.949 -1.96526 3.55151 0
M  V30 5581 H 509.715 0.15314 4.84758 0
M  V30 5582 H 505.594 -1.02142 4.49542 0
M  V30 5583 H 509.138 1.54674 6.80237 0
M  V30 5584 H 505.035 0.365032 6.44467 0
M  V30 5585 H 505.803 1.74289 7.99728 0
M  V30 5586 N 508.466 -1.55915 -0.229846 0
M  V30 5587 C 509.694 -1.82617 -0.972562 0
M  V30 5588 C 510.109 -0.621488 -1.78278 0
M  V30 5589 O 509.466 0.409956 -1.77836 0
M  V30 5590 C 509.517 -3.0774 -1.89679 0
M  V30 5591 O 509.238 -4.23559 -1.11934 0
M  V30 5592 C 510.739 -3.47368 -2.75409 0
M  V30 5593 H 507.959 -0.60727 -0.285419 0
M  V30 5594 H 510.503 -2.02996 -0.247579 0
M  V30 5595 H 508.658 -2.89361 -2.57583 0
M  V30 5596 H 509.072 -4.94586 -1.74599 0
M  V30 5597 H 510.546 -4.37977 -3.35977 0
M  V30 5598 H 511.023 -2.68737 -3.47386 0
M  V30 5599 H 511.629 -3.68158 -2.12931 0
M  V30 5600 N 509.944 0.496216 -1.49584 0
M  V30 5601 C 511.169 1.27865 -1.63295 0
M  V30 5602 C 511.594 1.85592 -0.306156 0
M  V30 5603 O 510.952 1.66092 0.726851 0
M  V30 5604 C 511 2.38128 -2.7079 0
M  V30 5605 O 510.104 3.42108 -2.30296 0
M  V30 5606 H 509.445 0.377279 -0.546403 0
M  V30 5607 H 511.975 0.593497 -1.95803 0
M  V30 5608 H 511.985 2.8382 -2.93104 0
M  V30 5609 H 510.66 1.95479 -3.67098 0
M  V30 5610 H 509.237 3.02301 -2.18331 0
M  V30 5611 N 511.423 1.38739 0.74761 0
M  V30 5612 C 512.67 1.35274 1.50689 0
M  V30 5613 C 512.998 -0.0553359 1.94421 0
M  V30 5614 O 512.253 -1.03365 1.66175 0
M  V30 5615 C 512.552 2.25992 2.7688 0
M  V30 5616 C 512.218 3.73854 2.5208 0
M  V30 5617 C 510.88 4.14145 2.45025 0
M  V30 5618 C 513.232 4.67427 2.30568 0
M  V30 5619 C 510.56 5.4609 2.14483 0
M  V30 5620 C 512.912 5.99635 2.01545 0
M  V30 5621 C 511.576 6.39004 1.92951 0
M  V30 5622 H 510.846 0.495003 0.55141 0
M  V30 5623 H 513.493 1.71145 0.859158 0
M  V30 5624 H 511.798 1.83196 3.46333 0
M  V30 5625 H 513.495 2.20611 3.34861 0
M  V30 5626 H 510.085 3.41913 2.58444 0
M  V30 5627 H 514.269 4.3714 2.34994 0
M  V30 5628 H 509.525 5.75528 2.06342 0
M  V30 5629 H 513.699 6.71678 1.83906 0
M  V30 5630 H 511.326 7.41165 1.6905 0
M  V30 5631 N 512.901 -0.976442 1.23707 0
M  V30 5632 C 513.849 -2.09078 1.01927 0
M  V30 5633 C 514.843 -1.69345 -0.0430193 0
M  V30 5634 O 516.049 -1.79659 0.110814 0
M  V30 5635 H 512.424 -0.68398 0.312531 0
M  V30 5636 H 514.395 -2.24614 1.96447 0
M  V30 5637 C 513.144 -3.41919 0.631385 0
M  V30 5638 H 512.467 -3.72946 1.44053 0
M  V30 5639 H 513.907 -4.20817 0.518532 0
M  V30 5640 C 512.366 -3.30357 -0.660723 0
M  V30 5641 O 512.896 -3.63542 -1.70881 0
M  V30 5642 N 511.102 -2.83507 -0.638139 0
M  V30 5643 H 510.649 -2.567 0.215108 0
M  V30 5644 H 510.607 -2.76153 -1.50289 0
M  V30 5645 N 514.379 -1.04941 -1.1758 0
M  V30 5646 C 515.289 -0.658826 -2.25159 0
M  V30 5647 C 516.305 0.318941 -1.71052 0
M  V30 5648 O 517.481 0.171669 -2.00667 0
M  V30 5649 C 514.546 -0.0369522 -3.4668 0
M  V30 5650 C 513.607 -1.06484 -4.15884 0
M  V30 5651 C 512.84 -0.472551 -5.31604 0
M  V30 5652 O 513.063 0.718736 -5.65854 0
M  V30 5653 O 511.997 -1.20557 -5.89703 0
M  V30 5654 H 515.823 -1.55533 -2.60851 0
M  V30 5655 H 513.408 -0.820819 -1.24832 0
M  V30 5656 H 515.29 0.308784 -4.20267 0
M  V30 5657 H 513.965 0.833238 -3.12792 0
M  V30 5658 H 512.872 -1.46253 -3.44327 0
M  V30 5659 H 514.205 -1.9061 -4.53794 0
M  V30 5660 N 515.857 1.33968 -0.830081 0
M  V30 5661 C 517.134 1.92554 -0.343858 0
M  V30 5662 C 517.514 1.7573 1.16971 0
M  V30 5663 O 516.862 1.14035 1.98011 0
M  V30 5664 C 517.072 3.40147 -0.781073 0
M  V30 5665 C 518.42 4.17299 -0.78402 0
M  V30 5666 O 519.444 3.48762 -0.724112 0
M  V30 5667 O 518.303 5.39631 -0.863739 0
M  V30 5668 H 515.397 0.821469 -0.0954827 0
M  V30 5669 H 517.943 1.42897 -0.915348 0
M  V30 5670 H 516.715 3.46225 -1.82329 0
M  V30 5671 H 516.338 3.97166 -0.18567 0
M  V30 5672 N 517.335 0.585699 1.46312 0
M  V30 5673 C 518.582 0.0724211 2.0237 0
M  V30 5674 C 518.91 -1.28868 1.45683 0
M  V30 5675 O 518.165 -1.85853 0.612945 0
M  V30 5676 C 518.464 -0.0401312 3.57377 0
M  V30 5677 C 518.13 1.25376 4.33119 0
M  V30 5678 C 516.792 1.60824 4.5353 0
M  V30 5679 C 519.144 2.10987 4.76586 0
M  V30 5680 C 516.472 2.81676 5.14661 0
M  V30 5681 C 518.824 3.31068 5.39052 0
M  V30 5682 C 517.488 3.66794 5.5769 0
M  V30 5683 H 516.758 0.0265007 0.740526 0
M  V30 5684 H 519.405 0.762935 1.75646 0
M  V30 5685 H 517.71 -0.813791 3.83255 0
M  V30 5686 H 519.407 -0.453078 3.98432 0
M  V30 5687 H 515.997 0.967808 4.1753 0
M  V30 5688 H 520.181 1.84904 4.60569 0
M  V30 5689 H 515.437 3.0949 5.27282 0
M  V30 5690 H 519.611 3.97672 5.71691 0
M  V30 5691 H 517.238 4.60529 6.04828 0
M  V30 5692 N 518.813 -1.54241 0.323641 0
M  V30 5693 C 519.76 -2.24339 -0.542277 0
M  V30 5694 C 520.73 -1.23421 -1.11159 0
M  V30 5695 O 521.915 -1.52104 -1.15192 0
M  V30 5696 C 519.055 -3.00479 -1.69725 0
M  V30 5697 C 518.168 -4.16214 -1.15716 0
M  V30 5698 C 517.303 -4.79884 -2.27783 0
M  V30 5699 C 516.342 -5.87722 -1.71023 0
M  V30 5700 N 515.479 -6.45254 -2.76752 0
M  V30 5701 H 520.319 -2.97935 0.0620613 0
M  V30 5702 H 517.856 -1.47039 0.0423993 0
M  V30 5703 H 519.814 -3.42869 -2.3769 0
M  V30 5704 H 518.444 -2.29217 -2.27288 0
M  V30 5705 H 517.496 -3.78605 -0.369063 0
M  V30 5706 H 518.808 -4.93838 -0.701832 0
M  V30 5707 H 517.962 -5.25243 -3.03651 0
M  V30 5708 H 516.701 -4.01641 -2.76652 0
M  V30 5709 H 515.706 -5.41765 -0.936518 0
M  V30 5710 H 516.931 -6.67863 -1.2303 0
M  V30 5711 H 514.877 -5.69884 -3.24912 0
M  V30 5712 H 514.794 -7.18292 -2.35782 0
M  V30 5713 H 516.062 -6.95269 -3.5245 0
M  V30 5714 N 520.291 -0.0518155 -1.57515 0
M  V30 5715 C 521.221 0.920283 -2.146 0
M  V30 5716 C 522.202 1.32406 -1.06783 0
M  V30 5717 O 523.387 1.39866 -1.34726 0
M  V30 5718 C 520.517 2.1949 -2.6915 0
M  V30 5719 C 519.471 1.93116 -3.81956 0
M  V30 5720 C 518.797 3.27037 -4.23026 0
M  V30 5721 C 520.097 1.25225 -5.07066 0
M  V30 5722 H 521.791 0.444801 -2.96077 0
M  V30 5723 H 519.337 0.212508 -1.42423 0
M  V30 5724 H 521.29 2.87894 -3.07725 0
M  V30 5725 H 520.014 2.69244 -1.84865 0
M  V30 5726 H 518.673 1.27123 -3.43854 0
M  V30 5727 H 518.321 3.74595 -3.3569 0
M  V30 5728 H 518.021 3.10189 -4.99056 0
M  V30 5729 H 519.545 3.96673 -4.64202 0
M  V30 5730 H 520.959 1.83666 -5.43083 0
M  V30 5731 H 519.356 1.18702 -5.88243 0
M  V30 5732 H 520.426 0.228382 -4.84362 0
M  V30 5733 N 521.769 1.56035 0.221574 0
M  V30 5734 C 522.732 1.91584 1.2581 0
M  V30 5735 C 523.732 0.794425 1.39805 0
M  V30 5736 O 524.922 1.06217 1.38071 0
M  V30 5737 C 522.054 2.16663 2.63192 0
M  V30 5738 H 523.247 2.8429 0.954935 0
M  V30 5739 H 520.8 1.49316 0.461988 0
M  V30 5740 H 521.535 1.26508 2.98607 0
M  V30 5741 H 521.32 2.98358 2.5441 0
M  V30 5742 H 522.81 2.45262 3.37988 0
M  V30 5743 N 523.247 -0.488276 1.49845 0
M  V30 5744 C 524.494 -1.24157 1.59973 0
M  V30 5745 C 524.822 -1.92293 0.292182 0
M  V30 5746 O 524.077 -1.81942 -0.720813 0
M  V30 5747 C 524.376 -2.32152 2.71735 0
M  V30 5748 C 524.042 -1.81387 4.12807 0
M  V30 5749 C 522.704 -1.67262 4.51195 0
M  V30 5750 C 525.056 -1.43537 5.01045 0
M  V30 5751 C 522.384 -1.13685 5.7558 0
M  V30 5752 C 524.736 -0.914081 6.25961 0
M  V30 5753 C 523.4 -0.759327 6.63167 0
M  V30 5754 H 522.67 -0.454322 0.585383 0
M  V30 5755 H 525.317 -0.540261 1.83721 0
M  V30 5756 H 523.622 -3.08122 2.42008 0
M  V30 5757 H 525.319 -2.90164 2.76778 0
M  V30 5758 H 521.909 -1.93344 3.82513 0
M  V30 5759 H 526.093 -1.53292 4.72033 0
M  V30 5760 H 521.349 -1.00426 6.03096 0
M  V30 5761 H 525.523 -0.612066 6.93705 0
M  V30 5762 H 523.15 -0.342002 7.5943 0
M  V30 5763 N 524.725 -1.39134 -0.740242 0
M  V30 5764 C 525.672 -1.37434 -1.8542 0
M  V30 5765 C 526.642 -0.234822 -1.64432 0
M  V30 5766 O 527.827 -0.429125 -1.85912 0
M  V30 5767 C 524.967 -1.21844 -3.22875 0
M  V30 5768 C 524.08 -2.45296 -3.55603 0
M  V30 5769 C 523.215 -2.22334 -4.82432 0
M  V30 5770 C 522.254 -3.41488 -5.07988 0
M  V30 5771 N 521.391 -3.17877 -6.26018 0
M  V30 5772 H 526.231 -2.3266 -1.86207 0
M  V30 5773 H 523.768 -1.15578 -0.909946 0
M  V30 5774 H 525.726 -1.10818 -4.02213 0
M  V30 5775 H 524.356 -0.3025 -3.21379 0
M  V30 5776 H 523.408 -2.66945 -2.71006 0
M  V30 5777 H 524.72 -3.34063 -3.7041 0
M  V30 5778 H 523.874 -2.0852 -5.69741 0
M  V30 5779 H 522.613 -1.30954 -4.6979 0
M  V30 5780 H 521.618 -3.55807 -4.19144 0
M  V30 5781 H 522.843 -4.33763 -5.22519 0
M  V30 5782 H 520.789 -2.29156 -6.14673 0
M  V30 5783 H 520.706 -4.00198 -6.41387 0
M  V30 5784 H 521.974 -3.07746 -7.16179 0
M  V30 5785 N 526.204 0.969867 -1.24223 0
M  V30 5786 C 527.151 2.06407 -1.0327 0
M  V30 5787 C 528.121 1.66014 0.0533 0
M  V30 5788 O 529.306 1.90533 -0.100896 0
M  V30 5789 C 526.446 3.3909 -0.641262 0
M  V30 5790 C 525.559 3.9269 -1.80051 0
M  V30 5791 C 524.694 5.13631 -1.35486 0
M  V30 5792 C 523.733 5.59423 -2.48419 0
M  V30 5793 N 522.87 6.71586 -2.04737 0
M  V30 5794 H 527.71 2.23663 -1.96923 0
M  V30 5795 H 525.247 1.09624 -0.980862 0
M  V30 5796 H 527.205 4.15323 -0.395351 0
M  V30 5797 H 525.835 3.21765 0.258269 0
M  V30 5798 H 524.887 3.13116 -2.16014 0
M  V30 5799 H 526.199 4.22636 -2.64916 0
M  V30 5800 H 525.353 5.97231 -1.0677 0
M  V30 5801 H 524.092 4.85364 -0.476722 0
M  V30 5802 H 523.097 4.74398 -2.77897 0
M  V30 5803 H 524.322 5.89705 -3.36786 0
M  V30 5804 H 522.268 6.45058 -1.19318 0
M  V30 5805 H 522.185 7.0097 -2.83156 0
M  V30 5806 H 523.453 7.58633 -1.79154 0
M  V30 5807 N 527.682 1.05563 1.17022 0
M  V30 5808 C 528.612 0.681026 2.23348 0
M  V30 5809 C 529.593 -0.322983 1.67005 0
M  V30 5810 O 530.778 -0.199746 1.9317 0
M  V30 5811 C 527.908 0.0589053 3.4725 0
M  V30 5812 C 526.862 0.988082 4.16438 0
M  V30 5813 C 526.188 0.229646 5.34207 0
M  V30 5814 C 527.488 2.31388 4.68249 0
M  V30 5815 H 529.182 1.56993 2.54938 0
M  V30 5816 H 526.728 0.756302 1.2254 0
M  V30 5817 H 528.681 -0.214982 4.20851 0
M  V30 5818 H 527.405 -0.864968 3.14938 0
M  V30 5819 H 526.064 1.24659 3.44754 0
M  V30 5820 H 525.712 -0.697111 4.98146 0
M  V30 5821 H 525.412 0.848815 5.81437 0
M  V30 5822 H 526.936 -0.0368694 6.10589 0
M  V30 5823 H 528.35 2.09964 5.33468 0
M  V30 5824 H 526.747 2.88736 5.26072 0
M  V30 5825 H 527.817 2.94982 3.84855 0
M  V30 5826 N 529.16 -1.33526 0.837174 0
M  V30 5827 C 530.409 -1.97098 0.428387 0
M  V30 5828 C 530.722 -1.67062 -1.01734 0
M  V30 5829 O 531.928 -2.24235 -1.53072 0
M  V30 5830 C 530.384 -3.52725 0.715075 0
M  V30 5831 C 529.992 -3.9164 2.17537 0
M  V30 5832 C 531.736 -4.22857 0.373154 0
M  V30 5833 C 529.643 -5.40237 2.40619 0
M  V30 5834 H 528.573 -0.737589 0.156455 0
M  V30 5835 H 531.224 -1.52169 1.02552 0
M  V30 5836 H 529.606 -3.95971 0.0475904 0
M  V30 5837 H 530.78 -3.59456 2.88319 0
M  V30 5838 H 529.095 -3.34485 2.4801 0
M  V30 5839 H 531.692 -5.32133 0.523264 0
M  V30 5840 H 532.035 -4.10647 -0.683708 0
M  V30 5841 H 532.568 -3.85135 0.995801 0
M  V30 5842 H 529.307 -5.57449 3.44864 0
M  V30 5843 H 528.827 -5.73887 1.74396 0
M  V30 5844 H 530.506 -6.07102 2.23688 0
M  V30 5845 N 530.638 -0.59345 -1.46 0
M  V30 5846 C 532.054 -0.255965 -1.57534 0
M  V30 5847 C 532.254 1.24167 -1.58697 0
M  V30 5848 O 531.31 2.02398 -1.50968 0
M  V30 5849 C 532.623 -0.91466 -2.86451 0
M  V30 5850 C 534.171 -0.889253 -3.00102 0
M  V30 5851 C 534.646 -1.52769 -4.3177 0
M  V30 5852 N 536.137 -1.49253 -4.38495 0
M  V30 5853 C 536.872 -1.9558 -5.39014 0
M  V30 5854 N 536.368 -2.49929 -6.46148 0
M  V30 5855 N 538.161 -1.86432 -5.30282 0
M  V30 5856 H 530.312 -1.56604 -1.43489 0
M  V30 5857 H 532.575 -0.655207 -0.685133 0
M  V30 5858 H 532.281 -1.96861 -2.91442 0
M  V30 5859 H 532.155 -0.429356 -3.74748 0
M  V30 5860 H 534.542 0.156111 -2.94687 0
M  V30 5861 H 534.623 -1.41268 -2.13253 0
M  V30 5862 H 534.267 -2.57231 -4.37944 0
M  V30 5863 H 534.197 -0.979398 -5.17412 0
M  V30 5864 H 536.688 -1.09536 -3.61677 0
M  V30 5865 H 537.001 -2.83109 -7.19075 0
M  V30 5866 H 535.346 -2.53961 -6.46938 0
M  V30 5867 H 538.537 -1.43722 -4.4549 0
M  V30 5868 H 538.71 -2.22852 -6.08474 0
M  V30 5869 N 532.116 1.54067 -0.331816 0
M  V30 5870 C 533.356 2.02625 0.26876 0
M  V30 5871 C 533.72 1.21462 1.48697 0
M  V30 5872 O 534.921 1.59863 2.16096 0
M  V30 5873 C 533.192 3.52554 0.586577 0
M  V30 5874 S 534.751 4.23035 1.16563 0
M  V30 5875 H 531.569 0.706395 0.0807862 0
M  V30 5876 H 534.171 1.89844 -0.466856 0
M  V30 5877 H 532.875 4.09242 -0.308046 0
M  V30 5878 H 532.406 3.69432 1.35217 0
M  V30 5879 H 534.421 4.31382 2.45203 0
M  V30 5880 N 533.594 0.0601682 1.57485 0
M  V30 5881 C 535.01 -0.296422 1.56823 0
M  V30 5882 C 535.21 -1.70831 1.0686 0
M  V30 5883 O 534.266 -2.4174 0.729245 0
M  V30 5884 C 535.579 -0.116681 3.00474 0
M  V30 5885 C 537.127 -0.187103 3.1244 0
M  V30 5886 C 537.602 -0.035783 4.57986 0
M  V30 5887 N 539.093 -0.0917676 4.63109 0
M  V30 5888 C 539.828 0.00107251 5.734 0
M  V30 5889 N 539.324 0.146773 6.92645 0
M  V30 5890 N 541.117 -0.0551577 5.62073 0
M  V30 5891 H 533.268 0.983055 1.88281 0
M  V30 5892 H 535.531 0.382386 0.867459 0
M  V30 5893 H 535.237 0.85712 3.41096 0
M  V30 5894 H 535.111 -0.873929 3.66936 0
M  V30 5895 H 537.498 -1.15138 2.71712 0
M  V30 5896 H 537.579 0.601052 2.48638 0
M  V30 5897 H 537.223 0.925212 4.99402 0
M  V30 5898 H 537.153 -0.843196 5.19806 0
M  V30 5899 H 539.644 -0.203261 3.77353 0
M  V30 5900 H 539.957 0.210076 7.72514 0
M  V30 5901 H 538.302 0.181979 6.94762 0
M  V30 5902 H 541.493 -0.167605 4.678 0
M  V30 5903 H 541.666 0.020652 6.47997 0
M  V30 5904 N 535.072 -1.5615 -0.213296 0
M  V30 5905 C 535.982 -1.96265 -1.28519 0
M  V30 5906 C 536.998 -0.86765 -1.50824 0
M  V30 5907 O 538.174 -1.17191 -1.63793 0
M  V30 5908 C 535.239 -2.27836 -2.61327 0
M  V30 5909 C 534.3 -3.50949 -2.47252 0
M  V30 5910 C 533.533 -3.81004 -3.73727 0
M  V30 5911 O 533.756 -3.12612 -4.77106 0
M  V30 5912 O 532.69 -4.74477 -3.70344 0
M  V30 5913 H 536.516 -2.87631 -0.974795 0
M  V30 5914 H 534.101 -1.43467 -0.416832 0
M  V30 5915 H 535.983 -2.49299 -3.39747 0
M  V30 5916 H 534.658 -1.39643 -2.9203 0
M  V30 5917 H 533.565 -3.34754 -1.67004 0
M  V30 5918 H 534.898 -4.39551 -2.21486 0
M  V30 5919 N 536.55 0.480323 -1.50102 0
M  V30 5920 C 537.5 1.57685 -1.6468 0
M  V30 5921 C 538.484 1.52878 -0.5017 0
M  V30 5922 O 539.676 1.60058 -0.755668 0
M  V30 5923 C 536.805 2.96185 -1.73578 0
M  V30 5924 C 535.891 3.0591 -2.93734 0
M  V30 5925 N 536.282 2.85471 -4.1754 0
M  V30 5926 C 534.58 3.37036 -2.92101 0
M  V30 5927 C 535.281 2.99921 -4.9842 0
M  V30 5928 N 534.257 3.29715 -4.32191 0
M  V30 5929 H 538.059 1.40568 -2.58104 0
M  V30 5930 H 535.573 0.686874 -1.47159 0
M  V30 5931 H 537.57 3.75015 -1.82124 0
M  V30 5932 H 536.23 3.14356 -0.813057 0
M  V30 5933 H 537.241 2.61235 -4.47188 0
M  V30 5934 H 533.918 3.61253 -2.09291 0
M  V30 5935 H 535.308 2.88436 -6.06839 0
M  V30 5936 N 538.028 1.39524 0.732853 0
M  V30 5937 C 539.256 1.40143 1.52209 0
M  V30 5938 C 539.671 -0.00348836 1.888 0
M  V30 5939 O 539.028 -0.975357 1.5425 0
M  V30 5940 C 539.079 2.27632 2.8083 0
M  V30 5941 O 538.8 3.62654 2.45792 0
M  V30 5942 C 540.301 2.36658 3.74844 0
M  V30 5943 H 537.521 0.478604 0.470297 0
M  V30 5944 H 540.065 1.83366 0.905388 0
M  V30 5945 H 538.22 1.87818 3.38826 0
M  V30 5946 H 538.634 4.08941 3.28431 0
M  V30 5947 H 540.108 3.02118 4.61984 0
M  V30 5948 H 540.585 1.38638 4.16745 0
M  V30 5949 H 541.191 2.76951 3.22766 0
M  V30 5950 O 539.545 -0.874016 1.35806 0
M  V30 5951 H 540.236 -1.51229 1.21035 0
M  V30 END ATOM
M  V30 BEGIN BOND
M  V30 END BOND
M  V30 END CTAB
M  END
$$$$
