drugbank_target|Q16552 Interleukin-17A (DB09029; DB11569)
 OpenBabel12092121033D

  0  0  0     0  0            999 V3000
M  V30 BEGIN CTAB
M  V30 COUNTS 2455 2485 0 0 0
M  V30 BEGIN ATOM
M  V30 1 H -0.908 1.98254 -0.117106 0
M  V30 2 N 0 1.576 0 0
M  V30 3 C 0.933 2.03868 1.02534 0
M  V30 4 C 1.911 0.928543 1.3348 0
M  V30 5 O 3.095 1.19667 1.45644 0
M  V30 6 C 0.222 2.43627 2.35294 0
M  V30 7 C -0.732 3.65373 2.2001 0
M  V30 8 S 0.101 5.13292 1.52614 0
M  V30 9 C 1.257 5.56322 2.86805 0
M  V30 10 H 1.49 2.90518 0.631377 0
M  V30 11 H -0.977 1.52953 0.210867 0
M  V30 12 H 0.981 2.67203 3.11629 0
M  V30 13 H -0.358 1.57376 2.7183 0
M  V30 14 H -1.165 3.90944 3.18086 0
M  V30 15 H -1.563 3.418 1.51819 0
M  V30 16 H 0.729 5.58782 3.83104 0
M  V30 17 H 1.672 6.56266 2.65933 0
M  V30 18 H 2.08 4.83886 2.90714 0
M  V30 19 N 1.4781 -0.272755 1.55222 0
M  V30 20 C 2.7061 -1.02255 1.79865 0
M  V30 21 C 3.1211 -1.79924 0.572088 0
M  V30 22 O 2.4781 -1.76638 -0.458842 0
M  V30 23 C 2.5291 -1.98094 3.02392 0
M  V30 24 O 2.2501 -1.23572 4.20311 0
M  V30 25 C 3.7511 -2.84884 3.39641 0
M  V30 26 H 0.9711 -0.302057 0.599168 0
M  V30 27 H 3.5151 -0.303465 2.02236 0
M  V30 28 H 1.6701 -2.65465 2.82147 0
M  V30 29 H 2.0841 -1.88172 4.89583 0
M  V30 30 H 3.5581 -3.47927 4.28545 0
M  V30 31 H 4.0351 -3.54665 2.59055 0
M  V30 32 H 4.6411 -2.23003 3.62146 0
M  V30 33 N 2.9562 -1.48159 -0.537278 0
M  V30 34 C 4.3672 -1.49429 -1.11928 0
M  V30 35 C 4.7182 -0.26 -1.9447 0
M  V30 36 O 3.8432 0.633489 -2.0692 0
M  V30 37 C 4.4382 -2.70758 -2.03656 0
M  V30 38 C 2.9972 -2.74923 -2.57088 0
M  V30 39 C 2.1442 -2.42835 -1.3389 0
M  V30 40 H 5.0952 -1.55381 -0.322886 0
M  V30 41 H 5.1162 -2.48861 -2.87834 0
M  V30 42 H 4.6282 -3.60575 -1.43553 0
M  V30 43 H 2.7292 -1.89296 -3.20933 0
M  V30 44 H 2.8422 -3.76157 -2.9672 0
M  V30 45 H 1.2062 -1.93836 -1.65226 0
M  V30 46 H 1.9892 -3.34884 -0.755504 0
M  V30 47 N 4.4343 0.785586 -1.36625 0
M  V30 48 C 5.6823 1.54057 -1.30808 0
M  V30 49 C 6.0033 1.94683 0.111157 0
M  V30 50 O 5.2733 1.65241 1.05224 0
M  V30 51 H 3.8533 0.571354 -0.481211 0
M  V30 52 H 6.5153 0.935821 -1.70963 0
M  V30 53 H 5.6113 2.44637 -1.93801 0
M  V30 54 N 5.9124 1.20967 1.01018 0
M  V30 55 C 6.8594 0.964281 2.09691 0
M  V30 56 C 7.8294 -0.107853 1.65749 0
M  V30 57 O 9.0144 0.0381987 1.90762 0
M  V30 58 C 6.1544 0.52943 3.41015 0
M  V30 59 C 5.2674 1.67043 3.98398 0
M  V30 60 C 4.4024 1.18525 5.17808 0
M  V30 61 C 3.4414 2.29892 5.67288 0
M  V30 62 N 2.5784 1.82546 6.77954 0
M  V30 63 H 7.4184 1.89463 2.30017 0
M  V30 64 H 4.9554 0.944289 1.1279 0
M  V30 65 H 6.9134 0.258588 4.16398 0
M  V30 66 H 5.5434 -0.363919 3.20742 0
M  V30 67 H 4.5954 2.05603 3.20049 0
M  V30 68 H 5.9074 2.50877 4.31117 0
M  V30 69 H 5.0614 0.870762 6.00419 0
M  V30 70 H 3.8004 0.316887 4.86669 0
M  V30 71 H 2.8054 2.6215 4.83278 0
M  V30 72 H 4.0304 3.17216 6.00459 0
M  V30 73 H 1.9764 0.980454 6.48632 0
M  V30 74 H 1.8934 2.59956 7.09901 0
M  V30 75 H 3.1614 1.54115 7.64113 0
M  V30 76 N 7.3905 -1.2043 1.01659 0
M  V30 77 C 8.6185 -1.93777 0.725132 0
M  V30 78 C 9.0335 -1.74772 -0.714166 0
M  V30 79 O 8.3905 -1.06169 -1.4844 0
M  V30 80 C 8.4415 -3.45876 1.05129 0
M  V30 81 O 8.1625 -3.6426 2.43406 0
M  V30 82 C 9.6635 -4.36368 0.780891 0
M  V30 83 H 6.8835 -0.615901 0.266284 0
M  V30 84 H 9.4275 -1.52922 1.35776 0
M  V30 85 H 7.5825 -3.8461 0.464065 0
M  V30 86 H 7.9965 -4.58246 2.55169 0
M  V30 87 H 9.4705 -5.41743 1.05918 0
M  V30 88 H 9.9475 -4.38275 -0.284937 0
M  V30 89 H 10.5535 -4.03296 1.35027 0
M  V30 90 N 8.8686 -0.792821 -1.36206 0
M  V30 91 C 10.0936 -0.377701 -2.03932 0
M  V30 92 C 10.5186 0.998947 -1.59382 0
M  V30 93 O 9.8766 1.64421 -0.763903 0
M  V30 94 C 9.9246 -0.453635 -3.57735 0
M  V30 95 O 9.0286 0.538151 -4.08874 0
M  V30 96 H 8.3696 -0.159855 -0.644471 0
M  V30 97 H 10.8996 -1.07488 -1.7409 0
M  V30 98 H 10.9096 -0.318464 -4.06755 0
M  V30 99 H 9.5846 -1.45784 -3.89512 0
M  V30 100 H 8.1616 0.364359 -3.71116 0
M  V30 101 N 10.3467 1.47872 -0.545128 0
M  V30 102 C 11.2767 2.32661 0.197793 0
M  V30 103 C 12.2577 1.43041 0.920504 0
M  V30 104 O 13.4427 1.71912 0.90333 0
M  V30 105 C 10.5727 3.24569 1.23582 0
M  V30 106 C 9.5267 4.23333 0.630323 0
M  V30 107 C 8.8527 5.0448 1.77211 0
M  V30 108 C 10.1527 5.20704 -0.407974 0
M  V30 109 H 11.8467 2.95024 -0.510045 0
M  V30 110 H 9.3927 1.4187 -0.246731 0
M  V30 111 H 11.3457 3.8272 1.76362 0
M  V30 112 H 10.0697 2.60236 1.97344 0
M  V30 113 H 8.7287 3.6639 0.123922 0
M  V30 114 H 8.3767 4.36561 2.49847 0
M  V30 115 H 8.0767 5.71339 1.37281 0
M  V30 116 H 9.6007 5.65487 2.3034 0
M  V30 117 H 11.0147 5.7329 0.033305 0
M  V30 118 H 9.4117 5.95699 -0.725486 0
M  V30 119 H 10.4817 4.66917 -1.30828 0
M  V30 120 N 11.8248 0.280983 1.55075 0
M  V30 121 C 13.0708 -0.33461 2.00021 0
M  V30 122 C 13.4038 -1.55063 1.16915 0
M  V30 123 O 12.6788 -1.93006 0.240646 0
M  V30 124 C 12.9618 -0.711007 3.53011 0
M  V30 125 C 12.8148 0.512766 4.46868 0
M  V30 126 C 14.1338 -1.54522 4.12081 0
M  V30 127 H 11.2528 -0.120147 0.727141 0
M  V30 128 H 13.8948 0.389097 1.85973 0
M  V30 129 H 12.0448 -1.32761 3.65112 0
M  V30 130 H 13.7168 1.15131 4.46702 0
M  V30 131 H 11.9598 1.14975 4.18286 0
M  V30 132 H 12.6308 0.205556 5.51617 0
M  V30 133 H 15.1068 -1.02442 4.03293 0
M  V30 134 H 13.9828 -1.77739 5.19327 0
M  V30 135 H 14.2438 -2.52813 3.62682 0
M  V30 136 N 13.3029 -1.57598 0.00835791 0
M  V30 137 C 14.5279 -1.95617 -0.689103 0
M  V30 138 C 14.9529 -0.883753 -1.66046 0
M  V30 139 O 14.3109 0.157352 -1.80616 0
M  V30 140 C 14.3589 -3.32736 -1.38994 0
M  V30 141 O 13.4629 -3.27631 -2.50463 0
M  V30 142 H 12.8039 -0.638379 -0.182668 0
M  V30 143 H 15.3339 -2.045 0.064036 0
M  V30 144 H 15.3439 -3.68494 -1.75147 0
M  V30 145 H 14.0189 -4.1034 -0.677778 0
M  V30 146 H 12.5959 -3.03561 -2.16576 0
M  V30 147 N 14.781 0.264519 -1.55364 0
M  V30 148 C 15.711 1.33121 -1.91836 0
M  V30 149 C 16.692 1.51101 -0.781192 0
M  V30 150 O 17.877 1.64003 -1.04003 0
M  V30 151 C 15.007 2.68921 -2.19769 0
M  V30 152 C 13.961 2.65661 -3.35571 0
M  V30 153 C 13.287 4.05093 -3.49004 0
M  V30 154 C 14.587 2.24187 -4.71739 0
M  V30 155 H 16.281 1.02844 -2.81182 0
M  V30 156 H 13.827 0.493286 -1.35287 0
M  V30 157 H 15.78 3.43663 -2.43872 0
M  V30 158 H 14.504 3.00799 -1.27231 0
M  V30 159 H 13.163 1.93377 -3.1145 0
M  V30 160 H 12.811 4.34206 -2.53917 0
M  V30 161 H 12.511 4.03804 -4.26868 0
M  V30 162 H 14.035 4.81561 -3.75408 0
M  V30 163 H 15.449 2.88654 -4.9533 0
M  V30 164 H 13.846 2.34044 -5.52579 0
M  V30 165 H 14.916 1.19327 -4.69988 0
M  V30 166 N 16.2591 1.48442 0.529413 0
M  V30 167 C 17.1891 1.65902 1.64313 0
M  V30 168 C 18.1701 0.507897 1.6234 0
M  V30 169 O 19.3551 0.740503 1.79528 0
M  V30 170 C 16.4851 1.69911 3.02898 0
M  V30 171 C 15.4391 2.8453 3.19729 0
M  V30 172 C 14.7651 2.73629 4.59381 0
M  V30 173 C 16.0651 4.25821 3.02447 0
M  V30 174 H 17.7591 2.5914 1.49955 0
M  V30 175 H 15.3051 1.24709 0.719982 0
M  V30 176 H 17.2581 1.80715 3.80684 0
M  V30 177 H 15.9821 0.732524 3.18279 0
M  V30 178 H 14.6411 2.73283 2.44361 0
M  V30 179 H 14.2891 1.74938 4.71599 0
M  V30 180 H 13.9891 3.50541 4.71588 0
M  V30 181 H 15.5131 2.86401 5.39265 0
M  V30 182 H 16.9271 4.37898 3.70024 0
M  V30 183 H 15.3241 5.03735 3.26146 0
M  V30 184 H 16.3941 4.42244 1.98867 0
M  V30 185 N 17.7372 -0.778329 1.37039 0
M  V30 186 C 18.6672 -1.90546 1.34962 0
M  V30 187 C 19.6482 -1.68681 0.219274 0
M  V30 188 O 20.8332 -1.89634 0.418624 0
M  V30 189 C 17.9632 -3.27734 1.14925 0
M  V30 190 C 16.9172 -3.64147 2.24902 0
M  V30 191 C 16.2432 -4.99806 1.89996 0
M  V30 192 C 17.5432 -3.71579 3.67051 0
M  V30 193 H 19.2372 -1.92541 2.29277 0
M  V30 194 H 16.7832 -0.924948 1.10366 0
M  V30 195 H 18.7362 -4.06215 1.12104 0
M  V30 196 H 17.4602 -3.26154 0.170631 0
M  V30 197 H 16.1192 -2.8797 2.26868 0
M  V30 198 H 15.7672 -4.94759 0.906796 0
M  V30 199 H 15.4672 -5.25139 2.63634 0
M  V30 200 H 16.9912 -5.80694 1.88749 0
M  V30 201 H 18.4052 -4.40227 3.67251 0
M  V30 202 H 16.8022 -4.08405 4.39688 0
M  V30 203 H 17.8722 -2.72404 4.01154 0
M  V30 204 N 19.2153 -1.21501 -1.00376 0
M  V30 205 C 20.1453 -0.999478 -2.11028 0
M  V30 206 C 21.1263 0.0759671 -1.6993 0
M  V30 207 O 22.3113 -0.0841106 -1.94018 0
M  V30 208 C 19.4413 -0.564709 -3.42678 0
M  V30 209 C 18.3953 -1.58486 -3.97576 0
M  V30 210 C 17.7213 -1.00628 -5.25146 0
M  V30 211 C 19.0213 -2.97204 -4.29496 0
M  V30 212 H 20.7153 -1.92495 -2.29317 0
M  V30 213 H 18.2613 -0.92693 -1.102 0
M  V30 214 H 20.2143 -0.401091 -4.19487 0
M  V30 215 H 18.9383 0.396411 -3.24185 0
M  V30 216 H 17.5973 -1.73606 -3.22888 0
M  V30 217 H 17.2453 -0.0368439 -5.02987 0
M  V30 218 H 16.9453 -1.68771 -5.62841 0
M  V30 219 H 18.4693 -0.854015 -6.04598 0
M  V30 220 H 19.8833 -2.8552 -4.97143 0
M  V30 221 H 18.2803 -3.62372 -4.78338 0
M  V30 222 H 19.3503 -3.47956 -3.3772 0
M  V30 223 N 20.6934 1.19889 -1.02296 0
M  V30 224 C 21.6234 2.25141 -0.619174 0
M  V30 225 C 22.6044 1.66051 0.368915 0
M  V30 226 O 23.7894 1.92546 0.252941 0
M  V30 227 C 20.9194 3.4728 0.0368783 0
M  V30 228 C 19.8734 4.19005 -0.872865 0
M  V30 229 C 19.1994 5.34637 -0.0822402 0
M  V30 230 C 20.4994 4.74452 -2.18387 0
M  V30 231 H 22.1934 2.59171 -1.49903 0
M  V30 232 H 19.7394 1.24579 -0.722222 0
M  V30 233 H 21.6924 4.20098 0.330958 0
M  V30 234 H 20.4164 3.12433 0.95149 0
M  V30 235 H 19.0754 3.48061 -1.15105 0
M  V30 236 H 18.7234 4.96034 0.83422 0
M  V30 237 H 18.4234 5.83557 -0.688149 0
M  V30 238 H 19.9474 6.10255 0.205238 0
M  V30 239 H 21.3614 5.39055 -1.95172 0
M  V30 240 H 19.7584 5.33834 -2.74119 0
M  V30 241 H 20.8284 3.92844 -2.84257 0
M  V30 242 N 22.1715 0.800033 1.35784 0
M  V30 243 C 23.3965 0.388511 2.03729 0
M  V30 244 C 23.8215 -0.990481 1.5991 0
M  V30 245 O 23.1795 -1.64013 0.772612 0
M  V30 246 C 23.2275 0.4726 3.5749 0
M  V30 247 O 22.3315 -0.51646 4.09153 0
M  V30 248 H 21.6725 0.163271 0.643614 0
M  V30 249 H 24.2025 1.0841 1.73518 0
M  V30 250 H 24.2125 0.34003 4.06581 0
M  V30 251 H 22.8875 1.47848 3.88734 0
M  V30 252 H 21.4645 -0.344673 3.71304 0
M  V30 253 N 23.6496 -1.47581 0.552962 0
M  V30 254 C 24.5796 -2.32762 -0.185451 0
M  V30 255 C 25.5606 -1.43527 -0.912905 0
M  V30 256 O 26.7456 -1.72388 -0.894201 0
M  V30 257 C 23.8756 -3.25219 -1.21859 0
M  V30 258 C 22.8296 -4.23661 -0.607864 0
M  V30 259 C 22.1556 -5.05413 -1.74533 0
M  V30 260 C 23.4556 -5.20481 0.435582 0
M  V30 261 H 25.1496 -2.94749 0.525684 0
M  V30 262 H 22.6956 -1.41738 0.254251 0
M  V30 263 H 24.6486 -3.8365 -1.7433 0
M  V30 264 H 23.3726 -2.61279 -1.95961 0
M  V30 265 H 22.0316 -3.66451 -0.104489 0
M  V30 266 H 21.6796 -4.3788 -2.47529 0
M  V30 267 H 21.3796 -5.72059 -1.34249 0
M  V30 268 H 22.9036 -5.66701 -2.27338 0
M  V30 269 H 24.3176 -5.733 -0.00290157 0
M  V30 270 H 22.7146 -5.95305 0.757067 0
M  V30 271 H 23.7846 -4.66217 1.33303 0
M  V30 272 N 25.1277 -0.289203 -1.54924 0
M  V30 273 C 26.0377 0.601863 -2.26748 0
M  V30 274 C 27.0537 1.15834 -1.2984 0
M  V30 275 O 28.2297 1.18564 -1.62802 0
M  V30 276 C 25.2947 1.76299 -2.98529 0
M  V30 277 C 24.3557 1.24178 -4.10948 0
M  V30 278 C 23.5887 2.34757 -4.79296 0
M  V30 279 O 23.8117 3.54411 -4.46933 0
M  V30 280 O 22.7457 2.02115 -5.66951 0
M  V30 281 H 26.5717 0.0195879 -3.03694 0
M  V30 282 H 24.1567 -0.0560868 -1.49295 0
M  V30 283 H 26.0387 2.43973 -3.43592 0
M  V30 284 H 24.7137 2.33209 -2.24488 0
M  V30 285 H 23.6207 0.531104 -3.70311 0
M  V30 286 H 24.9537 0.718252 -4.86931 0
M  V30 287 N 26.6058 1.57591 -0.0167156 0
M  V30 288 C 27.5688 2.08393 0.954204 0
M  V30 289 C 28.5688 0.996531 1.26198 0
M  V30 290 O 29.7588 1.25858 1.20438 0
M  V30 291 C 26.8908 2.5394 2.27436 0
M  V30 292 H 28.0838 2.95455 0.514451 0
M  V30 293 H 25.6368 1.54582 0.231089 0
M  V30 294 H 26.3718 1.70171 2.76066 0
M  V30 295 H 26.1568 3.33371 2.06412 0
M  V30 296 H 27.6468 2.93512 2.97053 0
M  V30 297 N 28.0839 -0.256276 1.55502 0
M  V30 298 C 29.3329 -0.983486 1.76098 0
M  V30 299 C 29.6459 -1.86837 0.578896 0
M  V30 300 O 30.8519 -2.63163 0.667648 0
M  V30 301 C 29.3079 -1.79868 3.1173 0
M  V30 302 C 28.9159 -0.961648 4.37557 0
M  V30 303 C 30.6599 -2.51919 3.41668 0
M  V30 304 C 28.5669 -1.77219 5.64223 0
M  V30 305 H 27.4969 -0.370936 0.656447 0
M  V30 306 H 30.1479 -0.238492 1.81944 0
M  V30 307 H 28.5299 -2.58527 2.99966 0
M  V30 308 H 29.7039 -0.218048 4.60284 0
M  V30 309 H 28.0189 -0.354913 4.14885 0
M  V30 310 H 30.6159 -3.12998 4.33516 0
M  V30 311 H 30.9589 -3.23059 2.62562 0
M  V30 312 H 31.4919 -1.80278 3.54605 0
M  V30 313 H 28.2309 -1.10471 6.46124 0
M  V30 314 H 27.7509 -2.49132 5.45613 0
M  V30 315 H 29.4299 -2.34169 6.03137 0
M  V30 316 N 29.562 -1.4872 -0.521534 0
M  V30 317 C 30.808 -1.574 -1.27879 0
M  V30 318 C 31.141 -0.250817 -1.92573 0
M  V30 319 O 30.416 0.743934 -1.79711 0
M  V30 320 C 30.699 -2.71843 -2.36164 0
M  V30 321 C 30.552 -4.13893 -1.76105 0
M  V30 322 C 31.871 -2.82008 -3.37875 0
M  V30 323 H 28.99 -0.572941 -0.463581 0
M  V30 324 H 31.632 -1.80927 -0.580119 0
M  V30 325 H 29.782 -2.51914 -2.95756 0
M  V30 326 H 31.454 -4.45284 -1.20499 0
M  V30 327 H 29.697 -4.20498 -1.06601 0
M  V30 328 H 30.368 -4.89804 -2.5455 0
M  V30 329 H 32.844 -3.00086 -2.88249 0
M  V30 330 H 31.72 -3.63796 -4.11028 0
M  V30 331 H 31.981 -1.90511 -3.98946 0
M  V30 332 N 31.0401 0.771051 -1.3745 0
M  V30 333 C 31.9871 1.88435 -1.3327 0
M  V30 334 C 32.9571 1.64914 -0.198136 0
M  V30 335 O 34.1421 1.86821 -0.387606 0
M  V30 336 C 31.2821 3.25509 -1.14622 0
M  V30 337 C 30.3951 3.60979 -2.37314 0
M  V30 338 C 29.5301 4.87265 -2.11533 0
M  V30 339 C 28.5691 5.15469 -3.30088 0
M  V30 340 N 27.7061 6.32944 -3.03853 0
M  V30 341 H 32.5461 1.91344 -2.28455 0
M  V30 342 H 30.0831 0.935466 -1.13523 0
M  V30 343 H 32.0411 4.04582 -1.01831 0
M  V30 344 H 30.6711 3.21974 -0.230837 0
M  V30 345 H 29.7231 2.76885 -2.60842 0
M  V30 346 H 31.0351 3.77759 -3.25729 0
M  V30 347 H 30.1891 5.74244 -1.95777 0
M  V30 348 H 28.9281 4.7259 -1.20457 0
M  V30 349 H 27.9331 4.26966 -3.46382 0
M  V30 350 H 29.1581 5.32052 -4.22016 0
M  V30 351 H 27.1041 6.19625 -2.15407 0
M  V30 352 H 27.0211 6.50143 -3.85812 0
M  V30 353 H 28.2891 7.22857 -2.91716 0
M  V30 354 N 32.5182 1.22032 0.997298 0
M  V30 355 C 33.4812 0.987909 2.06816 0
M  V30 356 C 34.4812 -0.0440084 1.6074 0
M  V30 357 O 35.6712 0.194053 1.73116 0
M  V30 358 C 32.8032 0.49132 3.37341 0
M  V30 359 H 33.9962 1.93803 2.28868 0
M  V30 360 H 31.5492 1.03838 1.16822 0
M  V30 361 H 32.2842 -0.463364 3.20973 0
M  V30 362 H 32.0692 1.23575 3.72118 0
M  V30 363 H 33.5592 0.348824 4.16141 0
M  V30 364 N 33.9963 -1.19345 1.0293 0
M  V30 365 C 35.2443 -1.88665 0.724574 0
M  V30 366 C 35.5653 -1.80036 -0.749144 0
M  V30 367 O 34.8353 -1.2111 -1.53978 0
M  V30 368 H 33.4153 -0.698406 0.265025 0
M  V30 369 H 36.0773 -1.44885 1.30362 0
M  V30 370 H 35.1733 -2.94987 1.01926 0
M  V30 371 N 35.4744 -0.807222 -1.35358 0
M  V30 372 C 36.7234 -0.384376 -1.98004 0
M  V30 373 C 37.0364 1.0543 -1.64754 0
M  V30 374 O 38.2424 1.58029 -2.20769 0
M  V30 375 C 36.6984 -0.636326 -3.5423 0
M  V30 376 C 36.3064 -2.08759 -3.96388 0
M  V30 377 C 38.0504 -0.278869 -4.23583 0
M  V30 378 C 35.9574 -2.28525 -5.45463 0
M  V30 379 H 34.8874 -0.139986 -0.740891 0
M  V30 380 H 37.5384 -0.991369 -1.54415 0
M  V30 381 H 35.9204 0.0406256 -3.95979 0
M  V30 382 H 37.0944 -2.8024 -3.6579 0
M  V30 383 H 35.4094 -2.40497 -3.39926 0
M  V30 384 H 38.0064 -0.404599 -5.33167 0
M  V30 385 H 38.3494 0.775012 -4.09022 0
M  V30 386 H 38.8824 -0.909764 -3.87257 0
M  V30 387 H 35.6214 -3.32361 -5.64992 0
M  V30 388 H 35.1414 -1.61569 -5.77629 0
M  V30 389 H 36.8204 -2.10109 -6.11934 0
M  V30 390 N 36.9525 1.47285 -0.560781 0
M  V30 391 C 38.1805 2.06855 -0.0430262 0
M  V30 392 C 38.5955 1.41291 1.25229 0
M  V30 393 O 37.9525 0.510648 1.7521 0
M  V30 394 C 38.0035 3.61178 0.152518 0
M  V30 395 O 37.7245 4.24285 -1.0915 0
M  V30 396 C 39.2255 4.37624 0.707145 0
M  V30 397 H 36.4455 0.669319 -0.0474652 0
M  V30 398 H 38.9895 1.89237 -0.77521 0
M  V30 399 H 37.1445 3.78298 0.834843 0
M  V30 400 H 37.5585 5.16868 -0.891482 0
M  V30 401 H 39.0325 5.46271 0.793244 0
M  V30 402 H 39.5095 4.04152 1.71923 0
M  V30 403 H 40.1155 4.25257 0.0604027 0
M  V30 404 N 38.4306 0.297415 1.54768 0
M  V30 405 C 39.6796 -0.313669 1.99246 0
M  V30 406 C 39.9926 -1.55281 1.18942 0
M  V30 407 O 41.1986 -2.23825 1.5367 0
M  V30 408 C 39.6546 -0.609407 3.54703 0
M  V30 409 C 39.2626 0.611192 4.43811 0
M  V30 410 C 41.0066 -1.18188 4.07715 0
M  V30 411 C 38.9136 0.288805 5.90694 0
M  V30 412 H 37.8436 -0.120979 0.744231 0
M  V30 413 H 40.4946 0.40556 1.78962 0
M  V30 414 H 38.8766 -1.38813 3.70873 0
M  V30 415 H 40.0506 1.3875 4.39414 0
M  V30 416 H 38.3656 1.10205 4.01552 0
M  V30 417 H 40.9626 -1.43727 5.15021 0
M  V30 418 H 41.3056 -2.12299 3.58099 0
M  V30 419 H 41.8386 -0.464944 3.95074 0
M  V30 420 H 38.5776 1.19838 6.44453 0
M  V30 421 H 38.0976 -0.450305 5.98107 0
M  V30 422 H 39.7766 -0.110933 6.46905 0
M  V30 423 N 39.9087 -1.5758 0.0250728 0
M  V30 424 C 41.3197 -1.79476 -0.514323 0
M  V30 425 C 41.6707 -0.934956 -1.72491 0
M  V30 426 O 40.7957 -0.144245 -2.15919 0
M  V30 427 C 41.3907 -3.25503 -0.939842 0
M  V30 428 C 39.9497 -3.48408 -1.42438 0
M  V30 429 C 39.0967 -2.74583 -0.387201 0
M  V30 430 H 42.0477 -1.567 0.25113 0
M  V30 431 H 42.0687 -3.34992 -1.80445 0
M  V30 432 H 41.5807 -3.88056 -0.0585628 0
M  V30 433 H 39.6817 -2.91103 -2.32572 0
M  V30 434 H 39.7947 -4.57119 -1.43455 0
M  V30 435 H 38.1587 -2.39942 -0.854409 0
M  V30 436 H 38.9417 -3.39849 0.485543 0
M  V30 437 N 41.3868 0.248026 -1.55636 0
M  V30 438 C 42.8028 0.596483 -1.48035 0
M  V30 439 C 43.0028 1.88386 -0.715039 0
M  V30 440 O 42.0588 2.51319 -0.243944 0
M  V30 441 C 43.3718 0.700258 -2.92433 0
M  V30 442 C 44.9198 0.792659 -3.02797 0
M  V30 443 C 45.3948 0.928005 -4.485 0
M  V30 444 N 46.8858 0.992903 -4.52433 0
M  V30 445 C 47.6208 1.11687 -5.62418 0
M  V30 446 N 47.1168 1.20645 -6.82214 0
M  V30 447 N 48.9098 1.14994 -5.50212 0
M  V30 448 H 41.0608 -0.597109 -2.03834 0
M  V30 449 H 43.3238 -0.205925 -0.925364 0
M  V30 450 H 43.0298 -0.175658 -3.51261 0
M  V30 451 H 42.9038 1.57255 -3.42857 0
M  V30 452 H 45.2908 1.65903 -2.4405 0
M  V30 453 H 45.3718 -0.104762 -2.55585 0
M  V30 454 H 45.0158 0.0661971 -5.07857 0
M  V30 455 H 44.9458 1.84045 -4.93391 0
M  V30 456 H 47.4368 0.935064 -3.66149 0
M  V30 457 H 47.7498 1.30008 -7.61786 0
M  V30 458 H 46.0948 1.17605 -6.84977 0
M  V30 459 H 49.2858 1.07643 -4.55555 0
M  V30 460 H 49.4588 1.24311 -6.35965 0
M  V30 461 N 42.8649 1.48995 0.513639 0
M  V30 462 C 43.8129 1.65199 1.63744 0
M  V30 463 C 44.8069 0.51809 1.61283 0
M  V30 464 O 46.0129 0.697335 1.65943 0
M  V30 465 H 42.3879 0.52069 0.542574 0
M  V30 466 H 44.3589 2.59552 1.47226 0
M  V30 467 C 43.1079 1.72409 3.01945 0
M  V30 468 H 42.4309 2.59029 3.04539 0
M  V30 469 H 43.8709 1.87785 3.80148 0
M  V30 470 C 42.3299 0.46618 3.33659 0
M  V30 471 O 42.8599 -0.413744 3.99564 0
M  V30 472 N 41.0659 0.332931 2.88687 0
M  V30 473 H 40.6129 1.04996 2.35231 0
M  V30 474 H 40.5709 -0.507665 3.10274 0
M  V30 475 N 44.343 -0.763751 1.37857 0
M  V30 476 C 45.754 -1.3405 1.29952 0
M  V30 477 C 46.105 -1.96138 -0.0492898 0
M  V30 478 O 45.23 -1.94372 -0.951239 0
M  V30 479 C 45.825 -2.43729 2.35333 0
M  V30 480 C 44.384 -2.97151 2.31037 0
M  V30 481 C 43.531 -1.70438 2.18738 0
M  V30 482 H 46.482 -0.563396 1.48363 0
M  V30 483 H 46.503 -3.23412 2.00462 0
M  V30 484 H 46.015 -1.9851 3.33489 0
M  V30 485 H 44.116 -3.46724 1.3643 0
M  V30 486 H 44.229 -3.52221 3.24772 0
M  V30 487 H 42.593 -1.93673 1.65418 0
M  V30 488 H 43.376 -1.27312 3.18821 0
M  V30 489 N 45.8211 -1.22559 -0.990812 0
M  V30 490 C 47.0691 -1.04933 -1.72724 0
M  V30 491 C 47.3901 0.416158 -1.90508 0
M  V30 492 O 46.6601 1.29918 -1.46622 0
M  V30 493 H 45.2401 -0.385296 -0.639965 0
M  V30 494 H 47.9021 -1.54105 -1.19322 0
M  V30 495 H 46.9981 -1.52886 -2.72089 0
M  V30 496 N 47.2992 1.18797 -1.03562 0
M  V30 497 C 48.5392 1.90346 -0.744832 0
M  V30 498 C 48.9032 1.78231 0.713972 0
M  V30 499 O 50.1042 2.44441 1.11813 0
M  V30 500 C 48.3752 3.36942 -1.19184 0
M  V30 501 S 49.9342 4.26638 -1.02593 0
M  V30 502 H 46.7522 0.657343 -0.270963 0
M  V30 503 H 49.3542 1.43579 -1.32685 0
M  V30 504 H 48.0582 3.43287 -2.24905 0
M  V30 505 H 47.5892 3.88745 -0.603397 0
M  V30 506 H 49.6042 4.96164 0.0596033 0
M  V30 507 N 48.7773 0.814389 1.34928 0
M  V30 508 C 50.1883 0.458364 1.80986 0
M  V30 509 C 50.5393 -1.02042 1.67577 0
M  V30 510 O 49.6643 -1.79352 1.21086 0
M  V30 511 C 50.2593 0.825212 3.28597 0
M  V30 512 C 48.8183 0.521677 3.72767 0
M  V30 513 C 47.9653 1.04668 2.56788 0
M  V30 514 H 50.9163 1.00533 1.22795 0
M  V30 515 H 50.9373 0.12571 3.80292 0
M  V30 516 H 50.4493 1.90154 3.38324 0
M  V30 517 H 48.5503 -0.545589 3.68584 0
M  V30 518 H 48.6633 1.05977 4.67232 0
M  V30 519 H 47.0273 0.468622 2.50352 0
M  V30 520 H 47.8103 2.12927 2.6929 0
M  V30 521 N 50.2554 -1.46986 0.568584 0
M  V30 522 C 51.2034 -2.31858 -0.185649 0
M  V30 523 C 52.1974 -1.43624 -0.898249 0
M  V30 524 O 53.4034 -1.60327 -0.818242 0
M  V30 525 H 49.7784 -0.747866 -0.0787399 0
M  V30 526 H 51.7494 -2.93303 0.549191 0
M  V30 527 C 50.4984 -3.26513 -1.19519 0
M  V30 528 H 49.8214 -3.94377 -0.656285 0
M  V30 529 H 51.2614 -3.88707 -1.6936 0
M  V30 530 C 49.7204 -2.50847 -2.24894 0
M  V30 531 O 50.2504 -2.26119 -3.32014 0
M  V30 532 N 48.4564 -2.11656 -1.99124 0
M  V30 533 H 48.0034 -2.31966 -1.12024 0
M  V30 534 H 47.9614 -1.61347 -2.69842 0
M  V30 535 N 51.7335 -0.305618 -1.54608 0
M  V30 536 C 52.9585 0.307562 -2.05107 0
M  V30 537 C 53.3835 1.46385 -1.18123 0
M  V30 538 O 52.7415 1.8034 -0.186324 0
M  V30 539 C 52.7895 0.73704 -3.52987 0
M  V30 540 O 51.8935 1.84134 -3.6901 0
M  V30 541 H 51.2345 0.0589143 -0.661381 0
M  V30 542 H 53.7645 -0.448807 -1.99617 0
M  V30 543 H 53.7745 1.02459 -3.94925 0
M  V30 544 H 52.4495 -0.108773 -4.15758 0
M  V30 545 H 51.0265 1.55398 -3.38978 0
M  V30 546 N 53.2116 1.57565 -0.0334293 0
M  V30 547 C 54.1216 2.13943 0.962572 0
M  V30 548 C 55.1376 1.09276 1.35406 0
M  V30 549 O 56.3136 1.41355 1.4346 0
M  V30 550 C 53.3786 2.65887 2.22497 0
M  V30 551 C 52.4396 3.85286 1.8935 0
M  V30 552 C 51.6726 4.34743 3.09571 0
M  V30 553 O 51.8956 3.83352 4.22371 0
M  V30 554 O 50.8296 5.26538 2.91618 0
M  V30 555 H 54.6556 2.99333 0.513169 0
M  V30 556 H 52.2406 1.4822 0.18743 0
M  V30 557 H 54.1226 2.99346 2.96598 0
M  V30 558 H 52.7976 1.83578 2.6661 0
M  V30 559 H 51.7046 3.56746 1.1262 0
M  V30 560 H 53.0376 4.68771 1.5005 0
M  V30 561 N 54.6897 -0.239769 1.55765 0
M  V30 562 C 55.9667 -0.990056 1.68693 0
M  V30 563 C 56.3467 -2.03107 0.5754 0
M  V30 564 O 55.6947 -2.24604 -0.42017 0
M  V30 565 C 55.9047 -1.61696 3.09282 0
M  V30 566 C 57.2527 -2.11613 3.6811 0
M  V30 567 O 58.2767 -1.71624 3.12127 0
M  V30 568 O 57.1357 -2.85057 4.66267 0
M  V30 569 H 54.2297 -0.461299 0.686391 0
M  V30 570 H 56.7757 -0.232991 1.68093 0
M  V30 571 H 55.5477 -0.864357 3.81634 0
M  V30 572 H 55.1707 -2.44005 3.13923 0
M  V30 573 N 56.1678 -1.49265 -0.50573 0
M  V30 574 C 57.1148 -1.65585 -1.6078 0
M  V30 575 C 58.0848 -0.497396 -1.58478 0
M  V30 576 O 59.2698 -0.72385 -1.76536 0
M  V30 577 C 56.4098 -1.72408 -2.98948 0
M  V30 578 C 55.5228 -2.99525 -3.11301 0
M  V30 579 C 54.6578 -2.97356 -4.40174 0
M  V30 580 C 53.6968 -4.19074 -4.46143 0
M  V30 581 N 52.8338 -4.14841 -5.66437 0
M  V30 582 H 57.6738 -2.59688 -1.46172 0
M  V30 583 H 55.2108 -1.28761 -0.711261 0
M  V30 584 H 57.1688 -1.74344 -3.79025 0
M  V30 585 H 55.7988 -0.817753 -3.1227 0
M  V30 586 H 54.8508 -3.07222 -2.24318 0
M  V30 587 H 56.1628 -3.89518 -3.11572 0
M  V30 588 H 55.3168 -2.97829 -5.28567 0
M  V30 589 H 54.0558 -2.05133 -4.42461 0
M  V30 590 H 53.0608 -4.1885 -3.56153 0
M  V30 591 H 54.2858 -5.12483 -4.45575 0
M  V30 592 H 52.2318 -3.25453 -5.69575 0
M  V30 593 H 52.1488 -4.98564 -5.68304 0
M  V30 594 H 53.4168 -4.1941 -6.57051 0
M  V30 595 N 57.6459 0.756429 -1.3826 0
M  V30 596 C 58.5939 1.89149 -1.35372 0
M  V30 597 C 59.5879 1.67691 -0.24004 0
M  V30 598 O 60.7939 1.75294 -0.408919 0
M  V30 599 H 57.1689 0.622271 -0.422236 0
M  V30 600 H 59.1399 1.88701 -2.31159 0
M  V30 601 C 57.8889 3.26599 -1.19284 0
M  V30 602 H 57.2119 3.43695 -2.0424 0
M  V30 603 H 58.6519 4.06274 -1.21316 0
M  V30 604 C 57.1109 3.3675 0.100454 0
M  V30 605 O 57.6409 3.86951 1.07851 0
M  V30 606 N 55.8469 2.90179 0.15633 0
M  V30 607 H 55.3939 2.49517 -0.640253 0
M  V30 608 H 55.3519 2.97352 1.02123 0
M  V30 609 N 59.124 1.23083 0.984299 0
M  V30 610 C 60.371 1.06057 1.72505 0
M  V30 611 C 60.699 -0.403105 1.90277 0
M  V30 612 O 59.954 -1.3149 1.44944 0
M  V30 613 C 60.253 1.72673 3.1292 0
M  V30 614 C 59.919 3.22586 3.15038 0
M  V30 615 C 58.581 3.63489 3.15324 0
M  V30 616 C 60.933 4.185 3.10657 0
M  V30 617 C 58.261 4.98772 3.08939 0
M  V30 618 C 60.613 5.53769 3.05814 0
M  V30 619 C 59.277 5.94041 3.04419 0
M  V30 620 H 58.547 0.388091 0.631242 0
M  V30 621 H 61.194 1.52963 1.15215 0
M  V30 622 H 59.499 1.18116 3.73572 0
M  V30 623 H 61.196 1.56982 3.68996 0
M  V30 624 H 57.786 2.90022 3.15571 0
M  V30 625 H 61.97 3.87911 3.09579 0
M  V30 626 H 57.226 5.29193 3.0621 0
M  V30 627 H 61.4 6.27808 3.0138 0
M  V30 628 H 59.027 6.98833 2.99227 0
M  V30 629 N 60.6021 -1.18246 1.0419 0
M  V30 630 C 62.0131 -1.69914 0.773698 0
M  V30 631 C 62.3641 -1.83085 -0.705297 0
M  V30 632 O 61.4891 -1.51123 -1.5489 0
M  V30 633 C 62.0841 -3.08619 1.39784 0
M  V30 634 C 60.6431 -3.57494 1.17792 0
M  V30 635 C 59.7901 -2.34013 1.48773 0
M  V30 636 H 62.7411 -1.02904 1.20816 0
M  V30 637 H 62.7621 -3.71958 0.801714 0
M  V30 638 H 62.2741 -2.99001 2.47426 0
M  V30 639 H 60.3751 -3.72406 0.120295 0
M  V30 640 H 60.4881 -4.40852 1.87581 0
M  V30 641 H 58.8521 -2.37986 0.907463 0
M  V30 642 H 59.6351 -2.27013 2.57527 0
M  V30 643 N 62.0802 -0.821533 -1.34494 0
M  V30 644 C 63.4962 -0.507117 -1.51329 0
M  V30 645 C 63.6962 0.968964 -1.76673 0
M  V30 646 O 62.7522 1.75348 -1.81685 0
M  V30 647 C 64.0652 -1.36544 -2.67911 0
M  V30 648 C 65.6132 -1.36242 -2.81793 0
M  V30 649 C 66.0882 -2.2052 -4.01416 0
M  V30 650 N 67.5792 -2.18136 -4.08621 0
M  V30 651 C 68.3142 -2.80095 -5.00334 0
M  V30 652 N 67.8102 -3.51039 -5.9728 0
M  V30 653 N 69.6032 -2.69656 -4.93196 0
M  V30 654 H 61.7542 -1.77729 -1.16302 0
M  V30 655 H 64.0172 -0.757291 -0.570276 0
M  V30 656 H 63.7232 -2.41361 -2.55808 0
M  V30 657 H 63.5972 -1.02917 -3.62888 0
M  V30 658 H 65.9842 -0.322041 -2.93338 0
M  V30 659 H 66.0652 -1.73866 -1.87628 0
M  V30 660 H 65.7092 -3.24607 -3.90631 0
M  V30 661 H 65.6392 -1.80247 -4.94791 0
M  V30 662 H 68.1302 -1.6653 -3.39229 0
M  V30 663 H 68.4432 -3.95565 -6.63889 0
M  V30 664 H 66.7882 -3.55145 -5.97409 0
M  V30 665 H 69.9792 -2.13808 -4.16418 0
M  V30 666 H 70.1522 -3.1823 -5.64476 0
M  V30 667 N 63.5583 1.46682 -0.576371 0
M  V30 668 C 64.7863 2.06798 -0.0649635 0
M  V30 669 C 65.2013 1.42612 1.23723 0
M  V30 670 O 64.5583 0.529203 1.74659 0
M  V30 671 C 64.6093 3.6132 0.114202 0
M  V30 672 O 64.3303 4.23104 -1.13644 0
M  V30 673 C 65.8313 4.38349 0.66069 0
M  V30 674 H 63.0513 0.668778 -0.0545616 0
M  V30 675 H 65.5953 1.88404 -0.795237 0
M  V30 676 H 63.7503 3.79162 0.794673 0
M  V30 677 H 64.1643 5.15894 -0.946253 0
M  V30 678 H 65.6383 5.47081 0.73526 0
M  V30 679 H 66.1153 4.05953 1.67627 0
M  V30 680 H 66.7213 4.25297 0.0152951 0
M  V30 681 N 65.0364 0.313813 1.54444 0
M  V30 682 C 66.2824 -0.292108 2.00685 0
M  V30 683 C 66.6154 -1.52548 1.20177 0
M  V30 684 O 65.8904 -1.92452 0.281531 0
M  V30 685 C 66.1734 -0.635968 3.5444 0
M  V30 686 C 66.0264 0.607437 4.4568 0
M  V30 687 C 67.3454 -1.45747 4.15266 0
M  V30 688 H 64.4644 -0.104697 0.729526 0
M  V30 689 H 67.1064 0.428457 1.85106 0
M  V30 690 H 65.2564 -1.24986 3.67846 0
M  V30 691 H 66.9284 1.24581 4.44159 0
M  V30 692 H 65.1714 1.23822 4.15753 0
M  V30 693 H 65.8424 0.322515 5.51057 0
M  V30 694 H 68.3184 -0.938645 4.05375 0
M  V30 695 H 67.1944 -1.66683 5.2298 0
M  V30 696 H 67.4554 -2.45063 3.67963 0
M  V30 697 N 66.5145 -1.57545 0.0417849 0
M  V30 698 C 67.4475 -2.06514 -0.970928 0
M  V30 699 C 68.4255 -0.963607 -1.30971 0
M  V30 700 O 69.6095 -1.23486 -1.4242 0
M  V30 701 C 66.7365 -2.4978 -2.28752 0
M  V30 702 C 65.7825 -3.71078 -2.10246 0
M  V30 703 S 66.6155 -5.17158 -1.38952 0
M  V30 704 C 67.7715 -5.6373 -2.71954 0
M  V30 705 H 68.0045 -2.9209 -0.554129 0
M  V30 706 H 65.5375 -1.53459 -0.17024 0
M  V30 707 H 67.4955 -2.75371 -3.04435 0
M  V30 708 H 66.1565 -1.64527 -2.67562 0
M  V30 709 H 65.3495 -3.9924 -3.07609 0
M  V30 710 H 64.9515 -3.45705 -1.42704 0
M  V30 711 H 67.2435 -5.68743 -3.68154 0
M  V30 712 H 68.1865 -6.63086 -2.4844 0
M  V30 713 H 68.5945 -4.91424 -2.77782 0
M  V30 714 N 67.9926 0.231505 -1.5589 0
M  V30 715 C 69.2386 0.95877 -1.78705 0
M  V30 716 C 69.5716 1.8438 -0.609725 0
M  V30 717 O 68.8466 1.90521 0.391426 0
M  V30 718 C 69.1296 1.8062 -3.11526 0
M  V30 719 C 68.9826 0.948328 -4.39689 0
M  V30 720 C 70.3016 2.78585 -3.40703 0
M  V30 721 H 67.4206 0.347129 -0.650131 0
M  V30 722 H 70.0626 0.228259 -1.88624 0
M  V30 723 H 68.2126 2.42902 -3.03201 0
M  V30 724 H 69.8846 0.343016 -4.60023 0
M  V30 725 H 68.1276 0.253314 -4.3306 0
M  V30 726 H 68.7986 1.57543 -5.29041 0
M  V30 727 H 71.2746 2.26439 -3.49091 0
M  V30 728 H 70.1506 3.34988 -4.34826 0
M  V30 729 H 70.4116 3.55825 -2.62375 0
M  V30 730 N 69.4707 1.49531 0.497807 0
M  V30 731 C 70.4187 1.66926 1.61983 0
M  V30 732 C 71.4127 0.535167 1.60724 0
M  V30 733 O 72.6187 0.714896 1.65195 0
M  V30 734 H 68.9937 0.526415 0.537021 0
M  V30 735 H 70.9647 2.61098 1.44465 0
M  V30 736 C 69.7137 1.75602 3.00099 0
M  V30 737 H 69.0367 2.62244 3.01775 0
M  V30 738 H 70.4767 1.91807 3.78135 0
M  V30 739 C 68.9357 0.501543 3.33146 0
M  V30 740 O 69.4657 -0.371342 3.9998 0
M  V30 741 N 67.6717 0.363531 2.88317 0
M  V30 742 H 67.2187 1.07485 2.34104 0
M  V30 743 H 67.1767 -0.474728 3.10795 0
M  V30 744 N 70.9488 -0.749086 1.3866 0
M  V30 745 C 71.8788 -1.8764 1.38973 0
M  V30 746 C 72.8598 -1.68178 0.255004 0
M  V30 747 O 74.0448 -1.88704 0.458754 0
M  V30 748 C 71.1748 -3.25222 1.21851 0
M  V30 749 C 70.1288 -3.59295 2.32575 0
M  V30 750 C 69.4548 -4.95663 2.00555 0
M  V30 751 C 70.7548 -3.63709 3.7485 0
M  V30 752 H 72.4488 -1.87635 2.3331 0
M  V30 753 H 69.9948 -0.901329 1.12303 0
M  V30 754 H 71.9478 -4.03746 1.20695 0
M  V30 755 H 70.6718 -3.25719 0.239775 0
M  V30 756 H 69.3308 -2.83093 2.32925 0
M  V30 757 H 68.9788 -4.92724 1.01154 0
M  V30 758 H 68.6788 -5.19429 2.74714 0
M  V30 759 H 70.2028 -5.7656 2.01024 0
M  V30 760 H 71.6168 -4.32338 3.76506 0
M  V30 761 H 70.0138 -3.98986 4.48252 0
M  V30 762 H 71.0838 -2.63834 4.06841 0
M  V30 763 N 72.4269 -1.23603 -0.977757 0
M  V30 764 C 73.3749 -1.01704 -2.09187 0
M  V30 765 C 74.3689 0.0448214 -1.69341 0
M  V30 766 O 75.5749 -0.108902 -1.7967 0
M  V30 767 H 71.9499 -0.311803 -0.684312 0
M  V30 768 H 73.9209 -1.96207 -2.24823 0
M  V30 769 C 72.6699 -0.627746 -3.41986 0
M  V30 770 H 71.9929 -1.43656 -3.73099 0
M  V30 771 H 73.4329 -0.514053 -4.20872 0
M  V30 772 C 71.8919 0.664238 -3.30287 0
M  V30 773 O 72.4219 1.71268 -3.6336 0
M  V30 774 N 70.6279 0.641156 -2.83439 0
M  V30 775 H 70.1749 -0.212376 -2.56723 0
M  V30 776 H 70.1329 1.50583 -2.75993 0
M  V30 777 N 73.905 1.17692 -1.04816 0
M  V30 778 C 75.154 1.87192 -0.751132 0
M  V30 779 C 75.467 1.8169 0.724441 0
M  V30 780 O 76.673 2.46625 1.13527 0
M  V30 781 C 75.129 3.35857 -1.29338 0
M  V30 782 C 74.737 3.4987 -2.79812 0
M  V30 783 C 76.481 4.10709 -1.07322 0
M  V30 784 C 74.388 4.92536 -3.27356 0
M  V30 785 H 73.318 0.701162 -0.277288 0
M  V30 786 H 75.969 1.32932 -1.26496 0
M  V30 787 H 74.351 3.89631 -0.707376 0
M  V30 788 H 75.525 3.06332 -3.44235 0
M  V30 789 H 73.84 2.88433 -3.00325 0
M  V30 790 H 76.437 5.15952 -1.4035 0
M  V30 791 H 76.78 4.16299 -0.0108001 0
M  V30 792 H 77.313 3.6313 -1.62423 0
M  V30 793 H 74.052 4.92119 -4.33012 0
M  V30 794 H 73.572 5.3676 -2.67673 0
M  V30 795 H 75.251 5.61288 -3.21815 0
M  V30 796 N 75.3831 0.828654 1.34056 0
M  V30 797 C 76.3331 0.226828 2.26869 0
M  V30 798 C 77.3171 -0.612243 1.48796 0
M  V30 799 O 78.5091 -0.465884 1.70759 0
M  V30 800 C 75.6381 -0.605654 3.37915 0
M  V30 801 C 74.7241 0.244361 4.23395 0
M  V30 802 N 75.1151 1.31815 4.88322 0
M  V30 803 C 73.4131 0.0296616 4.4599 0
M  V30 804 C 74.1141 1.83895 5.51867 0
M  V30 805 N 73.0901 1.14196 5.3147 0
M  V30 806 H 76.8921 1.04811 2.74576 0
M  V30 807 H 74.4061 0.67205 1.47842 0
M  V30 808 H 76.4031 -1.05302 4.03382 0
M  V30 809 H 75.0631 -1.42504 2.91758 0
M  V30 810 H 76.0741 1.70099 4.8917 0
M  V30 811 H 72.7511 -0.757097 4.10578 0
M  V30 812 H 74.1411 2.7376 6.136 0
M  V30 813 N 76.8612 -1.46375 0.584142 0
M  V30 814 C 77.8092 -2.32042 -0.161047 0
M  V30 815 C 78.8032 -1.44569 -0.882966 0
M  V30 816 O 80.0092 -1.61186 -0.801191 0
M  V30 817 H 76.3842 -0.748659 -0.0708033 0
M  V30 818 H 78.3552 -2.92704 0.580269 0
M  V30 819 C 77.1042 -3.27762 -1.1605 0
M  V30 820 H 76.4272 -3.95051 -0.614419 0
M  V30 821 H 77.8672 -3.90481 -1.65228 0
M  V30 822 C 76.3262 -2.53218 -2.22221 0
M  V30 823 O 76.8562 -2.29628 -3.29597 0
M  V30 824 N 75.0622 -2.13756 -1.96868 0
M  V30 825 H 74.6092 -2.33142 -1.09557 0
M  V30 826 H 74.5672 -1.642 -2.68115 0
M  V30 827 N 78.3393 -0.321999 -1.54275 0
M  V30 828 C 79.7553 0.0306999 -1.5957 0
M  V30 829 C 79.9553 1.50614 -1.33857 0
M  V30 830 O 79.0113 2.2619 -1.12223 0
M  V30 831 C 80.3243 -0.386122 -2.98211 0
M  V30 832 C 81.8723 -0.336647 -3.11184 0
M  V30 833 C 82.3473 -0.728607 -4.52167 0
M  V30 834 N 83.8383 -0.681952 -4.58152 0
M  V30 835 C 84.5733 -0.957449 -5.6535 0
M  V30 836 N 84.0693 -1.3 -6.80494 0
M  V30 837 N 85.8623 -0.883113 -5.55119 0
M  V30 838 H 78.0133 -1.28332 -1.69247 0
M  V30 839 H 80.2763 -0.521716 -0.791528 0
M  V30 840 H 79.9823 -1.41404 -3.22022 0
M  V30 841 H 79.8563 0.249662 -3.76373 0
M  V30 842 H 82.2433 0.682058 -2.8711 0
M  V30 843 H 82.3243 -1.00734 -2.3513 0
M  V30 844 H 81.9683 -1.74522 -4.76974 0
M  V30 845 H 81.8983 -0.0356152 -5.26588 0
M  V30 846 H 84.3893 -0.428985 -3.75457 0
M  V30 847 H 84.7023 -1.49563 -7.58189 0
M  V30 848 H 83.0473 -1.33824 -6.81994 0
M  V30 849 H 86.2383 -0.615001 -4.64042 0
M  V30 850 H 86.4113 -1.10118 -6.38575 0
M  V30 851 N 79.8174 1.5752 -0.0501392 0
M  V30 852 C 80.7654 2.12651 0.942459 0
M  V30 853 C 81.7594 1.05807 1.32292 0
M  V30 854 O 82.9654 1.24217 1.3027 0
M  V30 855 H 79.3404 0.679673 0.321789 0
M  V30 856 H 81.3114 2.94951 0.452356 0
M  V30 857 C 80.0604 2.68565 2.20836 0
M  V30 858 H 79.3834 3.50439 1.92439 0
M  V30 859 H 80.8234 3.10761 2.8845 0
M  V30 860 C 79.2824 1.62291 2.95234 0
M  V30 861 O 79.8124 1.03508 3.88135 0
M  V30 862 N 78.0184 1.33836 2.57946 0
M  V30 863 H 77.5654 1.81826 1.82475 0
M  V30 864 H 77.5234 0.629595 3.08032 0
M  V30 865 N 81.2955 -0.223234 1.56011 0
M  V30 866 C 82.5235 -0.964812 1.83027 0
M  V30 867 C 82.9385 -1.78013 0.62904 0
M  V30 868 O 82.2955 -1.78008 -0.402414 0
M  V30 869 C 82.3465 -1.88373 3.08542 0
M  V30 870 O 82.0675 -1.10137 4.2403 0
M  V30 871 C 83.5685 -2.73934 3.48533 0
M  V30 872 H 80.7885 -0.282842 0.608475 0
M  V30 873 H 83.3325 -0.238971 2.03099 0
M  V30 874 H 81.4875 -2.56354 2.9045 0
M  V30 875 H 81.9015 -1.72501 4.95322 0
M  V30 876 H 83.3755 -3.34117 4.39397 0
M  V30 877 H 83.8525 -3.46244 2.70207 0
M  V30 878 H 84.4585 -2.11369 3.69057 0
M  V30 879 N 82.7736 -1.49793 -0.48987 0
M  V30 880 C 83.7216 -1.67783 -1.61095 0
M  V30 881 C 84.7156 -0.543683 -1.60438 0
M  V30 882 O 85.9216 -0.723647 -1.64813 0
M  V30 883 H 82.2966 -0.529255 -0.534222 0
M  V30 884 H 84.2676 -2.61861 -1.43078 0
M  V30 885 C 83.0166 -1.77191 -2.99164 0
M  V30 886 H 82.3396 -2.63841 -3.0038 0
M  V30 887 H 83.7796 -1.93809 -3.77113 0
M  V30 888 C 82.2386 -0.519203 -3.32875 0
M  V30 889 O 82.7686 0.350124 -4.00171 0
M  V30 890 N 80.9746 -0.378816 -2.8812 0
M  V30 891 H 80.5216 -1.08725 -2.33531 0
M  V30 892 H 80.4796 0.458239 -3.11043 0
M  V30 893 N 84.2517 0.741722 -1.39055 0
M  V30 894 C 85.4797 1.53098 -1.39171 0
M  V30 895 C 85.8947 1.88794 0.0155099 0
M  V30 896 O 85.2517 1.53626 0.985159 0
M  V30 897 C 85.3027 2.82274 -2.2584 0
M  V30 898 O 85.0237 2.48097 -3.61081 0
M  V30 899 C 86.5247 3.76343 -2.34266 0
M  V30 900 H 83.7447 0.473335 -0.4756 0
M  V30 901 H 86.2887 0.917045 -1.82785 0
M  V30 902 H 84.4437 3.40015 -1.85656 0
M  V30 903 H 84.8577 3.31029 -4.06842 0
M  V30 904 H 86.3317 4.63898 -2.9917 0
M  V30 905 H 86.8087 4.17619 -1.35982 0
M  V30 906 H 87.4147 3.24523 -2.74891 0
M  V30 907 N 85.7298 1.2412 0.971189 0
M  V30 908 C 86.6778 1.02812 2.08644 0
M  V30 909 C 87.6718 -0.0358403 1.69362 0
M  V30 910 O 88.8778 0.118429 1.7961 0
M  V30 911 H 85.2528 0.315428 0.682649 0
M  V30 912 H 87.2238 1.97397 2.23779 0
M  V30 913 C 85.9728 0.645874 3.41649 0
M  V30 914 H 85.2958 1.45632 3.72332 0
M  V30 915 H 86.7358 0.536366 4.20594 0
M  V30 916 C 85.1948 -0.646713 3.30635 0
M  V30 917 O 85.7248 -1.69338 3.64263 0
M  V30 918 N 83.9308 -0.626115 2.83775 0
M  V30 919 H 83.4778 0.225988 2.56607 0
M  V30 920 H 83.4358 -1.49117 2.76788 0
M  V30 921 N 87.2079 -1.17134 1.05439 0
M  V30 922 C 88.6189 -1.69084 0.791676 0
M  V30 923 C 88.9699 -1.83822 -0.685839 0
M  V30 924 O 88.0949 -1.52757 -1.53278 0
M  V30 925 C 88.6899 -3.07119 1.4305 0
M  V30 926 C 87.2489 -3.56225 1.21577 0
M  V30 927 C 86.3959 -2.32421 1.51247 0
M  V30 928 H 89.3469 -1.01617 1.219 0
M  V30 929 H 89.3679 -3.71087 0.84112 0
M  V30 930 H 88.8799 -2.9636 2.50584 0
M  V30 931 H 86.9809 -3.72257 0.159787 0
M  V30 932 H 87.0939 -4.38837 1.92246 0
M  V30 933 H 85.4579 -2.3701 0.932653 0
M  V30 934 H 86.2409 -2.24268 2.5992 0
M  V30 935 N 88.686 -0.835752 -1.33615 0
M  V30 936 C 89.633 -0.26473 -2.29277 0
M  V30 937 C 90.603 0.617712 -1.54187 0
M  V30 938 O 91.788 0.556641 -1.825 0
M  V30 939 C 88.928 0.556777 -3.40579 0
M  V30 940 C 88.041 -0.349339 -4.30585 0
M  V30 941 C 87.176 0.482969 -5.29 0
M  V30 942 C 86.215 -0.421732 -6.10645 0
M  V30 943 N 85.352 0.372262 -7.01112 0
M  V30 944 H 90.192 -1.08582 -2.77514 0
M  V30 945 H 87.729 -0.546927 -1.36554 0
M  V30 946 H 89.687 1.04852 -4.03809 0
M  V30 947 H 88.317 1.34286 -2.93542 0
M  V30 948 H 87.369 -0.959372 -3.68104 0
M  V30 949 H 88.681 -1.04445 -4.87742 0
M  V30 950 H 87.835 1.03866 -5.97743 0
M  V30 951 H 86.574 1.21153 -4.72412 0
M  V30 952 H 85.579 -0.989464 -5.40823 0
M  V30 953 H 86.804 -1.14861 -6.69316 0
M  V30 954 H 84.75 1.08426 -6.46977 0
M  V30 955 H 84.667 -0.264198 -7.55538 0
M  V30 956 H 85.935 0.910293 -7.74167 0
M  V30 957 N 90.1641 1.46063 -0.591896 0
M  V30 958 C 91.5801 1.57561 -0.254288 0
M  V30 959 C 91.7801 1.58565 1.24336 0
M  V30 960 O 90.8361 1.50753 2.02558 0
M  V30 961 C 92.1491 2.86549 -0.911611 0
M  V30 962 C 93.6971 3.00197 -0.886059 0
M  V30 963 C 94.1721 4.31933 -1.5231 0
M  V30 964 N 95.6631 4.38654 -1.48786 0
M  V30 965 C 96.3981 5.39222 -1.95006 0
M  V30 966 N 95.8941 6.46414 -2.49241 0
M  V30 967 N 97.6871 5.3048 -1.85868 0
M  V30 968 H 89.8381 1.43655 -1.56451 0
M  V30 969 H 92.1011 0.68583 -0.654478 0
M  V30 970 H 91.8071 2.91651 -1.96551 0
M  V30 971 H 91.6811 3.74794 -0.425368 0
M  V30 972 H 94.0681 2.9467 0.159246 0
M  V30 973 H 94.1491 2.13403 -1.41041 0
M  V30 974 H 93.7931 4.38217 -2.56765 0
M  V30 975 H 93.7231 5.17516 -0.973891 0
M  V30 976 H 96.2141 3.61793 -1.09151 0
M  V30 977 H 96.5271 7.19376 -2.82344 0
M  V30 978 H 94.8721 6.47208 -2.53272 0
M  V30 979 H 98.0631 4.45643 -1.43248 0
M  V30 980 H 98.2361 6.08711 -2.22204 0
M  V30 981 N 91.6422 0.330177 1.54103 0
M  V30 982 C 92.8672 -0.274893 2.0557 0
M  V30 983 C 93.2922 -1.44487 1.20437 0
M  V30 984 O 92.6502 -1.80021 0.214991 0
M  V30 985 C 92.6982 -0.68079 3.54115 0
M  V30 986 O 91.8022 -1.7824 3.71893 0
M  V30 987 H 91.1432 -0.0483849 0.662235 0
M  V30 988 H 93.6732 0.480508 1.98878 0
M  V30 989 H 93.6832 -0.961635 3.96505 0
M  V30 990 H 92.3582 0.174903 4.15532 0
M  V30 991 H 90.9352 -1.49985 3.41407 0
M  V30 992 N 93.1203 -1.57491 0.0584922 0
M  V30 993 C 94.3453 -1.97711 -0.62652 0
M  V30 994 C 94.7703 -0.936132 -1.63151 0
M  V30 995 O 94.1283 0.099811 -1.81025 0
M  V30 996 C 94.1763 -3.36989 -1.28338 0
M  V30 997 O 93.2803 -3.35433 -2.39913 0
M  V30 998 H 92.6213 -0.643868 -0.162266 0
M  V30 999 H 95.1513 -2.04193 0.129064 0
M  V30 1000 H 95.1613 -3.73879 -1.63335 0
M  V30 1001 H 93.8363 -4.12289 -0.546889 0
M  V30 1002 H 92.4133 -3.10298 -2.06809 0
M  V30 1003 N 94.5984 0.214957 -1.56127 0
M  V30 1004 C 95.8754 0.963093 -1.70247 0
M  V30 1005 C 96.2554 2.02166 -0.60764 0
M  V30 1006 O 95.6034 2.25244 0.384385 0
M  V30 1007 C 95.8134 1.56756 -3.11815 0
M  V30 1008 C 97.1614 2.0573 -3.7143 0
M  V30 1009 O 98.1854 1.66637 -3.14818 0
M  V30 1010 O 97.0444 2.77603 -4.70743 0
M  V30 1011 H 94.1384 0.450321 -0.693643 0
M  V30 1012 H 96.6844 0.206219 -1.68442 0
M  V30 1013 H 95.4564 0.803533 -3.82961 0
M  V30 1014 H 95.0794 2.3898 -3.17765 0
M  V30 1015 N 96.0765 1.50051 0.48192 0
M  V30 1016 C 97.3065 1.63999 1.2565 0
M  V30 1017 C 97.7145 0.318288 1.86504 0
M  V30 1018 O 97.0575 -0.708534 1.69486 0
M  V30 1019 C 97.1195 2.66504 2.4128 0
M  V30 1020 C 96.7835 4.10352 2.01148 0
M  V30 1021 C 97.7805 4.96562 1.54021 0
M  V30 1022 C 95.4655 4.56203 2.10199 0
M  V30 1023 C 97.4595 6.26668 1.16473 0
M  V30 1024 C 95.1465 5.86318 1.72264 0
M  V30 1025 C 96.1445 6.71375 1.25477 0
M  V30 1026 O 95.8325 7.99062 0.880626 0
M  V30 1027 H 95.5645 0.55456 0.386574 0
M  V30 1028 H 98.1185 1.96954 0.582944 0
M  V30 1029 H 96.3485 2.28769 3.11772 0
M  V30 1030 H 98.0375 2.69783 3.03268 0
M  V30 1031 H 98.8035 4.62358 1.46458 0
M  V30 1032 H 94.6825 3.90152 2.45566 0
M  V30 1033 H 98.2265 6.93011 0.798841 0
M  V30 1034 H 94.1235 6.20046 1.79482 0
M  V30 1035 H 94.8915 8.12239 1.01043 0
M  V30 1036 N 97.5546 -0.734337 1.39446 0
M  V30 1037 C 98.7846 -1.52137 1.39778 0
M  V30 1038 C 99.1926 -1.89198 -0.00929312 0
M  V30 1039 O 98.5356 -1.54666 -0.991168 0
M  V30 1040 C 98.5976 -2.83762 2.20724 0
M  V30 1041 C 98.2616 -2.69131 3.69347 0
M  V30 1042 C 99.2586 -2.37635 4.62413 0
M  V30 1043 C 96.9436 -2.85982 4.1294 0
M  V30 1044 C 98.9376 -2.23172 5.97054 0
M  V30 1045 C 96.6246 -2.71137 5.47657 0
M  V30 1046 C 97.6226 -2.39777 6.39528 0
M  V30 1047 O 97.3106 -2.25026 7.71763 0
M  V30 1048 H 97.0426 -0.476717 0.479288 0
M  V30 1049 H 99.5966 -0.915012 1.83893 0
M  V30 1050 H 97.8266 -3.4666 1.71359 0
M  V30 1051 H 99.5156 -3.45383 2.13226 0
M  V30 1052 H 100.282 -2.24267 4.30034 0
M  V30 1053 H 96.1606 -3.09383 3.41765 0
M  V30 1054 H 99.7046 -1.98617 6.68728 0
M  V30 1055 H 95.6016 -2.84083 5.79626 0
M  V30 1056 H 96.3696 -2.40091 7.82495 0
M  V30 1057 N 99.0327 -1.24633 -0.964593 0
M  V30 1058 C 99.9807 -1.03917 -2.08096 0
M  V30 1059 C 100.975 0.0268581 -1.69379 0
M  V30 1060 O 102.181 -0.127952 -1.79545 0
M  V30 1061 H 98.5557 -0.319044 -0.680966 0
M  V30 1062 H 100.527 -1.98581 -2.22729 0
M  V30 1063 C 99.2757 -0.663983 -3.41301 0
M  V30 1064 H 98.5987 -1.47605 -3.71555 0
M  V30 1065 H 100.039 -0.558663 -4.20303 0
M  V30 1066 C 98.4977 0.629169 -3.30973 0
M  V30 1067 O 99.0277 1.67404 -3.65156 0
M  V30 1068 N 97.2337 0.611057 -2.84103 0
M  V30 1069 H 96.7807 -0.239593 -2.56483 0
M  V30 1070 H 96.7387 1.47647 -2.77575 0
M  V30 1071 N 100.511 1.16574 -1.06058 0
M  V30 1072 C 101.927 1.3904 -0.783585 0
M  V30 1073 C 102.127 1.91784 0.618145 0
M  V30 1074 O 101.183 2.11511 1.37911 0
M  V30 1075 C 102.496 2.37329 -1.84649 0
M  V30 1076 C 104.044 2.51018 -1.86973 0
M  V30 1077 C 104.519 3.52588 -2.92311 0
M  V30 1078 N 106.01 3.60113 -2.91329 0
M  V30 1079 C 106.745 4.38486 -3.69482 0
M  V30 1080 N 106.241 5.20302 -4.57447 0
M  V30 1081 N 108.034 4.33446 -3.57885 0
M  V30 1082 H 100.185 0.806725 -1.96483 0
M  V30 1083 H 102.448 0.417117 -0.851303 0
M  V30 1084 H 102.154 2.05663 -2.85299 0
M  V30 1085 H 102.028 3.36946 -1.6955 0
M  V30 1086 H 104.415 2.81989 -0.869827 0
M  V30 1087 H 104.496 1.51445 -2.0615 0
M  V30 1088 H 104.14 3.22354 -3.92492 0
M  V30 1089 H 104.07 4.51886 -2.70383 0
M  V30 1090 H 106.561 3.01707 -2.27555 0
M  V30 1091 H 106.874 5.77311 -5.13743 0
M  V30 1092 H 105.219 5.19653 -4.61503 0
M  V30 1093 H 108.41 3.68586 -2.88551 0
M  V30 1094 H 108.583 4.94279 -4.19037 0
M  V30 1095 N 101.989 0.842826 1.3317 0
M  V30 1096 C 103.214 0.453129 2.02389 0
M  V30 1097 C 103.639 -0.939105 1.6298 0
M  V30 1098 O 102.997 -1.61472 0.8244 0
M  V30 1099 C 103.045 0.586094 3.55805 0
M  V30 1100 O 102.149 -0.386029 4.10589 0
M  V30 1101 H 101.49 0.183664 0.638094 0
M  V30 1102 H 104.02 1.13875 1.69981 0
M  V30 1103 H 104.03 0.469209 4.05293 0
M  V30 1104 H 102.705 1.6014 3.83833 0
M  V30 1105 H 101.282 -0.226371 3.72212 0
M  V30 1106 N 103.467 -1.45747 0.599634 0
M  V30 1107 C 104.695 -2.06668 0.0978551 0
M  V30 1108 C 105.11 -1.44562 -1.21439 0
M  V30 1109 O 104.467 -0.556923 -1.73795 0
M  V30 1110 C 104.518 -3.61456 -0.0567044 0
M  V30 1111 O 104.239 -4.21242 1.20361 0
M  V30 1112 C 105.74 -4.39345 -0.590869 0
M  V30 1113 H 102.96 -0.667825 0.0651943 0
M  V30 1114 H 105.504 -1.87115 0.82511 0
M  V30 1115 H 103.659 -3.80378 -0.734251 0
M  V30 1116 H 104.073 -5.14323 1.02821 0
M  V30 1117 H 105.547 -5.48182 -0.648131 0
M  V30 1118 H 106.024 -4.08568 -1.61147 0
M  V30 1119 H 106.63 -4.25268 0.0523679 0
M  V30 1120 N 104.945 -0.338344 -1.53925 0
M  V30 1121 C 106.17 0.263987 -2.05713 0
M  V30 1122 C 106.595 1.43847 -1.21201 0
M  V30 1123 O 105.953 1.79904 -0.224535 0
M  V30 1124 C 106.001 0.662 -3.54471 0
M  V30 1125 O 105.105 1.76265 -3.72833 0
M  V30 1126 H 104.446 0.0448722 -0.662482 0
M  V30 1127 H 106.976 -0.491048 -1.9862 0
M  V30 1128 H 106.986 0.940594 -3.9701 0
M  V30 1129 H 105.661 -0.196937 -4.15433 0
M  V30 1130 H 104.238 1.48173 -3.42198 0
M  V30 1131 N 106.423 1.57458 -0.0668435 0
M  V30 1132 C 107.834 1.80776 0.466558 0
M  V30 1133 C 108.185 0.980361 1.69951 0
M  V30 1134 O 107.31 0.201441 2.1546 0
M  V30 1135 C 107.905 3.27881 0.85321 0
M  V30 1136 C 106.464 3.52062 1.3315 0
M  V30 1137 C 105.611 2.75513 0.314264 0
M  V30 1138 H 108.562 1.5598 -0.292588 0
M  V30 1139 H 108.583 3.39659 1.715 0
M  V30 1140 H 108.095 3.88075 -0.0443439 0
M  V30 1141 H 106.196 2.97167 2.24772 0
M  V30 1142 H 106.309 4.60762 1.31285 0
M  V30 1143 H 104.673 2.42123 0.790492 0
M  V30 1144 H 105.456 3.38442 -0.575477 0
M  V30 1145 N 107.901 -0.206675 1.56239 0
M  V30 1146 C 109.147 -0.925733 1.81113 0
M  V30 1147 C 109.502 -1.81368 0.642135 0
M  V30 1148 O 108.795 -1.88126 -0.363211 0
M  V30 1149 C 108.989 -1.78675 3.09532 0
M  V30 1150 C 108.818 -0.98365 4.3881 0
M  V30 1151 C 107.588 -0.672661 5.00803 0
M  V30 1152 C 109.786 -0.341847 5.13163 0
M  V30 1153 N 107.768 0.150283 6.13716 0
M  V30 1154 C 109.139 0.343815 6.19046 0
M  V30 1155 C 111.194 -0.256392 4.97239 0
M  V30 1156 C 109.897 1.10678 7.10734 0
M  V30 1157 C 111.923 0.493142 5.8934 0
M  V30 1158 C 111.285 1.16729 6.94661 0
M  V30 1159 H 107.384 -0.318524 0.714189 0
M  V30 1160 H 109.968 -0.195378 1.93717 0
M  V30 1161 H 108.139 -2.4888 2.98183 0
M  V30 1162 H 109.871 -2.44441 3.22538 0
M  V30 1163 H 106.626 -0.994294 4.63045 0
M  V30 1164 H 107.05 0.551026 6.74754 0
M  V30 1165 H 111.692 -0.763249 4.15854 0
M  V30 1166 H 109.41 1.6251 7.91591 0
M  V30 1167 H 112.996 0.560465 5.79094 0
M  V30 1168 H 111.876 1.738 7.64698 0
M  V30 1169 N 109.379 -1.50304 -0.473955 0
M  V30 1170 C 110.327 -1.69482 -1.59307 0
M  V30 1171 C 111.321 -0.560669 -1.59853 0
M  V30 1172 O 112.527 -0.741087 -1.64036 0
M  V30 1173 H 108.902 -0.534892 -0.528578 0
M  V30 1174 H 110.873 -2.63364 -1.40293 0
M  V30 1175 C 109.622 -1.80354 -2.97267 0
M  V30 1176 H 108.945 -2.67012 -2.97564 0
M  V30 1177 H 110.385 -1.97798 -3.75036 0
M  V30 1178 C 108.844 -0.55448 -3.32306 0
M  V30 1179 O 109.374 0.307661 -4.0052 0
M  V30 1180 N 107.58 -0.409354 -2.87702 0
M  V30 1181 H 107.127 -1.11196 -2.32364 0
M  V30 1182 H 107.085 0.425223 -3.11511 0
M  V30 1183 N 110.857 0.726932 -1.39834 0
M  V30 1184 C 111.787 1.85405 -1.41941 0
M  V30 1185 C 112.768 1.67751 -0.281728 0
M  V30 1186 O 113.953 1.8795 -0.488717 0
M  V30 1187 C 111.083 3.23243 -1.2701 0
M  V30 1188 C 110.037 3.55549 -2.38262 0
M  V30 1189 C 109.363 4.9241 -2.08415 0
M  V30 1190 C 110.663 3.577 -3.80589 0
M  V30 1191 H 112.357 1.83899 -2.36266 0
M  V30 1192 H 109.903 0.883349 -1.13723 0
M  V30 1193 H 111.856 4.01775 -1.27103 0
M  V30 1194 H 110.58 3.25296 -0.291564 0
M  V30 1195 H 109.239 2.79351 -2.37399 0
M  V30 1196 H 108.887 4.91052 -1.0898 0
M  V30 1197 H 108.587 5.14992 -2.82943 0
M  V30 1198 H 110.111 5.73289 -2.10171 0
M  V30 1199 H 111.525 4.26293 -3.83337 0
M  V30 1200 H 109.922 3.91804 -4.54543 0
M  V30 1201 H 110.992 2.57328 -4.10987 0
M  V30 1202 N 112.336 1.25143 0.95797 0
M  V30 1203 C 113.286 1.01924 2.0395 0
M  V30 1204 C 114.27 -0.0427175 1.60843 0
M  V30 1205 O 115.462 0.17221 1.7616 0
M  V30 1206 C 112.591 0.636373 3.3735 0
M  V30 1207 C 111.677 1.73492 3.8699 0
M  V30 1208 N 112.068 2.96945 4.0946 0
M  V30 1209 C 110.366 1.61467 4.15746 0
M  V30 1210 C 111.067 3.68228 4.50315 0
M  V30 1211 N 110.043 2.95833 4.56053 0
M  V30 1212 H 113.845 1.95653 2.19311 0
M  V30 1213 H 111.359 1.15413 1.14253 0
M  V30 1214 H 113.356 0.451233 4.14451 0
M  V30 1215 H 112.016 -0.293621 3.2337 0
M  V30 1216 H 113.027 3.33025 3.96629 0
M  V30 1217 H 109.704 0.753394 4.10646 0
M  V30 1218 H 111.094 4.74178 4.76031 0
M  V30 1219 N 113.814 -1.1601 1.06675 0
M  V30 1220 C 115.23 -1.38622 0.790948 0
M  V30 1221 C 115.43 -1.92109 -0.607965 0
M  V30 1222 O 114.486 -2.12239 -1.36787 0
M  V30 1223 C 115.799 -2.36347 1.85905 0
M  V30 1224 C 117.347 -2.50023 1.88301 0
M  V30 1225 C 117.822 -3.51033 2.94176 0
M  V30 1226 N 119.313 -3.58563 2.93235 0
M  V30 1227 C 120.048 -4.36521 3.71803 0
M  V30 1228 N 119.544 -5.17869 4.602 0
M  V30 1229 N 121.337 -4.31541 3.60178 0
M  V30 1230 H 113.488 -0.796294 1.96908 0
M  V30 1231 H 115.751 -0.412597 0.853503 0
M  V30 1232 H 115.457 -2.04147 2.86386 0
M  V30 1233 H 115.331 -3.36042 1.71334 0
M  V30 1234 H 117.718 -2.81524 0.884769 0
M  V30 1235 H 117.799 -1.5035 2.06951 0
M  V30 1236 H 117.443 -3.20268 3.94196 0
M  V30 1237 H 117.373 -4.50445 2.72776 0
M  V30 1238 H 119.864 -3.00496 2.29152 0
M  V30 1239 H 120.177 -5.74578 5.16797 0
M  V30 1240 H 118.522 -5.17199 4.64253 0
M  V30 1241 H 121.713 -3.67051 2.90502 0
M  V30 1242 H 121.886 -4.9205 4.21653 0
M  V30 1243 N 115.292 -0.849877 -1.32721 0
M  V30 1244 C 116.24 -0.279745 -2.30912 0
M  V30 1245 C 117.234 0.594278 -1.58634 0
M  V30 1246 O 118.44 0.482613 -1.73409 0
M  V30 1247 H 114.815 -0.0717521 -0.748569 0
M  V30 1248 H 116.786 -1.12222 -2.76494 0
M  V30 1249 C 115.535 0.521108 -3.43773 0
M  V30 1250 H 114.858 -0.142141 -3.99547 0
M  V30 1251 H 116.298 0.885693 -4.14646 0
M  V30 1252 C 114.757 1.70442 -2.90605 0
M  V30 1253 O 115.287 2.8034 -2.87702 0
M  V30 1254 N 113.493 1.52991 -2.47067 0
M  V30 1255 H 113.04 0.635914 -2.49628 0
M  V30 1256 H 112.998 2.32311 -2.11847 0
M  V30 1257 N 116.77 1.45427 -0.607355 0
M  V30 1258 C 117.68 2.34325 0.113463 0
M  V30 1259 C 118.696 1.51226 0.860617 0
M  V30 1260 O 119.872 1.84029 0.818255 0
M  V30 1261 C 116.937 3.28839 1.09844 0
M  V30 1262 C 115.998 4.27844 0.353271 0
M  V30 1263 C 115.231 5.17842 1.29133 0
M  V30 1264 O 115.454 5.11264 2.52913 0
M  V30 1265 O 114.388 5.96713 0.788523 0
M  V30 1266 H 118.214 2.97364 -0.617094 0
M  V30 1267 H 115.799 1.44807 -0.367619 0
M  V30 1268 H 117.681 3.8708 1.66575 0
M  V30 1269 H 116.356 2.68365 1.81003 0
M  V30 1270 H 115.263 3.7322 -0.256494 0
M  V30 1271 H 116.596 4.91173 -0.317822 0
M  V30 1272 N 118.248 0.346503 1.53744 0
M  V30 1273 C 119.525 -0.304532 1.93215 0
M  V30 1274 C 119.905 -1.67993 1.27834 0
M  V30 1275 O 119.253 -2.24411 0.430352 0
M  V30 1276 C 119.463 -0.373852 3.46992 0
M  V30 1277 C 120.811 -0.62329 4.2 0
M  V30 1278 O 121.835 -0.455847 3.53271 0
M  V30 1279 O 120.694 -0.947879 5.38217 0
M  V30 1280 H 117.788 -0.178318 0.807547 0
M  V30 1281 H 120.334 0.397895 1.64969 0
M  V30 1282 H 119.106 0.591224 3.86808 0
M  V30 1283 H 118.729 -1.12294 3.81413 0
M  V30 1284 N 119.726 -1.57421 0.075193 0
M  V30 1285 C 121.137 -1.81021 -0.456964 0
M  V30 1286 C 121.488 -0.98936 -1.69429 0
M  V30 1287 O 120.613 -0.212865 -2.15351 0
M  V30 1288 C 121.208 -3.28329 -0.83581 0
M  V30 1289 C 119.767 -3.52764 -1.31281 0
M  V30 1290 C 118.914 -2.75676 -0.299648 0
M  V30 1291 H 121.865 -1.55822 0.300856 0
M  V30 1292 H 121.886 -3.40564 -1.69696 0
M  V30 1293 H 121.398 -3.88046 0.0649238 0
M  V30 1294 H 119.499 -2.98355 -2.23193 0
M  V30 1295 H 119.612 -4.61451 -1.28839 0
M  V30 1296 H 117.976 -2.42538 -0.777641 0
M  V30 1297 H 118.759 -3.38132 0.593417 0
M  V30 1298 N 121.204 0.198386 -1.56346 0
M  V30 1299 C 122.114 1.2664 -1.97483 0
M  V30 1300 C 123.13 1.49989 -0.882002 0
M  V30 1301 O 124.306 1.62668 -1.18748 0
M  V30 1302 C 121.371 2.59141 -2.30319 0
M  V30 1303 C 120.432 2.43892 -3.53292 0
M  V30 1304 C 119.665 3.70074 -3.84553 0
M  V30 1305 O 119.888 4.74101 -3.1715 0
M  V30 1306 O 118.822 3.658 -4.7799 0
M  V30 1307 H 122.648 0.947304 -2.88548 0
M  V30 1308 H 120.233 0.403123 -1.43859 0
M  V30 1309 H 122.115 3.37352 -2.5253 0
M  V30 1310 H 120.79 2.90684 -1.42423 0
M  V30 1311 H 119.697 1.63803 -3.36332 0
M  V30 1312 H 121.03 2.17282 -4.41644 0
M  V30 1313 N 122.682 1.50554 0.465978 0
M  V30 1314 C 124.098 1.38093 0.800154 0
M  V30 1315 C 124.298 0.440988 1.96615 0
M  V30 1316 O 123.354 -0.114499 2.5224 0
M  V30 1317 C 124.667 2.79565 1.10742 0
M  V30 1318 C 126.215 2.88516 1.21357 0
M  V30 1319 C 126.69 4.30833 1.55393 0
M  V30 1320 N 128.181 4.33807 1.62375 0
M  V30 1321 C 128.916 5.40927 1.90225 0
M  V30 1322 N 128.412 6.58247 2.16062 0
M  V30 1323 N 130.205 5.28376 1.9177 0
M  V30 1324 H 122.356 2.10237 -0.302366 0
M  V30 1325 H 124.619 0.945203 -0.0727746 0
M  V30 1326 H 124.325 3.50208 0.323661 0
M  V30 1327 H 124.199 3.17125 2.04234 0
M  V30 1328 H 126.586 2.1809 1.98799 0
M  V30 1329 H 126.667 2.54492 0.258321 0
M  V30 1330 H 126.311 5.01799 0.784889 0
M  V30 1331 H 126.241 4.62347 2.52076 0
M  V30 1332 H 128.732 3.49212 1.44427 0
M  V30 1333 H 129.045 7.3569 2.36601 0
M  V30 1334 H 127.39 6.61413 2.13444 0
M  V30 1335 H 130.581 4.35715 1.71085 0
M  V30 1336 H 130.754 6.11944 2.13139 0
M  V30 1337 N 124.16 -0.719506 1.40217 0
M  V30 1338 C 125.39 -1.50646 1.41384 0
M  V30 1339 C 125.798 -1.89197 0.0107743 0
M  V30 1340 O 125.141 -1.55709 -0.974708 0
M  V30 1341 C 125.203 -2.81405 2.23722 0
M  V30 1342 C 124.867 -2.65199 3.72181 0
M  V30 1343 C 125.864 -2.32717 4.64907 0
M  V30 1344 C 123.549 -2.81586 4.1595 0
M  V30 1345 C 125.543 -2.16827 5.99387 0
M  V30 1346 C 123.23 -2.65313 5.50502 0
M  V30 1347 C 124.228 -2.32981 6.42035 0
M  V30 1348 O 123.916 -2.16827 7.74107 0
M  V30 1349 H 123.648 -0.471606 0.484318 0
M  V30 1350 H 126.202 -0.895456 1.84853 0
M  V30 1351 H 124.432 -3.44823 1.75026 0
M  V30 1352 H 126.121 -3.43102 2.16878 0
M  V30 1353 H 126.887 -2.19694 4.32388 0
M  V30 1354 H 122.766 -3.0574 3.45027 0
M  V30 1355 H 126.31 -1.91513 6.70797 0
M  V30 1356 H 122.207 -2.7792 5.82607 0
M  V30 1357 H 122.975 -2.31778 7.84998 0
M  V30 1358 N 125.638 -1.25649 -0.95132 0
M  V30 1359 C 127.049 -1.09654 -1.51106 0
M  V30 1360 C 127.4 0.326615 -1.93462 0
M  V30 1361 O 126.525 1.21697 -1.78938 0
M  V30 1362 C 127.12 -1.98437 -2.74605 0
M  V30 1363 C 125.679 -1.86618 -3.2688 0
M  V30 1364 C 124.826 -1.9239 -1.99703 0
M  V30 1365 H 127.777 -1.38887 -0.767865 0
M  V30 1366 H 127.798 -1.5263 -3.48546 0
M  V30 1367 H 127.31 -3.02009 -2.43746 0
M  V30 1368 H 125.411 -0.859421 -3.62553 0
M  V30 1369 H 125.524 -2.71607 -3.94673 0
M  V30 1370 H 123.888 -1.36317 -2.15151 0
M  V30 1371 H 124.671 -2.97573 -1.71188 0
M  V30 1372 N 127.117 1.15442 -1.07289 0
M  V30 1373 C 128.342 1.90638 -0.816828 0
M  V30 1374 C 128.767 1.77445 0.624083 0
M  V30 1375 O 128.125 1.10671 1.43602 0
M  V30 1376 C 128.173 3.39008 -1.22906 0
M  V30 1377 O 127.277 4.10701 -0.373975 0
M  V30 1378 H 126.618 0.593555 -0.297638 0
M  V30 1379 H 129.148 1.46198 -1.43134 0
M  V30 1380 H 129.158 3.89801 -1.20497 0
M  V30 1381 H 127.833 3.47929 -2.27856 0
M  V30 1382 H 126.41 3.70046 -0.460499 0
M  V30 1383 N 128.595 0.856903 1.32268 0
M  V30 1384 C 129.841 0.462069 1.97466 0
M  V30 1385 C 130.174 -0.980298 1.67642 0
M  V30 1386 O 129.449 -1.68824 0.965858 0
M  V30 1387 C 129.732 0.704336 3.53145 0
M  V30 1388 C 129.585 2.19529 3.9259 0
M  V30 1389 C 130.904 0.1622 4.39801 0
M  V30 1390 H 128.023 0.169357 0.717278 0
M  V30 1391 H 130.665 1.07574 1.56614 0
M  V30 1392 H 128.815 0.181999 3.88073 0
M  V30 1393 H 130.487 2.78387 3.67829 0
M  V30 1394 H 128.73 2.67292 3.41668 0
M  V30 1395 H 129.401 2.31549 5.01088 0
M  V30 1396 H 131.877 0.608905 4.11621 0
M  V30 1397 H 130.753 0.361265 5.4771 0
M  V30 1398 H 131.014 -0.935158 4.32096 0
M  V30 1399 N 130.073 -1.45103 0.615059 0
M  V30 1400 C 131.322 -2.01396 0.110718 0
M  V30 1401 C 131.635 -1.48834 -1.26916 0
M  V30 1402 O 132.841 -1.97152 -1.86664 0
M  V30 1403 C 131.297 -3.59599 0.14723 0
M  V30 1404 C 130.905 -4.21158 1.52743 0
M  V30 1405 C 132.649 -4.23428 -0.30148 0
M  V30 1406 C 130.556 -5.71535 1.51992 0
M  V30 1407 H 129.486 -0.753061 0.0376241 0
M  V30 1408 H 132.137 -1.66494 0.77149 0
M  V30 1409 H 130.519 -3.91724 -0.580339 0
M  V30 1410 H 131.693 -4.00594 2.2773 0
M  V30 1411 H 130.008 -3.69552 1.91886 0
M  V30 1412 H 132.605 -5.33703 -0.326392 0
M  V30 1413 H 132.948 -3.94629 -1.32565 0
M  V30 1414 H 133.481 -3.96047 0.373065 0
M  V30 1415 H 130.22 -6.05044 2.52193 0
M  V30 1416 H 129.74 -5.94268 0.81274 0
M  V30 1417 H 131.419 -6.34873 1.24681 0
M  V30 1418 N 131.551 -0.354651 -1.53558 0
M  V30 1419 C 132.797 0.231422 -2.02079 0
M  V30 1420 C 133.152 1.47308 -1.23767 0
M  V30 1421 O 132.445 1.8891 -0.319947 0
M  V30 1422 C 132.639 0.587121 -3.52545 0
M  V30 1423 C 132.468 -0.618513 -4.45426 0
M  V30 1424 C 131.238 -1.12724 -4.92566 0
M  V30 1425 C 133.436 -1.48039 -4.92533 0
M  V30 1426 N 131.418 -2.29404 -5.69427 0
M  V30 1427 C 132.789 -2.49397 -5.67628 0
M  V30 1428 C 134.844 -1.50454 -4.74624 0
M  V30 1429 C 133.547 -3.53013 -6.26717 0
M  V30 1430 C 135.573 -2.52958 -5.34571 0
M  V30 1431 C 134.935 -3.5304 -6.09543 0
M  V30 1432 H 131.034 0.0476909 -0.780544 0
M  V30 1433 H 133.618 -0.496727 -1.88257 0
M  V30 1434 H 131.789 1.28436 -3.6655 0
M  V30 1435 H 133.521 1.15734 -3.87799 0
M  V30 1436 H 130.276 -0.693577 -4.68494 0
M  V30 1437 H 130.7 -2.88347 -6.12524 0
M  V30 1438 H 135.342 -0.744356 -4.16196 0
M  V30 1439 H 133.06 -4.2992 -6.84247 0
M  V30 1440 H 136.646 -2.55667 -5.22614 0
M  V30 1441 H 135.526 -4.31056 -6.55103 0
M  V30 1442 N 133.029 1.57378 -0.0835403 0
M  V30 1443 C 133.939 2.16897 0.894021 0
M  V30 1444 C 134.955 1.13528 1.31861 0
M  V30 1445 O 136.131 1.45848 1.3889 0
M  V30 1446 C 133.196 2.72831 2.13925 0
M  V30 1447 C 132.257 3.91115 1.76997 0
M  V30 1448 C 131.49 4.44371 2.95584 0
M  V30 1449 O 131.713 3.96596 4.09961 0
M  V30 1450 O 130.647 5.35549 2.74719 0
M  V30 1451 H 134.473 3.00814 0.417679 0
M  V30 1452 H 132.058 1.48741 0.140181 0
M  V30 1453 H 133.94 3.0863 2.86924 0
M  V30 1454 H 132.615 1.91967 2.60635 0
M  V30 1455 H 131.522 3.60148 1.01214 0
M  V30 1456 H 132.855 4.73307 1.3506 0
M  V30 1457 N 134.507 -0.190092 1.56449 0
M  V30 1458 C 135.47 -1.21925 1.9408 0
M  V30 1459 C 136.47 -1.38176 0.822431 0
M  V30 1460 O 137.66 -1.35903 1.08977 0
M  V30 1461 C 134.792 -2.58773 2.21922 0
M  V30 1462 H 135.985 -0.897464 2.86157 0
M  V30 1463 H 133.538 -0.43181 1.50217 0
M  V30 1464 H 134.273 -2.95998 1.32499 0
M  V30 1465 H 134.058 -2.48348 3.03424 0
M  V30 1466 H 135.548 -3.32978 2.52022 0
M  V30 1467 N 135.985 -1.50799 -0.457987 0
M  V30 1468 C 136.932 -1.70617 -1.5543 0
M  V30 1469 C 137.902 -0.547562 -1.56815 0
M  V30 1470 O 139.087 -0.779647 -1.74144 0
M  V30 1471 C 136.227 -1.81831 -2.93311 0
M  V30 1472 C 135.34 -3.09278 -3.01615 0
M  V30 1473 C 134.475 -3.11209 -4.30491 0
M  V30 1474 C 133.514 -4.33055 -4.32585 0
M  V30 1475 N 132.651 -4.32652 -5.52952 0
M  V30 1476 H 137.491 -2.64207 -1.37836 0
M  V30 1477 H 135.028 -1.30959 -0.669937 0
M  V30 1478 H 136.986 -1.86314 -3.73287 0
M  V30 1479 H 135.616 -0.916685 -3.0951 0
M  V30 1480 H 134.668 -3.14203 -2.1443 0
M  V30 1481 H 135.98 -3.99233 -2.99022 0
M  V30 1482 H 135.134 -3.14494 -5.18824 0
M  V30 1483 H 133.873 -2.19106 -4.35711 0
M  V30 1484 H 132.878 -4.29969 -3.42647 0
M  V30 1485 H 134.103 -5.264 -4.29046 0
M  V30 1486 H 132.049 -3.43409 -5.58933 0
M  V30 1487 H 131.966 -5.16392 -5.52155 0
M  V30 1488 H 133.234 -4.40101 -6.43375 0
M  V30 1489 N 137.463 0.71206 -1.40597 0
M  V30 1490 C 138.703 1.48438 -1.40519 0
M  V30 1491 C 139.067 1.91998 -0.00767611 0
M  V30 1492 O 140.268 2.6854 0.118239 0
M  V30 1493 C 138.539 2.67514 -2.37004 0
M  V30 1494 S 140.098 3.56875 -2.55315 0
M  V30 1495 H 136.916 0.507457 -0.498005 0
M  V30 1496 H 139.518 0.832355 -1.76896 0
M  V30 1497 H 138.222 2.33689 -3.37368 0
M  V30 1498 H 137.753 3.37625 -2.01923 0
M  V30 1499 H 139.768 4.62081 -1.8082 0
M  V30 1500 N 138.941 1.26152 0.944643 0
M  V30 1501 C 140.357 1.03189 1.21754 0
M  V30 1502 C 140.557 -0.245112 2.00004 0
M  V30 1503 O 139.613 -0.955176 2.33736 0
M  V30 1504 C 140.926 2.26119 1.98219 0
M  V30 1505 C 142.474 2.30984 2.11224 0
M  V30 1506 C 142.949 3.53597 2.91089 0
M  V30 1507 N 144.44 3.54053 2.98664 0
M  V30 1508 C 145.175 4.45593 3.60881 0
M  V30 1509 N 144.671 5.47416 4.24626 0
M  V30 1510 N 146.464 4.33252 3.58119 0
M  V30 1511 H 138.615 2.08177 0.421437 0
M  V30 1512 H 140.878 0.914723 0.248969 0
M  V30 1513 H 140.584 3.18984 1.48128 0
M  V30 1514 H 140.458 2.3009 2.98895 0
M  V30 1515 H 142.845 1.38635 2.60508 0
M  V30 1516 H 142.926 2.31026 1.09821 0
M  V30 1517 H 142.57 4.46273 2.42493 0
M  V30 1518 H 142.5 3.50802 3.92741 0
M  V30 1519 H 144.991 2.80403 2.53343 0
M  V30 1520 H 145.304 6.13459 4.69987 0
M  V30 1521 H 143.649 5.51278 4.23223 0
M  V30 1522 H 146.84 3.52924 3.0751 0
M  V30 1523 H 147.013 5.04786 4.06319 0
M  V30 1524 N 140.419 -1.14872 1.07899 0
M  V30 1525 C 141.369 -2.17809 0.674027 0
M  V30 1526 C 142.353 -1.58008 -0.303699 0
M  V30 1527 O 143.545 -1.76616 -0.11654 0
M  V30 1528 C 140.674 -3.43208 0.0793318 0
M  V30 1529 C 139.76 -4.10051 1.08253 0
M  V30 1530 N 140.151 -4.52296 2.2641 0
M  V30 1531 C 138.449 -4.36469 0.917124 0
M  V30 1532 C 139.15 -5.04199 2.901 0
M  V30 1533 N 138.126 -4.98088 2.17736 0
M  V30 1534 H 141.928 -2.48207 1.57386 0
M  V30 1535 H 139.442 -1.315 0.952976 0
M  V30 1536 H 141.439 -4.16272 -0.228719 0
M  V30 1537 H 140.099 -3.14291 -0.815551 0
M  V30 1538 H 141.11 -4.45504 2.64096 0
M  V30 1539 H 137.787 -4.17432 0.0756078 0
M  V30 1540 H 139.177 -5.46802 3.90458 0
M  V30 1541 N 141.898 -0.863906 -1.31812 0
M  V30 1542 C 142.828 -0.330843 -2.31144 0
M  V30 1543 C 143.809 0.575005 -1.60087 0
M  V30 1544 O 144.994 0.493304 -1.8783 0
M  V30 1545 C 142.124 0.47374 -3.44054 0
M  V30 1546 C 141.078 -0.338481 -4.26659 0
M  V30 1547 C 140.404 0.591412 -5.31419 0
M  V30 1548 C 141.704 -1.56926 -4.98168 0
M  V30 1549 H 143.398 -1.16086 -2.75979 0
M  V30 1550 H 140.944 -0.559657 -1.32679 0
M  V30 1551 H 142.897 0.857143 -4.12591 0
M  V30 1552 H 141.621 1.33721 -2.9797 0
M  V30 1553 H 140.28 -0.703754 -3.59782 0
M  V30 1554 H 139.928 1.45199 -4.81587 0
M  V30 1555 H 139.628 0.0519022 -5.87577 0
M  V30 1556 H 141.152 0.97179 -6.02817 0
M  V30 1557 H 142.566 -1.25764 -5.59336 0
M  V30 1558 H 140.963 -2.04739 -5.64094 0
M  V30 1559 H 142.033 -2.32544 -4.25501 0
M  V30 1560 N 143.376 1.44774 -0.622745 0
M  V30 1561 C 144.624 2.01721 -0.123655 0
M  V30 1562 C 144.945 1.49172 1.25589 0
M  V30 1563 O 144.215 0.691974 1.83272 0
M  V30 1564 H 142.795 0.745777 -0.0427225 0
M  V30 1565 H 145.457 1.77382 -0.807559 0
M  V30 1566 H 144.553 3.11984 -0.0849534 0
M  V30 1567 N 144.854 0.36279 1.53368 0
M  V30 1568 C 146.094 -0.227882 2.03126 0
M  V30 1569 C 146.458 -1.4622 1.24434 0
M  V30 1570 O 147.659 -2.12831 1.64184 0
M  V30 1571 C 145.93 -0.515427 3.53664 0
M  V30 1572 S 147.489 -1.08017 4.25297 0
M  V30 1573 H 144.307 -0.0665377 0.70788 0
M  V30 1574 H 146.909 0.50501 1.88865 0
M  V30 1575 H 145.613 0.390436 4.08539 0
M  V30 1576 H 145.144 -1.27747 3.72081 0
M  V30 1577 H 147.159 -2.36462 4.36234 0
M  V30 1578 N 146.332 -1.57332 0.0918853 0
M  V30 1579 C 147.581 -1.93412 -0.572249 0
M  V30 1580 C 147.894 -0.975515 -1.69538 0
M  V30 1581 O 149.1 -1.22991 -2.42045 0
M  V30 1582 C 147.556 -3.43648 -1.0693 0
M  V30 1583 C 147.164 -4.47994 0.0239049 0
M  V30 1584 C 148.908 -3.88695 -1.70635 0
M  V30 1585 C 146.815 -5.89381 -0.488319 0
M  V30 1586 H 145.745 -0.721939 -0.217532 0
M  V30 1587 H 148.396 -1.82735 0.167369 0
M  V30 1588 H 146.778 -3.49466 -1.8625 0
M  V30 1589 H 147.952 -4.53815 0.799277 0
M  V30 1590 H 146.267 -4.12536 0.565946 0
M  V30 1591 H 148.864 -4.91725 -2.10025 0
M  V30 1592 H 149.207 -3.27166 -2.57426 0
M  V30 1593 H 149.74 -3.85564 -0.979023 0
M  V30 1594 H 146.479 -6.54602 0.342906 0
M  V30 1595 H 145.999 -5.87037 -1.23077 0
M  V30 1596 H 147.678 -6.39863 -0.958317 0
M  V30 1597 N 147.81 0.181792 -1.56548 0
M  V30 1598 C 148.758 1.24461 -1.965 0
M  V30 1599 C 149.752 1.464 -0.852261 0
M  V30 1600 O 150.958 1.47103 -1.03733 0
M  V30 1601 H 147.333 0.418138 -0.625031 0
M  V30 1602 H 149.304 0.880714 -2.85107 0
M  V30 1603 C 148.053 2.57891 -2.33212 0
M  V30 1604 H 147.376 2.41829 -3.18369 0
M  V30 1605 H 148.816 3.3097 -2.65019 0
M  V30 1606 C 147.275 3.15871 -1.17163 0
M  V30 1607 O 147.805 3.9913 -0.453708 0
M  V30 1608 N 146.011 2.74808 -0.944936 0
M  V30 1609 H 145.558 2.07205 -1.53049 0
M  V30 1610 H 145.516 3.13939 -0.170286 0
M  V30 1611 N 149.288 1.51039 0.449983 0
M  V30 1612 C 150.251 1.70863 1.5277 0
M  V30 1613 C 151.251 0.578846 1.5002 0
M  V30 1614 O 152.441 0.846213 1.52266 0
M  V30 1615 C 149.573 1.75341 2.9235 0
M  V30 1616 H 150.766 2.67034 1.36502 0
M  V30 1617 H 148.319 1.40838 0.677812 0
M  V30 1618 H 149.054 0.809383 3.14037 0
M  V30 1619 H 148.839 2.57436 2.95752 0
M  V30 1620 H 150.329 1.92559 3.70555 0
M  V30 1621 N 150.766 -0.704594 1.40972 0
M  V30 1622 C 152.043 -1.45847 1.30338 0
M  V30 1623 C 152.423 -2.10973 -0.0732344 0
M  V30 1624 O 151.771 -2.00997 -1.08685 0
M  V30 1625 C 151.981 -2.48525 2.45023 0
M  V30 1626 C 153.329 -3.1404 2.8577 0
M  V30 1627 O 154.353 -2.58848 2.44696 0
M  V30 1628 O 153.212 -4.13981 3.56766 0
M  V30 1629 H 150.306 -0.649092 0.512454 0
M  V30 1630 H 152.852 -0.735836 1.52917 0
M  V30 1631 H 151.624 -1.98994 3.36923 0
M  V30 1632 H 151.247 -3.2831 2.24272 0
M  V30 1633 N 152.244 -1.26651 -0.937939 0
M  V30 1634 C 153.492 -1.12165 -1.68118 0
M  V30 1635 C 153.813 0.334983 -1.92101 0
M  V30 1636 O 153.083 1.23583 -1.52 0
M  V30 1637 H 151.663 -0.412093 -0.623048 0
M  V30 1638 H 154.325 -1.59027 -1.12678 0
M  V30 1639 H 153.421 -1.64289 -2.6536 0
M  V30 1640 N 153.722 1.14298 -1.08507 0
M  V30 1641 C 154.67 2.21483 -0.710483 0
M  V30 1642 C 155.664 1.66998 0.284234 0
M  V30 1643 O 156.87 1.79401 0.146692 0
M  V30 1644 H 153.245 0.721578 -0.211729 0
M  V30 1645 H 155.216 2.50348 -1.62384 0
M  V30 1646 C 153.965 3.4743 -0.137007 0
M  V30 1647 H 153.288 3.89686 -0.893592 0
M  V30 1648 H 154.728 4.2391 0.0872789 0
M  V30 1649 C 153.187 3.17548 1.12538 0
M  V30 1650 O 153.717 3.35437 2.21009 0
M  V30 1651 N 151.923 2.71499 1.03617 0
M  V30 1652 H 151.47 2.57143 0.153403 0
M  V30 1653 H 151.428 2.51881 1.88158 0
M  V30 1654 N 155.201 0.870884 1.31352 0
M  V30 1655 C 156.447 0.482987 1.96965 0
M  V30 1656 C 156.78 -0.962462 1.68672 0
M  V30 1657 O 156.055 -1.6779 0.98371 0
M  V30 1658 C 156.338 0.741752 3.52378 0
M  V30 1659 C 156.191 2.2368 3.9024 0
M  V30 1660 C 157.51 0.208838 4.39604 0
M  V30 1661 H 154.629 0.176955 0.715441 0
M  V30 1662 H 157.271 1.09229 1.55464 0
M  V30 1663 H 155.421 0.223149 3.87859 0
M  V30 1664 H 157.093 2.82273 3.64856 0
M  V30 1665 H 155.336 2.70901 3.38814 0
M  V30 1666 H 156.007 2.3685 4.98604 0
M  V30 1667 H 158.483 0.652529 4.10952 0
M  V30 1668 H 157.359 0.419336 5.47296 0
M  V30 1669 H 157.62 -0.889275 4.33064 0
M  V30 1670 N 156.679 -1.44442 0.630414 0
M  V30 1671 C 157.956 -1.9549 0.0655657 0
M  V30 1672 C 158.336 -1.5724 -1.40851 0
M  V30 1673 O 157.684 -0.846116 -2.12257 0
M  V30 1674 C 157.894 -3.47812 0.287691 0
M  V30 1675 C 159.242 -4.24216 0.180513 0
M  V30 1676 O 160.266 -3.55526 0.219019 0
M  V30 1677 O 159.125 -5.46434 0.0848493 0
M  V30 1678 H 156.219 -0.826688 -0.0227177 0
M  V30 1679 H 158.765 -1.54496 0.702068 0
M  V30 1680 H 157.537 -3.687 1.31056 0
M  V30 1681 H 157.16 -3.95751 -0.382984 0
M  V30 1682 N 158.157 -0.370918 -1.53173 0
M  V30 1683 C 159.387 0.217389 -2.05453 0
M  V30 1684 C 159.795 1.42568 -1.24382 0
M  V30 1685 O 159.138 1.81571 -0.278839 0
M  V30 1686 C 159.2 0.669827 -3.53205 0
M  V30 1687 C 158.864 -0.4225 -4.55043 0
M  V30 1688 C 159.861 -1.27407 -5.04047 0
M  V30 1689 C 157.546 -0.58427 -4.9889 0
M  V30 1690 C 159.54 -2.27271 -5.95505 0
M  V30 1691 C 157.227 -1.58627 -5.90153 0
M  V30 1692 C 158.225 -2.42892 -6.38351 0
M  V30 1693 O 157.913 -3.41382 -7.27814 0
M  V30 1694 H 157.645 0.0408171 -0.674767 0
M  V30 1695 H 160.199 -0.5292 -1.98466 0
M  V30 1696 H 158.429 1.4681 -3.57748 0
M  V30 1697 H 160.118 1.18173 -3.88317 0
M  V30 1698 H 160.884 -1.16031 -4.70916 0
M  V30 1699 H 156.763 0.061851 -4.60959 0
M  V30 1700 H 160.307 -2.93079 -6.33049 0
M  V30 1701 H 156.204 -1.70048 -6.22699 0
M  V30 1702 H 156.972 -3.37173 -7.45826 0
M  V30 1703 N 159.635 1.57281 -0.100228 0
M  V30 1704 C 160.585 2.10848 0.86759 0
M  V30 1705 C 161.569 1.02473 1.24049 0
M  V30 1706 O 162.761 1.28739 1.21471 0
M  V30 1707 C 159.89 2.69648 2.12474 0
M  V30 1708 C 158.976 3.85074 1.77704 0
M  V30 1709 N 159.367 4.92897 1.13518 0
M  V30 1710 C 157.665 3.94905 2.07282 0
M  V30 1711 C 158.366 5.73475 0.974735 0
M  V30 1712 N 157.342 5.22675 1.4937 0
M  V30 1713 H 161.144 2.91594 0.367471 0
M  V30 1714 H 158.658 1.62074 0.102829 0
M  V30 1715 H 160.655 3.06356 2.82757 0
M  V30 1716 H 159.315 1.90359 2.63047 0
M  V30 1717 H 160.326 5.11662 0.801381 0
M  V30 1718 H 157.003 3.26633 2.60033 0
M  V30 1719 H 158.393 6.70238 0.472364 0
M  V30 1720 N 161.113 -0.173488 1.56642 0
M  V30 1721 C 162.046 -1.24353 1.91342 0
M  V30 1722 C 163.024 -1.4289 0.775965 0
M  V30 1723 O 164.208 -1.57932 1.02907 0
M  V30 1724 C 161.335 -2.60683 2.16245 0
M  V30 1725 C 160.381 -2.58894 3.38934 0
M  V30 1726 S 161.214 -2.0819 4.93373 0
M  V30 1727 C 162.37 -3.46302 5.21369 0
M  V30 1728 H 162.603 -0.947345 2.81803 0
M  V30 1729 H 160.136 -0.377958 1.49703 0
M  V30 1730 H 162.094 -3.39149 2.31275 0
M  V30 1731 H 160.755 -2.87502 1.26496 0
M  V30 1732 H 159.948 -3.59188 3.53553 0
M  V30 1733 H 159.55 -1.88522 3.2301 0
M  V30 1734 H 161.842 -4.42287 5.13214 0
M  V30 1735 H 162.785 -3.3656 6.23003 0
M  V30 1736 H 163.193 -3.42214 4.48943 0
M  V30 1737 N 162.591 -1.51276 -0.441967 0
M  V30 1738 C 163.539 -1.72823 -1.55676 0
M  V30 1739 C 164.533 -0.59445 -1.58627 0
M  V30 1740 O 165.739 -0.775715 -1.62427 0
M  V30 1741 H 162.114 -0.545983 -0.517113 0
M  V30 1742 H 164.085 -2.6628 -1.34675 0
M  V30 1743 C 162.834 -1.86619 -2.93375 0
M  V30 1744 H 162.157 -2.73264 -2.91834 0
M  V30 1745 H 163.597 -2.05709 -3.70756 0
M  V30 1746 C 162.056 -0.624842 -3.31055 0
M  V30 1747 O 162.586 0.222636 -4.01083 0
M  V30 1748 N 160.792 -0.470288 -2.86769 0
M  V30 1749 H 160.339 -1.161 -2.29953 0
M  V30 1750 H 160.297 0.359051 -3.12343 0
M  V30 1751 N 164.069 0.697108 -1.41344 0
M  V30 1752 C 165.294 1.49096 -1.44171 0
M  V30 1753 C 165.719 1.88038 -0.0481568 0
M  V30 1754 O 165.077 1.54525 0.948243 0
M  V30 1755 C 165.125 2.73088 -2.3549 0
M  V30 1756 O 164.229 3.70514 -1.81088 0
M  V30 1757 H 163.57 0.448801 -0.489361 0
M  V30 1758 H 166.1 0.856992 -1.85787 0
M  V30 1759 H 166.11 3.21413 -2.51312 0
M  V30 1760 H 164.785 2.44081 -3.36745 0
M  V30 1761 H 163.362 3.29441 -1.74708 0
M  V30 1762 N 165.547 1.27147 0.931209 0
M  V30 1763 C 166.793 1.13446 1.68101 0
M  V30 1764 C 167.126 -0.319628 1.91552 0
M  V30 1765 O 166.401 -1.23407 1.50336 0
M  V30 1766 C 166.684 1.91482 3.0497 0
M  V30 1767 C 166.537 3.44855 2.88782 0
M  V30 1768 C 167.856 1.71651 4.05246 0
M  V30 1769 H 164.975 0.413498 0.610072 0
M  V30 1770 H 167.617 1.56261 1.08086 0
M  V30 1771 H 165.767 1.55095 3.56199 0
M  V30 1772 H 167.439 3.9105 2.44698 0
M  V30 1773 H 165.682 3.71373 2.24198 0
M  V30 1774 H 166.353 3.94694 3.85902 0
M  V30 1775 H 168.829 2.0337 3.63015 0
M  V30 1776 H 167.705 2.28651 4.99009 0
M  V30 1777 H 167.966 0.663555 4.37092 0
M  V30 1778 N 167.025 -1.13721 1.09112 0
M  V30 1779 C 168.436 -1.6648 0.845068 0
M  V30 1780 C 168.787 -1.85911 -0.62701 0
M  V30 1781 O 167.912 -1.57556 -1.48341 0
M  V30 1782 C 168.507 -3.02413 1.52748 0
M  V30 1783 C 167.066 -3.52176 1.32849 0
M  V30 1784 C 166.213 -2.27492 1.58564 0
M  V30 1785 H 169.164 -0.976872 1.25072 0
M  V30 1786 H 169.185 -3.68223 0.958752 0
M  V30 1787 H 168.697 -2.88238 2.59885 0
M  V30 1788 H 166.798 -3.7156 0.278137 0
M  V30 1789 H 166.911 -4.32499 2.0611 0
M  V30 1790 H 165.275 -2.33923 1.00758 0
M  V30 1791 H 166.058 -2.15886 2.66924 0
M  V30 1792 N 168.503 -0.877838 -1.30888 0
M  V30 1793 C 169.752 -0.488793 -1.95688 0
M  V30 1794 C 170.065 0.965485 -1.70111 0
M  V30 1795 O 171.271 1.46104 -2.28836 0
M  V30 1796 C 169.727 -0.823201 -3.50359 0
M  V30 1797 C 169.335 -2.29477 -3.84765 0
M  V30 1798 C 171.079 -0.503009 -4.21509 0
M  V30 1799 C 168.986 -2.57118 -5.32583 0
M  V30 1800 H 167.916 -0.179062 -0.732429 0
M  V30 1801 H 170.567 -1.07183 -1.48943 0
M  V30 1802 H 168.949 -0.169331 -3.95638 0
M  V30 1803 H 170.123 -2.99236 -3.5042 0
M  V30 1804 H 168.438 -2.58178 -3.267 0
M  V30 1805 H 171.035 -0.68665 -5.30273 0
M  V30 1806 H 171.378 0.557109 -4.12555 0
M  V30 1807 H 171.911 -1.11376 -3.8189 0
M  V30 1808 H 168.65 -3.61843 -5.4658 0
M  V30 1809 H 168.17 -1.91961 -5.68253 0
M  V30 1810 H 169.849 -2.42251 -5.99936 0
M  V30 1811 N 169.982 1.44106 -0.638065 0
M  V30 1812 C 170.914 2.28976 0.101205 0
M  V30 1813 C 171.927 1.4167 0.802088 0
M  V30 1814 O 173.116 1.65755 0.662375 0
M  V30 1815 C 170.216 3.18217 1.16581 0
M  V30 1816 C 169.389 4.33978 0.546066 0
M  V30 1817 C 168.448 5.04202 1.50554 0
M  V30 1818 O 167.474 5.59986 1.01999 0
M  V30 1819 N 168.676 5.06296 2.8398 0
M  V30 1820 H 171.441 2.93064 -0.627186 0
M  V30 1821 H 169.002 1.54629 -0.479731 0
M  V30 1822 H 170.994 3.62061 1.80815 0
M  V30 1823 H 169.564 2.55833 1.79634 0
M  V30 1824 H 168.784 3.93239 -0.275046 0
M  V30 1825 H 170.072 5.08675 0.112793 0
M  V30 1826 H 169.47 4.62319 3.26002 0
M  V30 1827 H 168.027 5.53907 3.43556 0
M  V30 1828 N 171.46 0.379036 1.52974 0
M  V30 1829 C 172.392 -0.495963 2.2377 0
M  V30 1830 C 173.405 -1.03517 1.25651 0
M  V30 1831 O 174.594 -0.939249 1.51791 0
M  V30 1832 C 171.694 -1.69894 2.93239 0
M  V30 1833 C 170.867 -1.2889 4.17979 0
M  V30 1834 C 169.926 -2.35543 4.70538 0
M  V30 1835 O 168.952 -1.97375 5.33883 0
M  V30 1836 N 170.154 -3.67318 4.49508 0
M  V30 1837 H 172.919 0.110523 2.99496 0
M  V30 1838 H 170.48 0.204878 1.60598 0
M  V30 1839 H 172.472 -2.40747 3.25304 0
M  V30 1840 H 171.042 -2.212 2.20883 0
M  V30 1841 H 170.262 -0.409676 3.92065 0
M  V30 1842 H 171.55 -0.991443 4.99047 0
M  V30 1843 H 170.948 -4.01095 3.98923 0
M  V30 1844 H 169.505 -4.34235 4.8609 0
M  V30 1845 N 172.938 -1.57226 0.108567 0
M  V30 1846 C 173.848 -2.18292 -0.859401 0
M  V30 1847 C 174.864 -1.15612 -1.30038 0
M  V30 1848 O 176.04 -1.48039 -1.36552 0
M  V30 1849 C 173.105 -2.762 -2.09558 0
M  V30 1850 C 172.166 -3.93881 -1.70752 0
M  V30 1851 C 171.399 -4.49018 -2.88477 0
M  V30 1852 O 171.622 -4.03068 -4.036 0
M  V30 1853 O 170.556 -5.39852 -2.66164 0
M  V30 1854 H 174.382 -3.01441 -0.369769 0
M  V30 1855 H 171.967 -1.48945 -0.1165 0
M  V30 1856 H 173.849 -3.13156 -2.81978 0
M  V30 1857 H 172.524 -1.96089 -2.57548 0
M  V30 1858 H 171.431 -3.61713 -0.954714 0
M  V30 1859 H 172.764 -4.75396 -1.27513 0
M  V30 1860 N 174.416 0.165178 -1.56732 0
M  V30 1861 C 175.665 0.879143 -1.81532 0
M  V30 1862 C 175.978 1.83144 -0.686842 0
M  V30 1863 O 177.184 2.58823 -0.819944 0
M  V30 1864 C 175.64 1.61388 -3.21686 0
M  V30 1865 C 175.248 0.704904 -4.4242 0
M  V30 1866 C 176.992 2.3157 -3.55774 0
M  V30 1867 C 174.899 1.44022 -5.73595 0
M  V30 1868 H 173.829 0.332033 -0.676957 0
M  V30 1869 H 176.48 0.132008 -1.83025 0
M  V30 1870 H 174.862 2.40599 -3.14529 0
M  V30 1871 H 176.036 -0.0506815 -4.60772 0
M  V30 1872 H 174.351 0.112419 -4.16248 0
M  V30 1873 H 176.948 2.8719 -4.51028 0
M  V30 1874 H 177.291 3.07201 -2.8095 0
M  V30 1875 H 177.824 1.59297 -3.64513 0
M  V30 1876 H 174.563 0.72612 -6.51466 0
M  V30 1877 H 174.083 2.16898 -5.5921 0
M  V30 1878 H 175.762 1.98606 -6.15764 0
M  V30 1879 N 175.894 1.51508 0.433938 0
M  V30 1880 C 176.824 1.76016 1.53429 0
M  V30 1881 C 177.805 0.610112 1.58782 0
M  V30 1882 O 178.99 0.853177 1.74455 0
M  V30 1883 C 176.12 1.88831 2.9148 0
M  V30 1884 C 175.074 3.04288 3.00987 0
M  V30 1885 C 174.4 3.0229 4.4105 0
M  V30 1886 C 175.7 4.44193 2.74754 0
M  V30 1887 H 177.394 2.68152 1.33171 0
M  V30 1888 H 174.94 1.29035 0.639214 0
M  V30 1889 H 176.893 2.04559 3.6842 0
M  V30 1890 H 175.617 0.933455 3.12976 0
M  V30 1891 H 174.276 2.8827 2.26486 0
M  V30 1892 H 173.924 2.04576 4.59519 0
M  V30 1893 H 173.624 3.79822 4.4834 0
M  V30 1894 H 175.148 3.20116 5.1996 0
M  V30 1895 H 176.562 4.60544 3.41426 0
M  V30 1896 H 174.959 5.23457 2.9345 0
M  V30 1897 H 176.029 4.53996 1.70339 0
M  V30 1898 N 177.372 -0.689602 1.41712 0
M  V30 1899 C 178.618 -1.45181 1.41599 0
M  V30 1900 C 178.951 -1.94181 0.0270081 0
M  V30 1901 O 178.226 -1.6993 -0.946265 0
M  V30 1902 C 178.509 -2.65945 2.42787 0
M  V30 1903 C 178.362 -2.22672 3.90816 0
M  V30 1904 C 179.681 -3.68149 2.41151 0
M  V30 1905 H 176.8 -0.526576 0.515642 0
M  V30 1906 H 179.442 -0.784947 1.73028 0
M  V30 1907 H 177.592 -3.2284 2.16116 0
M  V30 1908 H 179.264 -1.71058 4.28412 0
M  V30 1909 H 177.507 -1.54394 4.05395 0
M  V30 1910 H 178.178 -3.0935 4.57172 0
M  V30 1911 H 180.654 -3.2094 2.64834 0
M  V30 1912 H 179.53 -4.50248 3.13955 0
M  V30 1913 H 179.791 -4.18259 1.43221 0
M  V30 1914 N 178.85 -1.27639 -0.924453 0
M  V30 1915 C 179.78 -1.13166 -2.04244 0
M  V30 1916 C 180.761 -0.032256 -1.70069 0
M  V30 1917 O 181.946 -0.207328 -1.9309 0
M  V30 1918 C 179.076 -0.781496 -3.38393 0
M  V30 1919 C 178.03 -1.83449 -3.86692 0
M  V30 1920 C 177.356 -1.33822 -5.17683 0
M  V30 1921 C 178.656 -3.23917 -4.09726 0
M  V30 1922 H 180.35 -2.06689 -2.1661 0
M  V30 1923 H 177.896 -0.995136 -1.04082 0
M  V30 1924 H 179.849 -0.667057 -4.16087 0
M  V30 1925 H 178.573 0.189439 -3.2605 0
M  V30 1926 H 177.232 -1.93789 -3.11193 0
M  V30 1927 H 176.88 -0.35665 -5.01734 0
M  V30 1928 H 176.58 -2.04224 -5.50968 0
M  V30 1929 H 178.104 -1.23679 -5.97943 0
M  V30 1930 H 179.518 -3.16559 -4.77978 0
M  V30 1931 H 177.915 -3.92059 -4.54324 0
M  V30 1932 H 178.985 -3.68729 -3.14908 0
M  V30 1933 N 180.328 1.1314 -1.09713 0
M  V30 1934 C 181.744 1.36477 -0.827423 0
M  V30 1935 C 181.944 1.93654 0.556817 0
M  V30 1936 O 181 2.15791 1.31112 0
M  V30 1937 C 182.313 2.31334 -1.92106 0
M  V30 1938 C 183.861 2.44943 -1.94864 0
M  V30 1939 C 184.336 3.4311 -3.0338 0
M  V30 1940 N 185.827 3.50662 -3.02639 0
M  V30 1941 C 186.562 4.2651 -3.83246 0
M  V30 1942 N 186.058 5.05485 -4.73768 0
M  V30 1943 N 187.851 4.2184 -3.71493 0
M  V30 1944 H 180.002 0.743807 -1.9895 0
M  V30 1945 H 182.265 0.389823 -0.864143 0
M  V30 1946 H 181.971 1.96483 -2.91698 0
M  V30 1947 H 181.845 3.31381 -1.80184 0
M  V30 1948 H 184.232 2.79079 -0.959099 0
M  V30 1949 H 184.313 1.4481 -2.10864 0
M  V30 1950 H 183.957 3.09704 -4.02549 0
M  V30 1951 H 183.887 4.43055 -2.84622 0
M  V30 1952 H 186.378 2.94315 -2.37039 0
M  V30 1953 H 186.691 5.60675 -5.3185 0
M  V30 1954 H 185.036 5.04708 -4.77802 0
M  V30 1955 H 188.227 3.5922 -3.00131 0
M  V30 1956 H 188.4 4.80697 -4.3455 0
M  V30 1957 N 181.806 0.884767 1.30421 0
M  V30 1958 C 183.222 0.57874 1.48737 0
M  V30 1959 C 183.422 -0.883567 1.81095 0
M  V30 1960 O 182.478 -1.6648 1.89844 0
M  V30 1961 C 183.791 1.49171 2.61091 0
M  V30 1962 C 185.339 1.49532 2.74971 0
M  V30 1963 C 185.814 2.39421 3.90438 0
M  V30 1964 N 187.305 2.37383 3.97748 0
M  V30 1965 C 188.04 3.03647 4.86401 0
M  V30 1966 N 187.536 3.79136 5.79852 0
M  V30 1967 N 189.329 2.9288 4.79768 0
M  V30 1968 H 181.48 1.83075 1.0769 0
M  V30 1969 H 183.743 0.783637 0.533495 0
M  V30 1970 H 183.449 2.53291 2.44001 0
M  V30 1971 H 183.323 1.20113 3.57565 0
M  V30 1972 H 185.71 0.46163 2.91467 0
M  V30 1973 H 185.791 1.8262 1.79119 0
M  V30 1974 H 185.435 3.42874 3.74699 0
M  V30 1975 H 185.365 2.03649 4.85628 0
M  V30 1976 H 187.856 1.82525 3.30897 0
M  V30 1977 H 188.169 4.26789 6.4426 0
M  V30 1978 H 186.514 3.83243 5.79784 0
M  V30 1979 H 189.705 2.33433 4.05742 0
M  V30 1980 H 189.878 3.448 5.4865 0
M  V30 1981 N 183.284 -1.43765 0.645699 0
M  V30 1982 C 184.194 -2.34544 -0.0512957 0
M  V30 1983 C 185.21 -1.53455 -0.82022 0
M  V30 1984 O 186.386 -1.86133 -0.769176 0
M  V30 1985 C 183.451 -3.31636 -1.01087 0
M  V30 1986 C 182.512 -4.2863 -0.239712 0
M  V30 1987 C 181.745 -5.21084 -1.15358 0
M  V30 1988 O 181.968 -5.1779 -2.39269 0
M  V30 1989 O 180.902 -5.98593 -0.630038 0
M  V30 1990 H 184.728 -2.95624 0.695718 0
M  V30 1991 H 182.313 -1.43781 0.405882 0
M  V30 1992 H 184.195 -3.9136 -1.56254 0
M  V30 1993 H 182.87 -2.73069 -1.73824 0
M  V30 1994 H 181.777 -3.72408 0.355356 0
M  V30 1995 H 183.11 -4.90157 0.447936 0
M  V30 1996 N 184.763 -0.387143 -1.52771 0
M  V30 1997 C 186.174 0.0873634 -1.86495 0
M  V30 1998 C 186.525 1.46336 -1.30691 0
M  V30 1999 O 185.65 2.068 -0.637409 0
M  V30 2000 C 186.245 0.165305 -3.38396 0
M  V30 2001 C 184.804 0.584101 -3.7184 0
M  V30 2002 C 183.951 -0.255279 -2.76122 0
M  V30 2003 H 186.902 -0.605104 -1.46711 0
M  V30 2004 H 186.923 0.984848 -3.67534 0
M  V30 2005 H 186.435 -0.836301 -3.78982 0
M  V30 2006 H 184.536 1.59315 -3.36823 0
M  V30 2007 H 184.649 0.343749 -4.77865 0
M  V30 2008 H 183.013 0.279126 -2.53166 0
M  V30 2009 H 183.796 -1.25482 -3.19545 0
M  V30 2010 N 186.241 1.57166 -0.116904 0
M  V30 2011 C 187.652 1.82169 0.408809 0
M  V30 2012 C 188.003 1.03393 1.66746 0
M  V30 2013 O 187.128 0.269886 2.1471 0
M  V30 2014 C 187.723 3.30429 0.748466 0
M  V30 2015 C 186.282 3.5612 1.21882 0
M  V30 2016 C 185.429 2.76374 0.226452 0
M  V30 2017 H 188.38 1.5497 -0.342063 0
M  V30 2018 H 188.401 3.44943 1.60607 0
M  V30 2019 H 187.913 3.87737 -0.167784 0
M  V30 2020 H 186.014 3.04168 2.15204 0
M  V30 2021 H 186.127 4.64705 1.16559 0
M  V30 2022 H 184.491 2.44515 0.713063 0
M  V30 2023 H 185.274 3.3644 -0.682859 0
M  V30 2024 N 187.719 -0.156864 1.56817 0
M  V30 2025 C 188.669 -1.19891 1.93934 0
M  V30 2026 C 189.653 -1.39061 0.809372 0
M  V30 2027 O 190.845 -1.40789 1.07273 0
M  V30 2028 C 187.974 -2.53493 2.31508 0
M  V30 2029 C 187.06 -2.37957 3.51052 0
M  V30 2030 N 187.451 -1.92158 4.67877 0
M  V30 2031 C 185.749 -2.68739 3.55943 0
M  V30 2032 C 186.45 -1.8943 5.49992 0
M  V30 2033 N 185.426 -2.32375 4.91429 0
M  V30 2034 H 189.228 -0.836746 2.81737 0
M  V30 2035 H 186.742 -0.365012 1.58245 0
M  V30 2036 H 188.739 -3.28811 2.56299 0
M  V30 2037 H 187.399 -2.905 1.45051 0
M  V30 2038 H 188.41 -1.62274 4.91821 0
M  V30 2039 H 185.087 -3.09687 2.80001 0
M  V30 2040 H 186.477 -1.55596 6.53636 0
M  V30 2041 N 189.197 -1.51736 -0.425897 0
M  V30 2042 C 190.437 -1.66636 -1.18371 0
M  V30 2043 C 190.801 -0.379854 -1.88205 0
M  V30 2044 O 192.002 -0.404758 -2.65735 0
M  V30 2045 C 190.273 -2.84382 -2.16476 0
M  V30 2046 S 191.832 -3.19673 -3.0059 0
M  V30 2047 H 188.65 -0.586957 -0.40125 0
M  V30 2048 H 191.252 -1.89679 -0.473518 0
M  V30 2049 H 189.956 -3.76281 -1.63831 0
M  V30 2050 H 189.487 -2.63562 -2.92059 0
M  V30 2051 H 191.502 -2.66994 -4.18245 0
M  V30 2052 N 190.675 0.682077 -1.42076 0
M  V30 2053 C 192.086 1.26246 -1.37546 0
M  V30 2054 C 192.437 1.96092 -0.0651481 0
M  V30 2055 O 191.562 1.99587 0.836297 0
M  V30 2056 C 192.157 2.29594 -2.49143 0
M  V30 2057 C 190.716 2.83175 -2.47969 0
M  V30 2058 C 189.863 1.57395 -2.28303 0
M  V30 2059 H 192.814 0.475937 -1.51395 0
M  V30 2060 H 192.835 3.11175 -2.18976 0
M  V30 2061 H 192.347 1.78729 -3.44496 0
M  V30 2062 H 190.448 3.3818 -1.56413 0
M  V30 2063 H 190.561 3.32687 -3.44755 0
M  V30 2064 H 188.925 1.83699 -1.76428 0
M  V30 2065 H 189.708 1.08507 -3.25701 0
M  V30 2066 N 192.153 1.28127 0.917671 0
M  V30 2067 C 193.101 1.11569 2.04096 0
M  V30 2068 C 194.095 0.0360242 1.69362 0
M  V30 2069 O 195.301 0.194501 1.78946 0
M  V30 2070 H 191.676 0.344097 0.668656 0
M  V30 2071 H 193.647 2.06711 2.15205 0
M  V30 2072 C 192.396 0.790197 3.38602 0
M  V30 2073 H 191.719 1.61293 3.6582 0
M  V30 2074 H 193.159 0.714271 4.1794 0
M  V30 2075 C 191.618 -0.505897 3.3308 0
M  V30 2076 O 192.148 -1.53736 3.71117 0
M  V30 2077 N 190.354 -0.505193 2.86175 0
M  V30 2078 H 189.901 0.334621 2.55417 0
M  V30 2079 H 189.859 -1.37243 2.82863 0
M  V30 2080 N 193.631 -1.12557 1.10312 0
M  V30 2081 C 194.856 -1.88405 0.867085 0
M  V30 2082 C 195.281 -1.79038 -0.576817 0
M  V30 2083 O 194.639 -1.14439 -1.40618 0
M  V30 2084 C 194.687 -3.3563 1.31851 0
M  V30 2085 O 193.791 -4.09565 0.482734 0
M  V30 2086 H 193.132 -0.585455 0.313271 0
M  V30 2087 H 195.662 -1.42352 1.4696 0
M  V30 2088 H 195.672 -3.86469 1.3079 0
M  V30 2089 H 194.347 -3.41765 2.37001 0
M  V30 2090 H 192.924 -3.68695 0.558448 0
M  V30 2091 N 195.109 -0.891671 -1.2995 0
M  V30 2092 C 196.356 -0.513501 -1.95881 0
M  V30 2093 C 196.684 0.938655 -1.70351 0
M  V30 2094 O 195.939 1.67936 -1.00478 0
M  V30 2095 C 196.238 -0.742868 -3.49594 0
M  V30 2096 C 195.904 -2.17114 -3.95186 0
M  V30 2097 C 194.566 -2.56169 -4.07346 0
M  V30 2098 C 196.918 -3.10162 -4.18866 0
M  V30 2099 C 194.246 -3.87469 -4.4055 0
M  V30 2100 C 196.598 -4.41001 -4.53542 0
M  V30 2101 C 195.262 -4.79941 -4.63911 0
M  V30 2102 H 194.532 -0.187903 -0.71678 0
M  V30 2103 H 197.179 -1.1288 -1.54694 0
M  V30 2104 H 195.484 -0.044586 -3.91775 0
M  V30 2105 H 197.181 -0.429767 -3.9869 0
M  V30 2106 H 193.771 -1.85801 -3.86233 0
M  V30 2107 H 197.955 -2.81206 -4.08946 0
M  V30 2108 H 193.211 -4.17371 -4.46779 0
M  V30 2109 H 197.385 -5.13133 -4.70815 0
M  V30 2110 H 195.012 -5.81719 -4.89395 0
M  V30 2111 N 196.587 1.43421 -0.653314 0
M  V30 2112 C 198.003 1.56341 -0.320886 0
M  V30 2113 C 198.203 1.63696 1.17499 0
M  V30 2114 O 197.259 1.59208 1.95982 0
M  V30 2115 C 198.572 2.82424 -1.03233 0
M  V30 2116 C 200.12 2.96168 -1.01259 0
M  V30 2117 C 200.595 4.25084 -1.70492 0
M  V30 2118 N 202.086 4.31948 -1.67257 0
M  V30 2119 C 202.821 5.30466 -2.17701 0
M  V30 2120 N 202.317 6.35261 -2.76434 0
M  V30 2121 N 204.11 5.2212 -2.082 0
M  V30 2122 H 196.261 1.3689 -1.62403 0
M  V30 2123 H 198.524 0.657455 -0.682977 0
M  V30 2124 H 198.23 2.83053 -2.08744 0
M  V30 2125 H 198.104 3.72653 -0.583948 0
M  V30 2126 H 200.491 2.9508 0.0341235 0
M  V30 2127 H 200.572 2.07229 -1.49966 0
M  V30 2128 H 200.216 4.26932 -2.7512 0
M  V30 2129 H 200.146 5.1292 -1.19251 0
M  V30 2130 H 202.637 3.56838 -1.24398 0
M  V30 2131 H 202.95 7.06754 -3.12601 0
M  V30 2132 H 201.295 6.35884 -2.80495 0
M  V30 2133 H 204.486 4.39166 -1.62021 0
M  V30 2134 H 204.659 5.98739 -2.47822 0
M  V30 2135 N 198.065 0.39524 1.52563 0
M  V30 2136 C 198.995 -0.428384 2.29537 0
M  V30 2137 C 199.976 -1.05831 1.33169 0
M  V30 2138 O 201.161 -1.06995 1.62067 0
M  V30 2139 C 198.291 -1.55274 3.10656 0
M  V30 2140 C 197.245 -1.04855 4.14957 0
M  V30 2141 C 196.571 -2.26543 4.84337 0
M  V30 2142 C 197.871 -0.112324 5.22179 0
M  V30 2143 H 199.565 0.213867 2.98635 0
M  V30 2144 H 197.111 0.104298 1.43622 0
M  V30 2145 H 199.064 -2.1358 3.63265 0
M  V30 2146 H 197.788 -2.22266 2.39302 0
M  V30 2147 H 196.447 -0.487985 3.63338 0
M  V30 2148 H 196.095 -2.92059 4.09525 0
M  V30 2149 H 195.795 -1.93466 5.54837 0
M  V30 2150 H 197.319 -2.85481 5.39753 0
M  V30 2151 H 198.733 -0.603752 5.70112 0
M  V30 2152 H 197.13 0.128968 5.99961 0
M  V30 2153 H 198.2 0.837052 4.77621 0
M  V30 2154 N 199.544 -1.57102 0.125237 0
M  V30 2155 C 200.454 -2.19191 -0.8362 0
M  V30 2156 C 201.47 -1.16985 -1.28805 0
M  V30 2157 O 202.646 -1.49479 -1.34974 0
M  V30 2158 C 199.711 -2.78407 -2.06617 0
M  V30 2159 C 198.772 -3.9567 -1.66565 0
M  V30 2160 C 198.005 -4.52052 -2.83698 0
M  V30 2161 O 198.228 -4.07326 -3.99302 0
M  V30 2162 O 197.162 -5.42645 -2.60423 0
M  V30 2163 H 200.988 -3.01816 -0.337776 0
M  V30 2164 H 198.573 -1.4906 -0.100695 0
M  V30 2165 H 200.455 -3.16129 -2.7864 0
M  V30 2166 H 199.13 -1.9881 -2.55453 0
M  V30 2167 H 198.037 -3.62705 -0.916296 0
M  V30 2168 H 199.37 -4.76722 -1.22464 0
M  V30 2169 N 201.022 0.148545 -1.56898 0
M  V30 2170 C 201.969 1.18345 -1.98149 0
M  V30 2171 C 202.939 1.42772 -0.848848 0
M  V30 2172 O 204.124 1.55132 -1.11079 0
M  V30 2173 C 201.264 2.51231 -2.36594 0
M  V30 2174 C 200.377 2.33991 -3.63142 0
M  V30 2175 C 199.512 3.59902 -3.90697 0
M  V30 2176 C 198.551 3.37692 -5.1052 0
M  V30 2177 N 197.688 4.5573 -5.34092 0
M  V30 2178 H 202.528 0.82467 -2.86362 0
M  V30 2179 H 200.065 0.395756 -1.41676 0
M  V30 2180 H 202.023 3.28713 -2.56912 0
M  V30 2181 H 200.653 2.85059 -1.51463 0
M  V30 2182 H 199.705 1.47572 -3.50609 0
M  V30 2183 H 201.017 2.13539 -4.5078 0
M  V30 2184 H 200.171 4.45813 -4.11505 0
M  V30 2185 H 198.91 3.83357 -3.01477 0
M  V30 2186 H 197.915 2.5017 -4.89587 0
M  V30 2187 H 199.14 3.15637 -6.0129 0
M  V30 2188 H 197.086 4.79361 -4.47827 0
M  V30 2189 H 197.003 4.38274 -6.15996 0
M  V30 2190 H 198.271 5.42858 -5.59397 0
M  V30 2191 N 202.5 1.5196 0.417844 0
M  V30 2192 C 203.749 1.6482 1.16264 0
M  V30 2193 C 204.062 0.379886 1.91876 0
M  V30 2194 O 205.268 0.388154 2.68711 0
M  V30 2195 C 203.724 2.91161 2.1155 0
M  V30 2196 C 203.332 4.25068 1.41495 0
M  V30 2197 C 205.076 3.13383 2.86341 0
M  V30 2198 C 202.983 5.42541 2.35379 0
M  V30 2199 H 201.913 0.613954 0.437694 0
M  V30 2200 H 204.564 1.78442 0.427871 0
M  V30 2201 H 202.946 2.71218 2.88543 0
M  V30 2202 H 204.12 4.55463 0.699263 0
M  V30 2203 H 202.435 4.0888 0.787792 0
M  V30 2204 H 205.032 3.98324 3.5671 0
M  V30 2205 H 205.375 2.27256 3.48798 0
M  V30 2206 H 205.908 3.33757 2.1645 0
M  V30 2207 H 202.647 6.30987 1.77582 0
M  V30 2208 H 202.167 5.16497 3.04945 0
M  V30 2209 H 203.846 5.75272 2.96093 0
M  V30 2210 N 203.978 -0.674533 1.42435 0
M  V30 2211 C 204.908 -1.80009 1.48724 0
M  V30 2212 C 205.889 -1.6659 0.343793 0
M  V30 2213 O 207.074 -1.86007 0.558137 0
M  V30 2214 C 204.204 -3.18306 1.38919 0
M  V30 2215 C 203.158 -3.46461 2.51294 0
M  V30 2216 C 202.484 -4.84335 2.26547 0
M  V30 2217 C 203.784 -3.43328 3.93603 0
M  V30 2218 H 205.478 -1.75004 2.42928 0
M  V30 2219 H 203.024 -0.840533 1.16923 0
M  V30 2220 H 204.977 -3.9678 1.41927 0
M  V30 2221 H 203.701 -3.2399 0.412094 0
M  V30 2222 H 202.36 -2.70348 2.47604 0
M  V30 2223 H 202.008 -4.86669 1.2713 0
M  V30 2224 H 201.708 -5.04136 3.01861 0
M  V30 2225 H 203.232 -5.65094 2.31304 0
M  V30 2226 H 204.646 -4.11772 3.98894 0
M  V30 2227 H 203.043 -3.74664 4.68771 0
M  V30 2228 H 204.113 -2.41897 4.20255 0
M  V30 2229 N 205.456 -1.28612 -0.910864 0
M  V30 2230 C 206.702 -1.16106 -1.66274 0
M  V30 2231 C 207.035 0.289113 -1.92036 0
M  V30 2232 O 206.31 1.21 -1.52281 0
M  V30 2233 C 206.593 -1.96309 -3.01885 0
M  V30 2234 C 206.446 -3.49405 -2.8326 0
M  V30 2235 C 207.765 -1.78076 -4.02463 0
M  V30 2236 H 204.884 -0.423152 -0.603417 0
M  V30 2237 H 207.526 -1.57961 -1.05586 0
M  V30 2238 H 205.676 -1.60742 -3.53687 0
M  V30 2239 H 207.348 -3.94894 -2.38446 0
M  V30 2240 H 205.591 -3.74893 -2.18261 0
M  V30 2241 H 206.262 -4.00784 -3.79574 0
M  V30 2242 H 208.738 -2.0912 -3.59733 0
M  V30 2243 H 207.614 -2.36561 -4.95308 0
M  V30 2244 H 207.875 -0.733008 -4.35981 0
M  V30 2245 N 206.934 1.1197 -1.10907 0
M  V30 2246 C 208.159 1.87942 -0.877064 0
M  V30 2247 C 208.584 1.79341 0.567314 0
M  V30 2248 O 207.942 1.15184 1.40009 0
M  V30 2249 C 207.99 3.34926 -1.33629 0
M  V30 2250 O 207.094 4.09303 -0.504447 0
M  V30 2251 H 206.435 0.583785 -0.316371 0
M  V30 2252 H 208.965 1.4157 -1.47712 0
M  V30 2253 H 208.975 3.8577 -1.32837 0
M  V30 2254 H 207.65 3.40504 -2.3881 0
M  V30 2255 H 206.227 3.68393 -0.577993 0
M  V30 2256 N 208.412 0.89855 1.29475 0
M  V30 2257 C 209.658 0.524658 1.95896 0
M  V30 2258 C 209.991 -0.926468 1.70676 0
M  V30 2259 O 209.266 -1.65665 1.01908 0
M  V30 2260 C 209.549 0.81633 3.50725 0
M  V30 2261 C 209.402 2.31907 3.85408 0
M  V30 2262 C 210.721 0.302038 4.39062 0
M  V30 2263 H 207.84 0.19209 0.711527 0
M  V30 2264 H 210.482 1.12502 1.53112 0
M  V30 2265 H 208.632 0.305369 3.87298 0
M  V30 2266 H 210.304 2.89949 3.58786 0
M  V30 2267 H 208.547 2.78027 3.32992 0
M  V30 2268 H 209.218 2.47373 4.93468 0
M  V30 2269 H 211.694 0.739551 4.09475 0
M  V30 2270 H 210.57 0.535331 5.46283 0
M  V30 2271 H 210.831 -0.797216 4.34853 0
M  V30 2272 N 209.89 -1.43072 0.660911 0
M  V30 2273 C 211.138 -2.01323 0.177094 0
M  V30 2274 C 211.459 -1.5245 -1.2159 0
M  V30 2275 O 210.729 -0.740322 -1.81373 0
M  V30 2276 H 209.309 -0.744382 0.0624804 0
M  V30 2277 H 211.971 -1.75179 0.854305 0
M  V30 2278 H 211.067 -3.11649 0.167641 0
M  V30 2279 N 211.368 -0.403325 -1.52352 0
M  V30 2280 C 212.608 0.173946 -2.03659 0
M  V30 2281 C 212.972 1.42869 -1.28267 0
M  V30 2282 O 214.173 2.08403 -1.69769 0
M  V30 2283 C 212.444 0.421478 -3.54906 0
M  V30 2284 S 214.003 0.967027 -4.28012 0
M  V30 2285 H 210.821 0.0477461 -0.709395 0
M  V30 2286 H 213.423 -0.554906 -1.87459 0
M  V30 2287 H 212.127 -0.498616 -4.0736 0
M  V30 2288 H 211.658 1.17837 -3.75337 0
M  V30 2289 H 213.673 2.24812 -4.4235 0
M  V30 2290 N 212.846 1.57033 -0.133567 0
M  V30 2291 C 214.074 2.00044 0.528195 0
M  V30 2292 C 214.489 1.01349 1.59291 0
M  V30 2293 O 213.846 0.00848369 1.82498 0
M  V30 2294 C 213.897 3.43018 1.1411 0
M  V30 2295 O 213.618 4.37939 0.11892 0
M  V30 2296 C 215.119 4.01237 1.88477 0
M  V30 2297 H 212.339 0.656517 0.138661 0
M  V30 2298 H 214.883 2.03267 -0.224196 0
M  V30 2299 H 213.038 3.40688 1.84418 0
M  V30 2300 H 213.452 5.21436 0.56613 0
M  V30 2301 H 214.926 5.03314 2.26669 0
M  V30 2302 H 215.403 3.41193 2.76558 0
M  V30 2303 H 216.009 4.07156 1.22898 0
M  V30 2304 N 214.325 -0.140222 1.56975 0
M  V30 2305 C 215.565 -0.857823 1.85528 0
M  V30 2306 C 215.929 -1.78039 0.718768 0
M  V30 2307 O 217.13 -2.53795 0.885521 0
M  V30 2308 C 215.401 -1.60615 3.19277 0
M  V30 2309 S 216.96 -2.36824 3.69405 0
M  V30 2310 H 213.778 -0.286727 0.650622 0
M  V30 2311 H 216.38 -0.117408 1.95147 0
M  V30 2312 H 215.084 -0.919994 3.99955 0
M  V30 2313 H 214.615 -2.38735 3.12681 0
M  V30 2314 H 216.63 -3.62148 3.3921 0
M  V30 2315 N 215.803 -1.52179 -0.40978 0
M  V30 2316 C 217.049 -1.66453 -1.15851 0
M  V30 2317 C 217.382 -0.392972 -1.90182 0
M  V30 2318 O 216.657 0.608579 -1.84734 0
M  V30 2319 C 216.94 -2.88612 -2.15349 0
M  V30 2320 C 216.793 -4.25815 -1.44918 0
M  V30 2321 C 218.112 -3.06294 -3.16026 0
M  V30 2322 H 215.231 -0.60575 -0.419805 0
M  V30 2323 H 217.873 -1.84732 -0.444314 0
M  V30 2324 H 216.023 -2.73158 -2.76255 0
M  V30 2325 H 217.695 -4.52995 -0.871365 0
M  V30 2326 H 215.938 -4.27247 -0.751159 0
M  V30 2327 H 216.609 -5.07337 -2.17516 0
M  V30 2328 H 219.085 -3.20641 -2.65195 0
M  V30 2329 H 217.961 -3.93283 -3.8291 0
M  V30 2330 H 218.222 -2.19579 -3.83715 0
M  V30 2331 N 217.281 0.66697 -1.42791 0
M  V30 2332 C 218.509 1.45505 -1.47091 0
M  V30 2333 C 218.924 1.8861 -0.0845873 0
M  V30 2334 O 218.281 1.58632 0.90234 0
M  V30 2335 C 218.332 2.69906 -2.40485 0
M  V30 2336 O 218.053 2.28608 -3.73725 0
M  V30 2337 C 219.554 3.63396 -2.53886 0
M  V30 2338 H 216.774 0.447459 -0.500022 0
M  V30 2339 H 219.318 0.818866 -1.8739 0
M  V30 2340 H 217.473 3.29696 -2.03419 0
M  V30 2341 H 217.887 3.08997 -4.23817 0
M  V30 2342 H 219.361 4.47387 -3.2334 0
M  V30 2343 H 219.838 4.09824 -1.57927 0
M  V30 2344 H 220.444 3.09495 -2.91706 0
M  V30 2345 N 218.759 1.29093 0.90403 0
M  V30 2346 C 220.17 1.15186 1.46932 0
M  V30 2347 C 220.521 -0.254587 1.94541 0
M  V30 2348 O 219.646 -1.14972 1.83332 0
M  V30 2349 C 220.241 2.08492 2.67051 0
M  V30 2350 C 218.8 1.98621 3.19729 0
M  V30 2351 C 217.947 1.9967 1.92425 0
M  V30 2352 H 220.898 1.41641 0.715789 0
M  V30 2353 H 220.919 1.65461 3.42641 0
M  V30 2354 H 220.431 3.10847 2.3237 0
M  V30 2355 H 218.532 0.993389 3.59114 0
M  V30 2356 H 218.645 2.86068 3.8432 0
M  V30 2357 H 217.009 1.44208 2.09943 0
M  V30 2358 H 217.792 3.03721 1.60026 0
M  V30 2359 N 220.237 -1.11381 1.11499 0
M  V30 2360 C 221.486 -1.82494 0.858993 0
M  V30 2361 C 221.799 -1.85605 -0.617278 0
M  V30 2362 O 223.005 -2.52824 -0.989552 0
M  V30 2363 C 221.461 -3.27745 1.48699 0
M  V30 2364 C 221.069 -3.32961 2.99735 0
M  V30 2365 C 222.813 -4.03754 1.31085 0
M  V30 2366 C 220.72 -4.72612 3.55516 0
M  V30 2367 H 219.65 -0.683802 0.317696 0
M  V30 2368 H 222.301 -1.25331 1.34031 0
M  V30 2369 H 220.683 -3.84844 0.933339 0
M  V30 2370 H 221.857 -2.85741 3.61509 0
M  V30 2371 H 220.172 -2.70433 3.16631 0
M  V30 2372 H 222.769 -5.06891 1.70192 0
M  V30 2373 H 223.112 -4.15527 0.253496 0
M  V30 2374 H 223.645 -3.53043 1.83318 0
M  V30 2375 H 220.384 -4.66036 4.60967 0
M  V30 2376 H 219.904 -5.2024 2.98513 0
M  V30 2377 H 221.583 -5.4157 3.53992 0
M  V30 2378 N 221.715 -0.905404 -1.28997 0
M  V30 2379 C 222.961 -0.535039 -1.95615 0
M  V30 2380 C 223.294 0.917404 -1.71165 0
M  V30 2381 O 222.569 1.65123 -1.02785 0
M  V30 2382 C 222.852 -0.834918 -3.50287 0
M  V30 2383 C 222.705 -2.33948 -3.84172 0
M  V30 2384 C 224.024 -0.325318 -4.38896 0
M  V30 2385 H 221.143 -0.195861 -0.710498 0
M  V30 2386 H 223.785 -1.13313 -1.52513 0
M  V30 2387 H 221.935 -0.325904 -3.87131 0
M  V30 2388 H 223.607 -2.91847 -3.57243 0
M  V30 2389 H 221.85 -2.79789 -3.31513 0
M  V30 2390 H 222.521 -2.49987 -4.92149 0
M  V30 2391 H 224.997 -0.761256 -4.09077 0
M  V30 2392 H 223.873 -0.564295 -5.45992 0
M  V30 2393 H 224.134 0.774144 -4.35269 0
M  V30 2394 N 223.193 1.4272 -0.668489 0
M  V30 2395 C 224.143 2.27971 0.0363806 0
M  V30 2396 C 225.127 1.40741 0.779794 0
M  V30 2397 O 226.319 1.64245 0.659745 0
M  V30 2398 C 223.448 3.28673 0.991398 0
M  V30 2399 C 222.534 4.23388 0.245658 0
M  V30 2400 N 222.925 5.00267 -0.746069 0
M  V30 2401 C 221.223 4.43355 0.484988 0
M  V30 2402 C 221.924 5.69396 -1.19009 0
M  V30 2403 N 220.9 5.41095 -0.521287 0
M  V30 2404 H 224.702 2.84833 -0.724394 0
M  V30 2405 H 222.216 1.54607 -0.497028 0
M  V30 2406 H 224.213 3.88543 1.51129 0
M  V30 2407 H 222.873 2.73373 1.75207 0
M  V30 2408 H 223.884 5.05525 -1.12537 0
M  V30 2409 H 220.561 3.99104 1.22565 0
M  V30 2410 H 221.951 6.41083 -2.01153 0
M  V30 2411 N 224.671 0.411399 1.52136 0
M  V30 2412 C 225.621 -0.430376 2.23901 0
M  V30 2413 C 226.605 -1.0116 1.25121 0
M  V30 2414 O 227.797 -0.934044 1.50348 0
M  V30 2415 C 224.926 -1.54527 3.06556 0
M  V30 2416 C 224.012 -0.9747 4.12747 0
M  V30 2417 N 224.403 -0.130991 5.0563 0
M  V30 2418 C 222.701 -1.24497 4.28271 0
M  V30 2419 C 223.402 0.186689 5.814 0
M  V30 2420 N 222.378 -0.42304 5.41951 0
M  V30 2421 H 226.18 0.220509 2.93072 0
M  V30 2422 H 223.694 0.221952 1.60876 0
M  V30 2423 H 225.691 -2.16093 3.56524 0
M  V30 2424 H 224.351 -2.19875 2.38925 0
M  V30 2425 H 225.362 0.23349 5.17373 0
M  V30 2426 H 222.039 -1.89787 3.7187 0
M  V30 2427 H 223.429 0.871673 6.66222 0
M  V30 2428 N 226.149 -1.5696 0.141893 0
M  V30 2429 C 227.395 -1.9625 -0.511248 0
M  V30 2430 C 227.728 -1.02654 -1.64851 0
M  V30 2431 O 227.003 -0.0679676 -1.94381 0
M  V30 2432 C 227.286 -3.45285 -1.02227 0
M  V30 2433 C 227.139 -4.49658 0.113138 0
M  V30 2434 C 228.458 -3.96698 -1.90574 0
M  V30 2435 H 225.577 -0.713567 -0.184367 0
M  V30 2436 H 228.219 -1.88698 0.222087 0
M  V30 2437 H 226.369 -3.51852 -1.64719 0
M  V30 2438 H 228.041 -4.55174 0.749302 0
M  V30 2439 H 226.284 -4.26857 0.773026 0
M  V30 2440 H 226.955 -5.51258 -0.286053 0
M  V30 2441 H 229.431 -3.92578 -1.37918 0
M  V30 2442 H 228.307 -5.01453 -2.2324 0
M  V30 2443 H 228.568 -3.3875 -2.84079 0
M  V30 2444 N 227.627 0.131896 -1.57047 0
M  V30 2445 C 228.59 1.14638 -1.98471 0
M  V30 2446 C 229.59 1.35029 -0.873148 0
M  V30 2447 O 230.78 1.31764 -1.13946 0
M  V30 2448 C 227.912 2.50358 -2.31373 0
M  V30 2449 H 229.105 0.79064 -2.8929 0
M  V30 2450 H 226.658 0.375761 -1.51716 0
M  V30 2451 H 227.393 2.90876 -1.43393 0
M  V30 2452 H 227.178 2.36915 -3.12432 0
M  V30 2453 H 228.668 3.23395 -2.64207 0
M  V30 2454 O 229.144 1.59117 0.276399 0
M  V30 2455 H 229.835 1.70359 0.921826 0
M  V30 END ATOM
M  V30 BEGIN BOND
M  V30 END BOND
M  V30 END CTAB
M  END
$$$$
