drugbank_target|P63027 Vesicle-associated membrane protein 2 (DB00042)
 OpenBabel12092120063D

  0  0  0     0  0            999 V3000
M  V30 BEGIN CTAB
M  V30 COUNTS 1809 1824 0 0 0
M  V30 BEGIN ATOM
M  V30 1 H -0.908 1.98254 -0.117106 0
M  V30 2 N 0 1.576 0 0
M  V30 3 C 0.933 2.03868 1.02534 0
M  V30 4 C 1.911 0.928543 1.3348 0
M  V30 5 O 3.095 1.19667 1.45644 0
M  V30 6 C 0.222 2.43627 2.35294 0
M  V30 7 C -0.732 3.65373 2.2001 0
M  V30 8 S 0.101 5.13292 1.52614 0
M  V30 9 C 1.257 5.56322 2.86805 0
M  V30 10 H 1.49 2.90518 0.631377 0
M  V30 11 H -0.977 1.52953 0.210867 0
M  V30 12 H 0.981 2.67203 3.11629 0
M  V30 13 H -0.358 1.57376 2.7183 0
M  V30 14 H -1.165 3.90944 3.18086 0
M  V30 15 H -1.563 3.418 1.51819 0
M  V30 16 H 0.729 5.58782 3.83104 0
M  V30 17 H 1.672 6.56266 2.65933 0
M  V30 18 H 2.08 4.83886 2.90714 0
M  V30 19 N 1.4781 -0.272755 1.55222 0
M  V30 20 C 2.7031 -1.02683 1.80197 0
M  V30 21 C 3.1281 -1.79142 0.573551 0
M  V30 22 O 2.4861 -1.74917 -0.476849 0
M  V30 23 C 2.5341 -1.9609 3.02624 0
M  V30 24 O 1.6381 -3.04863 2.77727 0
M  V30 25 H 0.9791 -0.293557 0.595584 0
M  V30 26 H 3.5091 -0.30159 2.02365 0
M  V30 27 H 3.5191 -2.38039 3.31363 0
M  V30 28 H 2.1941 -1.39851 3.91682 0
M  V30 29 H 0.7711 -2.67228 2.60084 0
M  V30 30 N 2.9562 -1.48159 -0.537278 0
M  V30 31 C 3.9192 -1.61665 -1.62472 0
M  V30 32 C 4.9192 -0.490395 -1.5314 0
M  V30 33 O 6.1092 -0.755998 -1.5694 0
M  V30 34 C 3.2412 -1.57997 -3.02076 0
M  V30 35 H 4.4342 -2.58621 -1.51839 0
M  V30 36 H 1.9872 -1.36647 -0.758771 0
M  V30 37 H 2.7222 -0.624913 -3.18222 0
M  V30 38 H 2.5072 -2.39755 -3.10258 0
M  V30 39 H 3.9972 -1.70627 -3.81151 0
M  V30 40 N 4.4343 0.785586 -1.36625 0
M  V30 41 C 5.6623 1.57448 -1.3423 0
M  V30 42 C 6.0773 1.88649 0.0755653 0
M  V30 43 O 5.4343 1.50414 1.03354 0
M  V30 44 C 5.4853 2.89316 -2.16745 0
M  V30 45 O 5.2063 2.59459 -3.53005 0
M  V30 46 C 6.7073 3.83606 -2.22174 0
M  V30 47 H 3.9273 0.488226 -0.4603 0
M  V30 48 H 6.4713 0.974733 -1.79775 0
M  V30 49 H 4.6263 3.4575 -1.74745 0
M  V30 50 H 5.0403 3.43804 -3.96105 0
M  V30 51 H 6.5143 4.73181 -2.8426 0
M  V30 52 H 6.9913 4.21734 -1.22627 0
M  V30 53 H 7.5973 3.33104 -2.64427 0
M  V30 54 N 5.9124 1.20967 1.01018 0
M  V30 55 C 6.8754 0.965918 2.07853 0
M  V30 56 C 7.8754 -0.0610545 1.60684 0
M  V30 57 O 9.0654 0.175681 1.73312 0
M  V30 58 C 6.1974 0.455513 3.37843 0
M  V30 59 H 7.3904 1.91365 2.3091 0
M  V30 60 H 4.9434 1.02594 1.17916 0
M  V30 61 H 5.6784 -0.497381 3.20463 0
M  V30 62 H 5.4634 1.19622 3.73407 0
M  V30 63 H 6.9534 0.304667 4.16487 0
M  V30 64 N 7.3905 -1.2043 1.01659 0
M  V30 65 C 8.3535 -2.21433 0.591616 0
M  V30 66 C 9.3535 -1.57203 -0.338226 0
M  V30 67 O 10.5435 -1.73737 -0.126918 0
M  V30 68 C 7.6755 -3.40628 -0.136058 0
M  V30 69 H 8.8685 -2.60545 1.48514 0
M  V30 70 H 6.4215 -1.33893 0.806379 0
M  V30 71 H 7.1565 -3.07019 -1.04449 0
M  V30 72 H 6.9415 -3.88475 0.531917 0
M  V30 73 H 8.4315 -4.15475 -0.420735 0
M  V30 74 N 8.8686 -0.792821 -1.36206 0
M  V30 75 C 10.0966 -0.378825 -2.03402 0
M  V30 76 C 10.5116 1.00586 -1.59774 0
M  V30 77 O 9.8686 1.64574 -0.788764 0
M  V30 78 C 9.9196 -0.43683 -3.58851 0
M  V30 79 O 9.6406 -1.76691 -4.00889 0
M  V30 80 C 11.1416 -0.0138943 -4.43298 0
M  V30 81 H 8.3616 -0.155673 -0.652692 0
M  V30 82 H 10.9056 -1.07261 -1.74113 0
M  V30 83 H 9.0606 0.208575 -3.86838 0
M  V30 84 H 9.4746 -1.72011 -4.95492 0
M  V30 85 H 10.9486 -0.105615 -5.51899 0
M  V30 86 H 11.4256 1.03915 -4.2673 0
M  V30 87 H 12.0316 -0.63192 -4.20579 0
M  V30 88 N 10.3467 1.47872 -0.545128 0
M  V30 89 C 11.3097 2.28337 0.198717 0
M  V30 90 C 12.3097 1.36255 0.853888 0
M  V30 91 O 13.4997 1.59003 0.711606 0
M  V30 92 C 10.6317 3.15585 1.28915 0
M  V30 93 H 11.8247 2.95567 -0.507941 0
M  V30 94 H 9.3777 1.53362 -0.301616 0
M  V30 95 H 10.1127 2.53019 2.02859 0
M  V30 96 H 9.8977 3.83337 0.824309 0
M  V30 97 H 11.3877 3.76243 1.81194 0
M  V30 98 N 11.8248 0.280983 1.55075 0
M  V30 99 C 13.2358 -0.215629 1.85451 0
M  V30 100 C 13.5868 -1.54991 1.203 0
M  V30 101 O 12.7118 -2.10699 0.493435 0
M  V30 102 C 13.3068 -0.398026 3.36454 0
M  V30 103 C 11.8658 -0.838866 3.66933 0
M  V30 104 C 11.0128 0.064458 2.77225 0
M  V30 105 H 13.9638 0.502601 1.50531 0
M  V30 106 H 13.9848 -1.23569 3.59876 0
M  V30 107 H 13.4968 0.573241 3.83843 0
M  V30 108 H 11.5978 -1.8214 3.25048 0
M  V30 109 H 11.7108 -0.672123 4.74362 0
M  V30 110 H 10.0748 -0.452863 2.50642 0
M  V30 111 H 10.8578 1.03172 3.2743 0
M  V30 112 N 13.3029 -1.57598 0.00835791 0
M  V30 113 C 14.7139 -1.7892 -0.53333 0
M  V30 114 C 15.0649 -0.916609 -1.73473 0
M  V30 115 O 14.1899 -0.121336 -2.1606 0
M  V30 116 C 14.7849 -3.24488 -0.974313 0
M  V30 117 C 13.3439 -3.46878 -1.46125 0
M  V30 118 C 12.4909 -2.74157 -0.416302 0
M  V30 119 H 15.4419 -1.56958 0.234495 0
M  V30 120 H 15.4629 -3.3306 -1.83988 0
M  V30 121 H 14.9749 -3.87972 -0.099718 0
M  V30 122 H 13.0759 -2.8862 -2.35646 0
M  V30 123 H 13.1889 -4.55572 -1.48295 0
M  V30 124 H 11.5529 -2.39022 -0.87981 0
M  V30 125 H 12.3359 -3.40345 0.44947 0
M  V30 126 N 14.781 0.264519 -1.55364 0
M  V30 127 C 15.744 1.31046 -1.88042 0
M  V30 128 C 16.744 1.41943 -0.755569 0
M  V30 129 O 17.934 1.40947 -1.02369 0
M  V30 130 C 15.066 2.69067 -2.09323 0
M  V30 131 H 16.259 1.03297 -2.81549 0
M  V30 132 H 13.812 0.502989 -1.47986 0
M  V30 133 H 14.547 3.01982 -1.18226 0
M  V30 134 H 14.332 2.62542 -2.91229 0
M  V30 135 H 15.822 3.44623 -2.35848 0
M  V30 136 N 16.2591 1.48442 0.529413 0
M  V30 137 C 17.2221 1.62524 1.61612 0
M  V30 138 C 18.2221 0.498509 1.52877 0
M  V30 139 O 19.4121 0.76431 1.56537 0
M  V30 140 C 16.5441 1.59597 3.01233 0
M  V30 141 H 17.7371 2.59423 1.50465 0
M  V30 142 H 15.2901 1.37047 0.751514 0
M  V30 143 H 16.0251 0.641781 3.17886 0
M  V30 144 H 15.8101 2.41397 3.08982 0
M  V30 145 H 17.3001 1.72646 3.80241 0
M  V30 146 N 17.7372 -0.778329 1.37039 0
M  V30 147 C 19.1482 -1.35421 1.28523 0
M  V30 148 C 19.4992 -1.96075 -0.0700901 0
M  V30 149 O 18.6242 -1.93352 -0.971801 0
M  V30 150 C 19.2192 -2.46211 2.32735 0
M  V30 151 C 17.7782 -2.99585 2.27873 0
M  V30 152 C 16.9252 -1.72748 2.16918 0
M  V30 153 H 19.8762 -0.5791 1.47757 0
M  V30 154 H 19.8972 -3.2552 1.9702 0
M  V30 155 H 19.4092 -2.02036 3.31365 0
M  V30 156 H 17.5102 -3.48152 1.32745 0
M  V30 157 H 17.6232 -3.55646 3.21018 0
M  V30 158 H 15.9872 -1.95416 1.63354 0
M  V30 159 H 16.7702 -1.30686 3.17452 0
M  V30 160 N 19.2153 -1.21501 -1.00376 0
M  V30 161 C 20.1783 -0.976927 -2.07337 0
M  V30 162 C 21.1783 0.0525322 -1.60714 0
M  V30 163 O 22.3683 -0.184869 -1.73216 0
M  V30 164 C 19.5003 -0.473423 -3.37597 0
M  V30 165 H 20.6933 -1.92587 -2.29892 0
M  V30 166 H 18.2463 -1.03217 -1.17371 0
M  V30 167 H 18.9813 0.480379 -3.20722 0
M  V30 168 H 18.7663 -1.216 -3.72768 0
M  V30 169 H 20.2563 -0.32675 -4.1632 0
M  V30 170 N 20.6934 1.19889 -1.02296 0
M  V30 171 C 21.9414 1.89046 -0.714558 0
M  V30 172 C 22.2624 1.79636 0.758681 0
M  V30 173 O 21.5324 1.20292 1.54618 0
M  V30 174 H 20.1124 0.699802 -0.261317 0
M  V30 175 H 22.7744 1.45574 -1.29592 0
M  V30 176 H 21.8704 2.95524 -1.0036 0
M  V30 177 N 22.1715 0.800033 1.35784 0
M  V30 178 C 23.0815 0.207204 2.33683 0
M  V30 179 C 24.0975 -0.64631 1.61551 0
M  V30 180 O 25.2735 -0.559604 1.93469 0
M  V30 181 C 22.3385 -0.639659 3.40748 0
M  V30 182 C 21.3995 0.233585 4.28664 0
M  V30 183 C 20.6325 -0.572954 5.30616 0
M  V30 184 O 20.8555 -1.80816 5.40982 0
M  V30 185 O 19.7895 0.0327285 6.01891 0
M  V30 186 H 23.6155 1.01692 2.86169 0
M  V30 187 H 21.2005 0.561691 1.38439 0
M  V30 188 H 23.0825 -1.12223 4.06182 0
M  V30 189 H 21.7575 -1.42708 2.90544 0
M  V30 190 H 20.6645 0.763147 3.66233 0
M  V30 191 H 21.9975 0.984784 4.82248 0
M  V30 192 N 23.6496 -1.47581 0.552962 0
M  V30 193 C 24.8976 -2.02082 0.0272703 0
M  V30 194 C 25.2186 -1.4301 -1.32563 0
M  V30 195 O 24.4886 -0.603745 -1.86365 0
M  V30 196 H 23.0686 -0.746966 0.00709182 0
M  V30 197 H 25.7306 -1.81033 0.722008 0
M  V30 198 H 24.8266 -3.12034 -0.0639951 0
M  V30 199 N 25.1277 -0.289203 -1.54924 0
M  V30 200 C 26.3757 0.322879 -1.99504 0
M  V30 201 C 26.6967 1.55313 -1.1791 0
M  V30 202 O 25.9667 1.94001 -0.272097 0
M  V30 203 H 24.5467 0.122291 -0.736922 0
M  V30 204 H 27.2087 -0.397802 -1.90797 0
M  V30 205 H 26.3047 0.603061 -3.06218 0
M  V30 206 N 26.6058 1.57591 -0.0167156 0
M  V30 207 C 28.0168 1.79201 0.523834 0
M  V30 208 C 28.3678 0.925796 1.72984 0
M  V30 209 O 27.4928 0.132792 2.15992 0
M  V30 210 C 28.0878 3.25 0.957091 0
M  V30 211 C 26.6468 3.47648 1.44283 0
M  V30 212 C 25.7938 2.74374 0.401757 0
M  V30 213 H 28.7448 1.56831 -0.242816 0
M  V30 214 H 28.7658 3.34031 1.82219 0
M  V30 215 H 28.2778 3.88019 0.0791415 0
M  V30 216 H 26.3788 2.89866 2.34113 0
M  V30 217 H 26.4918 4.56352 1.45877 0
M  V30 218 H 24.8558 2.39485 0.867121 0
M  V30 219 H 25.6388 3.40102 -0.467513 0
M  V30 220 N 28.0839 -0.256276 1.55502 0
M  V30 221 C 29.4949 -0.826068 1.67431 0
M  V30 222 C 29.8459 -1.86396 0.612446 0
M  V30 223 O 28.9709 -2.15031 -0.243025 0
M  V30 224 C 29.5659 -1.50512 3.03532 0
M  V30 225 C 28.1249 -2.02273 3.17431 0
M  V30 226 C 27.2719 -0.870548 2.63281 0
M  V30 227 H 30.2229 -0.0322728 1.58667 0
M  V30 228 H 30.2439 -2.37279 2.97454 0
M  V30 229 H 29.7559 -0.749484 3.80794 0
M  V30 230 H 27.8569 -2.80746 2.44974 0
M  V30 231 H 27.9699 -2.22655 4.24219 0
M  V30 232 H 26.3339 -1.26851 2.20864 0
M  V30 233 H 27.1169 -0.128149 3.43061 0
M  V30 234 N 29.562 -1.4872 -0.521534 0
M  V30 235 C 30.525 -1.63379 -1.60748 0
M  V30 236 C 31.525 -0.50661 -1.52611 0
M  V30 237 O 32.715 -0.772601 -1.5613 0
M  V30 238 C 29.847 -1.61192 -3.00383 0
M  V30 239 H 31.04 -2.60217 -1.49087 0
M  V30 240 H 28.593 -1.37444 -0.744235 0
M  V30 241 H 29.328 -0.65863 -3.17541 0
M  V30 242 H 29.113 -2.43032 -3.07698 0
M  V30 243 H 30.603 -1.7466 -3.7932 0
M  V30 244 N 31.0401 0.771051 -1.3745 0
M  V30 245 C 32.4511 1.34737 -1.29239 0
M  V30 246 C 32.8021 1.96109 0.0596908 0
M  V30 247 O 31.9271 1.93865 0.961534 0
M  V30 248 C 32.5221 2.44973 -2.34037 0
M  V30 249 C 31.0811 2.98372 -2.29458 0
M  V30 250 C 30.2281 1.71595 -2.17831 0
M  V30 251 H 33.1791 0.571256 -1.48062 0
M  V30 252 H 33.2001 3.24471 -1.98744 0
M  V30 253 H 32.7121 2.00276 -3.32432 0
M  V30 254 H 30.8131 3.47443 -1.34589 0
M  V30 255 H 30.9261 3.53939 -3.229 0
M  V30 256 H 29.2901 1.94547 -1.64388 0
M  V30 257 H 30.0731 1.29001 -3.18141 0
M  V30 258 N 32.5182 1.22032 0.997298 0
M  V30 259 C 33.9292 1.0397 1.55071 0
M  V30 260 C 34.2802 -0.398192 1.92117 0
M  V30 261 O 33.4052 -1.28254 1.74298 0
M  V30 262 C 34.0002 1.88109 2.81781 0
M  V30 263 C 32.5592 1.74357 3.33581 0
M  V30 264 C 31.7062 1.84846 2.06706 0
M  V30 265 H 34.6572 1.35941 0.818883 0
M  V30 266 H 34.6782 1.39589 3.53971 0
M  V30 267 H 34.1902 2.92754 2.54787 0
M  V30 268 H 32.2912 0.72427 3.65493 0
M  V30 269 H 32.4042 2.56772 4.04481 0
M  V30 270 H 30.7682 1.28238 2.20062 0
M  V30 271 H 31.5512 2.91014 1.82114 0
M  V30 272 N 33.9963 -1.19345 1.0293 0
M  V30 273 C 35.4073 -1.70725 0.755633 0
M  V30 274 C 35.7583 -1.82326 -0.724676 0
M  V30 275 O 34.8833 -1.49471 -1.56484 0
M  V30 276 C 35.4783 -3.10084 1.36503 0
M  V30 277 C 34.0373 -3.58723 1.13994 0
M  V30 278 C 33.1843 -2.35577 1.46283 0
M  V30 279 H 36.1353 -1.0418 1.19718 0
M  V30 280 H 36.1563 -3.72787 0.762217 0
M  V30 281 H 35.6683 -3.01609 2.44241 0
M  V30 282 H 33.7693 -3.72512 0.0807901 0
M  V30 283 H 33.8823 -4.42816 1.82894 0
M  V30 284 H 32.2463 -2.38935 0.88217 0
M  V30 285 H 33.0293 -2.29731 2.55105 0
M  V30 286 N 35.4744 -0.807222 -1.35358 0
M  V30 287 C 36.4224 -0.20614 -2.31685 0
M  V30 288 C 37.4164 0.644445 -1.56663 0
M  V30 289 O 38.6224 0.537538 -1.71786 0
M  V30 290 H 34.9974 -0.0479006 -0.750473 0
M  V30 291 H 36.9684 -1.03369 -2.79924 0
M  V30 292 C 35.7174 0.630212 -3.41941 0
M  V30 293 H 35.0404 -0.0149558 -3.99797 0
M  V30 294 H 36.4804 1.01716 -4.11619 0
M  V30 295 C 34.9394 1.79601 -2.85035 0
M  V30 296 O 35.4694 2.89351 -2.78637 0
M  V30 297 N 33.6754 1.60774 -2.42074 0
M  V30 298 H 33.2224 0.715009 -2.47478 0
M  V30 299 H 33.1804 2.38933 -2.04349 0
M  V30 300 N 36.9525 1.47285 -0.560781 0
M  V30 301 C 37.8825 2.32857 0.173105 0
M  V30 302 C 38.8635 1.44009 0.905281 0
M  V30 303 O 40.0485 1.7286 0.885046 0
M  V30 304 C 37.1785 3.25861 1.20133 0
M  V30 305 C 36.1325 4.23978 0.585388 0
M  V30 306 C 35.4585 5.06332 1.7185 0
M  V30 307 C 36.7585 5.20242 -0.463178 0
M  V30 308 H 38.4525 2.94466 -0.541307 0
M  V30 309 H 35.9985 1.41601 -0.261764 0
M  V30 310 H 37.9515 3.84569 1.72293 0
M  V30 311 H 36.6755 2.62315 1.94573 0
M  V30 312 H 35.3345 3.66501 0.085054 0
M  V30 313 H 34.9825 4.39186 2.45203 0
M  V30 314 H 34.6825 5.72762 1.31213 0
M  V30 315 H 36.2065 5.67899 2.24329 0
M  V30 316 H 37.6205 5.73293 -0.027502 0
M  V30 317 H 36.0175 5.94896 -0.788627 0
M  V30 318 H 37.0875 4.65504 -1.35773 0
M  V30 319 N 38.4306 0.297415 1.54768 0
M  V30 320 C 39.6586 -0.315623 2.04478 0
M  V30 321 C 40.0736 -1.47792 1.17486 0
M  V30 322 O 39.4306 -1.81404 0.19971 0
M  V30 323 C 39.4816 -0.7753 3.53088 0
M  V30 324 O 39.2026 0.340732 4.36773 0
M  V30 325 C 40.7036 -1.45386 4.18781 0
M  V30 326 H 37.9236 -0.0690887 0.667434 0
M  V30 327 H 40.4676 0.436003 1.99798 0
M  V30 328 H 38.6226 -1.47696 3.58141 0
M  V30 329 H 39.0366 -0.0165035 5.24497 0
M  V30 330 H 40.5106 -1.72669 5.24299 0
M  V30 331 H 40.9876 -2.39275 3.68299 0
M  V30 332 H 41.5936 -0.795475 4.17795 0
M  V30 333 N 39.9087 -1.5758 0.0250728 0
M  V30 334 C 41.1337 -1.96337 -0.668317 0
M  V30 335 C 41.5587 -0.901314 -1.651 0
M  V30 336 O 40.9167 0.138187 -1.80773 0
M  V30 337 C 40.9647 -3.34191 -1.35457 0
M  V30 338 O 40.0687 -3.30269 -2.46974 0
M  V30 339 H 39.4097 -0.640281 -0.175887 0
M  V30 340 H 41.9397 -2.0442 0.0857224 0
M  V30 341 H 41.9497 -3.70331 -1.71228 0
M  V30 342 H 40.6247 -4.11036 -0.634218 0
M  V30 343 H 39.2017 -3.05841 -2.13344 0
M  V30 344 N 41.3868 0.248026 -1.55636 0
M  V30 345 C 42.3348 1.32683 -1.91045 0
M  V30 346 C 43.3288 1.49883 -0.789401 0
M  V30 347 O 44.5348 1.51371 -0.974007 0
M  V30 348 H 40.9098 0.444272 -0.606734 0
M  V30 349 H 42.8808 1.00085 -2.81115 0
M  V30 350 C 41.6298 2.6755 -2.22064 0
M  V30 351 H 40.9528 2.55114 -3.07826 0
M  V30 352 H 42.3928 3.41912 -2.50743 0
M  V30 353 C 40.8518 3.20556 -1.0366 0
M  V30 354 O 41.3818 4.00695 -0.284016 0
M  V30 355 N 39.5878 2.78568 -0.82753 0
M  V30 356 H 39.1348 2.1351 -1.44123 0
M  V30 357 H 39.0928 3.14378 -0.0369803 0
M  V30 358 N 42.8649 1.48995 0.513639 0
M  V30 359 C 44.2809 1.35478 0.843682 0
M  V30 360 C 44.4809 0.378213 1.97919 0
M  V30 361 O 43.5369 -0.194689 2.51748 0
M  V30 362 C 44.8499 2.75901 1.1958 0
M  V30 363 C 46.3979 2.84509 1.30474 0
M  V30 364 C 46.8729 4.25671 1.69021 0
M  V30 365 N 48.3639 4.28422 1.76094 0
M  V30 366 C 49.0989 5.34601 2.07338 0
M  V30 367 N 48.5949 6.5104 2.36894 0
M  V30 368 N 50.3879 5.22007 2.08483 0
M  V30 369 H 42.5389 2.11092 -0.235328 0
M  V30 370 H 44.8019 0.947039 -0.0426669 0
M  V30 371 H 44.5079 3.49001 0.434913 0
M  V30 372 H 44.3819 3.10467 2.1422 0
M  V30 373 H 46.7689 2.11655 2.05637 0
M  V30 374 H 46.8499 2.53542 0.339155 0
M  V30 375 H 46.4939 4.99048 0.944135 0
M  V30 376 H 46.4239 4.54094 2.66658 0
M  V30 377 H 48.9149 3.44441 1.55464 0
M  V30 378 H 49.2279 7.2779 2.59887 0
M  V30 379 H 47.5729 6.54287 2.34378 0
M  V30 380 H 50.7639 4.30051 1.84861 0
M  V30 381 H 50.9369 6.04854 2.325 0
M  V30 382 N 44.343 -0.763751 1.37857 0
M  V30 383 C 45.759 -1.06542 1.18832 0
M  V30 384 C 45.959 -2.01478 0.0299722 0
M  V30 385 O 45.015 -2.4458 -0.627447 0
M  V30 386 C 46.328 -1.65525 2.51042 0
M  V30 387 C 47.876 -1.77745 2.57635 0
M  V30 388 C 48.351 -2.4014 3.89996 0
M  V30 389 N 49.842 -2.47582 3.91481 0
M  V30 390 C 50.577 -2.96732 4.9065 0
M  V30 391 N 50.073 -3.45993 6.00217 0
M  V30 392 N 51.866 -2.95679 4.78048 0
M  V30 393 H 44.017 -0.133556 2.1198 0
M  V30 394 H 46.28 -0.121879 0.940133 0
M  V30 395 H 45.986 -1.03236 3.36207 0
M  V30 396 H 45.86 -2.64719 2.68707 0
M  V30 397 H 48.247 -2.39164 1.72872 0
M  V30 398 H 48.328 -0.772836 2.43846 0
M  V30 399 H 47.972 -1.79358 4.75177 0
M  V30 400 H 47.902 -3.41223 4.01092 0
M  V30 401 H 50.393 -2.1273 3.12337 0
M  V30 402 H 50.706 -3.81922 6.7183 0
M  V30 403 H 49.051 -3.44077 6.03851 0
M  V30 404 H 52.242 -2.56499 3.91568 0
M  V30 405 H 52.415 -3.33672 5.55488 0
M  V30 406 N 45.8211 -1.22559 -0.990812 0
M  V30 407 C 46.7511 -1.0218 -2.09956 0
M  V30 408 C 47.7321 0.0579394 -1.70001 0
M  V30 409 O 48.9171 -0.104684 -1.93918 0
M  V30 410 C 46.0471 -0.601023 -3.4206 0
M  V30 411 C 45.0011 -1.62694 -3.95872 0
M  V30 412 C 44.3271 -1.06193 -5.24049 0
M  V30 413 C 45.6271 -3.01743 -4.2632 0
M  V30 414 H 47.3211 -1.94916 -2.27262 0
M  V30 415 H 44.8671 -0.938566 -1.09211 0
M  V30 416 H 46.8201 -0.445561 -4.19038 0
M  V30 417 H 45.5441 0.362005 -3.24588 0
M  V30 418 H 44.2031 -1.77021 -3.21028 0
M  V30 419 H 43.8511 -0.0901903 -5.02919 0
M  V30 420 H 43.5511 -1.74732 -5.61019 0
M  V30 421 H 45.0751 -0.918092 -6.03658 0
M  V30 422 H 46.4891 -2.90777 -4.94087 0
M  V30 423 H 44.8861 -3.67425 -4.74467 0
M  V30 424 H 45.9561 -3.51518 -3.34011 0
M  V30 425 N 47.2992 1.18797 -1.03562 0
M  V30 426 C 48.2312 2.21731 -0.580337 0
M  V30 427 C 49.2442 1.59051 0.347349 0
M  V30 428 O 50.4332 1.77929 0.142669 0
M  V30 429 C 47.5332 3.38459 0.172805 0
M  V30 430 C 46.7062 4.3072 -0.761496 0
M  V30 431 C 45.7652 5.26174 -0.0525547 0
M  V30 432 O 44.7912 5.65108 -0.681333 0
M  V30 433 N 45.9932 5.67624 1.21586 0
M  V30 434 H 48.7582 2.61417 -1.46565 0
M  V30 435 H 46.3192 1.33531 -0.915476 0
M  V30 436 H 48.3112 3.99335 0.656793 0
M  V30 437 H 46.8812 2.97507 0.959602 0
M  V30 438 H 46.1012 3.67525 -1.42544 0
M  V30 439 H 47.3892 4.89267 -1.39626 0
M  V30 440 H 46.7872 5.38038 1.74732 0
M  V30 441 H 45.3442 6.30721 1.64421 0
M  V30 442 N 48.7773 0.814389 1.34928 0
M  V30 443 C 49.7093 0.187834 2.28429 0
M  V30 444 C 50.7223 -0.617374 1.5064 0
M  V30 445 O 51.9113 -0.448454 1.72775 0
M  V30 446 C 49.0113 -0.755962 3.30361 0
M  V30 447 C 48.1843 0.00456686 4.374 0
M  V30 448 C 47.2433 -0.858876 5.19143 0
M  V30 449 O 46.2693 -0.306968 5.68372 0
M  V30 450 N 47.4713 -2.17988 5.38016 0
M  V30 451 H 50.2363 0.991105 2.82838 0
M  V30 452 H 47.7973 0.670561 1.4736 0
M  V30 453 H 49.7893 -1.338 3.81942 0
M  V30 454 H 48.3593 -1.46001 2.7641 0
M  V30 455 H 47.5793 0.767865 3.86649 0
M  V30 456 H 48.8673 0.528422 5.06049 0
M  V30 457 H 48.2653 -2.65212 4.99679 0
M  V30 458 H 46.8223 -2.71098 5.92747 0
M  V30 459 N 50.2554 -1.46986 0.568584 0
M  V30 460 C 51.4834 -2.0683 0.0539956 0
M  V30 461 C 51.8984 -1.41953 -1.24478 0
M  V30 462 O 51.2554 -0.519933 -1.74937 0
M  V30 463 C 51.3064 -3.61254 -0.133362 0
M  V30 464 O 51.0274 -4.237 1.11399 0
M  V30 465 C 52.5284 -4.37992 -0.683927 0
M  V30 466 H 49.7484 -0.669058 0.0510141 0
M  V30 467 H 52.2924 -1.88824 0.785234 0
M  V30 468 H 50.4474 -3.78735 -0.81477 0
M  V30 469 H 50.8614 -5.16388 0.91888 0
M  V30 470 H 52.3354 -5.46684 -0.764263 0
M  V30 471 H 52.8124 -4.05058 -1.69778 0
M  V30 472 H 53.4184 -4.25283 -0.0378494 0
M  V30 473 N 51.7335 -0.305618 -1.54608 0
M  V30 474 C 52.6655 0.602161 -2.21149 0
M  V30 475 C 53.6785 1.09394 -1.20569 0
M  V30 476 O 54.8675 1.0106 -1.47136 0
M  V30 477 C 51.9675 1.83692 -2.84799 0
M  V30 478 C 51.1405 1.48686 -4.11353 0
M  V30 479 C 50.1995 2.57725 -4.58764 0
M  V30 480 O 49.2255 2.22623 -5.23858 0
M  V30 481 N 50.4275 3.88346 -4.31471 0
M  V30 482 H 53.1925 0.0324966 -2.99682 0
M  V30 483 H 50.7535 -0.128021 -1.61393 0
M  V30 484 H 52.7455 2.55994 -3.13448 0
M  V30 485 H 51.3155 2.31486 -2.10078 0
M  V30 486 H 50.5355 0.596269 -3.89664 0
M  V30 487 H 51.8235 1.22842 -4.93748 0
M  V30 488 H 51.2215 4.19671 -3.79331 0
M  V30 489 H 49.7785 4.56932 -4.64818 0
M  V30 490 N 53.2116 1.57565 -0.0334293 0
M  V30 491 C 54.1746 2.09393 0.932048 0
M  V30 492 C 55.1746 1.00986 1.25134 0
M  V30 493 O 56.3646 1.27129 1.19096 0
M  V30 494 C 53.4966 2.56338 2.2473 0
M  V30 495 H 54.6896 2.95984 0.483085 0
M  V30 496 H 52.2426 1.54819 0.21468 0
M  V30 497 H 52.9776 1.7309 2.74245 0
M  V30 498 H 52.7626 3.35542 2.02865 0
M  V30 499 H 54.2526 2.96646 2.93923 0
M  V30 500 N 54.6897 -0.239769 1.55765 0
M  V30 501 C 55.6217 -1.32001 1.87372 0
M  V30 502 C 56.6347 -1.43944 0.760522 0
M  V30 503 O 57.8237 -1.45167 1.0387 0
M  V30 504 C 54.9237 -2.69779 2.05115 0
M  V30 505 C 54.0967 -2.80014 3.36022 0
M  V30 506 C 53.1557 -3.98684 3.4342 0
M  V30 507 O 52.1817 -3.87877 4.16582 0
M  V30 508 N 53.3837 -5.12176 2.73232 0
M  V30 509 H 56.1487 -1.0522 2.80622 0
M  V30 510 H 53.7097 -0.429857 1.56089 0
M  V30 511 H 55.7017 -3.47517 2.07399 0
M  V30 512 H 54.2717 -2.89237 1.18577 0
M  V30 513 H 53.4917 -1.88896 3.45994 0
M  V30 514 H 54.7797 -2.83808 4.22292 0
M  V30 515 H 54.1777 -5.2385 2.13536 0
M  V30 516 H 52.7347 -5.88022 2.81199 0
M  V30 517 N 56.1678 -1.49265 -0.50573 0
M  V30 518 C 57.4138 -1.58748 -1.26202 0
M  V30 519 C 57.7468 -0.271227 -1.92297 0
M  V30 520 O 57.0218 0.724831 -1.80489 0
M  V30 521 C 57.3048 -2.74332 -2.33268 0
M  V30 522 C 57.1578 -4.15737 -1.71705 0
M  V30 523 C 58.4768 -2.85576 -3.34865 0
M  V30 524 H 55.5958 -0.577826 -0.457478 0
M  V30 525 H 58.2378 -1.81532 -0.560897 0
M  V30 526 H 56.3878 -2.55036 -2.93068 0
M  V30 527 H 58.0598 -4.46537 -1.15769 0
M  V30 528 H 56.3028 -4.21605 -1.02135 0
M  V30 529 H 56.9738 -4.92477 -2.49341 0
M  V30 530 H 59.4498 -3.03127 -2.8505 0
M  V30 531 H 58.3258 -3.68135 -4.07146 0
M  V30 532 H 58.5868 -1.94732 -3.96903 0
M  V30 533 N 57.6459 0.756429 -1.3826 0
M  V30 534 C 58.9229 1.50584 -1.24835 0
M  V30 535 C 59.3029 2.10556 0.151485 0
M  V30 536 O 58.6509 1.96825 1.1607 0
M  V30 537 C 58.8609 2.57448 -2.3563 0
M  V30 538 C 60.2089 3.24429 -2.73917 0
M  V30 539 O 61.2329 2.67751 -2.34921 0
M  V30 540 O 60.0919 4.26937 -3.41156 0
M  V30 541 H 57.1859 0.667664 -0.48801 0
M  V30 542 H 59.7319 0.792083 -1.5008 0
M  V30 543 H 58.5039 2.11362 -3.29305 0
M  V30 544 H 58.1269 3.36408 -2.11933 0
M  V30 545 N 59.124 1.23083 0.984299 0
M  V30 546 C 60.034 1.02515 2.11016 0
M  V30 547 C 61.05 -0.0291702 1.73976 0
M  V30 548 O 62.226 0.165434 2.00719 0
M  V30 549 C 59.291 0.614673 3.41208 0
M  V30 550 C 58.352 1.74359 3.92297 0
M  V30 551 C 57.585 1.35261 5.16275 0
M  V30 552 O 57.808 0.235136 5.69915 0
M  V30 553 O 56.742 2.17227 5.61334 0
M  V30 554 H 60.568 1.96862 2.31255 0
M  V30 555 H 58.153 1.01753 1.09392 0
M  V30 556 H 60.035 0.396518 4.1953 0
M  V30 557 H 58.71 -0.299851 3.22308 0
M  V30 558 H 57.617 2.01635 3.1511 0
M  V30 559 H 58.95 2.63629 4.15645 0
M  V30 560 N 60.6021 -1.18246 1.0419 0
M  V30 561 C 61.8481 -1.88536 0.747122 0
M  V30 562 C 62.1811 -1.80223 -0.723409 0
M  V30 563 O 61.4561 -1.20337 -1.52804 0
M  V30 564 C 61.7391 -3.38968 1.21544 0
M  V30 565 C 61.5921 -3.56084 2.74816 0
M  V30 566 C 62.9111 -4.32648 0.806482 0
M  V30 567 H 60.0301 -0.684619 0.272883 0
M  V30 568 H 62.6721 -1.39113 1.29413 0
M  V30 569 H 60.8221 -3.8119 0.750081 0
M  V30 570 H 62.4941 -3.22946 3.29399 0
M  V30 571 H 60.7371 -2.98699 3.14582 0
M  V30 572 H 61.4081 -4.61639 3.02644 0
M  V30 573 H 63.8841 -3.98211 1.20695 0
M  V30 574 H 62.7601 -5.36462 1.1619 0
M  V30 575 H 63.0211 -4.41146 -0.29029 0
M  V30 576 N 62.0802 -0.821533 -1.34494 0
M  V30 577 C 63.3262 -0.409552 -1.98622 0
M  V30 578 C 63.6592 1.0244 -1.64984 0
M  V30 579 O 62.9342 1.71325 -0.920758 0
M  V30 580 C 63.2172 -0.610458 -3.54888 0
M  V30 581 C 63.0702 -2.09043 -3.98273 0
M  V30 582 C 64.3892 -0.0455379 -4.40076 0
M  V30 583 H 61.5082 -0.15028 -0.721516 0
M  V30 584 H 64.1502 -1.03384 -1.59411 0
M  V30 585 H 62.3002 -0.079044 -3.8842 0
M  V30 586 H 63.9722 -2.68537 -3.75081 0
M  V30 587 H 62.2152 -2.58139 -3.48635 0
M  V30 588 H 62.8862 -2.18182 -5.07051 0
M  V30 589 H 65.3622 -0.499557 -4.1309 0
M  V30 590 H 64.2382 -0.215922 -5.48475 0
M  V30 591 H 64.4992 1.04939 -4.29465 0
M  V30 592 N 63.5583 1.46682 -0.576371 0
M  V30 593 C 64.8353 1.95599 0.00703437 0
M  V30 594 C 65.2153 1.51904 1.46589 0
M  V30 595 O 64.5633 0.766755 2.15251 0
M  V30 596 C 64.7733 3.4864 -0.158404 0
M  V30 597 C 66.1213 4.24594 -0.0229439 0
M  V30 598 O 67.1453 3.56094 -0.0869173 0
M  V30 599 O 66.0043 5.46373 0.118015 0
M  V30 600 H 63.0983 0.825275 0.053384 0
M  V30 601 H 65.6443 1.56996 -0.644244 0
M  V30 602 H 64.4163 3.7331 -1.17282 0
M  V30 603 H 64.0393 3.94057 0.5296 0
M  V30 604 N 65.0364 0.313813 1.54444 0
M  V30 605 C 66.2854 -0.292519 1.99568 0
M  V30 606 C 66.5984 -1.54011 1.20582 0
M  V30 607 O 67.8044 -2.22183 1.56035 0
M  V30 608 C 66.2604 -0.571752 3.55329 0
M  V30 609 C 65.8684 0.658229 4.43138 0
M  V30 610 C 67.6124 -1.13857 4.08946 0
M  V30 611 C 65.5194 0.351439 5.90355 0
M  V30 612 H 64.4494 -0.113079 0.745472 0
M  V30 613 H 67.1004 0.424518 1.78522 0
M  V30 614 H 65.4824 -1.34872 3.72325 0
M  V30 615 H 66.6564 1.43403 4.37918 0
M  V30 616 H 64.9714 1.14458 4.0036 0
M  V30 617 H 67.5684 -1.38257 5.16516 0
M  V30 618 H 67.9114 -2.08489 3.6033 0
M  V30 619 H 68.4444 -0.423015 3.95544 0
M  V30 620 H 65.1834 1.26667 6.43145 0
M  V30 621 H 64.7034 -0.386842 5.98551 0
M  V30 622 H 66.3824 -0.0423134 6.46986 0
M  V30 623 N 66.5145 -1.57545 0.0417849 0
M  V30 624 C 67.4475 -2.06514 -0.970928 0
M  V30 625 C 68.4255 -0.963607 -1.30971 0
M  V30 626 O 69.6095 -1.23486 -1.4242 0
M  V30 627 C 66.7365 -2.4978 -2.28752 0
M  V30 628 C 65.7825 -3.71078 -2.10246 0
M  V30 629 S 66.6155 -5.17158 -1.38952 0
M  V30 630 C 67.7715 -5.6373 -2.71954 0
M  V30 631 H 68.0045 -2.9209 -0.554129 0
M  V30 632 H 65.5375 -1.53459 -0.17024 0
M  V30 633 H 67.4955 -2.75371 -3.04435 0
M  V30 634 H 66.1565 -1.64527 -2.67562 0
M  V30 635 H 65.3495 -3.9924 -3.07609 0
M  V30 636 H 64.9515 -3.45705 -1.42704 0
M  V30 637 H 67.2435 -5.68743 -3.68154 0
M  V30 638 H 68.1865 -6.63086 -2.4844 0
M  V30 639 H 68.5945 -4.91424 -2.77782 0
M  V30 640 N 67.9926 0.231505 -1.5589 0
M  V30 641 C 69.4086 0.580748 -1.48659 0
M  V30 642 C 69.6086 1.87617 -0.73498 0
M  V30 643 O 68.6646 2.51046 -0.270586 0
M  V30 644 C 69.9776 0.669202 -2.93159 0
M  V30 645 C 71.5256 0.760499 -3.03621 0
M  V30 646 C 72.0006 0.880383 -4.49459 0
M  V30 647 N 73.4916 0.944861 -4.53461 0
M  V30 648 C 74.2266 1.05716 -5.63571 0
M  V30 649 N 73.7226 1.13403 -6.83456 0
M  V30 650 N 75.5156 1.09152 -5.514 0
M  V30 651 H 67.6666 -0.618695 -2.03189 0
M  V30 652 H 69.9296 -0.215728 -0.923128 0
M  V30 653 H 69.6356 -0.212904 -3.51055 0
M  V30 654 H 69.5096 1.5361 -3.44505 0
M  V30 655 H 71.8966 1.63305 -2.45796 0
M  V30 656 H 71.9776 -0.131864 -2.5546 0
M  V30 657 H 71.6216 0.0123284 -5.07899 0
M  V30 658 H 71.5516 1.78802 -4.95316 0
M  V30 659 H 74.0426 0.896176 -3.6712 0
M  V30 660 H 74.3556 1.21921 -7.63122 0
M  V30 661 H 72.7006 1.10333 -6.86186 0
M  V30 662 H 75.8916 1.02805 -4.56671 0
M  V30 663 H 76.0646 1.17558 -6.37247 0
M  V30 664 N 69.4707 1.49531 0.497807 0
M  V30 665 C 70.7167 1.59415 1.25358 0
M  V30 666 C 71.0497 0.281422 1.9215 0
M  V30 667 O 70.3247 -0.715249 1.80871 0
M  V30 668 C 70.6077 2.75566 2.3181 0
M  V30 669 C 70.4607 4.16642 1.69498 0
M  V30 670 C 71.7797 2.87347 3.33346 0
M  V30 671 H 68.8987 0.580244 0.454408 0
M  V30 672 H 71.5407 1.81827 0.551262 0
M  V30 673 H 69.6907 2.56587 2.91711 0
M  V30 674 H 71.3627 4.47145 1.13399 0
M  V30 675 H 69.6057 4.22141 0.998978 0
M  V30 676 H 70.2767 4.93792 2.46725 0
M  V30 677 H 72.7527 3.04634 2.83438 0
M  V30 678 H 71.6287 3.70289 4.05188 0
M  V30 679 H 71.8897 1.96834 3.95865 0
M  V30 680 N 70.9488 -0.749086 1.3866 0
M  V30 681 C 71.8968 -1.88428 1.36373 0
M  V30 682 C 72.8908 -1.67561 0.248929 0
M  V30 683 O 74.0968 -1.75074 0.41821 0
M  V30 684 H 70.4718 -0.620023 0.42553 0
M  V30 685 H 72.4428 -1.87473 2.32156 0
M  V30 686 C 71.1918 -3.25961 1.21014 0
M  V30 687 H 70.5148 -3.42607 2.06059 0
M  V30 688 H 71.9548 -4.05625 1.23469 0
M  V30 689 C 70.4138 -3.36799 -0.0825941 0
M  V30 690 O 70.9438 -3.87517 -1.05797 0
M  V30 691 N 69.1498 -2.90258 -0.140939 0
M  V30 692 H 68.6968 -2.49174 0.653477 0
M  V30 693 H 68.6548 -2.97889 -1.00545 0
M  V30 694 N 72.4269 -1.23603 -0.977757 0
M  V30 695 C 73.6729 -1.07129 -1.72195 0
M  V30 696 C 74.0059 0.390501 -1.90233 0
M  V30 697 O 73.2809 1.28902 -1.45653 0
M  V30 698 C 73.5639 -1.80031 -3.11867 0
M  V30 699 C 73.4169 -3.33899 -3.01383 0
M  V30 700 C 74.7359 -1.56492 -4.11337 0
M  V30 701 H 71.8549 -0.390571 -0.624999 0
M  V30 702 H 74.4969 -1.52142 -1.13811 0
M  V30 703 H 72.6469 -1.41768 -3.6171 0
M  V30 704 H 74.3189 -3.81699 -2.59043 0
M  V30 705 H 72.5619 -3.62796 -2.37827 0
M  V30 706 H 73.2329 -3.801 -4.00285 0
M  V30 707 H 75.7089 -1.89757 -3.70313 0
M  V30 708 H 74.5849 -2.09973 -5.07151 0
M  V30 709 H 74.8459 -0.500874 -4.39254 0
M  V30 710 N 73.905 1.17692 -1.04816 0
M  V30 711 C 75.182 1.83768 -0.669963 0
M  V30 712 C 75.562 1.93232 0.849986 0
M  V30 713 O 74.91 1.46397 1.75443 0
M  V30 714 C 75.12 3.21641 -1.35455 0
M  V30 715 C 76.468 3.97592 -1.49017 0
M  V30 716 O 77.492 3.31107 -1.31326 0
M  V30 717 O 76.351 5.16729 -1.77914 0
M  V30 718 H 73.445 0.792799 -0.235368 0
M  V30 719 H 75.991 1.25021 -1.14751 0
M  V30 720 H 74.763 3.097 -2.39168 0
M  V30 721 H 74.386 3.88052 -0.866107 0
M  V30 722 N 75.3831 0.828654 1.34056 0
M  V30 723 C 76.3301 0.252567 2.29414 0
M  V30 724 C 77.3001 -0.62588 1.53857 0
M  V30 725 O 78.4851 -0.566312 1.82202 0
M  V30 726 C 75.6251 -0.574831 3.40279 0
M  V30 727 C 74.7381 0.326499 4.30764 0
M  V30 728 C 73.8731 -0.511016 5.28736 0
M  V30 729 C 72.9121 0.389342 6.1086 0
M  V30 730 N 72.0491 -0.409439 7.00905 0
M  V30 731 H 76.8891 1.07108 2.78086 0
M  V30 732 H 74.4261 0.539677 1.36843 0
M  V30 733 H 76.3841 -1.06992 4.03248 0
M  V30 734 H 75.0141 -1.35841 2.92826 0
M  V30 735 H 74.0661 0.939837 3.68607 0
M  V30 736 H 75.3781 1.01857 4.88289 0
M  V30 737 H 74.5321 -1.07035 5.97184 0
M  V30 738 H 73.2711 -1.23657 4.71763 0
M  V30 739 H 72.2761 0.960769 5.4134 0
M  V30 740 H 73.5011 1.1131 6.69916 0
M  V30 741 H 71.4471 -1.11856 6.46393 0
M  V30 742 H 71.3641 0.224126 7.55668 0
M  V30 743 H 72.6321 -0.951336 7.73673 0
M  V30 744 N 76.8612 -1.46375 0.584142 0
M  V30 745 C 78.1072 -2.02678 0.0703716 0
M  V30 746 C 78.4402 -1.4545 -1.28678 0
M  V30 747 O 77.7152 -0.62014 -1.84349 0
M  V30 748 C 77.9982 -3.60099 0.00614674 0
M  V30 749 C 77.8512 -4.27709 1.3923 0
M  V30 750 C 79.1702 -4.34598 -0.693742 0
M  V30 751 H 76.2892 -0.736504 0.027047 0
M  V30 752 H 78.9312 -1.74501 0.751615 0
M  V30 753 H 77.0812 -3.84236 -0.574009 0
M  V30 754 H 78.7532 -4.14832 2.01773 0
M  V30 755 H 76.9962 -3.87016 1.95962 0
M  V30 756 H 77.6672 -5.36478 1.29982 0
M  V30 757 H 80.1432 -4.15615 -0.200869 0
M  V30 758 H 79.0192 -5.44318 -0.707714 0
M  V30 759 H 79.2802 -4.05759 -1.75533 0
M  V30 760 N 78.3393 -0.321999 -1.54275 0
M  V30 761 C 79.2693 0.537411 -2.27231 0
M  V30 762 C 80.2503 1.12064 -1.27968 0
M  V30 763 O 81.4353 1.14606 -1.56777 0
M  V30 764 C 78.5653 1.69919 -3.02894 0
M  V30 765 C 77.5193 1.24534 -4.09482 0
M  V30 766 C 76.8453 2.49394 -4.72977 0
M  V30 767 C 78.1453 0.361335 -5.21049 0
M  V30 768 H 79.8393 -0.0711406 -2.99315 0
M  V30 769 H 77.3853 -0.0356555 -1.43956 0
M  V30 770 H 79.3383 2.30668 -3.52662 0
M  V30 771 H 78.0623 2.33431 -2.28424 0
M  V30 772 H 76.7213 0.660782 -3.60596 0
M  V30 773 H 76.3693 3.11265 -3.95124 0
M  V30 774 H 76.0693 2.19718 -5.44975 0
M  V30 775 H 77.5933 3.10908 -5.25517 0
M  V30 776 H 79.0073 0.875072 -5.66582 0
M  V30 777 H 77.4043 0.157428 -5.99893 0
M  V30 778 H 78.4743 -0.60822 -4.8107 0
M  V30 779 N 79.8174 1.5752 -0.0501392 0
M  V30 780 C 80.7274 2.14952 0.939827 0
M  V30 781 C 81.7434 1.10706 1.34239 0
M  V30 782 O 82.9194 1.42869 1.41952 0
M  V30 783 C 79.9844 2.68232 2.19665 0
M  V30 784 C 79.0454 3.87272 1.85253 0
M  V30 785 C 78.2784 4.38002 3.04943 0
M  V30 786 O 78.5014 3.87811 4.18281 0
M  V30 787 O 77.4354 5.29602 2.86017 0
M  V30 788 H 81.2614 2.9986 0.481392 0
M  V30 789 H 78.8464 1.4841 0.171699 0
M  V30 790 H 80.7284 3.02475 2.93406 0
M  V30 791 H 79.4034 1.86395 2.64648 0
M  V30 792 H 78.3104 3.5792 1.0883 0
M  V30 793 H 79.6434 4.70336 1.4507 0
M  V30 794 N 81.2955 -0.223234 1.56011 0
M  V30 795 C 82.7115 -0.572856 1.48965 0
M  V30 796 C 82.9115 -1.87225 0.74492 0
M  V30 797 O 81.9675 -2.50899 0.283896 0
M  V30 798 C 83.2805 -0.653646 2.9351 0
M  V30 799 C 84.8285 -0.744386 3.0402 0
M  V30 800 C 85.3035 -0.856535 4.49919 0
M  V30 801 N 86.7945 -0.9208 4.53955 0
M  V30 802 C 87.5295 -1.02726 5.64123 0
M  V30 803 N 87.0255 -1.09777 6.84047 0
M  V30 804 N 88.8185 -1.06226 5.51971 0
M  V30 805 H 80.9695 0.629462 2.02858 0
M  V30 806 H 83.2325 0.220621 0.921971 0
M  V30 807 H 82.9385 0.231518 3.50937 0
M  V30 808 H 82.8125 -1.51781 3.45315 0
M  V30 809 H 85.1995 -1.61999 2.46658 0
M  V30 810 H 85.2805 0.14541 2.55386 0
M  V30 811 H 84.9245 0.0146069 5.07898 0
M  V30 812 H 84.8545 -1.76172 4.96257 0
M  V30 813 H 87.3455 -0.876694 3.6759 0
M  V30 814 H 87.6585 -1.17872 7.63758 0
M  V30 815 H 86.0035 -1.06693 6.86762 0
M  V30 816 H 89.1945 -1.00382 4.5721 0
M  V30 817 H 89.3675 -1.14177 6.37862 0
M  V30 818 N 82.7736 -1.49793 -0.48987 0
M  V30 819 C 84.0506 -1.50348 -1.25119 0
M  V30 820 C 84.4306 -0.237466 -2.0976 0
M  V30 821 O 83.7786 0.77981 -2.14782 0
M  V30 822 C 83.9886 -2.78872 -2.09837 0
M  V30 823 C 85.3366 -3.288 -2.68655 0
M  V30 824 O 86.3606 -2.80065 -2.20096 0
M  V30 825 O 85.2196 -4.13707 -3.57083 0
M  V30 826 H 82.3136 -0.602242 -0.566775 0
M  V30 827 H 84.8596 -1.62067 -0.503229 0
M  V30 828 H 83.6316 -3.62499 -1.47343 0
M  V30 829 H 83.2546 -2.70066 -2.91805 0
M  V30 830 N 84.2517 0.741722 -1.39055 0
M  V30 831 C 85.1837 1.8657 -1.33133 0
M  V30 832 C 86.1967 1.61001 -0.241329 0
M  V30 833 O 87.3857 1.7136 -0.499784 0
M  V30 834 C 84.4857 3.22457 -1.04283 0
M  V30 835 C 83.6587 3.75435 -2.24427 0
M  V30 836 C 82.7177 4.89867 -1.92138 0
M  V30 837 O 81.7437 5.03879 -2.64754 0
M  V30 838 N 82.9457 5.73738 -0.88347 0
M  V30 839 H 85.7107 1.92156 -2.29991 0
M  V30 840 H 83.2717 0.922172 -1.3307 0
M  V30 841 H 85.2637 3.9657 -0.807128 0
M  V30 842 H 83.8337 3.12181 -0.161807 0
M  V30 843 H 83.0537 2.92751 -2.6399 0
M  V30 844 H 84.3417 4.07563 -3.04581 0
M  V30 845 H 83.7397 5.64999 -0.281517 0
M  V30 846 H 82.2967 6.47947 -0.707662 0
M  V30 847 N 85.7298 1.2412 0.971189 0
M  V30 848 C 86.6768 1.0305 2.06517 0
M  V30 849 C 87.6468 -0.0550666 1.66009 0
M  V30 850 O 88.8318 0.0988688 1.90544 0
M  V30 851 C 85.9718 0.637653 3.39158 0
M  V30 852 C 85.0848 1.79633 3.92882 0
M  V30 853 C 84.2198 1.34939 5.13775 0
M  V30 854 C 83.2588 2.47823 5.59687 0
M  V30 855 N 82.3958 2.04022 6.71803 0
M  V30 856 H 87.2358 1.96685 2.23873 0
M  V30 857 H 84.7728 0.979694 1.09729 0
M  V30 858 H 86.7308 0.390931 4.15364 0
M  V30 859 H 85.3608 -0.261693 3.21737 0
M  V30 860 H 84.4128 2.15681 3.13346 0
M  V30 861 H 85.7248 2.64466 4.22918 0
M  V30 862 H 84.8788 1.06134 5.97345 0
M  V30 863 H 83.6178 0.471557 4.85415 0
M  V30 864 H 82.6228 2.77392 4.74693 0
M  V30 865 H 83.8478 3.36158 5.90063 0
M  V30 866 H 81.7938 1.18632 6.45184 0
M  V30 867 H 81.7108 2.82409 7.01271 0
M  V30 868 H 82.9788 1.78347 7.58823 0
M  V30 869 N 87.2079 -1.17134 1.05439 0
M  V30 870 C 88.1379 -2.2342 0.678649 0
M  V30 871 C 89.1189 -1.66971 -0.32476 0
M  V30 872 O 90.3039 -1.93149 -0.201802 0
M  V30 873 C 87.4339 -3.47256 0.0552099 0
M  V30 874 C 86.3879 -4.16543 0.98365 0
M  V30 875 C 85.7139 -5.34231 0.223961 0
M  V30 876 C 87.0139 -4.68495 2.3089 0
M  V30 877 H 88.7079 -2.55105 1.56722 0
M  V30 878 H 86.2539 -1.2262 0.754998 0
M  V30 879 H 88.2069 -4.20828 -0.21946 0
M  V30 880 H 86.9309 -3.14846 -0.868319 0
M  V30 881 H 85.5899 -3.44887 1.24293 0
M  V30 882 H 85.2379 -4.98071 -0.702412 0
M  V30 883 H 84.9379 -5.81527 0.842627 0
M  V30 884 H 86.4619 -6.10585 -0.0433671 0
M  V30 885 H 87.8759 -5.33691 2.09396 0
M  V30 886 H 86.2729 -5.26379 2.88176 0
M  V30 887 H 87.3429 -3.85169 2.94572 0
M  V30 888 N 88.686 -0.835752 -1.33615 0
M  V30 889 C 89.911 -0.442389 -2.02627 0
M  V30 890 C 90.336 0.947735 -1.62479 0
M  V30 891 O 89.694 1.61907 -0.815826 0
M  V30 892 C 89.742 -0.567216 -3.56111 0
M  V30 893 O 88.846 0.407799 -4.10379 0
M  V30 894 H 88.187 -0.180278 -0.639059 0
M  V30 895 H 90.717 -1.12972 -1.70583 0
M  V30 896 H 90.727 -0.447708 -4.05536 0
M  V30 897 H 89.402 -1.58103 -3.84677 0
M  V30 898 H 87.979 0.246107 -3.72087 0
M  V30 899 N 90.1641 1.46063 -0.591896 0
M  V30 900 C 91.0741 2.34192 0.13831 0
M  V30 901 C 92.0901 1.50305 0.876608 0
M  V30 902 O 93.2661 1.8315 0.837728 0
M  V30 903 C 90.3311 3.27656 1.13326 0
M  V30 904 C 89.3921 4.27445 0.39863 0
M  V30 905 C 88.6251 5.16443 1.34618 0
M  V30 906 O 88.8481 5.08553 2.58321 0
M  V30 907 O 87.7821 5.95843 0.851768 0
M  V30 908 H 91.6081 2.98002 -0.58552 0
M  V30 909 H 89.1931 1.45188 -0.352239 0
M  V30 910 H 91.0751 3.85291 1.70671 0
M  V30 911 H 89.7501 2.6643 1.83839 0
M  V30 912 H 88.6571 3.73471 -0.216895 0
M  V30 913 H 89.9901 4.91482 -0.265709 0
M  V30 914 N 91.6422 0.330177 1.54103 0
M  V30 915 C 92.5722 -0.525353 2.27513 0
M  V30 916 C 93.5532 -1.11383 1.2856 0
M  V30 917 O 94.7382 -1.13773 1.57383 0
M  V30 918 C 91.8682 -1.6831 3.03791 0
M  V30 919 C 90.8222 -1.2236 4.10137 0
M  V30 920 C 90.1482 -2.46882 4.74293 0
M  V30 921 C 91.4482 -0.333697 5.21233 0
M  V30 922 H 93.1422 0.087013 2.99274 0
M  V30 923 H 90.6882 0.0432893 1.43935 0
M  V30 924 H 92.6412 -2.28795 3.5388 0
M  V30 925 H 91.3652 -2.32216 2.29659 0
M  V30 926 H 90.0242 -0.64165 3.60941 0
M  V30 927 H 89.6722 -3.09165 3.96769 0
M  V30 928 H 89.3722 -2.16825 5.46133 0
M  V30 929 H 90.8962 -3.08117 5.27159 0
M  V30 930 H 92.3102 -0.845013 5.67038 0
M  V30 931 H 90.7072 -0.125612 5.99969 0
M  V30 932 H 91.7772 0.633724 4.80741 0
M  V30 933 N 93.1203 -1.57491 0.0584922 0
M  V30 934 C 94.3973 -1.84346 -0.653918 0
M  V30 935 C 94.7773 -0.948355 -1.88599 0
M  V30 936 O 94.1253 -0.0112403 -2.28497 0
M  V30 937 C 94.3353 -3.34239 -1.00425 0
M  V30 938 C 95.6833 -4.01431 -1.38342 0
M  V30 939 O 96.7073 -3.38907 -1.09637 0
M  V30 940 O 95.5663 -5.11683 -1.91943 0
M  V30 941 H 92.6603 -0.761112 -0.323478 0
M  V30 942 H 95.2063 -1.6947 0.0884125 0
M  V30 943 H 93.9783 -3.91089 -0.128625 0
M  V30 944 H 93.6013 -3.54329 -1.80378 0
M  V30 945 N 94.5984 0.214957 -1.56127 0
M  V30 946 C 95.8754 0.963093 -1.70247 0
M  V30 947 C 96.2554 2.02166 -0.60764 0
M  V30 948 O 95.6034 2.25244 0.384385 0
M  V30 949 C 95.8134 1.56756 -3.11815 0
M  V30 950 C 97.1614 2.0573 -3.7143 0
M  V30 951 O 98.1854 1.66637 -3.14818 0
M  V30 952 O 97.0444 2.77603 -4.70743 0
M  V30 953 H 94.1384 0.450321 -0.693643 0
M  V30 954 H 96.6844 0.206219 -1.68442 0
M  V30 955 H 95.4564 0.803533 -3.82961 0
M  V30 956 H 95.0794 2.3898 -3.17765 0
M  V30 957 N 96.0765 1.50051 0.48192 0
M  V30 958 C 97.4925 1.37237 0.814756 0
M  V30 959 C 97.6925 0.420109 1.97072 0
M  V30 960 O 96.7485 -0.141246 2.52105 0
M  V30 961 C 98.0615 2.78375 1.13701 0
M  V30 962 C 99.6095 2.87213 1.2441 0
M  V30 963 C 100.084 4.29161 1.59954 0
M  V30 964 N 101.575 4.32061 1.66967 0
M  V30 965 C 102.31 5.38879 1.95952 0
M  V30 966 N 101.806 6.55918 2.23031 0
M  V30 967 N 103.599 5.26312 1.97363 0
M  V30 968 H 95.7505 2.10546 -0.28005 0
M  V30 969 H 98.0135 0.945921 -0.0627454 0
M  V30 970 H 97.7195 3.49845 0.360787 0
M  V30 971 H 97.5935 3.14941 2.07586 0
M  V30 972 H 99.9805 2.15969 2.01101 0
M  V30 973 H 100.061 2.54204 0.285299 0
M  V30 974 H 99.7055 5.00938 0.838067 0
M  V30 975 H 99.6355 4.59648 2.56966 0
M  V30 976 H 102.126 3.47661 1.48123 0
M  V30 977 H 102.439 7.33139 2.44391 0
M  V30 978 H 100.784 6.59112 2.20447 0
M  V30 979 H 103.975 4.33876 1.75697 0
M  V30 980 H 104.148 6.09649 2.19618 0
M  V30 981 N 97.5546 -0.734337 1.39446 0
M  V30 982 C 98.5176 -1.83004 1.37994 0
M  V30 983 C 99.5176 -1.58397 0.276938 0
M  V30 984 O 100.708 -1.65785 0.534875 0
M  V30 985 C 97.8396 -3.20802 1.1532 0
M  V30 986 H 99.0326 -1.85694 2.35494 0
M  V30 987 H 96.5856 -0.938059 1.25021 0
M  V30 988 H 97.3206 -3.23772 0.185036 0
M  V30 989 H 97.1056 -3.4006 1.95197 0
M  V30 990 H 98.5956 -4.00862 1.17046 0
M  V30 991 N 99.0327 -1.24633 -0.964593 0
M  V30 992 C 100.31 -0.995809 -1.68354 0
M  V30 993 C 100.69 0.480964 -2.05548 0
M  V30 994 O 100.038 1.45599 -1.76105 0
M  V30 995 C 100.248 -1.92177 -2.91323 0
M  V30 996 C 101.596 -2.19446 -3.63495 0
M  V30 997 O 102.62 -1.89855 -3.01386 0
M  V30 998 O 101.479 -2.69714 -4.75307 0
M  V30 999 H 98.5727 -0.376854 -0.736146 0
M  V30 1000 H 101.119 -1.35745 -1.0184 0
M  V30 1001 H 99.8907 -2.91938 -2.60553 0
M  V30 1002 H 99.5137 -1.56349 -3.65569 0
M  V30 1003 N 100.511 1.16574 -1.06058 0
M  V30 1004 C 101.474 2.19085 -0.673392 0
M  V30 1005 C 102.474 1.5835 0.279648 0
M  V30 1006 O 103.664 1.74088 0.0623488 0
M  V30 1007 C 100.796 3.40899 0.00954234 0
M  V30 1008 H 101.989 2.54853 -1.58081 0
M  V30 1009 H 99.5418 1.30808 -0.855516 0
M  V30 1010 H 100.277 3.10684 0.929826 0
M  V30 1011 H 100.062 3.86233 -0.67573 0
M  V30 1012 H 101.552 4.1675 0.266245 0
M  V30 1013 N 101.989 0.842826 1.3317 0
M  V30 1014 C 102.919 0.294028 2.31641 0
M  V30 1015 C 103.9 -0.600401 1.59151 0
M  V30 1016 O 105.085 -0.523124 1.87022 0
M  V30 1017 C 102.215 -0.528416 3.43257 0
M  V30 1018 C 101.169 0.27056 4.27144 0
M  V30 1019 C 100.495 -0.675881 5.30411 0
M  V30 1020 C 101.795 1.48981 5.00602 0
M  V30 1021 H 103.489 1.11681 2.77791 0
M  V30 1022 H 101.035 0.538478 1.33553 0
M  V30 1023 H 102.988 -0.922674 4.11175 0
M  V30 1024 H 101.712 -1.38445 2.95805 0
M  V30 1025 H 100.371 0.646427 3.60856 0
M  V30 1026 H 100.019 -1.52842 4.79216 0
M  V30 1027 H 99.7189 -0.145374 5.8742 0
M  V30 1028 H 101.243 -1.06757 6.01195 0
M  V30 1029 H 102.657 1.16849 5.61266 0
M  V30 1030 H 101.054 1.95739 5.6728 0
M  V30 1031 H 102.124 2.25746 4.29147 0
M  V30 1032 N 103.467 -1.45747 0.599634 0
M  V30 1033 C 104.399 -2.28628 -0.161879 0
M  V30 1034 C 105.412 -1.39494 -0.839367 0
M  V30 1035 O 106.601 -1.63941 -0.706089 0
M  V30 1036 C 103.701 -3.15014 -1.24976 0
M  V30 1037 C 102.874 -4.32378 -0.660935 0
M  V30 1038 C 101.933 -5.00033 -1.63869 0
M  V30 1039 O 100.959 -5.57085 -1.1681 0
M  V30 1040 N 102.161 -4.98589 -2.97303 0
M  V30 1041 H 104.926 -2.94624 0.549265 0
M  V30 1042 H 102.487 -1.55847 0.438565 0
M  V30 1043 H 104.479 -3.5714 -1.9035 0
M  V30 1044 H 103.049 -2.5098 -1.86354 0
M  V30 1045 H 102.269 -3.9383 0.170688 0
M  V30 1046 H 103.557 -5.08197 -0.247619 0
M  V30 1047 H 102.955 -4.53514 -3.38145 0
M  V30 1048 H 101.512 -5.44603 -3.58121 0
M  V30 1049 N 104.945 -0.338344 -1.53925 0
M  V30 1050 C 105.908 0.508299 -2.23493 0
M  V30 1051 C 106.908 1.03175 -1.23335 0
M  V30 1052 O 108.098 0.921826 -1.47811 0
M  V30 1053 C 105.23 1.70754 -2.95052 0
M  V30 1054 H 106.423 -0.100058 -2.99733 0
M  V30 1055 H 103.976 -0.0896198 -1.56043 0
M  V30 1056 H 104.711 2.35474 -2.22986 0
M  V30 1057 H 104.496 1.33946 -3.68512 0
M  V30 1058 H 105.986 2.30818 -3.48013 0
M  V30 1059 N 106.423 1.57458 -0.0668435 0
M  V30 1060 C 107.671 1.92919 0.602214 0
M  V30 1061 C 107.992 0.947215 1.70449 0
M  V30 1062 O 107.262 -0.00544117 1.95899 0
M  V30 1063 H 105.842 0.71217 0.22544 0
M  V30 1064 H 108.504 1.94508 -0.123535 0
M  V30 1065 H 107.6 2.94589 1.03073 0
M  V30 1066 N 107.901 -0.206675 1.56239 0
M  V30 1067 C 108.864 -1.23976 1.92776 0
M  V30 1068 C 109.864 -1.39041 0.807729 0
M  V30 1069 O 111.054 -1.37051 1.0753 0
M  V30 1070 C 108.186 -2.61112 2.19165 0
M  V30 1071 H 109.379 -0.927764 2.85189 0
M  V30 1072 H 106.932 -0.447718 1.4975 0
M  V30 1073 H 107.667 -2.97386 1.29352 0
M  V30 1074 H 107.452 -2.51552 3.00772 0
M  V30 1075 H 108.942 -3.35633 2.48476 0
M  V30 1076 N 109.379 -1.50304 -0.473955 0
M  V30 1077 C 110.604 -1.65175 -1.25427 0
M  V30 1078 C 111.029 -0.333673 -1.85117 0
M  V30 1079 O 110.387 0.702114 -1.67153 0
M  V30 1080 C 110.435 -2.74295 -2.34082 0
M  V30 1081 O 109.539 -2.35349 -3.38651 0
M  V30 1082 H 108.88 -0.551944 -0.369126 0
M  V30 1083 H 111.41 -1.96662 -0.564364 0
M  V30 1084 H 111.42 -2.97285 -2.79438 0
M  V30 1085 H 110.095 -3.69959 -1.90008 0
M  V30 1086 H 108.672 -2.22794 -2.99027 0
M  V30 1087 N 110.857 0.726932 -1.39834 0
M  V30 1088 C 111.789 1.85147 -1.35104 0
M  V30 1089 C 112.802 1.60736 -0.258392 0
M  V30 1090 O 113.991 1.70821 -0.517931 0
M  V30 1091 C 111.091 3.21332 -1.07697 0
M  V30 1092 C 110.264 3.73033 -2.28396 0
M  V30 1093 C 109.323 4.87802 -1.97322 0
M  V30 1094 O 108.349 5.01043 -2.70083 0
M  V30 1095 N 109.551 5.72768 -0.944273 0
M  V30 1096 H 112.316 1.89706 -2.32017 0
M  V30 1097 H 109.877 0.908006 -1.3404 0
M  V30 1098 H 111.869 3.95691 -0.849144 0
M  V30 1099 H 110.439 3.11992 -0.194909 0
M  V30 1100 H 109.659 2.89934 -2.6708 0
M  V30 1101 H 110.947 4.0431 -3.08887 0
M  V30 1102 H 110.345 5.64669 -0.341427 0
M  V30 1103 H 108.902 6.4716 -0.776346 0
M  V30 1104 N 112.336 1.25143 0.95797 0
M  V30 1105 C 113.583 1.09692 1.70217 0
M  V30 1106 C 113.911 -0.362654 1.91089 0
M  V30 1107 O 113.166 -1.28386 1.47701 0
M  V30 1108 C 113.465 1.79272 3.09187 0
M  V30 1109 C 113.131 3.29196 3.08125 0
M  V30 1110 C 111.793 3.70096 3.07543 0
M  V30 1111 C 114.145 4.24995 3.0171 0
M  V30 1112 C 111.473 5.05213 2.9829 0
M  V30 1113 C 113.825 5.60132 2.93999 0
M  V30 1114 C 112.489 6.00365 2.9175 0
M  V30 1115 H 111.759 0.401393 0.622868 0
M  V30 1116 H 114.406 1.55372 1.11945 0
M  V30 1117 H 112.711 1.26014 3.70982 0
M  V30 1118 H 114.408 1.64773 3.65583 0
M  V30 1119 H 110.998 2.96651 3.09348 0
M  V30 1120 H 115.182 3.9439 3.01281 0
M  V30 1121 H 110.438 5.35569 2.94916 0
M  V30 1122 H 114.612 6.3406 2.87996 0
M  V30 1123 H 112.239 7.05023 2.84336 0
M  V30 1124 N 113.814 -1.1601 1.06675 0
M  V30 1125 C 114.724 -2.24156 0.692179 0
M  V30 1126 C 115.74 -1.71507 -0.293513 0
M  V30 1127 O 116.916 -2.009 -0.141861 0
M  V30 1128 C 113.981 -3.46587 0.0884131 0
M  V30 1129 C 113.042 -4.14257 1.12646 0
M  V30 1130 C 112.275 -5.30844 0.551416 0
M  V30 1131 O 112.498 -5.66858 -0.634656 0
M  V30 1132 O 111.432 -5.87848 1.29298 0
M  V30 1133 H 115.258 -2.58513 1.59388 0
M  V30 1134 H 112.843 -1.23599 0.83926 0
M  V30 1135 H 114.725 -4.20679 -0.246361 0
M  V30 1136 H 113.4 -3.13994 -0.786712 0
M  V30 1137 H 112.307 -3.42118 1.51348 0
M  V30 1138 H 113.64 -4.50914 1.97325 0
M  V30 1139 N 115.292 -0.849877 -1.32721 0
M  V30 1140 C 116.52 -0.464754 -2.01613 0
M  V30 1141 C 116.935 0.937191 -1.63897 0
M  V30 1142 O 116.292 1.61081 -0.857856 0
M  V30 1143 C 116.343 -0.588638 -3.56675 0
M  V30 1144 O 116.064 -1.93535 -3.93034 0
M  V30 1145 C 117.565 -0.2019 -4.4284 0
M  V30 1146 H 114.785 -0.183215 -0.645502 0
M  V30 1147 H 117.329 -1.1455 -1.69407 0
M  V30 1148 H 115.484 0.0443159 -3.87375 0
M  V30 1149 H 115.898 -1.92871 -4.87751 0
M  V30 1150 H 117.372 -0.339599 -5.50954 0
M  V30 1151 H 117.849 0.857224 -4.30753 0
M  V30 1152 H 118.455 -0.809733 -4.17521 0
M  V30 1153 N 116.77 1.45427 -0.607355 0
M  V30 1154 C 117.995 2.07124 -0.107006 0
M  V30 1155 C 118.42 1.44906 1.19933 0
M  V30 1156 O 117.778 0.541687 1.73019 0
M  V30 1157 C 117.826 3.60595 0.0194119 0
M  V30 1158 O 116.93 3.98285 1.0697 0
M  V30 1159 H 116.271 0.659868 -0.0739597 0
M  V30 1160 H 118.801 1.86683 -0.837297 0
M  V30 1161 H 118.811 4.07419 0.2177 0
M  V30 1162 H 117.486 4.05266 -0.934453 0
M  V30 1163 H 116.063 3.63133 0.847889 0
M  V30 1164 N 118.248 0.346503 1.53744 0
M  V30 1165 C 119.211 -0.496439 2.23759 0
M  V30 1166 C 120.211 -1.0252 1.2388 0
M  V30 1167 O 121.401 -0.913974 1.48297 0
M  V30 1168 C 118.533 -1.69187 2.95954 0
M  V30 1169 H 119.726 0.115952 2.99676 0
M  V30 1170 H 117.279 0.0978939 1.55993 0
M  V30 1171 H 118.014 -2.34288 2.24231 0
M  V30 1172 H 117.799 -1.31989 3.69217 0
M  V30 1173 H 119.289 -2.28969 3.49232 0
M  V30 1174 N 119.726 -1.57421 0.075193 0
M  V30 1175 C 120.689 -2.11791 -0.876203 0
M  V30 1176 C 121.689 -1.04268 -1.22412 0
M  V30 1177 O 122.879 -1.30242 -1.15684 0
M  V30 1178 C 120.011 -2.62207 -2.17854 0
M  V30 1179 H 121.204 -2.9716 -0.40444 0
M  V30 1180 H 118.757 -1.55333 -0.173557 0
M  V30 1181 H 119.492 -1.803 -2.6956 0
M  V30 1182 H 119.277 -3.40802 -1.93897 0
M  V30 1183 H 120.767 -3.04335 -2.85955 0
M  V30 1184 N 121.204 0.198386 -1.56346 0
M  V30 1185 C 122.151 1.24589 -1.94284 0
M  V30 1186 C 123.121 1.454 -0.802997 0
M  V30 1187 O 124.306 1.58588 -1.06087 0
M  V30 1188 C 121.446 2.58631 -2.28482 0
M  V30 1189 C 120.559 2.45426 -3.55514 0
M  V30 1190 C 119.694 3.7215 -3.79049 0
M  V30 1191 C 118.733 3.53763 -4.99518 0
M  V30 1192 N 117.87 4.72491 -5.19323 0
M  V30 1193 H 122.71 0.915356 -2.83593 0
M  V30 1194 H 120.247 0.440629 -1.40346 0
M  V30 1195 H 122.205 3.3672 -2.46324 0
M  V30 1196 H 120.835 2.89734 -1.42317 0
M  V30 1197 H 119.887 1.58652 -3.45737 0
M  V30 1198 H 121.199 2.27772 -4.43758 0
M  V30 1199 H 120.353 4.58679 -3.97113 0
M  V30 1200 H 119.092 3.92754 -2.89129 0
M  V30 1201 H 118.097 2.65619 -4.8138 0
M  V30 1202 H 119.322 3.34607 -5.90944 0
M  V30 1203 H 117.268 4.93365 -4.3235 0
M  V30 1204 H 117.185 4.5765 -6.01741 0
M  V30 1205 H 118.453 5.6038 -5.41843 0
M  V30 1206 N 122.682 1.50554 0.465978 0
M  V30 1207 C 123.612 1.72722 1.57128 0
M  V30 1208 C 124.593 0.576294 1.6004 0
M  V30 1209 O 125.778 0.81598 1.76225 0
M  V30 1210 C 122.908 1.82605 2.95419 0
M  V30 1211 C 121.862 2.97835 3.07373 0
M  V30 1212 C 121.188 2.92867 4.47363 0
M  V30 1213 C 122.488 4.38265 2.84114 0
M  V30 1214 H 124.182 2.65267 1.38829 0
M  V30 1215 H 121.728 1.2765 0.666441 0
M  V30 1216 H 123.681 1.96698 3.72677 0
M  V30 1217 H 122.405 0.866858 3.14886 0
M  V30 1218 H 121.064 2.83401 2.3255 0
M  V30 1219 H 120.712 1.94783 4.63755 0
M  V30 1220 H 120.412 3.70227 4.56296 0
M  V30 1221 H 121.936 3.09015 5.26633 0
M  V30 1222 H 123.35 4.53198 3.51118 0
M  V30 1223 H 121.747 5.17115 3.04487 0
M  V30 1224 H 122.817 4.50281 1.7993 0
M  V30 1225 N 124.16 -0.719506 1.40217 0
M  V30 1226 C 125.107 -1.83359 1.40172 0
M  V30 1227 C 126.077 -1.64065 0.259206 0
M  V30 1228 O 127.262 -1.85254 0.456677 0
M  V30 1229 C 124.402 -3.2103 1.26624 0
M  V30 1230 C 123.515 -3.51923 2.50548 0
M  V30 1231 C 122.65 -4.79079 2.29471 0
M  V30 1232 C 121.689 -5.02863 3.48992 0
M  V30 1233 N 120.826 -6.2123 3.27135 0
M  V30 1234 H 125.666 -1.82733 2.35399 0
M  V30 1235 H 123.203 -0.892688 1.16917 0
M  V30 1236 H 125.161 -4.00524 1.16776 0
M  V30 1237 H 123.791 -3.20895 0.350176 0
M  V30 1238 H 122.843 -2.67014 2.70939 0
M  V30 1239 H 124.155 -3.6541 3.39525 0
M  V30 1240 H 123.309 -5.66582 2.16955 0
M  V30 1241 H 122.048 -4.67794 1.37913 0
M  V30 1242 H 121.053 -4.13816 3.6199 0
M  V30 1243 H 122.278 -5.16023 4.41472 0
M  V30 1244 H 120.224 -6.11204 2.38256 0
M  V30 1245 H 120.141 -6.35375 4.09675 0
M  V30 1246 H 121.409 -7.11532 3.18344 0
M  V30 1247 N 125.638 -1.25649 -0.95132 0
M  V30 1248 C 127.054 -1.02542 -1.223 0
M  V30 1249 C 127.254 0.255715 -1.99871 0
M  V30 1250 O 126.31 0.967558 -2.33226 0
M  V30 1251 C 127.623 -2.25065 -1.99415 0
M  V30 1252 C 129.171 -2.29861 -2.12446 0
M  V30 1253 C 129.646 -3.52048 -2.92961 0
M  V30 1254 N 131.137 -3.52465 -3.00538 0
M  V30 1255 C 131.872 -4.43672 -3.63239 0
M  V30 1256 N 131.368 -5.45157 -4.27523 0
M  V30 1257 N 133.161 -4.31346 -3.60412 0
M  V30 1258 H 125.312 -2.07951 -0.432471 0
M  V30 1259 H 127.575 -0.91339 -0.253816 0
M  V30 1260 H 127.281 -3.18194 -1.49817 0
M  V30 1261 H 127.155 -2.28502 -3.00111 0
M  V30 1262 H 129.542 -1.37252 -2.61239 0
M  V30 1263 H 129.623 -2.3044 -1.11044 0
M  V30 1264 H 129.267 -4.44981 -2.44856 0
M  V30 1265 H 129.197 -3.48715 -3.94596 0
M  V30 1266 H 131.688 -2.79056 -2.54826 0
M  V30 1267 H 132.001 -6.10958 -4.73234 0
M  V30 1268 H 130.346 -5.49025 -4.26141 0
M  V30 1269 H 133.537 -3.51288 -3.09377 0
M  V30 1270 H 133.71 -5.02624 -4.0899 0
M  V30 1271 N 127.117 1.15442 -1.07289 0
M  V30 1272 C 128.064 2.20161 -0.692653 0
M  V30 1273 C 129.034 1.63073 0.31564 0
M  V30 1274 O 130.219 1.89725 0.202235 0
M  V30 1275 C 127.359 3.44967 -0.0959509 0
M  V30 1276 C 126.472 4.16256 -1.15564 0
M  V30 1277 C 125.607 5.28609 -0.524011 0
M  V30 1278 C 124.646 5.91715 -1.56653 0
M  V30 1279 N 123.783 6.9554 -0.957531 0
M  V30 1280 H 128.623 2.52037 -1.59002 0
M  V30 1281 H 126.16 1.2378 -0.794798 0
M  V30 1282 H 128.118 4.16341 0.267628 0
M  V30 1283 H 126.748 3.1361 0.764772 0
M  V30 1284 H 125.8 3.43385 -1.6368 0
M  V30 1285 H 127.112 4.59268 -1.94613 0
M  V30 1286 H 126.266 6.06604 -0.108032 0
M  V30 1287 H 125.005 4.86787 0.29825 0
M  V30 1288 H 124.01 5.12433 -1.9923 0
M  V30 1289 H 125.235 6.35614 -2.39107 0
M  V30 1290 H 123.181 6.55814 -0.156162 0
M  V30 1291 H 123.098 7.36977 -1.68526 0
M  V30 1292 H 124.366 7.77435 -0.567032 0
M  V30 1293 N 128.595 0.856903 1.32268 0
M  V30 1294 C 129.825 0.47475 2.01071 0
M  V30 1295 C 130.233 -0.933746 1.64553 0
M  V30 1296 O 129.576 -1.62114 0.863989 0
M  V30 1297 C 129.638 0.536746 3.55471 0
M  V30 1298 C 129.302 1.90453 4.15423 0
M  V30 1299 C 130.299 2.87029 4.33486 0
M  V30 1300 C 127.984 2.20229 4.51447 0
M  V30 1301 C 129.978 4.11532 4.86744 0
M  V30 1302 C 127.665 3.44984 5.0441 0
M  V30 1303 C 128.663 4.40452 5.22007 0
M  V30 1304 O 128.351 5.62998 5.73837 0
M  V30 1305 H 128.083 0.184778 0.650256 0
M  V30 1306 H 130.637 1.15615 1.69771 0
M  V30 1307 H 128.867 -0.20152 3.86175 0
M  V30 1308 H 130.556 0.169875 4.05544 0
M  V30 1309 H 131.322 2.6533 4.05986 0
M  V30 1310 H 127.201 1.46705 4.37034 0
M  V30 1311 H 130.745 4.86056 5.00395 0
M  V30 1312 H 126.642 3.66532 5.31342 0
M  V30 1313 H 127.41 5.64987 5.92226 0
M  V30 1314 N 130.073 -1.45103 0.615059 0
M  V30 1315 C 131.319 -2.03035 0.121804 0
M  V30 1316 C 131.674 -1.47393 -1.23665 0
M  V30 1317 O 130.967 -0.642061 -1.80522 0
M  V30 1318 C 131.161 -3.57386 0.0318797 0
M  V30 1319 C 130.99 -4.28 1.38007 0
M  V30 1320 C 129.76 -4.65624 1.9627 0
M  V30 1321 C 131.958 -4.5948 2.31047 0
M  V30 1322 N 129.94 -5.21132 3.24492 0
M  V30 1323 C 131.311 -5.159 3.43872 0
M  V30 1324 C 133.366 -4.41423 2.30326 0
M  V30 1325 C 132.069 -5.56165 4.5615 0
M  V30 1326 C 134.095 -4.82726 3.41658 0
M  V30 1327 C 133.457 -5.39245 4.53205 0
M  V30 1328 H 129.556 -0.77702 0.0881159 0
M  V30 1329 H 132.14 -1.76819 0.815044 0
M  V30 1330 H 130.311 -3.83247 -0.630599 0
M  V30 1331 H 132.043 -4.01976 -0.468721 0
M  V30 1332 H 128.798 -4.49421 1.49392 0
M  V30 1333 H 129.222 -5.53377 3.90004 0
M  V30 1334 H 133.864 -3.97033 1.45343 0
M  V30 1335 H 131.582 -5.99517 5.41854 0
M  V30 1336 H 135.168 -4.7048 3.42257 0
M  V30 1337 H 134.048 -5.70616 5.37929 0
M  V30 1338 N 131.551 -0.354651 -1.53558 0
M  V30 1339 C 132.797 0.231422 -2.02079 0
M  V30 1340 C 133.152 1.47308 -1.23767 0
M  V30 1341 O 132.445 1.8891 -0.319947 0
M  V30 1342 C 132.639 0.587121 -3.52545 0
M  V30 1343 C 132.468 -0.618513 -4.45426 0
M  V30 1344 C 131.238 -1.12724 -4.92566 0
M  V30 1345 C 133.436 -1.48039 -4.92533 0
M  V30 1346 N 131.418 -2.29404 -5.69427 0
M  V30 1347 C 132.789 -2.49397 -5.67628 0
M  V30 1348 C 134.844 -1.50454 -4.74624 0
M  V30 1349 C 133.547 -3.53013 -6.26717 0
M  V30 1350 C 135.573 -2.52958 -5.34571 0
M  V30 1351 C 134.935 -3.5304 -6.09543 0
M  V30 1352 H 131.034 0.0476909 -0.780544 0
M  V30 1353 H 133.618 -0.496727 -1.88257 0
M  V30 1354 H 131.789 1.28436 -3.6655 0
M  V30 1355 H 133.521 1.15734 -3.87799 0
M  V30 1356 H 130.276 -0.693577 -4.68494 0
M  V30 1357 H 130.7 -2.88347 -6.12524 0
M  V30 1358 H 135.342 -0.744356 -4.16196 0
M  V30 1359 H 133.06 -4.2992 -6.84247 0
M  V30 1360 H 136.646 -2.55667 -5.22614 0
M  V30 1361 H 135.526 -4.31056 -6.55103 0
M  V30 1362 N 133.029 1.57378 -0.0835403 0
M  V30 1363 C 133.976 2.13384 0.879539 0
M  V30 1364 C 134.946 1.04936 1.28754 0
M  V30 1365 O 136.131 1.32662 1.37133 0
M  V30 1366 C 133.271 2.70932 2.13752 0
M  V30 1367 C 132.384 3.93575 1.7811 0
M  V30 1368 C 131.519 4.39326 2.98607 0
M  V30 1369 C 130.558 5.54587 2.59037 0
M  V30 1370 N 129.695 5.95243 3.72331 0
M  V30 1371 H 134.535 2.9537 0.395076 0
M  V30 1372 H 132.072 1.45953 0.183349 0
M  V30 1373 H 134.03 3.02411 2.87408 0
M  V30 1374 H 132.66 1.91693 2.59718 0
M  V30 1375 H 131.712 3.68483 0.94469 0
M  V30 1376 H 133.024 4.77258 1.45005 0
M  V30 1377 H 132.178 4.72528 3.80529 0
M  V30 1378 H 130.917 3.5452 3.34913 0
M  V30 1379 H 129.922 5.21024 1.75539 0
M  V30 1380 H 131.147 6.41133 2.23887 0
M  V30 1381 H 129.093 5.13385 4.08378 0
M  V30 1382 H 129.01 6.73694 3.43034 0
M  V30 1383 H 130.278 6.33072 4.54797 0
M  V30 1384 N 134.507 -0.190092 1.56449 0
M  V30 1385 C 135.455 -1.25501 1.95837 0
M  V30 1386 C 136.449 -1.4685 0.844485 0
M  V30 1387 O 137.655 -1.47651 1.02952 0
M  V30 1388 H 134.03 -0.421447 0.622805 0
M  V30 1389 H 136.001 -0.895821 2.84636 0
M  V30 1390 C 134.75 -2.59124 2.31841 0
M  V30 1391 H 134.073 -2.43514 3.17082 0
M  V30 1392 H 135.513 -3.32371 2.6326 0
M  V30 1393 C 133.972 -3.16488 1.15486 0
M  V30 1394 O 134.502 -3.99365 0.432535 0
M  V30 1395 N 132.708 -2.75305 0.930349 0
M  V30 1396 H 132.255 -2.08013 1.51948 0
M  V30 1397 H 132.213 -3.14024 0.153634 0
M  V30 1398 N 135.985 -1.50799 -0.457987 0
M  V30 1399 C 136.915 -1.73553 -1.5621 0
M  V30 1400 C 137.896 -0.584774 -1.59732 0
M  V30 1401 O 139.081 -0.825314 -1.7579 0
M  V30 1402 C 136.211 -1.84169 -2.94447 0
M  V30 1403 C 135.165 -2.99461 -3.0579 0
M  V30 1404 C 134.491 -2.95235 -4.45803 0
M  V30 1405 C 135.791 -4.39766 -2.81786 0
M  V30 1406 H 137.485 -2.66 -1.37421 0
M  V30 1407 H 135.031 -1.28002 -0.659662 0
M  V30 1408 H 136.984 -1.98672 -3.71628 0
M  V30 1409 H 135.708 -0.883545 -3.14422 0
M  V30 1410 H 134.367 -2.8463 -2.31044 0
M  V30 1411 H 134.015 -1.97239 -4.62715 0
M  V30 1412 H 133.715 -3.72642 -4.54326 0
M  V30 1413 H 135.239 -3.11803 -5.24987 0
M  V30 1414 H 136.653 -4.55054 -3.4871 0
M  V30 1415 H 135.05 -5.18722 -3.0174 0
M  V30 1416 H 136.12 -4.51229 -1.7754 0
M  V30 1417 N 137.463 0.71206 -1.40597 0
M  V30 1418 C 138.41 1.82613 -1.41142 0
M  V30 1419 C 139.38 1.63925 -0.267903 0
M  V30 1420 O 140.565 1.85009 -0.466495 0
M  V30 1421 C 137.705 3.20354 -1.28324 0
M  V30 1422 C 136.818 3.50589 -2.52411 0
M  V30 1423 C 135.953 4.77855 -2.32009 0
M  V30 1424 C 134.992 5.01005 -3.51654 0
M  V30 1425 N 134.129 6.19487 -3.30425 0
M  V30 1426 H 138.969 1.81482 -2.36365 0
M  V30 1427 H 136.506 0.886475 -1.17388 0
M  V30 1428 H 138.464 3.99899 -1.18899 0
M  V30 1429 H 137.094 3.20705 -0.367189 0
M  V30 1430 H 136.146 2.65573 -2.72351 0
M  V30 1431 H 137.458 3.63604 -3.41458 0
M  V30 1432 H 136.612 5.65424 -2.19956 0
M  V30 1433 H 135.351 4.67056 -1.40392 0
M  V30 1434 H 134.356 4.1189 -3.64179 0
M  V30 1435 H 135.581 5.13674 -4.44202 0
M  V30 1436 H 133.527 6.09932 -2.41494 0
M  V30 1437 H 133.444 6.33194 -4.13039 0
M  V30 1438 H 134.712 7.09834 -3.22113 0
M  V30 1439 N 138.941 1.26152 0.944643 0
M  V30 1440 C 139.874 1.01729 2.04271 0
M  V30 1441 C 140.852 -0.0568101 1.62501 0
M  V30 1442 O 142.036 0.0848987 1.88309 0
M  V30 1443 C 139.163 0.539792 3.34371 0
M  V30 1444 C 138.209 1.60593 3.9511 0
M  V30 1445 S 139.042 3.19392 4.29825 0
M  V30 1446 C 140.198 2.73402 5.63029 0
M  V30 1447 H 140.431 1.94703 2.24673 0
M  V30 1448 H 137.964 1.09793 1.08558 0
M  V30 1449 H 139.922 0.270956 4.09605 0
M  V30 1450 H 138.583 -0.369609 3.11918 0
M  V30 1451 H 137.776 1.22275 4.88943 0
M  V30 1452 H 137.378 1.82596 3.26397 0
M  V30 1453 H 139.67 2.1765 6.41588 0
M  V30 1454 H 140.613 3.65913 6.06229 0
M  V30 1455 H 141.021 2.13077 5.22741 0
M  V30 1456 N 140.419 -1.14872 1.07899 0
M  V30 1457 C 141.352 -2.18794 0.64841 0
M  V30 1458 C 142.33 -1.59065 -0.337189 0
M  V30 1459 O 143.514 -1.86936 -0.242284 0
M  V30 1460 C 140.641 -3.38667 -0.0470417 0
M  V30 1461 C 139.687 -4.16942 0.897884 0
M  V30 1462 S 140.52 -4.78615 2.40183 0
M  V30 1463 C 141.676 -6.0185 1.71834 0
M  V30 1464 H 141.909 -2.5498 1.52881 0
M  V30 1465 H 139.442 -1.25922 0.893484 0
M  V30 1466 H 141.4 -4.08113 -0.442027 0
M  V30 1467 H 140.061 -3.00814 -0.903861 0
M  V30 1468 H 139.254 -5.02726 0.358096 0
M  V30 1469 H 138.856 -3.53073 1.23352 0
M  V30 1470 H 141.148 -6.69574 1.03328 0
M  V30 1471 H 142.091 -6.60408 2.55473 0
M  V30 1472 H 142.499 -5.5173 1.19392 0
M  V30 1473 N 141.898 -0.863906 -1.31812 0
M  V30 1474 C 143.147 -0.46801 -1.96195 0
M  V30 1475 C 143.46 0.983474 -1.69077 0
M  V30 1476 O 144.666 1.48523 -2.27273 0
M  V30 1477 C 143.122 -0.785995 -3.51212 0
M  V30 1478 C 142.73 -2.25383 -3.87178 0
M  V30 1479 C 144.474 -0.458274 -4.22019 0
M  V30 1480 C 142.381 -2.51455 -5.3528 0
M  V30 1481 H 141.311 -0.171283 -0.734287 0
M  V30 1482 H 143.962 -1.05597 -1.50072 0
M  V30 1483 H 142.344 -0.127359 -3.95795 0
M  V30 1484 H 143.518 -2.95502 -3.53575 0
M  V30 1485 H 141.833 -2.54698 -3.2942 0
M  V30 1486 H 144.43 -0.630369 -5.30971 0
M  V30 1487 H 144.773 0.600834 -4.11941 0
M  V30 1488 H 145.306 -1.07319 -3.8305 0
M  V30 1489 H 142.045 -3.56025 -5.50387 0
M  V30 1490 H 141.565 -1.85923 -5.70257 0
M  V30 1491 H 143.244 -2.35874 -6.02472 0
M  V30 1492 N 143.376 1.44774 -0.622745 0
M  V30 1493 C 144.625 2.01334 -0.121397 0
M  V30 1494 C 144.938 1.49505 1.26125 0
M  V30 1495 O 146.144 1.98139 1.85616 0
M  V30 1496 C 144.6 3.59516 -0.166298 0
M  V30 1497 C 144.208 4.20342 -1.54974 0
M  V30 1498 C 145.952 4.23582 0.279021 0
M  V30 1499 C 143.859 5.70721 -1.55021 0
M  V30 1500 H 142.789 0.752851 -0.0416172 0
M  V30 1501 H 145.44 1.66083 -0.780309 0
M  V30 1502 H 143.822 3.92027 0.559557 0
M  V30 1503 H 144.996 3.99381 -2.29851 0
M  V30 1504 H 143.311 3.68529 -1.93843 0
M  V30 1505 H 145.908 5.33868 0.298083 0
M  V30 1506 H 146.251 3.95327 1.30471 0
M  V30 1507 H 146.784 3.95843 -0.394063 0
M  V30 1508 H 143.523 6.03698 -2.55399 0
M  V30 1509 H 143.043 5.93829 -0.844245 0
M  V30 1510 H 144.722 6.34203 -1.28047 0
M  V30 1511 N 144.854 0.36279 1.53368 0
M  V30 1512 C 145.784 -0.476976 2.28576 0
M  V30 1513 C 146.765 -1.08631 1.30894 0
M  V30 1514 O 147.95 -1.10409 1.59761 0
M  V30 1515 C 145.08 -1.61828 3.07293 0
M  V30 1516 C 144.034 -1.13633 4.1264 0
M  V30 1517 C 143.36 -2.36766 4.79423 0
M  V30 1518 C 144.66 -0.223061 5.21823 0
M  V30 1519 H 146.354 0.150474 2.99022 0
M  V30 1520 H 143.9 0.0738103 1.43811 0
M  V30 1521 H 145.853 -2.21237 3.58653 0
M  V30 1522 H 144.577 -2.27292 2.34533 0
M  V30 1523 H 143.236 -0.564945 3.62221 0
M  V30 1524 H 142.884 -3.0068 4.03238 0
M  V30 1525 H 142.584 -2.05192 5.50609 0
M  V30 1526 H 144.108 -2.96865 5.33576 0
M  V30 1527 H 145.522 -0.724545 5.68703 0
M  V30 1528 H 143.919 0.001678 6.001 0
M  V30 1529 H 144.989 0.735553 4.79289 0
M  V30 1530 N 146.332 -1.57332 0.0918853 0
M  V30 1531 C 147.58 -1.93853 -0.571446 0
M  V30 1532 C 147.901 -0.974212 -1.6892 0
M  V30 1533 O 147.171 -0.0257254 -1.95883 0
M  V30 1534 H 145.751 -0.715666 -0.214082 0
M  V30 1535 H 148.413 -1.94287 0.154464 0
M  V30 1536 H 147.509 -2.96191 -0.983729 0
M  V30 1537 N 147.81 0.181792 -1.56548 0
M  V30 1538 C 149.056 0.901431 -1.81665 0
M  V30 1539 C 149.389 1.82347 -0.668075 0
M  V30 1540 O 148.664 1.91669 0.330615 0
M  V30 1541 C 148.947 1.70618 -3.17115 0
M  V30 1542 C 148.8 0.807964 -4.42484 0
M  V30 1543 C 150.119 2.67605 -3.49393 0
M  V30 1544 H 147.238 0.32627 -0.660846 0
M  V30 1545 H 149.88 0.168134 -1.89255 0
M  V30 1546 H 148.03 2.33133 -3.10775 0
M  V30 1547 H 149.702 0.19649 -4.60881 0
M  V30 1548 H 147.945 0.115411 -4.33646 0
M  V30 1549 H 148.616 1.40632 -5.33785 0
M  V30 1550 H 151.092 2.15218 -3.56118 0
M  V30 1551 H 149.968 3.20985 -4.45264 0
M  V30 1552 H 150.229 3.47298 -2.73563 0
M  V30 1553 N 149.288 1.51039 0.449983 0
M  V30 1554 C 150.537 1.62317 1.19733 0
M  V30 1555 C 150.85 0.339101 1.92638 0
M  V30 1556 O 152.056 0.331069 2.69474 0
M  V30 1557 C 150.512 2.86608 2.17678 0
M  V30 1558 C 150.12 4.21972 1.50479 0
M  V30 1559 C 151.864 3.07239 2.92924 0
M  V30 1560 C 149.771 5.37426 2.46834 0
M  V30 1561 H 148.701 0.604532 0.450619 0
M  V30 1562 H 151.352 1.77494 0.465625 0
M  V30 1563 H 149.734 2.65037 2.94231 0
M  V30 1564 H 150.908 4.53878 0.795716 0
M  V30 1565 H 149.223 4.07117 0.874344 0
M  V30 1566 H 151.82 3.90668 3.65079 0
M  V30 1567 H 152.163 2.19807 3.5354 0
M  V30 1568 H 152.696 3.29091 2.23481 0
M  V30 1569 H 149.435 6.27079 1.90926 0
M  V30 1570 H 148.955 5.09912 3.15832 0
M  V30 1571 H 150.634 5.68862 3.08228 0
M  V30 1572 N 150.766 -0.704594 1.40972 0
M  V30 1573 C 152.006 -1.47691 1.41304 0
M  V30 1574 C 152.37 -1.91992 0.0178582 0
M  V30 1575 O 153.571 -2.68599 -0.103996 0
M  V30 1576 C 151.842 -2.66254 2.38419 0
M  V30 1577 S 153.401 -3.55516 2.57204 0
M  V30 1578 H 150.219 -0.504808 0.500689 0
M  V30 1579 H 152.821 -0.822962 1.77335 0
M  V30 1580 H 151.525 -2.31897 3.38603 0
M  V30 1581 H 151.056 -3.3655 2.03711 0
M  V30 1582 H 153.071 -4.61115 1.83268 0
M  V30 1583 N 152.244 -1.26651 -0.937939 0
M  V30 1584 C 153.207 -1.08546 -2.01867 0
M  V30 1585 C 154.207 -0.0327327 -1.60767 0
M  V30 1586 O 155.397 -0.276427 -1.71993 0
M  V30 1587 C 152.529 -0.651711 -3.34613 0
M  V30 1588 H 153.722 -2.04502 -2.1936 0
M  V30 1589 H 151.275 -1.09294 -1.11734 0
M  V30 1590 H 152.01 0.309696 -3.22818 0
M  V30 1591 H 151.795 -1.41189 -3.65798 0
M  V30 1592 H 153.285 -0.546973 -4.14002 0
M  V30 1593 N 153.722 1.14298 -1.08507 0
M  V30 1594 C 154.971 1.84708 -0.810305 0
M  V30 1595 C 155.284 1.83903 0.666271 0
M  V30 1596 O 156.49 2.50112 1.05624 0
M  V30 1597 C 154.946 3.31572 -1.39957 0
M  V30 1598 C 154.554 3.40791 -2.90801 0
M  V30 1599 C 156.298 4.07087 -1.20334 0
M  V30 1600 C 154.205 4.81872 -3.4286 0
M  V30 1601 H 153.135 0.691985 -0.299454 0
M  V30 1602 H 155.786 1.28841 -1.30661 0
M  V30 1603 H 154.168 3.87183 -0.830976 0
M  V30 1604 H 155.342 2.95225 -3.53806 0
M  V30 1605 H 153.657 2.78732 -3.0935 0
M  V30 1606 H 156.254 5.11225 -1.56693 0
M  V30 1607 H 156.597 4.16054 -0.143237 0
M  V30 1608 H 157.13 3.57779 -1.73893 0
M  V30 1609 H 153.869 4.78094 -4.48449 0
M  V30 1610 H 153.389 5.27972 -2.84615 0
M  V30 1611 H 155.068 5.50765 -3.39509 0
M  V30 1612 N 155.201 0.870884 1.31352 0
M  V30 1613 C 156.45 0.478408 1.95944 0
M  V30 1614 C 156.763 -0.974493 1.69597 0
M  V30 1615 O 157.969 -1.47316 2.28058 0
M  V30 1616 C 156.425 0.804609 3.50791 0
M  V30 1617 C 156.033 2.27433 3.85977 0
M  V30 1618 C 157.777 0.480648 4.2177 0
M  V30 1619 C 155.684 2.5429 5.33939 0
M  V30 1620 H 154.614 0.175175 0.733369 0
M  V30 1621 H 157.265 1.06391 1.4951 0
M  V30 1622 H 155.647 0.148347 3.95722 0
M  V30 1623 H 156.821 2.97373 3.52002 0
M  V30 1624 H 155.136 2.56442 3.28065 0
M  V30 1625 H 157.733 0.658519 5.30629 0
M  V30 1626 H 158.076 -0.578979 4.12254 0
M  V30 1627 H 158.609 1.09349 3.82476 0
M  V30 1628 H 155.348 3.58939 5.48491 0
M  V30 1629 H 154.868 1.88945 5.69263 0
M  V30 1630 H 156.547 2.39066 6.01212 0
M  V30 1631 N 156.679 -1.44442 0.630414 0
M  V30 1632 C 157.609 -2.33418 -0.0618083 0
M  V30 1633 C 158.59 -1.48165 -0.835541 0
M  V30 1634 O 159.775 -1.76886 -0.801564 0
M  V30 1635 C 156.905 -3.31222 -1.04449 0
M  V30 1636 C 155.859 -4.26288 -0.382436 0
M  V30 1637 C 155.185 -5.13954 -1.47497 0
M  V30 1638 C 156.485 -5.1744 0.710865 0
M  V30 1639 H 158.179 -2.91548 0.681184 0
M  V30 1640 H 155.725 -1.40191 0.329026 0
M  V30 1641 H 157.678 -3.92351 -1.53748 0
M  V30 1642 H 156.402 -2.71299 -1.81836 0
M  V30 1643 H 155.061 -3.6649 0.0899054 0
M  V30 1644 H 154.709 -4.50385 -2.2397 0
M  V30 1645 H 154.409 -5.7837 -1.03737 0
M  V30 1646 H 155.933 -5.77955 -1.96979 0
M  V30 1647 H 157.347 -5.72509 0.300996 0
M  V30 1648 H 155.744 -5.90455 1.07156 0
M  V30 1649 H 156.814 -4.58496 1.57829 0
M  V30 1650 N 158.157 -0.370918 -1.53173 0
M  V30 1651 C 159.406 0.218249 -2.00516 0
M  V30 1652 C 159.719 1.49429 -1.26215 0
M  V30 1653 O 160.925 2.16239 -1.64174 0
M  V30 1654 C 159.381 0.43948 -3.57207 0
M  V30 1655 C 158.989 -0.822244 -4.4039 0
M  V30 1656 C 160.733 0.986012 -4.1289 0
M  V30 1657 C 158.64 -0.570304 -5.88644 0
M  V30 1658 H 157.57 0.0853333 -0.749156 0
M  V30 1659 H 160.221 -0.490483 -1.76823 0
M  V30 1660 H 158.603 1.20961 -3.77074 0
M  V30 1661 H 159.777 -1.59557 -4.32294 0
M  V30 1662 H 158.092 -1.29238 -3.95836 0
M  V30 1663 H 160.689 1.18991 -5.21292 0
M  V30 1664 H 161.032 1.94972 -3.6782 0
M  V30 1665 H 161.565 0.27592 -3.96842 0
M  V30 1666 H 158.304 -1.50449 -6.38001 0
M  V30 1667 H 157.824 0.164427 -5.99575 0
M  V30 1668 H 159.503 -0.19784 -6.46697 0
M  V30 1669 N 159.635 1.57281 -0.100228 0
M  V30 1670 C 160.884 1.93713 0.561984 0
M  V30 1671 C 161.197 0.984492 1.69018 0
M  V30 1672 O 162.403 1.24273 2.41389 0
M  V30 1673 C 160.859 3.4421 1.05106 0
M  V30 1674 C 160.467 4.47975 -0.0476628 0
M  V30 1675 C 162.211 3.89595 1.68571 0
M  V30 1676 C 160.118 5.89631 0.457055 0
M  V30 1677 H 159.048 0.723082 0.2137 0
M  V30 1678 H 161.699 1.82644 -0.177057 0
M  V30 1679 H 160.081 3.50449 1.84395 0
M  V30 1680 H 161.255 4.53385 -0.823333 0
M  V30 1681 H 159.57 4.1223 -0.587816 0
M  V30 1682 H 162.167 4.92832 2.07414 0
M  V30 1683 H 162.51 3.28526 2.55688 0
M  V30 1684 H 163.043 3.86078 0.958562 0
M  V30 1685 H 159.782 6.54411 -0.377616 0
M  V30 1686 H 159.302 5.87681 1.19962 0
M  V30 1687 H 160.981 6.40363 0.92437 0
M  V30 1688 N 161.113 -0.173488 1.56642 0
M  V30 1689 C 162.362 -0.888758 1.81063 0
M  V30 1690 C 162.675 -1.83506 0.67712 0
M  V30 1691 O 163.881 -2.59254 0.806206 0
M  V30 1692 C 162.337 -1.63091 3.20826 0
M  V30 1693 C 161.945 -0.728357 4.4204 0
M  V30 1694 C 163.689 -2.33454 3.54541 0
M  V30 1695 C 161.596 -1.47062 5.72823 0
M  V30 1696 H 160.526 -0.335618 0.675186 0
M  V30 1697 H 163.177 -0.141712 1.82952 0
M  V30 1698 H 161.559 -2.42263 3.13248 0
M  V30 1699 H 162.733 0.0262449 4.60793 0
M  V30 1700 H 161.048 -0.134492 4.16183 0
M  V30 1701 H 163.645 -2.89578 4.49498 0
M  V30 1702 H 163.988 -3.08687 2.79317 0
M  V30 1703 H 164.521 -1.61227 3.63663 0
M  V30 1704 H 161.26 -0.760658 6.51072 0
M  V30 1705 H 160.78 -2.1986 5.58052 0
M  V30 1706 H 162.459 -2.01868 6.14702 0
M  V30 1707 N 162.591 -1.51276 -0.441967 0
M  V30 1708 C 163.84 -1.6295 -1.18871 0
M  V30 1709 C 164.153 -0.349312 -1.92456 0
M  V30 1710 O 165.359 -0.345355 -2.69295 0
M  V30 1711 C 163.815 -2.87759 -2.16155 0
M  V30 1712 C 163.423 -4.22764 -1.48239 0
M  V30 1713 C 165.167 -3.08788 -2.91291 0
M  V30 1714 C 163.074 -5.38728 -2.4398 0
M  V30 1715 H 162.004 -0.606913 -0.447406 0
M  V30 1716 H 164.655 -1.77739 -0.456205 0
M  V30 1717 H 163.037 -2.66593 -2.92821 0
M  V30 1718 H 164.211 -4.54293 -0.771635 0
M  V30 1719 H 162.526 -4.07575 -0.852741 0
M  V30 1720 H 165.123 -3.92599 -3.63002 0
M  V30 1721 H 165.466 -2.21679 -3.5237 0
M  V30 1722 H 165.999 -3.30272 -2.21733 0
M  V30 1723 H 162.738 -6.28082 -1.87598 0
M  V30 1724 H 162.258 -5.1158 -3.13123 0
M  V30 1725 H 163.937 -5.70489 -3.05207 0
M  V30 1726 N 164.069 0.697108 -1.41344 0
M  V30 1727 C 165.315 1.4593 -1.40827 0
M  V30 1728 C 165.648 1.94193 -0.0167098 0
M  V30 1729 O 164.923 1.69425 0.955263 0
M  V30 1730 C 165.206 2.67229 -2.41373 0
M  V30 1731 C 165.059 2.24741 -3.8963 0
M  V30 1732 C 166.378 3.69423 -2.39196 0
M  V30 1733 H 163.497 0.529303 -0.512842 0
M  V30 1734 H 166.139 0.794112 -1.72609 0
M  V30 1735 H 164.289 3.23982 -2.14401 0
M  V30 1736 H 165.961 1.73327 -4.27499 0
M  V30 1737 H 164.204 1.56542 -4.0457 0
M  V30 1738 H 164.875 3.1177 -4.55525 0
M  V30 1739 H 167.351 3.2234 -2.63128 0
M  V30 1740 H 166.227 4.51907 -3.11563 0
M  V30 1741 H 166.488 4.19012 -1.41001 0
M  V30 1742 N 165.547 1.27147 0.931209 0
M  V30 1743 C 166.777 1.15914 1.71019 0
M  V30 1744 C 167.185 -0.287112 1.87009 0
M  V30 1745 O 166.528 -1.20761 1.38429 0
M  V30 1746 C 166.59 1.76647 3.13107 0
M  V30 1747 C 166.254 3.25807 3.20467 0
M  V30 1748 C 167.251 4.22489 3.02983 0
M  V30 1749 C 164.936 3.66452 3.43538 0
M  V30 1750 C 166.93 5.57794 3.08454 0
M  V30 1751 C 164.617 5.01888 3.48643 0
M  V30 1752 C 165.615 5.97369 3.31119 0
M  V30 1753 O 165.303 7.30337 3.35952 0
M  V30 1754 H 165.035 0.404062 0.54195 0
M  V30 1755 H 167.589 1.68457 1.17521 0
M  V30 1756 H 165.819 1.18578 3.68071 0
M  V30 1757 H 167.508 1.60179 3.72958 0
M  V30 1758 H 168.274 3.92425 2.85004 0
M  V30 1759 H 164.153 2.92611 3.5623 0
M  V30 1760 H 167.697 6.32298 2.94694 0
M  V30 1761 H 163.594 5.31609 3.66145 0
M  V30 1762 H 164.362 7.38739 3.5243 0
M  V30 1763 N 167.025 -1.13721 1.09112 0
M  V30 1764 C 168.272 -1.84924 0.825192 0
M  V30 1765 C 168.6 -1.83347 -0.649151 0
M  V30 1766 O 167.855 -1.26449 -1.49362 0
M  V30 1767 C 168.154 -3.32861 1.30146 0
M  V30 1768 C 167.82 -3.54621 2.78486 0
M  V30 1769 C 166.482 -3.60268 3.18999 0
M  V30 1770 C 168.834 -3.62855 3.74146 0
M  V30 1771 C 166.162 -3.71679 4.53951 0
M  V30 1772 C 168.514 -3.75793 5.08883 0
M  V30 1773 C 167.178 -3.79692 5.4899 0
M  V30 1774 H 166.448 -0.676684 0.301959 0
M  V30 1775 H 169.095 -1.3428 1.36533 0
M  V30 1776 H 167.4 -3.85835 0.681064 0
M  V30 1777 H 169.097 -3.86395 1.07236 0
M  V30 1778 H 165.687 -3.50879 2.46134 0
M  V30 1779 H 169.871 -3.57775 3.43963 0
M  V30 1780 H 165.127 -3.72963 4.84467 0
M  V30 1781 H 169.301 -3.81107 5.82864 0
M  V30 1782 H 166.928 -3.88287 6.53558 0
M  V30 1783 N 168.503 -0.877838 -1.30888 0
M  V30 1784 C 169.728 -0.506629 -2.01117 0
M  V30 1785 C 170.153 0.895564 -1.65412 0
M  V30 1786 O 169.511 1.5923 -0.866922 0
M  V30 1787 C 169.559 -0.680223 -3.54126 0
M  V30 1788 O 168.663 0.277033 -4.11468 0
M  V30 1789 H 168.004 -0.200518 -0.633 0
M  V30 1790 H 170.534 -1.18342 -1.66902 0
M  V30 1791 H 170.544 -0.5765 -4.03907 0
M  V30 1792 H 169.219 -1.70261 -3.79452 0
M  V30 1793 H 167.796 0.127606 -3.72682 0
M  V30 1794 N 169.982 1.44106 -0.638065 0
M  V30 1795 C 171.21 2.06336 -0.152615 0
M  V30 1796 C 171.625 1.47731 1.17563 0
M  V30 1797 O 170.982 0.602806 1.72257 0
M  V30 1798 C 171.033 3.61479 -0.0391491 0
M  V30 1799 O 170.754 4.17903 -1.31487 0
M  V30 1800 C 172.255 4.40757 0.474176 0
M  V30 1801 H 169.475 0.665862 -0.0828776 0
M  V30 1802 H 172.019 1.84862 -0.87443 0
M  V30 1803 H 170.174 3.82191 0.633142 0
M  V30 1804 H 170.588 5.11416 -1.16421 0
M  V30 1805 H 172.062 5.49707 0.502562 0
M  V30 1806 H 172.539 4.12697 1.50258 0
M  V30 1807 H 173.145 4.24979 -0.165102 0
M  V30 1808 O 171.499 0.52123 1.52858 0
M  V30 1809 H 172.19 0.00896083 1.93698 0
M  V30 END ATOM
M  V30 BEGIN BOND
M  V30 END BOND
M  V30 END CTAB
M  END
$$$$
