drugbank_target|A0A0H2URW2 Uncharacterized protein (DB01694)
 OpenBabel12092120223D

  0  0  0     0  0            999 V3000
M  V30 BEGIN CTAB
M  V30 COUNTS 3803 3837 0 0 0
M  V30 BEGIN ATOM
M  V30 1 H -0.908 1.98254 -0.117106 0
M  V30 2 N 0 1.576 0 0
M  V30 3 C 0.933 2.03868 1.02534 0
M  V30 4 C 1.911 0.928543 1.3348 0
M  V30 5 O 3.095 1.19667 1.45644 0
M  V30 6 C 0.222 2.43627 2.35294 0
M  V30 7 C -0.732 3.65373 2.2001 0
M  V30 8 S 0.101 5.13292 1.52614 0
M  V30 9 C 1.257 5.56322 2.86805 0
M  V30 10 H 1.49 2.90518 0.631377 0
M  V30 11 H -0.977 1.52953 0.210867 0
M  V30 12 H 0.981 2.67203 3.11629 0
M  V30 13 H -0.358 1.57376 2.7183 0
M  V30 14 H -1.165 3.90944 3.18086 0
M  V30 15 H -1.563 3.418 1.51819 0
M  V30 16 H 0.729 5.58782 3.83104 0
M  V30 17 H 1.672 6.56266 2.65933 0
M  V30 18 H 2.08 4.83886 2.90714 0
M  V30 19 N 1.4781 -0.272755 1.55222 0
M  V30 20 C 2.4261 -1.35705 1.88909 0
M  V30 21 C 3.4201 -1.5112 0.765456 0
M  V30 22 O 4.6261 -1.52901 0.949802 0
M  V30 23 H 1.0011 -0.453868 0.59959 0
M  V30 24 H 2.9721 -1.04544 2.79487 0
M  V30 25 C 1.7211 -2.71049 2.17779 0
M  V30 26 H 1.0441 -2.59979 3.03728 0
M  V30 27 H 2.4841 -3.45858 2.45272 0
M  V30 28 C 0.9431 -3.22165 0.985473 0
M  V30 29 O 1.4731 -4.01096 0.220233 0
M  V30 30 N -0.3209 -2.7985 0.783108 0
M  V30 31 H -0.7739 -2.15775 1.40708 0
M  V30 32 H -0.8159 -3.14397 -0.0130392 0
M  V30 33 N 2.9562 -1.48159 -0.537278 0
M  V30 34 C 3.9032 -1.62138 -1.64256 0
M  V30 35 C 4.8732 -0.463668 -1.59497 0
M  V30 36 O 6.0582 -0.686241 -1.78032 0
M  V30 37 C 3.1982 -1.66028 -3.02537 0
M  V30 38 C 2.3112 -2.92855 -3.17585 0
M  V30 39 C 1.4462 -2.87952 -4.46382 0
M  V30 40 C 0.4852 -4.09516 -4.54932 0
M  V30 41 N -0.3778 -4.02733 -5.75109 0
M  V30 42 H 4.4622 -2.56529 -1.51647 0
M  V30 43 H 1.9992 -1.27224 -0.738414 0
M  V30 44 H 3.9572 -1.66265 -3.82638 0
M  V30 45 H 2.5872 -0.751331 -3.13934 0
M  V30 46 H 1.6392 -3.02395 -2.30784 0
M  V30 47 H 2.9512 -3.82822 -3.19764 0
M  V30 48 H 2.1052 -2.8655 -5.34765 0
M  V30 49 H 0.8442 -1.95702 -4.46712 0
M  V30 50 H -0.1508 -4.11201 -3.64957 0
M  V30 51 H 1.0742 -5.02917 -4.56346 0
M  V30 52 H -0.9798 -3.13299 -5.76351 0
M  V30 53 H -1.0628 -4.86397 -5.78752 0
M  V30 54 H 0.2052 -4.05379 -6.65799 0
M  V30 55 N 4.4343 0.785586 -1.36625 0
M  V30 56 C 5.6833 1.53883 -1.30396 0
M  V30 57 C 5.9963 1.95271 0.113452 0
M  V30 58 O 7.2023 2.69858 0.298142 0
M  V30 59 C 5.6583 2.77808 -2.28802 0
M  V30 60 C 5.2663 2.43574 -3.75999 0
M  V30 61 C 7.0103 3.55783 -2.31558 0
M  V30 62 C 4.9173 3.63919 -4.66173 0
M  V30 63 H 3.8473 0.577678 -0.484566 0
M  V30 64 H 6.4983 0.861705 -1.62009 0
M  V30 65 H 4.8803 3.47339 -1.90188 0
M  V30 66 H 6.0543 1.81916 -4.23371 0
M  V30 67 H 4.3693 1.78803 -3.76056 0
M  V30 68 H 6.9663 4.45205 -2.96137 0
M  V30 69 H 7.3093 3.94644 -1.3252 0
M  V30 70 H 7.8423 2.93235 -2.68809 0
M  V30 71 H 4.5813 3.3015 -5.66287 0
M  V30 72 H 4.1013 4.2473 -4.23515 0
M  V30 73 H 5.7803 4.30901 -4.82632 0
M  V30 74 N 5.9124 1.20967 1.01018 0
M  V30 75 C 7.1594 1.02374 1.74716 0
M  V30 76 C 7.4874 -0.443375 1.89379 0
M  V30 77 O 6.7424 -1.34535 1.42123 0
M  V30 78 C 7.0414 1.65997 3.16512 0
M  V30 79 C 6.7074 3.15831 3.2181 0
M  V30 80 C 5.3694 3.56719 3.22963 0
M  V30 81 C 7.7214 4.11816 3.19464 0
M  V30 82 C 5.0494 4.92107 3.19449 0
M  V30 83 C 7.4014 5.47158 3.17491 0
M  V30 84 C 6.0654 5.87451 3.16951 0
M  V30 85 H 5.3354 0.374614 0.639332 0
M  V30 86 H 7.9824 1.50485 1.18434 0
M  V30 87 H 6.2874 1.10166 3.75993 0
M  V30 88 H 7.9844 1.49119 3.72242 0
M  V30 89 H 4.5744 2.83263 3.21652 0
M  V30 90 H 8.7584 3.81257 3.17737 0
M  V30 91 H 4.0144 5.22579 3.17366 0
M  V30 92 H 8.1884 6.21274 3.14629 0
M  V30 93 H 5.8154 6.92329 3.13983 0
M  V30 94 N 7.3905 -1.2043 1.01659 0
M  V30 95 C 8.6395 -1.89118 0.701237 0
M  V30 96 C 8.9525 -1.79705 -0.772358 0
M  V30 97 O 10.1585 -2.43528 -1.20026 0
M  V30 98 C 8.6145 -3.39168 1.20388 0
M  V30 99 C 8.2225 -3.57166 2.70438 0
M  V30 100 C 9.9665 -4.1341 0.963953 0
M  V30 101 C 7.8735 -5.01042 3.14183 0
M  V30 102 H 6.8035 -0.708267 0.2586 0
M  V30 103 H 9.4545 -1.36239 1.22927 0
M  V30 104 H 7.8365 -3.91369 0.603824 0
M  V30 105 H 9.0105 -3.15351 3.35992 0
M  V30 106 H 7.3255 -2.96294 2.92572 0
M  V30 107 H 9.9225 -5.19491 1.26621 0
M  V30 108 H 10.2655 -4.16181 -0.099578 0
M  V30 109 H 10.7985 -3.67309 1.52738 0
M  V30 110 H 7.5375 -5.03426 4.19812 0
M  V30 111 H 7.0575 -5.43668 2.53348 0
M  V30 112 H 8.7365 -5.69623 3.0682 0
M  V30 113 N 8.8686 -0.792821 -1.36206 0
M  V30 114 C 10.0986 -0.378275 -2.03107 0
M  V30 115 C 10.5066 1.01119 -1.59911 0
M  V30 116 O 9.8496 1.66052 -0.785658 0
M  V30 117 C 9.9116 -0.366535 -3.57627 0
M  V30 118 C 9.5756 -1.70416 -4.24037 0
M  V30 119 C 10.5726 -2.6602 -4.46687 0
M  V30 120 C 8.2576 -1.98439 -4.6144 0
M  V30 121 C 10.2516 -3.8784 -5.05825 0
M  V30 122 C 7.9386 -3.20525 -5.20295 0
M  V30 123 C 8.9366 -4.15044 -5.42427 0
M  V30 124 O 8.6246 -5.34978 -6.00045 0
M  V30 125 H 8.3566 -0.153543 -0.658332 0
M  V30 126 H 10.9106 -1.07383 -1.75094 0
M  V30 127 H 9.1406 0.385539 -3.84773 0
M  V30 128 H 10.8296 0.0238088 -4.05893 0
M  V30 129 H 11.5956 -2.45658 -4.18183 0
M  V30 130 H 7.4746 -1.25686 -4.43536 0
M  V30 131 H 11.0186 -4.61628 -5.23015 0
M  V30 132 H 6.9156 -3.40764 -5.48225 0
M  V30 133 H 7.6836 -5.36088 -6.18508 0
M  V30 134 N 10.3467 1.47872 -0.545128 0
M  V30 135 C 11.3097 2.28337 0.198717 0
M  V30 136 C 12.3097 1.36255 0.853888 0
M  V30 137 O 13.4997 1.59003 0.711606 0
M  V30 138 C 10.6317 3.15585 1.28915 0
M  V30 139 H 11.8247 2.95567 -0.507941 0
M  V30 140 H 9.3777 1.53362 -0.301616 0
M  V30 141 H 10.1127 2.53019 2.02859 0
M  V30 142 H 9.8977 3.83337 0.824309 0
M  V30 143 H 11.3877 3.76243 1.81194 0
M  V30 144 N 11.8248 0.280983 1.55075 0
M  V30 145 C 13.0728 -0.333455 1.9933 0
M  V30 146 C 13.3938 -1.55937 1.17085 0
M  V30 147 O 12.6638 -1.94143 0.261805 0
M  V30 148 H 11.2438 -0.126197 0.736263 0
M  V30 149 H 13.9058 0.387678 1.91005 0
M  V30 150 H 13.0018 -0.619292 3.05894 0
M  V30 151 N 13.3029 -1.57598 0.00835791 0
M  V30 152 C 14.5489 -1.91211 -0.675732 0
M  V30 153 C 14.8819 -0.883139 -1.72958 0
M  V30 154 O 14.1569 0.097016 -1.94258 0
M  V30 155 C 14.4399 -3.35379 -1.31123 0
M  V30 156 C 14.2929 -4.48999 -0.268356 0
M  V30 157 C 15.6119 -3.7912 -2.23508 0
M  V30 158 H 12.7309 -0.695374 -0.244179 0
M  V30 159 H 15.3729 -1.89901 0.0613655 0
M  V30 160 H 13.5229 -3.36626 -1.93946 0
M  V30 161 H 15.1949 -4.59887 0.360844 0
M  V30 162 H 13.4379 -4.31873 0.408482 0
M  V30 163 H 14.1089 -5.46851 -0.752218 0
M  V30 164 H 16.5849 -3.79477 -1.70693 0
M  V30 165 H 15.4609 -4.80729 -2.64936 0
M  V30 166 H 15.7219 -3.13455 -3.11766 0
M  V30 167 N 14.781 0.264519 -1.55364 0
M  V30 168 C 16.197 0.61215 -1.47394 0
M  V30 169 C 16.397 1.89134 -0.695018 0
M  V30 170 O 15.453 2.51563 -0.217275 0
M  V30 171 C 16.766 0.731235 -2.91674 0
M  V30 172 C 18.314 0.82473 -3.01939 0
M  V30 173 C 18.789 0.975522 -4.4749 0
M  V30 174 N 20.28 1.04083 -4.51354 0
M  V30 175 C 21.015 1.17646 -5.61201 0
M  V30 176 N 20.511 1.27874 -6.80896 0
M  V30 177 N 22.304 1.20823 -5.48961 0
M  V30 178 H 14.455 -0.575456 -2.04456 0
M  V30 179 H 16.718 -0.196099 -0.927496 0
M  V30 180 H 16.424 -0.138392 -3.51428 0
M  V30 181 H 16.298 1.60883 -3.41169 0
M  V30 182 H 18.685 1.68482 -2.42276 0
M  V30 183 H 18.766 -0.0776479 -2.55682 0
M  V30 184 H 18.41 0.120058 -5.07758 0
M  V30 185 H 18.34 1.89268 -4.91412 0
M  V30 186 H 20.831 0.973846 -3.65136 0
M  V30 187 H 21.144 1.38081 -7.60364 0
M  V30 188 H 19.489 1.24863 -6.83692 0
M  V30 189 H 22.68 1.12469 -4.54388 0
M  V30 190 H 22.853 1.31049 -6.3461 0
M  V30 191 N 16.2591 1.48442 0.529413 0
M  V30 192 C 17.2071 1.63452 1.65487 0
M  V30 193 C 18.2011 0.500955 1.61823 0
M  V30 194 O 19.4071 0.679695 1.66674 0
M  V30 195 H 15.7821 0.514905 0.548066 0
M  V30 196 H 17.7531 2.57975 1.49971 0
M  V30 197 C 16.5021 1.69196 3.03756 0
M  V30 198 H 15.8251 2.55784 3.07269 0
M  V30 199 H 17.2651 1.83743 3.82119 0
M  V30 200 C 15.7241 0.430765 3.34135 0
M  V30 201 O 16.2541 -0.4561 3.99102 0
M  V30 202 N 14.4601 0.302293 2.89023 0
M  V30 203 H 14.0071 1.02496 2.36331 0
M  V30 204 H 13.9651 -0.540546 3.09718 0
M  V30 205 N 17.7372 -0.778329 1.37039 0
M  V30 206 C 18.6872 -1.88142 1.28789 0
M  V30 207 C 19.6712 -1.59923 0.177063 0
M  V30 208 O 20.8632 -1.72165 0.410873 0
M  V30 209 C 17.9922 -3.25518 1.09055 0
M  V30 210 C 17.0782 -3.5971 2.24654 0
M  V30 211 N 17.4692 -3.65131 3.50018 0
M  V30 212 C 15.7672 -3.89837 2.16663 0
M  V30 213 C 16.4682 -3.95882 4.26207 0
M  V30 214 N 15.4442 -4.11441 3.55271 0
M  V30 215 H 19.2462 -1.90575 2.23737 0
M  V30 216 H 16.7602 -0.974435 1.29917 0
M  V30 217 H 18.7572 -4.04423 1.0123 0
M  V30 218 H 17.4172 -3.24353 0.15018 0
M  V30 219 H 18.4282 -3.475 3.84011 0
M  V30 220 H 15.1052 -3.96533 1.30645 0
M  V30 221 H 16.4952 -4.06907 5.34674 0
M  V30 222 N 19.2153 -1.21501 -1.00376 0
M  V30 223 C 20.1633 -0.972442 -2.11297 0
M  V30 224 C 21.1573 0.080731 -1.69208 0
M  V30 225 O 22.3633 -0.0707666 -1.79861 0
M  V30 226 H 18.7383 -0.297218 -0.690772 0
M  V30 227 H 20.7093 -1.91394 -2.28934 0
M  V30 228 C 19.4583 -0.555065 -3.43241 0
M  V30 229 H 18.7813 -1.35709 -3.76062 0
M  V30 230 H 20.2213 -0.424664 -4.21868 0
M  V30 231 C 18.6803 0.734147 -3.28804 0
M  V30 232 O 19.2103 1.78937 -3.59645 0
M  V30 233 N 17.4163 0.701133 -2.82015 0
M  V30 234 H 16.9633 -0.157874 -2.57116 0
M  V30 235 H 16.9213 1.56403 -2.72737 0
M  V30 236 N 20.6934 1.19889 -1.02296 0
M  V30 237 C 21.9184 1.9393 -0.735237 0
M  V30 238 C 22.3434 1.74639 0.698782 0
M  V30 239 O 21.7014 1.04481 1.48167 0
M  V30 240 C 21.7494 3.43916 -1.08417 0
M  V30 241 O 20.8534 4.11917 -0.199446 0
M  V30 242 H 20.1944 0.605645 -0.272196 0
M  V30 243 H 22.7244 1.52137 -1.36804 0
M  V30 244 H 22.7344 3.9456 -1.03856 0
M  V30 245 H 21.4094 3.5728 -2.12894 0
M  V30 246 H 19.9864 3.71666 -0.303136 0
M  V30 247 N 22.1715 0.800033 1.35784 0
M  V30 248 C 23.1185 0.203848 2.29898 0
M  V30 249 C 24.0885 -0.658375 1.52495 0
M  V30 250 O 25.2735 -0.604832 1.8096 0
M  V30 251 C 22.4135 -0.64688 3.38983 0
M  V30 252 C 21.5265 0.235054 4.3136 0
M  V30 253 C 20.6615 -0.623054 5.27533 0
M  V30 254 C 19.7005 0.259682 6.11549 0
M  V30 255 N 18.8375 -0.558019 6.99879 0
M  V30 256 H 23.6775 1.01186 2.80295 0
M  V30 257 H 21.2145 0.51053 1.37957 0
M  V30 258 H 23.1725 -1.15521 4.00887 0
M  V30 259 H 21.8025 -1.42021 2.89879 0
M  V30 260 H 20.8545 0.861438 3.70518 0
M  V30 261 H 22.1665 0.914768 4.9034 0
M  V30 262 H 21.3205 -1.19678 5.94779 0
M  V30 263 H 20.0595 -1.33636 4.69034 0
M  V30 264 H 19.0645 0.845726 5.43256 0
M  V30 265 H 20.2895 0.970748 6.72126 0
M  V30 266 H 18.2355 -1.25542 6.43875 0
M  V30 267 H 18.1525 0.0637872 7.55973 0
M  V30 268 H 19.4205 -1.11523 7.71481 0
M  V30 269 N 23.6496 -1.47581 0.552962 0
M  V30 270 C 24.8776 -2.06875 0.0320556 0
M  V30 271 C 25.2926 -1.40625 -1.25976 0
M  V30 272 O 24.6496 -0.501349 -1.75479 0
M  V30 273 C 24.7006 -3.61092 -0.17167 0
M  V30 274 O 24.4216 -4.24858 1.06899 0
M  V30 275 C 25.9226 -4.37242 -0.730344 0
M  V30 276 H 23.1426 -0.669561 0.043915 0
M  V30 277 H 25.6866 -1.89646 0.765163 0
M  V30 278 H 23.8416 -3.7785 -0.854894 0
M  V30 279 H 24.2556 -5.17334 0.864059 0
M  V30 280 H 25.7296 -5.45842 -0.822203 0
M  V30 281 H 26.2066 -4.03235 -1.74064 0
M  V30 282 H 26.8126 -4.25219 -0.0829543 0
M  V30 283 N 25.1277 -0.289203 -1.54924 0
M  V30 284 C 26.0577 0.58549 -2.2604 0
M  V30 285 C 27.0387 1.14753 -1.25562 0
M  V30 286 O 28.2237 1.17906 -1.54311 0
M  V30 287 C 25.3537 1.76305 -2.99222 0
M  V30 288 C 24.3077 1.33191 -4.06748 0
M  V30 289 C 23.6337 2.5937 -4.6758 0
M  V30 290 C 24.9337 0.471775 -5.20165 0
M  V30 291 H 26.6277 -0.00763532 -2.99399 0
M  V30 292 H 24.1737 -0.00511229 -1.43999 0
M  V30 293 H 26.1267 2.38097 -3.47689 0
M  V30 294 H 24.8507 2.38223 -2.23422 0
M  V30 295 H 23.5097 0.737121 -3.59113 0
M  V30 296 H 23.1577 3.19576 -3.88433 0
M  V30 297 H 22.8577 2.31228 -5.40192 0
M  V30 298 H 24.3817 3.21985 -5.18804 0
M  V30 299 H 25.7957 0.995056 -5.64599 0
M  V30 300 H 24.1927 0.284639 -5.99425 0
M  V30 301 H 25.2627 -0.506041 -4.82252 0
M  V30 302 N 26.6058 1.57591 -0.0167156 0
M  V30 303 C 27.5158 2.1291 0.98521 0
M  V30 304 C 28.5318 1.07834 1.36557 0
M  V30 305 O 29.7078 1.39826 1.44951 0
M  V30 306 C 26.7728 2.63512 2.25305 0
M  V30 307 C 25.8338 3.83256 1.93426 0
M  V30 308 C 25.0668 4.31435 3.14165 0
M  V30 309 O 25.2898 3.78851 4.26413 0
M  V30 310 O 24.2238 5.23416 2.97186 0
M  V30 311 H 28.0498 2.98772 0.544888 0
M  V30 312 H 25.6348 1.48012 0.203141 0
M  V30 313 H 27.5168 2.96183 2.99756 0
M  V30 314 H 26.1918 1.8074 2.68542 0
M  V30 315 H 25.0988 3.55531 1.16398 0
M  V30 316 H 26.4318 4.67153 1.55013 0
M  V30 317 N 28.0839 -0.256276 1.55502 0
M  V30 318 C 29.3139 -1.00196 1.80677 0
M  V30 319 C 29.7219 -1.79805 0.588797 0
M  V30 320 O 29.0649 -1.78055 -0.451883 0
M  V30 321 C 29.1269 -1.99515 2.99055 0
M  V30 322 C 28.7909 -1.38688 4.35448 0
M  V30 323 C 29.7879 -0.794079 5.138 0
M  V30 324 C 27.4729 -1.40906 4.82132 0
M  V30 325 C 29.4669 -0.231562 6.36979 0
M  V30 326 C 27.1539 -0.842684 6.05262 0
M  V30 327 C 28.1519 -0.254953 6.82524 0
M  V30 328 O 27.8399 0.3027 8.0333 0
M  V30 329 H 27.5719 -0.300919 0.60533 0
M  V30 330 H 30.1259 -0.287307 2.03381 0
M  V30 331 H 28.3559 -2.74785 2.72084 0
M  V30 332 H 30.0449 -2.60349 3.11405 0
M  V30 333 H 30.8109 -0.769519 4.78856 0
M  V30 334 H 26.6899 -1.85591 4.21992 0
M  V30 335 H 30.2339 0.227816 6.97228 0
M  V30 336 H 26.1309 -0.86454 6.39684 0
M  V30 337 H 26.8989 0.193662 8.18271 0
M  V30 338 N 29.562 -1.4872 -0.521534 0
M  V30 339 C 30.79 -1.60843 -1.30142 0
M  V30 340 C 31.205 -0.271897 -1.86832 0
M  V30 341 O 30.562 0.739969 -1.66825 0
M  V30 342 C 30.613 -2.66155 -2.4463 0
M  V30 343 O 30.334 -3.94623 -1.90275 0
M  V30 344 C 31.835 -2.88795 -3.36322 0
M  V30 345 H 29.055 -0.542075 -0.395468 0
M  V30 346 H 31.599 -1.94609 -0.628285 0
M  V30 347 H 29.754 -2.35224 -3.07812 0
M  V30 348 H 30.168 -4.52468 -2.65279 0
M  V30 349 H 31.642 -3.66264 -4.12983 0
M  V30 350 H 32.119 -1.97934 -3.9207 0
M  V30 351 H 32.725 -3.21063 -2.78924 0
M  V30 352 N 31.0401 0.771051 -1.3745 0
M  V30 353 C 31.9871 1.88435 -1.3327 0
M  V30 354 C 32.9571 1.64914 -0.198136 0
M  V30 355 O 34.1421 1.86821 -0.387606 0
M  V30 356 C 31.2821 3.25509 -1.14622 0
M  V30 357 C 30.3951 3.60979 -2.37314 0
M  V30 358 C 29.5301 4.87265 -2.11533 0
M  V30 359 C 28.5691 5.15469 -3.30088 0
M  V30 360 N 27.7061 6.32944 -3.03853 0
M  V30 361 H 32.5461 1.91344 -2.28455 0
M  V30 362 H 30.0831 0.935466 -1.13523 0
M  V30 363 H 32.0411 4.04582 -1.01831 0
M  V30 364 H 30.6711 3.21974 -0.230837 0
M  V30 365 H 29.7231 2.76885 -2.60842 0
M  V30 366 H 31.0351 3.77759 -3.25729 0
M  V30 367 H 30.1891 5.74244 -1.95777 0
M  V30 368 H 28.9281 4.7259 -1.20457 0
M  V30 369 H 27.9331 4.26966 -3.46382 0
M  V30 370 H 29.1581 5.32052 -4.22016 0
M  V30 371 H 27.1041 6.19625 -2.15407 0
M  V30 372 H 27.0211 6.50143 -3.85812 0
M  V30 373 H 28.2891 7.22857 -2.91716 0
M  V30 374 N 32.5182 1.22032 0.997298 0
M  V30 375 C 33.9342 0.979326 1.26021 0
M  V30 376 C 34.1342 -0.32972 1.98784 0
M  V30 377 O 33.1902 -1.05345 2.29475 0
M  V30 378 C 34.5032 2.17509 2.07631 0
M  V30 379 C 36.0512 2.21817 2.2083 0
M  V30 380 C 36.5262 3.40933 3.05825 0
M  V30 381 N 38.0172 3.41067 3.13412 0
M  V30 382 C 38.7522 4.29885 3.79455 0
M  V30 383 N 38.2482 5.28914 4.47462 0
M  V30 384 N 40.0412 4.17673 3.76173 0
M  V30 385 H 32.1922 2.06202 0.509352 0
M  V30 386 H 34.4552 0.90334 0.287541 0
M  V30 387 H 34.1612 3.12415 1.61524 0
M  V30 388 H 34.0352 2.17206 3.08385 0
M  V30 389 H 36.4222 1.27462 2.66153 0
M  V30 390 H 36.5032 2.2616 1.1952 0
M  V30 391 H 36.1472 4.35586 2.61203 0
M  V30 392 H 36.0772 3.33829 4.07266 0
M  V30 393 H 38.5682 2.69406 2.65007 0
M  V30 394 H 38.8812 5.92973 4.95583 0
M  V30 395 H 37.2262 5.32831 4.46224 0
M  V30 396 H 40.4172 3.39564 3.22202 0
M  V30 397 H 40.5902 4.87098 4.27363 0
M  V30 398 N 33.9963 -1.19345 1.0293 0
M  V30 399 C 34.9263 -2.2481 0.631105 0
M  V30 400 C 35.9073 -1.66245 -0.360104 0
M  V30 401 O 37.0923 -1.92677 -0.242726 0
M  V30 402 C 34.2223 -3.47295 -0.0184607 0
M  V30 403 C 33.1763 -4.18536 0.895073 0
M  V30 404 C 32.5023 -5.34586 0.110592 0
M  V30 405 C 33.8023 -4.73287 2.209 0
M  V30 406 H 35.4963 -2.58372 1.51275 0
M  V30 407 H 33.0423 -1.24194 0.728818 0
M  V30 408 H 34.9953 -4.20268 -0.308675 0
M  V30 409 H 33.7193 -3.12933 -0.934907 0
M  V30 410 H 32.3783 -3.47446 1.16949 0
M  V30 411 H 32.0263 -4.96469 -0.807902 0
M  V30 412 H 31.7263 -5.83183 0.719087 0
M  V30 413 H 33.2503 -6.10355 -0.172871 0
M  V30 414 H 34.6643 -5.38013 1.98028 0
M  V30 415 H 33.0613 -5.32373 2.76946 0
M  V30 416 H 34.1313 -3.91331 2.86336 0
M  V30 417 N 35.4744 -0.807222 -1.35358 0
M  V30 418 C 36.6994 -0.399309 -2.0352 0
M  V30 419 C 37.1244 0.981986 -1.60433 0
M  V30 420 O 36.4824 1.63601 -0.781299 0
M  V30 421 C 36.5304 -0.491552 -3.57234 0
M  V30 422 O 35.6344 0.494754 -4.09421 0
M  V30 423 H 34.9754 -0.166682 -0.642739 0
M  V30 424 H 37.5054 -1.09328 -1.72941 0
M  V30 425 H 37.5154 -0.361588 -4.06395 0
M  V30 426 H 36.1904 -1.49907 -3.87944 0
M  V30 427 H 34.7674 0.324977 -3.71481 0
M  V30 428 N 36.9525 1.47285 -0.560781 0
M  V30 429 C 38.1775 2.07359 -0.0410566 0
M  V30 430 C 38.6025 1.41017 1.24483 0
M  V30 431 O 37.9605 0.486368 1.74654 0
M  V30 432 C 38.0085 3.6035 0.134123 0
M  V30 433 O 37.1125 3.94681 1.19587 0
M  V30 434 H 36.4535 0.661887 -0.0529291 0
M  V30 435 H 38.9835 1.89252 -0.777482 0
M  V30 436 H 38.9935 4.0652 0.347207 0
M  V30 437 H 37.6685 4.08034 -0.805047 0
M  V30 438 H 36.2455 3.60251 0.962987 0
M  V30 439 N 38.4306 0.297415 1.54768 0
M  V30 440 C 39.6796 -0.313669 1.99246 0
M  V30 441 C 39.9926 -1.55281 1.18942 0
M  V30 442 O 41.1986 -2.23825 1.5367 0
M  V30 443 C 39.6546 -0.609407 3.54703 0
M  V30 444 C 39.2626 0.611192 4.43811 0
M  V30 445 C 41.0066 -1.18188 4.07715 0
M  V30 446 C 38.9136 0.288805 5.90694 0
M  V30 447 H 37.8436 -0.120979 0.744231 0
M  V30 448 H 40.4946 0.40556 1.78962 0
M  V30 449 H 38.8766 -1.38813 3.70873 0
M  V30 450 H 40.0506 1.3875 4.39414 0
M  V30 451 H 38.3656 1.10205 4.01552 0
M  V30 452 H 40.9626 -1.43727 5.15021 0
M  V30 453 H 41.3056 -2.12299 3.58099 0
M  V30 454 H 41.8386 -0.464944 3.95074 0
M  V30 455 H 38.5776 1.19838 6.44453 0
M  V30 456 H 38.0976 -0.450305 5.98107 0
M  V30 457 H 39.7766 -0.110933 6.46905 0
M  V30 458 N 39.9087 -1.5758 0.0250728 0
M  V30 459 C 41.1577 -1.90811 -0.653767 0
M  V30 460 C 41.4707 -0.90273 -1.73523 0
M  V30 461 O 42.6767 -1.12614 -2.47043 0
M  V30 462 C 41.1327 -3.38804 -1.21409 0
M  V30 463 C 40.7407 -4.47692 -0.166126 0
M  V30 464 C 42.4847 -3.81108 -1.86967 0
M  V30 465 C 40.3917 -5.86779 -0.737856 0
M  V30 466 H 39.3217 -0.712063 -0.247956 0
M  V30 467 H 41.9727 -1.83281 0.0897137 0
M  V30 468 H 40.3547 -3.41252 -2.00905 0
M  V30 469 H 41.5287 -4.56797 0.606079 0
M  V30 470 H 39.8437 -4.14565 0.390466 0
M  V30 471 H 42.4407 -4.82375 -2.30692 0
M  V30 472 H 42.7837 -3.15953 -2.71071 0
M  V30 473 H 43.3167 -3.81065 -1.14167 0
M  V30 474 H 40.0557 -6.55468 0.0649577 0
M  V30 475 H 39.5757 -5.81288 -1.47864 0
M  V30 476 H 41.2547 -6.35223 -1.22884 0
M  V30 477 N 41.3868 0.248026 -1.55636 0
M  V30 478 C 42.6118 0.998028 -1.81808 0
M  V30 479 C 43.0368 1.78207 -0.601979 0
M  V30 480 O 42.3948 1.75653 0.448961 0
M  V30 481 C 42.4428 1.9125 -3.05705 0
M  V30 482 O 41.5468 3.00406 -2.82542 0
M  V30 483 H 40.8878 0.284045 -0.600179 0
M  V30 484 H 43.4178 0.269357 -2.02819 0
M  V30 485 H 43.4278 2.32737 -3.35108 0
M  V30 486 H 42.1028 1.33602 -3.93857 0
M  V30 487 H 40.6798 2.63056 -2.64303 0
M  V30 488 N 42.8649 1.48995 0.513639 0
M  V30 489 C 44.0899 1.61792 1.29762 0
M  V30 490 C 44.5149 0.284475 1.85936 0
M  V30 491 O 43.8729 -0.746185 1.65232 0
M  V30 492 C 43.9209 2.67993 2.41272 0
M  V30 493 O 43.0249 2.26287 3.44772 0
M  V30 494 H 42.3659 0.541963 0.38363 0
M  V30 495 H 44.8959 1.95097 0.616307 0
M  V30 496 H 44.9059 2.89772 2.87221 0
M  V30 497 H 43.5809 3.64791 1.9975 0
M  V30 498 H 42.1579 2.14788 3.04829 0
M  V30 499 N 44.343 -0.763751 1.37857 0
M  V30 500 C 45.759 -1.06542 1.18832 0
M  V30 501 C 45.959 -2.01478 0.0299722 0
M  V30 502 O 45.015 -2.4458 -0.627447 0
M  V30 503 C 46.328 -1.65525 2.51042 0
M  V30 504 C 47.876 -1.77745 2.57635 0
M  V30 505 C 48.351 -2.4014 3.89996 0
M  V30 506 N 49.842 -2.47582 3.91481 0
M  V30 507 C 50.577 -2.96732 4.9065 0
M  V30 508 N 50.073 -3.45993 6.00217 0
M  V30 509 N 51.866 -2.95679 4.78048 0
M  V30 510 H 44.017 -0.133556 2.1198 0
M  V30 511 H 46.28 -0.121879 0.940133 0
M  V30 512 H 45.986 -1.03236 3.36207 0
M  V30 513 H 45.86 -2.64719 2.68707 0
M  V30 514 H 48.247 -2.39164 1.72872 0
M  V30 515 H 48.328 -0.772836 2.43846 0
M  V30 516 H 47.972 -1.79358 4.75177 0
M  V30 517 H 47.902 -3.41223 4.01092 0
M  V30 518 H 50.393 -2.1273 3.12337 0
M  V30 519 H 50.706 -3.81922 6.7183 0
M  V30 520 H 49.051 -3.44077 6.03851 0
M  V30 521 H 52.242 -2.56499 3.91568 0
M  V30 522 H 52.415 -3.33672 5.55488 0
M  V30 523 N 45.8211 -1.22559 -0.990812 0
M  V30 524 C 46.7691 -0.994798 -2.10253 0
M  V30 525 C 47.7631 0.0627798 -1.69284 0
M  V30 526 O 48.9691 -0.0898392 -1.79776 0
M  V30 527 H 45.3441 -0.304527 -0.687581 0
M  V30 528 H 47.3151 -1.93812 -2.26891 0
M  V30 529 C 46.0641 -0.591439 -3.42633 0
M  V30 530 H 45.3871 -1.3969 -3.74602 0
M  V30 531 H 46.8271 -0.469385 -4.21394 0
M  V30 532 C 45.2861 0.699232 -3.29564 0
M  V30 533 O 45.8161 1.75112 -3.61523 0
M  V30 534 N 44.0221 0.671182 -2.82743 0
M  V30 535 H 43.5691 -0.185136 -2.56934 0
M  V30 536 H 43.5271 1.53502 -2.7438 0
M  V30 537 N 47.2992 1.18797 -1.03562 0
M  V30 538 C 48.2472 2.24297 -0.615905 0
M  V30 539 C 49.2412 1.65643 0.354808 0
M  V30 540 O 50.4472 1.78618 0.22265 0
M  V30 541 H 46.8222 0.729909 -0.180934 0
M  V30 542 H 48.7932 2.5701 -1.5162 0
M  V30 543 C 47.5422 3.47698 0.0104735 0
M  V30 544 H 46.8652 3.93125 -0.727509 0
M  V30 545 H 48.3052 4.23159 0.266995 0
M  V30 546 C 46.7642 3.12489 1.25905 0
M  V30 547 O 47.2942 3.25761 2.35038 0
M  V30 548 N 45.5002 2.6686 1.15039 0
M  V30 549 H 45.0472 2.56261 0.262328 0
M  V30 550 H 45.0052 2.43674 1.98672 0
M  V30 551 N 48.7773 0.814389 1.34928 0
M  V30 552 C 50.0233 0.399013 1.98836 0
M  V30 553 C 50.3563 -1.03314 1.64438 0
M  V30 554 O 49.6313 -1.71811 0.911659 0
M  V30 555 C 49.9143 0.591629 3.55207 0
M  V30 556 C 49.7673 2.06928 3.99376 0
M  V30 557 C 51.0863 0.022199 4.40094 0
M  V30 558 H 48.2053 0.146451 0.722303 0
M  V30 559 H 50.8473 1.02537 1.59957 0
M  V30 560 H 48.9973 0.0584441 3.88456 0
M  V30 561 H 50.6693 2.66544 3.76499 0
M  V30 562 H 48.9123 2.56287 3.49999 0
M  V30 563 H 49.5833 2.1549 5.08201 0
M  V30 564 H 52.0593 0.477643 4.13349 0
M  V30 565 H 50.9353 0.186832 5.48582 0
M  V30 566 H 51.1963 -1.07215 4.28902 0
M  V30 567 N 50.2554 -1.46986 0.568584 0
M  V30 568 C 51.5324 -1.95592 -0.0174074 0
M  V30 569 C 51.9124 -1.51124 -1.47393 0
M  V30 570 O 51.2604 -0.755329 -2.15655 0
M  V30 571 C 51.4704 -3.48719 0.139913 0
M  V30 572 C 52.8184 -4.246 0.000426376 0
M  V30 573 O 53.8424 -3.56135 0.0680316 0
M  V30 574 O 52.7014 -5.46302 -0.146988 0
M  V30 575 H 49.7954 -0.82498 -0.0577599 0
M  V30 576 H 52.3414 -1.57335 0.635909 0
M  V30 577 H 51.1134 -3.73927 1.15301 0
M  V30 578 H 50.7364 -3.93771 -0.550491 0
M  V30 579 N 51.7335 -0.305618 -1.54608 0
M  V30 580 C 52.9825 0.303098 -1.9941 0
M  V30 581 C 53.2955 1.54648 -1.19764 0
M  V30 582 O 54.5015 2.23007 -1.54855 0
M  V30 583 C 52.9575 0.590588 -3.55021 0
M  V30 584 C 52.5655 -0.634719 -4.43481 0
M  V30 585 C 54.3095 1.16025 -4.08336 0
M  V30 586 C 52.2165 -0.320126 -5.90533 0
M  V30 587 H 51.1465 0.117031 -0.744862 0
M  V30 588 H 53.7975 -0.415045 -1.78745 0
M  V30 589 H 52.1795 1.36845 -3.71604 0
M  V30 590 H 53.3535 -1.41079 -4.38672 0
M  V30 591 H 51.6685 -1.12333 -4.00962 0
M  V30 592 H 54.2655 1.40994 -5.15776 0
M  V30 593 H 54.6085 2.10397 -3.5922 0
M  V30 594 H 55.1415 0.443985 -3.95315 0
M  V30 595 H 51.8805 -1.23254 -6.43808 0
M  V30 596 H 51.4005 0.418579 -5.98338 0
M  V30 597 H 53.0795 0.0766241 -6.46955 0
M  V30 598 N 53.2116 1.57565 -0.0334293 0
M  V30 599 C 54.4366 1.96689 0.657895 0
M  V30 600 C 54.8616 0.910057 1.64619 0
M  V30 601 O 54.2196 -0.128598 1.80843 0
M  V30 602 C 54.2676 3.34905 1.33683 0
M  V30 603 O 53.3716 3.31574 2.45219 0
M  V30 604 H 52.7126 0.641205 0.172489 0
M  V30 605 H 55.2426 2.04372 -0.0965621 0
M  V30 606 H 55.2526 3.71234 1.69262 0
M  V30 607 H 53.9276 4.11366 0.612411 0
M  V30 608 H 52.5046 3.06968 2.11719 0
M  V30 609 N 54.6897 -0.239769 1.55765 0
M  V30 610 C 55.9367 -0.966801 1.7793 0
M  V30 611 C 56.2647 -1.85046 0.599015 0
M  V30 612 O 55.5197 -1.91197 -0.417395 0
M  V30 613 C 55.8187 -1.852 3.05672 0
M  V30 614 C 55.4847 -1.1231 4.36689 0
M  V30 615 C 54.1467 -0.921689 4.72291 0
M  V30 616 C 56.4987 -0.607019 5.17653 0
M  V30 617 C 53.8267 -0.191996 5.86386 0
M  V30 618 C 56.1787 0.109241 6.32506 0
M  V30 619 C 54.8427 0.322073 6.66723 0
M  V30 620 H 54.1127 -0.353778 0.651093 0
M  V30 621 H 56.7597 -0.23634 1.90036 0
M  V30 622 H 55.0647 -2.64975 2.8861 0
M  V30 623 H 56.7617 -2.41635 3.20021 0
M  V30 624 H 53.3517 -1.29004 4.08725 0
M  V30 625 H 57.5357 -0.750153 4.90598 0
M  V30 626 H 52.7917 -0.0166949 6.11398 0
M  V30 627 H 56.9657 0.516737 6.9448 0
M  V30 628 H 54.5927 0.88944 7.54979 0
M  V30 629 N 56.1678 -1.49265 -0.50573 0
M  V30 630 C 57.5838 -1.35923 -0.836486 0
M  V30 631 C 57.7838 -0.388704 -1.97715 0
M  V30 632 O 56.8398 0.181336 -2.51848 0
M  V30 633 C 58.1528 -2.76531 -1.18115 0
M  V30 634 C 59.7008 -2.85197 -1.28964 0
M  V30 635 C 60.1758 -4.26561 -1.66761 0
M  V30 636 N 61.6668 -4.2935 -1.73819 0
M  V30 637 C 62.4018 -5.35693 -2.045 0
M  V30 638 N 61.8978 -6.52287 -2.33438 0
M  V30 639 N 63.6908 -5.23105 -2.05711 0
M  V30 640 H 55.8418 -2.10965 0.246519 0
M  V30 641 H 58.1048 -0.9468 0.0476887 0
M  V30 642 H 57.8108 -3.49226 -0.416398 0
M  V30 643 H 57.6848 -3.11599 -2.1257 0
M  V30 644 H 60.0718 -2.12742 -2.04511 0
M  V30 645 H 60.1528 -2.53718 -0.325704 0
M  V30 646 H 59.7968 -4.99541 -0.917656 0
M  V30 647 H 59.7268 -4.55502 -2.64246 0
M  V30 648 H 62.2178 -3.4526 -1.53635 0
M  V30 649 H 62.5308 -7.29158 -2.56024 0
M  V30 650 H 60.8758 -6.55521 -2.30905 0
M  V30 651 H 64.0668 -4.31026 -1.82577 0
M  V30 652 H 64.2398 -6.06078 -2.29289 0
M  V30 653 N 57.6459 0.756429 -1.3826 0
M  V30 654 C 58.8739 1.54565 -1.3754 0
M  V30 655 C 59.2889 1.88767 0.0355331 0
M  V30 656 O 58.6459 1.52572 1.0014 0
M  V30 657 C 58.6969 2.84654 -2.22833 0
M  V30 658 O 58.4179 2.51912 -3.5843 0
M  V30 659 C 59.9189 3.78807 -2.30261 0
M  V30 660 H 57.1389 0.478353 -0.470553 0
M  V30 661 H 59.6829 0.936381 -1.81803 0
M  V30 662 H 57.8379 3.41965 -1.8204 0
M  V30 663 H 58.2519 3.35325 -4.03308 0
M  V30 664 H 59.7259 4.67045 -2.94233 0
M  V30 665 H 60.2029 4.19038 -1.31545 0
M  V30 666 H 60.8089 3.2742 -2.71433 0
M  V30 667 N 59.124 1.23083 0.984299 0
M  V30 668 C 60.535 1.05609 1.5396 0
M  V30 669 C 60.886 -0.377793 1.92528 0
M  V30 670 O 60.011 -1.26398 1.75649 0
M  V30 671 C 60.606 1.91087 2.7977 0
M  V30 672 C 59.165 1.77885 3.31713 0
M  V30 673 C 58.312 1.87028 2.04733 0
M  V30 674 H 61.263 1.36802 0.804419 0
M  V30 675 H 61.284 1.43336 3.5247 0
M  V30 676 H 60.796 2.9544 2.51668 0
M  V30 677 H 58.897 0.762995 3.64704 0
M  V30 678 H 59.01 2.61047 4.01735 0
M  V30 679 H 57.374 1.30565 2.18689 0
M  V30 680 H 58.157 2.92929 1.79017 0
M  V30 681 N 60.6021 -1.18246 1.0419 0
M  V30 682 C 61.8491 -1.88257 0.746017 0
M  V30 683 C 62.1771 -1.80429 -0.726331 0
M  V30 684 O 61.4321 -1.2 -1.54591 0
M  V30 685 C 61.7311 -3.38082 1.15911 0
M  V30 686 C 61.3971 -3.66114 2.63195 0
M  V30 687 C 60.0591 -3.73474 3.03432 0
M  V30 688 C 62.4111 -3.78398 3.5842 0
M  V30 689 C 59.7391 -3.90599 4.37778 0
M  V30 690 C 62.0911 -3.97039 4.92487 0
M  V30 691 C 60.7551 -4.02635 5.32392 0
M  V30 692 H 60.0251 -0.688883 0.272987 0
M  V30 693 H 62.6721 -1.3995 1.30715 0
M  V30 694 H 60.9771 -3.88377 0.516806 0
M  V30 695 H 62.6741 -3.90596 0.907516 0
M  V30 696 H 59.2641 -3.61003 2.3103 0
M  V30 697 H 63.4481 -3.72042 3.28479 0
M  V30 698 H 58.7041 -3.93175 4.68213 0
M  V30 699 H 62.8781 -4.05486 5.66175 0
M  V30 700 H 60.5051 -4.15657 6.36501 0
M  V30 701 N 62.0802 -0.821533 -1.34494 0
M  V30 702 C 63.0282 -0.230702 -2.31453 0
M  V30 703 C 64.0222 0.627793 -1.57338 0
M  V30 704 O 65.2282 0.519288 -1.72347 0
M  V30 705 H 61.6032 -0.0558577 -0.749923 0
M  V30 706 H 63.5742 -1.06332 -2.78812 0
M  V30 707 C 62.3232 0.59391 -3.4259 0
M  V30 708 H 61.6462 -0.0573588 -3.99759 0
M  V30 709 H 63.0862 0.973446 -4.12674 0
M  V30 710 C 61.5452 1.76568 -2.86924 0
M  V30 711 O 62.0752 2.8638 -2.81691 0
M  V30 712 N 60.2812 1.58198 -2.43766 0
M  V30 713 H 59.8282 0.68872 -2.48222 0
M  V30 714 H 59.7862 2.36752 -2.06871 0
M  V30 715 N 63.5583 1.46682 -0.576371 0
M  V30 716 C 64.7833 2.07304 -0.0630475 0
M  V30 717 C 65.2083 1.42329 1.2298 0
M  V30 718 O 64.5663 0.504865 1.74129 0
M  V30 719 C 64.6143 3.60472 0.095895 0
M  V30 720 O 63.7183 3.95927 1.15394 0
M  V30 721 H 63.0593 0.661288 -0.0599463 0
M  V30 722 H 65.5893 1.88417 -0.797511 0
M  V30 723 H 65.5993 4.06865 0.304071 0
M  V30 724 H 64.2743 4.07157 -0.84828 0
M  V30 725 H 62.8513 3.61252 0.924724 0
M  V30 726 N 65.0364 0.313813 1.54444 0
M  V30 727 C 65.9464 -0.565714 2.27677 0
M  V30 728 C 66.9624 -1.13754 1.31666 0
M  V30 729 O 68.1384 -1.15959 1.64668 0
M  V30 730 C 65.2034 -1.71528 3.01296 0
M  V30 731 C 64.2644 -1.17624 4.12872 0
M  V30 732 C 63.4974 -2.27102 4.8297 0
M  V30 733 O 63.7204 -3.47256 4.52514 0
M  V30 734 O 62.6544 -1.9307 5.70094 0
M  V30 735 H 66.4804 0.0287296 3.03686 0
M  V30 736 H 64.0654 0.0798312 1.49187 0
M  V30 737 H 65.9474 -2.38476 3.4743 0
M  V30 738 H 64.6224 -2.29608 2.2817 0
M  V30 739 H 63.5294 -0.472124 3.71109 0
M  V30 740 H 64.8624 -0.640695 4.88012 0
M  V30 741 N 66.5145 -1.57545 0.0417849 0
M  V30 742 C 67.4445 -2.14009 -0.933929 0
M  V30 743 C 68.4255 -1.05938 -1.33083 0
M  V30 744 O 69.6105 -1.33833 -1.40721 0
M  V30 745 C 66.7405 -2.67747 -2.21199 0
M  V30 746 C 65.6945 -3.80718 -1.95544 0
M  V30 747 C 65.0205 -4.20935 -3.29724 0
M  V30 748 C 66.3205 -5.06258 -1.28452 0
M  V30 749 H 68.0145 -2.95788 -0.463645 0
M  V30 750 H 65.5605 -1.42285 -0.221573 0
M  V30 751 H 67.5135 -3.05886 -2.89848 0
M  V30 752 H 66.2375 -1.83147 -2.70416 0
M  V30 753 H 64.8965 -3.43037 -1.2931 0
M  V30 754 H 64.5445 -3.33298 -3.76724 0
M  V30 755 H 64.2445 -4.9707 -3.13361 0
M  V30 756 H 65.7685 -4.61666 -3.9962 0
M  V30 757 H 67.1825 -5.41903 -1.8712 0
M  V30 758 H 65.5795 -5.87475 -1.22445 0
M  V30 759 H 66.6495 -4.84207 -0.259219 0
M  V30 760 N 67.9926 0.231505 -1.5589 0
M  V30 761 C 68.9026 1.308 -1.94752 0
M  V30 762 C 69.9186 1.51826 -0.849989 0
M  V30 763 O 71.0946 1.6515 -1.15271 0
M  V30 764 C 68.1596 2.63968 -2.24771 0
M  V30 765 C 67.2206 2.51331 -3.48039 0
M  V30 766 C 66.4536 3.78148 -3.76616 0
M  V30 767 O 66.6766 4.80722 -3.07022 0
M  V30 768 O 65.6106 3.75857 -4.70123 0
M  V30 769 H 69.4366 1.0083 -2.86474 0
M  V30 770 H 67.0216 0.433547 -1.42971 0
M  V30 771 H 68.9036 3.42633 -2.45318 0
M  V30 772 H 67.5786 2.9364 -1.36225 0
M  V30 773 H 66.4856 1.709 -3.32782 0
M  V30 774 H 67.8186 2.26601 -4.36936 0
M  V30 775 N 69.4707 1.49531 0.497807 0
M  V30 776 C 70.7197 1.58426 1.24837 0
M  V30 777 C 71.0327 0.277643 1.93619 0
M  V30 778 O 72.2387 0.24517 2.70391 0
M  V30 779 C 70.6947 2.79538 2.26686 0
M  V30 780 C 70.3027 4.16971 1.63828 0
M  V30 781 C 72.0467 2.97764 3.0255 0
M  V30 782 C 69.9537 5.29301 2.63807 0
M  V30 783 H 68.8837 0.58989 0.469623 0
M  V30 784 H 71.5347 1.75923 0.521857 0
M  V30 785 H 69.9167 2.55542 3.02514 0
M  V30 786 H 71.0907 4.51116 0.939711 0
M  V30 787 H 69.4057 4.04129 1.00342 0
M  V30 788 H 72.0027 3.78856 3.77323 0
M  V30 789 H 72.3457 2.08448 3.60354 0
M  V30 790 H 72.8787 3.21815 2.33838 0
M  V30 791 H 69.6177 6.20687 2.10779 0
M  V30 792 H 69.1377 4.99606 3.31894 0
M  V30 793 H 70.8167 5.58768 3.2617 0
M  V30 794 N 70.9488 -0.749086 1.3866 0
M  V30 795 C 72.1738 -1.54344 1.38538 0
M  V30 796 C 72.5988 -1.88088 -0.0216655 0
M  V30 797 O 71.9568 -1.50899 -1.00494 0
M  V30 798 C 72.0048 -2.8164 2.25192 0
M  V30 799 O 71.1088 -3.7698 1.67212 0
M  V30 800 H 70.4498 -0.466654 0.472367 0
M  V30 801 H 72.9798 -0.925355 1.82478 0
M  V30 802 H 72.9898 -3.30519 2.3921 0
M  V30 803 H 71.6648 -2.56411 3.27454 0
M  V30 804 H 70.2418 -3.35699 1.6236 0
M  V30 805 N 72.4269 -1.23603 -0.977757 0
M  V30 806 C 73.3749 -1.01704 -2.09187 0
M  V30 807 C 74.3689 0.0448214 -1.69341 0
M  V30 808 O 75.5749 -0.108902 -1.7967 0
M  V30 809 H 71.9499 -0.311803 -0.684312 0
M  V30 810 H 73.9209 -1.96207 -2.24823 0
M  V30 811 C 72.6699 -0.627746 -3.41986 0
M  V30 812 H 71.9929 -1.43656 -3.73099 0
M  V30 813 H 73.4329 -0.514053 -4.20872 0
M  V30 814 C 71.8919 0.664238 -3.30287 0
M  V30 815 O 72.4219 1.71268 -3.6336 0
M  V30 816 N 70.6279 0.641156 -2.83439 0
M  V30 817 H 70.1749 -0.212376 -2.56723 0
M  V30 818 H 70.1329 1.50583 -2.75993 0
M  V30 819 N 73.905 1.17692 -1.04816 0
M  V30 820 C 75.13 1.92327 -0.776207 0
M  V30 821 C 75.555 1.76082 0.661581 0
M  V30 822 O 74.913 1.076 1.45917 0
M  V30 823 C 74.961 3.41539 -1.15687 0
M  V30 824 O 74.065 4.11402 -0.286775 0
M  V30 825 H 73.406 0.599735 -0.284981 0
M  V30 826 H 75.936 1.49201 -1.4 0
M  V30 827 H 75.946 3.92269 -1.12202 0
M  V30 828 H 74.621 3.52684 -2.20425 0
M  V30 829 H 73.198 3.70939 -0.381903 0
M  V30 830 N 75.3831 0.828654 1.34056 0
M  V30 831 C 76.6601 0.341809 1.9259 0
M  V30 832 C 77.0401 -1.17158 1.75605 0
M  V30 833 O 76.3881 -1.98132 1.13824 0
M  V30 834 C 76.5981 0.777453 3.4023 0
M  V30 835 C 77.9461 0.779579 4.17382 0
M  V30 836 O 78.9701 0.7204 3.48839 0
M  V30 837 O 77.8291 0.857996 5.39723 0
M  V30 838 H 74.9231 0.0946085 0.821571 0
M  V30 839 H 77.4691 0.913827 1.42994 0
M  V30 840 H 76.2411 1.8196 3.46419 0
M  V30 841 H 75.8641 0.181444 3.97186 0
M  V30 842 N 76.8612 -1.46375 0.584142 0
M  V30 843 C 78.0862 -2.07268 0.0740405 0
M  V30 844 C 78.5112 -1.42979 -1.22223 0
M  V30 845 O 77.8692 -0.514092 -1.73859 0
M  V30 846 C 77.9172 -3.60518 -0.0767769 0
M  V30 847 O 77.0212 -3.96533 -1.13292 0
M  V30 848 H 76.3622 -0.660961 0.0634524 0
M  V30 849 H 78.8922 -1.87991 0.807492 0
M  V30 850 H 78.9022 -4.07021 -0.282489 0
M  V30 851 H 77.5772 -4.06702 0.86986 0
M  V30 852 H 76.1542 -3.61738 -0.905553 0
M  V30 853 N 78.3393 -0.321999 -1.54275 0
M  V30 854 C 79.2493 0.553631 -2.27974 0
M  V30 855 C 80.2653 1.13054 -1.32268 0
M  V30 856 O 81.4413 1.15084 -1.6528 0
M  V30 857 C 78.5063 1.69927 -3.02201 0
M  V30 858 C 77.5673 1.15433 -4.1349 0
M  V30 859 C 76.8003 2.24537 -4.84168 0
M  V30 860 O 77.0233 3.44852 -4.5435 0
M  V30 861 O 75.9573 1.90044 -5.7111 0
M  V30 862 H 79.7833 -0.0448345 -3.03667 0
M  V30 863 H 77.3683 -0.0877418 -1.49142 0
M  V30 864 H 79.2503 2.3663 -3.48689 0
M  V30 865 H 77.9253 2.28395 -2.29385 0
M  V30 866 H 76.8323 0.452436 -3.71354 0
M  V30 867 H 78.1653 0.614805 -4.88345 0
M  V30 868 N 79.8174 1.5752 -0.0501392 0
M  V30 869 C 80.7274 2.14952 0.939827 0
M  V30 870 C 81.7434 1.10706 1.34239 0
M  V30 871 O 82.9194 1.42869 1.41952 0
M  V30 872 C 79.9844 2.68232 2.19665 0
M  V30 873 C 79.0454 3.87272 1.85253 0
M  V30 874 C 78.2784 4.38002 3.04943 0
M  V30 875 O 78.5014 3.87811 4.18281 0
M  V30 876 O 77.4354 5.29602 2.86017 0
M  V30 877 H 81.2614 2.9986 0.481392 0
M  V30 878 H 78.8464 1.4841 0.171699 0
M  V30 879 H 80.7284 3.02475 2.93406 0
M  V30 880 H 79.4034 1.86395 2.64648 0
M  V30 881 H 78.3104 3.5792 1.0883 0
M  V30 882 H 79.6434 4.70336 1.4507 0
M  V30 883 N 81.2955 -0.223234 1.56011 0
M  V30 884 C 82.2255 -1.27988 1.95298 0
M  V30 885 C 83.2065 -1.48976 0.820979 0
M  V30 886 O 84.3915 -1.61188 1.08315 0
M  V30 887 C 81.5215 -2.63 2.26822 0
M  V30 888 C 80.4755 -2.56671 3.42497 0
M  V30 889 C 79.8015 -3.95697 3.59622 0
M  V30 890 C 81.1015 -2.11601 4.77517 0
M  V30 891 H 82.7955 -0.953525 2.8381 0
M  V30 892 H 80.3415 -0.457244 1.36548 0
M  V30 893 H 82.2945 -3.37077 2.52898 0
M  V30 894 H 81.0185 -2.9732 1.35161 0
M  V30 895 H 79.6775 -1.85051 3.16467 0
M  V30 896 H 79.3255 -4.27322 2.6534 0
M  V30 897 H 79.0255 -3.92345 4.37424 0
M  V30 898 H 80.5495 -4.71438 3.88044 0
M  V30 899 H 81.9635 -2.7542 5.02809 0
M  V30 900 H 80.3605 -2.19311 5.5859 0
M  V30 901 H 81.4305 -1.06824 4.72987 0
M  V30 902 N 82.7736 -1.49793 -0.48987 0
M  V30 903 C 84.0206 -1.59841 -1.24327 0
M  V30 904 C 84.3486 -0.290135 -1.92324 0
M  V30 905 O 83.6036 0.722749 -1.81865 0
M  V30 906 C 83.9026 -2.71488 -2.32441 0
M  V30 907 C 83.5686 -4.12614 -1.81826 0
M  V30 908 C 82.2306 -4.51017 -1.67742 0
M  V30 909 C 84.5826 -5.00892 -1.4407 0
M  V30 910 C 81.9106 -5.75459 -1.14297 0
M  V30 911 C 84.2626 -6.25863 -0.920742 0
M  V30 912 C 82.9266 -6.63086 -0.766383 0
M  V30 913 H 82.1966 -0.584899 -0.454944 0
M  V30 914 H 84.8436 -1.83663 -0.542215 0
M  V30 915 H 83.1486 -2.4168 -3.0838 0
M  V30 916 H 84.8456 -2.76469 -2.90458 0
M  V30 917 H 81.4356 -3.82307 -1.93751 0
M  V30 918 H 85.6196 -4.7187 -1.53794 0
M  V30 919 H 80.8756 -6.02989 -1.01068 0
M  V30 920 H 85.0496 -6.9364 -0.619448 0
M  V30 921 H 82.6766 -7.59393 -0.350083 0
M  V30 922 N 84.2517 0.741722 -1.39055 0
M  V30 923 C 85.1987 1.85566 -1.37237 0
M  V30 924 C 86.1687 1.64457 -0.233072 0
M  V30 925 O 87.3537 1.85957 -0.427147 0
M  V30 926 C 84.4937 3.23004 -1.215 0
M  V30 927 C 83.6067 3.55864 -2.44918 0
M  V30 928 C 82.7417 4.82669 -2.21821 0
M  V30 929 C 81.7807 5.08351 -3.40948 0
M  V30 930 N 80.9177 6.26356 -3.17211 0
M  V30 931 H 85.7577 1.86455 -2.32462 0
M  V30 932 H 83.2947 0.911176 -1.15482 0
M  V30 933 H 85.2527 4.02331 -1.10389 0
M  V30 934 H 83.8827 3.21411 -0.29908 0
M  V30 935 H 82.9347 2.7129 -2.66657 0
M  V30 936 H 84.2467 3.70765 -3.33668 0
M  V30 937 H 83.4007 5.69962 -2.07914 0
M  V30 938 H 82.1397 4.69929 -1.30454 0
M  V30 939 H 81.1447 4.19522 -3.55361 0
M  V30 940 H 82.3697 5.22981 -4.33207 0
M  V30 941 H 80.3157 6.14917 -2.28502 0
M  V30 942 H 80.2327 6.41813 -3.99515 0
M  V30 943 H 81.5007 7.16506 -3.06984 0
M  V30 944 N 85.7298 1.2412 0.971189 0
M  V30 945 C 86.6768 1.0305 2.06517 0
M  V30 946 C 87.6468 -0.0550666 1.66009 0
M  V30 947 O 88.8318 0.0988688 1.90544 0
M  V30 948 C 85.9718 0.637653 3.39158 0
M  V30 949 C 85.0848 1.79633 3.92882 0
M  V30 950 C 84.2198 1.34939 5.13775 0
M  V30 951 C 83.2588 2.47823 5.59687 0
M  V30 952 N 82.3958 2.04022 6.71803 0
M  V30 953 H 87.2358 1.96685 2.23873 0
M  V30 954 H 84.7728 0.979694 1.09729 0
M  V30 955 H 86.7308 0.390931 4.15364 0
M  V30 956 H 85.3608 -0.261693 3.21737 0
M  V30 957 H 84.4128 2.15681 3.13346 0
M  V30 958 H 85.7248 2.64466 4.22918 0
M  V30 959 H 84.8788 1.06134 5.97345 0
M  V30 960 H 83.6178 0.471557 4.85415 0
M  V30 961 H 82.6228 2.77392 4.74693 0
M  V30 962 H 83.8478 3.36158 5.90063 0
M  V30 963 H 81.7938 1.18632 6.45184 0
M  V30 964 H 81.7108 2.82409 7.01271 0
M  V30 965 H 82.9788 1.78347 7.58823 0
M  V30 966 N 87.2079 -1.17134 1.05439 0
M  V30 967 C 88.4559 -1.87085 0.764429 0
M  V30 968 C 88.7769 -1.81584 -0.710787 0
M  V30 969 O 88.0469 -1.24349 -1.51374 0
M  V30 970 H 86.6269 -0.692627 0.279779 0
M  V30 971 H 89.2889 -1.42087 1.33406 0
M  V30 972 H 88.3849 -2.92759 1.0816 0
M  V30 973 N 88.686 -0.835752 -1.33615 0
M  V30 974 C 89.935 -0.426289 -1.97144 0
M  V30 975 C 90.248 1.01912 -1.66953 0
M  V30 976 O 91.454 1.53311 -2.24072 0
M  V30 977 C 89.91 -0.711321 -3.52801 0
M  V30 978 C 89.518 -2.1712 -3.91871 0
M  V30 979 C 91.262 -0.368654 -4.22896 0
M  V30 980 C 89.169 -2.40044 -5.40493 0
M  V30 981 H 88.099 -0.15567 -0.737755 0
M  V30 982 H 90.75 -1.0239 -1.52278 0
M  V30 983 H 89.132 -0.0433766 -3.95976 0
M  V30 984 H 90.306 -2.87936 -3.59763 0
M  V30 985 H 88.621 -2.47654 -3.34749 0
M  V30 986 H 91.218 -0.517601 -5.32189 0
M  V30 987 H 91.561 0.688078 -4.10574 0
M  V30 988 H 92.094 -0.991702 -3.8524 0
M  V30 989 H 88.833 -3.44271 -5.57815 0
M  V30 990 H 88.353 -1.73785 -5.74072 0
M  V30 991 H 90.032 -2.23042 -6.0734 0
M  V30 992 N 90.1641 1.46063 -0.591896 0
M  V30 993 C 91.4411 1.95595 -0.0137119 0
M  V30 994 C 91.8211 1.5345 1.4497 0
M  V30 995 O 91.1691 0.789543 2.14426 0
M  V30 996 C 91.3791 3.48453 -0.195373 0
M  V30 997 C 92.7271 4.24546 -0.0679765 0
M  V30 998 O 93.7511 3.55982 -0.124681 0
M  V30 999 O 92.6101 5.46467 0.0600579 0
M  V30 1000 H 89.7041 0.825795 0.0446279 0
M  V30 1001 H 92.2501 1.56303 -0.660859 0
M  V30 1002 H 91.0221 3.72045 -1.21235 0
M  V30 1003 H 90.6451 3.94597 0.487775 0
M  V30 1004 N 91.6422 0.330177 1.54103 0
M  V30 1005 C 93.0582 -0.0222371 1.59585 0
M  V30 1006 C 93.2582 -1.49902 1.34654 0
M  V30 1007 O 92.3142 -2.25592 1.13421 0
M  V30 1008 C 93.6272 0.401932 2.98002 0
M  V30 1009 C 95.1752 0.353145 3.11001 0
M  V30 1010 C 95.6502 0.752576 4.51775 0
M  V30 1011 N 97.1412 0.706239 4.57784 0
M  V30 1012 C 97.8762 0.987417 5.64834 0
M  V30 1013 N 97.3722 1.33607 6.79795 0
M  V30 1014 N 99.1652 0.91254 5.54643 0
M  V30 1015 H 91.3162 1.29228 1.68564 0
M  V30 1016 H 93.5792 0.525906 0.78875 0
M  V30 1017 H 93.2852 1.4311 3.21267 0
M  V30 1018 H 93.1592 -0.229699 3.765 0
M  V30 1019 H 95.5462 -0.666822 2.87467 0
M  V30 1020 H 95.6272 1.0198 2.34593 0
M  V30 1021 H 95.2712 1.77049 4.76042 0
M  V30 1022 H 95.2012 0.0635409 5.26562 0
M  V30 1023 H 97.6922 0.44889 3.75224 0
M  V30 1024 H 98.0052 1.53582 7.57385 0
M  V30 1025 H 96.3502 1.37439 6.81275 0
M  V30 1026 H 99.5412 0.639601 4.6371 0
M  V30 1027 H 99.7142 1.13503 6.37982 0
M  V30 1028 N 93.1203 -1.57491 0.0584922 0
M  V30 1029 C 94.0523 -2.08916 -0.942694 0
M  V30 1030 C 95.0653 -1.0185 -1.27006 0
M  V30 1031 O 96.2543 -1.29398 -1.22957 0
M  V30 1032 C 93.3543 -2.52341 -2.26224 0
M  V30 1033 C 92.5273 -3.82827 -2.1157 0
M  V30 1034 C 91.5863 -4.12487 -3.26712 0
M  V30 1035 O 90.6123 -4.82295 -3.02292 0
M  V30 1036 N 91.8143 -3.64978 -4.5141 0
M  V30 1037 H 94.5793 -2.95437 -0.503722 0
M  V30 1038 H 92.1403 -1.61397 -0.12757 0
M  V30 1039 H 94.1323 -2.69254 -3.02133 0
M  V30 1040 H 92.7023 -1.7103 -2.61663 0
M  V30 1041 H 91.9223 -3.75425 -1.20208 0
M  V30 1042 H 93.2103 -4.68263 -1.99015 0
M  V30 1043 H 92.6083 -3.08558 -4.7414 0
M  V30 1044 H 91.1653 -3.87115 -5.2439 0
M  V30 1045 N 94.5984 0.214957 -1.56127 0
M  V30 1046 C 95.8234 0.95924 -1.83884 0
M  V30 1047 C 96.2484 1.7689 -0.639644 0
M  V30 1048 O 95.6064 1.76566 0.411601 0
M  V30 1049 C 95.6544 1.84723 -3.09693 0
M  V30 1050 O 94.7584 2.94346 -2.8885 0
M  V30 1051 H 94.0994 0.27125 -0.606069 0
M  V30 1052 H 96.6294 0.226276 -2.03345 0
M  V30 1053 H 96.6394 2.25576 -3.39969 0
M  V30 1054 H 95.3144 1.25218 -3.96602 0
M  V30 1055 H 93.8914 2.57391 -2.69823 0
M  V30 1056 N 96.0765 1.50051 0.48192 0
M  V30 1057 C 97.0245 1.68635 1.60203 0
M  V30 1058 C 98.0185 0.552184 1.60148 0
M  V30 1059 O 99.2245 0.732377 1.64427 0
M  V30 1060 H 95.5995 0.532081 0.531407 0
M  V30 1061 H 97.5705 2.62616 1.41688 0
M  V30 1062 C 96.3195 1.78775 2.9822 0
M  V30 1063 H 95.6425 2.6543 2.98976 0
M  V30 1064 H 97.0825 1.95806 3.7608 0
M  V30 1065 C 95.5415 0.536849 3.32595 0
M  V30 1066 O 96.0715 -0.328897 4.00351 0
M  V30 1067 N 94.2775 0.394091 2.87915 0
M  V30 1068 H 93.8245 1.09962 2.32951 0
M  V30 1069 H 93.7825 -0.441737 3.11281 0
M  V30 1070 N 97.5546 -0.734337 1.39446 0
M  V30 1071 C 98.5176 -1.83004 1.37994 0
M  V30 1072 C 99.5176 -1.58397 0.276938 0
M  V30 1073 O 100.708 -1.65785 0.534875 0
M  V30 1074 C 97.8396 -3.20802 1.1532 0
M  V30 1075 H 99.0326 -1.85694 2.35494 0
M  V30 1076 H 96.5856 -0.938059 1.25021 0
M  V30 1077 H 97.3206 -3.23772 0.185036 0
M  V30 1078 H 97.1056 -3.4006 1.95197 0
M  V30 1079 H 98.5956 -4.00862 1.17046 0
M  V30 1080 N 99.0327 -1.24633 -0.964593 0
M  V30 1081 C 100.31 -0.995809 -1.68354 0
M  V30 1082 C 100.69 0.480964 -2.05548 0
M  V30 1083 O 100.038 1.45599 -1.76105 0
M  V30 1084 C 100.248 -1.92177 -2.91323 0
M  V30 1085 C 101.596 -2.19446 -3.63495 0
M  V30 1086 O 102.62 -1.89855 -3.01386 0
M  V30 1087 O 101.479 -2.69714 -4.75307 0
M  V30 1088 H 98.5727 -0.376854 -0.736146 0
M  V30 1089 H 101.119 -1.35745 -1.0184 0
M  V30 1090 H 99.8907 -2.91938 -2.60553 0
M  V30 1091 H 99.5137 -1.56349 -3.65569 0
M  V30 1092 N 100.511 1.16574 -1.06058 0
M  V30 1093 C 101.788 1.83048 -0.689416 0
M  V30 1094 C 102.168 1.94122 0.829443 0
M  V30 1095 O 101.516 1.48249 1.7388 0
M  V30 1096 C 101.726 3.20186 -1.38859 0
M  V30 1097 C 103.074 3.95989 -1.53226 0
M  V30 1098 O 104.098 3.29696 -1.3483 0
M  V30 1099 O 102.957 5.14813 -1.83384 0
M  V30 1100 H 100.051 0.790258 -0.243764 0
M  V30 1101 H 102.597 1.23797 -1.16071 0
M  V30 1102 H 101.369 3.07146 -2.4244 0
M  V30 1103 H 100.992 3.87112 -0.907216 0
M  V30 1104 N 101.989 0.842826 1.3317 0
M  V30 1105 C 103.237 0.439577 1.97262 0
M  V30 1106 C 103.558 -1.00548 1.67078 0
M  V30 1107 O 102.828 -1.70098 0.971779 0
M  V30 1108 H 101.408 0.159558 0.72976 0
M  V30 1109 H 104.07 1.07665 1.62463 0
M  V30 1110 H 103.166 0.574886 3.0676 0
M  V30 1111 N 103.467 -1.45747 0.599634 0
M  V30 1112 C 104.715 -2.01893 0.0915472 0
M  V30 1113 C 105.036 -1.47155 -1.27946 0
M  V30 1114 O 104.306 -0.66273 -1.84349 0
M  V30 1115 H 102.886 -0.746363 0.0308524 0
M  V30 1116 H 105.548 -1.78645 0.779237 0
M  V30 1117 H 104.644 -3.1208 0.0353086 0
M  V30 1118 N 104.945 -0.338344 -1.53925 0
M  V30 1119 C 106.191 0.260143 -2.01125 0
M  V30 1120 C 106.524 1.50617 -1.22589 0
M  V30 1121 O 105.799 1.91979 -0.312113 0
M  V30 1122 C 106.082 0.579499 -3.55407 0
M  V30 1123 C 105.935 -0.678264 -4.44657 0
M  V30 1124 C 107.254 1.39122 -4.17532 0
M  V30 1125 H 104.373 0.0930772 -0.731099 0
M  V30 1126 H 107.015 -0.457852 -1.84401 0
M  V30 1127 H 105.165 1.19118 -3.69788 0
M  V30 1128 H 106.837 -1.31631 -4.42121 0
M  V30 1129 H 105.08 -1.3042 -4.13731 0
M  V30 1130 H 105.751 -0.410143 -5.50474 0
M  V30 1131 H 108.227 0.874035 -4.06817 0
M  V30 1132 H 107.103 1.58342 -5.25565 0
M  V30 1133 H 107.364 2.39178 -3.71815 0
M  V30 1134 N 106.423 1.57458 -0.0668435 0
M  V30 1135 C 107.672 1.92477 0.602947 0
M  V30 1136 C 107.985 0.948419 1.71068 0
M  V30 1137 O 109.191 1.19124 2.43971 0
M  V30 1138 C 107.647 3.41903 1.12383 0
M  V30 1139 C 107.255 4.47975 0.04737 0
M  V30 1140 C 108.999 3.85931 1.76797 0
M  V30 1141 C 106.906 5.88529 0.582022 0
M  V30 1142 H 105.836 0.718387 0.22899 0
M  V30 1143 H 108.487 1.82978 -0.138276 0
M  V30 1144 H 106.869 3.46459 1.91787 0
M  V30 1145 H 108.043 4.55029 -0.726978 0
M  V30 1146 H 106.358 4.13384 -0.500243 0
M  V30 1147 H 108.955 4.88322 2.17821 0
M  V30 1148 H 109.298 3.23029 2.62599 0
M  V30 1149 H 109.831 3.83958 1.04024 0
M  V30 1150 H 106.57 6.55065 -0.238721 0
M  V30 1151 H 106.09 5.85004 1.324 0
M  V30 1152 H 107.769 6.38258 1.05999 0
M  V30 1153 N 107.901 -0.206675 1.56239 0
M  V30 1154 C 108.848 -1.25617 1.93621 0
M  V30 1155 C 109.818 -1.45824 0.795274 0
M  V30 1156 O 111.003 -1.59148 1.05245 0
M  V30 1157 C 108.143 -2.59839 2.27107 0
M  V30 1158 C 107.256 -2.47308 3.54207 0
M  V30 1159 C 106.391 -3.74155 3.7707 0
M  V30 1160 C 105.43 -3.56407 4.97635 0
M  V30 1161 N 104.567 -4.75238 5.1681 0
M  V30 1162 H 109.407 -0.930383 2.83104 0
M  V30 1163 H 106.944 -0.448065 1.4011 0
M  V30 1164 H 108.902 -3.38021 2.44535 0
M  V30 1165 H 107.532 -2.90485 1.40778 0
M  V30 1166 H 106.584 -1.60483 3.4489 0
M  V30 1167 H 107.896 -2.30122 4.42544 0
M  V30 1168 H 107.05 -4.60778 3.94675 0
M  V30 1169 H 105.789 -3.94282 2.87042 0
M  V30 1170 H 104.794 -2.68168 4.79964 0
M  V30 1171 H 106.019 -3.37736 5.89161 0
M  V30 1172 H 103.965 -4.95651 4.29728 0
M  V30 1173 H 103.882 -4.60835 5.99306 0
M  V30 1174 H 105.15 -5.63246 5.38864 0
M  V30 1175 N 109.379 -1.50304 -0.473955 0
M  V30 1176 C 110.326 -1.68959 -1.57231 0
M  V30 1177 C 111.296 -0.530899 -1.57387 0
M  V30 1178 O 112.481 -0.761133 -1.74961 0
M  V30 1179 C 109.621 -1.7871 -2.95223 0
M  V30 1180 C 108.734 -3.06061 -3.04878 0
M  V30 1181 C 107.869 -3.06626 -4.33767 0
M  V30 1182 C 106.908 -4.28443 -4.37154 0
M  V30 1183 N 106.045 -4.26763 -5.5751 0
M  V30 1184 H 110.885 -2.6273 -1.40631 0
M  V30 1185 H 108.422 -1.30241 -0.683789 0
M  V30 1186 H 110.38 -1.82344 -3.75242 0
M  V30 1187 H 109.01 -0.883806 -3.10465 0
M  V30 1188 H 108.062 -3.11911 -2.17751 0
M  V30 1189 H 109.374 -3.96039 -3.0324 0
M  V30 1190 H 108.528 -3.08973 -5.22131 0
M  V30 1191 H 107.267 -2.14473 -4.3801 0
M  V30 1192 H 106.272 -4.2631 -3.47188 0
M  V30 1193 H 107.497 -5.2182 -4.34605 0
M  V30 1194 H 105.443 -3.37462 -5.62544 0
M  V30 1195 H 105.36 -5.10507 -5.57601 0
M  V30 1196 H 106.628 -4.33253 -6.48006 0
M  V30 1197 N 110.857 0.726932 -1.39834 0
M  V30 1198 C 111.767 1.87131 -1.41489 0
M  V30 1199 C 112.783 1.71239 -0.308757 0
M  V30 1200 O 113.959 1.93701 -0.551529 0
M  V30 1201 C 111.024 3.22811 -1.26468 0
M  V30 1202 C 110.085 3.51039 -2.47124 0
M  V30 1203 C 109.318 4.80245 -2.3281 0
M  V30 1204 O 109.541 5.54537 -1.33585 0
M  V30 1205 O 108.475 5.08554 -3.21957 0
M  V30 1206 H 112.301 1.8869 -2.3797 0
M  V30 1207 H 109.886 0.875837 -1.21035 0
M  V30 1208 H 111.768 4.03877 -1.20255 0
M  V30 1209 H 110.443 3.22005 -0.330862 0
M  V30 1210 H 109.35 2.70027 -2.58914 0
M  V30 1211 H 110.683 3.56632 -3.39227 0
M  V30 1212 N 112.336 1.25143 0.95797 0
M  V30 1213 C 113.266 1.07711 2.07173 0
M  V30 1214 C 114.247 -0.0128462 1.70095 0
M  V30 1215 O 115.432 0.156061 1.93572 0
M  V30 1216 C 112.562 0.691503 3.40346 0
M  V30 1217 C 111.516 1.73132 3.9142 0
M  V30 1218 C 110.842 1.20049 5.21049 0
M  V30 1219 C 112.142 3.1294 4.1817 0
M  V30 1220 H 113.836 2.00873 2.22014 0
M  V30 1221 H 111.382 0.967191 1.06684 0
M  V30 1222 H 113.335 0.556505 4.17709 0
M  V30 1223 H 112.059 -0.275819 3.25433 0
M  V30 1224 H 110.718 1.8547 3.16222 0
M  V30 1225 H 110.366 0.223499 5.02503 0
M  V30 1226 H 110.066 1.89545 5.56189 0
M  V30 1227 H 111.59 1.07782 6.01012 0
M  V30 1228 H 113.004 3.03775 4.86203 0
M  V30 1229 H 111.401 3.79875 4.64559 0
M  V30 1230 H 112.471 3.6025 3.24573 0
M  V30 1231 N 113.814 -1.1601 1.06675 0
M  V30 1232 C 114.744 -2.22688 0.702307 0
M  V30 1233 C 115.725 -1.67306 -0.307032 0
M  V30 1234 O 116.91 -1.93352 -0.181305 0
M  V30 1235 C 114.04 -3.47178 0.092038 0
M  V30 1236 C 112.994 -4.15477 1.02777 0
M  V30 1237 C 112.32 -5.33963 0.28061 0
M  V30 1238 C 113.62 -4.66019 2.35846 0
M  V30 1239 H 115.314 -2.53429 1.59419 0
M  V30 1240 H 112.86 -1.21813 0.767961 0
M  V30 1241 H 114.813 -4.21037 -0.174814 0
M  V30 1242 H 113.537 -3.15749 -0.834877 0
M  V30 1243 H 112.196 -3.43549 1.27944 0
M  V30 1244 H 111.844 -4.98788 -0.649545 0
M  V30 1245 H 111.544 -5.806 0.904258 0
M  V30 1246 H 113.068 -6.10596 0.021396 0
M  V30 1247 H 114.482 -5.3144 2.15045 0
M  V30 1248 H 112.879 -5.23293 2.93743 0
M  V30 1249 H 113.949 -3.82023 2.98641 0
M  V30 1250 N 115.292 -0.849877 -1.32721 0
M  V30 1251 C 116.202 -0.293791 -2.32753 0
M  V30 1252 C 117.218 0.585906 -1.63839 0
M  V30 1253 O 118.394 0.487413 -1.95413 0
M  V30 1254 C 115.459 0.512752 -3.42887 0
M  V30 1255 C 114.52 -0.39252 -4.27502 0
M  V30 1256 C 113.753 0.375625 -5.32377 0
M  V30 1257 O 113.976 1.60613 -5.4732 0
M  V30 1258 O 112.91 -0.256094 -6.01355 0
M  V30 1259 H 116.736 -1.12242 -2.82197 0
M  V30 1260 H 114.321 -0.612685 -1.36259 0
M  V30 1261 H 116.203 0.970704 -4.10067 0
M  V30 1262 H 114.878 1.31826 -2.95641 0
M  V30 1263 H 113.785 -0.898547 -3.63149 0
M  V30 1264 H 115.118 -1.16309 -4.7826 0
M  V30 1265 N 116.77 1.45427 -0.607355 0
M  V30 1266 C 117.995 2.07124 -0.107006 0
M  V30 1267 C 118.42 1.44906 1.19933 0
M  V30 1268 O 117.778 0.541687 1.73019 0
M  V30 1269 C 117.826 3.60595 0.0194119 0
M  V30 1270 O 116.93 3.98285 1.0697 0
M  V30 1271 H 116.271 0.659868 -0.0739597 0
M  V30 1272 H 118.801 1.86683 -0.837297 0
M  V30 1273 H 118.811 4.07419 0.2177 0
M  V30 1274 H 117.486 4.05266 -0.934453 0
M  V30 1275 H 116.063 3.63133 0.847889 0
M  V30 1276 N 118.248 0.346503 1.53744 0
M  V30 1277 C 119.525 -0.304532 1.93215 0
M  V30 1278 C 119.905 -1.67993 1.27834 0
M  V30 1279 O 119.253 -2.24411 0.430352 0
M  V30 1280 C 119.463 -0.373852 3.46992 0
M  V30 1281 C 120.811 -0.62329 4.2 0
M  V30 1282 O 121.835 -0.455847 3.53271 0
M  V30 1283 O 120.694 -0.947879 5.38217 0
M  V30 1284 H 117.788 -0.178318 0.807547 0
M  V30 1285 H 120.334 0.397895 1.64969 0
M  V30 1286 H 119.106 0.591224 3.86808 0
M  V30 1287 H 118.729 -1.12294 3.81413 0
M  V30 1288 N 119.726 -1.57421 0.075193 0
M  V30 1289 C 120.975 -1.92794 -0.592731 0
M  V30 1290 C 121.288 -0.957478 -1.70563 0
M  V30 1291 O 122.494 -1.20417 -2.43335 0
M  V30 1292 C 120.95 -3.42495 -1.10569 0
M  V30 1293 C 120.558 -4.47994 -0.0236121 0
M  V30 1294 C 122.302 -3.86864 -1.74748 0
M  V30 1295 C 120.209 -5.88829 -0.550803 0
M  V30 1296 H 119.139 -0.719591 -0.225177 0
M  V30 1297 H 121.79 -1.82902 0.147978 0
M  V30 1298 H 120.172 -3.47471 -1.89947 0
M  V30 1299 H 121.346 -4.54637 0.751099 0
M  V30 1300 H 119.661 -4.13113 0.522159 0
M  V30 1301 H 122.258 -4.8947 -2.15229 0
M  V30 1302 H 122.601 -3.24417 -2.60882 0
M  V30 1303 H 123.134 -3.84504 -1.01986 0
M  V30 1304 H 119.873 -6.54929 0.273457 0
M  V30 1305 H 119.393 -5.85698 -1.29296 0
M  V30 1306 H 121.072 -6.38811 -1.02613 0
M  V30 1307 N 121.204 0.198386 -1.56346 0
M  V30 1308 C 122.453 0.917451 -1.79627 0
M  V30 1309 C 122.766 1.8456 -0.64784 0
M  V30 1310 O 123.972 2.60504 -0.764859 0
M  V30 1311 C 122.428 1.68175 -3.18191 0
M  V30 1312 C 122.036 0.798589 -4.40825 0
M  V30 1313 C 123.78 2.39065 -3.50782 0
M  V30 1314 C 121.687 1.56157 -5.70411 0
M  V30 1315 H 120.617 0.346317 -0.669762 0
M  V30 1316 H 123.268 0.170801 -1.82703 0
M  V30 1317 H 121.65 2.47216 -3.09354 0
M  V30 1318 H 122.824 0.0470665 -4.60776 0
M  V30 1319 H 121.139 0.200686 -4.15916 0
M  V30 1320 H 123.736 2.96692 -4.44835 0
M  V30 1321 H 124.079 3.13091 -2.74371 0
M  V30 1322 H 124.612 1.66993 -3.61052 0
M  V30 1323 H 121.351 0.864142 -6.49779 0
M  V30 1324 H 120.871 2.2871 -5.54483 0
M  V30 1325 H 122.55 2.11622 -6.11412 0
M  V30 1326 N 122.682 1.50554 0.465978 0
M  V30 1327 C 123.931 1.61038 1.21448 0
M  V30 1328 C 124.244 0.31865 1.92987 0
M  V30 1329 O 125.45 0.302469 2.6981 0
M  V30 1330 C 123.906 2.84283 2.20706 0
M  V30 1331 C 123.514 4.20352 1.54946 0
M  V30 1332 C 125.258 3.04115 2.96166 0
M  V30 1333 C 123.165 5.34778 2.5252 0
M  V30 1334 H 122.095 0.599718 0.457005 0
M  V30 1335 H 124.746 1.7699 0.484424 0
M  V30 1336 H 123.128 2.61901 2.97025 0
M  V30 1337 H 124.302 4.53008 0.843811 0
M  V30 1338 H 122.617 4.06167 0.917475 0
M  V30 1339 H 125.214 3.86774 3.69202 0
M  V30 1340 H 125.557 2.16045 3.55852 0
M  V30 1341 H 126.09 3.26702 2.26959 0
M  V30 1342 H 122.829 6.25018 1.97566 0
M  V30 1343 H 122.349 5.06534 3.21222 0
M  V30 1344 H 124.028 5.65561 3.14245 0
M  V30 1345 N 124.16 -0.719506 1.40217 0
M  V30 1346 C 125.409 -1.47486 1.37589 0
M  V30 1347 C 125.722 -1.9559 -0.0201568 0
M  V30 1348 O 126.928 -2.70973 -0.169049 0
M  V30 1349 C 125.384 -2.66575 2.41796 0
M  V30 1350 C 124.992 -2.25358 3.87192 0
M  V30 1351 C 126.736 -3.4433 2.48269 0
M  V30 1352 C 124.643 -3.41262 4.83005 0
M  V30 1353 H 123.573 -0.553901 0.511576 0
M  V30 1354 H 126.224 -0.783427 1.65936 0
M  V30 1355 H 124.606 -3.3787 2.06543 0
M  V30 1356 H 125.78 -1.61509 4.31569 0
M  V30 1357 H 124.095 -1.60657 3.84159 0
M  V30 1358 H 126.692 -4.30569 3.17041 0
M  V30 1359 H 127.035 -3.87872 1.51198 0
M  V30 1360 H 127.568 -2.80076 2.82493 0
M  V30 1361 H 124.307 -3.02755 5.81394 0
M  V30 1362 H 123.827 -4.0404 4.43297 0
M  V30 1363 H 125.506 -4.07383 5.02641 0
M  V30 1364 N 125.638 -1.25649 -0.95132 0
M  V30 1365 C 126.863 -1.13443 -1.73624 0
M  V30 1366 C 127.288 0.307565 -1.85568 0
M  V30 1367 O 126.646 1.22282 -1.33854 0
M  V30 1368 C 126.694 -1.79723 -3.12621 0
M  V30 1369 O 125.798 -1.07912 -3.98031 0
M  V30 1370 H 125.139 -0.395872 -0.533086 0
M  V30 1371 H 127.669 -1.66276 -1.1922 0
M  V30 1372 H 127.679 -1.86141 -3.63064 0
M  V30 1373 H 126.354 -2.84633 -3.03244 0
M  V30 1374 H 124.931 -1.09398 -3.56492 0
M  V30 1375 N 127.117 1.15442 -1.07289 0
M  V30 1376 C 128.342 1.90638 -0.816828 0
M  V30 1377 C 128.767 1.77445 0.624083 0
M  V30 1378 O 128.125 1.10671 1.43602 0
M  V30 1379 C 128.173 3.39008 -1.22906 0
M  V30 1380 O 127.277 4.10701 -0.373975 0
M  V30 1381 H 126.618 0.593555 -0.297638 0
M  V30 1382 H 129.148 1.46198 -1.43134 0
M  V30 1383 H 129.158 3.89801 -1.20497 0
M  V30 1384 H 127.833 3.47929 -2.27856 0
M  V30 1385 H 126.41 3.70046 -0.460499 0
M  V30 1386 N 128.595 0.856903 1.32268 0
M  V30 1387 C 130.006 0.515711 1.79436 0
M  V30 1388 C 130.357 -0.966586 1.70738 0
M  V30 1389 O 129.482 -1.75409 1.26731 0
M  V30 1390 C 130.077 0.929335 3.25805 0
M  V30 1391 C 128.636 0.640006 3.70919 0
M  V30 1392 C 127.783 1.12784 2.53328 0
M  V30 1393 H 130.734 1.04389 1.19535 0
M  V30 1394 H 130.755 0.246633 3.797 0
M  V30 1395 H 130.267 2.00821 3.32103 0
M  V30 1396 H 128.368 -0.428051 3.70133 0
M  V30 1397 H 128.481 1.20788 4.63624 0
M  V30 1398 H 126.845 0.548033 2.48734 0
M  V30 1399 H 127.628 2.21387 2.62379 0
M  V30 1400 N 130.073 -1.45103 0.615059 0
M  V30 1401 C 131.319 -2.02483 0.113347 0
M  V30 1402 C 131.652 -1.48146 -1.25564 0
M  V30 1403 O 130.927 -0.659104 -1.82992 0
M  V30 1404 C 131.21 -3.60005 0.0825278 0
M  V30 1405 C 131.063 -4.2466 1.48271 0
M  V30 1406 C 132.382 -4.35972 -0.601401 0
M  V30 1407 H 129.501 -0.735764 0.0426632 0
M  V30 1408 H 132.143 -1.72868 0.788461 0
M  V30 1409 H 130.293 -3.85367 -0.492378 0
M  V30 1410 H 131.965 -4.10458 2.10527 0
M  V30 1411 H 130.208 -3.82772 2.04127 0
M  V30 1412 H 130.879 -5.336 1.41332 0
M  V30 1413 H 133.355 -4.15947 -0.112666 0
M  V30 1414 H 132.231 -5.45697 -0.592097 0
M  V30 1415 H 132.492 -4.09391 -1.66887 0
M  V30 1416 N 131.551 -0.354651 -1.53558 0
M  V30 1417 C 132.781 0.239167 -2.05211 0
M  V30 1418 C 133.189 1.43879 -1.22863 0
M  V30 1419 O 132.532 1.81857 -0.259565 0
M  V30 1420 C 132.594 0.707251 -3.52474 0
M  V30 1421 C 132.258 -0.374212 -4.55465 0
M  V30 1422 C 133.255 -1.22054 -5.0537 0
M  V30 1423 C 130.94 -0.531323 -4.99482 0
M  V30 1424 C 132.934 -2.20942 -5.97882 0
M  V30 1425 C 130.621 -1.52358 -5.91802 0
M  V30 1426 C 131.619 -2.36108 -6.40892 0
M  V30 1427 O 131.307 -3.33643 -7.31394 0
M  V30 1428 H 131.039 0.0479716 -0.674296 0
M  V30 1429 H 133.593 -0.508121 -1.99016 0
M  V30 1430 H 131.823 1.50596 -3.56171 0
M  V30 1431 H 133.512 1.22285 -3.87042 0
M  V30 1432 H 134.278 -1.1103 -4.7212 0
M  V30 1433 H 130.157 0.110738 -4.60867 0
M  V30 1434 H 133.701 -2.86348 -6.36121 0
M  V30 1435 H 129.598 -1.63434 -6.24467 0
M  V30 1436 H 130.366 -3.29244 -7.4936 0
M  V30 1437 N 133.029 1.57378 -0.0835403 0
M  V30 1438 C 133.959 2.1641 0.87686 0
M  V30 1439 C 134.94 1.09429 1.30228 0
M  V30 1440 O 136.125 1.37516 1.37124 0
M  V30 1441 C 133.255 2.73517 2.14022 0
M  V30 1442 C 132.209 3.85769 1.85381 0
M  V30 1443 C 131.535 4.29529 3.18448 0
M  V30 1444 C 132.835 5.09486 1.14984 0
M  V30 1445 H 134.529 2.96914 0.385059 0
M  V30 1446 H 132.075 1.42823 0.18377 0
M  V30 1447 H 134.028 3.13463 2.81636 0
M  V30 1448 H 132.752 1.90252 2.65465 0
M  V30 1449 H 131.411 3.46345 1.20169 0
M  V30 1450 H 131.059 3.43169 3.67755 0
M  V30 1451 H 130.759 5.05204 3.00071 0
M  V30 1452 H 132.283 4.72099 3.8724 0
M  V30 1453 H 133.697 5.46674 1.72687 0
M  V30 1454 H 132.094 5.90515 1.06826 0
M  V30 1455 H 133.164 4.84724 0.130749 0
M  V30 1456 N 134.507 -0.190092 1.56449 0
M  V30 1457 C 135.439 -1.25973 1.91477 0
M  V30 1458 C 136.452 -1.41452 0.805931 0
M  V30 1459 O 137.641 -1.41789 1.08435 0
M  V30 1460 C 134.741 -2.63117 2.13594 0
M  V30 1461 C 133.914 -2.69182 3.4476 0
M  V30 1462 C 132.973 -3.87557 3.5593 0
M  V30 1463 O 131.999 -3.74427 4.28711 0
M  V30 1464 N 133.201 -5.03224 2.89388 0
M  V30 1465 H 135.966 -0.962394 2.83828 0
M  V30 1466 H 133.527 -0.379981 1.57378 0
M  V30 1467 H 135.519 -3.40742 2.1835 0
M  V30 1468 H 134.089 -2.85319 1.27719 0
M  V30 1469 H 133.309 -1.77793 3.51828 0
M  V30 1470 H 134.597 -2.70229 4.31107 0
M  V30 1471 H 133.995 -5.16791 2.30094 0
M  V30 1472 H 132.552 -5.78778 2.99764 0
M  V30 1473 N 135.985 -1.50799 -0.457987 0
M  V30 1474 C 136.933 -1.71162 -1.575 0
M  V30 1475 C 137.927 -0.577592 -1.59249 0
M  V30 1476 O 139.133 -0.758443 -1.63241 0
M  V30 1477 H 135.508 -0.540468 -0.522875 0
M  V30 1478 H 137.479 -2.64837 -1.37492 0
M  V30 1479 C 136.228 -1.83496 -2.95338 0
M  V30 1480 H 135.551 -2.70153 -2.94716 0
M  V30 1481 H 136.991 -2.01765 -3.72917 0
M  V30 1482 C 135.45 -0.589694 -3.31699 0
M  V30 1483 O 135.98 0.265163 -4.00824 0
M  V30 1484 N 134.186 -0.439845 -2.87252 0
M  V30 1485 H 133.733 -1.13655 -2.31172 0
M  V30 1486 H 133.691 0.392159 -3.11945 0
M  V30 1487 N 137.463 0.71206 -1.40597 0
M  V30 1488 C 138.709 1.47416 -1.39271 0
M  V30 1489 C 139.042 1.942 0.00388791 0
M  V30 1490 O 138.317 1.68403 0.973179 0
M  V30 1491 C 138.6 2.69774 -2.38525 0
M  V30 1492 C 138.453 2.28861 -3.87224 0
M  V30 1493 C 139.772 3.71939 -2.35264 0
M  V30 1494 H 136.891 0.534713 -0.5072 0
M  V30 1495 H 139.533 0.812375 -1.71757 0
M  V30 1496 H 137.683 3.26238 -2.10953 0
M  V30 1497 H 139.355 1.77852 -4.25636 0
M  V30 1498 H 137.598 1.60824 -4.02887 0
M  V30 1499 H 138.269 3.16584 -4.52193 0
M  V30 1500 H 140.745 3.25113 -2.59694 0
M  V30 1501 H 139.621 4.55186 -3.06753 0
M  V30 1502 H 139.882 4.20484 -1.36549 0
M  V30 1503 N 138.941 1.26152 0.944643 0
M  V30 1504 C 140.166 1.14363 1.7302 0
M  V30 1505 C 140.591 -0.29772 1.85729 0
M  V30 1506 O 139.949 -1.2157 1.34501 0
M  V30 1507 C 139.997 1.81378 3.11664 0
M  V30 1508 O 139.101 1.10022 3.97453 0
M  V30 1509 H 138.442 0.398694 0.53098 0
M  V30 1510 H 140.972 1.66906 1.18337 0
M  V30 1511 H 140.982 1.88064 3.62072 0
M  V30 1512 H 139.657 2.86237 3.0173 0
M  V30 1513 H 138.234 1.11287 3.55907 0
M  V30 1514 N 140.419 -1.14872 1.07899 0
M  V30 1515 C 141.665 -1.86064 0.806725 0
M  V30 1516 C 141.998 -1.82434 -0.665706 0
M  V30 1517 O 141.273 -1.25138 -1.48899 0
M  V30 1518 C 141.556 -3.34929 1.32267 0
M  V30 1519 C 141.409 -3.47161 2.86006 0
M  V30 1520 C 142.728 -4.29863 0.943717 0
M  V30 1521 H 139.847 -0.675591 0.294526 0
M  V30 1522 H 142.489 -1.34925 1.33773 0
M  V30 1523 H 140.639 -3.78611 0.870974 0
M  V30 1524 H 142.311 -3.12302 3.39507 0
M  V30 1525 H 140.554 -2.88539 3.23925 0
M  V30 1526 H 141.225 -4.51777 3.17177 0
M  V30 1527 H 143.701 -3.9417 1.33302 0
M  V30 1528 H 142.577 -5.32494 1.33198 0
M  V30 1529 H 142.838 -4.41846 -0.149796 0
M  V30 1530 N 141.898 -0.863906 -1.31812 0
M  V30 1531 C 143.175 -0.39275 -1.91616 0
M  V30 1532 C 143.555 1.12461 -1.7865 0
M  V30 1533 O 142.903 1.95045 -1.19037 0
M  V30 1534 C 143.113 -0.867385 -3.38049 0
M  V30 1535 C 144.461 -0.889966 -4.15168 0
M  V30 1536 O 145.485 -0.812635 -3.46806 0
M  V30 1537 O 144.344 -1.00079 -5.37258 0
M  V30 1538 H 141.438 -0.116358 -0.818773 0
M  V30 1539 H 143.984 -0.951418 -1.40521 0
M  V30 1540 H 142.756 -1.91081 -3.41473 0
M  V30 1541 H 142.379 -0.286687 -3.96565 0
M  V30 1542 N 143.376 1.44774 -0.622745 0
M  V30 1543 C 144.604 2.06487 -0.130722 0
M  V30 1544 C 145.019 1.46476 1.19123 0
M  V30 1545 O 144.376 0.584502 1.72887 0
M  V30 1546 C 144.427 3.615 -0.000807207 0
M  V30 1547 O 144.148 4.19274 -1.27048 0
M  V30 1548 C 145.649 4.40229 0.520898 0
M  V30 1549 H 142.869 0.666704 -0.0758106 0
M  V30 1550 H 145.413 1.85779 -0.854774 0
M  V30 1551 H 143.568 3.81498 0.673643 0
M  V30 1552 H 143.982 5.12622 -1.1099 0
M  V30 1553 H 145.456 5.49144 0.560838 0
M  V30 1554 H 145.933 4.1108 1.54627 0
M  V30 1555 H 146.539 4.25131 -0.120018 0
M  V30 1556 N 144.854 0.36279 1.53368 0
M  V30 1557 C 145.801 -0.485008 2.25646 0
M  V30 1558 C 146.771 -1.07982 1.2621 0
M  V30 1559 O 147.956 -1.11284 1.54986 0
M  V30 1560 C 145.096 -1.62023 3.04701 0
M  V30 1561 C 144.209 -1.05086 4.19024 0
M  V30 1562 C 143.344 -2.15496 4.85525 0
M  V30 1563 C 142.383 -1.5601 5.91884 0
M  V30 1564 N 141.52 -2.60241 6.52088 0
M  V30 1565 H 146.36 0.137864 2.97681 0
M  V30 1566 H 143.897 0.0798061 1.46883 0
M  V30 1567 H 145.855 -2.28887 3.48807 0
M  V30 1568 H 144.485 -2.2138 2.34927 0
M  V30 1569 H 143.537 -0.27259 3.79422 0
M  V30 1570 H 144.849 -0.575926 4.95464 0
M  V30 1571 H 144.003 -2.90186 5.32801 0
M  V30 1572 H 142.742 -2.66341 4.08551 0
M  V30 1573 H 141.747 -0.798338 5.43973 0
M  V30 1574 H 142.972 -1.05994 6.70777 0
M  V30 1575 H 140.918 -3.10304 5.77968 0
M  V30 1576 H 140.835 -2.17426 7.24059 0
M  V30 1577 H 142.103 -3.34641 7.04014 0
M  V30 1578 N 146.332 -1.57332 0.0918853 0
M  V30 1579 C 147.28 -2.15075 -0.885747 0
M  V30 1580 C 148.274 -1.09277 -1.29441 0
M  V30 1581 O 149.48 -1.27627 -1.26931 0
M  V30 1582 H 145.855 -0.687966 -0.303656 0
M  V30 1583 H 147.826 -2.96047 -0.373995 0
M  V30 1584 C 146.575 -2.74325 -2.13638 0
M  V30 1585 H 145.898 -3.55418 -1.8308 0
M  V30 1586 H 147.338 -3.183 -2.80109 0
M  V30 1587 C 145.797 -1.70062 -2.90827 0
M  V30 1588 O 146.327 -1.13763 -3.85254 0
M  V30 1589 N 144.533 -1.40628 -2.54307 0
M  V30 1590 H 144.08 -1.866 -1.7759 0
M  V30 1591 H 144.038 -0.711043 -3.06254 0
M  V30 1592 N 147.81 0.181792 -1.56548 0
M  V30 1593 C 149.057 0.900097 -1.81396 0
M  V30 1594 C 149.385 1.82695 -0.667281 0
M  V30 1595 O 148.64 1.92614 0.346146 0
M  V30 1596 C 148.939 1.73728 -3.12335 0
M  V30 1597 C 148.605 0.960255 -4.40556 0
M  V30 1598 C 147.267 0.745766 -4.75386 0
M  V30 1599 C 149.619 0.414477 -5.19549 0
M  V30 1600 C 146.947 -0.0257694 -5.86694 0
M  V30 1601 C 149.299 -0.343916 -6.31664 0
M  V30 1602 C 147.963 -0.569301 -6.65068 0
M  V30 1603 H 147.233 0.329369 -0.663775 0
M  V30 1604 H 149.88 0.165647 -1.90782 0
M  V30 1605 H 148.185 2.54081 -2.98245 0
M  V30 1606 H 149.882 2.29591 -3.28769 0
M  V30 1607 H 146.472 1.13746 -4.13231 0
M  V30 1608 H 150.656 0.567554 -4.93044 0
M  V30 1609 H 145.912 -0.210233 -6.11038 0
M  V30 1610 H 150.086 -0.774133 -6.92084 0
M  V30 1611 H 147.713 -1.16903 -7.51158 0
M  V30 1612 N 149.288 1.51039 0.449983 0
M  V30 1613 C 150.537 1.62317 1.19733 0
M  V30 1614 C 150.85 0.339101 1.92638 0
M  V30 1615 O 152.056 0.331069 2.69474 0
M  V30 1616 C 150.512 2.86608 2.17678 0
M  V30 1617 C 150.12 4.21972 1.50479 0
M  V30 1618 C 151.864 3.07239 2.92924 0
M  V30 1619 C 149.771 5.37426 2.46834 0
M  V30 1620 H 148.701 0.604532 0.450619 0
M  V30 1621 H 151.352 1.77494 0.465625 0
M  V30 1622 H 149.734 2.65037 2.94231 0
M  V30 1623 H 150.908 4.53878 0.795716 0
M  V30 1624 H 149.223 4.07117 0.874344 0
M  V30 1625 H 151.82 3.90668 3.65079 0
M  V30 1626 H 152.163 2.19807 3.5354 0
M  V30 1627 H 152.696 3.29091 2.23481 0
M  V30 1628 H 149.435 6.27079 1.90926 0
M  V30 1629 H 148.955 5.09912 3.15832 0
M  V30 1630 H 150.634 5.68862 3.08228 0
M  V30 1631 N 150.766 -0.704594 1.40972 0
M  V30 1632 C 151.676 -1.84856 1.44448 0
M  V30 1633 C 152.692 -1.70726 0.335961 0
M  V30 1634 O 153.868 -1.92799 0.582276 0
M  V30 1635 C 150.933 -3.20758 1.31587 0
M  V30 1636 C 149.994 -3.47063 2.52677 0
M  V30 1637 C 149.227 -4.76481 2.4042 0
M  V30 1638 O 149.45 -5.52341 1.42391 0
M  V30 1639 O 148.384 -5.03367 3.30007 0
M  V30 1640 H 152.21 -1.8488 2.40942 0
M  V30 1641 H 149.795 -0.85647 1.22413 0
M  V30 1642 H 151.677 -4.01913 1.26665 0
M  V30 1643 H 150.352 -3.21438 0.382049 0
M  V30 1644 H 149.259 -2.65873 2.63177 0
M  V30 1645 H 150.592 -3.5119 3.44858 0
M  V30 1646 N 152.244 -1.26651 -0.937939 0
M  V30 1647 C 153.66 -1.03834 -1.21205 0
M  V30 1648 C 153.86 0.234502 -2.00131 0
M  V30 1649 O 152.916 0.942767 -2.3424 0
M  V30 1650 C 154.229 -2.27167 -1.97017 0
M  V30 1651 C 155.777 -2.32101 -2.09996 0
M  V30 1652 C 156.252 -3.55136 -2.8921 0
M  V30 1653 N 157.743 -3.55632 -2.96783 0
M  V30 1654 C 158.478 -4.475 -3.58512 0
M  V30 1655 N 157.974 -5.4966 -4.21717 0
M  V30 1656 N 159.767 -4.35145 -3.55816 0
M  V30 1657 H 151.918 -2.08398 -0.410391 0
M  V30 1658 H 154.181 -0.916031 -0.244114 0
M  V30 1659 H 153.887 -3.19765 -1.46434 0
M  V30 1660 H 153.761 -2.31672 -2.97671 0
M  V30 1661 H 156.148 -1.40015 -2.59769 0
M  V30 1662 H 156.229 -2.31605 -1.08594 0
M  V30 1663 H 155.873 -4.47553 -2.40123 0
M  V30 1664 H 155.803 -3.5288 -3.90875 0
M  V30 1665 H 158.294 -2.81743 -2.51852 0
M  V30 1666 H 158.607 -6.15943 -4.66727 0
M  V30 1667 H 156.952 -5.53514 -4.20294 0
M  V30 1668 H 160.143 -3.5455 -3.05634 0
M  V30 1669 H 160.316 -5.06934 -4.03636 0
M  V30 1670 N 153.722 1.14298 -1.08507 0
M  V30 1671 C 154.971 1.84708 -0.810305 0
M  V30 1672 C 155.284 1.83903 0.666271 0
M  V30 1673 O 156.49 2.50112 1.05624 0
M  V30 1674 C 154.946 3.31572 -1.39957 0
M  V30 1675 C 154.554 3.40791 -2.90801 0
M  V30 1676 C 156.298 4.07087 -1.20334 0
M  V30 1677 C 154.205 4.81872 -3.4286 0
M  V30 1678 H 153.135 0.691985 -0.299454 0
M  V30 1679 H 155.786 1.28841 -1.30661 0
M  V30 1680 H 154.168 3.87183 -0.830976 0
M  V30 1681 H 155.342 2.95225 -3.53806 0
M  V30 1682 H 153.657 2.78732 -3.0935 0
M  V30 1683 H 156.254 5.11225 -1.56693 0
M  V30 1684 H 156.597 4.16054 -0.143237 0
M  V30 1685 H 157.13 3.57779 -1.73893 0
M  V30 1686 H 153.869 4.78094 -4.48449 0
M  V30 1687 H 153.389 5.27972 -2.84615 0
M  V30 1688 H 155.068 5.50765 -3.39509 0
M  V30 1689 N 155.201 0.870884 1.31352 0
M  V30 1690 C 156.449 0.48132 1.96285 0
M  V30 1691 C 156.77 -0.969813 1.69173 0
M  V30 1692 O 156.04 -1.67998 1.00764 0
M  V30 1693 H 154.62 0.175002 0.726212 0
M  V30 1694 H 157.282 1.11087 1.60143 0
M  V30 1695 H 156.378 0.639825 3.05471 0
M  V30 1696 N 156.679 -1.44442 0.630414 0
M  V30 1697 C 157.927 -2.01653 0.134351 0
M  V30 1698 C 158.248 -1.49836 -1.24796 0
M  V30 1699 O 157.518 -0.701684 -1.82902 0
M  V30 1700 H 156.098 -0.74554 0.0466769 0
M  V30 1701 H 158.76 -1.76952 0.816955 0
M  V30 1702 H 157.856 -3.11935 0.101498 0
M  V30 1703 N 158.157 -0.370918 -1.53173 0
M  V30 1704 C 159.403 0.209976 -2.02313 0
M  V30 1705 C 159.758 1.45987 -1.25322 0
M  V30 1706 O 159.051 1.8856 -0.339965 0
M  V30 1707 C 159.245 0.549696 -3.53147 0
M  V30 1708 C 159.074 -0.665721 -4.44745 0
M  V30 1709 C 157.844 -1.17942 -4.91343 0
M  V30 1710 C 160.042 -1.53255 -4.90935 0
M  V30 1711 N 158.024 -2.35431 -5.66962 0
M  V30 1712 C 159.395 -2.55403 -5.64951 0
M  V30 1713 C 161.45 -1.5548 -4.73002 0
M  V30 1714 C 160.153 -3.5964 -6.22938 0
M  V30 1715 C 162.179 -2.58613 -5.31858 0
M  V30 1716 C 161.541 -3.59485 -6.05764 0
M  V30 1717 H 157.64 0.0394095 -0.781006 0
M  V30 1718 H 160.224 -0.516666 -1.8772 0
M  V30 1719 H 158.395 1.24541 -3.67891 0
M  V30 1720 H 160.127 1.11614 -3.89004 0
M  V30 1721 H 156.882 -0.743228 -4.67732 0
M  V30 1722 H 157.306 -2.94827 -6.09431 0
M  V30 1723 H 161.948 -0.788457 -4.15383 0
M  V30 1724 H 159.666 -4.37153 -6.79649 0
M  V30 1725 H 163.252 -2.61195 -5.19873 0
M  V30 1726 H 162.132 -4.3798 -6.50495 0
M  V30 1727 N 159.635 1.57281 -0.100228 0
M  V30 1728 C 160.86 1.99302 0.573881 0
M  V30 1729 C 161.285 0.979059 1.60611 0
M  V30 1730 O 160.643 -0.0517803 1.81226 0
M  V30 1731 C 160.691 3.40274 1.19358 0
M  V30 1732 O 159.795 3.41676 2.30935 0
M  V30 1733 H 159.136 0.647944 0.145138 0
M  V30 1734 H 161.666 2.03779 -0.183156 0
M  V30 1735 H 161.676 3.78078 1.53365 0
M  V30 1736 H 160.351 4.13594 0.437385 0
M  V30 1737 H 158.928 3.15672 1.98509 0
M  V30 1738 N 161.113 -0.173488 1.56642 0
M  V30 1739 C 162.063 -1.21941 1.92651 0
M  V30 1740 C 163.047 -1.39912 0.794577 0
M  V30 1741 O 164.239 -1.41919 1.05773 0
M  V30 1742 C 161.368 -2.55935 2.28806 0
M  V30 1743 C 160.454 -2.41667 3.48508 0
M  V30 1744 N 160.845 -1.9711 4.65813 0
M  V30 1745 C 159.143 -2.72499 3.53072 0
M  V30 1746 C 159.844 -1.95253 5.47952 0
M  V30 1747 N 158.82 -2.37575 4.88937 0
M  V30 1748 H 162.622 -0.866581 2.80834 0
M  V30 1749 H 160.136 -0.381776 1.57849 0
M  V30 1750 H 162.133 -3.31511 2.52797 0
M  V30 1751 H 160.793 -2.92022 1.41961 0
M  V30 1752 H 161.804 -1.67481 4.90072 0
M  V30 1753 H 158.481 -3.12639 2.767 0
M  V30 1754 H 159.871 -1.6252 6.51948 0
M  V30 1755 N 162.591 -1.51276 -0.441967 0
M  V30 1756 C 163.521 -1.752 -1.54361 0
M  V30 1757 C 164.502 -0.601682 -1.59103 0
M  V30 1758 O 165.687 -0.843913 -1.74905 0
M  V30 1759 C 162.817 -1.87282 -2.92477 0
M  V30 1760 C 161.771 -3.02687 -3.02596 0
M  V30 1761 C 161.097 -2.99947 -4.42647 0
M  V30 1762 C 162.397 -4.4273 -2.77106 0
M  V30 1763 H 164.091 -2.67442 -1.34592 0
M  V30 1764 H 161.637 -1.28694 -0.646048 0
M  V30 1765 H 163.59 -2.02602 -3.695 0
M  V30 1766 H 162.314 -0.916844 -3.13467 0
M  V30 1767 H 160.973 -2.87065 -2.28012 0
M  V30 1768 H 160.621 -2.02136 -4.60597 0
M  V30 1769 H 160.321 -3.77439 -4.50348 0
M  V30 1770 H 161.845 -3.17354 -5.2165 0
M  V30 1771 H 163.259 -4.58727 -3.43864 0
M  V30 1772 H 161.656 -5.21893 -2.96222 0
M  V30 1773 H 162.726 -4.53087 -1.72744 0
M  V30 1774 N 164.069 0.697108 -1.41344 0
M  V30 1775 C 165.316 1.45714 -1.40619 0
M  V30 1776 C 165.644 1.94494 -0.0147907 0
M  V30 1777 O 164.899 1.69794 0.973066 0
M  V30 1778 C 165.198 2.68553 -2.35826 0
M  V30 1779 C 164.864 2.38438 -3.82698 0
M  V30 1780 C 163.526 2.29936 -4.22709 0
M  V30 1781 C 165.878 2.13567 -4.75435 0
M  V30 1782 C 163.206 1.94656 -5.53467 0
M  V30 1783 C 165.558 1.79797 -6.06511 0
M  V30 1784 C 164.222 1.69789 -6.45545 0
M  V30 1785 H 163.492 0.533206 -0.51456 0
M  V30 1786 H 166.139 0.796901 -1.74131 0
M  V30 1787 H 164.444 3.39503 -1.95563 0
M  V30 1788 H 166.141 3.2669 -2.32539 0
M  V30 1789 H 162.731 2.4595 -3.51008 0
M  V30 1790 H 166.915 2.19082 -4.45328 0
M  V30 1791 H 162.171 1.8546 -5.82593 0
M  V30 1792 H 166.345 1.59572 -6.77872 0
M  V30 1793 H 163.972 1.4222 -7.46778 0
M  V30 1794 N 165.547 1.27147 0.931209 0
M  V30 1795 C 166.963 1.04475 1.20653 0
M  V30 1796 C 167.163 -0.223885 2.00252 0
M  V30 1797 O 166.219 -0.930332 2.34736 0
M  V30 1798 C 167.532 2.28209 1.95809 0
M  V30 1799 C 169.08 2.33211 2.08762 0
M  V30 1800 C 169.555 3.56665 2.87323 0
M  V30 1801 N 171.046 3.57201 2.94892 0
M  V30 1802 C 171.781 4.49395 3.56134 0
M  V30 1803 N 171.277 5.51889 4.18796 0
M  V30 1804 N 173.07 4.37026 3.53504 0
M  V30 1805 H 165.221 2.08612 0.399333 0
M  V30 1806 H 167.484 0.917312 0.239253 0
M  V30 1807 H 167.19 3.20538 1.44736 0
M  V30 1808 H 167.064 2.33247 2.96438 0
M  V30 1809 H 169.451 1.41391 2.59023 0
M  V30 1810 H 169.532 2.32178 1.07364 0
M  V30 1811 H 169.176 4.4882 2.37746 0
M  V30 1812 H 169.106 3.54948 3.88998 0
M  V30 1813 H 171.597 2.83074 2.50354 0
M  V30 1814 H 171.91 6.18409 4.63454 0
M  V30 1815 H 170.255 5.55735 4.17353 0
M  V30 1816 H 173.446 3.56166 3.03749 0
M  V30 1817 H 173.619 5.09067 4.00942 0
M  V30 1818 N 167.025 -1.13721 1.09112 0
M  V30 1819 C 167.955 -2.21148 0.749385 0
M  V30 1820 C 168.936 -1.6792 -0.271475 0
M  V30 1821 O 170.121 -1.93693 -0.140251 0
M  V30 1822 C 167.251 -3.46905 0.165659 0
M  V30 1823 C 166.205 -4.13203 1.11567 0
M  V30 1824 C 165.531 -5.33248 0.393809 0
M  V30 1825 C 166.831 -4.60912 2.45678 0
M  V30 1826 H 168.525 -2.4999 1.64758 0
M  V30 1827 H 166.071 -1.20156 0.793626 0
M  V30 1828 H 168.024 -4.21313 -0.085466 0
M  V30 1829 H 166.748 -3.17449 -0.767714 0
M  V30 1830 H 165.407 -3.40758 1.35202 0
M  V30 1831 H 165.055 -5.00054 -0.543599 0
M  V30 1832 H 164.755 -5.78552 1.02721 0
M  V30 1833 H 166.279 -6.10413 0.150908 0
M  V30 1834 H 167.693 -5.26759 2.26269 0
M  V30 1835 H 166.09 -5.16944 3.04776 0
M  V30 1836 H 167.16 -3.75603 3.06677 0
M  V30 1837 N 168.503 -0.877838 -1.30888 0
M  V30 1838 C 169.466 -0.344265 -2.266 0
M  V30 1839 C 170.466 0.50922 -1.52524 0
M  V30 1840 O 171.656 0.317398 -1.71284 0
M  V30 1841 C 168.788 0.510198 -3.37061 0
M  V30 1842 H 169.981 -1.1893 -2.7531 0
M  V30 1843 H 167.534 -0.654088 -1.41956 0
M  V30 1844 H 168.269 1.37612 -2.93655 0
M  V30 1845 H 168.054 -0.101047 -3.9197 0
M  V30 1846 H 169.544 0.875537 -4.08319 0
M  V30 1847 N 169.982 1.44106 -0.638065 0
M  V30 1848 C 171.23 2.01579 -0.145043 0
M  V30 1849 C 171.551 1.50496 1.24 0
M  V30 1850 O 170.821 0.711374 1.82527 0
M  V30 1851 H 169.401 0.745282 -0.05063 0
M  V30 1852 H 172.063 1.76516 -0.826327 0
M  V30 1853 H 171.159 3.11877 -0.118039 0
M  V30 1854 N 171.46 0.379036 1.52974 0
M  V30 1855 C 172.407 -0.461048 2.26148 0
M  V30 1856 C 173.377 -1.06637 1.27349 0
M  V30 1857 O 174.562 -1.09633 1.56157 0
M  V30 1858 C 171.702 -1.58782 3.06402 0
M  V30 1859 C 170.815 -1.00636 4.20115 0
M  V30 1860 C 169.95 -2.10334 4.87784 0
M  V30 1861 C 168.989 -1.49724 5.93506 0
M  V30 1862 N 168.126 -2.5331 6.54812 0
M  V30 1863 H 172.966 0.169429 2.97518 0
M  V30 1864 H 170.503 0.0953806 1.4679 0
M  V30 1865 H 172.461 -2.25174 3.51215 0
M  V30 1866 H 171.091 -2.18876 2.37261 0
M  V30 1867 H 170.143 -0.232332 3.7969 0
M  V30 1868 H 171.455 -0.523343 4.96047 0
M  V30 1869 H 170.609 -2.84519 5.35849 0
M  V30 1870 H 169.348 -2.61992 4.11353 0
M  V30 1871 H 168.353 -0.740598 5.44789 0
M  V30 1872 H 169.578 -0.988732 6.71864 0
M  V30 1873 H 167.524 -3.04156 5.81227 0
M  V30 1874 H 167.441 -2.09734 7.26325 0
M  V30 1875 H 168.709 -3.27155 7.07524 0
M  V30 1876 N 172.938 -1.57226 0.108567 0
M  V30 1877 C 174.185 -1.94833 -0.551943 0
M  V30 1878 C 174.513 -0.991204 -1.67348 0
M  V30 1879 O 173.768 -0.0131878 -1.95696 0
M  V30 1880 C 174.067 -3.38911 -1.13463 0
M  V30 1881 C 173.733 -4.50696 -0.135509 0
M  V30 1882 C 172.395 -4.80998 0.139252 0
M  V30 1883 C 174.747 -5.18333 0.545957 0
M  V30 1884 C 172.075 -5.76259 1.10194 0
M  V30 1885 C 174.427 -6.14627 1.49721 0
M  V30 1886 C 173.091 -6.43327 1.78006 0
M  V30 1887 H 172.361 -0.712944 -0.20197 0
M  V30 1888 H 175.008 -1.90582 0.18726 0
M  V30 1889 H 173.313 -3.39805 -1.95037 0
M  V30 1890 H 175.01 -3.65317 -1.65362 0
M  V30 1891 H 171.6 -4.27087 -0.359846 0
M  V30 1892 H 175.784 -4.95087 0.346842 0
M  V30 1893 H 171.04 -5.96804 1.32795 0
M  V30 1894 H 175.214 -6.66126 2.03099 0
M  V30 1895 H 172.841 -7.1695 2.52759 0
M  V30 1896 N 174.416 0.165178 -1.56732 0
M  V30 1897 C 175.662 0.882112 -1.82611 0
M  V30 1898 C 175.995 1.81628 -0.687378 0
M  V30 1899 O 175.27 1.92009 0.310267 0
M  V30 1900 C 175.553 1.67245 -3.18906 0
M  V30 1901 C 175.406 0.760987 -4.43316 0
M  V30 1902 C 176.725 2.63884 -3.52212 0
M  V30 1903 H 173.844 0.319242 -0.664269 0
M  V30 1904 H 176.486 0.148052 -1.89422 0
M  V30 1905 H 174.636 2.29824 -3.1323 0
M  V30 1906 H 176.308 0.147596 -4.61064 0
M  V30 1907 H 174.551 0.0694102 -4.33744 0
M  V30 1908 H 175.222 1.34962 -5.35247 0
M  V30 1909 H 177.698 2.11429 -3.58381 0
M  V30 1910 H 176.574 3.16245 -4.48643 0
M  V30 1911 H 176.835 3.44377 -2.77231 0
M  V30 1912 N 175.894 1.51508 0.433938 0
M  V30 1913 C 177.14 1.64588 1.18484 0
M  V30 1914 C 177.473 0.362666 1.90784 0
M  V30 1915 O 176.748 -0.637892 1.83742 0
M  V30 1916 C 177.031 2.85149 2.19913 0
M  V30 1917 C 176.884 4.23456 1.51674 0
M  V30 1918 C 178.203 3.01227 3.20858 0
M  V30 1919 H 175.322 0.598994 0.429389 0
M  V30 1920 H 177.964 1.84002 0.473647 0
M  V30 1921 H 176.114 2.68729 2.80566 0
M  V30 1922 H 177.786 4.51552 0.943322 0
M  V30 1923 H 176.029 4.25998 0.819035 0
M  V30 1924 H 176.7 5.03812 2.2556 0
M  V30 1925 H 179.176 3.16382 2.70263 0
M  V30 1926 H 178.052 3.87141 3.89118 0
M  V30 1927 H 178.313 2.13447 3.8716 0
M  V30 1928 N 177.372 -0.689602 1.41712 0
M  V30 1929 C 178.6 -1.47827 1.44758 0
M  V30 1930 C 179.015 -1.88721 0.0545703 0
M  V30 1931 O 178.372 -1.57176 -0.927463 0
M  V30 1932 C 178.423 -2.73698 2.3616 0
M  V30 1933 O 178.144 -2.34524 3.7004 0
M  V30 1934 C 179.645 -3.67389 2.48072 0
M  V30 1935 H 176.865 -0.455357 0.49284 0
M  V30 1936 H 179.409 -0.848574 1.86063 0
M  V30 1937 H 177.564 -3.32891 1.98148 0
M  V30 1938 H 177.978 -3.15701 4.18847 0
M  V30 1939 H 179.452 -4.52475 3.16181 0
M  V30 1940 H 179.929 -4.12284 1.51388 0
M  V30 1941 H 180.535 -3.14097 2.86746 0
M  V30 1942 N 178.85 -1.27639 -0.924453 0
M  V30 1943 C 179.78 -1.13166 -2.04244 0
M  V30 1944 C 180.761 -0.032256 -1.70069 0
M  V30 1945 O 181.946 -0.207328 -1.9309 0
M  V30 1946 C 179.076 -0.781496 -3.38393 0
M  V30 1947 C 178.03 -1.83449 -3.86692 0
M  V30 1948 C 177.356 -1.33822 -5.17683 0
M  V30 1949 C 178.656 -3.23917 -4.09726 0
M  V30 1950 H 180.35 -2.06689 -2.1661 0
M  V30 1951 H 177.896 -0.995136 -1.04082 0
M  V30 1952 H 179.849 -0.667057 -4.16087 0
M  V30 1953 H 178.573 0.189439 -3.2605 0
M  V30 1954 H 177.232 -1.93789 -3.11193 0
M  V30 1955 H 176.88 -0.35665 -5.01734 0
M  V30 1956 H 176.58 -2.04224 -5.50968 0
M  V30 1957 H 178.104 -1.23679 -5.97943 0
M  V30 1958 H 179.518 -3.16559 -4.77978 0
M  V30 1959 H 177.915 -3.92059 -4.54324 0
M  V30 1960 H 178.985 -3.68729 -3.14908 0
M  V30 1961 N 180.328 1.1314 -1.09713 0
M  V30 1962 C 181.605 1.80762 -0.747302 0
M  V30 1963 C 181.985 1.96663 0.767265 0
M  V30 1964 O 181.333 1.53706 1.69076 0
M  V30 1965 C 181.543 3.15606 -1.48975 0
M  V30 1966 C 182.891 3.90914 -1.65746 0
M  V30 1967 O 183.915 3.25239 -1.45251 0
M  V30 1968 O 182.774 5.08718 -1.9967 0
M  V30 1969 H 179.868 0.782103 -0.268782 0
M  V30 1970 H 182.414 1.20041 -1.19951 0
M  V30 1971 H 181.186 2.99278 -2.52088 0
M  V30 1972 H 180.809 3.84029 -1.02991 0
M  V30 1973 N 181.806 0.884767 1.30421 0
M  V30 1974 C 183.052 0.503851 1.96441 0
M  V30 1975 C 183.385 -0.944518 1.69684 0
M  V30 1976 O 182.66 -1.66737 1.00145 0
M  V30 1977 C 182.943 0.779085 3.51571 0
M  V30 1978 C 182.796 2.27807 3.87846 0
M  V30 1979 C 184.115 0.255452 4.39358 0
M  V30 1980 H 181.234 0.184533 0.713524 0
M  V30 1981 H 183.876 1.10872 1.54297 0
M  V30 1982 H 182.026 0.264274 3.876 0
M  V30 1983 H 183.698 2.86127 3.61841 0
M  V30 1984 H 181.941 2.74479 3.35922 0
M  V30 1985 H 182.612 2.42125 4.96064 0
M  V30 1986 H 185.088 0.696079 4.10236 0
M  V30 1987 H 183.964 0.477361 5.4682 0
M  V30 1988 H 184.225 -0.843293 4.33983 0
M  V30 1989 N 183.284 -1.43765 0.645699 0
M  V30 1990 C 184.247 -2.29163 -0.0409488 0
M  V30 1991 C 185.247 -1.41813 -0.757996 0
M  V30 1992 O 186.437 -1.63527 -0.600382 0
M  V30 1993 C 183.569 -3.23716 -1.06869 0
M  V30 1994 H 184.762 -2.91366 0.710345 0
M  V30 1995 H 182.315 -1.5092 0.406547 0
M  V30 1996 H 183.05 -2.66393 -1.84947 0
M  V30 1997 H 182.835 -3.88105 -0.558277 0
M  V30 1998 H 184.325 -3.87831 -1.54845 0
M  V30 1999 N 184.763 -0.387143 -1.52771 0
M  V30 2000 C 185.673 0.456442 -2.30117 0
M  V30 2001 C 186.689 1.07342 -1.36944 0
M  V30 2002 O 187.865 1.07971 -1.70013 0
M  V30 2003 C 184.93 1.56957 -3.09136 0
M  V30 2004 C 183.991 0.977916 -4.18014 0
M  V30 2005 C 183.224 2.038 -4.93256 0
M  V30 2006 O 183.447 3.25271 -4.68567 0
M  V30 2007 O 182.381 1.6565 -5.78657 0
M  V30 2008 H 186.207 -0.17359 -3.03203 0
M  V30 2009 H 183.792 -0.150919 -1.48636 0
M  V30 2010 H 185.674 2.21628 -3.58412 0
M  V30 2011 H 184.349 2.18461 -2.38865 0
M  V30 2012 H 183.256 0.294525 -3.72939 0
M  V30 2013 H 184.589 0.407128 -4.90513 0
M  V30 2014 N 186.241 1.57166 -0.116904 0
M  V30 2015 C 187.466 1.999 0.55271 0
M  V30 2016 C 187.891 0.996039 1.59564 0
M  V30 2017 O 187.249 -0.032556 1.81271 0
M  V30 2018 C 187.297 3.4152 1.15742 0
M  V30 2019 O 186.401 3.44106 2.27299 0
M  V30 2020 H 185.742 0.649447 0.138258 0
M  V30 2021 H 188.272 2.03573 -0.204759 0
M  V30 2022 H 188.282 3.79684 1.49346 0
M  V30 2023 H 186.957 4.14034 0.393493 0
M  V30 2024 H 185.534 3.17759 1.9515 0
M  V30 2025 N 187.719 -0.156864 1.56817 0
M  V30 2026 C 188.667 -1.21319 1.98455 0
M  V30 2027 C 189.661 -1.45025 0.875444 0
M  V30 2028 O 190.867 -1.45435 1.0606 0
M  V30 2029 H 187.242 -0.408142 0.631605 0
M  V30 2030 H 189.213 -0.835244 2.86472 0
M  V30 2031 C 187.962 -2.54148 2.37285 0
M  V30 2032 H 187.285 -2.36733 3.22176 0
M  V30 2033 H 188.725 -3.26712 2.70251 0
M  V30 2034 C 187.184 -3.13967 1.22173 0
M  V30 2035 O 187.714 -3.98357 0.517149 0
M  V30 2036 N 185.92 -2.7327 0.988536 0
M  V30 2037 H 185.467 -2.04744 1.56326 0
M  V30 2038 H 185.425 -3.13628 0.220209 0
M  V30 2039 N 189.197 -1.51736 -0.425897 0
M  V30 2040 C 190.445 -1.64644 -1.17204 0
M  V30 2041 C 190.766 -0.370486 -1.91448 0
M  V30 2042 O 190.036 0.614088 -1.86026 0
M  V30 2043 H 188.616 -0.606819 -0.435638 0
M  V30 2044 H 191.278 -1.88713 -0.487177 0
M  V30 2045 H 190.374 -2.47958 -1.89534 0
M  V30 2046 N 190.675 0.682077 -1.42076 0
M  V30 2047 C 191.9 1.47558 -1.45744 0
M  V30 2048 C 192.325 1.87977 -0.0680981 0
M  V30 2049 O 191.683 1.55522 0.9318 0
M  V30 2050 C 191.731 2.70575 -2.38373 0
M  V30 2051 O 190.835 3.68573 -1.85007 0
M  V30 2052 H 190.176 0.443585 -0.494093 0
M  V30 2053 H 192.706 0.837238 -1.86686 0
M  V30 2054 H 192.716 3.18729 -2.54707 0
M  V30 2055 H 191.391 2.40495 -3.39315 0
M  V30 2056 H 189.968 3.2757 -1.78192 0
M  V30 2057 N 192.153 1.28127 0.917671 0
M  V30 2058 C 193.43 1.05761 1.64542 0
M  V30 2059 C 193.81 -0.404344 2.07191 0
M  V30 2060 O 193.158 -1.38963 1.81388 0
M  V30 2061 C 193.368 2.02857 2.83989 0
M  V30 2062 C 194.716 2.32786 3.551 0
M  V30 2063 O 195.74 2.0091 2.94132 0
M  V30 2064 O 194.599 2.87169 4.64969 0
M  V30 2065 H 191.693 0.403916 0.721652 0
M  V30 2066 H 194.239 1.39431 0.967322 0
M  V30 2067 H 193.011 3.01407 2.49538 0
M  V30 2068 H 192.634 1.69809 3.59514 0
M  V30 2069 N 193.631 -1.12557 1.10312 0
M  V30 2070 C 194.579 -2.20325 0.745629 0
M  V30 2071 C 195.573 -1.67429 -0.25763 0
M  V30 2072 O 196.779 -1.79612 -0.118132 0
M  V30 2073 H 193.154 -0.718118 0.223182 0
M  V30 2074 H 195.125 -2.47733 1.66346 0
M  V30 2075 C 193.874 -3.47168 0.192262 0
M  V30 2076 H 193.197 -3.88215 0.955475 0
M  V30 2077 H 194.637 -4.23995 -0.0198274 0
M  V30 2078 C 193.096 -3.19298 -1.07472 0
M  V30 2079 O 193.626 -3.3891 -2.15645 0
M  V30 2080 N 191.832 -2.73113 -0.992847 0
M  V30 2081 H 191.379 -2.57354 -0.112474 0
M  V30 2082 H 191.337 -2.54842 -1.84127 0
M  V30 2083 N 195.109 -0.891671 -1.2995 0
M  V30 2084 C 196.355 -0.514261 -1.96171 0
M  V30 2085 C 196.688 0.935506 -1.70182 0
M  V30 2086 O 195.963 1.66204 -1.01028 0
M  V30 2087 C 196.246 -0.797719 -3.51153 0
M  V30 2088 C 196.099 -2.2986 -3.86632 0
M  V30 2089 C 197.418 -0.278749 -4.39216 0
M  V30 2090 H 194.537 -0.188314 -0.712535 0
M  V30 2091 H 197.179 -1.11689 -1.53706 0
M  V30 2092 H 195.329 -0.284826 -3.87455 0
M  V30 2093 H 197.001 -2.88042 -3.60319 0
M  V30 2094 H 195.244 -2.76257 -3.34462 0
M  V30 2095 H 195.915 -2.44753 -4.94773 0
M  V30 2096 H 198.391 -0.717825 -4.09862 0
M  V30 2097 H 197.267 -0.506353 -5.46559 0
M  V30 2098 H 197.528 0.820266 -4.34424 0
M  V30 2099 N 196.587 1.43421 -0.653314 0
M  V30 2100 C 197.812 2.06678 -0.172846 0
M  V30 2101 C 198.237 1.48648 1.15262 0
M  V30 2102 O 197.595 0.596457 1.71208 0
M  V30 2103 C 197.643 3.60474 -0.0953184 0
M  V30 2104 O 196.747 4.01487 0.942442 0
M  V30 2105 H 196.088 0.657181 -0.0949155 0
M  V30 2106 H 198.618 1.83925 -0.896265 0
M  V30 2107 H 198.628 4.07905 0.0879728 0
M  V30 2108 H 197.303 4.02088 -1.06291 0
M  V30 2109 H 195.88 3.65646 0.731932 0
M  V30 2110 N 198.065 0.39524 1.52563 0
M  V30 2111 C 198.975 -0.444232 2.30356 0
M  V30 2112 C 199.991 -1.06615 1.37511 0
M  V30 2113 O 201.167 -1.07067 1.70583 0
M  V30 2114 C 198.232 -1.55315 3.09964 0
M  V30 2115 C 197.293 -0.955734 4.18526 0
M  V30 2116 C 196.526 -2.01181 4.9433 0
M  V30 2117 O 196.749 -3.22781 4.70285 0
M  V30 2118 O 195.683 -1.62579 5.79527 0
M  V30 2119 H 199.509 0.189667 3.03107 0
M  V30 2120 H 197.094 0.1588 1.48554 0
M  V30 2121 H 198.976 -2.19724 3.59582 0
M  V30 2122 H 197.651 -2.17191 2.4002 0
M  V30 2123 H 196.558 -0.274743 3.7309 0
M  V30 2124 H 197.891 -0.381109 4.90722 0
M  V30 2125 N 199.544 -1.57102 0.125237 0
M  V30 2126 C 200.774 -1.99472 -0.538015 0
M  V30 2127 C 201.182 -1.00395 -1.60366 0
M  V30 2128 O 200.525 0.0103875 -1.83697 0
M  V30 2129 C 200.587 -3.38262 -1.21734 0
M  V30 2130 C 200.251 -4.56021 -0.298897 0
M  V30 2131 C 201.248 -5.17817 0.464943 0
M  V30 2132 C 198.933 -5.01869 -0.208149 0
M  V30 2133 C 200.927 -6.23852 1.3072 0
M  V30 2134 C 198.614 -6.07763 0.637736 0
M  V30 2135 C 199.612 -6.68622 1.39403 0
M  V30 2136 O 199.3 -7.7247 2.22586 0
M  V30 2137 H 199.032 -0.659934 -0.146501 0
M  V30 2138 H 201.586 -2.04321 0.210267 0
M  V30 2139 H 199.816 -3.30185 -2.01282 0
M  V30 2140 H 201.505 -3.6488 -1.77813 0
M  V30 2141 H 202.271 -4.83308 0.404741 0
M  V30 2142 H 198.15 -4.54241 -0.786522 0
M  V30 2143 H 201.694 -6.71284 1.898 0
M  V30 2144 H 197.591 -6.41701 0.699309 0
M  V30 2145 H 198.359 -7.89595 2.15596 0
M  V30 2146 N 201.022 0.148545 -1.56898 0
M  V30 2147 C 201.952 1.18524 -2.01182 0
M  V30 2148 C 202.933 1.4489 -0.891123 0
M  V30 2149 O 204.118 1.55836 -1.15882 0
M  V30 2150 C 201.248 2.51879 -2.39112 0
M  V30 2151 C 200.202 2.40038 -3.54353 0
M  V30 2152 C 199.528 3.78089 -3.78091 0
M  V30 2153 C 200.828 1.88577 -4.87069 0
M  V30 2154 H 202.522 0.817029 -2.88036 0
M  V30 2155 H 200.068 0.391575 -1.38574 0
M  V30 2156 H 202.021 3.24627 -2.68692 0
M  V30 2157 H 200.745 2.90532 -1.49193 0
M  V30 2158 H 199.404 1.69742 -3.24936 0
M  V30 2159 H 199.052 4.14175 -2.85426 0
M  V30 2160 H 198.752 3.71028 -4.55645 0
M  V30 2161 H 200.276 4.52387 -4.10095 0
M  V30 2162 H 201.69 2.51117 -5.15377 0
M  V30 2163 H 200.087 1.9241 -5.68417 0
M  V30 2164 H 201.157 0.84136 -4.77545 0
M  V30 2165 N 202.5 1.5196 0.417844 0
M  V30 2166 C 203.916 1.40569 0.755816 0
M  V30 2167 C 204.116 0.503316 1.95113 0
M  V30 2168 O 203.172 -0.0341925 2.52477 0
M  V30 2169 C 204.485 2.82947 1.01791 0
M  V30 2170 C 206.033 2.92231 1.12116 0
M  V30 2171 C 206.508 4.35559 1.41608 0
M  V30 2172 N 207.999 4.38753 1.48491 0
M  V30 2173 C 208.734 5.46705 1.7292 0
M  V30 2174 N 208.23 6.64788 1.95011 0
M  V30 2175 N 210.023 5.34209 1.74863 0
M  V30 2176 H 202.174 2.09168 -0.369098 0
M  V30 2177 H 204.437 0.942409 -0.102809 0
M  V30 2178 H 204.143 3.5106 0.212081 0
M  V30 2179 H 204.017 3.23462 1.94042 0
M  V30 2180 H 206.404 2.24304 1.9176 0
M  V30 2181 H 206.485 2.55185 0.177225 0
M  V30 2182 H 206.129 5.04042 0.624848 0
M  V30 2183 H 206.059 4.70133 2.37239 0
M  V30 2184 H 208.55 3.5363 1.33244 0
M  V30 2185 H 208.863 7.42845 2.13076 0
M  V30 2186 H 207.208 6.67869 1.92293 0
M  V30 2187 H 210.399 4.40937 1.57137 0
M  V30 2188 H 210.572 6.18415 1.93563 0
M  V30 2189 N 203.978 -0.674533 1.42435 0
M  V30 2190 C 205.255 -1.4305 1.33402 0
M  V30 2191 C 205.635 -2.11081 -0.0284674 0
M  V30 2192 O 204.983 -2.03257 -1.04397 0
M  V30 2193 C 205.193 -2.43272 2.50239 0
M  V30 2194 C 206.541 -3.07907 2.92367 0
M  V30 2195 O 207.565 -2.53599 2.50132 0
M  V30 2196 O 206.424 -4.0632 3.65467 0
M  V30 2197 H 203.518 -0.638076 0.526106 0
M  V30 2198 H 206.064 -0.703235 1.54443 0
M  V30 2199 H 204.836 -1.91803 3.41068 0
M  V30 2200 H 204.459 -3.23479 2.31186 0
M  V30 2201 N 205.456 -1.28612 -0.910864 0
M  V30 2202 C 206.705 -1.15311 -1.65488 0
M  V30 2203 C 207.018 0.296999 -1.93332 0
M  V30 2204 O 208.224 0.551168 -2.65847 0
M  V30 2205 C 206.68 -2.01599 -2.98137 0
M  V30 2206 C 206.288 -3.51367 -2.7793 0
M  V30 2207 C 208.032 -1.96993 -3.76024 0
M  V30 2208 C 205.939 -4.29797 -4.06237 0
M  V30 2209 H 204.869 -0.42796 -0.620779 0
M  V30 2210 H 207.52 -1.53166 -1.01057 0
M  V30 2211 H 205.902 -1.56603 -3.63719 0
M  V30 2212 H 207.076 -4.0434 -2.21011 0
M  V30 2213 H 205.391 -3.57529 -2.13452 0
M  V30 2214 H 207.988 -2.52856 -4.71135 0
M  V30 2215 H 208.331 -0.94733 -4.05378 0
M  V30 2216 H 208.864 -2.39973 -3.17266 0
M  V30 2217 H 205.603 -5.32648 -3.82055 0
M  V30 2218 H 205.123 -3.81596 -4.62757 0
M  V30 2219 H 206.802 -4.39869 -4.74473 0
M  V30 2220 N 206.934 1.1197 -1.10907 0
M  V30 2221 C 208.181 1.83588 -0.854507 0
M  V30 2222 C 208.509 1.84357 0.6199 0
M  V30 2223 O 207.764 1.28809 1.47332 0
M  V30 2224 C 208.063 3.30749 -1.35425 0
M  V30 2225 C 207.729 3.50146 -2.84093 0
M  V30 2226 C 206.391 3.55148 -3.2469 0
M  V30 2227 C 208.743 3.56857 -3.79872 0
M  V30 2228 C 206.071 3.6441 -4.59806 0
M  V30 2229 C 208.423 3.6765 -5.14797 0
M  V30 2230 C 207.087 3.7091 -5.54961 0
M  V30 2231 H 206.357 0.671795 -0.312686 0
M  V30 2232 H 209.004 1.32091 -1.38652 0
M  V30 2233 H 207.309 3.84703 -0.742361 0
M  V30 2234 H 209.006 3.8464 -1.1337 0
M  V30 2235 H 205.596 3.46919 -2.51685 0
M  V30 2236 H 209.78 3.52258 -3.49611 0
M  V30 2237 H 205.036 3.65208 -4.9034 0
M  V30 2238 H 209.21 3.71786 -5.88853 0
M  V30 2239 H 206.837 3.7784 -6.59652 0
M  V30 2240 N 208.412 0.89855 1.29475 0
M  V30 2241 C 209.637 0.538561 2.00285 0
M  V30 2242 C 210.062 -0.869135 1.66816 0
M  V30 2243 O 209.42 -1.57831 0.892145 0
M  V30 2244 C 209.468 0.736475 3.52999 0
M  V30 2245 O 208.572 -0.211537 4.11857 0
M  V30 2246 H 207.913 0.210563 0.62973 0
M  V30 2247 H 210.443 1.20982 1.64998 0
M  V30 2248 H 210.453 0.640685 4.02938 0
M  V30 2249 H 209.128 1.76276 3.76696 0
M  V30 2250 H 207.705 -0.0682991 3.72837 0
M  V30 2251 N 209.89 -1.43072 0.660911 0
M  V30 2252 C 211.12 -2.05769 0.185153 0
M  V30 2253 C 211.528 -1.49668 -1.15742 0
M  V30 2254 O 210.871 -0.625649 -1.72717 0
M  V30 2255 C 210.933 -3.59489 0.0278237 0
M  V30 2256 C 210.597 -4.38212 1.2969 0
M  V30 2257 C 211.594 -4.69772 2.22734 0
M  V30 2258 C 209.279 -4.7809 1.54063 0
M  V30 2259 C 211.273 -5.40129 3.38437 0
M  V30 2260 C 208.96 -5.4819 2.70058 0
M  V30 2261 C 209.958 -5.79132 3.62071 0
M  V30 2262 O 209.646 -6.47798 4.76039 0
M  V30 2263 H 209.378 -0.669873 0.0908086 0
M  V30 2264 H 211.932 -1.84436 0.90402 0
M  V30 2265 H 210.162 -3.79426 -0.746489 0
M  V30 2266 H 211.851 -4.03862 -0.406275 0
M  V30 2267 H 212.617 -4.39476 2.05149 0
M  V30 2268 H 208.496 -4.53408 0.833215 0
M  V30 2269 H 212.04 -5.64198 4.10277 0
M  V30 2270 H 207.937 -5.77902 2.87574 0
M  V30 2271 H 208.705 -6.66283 4.75404 0
M  V30 2272 N 211.368 -0.403325 -1.52352 0
M  V30 2273 C 212.301 0.469463 -2.23319 0
M  V30 2274 C 213.279 1.05272 -1.23922 0
M  V30 2275 O 214.463 1.10169 -1.52954 0
M  V30 2276 C 211.59 1.6511 -2.9573 0
M  V30 2277 C 210.636 1.19178 -4.0951 0
M  V30 2278 S 211.469 0.161718 -5.35256 0
M  V30 2279 C 212.625 1.34882 -6.11194 0
M  V30 2280 H 212.858 -0.133134 -2.97002 0
M  V30 2281 H 210.391 -0.187588 -1.53256 0
M  V30 2282 H 212.349 2.3287 -3.38056 0
M  V30 2283 H 211.01 2.22503 -2.21701 0
M  V30 2284 H 210.203 2.07444 -4.59329 0
M  V30 2285 H 209.805 0.592911 -3.6927 0
M  V30 2286 H 212.097 2.27345 -6.38217 0
M  V30 2287 H 213.04 0.89128 -7.02468 0
M  V30 2288 H 213.448 1.57198 -5.42171 0
M  V30 2289 N 212.846 1.57033 -0.133567 0
M  V30 2290 C 214.094 1.953 0.519848 0
M  V30 2291 C 214.415 1.01866 1.66278 0
M  V30 2292 O 213.685 0.0776513 1.95746 0
M  V30 2293 H 212.265 0.721091 0.195032 0
M  V30 2294 H 214.927 1.93809 -0.205921 0
M  V30 2295 H 214.023 2.98695 0.904854 0
M  V30 2296 N 214.325 -0.140222 1.56975 0
M  V30 2297 C 215.573 -0.850005 1.83356 0
M  V30 2298 C 215.894 -1.81399 0.71551 0
M  V30 2299 O 215.164 -1.94136 -0.262294 0
M  V30 2300 H 213.744 -0.316886 0.676456 0
M  V30 2301 H 216.406 -0.132608 1.94448 0
M  V30 2302 H 215.502 -1.40814 2.78528 0
M  V30 2303 N 215.803 -1.52179 -0.40978 0
M  V30 2304 C 216.735 -1.71703 -1.51825 0
M  V30 2305 C 217.748 -0.597445 -1.51441 0
M  V30 2306 O 218.937 -0.872582 -1.55719 0
M  V30 2307 C 216.037 -1.74171 -2.90719 0
M  V30 2308 C 215.21 -3.03156 -3.15302 0
M  V30 2309 C 214.269 -2.97445 -4.34065 0
M  V30 2310 O 213.295 -3.71352 -4.31377 0
M  V30 2311 N 214.497 -2.15191 -5.39141 0
M  V30 2312 H 217.262 -2.67334 -1.35472 0
M  V30 2313 H 214.823 -1.50409 -0.599069 0
M  V30 2314 H 216.815 -1.67884 -3.68235 0
M  V30 2315 H 215.385 -0.860166 -3.00533 0
M  V30 2316 H 214.605 -3.23097 -2.25836 0
M  V30 2317 H 215.893 -3.88484 -3.28569 0
M  V30 2318 H 215.291 -1.54573 -5.44173 0
M  V30 2319 H 213.848 -2.1476 -6.15403 0
M  V30 2320 N 217.281 0.66697 -1.42791 0
M  V30 2321 C 218.53 1.42278 -1.42968 0
M  V30 2322 C 218.843 1.9553 -0.0524489 0
M  V30 2323 O 220.049 2.71414 0.068363 0
M  V30 2324 C 218.505 2.57418 -2.51524 0
M  V30 2325 C 218.113 2.10832 -3.9529 0
M  V30 2326 C 219.857 3.34878 -2.60877 0
M  V30 2327 C 217.764 3.23101 -4.95338 0
M  V30 2328 H 216.694 0.534533 -0.531781 0
M  V30 2329 H 219.345 0.721302 -1.68729 0
M  V30 2330 H 217.727 3.29971 -2.18941 0
M  V30 2331 H 218.901 1.4538 -4.37266 0
M  V30 2332 H 217.216 1.46289 -3.89857 0
M  V30 2333 H 219.813 4.18505 -3.32802 0
M  V30 2334 H 220.156 3.81993 -1.6549 0
M  V30 2335 H 220.689 2.69398 -2.92693 0
M  V30 2336 H 217.428 2.80969 -5.9223 0
M  V30 2337 H 216.948 3.87309 -4.57987 0
M  V30 2338 H 218.627 3.88447 -5.17415 0
M  V30 2339 N 218.759 1.29093 0.90403 0
M  V30 2340 C 219.689 1.16401 2.02418 0
M  V30 2341 C 220.67 0.0593085 1.69997 0
M  V30 2342 O 221.855 0.238021 1.92736 0
M  V30 2343 C 218.985 0.835233 3.37107 0
M  V30 2344 C 217.939 1.89578 3.83724 0
M  V30 2345 C 217.265 1.42041 5.15489 0
M  V30 2346 C 218.565 3.30394 4.04521 0
M  V30 2347 H 220.259 2.10109 2.13295 0
M  V30 2348 H 217.805 1.01157 1.02486 0
M  V30 2349 H 219.758 0.733169 4.14973 0
M  V30 2350 H 218.482 -0.137543 3.2631 0
M  V30 2351 H 217.141 1.98715 3.08071 0
M  V30 2352 H 216.789 0.436426 5.01103 0
M  V30 2353 H 216.489 2.12964 5.4765 0
M  V30 2354 H 218.013 1.33176 5.959 0
M  V30 2355 H 219.427 3.24123 4.72882 0
M  V30 2356 H 217.824 3.99237 4.48029 0
M  V30 2357 H 218.894 3.73692 3.09002 0
M  V30 2358 N 220.237 -1.11381 1.11499 0
M  V30 2359 C 221.187 -2.15555 0.74298 0
M  V30 2360 C 222.171 -1.58894 -0.253276 0
M  V30 2361 O 223.363 -1.76897 -0.0602918 0
M  V30 2362 C 220.492 -3.42782 0.188481 0
M  V30 2363 C 219.578 -4.064 1.21244 0
M  V30 2364 N 219.969 -4.44864 2.40685 0
M  V30 2365 C 218.267 -4.3333 1.05552 0
M  V30 2366 C 218.968 -4.94715 3.05994 0
M  V30 2367 N 217.944 -4.90909 2.33472 0
M  V30 2368 H 221.746 -2.43074 1.65203 0
M  V30 2369 H 219.26 -1.28401 0.994329 0
M  V30 2370 H 221.257 -4.16789 -0.0961693 0
M  V30 2371 H 219.917 -3.16727 -0.715149 0
M  V30 2372 H 220.928 -4.36876 2.78136 0
M  V30 2373 H 217.605 -4.1698 0.208372 0
M  V30 2374 H 218.995 -5.34103 4.07656 0
M  V30 2375 N 221.715 -0.905404 -1.28997 0
M  V30 2376 C 222.647 -0.344748 -2.26592 0
M  V30 2377 C 223.66 0.512135 -1.54535 0
M  V30 2378 O 224.849 0.328368 -1.75454 0
M  V30 2379 C 221.949 0.526587 -3.34784 0
M  V30 2380 C 221.122 -0.305871 -4.36329 0
M  V30 2381 C 220.181 0.499209 -5.23827 0
M  V30 2382 O 219.207 -0.0853004 -5.69136 0
M  V30 2383 N 220.409 1.80408 -5.51755 0
M  V30 2384 H 223.174 -1.18359 -2.75338 0
M  V30 2385 H 220.735 -0.770481 -1.42391 0
M  V30 2386 H 222.727 1.07171 -3.90252 0
M  V30 2387 H 221.297 1.26613 -2.85811 0
M  V30 2388 H 220.517 -1.0324 -3.80441 0
M  V30 2389 H 221.805 -0.875773 -5.01206 0
M  V30 2390 H 221.203 2.3016 -5.16762 0
M  V30 2391 H 219.76 2.29621 -6.10014 0
M  V30 2392 N 223.193 1.4272 -0.668489 0
M  V30 2393 C 224.439 2.01923 -0.188419 0
M  V30 2394 C 224.772 1.52704 1.19979 0
M  V30 2395 O 224.047 0.726566 1.8042 0
M  V30 2396 C 224.33 3.59451 -0.216085 0
M  V30 2397 C 224.183 4.18864 -1.6393 0
M  V30 2398 C 225.502 4.37903 0.439179 0
M  V30 2399 H 222.621 0.733674 -0.0699412 0
M  V30 2400 H 225.263 1.69822 -0.852076 0
M  V30 2401 H 223.413 3.86929 0.349012 0
M  V30 2402 H 225.085 4.02362 -2.25616 0
M  V30 2403 H 223.328 3.74933 -2.18193 0
M  V30 2404 H 223.999 5.27987 -1.61039 0
M  V30 2405 H 226.475 4.16079 -0.0417878 0
M  V30 2406 H 225.351 5.47519 0.389157 0
M  V30 2407 H 225.612 4.15303 1.51577 0
M  V30 2408 N 224.671 0.411399 1.52136 0
M  V30 2409 C 225.896 -0.165538 2.06738 0
M  V30 2410 C 226.321 -1.379 1.27926 0
M  V30 2411 O 225.679 -1.78628 0.310114 0
M  V30 2412 C 225.727 -0.492124 3.57226 0
M  V30 2413 O 224.831 -1.58276 3.80818 0
M  V30 2414 H 224.172 -0.0132132 0.663869 0
M  V30 2415 H 226.702 0.585253 1.96051 0
M  V30 2416 H 226.712 -0.750104 4.01045 0
M  V30 2417 H 225.387 0.394922 4.14021 0
M  V30 2418 H 223.964 -1.31677 3.48877 0
M  V30 2419 N 226.149 -1.5696 0.141893 0
M  V30 2420 C 227.398 -1.95135 -0.510427 0
M  V30 2421 C 227.711 -1.02896 -1.66348 0
M  V30 2422 O 228.917 -1.30629 -2.38009 0
M  V30 2423 C 227.373 -3.46876 -0.959427 0
M  V30 2424 C 226.981 -4.47691 0.166419 0
M  V30 2425 C 228.725 -3.93927 -1.58183 0
M  V30 2426 C 226.632 -5.90636 -0.300565 0
M  V30 2427 H 225.562 -0.728494 -0.194454 0
M  V30 2428 H 228.213 -1.8211 0.22542 0
M  V30 2429 H 226.595 -3.55215 -1.75038 0
M  V30 2430 H 227.769 -4.51043 0.94325 0
M  V30 2431 H 226.084 -4.10527 0.696905 0
M  V30 2432 H 228.681 -4.98158 -1.94275 0
M  V30 2433 H 229.024 -3.3519 -2.46888 0
M  V30 2434 H 229.557 -3.88484 -0.855863 0
M  V30 2435 H 226.296 -6.5318 0.550989 0
M  V30 2436 H 225.816 -5.90655 -1.04338 0
M  V30 2437 H 227.495 -6.42588 -0.754265 0
M  V30 2438 N 227.627 0.131896 -1.57047 0
M  V30 2439 C 228.855 0.856461 -1.88341 0
M  V30 2440 C 229.27 1.74042 -0.731757 0
M  V30 2441 O 228.627 1.80051 0.297945 0
M  V30 2442 C 228.678 1.70064 -3.18999 0
M  V30 2443 O 228.399 0.852278 -4.2973 0
M  V30 2444 C 229.9 2.53148 -3.63911 0
M  V30 2445 H 227.12 0.246885 -0.62393 0
M  V30 2446 H 229.664 0.120152 -2.04147 0
M  V30 2447 H 227.819 2.38984 -3.04902 0
M  V30 2448 H 228.233 1.43329 -5.04537 0
M  V30 2449 H 229.707 3.07931 -4.58129 0
M  V30 2450 H 230.184 3.29901 -2.89935 0
M  V30 2451 H 230.79 1.89492 -3.80753 0
M  V30 2452 N 229.106 1.52395 0.401703 0
M  V30 2453 C 230.054 1.7689 1.51039 0
M  V30 2454 C 231.048 0.636298 1.56996 0
M  V30 2455 O 232.254 0.818507 1.60314 0
M  V30 2456 H 228.629 0.559502 0.502456 0
M  V30 2457 H 230.6 2.69757 1.27568 0
M  V30 2458 C 229.349 1.94331 2.88324 0
M  V30 2459 H 228.672 2.80905 2.84486 0
M  V30 2460 H 230.112 2.15466 3.65172 0
M  V30 2461 C 228.571 0.712396 3.29282 0
M  V30 2462 O 229.101 -0.116218 4.01532 0
M  V30 2463 N 227.307 0.546154 2.85422 0
M  V30 2464 H 226.854 1.22156 2.26794 0
M  V30 2465 H 226.812 -0.276113 3.13185 0
M  V30 2466 N 230.584 -0.659388 1.43143 0
M  V30 2467 C 231.809 -1.45221 1.48073 0
M  V30 2468 C 232.234 -1.87845 0.097995 0
M  V30 2469 O 231.592 -1.56985 -0.90694 0
M  V30 2470 C 231.64 -2.66748 2.42647 0
M  V30 2471 O 230.744 -3.65583 1.90848 0
M  V30 2472 H 230.085 -0.435669 0.501088 0
M  V30 2473 H 232.615 -0.807432 1.87994 0
M  V30 2474 H 232.625 -3.14637 2.59745 0
M  V30 2475 H 231.3 -2.35067 3.43098 0
M  V30 2476 H 229.877 -3.24693 1.83381 0
M  V30 2477 N 232.062 -1.29571 -0.897171 0
M  V30 2478 C 232.992 -1.17473 -2.01798 0
M  V30 2479 C 233.973 -0.068323 -1.69963 0
M  V30 2480 O 235.158 -0.248239 -1.92607 0
M  V30 2481 C 232.288 -0.853099 -3.36659 0
M  V30 2482 C 231.242 -1.9161 -3.82713 0
M  V30 2483 C 230.568 -1.44773 -5.14728 0
M  V30 2484 C 231.868 -3.32535 -4.02763 0
M  V30 2485 H 233.562 -2.11237 -2.12177 0
M  V30 2486 H 231.108 -1.01699 -1.01948 0
M  V30 2487 H 233.061 -0.755165 -4.14578 0
M  V30 2488 H 231.785 0.120236 -3.26379 0
M  V30 2489 H 230.444 -2.00346 -3.07013 0
M  V30 2490 H 230.092 -0.462995 -5.00865 0
M  V30 2491 H 229.792 -2.15865 -5.46513 0
M  V30 2492 H 231.316 -1.36334 -5.95185 0
M  V30 2493 H 232.73 -3.26626 -4.71156 0
M  V30 2494 H 231.127 -4.01607 -4.45905 0
M  V30 2495 H 232.197 -3.75326 -3.07016 0
M  V30 2496 N 233.54 1.10788 -1.12088 0
M  V30 2497 C 234.487 2.17025 -0.785407 0
M  V30 2498 C 235.457 1.64265 0.246191 0
M  V30 2499 O 236.642 1.90412 0.121584 0
M  V30 2500 C 233.782 3.44249 -0.242177 0
M  V30 2501 C 232.895 4.1098 -1.33115 0
M  V30 2502 C 232.03 5.25911 -0.747741 0
M  V30 2503 C 231.069 5.84538 -1.81609 0
M  V30 2504 N 230.206 6.90853 -1.25167 0
M  V30 2505 H 235.046 2.45066 -1.69548 0
M  V30 2506 H 232.583 1.20297 -0.846582 0
M  V30 2507 H 234.541 4.17101 0.0908026 0
M  V30 2508 H 233.171 3.16571 0.631072 0
M  V30 2509 H 232.223 3.36133 -1.78097 0
M  V30 2510 H 233.535 4.50601 -2.13917 0
M  V30 2511 H 232.689 6.056 -0.365216 0
M  V30 2512 H 231.428 4.87614 0.0915188 0
M  V30 2513 H 230.433 5.03522 -2.20785 0
M  V30 2514 H 231.658 6.249 -2.6585 0
M  V30 2515 H 229.604 6.54562 -0.434174 0
M  V30 2516 H 229.521 7.29166 -1.99633 0
M  V30 2517 H 230.789 7.7433 -0.896259 0
M  V30 2518 N 235.018 0.912232 1.28515 0
M  V30 2519 C 236.295 0.463597 1.90027 0
M  V30 2520 C 236.675 -1.05753 1.82701 0
M  V30 2521 O 236.023 -1.90492 1.26194 0
M  V30 2522 C 236.233 0.992253 3.34597 0
M  V30 2523 C 237.581 1.04344 4.11579 0
M  V30 2524 O 238.605 0.94079 3.43551 0
M  V30 2525 O 237.464 1.1995 5.33174 0
M  V30 2526 H 234.558 0.146666 0.813891 0
M  V30 2527 H 237.104 1.00292 1.36893 0
M  V30 2528 H 235.876 2.03623 3.34146 0
M  V30 2529 H 235.499 0.433672 3.95228 0
M  V30 2530 N 236.496 -1.42363 0.676048 0
M  V30 2531 C 237.745 -2.00745 0.196037 0
M  V30 2532 C 238.058 -1.54083 -1.20489 0
M  V30 2533 O 239.264 -2.04891 -1.78134 0
M  V30 2534 C 237.72 -3.58651 0.299616 0
M  V30 2535 C 237.328 -4.143 1.70468 0
M  V30 2536 C 239.072 -4.24326 -0.121619 0
M  V30 2537 C 236.979 -5.64574 1.76096 0
M  V30 2538 H 235.909 -0.750787 0.0695301 0
M  V30 2539 H 238.56 -1.63072 0.841412 0
M  V30 2540 H 236.942 -3.93833 -0.413673 0
M  V30 2541 H 238.116 -3.90575 2.44515 0
M  V30 2542 H 236.431 -3.61081 2.07387 0
M  V30 2543 H 239.028 -5.34607 -0.0997362 0
M  V30 2544 H 239.371 -3.99897 -1.15708 0
M  V30 2545 H 239.904 -3.94108 0.540706 0
M  V30 2546 H 236.643 -5.93804 2.77628 0
M  V30 2547 H 236.163 -5.90286 1.06406 0
M  V30 2548 H 237.842 -6.29013 1.51496 0
M  V30 2549 N 237.974 -0.419461 -1.51915 0
M  V30 2550 C 238.937 0.389116 -2.25873 0
M  V30 2551 C 239.937 0.964924 -1.28631 0
M  V30 2552 O 241.127 0.842179 -1.52489 0
M  V30 2553 C 238.259 1.54874 -3.03689 0
M  V30 2554 H 239.452 -0.258799 -2.98781 0
M  V30 2555 H 237.005 -0.172209 -1.55348 0
M  V30 2556 H 237.74 2.23323 -2.35154 0
M  V30 2557 H 237.525 1.14223 -3.75094 0
M  V30 2558 H 239.015 2.12046 -3.59759 0
M  V30 2559 N 239.452 1.56882 -0.150215 0
M  V30 2560 C 240.362 2.20494 0.801222 0
M  V30 2561 C 241.378 1.19019 1.26927 0
M  V30 2562 O 242.554 1.51607 1.32579 0
M  V30 2563 C 239.619 2.81659 2.02161 0
M  V30 2564 C 238.68 3.9827 1.60249 0
M  V30 2565 C 237.913 4.56508 2.7647 0
M  V30 2566 O 238.136 4.13627 3.92771 0
M  V30 2567 O 237.07 5.46719 2.51757 0
M  V30 2568 H 240.896 3.02315 0.289717 0
M  V30 2569 H 238.481 1.49202 0.0769684 0
M  V30 2570 H 240.363 3.20522 2.73576 0
M  V30 2571 H 239.038 2.02849 2.52258 0
M  V30 2572 H 237.945 3.64117 0.858477 0
M  V30 2573 H 239.278 4.78609 1.14864 0
M  V30 2574 N 240.93 -0.123565 1.57115 0
M  V30 2575 C 241.893 -1.13583 1.99076 0
M  V30 2576 C 242.893 -1.34564 0.880296 0
M  V30 2577 O 244.083 -1.31158 1.14644 0
M  V30 2578 C 241.215 -2.49128 2.32698 0
M  V30 2579 H 242.408 -0.775287 2.89706 0
M  V30 2580 H 239.961 -0.36771 1.51913 0
M  V30 2581 H 240.696 -2.90111 1.44934 0
M  V30 2582 H 240.481 -2.35255 3.13684 0
M  V30 2583 H 241.971 -3.2199 2.65918 0
M  V30 2584 N 242.408 -1.52605 -0.393616 0
M  V30 2585 C 243.34 -1.73303 -1.49995 0
M  V30 2586 C 244.353 -0.613473 -1.50799 0
M  V30 2587 O 245.542 -0.889049 -1.54784 0
M  V30 2588 C 242.642 -1.77245 -2.88855 0
M  V30 2589 C 241.815 -3.06483 -3.12069 0
M  V30 2590 C 240.874 -3.02033 -4.30886 0
M  V30 2591 O 239.9 -3.75907 -4.27414 0
M  V30 2592 N 241.102 -2.20897 -5.36828 0
M  V30 2593 H 243.867 -2.68756 -1.32629 0
M  V30 2594 H 241.428 -1.51036 -0.583083 0
M  V30 2595 H 243.42 -1.7178 -3.66434 0
M  V30 2596 H 241.99 -0.891993 -2.99603 0
M  V30 2597 H 241.21 -3.25474 -2.22396 0
M  V30 2598 H 242.498 -3.91947 -3.2443 0
M  V30 2599 H 241.896 -1.60336 -5.42502 0
M  V30 2600 H 240.453 -2.21275 -6.13091 0
M  V30 2601 N 243.887 0.651787 -1.4349 0
M  V30 2602 C 244.817 1.77621 -1.51569 0
M  V30 2603 C 245.798 1.66022 -0.370253 0
M  V30 2604 O 246.983 1.85095 -0.587658 0
M  V30 2605 C 244.113 3.16056 -1.43966 0
M  V30 2606 C 243.067 3.4242 -2.56774 0
M  V30 2607 C 242.393 4.8067 -2.34223 0
M  V30 2608 C 243.693 3.37023 -3.99015 0
M  V30 2609 H 245.387 1.71117 -2.45681 0
M  V30 2610 H 242.933 0.821825 -1.18246 0
M  V30 2611 H 244.886 3.94472 -1.48221 0
M  V30 2612 H 243.61 3.23293 -0.463586 0
M  V30 2613 H 242.269 2.66375 -2.51873 0
M  V30 2614 H 241.917 4.84585 -1.34856 0
M  V30 2615 H 241.617 4.9927 -3.09844 0
M  V30 2616 H 243.141 5.61342 -2.40265 0
M  V30 2617 H 244.555 4.05374 -4.05395 0
M  V30 2618 H 242.952 3.67159 -4.74673 0
M  V30 2619 H 244.022 2.3518 -4.2405 0
M  V30 2620 N 245.365 1.30045 0.890287 0
M  V30 2621 C 246.298 1.10301 1.99772 0
M  V30 2622 C 247.276 0.0121631 1.62595 0
M  V30 2623 O 248.46 0.16469 1.87779 0
M  V30 2624 C 245.587 0.681125 3.31781 0
M  V30 2625 C 244.633 1.77206 3.87944 0
M  V30 2626 S 245.466 3.37335 4.15891 0
M  V30 2627 C 246.622 2.97036 5.50927 0
M  V30 2628 H 246.855 2.04057 2.16213 0
M  V30 2629 H 244.388 1.14299 1.03804 0
M  V30 2630 H 246.346 0.444439 4.08087 0
M  V30 2631 H 245.007 -0.236981 3.13205 0
M  V30 2632 H 244.2 1.42903 4.83316 0
M  V30 2633 H 243.802 1.96275 3.18358 0
M  V30 2634 H 246.094 2.44666 6.31779 0
M  V30 2635 H 247.037 3.91296 5.90164 0
M  V30 2636 H 247.445 2.35057 5.13233 0
M  V30 2637 N 246.843 -1.10192 1.12674 0
M  V30 2638 C 247.753 -2.20172 0.810026 0
M  V30 2639 C 248.769 -1.72821 -0.202188 0
M  V30 2640 O 249.945 -2.01369 -0.0351691 0
M  V30 2641 C 247.01 -3.45631 0.272007 0
M  V30 2642 C 246.071 -4.07704 1.34447 0
M  V30 2643 C 245.304 -5.27175 0.832029 0
M  V30 2644 O 245.527 -5.69425 -0.333284 0
M  V30 2645 O 244.461 -5.80168 1.60277 0
M  V30 2646 H 248.287 -2.49701 1.72867 0
M  V30 2647 H 245.872 -1.18977 0.903597 0
M  V30 2648 H 247.754 -4.21394 -0.0230219 0
M  V30 2649 H 246.429 -3.17723 -0.619164 0
M  V30 2650 H 245.336 -3.33614 1.6927 0
M  V30 2651 H 246.669 -4.3982 2.2095 0
M  V30 2652 N 248.321 -0.919034 -1.28029 0
M  V30 2653 C 249.284 -0.416182 -2.2539 0
M  V30 2654 C 250.284 0.460438 -1.54067 0
M  V30 2655 O 251.474 0.262744 -1.72207 0
M  V30 2656 C 248.606 0.402707 -3.38513 0
M  V30 2657 H 249.799 -1.27629 -2.71387 0
M  V30 2658 H 247.352 -0.698919 -1.39803 0
M  V30 2659 H 248.087 1.282 -2.97885 0
M  V30 2660 H 247.872 -0.225698 -3.9145 0
M  V30 2661 H 249.362 0.745191 -4.10897 0
M  V30 2662 N 249.799 1.42003 -0.683588 0
M  V30 2663 C 251.027 2.05746 -0.218182 0
M  V30 2664 C 251.442 1.51396 1.12804 0
M  V30 2665 O 250.799 0.657303 1.70252 0
M  V30 2666 C 250.85 3.61171 -0.154131 0
M  V30 2667 O 250.571 4.13508 -1.44716 0
M  V30 2668 C 252.072 4.42042 0.333713 0
M  V30 2669 H 249.292 0.662888 -0.10402 0
M  V30 2670 H 251.836 1.81987 -0.9328 0
M  V30 2671 H 249.991 3.84012 0.511231 0
M  V30 2672 H 250.405 5.07453 -1.32632 0
M  V30 2673 H 251.879 5.51028 0.327423 0
M  V30 2674 H 252.356 4.17269 1.37053 0
M  V30 2675 H 252.962 4.24239 -0.300222 0
M  V30 2676 N 251.277 0.427512 1.51691 0
M  V30 2677 C 252.507 -0.140986 2.06118 0
M  V30 2678 C 252.915 -1.37854 1.29588 0
M  V30 2679 O 252.258 -1.80411 0.346036 0
M  V30 2680 C 252.32 -0.538276 3.55447 0
M  V30 2681 C 251.984 0.591095 4.53161 0
M  V30 2682 C 252.981 1.46027 4.98971 0
M  V30 2683 C 250.666 0.769028 4.96378 0
M  V30 2684 C 252.66 2.49216 5.8666 0
M  V30 2685 C 250.347 1.80421 5.83859 0
M  V30 2686 C 251.345 2.66417 6.28897 0
M  V30 2687 O 251.033 3.68159 7.14643 0
M  V30 2688 H 250.765 -0.0157455 0.675817 0
M  V30 2689 H 253.319 0.602495 1.96365 0
M  V30 2690 H 251.549 -1.33432 3.6295 0
M  V30 2691 H 253.238 -1.0368 3.92435 0
M  V30 2692 H 254.004 1.33429 4.66285 0
M  V30 2693 H 249.883 0.109273 4.6087 0
M  V30 2694 H 253.427 3.16372 6.21735 0
M  V30 2695 H 249.324 1.93042 6.15959 0
M  V30 2696 H 250.092 3.64622 7.32798 0
M  V30 2697 N 252.755 -1.56801 0.158532 0
M  V30 2698 C 253.702 -2.17337 -0.776729 0
M  V30 2699 C 254.672 -1.1096 -1.23601 0
M  V30 2700 O 255.857 -1.39054 -1.30647 0
M  V30 2701 C 252.997 -2.80822 -2.00582 0
M  V30 2702 C 252.11 -4.01624 -1.59129 0
M  V30 2703 C 251.245 -4.53072 -2.77306 0
M  V30 2704 C 250.284 -5.66314 -2.32282 0
M  V30 2705 N 249.421 -6.12329 -3.43508 0
M  V30 2706 H 254.261 -2.96918 -0.253701 0
M  V30 2707 H 251.798 -1.46661 -0.113504 0
M  V30 2708 H 253.756 -3.15779 -2.72652 0
M  V30 2709 H 252.386 -2.03866 -2.50277 0
M  V30 2710 H 251.438 -3.72571 -0.767806 0
M  V30 2711 H 252.75 -4.83633 -1.2207 0
M  V30 2712 H 251.904 -4.90145 -3.57551 0
M  V30 2713 H 250.643 -3.70095 -3.17617 0
M  V30 2714 H 249.648 -5.28806 -1.5048 0
M  V30 2715 H 250.873 -6.51085 -1.93043 0
M  V30 2716 H 248.819 -5.32284 -3.83418 0
M  V30 2717 H 248.736 -6.89293 -3.105 0
M  V30 2718 H 250.004 -6.5405 -4.24075 0
M  V30 2719 N 254.233 0.115231 -1.57178 0
M  V30 2720 C 255.482 0.820945 -1.84237 0
M  V30 2721 C 255.795 1.80866 -0.744761 0
M  V30 2722 O 257.001 2.56083 -0.901871 0
M  V30 2723 C 255.457 1.51072 -3.26658 0
M  V30 2724 C 255.065 0.563795 -4.44438 0
M  V30 2725 C 256.809 2.20134 -3.62962 0
M  V30 2726 C 254.716 1.25701 -5.77887 0
M  V30 2727 H 253.646 0.310328 -0.687177 0
M  V30 2728 H 256.297 0.0737134 -1.83352 0
M  V30 2729 H 254.679 2.30471 -3.22024 0
M  V30 2730 H 255.853 -0.197247 -4.60378 0
M  V30 2731 H 254.168 -0.0200638 -4.16395 0
M  V30 2732 H 256.765 2.72696 -4.59936 0
M  V30 2733 H 257.108 2.98107 -2.90582 0
M  V30 2734 H 257.641 1.47619 -3.69396 0
M  V30 2735 H 254.38 0.518493 -6.53446 0
M  V30 2736 H 253.9 1.98997 -5.65827 0
M  V30 2737 H 255.579 1.78915 -6.2177 0
M  V30 2738 N 255.711 1.52812 0.385517 0
M  V30 2739 C 256.621 1.80766 1.49535 0
M  V30 2740 C 257.637 0.694651 1.59532 0
M  V30 2741 O 258.813 0.982611 1.75803 0
M  V30 2742 C 255.878 1.97381 2.85029 0
M  V30 2743 C 254.939 3.21295 2.84724 0
M  V30 2744 C 254.172 3.37108 4.13756 0
M  V30 2745 O 254.395 2.5765 5.08893 0
M  V30 2746 O 253.329 4.30378 4.20783 0
M  V30 2747 H 257.155 2.75015 1.28842 0
M  V30 2748 H 254.74 1.37946 0.573697 0
M  V30 2749 H 256.622 2.09996 3.65349 0
M  V30 2750 H 255.297 1.06322 3.05741 0
M  V30 2751 H 254.204 3.1412 2.03174 0
M  V30 2752 H 255.537 4.12212 2.68965 0
M  V30 2753 N 257.189 -0.644168 1.43834 0
M  V30 2754 C 258.466 -1.40188 1.36406 0
M  V30 2755 C 258.846 -2.11094 0.0163124 0
M  V30 2756 O 258.194 -2.05426 -1.00062 0
M  V30 2757 C 258.404 -2.3791 2.55343 0
M  V30 2758 C 259.752 -3.01637 2.98832 0
M  V30 2759 O 260.776 -2.48237 2.55455 0
M  V30 2760 O 259.635 -3.98477 3.74003 0
M  V30 2761 H 256.729 -0.626773 0.539523 0
M  V30 2762 H 259.275 -0.670317 1.559 0
M  V30 2763 H 258.047 -1.84525 3.4506 0
M  V30 2764 H 257.67 -3.18503 2.37995 0
M  V30 2765 N 258.668 -1.30515 -0.883378 0
M  V30 2766 C 259.914 -1.19607 -1.63774 0
M  V30 2767 C 260.247 0.248314 -1.92606 0
M  V30 2768 O 259.522 1.17742 -1.54813 0
M  V30 2769 C 259.805 -2.02669 -2.97653 0
M  V30 2770 C 259.658 -3.55335 -2.75784 0
M  V30 2771 C 260.977 -1.86573 -3.98596 0
M  V30 2772 H 258.096 -0.435856 -0.594305 0
M  V30 2773 H 260.738 -1.60165 -1.02212 0
M  V30 2774 H 258.888 -1.68208 -3.50197 0
M  V30 2775 H 260.56 -3.99863 -2.30016 0
M  V30 2776 H 258.803 -3.79438 -2.1026 0
M  V30 2777 H 259.474 -4.08745 -3.70988 0
M  V30 2778 H 261.95 -2.16703 -3.55217 0
M  V30 2779 H 260.826 -2.47014 -4.90179 0
M  V30 2780 H 261.087 -0.825321 -4.34328 0
M  V30 2781 N 260.146 1.09593 -1.13257 0
M  V30 2782 C 261.076 2.18214 -0.830946 0
M  V30 2783 C 262.057 1.68812 0.208966 0
M  V30 2784 O 263.242 1.9408 0.0682666 0
M  V30 2785 C 260.372 3.46051 -0.294296 0
M  V30 2786 C 259.326 4.08778 -1.26826 0
M  V30 2787 C 258.652 5.31419 -0.591449 0
M  V30 2788 C 259.952 4.51476 -2.62615 0
M  V30 2789 H 261.646 2.43703 -1.73923 0
M  V30 2790 H 259.192 1.17128 -0.837675 0
M  V30 2791 H 261.145 4.2134 -0.0709606 0
M  V30 2792 H 259.869 3.20079 0.649366 0
M  V30 2793 H 258.528 3.35505 -1.47756 0
M  V30 2794 H 258.176 5.01727 0.357633 0
M  V30 2795 H 257.876 5.74341 -1.24123 0
M  V30 2796 H 259.4 6.09433 -0.377355 0
M  V30 2797 H 260.814 5.17999 -2.45663 0
M  V30 2798 H 259.211 5.05277 -3.23752 0
M  V30 2799 H 260.281 3.63962 -3.20406 0
M  V30 2800 N 261.624 0.925811 1.2754 0
M  V30 2801 C 262.534 0.428993 2.30644 0
M  V30 2802 C 263.55 -0.489387 1.66976 0
M  V30 2803 O 264.726 -0.372653 1.97922 0
M  V30 2804 C 261.791 -0.311967 3.45294 0
M  V30 2805 C 260.852 0.641098 4.24486 0
M  V30 2806 C 260.085 -0.0645955 5.33661 0
M  V30 2807 O 260.308 -1.28429 5.55754 0
M  V30 2808 O 259.242 0.606265 5.98839 0
M  V30 2809 H 263.068 1.28504 2.75173 0
M  V30 2810 H 260.653 0.691086 1.32455 0
M  V30 2811 H 262.535 -0.729972 4.15029 0
M  V30 2812 H 261.21 -1.14365 3.02824 0
M  V30 2813 H 260.117 1.10874 3.57292 0
M  V30 2814 H 261.45 1.43995 4.70666 0
M  V30 2815 N 263.102 -1.41638 0.69111 0
M  V30 2816 C 264.35 -2.00902 0.219758 0
M  V30 2817 C 264.671 -1.54994 -1.18329 0
M  V30 2818 O 263.941 -0.778628 -1.79762 0
M  V30 2819 H 262.521 -0.74289 0.0782558 0
M  V30 2820 H 265.183 -1.73327 0.891271 0
M  V30 2821 H 264.279 -3.11224 0.233708 0
M  V30 2822 N 264.58 -0.43555 -1.51462 0
M  V30 2823 C 265.527 0.376797 -2.27703 0
M  V30 2824 C 266.497 1.01838 -1.31219 0
M  V30 2825 O 267.682 1.03762 -1.60119 0
M  V30 2826 C 264.822 1.47301 -3.12084 0
M  V30 2827 C 263.935 0.849744 -4.2356 0
M  V30 2828 C 263.07 1.92086 -4.95254 0
M  V30 2829 C 262.109 1.27593 -5.98654 0
M  V30 2830 N 261.246 2.28833 -6.63762 0
M  V30 2831 H 266.086 -0.279734 -2.96684 0
M  V30 2832 H 263.623 -0.149795 -1.46335 0
M  V30 2833 H 265.581 2.11984 -3.59331 0
M  V30 2834 H 264.211 2.0992 -2.45221 0
M  V30 2835 H 263.263 0.0912529 -3.80291 0
M  V30 2836 H 264.575 0.338878 -4.97648 0
M  V30 2837 H 263.729 2.64435 -5.46039 0
M  V30 2838 H 262.468 2.46545 -4.20793 0
M  V30 2839 H 261.473 0.537893 -5.47162 0
M  V30 2840 H 262.698 0.738693 -6.7507 0
M  V30 2841 H 260.644 2.82375 -5.92115 0
M  V30 2842 H 260.561 1.82632 -7.33608 0
M  V30 2843 H 261.829 3.00671 -7.19178 0
M  V30 2844 N 266.058 1.56714 -0.166846 0
M  V30 2845 C 267.307 1.95922 0.479318 0
M  V30 2846 C 267.62 1.05529 1.6469 0
M  V30 2847 O 268.826 1.34399 2.35901 0
M  V30 2848 C 267.282 3.48359 0.90412 0
M  V30 2849 C 266.89 4.47369 -0.237621 0
M  V30 2850 C 268.634 3.96394 1.51896 0
M  V30 2851 C 266.541 5.91039 0.206561 0
M  V30 2852 H 265.471 0.731495 0.18284 0
M  V30 2853 H 268.122 1.81728 -0.254363 0
M  V30 2854 H 266.504 3.57955 1.69365 0
M  V30 2855 H 267.678 4.49485 -1.01489 0
M  V30 2856 H 265.993 4.09366 -0.762128 0
M  V30 2857 H 268.59 5.01186 1.86325 0
M  V30 2858 H 268.933 3.39075 2.41524 0
M  V30 2859 H 269.466 3.89796 0.79395 0
M  V30 2860 H 266.205 6.52221 -0.654834 0
M  V30 2861 H 265.725 5.9224 0.949282 0
M  V30 2862 H 267.404 6.43707 0.651939 0
M  V30 2863 N 267.536 -0.106894 1.57237 0
M  V30 2864 C 268.483 -1.13049 2.01217 0
M  V30 2865 C 269.453 -1.40471 0.886403 0
M  V30 2866 O 270.638 -1.52133 1.15153 0
M  V30 2867 C 267.778 -2.4487 2.43172 0
M  V30 2868 C 266.891 -2.24281 3.69218 0
M  V30 2869 C 266.026 -3.49417 4.00101 0
M  V30 2870 C 265.065 -3.24038 5.19294 0
M  V30 2871 N 264.202 -4.41409 5.45988 0
M  V30 2872 H 269.042 -0.748456 2.88448 0
M  V30 2873 H 266.579 -0.358054 1.42676 0
M  V30 2874 H 268.537 -3.21786 2.65537 0
M  V30 2875 H 267.167 -2.80944 1.58967 0
M  V30 2876 H 266.219 -1.38224 3.54398 0
M  V30 2877 H 267.531 -2.01512 4.56283 0
M  V30 2878 H 266.685 -4.34746 4.2318 0
M  V30 2879 H 265.424 -3.75229 3.11535 0
M  V30 2880 H 264.429 -2.37102 4.96047 0
M  V30 2881 H 265.654 -2.99584 6.09447 0
M  V30 2882 H 263.6 -4.67319 4.60379 0
M  V30 2883 H 263.517 -4.21788 6.274 0
M  V30 2884 H 264.785 -5.27836 5.73593 0
M  V30 2885 N 269.014 -1.53014 -0.377408 0
M  V30 2886 C 270.244 -1.72265 -1.14054 0
M  V30 2887 C 270.652 -0.44601 -1.83868 0
M  V30 2888 O 269.995 0.590095 -1.73964 0
M  V30 2889 C 270.057 -2.82492 -2.22348 0
M  V30 2890 C 269.721 -4.23233 -1.72402 0
M  V30 2891 C 270.718 -5.05992 -1.19448 0
M  V30 2892 C 268.403 -4.696 -1.78273 0
M  V30 2893 C 270.397 -6.33203 -0.730268 0
M  V30 2894 C 268.084 -5.96792 -1.31464 0
M  V30 2895 C 269.082 -6.78424 -0.789297 0
M  V30 2896 O 268.77 -8.0323 -0.328077 0
M  V30 2897 H 268.502 -0.579873 -0.347453 0
M  V30 2898 H 271.056 -2.00502 -0.445882 0
M  V30 2899 H 269.286 -2.49702 -2.95272 0
M  V30 2900 H 270.975 -2.90034 -2.83963 0
M  V30 2901 H 271.741 -4.71349 -1.14259 0
M  V30 2902 H 267.62 -4.06142 -2.18106 0
M  V30 2903 H 271.164 -6.96868 -0.319542 0
M  V30 2904 H 267.061 -6.30937 -1.36342 0
M  V30 2905 H 267.829 -8.1727 -0.448493 0
M  V30 2906 N 270.492 0.636531 -1.44174 0
M  V30 2907 C 271.439 1.74875 -1.50624 0
M  V30 2908 C 272.409 1.62275 -0.35442 0
M  V30 2909 O 273.594 1.82276 -0.563908 0
M  V30 2910 C 270.734 3.13102 -1.45125 0
M  V30 2911 C 269.847 3.36717 -2.7064 0
M  V30 2912 C 268.982 4.64885 -2.57013 0
M  V30 2913 C 268.021 4.8166 -3.77717 0
M  V30 2914 N 267.158 6.01101 -3.62798 0
M  V30 2915 H 271.998 1.68697 -2.45653 0
M  V30 2916 H 269.535 0.823004 -1.21922 0
M  V30 2917 H 271.493 3.93034 -1.39929 0
M  V30 2918 H 270.123 3.18308 -0.536671 0
M  V30 2919 H 269.175 2.50763 -2.86046 0
M  V30 2920 H 270.487 3.44993 -3.60252 0
M  V30 2921 H 269.641 5.52969 -2.49619 0
M  V30 2922 H 268.38 4.58957 -1.64953 0
M  V30 2923 H 267.385 3.92007 -3.85501 0
M  V30 2924 H 268.61 4.89406 -4.70807 0
M  V30 2925 H 266.556 5.96273 -2.73486 0
M  V30 2926 H 266.473 6.10409 -4.46023 0
M  V30 2927 H 267.741 6.91761 -3.59286 0
M  V30 2928 N 271.97 1.30982 0.876444 0
M  V30 2929 C 273.198 1.23242 1.6619 0
M  V30 2930 C 273.613 -0.203345 1.87702 0
M  V30 2931 O 272.97 -1.13317 1.43057 0
M  V30 2932 C 273.021 1.96623 3.03351 0
M  V30 2933 O 272.742 3.34594 2.82804 0
M  V30 2934 C 274.243 1.95644 3.97792 0
M  V30 2935 H 271.463 0.426126 0.518322 0
M  V30 2936 H 274.007 1.7275 1.09442 0
M  V30 2937 H 272.162 1.50892 3.56806 0
M  V30 2938 H 272.576 3.71873 3.69879 0
M  V30 2939 H 274.05 2.51511 4.91372 0
M  V30 2940 H 274.527 0.937395 4.2908 0
M  V30 2941 H 275.133 2.41225 3.50272 0
M  V30 2942 N 273.449 -1.08991 1.13837 0
M  V30 2943 C 274.677 -1.85011 0.926202 0
M  V30 2944 C 275.092 -1.8135 -0.525127 0
M  V30 2945 O 274.449 -1.21287 -1.36366 0
M  V30 2946 C 274.5 -3.32802 1.41155 0
M  V30 2947 O 274.221 -3.36444 2.80601 0
M  V30 2948 C 275.722 -4.25649 1.23847 0
M  V30 2949 H 272.942 -0.584249 0.32999 0
M  V30 2950 H 275.486 -1.37688 1.51202 0
M  V30 2951 H 273.641 -3.77536 0.868631 0
M  V30 2952 H 274.055 -4.28657 3.02248 0
M  V30 2953 H 275.529 -5.27485 1.62675 0
M  V30 2954 H 276.006 -4.38828 0.18065 0
M  V30 2955 H 276.612 -3.86735 1.76964 0
M  V30 2956 N 274.927 -0.932562 -1.27047 0
M  V30 2957 C 276.204 -0.49377 -1.89265 0
M  V30 2958 C 276.584 1.02833 -1.8436 0
M  V30 2959 O 275.932 1.88461 -1.29209 0
M  V30 2960 C 276.142 -1.04536 -3.32976 0
M  V30 2961 C 277.49 -1.10879 -4.09867 0
M  V30 2962 O 278.514 -0.995327 -3.42011 0
M  V30 2963 O 277.373 -1.28417 -5.31198 0
M  V30 2964 H 274.467 -0.159596 -0.811454 0
M  V30 2965 H 277.013 -1.02457 -1.3528 0
M  V30 2966 H 275.785 -2.08913 -3.30864 0
M  V30 2967 H 275.408 -0.496494 -3.94488 0
M  V30 2968 N 276.405 1.4127 -0.698611 0
M  V30 2969 C 277.635 2.05205 -0.239644 0
M  V30 2970 C 278.043 1.52684 1.11733 0
M  V30 2971 O 277.386 0.671222 1.70998 0
M  V30 2972 C 277.448 3.59289 -0.123126 0
M  V30 2973 C 277.112 4.34619 -1.41263 0
M  V30 2974 C 278.109 4.63701 -2.35111 0
M  V30 2975 C 275.794 4.73837 -1.66684 0
M  V30 2976 C 277.788 5.30966 -3.52639 0
M  V30 2977 C 275.475 5.40837 -2.84498 0
M  V30 2978 C 276.473 5.69329 -3.77298 0
M  V30 2979 O 276.161 6.34949 -4.93047 0
M  V30 2980 H 275.893 0.66723 -0.108537 0
M  V30 2981 H 278.447 1.81974 -0.952602 0
M  V30 2982 H 276.677 3.81272 0.645628 0
M  V30 2983 H 278.366 4.04797 0.299056 0
M  V30 2984 H 279.132 4.33882 -2.16729 0
M  V30 2985 H 275.011 4.51039 -0.953135 0
M  V30 2986 H 278.555 5.53121 -4.25091 0
M  V30 2987 H 274.452 5.70075 -3.02795 0
M  V30 2988 H 275.22 6.53445 -4.92902 0
M  V30 2989 N 277.883 0.443576 1.51229 0
M  V30 2990 C 278.815 -0.400608 2.25672 0
M  V30 2991 C 279.828 -0.980945 1.29928 0
M  V30 2992 O 281.017 -0.874024 1.55638 0
M  V30 2993 C 278.117 -1.57304 3.00181 0
M  V30 2994 C 277.29 -1.11046 4.23069 0
M  V30 2995 C 276.349 -2.15374 4.80105 0
M  V30 2996 O 275.375 -1.74554 5.41774 0
M  V30 2997 N 276.577 -3.47922 4.64683 0
M  V30 2998 H 279.342 0.23745 2.98758 0
M  V30 2999 H 276.903 0.272809 1.59585 0
M  V30 3000 H 278.895 -2.26733 3.35223 0
M  V30 3001 H 277.465 -2.11632 2.30066 0
M  V30 3002 H 276.685 -0.243019 3.9345 0
M  V30 3003 H 277.973 -0.778888 5.02803 0
M  V30 3004 H 277.371 -3.83815 4.15575 0
M  V30 3005 H 275.928 -4.13228 5.0407 0
M  V30 3006 N 279.361 -1.56624 0.175154 0
M  V30 3007 C 280.271 -2.21741 -0.766042 0
M  V30 3008 C 281.287 -1.21023 -1.25018 0
M  V30 3009 O 282.463 -1.53697 -1.3015 0
M  V30 3010 C 279.528 -2.84839 -1.97655 0
M  V30 3011 C 278.589 -4.00769 -1.53892 0
M  V30 3012 C 277.822 -4.60849 -2.69173 0
M  V30 3013 O 278.045 -4.19823 -3.86141 0
M  V30 3014 O 276.979 -5.50655 -2.43028 0
M  V30 3015 H 280.805 -3.02738 -0.241585 0
M  V30 3016 H 278.39 -1.49305 -0.053222 0
M  V30 3017 H 280.272 -3.24834 -2.68442 0
M  V30 3018 H 278.947 -2.06836 -2.48999 0
M  V30 3019 H 277.854 -3.65436 -0.80044 0
M  V30 3020 H 279.187 -4.80376 -1.07236 0
M  V30 3021 N 280.839 0.0985539 -1.57292 0
M  V30 3022 C 282.255 0.45267 -1.53046 0
M  V30 3023 C 282.455 1.80713 -0.891342 0
M  V30 3024 O 281.511 2.4785 -0.482375 0
M  V30 3025 C 282.824 0.418341 -2.97776 0
M  V30 3026 C 284.372 0.500443 -3.08973 0
M  V30 3027 C 284.847 0.496297 -4.55303 0
M  V30 3028 N 286.338 0.557151 -4.59837 0
M  V30 3029 C 287.073 0.575726 -5.70502 0
M  V30 3030 N 286.569 0.550714 -6.90608 0
M  V30 3031 N 288.362 0.620277 -5.58667 0
M  V30 3032 H 280.513 -0.788673 -1.97215 0
M  V30 3033 H 282.776 -0.293188 -0.901524 0
M  V30 3034 H 282.482 -0.509659 -3.47988 0
M  V30 3035 H 282.356 1.2386 -3.56284 0
M  V30 3036 H 284.743 1.41886 -2.58751 0
M  V30 3037 H 284.824 -0.347894 -2.53423 0
M  V30 3038 H 284.468 -0.418162 -5.06176 0
M  V30 3039 H 284.398 1.3618 -5.08687 0
M  V30 3040 H 286.889 0.581816 -3.73394 0
M  V30 3041 H 287.202 0.568075 -7.70709 0
M  V30 3042 H 285.547 0.517816 -6.93068 0
M  V30 3043 H 288.738 0.637322 -4.63741 0
M  V30 3044 H 288.911 0.631283 -6.44918 0
M  V30 3045 N 282.317 1.53212 0.369288 0
M  V30 3046 C 283.28 1.7872 1.43498 0
M  V30 3047 C 284.28 0.657554 1.46741 0
M  V30 3048 O 285.47 0.925736 1.47566 0
M  V30 3049 C 282.602 1.90591 2.82645 0
M  V30 3050 H 283.795 2.73894 1.22156 0
M  V30 3051 H 281.348 1.44233 0.602203 0
M  V30 3052 H 282.083 0.974709 3.09306 0
M  V30 3053 H 281.868 2.72751 2.8169 0
M  V30 3054 H 283.358 2.11931 3.59826 0
M  V30 3055 N 283.795 -0.628877 1.44509 0
M  V30 3056 C 285.025 -1.41349 1.50678 0
M  V30 3057 C 285.433 -1.88745 0.131075 0
M  V30 3058 O 284.776 -1.61592 -0.87371 0
M  V30 3059 C 284.838 -2.66608 2.41165 0
M  V30 3060 C 284.502 -2.40993 3.88293 0
M  V30 3061 C 285.499 -2.0268 4.78766 0
M  V30 3062 C 283.184 -2.54563 4.33016 0
M  V30 3063 C 285.178 -1.78269 6.11963 0
M  V30 3064 C 282.865 -2.29766 5.6626 0
M  V30 3065 C 283.863 -1.91678 6.55552 0
M  V30 3066 O 283.551 -1.67158 7.86329 0
M  V30 3067 H 283.283 -0.439851 0.51333 0
M  V30 3068 H 285.837 -0.776084 1.90174 0
M  V30 3069 H 284.067 -3.32994 1.96601 0
M  V30 3070 H 285.756 -3.28615 2.38259 0
M  V30 3071 H 286.522 -1.91751 4.45485 0
M  V30 3072 H 282.401 -2.83179 3.63773 0
M  V30 3073 H 285.945 -1.48465 6.81619 0
M  V30 3074 H 281.842 -2.40306 5.99102 0
M  V30 3075 H 282.61 -1.81386 7.98149 0
M  V30 3076 N 285.273 -1.31445 -0.869486 0
M  V30 3077 C 286.205 -1.14955 -1.98287 0
M  V30 3078 C 287.218 -0.0885037 -1.62559 0
M  V30 3079 O 288.407 -0.336044 -1.75308 0
M  V30 3080 C 285.507 -0.734255 -3.3085 0
M  V30 3081 C 284.68 -1.88042 -3.94917 0
M  V30 3082 C 283.739 -1.4511 -5.05796 0
M  V30 3083 O 282.765 -2.16082 -5.2659 0
M  V30 3084 N 283.967 -0.338763 -5.79511 0
M  V30 3085 H 286.732 -2.10856 -2.12979 0
M  V30 3086 H 284.293 -1.23786 -1.04349 0
M  V30 3087 H 286.285 -0.42975 -4.02412 0
M  V30 3088 H 284.855 0.133158 -3.12316 0
M  V30 3089 H 284.075 -2.35222 -3.1633 0
M  V30 3090 H 285.363 -2.6481 -4.34457 0
M  V30 3091 H 284.761 0.252274 -5.65137 0
M  V30 3092 H 283.318 -0.0937925 -6.51733 0
M  V30 3093 N 286.751 1.08385 -1.14413 0
M  V30 3094 C 287.979 1.84517 -0.936001 0
M  V30 3095 C 288.394 1.81626 0.515503 0
M  V30 3096 O 287.751 1.22008 1.35721 0
M  V30 3097 C 287.802 3.32049 -1.42918 0
M  V30 3098 O 287.523 3.34951 -2.82381 0
M  V30 3099 C 289.024 4.24986 -1.26103 0
M  V30 3100 H 286.244 0.582491 -0.333084 0
M  V30 3101 H 288.788 1.36885 -1.5193 0
M  V30 3102 H 286.943 3.7707 -0.888641 0
M  V30 3103 H 287.357 4.27048 -3.04517 0
M  V30 3104 H 288.831 5.26615 -1.6547 0
M  V30 3105 H 289.308 4.38726 -0.20392 0
M  V30 3106 H 289.914 3.85791 -1.79012 0
M  V30 3107 N 288.23 0.939286 1.26551 0
M  V30 3108 C 289.16 0.465044 2.28822 0
M  V30 3109 C 290.141 -0.480692 1.63167 0
M  V30 3110 O 291.326 -0.382955 1.90387 0
M  V30 3111 C 288.456 -0.27234 3.46231 0
M  V30 3112 C 287.41 0.58666 4.2396 0
M  V30 3113 C 286.736 -0.280573 5.33963 0
M  V30 3114 C 288.036 1.85704 4.88171 0
M  V30 3115 H 289.73 1.31979 2.68741 0
M  V30 3116 H 287.276 0.636061 1.29191 0
M  V30 3117 H 289.229 -0.615133 4.16886 0
M  V30 3118 H 287.953 -1.16121 3.0526 0
M  V30 3119 H 286.612 0.91232 3.55067 0
M  V30 3120 H 286.26 -1.16874 4.89234 0
M  V30 3121 H 285.96 0.29076 5.8688 0
M  V30 3122 H 287.484 -0.618678 6.07458 0
M  V30 3123 H 288.898 1.58161 5.51052 0
M  V30 3124 H 287.295 2.37279 5.51197 0
M  V30 3125 H 288.365 2.56957 4.11219 0
M  V30 3126 N 289.708 -1.40897 0.706093 0
M  V30 3127 C 290.655 -2.30751 0.0474474 0
M  V30 3128 C 291.625 -1.47678 -0.76029 0
M  V30 3129 O 292.81 -1.76441 -0.726177 0
M  V30 3130 C 289.95 -3.33815 -0.875309 0
M  V30 3131 C 289.063 -4.31961 -0.0580623 0
M  V30 3132 C 288.198 -5.22093 -0.979425 0
M  V30 3133 C 287.237 -6.11902 -0.155706 0
M  V30 3134 N 286.374 -6.94482 -1.03144 0
M  V30 3135 H 291.214 -2.86513 0.819413 0
M  V30 3136 H 288.751 -1.41102 0.415783 0
M  V30 3137 H 290.709 -3.92129 -1.42446 0
M  V30 3138 H 289.339 -2.79579 -1.61356 0
M  V30 3139 H 288.391 -3.75507 0.608147 0
M  V30 3140 H 289.703 -4.95415 0.580082 0
M  V30 3141 H 288.857 -5.85292 -1.59744 0
M  V30 3142 H 287.596 -4.5889 -1.65141 0
M  V30 3143 H 286.601 -5.47742 0.475309 0
M  V30 3144 H 287.826 -6.77162 0.512635 0
M  V30 3145 H 285.772 -6.33877 -1.68924 0
M  V30 3146 H 285.689 -7.54665 -0.449108 0
M  V30 3147 H 286.957 -7.6214 -1.63593 0
M  V30 3148 N 291.186 -0.45159 -1.50991 0
M  V30 3149 C 292.116 0.342898 -2.30969 0
M  V30 3150 C 293.097 1.00815 -1.37005 0
M  V30 3151 O 294.282 1.00907 -1.65926 0
M  V30 3152 C 291.412 1.43637 -3.16205 0
M  V30 3153 C 290.366 0.893818 -4.18563 0
M  V30 3154 C 289.692 2.08411 -4.92411 0
M  V30 3155 C 290.992 -0.0815568 -5.22236 0
M  V30 3156 H 292.686 -0.324556 -2.97636 0
M  V30 3157 H 290.232 -0.157531 -1.43136 0
M  V30 3158 H 292.185 1.9995 -3.70942 0
M  V30 3159 H 290.909 2.13232 -2.47386 0
M  V30 3160 H 289.568 0.352798 -3.64898 0
M  V30 3161 H 289.216 2.76658 -4.20082 0
M  V30 3162 H 288.916 1.72741 -5.61636 0
M  V30 3163 H 290.44 2.65251 -5.49976 0
M  V30 3164 H 291.854 0.391742 -5.7196 0
M  V30 3165 H 290.251 -0.351551 -5.99069 0
M  V30 3166 H 291.321 -1.01374 -4.74185 0
M  V30 3167 N 292.664 1.56529 -0.183458 0
M  V30 3168 C 293.913 1.96419 0.458511 0
M  V30 3169 C 294.226 1.0727 1.63562 0
M  V30 3170 O 295.432 1.36893 2.34462 0
M  V30 3171 C 293.888 3.49298 0.867122 0
M  V30 3172 C 293.496 4.47092 -0.285057 0
M  V30 3173 C 295.24 3.97983 1.47683 0
M  V30 3174 C 293.147 5.91225 0.143862 0
M  V30 3175 H 292.077 0.733394 0.175071 0
M  V30 3176 H 294.728 1.81448 -0.273624 0
M  V30 3177 H 293.11 3.59731 1.65559 0
M  V30 3178 H 294.284 4.48383 -1.0625 0
M  V30 3179 H 292.599 4.08535 -0.805503 0
M  V30 3180 H 295.196 5.03134 1.80999 0
M  V30 3181 H 295.539 3.41618 2.37914 0
M  V30 3182 H 296.072 3.90617 0.752562 0
M  V30 3183 H 292.811 6.5149 -0.723974 0
M  V30 3184 H 292.331 5.93214 0.886413 0
M  V30 3185 H 294.01 6.44362 0.583628 0
M  V30 3186 N 294.142 -0.090211 1.57342 0
M  V30 3187 C 295.072 -1.10976 2.05443 0
M  V30 3188 C 296.053 -1.41482 0.944284 0
M  V30 3189 O 297.238 -1.51428 1.21586 0
M  V30 3190 C 294.368 -2.42831 2.48295 0
M  V30 3191 C 293.322 -2.26721 3.63018 0
M  V30 3192 C 292.648 -3.63796 3.91863 0
M  V30 3193 C 293.948 -1.7037 4.93732 0
M  V30 3194 H 295.642 -0.709564 2.9087 0
M  V30 3195 H 293.188 -0.339874 1.39932 0
M  V30 3196 H 295.141 -3.14431 2.80555 0
M  V30 3197 H 293.865 -2.84795 1.59873 0
M  V30 3198 H 292.524 -1.57565 3.31012 0
M  V30 3199 H 292.172 -4.03297 3.00601 0
M  V30 3200 H 291.872 -3.53861 4.69101 0
M  V30 3201 H 293.396 -4.36855 4.26603 0
M  V30 3202 H 294.81 -2.31816 5.24342 0
M  V30 3203 H 293.207 -1.71181 5.75167 0
M  V30 3204 H 294.277 -0.663542 4.80339 0
M  V30 3205 N 295.62 -1.53406 -0.361157 0
M  V30 3206 C 296.53 -1.83122 -1.4664 0
M  V30 3207 C 297.546 -0.719943 -1.58407 0
M  V30 3208 O 298.722 -1.01046 -1.74218 0
M  V30 3209 C 295.787 -2.01891 -2.81853 0
M  V30 3210 C 294.848 -3.25784 -2.79577 0
M  V30 3211 C 294.081 -3.43648 -4.0834 0
M  V30 3212 O 294.304 -2.65714 -5.0473 0
M  V30 3213 O 293.238 -4.37018 -4.13883 0
M  V30 3214 H 297.064 -2.7703 -1.24451 0
M  V30 3215 H 294.649 -1.38841 -0.551678 0
M  V30 3216 H 296.531 -2.15782 -3.61962 0
M  V30 3217 H 295.206 -1.11173 -3.0401 0
M  V30 3218 H 294.113 -3.17312 -1.98151 0
M  V30 3219 H 295.446 -4.16439 -2.62373 0
M  V30 3220 N 297.098 0.621204 -1.44841 0
M  V30 3221 C 298.046 1.75385 -1.52784 0
M  V30 3222 C 299.04 1.64639 -0.398779 0
M  V30 3223 O 300.246 1.70598 -0.574137 0
M  V30 3224 H 296.621 0.579193 -0.479625 0
M  V30 3225 H 298.592 1.6581 -2.48092 0
M  V30 3226 C 297.341 3.13742 -1.4987 0
M  V30 3227 H 296.664 3.22663 -2.36069 0
M  V30 3228 H 298.104 3.92861 -1.59487 0
M  V30 3229 C 296.563 3.36175 -0.220973 0
M  V30 3230 O 297.093 3.95469 0.704782 0
M  V30 3231 N 295.299 2.90348 -0.120963 0
M  V30 3232 H 294.846 2.42278 -0.875162 0
M  V30 3233 H 294.804 3.05732 0.733168 0
M  V30 3234 N 298.576 1.31904 0.862503 0
M  V30 3235 C 299.806 1.24817 1.64634 0
M  V30 3236 C 300.214 -0.187579 1.88268 0
M  V30 3237 O 299.557 -1.13253 1.44635 0
M  V30 3238 C 299.619 1.92996 3.03303 0
M  V30 3239 C 299.283 3.42336 3.02746 0
M  V30 3240 C 300.28 4.37956 2.80162 0
M  V30 3241 C 297.965 3.84147 3.2363 0
M  V30 3242 C 299.959 5.73361 2.78453 0
M  V30 3243 C 297.646 5.19663 3.21549 0
M  V30 3244 C 298.644 6.14081 2.98988 0
M  V30 3245 O 298.332 7.47118 2.96766 0
M  V30 3246 H 298.064 0.432222 0.519769 0
M  V30 3247 H 300.618 1.7445 1.08427 0
M  V30 3248 H 298.848 1.37922 3.61268 0
M  V30 3249 H 300.537 1.79723 3.63943 0
M  V30 3250 H 301.303 4.06981 2.63802 0
M  V30 3251 H 297.182 3.11083 3.40218 0
M  V30 3252 H 300.726 6.4703 2.60763 0
M  V30 3253 H 296.623 5.5027 3.37451 0
M  V30 3254 H 297.391 7.56382 3.12775 0
M  V30 3255 N 300.054 -1.07777 1.14986 0
M  V30 3256 C 301.331 -1.7699 0.832695 0
M  V30 3257 C 301.711 -2.001 -0.672561 0
M  V30 3258 O 301.059 -1.61598 -1.6155 0
M  V30 3259 C 301.269 -3.08139 1.63863 0
M  V30 3260 C 302.617 -3.8256 1.84208 0
M  V30 3261 O 303.641 -3.17939 1.60603 0
M  V30 3262 O 302.5 -4.98612 2.23714 0
M  V30 3263 H 299.594 -0.768389 0.305791 0
M  V30 3264 H 302.14 -1.14182 1.25541 0
M  V30 3265 H 300.912 -2.86909 2.6608 0
M  V30 3266 H 300.535 -3.78678 1.21197 0
M  V30 3267 N 301.532 -0.945985 -1.26051 0
M  V30 3268 C 302.757 -0.612525 -1.98149 0
M  V30 3269 C 303.182 0.806623 -1.69927 0
M  V30 3270 O 302.54 1.54411 -0.950108 0
M  V30 3271 C 302.588 -0.866981 -3.50023 0
M  V30 3272 O 301.692 0.0585333 -4.12358 0
M  V30 3273 H 301.033 -0.23379 -0.621481 0
M  V30 3274 H 303.563 -1.27023 -1.60395 0
M  V30 3275 H 303.573 -0.789792 -4.00283 0
M  V30 3276 H 302.248 -1.90135 -3.69894 0
M  V30 3277 H 300.825 -0.0701241 -3.72834 0
M  V30 3278 N 303.011 1.40521 -0.713556 0
M  V30 3279 C 303.921 2.34522 -0.0606667 0
M  V30 3280 C 304.937 1.57193 0.74607 0
M  V30 3281 O 306.113 1.89591 0.679493 0
M  V30 3282 C 303.178 3.36081 0.851491 0
M  V30 3283 C 302.239 4.29286 0.0349339 0
M  V30 3284 C 301.472 5.25994 0.903649 0
M  V30 3285 O 301.695 5.28616 2.14292 0
M  V30 3286 O 300.629 6.00918 0.343723 0
M  V30 3287 H 304.455 2.91968 -0.835972 0
M  V30 3288 H 302.04 1.41681 -0.47402 0
M  V30 3289 H 303.922 3.98369 1.37404 0
M  V30 3290 H 302.597 2.81052 1.60598 0
M  V30 3291 H 301.504 3.70289 -0.532633 0
M  V30 3292 H 302.837 4.87462 -0.681287 0
M  V30 3293 N 304.489 0.459591 1.5075 0
M  V30 3294 C 305.439 -0.358926 2.25157 0
M  V30 3295 C 306.423 -0.971285 1.28276 0
M  V30 3296 O 307.615 -0.885739 1.53244 0
M  V30 3297 C 304.744 -1.44695 3.11317 0
M  V30 3298 C 303.83 -0.842894 4.15639 0
M  V30 3299 N 304.221 0.0299373 5.05791 0
M  V30 3300 C 302.519 -1.10809 4.32015 0
M  V30 3301 C 303.22 0.371563 5.80512 0
M  V30 3302 N 302.196 -0.250409 5.43023 0
M  V30 3303 H 305.998 0.313636 2.92222 0
M  V30 3304 H 303.512 0.273021 1.60089 0
M  V30 3305 H 305.509 -2.04641 3.63218 0
M  V30 3306 H 304.169 -2.12162 2.45799 0
M  V30 3307 H 305.18 0.39797 5.16369 0
M  V30 3308 H 301.857 -1.7786 3.77719 0
M  V30 3309 H 303.247 1.08319 6.63111 0
M  V30 3310 N 305.967 -1.56429 0.191757 0
M  V30 3311 C 307.214 -1.97485 -0.447891 0
M  V30 3312 C 307.542 -1.07852 -1.61859 0
M  V30 3313 O 306.797 -0.116903 -1.95351 0
M  V30 3314 C 307.096 -3.44449 -0.953384 0
M  V30 3315 C 306.762 -4.50781 0.103586 0
M  V30 3316 C 305.424 -4.79584 0.394023 0
M  V30 3317 C 307.776 -5.1471 0.819946 0
M  V30 3318 C 305.104 -5.69607 1.40585 0
M  V30 3319 C 307.456 -6.05827 1.8209 0
M  V30 3320 C 306.12 -6.32987 2.11857 0
M  V30 3321 H 305.39 -0.722648 -0.163895 0
M  V30 3322 H 308.037 -1.89322 0.28802 0
M  V30 3323 H 306.342 -3.49666 -1.76751 0
M  V30 3324 H 308.039 -3.73569 -1.45765 0
M  V30 3325 H 304.629 -4.28394 -0.132951 0
M  V30 3326 H 308.813 -4.92552 0.608789 0
M  V30 3327 H 304.069 -5.88926 1.64243 0
M  V30 3328 H 308.243 -6.54424 2.38123 0
M  V30 3329 H 305.87 -7.02544 2.90407 0
M  V30 3330 N 307.445 0.0818655 -1.57387 0
M  V30 3331 C 308.355 1.11642 -2.06333 0
M  V30 3332 C 309.371 1.43033 -0.99083 0
M  V30 3333 O 310.547 1.53411 -1.30488 0
M  V30 3334 C 307.612 2.41342 -2.48907 0
M  V30 3335 C 306.673 2.17014 -3.7041 0
M  V30 3336 C 305.906 3.4053 -4.10944 0
M  V30 3337 O 306.129 4.4927 -3.51444 0
M  V30 3338 O 305.063 3.29336 -5.03807 0
M  V30 3339 H 308.889 0.730657 -2.9478 0
M  V30 3340 H 306.474 0.295301 -1.46452 0
M  V30 3341 H 308.356 3.17691 -2.76858 0
M  V30 3342 H 307.031 2.79319 -1.63593 0
M  V30 3343 H 305.938 1.38403 -3.47556 0
M  V30 3344 H 307.271 1.83923 -4.56545 0
M  V30 3345 N 308.923 1.53595 0.353017 0
M  V30 3346 C 309.87 1.80919 1.43308 0
M  V30 3347 C 310.84 0.654288 1.5267 0
M  V30 3348 O 312.025 0.897759 1.6836 0
M  V30 3349 C 309.165 2.01605 2.80089 0
M  V30 3350 C 308.278 3.29321 2.79593 0
M  V30 3351 C 307.413 3.40125 4.0803 0
M  V30 3352 C 306.452 4.61826 4.01725 0
M  V30 3353 N 305.589 4.69716 5.21834 0
M  V30 3354 H 310.429 2.73074 1.19308 0
M  V30 3355 H 307.966 1.35263 0.578131 0
M  V30 3356 H 309.924 2.11586 3.59565 0
M  V30 3357 H 308.554 1.12772 3.0246 0
M  V30 3358 H 307.606 3.28229 1.92276 0
M  V30 3359 H 308.918 4.18884 2.70809 0
M  V30 3360 H 308.072 3.49488 4.95927 0
M  V30 3361 H 306.811 2.48601 4.19582 0
M  V30 3362 H 305.816 4.52552 3.12213 0
M  V30 3363 H 307.041 5.54705 3.91764 0
M  V30 3364 H 304.987 3.81097 5.33948 0
M  V30 3365 H 304.904 5.53202 5.1527 0
M  V30 3366 H 306.172 4.83376 6.11529 0
M  V30 3367 N 310.401 -0.613514 1.45168 0
M  V30 3368 C 311.334 -1.73809 1.47871 0
M  V30 3369 C 312.312 -1.59097 0.33568 0
M  V30 3370 O 313.496 -1.8074 0.535299 0
M  V30 3371 C 310.623 -3.11574 1.32813 0
M  V30 3372 C 309.669 -3.4489 2.50905 0
M  V30 3373 S 310.502 -3.40393 4.13392 0
M  V30 3374 C 311.658 -4.80749 4.00789 0
M  V30 3375 H 311.891 -1.71252 2.43023 0
M  V30 3376 H 309.424 -0.789658 1.32679 0
M  V30 3377 H 311.382 -3.91065 1.24812 0
M  V30 3378 H 310.043 -3.11652 0.391418 0
M  V30 3379 H 309.236 -4.45183 2.36279 0
M  V30 3380 H 308.838 -2.72901 2.55736 0
M  V30 3381 H 311.13 -5.7041 3.65567 0
M  V30 3382 H 312.073 -5.00431 5.00974 0
M  V30 3383 H 312.481 -4.56151 3.32545 0
M  V30 3384 N 311.879 -1.3236 -0.855495 0
M  V30 3385 C 313.109 -1.25688 -1.6397 0
M  V30 3386 C 313.517 0.177592 -1.88365 0
M  V30 3387 O 312.86 1.12485 -1.45234 0
M  V30 3388 C 312.922 -1.94602 -3.02275 0
M  V30 3389 C 312.586 -3.43937 -3.00926 0
M  V30 3390 C 313.583 -4.39435 -2.77835 0
M  V30 3391 C 311.268 -3.85858 -3.21588 0
M  V30 3392 C 313.262 -5.74829 -2.75409 0
M  V30 3393 C 310.949 -5.21361 -3.18789 0
M  V30 3394 C 311.947 -6.15658 -2.95727 0
M  V30 3395 O 311.635 -7.48681 -2.928 0
M  V30 3396 H 311.367 -0.434972 -0.51747 0
M  V30 3397 H 313.921 -1.75023 -1.075 0
M  V30 3398 H 312.151 -1.39836 -3.60531 0
M  V30 3399 H 313.84 -1.81651 -3.62985 0
M  V30 3400 H 314.606 -4.08374 -2.6164 0
M  V30 3401 H 310.485 -3.12883 -3.38564 0
M  V30 3402 H 314.029 -6.48404 -2.57328 0
M  V30 3403 H 309.926 -5.52052 -3.34528 0
M  V30 3404 H 310.694 -7.5803 -3.0876 0
M  V30 3405 N 313.357 1.07166 -1.15556 0
M  V30 3406 C 314.603 1.80222 -0.942961 0
M  V30 3407 C 314.958 1.85121 0.524209 0
M  V30 3408 O 314.251 1.32531 1.38369 0
M  V30 3409 C 314.445 3.24707 -1.49332 0
M  V30 3410 C 314.274 3.33887 -3.01247 0
M  V30 3411 C 313.044 3.44337 -3.69811 0
M  V30 3412 C 315.242 3.24484 -3.99017 0
M  V30 3413 N 313.224 3.42439 -5.09518 0
M  V30 3414 C 314.595 3.29726 -5.25053 0
M  V30 3415 C 316.65 3.08307 -3.90962 0
M  V30 3416 C 315.353 3.20455 -6.43973 0
M  V30 3417 C 317.379 3.00371 -5.09442 0
M  V30 3418 C 316.741 3.06227 -6.34354 0
M  V30 3419 H 312.84 0.672709 -0.398731 0
M  V30 3420 H 315.424 1.27905 -1.46794 0
M  V30 3421 H 313.595 3.7544 -0.994946 0
M  V30 3422 H 315.327 3.85894 -1.21935 0
M  V30 3423 H 312.082 3.48762 -3.20409 0
M  V30 3424 H 312.506 3.45013 -5.8249 0
M  V30 3425 H 317.148 3.02633 -2.95251 0
M  V30 3426 H 314.866 3.24888 -7.39914 0
M  V30 3427 H 318.452 2.88955 -5.04971 0
M  V30 3428 H 317.332 3.00132 -7.24493 0
M  V30 3429 N 314.835 0.952656 1.25548 0
M  V30 3430 C 315.745 0.47782 2.29682 0
M  V30 3431 C 316.761 -0.453859 1.67977 0
M  V30 3432 O 317.937 -0.330587 1.98668 0
M  V30 3433 C 315.002 -0.238655 3.45878 0
M  V30 3434 C 314.063 0.730994 4.23031 0
M  V30 3435 C 313.296 0.0486165 5.33678 0
M  V30 3436 O 313.519 -1.16612 5.58353 0
M  V30 3437 O 312.453 0.733152 5.97418 0
M  V30 3438 H 316.279 1.34312 2.72386 0
M  V30 3439 H 313.864 0.719026 1.30959 0
M  V30 3440 H 315.746 -0.641774 4.16484 0
M  V30 3441 H 314.421 -1.07916 3.05181 0
M  V30 3442 H 313.328 1.18428 3.5486 0
M  V30 3443 H 314.661 1.53946 4.67506 0
M  V30 3444 N 316.313 -1.40141 0.720998 0
M  V30 3445 C 317.26 -2.30688 0.071919 0
M  V30 3446 C 318.23 -1.48476 -0.744584 0
M  V30 3447 O 319.415 -1.77201 -0.707423 0
M  V30 3448 C 316.555 -3.34724 -0.839855 0
M  V30 3449 C 315.668 -4.31998 -0.0122438 0
M  V30 3450 C 314.803 -5.23102 -0.923995 0
M  V30 3451 C 313.842 -6.12033 -0.0907969 0
M  V30 3452 N 312.979 -6.95537 -0.957718 0
M  V30 3453 H 317.819 -2.85628 0.849755 0
M  V30 3454 H 315.356 -1.40653 0.430726 0
M  V30 3455 H 317.314 -3.93618 -1.38279 0
M  V30 3456 H 315.944 -2.81274 -1.58381 0
M  V30 3457 H 314.996 -3.74841 0.64794 0
M  V30 3458 H 316.308 -4.94772 0.632595 0
M  V30 3459 H 315.462 -5.86953 -1.53527 0
M  V30 3460 H 314.201 -4.60615 -1.60264 0
M  V30 3461 H 313.206 -5.47207 0.533377 0
M  V30 3462 H 314.431 -6.76581 0.584428 0
M  V30 3463 H 312.377 -6.35633 -1.62192 0
M  V30 3464 H 312.294 -7.55099 -0.36904 0
M  V30 3465 H 313.562 -7.63832 -1.555 0
M  V30 3466 N 317.792 -0.46758 -1.50504 0
M  V30 3467 C 318.739 0.328413 -2.28452 0
M  V30 3468 C 319.709 0.990313 -1.33349 0
M  V30 3469 O 320.894 1.00343 -1.62284 0
M  V30 3470 C 318.034 1.40648 -3.15138 0
M  V30 3471 C 317.147 0.759709 -4.25267 0
M  V30 3472 C 316.282 1.81537 -4.99217 0
M  V30 3473 C 315.321 1.14866 -6.01226 0
M  V30 3474 N 314.458 2.14702 -6.68467 0
M  V30 3475 H 319.298 -0.342603 -2.96024 0
M  V30 3476 H 316.835 -0.180801 -1.45985 0
M  V30 3477 H 318.793 2.04315 -3.63746 0
M  V30 3478 H 317.423 2.04671 -2.49619 0
M  V30 3479 H 316.475 0.0105671 -3.80399 0
M  V30 3480 H 317.787 0.233243 -4.98254 0
M  V30 3481 H 316.941 2.52793 -5.51526 0
M  V30 3482 H 315.68 2.37564 -4.25928 0
M  V30 3483 H 314.685 0.42171 -5.4818 0
M  V30 3484 H 315.91 0.595334 -6.76485 0
M  V30 3485 H 313.856 2.69752 -5.97972 0
M  V30 3486 H 313.773 1.6703 -7.37317 0
M  V30 3487 H 315.041 2.85348 -7.25394 0
M  V30 3488 N 319.27 1.56325 -0.20005 0
M  V30 3489 C 320.686 1.58839 0.155716 0
M  V30 3490 C 320.886 1.21636 1.60645 0
M  V30 3491 O 319.942 0.941437 2.34293 0
M  V30 3492 C 321.255 3.0032 -0.151124 0
M  V30 3493 C 322.803 3.12866 -0.0916284 0
M  V30 3494 C 323.278 4.56488 -0.371845 0
M  V30 3495 N 324.769 4.62089 -0.320641 0
M  V30 3496 C 325.504 5.71116 -0.511243 0
M  V30 3497 N 325 6.88592 -0.762461 0
M  V30 3498 N 326.793 5.60335 -0.445157 0
M  V30 3499 H 318.944 1.78788 -1.14668 0
M  V30 3500 H 321.207 0.829996 -0.458051 0
M  V30 3501 H 320.913 3.32117 -1.15721 0
M  V30 3502 H 320.787 3.73257 0.543986 0
M  V30 3503 H 323.174 2.80878 0.905065 0
M  V30 3504 H 323.255 2.42304 -0.81989 0
M  V30 3505 H 322.899 4.89189 -1.36588 0
M  V30 3506 H 322.829 5.25246 0.377362 0
M  V30 3507 H 325.32 3.77665 -0.13329 0
M  V30 3508 H 325.633 7.67581 -0.896576 0
M  V30 3509 H 323.978 6.90387 -0.799412 0
M  V30 3510 H 327.169 4.67436 -0.249278 0
M  V30 3511 H 327.342 6.45243 -0.597116 0
M  V30 3512 N 320.748 -0.0735177 1.57428 0
M  V30 3513 C 321.678 -1.0879 2.06608 0
M  V30 3514 C 322.659 -1.40473 0.959237 0
M  V30 3515 O 323.844 -1.5013 1.23185 0
M  V30 3516 C 320.974 -2.40183 2.50857 0
M  V30 3517 C 319.928 -2.22858 3.65402 0
M  V30 3518 C 319.254 -3.59619 3.957 0
M  V30 3519 C 320.554 -1.65123 4.95511 0
M  V30 3520 H 322.248 -0.678673 2.91607 0
M  V30 3521 H 319.794 -0.325013 1.40284 0
M  V30 3522 H 321.747 -3.11437 2.83874 0
M  V30 3523 H 320.471 -2.83083 1.62885 0
M  V30 3524 H 319.13 -1.54045 3.32664 0
M  V30 3525 H 318.778 -4.00086 3.04861 0
M  V30 3526 H 318.478 -3.48866 4.72828 0
M  V30 3527 H 320.002 -4.32306 4.31212 0
M  V30 3528 H 321.416 -2.26241 5.26771 0
M  V30 3529 H 319.813 -1.65071 5.7695 0
M  V30 3530 H 320.883 -0.612559 4.81015 0
M  V30 3531 N 322.226 -1.5378 -0.344866 0
M  V30 3532 C 323.473 -1.70963 -1.08526 0
M  V30 3533 C 323.801 -0.472126 -1.88683 0
M  V30 3534 O 323.056 0.546116 -1.87926 0
M  V30 3535 C 323.355 -2.92407 -2.05506 0
M  V30 3536 C 323.021 -4.28066 -1.41671 0
M  V30 3537 C 321.683 -4.64951 -1.2399 0
M  V30 3538 C 324.035 -5.12344 -0.956726 0
M  V30 3539 C 321.363 -5.83733 -0.589277 0
M  V30 3540 C 323.715 -6.3179 -0.320015 0
M  V30 3541 C 322.379 -6.67372 -0.130881 0
M  V30 3542 H 321.649 -0.625598 -0.397124 0
M  V30 3543 H 324.296 -1.87995 -0.36469 0
M  V30 3544 H 322.601 -2.69973 -2.8394 0
M  V30 3545 H 324.298 -3.02895 -2.62784 0
M  V30 3546 H 320.888 -3.99034 -1.56429 0
M  V30 3547 H 325.072 -4.8438 -1.08118 0
M  V30 3548 H 320.328 -6.09877 -0.431344 0
M  V30 3549 H 324.502 -6.96386 0.0445072 0
M  V30 3550 H 322.129 -7.59273 0.375318 0
M  V30 3551 N 323.704 0.605807 -1.45491 0
M  V30 3552 C 324.614 1.74466 -1.56839 0
M  V30 3553 C 325.63 1.68006 -0.452772 0
M  V30 3554 O 326.806 1.8833 -0.713708 0
M  V30 3555 C 323.871 3.10931 -1.53371 0
M  V30 3556 C 322.932 3.28832 -2.75986 0
M  V30 3557 C 322.165 4.58787 -2.72673 0
M  V30 3558 O 322.388 5.4122 -1.80102 0
M  V30 3559 O 321.322 4.79438 -3.63899 0
M  V30 3560 H 325.148 1.67843 -2.53106 0
M  V30 3561 H 322.733 0.770108 -1.28022 0
M  V30 3562 H 324.615 3.92233 -1.54051 0
M  V30 3563 H 323.29 3.18042 -0.602572 0
M  V30 3564 H 322.197 2.47112 -2.80867 0
M  V30 3565 H 323.53 3.26599 -3.68231 0
M  V30 3566 N 325.182 1.32811 0.848464 0
M  V30 3567 C 326.145 1.22194 1.9391 0
M  V30 3568 C 327.145 0.143404 1.60159 0
M  V30 3569 O 328.335 0.394253 1.6968 0
M  V30 3570 C 325.467 0.88067 3.29328 0
M  V30 3571 H 326.66 2.19127 2.04752 0
M  V30 3572 H 324.213 1.16731 1.0394 0
M  V30 3573 H 324.948 -0.0865776 3.24184 0
M  V30 3574 H 324.733 1.66052 3.55203 0
M  V30 3575 H 326.223 0.830871 4.09251 0
M  V30 3576 N 326.66 -1.06551 1.16123 0
M  V30 3577 C 327.608 -2.16063 0.861371 0
M  V30 3578 C 328.602 -1.6856 -0.168517 0
M  V30 3579 O 329.808 -1.79986 -0.0227579 0
M  V30 3580 H 326.183 -0.705278 0.260934 0
M  V30 3581 H 328.154 -2.38567 1.79244 0
M  V30 3582 C 326.903 -3.45661 0.376018 0
M  V30 3583 H 326.226 -3.82604 1.15992 0
M  V30 3584 H 327.666 -4.23504 0.204951 0
M  V30 3585 C 326.125 -3.24546 -0.903954 0
M  V30 3586 O 326.655 -3.49865 -1.97377 0
M  V30 3587 N 324.861 -2.77992 -0.846679 0
M  V30 3588 H 324.408 -2.57589 0.0241017 0
M  V30 3589 H 324.366 -2.64244 -1.70359 0
M  V30 3590 N 328.138 -0.959301 -1.25041 0
M  V30 3591 C 329.363 -0.633507 -1.97488 0
M  V30 3592 C 329.788 0.788555 -1.70773 0
M  V30 3593 O 329.146 1.53394 -0.966431 0
M  V30 3594 C 329.194 -0.904057 -3.49083 0
M  V30 3595 O 328.298 0.0147939 -4.12397 0
M  V30 3596 H 327.639 -0.240368 -0.618966 0
M  V30 3597 H 330.169 -1.28717 -1.59038 0
M  V30 3598 H 330.179 -0.832203 -3.99423 0
M  V30 3599 H 328.854 -1.94048 -3.67856 0
M  V30 3600 H 327.431 -0.109664 -3.72739 0
M  V30 3601 N 329.616 1.39756 -0.72842 0
M  V30 3602 C 330.546 2.33289 -0.0991354 0
M  V30 3603 C 331.527 1.53568 0.731489 0
M  V30 3604 O 332.712 1.81987 0.677807 0
M  V30 3605 C 329.842 3.3763 0.813834 0
M  V30 3606 C 328.796 4.2791 0.0878663 0
M  V30 3607 C 328.122 5.22894 1.11741 0
M  V30 3608 C 329.422 5.11314 -1.06563 0
M  V30 3609 H 331.116 2.86163 -0.880408 0
M  V30 3610 H 328.662 1.37591 -0.424819 0
M  V30 3611 H 330.615 4.0201 1.26355 0
M  V30 3612 H 329.339 2.83181 1.62715 0
M  V30 3613 H 327.998 3.65 -0.342159 0
M  V30 3614 H 327.646 4.64744 1.92412 0
M  V30 3615 H 327.346 5.84143 0.636477 0
M  V30 3616 H 328.87 5.90151 1.56697 0
M  V30 3617 H 330.284 5.69076 -0.694671 0
M  V30 3618 H 328.681 5.81671 -1.47577 0
M  V30 3619 H 329.751 4.46534 -1.89038 0
M  V30 3620 N 331.094 0.475555 1.50254 0
M  V30 3621 C 332.004 -0.321501 2.32387 0
M  V30 3622 C 333.02 -0.991755 1.42969 0
M  V30 3623 O 334.196 -0.978747 1.76018 0
M  V30 3624 C 331.261 -1.38667 3.17762 0
M  V30 3625 C 330.322 -0.732538 4.23004 0
M  V30 3626 C 329.555 -1.74695 5.04299 0
M  V30 3627 O 329.778 -2.97399 4.86734 0
M  V30 3628 O 328.712 -1.31631 5.8733 0
M  V30 3629 H 332.538 0.350071 3.01676 0
M  V30 3630 H 330.123 0.237321 1.47503 0
M  V30 3631 H 332.005 -2.00354 3.70724 0
M  V30 3632 H 330.68 -2.04163 2.51196 0
M  V30 3633 H 329.587 -0.0765902 3.74022 0
M  V30 3634 H 330.92 -0.120452 4.92053 0
M  V30 3635 N 332.573 -1.56217 0.208337 0
M  V30 3636 C 333.483 -2.23316 -0.718836 0
M  V30 3637 C 334.499 -1.23648 -1.22422 0
M  V30 3638 O 335.675 -1.56423 -1.26861 0
M  V30 3639 C 332.74 -2.88968 -1.91568 0
M  V30 3640 C 331.801 -4.03943 -1.45357 0
M  V30 3641 C 331.034 -4.66455 -2.59337 0
M  V30 3642 O 331.257 -4.27919 -3.77149 0
M  V30 3643 O 330.191 -5.55686 -2.31293 0
M  V30 3644 H 334.017 -3.03182 -0.177315 0
M  V30 3645 H 331.602 -1.49384 -0.0215402 0
M  V30 3646 H 333.484 -3.30455 -2.61491 0
M  V30 3647 H 332.159 -2.12071 -2.44556 0
M  V30 3648 H 331.066 -3.67052 -0.722746 0
M  V30 3649 H 332.399 -4.82543 -0.970219 0
M  V30 3650 N 334.051 0.0651679 -1.57465 0
M  V30 3651 C 335.297 0.758912 -1.88712 0
M  V30 3652 C 335.652 1.7485 -0.802819 0
M  V30 3653 O 334.945 1.90632 0.192359 0
M  V30 3654 C 335.139 1.50081 -3.24362 0
M  V30 3655 C 334.968 0.584579 -4.45884 0
M  V30 3656 C 333.738 0.219039 -5.04825 0
M  V30 3657 C 335.936 -0.121559 -5.14156 0
M  V30 3658 N 333.918 -0.702222 -6.09871 0
M  V30 3659 C 335.289 -0.899767 -6.13436 0
M  V30 3660 C 337.344 -0.192331 -4.97528 0
M  V30 3661 C 336.047 -1.74218 -6.97883 0
M  V30 3662 C 338.073 -1.02174 -5.82507 0
M  V30 3663 C 337.435 -1.78798 -6.8133 0
M  V30 3664 H 333.534 0.25293 -0.739967 0
M  V30 3665 H 336.118 0.0201744 -1.9469 0
M  V30 3666 H 334.289 2.21023 -3.1938 0
M  V30 3667 H 336.021 2.14409 -3.43236 0
M  V30 3668 H 332.776 0.57336 -4.70117 0
M  V30 3669 H 333.2 -1.15629 -6.67052 0
M  V30 3670 H 337.842 0.385741 -4.21037 0
M  V30 3671 H 335.56 -2.3312 -7.73745 0
M  V30 3672 H 339.146 -1.07957 -5.71696 0
M  V30 3673 H 338.026 -2.41942 -7.45945 0
M  V30 3674 N 335.529 1.53961 0.336706 0
M  V30 3675 C 336.759 1.75229 1.09446 0
M  V30 3676 C 337.167 0.494602 1.82621 0
M  V30 3677 O 336.51 -0.543764 1.75468 0
M  V30 3678 C 336.572 2.88288 2.1478 0
M  V30 3679 C 336.236 4.27656 1.6112 0
M  V30 3680 C 337.233 5.08981 1.0599 0
M  V30 3681 C 334.918 4.74161 1.6576 0
M  V30 3682 C 336.912 6.34916 0.562129 0
M  V30 3683 C 334.599 6.00067 1.15595 0
M  V30 3684 C 335.597 6.80278 0.609147 0
M  V30 3685 O 335.285 8.03818 0.114999 0
M  V30 3686 H 335.017 0.588881 0.331956 0
M  V30 3687 H 337.571 2.01614 0.392566 0
M  V30 3688 H 335.801 2.57443 2.88548 0
M  V30 3689 H 337.49 2.97461 2.76174 0
M  V30 3690 H 338.256 4.74213 1.01722 0
M  V30 3691 H 334.135 4.11781 2.07261 0
M  V30 3692 H 337.679 6.9747 0.134668 0
M  V30 3693 H 333.576 6.3433 1.19566 0
M  V30 3694 H 334.344 8.18172 0.231651 0
M  V30 3695 N 337.007 -0.598083 1.45811 0
M  V30 3696 C 338.237 -1.38121 1.53643 0
M  V30 3697 C 338.645 -1.88425 0.171081 0
M  V30 3698 O 337.988 -1.63409 -0.839237 0
M  V30 3699 C 338.05 -2.61432 2.46766 0
M  V30 3700 C 337.714 -2.32702 3.93318 0
M  V30 3701 C 338.711 -1.92479 4.82957 0
M  V30 3702 C 336.396 -2.45321 4.38318 0
M  V30 3703 C 338.39 -1.65248 6.15607 0
M  V30 3704 C 336.077 -2.17703 5.71007 0
M  V30 3705 C 337.075 -1.7773 6.5947 0
M  V30 3706 O 336.763 -1.50441 7.89698 0
M  V30 3707 H 336.495 -0.428863 0.522544 0
M  V30 3708 H 339.049 -0.73557 1.91777 0
M  V30 3709 H 337.279 -3.28749 2.0362 0
M  V30 3710 H 338.968 -3.23487 2.45175 0
M  V30 3711 H 339.734 -1.82258 4.49452 0
M  V30 3712 H 335.613 -2.75399 3.69697 0
M  V30 3713 H 339.157 -1.33973 6.84614 0
M  V30 3714 H 335.054 -2.27544 6.04065 0
M  V30 3715 H 335.822 -1.64415 8.01817 0
M  V30 3716 N 338.485 -1.33259 -0.841409 0
M  V30 3717 C 339.731 -1.24757 -1.59886 0
M  V30 3718 C 340.064 0.186913 -1.93298 0
M  V30 3719 O 339.339 1.12757 -1.5848 0
M  V30 3720 C 339.622 -2.12036 -2.91055 0
M  V30 3721 C 339.475 -3.63929 -2.6434 0
M  V30 3722 C 340.794 -1.9916 -3.92458 0
M  V30 3723 H 337.913 -0.454542 -0.580138 0
M  V30 3724 H 340.555 -1.63335 -0.970647 0
M  V30 3725 H 338.705 -1.79265 -3.44669 0
M  V30 3726 H 340.377 -4.06978 -2.17178 0
M  V30 3727 H 338.62 -3.85935 -1.98082 0
M  V30 3728 H 339.291 -4.20341 -3.57796 0
M  V30 3729 H 341.767 -2.27895 -3.48143 0
M  V30 3730 H 340.643 -2.62484 -4.82072 0
M  V30 3731 H 340.904 -0.963082 -4.31482 0
M  V30 3732 N 339.963 1.05934 -1.16686 0
M  V30 3733 C 340.873 2.17014 -0.891183 0
M  V30 3734 C 341.889 1.73453 0.137907 0
M  V30 3735 O 343.065 2.01361 -0.039592 0
M  V30 3736 C 340.13 3.44384 -0.400099 0
M  V30 3737 C 339.191 4.02433 -1.49486 0
M  V30 3738 C 338.424 5.23723 -1.02711 0
M  V30 3739 O 338.647 5.7027 0.121716 0
M  V30 3740 O 337.581 5.7382 -1.81699 0
M  V30 3741 H 341.407 2.43113 -1.82015 0
M  V30 3742 H 338.992 1.15541 -0.947132 0
M  V30 3743 H 340.874 4.21189 -0.133392 0
M  V30 3744 H 339.549 3.19802 0.500817 0
M  V30 3745 H 338.456 3.27102 -1.81535 0
M  V30 3746 H 339.789 4.31317 -2.37121 0
M  V30 3747 N 341.441 0.965919 1.2453 0
M  V30 3748 C 342.389 0.486506 2.27455 0
M  V30 3749 C 343.383 -0.449041 1.6334 0
M  V30 3750 O 344.589 -0.324527 1.7705 0
M  V30 3751 H 340.964 0.138857 0.739069 0
M  V30 3752 H 342.935 1.3666 2.65267 0
M  V30 3753 C 341.684 -0.209481 3.47068 0
M  V30 3754 H 341.007 0.50129 3.96645 0
M  V30 3755 H 342.447 -0.508775 4.20936 0
M  V30 3756 C 340.906 -1.43586 3.0477 0
M  V30 3757 O 341.436 -2.53299 3.11773 0
M  V30 3758 N 339.642 -1.30126 2.59838 0
M  V30 3759 H 339.189 -0.408583 2.54339 0
M  V30 3760 H 339.147 -2.12294 2.31902 0
M  V30 3761 N 342.919 -1.39368 0.735821 0
M  V30 3762 C 344.168 -1.99733 0.281004 0
M  V30 3763 C 344.481 -1.59055 -1.13846 0
M  V30 3764 O 345.687 -2.12262 -1.69284 0
M  V30 3765 C 344.143 -3.57057 0.451462 0
M  V30 3766 C 343.751 -4.06697 1.87886 0
M  V30 3767 C 345.495 -4.2446 0.0584616 0
M  V30 3768 C 343.402 -5.56598 1.99883 0
M  V30 3769 H 342.332 -0.747163 0.101311 0
M  V30 3770 H 344.983 -1.59357 0.909819 0
M  V30 3771 H 343.365 -3.95234 -0.246263 0
M  V30 3772 H 344.539 -3.79853 2.60861 0
M  V30 3773 H 342.854 -3.5196 2.22515 0
M  V30 3774 H 345.451 -5.34549 0.127099 0
M  V30 3775 H 345.794 -4.04444 -0.986433 0
M  V30 3776 H 346.327 -3.9146 0.707374 0
M  V30 3777 H 343.066 -5.81494 3.02564 0
M  V30 3778 H 342.586 -5.85242 1.31346 0
M  V30 3779 H 344.265 -6.22022 1.78039 0
M  V30 3780 N 344.397 -0.483516 -1.5 0
M  V30 3781 C 345.344 0.304164 -2.28787 0
M  V30 3782 C 346.314 0.976114 -1.34392 0
M  V30 3783 O 347.499 0.986156 -1.63339 0
M  V30 3784 C 344.639 1.37298 -3.16612 0
M  V30 3785 C 343.752 0.714561 -4.26049 0
M  V30 3786 C 342.887 1.76232 -5.01114 0
M  V30 3787 C 341.926 1.08483 -6.0241 0
M  V30 3788 N 341.063 2.076 -6.70706 0
M  V30 3789 H 345.903 -0.373981 -2.95644 0
M  V30 3790 H 343.44 -0.196275 -1.45785 0
M  V30 3791 H 345.398 2.00445 -3.65893 0
M  V30 3792 H 344.028 2.02012 -2.51776 0
M  V30 3793 H 343.08 -0.0297798 -3.80388 0
M  V30 3794 H 344.392 0.180383 -4.98474 0
M  V30 3795 H 343.546 2.46929 -5.54176 0
M  V30 3796 H 342.285 2.33033 -4.28424 0
M  V30 3797 H 341.29 0.363545 -5.48597 0
M  V30 3798 H 342.515 0.523551 -6.77079 0
M  V30 3799 H 340.461 2.63394 -6.00799 0
M  V30 3800 H 340.378 1.59201 -7.39047 0
M  V30 3801 H 341.646 2.77639 -7.2838 0
M  V30 3802 O 345.914 1.57479 -0.358152 0
M  V30 3803 H 346.605 1.92725 0.1941 0
M  V30 END ATOM
M  V30 BEGIN BOND
M  V30 END BOND
M  V30 END CTAB
M  END
$$$$
