drugbank_target|Q9HBK9 Arsenite methyltransferase (DB00118)
 OpenBabel12092121013D

  0  0  0     0  0            999 V3000
M  V30 BEGIN CTAB
M  V30 COUNTS 5850 5905 0 0 0
M  V30 BEGIN ATOM
M  V30 1 H -0.908 1.98254 -0.117106 0
M  V30 2 N 0 1.576 0 0
M  V30 3 C 0.933 2.03868 1.02534 0
M  V30 4 C 1.911 0.928543 1.3348 0
M  V30 5 O 3.095 1.19667 1.45644 0
M  V30 6 C 0.222 2.43627 2.35294 0
M  V30 7 C -0.732 3.65373 2.2001 0
M  V30 8 S 0.101 5.13292 1.52614 0
M  V30 9 C 1.257 5.56322 2.86805 0
M  V30 10 H 1.49 2.90518 0.631377 0
M  V30 11 H -0.977 1.52953 0.210867 0
M  V30 12 H 0.981 2.67203 3.11629 0
M  V30 13 H -0.358 1.57376 2.7183 0
M  V30 14 H -1.165 3.90944 3.18086 0
M  V30 15 H -1.563 3.418 1.51819 0
M  V30 16 H 0.729 5.58782 3.83104 0
M  V30 17 H 1.672 6.56266 2.65933 0
M  V30 18 H 2.08 4.83886 2.90714 0
M  V30 19 N 1.4781 -0.272755 1.55222 0
M  V30 20 C 2.4411 -1.32041 1.87344 0
M  V30 21 C 3.4411 -1.42342 0.74803 0
M  V30 22 O 4.6311 -1.41488 1.0162 0
M  V30 23 C 1.7631 -2.70173 2.07893 0
M  V30 24 H 2.9561 -1.04789 2.80997 0
M  V30 25 H 0.5091 -0.51083 1.47717 0
M  V30 26 H 1.2441 -3.02605 1.16622 0
M  V30 27 H 1.0291 -2.64082 2.89833 0
M  V30 28 H 2.5191 -3.45869 2.34017 0
M  V30 29 N 2.9562 -1.48159 -0.537278 0
M  V30 30 C 3.9192 -1.61665 -1.62472 0
M  V30 31 C 4.9192 -0.490395 -1.5314 0
M  V30 32 O 6.1092 -0.755998 -1.5694 0
M  V30 33 C 3.2412 -1.57997 -3.02076 0
M  V30 34 H 4.4342 -2.58621 -1.51839 0
M  V30 35 H 1.9872 -1.36647 -0.758771 0
M  V30 36 H 2.7222 -0.624913 -3.18222 0
M  V30 37 H 2.5072 -2.39755 -3.10258 0
M  V30 38 H 3.9972 -1.70627 -3.81151 0
M  V30 39 N 4.4343 0.785586 -1.36625 0
M  V30 40 C 5.3643 1.91259 -1.33949 0
M  V30 41 C 6.3453 1.68795 -0.210325 0
M  V30 42 O 7.5303 1.89854 -0.408561 0
M  V30 43 C 4.6603 3.28339 -1.13186 0
M  V30 44 C 3.6143 3.65335 -2.22967 0
M  V30 45 C 2.9403 5.00806 -1.87342 0
M  V30 46 C 4.2403 3.7352 -3.65075 0
M  V30 47 H 5.9343 1.93755 -2.28253 0
M  V30 48 H 3.4803 0.930788 -1.09874 0
M  V30 49 H 5.4333 4.06804 -1.09948 0
M  V30 50 H 4.1573 3.2624 -0.153332 0
M  V30 51 H 2.8163 2.89169 -2.25337 0
M  V30 52 H 2.4643 4.95233 -0.880545 0
M  V30 53 H 2.1643 5.26529 -2.60846 0
M  V30 54 H 3.6883 5.81687 -1.85667 0
M  V30 55 H 5.1023 4.42168 -3.64911 0
M  V30 56 H 3.4993 4.10731 -4.37516 0
M  V30 57 H 4.5693 2.74527 -3.99703 0
M  V30 58 N 5.9124 1.20967 1.01018 0
M  V30 59 C 7.3284 0.965905 1.27053 0
M  V30 60 C 7.5284 -0.350785 1.98423 0
M  V30 61 O 6.5844 -1.07773 2.28344 0
M  V30 62 C 7.8974 2.15294 2.09926 0
M  V30 63 C 9.4454 2.19463 2.23171 0
M  V30 64 C 9.9204 3.3767 3.09424 0
M  V30 65 N 11.4114 3.37724 3.17012 0
M  V30 66 C 12.1464 4.25837 3.83993 0
M  V30 67 N 11.6424 5.24138 4.53047 0
M  V30 68 N 13.4354 4.1366 3.80581 0
M  V30 69 H 5.5864 2.0565 0.531194 0
M  V30 70 H 7.8494 0.90024 0.297106 0
M  V30 71 H 7.5554 3.10684 1.64828 0
M  V30 72 H 7.4294 2.13923 3.10672 0
M  V30 73 H 9.8164 1.24632 2.6749 0
M  V30 74 H 9.8974 2.2488 1.21912 0
M  V30 75 H 9.5414 4.32791 2.65808 0
M  V30 76 H 9.4714 3.29491 4.10784 0
M  V30 77 H 11.9624 2.6658 2.6785 0
M  V30 78 H 12.2754 5.87684 5.01844 0
M  V30 79 H 10.6204 5.28068 4.5185 0
M  V30 80 H 13.8114 3.36127 3.25785 0
M  V30 81 H 13.9844 4.82538 4.32505 0
M  V30 82 N 7.3905 -1.2043 1.01659 0
M  V30 83 C 8.6675 -1.8548 0.621004 0
M  V30 84 C 9.0475 -1.9091 -0.900919 0
M  V30 85 O 8.3955 -1.41694 -1.79263 0
M  V30 86 C 8.6055 -3.25119 1.2688 0
M  V30 87 C 9.9535 -4.01403 1.38423 0
M  V30 88 O 10.9775 -3.34473 1.22501 0
M  V30 89 O 9.8365 -5.21265 1.64151 0
M  V30 90 H 6.9305 -0.798761 0.214266 0
M  V30 91 H 9.4765 -1.28019 1.11396 0
M  V30 92 H 8.2485 -3.15932 2.30873 0
M  V30 93 H 7.8715 -3.90212 0.762917 0
M  V30 94 N 8.8686 -0.792821 -1.36206 0
M  V30 95 C 9.8316 -0.199459 -2.2833 0
M  V30 96 C 10.8316 0.605189 -1.48977 0
M  V30 97 O 12.0216 0.425685 -1.68919 0
M  V30 98 C 9.1536 0.723523 -3.33134 0
M  V30 99 H 10.3466 -1.01181 -2.82316 0
M  V30 100 H 7.8996 -0.562485 -1.45828 0
M  V30 101 H 8.6346 1.56008 -2.84309 0
M  V30 102 H 8.4196 0.148436 -3.91819 0
M  V30 103 H 9.9096 1.13344 -4.01924 0
M  V30 104 N 10.3467 1.47872 -0.545128 0
M  V30 105 C 11.2567 2.33633 0.212746 0
M  V30 106 C 12.2727 1.4744 0.923983 0
M  V30 107 O 13.4487 1.80393 0.895572 0
M  V30 108 C 10.5137 3.23884 1.23693 0
M  V30 109 C 9.5747 4.25961 0.534417 0
M  V30 110 C 8.8077 5.11899 1.5098 0
M  V30 111 O 9.0307 5.00077 2.7437 0
M  V30 112 O 7.9647 5.92831 1.0409 0
M  V30 113 H 11.7907 2.99714 -0.490416 0
M  V30 114 H 9.3757 1.46235 -0.305871 0
M  V30 115 H 11.2577 3.79666 1.82843 0
M  V30 116 H 9.9327 2.60446 1.92222 0
M  V30 117 H 8.8397 3.73972 -0.0979679 0
M  V30 118 H 10.1727 4.92079 -0.109213 0
M  V30 119 N 11.8248 0.280983 1.55075 0
M  V30 120 C 13.0738 -0.334784 1.98902 0
M  V30 121 C 13.3868 -1.56534 1.17288 0
M  V30 122 O 14.5928 -2.25443 1.51287 0
M  V30 123 C 13.0488 -0.646994 3.54037 0
M  V30 124 C 12.6568 0.564085 4.44435 0
M  V30 125 C 14.4008 -1.22506 4.06439 0
M  V30 126 C 12.3078 0.226137 5.90967 0
M  V30 127 H 11.2378 -0.128866 0.742906 0
M  V30 128 H 13.8888 0.386556 1.79382 0
M  V30 129 H 12.2708 -1.42739 3.6938 0
M  V30 130 H 13.4448 1.34082 4.40861 0
M  V30 131 H 11.7598 1.0594 4.02698 0
M  V30 132 H 14.3568 -1.49182 5.13468 0
M  V30 133 H 14.6998 -2.16085 3.55827 0
M  V30 134 H 15.2328 -0.50682 3.94558 0
M  V30 135 H 11.9718 1.12996 6.45687 0
M  V30 136 H 11.4918 -0.513717 5.97596 0
M  V30 137 H 13.1708 -0.179539 6.46751 0
M  V30 138 N 13.3029 -1.57598 0.00835791 0
M  V30 139 C 14.2349 -2.05811 -1.00868 0
M  V30 140 C 15.2479 -0.977579 -1.30182 0
M  V30 141 O 16.4369 -1.25421 -1.27011 0
M  V30 142 C 13.5369 -2.45016 -2.34137 0
M  V30 143 C 12.7099 -3.75903 -2.23643 0
M  V30 144 C 11.7689 -4.01884 -3.3967 0
M  V30 145 O 10.7949 -4.72433 -3.17483 0
M  V30 146 N 11.9969 -3.50432 -4.62793 0
M  V30 147 H 14.7619 -2.93684 -0.597458 0
M  V30 148 H 12.3229 -1.60909 -0.178852 0
M  V30 149 H 14.3149 -2.59506 -3.10546 0
M  V30 150 H 12.8849 -1.62618 -2.66972 0
M  V30 151 H 12.1049 -3.7141 -1.32091 0
M  V30 152 H 13.3929 -4.61695 -2.13812 0
M  V30 153 H 12.7909 -2.93317 -4.83716 0
M  V30 154 H 11.3479 -3.70236 -5.3644 0
M  V30 155 N 14.781 0.264519 -1.55364 0
M  V30 156 C 15.728 1.32717 -1.88825 0
M  V30 157 C 16.698 1.48675 -0.740605 0
M  V30 158 O 17.883 1.62945 -0.992657 0
M  V30 159 C 15.023 2.68089 -2.17307 0
M  V30 160 C 14.136 2.60284 -3.44785 0
M  V30 161 C 13.271 3.87892 -3.62924 0
M  V30 162 C 12.31 3.74631 -4.84064 0
M  V30 163 N 11.447 4.94092 -4.98816 0
M  V30 164 H 16.287 1.03481 -2.79456 0
M  V30 165 H 13.824 0.499757 -1.3835 0
M  V30 166 H 15.782 3.46864 -2.31821 0
M  V30 167 H 14.412 2.95509 -1.299 0
M  V30 168 H 13.464 1.73173 -3.38697 0
M  V30 169 H 14.776 2.46388 -4.33698 0
M  V30 170 H 13.93 4.75109 -3.77302 0
M  V30 171 H 12.669 4.04664 -2.7221 0
M  V30 172 H 11.674 2.85797 -4.69681 0
M  V30 173 H 12.899 3.5937 -5.76221 0
M  V30 174 H 10.845 5.11259 -4.11036 0
M  V30 175 H 10.762 4.8276 -5.81789 0
M  V30 176 H 12.03 5.82857 -5.17588 0
M  V30 177 N 16.2591 1.48442 0.529413 0
M  V30 178 C 17.5361 1.46978 1.29062 0
M  V30 179 C 17.9161 0.181769 2.10316 0
M  V30 180 O 17.2641 -0.836481 2.12639 0
M  V30 181 C 17.4741 2.7321 2.17157 0
M  V30 182 C 18.8221 3.21562 2.77278 0
M  V30 183 O 19.8461 2.74131 2.27444 0
M  V30 184 O 18.7051 4.04094 3.67927 0
M  V30 185 H 15.7991 0.587003 0.582543 0
M  V30 186 H 18.3451 1.60676 0.546021 0
M  V30 187 H 17.1171 3.58465 1.56903 0
M  V30 188 H 16.7401 2.62235 2.98862 0
M  V30 189 N 17.7372 -0.778329 1.37039 0
M  V30 190 C 18.9832 -1.53892 1.32079 0
M  V30 191 C 19.3162 -1.9396 -0.0965386 0
M  V30 192 O 18.5912 -1.63568 -1.05242 0
M  V30 193 C 18.8742 -2.80847 2.25382 0
M  V30 194 C 18.7272 -2.47076 3.75864 0
M  V30 195 C 20.0462 -3.82741 2.1725 0
M  V30 196 H 17.1652 -0.558303 0.48111 0
M  V30 197 H 19.8072 -0.893397 1.67685 0
M  V30 198 H 17.9572 -3.35931 1.95148 0
M  V30 199 H 19.6292 -1.97957 4.16666 0
M  V30 200 H 17.8722 -1.79863 3.94755 0
M  V30 201 H 18.5432 -3.37798 4.36574 0
M  V30 202 H 21.0192 -3.37133 2.43887 0
M  V30 203 H 19.8952 -4.69303 2.84686 0
M  V30 204 H 20.1562 -4.2652 1.16331 0
M  V30 205 N 19.2153 -1.21501 -1.00376 0
M  V30 206 C 20.1473 -0.933174 -2.09343 0
M  V30 207 C 21.1603 0.0840896 -1.62583 0
M  V30 208 O 22.3493 -0.148563 -1.77881 0
M  V30 209 C 19.4493 -0.379869 -3.36764 0
M  V30 210 C 18.6223 -1.45176 -4.12605 0
M  V30 211 C 17.6813 -0.907476 -5.18316 0
M  V30 212 O 16.7073 -1.5912 -5.46507 0
M  V30 213 N 17.9093 0.276649 -5.7984 0
M  V30 214 H 20.6743 -1.87124 -2.34104 0
M  V30 215 H 18.2353 -1.12043 -1.16867 0
M  V30 216 H 20.2273 -0.00131488 -4.047 0
M  V30 217 H 18.7973 0.463048 -3.09151 0
M  V30 218 H 18.0173 -2.00411 -3.39454 0
M  V30 219 H 19.3053 -2.17328 -4.6005 0
M  V30 220 H 18.7033 0.849147 -5.59291 0
M  V30 221 H 17.2603 0.596702 -6.49063 0
M  V30 222 N 20.6934 1.19889 -1.02296 0
M  V30 223 C 21.9214 1.9339 -0.735399 0
M  V30 224 C 22.3364 1.75148 0.704887 0
M  V30 225 O 21.6934 1.06954 1.47875 0
M  V30 226 C 21.7444 3.45313 -1.06962 0
M  V30 227 O 21.4654 3.62964 -2.45334 0
M  V30 228 C 22.9664 4.35948 -0.804021 0
M  V30 229 H 20.1864 0.61448 -0.269546 0
M  V30 230 H 22.7304 1.522 -1.36585 0
M  V30 231 H 20.8854 3.84359 -0.484455 0
M  V30 232 H 21.2994 4.56886 -2.57595 0
M  V30 233 H 22.7734 5.41174 -1.0879 0
M  V30 234 H 23.2504 4.3842 0.261691 0
M  V30 235 H 23.8564 4.02574 -1.37164 0
M  V30 236 N 22.1715 0.800033 1.35784 0
M  V30 237 C 23.4015 0.389041 2.02904 0
M  V30 238 C 23.8095 -1.0027 1.60445 0
M  V30 239 O 23.1525 -1.65633 0.794453 0
M  V30 240 C 23.2145 0.385495 3.57427 0
M  V30 241 C 22.8785 1.72662 4.23127 0
M  V30 242 C 23.8755 2.68385 4.4527 0
M  V30 243 C 21.5605 2.00883 4.60381 0
M  V30 244 C 23.5545 3.90517 5.03761 0
M  V30 245 C 21.2415 3.2328 5.18588 0
M  V30 246 C 22.2395 4.17915 5.40218 0
M  V30 247 O 21.9275 5.38153 5.97199 0
M  V30 248 H 21.6595 0.157032 0.657508 0
M  V30 249 H 24.2135 1.08311 1.74522 0
M  V30 250 H 22.4435 -0.365128 3.84972 0
M  V30 251 H 24.1325 -0.00228296 4.059 0
M  V30 252 H 24.8985 2.47872 4.16874 0
M  V30 253 H 20.7775 1.28037 4.42863 0
M  V30 254 H 24.3215 4.64395 5.2056 0
M  V30 255 H 20.2185 3.43667 5.4641 0
M  V30 256 H 20.9865 5.3936 6.15656 0
M  V30 257 N 23.6496 -1.47581 0.552962 0
M  V30 258 C 24.8796 -2.06575 0.0320091 0
M  V30 259 C 25.2876 -1.4067 -1.26525 0
M  V30 260 O 24.6306 -0.495808 -1.76883 0
M  V30 261 C 24.6926 -3.58705 -0.238913 0
M  V30 262 C 24.3566 -4.46625 0.968272 0
M  V30 263 C 25.3536 -4.85 1.87274 0
M  V30 264 C 23.0386 -4.88201 1.18175 0
M  V30 265 C 25.0326 -5.63745 2.9744 0
M  V30 266 C 22.7196 -5.66712 2.28651 0
M  V30 267 C 23.7176 -6.04394 3.18114 0
M  V30 268 O 23.4056 -6.81324 4.26676 0
M  V30 269 H 23.1376 -0.674763 0.0408689 0
M  V30 270 H 25.6916 -1.90634 0.764719 0
M  V30 271 H 23.9216 -3.72844 -1.02588 0
M  V30 272 H 25.6106 -3.99735 -0.704731 0
M  V30 273 H 26.3766 -4.53482 1.71984 0
M  V30 274 H 22.2556 -4.58339 0.494593 0
M  V30 275 H 25.7996 -5.93077 3.67296 0
M  V30 276 H 21.6966 -5.97642 2.43915 0
M  V30 277 H 22.4646 -6.99712 4.24671 0
M  V30 278 N 25.1277 -0.289203 -1.54924 0
M  V30 279 C 26.3757 0.322879 -1.99504 0
M  V30 280 C 26.6967 1.55313 -1.1791 0
M  V30 281 O 25.9667 1.94001 -0.272097 0
M  V30 282 H 24.5467 0.122291 -0.736922 0
M  V30 283 H 27.2087 -0.397802 -1.90797 0
M  V30 284 H 26.3047 0.603061 -3.06218 0
M  V30 285 N 26.6058 1.57591 -0.0167156 0
M  V30 286 C 27.5378 2.06343 0.997753 0
M  V30 287 C 28.5508 0.984469 1.29661 0
M  V30 288 O 29.7398 1.26093 1.26344 0
M  V30 289 C 26.8398 2.46255 2.32834 0
M  V30 290 C 26.0128 3.77083 2.21646 0
M  V30 291 C 25.0718 4.0368 3.37534 0
M  V30 292 O 24.0978 4.7411 3.14973 0
M  V30 293 N 25.2998 3.52881 4.60929 0
M  V30 294 H 28.0648 2.93997 0.581875 0
M  V30 295 H 25.6258 1.61002 0.170316 0
M  V30 296 H 27.6178 2.61149 3.09166 0
M  V30 297 H 26.1878 1.64032 2.66106 0
M  V30 298 H 25.4078 3.72106 1.30119 0
M  V30 299 H 26.6958 4.62822 2.11361 0
M  V30 300 H 26.0938 2.95878 4.82154 0
M  V30 301 H 24.6508 3.73076 5.34469 0
M  V30 302 N 28.0839 -0.256276 1.55502 0
M  V30 303 C 29.3299 -0.987079 1.77157 0
M  V30 304 C 29.6629 -1.85327 0.580315 0
M  V30 305 O 28.9379 -1.89874 -0.421686 0
M  V30 306 C 29.2209 -1.85553 3.08613 0
M  V30 307 C 29.0739 -1.01816 4.38125 0
M  V30 308 C 30.3929 -2.8397 3.36228 0
M  V30 309 H 27.5119 -0.357428 0.644526 0
M  V30 310 H 30.1539 -0.258239 1.88237 0
M  V30 311 H 28.3039 -2.47695 2.99298 0
M  V30 312 H 29.9759 -0.416159 4.59419 0
M  V30 313 H 28.2189 -0.322178 4.32602 0
M  V30 314 H 28.8899 -1.65939 5.26468 0
M  V30 315 H 31.3659 -2.31964 3.45445 0
M  V30 316 H 30.2419 -3.41864 4.29442 0
M  V30 317 H 30.5029 -3.59955 2.56681 0
M  V30 318 N 29.562 -1.4872 -0.521534 0
M  V30 319 C 30.492 -1.66771 -1.63431 0
M  V30 320 C 31.473 -0.516499 -1.62069 0
M  V30 321 O 32.658 -0.750013 -1.79132 0
M  V30 322 C 29.788 -1.71515 -3.01993 0
M  V30 323 C 28.742 -2.86222 -3.18216 0
M  V30 324 C 28.068 -2.76061 -4.57924 0
M  V30 325 C 29.368 -4.27419 -3.00184 0
M  V30 326 H 31.062 -2.59932 -1.48579 0
M  V30 327 H 28.608 -1.25089 -0.713358 0
M  V30 328 H 30.561 -1.82731 -3.7972 0
M  V30 329 H 29.285 -0.749393 -3.17886 0
M  V30 330 H 27.944 -2.74575 -2.42908 0
M  V30 331 H 27.592 -1.77437 -4.70665 0
M  V30 332 H 27.292 -3.53037 -4.69722 0
M  V30 333 H 28.816 -2.89256 -5.37739 0
M  V30 334 H 30.23 -4.39855 -3.67697 0
M  V30 335 H 28.627 -5.05458 -3.2347 0
M  V30 336 H 29.697 -4.43293 -1.96518 0
M  V30 337 N 31.0401 0.771051 -1.3745 0
M  V30 338 C 31.9871 1.88435 -1.3327 0
M  V30 339 C 32.9571 1.64914 -0.198136 0
M  V30 340 O 34.1421 1.86821 -0.387606 0
M  V30 341 C 31.2821 3.25509 -1.14622 0
M  V30 342 C 30.3951 3.60979 -2.37314 0
M  V30 343 C 29.5301 4.87265 -2.11533 0
M  V30 344 C 28.5691 5.15469 -3.30088 0
M  V30 345 N 27.7061 6.32944 -3.03853 0
M  V30 346 H 32.5461 1.91344 -2.28455 0
M  V30 347 H 30.0831 0.935466 -1.13523 0
M  V30 348 H 32.0411 4.04582 -1.01831 0
M  V30 349 H 30.6711 3.21974 -0.230837 0
M  V30 350 H 29.7231 2.76885 -2.60842 0
M  V30 351 H 31.0351 3.77759 -3.25729 0
M  V30 352 H 30.1891 5.74244 -1.95777 0
M  V30 353 H 28.9281 4.7259 -1.20457 0
M  V30 354 H 27.9331 4.26966 -3.46382 0
M  V30 355 H 29.1581 5.32052 -4.22016 0
M  V30 356 H 27.1041 6.19625 -2.15407 0
M  V30 357 H 27.0211 6.50143 -3.85812 0
M  V30 358 H 28.2891 7.22857 -2.91716 0
M  V30 359 N 32.5182 1.22032 0.997298 0
M  V30 360 C 33.9342 0.979326 1.26021 0
M  V30 361 C 34.1342 -0.32972 1.98784 0
M  V30 362 O 33.1902 -1.05345 2.29475 0
M  V30 363 C 34.5032 2.17509 2.07631 0
M  V30 364 C 36.0512 2.21817 2.2083 0
M  V30 365 C 36.5262 3.40933 3.05825 0
M  V30 366 N 38.0172 3.41067 3.13412 0
M  V30 367 C 38.7522 4.29885 3.79455 0
M  V30 368 N 38.2482 5.28914 4.47462 0
M  V30 369 N 40.0412 4.17673 3.76173 0
M  V30 370 H 32.1922 2.06202 0.509352 0
M  V30 371 H 34.4552 0.90334 0.287541 0
M  V30 372 H 34.1612 3.12415 1.61524 0
M  V30 373 H 34.0352 2.17206 3.08385 0
M  V30 374 H 36.4222 1.27462 2.66153 0
M  V30 375 H 36.5032 2.2616 1.1952 0
M  V30 376 H 36.1472 4.35586 2.61203 0
M  V30 377 H 36.0772 3.33829 4.07266 0
M  V30 378 H 38.5682 2.69406 2.65007 0
M  V30 379 H 38.8812 5.92973 4.95583 0
M  V30 380 H 37.2262 5.32831 4.46224 0
M  V30 381 H 40.4172 3.39564 3.22202 0
M  V30 382 H 40.5902 4.87098 4.27363 0
M  V30 383 N 33.9963 -1.19345 1.0293 0
M  V30 384 C 35.2213 -1.93538 0.745511 0
M  V30 385 C 35.6463 -1.75007 -0.689511 0
M  V30 386 O 35.0043 -1.05265 -1.47611 0
M  V30 387 C 35.0523 -3.43336 1.10239 0
M  V30 388 O 34.1563 -4.11806 0.221289 0
M  V30 389 H 33.4973 -0.604193 0.275404 0
M  V30 390 H 36.0273 -1.5141 1.37609 0
M  V30 391 H 36.0373 -3.94004 1.05947 0
M  V30 392 H 34.7123 -3.56146 2.14786 0
M  V30 393 H 33.2893 -3.715 0.322842 0
M  V30 394 N 35.4744 -0.807222 -1.35358 0
M  V30 395 C 36.4374 -0.223665 -2.28106 0
M  V30 396 C 37.4374 0.589354 -1.4961 0
M  V30 397 O 38.6274 0.407745 -1.69361 0
M  V30 398 C 35.7594 0.688149 -3.33882 0
M  V30 399 H 36.9524 -1.04169 -2.81227 0
M  V30 400 H 34.5054 -0.577921 -1.45223 0
M  V30 401 H 35.2404 1.52984 -2.85948 0
M  V30 402 H 35.0254 0.10687 -3.91954 0
M  V30 403 H 36.5154 1.09075 -4.03104 0
M  V30 404 N 36.9525 1.47285 -0.560781 0
M  V30 405 C 38.2295 1.9558 0.0277798 0
M  V30 406 C 38.6095 1.5034 1.48192 0
M  V30 407 O 37.9575 0.743882 2.16052 0
M  V30 408 C 38.1675 3.48789 -0.121418 0
M  V30 409 C 39.5155 4.24594 0.0220912 0
M  V30 410 O 40.5395 3.56166 -0.0491439 0
M  V30 411 O 39.3985 5.46217 0.175958 0
M  V30 412 H 36.4925 0.824663 0.0621342 0
M  V30 413 H 39.0385 1.5767 -0.627556 0
M  V30 414 H 37.8105 3.74533 -1.13316 0
M  V30 415 H 37.4335 3.93473 0.571366 0
M  V30 416 N 38.4306 0.297415 1.54768 0
M  V30 417 C 39.3606 -0.573494 2.26348 0
M  V30 418 C 40.3416 -1.14085 1.26169 0
M  V30 419 O 41.5266 -1.17086 1.54934 0
M  V30 420 C 38.6566 -1.74716 3.00153 0
M  V30 421 C 37.6106 -1.31032 4.07449 0
M  V30 422 C 36.9366 -2.56887 4.68949 0
M  V30 423 C 38.2366 -0.444183 5.20408 0
M  V30 424 H 39.9306 0.0235131 2.99391 0
M  V30 425 H 37.4766 0.0127488 1.43994 0
M  V30 426 H 39.4296 -2.3625 3.48947 0
M  V30 427 H 38.1536 -2.37035 2.24682 0
M  V30 428 H 36.8126 -0.718066 3.59499 0
M  V30 429 H 36.4606 -3.17512 3.90122 0
M  V30 430 H 36.1606 -2.2836 5.41411 0
M  V30 431 H 37.6846 -3.19229 5.20505 0
M  V30 432 H 39.0986 -0.9651 5.65118 0
M  V30 433 H 37.4956 -0.252846 5.99567 0
M  V30 434 H 38.5656 0.531609 4.81977 0
M  V30 435 N 39.9087 -1.5758 0.0250728 0
M  V30 436 C 40.8407 -2.06869 -0.986796 0
M  V30 437 C 41.8537 -0.991332 -1.29137 0
M  V30 438 O 43.0427 -1.26761 -1.25674 0
M  V30 439 C 40.1427 -2.47486 -2.31525 0
M  V30 440 C 39.3157 -3.78253 -2.19643 0
M  V30 441 C 38.3747 -4.05464 -3.35388 0
M  V30 442 O 37.4007 -4.75774 -3.12454 0
M  V30 443 N 38.6027 -3.55321 -4.59051 0
M  V30 444 H 41.3677 -2.94302 -0.566276 0
M  V30 445 H 38.9287 -1.6109 -0.161776 0
M  V30 446 H 40.9207 -2.62785 -3.07776 0
M  V30 447 H 39.4907 -1.65441 -2.65232 0
M  V30 448 H 38.7107 -3.7279 -1.28144 0
M  V30 449 H 39.9987 -4.63936 -2.08903 0
M  V30 450 H 39.3967 -2.98431 -4.80578 0
M  V30 451 H 37.9537 -3.75905 -5.32483 0
M  V30 452 N 41.3868 0.248026 -1.55636 0
M  V30 453 C 42.6148 0.993808 -1.81469 0
M  V30 454 C 43.0298 1.78991 -0.60064 0
M  V30 455 O 42.3868 1.77345 0.430682 0
M  V30 456 C 42.4378 1.93258 -3.05506 0
M  V30 457 O 42.1588 1.16869 -4.22224 0
M  V30 458 C 43.6598 2.79444 -3.4413 0
M  V30 459 H 40.8798 0.292486 -0.603898 0
M  V30 460 H 43.4238 0.271253 -2.02693 0
M  V30 461 H 41.5788 2.60943 -2.86335 0
M  V30 462 H 41.9928 1.80359 -4.92515 0
M  V30 463 H 43.4668 3.41066 -4.34026 0
M  V30 464 H 43.9438 3.50499 -2.64665 0
M  V30 465 H 44.5498 2.17214 -3.65648 0
M  V30 466 N 42.8649 1.48995 0.513639 0
M  V30 467 C 43.8129 1.65199 1.63744 0
M  V30 468 C 44.8069 0.51809 1.61283 0
M  V30 469 O 46.0129 0.697335 1.65943 0
M  V30 470 H 42.3879 0.52069 0.542574 0
M  V30 471 H 44.3589 2.59552 1.47226 0
M  V30 472 C 43.1079 1.72409 3.01945 0
M  V30 473 H 42.4309 2.59029 3.04539 0
M  V30 474 H 43.8709 1.87785 3.80148 0
M  V30 475 C 42.3299 0.46618 3.33659 0
M  V30 476 O 42.8599 -0.413744 3.99564 0
M  V30 477 N 41.0659 0.332931 2.88687 0
M  V30 478 H 40.6129 1.04996 2.35231 0
M  V30 479 H 40.5709 -0.507665 3.10274 0
M  V30 480 N 44.343 -0.763751 1.37857 0
M  V30 481 C 45.591 -1.51957 1.33243 0
M  V30 482 C 45.912 -1.94835 -0.0801709 0
M  V30 483 O 45.182 -1.66894 -1.02582 0
M  V30 484 H 43.762 -0.563626 0.49024 0
M  V30 485 H 46.424 -0.908504 1.7243 0
M  V30 486 H 45.52 -2.41523 1.97669 0
M  V30 487 N 45.8211 -1.22559 -0.990812 0
M  V30 488 C 47.0611 -1.06302 -1.74583 0
M  V30 489 C 47.4251 0.394737 -1.87898 0
M  V30 490 O 48.6261 0.678214 -2.60103 0
M  V30 491 C 46.8971 -1.75699 -3.11231 0
M  V30 492 S 48.4561 -1.74882 -4.02445 0
M  V30 493 H 45.2741 -0.380639 -0.600529 0
M  V30 494 H 47.8761 -1.55532 -1.18449 0
M  V30 495 H 46.5801 -2.80923 -2.99183 0
M  V30 496 H 46.1111 -1.26708 -3.72436 0
M  V30 497 H 48.1261 -0.799997 -4.89709 0
M  V30 498 N 47.2992 1.18797 -1.03562 0
M  V30 499 C 48.5452 1.8893 -0.737113 0
M  V30 500 C 48.8782 1.79837 0.732956 0
M  V30 501 O 48.1532 1.19525 1.5344 0
M  V30 502 C 48.4362 3.39607 -1.19745 0
M  V30 503 C 48.2892 3.57537 -2.72924 0
M  V30 504 C 49.6082 4.33069 -0.783526 0
M  V30 505 H 46.7272 0.686057 -0.269249 0
M  V30 506 H 49.3692 1.39797 -1.28673 0
M  V30 507 H 47.5192 3.81583 -0.729855 0
M  V30 508 H 49.1912 3.24688 -3.27682 0
M  V30 509 H 47.4342 3.00363 -3.12993 0
M  V30 510 H 48.1052 4.63238 -3.00191 0
M  V30 511 H 50.5812 3.98846 -1.18581 0
M  V30 512 H 49.4572 5.3707 -1.13343 0
M  V30 513 H 49.7182 4.40986 0.313681 0
M  V30 514 N 48.7773 0.814389 1.34928 0
M  V30 515 C 50.0053 0.411136 2.02774 0
M  V30 516 C 50.4203 -0.980316 1.61354 0
M  V30 517 O 49.7773 -1.63299 0.814847 0
M  V30 518 C 49.8283 0.493865 3.58111 0
M  V30 519 O 49.5493 1.83047 3.98027 0
M  V30 520 C 51.0503 0.0844174 4.4322 0
M  V30 521 H 48.2703 0.166037 0.650133 0
M  V30 522 H 50.8143 1.10018 1.72384 0
M  V30 523 H 48.9693 -0.147006 3.87121 0
M  V30 524 H 49.3833 1.79872 4.92693 0
M  V30 525 H 50.8573 0.193404 5.51661 0
M  V30 526 H 51.3343 -0.97113 4.28329 0
M  V30 527 H 51.9403 0.69875 4.19521 0
M  V30 528 N 50.2554 -1.46986 0.568584 0
M  V30 529 C 51.4834 -2.0683 0.0539956 0
M  V30 530 C 51.8984 -1.41953 -1.24478 0
M  V30 531 O 51.2554 -0.519933 -1.74937 0
M  V30 532 C 51.3064 -3.61254 -0.133362 0
M  V30 533 O 51.0274 -4.237 1.11399 0
M  V30 534 C 52.5284 -4.37992 -0.683927 0
M  V30 535 H 49.7484 -0.669058 0.0510141 0
M  V30 536 H 52.2924 -1.88824 0.785234 0
M  V30 537 H 50.4474 -3.78735 -0.81477 0
M  V30 538 H 50.8614 -5.16388 0.91888 0
M  V30 539 H 52.3354 -5.46684 -0.764263 0
M  V30 540 H 52.8124 -4.05058 -1.69778 0
M  V30 541 H 53.4184 -4.25283 -0.0378494 0
M  V30 542 N 51.7335 -0.305618 -1.54608 0
M  V30 543 C 52.6965 0.555591 -2.22364 0
M  V30 544 C 53.6965 1.05768 -1.21119 0
M  V30 545 O 54.8865 0.952972 -1.45822 0
M  V30 546 C 52.0185 1.76974 -2.91364 0
M  V30 547 H 53.2115 -0.0364572 -2.99878 0
M  V30 548 H 50.7645 -0.0565007 -1.56198 0
M  V30 549 H 51.4995 2.40151 -2.17941 0
M  V30 550 H 51.2845 1.41732 -3.65588 0
M  V30 551 H 52.7745 2.38148 -3.43038 0
M  V30 552 N 53.2116 1.57565 -0.0334293 0
M  V30 553 C 54.6276 1.56297 0.322997 0
M  V30 554 C 54.8276 1.03945 1.7262 0
M  V30 555 O 53.8836 0.688109 2.42943 0
M  V30 556 C 55.1966 3.00232 0.167664 0
M  V30 557 C 56.7446 3.12078 0.240107 0
M  V30 558 C 57.2196 4.57859 0.113513 0
M  V30 559 N 58.7106 4.62887 0.170359 0
M  V30 560 C 59.4456 5.73319 0.0962517 0
M  V30 561 N 58.9416 6.92794 -0.0291881 0
M  V30 562 N 60.7346 5.61898 0.150551 0
M  V30 563 H 52.8856 1.89923 -0.950956 0
M  V30 564 H 55.1486 0.873824 -0.367608 0
M  V30 565 H 54.8546 3.42501 -0.799102 0
M  V30 566 H 54.7286 3.654 0.936083 0
M  V30 567 H 57.1156 2.69718 1.19733 0
M  V30 568 H 57.1966 2.49623 -0.558763 0
M  V30 569 H 56.8406 5.009 -0.840314 0
M  V30 570 H 56.7706 5.18299 0.931302 0
M  V30 571 H 59.2616 3.76954 0.26728 0
M  V30 572 H 59.5746 7.7276 -0.0789252 0
M  V30 573 H 57.9196 6.94971 -0.0640299 0
M  V30 574 H 61.1106 4.67448 0.246981 0
M  V30 575 H 61.2836 6.47938 0.0893365 0
M  V30 576 N 54.6897 -0.239769 1.55765 0
M  V30 577 C 56.1007 -0.808263 1.68297 0
M  V30 578 C 56.4517 -1.85736 0.632181 0
M  V30 579 O 55.5767 -2.15277 -0.220204 0
M  V30 580 C 56.1717 -1.47284 3.05111 0
M  V30 581 C 54.7307 -1.98895 3.19559 0
M  V30 582 C 53.8777 -0.842575 2.64189 0
M  V30 583 H 56.8287 -0.0154422 1.58692 0
M  V30 584 H 56.8497 -2.34111 2.99954 0
M  V30 585 H 56.3617 -0.709053 3.81568 0
M  V30 586 H 54.4627 -2.78132 2.47938 0
M  V30 587 H 54.5757 -2.18143 4.26556 0
M  V30 588 H 52.9397 -1.24501 2.22197 0
M  V30 589 H 53.7227 -0.0917552 3.43177 0
M  V30 590 N 56.1678 -1.49265 -0.50573 0
M  V30 591 C 57.4138 -1.58748 -1.26202 0
M  V30 592 C 57.7468 -0.271227 -1.92297 0
M  V30 593 O 57.0218 0.724831 -1.80489 0
M  V30 594 C 57.3048 -2.74332 -2.33268 0
M  V30 595 C 57.1578 -4.15737 -1.71705 0
M  V30 596 C 58.4768 -2.85576 -3.34865 0
M  V30 597 H 55.5958 -0.577826 -0.457478 0
M  V30 598 H 58.2378 -1.81532 -0.560897 0
M  V30 599 H 56.3878 -2.55036 -2.93068 0
M  V30 600 H 58.0598 -4.46537 -1.15769 0
M  V30 601 H 56.3028 -4.21605 -1.02135 0
M  V30 602 H 56.9738 -4.92477 -2.49341 0
M  V30 603 H 59.4498 -3.03127 -2.8505 0
M  V30 604 H 58.3258 -3.68135 -4.07146 0
M  V30 605 H 58.5868 -1.94732 -3.96903 0
M  V30 606 N 57.6459 0.756429 -1.3826 0
M  V30 607 C 59.0569 1.33359 -1.30661 0
M  V30 608 C 59.4079 1.96161 0.0388875 0
M  V30 609 O 58.5329 1.94874 0.940918 0
M  V30 610 C 59.1279 2.42477 -2.36622 0
M  V30 611 C 57.6869 2.95922 -2.3261 0
M  V30 612 C 56.8339 1.69275 -2.19639 0
M  V30 613 H 59.7849 0.55552 -1.4866 0
M  V30 614 H 59.8059 3.22345 -2.02174 0
M  V30 615 H 59.3179 1.96739 -3.34538 0
M  V30 616 H 57.4189 3.45996 -1.38267 0
M  V30 617 H 57.5319 3.50494 -3.26636 0
M  V30 618 H 55.8959 1.92793 -1.66442 0
M  V30 619 H 56.6789 1.25619 -3.19491 0
M  V30 620 N 59.124 1.23083 0.984299 0
M  V30 621 C 60.071 1.00854 2.07598 0
M  V30 622 C 61.041 -0.0726709 1.65941 0
M  V30 623 O 62.226 0.0786535 1.90638 0
M  V30 624 C 59.366 0.601645 3.39815 0
M  V30 625 C 58.479 1.75456 3.94765 0
M  V30 626 C 57.614 1.29482 5.15177 0
M  V30 627 C 56.653 2.41873 5.62284 0
M  V30 628 N 55.79 1.96885 6.73929 0
M  V30 629 H 60.63 1.943 2.25946 0
M  V30 630 H 58.167 0.968001 1.10762 0
M  V30 631 H 60.125 0.346854 4.15756 0
M  V30 632 H 58.755 -0.295803 3.21442 0
M  V30 633 H 57.807 2.12346 3.15616 0
M  V30 634 H 59.119 2.59965 4.25699 0
M  V30 635 H 58.273 0.997923 5.98437 0
M  V30 636 H 57.012 0.420046 4.85888 0
M  V30 637 H 56.017 2.72342 4.77608 0
M  V30 638 H 57.242 3.29881 5.93595 0
M  V30 639 H 55.188 1.11782 6.46406 0
M  V30 640 H 55.105 2.74956 7.04227 0
M  V30 641 H 56.373 1.70289 7.60672 0
M  V30 642 N 60.6021 -1.18246 1.0419 0
M  V30 643 C 61.5521 -2.19843 0.604392 0
M  V30 644 C 62.5361 -1.56962 -0.353814 0
M  V30 645 O 63.7281 -1.76156 -0.17267 0
M  V30 646 C 60.8571 -3.43287 -0.0298975 0
M  V30 647 C 59.9431 -4.13288 0.951531 0
M  V30 648 N 60.3341 -4.59271 2.11906 0
M  V30 649 C 58.6321 -4.39165 0.7778 0
M  V30 650 C 59.3331 -5.13173 2.73912 0
M  V30 651 N 58.3091 -5.04763 2.01779 0
M  V30 652 H 62.1111 -2.53089 1.4941 0
M  V30 653 H 59.6251 -1.34465 0.910658 0
M  V30 654 H 61.6221 -4.15334 -0.361037 0
M  V30 655 H 60.2821 -3.11537 -0.915127 0
M  V30 656 H 61.2931 -4.5368 2.49789 0
M  V30 657 H 57.9701 -4.17461 -0.0572331 0
M  V30 658 H 59.3601 -5.58947 3.72864 0
M  V30 659 N 62.0802 -0.821533 -1.34494 0
M  V30 660 C 63.3292 -0.405355 -1.97585 0
M  V30 661 C 63.6422 1.03677 -1.65863 0
M  V30 662 O 64.8482 1.55679 -2.22433 0
M  V30 663 C 63.3042 -0.673861 -3.53535 0
M  V30 664 C 62.9122 -2.12951 -3.94152 0
M  V30 665 C 64.6562 -0.32378 -4.23263 0
M  V30 666 C 62.5632 -2.34298 -5.43009 0
M  V30 667 H 61.4932 -0.147836 -0.739365 0
M  V30 668 H 64.1442 -1.00769 -1.53355 0
M  V30 669 H 62.5262 -0.00137554 -3.96 0
M  V30 670 H 63.7002 -2.84104 -3.62797 0
M  V30 671 H 62.0152 -2.44089 -3.37356 0
M  V30 672 H 64.6122 -0.461126 -5.32708 0
M  V30 673 H 64.9552 0.731586 -4.09821 0
M  V30 674 H 65.4882 -0.950786 -3.8627 0
M  V30 675 H 62.2272 -3.38335 -5.61435 0
M  V30 676 H 61.7472 -1.67687 -5.75883 0
M  V30 677 H 63.4262 -2.16588 -6.09671 0
M  V30 678 N 63.5583 1.46682 -0.576371 0
M  V30 679 C 64.9743 1.57822 -0.237562 0
M  V30 680 C 65.1743 1.57237 1.26011 0
M  V30 681 O 64.2303 1.48596 2.04146 0
M  V30 682 C 65.5433 2.87499 -0.881168 0
M  V30 683 C 67.0913 3.01119 -0.85417 0
M  V30 684 C 67.5663 4.33524 -1.4772 0
M  V30 685 N 69.0573 4.40207 -1.44125 0
M  V30 686 C 69.7923 5.4126 -1.89276 0
M  V30 687 N 69.2883 6.49021 -2.42371 0
M  V30 688 N 71.0813 5.32422 -1.80231 0
M  V30 689 H 63.2323 1.45306 -1.54919 0
M  V30 690 H 65.4953 0.692733 -0.647167 0
M  V30 691 H 65.2013 2.9372 -1.93447 0
M  V30 692 H 65.0753 3.75224 -0.385592 0
M  V30 693 H 67.4623 2.94485 0.190491 0
M  V30 694 H 67.5433 2.14887 -1.3877 0
M  V30 695 H 67.1873 4.40916 -2.52103 0
M  V30 696 H 67.1173 5.1852 -0.918947 0
M  V30 697 H 69.6083 3.62931 -1.05307 0
M  V30 698 H 69.9213 7.2233 -2.74698 0
M  V30 699 H 68.2663 6.49858 -2.46393 0
M  V30 700 H 71.4573 4.47137 -1.38514 0
M  V30 701 H 71.6303 6.11034 -2.15735 0
M  V30 702 N 65.0364 0.313813 1.54444 0
M  V30 703 C 65.9464 -0.565714 2.27677 0
M  V30 704 C 66.9624 -1.13754 1.31666 0
M  V30 705 O 68.1384 -1.15959 1.64668 0
M  V30 706 C 65.2034 -1.71528 3.01296 0
M  V30 707 C 64.2644 -1.17624 4.12872 0
M  V30 708 C 63.4974 -2.27102 4.8297 0
M  V30 709 O 63.7204 -3.47256 4.52514 0
M  V30 710 O 62.6544 -1.9307 5.70094 0
M  V30 711 H 66.4804 0.0287296 3.03686 0
M  V30 712 H 64.0654 0.0798312 1.49187 0
M  V30 713 H 65.9474 -2.38476 3.4743 0
M  V30 714 H 64.6224 -2.29608 2.2817 0
M  V30 715 H 63.5294 -0.472124 3.71109 0
M  V30 716 H 64.8624 -0.640695 4.88012 0
M  V30 717 N 66.5145 -1.57545 0.0417849 0
M  V30 718 C 67.4775 -2.09885 -0.92093 0
M  V30 719 C 68.4775 -1.01648 -1.24596 0
M  V30 720 O 69.6675 -1.27759 -1.1842 0
M  V30 721 C 66.7995 -2.57527 -2.23367 0
M  V30 722 H 67.9925 -2.96236 -0.467382 0
M  V30 723 H 65.5455 -1.5493 -0.206467 0
M  V30 724 H 66.2805 -1.74542 -2.73323 0
M  V30 725 H 66.0655 -3.36613 -2.01083 0
M  V30 726 H 67.5555 -2.98201 -2.92346 0
M  V30 727 N 67.9926 0.231505 -1.5589 0
M  V30 728 C 68.9226 1.29022 -1.94617 0
M  V30 729 C 69.9036 1.4941 -0.813067 0
M  V30 730 O 71.0886 1.6176 -1.07459 0
M  V30 731 C 68.2186 2.64199 -2.25424 0
M  V30 732 C 67.1726 2.58484 -3.41131 0
M  V30 733 C 66.4986 3.97599 -3.57518 0
M  V30 734 C 67.7986 2.1413 -4.76388 0
M  V30 735 H 69.4926 0.968563 -2.83301 0
M  V30 736 H 67.0386 0.464479 -1.36303 0
M  V30 737 H 68.9916 3.38413 -2.51107 0
M  V30 738 H 67.7156 2.98032 -1.33583 0
M  V30 739 H 66.3746 1.86727 -3.15481 0
M  V30 740 H 66.0226 4.28723 -2.6307 0
M  V30 741 H 65.7226 3.94659 -4.35337 0
M  V30 742 H 67.2466 4.7349 -3.85538 0
M  V30 743 H 68.6606 2.78083 -5.01341 0
M  V30 744 H 67.0576 2.2227 -5.57419 0
M  V30 745 H 68.1276 1.09331 -4.72414 0
M  V30 746 N 69.4707 1.49531 0.497807 0
M  V30 747 C 70.4027 1.62559 1.61578 0
M  V30 748 C 71.4157 0.508134 1.54667 0
M  V30 749 O 72.6047 0.780309 1.60541 0
M  V30 750 C 69.7047 1.56925 3.00379 0
M  V30 751 C 68.8777 2.84257 3.3244 0
M  V30 752 C 67.9367 2.71632 4.50669 0
M  V30 753 O 66.9627 3.4557 4.52294 0
M  V30 754 N 68.1647 1.83391 5.5077 0
M  V30 755 H 70.9297 2.58981 1.50828 0
M  V30 756 H 68.4907 1.4666 0.685743 0
M  V30 757 H 70.4827 1.46129 3.77397 0
M  V30 758 H 69.0527 0.683483 3.05037 0
M  V30 759 H 68.2727 3.09381 2.44289 0
M  V30 760 H 69.5607 3.68666 3.5066 0
M  V30 761 H 68.9587 1.22583 5.52259 0
M  V30 762 H 67.5157 1.78515 6.26878 0
M  V30 763 N 70.9488 -0.749086 1.3866 0
M  V30 764 C 71.8968 -1.88428 1.36373 0
M  V30 765 C 72.8908 -1.67561 0.248929 0
M  V30 766 O 74.0968 -1.75074 0.41821 0
M  V30 767 H 70.4718 -0.620023 0.42553 0
M  V30 768 H 72.4428 -1.87473 2.32156 0
M  V30 769 C 71.1918 -3.25961 1.21014 0
M  V30 770 H 70.5148 -3.42607 2.06059 0
M  V30 771 H 71.9548 -4.05625 1.23469 0
M  V30 772 C 70.4138 -3.36799 -0.0825941 0
M  V30 773 O 70.9438 -3.87517 -1.05797 0
M  V30 774 N 69.1498 -2.90258 -0.140939 0
M  V30 775 H 68.6968 -2.49174 0.653477 0
M  V30 776 H 68.6548 -2.97889 -1.00545 0
M  V30 777 N 72.4269 -1.23603 -0.977757 0
M  V30 778 C 73.6729 -1.07129 -1.72195 0
M  V30 779 C 74.0059 0.390501 -1.90233 0
M  V30 780 O 73.2809 1.28902 -1.45653 0
M  V30 781 C 73.5639 -1.80031 -3.11867 0
M  V30 782 C 73.4169 -3.33899 -3.01383 0
M  V30 783 C 74.7359 -1.56492 -4.11337 0
M  V30 784 H 71.8549 -0.390571 -0.624999 0
M  V30 785 H 74.4969 -1.52142 -1.13811 0
M  V30 786 H 72.6469 -1.41768 -3.6171 0
M  V30 787 H 74.3189 -3.81699 -2.59043 0
M  V30 788 H 72.5619 -3.62796 -2.37827 0
M  V30 789 H 73.2329 -3.801 -4.00285 0
M  V30 790 H 75.7089 -1.89757 -3.70313 0
M  V30 791 H 74.5849 -2.09973 -5.07151 0
M  V30 792 H 74.8459 -0.500874 -4.39254 0
M  V30 793 N 73.905 1.17692 -1.04816 0
M  V30 794 C 74.855 2.1952 -0.616042 0
M  V30 795 C 75.839 1.57147 0.345485 0
M  V30 796 O 77.031 1.76245 0.163325 0
M  V30 797 C 74.16 3.43298 0.0116917 0
M  V30 798 C 73.246 4.12777 -0.973435 0
M  V30 799 N 73.637 4.5814 -2.14339 0
M  V30 800 C 71.935 4.38747 -0.80108 0
M  V30 801 C 72.636 5.11713 -2.7663 0
M  V30 802 N 71.612 5.03686 -2.04453 0
M  V30 803 H 75.414 2.52293 -1.5075 0
M  V30 804 H 72.928 1.3398 -0.917776 0
M  V30 805 H 74.925 4.15519 0.339006 0
M  V30 806 H 73.585 3.12018 0.898593 0
M  V30 807 H 74.596 4.52349 -2.52191 0
M  V30 808 H 71.273 4.17485 0.0350934 0
M  V30 809 H 72.663 5.56962 -3.75823 0
M  V30 810 N 75.3831 0.828654 1.34056 0
M  V30 811 C 76.2931 0.256725 2.33191 0
M  V30 812 C 77.3091 -0.611898 1.62886 0
M  V30 813 O 78.4851 -0.51844 1.94613 0
M  V30 814 C 75.5501 -0.567238 3.42028 0
M  V30 815 C 74.6111 0.324458 4.28072 0
M  V30 816 C 73.8441 -0.460274 5.31712 0
M  V30 817 O 74.0671 -1.693 5.44696 0
M  V30 818 O 73.0011 0.160391 6.01686 0
M  V30 819 H 76.8271 1.07739 2.83947 0
M  V30 820 H 74.4121 0.59093 1.37217 0
M  V30 821 H 76.2941 -1.03582 4.08471 0
M  V30 822 H 74.9691 -1.36513 2.93506 0
M  V30 823 H 73.8761 0.840659 3.64532 0
M  V30 824 H 75.2091 1.08685 4.8005 0
M  V30 825 N 76.8612 -1.46375 0.584142 0
M  V30 826 C 77.7712 -2.34115 -0.150728 0
M  V30 827 C 78.7872 -1.49838 -0.884567 0
M  V30 828 O 79.9632 -1.82704 -0.847429 0
M  V30 829 C 77.0282 -3.2705 -1.15062 0
M  V30 830 C 76.0892 -4.27228 -0.421293 0
M  V30 831 C 75.3222 -5.15722 -1.37355 0
M  V30 832 O 75.5452 -5.07176 -2.61014 0
M  V30 833 O 74.4792 -5.95383 -0.883355 0
M  V30 834 H 78.3052 -2.98309 0.569708 0
M  V30 835 H 75.8902 -1.45373 0.344535 0
M  V30 836 H 77.7722 -3.84381 -1.72712 0
M  V30 837 H 76.4472 -2.65451 -1.8525 0
M  V30 838 H 75.3542 -3.7358 0.197085 0
M  V30 839 H 76.6872 -4.91616 0.239641 0
M  V30 840 N 78.3393 -0.321999 -1.54275 0
M  V30 841 C 79.5853 0.281461 -2.00837 0
M  V30 842 C 79.9183 1.51909 -1.20985 0
M  V30 843 O 79.1933 1.923 -0.291733 0
M  V30 844 C 79.4763 0.617162 -3.54772 0
M  V30 845 C 79.3293 -0.631064 -4.45351 0
M  V30 846 C 80.6483 1.43542 -4.16033 0
M  V30 847 H 77.7673 0.100826 -0.730071 0
M  V30 848 H 80.4093 -0.438268 -1.84876 0
M  V30 849 H 78.5593 1.23034 -3.68504 0
M  V30 850 H 80.2313 -1.26934 -4.43492 0
M  V30 851 H 78.4743 -1.26025 -4.15091 0
M  V30 852 H 79.1453 -0.351735 -5.50878 0
M  V30 853 H 81.6213 0.917134 -4.05867 0
M  V30 854 H 80.4973 1.63907 -5.23856 0
M  V30 855 H 80.7583 2.43108 -3.69257 0
M  V30 856 N 79.8174 1.5752 -0.0501392 0
M  V30 857 C 80.7804 2.1037 0.909786 0
M  V30 858 C 81.7804 1.02308 1.24056 0
M  V30 859 O 82.9704 1.28385 1.17741 0
M  V30 860 C 80.1024 2.58708 2.21998 0
M  V30 861 H 81.2954 2.96479 0.451665 0
M  V30 862 H 78.8484 1.55038 0.198248 0
M  V30 863 H 79.5834 1.75989 2.72394 0
M  V30 864 H 79.3684 3.37675 1.99295 0
M  V30 865 H 80.8584 2.99747 2.9076 0
M  V30 866 N 81.2955 -0.223234 1.56011 0
M  V30 867 C 82.2255 -1.27988 1.95298 0
M  V30 868 C 83.2065 -1.48976 0.820979 0
M  V30 869 O 84.3915 -1.61188 1.08315 0
M  V30 870 C 81.5215 -2.63 2.26822 0
M  V30 871 C 80.4755 -2.56671 3.42497 0
M  V30 872 C 79.8015 -3.95697 3.59622 0
M  V30 873 C 81.1015 -2.11601 4.77517 0
M  V30 874 H 82.7955 -0.953525 2.8381 0
M  V30 875 H 80.3415 -0.457244 1.36548 0
M  V30 876 H 82.2945 -3.37077 2.52898 0
M  V30 877 H 81.0185 -2.9732 1.35161 0
M  V30 878 H 79.6775 -1.85051 3.16467 0
M  V30 879 H 79.3255 -4.27322 2.6534 0
M  V30 880 H 79.0255 -3.92345 4.37424 0
M  V30 881 H 80.5495 -4.71438 3.88044 0
M  V30 882 H 81.9635 -2.7542 5.02809 0
M  V30 883 H 80.3605 -2.19311 5.5859 0
M  V30 884 H 81.4305 -1.06824 4.72987 0
M  V30 885 N 82.7736 -1.49793 -0.48987 0
M  V30 886 C 84.1896 -1.36803 -0.822022 0
M  V30 887 C 84.3896 -0.409652 -1.97292 0
M  V30 888 O 83.4456 0.154614 -2.52026 0
M  V30 889 C 84.7586 -2.77768 -1.15175 0
M  V30 890 C 86.3066 -2.86549 -1.25931 0
M  V30 891 C 86.7816 -4.28306 -1.62228 0
M  V30 892 N 88.2726 -4.31169 -1.69256 0
M  V30 893 C 89.0076 -5.37832 -1.98807 0
M  V30 894 N 88.5036 -6.54726 -2.26507 0
M  V30 895 N 90.2966 -5.25258 -2.00152 0
M  V30 896 H 82.4476 -2.10691 0.268881 0
M  V30 897 H 84.7106 -0.946241 0.057728 0
M  V30 898 H 84.4166 -3.49648 -0.379335 0
M  V30 899 H 84.2906 -3.13836 -2.09253 0
M  V30 900 H 86.6776 -2.14899 -2.02243 0
M  V30 901 H 86.7586 -2.54049 -0.298776 0
M  V30 902 H 86.4026 -5.00486 -0.864622 0
M  V30 903 H 86.3326 -4.58279 -2.594 0
M  V30 904 H 88.8236 -3.4687 -1.49965 0
M  V30 905 H 89.1366 -7.31833 -2.48276 0
M  V30 906 H 87.4816 -6.57933 -2.23939 0
M  V30 907 H 90.6726 -4.32938 -1.77996 0
M  V30 908 H 90.8456 -6.08476 -2.22848 0
M  V30 909 N 84.2517 0.741722 -1.39055 0
M  V30 910 C 85.4817 1.52876 -1.3897 0
M  V30 911 C 85.8897 1.8919 0.0193266 0
M  V30 912 O 85.2327 1.54138 0.999356 0
M  V30 913 C 85.2947 2.84929 -2.19216 0
M  V30 914 C 84.9587 2.71086 -3.67915 0
M  V30 915 C 85.9557 2.40084 -4.61146 0
M  V30 916 C 83.6407 2.88168 -4.11418 0
M  V30 917 C 85.6347 2.26335 -5.95862 0
M  V30 918 C 83.3217 2.74037 -5.46211 0
M  V30 919 C 84.3197 2.43166 -6.38247 0
M  V30 920 O 84.0077 2.29115 -7.70559 0
M  V30 921 H 83.7397 0.479252 -0.476753 0
M  V30 922 H 86.2937 0.924751 -1.83405 0
M  V30 923 H 84.5237 3.47564 -1.69518 0
M  V30 924 H 86.2127 3.46509 -2.11392 0
M  V30 925 H 86.9787 2.26545 -4.28838 0
M  V30 926 H 82.8577 3.11191 -3.40119 0
M  V30 927 H 86.4017 2.0216 -6.67665 0
M  V30 928 H 82.2987 2.87153 -5.78112 0
M  V30 929 H 83.0667 2.44237 -7.81211 0
M  V30 930 N 85.7298 1.2412 0.971189 0
M  V30 931 C 86.9598 1.10415 1.7462 0
M  V30 932 C 87.3678 -0.346462 1.86001 0
M  V30 933 O 86.7108 -1.25104 1.34517 0
M  V30 934 C 86.7728 1.66596 3.18568 0
M  V30 935 C 86.4368 3.15446 3.3067 0
M  V30 936 C 87.4338 4.12636 3.16271 0
M  V30 937 C 85.1188 3.55337 3.55022 0
M  V30 938 C 87.1128 5.47699 3.26044 0
M  V30 939 C 84.7998 4.90542 3.64434 0
M  V30 940 C 85.7978 5.86532 3.49956 0
M  V30 941 O 85.4858 7.19279 3.59017 0
M  V30 942 H 85.2178 0.386616 0.55453 0
M  V30 943 H 87.7718 1.64633 1.22821 0
M  V30 944 H 86.0018 1.06808 3.71657 0
M  V30 945 H 87.6908 1.48232 3.77865 0
M  V30 946 H 88.4568 3.8316 2.97344 0
M  V30 947 H 84.3358 2.8113 3.65359 0
M  V30 948 H 87.8798 6.22603 3.14661 0
M  V30 949 H 83.7768 5.19691 3.82873 0
M  V30 950 H 84.5448 7.27153 3.75754 0
M  V30 951 N 87.2079 -1.17134 1.05439 0
M  V30 952 C 88.4559 -1.87085 0.764429 0
M  V30 953 C 88.7769 -1.81584 -0.710787 0
M  V30 954 O 88.0469 -1.24349 -1.51374 0
M  V30 955 H 86.6269 -0.692627 0.279779 0
M  V30 956 H 89.2889 -1.42087 1.33406 0
M  V30 957 H 88.3849 -2.92759 1.0816 0
M  V30 958 N 88.686 -0.835752 -1.33615 0
M  V30 959 C 89.926 -0.43599 -1.99696 0
M  V30 960 C 90.29 0.98557 -1.64774 0
M  V30 961 O 91.491 1.48889 -2.23798 0
M  V30 962 C 89.762 -0.646721 -3.515 0
M  V30 963 S 91.321 -0.341715 -4.37467 0
M  V30 964 H 88.139 -0.164136 -0.691795 0
M  V30 965 H 90.741 -1.08436 -1.62671 0
M  V30 966 H 89.445 -1.68077 -3.74404 0
M  V30 967 H 88.976 0.0159173 -3.93397 0
M  V30 968 H 90.991 0.839708 -4.89043 0
M  V30 969 N 90.1641 1.46063 -0.591896 0
M  V30 970 C 91.4121 2.01938 -0.0808391 0
M  V30 971 C 91.7331 1.46475 1.28725 0
M  V30 972 O 91.0031 0.652944 1.84698 0
M  V30 973 H 89.5831 0.746516 -0.0268938 0
M  V30 974 H 92.2451 1.79055 -0.769752 0
M  V30 975 H 91.3411 3.12094 -0.0187578 0
M  V30 976 N 91.6422 0.330177 1.54103 0
M  V30 977 C 92.5722 -0.525353 2.27513 0
M  V30 978 C 93.5532 -1.11383 1.2856 0
M  V30 979 O 94.7382 -1.13773 1.57383 0
M  V30 980 C 91.8682 -1.6831 3.03791 0
M  V30 981 C 90.8222 -1.2236 4.10137 0
M  V30 982 C 90.1482 -2.46882 4.74293 0
M  V30 983 C 91.4482 -0.333697 5.21233 0
M  V30 984 H 93.1422 0.087013 2.99274 0
M  V30 985 H 90.6882 0.0432893 1.43935 0
M  V30 986 H 92.6412 -2.28795 3.5388 0
M  V30 987 H 91.3652 -2.32216 2.29659 0
M  V30 988 H 90.0242 -0.64165 3.60941 0
M  V30 989 H 89.6722 -3.09165 3.96769 0
M  V30 990 H 89.3722 -2.16825 5.46133 0
M  V30 991 H 90.8962 -3.08117 5.27159 0
M  V30 992 H 92.3102 -0.845013 5.67038 0
M  V30 993 H 90.7072 -0.125612 5.99969 0
M  V30 994 H 91.7772 0.633724 4.80741 0
M  V30 995 N 93.1203 -1.57491 0.0584922 0
M  V30 996 C 94.3663 -1.93264 -0.614558 0
M  V30 997 C 94.6993 -0.937717 -1.7006 0
M  V30 998 O 93.9743 0.0351652 -1.94468 0
M  V30 999 C 94.2573 -3.3938 -1.20386 0
M  V30 1000 C 94.1103 -4.49625 -0.125375 0
M  V30 1001 C 95.4293 -3.86039 -2.11334 0
M  V30 1002 H 92.5483 -0.702791 -0.221933 0
M  V30 1003 H 95.1903 -1.8961 0.12175 0
M  V30 1004 H 93.3403 -3.42626 -1.83139 0
M  V30 1005 H 95.0123 -4.58506 0.506971 0
M  V30 1006 H 93.2553 -4.30354 0.545672 0
M  V30 1007 H 93.9263 -5.48967 -0.577861 0
M  V30 1008 H 96.4023 -3.84716 -1.58534 0
M  V30 1009 H 95.2783 -4.88914 -2.49507 0
M  V30 1010 H 95.5393 -3.23215 -3.01636 0
M  V30 1011 N 94.5984 0.214957 -1.56127 0
M  V30 1012 C 95.8474 0.936451 -1.78643 0
M  V30 1013 C 96.1604 1.85237 -0.628229 0
M  V30 1014 O 97.3664 2.613 -0.737186 0
M  V30 1015 C 95.8224 1.7154 -3.16389 0
M  V30 1016 C 95.4304 0.845299 -4.39953 0
M  V30 1017 C 97.1744 2.42772 -3.48227 0
M  V30 1018 C 95.0814 1.62198 -5.68723 0
M  V30 1019 H 94.0114 0.353401 -0.666051 0
M  V30 1020 H 96.6624 0.190169 -1.82512 0
M  V30 1021 H 95.0444 2.50484 -3.06715 0
M  V30 1022 H 96.2184 0.0959353 -4.607 0
M  V30 1023 H 94.5334 0.244789 -4.1568 0
M  V30 1024 H 97.1304 3.01394 -4.41663 0
M  V30 1025 H 97.4734 3.15984 -2.71035 0
M  V30 1026 H 98.0064 1.70813 -3.5926 0
M  V30 1027 H 94.7454 0.933011 -6.48826 0
M  V30 1028 H 94.2654 2.34579 -5.52026 0
M  V30 1029 H 95.9444 2.18095 -6.09133 0
M  V30 1030 N 96.0765 1.50051 0.48192 0
M  V30 1031 C 97.4875 1.5348 1.06305 0
M  V30 1032 C 97.8385 0.331997 1.93371 0
M  V30 1033 O 96.9635 -0.556256 2.09129 0
M  V30 1034 C 97.5585 2.7813 1.93466 0
M  V30 1035 C 96.1175 2.84275 2.46707 0
M  V30 1036 C 95.2645 2.47637 1.24785 0
M  V30 1037 H 98.2155 1.56472 0.264995 0
M  V30 1038 H 98.2365 2.59372 2.78399 0
M  V30 1039 H 97.7485 3.65654 1.30072 0
M  V30 1040 H 95.8495 2.01077 3.13686 0
M  V30 1041 H 95.9625 3.8691 2.82555 0
M  V30 1042 H 94.3265 1.99835 1.57918 0
M  V30 1043 H 95.1095 3.37457 0.630694 0
M  V30 1044 N 97.5546 -0.734337 1.39446 0
M  V30 1045 C 98.4646 -1.87879 1.40495 0
M  V30 1046 C 99.4806 -1.714 0.299672 0
M  V30 1047 O 100.657 -1.93991 0.541249 0
M  V30 1048 C 97.7216 -3.23477 1.24754 0
M  V30 1049 C 96.7826 -3.52344 2.45259 0
M  V30 1050 C 96.0156 -4.81473 2.30259 0
M  V30 1051 O 96.2386 -5.55237 1.30643 0
M  V30 1052 O 95.1726 -5.10254 3.19256 0
M  V30 1053 H 98.9986 -1.89949 2.36966 0
M  V30 1054 H 96.5836 -0.882243 1.20569 0
M  V30 1055 H 98.4656 -4.04509 1.18111 0
M  V30 1056 H 97.1406 -3.22176 0.313781 0
M  V30 1057 H 96.0476 -2.71396 2.57478 0
M  V30 1058 H 97.3806 -3.58426 3.37331 0
M  V30 1059 N 99.0327 -1.24633 -0.964593 0
M  V30 1060 C 99.9827 -1.00841 -2.04487 0
M  V30 1061 C 100.967 0.0512468 -1.60818 0
M  V30 1062 O 102.159 -0.162865 -1.76249 0
M  V30 1063 C 99.2877 -0.618474 -3.37683 0
M  V30 1064 C 98.3737 -1.71437 -3.87905 0
M  V30 1065 N 98.7647 -2.9477 -4.11029 0
M  V30 1066 C 97.0627 -1.5926 -4.16596 0
M  V30 1067 C 97.7637 -3.65834 -4.52261 0
M  V30 1068 N 96.7397 -2.9341 -4.57615 0
M  V30 1069 H 100.542 -1.94487 -2.20345 0
M  V30 1070 H 98.0557 -1.14805 -1.14863 0
M  V30 1071 H 100.053 -0.429247 -4.14684 0
M  V30 1072 H 98.7127 0.310766 -3.23209 0
M  V30 1073 H 99.7237 -3.30917 -3.9839 0
M  V30 1074 H 96.4007 -0.731606 -4.1104 0
M  V30 1075 H 97.7907 -4.71646 -4.78539 0
M  V30 1076 N 100.511 1.16574 -1.06058 0
M  V30 1077 C 101.441 2.23057 -0.690488 0
M  V30 1078 C 102.422 1.67141 0.315901 0
M  V30 1079 O 103.607 1.93253 0.191556 0
M  V30 1080 C 100.737 3.47222 -0.073625 0
M  V30 1081 C 99.6908 4.16016 -1.00573 0
M  V30 1082 C 99.0168 5.34104 -0.252289 0
M  V30 1083 C 100.317 4.67264 -2.33371 0
M  V30 1084 H 102.011 2.54271 -1.58072 0
M  V30 1085 H 99.5568 1.22218 -0.76149 0
M  V30 1086 H 101.51 4.20939 0.19714 0
M  V30 1087 H 100.234 3.15302 0.85161 0
M  V30 1088 H 98.8928 3.44223 -1.2612 0
M  V30 1089 H 98.5408 4.98437 0.675988 0
M  V30 1090 H 98.2408 5.81072 -0.873455 0
M  V30 1091 H 99.7648 6.10599 0.0109857 0
M  V30 1092 H 101.179 5.32573 -2.12223 0
M  V30 1093 H 99.5758 5.24843 -2.90963 0
M  V30 1094 H 100.646 3.83602 -2.96611 0
M  V30 1095 N 101.989 0.842826 1.3317 0
M  V30 1096 C 102.899 0.281444 2.32906 0
M  V30 1097 C 103.915 -0.594587 1.63526 0
M  V30 1098 O 105.091 -0.49777 1.95152 0
M  V30 1099 C 102.156 -0.530929 3.42611 0
M  V30 1100 C 101.217 0.369843 4.27704 0
M  V30 1101 C 100.45 -0.403853 5.3217 0
M  V30 1102 O 100.673 -1.63513 5.46461 0
M  V30 1103 O 99.6069 0.224199 6.01482 0
M  V30 1104 H 103.433 1.10744 2.82789 0
M  V30 1105 H 101.018 0.60545 1.36582 0
M  V30 1106 H 102.9 -0.992437 4.09547 0
M  V30 1107 H 101.575 -1.33392 2.94938 0
M  V30 1108 H 100.482 0.879275 3.6362 0
M  V30 1109 H 101.815 1.13771 4.78871 0
M  V30 1110 N 103.467 -1.45747 0.599634 0
M  V30 1111 C 104.415 -2.322 -0.136426 0
M  V30 1112 C 105.409 -1.45497 -0.867583 0
M  V30 1113 O 106.615 -1.62027 -0.78405 0
M  V30 1114 H 102.99 -0.749368 -0.0628588 0
M  V30 1115 H 104.961 -2.92072 0.611281 0
M  V30 1116 C 103.71 -3.28974 -1.12567 0
M  V30 1117 H 103.033 -3.9568 -0.572484 0
M  V30 1118 H 104.473 -3.92212 -1.61077 0
M  V30 1119 C 102.932 -2.55561 -2.19523 0
M  V30 1120 O 103.462 -2.33111 -3.27143 0
M  V30 1121 N 101.668 -2.15832 -1.94589 0
M  V30 1122 H 101.215 -2.3429 -1.07078 0
M  V30 1123 H 101.173 -1.67034 -2.66359 0
M  V30 1124 N 104.945 -0.338344 -1.53925 0
M  V30 1125 C 106.185 0.260168 -2.02737 0
M  V30 1126 C 106.549 1.48181 -1.22092 0
M  V30 1127 O 107.75 2.15416 -1.60777 0
M  V30 1128 C 106.021 0.571627 -3.52799 0
M  V30 1129 S 107.58 1.14769 -4.23525 0
M  V30 1130 H 104.398 0.077791 -0.706732 0
M  V30 1131 H 107 -0.474899 -1.89644 0
M  V30 1132 H 105.704 -0.325392 -4.09108 0
M  V30 1133 H 105.235 1.3365 -3.70002 0
M  V30 1134 H 107.25 2.43372 -4.32417 0
M  V30 1135 N 106.423 1.57458 -0.0668435 0
M  V30 1136 C 107.669 1.94401 0.598316 0
M  V30 1137 C 108.024 0.946335 1.67518 0
M  V30 1138 O 107.317 -0.0321442 1.91573 0
M  V30 1139 C 107.511 3.35784 1.22409 0
M  V30 1140 C 107.34 4.49212 0.209367 0
M  V30 1141 C 106.11 5.04887 -0.204218 0
M  V30 1142 C 108.308 5.11335 -0.551431 0
M  V30 1143 N 106.29 6.01854 -1.21016 0
M  V30 1144 C 107.661 6.03754 -1.41 0
M  V30 1145 C 109.716 4.94173 -0.608038 0
M  V30 1146 C 108.419 6.80854 -2.32013 0
M  V30 1147 C 110.445 5.71912 -1.50566 0
M  V30 1148 C 109.807 6.63976 -2.35191 0
M  V30 1149 H 105.906 0.758538 0.190114 0
M  V30 1150 H 108.49 1.94175 -0.142832 0
M  V30 1151 H 106.661 3.36757 1.93518 0
M  V30 1152 H 108.393 3.59976 1.84931 0
M  V30 1153 H 105.148 4.73266 0.177908 0
M  V30 1154 H 105.572 6.55035 -1.71049 0
M  V30 1155 H 110.214 4.22788 0.032022 0
M  V30 1156 H 107.932 7.5152 -2.97057 0
M  V30 1157 H 111.518 5.60656 -1.55423 0
M  V30 1158 H 110.398 7.2308 -3.03522 0
M  V30 1159 N 107.901 -0.206675 1.56239 0
M  V30 1160 C 109.15 -0.926964 1.79138 0
M  V30 1161 C 109.463 -1.84901 0.638043 0
M  V30 1162 O 110.669 -2.60906 0.751033 0
M  V30 1163 C 109.125 -1.6986 3.17294 0
M  V30 1164 C 108.733 -0.821956 4.40395 0
M  V30 1165 C 110.477 -2.40922 3.4951 0
M  V30 1166 C 108.384 -1.59179 5.69575 0
M  V30 1167 H 107.314 -0.349864 0.667915 0
M  V30 1168 H 109.965 -0.180487 1.8261 0
M  V30 1169 H 108.347 -2.48853 3.08039 0
M  V30 1170 H 109.521 -0.0715019 4.60745 0
M  V30 1171 H 107.836 -0.222741 4.15804 0
M  V30 1172 H 110.433 -2.99047 4.43255 0
M  V30 1173 H 110.776 -3.14542 2.72707 0
M  V30 1174 H 111.309 -1.68905 3.60161 0
M  V30 1175 H 108.048 -0.898589 6.49312 0
M  V30 1176 H 107.568 -2.31648 5.53262 0
M  V30 1177 H 109.247 -2.14862 6.10281 0
M  V30 1178 N 109.379 -1.50304 -0.473955 0
M  V30 1179 C 110.309 -1.71886 -1.58042 0
M  V30 1180 C 111.29 -0.567799 -1.60344 0
M  V30 1181 O 112.475 -0.806623 -1.76656 0
M  V30 1182 C 109.605 -1.81036 -2.96384 0
M  V30 1183 C 108.559 -2.962 -3.08949 0
M  V30 1184 C 107.885 -2.9049 -4.48909 0
M  V30 1185 C 109.185 -4.36752 -2.86434 0
M  V30 1186 H 110.879 -2.64527 -1.40234 0
M  V30 1187 H 108.425 -1.27295 -0.673201 0
M  V30 1188 H 110.378 -1.94719 -3.73714 0
M  V30 1189 H 109.102 -0.850147 -3.15341 0
M  V30 1190 H 107.761 -2.82164 -2.3405 0
M  V30 1191 H 107.409 -1.92321 -4.64781 0
M  V30 1192 H 107.109 -3.67802 -4.58253 0
M  V30 1193 H 108.633 -3.06218 -5.28264 0
M  V30 1194 H 110.047 -4.5133 -3.53517 0
M  V30 1195 H 108.444 -5.15493 -3.07225 0
M  V30 1196 H 109.514 -4.49321 -1.82316 0
M  V30 1197 N 110.857 0.726932 -1.39834 0
M  V30 1198 C 112.134 1.47902 -1.28001 0
M  V30 1199 C 112.514 2.1083 0.106789 0
M  V30 1200 O 111.862 1.99242 1.11869 0
M  V30 1201 C 112.072 2.52392 -2.41038 0
M  V30 1202 C 113.42 3.18546 -2.80737 0
M  V30 1203 O 114.444 2.62708 -2.40547 0
M  V30 1204 O 113.303 4.19604 -3.50135 0
M  V30 1205 H 110.397 0.657163 -0.502062 0
M  V30 1206 H 112.943 0.760071 -1.51727 0
M  V30 1207 H 111.715 2.04329 -3.33715 0
M  V30 1208 H 111.338 3.31837 -2.19021 0
M  V30 1209 N 112.336 1.25143 0.95797 0
M  V30 1210 C 113.266 1.07711 2.07173 0
M  V30 1211 C 114.247 -0.0128462 1.70095 0
M  V30 1212 O 115.432 0.156061 1.93572 0
M  V30 1213 C 112.562 0.691503 3.40346 0
M  V30 1214 C 111.516 1.73132 3.9142 0
M  V30 1215 C 110.842 1.20049 5.21049 0
M  V30 1216 C 112.142 3.1294 4.1817 0
M  V30 1217 H 113.836 2.00873 2.22014 0
M  V30 1218 H 111.382 0.967191 1.06684 0
M  V30 1219 H 113.335 0.556505 4.17709 0
M  V30 1220 H 112.059 -0.275819 3.25433 0
M  V30 1221 H 110.718 1.8547 3.16222 0
M  V30 1222 H 110.366 0.223499 5.02503 0
M  V30 1223 H 110.066 1.89545 5.56189 0
M  V30 1224 H 111.59 1.07782 6.01012 0
M  V30 1225 H 113.004 3.03775 4.86203 0
M  V30 1226 H 111.401 3.79875 4.64559 0
M  V30 1227 H 112.471 3.6025 3.24573 0
M  V30 1228 N 113.814 -1.1601 1.06675 0
M  V30 1229 C 115.062 -1.86264 0.784229 0
M  V30 1230 C 115.383 -1.82328 -0.691488 0
M  V30 1231 O 114.653 -1.25947 -1.50047 0
M  V30 1232 H 113.233 -0.689621 0.28711 0
M  V30 1233 H 115.895 -1.40664 1.34906 0
M  V30 1234 H 114.991 -2.91595 1.11259 0
M  V30 1235 N 115.292 -0.849877 -1.32721 0
M  V30 1236 C 116.517 -0.463856 -2.02146 0
M  V30 1237 C 116.942 0.930449 -1.63476 0
M  V30 1238 O 116.3 1.61033 -0.832952 0
M  V30 1239 C 116.348 -0.604955 -3.55489 0
M  V30 1240 O 115.452 0.36425 -4.10788 0
M  V30 1241 H 114.793 -0.187046 -0.637111 0
M  V30 1242 H 117.323 -1.14775 -1.69375 0
M  V30 1243 H 117.333 -0.490696 -4.05038 0
M  V30 1244 H 116.008 -1.62174 -3.82978 0
M  V30 1245 H 114.585 0.206628 -3.72327 0
M  V30 1246 N 116.77 1.45427 -0.607355 0
M  V30 1247 C 118.018 2.01841 -0.102253 0
M  V30 1248 C 118.339 1.47832 1.27164 0
M  V30 1249 O 117.609 0.672497 1.83995 0
M  V30 1250 H 116.189 0.746188 -0.0348101 0
M  V30 1251 H 118.851 1.78229 -0.7887 0
M  V30 1252 H 117.947 3.12057 -0.0518585 0
M  V30 1253 N 118.248 0.346503 1.53744 0
M  V30 1254 C 119.473 -0.253074 2.0585 0
M  V30 1255 C 119.898 -1.43202 1.21962 0
M  V30 1256 O 119.256 -1.79783 0.234073 0
M  V30 1257 C 119.304 -0.643193 3.54817 0
M  V30 1258 O 118.408 -1.74286 3.73762 0
M  V30 1259 H 117.749 -0.0413583 0.662711 0
M  V30 1260 H 120.279 0.501574 1.98357 0
M  V30 1261 H 120.289 -0.919526 3.97503 0
M  V30 1262 H 118.964 0.218966 4.15323 0
M  V30 1263 H 117.541 -1.46356 3.42979 0
M  V30 1264 N 119.726 -1.57421 0.075193 0
M  V30 1265 C 120.974 -1.93236 -0.591974 0
M  V30 1266 C 121.295 -0.956241 -1.69944 0
M  V30 1267 O 120.565 -0.00494792 -1.95899 0
M  V30 1268 H 119.145 -0.713355 -0.22166 0
M  V30 1269 H 121.807 -1.9444 0.133848 0
M  V30 1270 H 120.903 -2.95131 -1.01509 0
M  V30 1271 N 121.204 0.198386 -1.56346 0
M  V30 1272 C 122.62 0.549085 -1.49857 0
M  V30 1273 C 122.82 1.86016 -0.774611 0
M  V30 1274 O 121.876 2.50416 -0.323776 0
M  V30 1275 C 123.189 0.606868 -2.94512 0
M  V30 1276 C 124.737 0.695925 -3.05165 0
M  V30 1277 C 125.212 0.784848 -4.51225 0
M  V30 1278 N 126.703 0.848463 -4.55363 0
M  V30 1279 C 127.438 0.937378 -5.65686 0
M  V30 1280 N 126.934 0.9888 -6.85707 0
M  V30 1281 N 128.727 0.974312 -5.53592 0
M  V30 1282 H 120.878 -0.661655 -2.01831 0
M  V30 1283 H 123.141 -0.235261 -0.918344 0
M  V30 1284 H 122.847 -0.28732 -3.50524 0
M  V30 1285 H 122.721 1.46268 -3.47686 0
M  V30 1286 H 125.108 1.58055 -2.49204 0
M  V30 1287 H 125.189 -0.186022 -2.55123 0
M  V30 1288 H 124.833 -0.0954072 -5.0781 0
M  V30 1289 H 124.763 1.68255 -4.98997 0
M  V30 1290 H 127.254 0.818103 -3.68938 0
M  V30 1291 H 127.567 1.05707 -7.65536 0
M  V30 1292 H 125.912 0.957534 -6.88372 0
M  V30 1293 H 129.103 0.930954 -4.58749 0
M  V30 1294 H 129.276 1.04015 -6.39597 0
M  V30 1295 N 122.682 1.50554 0.465978 0
M  V30 1296 C 123.959 1.5232 1.22712 0
M  V30 1297 C 124.339 0.270807 2.09356 0
M  V30 1298 O 123.687 -0.745541 2.15995 0
M  V30 1299 C 123.897 2.82175 2.05374 0
M  V30 1300 C 125.245 3.33033 2.6339 0
M  V30 1301 O 126.269 2.83531 2.15612 0
M  V30 1302 O 125.128 4.19336 3.50456 0
M  V30 1303 H 122.222 0.611183 0.557122 0
M  V30 1304 H 124.768 1.62847 0.477381 0
M  V30 1305 H 123.54 3.64797 1.41558 0
M  V30 1306 H 123.163 2.74675 2.87471 0
M  V30 1307 N 124.16 -0.719506 1.40217 0
M  V30 1308 C 125.4 -1.49181 1.39729 0
M  V30 1309 C 125.764 -1.92 -0.00250614 0
M  V30 1310 O 126.965 -2.68473 -0.132479 0
M  V30 1311 C 125.236 -2.68767 2.35582 0
M  V30 1312 S 126.795 -3.58224 2.53418 0
M  V30 1313 H 123.613 -0.510091 0.495307 0
M  V30 1314 H 126.215 -0.841724 1.76452 0
M  V30 1315 H 124.919 -2.35475 3.36124 0
M  V30 1316 H 124.45 -3.38691 2.0013 0
M  V30 1317 H 126.465 -4.63033 1.78367 0
M  V30 1318 N 125.638 -1.25649 -0.95132 0
M  V30 1319 C 126.868 -1.13179 -1.72841 0
M  V30 1320 C 127.276 0.316827 -1.86528 0
M  V30 1321 O 126.619 1.22948 -1.3649 0
M  V30 1322 C 126.681 -1.71644 -3.15878 0
M  V30 1323 C 126.345 -3.20667 -3.25609 0
M  V30 1324 C 127.342 -4.17616 -3.09666 0
M  V30 1325 C 125.027 -3.6094 -3.49324 0
M  V30 1326 C 127.021 -5.52817 -3.17289 0
M  V30 1327 C 124.708 -4.96278 -3.56584 0
M  V30 1328 C 125.706 -5.92025 -3.40581 0
M  V30 1329 O 125.394 -7.24899 -3.47528 0
M  V30 1330 H 125.126 -0.395389 -0.54831 0
M  V30 1331 H 127.68 -1.66566 -1.20187 0
M  V30 1332 H 125.91 -1.12707 -3.69911 0
M  V30 1333 H 127.599 -1.54225 -3.75459 0
M  V30 1334 H 128.365 -3.87842 -2.91211 0
M  V30 1335 H 124.244 -2.86907 -3.6084 0
M  V30 1336 H 127.788 -6.2753 -3.04716 0
M  V30 1337 H 123.685 -5.25716 -3.74556 0
M  V30 1338 H 124.453 -7.33039 -3.64138 0
M  V30 1339 N 127.117 1.15442 -1.07289 0
M  V30 1340 C 128.363 1.86489 -0.796846 0
M  V30 1341 C 128.696 1.82078 0.675371 0
M  V30 1342 O 127.971 1.24346 1.4956 0
M  V30 1343 C 128.254 3.35626 -1.30489 0
M  V30 1344 C 128.107 3.48673 -2.84161 0
M  V30 1345 C 129.426 4.30357 -0.920907 0
M  V30 1346 H 126.545 0.677144 -0.290939 0
M  V30 1347 H 129.187 1.35633 -1.33056 0
M  V30 1348 H 127.337 3.79068 -0.850883 0
M  V30 1349 H 129.009 3.14099 -3.37846 0
M  V30 1350 H 127.252 2.90253 -3.22391 0
M  V30 1351 H 127.923 4.53453 -3.14777 0
M  V30 1352 H 130.399 3.94871 -1.3121 0
M  V30 1353 H 129.275 5.33193 -1.30372 0
M  V30 1354 H 129.536 4.4176 0.173226 0
M  V30 1355 N 128.595 0.856903 1.32268 0
M  V30 1356 C 129.525 0.31858 2.31316 0
M  V30 1357 C 130.506 -0.583487 1.59779 0
M  V30 1358 O 131.691 -0.503259 1.87566 0
M  V30 1359 C 128.821 -0.491979 3.43798 0
M  V30 1360 C 127.775 0.315849 4.26833 0
M  V30 1361 C 127.101 -0.619586 5.31098 0
M  V30 1362 C 128.401 1.54282 4.98993 0
M  V30 1363 H 130.095 1.14621 2.76591 0
M  V30 1364 H 127.641 0.552613 1.32974 0
M  V30 1365 H 129.594 -0.879012 4.1213 0
M  V30 1366 H 128.318 -1.35299 2.97257 0
M  V30 1367 H 126.977 0.684664 3.6015 0
M  V30 1368 H 126.625 -1.47751 4.8081 0
M  V30 1369 H 126.325 -0.0830621 5.87541 0
M  V30 1370 H 127.849 -1.00375 6.02293 0
M  V30 1371 H 129.263 1.22796 5.59995 0
M  V30 1372 H 127.66 2.01745 5.65172 0
M  V30 1373 H 128.73 2.30285 4.26728 0
M  V30 1374 N 130.073 -1.45103 0.615059 0
M  V30 1375 C 131.298 -2.07064 0.117988 0
M  V30 1376 C 131.723 -1.4554 -1.19163 0
M  V30 1377 O 131.081 -0.550855 -1.72729 0
M  V30 1378 C 131.129 -3.606 -0.000288387 0
M  V30 1379 O 130.233 -3.98847 -1.04856 0
M  V30 1380 H 129.574 -0.659467 0.0774581 0
M  V30 1381 H 132.104 -1.86236 0.847186 0
M  V30 1382 H 132.114 -4.07529 -0.196091 0
M  V30 1383 H 130.789 -4.04765 0.955932 0
M  V30 1384 H 129.366 -3.63577 -0.828619 0
M  V30 1385 N 131.551 -0.354651 -1.53558 0
M  V30 1386 C 132.483 0.5315 -2.22952 0
M  V30 1387 C 133.496 1.05503 -1.23988 0
M  V30 1388 O 134.685 0.963279 -1.50277 0
M  V30 1389 C 131.785 1.74538 -2.90499 0
M  V30 1390 C 130.958 1.35524 -4.15875 0
M  V30 1391 C 130.017 2.42999 -4.66731 0
M  V30 1392 O 129.043 2.05844 -5.30676 0
M  V30 1393 N 130.245 3.74423 -4.43608 0
M  V30 1394 H 133.01 -0.0628615 -2.99634 0
M  V30 1395 H 130.571 -0.179302 -1.60904 0
M  V30 1396 H 132.563 2.45892 -3.21433 0
M  V30 1397 H 131.133 2.24686 -2.17336 0
M  V30 1398 H 130.353 0.471998 -3.91364 0
M  V30 1399 H 131.641 1.07071 -4.97406 0
M  V30 1400 H 131.039 4.07391 -3.92491 0
M  V30 1401 H 129.596 4.41913 -4.7912 0
M  V30 1402 N 133.029 1.57378 -0.0835403 0
M  V30 1403 C 133.959 2.1641 0.87686 0
M  V30 1404 C 134.94 1.09429 1.30228 0
M  V30 1405 O 136.125 1.37516 1.37124 0
M  V30 1406 C 133.255 2.73517 2.14022 0
M  V30 1407 C 132.209 3.85769 1.85381 0
M  V30 1408 C 131.535 4.29529 3.18448 0
M  V30 1409 C 132.835 5.09486 1.14984 0
M  V30 1410 H 134.529 2.96914 0.385059 0
M  V30 1411 H 132.075 1.42823 0.18377 0
M  V30 1412 H 134.028 3.13463 2.81636 0
M  V30 1413 H 132.752 1.90252 2.65465 0
M  V30 1414 H 131.411 3.46345 1.20169 0
M  V30 1415 H 131.059 3.43169 3.67755 0
M  V30 1416 H 130.759 5.05204 3.00071 0
M  V30 1417 H 132.283 4.72099 3.8724 0
M  V30 1418 H 133.697 5.46674 1.72687 0
M  V30 1419 H 132.094 5.90515 1.06826 0
M  V30 1420 H 133.164 4.84724 0.130749 0
M  V30 1421 N 134.507 -0.190092 1.56449 0
M  V30 1422 C 135.753 -0.911052 1.81184 0
M  V30 1423 C 136.086 -1.82699 0.658396 0
M  V30 1424 O 135.361 -1.91491 -0.340775 0
M  V30 1425 C 135.644 -1.72297 3.16205 0
M  V30 1426 C 135.497 -0.831419 4.42049 0
M  V30 1427 C 136.816 -2.69454 3.47969 0
M  V30 1428 H 133.935 -0.32977 0.659106 0
M  V30 1429 H 136.577 -0.178169 1.89163 0
M  V30 1430 H 134.727 -2.34778 3.09534 0
M  V30 1431 H 136.399 -0.220929 4.60771 0
M  V30 1432 H 134.642 -0.138406 4.33579 0
M  V30 1433 H 135.313 -1.43461 5.33032 0
M  V30 1434 H 137.789 -2.17104 3.54972 0
M  V30 1435 H 136.665 -3.23342 4.43555 0
M  V30 1436 H 136.926 -3.48744 2.71717 0
M  V30 1437 N 135.985 -1.50799 -0.457987 0
M  V30 1438 C 137.233 -1.62121 -1.2067 0
M  V30 1439 C 137.554 -0.329793 -1.92191 0
M  V30 1440 O 136.824 0.653409 -1.84682 0
M  V30 1441 H 135.404 -0.597441 -0.448411 0
M  V30 1442 H 138.066 -1.87637 -0.527096 0
M  V30 1443 H 137.162 -2.43882 -1.94751 0
M  V30 1444 N 137.463 0.71206 -1.40597 0
M  V30 1445 C 138.373 1.8562 -1.43466 0
M  V30 1446 C 139.389 1.70902 -0.326902 0
M  V30 1447 O 140.565 1.93105 -0.572043 0
M  V30 1448 C 137.63 3.21451 -1.29884 0
M  V30 1449 C 136.691 3.48398 -2.50833 0
M  V30 1450 C 135.924 4.77749 -2.3789 0
M  V30 1451 O 136.147 5.53089 -1.39459 0
M  V30 1452 O 135.081 5.05111 -3.27333 0
M  V30 1453 H 138.907 1.86155 -2.39958 0
M  V30 1454 H 136.492 0.86295 -1.21957 0
M  V30 1455 H 138.374 4.02579 -1.24531 0
M  V30 1456 H 137.049 3.21636 -0.364997 0
M  V30 1457 H 135.956 2.67265 -2.61763 0
M  V30 1458 H 137.289 3.53014 -3.4299 0
M  V30 1459 N 138.941 1.26152 0.944643 0
M  V30 1460 C 139.888 1.07408 2.04285 0
M  V30 1461 C 140.858 -0.0198413 1.66088 0
M  V30 1462 O 142.043 0.139264 1.90291 0
M  V30 1463 C 139.183 0.70945 3.37729 0
M  V30 1464 C 138.296 1.87926 3.88983 0
M  V30 1465 C 137.431 1.45807 5.10797 0
M  V30 1466 C 136.47 2.5964 5.54305 0
M  V30 1467 N 135.607 2.18226 6.67324 0
M  V30 1468 H 140.447 2.01389 2.1965 0
M  V30 1469 H 137.984 1.00275 1.07626 0
M  V30 1470 H 139.942 0.478948 4.14442 0
M  V30 1471 H 138.572 -0.193389 3.2222 0
M  V30 1472 H 137.624 2.22279 3.08701 0
M  V30 1473 H 138.936 2.73377 4.17213 0
M  V30 1474 H 138.09 1.18781 5.94959 0
M  V30 1475 H 136.829 0.574414 4.84305 0
M  V30 1476 H 135.834 2.87399 4.68702 0
M  V30 1477 H 137.059 3.48599 5.828 0
M  V30 1478 H 135.005 1.3229 6.42523 0
M  V30 1479 H 134.922 2.97221 6.95123 0
M  V30 1480 H 136.19 1.94403 7.54869 0
M  V30 1481 N 140.419 -1.14872 1.07899 0
M  V30 1482 C 141.667 -1.85422 0.803941 0
M  V30 1483 C 141.988 -1.83051 -0.67211 0
M  V30 1484 O 141.258 -1.27532 -1.48703 0
M  V30 1485 H 139.838 -0.686537 0.294408 0
M  V30 1486 H 142.5 -1.39226 1.3639 0
M  V30 1487 H 141.596 -2.90399 1.14346 0
M  V30 1488 N 141.898 -0.863906 -1.31812 0
M  V30 1489 C 142.848 -0.286898 -2.26188 0
M  V30 1490 C 143.832 0.572577 -1.50367 0
M  V30 1491 O 145.024 0.420447 -1.71934 0
M  V30 1492 C 142.153 0.515849 -3.39402 0
M  V30 1493 C 141.239 -0.356531 -4.22599 0
M  V30 1494 N 141.63 -1.44716 -4.84656 0
M  V30 1495 C 139.928 -0.147898 -4.45755 0
M  V30 1496 C 140.629 -1.98462 -5.46798 0
M  V30 1497 N 139.605 -1.28247 -5.28255 0
M  V30 1498 H 143.407 -1.12055 -2.717 0
M  V30 1499 H 140.921 -0.711012 -1.46008 0
M  V30 1500 H 142.918 0.945701 -4.06032 0
M  V30 1501 H 141.578 1.34718 -2.95434 0
M  V30 1502 H 142.589 -1.83008 -4.84488 0
M  V30 1503 H 139.266 0.647973 -4.12441 0
M  V30 1504 H 140.656 -2.89932 -6.06126 0
M  V30 1505 N 143.376 1.44774 -0.622745 0
M  V30 1506 C 144.622 2.0242 -0.124083 0
M  V30 1507 C 144.955 1.4881 1.24777 0
M  V30 1508 O 144.23 0.668799 1.8264 0
M  V30 1509 C 144.513 3.59957 -0.101619 0
M  V30 1510 C 144.366 4.23867 -1.50521 0
M  V30 1511 C 145.685 4.36284 0.578272 0
M  V30 1512 H 142.804 0.735528 -0.0465645 0
M  V30 1513 H 145.446 1.72447 -0.797617 0
M  V30 1514 H 143.596 3.85623 0.471934 0
M  V30 1515 H 145.268 4.09336 -2.12701 0
M  V30 1516 H 143.511 3.81684 -2.06154 0
M  V30 1517 H 144.182 5.32843 -1.4416 0
M  V30 1518 H 146.658 4.16001 0.0906057 0
M  V30 1519 H 145.534 5.46004 0.563149 0
M  V30 1520 H 145.795 4.10271 1.64713 0
M  V30 1521 N 144.854 0.36279 1.53368 0
M  V30 1522 C 146.082 -0.228613 2.05633 0
M  V30 1523 C 146.497 -1.42676 1.23649 0
M  V30 1524 O 145.854 -1.80394 0.27647 0
M  V30 1525 C 145.905 -0.624845 3.56059 0
M  V30 1526 O 145.626 0.525675 4.34935 0
M  V30 1527 C 147.127 -1.27493 4.24571 0
M  V30 1528 H 144.347 -0.0407183 0.669763 0
M  V30 1529 H 146.891 0.520352 1.97769 0
M  V30 1530 H 145.046 -1.32373 3.64083 0
M  V30 1531 H 145.46 0.205969 5.24095 0
M  V30 1532 H 146.934 -1.50277 5.31151 0
M  V30 1533 H 147.411 -2.23439 3.78116 0
M  V30 1534 H 148.017 -0.617558 4.20792 0
M  V30 1535 N 146.332 -1.57332 0.0918853 0
M  V30 1536 C 147.58 -1.93853 -0.571446 0
M  V30 1537 C 147.901 -0.974212 -1.6892 0
M  V30 1538 O 147.171 -0.0257254 -1.95883 0
M  V30 1539 H 145.751 -0.715666 -0.214082 0
M  V30 1540 H 148.413 -1.94287 0.154464 0
M  V30 1541 H 147.509 -2.96191 -0.983729 0
M  V30 1542 N 147.81 0.181792 -1.56548 0
M  V30 1543 C 149.059 0.898348 -1.8059 0
M  V30 1544 C 149.372 1.83862 -0.667379 0
M  V30 1545 O 150.578 2.59678 -0.792446 0
M  V30 1546 C 149.034 1.64791 -3.19956 0
M  V30 1547 C 148.642 0.751789 -4.41647 0
M  V30 1548 C 150.386 2.35331 -3.53298 0
M  V30 1549 C 148.293 1.50098 -5.72035 0
M  V30 1550 H 147.223 0.339194 -0.673397 0
M  V30 1551 H 149.874 0.151413 -1.82874 0
M  V30 1552 H 148.256 2.43921 -3.11959 0
M  V30 1553 H 149.43 -0.0018076 -4.608 0
M  V30 1554 H 147.745 0.156562 -4.16106 0
M  V30 1555 H 150.342 2.91958 -4.47956 0
M  V30 1556 H 150.685 3.10164 -2.77676 0
M  V30 1557 H 151.218 1.63154 -3.62803 0
M  V30 1558 H 147.957 0.795175 -6.50659 0
M  V30 1559 H 147.477 2.22817 -5.56878 0
M  V30 1560 H 149.156 2.05125 -6.13622 0
M  V30 1561 N 149.288 1.51039 0.449983 0
M  V30 1562 C 150.565 1.53612 1.21089 0
M  V30 1563 C 150.945 0.292997 2.09057 0
M  V30 1564 O 150.293 -0.72259 2.16774 0
M  V30 1565 C 150.503 2.84337 2.0237 0
M  V30 1566 C 151.851 3.35807 2.59843 0
M  V30 1567 O 152.875 2.85802 2.12593 0
M  V30 1568 O 151.734 4.23029 3.45989 0
M  V30 1569 H 148.828 0.617057 0.550608 0
M  V30 1570 H 151.374 1.63344 0.460082 0
M  V30 1571 H 150.146 3.66278 1.37681 0
M  V30 1572 H 149.769 2.77708 2.84542 0
M  V30 1573 N 150.766 -0.704594 1.40972 0
M  V30 1574 C 151.699 -1.82861 1.36518 0
M  V30 1575 C 152.677 -1.6091 0.23382 0
M  V30 1576 O 153.861 -1.83778 0.419271 0
M  V30 1577 C 150.988 -3.1939 1.12729 0
M  V30 1578 C 150.034 -3.60148 2.28463 0
M  V30 1579 S 150.867 -3.65994 3.90907 0
M  V30 1580 C 152.023 -5.05264 3.69403 0
M  V30 1581 H 152.256 -1.86361 2.3164 0
M  V30 1582 H 149.789 -0.872439 1.27389 0
M  V30 1583 H 151.747 -3.98211 0.996893 0
M  V30 1584 H 150.408 -3.1351 0.192427 0
M  V30 1585 H 149.601 -4.59309 2.07489 0
M  V30 1586 H 149.203 -2.88612 2.37863 0
M  V30 1587 H 151.495 -5.92504 3.28551 0
M  V30 1588 H 152.438 -5.31278 4.68134 0
M  V30 1589 H 152.846 -4.76377 3.02862 0
M  V30 1590 N 152.244 -1.26651 -0.937939 0
M  V30 1591 C 153.472 -1.15173 -1.7188 0
M  V30 1592 C 153.887 0.292668 -1.86518 0
M  V30 1593 O 153.244 1.20014 -1.37488 0
M  V30 1594 C 153.295 -1.81925 -3.12387 0
M  V30 1595 O 153.016 -3.2072 -2.98446 0
M  V30 1596 C 154.517 -1.76442 -4.06673 0
M  V30 1597 H 151.737 -0.400911 -0.538063 0
M  V30 1598 H 154.281 -1.67332 -1.1756 0
M  V30 1599 H 152.436 -1.33696 -3.63599 0
M  V30 1600 H 152.85 -3.53802 -3.872 0
M  V30 1601 H 154.324 -2.27781 -5.02812 0
M  V30 1602 H 154.801 -0.731608 -4.33064 0
M  V30 1603 H 155.407 -2.24238 -3.61382 0
M  V30 1604 N 153.722 1.14298 -1.08507 0
M  V30 1605 C 154.669 2.19414 -0.715965 0
M  V30 1606 C 155.639 1.63399 0.298326 0
M  V30 1607 O 156.824 1.89929 0.182101 0
M  V30 1608 C 153.964 3.44845 -0.132534 0
M  V30 1609 C 153.077 4.15007 -1.19973 0
M  V30 1610 C 152.212 5.28024 -0.580048 0
M  V30 1611 C 151.251 5.9002 -1.62921 0
M  V30 1612 N 150.388 6.94485 -1.03125 0
M  V30 1613 H 155.228 2.50336 -1.61666 0
M  V30 1614 H 152.765 1.2293 -0.807882 0
M  V30 1615 H 154.723 4.16601 0.223454 0
M  V30 1616 H 153.353 3.14403 0.731467 0
M  V30 1617 H 152.405 3.41629 -1.67313 0
M  V30 1618 H 153.717 4.57178 -1.99473 0
M  V30 1619 H 152.871 6.06455 -0.172364 0
M  V30 1620 H 151.61 4.87076 0.246603 0
M  V30 1621 H 150.615 5.10291 -2.04654 0
M  V30 1622 H 151.84 6.33042 -2.45835 0
M  V30 1623 H 149.786 6.55612 -0.225711 0
M  V30 1624 H 149.703 7.35148 -1.76334 0
M  V30 1625 H 150.971 7.7679 -0.649458 0
M  V30 1626 N 155.201 0.870884 1.31352 0
M  V30 1627 C 156.449 0.48132 1.96285 0
M  V30 1628 C 156.77 -0.969813 1.69173 0
M  V30 1629 O 156.04 -1.67998 1.00764 0
M  V30 1630 H 154.62 0.175002 0.726212 0
M  V30 1631 H 157.282 1.11087 1.60143 0
M  V30 1632 H 156.378 0.639825 3.05471 0
M  V30 1633 N 156.679 -1.44442 0.630414 0
M  V30 1634 C 157.611 -2.2892 -0.113347 0
M  V30 1635 C 158.624 -1.41243 -0.80959 0
M  V30 1636 O 159.813 -1.65402 -0.671156 0
M  V30 1637 C 156.913 -3.17594 -1.18266 0
M  V30 1638 C 156.086 -4.33682 -0.569073 0
M  V30 1639 C 155.145 -5.03397 -1.53226 0
M  V30 1640 O 154.171 -5.59438 -1.04967 0
M  V30 1641 N 155.373 -5.04783 -2.86661 0
M  V30 1642 H 158.138 -2.93392 0.611636 0
M  V30 1643 H 155.699 -1.54881 0.471523 0
M  V30 1644 H 157.691 -3.61097 -1.82732 0
M  V30 1645 H 156.261 -2.54876 -1.80988 0
M  V30 1646 H 155.481 -3.9338 0.254187 0
M  V30 1647 H 156.769 -5.08608 -0.139767 0
M  V30 1648 H 156.167 -4.60584 -3.28449 0
M  V30 1649 H 154.724 -5.52077 -3.46489 0
M  V30 1650 N 158.157 -0.370918 -1.53173 0
M  V30 1651 C 159.403 0.217423 -2.01631 0
M  V30 1652 C 159.736 1.47983 -1.25756 0
M  V30 1653 O 159.011 1.91274 -0.352764 0
M  V30 1654 C 159.294 0.503982 -3.56556 0
M  V30 1655 C 159.147 -0.77243 -4.43118 0
M  V30 1656 C 160.466 1.30234 -4.20389 0
M  V30 1657 H 157.585 0.0775486 -0.732909 0
M  V30 1658 H 160.227 -0.496863 -1.83388 0
M  V30 1659 H 158.377 1.11248 -3.72231 0
M  V30 1660 H 160.049 -1.4098 -4.39229 0
M  V30 1661 H 158.292 -1.39167 -4.10871 0
M  V30 1662 H 158.963 -0.526815 -5.4948 0
M  V30 1663 H 161.439 0.787546 -4.08579 0
M  V30 1664 H 160.315 1.47158 -5.28806 0
M  V30 1665 H 160.576 2.31237 -3.76805 0
M  V30 1666 N 159.635 1.57281 -0.100228 0
M  V30 1667 C 160.545 2.17833 0.870965 0
M  V30 1668 C 161.561 1.14921 1.30649 0
M  V30 1669 O 162.737 1.47313 1.37335 0
M  V30 1670 C 159.802 2.75085 2.1102 0
M  V30 1671 C 158.863 3.9297 1.72838 0
M  V30 1672 C 158.096 4.47482 2.90854 0
M  V30 1673 O 158.319 4.00922 4.05731 0
M  V30 1674 O 157.253 5.38433 2.69023 0
M  V30 1675 H 161.079 3.0124 0.38575 0
M  V30 1676 H 158.664 1.48881 0.124397 0
M  V30 1677 H 160.546 3.11656 2.83634 0
M  V30 1678 H 159.221 1.94721 2.58584 0
M  V30 1679 H 158.128 3.61201 0.973883 0
M  V30 1680 H 159.461 4.74713 1.30033 0
M  V30 1681 N 161.113 -0.173488 1.56642 0
M  V30 1682 C 162.359 -0.891784 1.8214 0
M  V30 1683 C 162.692 -1.8199 0.677736 0
M  V30 1684 O 161.967 -1.91842 -0.320446 0
M  V30 1685 C 162.25 -1.68933 3.18015 0
M  V30 1686 C 162.103 -0.784487 4.42906 0
M  V30 1687 C 163.422 -2.65748 3.50808 0
M  V30 1688 H 160.541 -0.322761 0.662567 0
M  V30 1689 H 163.183 -0.158095 1.89341 0
M  V30 1690 H 161.333 -2.31482 3.12007 0
M  V30 1691 H 163.005 -0.172046 4.60979 0
M  V30 1692 H 161.248 -0.0924117 4.33702 0
M  V30 1693 H 161.919 -1.37799 5.34524 0
M  V30 1694 H 164.395 -2.13327 3.57255 0
M  V30 1695 H 163.271 -3.18619 4.4696 0
M  V30 1696 H 163.532 -3.45842 2.75401 0
M  V30 1697 N 162.591 -1.51276 -0.441967 0
M  V30 1698 C 163.554 -1.7167 -1.51862 0
M  V30 1699 C 164.554 -0.586793 -1.49711 0
M  V30 1700 O 165.744 -0.854276 -1.51815 0
M  V30 1701 C 162.876 -1.76889 -2.91416 0
M  V30 1702 H 164.069 -2.67754 -1.35084 0
M  V30 1703 H 161.622 -1.41196 -0.670333 0
M  V30 1704 H 162.357 -0.826026 -3.13604 0
M  V30 1705 H 162.142 -2.59001 -2.94382 0
M  V30 1706 H 163.632 -1.94522 -3.69528 0
M  V30 1707 N 164.069 0.697108 -1.41344 0
M  V30 1708 C 164.979 1.84088 -1.45427 0
M  V30 1709 C 165.995 1.70545 -0.34501 0
M  V30 1710 O 167.171 1.92488 -0.592492 0
M  V30 1711 C 164.236 3.20056 -1.33286 0
M  V30 1712 C 163.297 3.45718 -2.54514 0
M  V30 1713 C 162.53 4.75199 -2.42944 0
M  V30 1714 O 162.753 5.51579 -1.45318 0
M  V30 1715 O 161.687 5.0161 -3.32672 0
M  V30 1716 H 165.513 1.836 -2.41919 0
M  V30 1717 H 163.098 0.849966 -1.22866 0
M  V30 1718 H 164.98 4.01236 -1.28794 0
M  V30 1719 H 163.655 3.2123 -0.39909 0
M  V30 1720 H 162.562 2.64474 -2.64583 0
M  V30 1721 H 163.895 3.49356 -3.46715 0
M  V30 1722 N 165.547 1.27147 0.931209 0
M  V30 1723 C 166.494 1.09568 2.03134 0
M  V30 1724 C 167.464 -0.00222433 1.661 0
M  V30 1725 O 168.649 0.159439 1.90133 0
M  V30 1726 C 165.789 0.745231 3.36957 0
M  V30 1727 C 164.902 1.92041 3.86968 0
M  V30 1728 C 164.037 1.51216 5.09222 0
M  V30 1729 C 163.076 2.65504 5.5152 0
M  V30 1730 N 162.213 2.25291 6.64972 0
M  V30 1731 H 167.053 2.03708 2.17502 0
M  V30 1732 H 164.59 1.01411 1.06556 0
M  V30 1733 H 166.548 0.522878 4.1391 0
M  V30 1734 H 165.178 -0.159202 3.22407 0
M  V30 1735 H 164.23 2.25541 3.06326 0
M  V30 1736 H 165.542 2.77787 4.1429 0
M  V30 1737 H 164.696 1.25084 5.93666 0
M  V30 1738 H 163.435 0.625749 4.83669 0
M  V30 1739 H 162.44 2.92354 4.65628 0
M  V30 1740 H 163.665 3.54761 5.7907 0
M  V30 1741 H 161.611 1.39098 6.41083 0
M  V30 1742 H 161.528 3.04577 6.91931 0
M  V30 1743 H 162.796 2.02398 7.52765 0
M  V30 1744 N 167.025 -1.13721 1.09112 0
M  V30 1745 C 168.255 -1.88499 0.845671 0
M  V30 1746 C 168.663 -1.79218 -0.606432 0
M  V30 1747 O 168.006 -1.1544 -1.42896 0
M  V30 1748 C 168.068 -3.38954 1.19793 0
M  V30 1749 C 167.732 -3.72018 2.65428 0
M  V30 1750 C 168.729 -3.7153 3.63677 0
M  V30 1751 C 166.414 -4.01775 3.01467 0
M  V30 1752 C 168.408 -4.00336 4.95994 0
M  V30 1753 C 166.095 -4.30243 4.33975 0
M  V30 1754 C 167.093 -4.29508 5.31048 0
M  V30 1755 O 166.781 -4.5728 6.61173 0
M  V30 1756 H 166.513 -0.603702 0.304171 0
M  V30 1757 H 169.067 -1.44903 1.45576 0
M  V30 1758 H 167.297 -3.83039 0.530871 0
M  V30 1759 H 168.986 -3.95052 0.932146 0
M  V30 1760 H 169.752 -3.4862 3.37179 0
M  V30 1761 H 165.631 -4.01496 2.26544 0
M  V30 1762 H 169.175 -3.99678 5.71755 0
M  V30 1763 H 165.072 -4.52625 4.60219 0
M  V30 1764 H 165.84 -4.74964 6.66597 0
M  V30 1765 N 168.503 -0.877838 -1.30888 0
M  V30 1766 C 169.433 -0.35534 -2.3078 0
M  V30 1767 C 170.414 0.557994 -1.60687 0
M  V30 1768 O 171.599 0.473355 -1.88343 0
M  V30 1769 C 168.729 0.437221 -3.44537 0
M  V30 1770 C 167.683 -0.383715 -4.26276 0
M  V30 1771 C 167.009 0.535014 -5.32017 0
M  V30 1772 C 168.309 -1.62201 -4.96476 0
M  V30 1773 H 170.003 -1.19007 -2.74732 0
M  V30 1774 H 167.549 -0.573698 -1.32078 0
M  V30 1775 H 169.502 0.813334 -4.13477 0
M  V30 1776 H 168.226 1.30553 -2.99372 0
M  V30 1777 H 166.885 -0.741874 -3.59015 0
M  V30 1778 H 166.533 1.40083 -4.831 0
M  V30 1779 H 166.233 -0.0104211 -5.87599 0
M  V30 1780 H 167.757 0.907799 -6.03814 0
M  V30 1781 H 169.171 -1.31689 -5.5797 0
M  V30 1782 H 167.568 -2.10711 -5.61891 0
M  V30 1783 H 168.638 -2.37044 -4.23011 0
M  V30 1784 N 169.982 1.44106 -0.638065 0
M  V30 1785 C 171.259 1.95453 -0.0759321 0
M  V30 1786 C 171.639 1.57984 1.40015 0
M  V30 1787 O 170.987 0.857361 2.11806 0
M  V30 1788 C 171.197 3.47655 -0.306132 0
M  V30 1789 C 172.545 4.24114 -0.203008 0
M  V30 1790 O 173.569 3.55405 -0.237871 0
M  V30 1791 O 172.428 5.46381 -0.113827 0
M  V30 1792 H 169.522 0.826797 0.0183332 0
M  V30 1793 H 172.068 1.54122 -0.710251 0
M  V30 1794 H 170.84 3.68 -1.3301 0
M  V30 1795 H 170.463 3.95949 0.361991 0
M  V30 1796 N 171.46 0.379036 1.52974 0
M  V30 1797 C 172.69 -0.20649 2.05566 0
M  V30 1798 C 173.098 -1.41906 1.25137 0
M  V30 1799 O 172.441 -1.81421 0.288464 0
M  V30 1800 C 172.503 -0.651086 3.53555 0
M  V30 1801 C 172.167 0.446626 4.54812 0
M  V30 1802 C 173.164 1.30079 5.03364 0
M  V30 1803 C 170.849 0.610719 4.98573 0
M  V30 1804 C 172.843 2.30426 5.94292 0
M  V30 1805 C 170.53 1.61754 5.89304 0
M  V30 1806 C 171.528 2.46274 6.37054 0
M  V30 1807 O 171.216 3.45237 7.25994 0
M  V30 1808 H 170.948 -0.0372381 0.674974 0
M  V30 1809 H 173.502 0.539718 1.98182 0
M  V30 1810 H 171.732 -1.44911 3.58522 0
M  V30 1811 H 173.421 -1.16112 3.88938 0
M  V30 1812 H 174.187 1.18527 4.70294 0
M  V30 1813 H 170.066 -0.0374044 4.60985 0
M  V30 1814 H 173.61 2.96432 6.31485 0
M  V30 1815 H 169.507 1.73348 6.21788 0
M  V30 1816 H 170.275 3.41124 7.44027 0
M  V30 1817 N 172.938 -1.57226 0.108567 0
M  V30 1818 C 173.888 -2.11305 -0.856396 0
M  V30 1819 C 174.872 -1.03129 -1.23504 0
M  V30 1820 O 176.064 -1.29381 -1.20787 0
M  V30 1821 C 173.193 -2.70771 -2.11041 0
M  V30 1822 C 172.279 -3.86011 -1.7566 0
M  V30 1823 N 172.67 -4.93492 -1.10902 0
M  V30 1824 C 170.968 -3.95999 -2.05185 0
M  V30 1825 C 171.669 -5.73984 -0.944308 0
M  V30 1826 N 170.645 -5.2346 -1.46596 0
M  V30 1827 H 174.447 -2.91784 -0.352002 0
M  V30 1828 H 171.961 -1.62126 -0.0942324 0
M  V30 1829 H 173.958 -3.07851 -2.81128 0
M  V30 1830 H 172.618 -1.91751 -2.62034 0
M  V30 1831 H 173.629 -5.1208 -0.774235 0
M  V30 1832 H 170.306 -3.28007 -2.58298 0
M  V30 1833 H 171.696 -6.70479 -0.436813 0
M  V30 1834 N 174.416 0.165178 -1.56732 0
M  V30 1835 C 175.349 1.23336 -1.91998 0
M  V30 1836 C 176.327 1.42476 -0.783531 0
M  V30 1837 O 177.511 1.57384 -1.03743 0
M  V30 1838 C 174.638 2.59533 -2.17625 0
M  V30 1839 C 173.684 2.57093 -3.40302 0
M  V30 1840 S 174.517 2.05571 -4.9447 0
M  V30 1841 C 175.673 3.43532 -5.23198 0
M  V30 1842 H 175.906 0.932387 -2.82301 0
M  V30 1843 H 173.439 0.370013 -1.49901 0
M  V30 1844 H 175.397 3.37918 -2.3307 0
M  V30 1845 H 174.058 2.86827 -1.28019 0
M  V30 1846 H 173.251 3.57308 -3.55453 0
M  V30 1847 H 172.853 1.86806 -3.24005 0
M  V30 1848 H 175.145 4.39559 -5.15552 0
M  V30 1849 H 176.088 3.33251 -6.2478 0
M  V30 1850 H 176.496 3.39828 -4.50752 0
M  V30 1851 N 175.894 1.51508 0.433938 0
M  V30 1852 C 176.804 1.75917 1.5521 0
M  V30 1853 C 177.82 0.643545 1.61662 0
M  V30 1854 O 178.996 0.926183 1.7884 0
M  V30 1855 C 176.061 1.88213 2.91164 0
M  V30 1856 C 175.122 3.12074 2.94802 0
M  V30 1857 C 174.355 3.23774 4.24271 0
M  V30 1858 O 174.578 2.4133 5.16833 0
M  V30 1859 O 173.512 4.16774 4.34262 0
M  V30 1860 H 177.338 2.70777 1.37527 0
M  V30 1861 H 174.923 1.36051 0.617293 0
M  V30 1862 H 176.805 1.98267 3.71845 0
M  V30 1863 H 175.48 0.965413 3.08968 0
M  V30 1864 H 174.387 3.07497 2.13065 0
M  V30 1865 H 175.72 4.03446 2.81943 0
M  V30 1866 N 177.372 -0.689602 1.41712 0
M  V30 1867 C 178.319 -1.80345 1.44029 0
M  V30 1868 C 179.289 -1.63478 0.293948 0
M  V30 1869 O 180.474 -1.84244 0.495869 0
M  V30 1870 C 177.614 -3.18272 1.33405 0
M  V30 1871 C 176.727 -3.46529 2.57956 0
M  V30 1872 C 175.862 -4.74103 2.39582 0
M  V30 1873 C 174.901 -4.95347 3.5958 0
M  V30 1874 N 174.038 -6.14151 3.40239 0
M  V30 1875 H 178.878 -1.77698 2.39222 0
M  V30 1876 H 176.415 -0.867688 1.18784 0
M  V30 1877 H 178.373 -3.97956 1.25246 0
M  V30 1878 H 177.003 -3.2008 0.418164 0
M  V30 1879 H 176.055 -2.61207 2.76542 0
M  V30 1880 H 177.367 -3.58126 3.47199 0
M  V30 1881 H 176.521 -5.61853 2.28924 0
M  V30 1882 H 175.26 -4.64763 1.47805 0
M  V30 1883 H 174.265 -4.06044 3.70686 0
M  V30 1884 H 175.49 -5.06542 4.52318 0
M  V30 1885 H 173.436 -6.06013 2.51167 0
M  V30 1886 H 173.353 -6.26543 4.23061 0
M  V30 1887 H 174.621 -7.04619 3.33365 0
M  V30 1888 N 178.85 -1.27639 -0.924453 0
M  V30 1889 C 180.08 -1.16819 -1.70402 0
M  V30 1890 C 180.488 0.277191 -1.87158 0
M  V30 1891 O 179.831 1.20025 -1.39067 0
M  V30 1892 C 179.893 -1.78305 -3.12166 0
M  V30 1893 C 179.557 -3.27502 -3.18734 0
M  V30 1894 C 180.554 -4.2409 -3.00738 0
M  V30 1895 C 178.239 -3.68269 -3.4159 0
M  V30 1896 C 180.233 -5.59422 -3.05492 0
M  V30 1897 C 177.92 -5.0373 -3.45977 0
M  V30 1898 C 178.918 -5.99116 -3.27946 0
M  V30 1899 O 178.606 -7.32108 -3.32074 0
M  V30 1900 H 178.338 -0.406931 -0.539799 0
M  V30 1901 H 180.892 -1.69078 -1.16626 0
M  V30 1902 H 179.122 -1.20528 -3.67437 0
M  V30 1903 H 180.811 -1.62154 -3.72103 0
M  V30 1904 H 181.577 -3.93931 -2.82919 0
M  V30 1905 H 177.456 -2.94496 -3.54673 0
M  V30 1906 H 181 -6.33852 -2.91337 0
M  V30 1907 H 176.897 -5.33543 -3.63321 0
M  V30 1908 H 177.665 -7.40598 -3.48507 0
M  V30 1909 N 180.328 1.1314 -1.09713 0
M  V30 1910 C 181.576 1.84119 -0.833338 0
M  V30 1911 C 181.897 1.84097 0.642904 0
M  V30 1912 O 181.167 1.29881 1.46655 0
M  V30 1913 H 179.747 0.681766 -0.305293 0
M  V30 1914 H 182.409 1.37038 -1.38588 0
M  V30 1915 H 181.505 2.88543 -1.18951 0
M  V30 1916 N 181.806 0.884767 1.30421 0
M  V30 1917 C 183.053 0.503105 1.96151 0
M  V30 1918 C 183.381 -0.947676 1.69851 0
M  V30 1919 O 182.636 -1.68467 0.995861 0
M  V30 1920 C 182.935 0.724318 3.49983 0
M  V30 1921 C 182.601 2.15015 3.96332 0
M  V30 1922 C 181.263 2.54005 4.08699 0
M  V30 1923 C 183.615 3.07936 4.20505 0
M  V30 1924 C 180.943 3.85128 4.42599 0
M  V30 1925 C 183.295 4.3859 4.55874 0
M  V30 1926 C 181.959 4.77474 4.66449 0
M  V30 1927 H 181.229 0.184099 0.717766 0
M  V30 1928 H 183.876 1.12058 1.55291 0
M  V30 1929 H 182.181 0.0238086 3.91793 0
M  V30 1930 H 183.878 0.408617 3.98913 0
M  V30 1931 H 180.468 1.8375 3.87213 0
M  V30 1932 H 184.652 2.79033 4.10431 0
M  V30 1933 H 179.908 4.14996 4.48986 0
M  V30 1934 H 184.082 5.10629 4.7353 0
M  V30 1935 H 181.709 5.79115 4.92473 0
M  V30 1936 N 183.284 -1.43765 0.645699 0
M  V30 1937 C 184.216 -2.29027 -0.0890605 0
M  V30 1938 C 185.229 -1.42093 -0.794563 0
M  V30 1939 O 186.418 -1.66104 -0.653575 0
M  V30 1940 C 183.518 -3.18831 -1.14891 0
M  V30 1941 C 182.691 -4.34261 -0.523043 0
M  V30 1942 C 181.75 -5.04994 -1.47878 0
M  V30 1943 O 180.776 -5.6052 -0.990277 0
M  V30 1944 N 181.978 -5.07795 -2.81291 0
M  V30 1945 H 184.743 -2.92727 0.64272 0
M  V30 1946 H 182.304 -1.54373 0.487924 0
M  V30 1947 H 184.296 -3.63015 -1.78892 0
M  V30 1948 H 182.866 -2.56782 -1.78275 0
M  V30 1949 H 182.086 -3.93088 0.295896 0
M  V30 1950 H 183.374 -5.08728 -0.0858147 0
M  V30 1951 H 182.772 -4.64042 -3.23546 0
M  V30 1952 H 181.329 -5.55721 -3.40614 0
M  V30 1953 N 184.763 -0.387143 -1.52771 0
M  V30 1954 C 185.726 0.436939 -2.24997 0
M  V30 1955 C 186.726 0.991991 -1.26555 0
M  V30 1956 O 187.916 0.874335 -1.50669 0
M  V30 1957 C 185.048 1.61281 -3.00335 0
M  V30 1958 H 186.241 -0.195365 -2.99263 0
M  V30 1959 H 183.794 -0.139218 -1.55679 0
M  V30 1960 H 184.529 2.2826 -2.30364 0
M  V30 1961 H 184.314 1.22154 -3.72587 0
M  V30 1962 H 185.804 2.19629 -3.5518 0
M  V30 1963 N 186.241 1.57166 -0.116904 0
M  V30 1964 C 187.466 1.999 0.55271 0
M  V30 1965 C 187.891 0.996039 1.59564 0
M  V30 1966 O 187.249 -0.032556 1.81271 0
M  V30 1967 C 187.297 3.4152 1.15742 0
M  V30 1968 O 186.401 3.44106 2.27299 0
M  V30 1969 H 185.742 0.649447 0.138258 0
M  V30 1970 H 188.272 2.03573 -0.204759 0
M  V30 1971 H 188.282 3.79684 1.49346 0
M  V30 1972 H 186.957 4.14034 0.393493 0
M  V30 1973 H 185.534 3.17759 1.9515 0
M  V30 1974 N 187.719 -0.156864 1.56817 0
M  V30 1975 C 188.667 -1.21319 1.98455 0
M  V30 1976 C 189.661 -1.45025 0.875444 0
M  V30 1977 O 190.867 -1.45435 1.0606 0
M  V30 1978 H 187.242 -0.408142 0.631605 0
M  V30 1979 H 189.213 -0.835244 2.86472 0
M  V30 1980 C 187.962 -2.54148 2.37285 0
M  V30 1981 H 187.285 -2.36733 3.22176 0
M  V30 1982 H 188.725 -3.26712 2.70251 0
M  V30 1983 C 187.184 -3.13967 1.22173 0
M  V30 1984 O 187.714 -3.98357 0.517149 0
M  V30 1985 N 185.92 -2.7327 0.988536 0
M  V30 1986 H 185.467 -2.04744 1.56326 0
M  V30 1987 H 185.425 -3.13628 0.220209 0
M  V30 1988 N 189.197 -1.51736 -0.425897 0
M  V30 1989 C 190.443 -1.65214 -1.1761 0
M  V30 1990 C 190.776 -0.372778 -1.90589 0
M  V30 1991 O 190.051 0.628139 -1.84078 0
M  V30 1992 C 190.334 -2.86312 -2.18398 0
M  V30 1993 C 190.187 -4.24254 -1.49426 0
M  V30 1994 C 191.506 -3.02925 -3.19256 0
M  V30 1995 H 188.625 -0.601263 -0.426206 0
M  V30 1996 H 191.267 -1.8425 -0.463882 0
M  V30 1997 H 189.417 -2.70213 -2.79137 0
M  V30 1998 H 191.089 -4.52046 -0.919362 0
M  V30 1999 H 189.332 -4.26426 -0.796432 0
M  V30 2000 H 190.003 -5.05001 -2.22885 0
M  V30 2001 H 192.479 -3.1781 -2.68581 0
M  V30 2002 H 191.355 -3.89199 -3.8706 0
M  V30 2003 H 191.616 -2.15497 -3.86023 0
M  V30 2004 N 190.675 0.682077 -1.42076 0
M  V30 2005 C 191.903 1.47057 -1.4554 0
M  V30 2006 C 192.318 1.8869 -0.0645779 0
M  V30 2007 O 191.675 1.57666 0.919115 0
M  V30 2008 C 191.726 2.72442 -2.37609 0
M  V30 2009 O 191.447 2.32559 -3.71279 0
M  V30 2010 C 192.948 3.66069 -2.50017 0
M  V30 2011 H 190.168 0.452737 -0.495248 0
M  V30 2012 H 192.712 0.838695 -1.8651 0
M  V30 2013 H 190.867 3.31835 -1.9991 0
M  V30 2014 H 191.281 3.13475 -4.20516 0
M  V30 2015 H 192.755 4.50792 -3.18576 0
M  V30 2016 H 193.232 4.11476 -1.53572 0
M  V30 2017 H 193.838 3.12572 -2.88407 0
M  V30 2018 N 192.153 1.28127 0.917671 0
M  V30 2019 C 193.4 1.15052 1.66641 0
M  V30 2020 C 193.728 -0.301677 1.92146 0
M  V30 2021 O 192.983 -1.23622 1.51711 0
M  V30 2022 C 193.282 1.89018 3.03327 0
M  V30 2023 C 192.948 3.38832 2.97496 0
M  V30 2024 C 191.61 3.79693 2.95613 0
M  V30 2025 C 193.962 4.34378 2.88036 0
M  V30 2026 C 191.29 5.14447 2.82066 0
M  V30 2027 C 193.642 5.69201 2.7603 0
M  V30 2028 C 192.306 6.09343 2.72502 0
M  V30 2029 H 191.576 0.421006 0.609783 0
M  V30 2030 H 194.223 1.58855 1.06945 0
M  V30 2031 H 192.528 1.37752 3.66785 0
M  V30 2032 H 194.225 1.76321 3.60156 0
M  V30 2033 H 190.815 3.06342 2.99754 0
M  V30 2034 H 194.999 4.03775 2.88581 0
M  V30 2035 H 190.255 5.44681 2.77728 0
M  V30 2036 H 194.429 6.42901 2.67678 0
M  V30 2037 H 192.056 7.13712 2.61762 0
M  V30 2038 N 193.631 -1.12557 1.10312 0
M  V30 2039 C 194.88 -1.83395 0.839588 0
M  V30 2040 C 195.193 -1.84939 -0.636929 0
M  V30 2041 O 196.399 -2.51761 -1.01631 0
M  V30 2042 C 194.855 -3.29303 1.45215 0
M  V30 2043 C 194.463 -3.36122 2.96186 0
M  V30 2044 C 196.207 -4.05121 1.26796 0
M  V30 2045 C 194.114 -4.76357 3.50483 0
M  V30 2046 H 193.044 -0.687133 0.310425 0
M  V30 2047 H 195.695 -1.26746 1.32694 0
M  V30 2048 H 194.077 -3.85812 0.892469 0
M  V30 2049 H 195.251 -2.89559 3.58458 0
M  V30 2050 H 193.566 -2.73776 3.13745 0
M  V30 2051 H 196.163 -5.08668 1.64806 0
M  V30 2052 H 196.506 -4.15773 0.209409 0
M  V30 2053 H 197.039 -3.54967 1.79563 0
M  V30 2054 H 193.778 -4.70899 4.55998 0
M  V30 2055 H 193.298 -5.23377 2.92978 0
M  V30 2056 H 194.977 -5.45294 3.48228 0
M  V30 2057 N 195.109 -0.891671 -1.2995 0
M  V30 2058 C 196.059 -0.334811 -2.25528 0
M  V30 2059 C 197.043 0.540553 -1.51548 0
M  V30 2060 O 198.235 0.383882 -1.72787 0
M  V30 2061 C 195.364 0.44374 -3.4042 0
M  V30 2062 C 194.45 -0.44609 -4.21747 0
M  V30 2063 N 194.841 -1.54963 -4.81477 0
M  V30 2064 C 193.139 -0.242415 -4.45341 0
M  V30 2065 C 193.84 -2.10015 -5.42465 0
M  V30 2066 N 192.816 -1.39423 -5.25416 0
M  V30 2067 H 196.618 -1.17792 -2.69262 0
M  V30 2068 H 194.132 -0.741822 -1.44467 0
M  V30 2069 H 196.129 0.859362 -4.07947 0
M  V30 2070 H 194.789 1.28421 -2.98225 0
M  V30 2071 H 195.8 -1.93244 -4.80497 0
M  V30 2072 H 192.477 0.560342 -4.13723 0
M  V30 2073 H 193.867 -3.02724 -5.9984 0
M  V30 2074 N 196.587 1.43421 -0.653314 0
M  V30 2075 C 197.835 2.01414 -0.166415 0
M  V30 2076 C 198.156 1.51803 1.22397 0
M  V30 2077 O 197.426 0.730693 1.81763 0
M  V30 2078 H 196.006 0.744703 -0.0585319 0
M  V30 2079 H 198.668 1.75629 -0.845003 0
M  V30 2080 H 197.764 3.11734 -0.151111 0
M  V30 2081 N 198.065 0.39524 1.52563 0
M  V30 2082 C 199.295 -0.184675 2.05773 0
M  V30 2083 C 199.703 -1.40571 1.26635 0
M  V30 2084 O 199.046 -1.81105 0.30769 0
M  V30 2085 C 199.108 -0.613551 3.54226 0
M  V30 2086 C 198.772 0.49484 4.54313 0
M  V30 2087 C 199.769 1.3541 5.01956 0
M  V30 2088 C 197.454 0.663565 4.97898 0
M  V30 2089 C 199.448 2.36716 5.91814 0
M  V30 2090 C 197.135 1.67996 5.87555 0
M  V30 2091 C 198.133 2.53017 6.34406 0
M  V30 2092 O 197.821 3.52917 7.22291 0
M  V30 2093 H 197.553 -0.030077 0.675331 0
M  V30 2094 H 200.107 0.560708 1.97599 0
M  V30 2095 H 198.337 -1.411 3.60038 0
M  V30 2096 H 200.026 -1.11981 3.90148 0
M  V30 2097 H 200.792 1.23509 4.6901 0
M  V30 2098 H 196.671 0.0114913 4.60999 0
M  V30 2099 H 200.215 3.03113 6.28306 0
M  V30 2100 H 196.112 1.79933 6.19915 0
M  V30 2101 H 196.88 3.48996 7.40367 0
M  V30 2102 N 199.544 -1.57102 0.125237 0
M  V30 2103 C 200.793 -1.94582 -0.531095 0
M  V30 2104 C 201.106 -1.01126 -1.6743 0
M  V30 2105 O 202.312 -1.28097 -2.39381 0
M  V30 2106 C 200.768 -3.45839 -0.996164 0
M  V30 2107 C 200.376 -4.47842 0.118926 0
M  V30 2108 C 202.12 -3.92227 -1.62352 0
M  V30 2109 C 200.027 -5.90284 -0.363192 0
M  V30 2110 H 198.957 -0.726391 -0.20217 0
M  V30 2111 H 201.608 -1.82339 0.206092 0
M  V30 2112 H 199.99 -3.53338 -1.78796 0
M  V30 2113 H 201.164 -4.52018 0.895358 0
M  V30 2114 H 199.479 -4.11243 0.653324 0
M  V30 2115 H 202.076 -4.96069 -1.99548 0
M  V30 2116 H 202.419 -3.32552 -2.50429 0
M  V30 2117 H 202.952 -3.87554 -0.897019 0
M  V30 2118 H 199.691 -6.53728 0.481679 0
M  V30 2119 H 199.211 -5.89515 -1.10597 0
M  V30 2120 H 200.89 -6.41752 -0.822377 0
M  V30 2121 N 201.022 0.148545 -1.56898 0
M  V30 2122 C 201.932 1.20293 -2.01412 0
M  V30 2123 C 202.948 1.47107 -0.929273 0
M  V30 2124 O 204.124 1.58807 -1.23863 0
M  V30 2125 C 201.189 2.51682 -2.38447 0
M  V30 2126 C 200.25 2.32529 -3.60872 0
M  V30 2127 C 199.483 3.57653 -3.96132 0
M  V30 2128 O 199.706 4.63771 -3.32073 0
M  V30 2129 O 198.64 3.50408 -4.89385 0
M  V30 2130 H 202.466 0.855025 -2.91416 0
M  V30 2131 H 200.051 0.357151 -1.45068 0
M  V30 2132 H 201.933 3.29147 -2.63135 0
M  V30 2133 H 200.608 2.86006 -1.51599 0
M  V30 2134 H 199.515 1.53019 -3.41373 0
M  V30 2135 H 200.848 2.03121 -4.48333 0
M  V30 2136 N 202.5 1.5196 0.417844 0
M  V30 2137 C 203.447 1.74678 1.50852 0
M  V30 2138 C 204.417 0.588947 1.55308 0
M  V30 2139 O 205.602 0.825544 1.72016 0
M  V30 2140 C 202.742 1.89544 2.88387 0
M  V30 2141 C 201.855 3.17166 2.93309 0
M  V30 2142 C 200.99 3.22513 4.22088 0
M  V30 2143 C 200.029 4.44372 4.20951 0
M  V30 2144 N 199.166 4.47161 5.41287 0
M  V30 2145 H 204.006 2.67768 1.30783 0
M  V30 2146 H 201.543 1.32689 0.63498 0
M  V30 2147 H 203.501 1.96146 3.68216 0
M  V30 2148 H 202.131 0.998424 3.06971 0
M  V30 2149 H 201.183 3.19778 2.06024 0
M  V30 2150 H 202.495 4.07021 2.88332 0
M  V30 2151 H 201.649 3.28139 5.10303 0
M  V30 2152 H 200.388 2.30581 4.29748 0
M  V30 2153 H 199.393 4.38902 3.31127 0
M  V30 2154 H 200.618 5.3759 4.14938 0
M  V30 2155 H 198.564 3.58108 5.49632 0
M  V30 2156 H 198.481 5.3085 5.3827 0
M  V30 2157 H 199.749 4.57005 6.3148 0
M  V30 2158 N 203.978 -0.674533 1.42435 0
M  V30 2159 C 204.908 -1.80009 1.48724 0
M  V30 2160 C 205.889 -1.6659 0.343793 0
M  V30 2161 O 207.074 -1.86007 0.558137 0
M  V30 2162 C 204.204 -3.18306 1.38919 0
M  V30 2163 C 203.158 -3.46461 2.51294 0
M  V30 2164 C 202.484 -4.84335 2.26547 0
M  V30 2165 C 203.784 -3.43328 3.93603 0
M  V30 2166 H 205.478 -1.75004 2.42928 0
M  V30 2167 H 203.024 -0.840533 1.16923 0
M  V30 2168 H 204.977 -3.9678 1.41927 0
M  V30 2169 H 203.701 -3.2399 0.412094 0
M  V30 2170 H 202.36 -2.70348 2.47604 0
M  V30 2171 H 202.008 -4.86669 1.2713 0
M  V30 2172 H 201.708 -5.04136 3.01861 0
M  V30 2173 H 203.232 -5.65094 2.31304 0
M  V30 2174 H 204.646 -4.11772 3.98894 0
M  V30 2175 H 203.043 -3.74664 4.68771 0
M  V30 2176 H 204.113 -2.41897 4.20255 0
M  V30 2177 N 205.456 -1.28612 -0.910864 0
M  V30 2178 C 206.704 -1.15705 -1.65701 0
M  V30 2179 C 207.025 0.29416 -1.92769 0
M  V30 2180 O 206.295 1.20331 -1.54588 0
M  V30 2181 H 204.875 -0.425216 -0.614167 0
M  V30 2182 H 207.537 -1.61381 -1.0928 0
M  V30 2183 H 206.633 -1.6988 -2.61815 0
M  V30 2184 N 206.934 1.1197 -1.10907 0
M  V30 2185 C 207.844 2.21433 -0.774896 0
M  V30 2186 C 208.86 1.72478 0.229657 0
M  V30 2187 O 210.036 2.01288 0.0672008 0
M  V30 2188 C 207.101 3.4602 -0.216986 0
M  V30 2189 C 206.162 4.09791 -1.27944 0
M  V30 2190 C 205.395 5.28431 -0.748055 0
M  V30 2191 O 205.618 5.68823 0.423833 0
M  V30 2192 O 204.552 5.82644 -1.51027 0
M  V30 2193 H 208.378 2.5242 -1.68873 0
M  V30 2194 H 205.963 1.20399 -0.884555 0
M  V30 2195 H 207.845 4.21304 0.090059 0
M  V30 2196 H 206.52 3.16698 0.669633 0
M  V30 2197 H 205.427 3.36265 -1.63941 0
M  V30 2198 H 206.76 4.4328 -2.13925 0
M  V30 2199 N 208.412 0.89855 1.29475 0
M  V30 2200 C 209.375 0.380272 2.26023 0
M  V30 2201 C 210.375 -0.484891 1.53315 0
M  V30 2202 O 211.565 -0.290108 1.71767 0
M  V30 2203 C 208.697 -0.45651 3.3783 0
M  V30 2204 H 209.89 1.23295 2.73383 0
M  V30 2205 H 207.443 0.676589 1.40897 0
M  V30 2206 H 208.178 -1.32922 2.95808 0
M  V30 2207 H 207.963 0.163393 3.91759 0
M  V30 2208 H 209.453 -0.810466 4.0966 0
M  V30 2209 N 209.89 -1.43072 0.660911 0
M  V30 2210 C 211.138 -2.01323 0.177094 0
M  V30 2211 C 211.459 -1.5245 -1.2159 0
M  V30 2212 O 210.729 -0.740322 -1.81373 0
M  V30 2213 H 209.309 -0.744382 0.0624804 0
M  V30 2214 H 211.971 -1.75179 0.854305 0
M  V30 2215 H 211.067 -3.11649 0.167641 0
M  V30 2216 N 211.368 -0.403325 -1.52352 0
M  V30 2217 C 212.617 0.175668 -2.00934 0
M  V30 2218 C 212.93 1.46718 -1.29356 0
M  V30 2219 O 214.136 2.12708 -1.68724 0
M  V30 2220 C 212.592 0.363612 -3.58058 0
M  V30 2221 C 212.2 -0.915472 -4.38547 0
M  V30 2222 C 213.944 0.89821 -4.14888 0
M  V30 2223 C 211.851 -0.695035 -5.87302 0
M  V30 2224 H 210.781 0.0694234 -0.750797 0
M  V30 2225 H 213.432 -0.527879 -1.75743 0
M  V30 2226 H 211.814 1.12935 -3.79555 0
M  V30 2227 H 212.988 -1.68691 -4.28812 0
M  V30 2228 H 211.303 -1.37606 -3.93006 0
M  V30 2229 H 213.9 1.07907 -5.23699 0
M  V30 2230 H 214.243 1.87126 -3.71873 0
M  V30 2231 H 214.776 0.191681 -3.97338 0
M  V30 2232 H 211.515 -1.63948 -6.34666 0
M  V30 2233 H 211.035 0.0372116 -5.99788 0
M  V30 2234 H 212.714 -0.33497 -6.46132 0
M  V30 2235 N 212.846 1.57033 -0.133567 0
M  V30 2236 C 213.793 2.16074 0.811208 0
M  V30 2237 C 214.763 1.08979 1.2535 0
M  V30 2238 O 215.948 1.36958 1.32843 0
M  V30 2239 C 213.088 2.77595 2.05024 0
M  V30 2240 C 212.201 3.99042 1.65498 0
M  V30 2241 C 211.336 4.48603 2.84479 0
M  V30 2242 C 210.375 5.62547 2.41262 0
M  V30 2243 N 209.512 6.06787 3.53206 0
M  V30 2244 H 214.352 2.96477 0.300906 0
M  V30 2245 H 211.889 1.46462 0.136822 0
M  V30 2246 H 213.847 3.11402 2.77642 0
M  V30 2247 H 212.477 1.99859 2.53488 0
M  V30 2248 H 211.529 3.71302 0.826981 0
M  V30 2249 H 212.841 4.81629 1.29748 0
M  V30 2250 H 211.995 4.84395 3.65303 0
M  V30 2251 H 210.734 3.64995 3.23465 0
M  V30 2252 H 209.739 5.26345 1.58874 0
M  V30 2253 H 210.964 6.47931 2.03377 0
M  V30 2254 H 208.91 5.26117 3.91838 0
M  V30 2255 H 208.827 6.84266 3.21427 0
M  V30 2256 H 210.095 6.4722 4.34427 0
M  V30 2257 N 214.325 -0.140222 1.56975 0
M  V30 2258 C 215.273 -1.19207 1.99731 0
M  V30 2259 C 216.267 -1.44089 0.890777 0
M  V30 2260 O 217.473 -1.44301 1.07597 0
M  V30 2261 H 213.848 -0.40142 0.635898 0
M  V30 2262 H 215.819 -0.804813 2.87342 0
M  V30 2263 C 214.568 -2.51617 2.39967 0
M  V30 2264 H 213.891 -2.33303 3.24669 0
M  V30 2265 H 215.331 -3.23827 2.73701 0
M  V30 2266 C 213.79 -3.12654 1.25496 0
M  V30 2267 O 214.32 -3.97786 0.559371 0
M  V30 2268 N 212.526 -2.72206 1.01746 0
M  V30 2269 H 212.073 -2.03074 1.58489 0
M  V30 2270 H 212.031 -3.13377 0.253461 0
M  V30 2271 N 215.803 -1.52179 -0.40978 0
M  V30 2272 C 216.713 -1.78364 -1.52392 0
M  V30 2273 C 217.729 -0.669183 -1.60617 0
M  V30 2274 O 218.905 -0.954518 -1.77344 0
M  V30 2275 C 215.97 -1.92822 -2.88133 0
M  V30 2276 C 215.031 -3.16725 -2.898 0
M  V30 2277 C 214.264 -3.30483 -4.19067 0
M  V30 2278 O 214.487 -2.49522 -5.12928 0
M  V30 2279 O 213.421 -4.2363 -4.27576 0
M  V30 2280 H 217.247 -2.72931 -1.33201 0
M  V30 2281 H 214.832 -1.37016 -0.59557 0
M  V30 2282 H 216.714 -2.04157 -3.68643 0
M  V30 2283 H 215.389 -1.01444 -3.07393 0
M  V30 2284 H 214.296 -3.10848 -2.08146 0
M  V30 2285 H 215.629 -4.07881 -2.75489 0
M  V30 2286 N 217.281 0.66697 -1.42791 0
M  V30 2287 C 218.506 1.46004 -1.47301 0
M  V30 2288 C 218.931 1.87894 -0.0880317 0
M  V30 2289 O 218.289 1.56502 0.915253 0
M  V30 2290 C 218.337 2.68031 -2.41229 0
M  V30 2291 O 217.441 3.6659 -1.88906 0
M  V30 2292 H 216.782 0.43832 -0.49877 0
M  V30 2293 H 219.312 0.817391 -1.87563 0
M  V30 2294 H 219.322 3.1601 -2.58073 0
M  V30 2295 H 217.997 2.36883 -3.41847 0
M  V30 2296 H 216.574 3.25661 -1.81656 0
M  V30 2297 N 218.759 1.29093 0.90403 0
M  V30 2298 C 219.709 1.10482 1.99443 0
M  V30 2299 C 220.693 0.0255401 1.6088 0
M  V30 2300 O 221.885 0.24677 1.75271 0
M  V30 2301 C 219.014 0.778882 3.34348 0
M  V30 2302 C 218.1 1.89749 3.79284 0
M  V30 2303 N 218.491 3.14045 3.96497 0
M  V30 2304 C 216.789 1.78955 4.08523 0
M  V30 2305 C 217.49 3.86996 4.34292 0
M  V30 2306 N 216.466 3.14909 4.43095 0
M  V30 2307 H 220.268 2.04778 2.10815 0
M  V30 2308 H 217.782 1.20155 1.09255 0
M  V30 2309 H 219.779 0.62661 4.12164 0
M  V30 2310 H 218.439 -0.156205 3.24324 0
M  V30 2311 H 219.45 3.49548 3.82148 0
M  V30 2312 H 216.127 0.926886 4.07081 0
M  V30 2313 H 217.517 4.93941 4.55491 0
M  V30 2314 N 220.237 -1.11381 1.11499 0
M  V30 2315 C 221.514 -1.7955 0.775965 0
M  V30 2316 C 221.894 -1.97859 -0.73588 0
M  V30 2317 O 221.242 -1.56376 -1.66609 0
M  V30 2318 C 221.452 -3.13196 1.53977 0
M  V30 2319 C 222.8 -3.88227 1.71944 0
M  V30 2320 O 223.824 -3.22887 1.50407 0
M  V30 2321 O 222.683 -5.05477 2.07738 0
M  V30 2322 H 219.777 -0.777728 0.28119 0
M  V30 2323 H 222.323 -1.18118 1.21845 0
M  V30 2324 H 221.095 -2.95229 2.56818 0
M  V30 2325 H 220.718 -3.82342 1.09088 0
M  V30 2326 N 221.715 -0.905404 -1.28997 0
M  V30 2327 C 222.964 -0.530191 -1.94607 0
M  V30 2328 C 223.277 0.929185 -1.72121 0
M  V30 2329 O 224.483 1.41218 -2.31883 0
M  V30 2330 C 222.939 -0.897333 -3.48534 0
M  V30 2331 C 222.547 -2.37587 -3.79811 0
M  V30 2332 C 224.291 -0.592304 -4.20347 0
M  V30 2333 C 222.198 -2.68357 -5.27009 0
M  V30 2334 H 221.128 -0.194558 -0.728466 0
M  V30 2335 H 223.779 -1.10318 -1.46636 0
M  V30 2336 H 222.161 -0.253214 -3.9519 0
M  V30 2337 H 223.335 -3.06602 -3.43994 0
M  V30 2338 H 221.65 -2.6505 -3.2115 0
M  V30 2339 H 224.247 -0.798975 -5.28697 0
M  V30 2340 H 224.59 0.469474 -4.13644 0
M  V30 2341 H 225.123 -1.19452 -3.79442 0
M  V30 2342 H 221.862 -3.73355 -5.38782 0
M  V30 2343 H 221.382 -2.03971 -5.64053 0
M  V30 2344 H 223.061 -2.54922 -5.94663 0
M  V30 2345 N 223.193 1.4272 -0.668489 0
M  V30 2346 C 224.439 2.01923 -0.188419 0
M  V30 2347 C 224.772 1.52704 1.19979 0
M  V30 2348 O 224.047 0.726566 1.8042 0
M  V30 2349 C 224.33 3.59451 -0.216085 0
M  V30 2350 C 224.183 4.18864 -1.6393 0
M  V30 2351 C 225.502 4.37903 0.439179 0
M  V30 2352 H 222.621 0.733674 -0.0699412 0
M  V30 2353 H 225.263 1.69822 -0.852076 0
M  V30 2354 H 223.413 3.86929 0.349012 0
M  V30 2355 H 225.085 4.02362 -2.25616 0
M  V30 2356 H 223.328 3.74933 -2.18193 0
M  V30 2357 H 223.999 5.27987 -1.61039 0
M  V30 2358 H 226.475 4.16079 -0.0417878 0
M  V30 2359 H 225.351 5.47519 0.389157 0
M  V30 2360 H 225.612 4.15303 1.51577 0
M  V30 2361 N 224.671 0.411399 1.52136 0
M  V30 2362 C 225.917 -0.163888 2.02137 0
M  V30 2363 C 226.25 -1.44597 1.29636 0
M  V30 2364 O 225.525 -1.90272 0.403353 0
M  V30 2365 C 225.808 -0.40927 3.57767 0
M  V30 2366 C 225.661 0.889643 4.40914 0
M  V30 2367 C 226.98 -1.19042 4.23694 0
M  V30 2368 H 224.099 -0.0580896 0.734707 0
M  V30 2369 H 226.741 0.54531 1.82007 0
M  V30 2370 H 224.891 -1.0134 3.7505 0
M  V30 2371 H 226.563 1.52575 4.35337 0
M  V30 2372 H 224.806 1.50011 4.07037 0
M  V30 2373 H 225.477 0.672314 5.4789 0
M  V30 2374 H 227.953 -0.678942 4.10524 0
M  V30 2375 H 226.829 -1.33086 5.32522 0
M  V30 2376 H 227.09 -2.21166 3.82803 0
M  V30 2377 N 226.149 -1.5696 0.141893 0
M  V30 2378 C 227.374 -2.00754 -0.520838 0
M  V30 2379 C 227.799 -1.0213 -1.57959 0
M  V30 2380 O 227.157 0.00371324 -1.813 0
M  V30 2381 C 227.205 -3.43318 -1.10294 0
M  V30 2382 O 226.309 -3.47679 -2.21795 0
M  V30 2383 H 225.65 -0.651564 -0.127908 0
M  V30 2384 H 228.18 -2.03221 0.23712 0
M  V30 2385 H 228.19 -3.82012 -1.43287 0
M  V30 2386 H 226.865 -4.14608 -0.327574 0
M  V30 2387 H 225.442 -3.20824 -1.9007 0
M  V30 2388 N 227.627 0.131896 -1.57047 0
M  V30 2389 C 228.575 1.18146 -2.0036 0
M  V30 2390 C 229.569 1.43614 -0.898406 0
M  V30 2391 O 230.775 1.43729 -1.08361 0
M  V30 2392 H 227.15 0.398042 -0.638018 0
M  V30 2393 H 229.121 0.789564 -2.87765 0
M  V30 2394 C 227.87 2.50341 -2.41298 0
M  V30 2395 H 227.193 2.31578 -3.25902 0
M  V30 2396 H 228.633 3.22371 -2.75414 0
M  V30 2397 C 227.092 3.11984 -1.27153 0
M  V30 2398 O 227.622 3.97484 -0.580459 0
M  V30 2399 N 225.828 2.71662 -1.03189 0
M  V30 2400 H 225.375 2.02231 -1.59564 0
M  V30 2401 H 225.333 3.13238 -0.270077 0
M  V30 2402 N 229.106 1.52395 0.401703 0
M  V30 2403 C 230.346 1.68498 1.15705 0
M  V30 2404 C 230.71 0.409748 1.87577 0
M  V30 2405 O 231.911 0.446983 2.65058 0
M  V30 2406 C 230.182 2.87789 2.11924 0
M  V30 2407 S 231.741 3.24415 2.95466 0
M  V30 2408 H 228.559 0.593267 0.391862 0
M  V30 2409 H 231.161 1.90408 0.443282 0
M  V30 2410 H 229.865 3.7884 1.57824 0
M  V30 2411 H 229.396 2.68175 2.87829 0
M  V30 2412 H 231.411 2.73614 4.13944 0
M  V30 2413 N 230.584 -0.659388 1.43143 0
M  V30 2414 C 231.83 -1.42145 1.44647 0
M  V30 2415 C 232.163 -1.9408 0.0681907 0
M  V30 2416 O 231.438 -1.71899 -0.910007 0
M  V30 2417 C 231.721 -2.60735 2.48373 0
M  V30 2418 C 231.574 -2.14332 3.95451 0
M  V30 2419 C 232.893 -3.62951 2.48906 0
M  V30 2420 H 230.012 -0.51552 0.526696 0
M  V30 2421 H 232.654 -0.748069 1.74654 0
M  V30 2422 H 230.804 -3.18184 2.22916 0
M  V30 2423 H 232.476 -1.61932 4.31944 0
M  V30 2424 H 230.719 -1.4576 4.08578 0
M  V30 2425 H 231.39 -2.99583 4.63631 0
M  V30 2426 H 233.866 -3.1525 2.71582 0
M  V30 2427 H 232.742 -4.43487 3.23435 0
M  V30 2428 H 233.003 -4.15126 1.52061 0
M  V30 2429 N 232.062 -1.29571 -0.897171 0
M  V30 2430 C 233.311 -1.1706 -1.64256 0
M  V30 2431 C 233.624 0.276476 -1.93636 0
M  V30 2432 O 234.83 0.52294 -2.66416 0
M  V30 2433 C 233.286 -2.0475 -2.95982 0
M  V30 2434 C 232.894 -3.54295 -2.74187 0
M  V30 2435 C 234.638 -2.0097 -3.73914 0
M  V30 2436 C 232.545 -4.34081 -4.01656 0
M  V30 2437 H 231.475 -0.43452 -0.616205 0
M  V30 2438 H 234.126 -1.54229 -0.994268 0
M  V30 2439 H 232.508 -1.60452 -3.62038 0
M  V30 2440 H 233.682 -4.06662 -2.1671 0
M  V30 2441 H 231.997 -3.59773 -2.09648 0
M  V30 2442 H 234.594 -2.57838 -4.68427 0
M  V30 2443 H 234.937 -0.990273 -4.0435 0
M  V30 2444 H 235.47 -2.43325 -3.14703 0
M  V30 2445 H 232.209 -5.36671 -3.76384 0
M  V30 2446 H 231.729 -3.86483 -4.58684 0
M  V30 2447 H 233.408 -4.44877 -4.69781 0
M  V30 2448 N 233.54 1.10788 -1.12088 0
M  V30 2449 C 234.488 2.19111 -0.780587 0
M  V30 2450 C 235.482 1.67818 0.230961 0
M  V30 2451 O 236.688 1.79777 0.0895427 0
M  V30 2452 H 233.063 0.714477 -0.234578 0
M  V30 2453 H 235.034 2.45055 -1.70266 0
M  V30 2454 C 233.783 3.46818 -0.24747 0
M  V30 2455 H 233.106 3.86646 -1.01712 0
M  V30 2456 H 234.546 4.23973 -0.0476291 0
M  V30 2457 C 233.005 3.20968 1.02378 0
M  V30 2458 O 233.535 3.42298 2.10226 0
M  V30 2459 N 231.741 2.74658 0.949271 0
M  V30 2460 H 231.288 2.57501 0.0715173 0
M  V30 2461 H 231.246 2.57739 1.80049 0
M  V30 2462 N 235.018 0.912232 1.28515 0
M  V30 2463 C 235.948 0.416403 2.29757 0
M  V30 2464 C 236.929 -0.515194 1.6211 0
M  V30 2465 O 238.114 -0.423253 1.89532 0
M  V30 2466 C 235.244 -0.34572 3.45575 0
M  V30 2467 C 234.198 0.496599 4.25109 0
M  V30 2468 C 233.524 -0.393771 5.33248 0
M  V30 2469 C 234.824 1.75307 4.92001 0
M  V30 2470 H 236.518 1.26249 2.7148 0
M  V30 2471 H 234.064 0.608515 1.30511 0
M  V30 2472 H 236.017 -0.703422 4.15488 0
M  V30 2473 H 234.741 -1.2257 3.02728 0
M  V30 2474 H 233.4 0.8368 3.56922 0
M  V30 2475 H 233.048 -1.27225 4.86644 0
M  V30 2476 H 232.748 0.166209 5.87365 0
M  V30 2477 H 234.272 -0.747389 6.06009 0
M  V30 2478 H 235.686 1.46437 5.54283 0
M  V30 2479 H 234.083 2.25534 5.56106 0
M  V30 2480 H 235.153 2.48176 4.16577 0
M  V30 2481 N 236.496 -1.42363 0.676048 0
M  V30 2482 C 237.742 -2.0182 0.199125 0
M  V30 2483 C 238.075 -1.53339 -1.19168 0
M  V30 2484 O 237.35 -0.736124 -1.80032 0
M  V30 2485 C 237.633 -3.59331 0.235144 0
M  V30 2486 C 237.486 -4.17989 1.66149 0
M  V30 2487 C 238.805 -4.3813 -0.41595 0
M  V30 2488 H 235.924 -0.733293 0.0738311 0
M  V30 2489 H 238.566 -1.69368 0.86107 0
M  V30 2490 H 236.716 -3.87109 -0.328487 0
M  V30 2491 H 238.388 -4.0116 2.27747 0
M  V30 2492 H 236.631 -3.7377 2.20178 0
M  V30 2493 H 237.302 -5.27126 1.63837 0
M  V30 2494 H 239.778 -4.16051 0.0638529 0
M  V30 2495 H 238.654 -5.47717 -0.360115 0
M  V30 2496 H 238.915 -4.16101 -1.49373 0
M  V30 2497 N 237.974 -0.419461 -1.51915 0
M  V30 2498 C 239.385 0.0477853 -1.86639 0
M  V30 2499 C 239.736 1.43531 -1.33766 0
M  V30 2500 O 238.861 2.05401 -0.68113 0
M  V30 2501 C 239.456 0.0934885 -3.38671 0
M  V30 2502 C 238.015 0.505097 -3.72996 0
M  V30 2503 C 237.162 -0.313792 -2.75519 0
M  V30 2504 H 240.113 -0.636088 -1.45395 0
M  V30 2505 H 240.134 0.906667 -3.6954 0
M  V30 2506 H 239.646 -0.916501 -3.77123 0
M  V30 2507 H 237.747 1.52135 -3.40126 0
M  V30 2508 H 237.86 0.242309 -4.78487 0
M  V30 2509 H 236.224 0.225363 -2.53701 0
M  V30 2510 H 237.007 -1.32232 -3.16812 0
M  V30 2511 N 239.452 1.56882 -0.150215 0
M  V30 2512 C 240.729 1.87844 0.545327 0
M  V30 2513 C 241.109 1.0567 1.82749 0
M  V30 2514 O 240.457 0.144442 2.28043 0
M  V30 2515 C 240.667 3.39526 0.80767 0
M  V30 2516 C 242.015 4.08814 1.14703 0
M  V30 2517 O 243.039 3.44723 0.896917 0
M  V30 2518 O 241.898 5.22004 1.61784 0
M  V30 2519 H 238.992 0.778677 0.278553 0
M  V30 2520 H 241.538 1.68666 -0.187068 0
M  V30 2521 H 240.31 3.91173 -0.0996096 0
M  V30 2522 H 239.933 3.64243 1.59413 0
M  V30 2523 N 240.93 -0.123565 1.57115 0
M  V30 2524 C 241.877 -1.15177 2.00007 0
M  V30 2525 C 242.847 -1.41403 0.871454 0
M  V30 2526 O 244.032 -1.53346 1.13533 0
M  V30 2527 C 241.172 -2.47436 2.40561 0
M  V30 2528 C 240.285 -2.28184 3.66819 0
M  V30 2529 C 239.42 -3.53641 3.96373 0
M  V30 2530 C 238.459 -3.29528 5.15827 0
M  V30 2531 N 237.596 -4.47175 5.41275 0
M  V30 2532 H 242.436 -0.779008 2.87638 0
M  V30 2533 H 239.973 -0.373166 1.42288 0
M  V30 2534 H 241.931 -3.24584 2.62109 0
M  V30 2535 H 240.561 -2.82614 1.55978 0
M  V30 2536 H 239.613 -1.41976 3.52912 0
M  V30 2537 H 240.925 -2.0634 4.5412 0
M  V30 2538 H 240.079 -4.39209 4.18545 0
M  V30 2539 H 238.818 -3.78512 3.07538 0
M  V30 2540 H 237.823 -2.42349 4.93505 0
M  V30 2541 H 239.048 -3.06031 6.06236 0
M  V30 2542 H 236.994 -4.72175 4.55397 0
M  V30 2543 H 236.911 -4.28419 6.22891 0
M  V30 2544 H 238.179 -5.3389 5.67963 0
M  V30 2545 N 242.408 -1.52605 -0.393616 0
M  V30 2546 C 243.34 -1.73303 -1.49995 0
M  V30 2547 C 244.353 -0.613473 -1.50799 0
M  V30 2548 O 245.542 -0.889049 -1.54784 0
M  V30 2549 C 242.642 -1.77245 -2.88855 0
M  V30 2550 C 241.815 -3.06483 -3.12069 0
M  V30 2551 C 240.874 -3.02033 -4.30886 0
M  V30 2552 O 239.9 -3.75907 -4.27414 0
M  V30 2553 N 241.102 -2.20897 -5.36828 0
M  V30 2554 H 243.867 -2.68756 -1.32629 0
M  V30 2555 H 241.428 -1.51036 -0.583083 0
M  V30 2556 H 243.42 -1.7178 -3.66434 0
M  V30 2557 H 241.99 -0.891993 -2.99603 0
M  V30 2558 H 241.21 -3.25474 -2.22396 0
M  V30 2559 H 242.498 -3.91947 -3.2443 0
M  V30 2560 H 241.896 -1.60336 -5.42502 0
M  V30 2561 H 240.453 -2.21275 -6.13091 0
M  V30 2562 N 243.887 0.651787 -1.4349 0
M  V30 2563 C 244.819 1.77725 -1.44729 0
M  V30 2564 C 245.832 1.59141 -0.343231 0
M  V30 2565 O 247.021 1.67835 -0.607751 0
M  V30 2566 C 244.121 3.15172 -1.24579 0
M  V30 2567 C 243.294 3.60402 -2.47849 0
M  V30 2568 C 242.353 4.76656 -2.22902 0
M  V30 2569 O 241.379 4.86022 -2.96263 0
M  V30 2570 N 242.581 5.66958 -1.24656 0
M  V30 2571 H 245.346 1.77141 -2.41746 0
M  V30 2572 H 242.907 0.835678 -1.38665 0
M  V30 2573 H 244.899 3.90634 -1.0577 0
M  V30 2574 H 243.469 3.1052 -0.360015 0
M  V30 2575 H 242.689 2.75369 -2.82073 0
M  V30 2576 H 243.977 3.87368 -3.29884 0
M  V30 2577 H 243.375 5.62065 -0.640265 0
M  V30 2578 H 241.932 6.42135 -1.1183 0
M  V30 2579 N 245.365 1.30045 0.890287 0
M  V30 2580 C 246.611 1.18737 1.64406 0
M  V30 2581 C 246.944 -0.258525 1.92472 0
M  V30 2582 O 246.219 -1.18562 1.54186 0
M  V30 2583 C 246.502 2.01087 2.98724 0
M  V30 2584 C 246.355 3.53867 2.77665 0
M  V30 2585 C 247.674 1.84457 3.9958 0
M  V30 2586 H 244.793 0.432698 0.596608 0
M  V30 2587 H 247.435 1.5962 1.0306 0
M  V30 2588 H 245.585 1.66349 3.51084 0
M  V30 2589 H 247.257 3.98637 2.32133 0
M  V30 2590 H 245.5 3.78318 2.12269 0
M  V30 2591 H 246.171 4.06772 3.7315 0
M  V30 2592 H 248.647 2.14817 3.56361 0
M  V30 2593 H 247.523 2.44411 4.91482 0
M  V30 2594 H 247.784 0.802276 4.3476 0
M  V30 2595 N 246.843 -1.10192 1.12674 0
M  V30 2596 C 247.773 -2.18652 0.819362 0
M  V30 2597 C 248.754 -1.68698 -0.217915 0
M  V30 2598 O 249.939 -1.94041 -0.0785581 0
M  V30 2599 C 247.069 -3.46202 0.27594 0
M  V30 2600 C 246.023 -4.09444 1.24656 0
M  V30 2601 C 245.349 -5.31725 0.563258 0
M  V30 2602 C 246.649 -4.52863 2.60217 0
M  V30 2603 H 248.343 -2.44622 1.72628 0
M  V30 2604 H 245.889 -1.17571 0.831451 0
M  V30 2605 H 247.842 -4.21372 0.0486149 0
M  V30 2606 H 246.566 -3.1973 -0.666331 0
M  V30 2607 H 245.225 -3.36284 1.45974 0
M  V30 2608 H 244.873 -5.0153 -0.384235 0
M  V30 2609 H 244.573 -5.74991 1.21075 0
M  V30 2610 H 246.097 -6.09624 0.34503 0
M  V30 2611 H 247.511 -5.19294 2.42913 0
M  V30 2612 H 245.908 -5.06986 3.21068 0
M  V30 2613 H 246.978 -3.65656 3.18471 0
M  V30 2614 N 248.321 -0.919034 -1.28029 0
M  V30 2615 C 249.253 -0.368762 -2.26214 0
M  V30 2616 C 250.266 0.495716 -1.55069 0
M  V30 2617 O 251.455 0.30974 -1.75792 0
M  V30 2618 C 248.555 0.491049 -3.35324 0
M  V30 2619 C 247.728 -0.352133 -4.3598 0
M  V30 2620 C 246.787 0.443622 -5.24327 0
M  V30 2621 O 245.813 -0.14566 -5.69014 0
M  V30 2622 N 247.015 1.74545 -5.53637 0
M  V30 2623 H 249.78 -1.21273 -2.74068 0
M  V30 2624 H 247.341 -0.785541 -1.41566 0
M  V30 2625 H 249.333 1.03026 -3.91366 0
M  V30 2626 H 247.903 1.23574 -2.87138 0
M  V30 2627 H 247.123 -1.07269 -3.79324 0
M  V30 2628 H 248.411 -0.928883 -5.00249 0
M  V30 2629 H 247.809 2.24666 -5.19174 0
M  V30 2630 H 246.366 2.23138 -6.12416 0
M  V30 2631 N 249.799 1.42003 -0.683588 0
M  V30 2632 C 250.709 2.34597 -0.0109075 0
M  V30 2633 C 251.725 1.55576 0.779245 0
M  V30 2634 O 252.901 1.88107 0.719555 0
M  V30 2635 C 249.966 3.34199 0.922588 0
M  V30 2636 C 249.027 4.29115 0.125984 0
M  V30 2637 C 248.26 5.23959 1.01502 0
M  V30 2638 O 248.483 5.23952 2.25456 0
M  V30 2639 O 247.417 6.00053 0.47111 0
M  V30 2640 H 251.243 2.93675 -0.773853 0
M  V30 2641 H 248.828 1.42654 -0.443861 0
M  V30 2642 H 250.71 3.95365 1.45823 0
M  V30 2643 H 249.385 2.77582 1.66523 0
M  V30 2644 H 248.292 3.71335 -0.453969 0
M  V30 2645 H 249.625 4.88798 -0.577736 0
M  V30 2646 N 251.277 0.427512 1.51691 0
M  V30 2647 C 252.24 -0.377132 2.26076 0
M  V30 2648 C 253.24 -0.958089 1.29141 0
M  V30 2649 O 254.43 -0.83408 1.52934 0
M  V30 2650 C 251.562 -1.53262 3.04506 0
M  V30 2651 H 252.755 0.27464 2.9864 0
M  V30 2652 H 250.308 0.180445 1.55255 0
M  V30 2653 H 251.043 -2.22072 2.36335 0
M  V30 2654 H 250.828 -1.12232 3.75694 0
M  V30 2655 H 252.318 -2.10135 3.60878 0
M  V30 2656 N 252.755 -1.56801 0.158532 0
M  V30 2657 C 253.985 -2.00568 -0.495583 0
M  V30 2658 C 254.393 -1.03774 -1.58201 0
M  V30 2659 O 253.736 -0.0285797 -1.83678 0
M  V30 2660 C 253.798 -3.40768 -1.14532 0
M  V30 2661 C 253.462 -4.56553 -0.202101 0
M  V30 2662 C 254.459 -5.16714 0.574675 0
M  V30 2663 C 252.144 -5.02197 -0.101648 0
M  V30 2664 C 254.138 -6.20939 1.43924 0
M  V30 2665 C 251.825 -6.06274 0.766508 0
M  V30 2666 C 252.823 -6.65515 1.53555 0
M  V30 2667 O 252.511 -7.67575 2.38922 0
M  V30 2668 H 252.243 -0.662893 -0.13247 0
M  V30 2669 H 254.797 -2.03829 0.253559 0
M  V30 2670 H 253.027 -3.34381 -1.94233 0
M  V30 2671 H 254.716 -3.6857 -1.70033 0
M  V30 2672 H 255.482 -4.82341 0.507167 0
M  V30 2673 H 251.361 -4.55807 -0.689994 0
M  V30 2674 H 254.905 -6.67107 2.03996 0
M  V30 2675 H 250.802 -6.40073 0.835266 0
M  V30 2676 H 251.57 -7.84844 2.32296 0
M  V30 2677 N 254.233 0.115231 -1.57178 0
M  V30 2678 C 255.649 0.468877 -1.52557 0
M  V30 2679 C 255.849 1.81649 -0.872125 0
M  V30 2680 O 254.905 2.48347 -0.45606 0
M  V30 2681 C 256.218 0.4499 -2.97315 0
M  V30 2682 C 257.766 0.533185 -3.08425 0
M  V30 2683 C 258.241 0.54456 -4.54751 0
M  V30 2684 N 259.732 0.605892 -4.5922 0
M  V30 2685 C 260.467 0.636203 -5.6986 0
M  V30 2686 N 259.963 0.623931 -6.89985 0
M  V30 2687 N 261.756 0.679496 -5.57978 0
M  V30 2688 H 253.907 -0.767712 -1.9804 0
M  V30 2689 H 256.17 -0.283609 -0.904583 0
M  V30 2690 H 255.876 -0.472721 -3.48509 0
M  V30 2691 H 255.75 1.27632 -3.5495 0
M  V30 2692 H 258.137 1.44623 -2.57232 0
M  V30 2693 H 258.218 -0.320995 -2.53778 0
M  V30 2694 H 257.862 -0.364452 -5.06591 0
M  V30 2695 H 257.792 1.41568 -5.07214 0
M  V30 2696 H 260.283 0.621386 -3.72756 0
M  V30 2697 H 260.596 0.649787 -7.70063 0
M  V30 2698 H 258.941 0.591296 -6.9248 0
M  V30 2699 H 262.132 0.686472 -4.63039 0
M  V30 2700 H 262.305 0.69965 -6.44212 0
M  V30 2701 N 255.711 1.52812 0.385517 0
M  V30 2702 C 256.957 1.68275 1.13188 0
M  V30 2703 C 257.29 0.423179 1.89533 0
M  V30 2704 O 256.565 -0.579113 1.85679 0
M  V30 2705 C 256.848 2.92001 2.1073 0
M  V30 2706 C 256.701 4.28067 1.38125 0
M  V30 2707 C 258.02 3.11283 3.11113 0
M  V30 2708 H 255.139 0.612352 0.410115 0
M  V30 2709 H 257.781 1.85415 0.414869 0
M  V30 2710 H 255.931 2.77519 2.71874 0
M  V30 2711 H 257.603 4.54324 0.799187 0
M  V30 2712 H 255.846 4.28388 0.683092 0
M  V30 2713 H 256.517 5.10733 2.09417 0
M  V30 2714 H 258.993 3.2482 2.6006 0
M  V30 2715 H 257.869 3.99325 3.76605 0
M  V30 2716 H 258.13 2.25656 3.80173 0
M  V30 2717 N 257.189 -0.644168 1.43834 0
M  V30 2718 C 258.119 -1.76814 1.52509 0
M  V30 2719 C 259.1 -1.65823 0.379052 0
M  V30 2720 O 260.285 -1.84781 0.597466 0
M  V30 2721 C 257.415 -3.15288 1.4564 0
M  V30 2722 C 256.369 -3.41053 2.58586 0
M  V30 2723 C 255.695 -4.79421 2.36769 0
M  V30 2724 C 256.995 -3.34902 4.00797 0
M  V30 2725 H 258.689 -1.69812 2.46586 0
M  V30 2726 H 256.235 -0.815542 1.1868 0
M  V30 2727 H 258.188 -3.93681 1.50311 0
M  V30 2728 H 256.912 -3.23043 0.480725 0
M  V30 2729 H 255.571 -2.65035 2.53282 0
M  V30 2730 H 255.219 -4.83863 1.37424 0
M  V30 2731 H 254.919 -4.9762 3.12487 0
M  V30 2732 H 256.443 -5.6006 2.43238 0
M  V30 2733 H 257.857 -4.03218 4.07539 0
M  V30 2734 H 256.254 -3.64637 4.76613 0
M  V30 2735 H 257.324 -2.32928 4.25291 0
M  V30 2736 N 258.668 -1.30515 -0.883378 0
M  V30 2737 C 259.615 -1.17032 -1.98927 0
M  V30 2738 C 260.585 -0.0594241 -1.65994 0
M  V30 2739 O 261.77 -0.229895 -1.8941 0
M  V30 2740 C 258.91 -0.869777 -3.33959 0
M  V30 2741 C 258.023 -2.06271 -3.79574 0
M  V30 2742 C 257.158 -1.70011 -5.03259 0
M  V30 2743 C 256.197 -2.8579 -5.41286 0
M  V30 2744 N 255.334 -2.49816 -6.56153 0
M  V30 2745 H 260.174 -2.1164 -2.09792 0
M  V30 2746 H 257.711 -1.05296 -1.02719 0
M  V30 2747 H 259.669 -0.676138 -4.11685 0
M  V30 2748 H 258.299 0.0394332 -3.22776 0
M  V30 2749 H 257.351 -2.36755 -2.97744 0
M  V30 2750 H 258.663 -2.92971 -4.03694 0
M  V30 2751 H 257.817 -1.47032 -5.88614 0
M  V30 2752 H 256.556 -0.804829 -4.81013 0
M  V30 2753 H 255.561 -3.09434 -4.54456 0
M  V30 2754 H 256.786 -3.76008 -5.65504 0
M  V30 2755 H 254.732 -1.62795 -6.35479 0
M  V30 2756 H 254.649 -3.30048 -6.8015 0
M  V30 2757 H 255.917 -2.30197 -7.44735 0
M  V30 2758 N 260.146 1.09593 -1.13257 0
M  V30 2759 C 261.096 2.14345 -0.777179 0
M  V30 2760 C 262.08 1.59277 0.227966 0
M  V30 2761 O 263.272 1.76971 0.0321413 0
M  V30 2762 C 260.401 3.42439 -0.242991 0
M  V30 2763 C 259.487 4.04419 -1.27694 0
M  V30 2764 N 259.878 4.40979 -2.47732 0
M  V30 2765 C 258.176 4.31596 -1.12432 0
M  V30 2766 C 258.877 4.89784 -3.13826 0
M  V30 2767 N 257.853 4.87133 -2.41252 0
M  V30 2768 H 261.655 2.40415 -1.69049 0
M  V30 2769 H 259.169 1.26803 -1.01463 0
M  V30 2770 H 261.166 4.16889 0.0298496 0
M  V30 2771 H 259.826 3.17824 0.66467 0
M  V30 2772 H 260.837 4.32396 -2.85051 0
M  V30 2773 H 257.514 4.16595 -0.274684 0
M  V30 2774 H 258.904 5.2755 -4.16102 0
M  V30 2775 N 261.624 0.925811 1.2754 0
M  V30 2776 C 262.872 0.564138 1.94067 0
M  V30 2777 C 263.193 -0.897188 1.73134 0
M  V30 2778 O 262.463 -1.63573 1.07799 0
M  V30 2779 H 261.043 0.205645 0.718136 0
M  V30 2780 H 263.705 1.1778 1.55287 0
M  V30 2781 H 262.801 0.76881 3.02483 0
M  V30 2782 N 263.102 -1.41638 0.69111 0
M  V30 2783 C 264.35 -2.00902 0.219758 0
M  V30 2784 C 264.671 -1.54994 -1.18329 0
M  V30 2785 O 263.941 -0.778628 -1.79762 0
M  V30 2786 H 262.521 -0.74289 0.0782558 0
M  V30 2787 H 265.183 -1.73327 0.891271 0
M  V30 2788 H 264.279 -3.11224 0.233708 0
M  V30 2789 N 264.58 -0.43555 -1.51462 0
M  V30 2790 C 265.49 0.383001 -2.31453 0
M  V30 2791 C 266.506 1.02931 -1.4029 0
M  V30 2792 O 267.682 1.02507 -1.73362 0
M  V30 2793 C 264.747 1.47043 -3.13973 0
M  V30 2794 C 263.808 0.844433 -4.20913 0
M  V30 2795 C 263.041 1.88004 -4.9949 0
M  V30 2796 O 263.264 3.10199 -4.78678 0
M  V30 2797 O 262.198 1.47157 -5.83634 0
M  V30 2798 H 266.024 -0.269964 -3.02498 0
M  V30 2799 H 263.609 -0.19813 -1.4808 0
M  V30 2800 H 265.491 2.10113 -3.65281 0
M  V30 2801 H 264.166 2.10751 -2.45695 0
M  V30 2802 H 263.073 0.175729 -3.73687 0
M  V30 2803 H 264.406 0.250869 -4.9156 0
M  V30 2804 N 266.058 1.56714 -0.166846 0
M  V30 2805 C 266.988 2.20754 0.760913 0
M  V30 2806 C 267.969 1.16178 1.24244 0
M  V30 2807 O 269.154 1.44592 1.29641 0
M  V30 2808 C 266.284 2.84478 1.99223 0
M  V30 2809 C 265.238 3.95053 1.64672 0
M  V30 2810 C 264.564 4.45805 2.95232 0
M  V30 2811 C 265.864 5.14865 0.878155 0
M  V30 2812 H 267.558 2.98537 0.22713 0
M  V30 2813 H 265.104 1.43596 0.107805 0
M  V30 2814 H 267.057 3.27951 2.64624 0
M  V30 2815 H 265.781 2.04056 2.55007 0
M  V30 2816 H 264.44 3.52228 1.01641 0
M  V30 2817 H 264.088 3.62181 3.49047 0
M  V30 2818 H 263.788 5.204 2.7287 0
M  V30 2819 H 265.312 4.91962 3.6167 0
M  V30 2820 H 266.726 5.55059 1.43466 0
M  V30 2821 H 265.123 5.95348 0.753738 0
M  V30 2822 H 266.193 4.84735 -0.126377 0
M  V30 2823 N 267.536 -0.106894 1.57237 0
M  V30 2824 C 268.766 -0.825191 1.89405 0
M  V30 2825 C 269.174 -1.73374 0.757496 0
M  V30 2826 O 268.517 -1.81552 -0.280115 0
M  V30 2827 C 268.579 -1.70102 3.1671 0
M  V30 2828 C 268.243 -0.965523 4.46684 0
M  V30 2829 C 269.24 -0.300741 5.19029 0
M  V30 2830 C 266.925 -0.943105 4.93367 0
M  V30 2831 C 268.919 0.376622 6.36286 0
M  V30 2832 C 266.606 -0.261949 6.10538 0
M  V30 2833 C 267.604 0.396748 6.81847 0
M  V30 2834 O 267.292 1.06701 7.96787 0
M  V30 2835 H 267.024 -0.241852 0.631255 0
M  V30 2836 H 269.578 -0.0921491 2.05193 0
M  V30 2837 H 267.808 -2.47601 2.97036 0
M  V30 2838 H 269.497 -2.29483 3.34802 0
M  V30 2839 H 270.263 -0.309599 4.84011 0
M  V30 2840 H 266.142 -1.44524 4.3776 0
M  V30 2841 H 269.686 0.891334 6.91882 0
M  V30 2842 H 265.583 -0.250896 6.45012 0
M  V30 2843 H 266.351 0.972707 8.127 0
M  V30 2844 N 269.014 -1.53014 -0.377408 0
M  V30 2845 C 270.261 -1.68623 -1.12128 0
M  V30 2846 C 270.589 -0.431997 -1.89642 0
M  V30 2847 O 269.844 0.585855 -1.86725 0
M  V30 2848 C 270.143 -2.87982 -2.11663 0
M  V30 2849 C 269.809 -4.24964 -1.50719 0
M  V30 2850 C 268.471 -4.62217 -1.33825 0
M  V30 2851 C 270.823 -5.10199 -1.06519 0
M  V30 2852 C 268.151 -5.82352 -0.712963 0
M  V30 2853 C 270.503 -6.30969 -0.453955 0
M  V30 2854 C 269.167 -6.66944 -0.272411 0
M  V30 2855 H 268.437 -0.617034 -0.410305 0
M  V30 2856 H 271.084 -1.8718 -0.404484 0
M  V30 2857 H 269.389 -2.63889 -2.89603 0
M  V30 2858 H 271.086 -2.97253 -2.6915 0
M  V30 2859 H 267.676 -3.95626 -1.64858 0
M  V30 2860 H 271.86 -4.81978 -1.18368 0
M  V30 2861 H 267.116 -6.08824 -0.560611 0
M  V30 2862 H 271.29 -6.96324 -0.103217 0
M  V30 2863 H 268.917 -7.59898 0.214181 0
M  V30 2864 N 270.492 0.636531 -1.44174 0
M  V30 2865 C 271.717 1.42847 -1.50364 0
M  V30 2866 C 272.142 1.87665 -0.127867 0
M  V30 2867 O 271.5 1.58408 0.88185 0
M  V30 2868 C 271.548 2.62854 -2.4686 0
M  V30 2869 O 270.652 3.62501 -1.9664 0
M  V30 2870 H 269.993 0.427642 -0.507955 0
M  V30 2871 H 272.523 0.777422 -1.89255 0
M  V30 2872 H 272.533 3.10465 -2.64718 0
M  V30 2873 H 271.208 2.29578 -3.46795 0
M  V30 2874 H 269.785 3.21735 -1.88523 0
M  V30 2875 N 271.97 1.30982 0.876444 0
M  V30 2876 C 273.247 1.10942 1.61094 0
M  V30 2877 C 273.627 -0.338223 2.08373 0
M  V30 2878 O 272.975 -1.33122 1.85717 0
M  V30 2879 C 273.185 2.11789 2.77392 0
M  V30 2880 C 274.533 2.43965 3.47514 0
M  V30 2881 O 275.557 2.10166 2.87591 0
M  V30 2882 O 274.416 3.01817 4.55597 0
M  V30 2883 H 271.51 0.42667 0.708436 0
M  V30 2884 H 274.056 1.42438 0.922474 0
M  V30 2885 H 272.828 3.09194 2.39823 0
M  V30 2886 H 272.451 1.81161 3.5393 0
M  V30 2887 N 273.449 -1.08991 1.13837 0
M  V30 2888 C 274.695 -1.81526 0.90422 0
M  V30 2889 C 275.028 -1.85706 -0.568066 0
M  V30 2890 O 274.303 -1.32855 -1.42056 0
M  V30 2891 C 274.586 -3.27447 1.49835 0
M  V30 2892 C 274.439 -3.31512 3.04006 0
M  V30 2893 C 275.758 -4.24256 1.17025 0
M  V30 2894 H 272.877 -0.659029 0.329923 0
M  V30 2895 H 275.519 -1.27644 1.40737 0
M  V30 2896 H 273.669 -3.73462 1.07044 0
M  V30 2897 H 275.341 -2.93867 3.55584 0
M  V30 2898 H 273.584 -2.70963 3.38765 0
M  V30 2899 H 274.255 -4.34329 3.40679 0
M  V30 2900 H 276.731 -3.86549 1.54009 0
M  V30 2901 H 275.607 -5.24684 1.61237 0
M  V30 2902 H 275.868 -4.42019 0.0846274 0
M  V30 2903 N 274.927 -0.932562 -1.27047 0
M  V30 2904 C 276.157 -0.591173 -1.97961 0
M  V30 2905 C 276.565 0.836219 -1.69717 0
M  V30 2906 O 275.908 1.56801 -0.957036 0
M  V30 2907 C 275.97 -0.743082 -3.51736 0
M  V30 2908 C 275.634 -2.1435 -4.03613 0
M  V30 2909 C 276.631 -3.11815 -4.16014 0
M  V30 2910 C 274.316 -2.46175 -4.37839 0
M  V30 2911 C 276.31 -4.39211 -4.61923 0
M  V30 2912 C 273.997 -3.73806 -4.83438 0
M  V30 2913 C 274.995 -4.70137 -4.95439 0
M  V30 2914 O 274.683 -5.95496 -5.40037 0
M  V30 2915 H 274.415 -0.222375 -0.638377 0
M  V30 2916 H 276.969 -1.25317 -1.62742 0
M  V30 2917 H 275.199 -0.0239739 -3.86693 0
M  V30 2918 H 276.888 -0.40603 -4.03864 0
M  V30 2919 H 277.654 -2.88549 -3.89826 0
M  V30 2920 H 273.533 -1.71936 -4.27737 0
M  V30 2921 H 277.077 -5.14404 -4.71205 0
M  V30 2922 H 272.974 -3.96888 -5.09068 0
M  V30 2923 H 273.742 -5.98554 -5.58279 0
M  V30 2924 N 276.405 1.4127 -0.698611 0
M  V30 2925 C 277.633 2.05503 -0.239992 0
M  V30 2926 C 278.048 1.52584 1.11191 0
M  V30 2927 O 277.405 0.675323 1.69545 0
M  V30 2928 C 277.456 3.60987 -0.192429 0
M  V30 2929 O 277.177 4.1195 -1.49094 0
M  V30 2930 C 278.678 4.42371 0.28681 0
M  V30 2931 H 275.898 0.661748 -0.111045 0
M  V30 2932 H 278.442 1.80987 -0.95205 0
M  V30 2933 H 276.597 3.84533 0.470472 0
M  V30 2934 H 277.011 5.06018 -1.38007 0
M  V30 2935 H 278.485 5.51344 0.26896 0
M  V30 2936 H 278.962 4.18699 1.32619 0
M  V30 2937 H 279.568 4.23897 -0.345201 0
M  V30 2938 N 277.883 0.443576 1.51229 0
M  V30 2939 C 279.108 -0.121648 2.07043 0
M  V30 2940 C 279.533 -1.35156 1.30823 0
M  V30 2941 O 278.891 -1.7793 0.347934 0
M  V30 2942 C 278.939 -0.41624 3.5819 0
M  V30 2943 O 278.043 -1.50163 3.8409 0
M  V30 2944 H 277.384 0.000871367 0.663999 0
M  V30 2945 H 279.914 0.626706 1.94765 0
M  V30 2946 H 279.924 -0.664867 4.02546 0
M  V30 2947 H 278.599 0.482653 4.1309 0
M  V30 2948 H 277.176 -1.24248 3.51592 0
M  V30 2949 N 279.361 -1.56624 0.175154 0
M  V30 2950 C 280.291 -2.21155 -0.749195 0
M  V30 2951 C 281.272 -1.16836 -1.23626 0
M  V30 2952 O 282.457 -1.45277 -1.28873 0
M  V30 2953 C 279.587 -2.8553 -1.97711 0
M  V30 2954 C 278.541 -3.95921 -1.62575 0
M  V30 2955 C 277.867 -4.47365 -2.92864 0
M  V30 2956 C 279.167 -5.15323 -0.850838 0
M  V30 2957 H 280.861 -2.98653 -0.211295 0
M  V30 2958 H 278.407 -1.43651 -0.100188 0
M  V30 2959 H 280.36 -3.2935 -2.62881 0
M  V30 2960 H 279.084 -2.05406 -2.53921 0
M  V30 2961 H 277.743 -3.52762 -0.997719 0
M  V30 2962 H 277.391 -3.64027 -3.47122 0
M  V30 2963 H 277.091 -5.21839 -2.70106 0
M  V30 2964 H 278.615 -4.93873 -3.59056 0
M  V30 2965 H 280.029 -5.55812 -1.40521 0
M  V30 2966 H 278.426 -5.95739 -0.722154 0
M  V30 2967 H 279.496 -4.84661 0.152082 0
M  V30 2968 N 280.839 0.0985539 -1.57292 0
M  V30 2969 C 281.749 1.13824 -2.05137 0
M  V30 2970 C 282.765 1.44076 -0.975604 0
M  V30 2971 O 283.941 1.54786 -1.28853 0
M  V30 2972 C 281.006 2.43969 -2.46333 0
M  V30 2973 C 280.067 2.2093 -3.68087 0
M  V30 2974 C 279.3 3.44869 -4.0731 0
M  V30 2975 O 279.523 4.52972 -3.46659 0
M  V30 2976 O 278.457 3.34661 -5.00285 0
M  V30 2977 H 282.283 0.761881 -2.93988 0
M  V30 2978 H 279.868 0.310818 -1.46131 0
M  V30 2979 H 281.75 3.20609 -2.73473 0
M  V30 2980 H 280.425 2.81038 -1.60621 0
M  V30 2981 H 279.332 1.42081 -3.46069 0
M  V30 2982 H 280.665 1.88755 -4.54568 0
M  V30 2983 N 282.317 1.53212 0.369288 0
M  V30 2984 C 283.247 1.82365 1.45826 0
M  V30 2985 C 284.228 0.676907 1.56051 0
M  V30 2986 O 285.413 0.926401 1.70679 0
M  V30 2987 C 282.543 2.01023 2.83208 0
M  V30 2988 C 281.497 3.1678 2.8781 0
M  V30 2989 C 280.823 3.20724 4.27832 0
M  V30 2990 C 282.123 4.55447 2.55667 0
M  V30 2991 H 283.817 2.73559 1.21678 0
M  V30 2992 H 281.363 1.3163 0.583911 0
M  V30 2993 H 283.316 2.20001 3.59413 0
M  V30 2994 H 282.04 1.06536 3.08736 0
M  V30 2995 H 280.699 2.97616 2.14056 0
M  V30 2996 H 280.347 2.23882 4.50429 0
M  V30 2997 H 280.047 3.98496 4.31827 0
M  V30 2998 H 281.571 3.41881 5.05915 0
M  V30 2999 H 282.985 4.74611 3.21586 0
M  V30 3000 H 281.382 5.35432 2.70984 0
M  V30 3001 H 282.452 4.60812 1.5093 0
M  V30 3002 N 283.795 -0.628877 1.44509 0
M  V30 3003 C 285.206 -1.21054 1.42137 0
M  V30 3004 C 285.557 -1.95715 0.137881 0
M  V30 3005 O 284.682 -2.02554 -0.761645 0
M  V30 3006 C 285.277 -2.20189 2.57493 0
M  V30 3007 C 283.836 -2.73777 2.58308 0
M  V30 3008 C 282.983 -1.48813 2.33987 0
M  V30 3009 H 285.934 -0.41942 1.53057 0
M  V30 3010 H 285.955 -3.02833 2.30375 0
M  V30 3011 H 285.467 -1.6582 3.50892 0
M  V30 3012 H 283.568 -3.32142 1.68856 0
M  V30 3013 H 283.681 -3.19662 3.56865 0
M  V30 3014 H 282.045 -1.77024 1.83124 0
M  V30 3015 H 282.828 -0.963442 3.29504 0
M  V30 3016 N 285.273 -1.31445 -0.869486 0
M  V30 3017 C 286.183 -1.21097 -2.0093 0
M  V30 3018 C 287.199 -0.127584 -1.73532 0
M  V30 3019 O 288.375 -0.345477 -1.98415 0
M  V30 3020 C 285.44 -0.919378 -3.34288 0
M  V30 3021 C 284.501 -2.08971 -3.75006 0
M  V30 3022 C 283.734 -1.81194 -5.02001 0
M  V30 3023 O 283.957 -0.747296 -5.65484 0
M  V30 3024 O 282.891 -2.66883 -5.39497 0
M  V30 3025 H 286.717 -2.16883 -2.12592 0
M  V30 3026 H 284.302 -1.11189 -0.997868 0
M  V30 3027 H 286.184 -0.772625 -4.14257 0
M  V30 3028 H 284.859 0.00844772 -3.23699 0
M  V30 3029 H 283.766 -2.29187 -2.95676 0
M  V30 3030 H 285.099 -2.9998 -3.90221 0
M  V30 3031 N 286.751 1.08385 -1.14413 0
M  V30 3032 C 287.661 2.18856 -0.844951 0
M  V30 3033 C 288.677 1.73121 0.174668 0
M  V30 3034 O 289.853 2.014 0.00312857 0
M  V30 3035 C 286.918 3.45155 -0.32696 0
M  V30 3036 C 285.979 4.05513 -1.40916 0
M  V30 3037 C 285.212 5.25784 -0.915793 0
M  V30 3038 O 285.435 5.69884 0.242651 0
M  V30 3039 O 284.369 5.77545 -1.69487 0
M  V30 3040 H 288.195 2.46919 -1.76818 0
M  V30 3041 H 285.78 1.17524 -0.922411 0
M  V30 3042 H 287.662 4.21377 -0.0440211 0
M  V30 3043 H 286.337 3.18668 0.568539 0
M  V30 3044 H 285.244 3.30879 -1.74556 0
M  V30 3045 H 286.577 4.3625 -2.27919 0
M  V30 3046 N 288.23 0.939286 1.26551 0
M  V30 3047 C 289.479 0.581601 1.93133 0
M  V30 3048 C 289.792 -0.883224 1.74524 0
M  V30 3049 O 290.998 -1.3502 2.35546 0
M  V30 3050 C 289.454 0.989425 3.46032 0
M  V30 3051 C 289.062 2.47573 3.73379 0
M  V30 3052 C 290.806 0.703544 4.18629 0
M  V30 3053 C 288.713 2.82235 5.19709 0
M  V30 3054 H 287.643 0.213803 0.723052 0
M  V30 3055 H 290.294 1.14167 1.4366 0
M  V30 3056 H 288.676 0.357902 3.94379 0
M  V30 3057 H 289.85 3.15614 3.35744 0
M  V30 3058 H 288.165 2.73471 3.1401 0
M  V30 3059 H 290.762 0.938869 5.26393 0
M  V30 3060 H 291.105 -0.359639 4.14744 0
M  V30 3061 H 291.638 1.2947 3.76141 0
M  V30 3062 H 288.377 3.87509 5.28694 0
M  V30 3063 H 287.897 2.18854 5.58447 0
M  V30 3064 H 289.576 2.70599 5.87695 0
M  V30 3065 N 289.708 -1.40897 0.706093 0
M  V30 3066 C 291.124 -1.55042 0.37869 0
M  V30 3067 C 291.324 -1.67944 -1.11342 0
M  V30 3068 O 290.38 -1.66372 -1.89938 0
M  V30 3069 C 291.693 -2.78398 1.13643 0
M  V30 3070 C 293.241 -2.92206 1.12181 0
M  V30 3071 C 293.716 -4.18463 1.86152 0
M  V30 3072 N 295.207 -4.25443 1.83173 0
M  V30 3073 C 295.942 -5.2202 2.37239 0
M  V30 3074 N 295.438 -6.24563 2.99821 0
M  V30 3075 N 297.231 -5.14033 2.27435 0
M  V30 3076 H 289.382 -1.30769 1.67372 0
M  V30 3077 H 291.645 -0.631653 0.706907 0
M  V30 3078 H 291.351 -2.7511 2.19106 0
M  V30 3079 H 291.225 -3.70228 0.721853 0
M  V30 3080 H 293.612 -2.95004 0.0754171 0
M  V30 3081 H 293.693 -2.01521 1.57554 0
M  V30 3082 H 293.337 -4.16427 2.90776 0
M  V30 3083 H 293.267 -5.08141 1.38206 0
M  V30 3084 H 295.758 -3.51976 1.37556 0
M  V30 3085 H 296.071 -6.94665 3.38616 0
M  V30 3086 H 294.416 -6.25035 3.03902 0
M  V30 3087 H 297.607 -4.3285 1.78208 0
M  V30 3088 H 297.78 -5.89129 2.69873 0
M  V30 3089 N 291.186 -0.45159 -1.50991 0
M  V30 3090 C 292.414 0.108334 -2.06616 0
M  V30 3091 C 292.829 1.35224 -1.31757 0
M  V30 3092 O 292.186 1.78475 -0.381174 0
M  V30 3093 C 292.237 0.41619 -3.59096 0
M  V30 3094 O 291.958 -0.778361 -4.3113 0
M  V30 3095 C 293.459 1.02523 -4.31282 0
M  V30 3096 H 290.679 0.00159995 -0.670998 0
M  V30 3097 H 293.223 -0.634771 -1.94399 0
M  V30 3098 H 291.378 1.10921 -3.71181 0
M  V30 3099 H 291.792 -0.511181 -5.22003 0
M  V30 3100 H 293.266 1.19053 -5.39009 0
M  V30 3101 H 293.743 2.01013 -3.905 0
M  V30 3102 H 294.349 0.371173 -4.23677 0
M  V30 3103 N 292.664 1.56529 -0.183458 0
M  V30 3104 C 293.614 2.1515 0.754605 0
M  V30 3105 C 294.598 1.08904 1.18443 0
M  V30 3106 O 295.79 1.34997 1.14476 0
M  V30 3107 C 292.919 2.80531 1.97881 0
M  V30 3108 C 292.005 3.93952 1.57043 0
M  V30 3109 N 292.396 4.98221 0.87231 0
M  V30 3110 C 290.694 4.05338 1.86057 0
M  V30 3111 C 291.395 5.77836 0.669377 0
M  V30 3112 N 290.371 5.29858 1.21454 0
M  V30 3113 H 294.173 2.93132 0.212387 0
M  V30 3114 H 291.687 1.62391 0.0167725 0
M  V30 3115 H 293.684 3.20914 2.6612 0
M  V30 3116 H 292.344 2.04035 2.52586 0
M  V30 3117 H 293.355 5.15191 0.529033 0
M  V30 3118 H 290.032 3.39957 2.42354 0
M  V30 3119 H 291.422 6.71799 0.116422 0
M  V30 3120 N 294.142 -0.090211 1.57342 0
M  V30 3121 C 295.089 -1.10909 2.02405 0
M  V30 3122 C 296.059 -1.39523 0.901252 0
M  V30 3123 O 297.244 -1.50903 1.1676 0
M  V30 3124 C 294.384 -2.42277 2.45755 0
M  V30 3125 C 293.497 -2.20352 3.71576 0
M  V30 3126 C 292.632 -3.45154 4.03785 0
M  V30 3127 C 291.671 -3.18512 5.22701 0
M  V30 3128 N 290.808 -4.35593 5.50639 0
M  V30 3129 H 295.648 -0.71782 2.89225 0
M  V30 3130 H 293.185 -0.342901 1.43048 0
M  V30 3131 H 295.143 -3.18951 2.68935 0
M  V30 3132 H 293.773 -2.79242 1.61938 0
M  V30 3133 H 292.825 -1.34458 3.55844 0
M  V30 3134 H 294.137 -1.96661 4.58395 0
M  V30 3135 H 293.291 -4.30233 4.27767 0
M  V30 3136 H 292.03 -3.71904 3.15498 0
M  V30 3137 H 291.035 -2.31827 4.98534 0
M  V30 3138 H 292.26 -2.93103 6.12591 0
M  V30 3139 H 290.206 -4.6241 4.6531 0
M  V30 3140 H 290.123 -4.1511 6.31838 0
M  V30 3141 H 291.391 -5.21723 5.7916 0
M  V30 3142 N 295.62 -1.53406 -0.361157 0
M  V30 3143 C 296.866 -1.70054 -1.10496 0
M  V30 3144 C 297.199 -0.453278 -1.88836 0
M  V30 3145 O 296.474 0.5495 -1.86576 0
M  V30 3146 C 296.757 -2.95317 -2.06058 0
M  V30 3147 C 296.61 -4.3021 -1.31298 0
M  V30 3148 C 297.929 -3.16193 -3.06121 0
M  V30 3149 H 295.048 -0.618799 -0.400321 0
M  V30 3150 H 297.69 -1.86052 -0.385318 0
M  V30 3151 H 295.84 -2.81809 -2.67425 0
M  V30 3152 H 297.512 -4.55538 -0.726807 0
M  V30 3153 H 295.755 -4.29421 -0.614853 0
M  V30 3154 H 296.426 -5.14 -2.01265 0
M  V30 3155 H 298.902 -3.28916 -2.5486 0
M  V30 3156 H 297.778 -4.05266 -3.70204 0
M  V30 3157 H 298.039 -2.31676 -3.76535 0
M  V30 3158 N 297.098 0.621204 -1.44841 0
M  V30 3159 C 298.028 1.74366 -1.55303 0
M  V30 3160 C 299.009 1.65199 -0.405385 0
M  V30 3161 O 300.194 1.83807 -0.626787 0
M  V30 3162 C 297.324 3.12931 -1.50637 0
M  V30 3163 C 296.278 3.36896 -2.63979 0
M  V30 3164 C 295.604 4.75594 -2.44366 0
M  V30 3165 C 296.904 3.28483 -4.06074 0
M  V30 3166 H 298.598 1.65867 -2.49256 0
M  V30 3167 H 296.144 0.796558 -1.19962 0
M  V30 3168 H 298.097 3.9124 -1.56555 0
M  V30 3169 H 296.821 3.22237 -0.532057 0
M  V30 3170 H 295.48 2.60972 -2.57467 0
M  V30 3171 H 295.128 4.81616 -1.45105 0
M  V30 3172 H 294.828 4.92586 -3.20364 0
M  V30 3173 H 296.352 5.5612 -2.52117 0
M  V30 3174 H 297.766 3.96684 -4.13902 0
M  V30 3175 H 296.163 3.57008 -4.82354 0
M  V30 3176 H 297.233 2.26133 -4.28943 0
M  V30 3177 N 298.576 1.31904 0.862503 0
M  V30 3178 C 299.822 1.23207 1.61838 0
M  V30 3179 C 300.177 -0.206062 1.91293 0
M  V30 3180 O 299.47 -1.14162 1.53875 0
M  V30 3181 C 299.664 2.01713 2.95037 0
M  V30 3182 C 299.493 3.53014 2.78588 0
M  V30 3183 C 298.263 4.22359 2.77382 0
M  V30 3184 C 300.461 4.47819 2.52909 0
M  V30 3185 N 298.443 5.59766 2.52062 0
M  V30 3186 C 299.814 5.72947 2.36922 0
M  V30 3187 C 301.869 4.37162 2.38314 0
M  V30 3188 C 300.572 6.88623 2.07823 0
M  V30 3189 C 302.598 5.5263 2.10604 0
M  V30 3190 C 301.96 6.76752 1.95411 0
M  V30 3191 H 298.059 0.505984 0.596242 0
M  V30 3192 H 300.643 1.66179 1.01452 0
M  V30 3193 H 298.814 1.61098 3.53415 0
M  V30 3194 H 300.546 1.84975 3.59953 0
M  V30 3195 H 297.301 3.74401 2.90036 0
M  V30 3196 H 297.725 6.32135 2.42352 0
M  V30 3197 H 302.367 3.41857 2.48784 0
M  V30 3198 H 300.085 7.83948 1.9609 0
M  V30 3199 H 303.671 5.46307 2.00101 0
M  V30 3200 H 302.551 7.6459 1.74274 0
M  V30 3201 N 300.054 -1.07777 1.14986 0
M  V30 3202 C 301.302 -1.79934 0.920235 0
M  V30 3203 C 301.623 -1.86955 -0.554336 0
M  V30 3204 O 300.893 -1.36731 -1.40291 0
M  V30 3205 H 299.473 -0.666424 0.337473 0
M  V30 3206 H 302.135 -1.3027 1.44968 0
M  V30 3207 H 301.231 -2.82539 1.32583 0
M  V30 3208 N 301.532 -0.945985 -1.26051 0
M  V30 3209 C 302.442 -0.465633 -2.29933 0
M  V30 3210 C 303.458 0.462761 -1.67733 0
M  V30 3211 O 304.634 0.341118 -1.9849 0
M  V30 3212 C 301.699 0.256994 -3.45746 0
M  V30 3213 C 300.76 -0.708549 -4.23412 0
M  V30 3214 C 299.993 -0.0203135 -5.33696 0
M  V30 3215 O 300.216 1.19571 -5.57726 0
M  V30 3216 O 299.15 -0.701459 -5.97799 0
M  V30 3217 H 302.976 -1.32866 -2.73094 0
M  V30 3218 H 300.561 -0.712071 -1.31339 0
M  V30 3219 H 302.443 0.663852 -4.16138 0
M  V30 3220 H 301.118 1.09533 -3.04605 0
M  V30 3221 H 300.025 -1.16545 -3.55483 0
M  V30 3222 H 301.358 -1.51465 -4.68315 0
M  V30 3223 N 303.011 1.40521 -0.713556 0
M  V30 3224 C 304.251 2.02783 -0.256584 0
M  V30 3225 C 304.615 1.55352 1.12827 0
M  V30 3226 O 305.816 2.09663 1.68211 0
M  V30 3227 C 304.087 3.5586 -0.331414 0
M  V30 3228 S 305.646 4.38773 0.0488703 0
M  V30 3229 H 302.464 0.703655 -0.101934 0
M  V30 3230 H 305.066 1.71674 -0.935325 0
M  V30 3231 H 303.77 3.87874 -1.34098 0
M  V30 3232 H 303.301 3.91695 0.365873 0
M  V30 3233 H 305.316 4.79633 1.2715 0
M  V30 3234 N 304.489 0.459591 1.5075 0
M  V30 3235 C 305.419 -0.330644 2.31147 0
M  V30 3236 C 306.4 -1.00087 1.37538 0
M  V30 3237 O 307.585 -1.00025 1.66459 0
M  V30 3238 C 304.715 -1.41958 3.16962 0
M  V30 3239 C 303.669 -0.871608 4.19031 0
M  V30 3240 C 302.995 -2.05797 4.9351 0
M  V30 3241 C 304.295 0.109251 5.22186 0
M  V30 3242 H 305.989 0.340336 2.97459 0
M  V30 3243 H 303.535 0.165119 1.4305 0
M  V30 3244 H 305.488 -1.9798 3.71997 0
M  V30 3245 H 304.212 -2.11917 2.48513 0
M  V30 3246 H 302.871 -0.333442 3.6508 0
M  V30 3247 H 302.519 -2.74427 4.21544 0
M  V30 3248 H 302.219 -1.6976 5.62544 0
M  V30 3249 H 303.743 -2.62331 5.51375 0
M  V30 3250 H 305.157 -0.361405 5.7216 0
M  V30 3251 H 303.554 0.383316 5.98875 0
M  V30 3252 H 304.624 1.03887 4.73641 0
M  V30 3253 N 305.967 -1.56429 0.191757 0
M  V30 3254 C 307.215 -1.97095 -0.447006 0
M  V30 3255 C 307.536 -1.07967 -1.62383 0
M  V30 3256 O 306.806 -0.150248 -1.95323 0
M  V30 3257 H 305.386 -0.727832 -0.168135 0
M  V30 3258 H 308.048 -1.92911 0.27771 0
M  V30 3259 H 307.144 -3.01848 -0.793371 0
M  V30 3260 N 307.445 0.0818655 -1.57387 0
M  V30 3261 C 308.693 0.781368 -1.86384 0
M  V30 3262 C 309.014 1.78618 -0.782342 0
M  V30 3263 O 308.284 1.94976 0.190061 0
M  V30 3264 H 306.864 0.291562 -0.687751 0
M  V30 3265 H 309.526 0.060348 -1.94807 0
M  V30 3266 H 308.622 1.3038 -2.83562 0
M  V30 3267 N 308.923 1.53595 0.353017 0
M  V30 3268 C 309.886 1.80232 1.41594 0
M  V30 3269 C 310.886 0.673081 1.46035 0
M  V30 3270 O 312.076 0.941335 1.46576 0
M  V30 3271 C 309.208 1.93578 2.80607 0
M  V30 3272 H 310.401 2.75174 1.19244 0
M  V30 3273 H 307.954 1.44864 0.586872 0
M  V30 3274 H 308.689 1.00746 3.08254 0
M  V30 3275 H 308.474 2.75724 2.78781 0
M  V30 3276 H 309.964 2.15735 3.57558 0
M  V30 3277 N 310.401 -0.613514 1.45168 0
M  V30 3278 C 311.331 -1.7354 1.56225 0
M  V30 3279 C 312.312 -1.64981 0.41414 0
M  V30 3280 O 313.497 -1.83472 0.636526 0
M  V30 3281 C 310.627 -3.12128 1.52295 0
M  V30 3282 C 309.581 -3.35491 2.65762 0
M  V30 3283 C 308.907 -4.74291 2.46885 0
M  V30 3284 C 310.207 -3.26325 4.0781 0
M  V30 3285 H 311.901 -1.64543 2.50132 0
M  V30 3286 H 309.447 -0.790185 1.20383 0
M  V30 3287 H 311.4 -3.90404 1.58628 0
M  V30 3288 H 310.124 -3.2195 0.549139 0
M  V30 3289 H 308.783 -2.59603 2.58847 0
M  V30 3290 H 308.431 -4.80839 1.47657 0
M  V30 3291 H 308.131 -4.9088 3.22972 0
M  V30 3292 H 309.655 -5.54775 2.55063 0
M  V30 3293 H 311.069 -3.94483 4.16 0
M  V30 3294 H 309.466 -3.54445 4.8424 0
M  V30 3295 H 310.536 -2.23855 4.30136 0
M  V30 3296 N 311.879 -1.3236 -0.855495 0
M  V30 3297 C 313.109 -1.25688 -1.6397 0
M  V30 3298 C 313.517 0.177592 -1.88365 0
M  V30 3299 O 312.86 1.12485 -1.45234 0
M  V30 3300 C 312.922 -1.94602 -3.02275 0
M  V30 3301 C 312.586 -3.43937 -3.00926 0
M  V30 3302 C 313.583 -4.39435 -2.77835 0
M  V30 3303 C 311.268 -3.85858 -3.21588 0
M  V30 3304 C 313.262 -5.74829 -2.75409 0
M  V30 3305 C 310.949 -5.21361 -3.18789 0
M  V30 3306 C 311.947 -6.15658 -2.95727 0
M  V30 3307 O 311.635 -7.48681 -2.928 0
M  V30 3308 H 311.367 -0.434972 -0.51747 0
M  V30 3309 H 313.921 -1.75023 -1.075 0
M  V30 3310 H 312.151 -1.39836 -3.60531 0
M  V30 3311 H 313.84 -1.81651 -3.62985 0
M  V30 3312 H 314.606 -4.08374 -2.6164 0
M  V30 3313 H 310.485 -3.12883 -3.38564 0
M  V30 3314 H 314.029 -6.48404 -2.57328 0
M  V30 3315 H 309.926 -5.52052 -3.34528 0
M  V30 3316 H 310.694 -7.5803 -3.0876 0
M  V30 3317 N 313.357 1.07166 -1.15556 0
M  V30 3318 C 314.603 1.80222 -0.942961 0
M  V30 3319 C 314.958 1.85121 0.524209 0
M  V30 3320 O 314.251 1.32531 1.38369 0
M  V30 3321 C 314.445 3.24707 -1.49332 0
M  V30 3322 C 314.274 3.33887 -3.01247 0
M  V30 3323 C 313.044 3.44337 -3.69811 0
M  V30 3324 C 315.242 3.24484 -3.99017 0
M  V30 3325 N 313.224 3.42439 -5.09518 0
M  V30 3326 C 314.595 3.29726 -5.25053 0
M  V30 3327 C 316.65 3.08307 -3.90962 0
M  V30 3328 C 315.353 3.20455 -6.43973 0
M  V30 3329 C 317.379 3.00371 -5.09442 0
M  V30 3330 C 316.741 3.06227 -6.34354 0
M  V30 3331 H 312.84 0.672709 -0.398731 0
M  V30 3332 H 315.424 1.27905 -1.46794 0
M  V30 3333 H 313.595 3.7544 -0.994946 0
M  V30 3334 H 315.327 3.85894 -1.21935 0
M  V30 3335 H 312.082 3.48762 -3.20409 0
M  V30 3336 H 312.506 3.45013 -5.8249 0
M  V30 3337 H 317.148 3.02633 -2.95251 0
M  V30 3338 H 314.866 3.24888 -7.39914 0
M  V30 3339 H 318.452 2.88955 -5.04971 0
M  V30 3340 H 317.332 3.00132 -7.24493 0
M  V30 3341 N 314.835 0.952656 1.25548 0
M  V30 3342 C 315.782 0.47008 2.25962 0
M  V30 3343 C 316.752 -0.476384 1.59122 0
M  V30 3344 O 317.937 -0.39007 1.8677 0
M  V30 3345 C 315.077 -0.247881 3.44209 0
M  V30 3346 C 314.19 0.735591 4.25691 0
M  V30 3347 C 313.325 -0.0047306 5.312 0
M  V30 3348 C 312.364 0.969805 6.04368 0
M  V30 3349 N 311.501 0.260486 7.01617 0
M  V30 3350 H 316.341 1.33126 2.66611 0
M  V30 3351 H 313.878 0.66765 1.31076 0
M  V30 3352 H 315.836 -0.680695 4.1161 0
M  V30 3353 H 314.466 -1.07312 3.0444 0
M  V30 3354 H 313.518 1.28689 3.57971 0
M  V30 3355 H 314.83 1.47934 4.76358 0
M  V30 3356 H 313.984 -0.496275 6.04667 0
M  V30 3357 H 312.723 -0.781282 4.81401 0
M  V30 3358 H 311.728 1.47237 5.29718 0
M  V30 3359 H 312.953 1.74655 6.56256 0
M  V30 3360 H 310.899 -0.497364 6.54112 0
M  V30 3361 H 310.816 0.943362 7.50091 0
M  V30 3362 H 312.084 -0.209587 7.79218 0
M  V30 3363 N 316.313 -1.40141 0.720998 0
M  V30 3364 C 317.223 -2.34486 0.0731031 0
M  V30 3365 C 318.239 -1.57587 -0.737723 0
M  V30 3366 O 319.415 -1.89949 -0.669429 0
M  V30 3367 C 316.48 -3.36528 -0.833656 0
M  V30 3368 C 315.541 -4.29298 -0.0121673 0
M  V30 3369 C 314.774 -5.26466 -0.875742 0
M  V30 3370 O 314.997 -5.29745 -2.11485 0
M  V30 3371 O 313.931 -6.01092 -0.31185 0
M  V30 3372 H 317.757 -2.9152 0.851444 0
M  V30 3373 H 315.342 -1.41427 0.481527 0
M  V30 3374 H 317.224 -3.99093 -1.35289 0
M  V30 3375 H 315.899 -2.81899 -1.59105 0
M  V30 3376 H 314.806 -3.70001 0.552262 0
M  V30 3377 H 316.139 -4.87094 0.707129 0
M  V30 3378 N 317.792 -0.46758 -1.50504 0
M  V30 3379 C 318.722 0.318381 -2.31319 0
M  V30 3380 C 319.703 0.993564 -1.38066 0
M  V30 3381 O 320.888 0.991411 -1.66987 0
M  V30 3382 C 318.018 1.40275 -3.17711 0
M  V30 3383 C 316.972 0.849373 -4.19487 0
M  V30 3384 C 316.298 2.03177 -4.94594 0
M  V30 3385 C 317.598 -0.136942 -5.2212 0
M  V30 3386 H 319.292 -0.356106 -2.97275 0
M  V30 3387 H 316.838 -0.172703 -1.42961 0
M  V30 3388 H 318.791 1.96004 -3.73042 0
M  V30 3389 H 317.515 2.10596 -2.49634 0
M  V30 3390 H 316.174 0.314076 -3.65252 0
M  V30 3391 H 315.822 2.72187 -4.22993 0
M  V30 3392 H 315.522 1.66774 -5.63436 0
M  V30 3393 H 317.046 2.59403 -5.52759 0
M  V30 3394 H 318.46 0.331056 -5.72343 0
M  V30 3395 H 316.857 -0.41507 -5.98663 0
M  V30 3396 H 317.927 -1.06398 -4.73083 0
M  V30 3397 N 319.27 1.56325 -0.20005 0
M  V30 3398 C 320.233 2.18084 0.705132 0
M  V30 3399 C 321.233 1.13666 1.1374 0
M  V30 3400 O 322.423 1.39023 1.04968 0
M  V30 3401 C 319.555 2.78689 1.96329 0
M  V30 3402 H 320.748 2.99435 0.167023 0
M  V30 3403 H 318.301 1.56221 0.0495725 0
M  V30 3404 H 319.036 2.0115 2.5438 0
M  V30 3405 H 318.821 3.55133 1.66202 0
M  V30 3406 H 320.311 3.26096 2.60866 0
M  V30 3407 N 320.748 -0.0735177 1.57428 0
M  V30 3408 C 321.994 -0.774145 1.87443 0
M  V30 3409 C 322.327 -1.77311 0.792103 0
M  V30 3410 O 321.602 -1.93492 -0.197793 0
M  V30 3411 C 321.885 -1.48367 3.28115 0
M  V30 3412 C 321.738 -0.501227 4.46999 0
M  V30 3413 C 323.057 -2.429 3.66998 0
M  V30 3414 H 320.176 -0.279971 0.681752 0
M  V30 3415 H 322.818 -0.0373616 1.89963 0
M  V30 3416 H 320.968 -2.11171 3.26097 0
M  V30 3417 H 322.64 0.121468 4.6114 0
M  V30 3418 H 320.883 0.183593 4.33411 0
M  V30 3419 H 321.554 -1.03526 5.42205 0
M  V30 3420 H 324.03 -1.90175 3.70098 0
M  V30 3421 H 322.906 -2.89549 4.66318 0
M  V30 3422 H 323.167 -3.27628 2.96837 0
M  V30 3423 N 322.226 -1.5378 -0.344866 0
M  V30 3424 C 323.156 -1.84662 -1.42906 0
M  V30 3425 C 324.137 -0.701648 -1.54955 0
M  V30 3426 O 325.322 -0.953438 -1.69184 0
M  V30 3427 C 322.452 -2.05503 -2.79974 0
M  V30 3428 C 321.406 -3.21318 -2.82734 0
M  V30 3429 C 320.732 -3.2749 -4.22675 0
M  V30 3430 C 322.032 -4.59456 -2.48389 0
M  V30 3431 H 323.726 -2.75461 -1.17311 0
M  V30 3432 H 321.272 -1.32542 -0.562896 0
M  V30 3433 H 323.225 -2.25691 -3.55867 0
M  V30 3434 H 321.949 -1.11434 -3.07002 0
M  V30 3435 H 320.608 -3.00984 -2.09294 0
M  V30 3436 H 320.256 -2.31019 -4.4681 0
M  V30 3437 H 319.956 -4.05316 -4.25433 0
M  V30 3438 H 321.48 -3.49887 -5.00412 0
M  V30 3439 H 322.894 -4.79667 -3.13995 0
M  V30 3440 H 321.291 -5.39675 -2.62432 0
M  V30 3441 H 322.361 -4.63155 -1.4358 0
M  V30 3442 N 323.704 0.605807 -1.45491 0
M  V30 3443 C 324.667 1.69836 -1.5391 0
M  V30 3444 C 325.667 1.55261 -0.418424 0
M  V30 3445 O 326.857 1.60296 -0.681965 0
M  V30 3446 C 323.989 3.09117 -1.43734 0
M  V30 3447 H 325.182 1.63738 -2.51257 0
M  V30 3448 H 322.735 0.821689 -1.32959 0
M  V30 3449 H 323.47 3.20791 -0.475788 0
M  V30 3450 H 323.255 3.21104 -2.25021 0
M  V30 3451 H 324.745 3.88696 -1.52661 0
M  V30 3452 N 325.182 1.32811 0.848464 0
M  V30 3453 C 326.114 1.18095 1.96433 0
M  V30 3454 C 327.127 0.114354 1.62398 0
M  V30 3455 O 328.316 0.363892 1.74751 0
M  V30 3456 C 325.416 0.786798 3.2964 0
M  V30 3457 C 324.589 1.943 3.91875 0
M  V30 3458 C 323.648 1.53138 5.03423 0
M  V30 3459 O 322.674 2.24432 5.23086 0
M  V30 3460 N 323.876 0.430915 5.78898 0
M  V30 3461 H 326.641 2.14218 2.09597 0
M  V30 3462 H 324.202 1.2543 1.02367 0
M  V30 3463 H 326.194 0.493715 4.01677 0
M  V30 3464 H 324.764 -0.0834541 3.12489 0
M  V30 3465 H 323.984 2.40224 3.12547 0
M  V30 3466 H 325.272 2.71689 4.30189 0
M  V30 3467 H 324.67 -0.162333 5.65467 0
M  V30 3468 H 323.227 0.197466 6.51501 0
M  V30 3469 N 326.66 -1.06551 1.16123 0
M  V30 3470 C 327.607 -2.13961 0.865414 0
M  V30 3471 C 328.577 -1.65066 -0.185055 0
M  V30 3472 O 329.762 -1.90732 -0.05083 0
M  V30 3473 C 326.902 -3.43113 0.369776 0
M  V30 3474 C 326.015 -4.05756 1.48276 0
M  V30 3475 C 325.15 -5.22773 0.942414 0
M  V30 3476 C 324.189 -5.77395 2.03179 0
M  V30 3477 N 323.326 -6.85731 1.50721 0
M  V30 3478 H 328.166 -2.38605 1.78527 0
M  V30 3479 H 325.703 -1.17072 0.890646 0
M  V30 3480 H 327.661 -4.17151 0.0640643 0
M  V30 3481 H 326.291 -3.18695 -0.513143 0
M  V30 3482 H 325.343 -3.29292 1.9045 0
M  V30 3483 H 326.655 -4.42351 2.30493 0
M  V30 3484 H 325.809 -6.03827 0.589729 0
M  V30 3485 H 324.548 -4.87618 0.0895191 0
M  V30 3486 H 323.553 -4.94981 2.3932 0
M  V30 3487 H 324.778 -6.14603 2.8886 0
M  V30 3488 H 322.724 -6.52499 0.676811 0
M  V30 3489 H 322.641 -7.21254 2.26557 0
M  V30 3490 H 323.909 -7.7047 1.18303 0
M  V30 3491 N 328.138 -0.959301 -1.25041 0
M  V30 3492 C 329.387 -0.612254 -1.92183 0
M  V30 3493 C 329.7 0.855347 -1.75907 0
M  V30 3494 O 330.906 1.31256 -2.37664 0
M  V30 3495 C 329.362 -1.04435 -3.44414 0
M  V30 3496 C 328.97 -2.53482 -3.69393 0
M  V30 3497 C 330.714 -0.770055 -4.17457 0
M  V30 3498 C 328.621 -2.90468 -5.15153 0
M  V30 3499 H 327.551 -0.225279 -0.719559 0
M  V30 3500 H 330.202 -1.16438 -1.41825 0
M  V30 3501 H 328.584 -0.4206 -3.9376 0
M  V30 3502 H 329.758 -3.20916 -3.30681 0
M  V30 3503 H 328.073 -2.78432 -3.0962 0
M  V30 3504 H 330.67 -1.02249 -5.24832 0
M  V30 3505 H 331.013 0.293611 -4.15263 0
M  V30 3506 H 331.546 -1.35437 -3.74034 0
M  V30 3507 H 328.285 -3.95871 -5.22462 0
M  V30 3508 H 327.805 -2.27711 -5.54894 0
M  V30 3509 H 329.484 -2.79914 -5.83315 0
M  V30 3510 N 329.616 1.39756 -0.72842 0
M  V30 3511 C 330.864 2.00248 -0.272946 0
M  V30 3512 C 331.185 1.58077 1.14178 0
M  V30 3513 O 330.455 0.826014 1.77634 0
M  V30 3514 H 329.035 0.740554 -0.0979247 0
M  V30 3515 H 331.697 1.70903 -0.936912 0
M  V30 3516 H 330.793 3.10495 -0.316142 0
M  V30 3517 N 331.094 0.475555 1.50254 0
M  V30 3518 C 332.341 -0.0778919 2.0235 0
M  V30 3519 C 332.669 -1.39319 1.35722 0
M  V30 3520 O 331.924 -1.89888 0.473395 0
M  V30 3521 C 332.223 -0.305114 3.56095 0
M  V30 3522 C 331.889 0.92903 4.41225 0
M  V30 3523 C 330.551 1.26739 4.6421 0
M  V30 3524 C 332.903 1.75054 4.90923 0
M  V30 3525 C 330.231 2.42724 5.34137 0
M  V30 3526 C 332.583 2.9017 5.62125 0
M  V30 3527 C 331.247 3.24416 5.83362 0
M  V30 3528 H 330.517 -0.0285027 0.740452 0
M  V30 3529 H 333.164 0.630543 1.80821 0
M  V30 3530 H 331.469 -1.09584 3.76163 0
M  V30 3531 H 333.166 -0.747377 3.93974 0
M  V30 3532 H 329.756 0.655428 4.23559 0
M  V30 3533 H 333.94 1.50231 4.73016 0
M  V30 3534 H 329.196 2.69525 5.48786 0
M  V30 3535 H 333.37 3.54169 5.99614 0
M  V30 3536 H 330.997 4.14396 6.37323 0
M  V30 3537 N 332.573 -1.56217 0.208337 0
M  V30 3538 C 333.813 -1.99849 -0.428927 0
M  V30 3539 C 334.177 -1.09262 -1.57879 0
M  V30 3540 O 335.378 -1.42185 -2.28116 0
M  V30 3541 C 333.649 -3.46777 -0.864879 0
M  V30 3542 S 335.208 -4.12434 -1.49811 0
M  V30 3543 H 332.026 -0.697742 -0.136665 0
M  V30 3544 H 334.628 -1.92953 0.314519 0
M  V30 3545 H 333.332 -4.10396 -0.0181326 0
M  V30 3546 H 332.863 -3.57518 -1.64147 0
M  V30 3547 H 334.878 -4.10532 -2.78707 0
M  V30 3548 N 334.051 0.0651679 -1.57465 0
M  V30 3549 C 335.462 0.616213 -1.76238 0
M  V30 3550 C 335.813 1.7756 -0.834689 0
M  V30 3551 O 334.938 2.1639 -0.0204156 0
M  V30 3552 C 335.533 1.12462 -3.1959 0
M  V30 3553 C 334.092 1.62147 -3.39684 0
M  V30 3554 C 333.239 0.543739 -2.71917 0
M  V30 3555 H 336.19 -0.161022 -1.57881 0
M  V30 3556 H 336.211 1.99324 -3.24114 0
M  V30 3557 H 335.723 0.280592 -3.87084 0
M  V30 3558 H 333.824 2.48854 -2.77313 0
M  V30 3559 H 333.937 1.69385 -4.48158 0
M  V30 3560 H 332.301 0.990352 -2.34657 0
M  V30 3561 H 333.084 -0.290216 -3.42071 0
M  V30 3562 N 335.529 1.53961 0.336706 0
M  V30 3563 C 336.94 1.62914 0.911925 0
M  V30 3564 C 337.291 0.514795 1.89326 0
M  V30 3565 O 336.416 -0.354395 2.13478 0
M  V30 3566 C 337.011 2.95304 1.66076 0
M  V30 3567 C 335.57 3.06496 2.18489 0
M  V30 3568 C 334.717 2.58403 1.00613 0
M  V30 3569 H 337.668 1.58285 0.114649 0
M  V30 3570 H 337.689 2.84727 2.5241 0
M  V30 3571 H 337.201 3.76387 0.946276 0
M  V30 3572 H 335.302 2.3006 2.93092 0
M  V30 3573 H 335.415 4.1208 2.44391 0
M  V30 3574 H 333.779 2.13977 1.38152 0
M  V30 3575 H 334.562 3.41932 0.306179 0
M  V30 3576 N 337.007 -0.598083 1.45811 0
M  V30 3577 C 338.423 -0.919847 1.30426 0
M  V30 3578 C 338.623 -1.99759 0.264303 0
M  V30 3579 O 337.679 -2.50221 -0.338472 0
M  V30 3580 C 338.992 -1.35176 2.68603 0
M  V30 3581 C 340.54 -1.46546 2.76574 0
M  V30 3582 C 341.015 -1.9311 4.15298 0
M  V30 3583 N 342.506 -2.00328 4.1764 0
M  V30 3584 C 343.241 -2.37599 5.21856 0
M  V30 3585 N 342.737 -2.73771 6.36413 0
M  V30 3586 N 344.53 -2.38021 5.09218 0
M  V30 3587 H 336.681 0.114111 2.12093 0
M  V30 3588 H 338.944 -0.0116121 0.947929 0
M  V30 3589 H 338.65 -0.633969 3.45939 0
M  V30 3590 H 338.524 -2.3164 2.97696 0
M  V30 3591 H 340.911 -2.17415 1.99537 0
M  V30 3592 H 340.992 -0.483727 2.51185 0
M  V30 3593 H 340.636 -1.22824 4.92825 0
M  V30 3594 H 340.566 -2.92213 4.38086 0
M  V30 3595 H 343.057 -1.74925 3.34977 0
M  V30 3596 H 343.37 -3.0112 7.11721 0
M  V30 3597 H 341.715 -2.71445 6.39799 0
M  V30 3598 H 344.906 -2.09174 4.18765 0
M  V30 3599 H 345.079 -2.66741 5.90554 0
M  V30 3600 N 338.485 -1.33259 -0.841409 0
M  V30 3601 C 339.415 -1.25926 -1.96634 0
M  V30 3602 C 340.396 -0.140349 -1.6952 0
M  V30 3603 O 341.581 -0.329707 -1.91381 0
M  V30 3604 C 338.711 -0.99512 -3.32738 0
M  V30 3605 C 337.665 -2.0767 -3.74242 0
M  V30 3606 C 336.991 -1.66474 -5.08125 0
M  V30 3607 C 338.291 -3.49318 -3.88297 0
M  V30 3608 H 339.985 -2.20046 -2.03027 0
M  V30 3609 H 337.531 -1.05931 -0.975425 0
M  V30 3610 H 339.484 -0.930323 -4.11002 0
M  V30 3611 H 338.208 -0.0183004 -3.26595 0
M  V30 3612 H 336.867 -2.13187 -2.98239 0
M  V30 3613 H 336.515 -0.675012 -4.9845 0
M  V30 3614 H 336.215 -2.3885 -5.36865 0
M  V30 3615 H 337.739 -1.61455 -5.88867 0
M  V30 3616 H 339.153 -3.46316 -4.56879 0
M  V30 3617 H 337.55 -4.20158 -4.28471 0
M  V30 3618 H 338.62 -3.8801 -2.9082 0
M  V30 3619 N 339.963 1.05934 -1.16686 0
M  V30 3620 C 341.209 1.79065 -0.95203 0
M  V30 3621 C 341.542 1.87147 0.518629 0
M  V30 3622 O 340.817 1.36574 1.38484 0
M  V30 3623 C 341.1 3.23359 -1.58464 0
M  V30 3624 C 340.953 3.23336 -3.12689 0
M  V30 3625 C 342.272 4.21004 -1.28232 0
M  V30 3626 H 339.391 0.65005 -0.34728 0
M  V30 3627 H 342.033 1.23868 -1.44072 0
M  V30 3628 H 340.183 3.70493 -1.16908 0
M  V30 3629 H 341.855 2.84336 -3.6325 0
M  V30 3630 H 340.098 2.61886 -3.4583 0
M  V30 3631 H 340.769 4.25144 -3.52075 0
M  V30 3632 H 343.245 3.8233 -1.64203 0
M  V30 3633 H 342.121 5.20225 -1.75092 0
M  V30 3634 H 342.382 4.41639 -0.201791 0
M  V30 3635 N 341.441 0.965919 1.2453 0
M  V30 3636 C 342.669 0.644385 1.96609 0
M  V30 3637 C 343.084 -0.785823 1.71669 0
M  V30 3638 O 342.441 -1.52703 0.999399 0
M  V30 3639 C 342.492 0.907375 3.49927 0
M  V30 3640 O 342.213 2.28136 3.74013 0
M  V30 3641 C 343.714 0.599784 4.39224 0
M  V30 3642 H 340.934 0.240588 0.626385 0
M  V30 3643 H 343.478 1.29337 1.58405 0
M  V30 3644 H 341.633 0.304631 3.862 0
M  V30 3645 H 342.047 2.36002 4.68405 0
M  V30 3646 H 343.521 0.834263 5.45659 0
M  V30 3647 H 343.998 -0.465921 4.36722 0
M  V30 3648 H 344.604 1.18235 4.08535 0
M  V30 3649 N 342.919 -1.39368 0.735821 0
M  V30 3650 C 343.882 -2.2896 0.104874 0
M  V30 3651 C 344.882 -1.46347 -0.666274 0
M  V30 3652 O 346.072 -1.67014 -0.49517 0
M  V30 3653 C 343.204 -3.29857 -0.860656 0
M  V30 3654 H 344.397 -2.86259 0.894205 0
M  V30 3655 H 341.95 -1.48029 0.501704 0
M  V30 3656 H 342.685 -2.77615 -1.67631 0
M  V30 3657 H 342.47 -3.9087 -0.310327 0
M  V30 3658 H 343.96 -3.96893 -1.29867 0
M  V30 3659 N 344.397 -0.483516 -1.5 0
M  V30 3660 C 345.345 0.318061 -2.30415 0
M  V30 3661 C 346.339 0.978988 -1.38247 0
M  V30 3662 O 347.545 0.908673 -1.55381 0
M  V30 3663 H 343.92 0.121419 -0.742133 0
M  V30 3664 H 345.891 -0.380403 -2.95965 0
M  V30 3665 C 344.64 1.38013 -3.19136 0
M  V30 3666 H 343.963 0.880952 -3.89973 0
M  V30 3667 H 345.403 1.91332 -3.78375 0
M  V30 3668 C 343.862 2.38884 -2.37563 0
M  V30 3669 O 344.392 3.44412 -2.06744 0
M  V30 3670 N 342.598 2.10912 -1.99911 0
M  V30 3671 H 342.145 1.25118 -2.25174 0
M  V30 3672 H 342.103 2.78635 -1.45636 0
M  V30 3673 N 345.875 1.56104 -0.216619 0
M  V30 3674 C 346.805 2.23063 0.690296 0
M  V30 3675 C 347.786 1.20072 1.20485 0
M  V30 3676 O 348.971 1.48643 1.24976 0
M  V30 3677 C 346.101 2.90672 1.90072 0
M  V30 3678 C 345.055 4.00092 1.5202 0
M  V30 3679 C 344.381 4.54972 2.80899 0
M  V30 3680 C 345.681 5.17398 0.71391 0
M  V30 3681 H 347.375 2.99109 0.132038 0
M  V30 3682 H 344.921 1.43866 0.0620664 0
M  V30 3683 H 346.874 3.36204 2.54057 0
M  V30 3684 H 345.598 2.12066 2.48386 0
M  V30 3685 H 344.257 3.55283 0.903839 0
M  V30 3686 H 343.905 3.73102 3.37348 0
M  V30 3687 H 343.605 5.28817 2.56176 0
M  V30 3688 H 345.129 5.0322 3.45836 0
M  V30 3689 H 346.543 5.59342 1.25735 0
M  V30 3690 H 344.94 5.97444 0.563951 0
M  V30 3691 H 346.01 4.84088 -0.280527 0
M  V30 3692 N 347.353 -0.0568162 1.57498 0
M  V30 3693 C 348.602 -0.752001 1.87157 0
M  V30 3694 C 348.915 -1.77978 0.811375 0
M  V30 3695 O 350.121 -2.52559 0.996293 0
M  V30 3696 C 348.577 -1.38844 3.3204 0
M  V30 3697 C 348.185 -0.398456 4.46225 0
M  V30 3698 C 349.929 -2.06512 3.70882 0
M  V30 3699 C 347.836 -1.04166 5.82154 0
M  V30 3700 H 346.766 -0.28461 0.698222 0
M  V30 3701 H 349.417 -0.00561272 1.83499 0
M  V30 3702 H 347.799 -2.1836 3.30356 0
M  V30 3703 H 348.973 0.367977 4.59328 0
M  V30 3704 H 347.288 0.174592 4.16034 0
M  V30 3705 H 349.885 -2.55437 4.6974 0
M  V30 3706 H 350.228 -2.87117 3.01445 0
M  V30 3707 H 350.761 -1.33808 3.7462 0
M  V30 3708 H 347.5 -0.275614 6.5492 0
M  V30 3709 H 347.02 -1.7786 5.72823 0
M  V30 3710 H 348.699 -1.55715 6.27982 0
M  V30 3711 N 348.832 -1.54138 -0.328536 0
M  V30 3712 C 350.06 -1.76062 -1.08673 0
M  V30 3713 C 350.475 -0.506852 -1.81869 0
M  V30 3714 O 349.832 0.522223 -1.74869 0
M  V30 3715 C 349.883 -2.95054 -2.08866 0
M  V30 3716 O 349.604 -4.15583 -1.38644 0
M  V30 3717 C 351.105 -3.2915 -2.96943 0
M  V30 3718 H 348.325 -0.587889 -0.323461 0
M  V30 3719 H 350.869 -2.0101 -0.376175 0
M  V30 3720 H 349.024 -2.72394 -2.75464 0
M  V30 3721 H 349.438 -4.82481 -2.05699 0
M  V30 3722 H 350.912 -4.15723 -3.63151 0
M  V30 3723 H 351.389 -2.461 -3.63774 0
M  V30 3724 H 351.995 -3.53871 -2.35914 0
M  V30 3725 N 350.31 0.590341 -1.46126 0
M  V30 3726 C 351.559 1.34499 -1.50309 0
M  V30 3727 C 351.872 1.94977 -0.156021 0
M  V30 3728 O 353.078 2.71395 -0.0756037 0
M  V30 3729 C 351.534 2.43723 -2.64815 0
M  V30 3730 C 351.142 1.89582 -4.0591 0
M  V30 3731 C 352.886 3.20579 -2.78262 0
M  V30 3732 C 350.793 2.9639 -5.11769 0
M  V30 3733 H 349.723 0.505593 -0.559368 0
M  V30 3734 H 352.374 0.630848 -1.72315 0
M  V30 3735 H 350.756 3.17902 -2.36124 0
M  V30 3736 H 351.93 1.21997 -4.44357 0
M  V30 3737 H 350.245 1.25418 -3.97063 0
M  V30 3738 H 352.842 4.00276 -3.54519 0
M  V30 3739 H 353.185 3.72684 -1.85505 0
M  V30 3740 H 353.718 2.53505 -3.06562 0
M  V30 3741 H 350.457 2.49181 -6.06291 0
M  V30 3742 H 349.977 3.62487 -4.77873 0
M  V30 3743 H 351.656 3.60474 -5.37278 0
M  V30 3744 N 351.788 1.33704 0.83433 0
M  V30 3745 C 352.72 1.20172 1.9517 0
M  V30 3746 C 353.733 0.131572 1.62267 0
M  V30 3747 O 354.922 0.382406 1.74356 0
M  V30 3748 C 352.022 0.821716 3.28787 0
M  V30 3749 C 351.195 1.98446 3.89792 0
M  V30 3750 C 350.254 1.58469 5.01771 0
M  V30 3751 O 349.28 2.29968 5.20676 0
M  V30 3752 N 350.482 0.492291 5.78409 0
M  V30 3753 H 353.247 2.16429 2.07313 0
M  V30 3754 H 350.808 1.26509 1.0103 0
M  V30 3755 H 352.8 0.536291 4.01131 0
M  V30 3756 H 351.37 -0.0503058 3.1256 0
M  V30 3757 H 350.59 2.43526 3.09982 0
M  V30 3758 H 351.878 2.76236 4.27283 0
M  V30 3759 H 351.276 -0.102349 5.65607 0
M  V30 3760 H 349.833 0.266555 6.51255 0
M  V30 3761 N 353.266 -1.05314 1.17247 0
M  V30 3762 C 354.214 -2.15137 0.884238 0
M  V30 3763 C 355.208 -1.68729 -0.15063 0
M  V30 3764 O 356.414 -1.8 -0.00366673 0
M  V30 3765 H 352.789 -0.702471 0.2684 0
M  V30 3766 H 354.76 -2.36652 1.81764 0
M  V30 3767 C 353.509 -3.45243 0.412659 0
M  V30 3768 H 352.832 -3.81352 1.20043 0
M  V30 3769 H 354.272 -4.23263 0.249858 0
M  V30 3770 C 352.731 -3.25487 -0.86948 0
M  V30 3771 O 353.261 -3.51938 -1.93655 0
M  V30 3772 N 351.467 -2.78875 -0.817147 0
M  V30 3773 H 351.014 -2.57549 0.0514211 0
M  V30 3774 H 350.972 -2.66036 -1.67547 0
M  V30 3775 N 354.744 -0.972509 -1.24016 0
M  V30 3776 C 355.691 -0.505969 -2.25186 0
M  V30 3777 C 356.661 0.451009 -1.5986 0
M  V30 3778 O 357.846 0.360307 -1.87367 0
M  V30 3779 C 354.986 0.193089 -3.44559 0
M  V30 3780 C 354.099 -0.803222 -4.24467 0
M  V30 3781 C 353.234 -0.0797793 -5.3114 0
M  V30 3782 C 352.273 -1.06583 -6.02749 0
M  V30 3783 N 351.41 -0.372074 -7.01113 0
M  V30 3784 H 356.25 -1.37351 -2.64459 0
M  V30 3785 H 353.787 -0.688419 -1.29997 0
M  V30 3786 H 355.745 0.615125 -4.1264 0
M  V30 3787 H 354.375 1.02455 -3.06109 0
M  V30 3788 H 353.427 -1.34368 -3.55878 0
M  V30 3789 H 354.739 -1.55494 -4.73944 0
M  V30 3790 H 353.893 0.400015 -6.0538 0
M  V30 3791 H 352.632 0.704597 -4.82583 0
M  V30 3792 H 351.637 -1.55645 -5.27309 0
M  V30 3793 H 352.862 -1.85074 -6.53395 0
M  V30 3794 H 350.808 0.393238 -6.5482 0
M  V30 3795 H 350.725 -1.06258 -7.48495 0
M  V30 3796 H 351.993 0.0855932 -7.79453 0
M  V30 3797 N 356.222 1.38976 -0.743202 0
M  V30 3798 C 357.132 2.3434 -0.110399 0
M  V30 3799 C 358.148 1.58741 0.712559 0
M  V30 3800 O 359.324 1.9099 0.639125 0
M  V30 3801 C 356.389 3.37812 0.780012 0
M  V30 3802 C 355.45 4.29263 -0.0561319 0
M  V30 3803 C 354.683 5.27793 0.791875 0
M  V30 3804 O 354.906 5.33043 2.03031 0
M  V30 3805 O 353.84 6.01512 0.216183 0
M  V30 3806 H 357.666 2.90129 -0.897714 0
M  V30 3807 H 355.251 1.40643 -0.503966 0
M  V30 3808 H 357.133 4.01194 1.28923 0
M  V30 3809 H 355.808 2.84395 1.546 0
M  V30 3810 H 354.715 3.69076 -0.611056 0
M  V30 3811 H 356.048 4.85907 -0.784531 0
M  V30 3812 N 357.7 0.491464 1.49741 0
M  V30 3813 C 358.63 -0.28154 2.31796 0
M  V30 3814 C 359.611 -0.971473 1.3963 0
M  V30 3815 O 360.796 -0.964719 1.68543 0
M  V30 3816 C 357.926 -1.35203 3.19902 0
M  V30 3817 C 356.88 -0.782529 4.20786 0
M  V30 3818 C 356.206 -1.95283 4.97764 0
M  V30 3819 C 357.506 0.21999 5.21837 0
M  V30 3820 H 359.2 0.403355 2.96671 0
M  V30 3821 H 356.746 0.195425 1.42668 0
M  V30 3822 H 358.699 -1.90045 3.76113 0
M  V30 3823 H 357.423 -2.06598 2.52953 0
M  V30 3824 H 356.082 -0.255928 3.65706 0
M  V30 3825 H 355.73 -2.65423 4.2727 0
M  V30 3826 H 355.43 -1.57789 5.66018 0
M  V30 3827 H 356.954 -2.50577 5.56816 0
M  V30 3828 H 358.368 -0.23996 5.72798 0
M  V30 3829 H 356.765 0.51026 5.97927 0
M  V30 3830 H 357.835 1.13911 4.7133 0
M  V30 3831 N 359.178 -1.55987 0.224894 0
M  V30 3832 C 360.088 -2.24066 -0.69511 0
M  V30 3833 C 361.104 -1.24939 -1.21104 0
M  V30 3834 O 362.28 -1.5776 -1.25195 0
M  V30 3835 C 359.345 -2.90983 -1.88493 0
M  V30 3836 C 358.406 -4.05462 -1.41064 0
M  V30 3837 C 357.639 -4.69179 -2.54375 0
M  V30 3838 O 357.862 -4.31895 -3.72589 0
M  V30 3839 O 356.796 -5.58108 -2.25386 0
M  V30 3840 H 360.622 -3.03353 -0.145149 0
M  V30 3841 H 358.207 -1.49399 -0.00569476 0
M  V30 3842 H 360.089 -3.33209 -2.57972 0
M  V30 3843 H 358.764 -2.14653 -2.42293 0
M  V30 3844 H 357.671 -3.67798 -0.683774 0
M  V30 3845 H 359.004 -4.83545 -0.918985 0
M  V30 3846 N 360.656 0.0484629 -1.57525 0
M  V30 3847 C 362.072 0.40375 -1.54409 0
M  V30 3848 C 362.272 1.77786 -0.948384 0
M  V30 3849 O 361.328 2.46189 -0.560983 0
M  V30 3850 C 362.641 0.323394 -2.98956 0
M  V30 3851 C 364.189 0.401892 -3.10409 0
M  V30 3852 C 364.664 0.351195 -4.56652 0
M  V30 3853 N 366.155 0.410576 -4.61377 0
M  V30 3854 C 366.89 0.393933 -5.72045 0
M  V30 3855 N 366.386 0.330724 -6.9201 0
M  V30 3856 N 368.179 0.442227 -5.60358 0
M  V30 3857 H 360.33 -0.851016 -1.94606 0
M  V30 3858 H 362.593 -0.321721 -0.89174 0
M  V30 3859 H 362.299 -0.62011 -3.4619 0
M  V30 3860 H 362.173 1.12463 -3.60044 0
M  V30 3861 H 364.56 1.33582 -2.63134 0
M  V30 3862 H 364.641 -0.428342 -2.52188 0
M  V30 3863 H 364.285 -0.578987 -5.04589 0
M  V30 3864 H 364.215 1.19928 -5.12762 0
M  V30 3865 H 366.706 0.462729 -3.75056 0
M  V30 3866 H 367.019 0.322592 -7.72126 0
M  V30 3867 H 365.364 0.29706 -6.94365 0
M  V30 3868 H 368.555 0.489464 -4.65534 0
M  V30 3869 H 368.728 0.425788 -6.466 0
M  V30 3870 N 362.134 1.5431 0.320358 0
M  V30 3871 C 363.38 1.72924 1.05949 0
M  V30 3872 C 363.713 0.503185 1.87568 0
M  V30 3873 O 362.988 -0.499839 1.87968 0
M  V30 3874 C 363.271 3.00676 1.98156 0
M  V30 3875 C 363.124 4.3354 1.19845 0
M  V30 3876 C 364.443 3.24198 2.9763 0
M  V30 3877 H 361.562 0.629195 0.383774 0
M  V30 3878 H 364.204 1.87008 0.335854 0
M  V30 3879 H 362.354 2.888 2.59859 0
M  V30 3880 H 364.026 4.57305 0.605773 0
M  V30 3881 H 362.269 4.309 0.500784 0
M  V30 3882 H 362.94 5.19156 1.87567 0
M  V30 3883 H 365.416 3.35557 2.4605 0
M  V30 3884 H 364.292 4.14938 3.59329 0
M  V30 3885 H 364.553 2.41577 3.7026 0
M  V30 3886 N 363.613 -0.582584 1.46437 0
M  V30 3887 C 364.862 -1.337 1.5102 0
M  V30 3888 C 365.175 -1.94891 0.166359 0
M  V30 3889 O 366.381 -2.71351 0.0899954 0
M  V30 3890 C 364.837 -2.42315 2.66104 0
M  V30 3891 C 364.445 -1.87427 4.06909 0
M  V30 3892 C 366.189 -3.19099 2.79958 0
M  V30 3893 C 364.096 -2.93672 5.13333 0
M  V30 3894 H 363.026 -0.502619 0.562041 0
M  V30 3895 H 365.677 -0.621701 1.72647 0
M  V30 3896 H 364.059 -3.16645 2.37807 0
M  V30 3897 H 365.233 -1.19639 4.44998 0
M  V30 3898 H 363.548 -1.2331 3.97723 0
M  V30 3899 H 366.145 -3.9839 3.56636 0
M  V30 3900 H 366.488 -3.71695 1.87479 0
M  V30 3901 H 367.021 -2.51875 3.07902 0
M  V30 3902 H 363.76 -2.45962 6.07604 0
M  V30 3903 H 363.28 -3.59948 4.79789 0
M  V30 3904 H 364.959 -3.5762 5.39182 0
M  V30 3905 N 365.091 -1.34144 -0.827227 0
M  V30 3906 C 366.339 -1.26009 -1.58007 0
M  V30 3907 C 366.66 0.170971 -1.94249 0
M  V30 3908 O 365.93 1.10256 -1.61927 0
M  V30 3909 H 364.51 -0.463414 -0.585881 0
M  V30 3910 H 367.172 -1.68005 -0.987951 0
M  V30 3911 H 366.268 -1.86187 -2.50481 0
M  V30 3912 N 366.569 1.04691 -1.17803 0
M  V30 3913 C 367.846 1.7472 -0.879328 0
M  V30 3914 C 368.226 2.01812 0.619271 0
M  V30 3915 O 367.574 1.65824 1.57209 0
M  V30 3916 C 367.784 3.03686 -1.71976 0
M  V30 3917 C 369.132 3.77542 -1.94286 0
M  V30 3918 O 370.156 3.13569 -1.68976 0
M  V30 3919 O 369.015 4.92506 -2.36855 0
M  V30 3920 H 366.109 0.760011 -0.326056 0
M  V30 3921 H 368.655 1.10813 -1.28525 0
M  V30 3922 H 367.427 2.79754 -2.73594 0
M  V30 3923 H 367.05 3.75332 -1.31194 0
M  V30 3924 N 368.047 0.979072 1.23499 0
M  V30 3925 C 369.287 0.655228 1.93613 0
M  V30 3926 C 369.651 -0.796336 1.74707 0
M  V30 3927 O 370.852 -1.23094 2.38959 0
M  V30 3928 C 369.123 1.03337 3.42135 0
M  V30 3929 S 370.682 0.825793 4.3096 0
M  V30 3930 H 367.5 0.240004 0.669267 0
M  V30 3931 H 370.102 1.25843 1.49612 0
M  V30 3932 H 368.806 2.08646 3.53405 0
M  V30 3933 H 368.337 0.421397 3.91137 0
M  V30 3934 H 370.352 -0.290991 4.95346 0
M  V30 3935 N 369.525 -1.3858 0.750561 0
M  V30 3936 C 370.941 -1.53759 0.427824 0
M  V30 3937 C 371.141 -1.71401 -1.05943 0
M  V30 3938 O 370.197 -1.72331 -1.84549 0
M  V30 3939 C 371.51 -2.74642 1.22443 0
M  V30 3940 C 373.058 -2.88489 1.2142 0
M  V30 3941 C 373.533 -4.12329 1.9937 0
M  V30 3942 N 375.024 -4.194 1.96616 0
M  V30 3943 C 375.759 -5.14209 2.53727 0
M  V30 3944 N 375.255 -6.14709 3.19539 0
M  V30 3945 N 377.048 -5.06537 2.43673 0
M  V30 3946 H 369.199 -1.25377 1.71447 0
M  V30 3947 H 371.462 -0.608844 0.726645 0
M  V30 3948 H 371.168 -2.68 2.27747 0
M  V30 3949 H 371.042 -3.67745 0.839273 0
M  V30 3950 H 373.429 -2.94614 0.169232 0
M  V30 3951 H 373.51 -1.96406 1.63885 0
M  V30 3952 H 373.154 -4.06966 3.03877 0
M  V30 3953 H 373.084 -5.03486 1.54302 0
M  V30 3954 H 375.575 -3.47421 1.48684 0
M  V30 3955 H 375.888 -6.8354 3.60545 0
M  V30 3956 H 374.233 -6.1505 3.23633 0
M  V30 3957 H 377.424 -4.26962 1.91889 0
M  V30 3958 H 377.597 -5.80245 2.88479 0
M  V30 3959 N 371.003 -0.499398 -1.49478 0
M  V30 3960 C 372.25 0.0456899 -2.02448 0
M  V30 3961 C 372.578 1.37142 -1.37921 0
M  V30 3962 O 371.833 1.89111 -0.503544 0
M  V30 3963 C 372.132 0.248424 -3.56536 0
M  V30 3964 C 371.798 -0.999107 -4.39692 0
M  V30 3965 C 370.46 -1.34108 -4.62135 0
M  V30 3966 C 372.812 -1.82842 -4.88076 0
M  V30 3967 C 370.14 -2.51191 -5.30208 0
M  V30 3968 C 372.492 -2.99076 -5.57437 0
M  V30 3969 C 371.156 -3.33655 -5.78127 0
M  V30 3970 H 370.426 0.0167191 -0.740811 0
M  V30 3971 H 373.073 -0.65923 -1.79795 0
M  V30 3972 H 371.378 1.03586 -3.77859 0
M  V30 3973 H 373.075 0.684605 -3.95113 0
M  V30 3974 H 369.665 -0.722729 -4.22463 0
M  V30 3975 H 373.849 -1.57737 -4.70566 0
M  V30 3976 H 369.105 -2.78221 -5.44429 0
M  V30 3977 H 373.279 -3.63664 -5.93904 0
M  V30 3978 H 370.906 -4.24483 -6.30649 0
M  V30 3979 N 372.481 1.55866 -0.233164 0
M  V30 3980 C 373.727 1.98897 0.395959 0
M  V30 3981 C 374.06 1.12091 1.58585 0
M  V30 3982 O 373.335 0.181182 1.93654 0
M  V30 3983 C 373.618 3.50658 0.819224 0
M  V30 3984 C 373.471 4.48233 -0.375109 0
M  V30 3985 C 374.79 4.07135 1.67121 0
M  V30 3986 H 371.909 0.723102 0.142451 0
M  V30 3987 H 374.551 1.87082 -0.331725 0
M  V30 3988 H 372.701 3.60857 1.43925 0
M  V30 3989 H 374.373 4.50031 -1.01341 0
M  V30 3990 H 372.616 4.21624 -1.02058 0
M  V30 3991 H 373.287 5.51988 -0.0358328 0
M  V30 3992 H 375.763 3.99952 1.14795 0
M  V30 3993 H 374.639 5.13615 1.93625 0
M  V30 3994 H 374.9 3.54736 2.63846 0
M  V30 3995 N 373.959 -0.0401083 1.57549 0
M  V30 3996 C 375.184 -0.748931 1.93406 0
M  V30 3997 C 375.609 -1.68686 0.832274 0
M  V30 3998 O 374.967 -1.80047 -0.212818 0
M  V30 3999 C 375.015 -1.4916 3.28304 0
M  V30 4000 O 374.119 -2.6042 3.19774 0
M  V30 4001 H 373.46 -0.202212 0.63246 0
M  V30 4002 H 375.99 0.00112086 2.046 0
M  V30 4003 H 376 -1.86395 3.62934 0
M  V30 4004 H 374.675 -0.80364 4.08062 0
M  V30 4005 H 373.252 -2.25808 2.96758 0
M  V30 4006 N 375.437 -1.54477 -0.31217 0
M  V30 4007 C 376.4 -1.83923 -1.36766 0
M  V30 4008 C 377.4 -0.711563 -1.44199 0
M  V30 4009 O 378.59 -0.979866 -1.44029 0
M  V30 4010 C 375.722 -2.0095 -2.75376 0
M  V30 4011 H 376.915 -2.78239 -1.11906 0
M  V30 4012 H 374.468 -1.46369 -0.548257 0
M  V30 4013 H 375.203 -1.08883 -3.05475 0
M  V30 4014 H 374.988 -2.83018 -2.71373 0
M  V30 4015 H 376.478 -2.2514 -3.51713 0
M  V30 4016 N 376.915 0.57481 -1.46744 0
M  V30 4017 C 378.143 1.35856 -1.56047 0
M  V30 4018 C 378.558 1.87691 -0.204365 0
M  V30 4019 O 377.915 1.64049 0.79963 0
M  V30 4020 C 377.966 2.54066 -2.57163 0
M  V30 4021 O 377.687 2.04377 -3.87507 0
M  V30 4022 C 379.188 3.46514 -2.76483 0
M  V30 4023 H 376.408 0.414754 -0.527466 0
M  V30 4024 H 378.952 0.698035 -1.92218 0
M  V30 4025 H 377.107 3.16092 -2.23974 0
M  V30 4026 H 377.521 2.81419 -4.4261 0
M  V30 4027 H 378.995 4.25919 -3.51137 0
M  V30 4028 H 379.472 3.98951 -1.83671 0
M  V30 4029 H 380.078 2.90318 -3.10799 0
M  V30 4030 N 378.394 1.34581 0.820102 0
M  V30 4031 C 379.641 1.27096 1.57648 0
M  V30 4032 C 379.969 -0.158317 1.93855 0
M  V30 4033 O 379.224 -1.12028 1.60463 0
M  V30 4034 C 379.523 2.10997 2.8847 0
M  V30 4035 C 379.189 3.59966 2.71543 0
M  V30 4036 C 377.851 4.00575 2.66634 0
M  V30 4037 C 380.203 4.54548 2.55021 0
M  V30 4038 C 377.531 5.33953 2.43128 0
M  V30 4039 C 379.883 5.88109 2.33047 0
M  V30 4040 C 378.547 6.27878 2.26552 0
M  V30 4041 H 377.817 0.465078 0.576874 0
M  V30 4042 H 380.464 1.6635 0.948671 0
M  V30 4043 H 378.769 1.6458 3.55557 0
M  V30 4044 H 380.466 2.0255 3.46084 0
M  V30 4045 H 377.056 3.27733 2.76205 0
M  V30 4046 H 381.24 4.24069 2.57835 0
M  V30 4047 H 376.496 5.63781 2.3656 0
M  V30 4048 H 380.67 6.60985 2.19251 0
M  V30 4049 H 378.297 7.31162 2.081 0
M  V30 4050 N 379.872 -1.04064 1.18357 0
M  V30 4051 C 381.288 -1.2947 0.933258 0
M  V30 4052 C 381.488 -1.97466 -0.401169 0
M  V30 4053 O 380.544 -2.25528 -1.13549 0
M  V30 4054 C 381.857 -2.15337 2.09882 0
M  V30 4055 C 383.405 -2.28683 2.13712 0
M  V30 4056 C 383.88 -3.17917 3.29686 0
M  V30 4057 N 385.371 -3.25504 3.29547 0
M  V30 4058 C 386.106 -3.94706 4.15926 0
M  V30 4059 N 385.602 -4.66239 5.12439 0
M  V30 4060 N 387.395 -3.90986 4.0384 0
M  V30 4061 H 379.546 -0.583359 2.04232 0
M  V30 4062 H 381.809 -0.319921 0.892387 0
M  V30 4063 H 381.515 -1.72682 3.06389 0
M  V30 4064 H 381.389 -3.16015 2.05947 0
M  V30 4065 H 383.776 -2.70575 1.17784 0
M  V30 4066 H 383.857 -1.27596 2.21705 0
M  V30 4067 H 383.501 -2.76736 4.25887 0
M  V30 4068 H 383.431 -4.19036 3.1893 0
M  V30 4069 H 385.922 -2.74547 2.59677 0
M  V30 4070 H 386.235 -5.16638 5.74722 0
M  V30 4071 H 384.58 -4.65143 5.16398 0
M  V30 4072 H 387.771 -3.34234 3.27727 0
M  V30 4073 H 387.944 -4.44646 4.71375 0
M  V30 4074 N 381.35 -0.985608 -1.22978 0
M  V30 4075 C 382.28 -0.549649 -2.26939 0
M  V30 4076 C 383.261 0.419803 -1.64838 0
M  V30 4077 O 384.446 0.31203 -1.91677 0
M  V30 4078 C 381.576 0.143652 -3.47003 0
M  V30 4079 C 380.53 -0.743606 -4.21491 0
M  V30 4080 C 379.856 0.0822027 -5.34637 0
M  V30 4081 C 381.156 -2.03694 -4.80943 0
M  V30 4082 H 382.85 -1.41862 -2.63658 0
M  V30 4083 H 380.396 -0.683571 -1.26741 0
M  V30 4084 H 382.349 0.459985 -4.18882 0
M  V30 4085 H 381.073 1.04711 -3.09359 0
M  V30 4086 H 379.732 -1.04347 -3.51436 0
M  V30 4087 H 379.38 0.986359 -4.93234 0
M  V30 4088 H 379.08 -0.508377 -5.85397 0
M  V30 4089 H 380.604 0.392797 -6.09335 0
M  V30 4090 H 382.018 -1.78504 -5.44802 0
M  V30 4091 H 380.415 -2.57573 -5.42011 0
M  V30 4092 H 381.485 -2.72042 -4.01399 0
M  V30 4093 N 382.828 1.3818 -0.7579 0
M  V30 4094 C 384.075 2.00019 -0.315985 0
M  V30 4095 C 384.403 1.60163 1.10355 0
M  V30 4096 O 383.658 0.83264 1.77103 0
M  V30 4097 C 383.957 3.55252 -0.391218 0
M  V30 4098 C 383.623 4.14834 -1.76702 0
M  V30 4099 C 382.285 4.30821 -2.14353 0
M  V30 4100 C 384.637 4.47658 -2.66931 0
M  V30 4101 C 381.965 4.76928 -3.41696 0
M  V30 4102 C 384.317 4.95184 -3.93669 0
M  V30 4103 C 382.981 5.09377 -4.31383 0
M  V30 4104 H 382.251 0.731923 -0.115627 0
M  V30 4105 H 384.898 1.65161 -0.969223 0
M  V30 4106 H 383.203 3.90273 0.34558 0
M  V30 4107 H 384.9 4.00988 -0.030805 0
M  V30 4108 H 381.49 4.02808 -1.46435 0
M  V30 4109 H 385.674 4.34904 -2.39106 0
M  V30 4110 H 380.93 4.86103 -3.70829 0
M  V30 4111 H 385.104 5.19551 -4.63724 0
M  V30 4112 H 382.731 5.44865 -5.30119 0
M  V30 4113 N 384.306 0.507319 1.49211 0
M  V30 4114 C 385.253 -0.267728 2.29242 0
M  V30 4115 C 386.223 -0.954609 1.35928 0
M  V30 4116 O 387.408 -0.960046 1.64887 0
M  V30 4117 C 384.548 -1.32243 3.18756 0
M  V30 4118 C 383.661 -0.64669 4.27132 0
M  V30 4119 C 382.796 -1.68238 5.03855 0
M  V30 4120 C 381.835 -0.98885 6.0406 0
M  V30 4121 N 380.972 -1.96903 6.73924 0
M  V30 4122 H 385.812 0.420968 2.95012 0
M  V30 4123 H 383.349 0.219443 1.45454 0
M  V30 4124 H 385.307 -1.94599 3.69036 0
M  V30 4125 H 383.937 -1.97981 2.54958 0
M  V30 4126 H 382.989 0.0902926 3.80293 0
M  V30 4127 H 384.301 -0.101058 4.98698 0
M  V30 4128 H 383.455 -2.38081 5.58034 0
M  V30 4129 H 382.194 -2.26187 4.32077 0
M  V30 4130 H 381.199 -0.276222 5.49106 0
M  V30 4131 H 382.424 -0.415767 6.77826 0
M  V30 4132 H 380.37 -2.53803 6.04913 0
M  V30 4133 H 380.287 -1.47423 7.41487 0
M  V30 4134 H 381.555 -2.66015 7.32705 0
M  V30 4135 N 385.784 -1.5574 0.241426 0
M  V30 4136 C 386.734 -2.17803 -0.674233 0
M  V30 4137 C 387.718 -1.13225 -1.14319 0
M  V30 4138 O 388.91 -1.39153 -1.09387 0
M  V30 4139 C 386.039 -2.87682 -1.87333 0
M  V30 4140 C 385.125 -3.99509 -1.42313 0
M  V30 4141 N 385.516 -5.01115 -0.686798 0
M  V30 4142 C 383.814 -4.11964 -1.70885 0
M  V30 4143 C 384.515 -5.79922 -0.454456 0
M  V30 4144 N 383.491 -5.34001 -1.01705 0
M  V30 4145 H 387.293 -2.93718 -0.103447 0
M  V30 4146 H 384.807 -1.62342 0.0435095 0
M  V30 4147 H 386.804 -3.3057 -2.54026 0
M  V30 4148 H 385.464 -2.13269 -2.4484 0
M  V30 4149 H 386.475 -5.16799 -0.337459 0
M  V30 4150 H 383.152 -3.48718 -2.2957 0
M  V30 4151 H 384.542 -6.71768 0.132992 0
M  V30 4152 N 387.262 0.0317525 -1.57568 0
M  V30 4153 C 388.487 0.738664 -1.938 0
M  V30 4154 C 388.912 1.68242 -0.841208 0
M  V30 4155 O 388.27 1.80157 0.203267 0
M  V30 4156 C 388.318 1.47417 -3.29091 0
M  V30 4157 O 387.422 2.5872 -3.2115 0
M  V30 4158 H 386.763 0.198856 -0.633524 0
M  V30 4159 H 389.293 -0.0119713 -2.04596 0
M  V30 4160 H 389.303 1.84468 -3.63917 0
M  V30 4161 H 387.978 0.781988 -4.08482 0
M  V30 4162 H 386.555 2.24231 -2.97951 0
M  V30 4163 N 388.74 1.54641 0.303973 0
M  V30 4164 C 389.687 1.85386 1.37479 0
M  V30 4165 C 390.657 0.702528 1.50512 0
M  V30 4166 O 391.842 0.950867 1.65418 0
M  V30 4167 C 388.982 2.10413 2.73533 0
M  V30 4168 C 388.095 3.38049 2.68974 0
M  V30 4169 C 387.23 3.52934 3.97002 0
M  V30 4170 C 386.269 4.74373 3.86829 0
M  V30 4171 N 385.406 4.8608 5.06627 0
M  V30 4172 H 390.246 2.76732 1.1056 0
M  V30 4173 H 387.783 1.37034 0.534805 0
M  V30 4174 H 389.741 2.22919 3.52652 0
M  V30 4175 H 388.371 1.22338 2.98719 0
M  V30 4176 H 387.423 3.3418 1.81736 0
M  V30 4177 H 388.735 4.27288 2.57346 0
M  V30 4178 H 387.889 3.65088 4.84557 0
M  V30 4179 H 386.628 2.61824 4.1146 0
M  V30 4180 H 385.633 4.62255 2.97658 0
M  V30 4181 H 386.858 5.66888 3.73918 0
M  V30 4182 H 384.804 3.97891 5.21554 0
M  V30 4183 H 384.721 5.69315 4.9741 0
M  V30 4184 H 385.989 5.02587 5.95841 0
M  V30 4185 N 390.218 -0.567019 1.47046 0
M  V30 4186 C 391.446 -1.35027 1.56765 0
M  V30 4187 C 391.861 -1.8758 0.214316 0
M  V30 4188 O 391.218 -1.64471 -0.790919 0
M  V30 4189 C 391.269 -2.52698 2.58507 0
M  V30 4190 O 390.99 -2.0232 3.88585 0
M  V30 4191 C 392.491 -3.45043 2.78316 0
M  V30 4192 H 389.711 -0.41195 0.529658 0
M  V30 4193 H 392.255 -0.687832 1.92585 0
M  V30 4194 H 390.41 -3.149 2.25648 0
M  V30 4195 H 390.824 -2.79068 4.44096 0
M  V30 4196 H 392.298 -4.2405 3.53391 0
M  V30 4197 H 392.775 -3.97971 1.85784 0
M  V30 4198 H 393.381 -2.88665 3.12334 0
M  V30 4199 N 391.696 -1.35014 -0.812953 0
M  V30 4200 C 392.944 -1.27678 -1.56661 0
M  V30 4201 C 393.265 0.150359 -1.94419 0
M  V30 4202 O 392.535 1.08532 -1.63088 0
M  V30 4203 H 391.115 -0.469602 -0.580933 0
M  V30 4204 H 393.777 -1.69043 -0.970076 0
M  V30 4205 H 392.873 -1.88833 -2.48492 0
M  V30 4206 N 393.175 1.03435 -1.18907 0
M  V30 4207 C 394.586 1.58195 -0.991523 0
M  V30 4208 C 394.937 1.90801 0.457081 0
M  V30 4209 O 394.062 1.70272 1.33553 0
M  V30 4210 C 394.657 2.87432 -1.79355 0
M  V30 4211 C 393.216 3.38785 -1.64017 0
M  V30 4212 C 392.363 2.12292 -1.78402 0
M  V30 4213 H 395.314 0.860299 -1.33359 0
M  V30 4214 H 395.335 3.58096 -1.28638 0
M  V30 4215 H 394.847 2.63669 -2.84781 0
M  V30 4216 H 392.948 3.67547 -0.611536 0
M  V30 4217 H 393.061 4.12186 -2.44212 0
M  V30 4218 H 391.425 2.23901 -1.2141 0
M  V30 4219 H 392.208 1.90977 -2.85277 0
M  V30 4220 N 394.653 0.992116 1.22453 0
M  V30 4221 C 395.881 0.685944 1.95198 0
M  V30 4222 C 396.296 -0.749233 1.73297 0
M  V30 4223 O 395.653 -1.50549 1.03156 0
M  V30 4224 C 395.704 0.981395 3.47924 0
M  V30 4225 O 395.425 2.36018 3.6909 0
M  V30 4226 C 396.926 0.692815 4.37853 0
M  V30 4227 H 394.146 0.253821 0.621141 0
M  V30 4228 H 396.69 1.32668 1.55626 0
M  V30 4229 H 394.845 0.386481 3.85467 0
M  V30 4230 H 395.259 2.45884 4.63294 0
M  V30 4231 H 396.733 0.949818 5.43767 0
M  V30 4232 H 397.21 -0.373181 4.37612 0
M  V30 4233 H 397.816 1.26874 4.05935 0
M  V30 4234 N 396.131 -1.37776 0.765217 0
M  V30 4235 C 397.078 -2.30342 0.145274 0
M  V30 4236 C 398.048 -1.5077 -0.696971 0
M  V30 4237 O 399.233 -1.79362 -0.650689 0
M  V30 4238 C 396.373 -3.37227 -0.732939 0
M  V30 4239 C 395.486 -4.31819 0.125199 0
M  V30 4240 C 394.621 -5.25777 -0.757107 0
M  V30 4241 C 393.66 -6.12012 0.103963 0
M  V30 4242 N 392.797 -6.98232 -0.735953 0
M  V30 4243 H 397.637 -2.8278 0.940195 0
M  V30 4244 H 395.174 -1.39211 0.475255 0
M  V30 4245 H 397.132 -3.97818 -1.25686 0
M  V30 4246 H 395.762 -2.86171 -1.49353 0
M  V30 4247 H 394.814 -3.7259 0.766865 0
M  V30 4248 H 396.126 -4.92509 0.789683 0
M  V30 4249 H 395.28 -5.91541 -1.34776 0
M  V30 4250 H 394.019 -4.65481 -1.45529 0
M  V30 4251 H 393.024 -5.45233 0.707197 0
M  V30 4252 H 394.249 -6.74379 0.799381 0
M  V30 4253 H 392.195 -6.40472 -1.41887 0
M  V30 4254 H 392.112 -7.55891 -0.128624 0
M  V30 4255 H 393.38 -7.68393 -1.31121 0
M  V30 4256 N 397.609 -0.515225 -1.4894 0
M  V30 4257 C 399.025 -0.172099 -1.58669 0
M  V30 4258 C 399.225 1.32405 -1.51892 0
M  V30 4259 O 398.281 2.10116 -1.40027 0
M  V30 4260 C 399.594 -0.761533 -2.90897 0
M  V30 4261 C 401.142 -0.728926 -3.04394 0
M  V30 4262 C 401.617 -1.29667 -4.39261 0
M  V30 4263 N 403.108 -1.25799 -4.4579 0
M  V30 4264 C 403.843 -1.66733 -5.48623 0
M  V30 4265 N 403.339 -2.15327 -6.58488 0
M  V30 4266 N 405.132 -1.58061 -5.39419 0
M  V30 4267 H 397.283 -1.48778 -1.51588 0
M  V30 4268 H 399.546 -0.617968 -0.718901 0
M  V30 4269 H 399.252 -1.81136 -3.01468 0
M  V30 4270 H 399.126 -0.230106 -3.76497 0
M  V30 4271 H 401.513 0.312098 -2.93445 0
M  V30 4272 H 401.594 -1.29766 -2.20442 0
M  V30 4273 H 401.238 -2.33655 -4.50963 0
M  V30 4274 H 401.168 -0.703752 -5.21876 0
M  V30 4275 H 403.659 -0.902102 -3.66975 0
M  V30 4276 H 403.972 -2.44594 -7.33071 0
M  V30 4277 H 402.317 -2.19311 -6.59491 0
M  V30 4278 H 405.508 -1.19906 -4.52482 0
M  V30 4279 H 405.681 -1.90284 -6.19432 0
M  V30 4280 N 399.087 1.5561 -0.249682 0
M  V30 4281 C 400.327 2.00916 0.37579 0
M  V30 4282 C 400.691 1.13409 1.54927 0
M  V30 4283 O 401.892 1.48183 2.24266 0
M  V30 4284 C 400.163 3.48949 0.772633 0
M  V30 4285 S 401.722 4.16261 1.38824 0
M  V30 4286 H 398.54 0.70112 0.118117 0
M  V30 4287 H 401.142 1.92052 -0.365567 0
M  V30 4288 H 399.846 4.103 -0.090683 0
M  V30 4289 H 399.377 3.61745 1.5461 0
M  V30 4290 H 401.392 4.17778 2.67724 0
M  V30 4291 N 400.565 -0.0233959 1.57583 0
M  V30 4292 C 401.497 -1.04994 2.03737 0
M  V30 4293 C 402.51 -1.32125 0.951152 0
M  V30 4294 O 403.699 -1.29512 1.22837 0
M  V30 4295 C 400.799 -2.39026 2.40249 0
M  V30 4296 C 399.972 -2.31171 3.7132 0
M  V30 4297 C 399.031 -3.47698 3.94959 0
M  V30 4298 O 398.057 -3.26937 4.65941 0
M  V30 4299 N 399.259 -4.6976 3.41037 0
M  V30 4300 H 402.024 -0.656507 2.92421 0
M  V30 4301 H 399.585 -0.211235 1.60516 0
M  V30 4302 H 401.577 -3.15712 2.53196 0
M  V30 4303 H 400.147 -2.70194 1.57207 0
M  V30 4304 H 399.367 -1.39547 3.68674 0
M  V30 4305 H 400.655 -2.23071 4.57293 0
M  V30 4306 H 400.053 -4.89528 2.83512 0
M  V30 4307 H 398.61 -5.43791 3.59353 0
M  V30 4308 N 402.043 -1.548 -0.295768 0
M  V30 4309 C 403.289 -1.74588 -1.03184 0
M  V30 4310 C 403.622 -0.532962 -1.86744 0
M  V30 4311 O 402.897 0.469872 -1.88739 0
M  V30 4312 C 403.18 -3.03791 -1.93347 0
M  V30 4313 C 403.033 -4.35392 -1.12933 0
M  V30 4314 C 404.352 -3.28892 -2.92435 0
M  V30 4315 H 401.471 -0.635221 -0.373715 0
M  V30 4316 H 404.113 -1.87519 -0.30606 0
M  V30 4317 H 402.263 -2.92898 -2.55232 0
M  V30 4318 H 403.935 -4.58211 -0.532943 0
M  V30 4319 H 402.178 -4.31642 -0.432168 0
M  V30 4320 H 402.849 -5.22074 -1.79284 0
M  V30 4321 H 405.325 -3.39429 -2.4068 0
M  V30 4322 H 404.201 -4.20603 -3.52682 0
M  V30 4323 H 404.462 -2.47437 -3.6637 0
M  V30 4324 N 403.521 0.559213 -1.47345 0
M  V30 4325 C 404.77 1.31281 -1.53128 0
M  V30 4326 C 405.083 1.94602 -0.197344 0
M  V30 4327 O 406.289 2.71173 -0.133154 0
M  V30 4328 C 404.745 2.38051 -2.69925 0
M  V30 4329 C 404.353 1.8093 -4.0984 0
M  V30 4330 C 406.097 3.14604 -2.84999 0
M  V30 4331 C 404.004 2.85468 -5.1794 0
M  V30 4332 H 402.934 0.493614 -0.569966 0
M  V30 4333 H 405.585 0.594155 -1.73615 0
M  V30 4334 H 403.967 3.12822 -2.42814 0
M  V30 4335 H 405.141 1.12544 -4.46845 0
M  V30 4336 H 403.456 1.16967 -3.99634 0
M  V30 4337 H 406.053 3.92666 -3.62929 0
M  V30 4338 H 406.396 3.68665 -1.93369 0
M  V30 4339 H 406.929 2.46945 -3.1187 0
M  V30 4340 H 403.668 2.36264 -6.1144 0
M  V30 4341 H 403.188 3.52269 -4.85455 0
M  V30 4342 H 404.867 3.48996 -5.44803 0
M  V30 4343 N 404.999 1.35443 0.805782 0
M  V30 4344 C 406.229 1.31687 1.59192 0
M  V30 4345 C 406.637 -0.10756 1.88894 0
M  V30 4346 O 405.98 -1.07017 1.49309 0
M  V30 4347 C 406.042 2.05686 2.94845 0
M  V30 4348 C 405.706 3.54868 2.87954 0
M  V30 4349 C 406.703 4.49444 2.61335 0
M  V30 4350 C 404.388 3.97528 3.07046 0
M  V30 4351 C 406.382 5.84655 2.53885 0
M  V30 4352 C 404.069 5.32833 2.99219 0
M  V30 4353 C 405.067 6.26209 2.72674 0
M  V30 4354 O 404.755 7.59032 2.64811 0
M  V30 4355 H 404.487 0.453878 0.50097 0
M  V30 4356 H 407.041 1.78892 1.0093 0
M  V30 4357 H 405.271 1.5312 3.55093 0
M  V30 4358 H 406.96 1.94998 3.55993 0
M  V30 4359 H 407.726 4.17804 2.46303 0
M  V30 4360 H 403.605 3.25233 3.26718 0
M  V30 4361 H 407.149 6.57508 2.33086 0
M  V30 4362 H 403.046 5.64087 3.13809 0
M  V30 4363 H 403.814 7.68967 2.80413 0
M  V30 4364 N 406.477 -1.02803 1.19454 0
M  V30 4365 C 407.425 -2.13213 0.929673 0
M  V30 4366 C 408.419 -1.69011 -0.114806 0
M  V30 4367 O 409.625 -1.79967 0.0345147 0
M  V30 4368 H 406 -0.69662 0.28324 0
M  V30 4369 H 407.971 -2.32744 1.86743 0
M  V30 4370 C 406.72 -3.4429 0.485797 0
M  V30 4371 H 406.043 -3.7872 1.28105 0
M  V30 4372 H 407.483 -4.22638 0.339582 0
M  V30 4373 C 405.942 -3.27258 -0.800244 0
M  V30 4374 O 406.472 -3.55967 -1.86146 0
M  V30 4375 N 404.678 -2.80545 -0.75781 0
M  V30 4376 H 404.225 -2.57382 0.106039 0
M  V30 4377 H 404.183 -2.6953 -1.61867 0
M  V30 4378 N 407.956 -0.998596 -1.21925 0
M  V30 4379 C 409.204 -0.676325 -1.90448 0
M  V30 4380 C 409.525 0.794719 -1.78071 0
M  V30 4381 O 408.795 1.5701 -1.17152 0
M  V30 4382 H 407.375 -0.247165 -0.704925 0
M  V30 4383 H 410.037 -1.26633 -1.48156 0
M  V30 4384 H 409.133 -0.943858 -2.97486 0
M  V30 4385 N 409.434 1.37368 -0.772513 0
M  V30 4386 C 410.682 1.99279 -0.336516 0
M  V30 4387 C 411.003 1.6163 1.09091 0
M  V30 4388 O 410.273 0.882109 1.74916 0
M  V30 4389 H 408.853 0.737063 -0.121435 0
M  V30 4390 H 411.515 1.67836 -0.990809 0
M  V30 4391 H 410.611 3.09332 -0.414763 0
M  V30 4392 N 410.912 0.523116 1.48665 0
M  V30 4393 C 412.161 -0.01544 2.01694 0
M  V30 4394 C 412.474 -1.35975 1.40606 0
M  V30 4395 O 413.68 -1.98627 1.85093 0
M  V30 4396 C 412.136 -0.0779303 3.59816 0
M  V30 4397 C 411.744 1.26107 4.29885 0
M  V30 4398 C 413.488 -0.565678 4.20714 0
M  V30 4399 C 411.395 1.15954 5.79921 0
M  V30 4400 H 410.325 -0.00954163 0.75394 0
M  V30 4401 H 412.976 0.665865 1.70993 0
M  V30 4402 H 411.358 -0.824165 3.87329 0
M  V30 4403 H 412.532 2.02233 4.14051 0
M  V30 4404 H 410.847 1.68401 3.80828 0
M  V30 4405 H 413.444 -0.6595 5.30617 0
M  V30 4406 H 413.787 -1.56984 3.85567 0
M  V30 4407 H 414.32 0.12467 3.97605 0
M  V30 4408 H 411.059 2.13864 6.19631 0
M  V30 4409 H 410.579 0.439529 5.98187 0
M  V30 4410 H 412.258 0.847361 6.41427 0
M  V30 4411 N 412.39 -1.55475 0.257931 0
M  V30 4412 C 413.618 -2.03609 -0.367559 0
M  V30 4413 C 414.033 -1.13687 -1.50734 0
M  V30 4414 O 413.39 -0.153479 -1.81853 0
M  V30 4415 C 413.441 -3.51001 -0.864908 0
M  V30 4416 O 413.162 -4.37499 0.229465 0
M  V30 4417 C 414.663 -4.14946 -1.55997 0
M  V30 4418 H 411.883 -0.665459 -0.0860521 0
M  V30 4419 H 414.427 -2.00843 0.385014 0
M  V30 4420 H 412.582 -3.54266 -1.56762 0
M  V30 4421 H 412.996 -5.24286 -0.14998 0
M  V30 4422 H 414.47 -5.19735 -1.85956 0
M  V30 4423 H 414.947 -3.6209 -2.4857 0
M  V30 4424 H 415.553 -4.15635 -0.901543 0
M  V30 4425 N 413.868 0.0150385 -1.57593 0
M  V30 4426 C 415.116 0.701613 -1.8953 0
M  V30 4427 C 415.437 1.75139 -0.857396 0
M  V30 4428 O 414.707 1.95607 0.107194 0
M  V30 4429 H 413.287 0.26213 -0.699498 0
M  V30 4430 H 415.949 -0.0223304 -1.94887 0
M  V30 4431 H 415.045 1.18236 -2.88837 0
M  V30 4432 N 415.346 1.54954 0.287554 0
M  V30 4433 C 416.296 1.8322 1.357 0
M  V30 4434 C 417.28 0.690152 1.45347 0
M  V30 4435 O 418.472 0.951137 1.49273 0
M  V30 4436 C 415.601 2.09481 2.71979 0
M  V30 4437 C 414.687 3.29906 2.66502 0
M  V30 4438 N 415.078 4.50154 2.30641 0
M  V30 4439 C 413.376 3.32203 2.97585 0
M  V30 4440 C 414.077 5.32209 2.34794 0
M  V30 4441 N 413.053 4.70258 2.72688 0
M  V30 4442 H 416.855 2.73746 1.0696 0
M  V30 4443 H 414.369 1.54635 0.496167 0
M  V30 4444 H 416.366 2.27882 3.49107 0
M  V30 4445 H 415.026 1.2023 3.0162 0
M  V30 4446 H 416.037 4.76515 2.02865 0
M  V30 4447 H 412.714 2.53101 3.32034 0
M  V30 4448 H 414.104 6.38321 2.09753 0
M  V30 4449 N 416.824 -0.551391 1.4764 0
M  V30 4450 C 417.734 -1.68525 1.63207 0
M  V30 4451 C 418.75 -1.6621 0.514815 0
M  V30 4452 O 419.926 -1.85551 0.783113 0
M  V30 4453 C 416.991 -3.05025 1.64805 0
M  V30 4454 C 416.052 -3.18362 2.88 0
M  V30 4455 C 415.285 -4.4835 2.89513 0
M  V30 4456 O 415.508 -5.34163 2.00065 0
M  V30 4457 O 414.442 -4.65602 3.81443 0
M  V30 4458 H 418.268 -1.58333 2.59161 0
M  V30 4459 H 415.853 -0.722063 1.30792 0
M  V30 4460 H 417.735 -3.86245 1.68502 0
M  V30 4461 H 416.41 -3.15587 0.720197 0
M  V30 4462 H 415.317 -2.36518 2.89845 0
M  V30 4463 H 416.65 -3.12707 3.80099 0
M  V30 4464 N 418.302 -1.35869 -0.798587 0
M  V30 4465 C 419.249 -1.29446 -1.91082 0
M  V30 4466 C 420.219 -0.16487 -1.6528 0
M  V30 4467 O 421.404 -0.349888 -1.87564 0
M  V30 4468 C 418.544 -1.0804 -3.27752 0
M  V30 4469 C 417.657 -2.29993 -3.65687 0
M  V30 4470 C 416.792 -2.01673 -4.91428 0
M  V30 4471 C 415.831 -3.19636 -5.22015 0
M  V30 4472 N 414.968 -2.91039 -6.38937 0
M  V30 4473 H 419.808 -2.24553 -1.95907 0
M  V30 4474 H 417.345 -1.11615 -0.958148 0
M  V30 4475 H 419.303 -0.936586 -4.06551 0
M  V30 4476 H 417.933 -0.16592 -3.22373 0
M  V30 4477 H 416.985 -2.55211 -2.82085 0
M  V30 4478 H 418.297 -3.18052 -3.84245 0
M  V30 4479 H 417.451 -1.84168 -5.78072 0
M  V30 4480 H 416.19 -1.10911 -4.74921 0
M  V30 4481 H 415.195 -3.37709 -4.33858 0
M  V30 4482 H 416.42 -4.11211 -5.40447 0
M  V30 4483 H 414.366 -2.0288 -6.2384 0
M  V30 4484 H 414.283 -3.72635 -6.57784 0
M  V30 4485 H 415.551 -2.77093 -7.28587 0
M  V30 4486 N 419.78 1.02168 -1.19998 0
M  V30 4487 C 420.69 2.14069 -0.959774 0
M  V30 4488 C 421.706 1.73804 0.082655 0
M  V30 4489 O 422.882 2.01133 -0.103633 0
M  V30 4490 C 419.947 3.42936 -0.509459 0
M  V30 4491 C 419.008 3.97474 -1.62213 0
M  V30 4492 C 418.241 5.2019 -1.19321 0
M  V30 4493 O 418.464 5.70369 -0.0597726 0
M  V30 4494 O 417.398 5.67749 -1.99863 0
M  V30 4495 H 421.224 2.37199 -1.89658 0
M  V30 4496 H 418.809 1.12469 -0.983411 0
M  V30 4497 H 420.691 4.20551 -0.267322 0
M  V30 4498 H 419.366 3.21234 0.398821 0
M  V30 4499 H 418.273 3.21161 -1.9185 0
M  V30 4500 H 419.606 4.23555 -2.50723 0
M  V30 4501 N 421.258 1.00505 1.21394 0
M  V30 4502 C 422.188 0.585684 2.26035 0
M  V30 4503 C 423.169 -0.393525 1.65485 0
M  V30 4504 O 424.354 -0.281497 1.92149 0
M  V30 4505 C 421.484 -0.0884283 3.47187 0
M  V30 4506 C 420.438 0.810567 4.20254 0
M  V30 4507 C 419.764 0.00286382 5.347 0
M  V30 4508 C 421.064 2.1132 4.77641 0
M  V30 4509 H 422.758 1.46039 2.61368 0
M  V30 4510 H 420.304 0.703648 1.25638 0
M  V30 4511 H 422.257 -0.393286 4.19561 0
M  V30 4512 H 420.981 -0.997766 3.10986 0
M  V30 4513 H 419.64 1.09925 3.49731 0
M  V30 4514 H 419.288 -0.907765 4.94741 0
M  V30 4515 H 418.988 0.601444 5.84514 0
M  V30 4516 H 420.512 -0.295808 6.09883 0
M  V30 4517 H 421.926 1.87148 5.41893 0
M  V30 4518 H 420.323 2.66164 5.37845 0
M  V30 4519 H 421.393 2.78393 3.9702 0
M  V30 4520 N 422.737 -1.36956 0.779787 0
M  V30 4521 C 423.67 -2.27896 0.117681 0
M  V30 4522 C 424.648 -1.46736 -0.700523 0
M  V30 4523 O 425.832 -1.76055 -0.673568 0
M  V30 4524 C 422.959 -3.28136 -0.839296 0
M  V30 4525 C 422.005 -4.26373 -0.10409 0
M  V30 4526 S 422.838 -5.2157 1.21348 0
M  V30 4527 C 423.994 -6.25359 0.260249 0
M  V30 4528 H 424.227 -2.83704 0.888778 0
M  V30 4529 H 421.76 -1.43352 0.57355 0
M  V30 4530 H 423.718 -3.86394 -1.38601 0
M  V30 4531 H 422.379 -2.7126 -1.58356 0
M  V30 4532 H 421.572 -4.97121 -0.82986 0
M  V30 4533 H 421.174 -3.72147 0.371858 0
M  V30 4534 H 423.466 -6.75145 -0.564435 0
M  V30 4535 H 424.409 -7.01885 0.936135 0
M  V30 4536 H 424.817 -5.64345 -0.132127 0
M  V30 4537 N 424.215 -0.530993 -1.48385 0
M  V30 4538 C 425.462 0.0027373 -2.025 0
M  V30 4539 C 425.79 1.34186 -1.40799 0
M  V30 4540 O 425.045 1.88 -0.543544 0
M  V30 4541 C 425.344 0.172742 -3.56982 0
M  V30 4542 C 425.01 -1.09215 -4.37473 0
M  V30 4543 C 423.672 -1.43881 -4.59186 0
M  V30 4544 C 426.024 -1.93153 -4.84088 0
M  V30 4545 C 423.352 -2.62381 -5.2476 0
M  V30 4546 C 425.704 -3.10833 -5.50968 0
M  V30 4547 C 424.368 -3.45843 -5.70919 0
M  V30 4548 H 423.638 0.00100165 -0.740999 0
M  V30 4549 H 426.285 -0.697219 -1.78357 0
M  V30 4550 H 424.59 0.955473 -3.79971 0
M  V30 4551 H 426.287 0.600642 -3.96476 0
M  V30 4552 H 422.877 -0.812177 -4.20834 0
M  V30 4553 H 427.061 -1.67683 -4.67115 0
M  V30 4554 H 422.317 -2.89707 -5.38405 0
M  V30 4555 H 426.491 -3.7618 -5.86056 0
M  V30 4556 H 424.118 -4.37764 -6.21503 0
M  V30 4557 N 425.693 1.55336 -0.266172 0
M  V30 4558 C 426.97 1.91372 0.404486 0
M  V30 4559 C 427.35 1.18935 1.74407 0
M  V30 4560 O 426.698 0.3132 2.26343 0
M  V30 4561 C 426.908 3.44581 0.553593 0
M  V30 4562 C 428.256 4.16196 0.840618 0
M  V30 4563 O 429.28 3.50426 0.638739 0
M  V30 4564 O 428.139 5.32567 1.22618 0
M  V30 4565 H 425.233 0.797194 0.220025 0
M  V30 4566 H 427.779 1.66813 -0.311664 0
M  V30 4567 H 426.551 3.89357 -0.389498 0
M  V30 4568 H 426.174 3.75065 1.31955 0
M  V30 4569 N 427.171 -0.0066808 1.57599 0
M  V30 4570 C 428.134 -0.985035 2.06953 0
M  V30 4571 C 429.134 -1.27663 0.977687 0
M  V30 4572 O 430.324 -1.22293 1.24057 0
M  V30 4573 C 427.456 -2.3118 2.50536 0
M  V30 4574 H 428.649 -0.558255 2.94658 0
M  V30 4575 H 426.202 -0.254011 1.54222 0
M  V30 4576 H 426.937 -2.78561 1.66054 0
M  V30 4577 H 426.722 -2.11338 3.3027 0
M  V30 4578 H 428.212 -3.01377 2.8907 0
M  V30 4579 N 428.649 -1.55105 -0.279332 0
M  V30 4580 C 429.597 -1.88333 -1.36505 0
M  V30 4581 C 430.591 -0.759043 -1.51443 0
M  V30 4582 O 431.797 -0.943312 -1.53302 0
M  V30 4583 H 428.172 -0.59766 -0.456406 0
M  V30 4584 H 430.143 -2.79041 -1.05728 0
M  V30 4585 C 428.892 -2.16628 -2.7197 0
M  V30 4586 H 428.215 -3.02624 -2.61264 0
M  V30 4587 H 429.655 -2.43803 -3.46895 0
M  V30 4588 C 428.114 -0.971807 -3.22579 0
M  V30 4589 O 428.644 -0.203228 -4.01186 0
M  V30 4590 N 426.85 -0.771238 -2.80179 0
M  V30 4591 H 426.397 -1.39792 -2.1637 0
M  V30 4592 H 426.355 0.0263667 -3.14389 0
M  V30 4593 N 430.127 0.543554 -1.4793 0
M  V30 4594 C 431.374 1.30008 -1.55255 0
M  V30 4595 C 431.702 1.93245 -0.220612 0
M  V30 4596 O 430.957 1.79141 0.787843 0
M  V30 4597 C 431.256 2.42078 -2.62932 0
M  V30 4598 C 430.922 1.96583 -4.0579 0
M  V30 4599 C 429.584 1.83893 -4.44676 0
M  V30 4600 C 431.936 1.62034 -4.95373 0
M  V30 4601 C 429.264 1.34969 -5.70964 0
M  V30 4602 C 431.616 1.14577 -6.22137 0
M  V30 4603 C 430.28 1.00493 -6.59892 0
M  V30 4604 H 429.55 0.475735 -0.568117 0
M  V30 4605 H 432.197 0.608075 -1.81589 0
M  V30 4606 H 430.502 3.16892 -2.30406 0
M  V30 4607 H 432.199 3.00236 -2.65818 0
M  V30 4608 H 428.789 2.07407 -3.75074 0
M  V30 4609 H 432.973 1.70705 -4.66019 0
M  V30 4610 H 428.229 1.2274 -5.98953 0
M  V30 4611 H 432.403 0.869109 -6.90955 0
M  V30 4612 H 430.03 0.623624 -7.57638 0
M  V30 4613 N 431.605 1.3629 0.791371 0
M  V30 4614 C 432.833 1.33562 1.58016 0
M  V30 4615 C 433.248 -0.0835616 1.88615 0
M  V30 4616 O 432.605 -1.0399 1.49974 0
M  V30 4617 C 432.656 2.15517 2.90232 0
M  V30 4618 O 432.377 3.51902 2.60953 0
M  V30 4619 C 433.878 2.20546 3.84544 0
M  V30 4620 H 431.098 0.458226 0.490173 0
M  V30 4621 H 433.642 1.79361 0.982345 0
M  V30 4622 H 431.797 1.73278 3.46487 0
M  V30 4623 H 432.211 3.94644 3.4548 0
M  V30 4624 H 433.685 2.82252 4.74382 0
M  V30 4625 H 434.162 1.20838 4.2225 0
M  V30 4626 H 434.768 2.63013 3.34222 0
M  V30 4627 N 433.083 -1.0153 1.20538 0
M  V30 4628 C 434.33 -1.75149 1.01633 0
M  V30 4629 C 434.658 -1.89189 -0.451399 0
M  V30 4630 O 433.913 -1.41551 -1.35136 0
M  V30 4631 C 434.212 -3.17213 1.64654 0
M  V30 4632 C 433.878 -3.23146 3.14464 0
M  V30 4633 C 432.54 -3.24472 3.55347 0
M  V30 4634 C 434.892 -3.21207 4.10458 0
M  V30 4635 C 432.22 -3.21532 4.90748 0
M  V30 4636 C 434.572 -3.19808 5.45807 0
M  V30 4637 C 433.236 -3.19439 5.86102 0
M  V30 4638 H 432.506 -0.640914 0.3719 0
M  V30 4639 H 435.153 -1.19071 1.49981 0
M  V30 4640 H 433.458 -3.76457 1.08571 0
M  V30 4641 H 435.155 -3.72871 1.4754 0
M  V30 4642 H 431.745 -3.2285 2.81897 0
M  V30 4643 H 435.929 -3.19351 3.79906 0
M  V30 4644 H 431.185 -3.19578 5.21229 0
M  V30 4645 H 435.359 -3.1726 6.19935 0
M  V30 4646 H 432.986 -3.16915 6.90991 0
M  V30 4647 N 434.561 -1.01147 -1.20859 0
M  V30 4648 C 435.508 -0.577354 -2.23462 0
M  V30 4649 C 436.478 0.399922 -1.61214 0
M  V30 4650 O 437.663 0.300515 -1.88419 0
M  V30 4651 C 434.803 0.083372 -3.44999 0
M  V30 4652 C 433.916 -0.937856 -4.21697 0
M  V30 4653 C 433.051 -0.248717 -5.30617 0
M  V30 4654 C 432.09 -1.25705 -5.99053 0
M  V30 4655 N 431.227 -0.594939 -6.99575 0
M  V30 4656 H 436.067 -1.45695 -2.59956 0
M  V30 4657 H 433.604 -0.729428 -1.27741 0
M  V30 4658 H 435.562 0.483535 -4.14388 0
M  V30 4659 H 434.192 0.926645 -3.09214 0
M  V30 4660 H 433.244 -1.45622 -3.51423 0
M  V30 4661 H 434.556 -1.70493 -4.68757 0
M  V30 4662 H 433.71 0.207215 -6.06346 0
M  V30 4663 H 432.449 0.55071 -4.84581 0
M  V30 4664 H 431.454 -1.72343 -5.2209 0
M  V30 4665 H 432.679 -2.05767 -6.47176 0
M  V30 4666 H 430.625 0.184713 -6.5574 0
M  V30 4667 H 430.542 -1.30017 -7.44736 0
M  V30 4668 H 431.81 -0.162427 -7.79331 0
M  V30 4669 N 436.039 1.36541 -0.78704 0
M  V30 4670 C 436.949 2.3387 -0.184896 0
M  V30 4671 C 437.965 1.60927 0.661697 0
M  V30 4672 O 439.141 1.92927 0.57804 0
M  V30 4673 C 436.206 3.40122 0.672145 0
M  V30 4674 C 435.267 4.28867 -0.19267 0
M  V30 4675 C 434.5 5.30045 0.623561 0
M  V30 4676 O 434.723 5.39232 1.8597 0
M  V30 4677 O 433.657 6.01895 0.0247068 0
M  V30 4678 H 437.483 2.87126 -0.989562 0
M  V30 4679 H 435.068 1.38969 -0.548455 0
M  V30 4680 H 436.95 4.05093 1.16094 0
M  V30 4681 H 435.625 2.89169 1.45474 0
M  V30 4682 H 434.532 3.66945 -0.728166 0
M  V30 4683 H 435.865 4.83165 -0.938722 0
M  V30 4684 N 437.518 0.538854 1.48102 0
M  V30 4685 C 438.766 0.00798599 2.02098 0
M  V30 4686 C 439.087 -1.33922 1.41739 0
M  V30 4687 O 438.357 -1.86932 0.585934 0
M  V30 4688 H 436.937 -3.62179e-05 0.747 0
M  V30 4689 H 439.599 0.7047 1.81714 0
M  V30 4690 H 438.695 -0.0937672 3.11959 0
M  V30 4691 N 438.996 -1.55193 0.274407 0
M  V30 4692 C 439.906 -2.26164 -0.623473 0
M  V30 4693 C 440.922 -1.28729 -1.17068 0
M  V30 4694 O 442.098 -1.61663 -1.20112 0
M  V30 4695 C 439.163 -2.96833 -1.7914 0
M  V30 4696 C 438.224 -4.09745 -1.28093 0
M  V30 4697 C 437.457 -4.77034 -2.3932 0
M  V30 4698 O 437.68 -4.4353 -3.5866 0
M  V30 4699 O 436.614 -5.64996 -2.07516 0
M  V30 4700 H 440.44 -3.03661 -0.0485661 0
M  V30 4701 H 438.025 -1.49341 0.0418382 0
M  V30 4702 H 439.907 -3.41248 -2.4724 0
M  V30 4703 H 438.582 -2.22253 -2.35341 0
M  V30 4704 H 437.489 -3.69787 -0.566416 0
M  V30 4705 H 438.822 -4.86224 -0.764683 0
M  V30 4706 N 440.474 -0.00167713 -1.576 0
M  V30 4707 C 441.723 0.682021 -1.89819 0
M  V30 4708 C 442.036 1.74844 -0.876871 0
M  V30 4709 O 443.242 2.48688 -1.08934 0
M  V30 4710 C 441.698 1.26425 -3.36964 0
M  V30 4711 C 441.306 0.232568 -4.47396 0
M  V30 4712 C 443.05 1.92604 -3.78291 0
M  V30 4713 C 440.957 0.824882 -5.85619 0
M  V30 4714 H 439.887 0.258499 -0.708304 0
M  V30 4715 H 442.538 -0.0624957 -1.83394 0
M  V30 4716 H 440.92 2.05949 -3.38232 0
M  V30 4717 H 442.094 -0.5382 -4.57646 0
M  V30 4718 H 440.409 -0.32888 -4.15099 0
M  V30 4719 H 443.006 2.37827 -4.78897 0
M  V30 4720 H 443.349 2.75732 -3.11894 0
M  V30 4721 H 443.882 1.19812 -3.79328 0
M  V30 4722 H 440.621 0.0323542 -6.55492 0
M  V30 4723 H 440.141 1.56477 -5.79029 0
M  V30 4724 H 441.82 1.32301 -6.33329 0
M  V30 4725 N 441.952 1.55251 0.271103 0
M  V30 4726 C 443.198 1.76207 1.00394 0
M  V30 4727 C 443.531 0.562604 1.85872 0
M  V30 4728 O 442.806 -0.439785 1.89463 0
M  V30 4729 C 443.089 3.06828 1.8849 0
M  V30 4730 C 442.942 4.37134 1.05992 0
M  V30 4731 C 444.261 3.33503 2.87165 0
M  V30 4732 H 441.38 0.641086 0.363562 0
M  V30 4733 H 444.022 1.87982 0.276189 0
M  V30 4734 H 442.172 2.96921 2.5054 0
M  V30 4735 H 443.844 4.59001 0.459978 0
M  V30 4736 H 442.087 4.32275 0.363443 0
M  V30 4737 H 442.758 5.2486 1.70955 0
M  V30 4738 H 445.234 3.43215 2.3525 0
M  V30 4739 H 444.11 4.2616 3.45946 0
M  V30 4740 H 444.371 2.53235 3.62387 0
M  V30 4741 N 443.43 -0.535701 1.48216 0
M  V30 4742 C 444.34 -1.66785 1.64985 0
M  V30 4743 C 445.356 -1.65654 0.532414 0
M  V30 4744 O 446.532 -1.8471 0.80275 0
M  V30 4745 C 443.597 -3.0326 1.68031 0
M  V30 4746 C 442.658 -3.1529 2.9136 0
M  V30 4747 C 441.891 -4.45255 2.94252 0
M  V30 4748 O 442.114 -5.32011 2.05719 0
M  V30 4749 O 441.048 -4.6153 3.86359 0
M  V30 4750 H 444.874 -1.55576 2.60825 0
M  V30 4751 H 442.459 -0.70815 1.31551 0
M  V30 4752 H 444.341 -3.84436 1.72589 0
M  V30 4753 H 443.016 -3.14805 0.753628 0
M  V30 4754 H 441.923 -2.3343 2.92337 0
M  V30 4755 H 443.256 -3.08658 3.83394 0
M  V30 4756 N 444.908 -1.36708 -0.784132 0
M  V30 4757 C 446.154 -1.31426 -1.54451 0
M  V30 4758 C 446.487 0.10476 -1.93917 0
M  V30 4759 O 445.762 1.05934 -1.6312 0
M  V30 4760 C 446.045 -2.24189 -2.818 0
M  V30 4761 C 445.898 -3.74813 -2.48667 0
M  V30 4762 C 447.217 -2.15626 -3.83658 0
M  V30 4763 H 444.336 -0.478739 -0.560337 0
M  V30 4764 H 446.978 -1.67305 -0.900498 0
M  V30 4765 H 445.128 -1.93722 -3.36755 0
M  V30 4766 H 446.8 -4.15823 -1.99722 0
M  V30 4767 H 445.043 -3.93989 -1.81535 0
M  V30 4768 H 445.714 -4.35138 -3.39646 0
M  V30 4769 H 448.19 -2.42456 -3.38163 0
M  V30 4770 H 447.066 -2.82694 -4.70506 0
M  V30 4771 H 447.327 -1.14522 -4.27009 0
M  V30 4772 N 446.386 1.0089 -1.21074 0
M  V30 4773 C 447.663 1.71834 -0.934469 0
M  V30 4774 C 448.043 2.0368 0.554753 0
M  V30 4775 O 447.391 1.70742 1.51854 0
M  V30 4776 C 447.601 2.98061 -1.8155 0
M  V30 4777 C 448.949 3.7117 -2.06199 0
M  V30 4778 O 449.973 3.08034 -1.78867 0
M  V30 4779 O 448.832 4.84721 -2.52404 0
M  V30 4780 H 445.926 0.749253 -0.35007 0
M  V30 4781 H 448.472 1.06668 -1.31985 0
M  V30 4782 H 447.244 2.70908 -2.82355 0
M  V30 4783 H 446.867 3.70968 -1.43068 0
M  V30 4784 N 447.864 1.01787 1.20321 0
M  V30 4785 C 448.774 0.598898 2.26827 0
M  V30 4786 C 449.79 -0.36418 1.70146 0
M  V30 4787 O 450.966 -0.224812 2.00141 0
M  V30 4788 C 448.031 -0.0549769 3.46656 0
M  V30 4789 C 447.092 0.954205 4.18561 0
M  V30 4790 C 446.325 0.331439 5.3267 0
M  V30 4791 O 446.548 -0.86851 5.63749 0
M  V30 4792 O 445.482 1.0488 5.92692 0
M  V30 4793 H 449.308 1.48562 2.64883 0
M  V30 4794 H 446.893 0.787434 1.26964 0
M  V30 4795 H 448.775 -0.420102 4.19301 0
M  V30 4796 H 447.45 -0.915876 3.10473 0
M  V30 4797 H 446.357 1.37072 3.48083 0
M  V30 4798 H 447.69 1.78511 4.58688 0
M  V30 4799 N 449.342 -1.36122 0.79427 0
M  V30 4800 C 450.252 -2.33769 0.197296 0
M  V30 4801 C 451.268 -1.61276 -0.653153 0
M  V30 4802 O 452.444 -1.9323 -0.5678 0
M  V30 4803 C 449.509 -3.40474 -0.654098 0
M  V30 4804 C 448.57 -4.28759 0.215411 0
M  V30 4805 C 447.803 -5.30368 -0.595443 0
M  V30 4806 O 448.026 -5.40211 -1.83107 0
M  V30 4807 O 446.96 -6.019 0.00721351 0
M  V30 4808 H 450.786 -2.86597 1.00478 0
M  V30 4809 H 448.371 -1.38676 0.555818 0
M  V30 4810 H 450.253 -4.05703 -1.13944 0
M  V30 4811 H 448.928 -2.89937 -1.43938 0
M  V30 4812 H 447.835 -3.66554 0.747615 0
M  V30 4813 H 449.168 -4.82661 0.964332 0
M  V30 4814 N 450.82 -0.546701 -1.47814 0
M  V30 4815 C 452.048 -0.0232857 -2.06887 0
M  V30 4816 C 452.463 1.26571 -1.4009 0
M  V30 4817 O 451.82 1.7569 -0.493906 0
M  V30 4818 C 451.871 0.186975 -3.61016 0
M  V30 4819 O 451.592 -1.05097 -4.25307 0
M  V30 4820 C 453.093 0.748872 -4.36929 0
M  V30 4821 H 450.313 -0.0410763 -0.669742 0
M  V30 4822 H 452.857 -0.757117 -1.89968 0
M  V30 4823 H 451.012 0.870903 -3.77484 0
M  V30 4824 H 451.426 -0.842121 -5.17695 0
M  V30 4825 H 452.9 0.845334 -5.45489 0
M  V30 4826 H 453.377 1.75772 -4.02493 0
M  V30 4827 H 453.983 0.100979 -4.2518 0
M  V30 4828 N 452.299 1.55045 -0.282633 0
M  V30 4829 C 453.262 2.21515 0.588539 0
M  V30 4830 C 454.262 1.19535 1.07554 0
M  V30 4831 O 455.452 1.44391 0.974514 0
M  V30 4832 C 452.584 2.88704 1.8128 0
M  V30 4833 H 453.777 2.99899 0.00806397 0
M  V30 4834 H 451.33 1.56265 -0.0333067 0
M  V30 4835 H 452.065 2.14352 2.43359 0
M  V30 4836 H 451.85 3.63443 1.47144 0
M  V30 4837 H 453.34 3.39465 2.43214 0
M  V30 4838 N 453.777 0.010035 1.57597 0
M  V30 4839 C 454.74 -0.963029 2.07986 0
M  V30 4840 C 455.74 -1.26619 0.991173 0
M  V30 4841 O 456.93 -1.2097 1.25347 0
M  V30 4842 C 454.062 -2.2851 2.52974 0
M  V30 4843 H 455.255 -0.526971 2.95234 0
M  V30 4844 H 452.808 -0.237639 1.54483 0
M  V30 4845 H 453.543 -2.76784 1.69 0
M  V30 4846 H 453.328 -2.07824 3.32493 0
M  V30 4847 H 454.818 -2.98294 2.9225 0
M  V30 4848 N 455.255 -1.55392 -0.262866 0
M  V30 4849 C 456.504 -1.75679 -0.990943 0
M  V30 4850 C 456.817 -0.57097 -1.87081 0
M  V30 4851 O 458.023 -0.656486 -2.63444 0
M  V30 4852 C 456.479 -3.10964 -1.81188 0
M  V30 4853 C 456.087 -4.37146 -0.980188 0
M  V30 4854 C 457.831 -3.40597 -2.53365 0
M  V30 4855 C 455.738 -5.63466 -1.7961 0
M  V30 4856 H 454.668 -0.654868 -0.373716 0
M  V30 4857 H 457.319 -1.81841 -0.246203 0
M  V30 4858 H 455.701 -2.98867 -2.59797 0
M  V30 4859 H 456.875 -4.60187 -0.237558 0
M  V30 4860 H 455.19 -4.14731 -0.372497 0
M  V30 4861 H 457.787 -4.32186 -3.14833 0
M  V30 4862 H 458.13 -2.6119 -3.24169 0
M  V30 4863 H 458.663 -3.53838 -1.81779 0
M  V30 4864 H 455.402 -6.4565 -1.13209 0
M  V30 4865 H 454.922 -5.44552 -2.51443 0
M  V30 4866 H 456.601 -6.02139 -2.36723 0
M  V30 4867 N 456.733 0.527833 -1.48498 0
M  V30 4868 C 457.663 1.64136 -1.66077 0
M  V30 4869 C 458.644 1.62286 -0.509625 0
M  V30 4870 O 459.829 1.79449 -0.742413 0
M  V30 4871 C 456.959 3.02717 -1.70234 0
M  V30 4872 C 455.913 3.19426 -2.8487 0
M  V30 4873 C 455.239 4.5909 -2.74118 0
M  V30 4874 C 456.539 3.01993 -4.26142 0
M  V30 4875 H 458.233 1.4968 -2.593 0
M  V30 4876 H 455.779 0.718654 -1.24785 0
M  V30 4877 H 457.732 3.80491 -1.8112 0
M  V30 4878 H 456.456 3.18201 -0.735911 0
M  V30 4879 H 455.115 2.4407 -2.73542 0
M  V30 4880 H 454.763 4.71413 -1.7544 0
M  V30 4881 H 454.463 4.71214 -3.51042 0
M  V30 4882 H 455.987 5.3896 -2.86974 0
M  V30 4883 H 457.401 3.69558 -4.38292 0
M  V30 4884 H 455.798 3.2561 -5.04082 0
M  V30 4885 H 456.868 1.98396 -4.42456 0
M  V30 4886 N 458.211 1.37122 0.776871 0
M  V30 4887 C 459.158 1.3247 1.88998 0
M  V30 4888 C 460.128 0.191143 1.64997 0
M  V30 4889 O 461.313 0.379683 1.86984 0
M  V30 4890 C 458.453 1.13241 3.25992 0
M  V30 4891 C 457.566 2.35782 3.61982 0
M  V30 4892 C 456.701 2.09465 4.88158 0
M  V30 4893 C 455.74 3.279 5.16864 0
M  V30 4894 N 454.877 3.01167 6.34226 0
M  V30 4895 H 459.717 2.27642 1.9231 0
M  V30 4896 H 457.254 1.13125 0.94027 0
M  V30 4897 H 459.212 1.00115 4.0501 0
M  V30 4898 H 457.842 0.217186 3.22069 0
M  V30 4899 H 456.894 2.59666 2.77989 0
M  V30 4900 H 458.206 3.24125 3.79137 0
M  V30 4901 H 457.36 1.93341 5.75069 0
M  V30 4902 H 456.099 1.18452 4.73097 0
M  V30 4903 H 455.104 3.44569 4.2843 0
M  V30 4904 H 456.329 4.19757 5.33836 0
M  V30 4905 H 454.275 2.12779 6.20533 0
M  V30 4906 H 454.192 3.83052 6.51772 0
M  V30 4907 H 455.46 2.88649 7.24087 0
M  V30 4908 N 459.689 -1.00246 1.21608 0
M  V30 4909 C 460.637 -2.11193 0.97469 0
M  V30 4910 C 461.631 -1.69216 -0.0789303 0
M  V30 4911 O 462.837 -1.79853 0.0726806 0
M  V30 4912 H 459.212 -0.690455 0.297953 0
M  V30 4913 H 461.183 -2.2873 1.91638 0
M  V30 4914 C 459.932 -3.43182 0.558717 0
M  V30 4915 H 459.255 -3.75918 1.3611 0
M  V30 4916 H 460.695 -4.21823 0.429154 0
M  V30 4917 C 459.154 -3.28882 -0.730648 0
M  V30 4918 O 459.684 -3.59835 -1.78554 0
M  V30 4919 N 457.89 -2.8209 -0.698131 0
M  V30 4920 H 457.437 -2.57099 0.16061 0
M  V30 4921 H 457.395 -2.72903 -1.56113 0
M  V30 4922 N 461.167 -1.02423 -1.1978 0
M  V30 4923 C 462.392 -0.7373 -1.93852 0
M  V30 4924 C 462.817 0.696923 -1.74713 0
M  V30 4925 O 462.175 1.48056 -1.04638 0
M  V30 4926 C 462.223 -1.08783 -3.438 0
M  V30 4927 O 461.327 -0.20383 -4.11896 0
M  V30 4928 H 460.668 -0.27284 -0.605355 0
M  V30 4929 H 463.198 -1.36966 -1.51992 0
M  V30 4930 H 463.208 -1.04276 -3.9445 0
M  V30 4931 H 461.883 -2.13274 -3.57053 0
M  V30 4932 H 460.46 -0.307091 -3.71633 0
M  V30 4933 N 462.645 1.35699 -0.801477 0
M  V30 4934 C 464.061 1.52065 -0.484596 0
M  V30 4935 C 464.261 1.75215 0.995084 0
M  V30 4936 O 463.317 1.79061 1.78026 0
M  V30 4937 C 464.63 2.69908 -1.32552 0
M  V30 4938 C 466.178 2.83784 -1.32044 0
M  V30 4939 C 466.653 4.04646 -2.14536 0
M  V30 4940 N 468.144 4.11814 -2.12046 0
M  V30 4941 C 468.879 5.04437 -2.72636 0
M  V30 4942 N 468.375 6.02426 -3.42133 0
M  V30 4943 N 470.168 4.97144 -2.62305 0
M  V30 4944 H 462.319 1.18928 -1.75983 0
M  V30 4945 H 464.582 0.581455 -0.748741 0
M  V30 4946 H 464.288 2.59363 -2.37537 0
M  V30 4947 H 464.162 3.64376 -0.975181 0
M  V30 4948 H 466.549 2.93783 -0.27846 0
M  V30 4949 H 466.63 1.90188 -1.71062 0
M  V30 4950 H 466.274 3.95407 -3.18772 0
M  V30 4951 H 466.204 4.97413 -1.72882 0
M  V30 4952 H 468.695 3.41664 -1.61476 0
M  V30 4953 H 469.008 6.69688 -3.85666 0
M  V30 4954 H 467.353 6.02615 -3.46237 0
M  V30 4955 H 470.544 4.19546 -2.07603 0
M  V30 4956 H 470.717 5.69138 -3.09815 0
M  V30 4957 N 464.123 0.554532 1.47522 0
M  V30 4958 C 465.37 0.029479 2.02479 0
M  V30 4959 C 465.698 -1.31929 1.42916 0
M  V30 4960 O 464.953 -1.87112 0.573385 0
M  V30 4961 C 465.252 -0.115927 3.57212 0
M  V30 4962 C 464.918 1.16161 4.3568 0
M  V30 4963 C 463.58 1.51168 4.56839 0
M  V30 4964 C 465.932 2.0083 4.80954 0
M  V30 4965 C 463.26 2.70696 5.2052 0
M  V30 4966 C 465.612 3.19559 5.45953 0
M  V30 4967 C 464.276 3.54882 5.65345 0
M  V30 4968 H 463.546 0.0107871 0.740921 0
M  V30 4969 H 466.193 0.725506 1.77225 0
M  V30 4970 H 464.498 -0.894902 3.81443 0
M  V30 4971 H 466.195 -0.53749 3.97381 0
M  V30 4972 H 462.785 0.879026 4.19489 0
M  V30 4973 H 466.969 1.75093 4.64388 0
M  V30 4974 H 462.225 2.98236 5.33728 0
M  V30 4975 H 466.399 3.85456 5.79997 0
M  V30 4976 H 464.026 4.47596 6.1446 0
M  V30 4977 N 465.601 -1.54893 0.290851 0
M  V30 4978 C 466.564 -2.21824 -0.576784 0
M  V30 4979 C 467.564 -1.20104 -1.06919 0
M  V30 4980 O 468.754 -1.44906 -0.966843 0
M  V30 4981 C 465.886 -2.89662 -1.79747 0
M  V30 4982 H 467.079 -2.99899 0.00784051 0
M  V30 4983 H 464.632 -1.56245 0.0415934 0
M  V30 4984 H 465.367 -2.15639 -2.42219 0
M  V30 4985 H 465.152 -3.64219 -1.45214 0
M  V30 4986 H 466.642 -3.4075 -2.4141 0
M  V30 4987 N 467.08 -0.0183926 -1.57589 0
M  V30 4988 C 468.012 0.995557 -2.06449 0
M  V30 4989 C 469.025 1.29556 -0.985849 0
M  V30 4990 O 470.214 1.2621 -1.26227 0
M  V30 4991 C 467.314 2.32572 -2.46502 0
M  V30 4992 C 466.487 2.21245 -3.77319 0
M  V30 4993 C 465.546 3.37104 -4.04039 0
M  V30 4994 O 464.572 3.14468 -4.74445 0
M  V30 4995 N 465.774 4.60553 -3.53372 0
M  V30 4996 H 468.539 0.578746 -2.94059 0
M  V30 4997 H 466.1 0.168603 -1.6102 0
M  V30 4998 H 468.092 3.08887 -2.61478 0
M  V30 4999 H 466.662 2.65931 -1.64315 0
M  V30 5000 H 465.882 1.29723 -3.72244 0
M  V30 5001 H 467.17 2.10868 -4.63047 0
M  V30 5002 H 466.568 4.81839 -2.96391 0
M  V30 5003 H 465.125 5.34072 -3.73644 0
M  V30 5004 N 468.558 1.5553 0.254621 0
M  V30 5005 C 469.835 1.6774 1.00611 0
M  V30 5006 C 470.215 0.555993 2.03647 0
M  V30 5007 O 469.563 -0.441583 2.24193 0
M  V30 5008 C 469.773 3.07725 1.6464 0
M  V30 5009 C 471.121 3.66074 2.15116 0
M  V30 5010 O 472.145 3.10476 1.74595 0
M  V30 5011 O 471.004 4.63526 2.89493 0
M  V30 5012 H 468.098 0.681958 0.467828 0
M  V30 5013 H 470.644 1.67863 0.24902 0
M  V30 5014 H 469.416 3.80792 0.900734 0
M  V30 5015 H 469.039 3.1158 2.46989 0
M  V30 5016 N 470.036 -0.519951 1.48776 0
M  V30 5017 C 471.283 -1.27522 1.57303 0
M  V30 5018 C 471.611 -1.92869 0.251328 0
M  V30 5019 O 470.866 -1.80372 -0.759243 0
M  V30 5020 C 471.165 -2.37864 2.6675 0
M  V30 5021 C 470.831 -1.90103 4.08867 0
M  V30 5022 C 469.493 -1.76795 4.47546 0
M  V30 5023 C 471.845 -1.54133 4.97888 0
M  V30 5024 C 469.173 -1.25868 5.73039 0
M  V30 5025 C 471.525 -1.04665 6.23881 0
M  V30 5026 C 470.189 -0.899823 6.61407 0
M  V30 5027 H 469.459 -0.466636 0.575614 0
M  V30 5028 H 472.106 -0.579109 1.82534 0
M  V30 5029 H 470.411 -3.13186 2.35418 0
M  V30 5030 H 472.108 -2.95969 2.70561 0
M  V30 5031 H 468.698 -2.01414 3.78326 0
M  V30 5032 H 472.882 -1.6327 4.68675 0
M  V30 5033 H 468.138 -1.13196 6.0083 0
M  V30 5034 H 472.312 -0.759074 6.92251 0
M  V30 5035 H 469.939 -0.503011 7.58534 0
M  V30 5036 N 471.514 -1.37532 -0.769588 0
M  V30 5037 C 472.444 -1.36172 -1.89682 0
M  V30 5038 C 473.425 -0.23001 -1.68538 0
M  V30 5039 O 474.61 -0.43069 -1.89364 0
M  V30 5040 C 471.74 -1.1701 -3.26995 0
M  V30 5041 C 470.694 -2.27216 -3.62708 0
M  V30 5042 C 470.02 -1.93174 -4.98586 0
M  V30 5043 C 471.32 -3.6941 -3.69234 0
M  V30 5044 H 473.014 -2.30499 -1.91078 0
M  V30 5045 H 470.56 -1.10953 -0.917902 0
M  V30 5046 H 472.513 -1.14688 -4.05493 0
M  V30 5047 H 471.237 -0.191395 -3.26039 0
M  V30 5048 H 469.896 -2.28697 -2.86519 0
M  V30 5049 H 469.544 -0.938281 -4.94171 0
M  V30 5050 H 469.244 -2.66973 -5.23449 0
M  V30 5051 H 470.768 -1.92443 -5.79481 0
M  V30 5052 H 472.182 -3.70047 -4.37879 0
M  V30 5053 H 470.579 -4.4228 -4.05597 0
M  V30 5054 H 471.649 -4.0288 -2.69844 0
M  V30 5055 N 472.992 0.995999 -1.22138 0
M  V30 5056 C 474.241 1.72928 -1.03821 0
M  V30 5057 C 474.554 1.90872 0.427444 0
M  V30 5058 O 475.76 2.61496 0.730212 0
M  V30 5059 C 474.216 3.11124 -1.80913 0
M  V30 5060 C 473.824 3.01122 -3.31707 0
M  V30 5061 C 475.568 3.8852 -1.71035 0
M  V30 5062 C 473.475 4.34453 -4.01253 0
M  V30 5063 H 472.405 0.648376 -0.384869 0
M  V30 5064 H 475.056 1.11213 -1.45959 0
M  V30 5065 H 473.438 3.73503 -1.31573 0
M  V30 5066 H 474.612 2.47926 -3.88419 0
M  V30 5067 H 472.927 2.3721 -3.42228 0
M  V30 5068 H 475.524 4.872 -2.20318 0
M  V30 5069 H 475.867 4.1087 -0.670196 0
M  V30 5070 H 476.4 3.32812 -2.17902 0
M  V30 5071 H 473.139 4.17303 -5.05508 0
M  V30 5072 H 472.659 4.87574 -3.49331 0
M  V30 5073 H 474.338 5.03215 -4.06674 0
M  V30 5074 N 474.47 1.03057 1.19235 0
M  V30 5075 C 475.886 0.747947 1.40989 0
M  V30 5076 C 476.086 -0.666752 1.90149 0
M  V30 5077 O 475.142 -1.43249 2.07933 0
M  V30 5078 C 476.455 1.7855 2.41951 0
M  V30 5079 C 478.003 1.80524 2.55695 0
M  V30 5080 C 478.478 2.83243 3.59913 0
M  V30 5081 N 479.969 2.8207 3.67411 0
M  V30 5082 C 480.704 3.58204 4.47747 0
M  V30 5083 N 480.2 4.44057 5.31775 0
M  V30 5084 N 481.993 3.46738 4.42413 0
M  V30 5085 H 474.144 1.94367 0.856468 0
M  V30 5086 H 476.407 0.840412 0.438647 0
M  V30 5087 H 476.113 2.79973 2.12857 0
M  V30 5088 H 475.987 1.6092 3.41152 0
M  V30 5089 H 478.374 0.79778 2.84112 0
M  V30 5090 H 478.455 2.02229 1.56643 0
M  V30 5091 H 478.099 3.84161 3.32239 0
M  V30 5092 H 478.029 2.58795 4.5862 0
M  V30 5093 H 480.52 2.19803 3.074 0
M  V30 5094 H 480.833 4.98884 5.90199 0
M  V30 5095 H 479.178 4.48129 5.3123 0
M  V30 5096 H 482.369 2.79077 3.75811 0
M  V30 5097 H 482.542 4.06322 5.04783 0
M  V30 5098 N 475.948 -1.35272 0.808662 0
M  V30 5099 C 477.359 -1.81179 0.450688 0
M  V30 5100 C 477.71 -1.67143 -1.02751 0
M  V30 5101 O 476.835 -1.20325 -1.79864 0
M  V30 5102 C 477.43 -3.28943 0.811275 0
M  V30 5103 C 475.989 -3.72985 0.505871 0
M  V30 5104 C 475.136 -2.57229 1.03578 0
M  V30 5105 H 478.087 -1.2322 1.00012 0
M  V30 5106 H 478.108 -3.80342 0.109588 0
M  V30 5107 H 477.62 -3.39127 1.88718 0
M  V30 5108 H 475.721 -3.68349 -0.561209 0
M  V30 5109 H 475.834 -4.67677 1.03995 0
M  V30 5110 H 474.198 -2.50548 0.458005 0
M  V30 5111 H 474.981 -2.7019 2.11784 0
M  V30 5112 N 477.426 -0.562348 -1.47226 0
M  V30 5113 C 478.675 -0.038041 -2.01664 0
M  V30 5114 C 478.988 1.32199 -1.44162 0
M  V30 5115 O 480.194 1.9365 -1.90294 0
M  V30 5116 C 478.65 -0.0174958 -3.59896 0
M  V30 5117 C 478.258 -1.3746 -4.2639 0
M  V30 5118 C 480.002 0.453934 -4.22066 0
M  V30 5119 C 477.909 -1.31289 -5.76643 0
M  V30 5120 H 476.839 -0.0104511 -0.753928 0
M  V30 5121 H 479.49 -0.710966 -1.69167 0
M  V30 5122 H 477.872 0.721182 -3.89378 0
M  V30 5123 H 479.046 -2.1314 -4.08544 0
M  V30 5124 H 477.361 -1.78438 -3.7623 0
M  V30 5125 H 479.958 0.518584 -5.32179 0
M  V30 5126 H 480.301 1.46706 -3.89594 0
M  V30 5127 H 480.834 -0.230044 -3.97134 0
M  V30 5128 H 477.573 -2.30217 -6.13743 0
M  V30 5129 H 477.093 -0.597973 -5.96812 0
M  V30 5130 H 478.772 -1.01713 -6.38955 0
M  V30 5131 N 478.904 1.54736 -0.299062 0
M  V30 5132 C 480.152 1.99706 0.31017 0
M  V30 5133 C 480.473 1.18896 1.54559 0
M  V30 5134 O 479.743 0.284445 1.93824 0
M  V30 5135 H 478.323 0.737686 0.117596 0
M  V30 5136 H 480.985 1.9054 -0.409943 0
M  V30 5137 H 480.081 3.06596 0.58355 0
M  V30 5138 N 480.382 0.0267497 1.57577 0
M  V30 5139 C 481.292 -0.971633 2.13533 0
M  V30 5140 C 482.308 -1.35868 1.08701 0
M  V30 5141 O 483.484 -1.44058 1.40746 0
M  V30 5142 C 480.549 -2.23622 2.64941 0
M  V30 5143 C 479.61 -1.90982 3.8448 0
M  V30 5144 C 478.843 -3.11411 4.33427 0
M  V30 5145 O 479.066 -4.23992 3.81558 0
M  V30 5146 O 478 -2.93848 5.25297 0
M  V30 5147 H 481.826 -0.525853 2.99113 0
M  V30 5148 H 479.411 -0.193712 1.48139 0
M  V30 5149 H 481.293 -2.97864 2.98086 0
M  V30 5150 H 479.968 -2.67386 1.82446 0
M  V30 5151 H 478.875 -1.14132 3.56265 0
M  V30 5152 H 480.208 -1.52036 4.6813 0
M  V30 5153 N 481.861 -1.55662 -0.24637 0
M  V30 5154 C 482.808 -1.90361 -1.30504 0
M  V30 5155 C 483.778 -0.757905 -1.47801 0
M  V30 5156 O 484.963 -1.01161 -1.61775 0
M  V30 5157 C 482.103 -2.2042 -2.65535 0
M  V30 5158 C 481.216 -3.47799 -2.56242 0
M  V30 5159 C 480.351 -3.67426 -3.8363 0
M  V30 5160 C 479.39 -4.88403 -3.68956 0
M  V30 5161 N 478.527 -5.04548 -4.88237 0
M  V30 5162 H 483.367 -2.80645 -1.00213 0
M  V30 5163 H 480.904 -1.38924 -0.483577 0
M  V30 5164 H 482.862 -2.35853 -3.44135 0
M  V30 5165 H 481.492 -1.3334 -2.93973 0
M  V30 5166 H 480.544 -3.40694 -1.69208 0
M  V30 5167 H 481.856 -4.36544 -2.4131 0
M  V30 5168 H 481.01 -3.82821 -4.70673 0
M  V30 5169 H 479.749 -2.76914 -4.01459 0
M  V30 5170 H 478.754 -4.72984 -2.80296 0
M  V30 5171 H 479.979 -5.80375 -3.52621 0
M  V30 5172 H 477.925 -4.16974 -5.06427 0
M  V30 5173 H 477.842 -5.87384 -4.75937 0
M  V30 5174 H 479.11 -5.24355 -5.76777 0
M  V30 5175 N 483.339 0.512053 -1.4905 0
M  V30 5176 C 484.269 1.62365 -1.67809 0
M  V30 5177 C 485.25 1.61737 -0.526809 0
M  V30 5178 O 486.435 1.78651 -0.761404 0
M  V30 5179 C 483.565 3.00895 -1.73435 0
M  V30 5180 C 482.519 3.16387 -2.88242 0
M  V30 5181 C 481.845 4.56157 -2.78971 0
M  V30 5182 C 483.145 2.97457 -4.29321 0
M  V30 5183 H 484.839 1.46921 -2.60873 0
M  V30 5184 H 482.385 0.705379 -1.2554 0
M  V30 5185 H 484.338 3.78549 -1.85145 0
M  V30 5186 H 483.062 3.17403 -0.769619 0
M  V30 5187 H 481.721 2.41155 -2.76116 0
M  V30 5188 H 481.369 4.69525 -1.8043 0
M  V30 5189 H 481.069 4.67465 -3.5602 0
M  V30 5190 H 482.593 5.35886 -2.92675 0
M  V30 5191 H 484.007 3.64888 -4.42187 0
M  V30 5192 H 482.404 3.20245 -5.07507 0
M  V30 5193 H 483.474 1.93692 -4.44535 0
M  V30 5194 N 484.817 1.37938 0.762283 0
M  V30 5195 C 486.228 1.30094 1.33912 0
M  V30 5196 C 486.579 -0.0472026 1.96143 0
M  V30 5197 O 485.704 -0.94917 1.94473 0
M  V30 5198 C 486.299 2.35592 2.43478 0
M  V30 5199 C 484.858 2.31353 2.96905 0
M  V30 5200 C 484.005 2.18919 1.70205 0
M  V30 5201 H 486.956 1.48423 0.561816 0
M  V30 5202 H 486.977 2.00806 3.23199 0
M  V30 5203 H 486.489 3.33701 1.98155 0
M  V30 5204 H 484.59 1.36799 3.46579 0
M  V30 5205 H 484.703 3.25147 3.51875 0
M  V30 5206 H 483.067 1.65624 1.93496 0
M  V30 5207 H 483.85 3.18956 1.26973 0
M  V30 5208 N 486.295 -0.989507 1.22664 0
M  V30 5209 C 487.523 -1.76496 1.07967 0
M  V30 5210 C 487.938 -1.85148 -0.369543 0
M  V30 5211 O 487.295 -1.32408 -1.25596 0
M  V30 5212 C 487.346 -3.19642 1.68853 0
M  V30 5213 O 487.067 -3.11453 3.08105 0
M  V30 5214 C 488.568 -4.13621 1.59475 0
M  V30 5215 H 485.788 -0.55418 0.378319 0
M  V30 5216 H 488.332 -1.24378 1.62328 0
M  V30 5217 H 486.487 -3.68816 1.18547 0
M  V30 5218 H 486.901 -4.01499 3.37489 0
M  V30 5219 H 488.375 -5.11801 2.06795 0
M  V30 5220 H 488.852 -4.35718 0.55191 0
M  V30 5221 H 489.458 -3.70346 2.09103 0
M  V30 5222 N 487.773 -1.03688 -1.18687 0
M  V30 5223 C 488.998 -0.757819 -1.93059 0
M  V30 5224 C 489.423 0.678353 -1.75442 0
M  V30 5225 O 488.781 1.46938 -1.06203 0
M  V30 5226 C 488.829 -1.12423 -3.42627 0
M  V30 5227 O 487.933 -0.247505 -4.11657 0
M  V30 5228 H 487.274 -0.279245 -0.602427 0
M  V30 5229 H 489.804 -1.3857 -1.5053 0
M  V30 5230 H 489.814 -1.08454 -3.93322 0
M  V30 5231 H 488.489 -2.17049 -3.54771 0
M  V30 5232 H 487.066 -0.34649 -3.71287 0
M  V30 5233 N 489.251 1.34841 -0.815825 0
M  V30 5234 C 490.499 1.98107 -0.399744 0
M  V30 5235 C 490.82 1.65019 1.03894 0
M  V30 5236 O 490.09 0.937311 1.72021 0
M  V30 5237 H 488.67 0.732827 -0.144823 0
M  V30 5238 H 491.332 1.64599 -1.0437 0
M  V30 5239 H 490.428 3.07856 -0.512965 0
M  V30 5240 N 490.729 0.570148 1.46925 0
M  V30 5241 C 491.977 0.0508523 2.02036 0
M  V30 5242 C 492.298 -1.30885 1.44548 0
M  V30 5243 O 491.568 -1.85647 0.625453 0
M  V30 5244 H 490.148 0.0158088 0.746833 0
M  V30 5245 H 492.81 0.743086 1.80178 0
M  V30 5246 H 491.906 -0.027575 3.12088 0
M  V30 5247 N 492.207 -1.54576 0.307264 0
M  V30 5248 C 493.447 -2.02172 -0.300962 0
M  V30 5249 C 493.811 -1.19081 -1.50611 0
M  V30 5250 O 495.012 -1.56405 -2.18612 0
M  V30 5251 C 493.283 -3.51576 -0.642591 0
M  V30 5252 S 494.842 -4.21127 -1.23279 0
M  V30 5253 H 491.66 -0.705021 -0.0920141 0
M  V30 5254 H 494.262 -1.90563 0.436594 0
M  V30 5255 H 492.966 -4.09681 0.242901 0
M  V30 5256 H 492.497 -3.67234 -1.41077 0
M  V30 5257 H 494.512 -4.27426 -2.52034 0
M  V30 5258 N 493.685 -0.035106 -1.57561 0
M  V30 5259 C 494.91 0.655802 -1.96759 0
M  V30 5260 C 495.335 1.64523 -0.911809 0
M  V30 5261 O 494.693 1.80857 0.126673 0
M  V30 5262 C 494.741 1.33326 -3.35047 0
M  V30 5263 O 493.845 2.44866 -3.31835 0
M  V30 5264 H 493.186 0.171807 -0.641388 0
M  V30 5265 H 495.716 -0.0987369 -2.04362 0
M  V30 5266 H 495.726 1.68867 -3.71413 0
M  V30 5267 H 494.401 0.608033 -4.11431 0
M  V30 5268 H 492.978 2.11392 -3.07193 0
M  V30 5269 N 495.163 1.55791 0.238111 0
M  V30 5270 C 496.126 1.90239 1.27835 0
M  V30 5271 C 497.126 0.779552 1.4064 0
M  V30 5272 O 498.316 1.04747 1.3919 0
M  V30 5273 C 495.448 2.13859 2.65475 0
M  V30 5274 H 496.641 2.83262 0.985034 0
M  V30 5275 H 494.194 1.48818 0.477799 0
M  V30 5276 H 494.929 1.23334 2.99932 0
M  V30 5277 H 494.714 2.95643 2.57561 0
M  V30 5278 H 496.204 2.41664 3.40571 0
M  V30 5279 N 496.642 -0.504142 1.49319 0
M  V30 5280 C 497.572 -1.61473 1.68667 0
M  V30 5281 C 498.553 -1.61455 0.535378 0
M  V30 5282 O 499.738 -1.78245 0.770868 0
M  V30 5283 C 496.868 -2.99971 1.75028 0
M  V30 5284 C 495.822 -3.14854 2.89916 0
M  V30 5285 C 495.148 -4.54671 2.81387 0
M  V30 5286 C 496.448 -2.95176 4.30893 0
M  V30 5287 H 498.142 -1.45535 2.61648 0
M  V30 5288 H 495.688 -0.698711 1.25913 0
M  V30 5289 H 497.641 -3.77562 1.8715 0
M  V30 5290 H 496.365 -3.1699 0.786441 0
M  V30 5291 H 495.024 -2.39687 2.77391 0
M  V30 5292 H 494.672 -4.68562 1.82917 0
M  V30 5293 H 494.372 -4.6557 3.58494 0
M  V30 5294 H 495.896 -5.34327 2.95512 0
M  V30 5295 H 497.31 -3.62538 4.44116 0
M  V30 5296 H 495.707 -3.17549 5.09198 0
M  V30 5297 H 496.777 -1.91332 4.45556 0
M  V30 5298 N 498.12 -1.38341 -0.754957 0
M  V30 5299 C 499.03 -1.3769 -1.89944 0
M  V30 5300 C 500.046 -0.274194 -1.71826 0
M  V30 5301 O 501.222 -0.512391 -1.94773 0
M  V30 5302 C 498.287 -1.19938 -3.25293 0
M  V30 5303 C 497.348 -2.40001 -3.55946 0
M  V30 5304 C 496.581 -2.23087 -4.84838 0
M  V30 5305 O 496.804 -1.22386 -5.57116 0
M  V30 5306 O 495.738 -3.11646 -5.14937 0
M  V30 5307 H 499.564 -2.3412 -1.93446 0
M  V30 5308 H 497.149 -1.19246 -0.900044 0
M  V30 5309 H 499.031 -1.12093 -4.06218 0
M  V30 5310 H 497.706 -0.265919 -3.22606 0
M  V30 5311 H 496.613 -2.53421 -2.75188 0
M  V30 5312 H 497.946 -3.31973 -3.63394 0
M  V30 5313 N 499.598 0.982988 -1.23187 0
M  V30 5314 C 500.528 2.09301 -1.03515 0
M  V30 5315 C 501.509 1.70035 0.0471136 0
M  V30 5316 O 502.694 1.93847 -0.117029 0
M  V30 5317 C 499.824 3.4167 -0.622791 0
M  V30 5318 C 498.778 3.94828 -1.65211 0
M  V30 5319 C 498.104 5.23362 -1.09527 0
M  V30 5320 C 499.404 4.2439 -3.04451 0
M  V30 5321 H 501.098 2.26016 -1.96359 0
M  V30 5322 H 498.644 1.08611 -0.945501 0
M  V30 5323 H 500.597 4.18746 -0.472233 0
M  V30 5324 H 499.321 3.24811 0.341329 0
M  V30 5325 H 497.98 3.19895 -1.79061 0
M  V30 5326 H 497.628 5.02852 -0.122211 0
M  V30 5327 H 497.328 5.59895 -1.783 0
M  V30 5328 H 498.852 6.03062 -0.956511 0
M  V30 5329 H 500.266 4.92225 -2.93917 0
M  V30 5330 H 498.663 4.72118 -3.70438 0
M  V30 5331 H 499.733 3.31765 -3.53638 0
M  V30 5332 N 501.076 1.04316 1.18135 0
M  V30 5333 C 502.023 0.636398 2.21853 0
M  V30 5334 C 502.993 -0.357039 1.62217 0
M  V30 5335 O 504.178 -0.250453 1.89149 0
M  V30 5336 C 501.318 0.00812779 3.45099 0
M  V30 5337 C 500.431 1.04933 4.19062 0
M  V30 5338 C 499.566 0.389313 5.29771 0
M  V30 5339 C 498.605 1.41544 5.9551 0
M  V30 5340 N 497.742 0.78021 6.97751 0
M  V30 5341 H 502.582 1.52536 2.56002 0
M  V30 5342 H 500.119 0.76304 1.25762 0
M  V30 5343 H 502.077 -0.373497 4.15525 0
M  V30 5344 H 500.707 -0.844336 3.11562 0
M  V30 5345 H 499.759 1.54888 3.47439 0
M  V30 5346 H 501.071 1.82862 4.64072 0
M  V30 5347 H 500.225 -0.0463805 6.06682 0
M  V30 5348 H 498.964 -0.422038 4.8587 0
M  V30 5349 H 497.969 1.86124 5.17337 0
M  V30 5350 H 499.194 2.22854 6.41493 0
M  V30 5351 H 497.14 -0.0107899 6.55999 0
M  V30 5352 H 497.057 1.49716 7.41027 0
M  V30 5353 H 498.325 0.368996 7.78626 0
M  V30 5354 N 502.554 -1.34406 0.822964 0
M  V30 5355 C 503.831 -1.92733 0.333641 0
M  V30 5356 C 504.211 -1.75107 -1.17901 0
M  V30 5357 O 503.559 -1.12983 -1.98613 0
M  V30 5358 C 503.769 -3.40557 0.763023 0
M  V30 5359 C 505.117 -4.17709 0.761879 0
M  V30 5360 O 506.141 -3.49141 0.705606 0
M  V30 5361 O 505 -5.40082 0.835109 0
M  V30 5362 H 502.094 -0.821964 0.0911249 0
M  V30 5363 H 504.64 -1.4338 0.907757 0
M  V30 5364 H 503.412 -3.47187 1.8049 0
M  V30 5365 H 503.035 -3.97259 0.164605 0
M  V30 5366 N 504.032 -0.577932 -1.46621 0
M  V30 5367 C 505.281 -0.0594281 -2.01612 0
M  V30 5368 C 505.594 1.30663 -1.45556 0
M  V30 5369 O 506.8 1.91621 -1.92337 0
M  V30 5370 C 505.256 -0.0556666 -3.59857 0
M  V30 5371 C 504.864 -1.41975 -4.24908 0
M  V30 5372 C 506.608 0.409143 -4.22524 0
M  V30 5373 C 504.515 -1.37397 -5.75218 0
M  V30 5374 H 503.445 -0.0184469 -0.753774 0
M  V30 5375 H 506.096 -0.728869 -1.68404 0
M  V30 5376 H 504.478 0.679843 -3.90121 0
M  V30 5377 H 505.652 -2.17461 -4.0626 0
M  V30 5378 H 503.967 -1.82419 -3.74316 0
M  V30 5379 H 506.564 0.46211 -5.32699 0
M  V30 5380 H 506.907 1.42565 -3.91128 0
M  V30 5381 H 507.44 -0.272152 -3.96868 0
M  V30 5382 H 504.179 -2.36714 -6.11267 0
M  V30 5383 H 503.699 -0.661239 -5.96144 0
M  V30 5384 H 505.378 -1.08484 -6.3784 0
M  V30 5385 N 505.51 1.54411 -0.315457 0
M  V30 5386 C 506.759 1.99599 0.290395 0
M  V30 5387 C 507.072 1.20746 1.53882 0
M  V30 5388 O 508.278 1.56272 2.22017 0
M  V30 5389 C 506.734 3.5539 0.56797 0
M  V30 5390 C 506.342 4.43068 -0.662945 0
M  V30 5391 C 508.086 4.09067 1.13422 0
M  V30 5392 C 505.993 5.90317 -0.357722 0
M  V30 5393 H 504.923 0.745592 0.112286 0
M  V30 5394 H 507.574 1.78477 -0.426418 0
M  V30 5395 H 505.956 3.72468 1.34476 0
M  V30 5396 H 507.13 4.37765 -1.43869 0
M  V30 5397 H 505.445 4.00238 -1.14884 0
M  V30 5398 H 508.042 5.16663 1.37707 0
M  V30 5399 H 508.385 3.60552 2.08106 0
M  V30 5400 H 508.918 3.95589 0.418805 0
M  V30 5401 H 505.657 6.4301 -1.27351 0
M  V30 5402 H 505.177 5.98592 0.380472 0
M  V30 5403 H 506.856 6.4699 0.0354284 0
M  V30 5404 N 506.988 0.0434614 1.5754 0
M  V30 5405 C 508.216 -0.641835 1.96693 0
M  V30 5406 C 508.631 -1.64832 0.920652 0
M  V30 5407 O 507.988 -1.82247 -0.095993 0
M  V30 5408 C 508.039 -1.33557 3.35924 0
M  V30 5409 O 507.76 -0.369403 4.3654 0
M  V30 5410 C 509.261 -2.11135 3.89791 0
M  V30 5411 H 506.481 -0.176013 0.647503 0
M  V30 5412 H 509.025 0.107478 2.04217 0
M  V30 5413 H 507.18 -2.03617 3.29574 0
M  V30 5414 H 507.594 -0.863674 5.1734 0
M  V30 5415 H 509.068 -2.55107 4.89514 0
M  V30 5416 H 509.545 -2.95634 3.24803 0
M  V30 5417 H 510.151 -1.46002 3.99454 0
M  V30 5418 N 508.466 -1.55915 -0.229846 0
M  V30 5419 C 509.743 -1.6932 -0.979295 0
M  V30 5420 C 510.123 -0.588321 -2.02736 0
M  V30 5421 O 509.471 0.40586 -2.24867 0
M  V30 5422 C 509.681 -3.10305 -1.59724 0
M  V30 5423 C 511.029 -3.6945 -2.09264 0
M  V30 5424 O 512.053 -3.13214 -1.69633 0
M  V30 5425 O 510.912 -4.68072 -2.82082 0
M  V30 5426 H 508.006 -0.689314 -0.456919 0
M  V30 5427 H 510.552 -1.68238 -0.222283 0
M  V30 5428 H 509.324 -3.82177 -0.840039 0
M  V30 5429 H 508.947 -3.1547 -2.42001 0
M  V30 5430 N 509.944 0.496216 -1.49584 0
M  V30 5431 C 511.355 1.07765 -1.52459 0
M  V30 5432 C 511.706 1.93679 -0.31353 0
M  V30 5433 O 510.831 2.08588 0.576186 0
M  V30 5434 C 511.426 1.96111 -2.76271 0
M  V30 5435 C 509.985 2.49409 -2.81908 0
M  V30 5436 C 509.132 1.27142 -2.46435 0
M  V30 5437 H 512.083 0.279914 -1.56212 0
M  V30 5438 H 512.104 2.80862 -2.56704 0
M  V30 5439 H 511.616 1.33555 -3.64396 0
M  V30 5440 H 509.717 3.1559 -1.98074 0
M  V30 5441 H 509.83 2.86234 -3.84196 0
M  V30 5442 H 508.194 1.59818 -1.98319 0
M  V30 5443 H 508.977 0.662866 -3.3684 0
M  V30 5444 N 511.423 1.38739 0.74761 0
M  V30 5445 C 512.67 1.35274 1.50689 0
M  V30 5446 C 512.998 -0.0553359 1.94421 0
M  V30 5447 O 512.253 -1.03365 1.66175 0
M  V30 5448 C 512.552 2.25992 2.7688 0
M  V30 5449 C 512.218 3.73854 2.5208 0
M  V30 5450 C 510.88 4.14145 2.45025 0
M  V30 5451 C 513.232 4.67427 2.30568 0
M  V30 5452 C 510.56 5.4609 2.14483 0
M  V30 5453 C 512.912 5.99635 2.01545 0
M  V30 5454 C 511.576 6.39004 1.92951 0
M  V30 5455 H 510.846 0.495003 0.55141 0
M  V30 5456 H 513.493 1.71145 0.859158 0
M  V30 5457 H 511.798 1.83196 3.46333 0
M  V30 5458 H 513.495 2.20611 3.34861 0
M  V30 5459 H 510.085 3.41913 2.58444 0
M  V30 5460 H 514.269 4.3714 2.34994 0
M  V30 5461 H 509.525 5.75528 2.06342 0
M  V30 5462 H 513.699 6.71678 1.83906 0
M  V30 5463 H 511.326 7.41165 1.6905 0
M  V30 5464 N 512.901 -0.976442 1.23707 0
M  V30 5465 C 513.848 -2.06952 1.02174 0
M  V30 5466 C 514.818 -1.65984 -0.0621034 0
M  V30 5467 O 516.003 -1.90584 0.0907906 0
M  V30 5468 C 513.143 -3.39425 0.62327 0
M  V30 5469 C 512.256 -3.9364 1.77966 0
M  V30 5470 C 511.391 -5.14343 1.3276 0
M  V30 5471 C 510.43 -5.60733 2.45449 0
M  V30 5472 N 509.567 -6.72662 2.01172 0
M  V30 5473 H 514.407 -2.24704 1.95734 0
M  V30 5474 H 511.944 -1.10143 0.975034 0
M  V30 5475 H 513.902 -4.15526 0.37332 0
M  V30 5476 H 512.532 -3.21624 -0.275329 0
M  V30 5477 H 511.584 -3.14258 2.14351 0
M  V30 5478 H 512.896 -4.24035 2.62671 0
M  V30 5479 H 512.05 -5.97789 1.03601 0
M  V30 5480 H 510.789 -4.8561 0.450975 0
M  V30 5481 H 509.794 -4.75865 2.75378 0
M  V30 5482 H 511.019 -5.91483 3.33654 0
M  V30 5483 H 508.965 -6.45681 1.15895 0
M  V30 5484 H 508.882 -7.02462 2.79434 0
M  V30 5485 H 510.15 -7.59572 1.75129 0
M  V30 5486 N 514.379 -1.04941 -1.1758 0
M  V30 5487 C 515.309 -0.669172 -2.23706 0
M  V30 5488 C 516.29 0.331835 -1.66832 0
M  V30 5489 O 517.475 0.209988 -1.93061 0
M  V30 5490 C 514.605 -0.0404889 -3.47276 0
M  V30 5491 C 513.559 -0.965983 -4.16957 0
M  V30 5492 C 512.885 -0.201312 -5.34321 0
M  V30 5493 C 514.185 -2.28902 -4.69469 0
M  V30 5494 H 515.879 -1.55639 -2.55767 0
M  V30 5495 H 513.425 -0.749793 -1.22939 0
M  V30 5496 H 515.378 0.237298 -4.20731 0
M  V30 5497 H 514.102 0.881658 -3.14475 0
M  V30 5498 H 512.761 -1.22829 -3.45411 0
M  V30 5499 H 512.409 0.723519 -4.97769 0
M  V30 5500 H 512.109 -0.817968 -5.81879 0
M  V30 5501 H 513.633 0.0692499 -6.10561 0
M  V30 5502 H 515.047 -2.07132 -5.34574 0
M  V30 5503 H 513.444 -2.85942 -5.27596 0
M  V30 5504 H 514.514 -2.92937 -3.86414 0
M  V30 5505 N 515.857 1.33968 -0.830081 0
M  V30 5506 C 516.82 2.27694 -0.26235 0
M  V30 5507 C 517.82 1.50589 0.563876 0
M  V30 5508 O 519.01 1.70028 0.378941 0
M  V30 5509 C 516.142 3.35002 0.63138 0
M  V30 5510 H 517.335 2.79419 -1.08928 0
M  V30 5511 H 514.888 1.44221 -0.602486 0
M  V30 5512 H 515.623 2.88504 1.48109 0
M  V30 5513 H 515.408 3.92079 0.0403276 0
M  V30 5514 H 516.898 4.04897 1.02217 0
M  V30 5515 N 517.335 0.585699 1.46312 0
M  V30 5516 C 518.245 -0.148236 2.34131 0
M  V30 5517 C 519.261 -0.882972 1.49932 0
M  V30 5518 O 520.437 -0.845484 1.82794 0
M  V30 5519 C 517.502 -1.14714 3.27172 0
M  V30 5520 C 516.563 -0.416746 4.27272 0
M  V30 5521 C 515.796 -1.36806 5.15868 0
M  V30 5522 O 516.019 -2.60475 5.07454 0
M  V30 5523 O 514.953 -0.877018 5.95476 0
M  V30 5524 H 518.779 0.572882 2.98248 0
M  V30 5525 H 516.364 0.346082 1.45336 0
M  V30 5526 H 518.246 -1.72303 3.84564 0
M  V30 5527 H 516.921 -1.84967 2.65648 0
M  V30 5528 H 515.828 0.201061 3.73559 0
M  V30 5529 H 517.161 0.244872 4.9159 0
M  V30 5530 N 518.813 -1.54241 0.323641 0
M  V30 5531 C 519.723 -2.28033 -0.551205 0
M  V30 5532 C 520.739 -1.32388 -1.12913 0
M  V30 5533 O 521.915 -1.65403 -1.14908 0
M  V30 5534 C 518.98 -3.02382 -1.69606 0
M  V30 5535 C 518.041 -4.13612 -1.14993 0
M  V30 5536 C 517.274 -4.84407 -2.24022 0
M  V30 5537 O 517.497 -4.54716 -3.44368 0
M  V30 5538 O 516.431 -5.71312 -1.89436 0
M  V30 5539 H 520.257 -3.03662 0.048066 0
M  V30 5540 H 517.842 -1.49133 0.0893289 0
M  V30 5541 H 519.724 -3.48941 -2.36259 0
M  V30 5542 H 518.399 -2.29628 -2.28151 0
M  V30 5543 H 517.306 -3.71402 -0.448484 0
M  V30 5544 H 518.639 -4.8841 -0.609608 0
M  V30 5545 N 520.291 -0.0518155 -1.57515 0
M  V30 5546 C 521.516 0.634896 -1.97443 0
M  V30 5547 C 521.941 1.63546 -0.929207 0
M  V30 5548 O 521.299 1.80981 0.107484 0
M  V30 5549 C 521.347 1.29765 -3.36442 0
M  V30 5550 O 520.451 2.41333 -3.34413 0
M  V30 5551 H 519.792 0.164994 -0.643174 0
M  V30 5552 H 522.322 -0.120407 -2.04245 0
M  V30 5553 H 522.332 1.64918 -3.73184 0
M  V30 5554 H 521.007 0.564361 -4.12053 0
M  V30 5555 H 519.584 2.08122 -3.09418 0
M  V30 5556 N 521.769 1.56035 0.221574 0
M  V30 5557 C 523.046 1.69837 0.970301 0
M  V30 5558 C 523.426 0.599065 2.02421 0
M  V30 5559 O 522.774 -0.393929 2.25079 0
M  V30 5560 C 522.984 3.11148 1.58076 0
M  V30 5561 C 524.332 3.70555 2.07302 0
M  V30 5562 O 525.356 3.14109 1.6797 0
M  V30 5563 O 524.215 4.69562 2.79596 0
M  V30 5564 H 521.309 0.691727 0.453257 0
M  V30 5565 H 523.855 1.68353 0.213358 0
M  V30 5566 H 522.627 3.82617 0.819759 0
M  V30 5567 H 522.25 3.16749 2.40324 0
M  V30 5568 N 523.247 -0.488276 1.49845 0
M  V30 5569 C 524.472 -1.26997 1.63971 0
M  V30 5570 C 524.897 -1.85427 0.315994 0
M  V30 5571 O 524.255 -1.66475 -0.718032 0
M  V30 5572 C 524.303 -2.36689 2.72049 0
M  V30 5573 O 523.407 -3.40882 2.32107 0
M  V30 5574 H 522.748 -0.374376 0.548396 0
M  V30 5575 H 525.278 -0.583104 1.96115 0
M  V30 5576 H 525.288 -2.82262 2.94605 0
M  V30 5577 H 523.963 -1.93529 3.68129 0
M  V30 5578 H 522.54 -3.01139 2.19931 0
M  V30 5579 N 524.725 -1.39134 -0.740242 0
M  V30 5580 C 525.658 -1.3182 -1.86276 0
M  V30 5581 C 526.636 -0.192794 -1.61453 0
M  V30 5582 O 527.82 -0.372365 -1.84786 0
M  V30 5583 C 524.947 -1.04564 -3.22155 0
M  V30 5584 C 523.993 -2.19224 -3.65846 0
M  V30 5585 S 524.826 -3.81466 -3.75824 0
M  V30 5586 C 525.982 -3.56425 -5.14502 0
M  V30 5587 H 526.215 -2.26822 -1.92195 0
M  V30 5588 H 523.748 -1.25127 -0.904576 0
M  V30 5589 H 525.706 -0.895228 -4.00619 0
M  V30 5590 H 524.367 -0.112578 -3.13898 0
M  V30 5591 H 523.56 -1.95732 -4.6444 0
M  V30 5592 H 523.162 -2.30441 -2.94572 0
M  V30 5593 H 525.454 -3.13366 -6.00673 0
M  V30 5594 H 526.397 -4.54462 -5.43019 0
M  V30 5595 H 526.805 -2.90641 -4.8393 0
M  V30 5596 N 526.204 0.969867 -1.24223 0
M  V30 5597 C 527.151 2.06407 -1.0327 0
M  V30 5598 C 528.121 1.66014 0.0533 0
M  V30 5599 O 529.306 1.90533 -0.100896 0
M  V30 5600 C 526.446 3.3909 -0.641262 0
M  V30 5601 C 525.559 3.9269 -1.80051 0
M  V30 5602 C 524.694 5.13631 -1.35486 0
M  V30 5603 C 523.733 5.59423 -2.48419 0
M  V30 5604 N 522.87 6.71586 -2.04737 0
M  V30 5605 H 527.71 2.23663 -1.96923 0
M  V30 5606 H 525.247 1.09624 -0.980862 0
M  V30 5607 H 527.205 4.15323 -0.395351 0
M  V30 5608 H 525.835 3.21765 0.258269 0
M  V30 5609 H 524.887 3.13116 -2.16014 0
M  V30 5610 H 526.199 4.22636 -2.64916 0
M  V30 5611 H 525.353 5.97231 -1.0677 0
M  V30 5612 H 524.092 4.85364 -0.476722 0
M  V30 5613 H 523.097 4.74398 -2.77897 0
M  V30 5614 H 524.322 5.89705 -3.36786 0
M  V30 5615 H 522.268 6.45058 -1.19318 0
M  V30 5616 H 522.185 7.0097 -2.83156 0
M  V30 5617 H 523.453 7.58633 -1.79154 0
M  V30 5618 N 527.682 1.05563 1.17022 0
M  V30 5619 C 528.907 0.788437 1.91829 0
M  V30 5620 C 529.332 -0.650356 1.76499 0
M  V30 5621 O 528.69 -1.45229 1.08527 0
M  V30 5622 C 528.738 1.1786 3.40795 0
M  V30 5623 O 527.842 0.312965 4.11211 0
M  V30 5624 H 527.183 0.288794 0.597908 0
M  V30 5625 H 529.713 1.40948 1.48307 0
M  V30 5626 H 529.723 1.14697 3.91546 0
M  V30 5627 H 528.398 2.22666 3.51273 0
M  V30 5628 H 526.975 0.405515 3.70689 0
M  V30 5629 N 529.16 -1.33526 0.837174 0
M  V30 5630 C 530.576 -1.50727 0.524743 0
M  V30 5631 C 530.776 -1.77792 -0.948279 0
M  V30 5632 O 529.832 -1.83719 -1.73216 0
M  V30 5633 C 531.145 -2.66299 1.39661 0
M  V30 5634 C 532.693 -2.80183 1.39521 0
M  V30 5635 C 533.168 -3.98815 2.25189 0
M  V30 5636 N 534.659 -4.06047 2.2289 0
M  V30 5637 C 535.394 -4.97032 2.85915 0
M  V30 5638 N 534.89 -5.93143 3.57985 0
M  V30 5639 N 536.683 -4.90015 2.75394 0
M  V30 5640 H 528.834 -1.1422 1.79074 0
M  V30 5641 H 531.097 -0.561399 0.763894 0
M  V30 5642 H 530.803 -2.52974 2.4433 0
M  V30 5643 H 530.677 -3.61663 1.07145 0
M  V30 5644 H 533.064 -2.92942 0.356253 0
M  V30 5645 H 533.145 -1.85586 1.76044 0
M  V30 5646 H 532.789 -3.86817 3.29143 0
M  V30 5647 H 532.719 -4.92654 1.86009 0
M  V30 5648 H 535.21 -3.37262 1.70478 0
M  V30 5649 H 535.523 -6.59227 4.03286 0
M  V30 5650 H 533.868 -5.93223 3.62093 0
M  V30 5651 H 537.059 -4.13894 2.18654 0
M  V30 5652 H 537.232 -5.60724 3.24796 0
M  V30 5653 N 530.638 -0.59345 -1.46 0
M  V30 5654 C 531.878 -0.0859747 -2.04219 0
M  V30 5655 C 532.242 1.25432 -1.45364 0
M  V30 5656 O 533.443 1.85168 -1.9485 0
M  V30 5657 C 531.714 -0.0324314 -3.57385 0
M  V30 5658 S 533.273 0.415908 -4.36824 0
M  V30 5659 H 530.091 -0.0426872 -0.709717 0
M  V30 5660 H 532.693 -0.788369 -1.78899 0
M  V30 5661 H 531.397 -1.01166 -3.97735 0
M  V30 5662 H 530.928 0.6924 -3.87259 0
M  V30 5663 H 532.943 1.66844 -4.67309 0
M  V30 5664 N 532.116 1.54067 -0.331816 0
M  V30 5665 C 533.362 2.01012 0.268667 0
M  V30 5666 C 533.695 1.2195 1.51136 0
M  V30 5667 O 532.97 0.303972 1.9211 0
M  V30 5668 C 533.253 3.55158 0.59456 0
M  V30 5669 C 533.106 4.4494 -0.659409 0
M  V30 5670 C 534.425 4.16939 1.4089 0
M  V30 5671 H 531.544 0.730698 0.0961756 0
M  V30 5672 H 534.186 1.84593 -0.450031 0
M  V30 5673 H 532.336 3.6928 1.20685 0
M  V30 5674 H 534.008 4.42675 -1.29756 0
M  V30 5675 H 532.251 4.1428 -1.28665 0
M  V30 5676 H 532.922 5.50643 -0.386804 0
M  V30 5677 H 535.398 4.06443 0.891272 0
M  V30 5678 H 534.274 5.24889 1.60569 0
M  V30 5679 H 534.535 3.70798 2.40752 0
M  V30 5680 N 533.594 0.0601682 1.57485 0
M  V30 5681 C 535.005 -0.474217 1.80577 0
M  V30 5682 C 535.356 -1.70365 0.973147 0
M  V30 5683 O 534.481 -2.15544 0.192306 0
M  V30 5684 C 535.076 -0.867102 3.27516 0
M  V30 5685 C 533.635 -1.34642 3.51495 0
M  V30 5686 C 532.782 -0.32594 2.75378 0
M  V30 5687 H 535.733 0.285973 1.56102 0
M  V30 5688 H 535.754 -1.72938 3.38929 0
M  V30 5689 H 535.266 0.0278927 3.8809 0
M  V30 5690 H 533.367 -2.2603 2.96212 0
M  V30 5691 H 533.48 -1.33237 4.60201 0
M  V30 5692 H 531.844 -0.800749 2.41785 0
M  V30 5693 H 532.627 0.561125 3.38683 0
M  V30 5694 N 535.072 -1.5615 -0.213296 0
M  V30 5695 C 536.349 -1.70349 -0.961281 0
M  V30 5696 C 536.729 -0.609791 -2.02101 0
M  V30 5697 O 536.077 0.381987 -2.25285 0
M  V30 5698 C 536.287 -3.11982 -1.56424 0
M  V30 5699 C 537.635 -3.71649 -2.05334 0
M  V30 5700 O 538.659 -3.14995 -1.66302 0
M  V30 5701 O 537.518 -4.71038 -2.77102 0
M  V30 5702 H 534.612 -0.694121 -0.449582 0
M  V30 5703 H 537.158 -1.68464 -0.204426 0
M  V30 5704 H 535.93 -3.83046 -0.799457 0
M  V30 5705 H 535.553 -3.18019 -2.38641 0
M  V30 5706 N 536.55 0.480323 -1.50102 0
M  V30 5707 C 537.513 1.56181 -1.6775 0
M  V30 5708 C 538.513 1.51156 -0.548503 0
M  V30 5709 O 539.703 1.5394 -0.815363 0
M  V30 5710 C 536.835 2.95823 -1.69415 0
M  V30 5711 H 538.028 1.41855 -2.6423 0
M  V30 5712 H 535.581 0.70605 -1.39444 0
M  V30 5713 H 536.316 3.15604 -0.745948 0
M  V30 5714 H 536.101 3.00878 -2.51425 0
M  V30 5715 H 537.591 3.74359 -1.85054 0
M  V30 5716 N 538.028 1.39524 0.732853 0
M  V30 5717 C 538.991 1.38189 1.82857 0
M  V30 5718 C 539.991 0.278624 1.58368 0
M  V30 5719 O 541.181 0.536639 1.65728 0
M  V30 5720 C 538.313 1.15661 3.2068 0
M  V30 5721 H 539.506 2.35692 1.85444 0
M  V30 5722 H 537.059 1.2512 0.936728 0
M  V30 5723 H 537.794 0.188482 3.23752 0
M  V30 5724 H 537.579 1.95559 3.39852 0
M  V30 5725 H 539.069 1.17472 4.00737 0
M  V30 5726 N 539.506 -0.963266 1.24736 0
M  V30 5727 C 540.754 -1.70343 1.08755 0
M  V30 5728 C 541.075 -1.91387 -0.373619 0
M  V30 5729 O 540.345 -1.4948 -1.2662 0
M  V30 5730 H 538.925 -0.631224 0.399456 0
M  V30 5731 H 541.587 -1.15859 1.56725 0
M  V30 5732 H 540.683 -2.68616 1.58909 0
M  V30 5733 N 540.985 -1.06182 -1.16461 0
M  V30 5734 C 542.233 -0.776326 -1.86595 0
M  V30 5735 C 542.554 0.69921 -1.82033 0
M  V30 5736 O 541.824 1.50579 -1.2531 0
M  V30 5737 H 540.404 -0.284184 -0.690832 0
M  V30 5738 H 543.066 -1.34308 -1.41235 0
M  V30 5739 H 542.162 -1.10022 -2.92064 0
M  V30 5740 N 542.463 1.3308 -0.844243 0
M  V30 5741 C 543.703 1.99414 -0.448697 0
M  V30 5742 C 544.067 1.65398 0.975058 0
M  V30 5743 O 545.268 2.24741 1.47461 0
M  V30 5744 C 543.539 3.51081 -0.669089 0
M  V30 5745 S 545.098 4.37241 -0.369564 0
M  V30 5746 H 541.916 0.690736 -0.168538 0
M  V30 5747 H 544.518 1.61977 -1.0947 0
M  V30 5748 H 543.222 3.73326 -1.70457 0
M  V30 5749 H 542.753 3.93399 -0.00913211 0
M  V30 5750 H 544.768 4.89568 0.808552 0
M  V30 5751 N 543.941 0.601185 1.45683 0
M  V30 5752 C 545.181 0.0968037 2.04171 0
M  V30 5753 C 545.545 -1.2466 1.46027 0
M  V30 5754 O 546.746 -1.84132 1.95829 0
M  V30 5755 C 545.017 0.051384 3.57363 0
M  V30 5756 S 546.576 -0.392737 4.37039 0
M  V30 5757 H 543.394 0.0464504 0.709481 0
M  V30 5758 H 545.996 0.797846 1.78479 0
M  V30 5759 H 544.7 1.03274 3.97193 0
M  V30 5760 H 544.231 -0.671853 3.87621 0
M  V30 5761 H 546.246 -1.64364 4.68187 0
M  V30 5762 N 545.419 -1.53889 0.339982 0
M  V30 5763 C 546.667 -2.00458 -0.257112 0
M  V30 5764 C 546.988 -1.22953 -1.51353 0
M  V30 5765 O 546.258 -0.335734 -1.93002 0
M  V30 5766 H 544.838 -0.740544 -0.0979965 0
M  V30 5767 H 547.5 -1.89386 0.460317 0
M  V30 5768 H 546.596 -3.08035 -0.502057 0
M  V30 5769 N 546.897 -0.0685191 -1.57451 0
M  V30 5770 C 548.125 0.610462 -1.97689 0
M  V30 5771 C 548.54 1.63346 -0.946758 0
M  V30 5772 O 547.897 1.82377 0.0669868 0
M  V30 5773 C 547.948 1.28196 -3.38006 0
M  V30 5774 O 547.669 0.299906 -4.37072 0
M  V30 5775 C 549.17 2.04907 -3.931 0
M  V30 5776 H 546.39 0.165689 -0.650222 0
M  V30 5777 H 548.934 -0.139953 -2.04021 0
M  V30 5778 H 547.089 1.98348 -3.32771 0
M  V30 5779 H 547.503 0.78126 -5.18649 0
M  V30 5780 H 548.977 2.47287 -4.93511 0
M  V30 5781 H 549.454 2.9043 -3.29465 0
M  V30 5782 H 550.06 1.39629 -4.01726 0
M  V30 5783 N 548.375 1.56261 0.205012 0
M  V30 5784 C 549.322 1.93754 1.25411 0
M  V30 5785 C 550.292 0.796826 1.45739 0
M  V30 5786 O 551.477 1.05414 1.59036 0
M  V30 5787 C 548.617 2.27383 2.59598 0
M  V30 5788 C 547.73 3.5447 2.46931 0
M  V30 5789 C 546.865 3.77468 3.73753 0
M  V30 5790 C 545.904 4.98014 3.55877 0
M  V30 5791 N 545.041 5.17316 4.74688 0
M  V30 5792 H 549.881 2.83203 0.92737 0
M  V30 5793 H 547.418 1.40158 0.446574 0
M  V30 5794 H 549.376 2.44895 3.37761 0
M  V30 5795 H 548.006 1.41088 2.90335 0
M  V30 5796 H 547.058 3.45061 1.60116 0
M  V30 5797 H 548.37 4.42789 2.29651 0
M  V30 5798 H 547.524 3.95165 4.60358 0
M  V30 5799 H 546.263 2.87461 3.93976 0
M  V30 5800 H 545.268 4.80249 2.67657 0
M  V30 5801 H 546.493 5.8952 3.37109 0
M  V30 5802 H 544.439 4.30255 4.95194 0
M  V30 5803 H 544.356 5.99796 4.60197 0
M  V30 5804 H 545.624 5.39463 5.62672 0
M  V30 5805 N 549.853 -0.472356 1.50355 0
M  V30 5806 C 550.8 -1.57051 1.69126 0
M  V30 5807 C 551.77 -1.5733 0.532574 0
M  V30 5808 O 552.955 -1.7488 0.762994 0
M  V30 5809 C 550.095 -2.95033 1.79024 0
M  V30 5810 C 549.208 -3.04552 3.06386 0
M  V30 5811 C 548.343 -4.33441 3.07087 0
M  V30 5812 C 547.382 -4.36697 4.28908 0
M  V30 5813 N 546.519 -5.57056 4.27356 0
M  V30 5814 H 551.359 -1.40351 2.62879 0
M  V30 5815 H 548.896 -0.682403 1.30314 0
M  V30 5816 H 550.854 -3.75048 1.82744 0
M  V30 5817 H 549.484 -3.10371 0.887109 0
M  V30 5818 H 548.536 -2.17419 3.12143 0
M  V30 5819 H 549.848 -3.02818 3.96362 0
M  V30 5820 H 549.002 -5.21801 3.09529 0
M  V30 5821 H 547.741 -4.37782 2.14939 0
M  V30 5822 H 546.746 -3.46734 4.2668 0
M  V30 5823 H 547.971 -4.34049 5.22282 0
M  V30 5824 H 545.917 -5.62184 3.3806 0
M  V30 5825 H 545.834 -5.57058 5.111 0
M  V30 5826 H 547.102 -6.47545 4.33942 0
M  V30 5827 N 551.331 -1.39911 -0.725443 0
M  V30 5828 C 552.556 -1.41137 -1.5197 0
M  V30 5829 C 552.981 -0.010262 -1.88097 0
M  V30 5830 O 552.339 0.979184 -1.52583 0
M  V30 5831 C 552.387 -2.2994 -2.77777 0
M  V30 5832 O 551.491 -1.73586 -3.74088 0
M  V30 5833 H 550.832 -0.480219 -0.458569 0
M  V30 5834 H 553.362 -1.84023 -0.894249 0
M  V30 5835 H 553.372 -2.44785 -3.26411 0
M  V30 5836 H 552.047 -3.31759 -2.50816 0
M  V30 5837 H 550.624 -1.68035 -3.32894 0
M  V30 5838 N 552.809 0.956637 -1.25245 0
M  V30 5839 C 554.049 1.71585 -1.11076 0
M  V30 5840 C 554.413 1.88916 0.34277 0
M  V30 5841 O 555.614 2.61875 0.606227 0
M  V30 5842 C 553.885 3.06267 -1.84215 0
M  V30 5843 S 555.444 3.97469 -1.85914 0
M  V30 5844 H 552.262 0.589803 -0.397055 0
M  V30 5845 H 554.864 1.14114 -1.58739 0
M  V30 5846 H 553.568 2.91322 -2.89067 0
M  V30 5847 H 553.099 3.688 -1.36931 0
M  V30 5848 H 555.114 4.87316 -0.93474 0
M  V30 5849 O 554.326 1.1921 1.08956 0
M  V30 5850 H 555.017 0.939352 1.69399 0
M  V30 END ATOM
M  V30 BEGIN BOND
M  V30 END BOND
M  V30 END CTAB
M  END
$$$$
