drugbank_target|Q13370 cGMP-inhibited 3',5'-cyclic phosphodiesterase B (DB01427; DB01640; DB01970; DB07954)
 OpenBabel12092119503D

  0  0  0     0  0            999 V3000
M  V30 BEGIN CTAB
M  V30 COUNTS 17255 17475 0 0 0
M  V30 BEGIN ATOM
M  V30 1 H -0.908 1.98254 -0.117106 0
M  V30 2 N 0 1.576 0 0
M  V30 3 C 0.933 2.03868 1.02534 0
M  V30 4 C 1.911 0.928543 1.3348 0
M  V30 5 O 3.095 1.19667 1.45644 0
M  V30 6 C 0.222 2.43627 2.35294 0
M  V30 7 C -0.732 3.65373 2.2001 0
M  V30 8 S 0.101 5.13292 1.52614 0
M  V30 9 C 1.257 5.56322 2.86805 0
M  V30 10 H 1.49 2.90518 0.631377 0
M  V30 11 H -0.977 1.52953 0.210867 0
M  V30 12 H 0.981 2.67203 3.11629 0
M  V30 13 H -0.358 1.57376 2.7183 0
M  V30 14 H -1.165 3.90944 3.18086 0
M  V30 15 H -1.563 3.418 1.51819 0
M  V30 16 H 0.729 5.58782 3.83104 0
M  V30 17 H 1.672 6.56266 2.65933 0
M  V30 18 H 2.08 4.83886 2.90714 0
M  V30 19 N 1.4781 -0.272755 1.55222 0
M  V30 20 C 2.8941 -0.619959 1.47067 0
M  V30 21 C 3.0941 -1.895 0.684978 0
M  V30 22 O 2.1501 -2.51675 0.203931 0
M  V30 23 C 3.4631 -0.746693 2.91282 0
M  V30 24 C 5.0111 -0.840731 3.01497 0
M  V30 25 C 5.4861 -0.99924 4.46967 0
M  V30 26 N 6.9771 -1.06476 4.50796 0
M  V30 27 C 7.7121 -1.20621 5.6057 0
M  V30 28 N 7.2081 -1.31483 6.80209 0
M  V30 29 N 9.0011 -1.23733 5.48312 0
M  V30 30 H 1.1521 0.564606 2.04758 0
M  V30 31 H 3.4151 0.191177 0.928523 0
M  V30 32 H 3.1211 0.119753 3.51496 0
M  V30 33 H 2.9951 -1.6269 3.40311 0
M  V30 34 H 5.3821 -1.69764 2.41379 0
M  V30 35 H 5.4631 0.0640874 2.5572 0
M  V30 36 H 5.1071 -0.146984 5.07687 0
M  V30 37 H 5.0371 -1.91871 4.90401 0
M  V30 38 H 7.5281 -0.993196 3.64615 0
M  V30 39 H 7.8411 -1.42111 7.59621 0
M  V30 40 H 6.1861 -1.28487 6.8302 0
M  V30 41 H 9.3771 -1.14877 4.53785 0
M  V30 42 H 9.5501 -1.34412 6.33906 0
M  V30 43 N 2.9562 -1.48159 -0.537278 0
M  V30 44 C 4.3722 -1.34118 -0.865129 0
M  V30 45 C 4.5722 -0.346678 -1.98495 0
M  V30 46 O 3.6282 0.234715 -2.51407 0
M  V30 47 C 4.9412 -2.73963 -1.23954 0
M  V30 48 C 6.4892 -2.82397 -1.34984 0
M  V30 49 C 6.9642 -4.22928 -1.75772 0
M  V30 50 N 8.4552 -4.25566 -1.82887 0
M  V30 51 C 9.1902 -5.31235 -2.15817 0
M  V30 52 N 8.6862 -6.47189 -2.47222 0
M  V30 53 N 10.4792 -5.18624 -2.16761 0
M  V30 54 H 2.6302 -2.1144 0.201715 0
M  V30 55 H 4.8932 -0.947598 0.0275949 0
M  V30 56 H 4.5992 -3.48264 -0.490381 0
M  V30 57 H 4.4732 -3.0702 -2.19132 0
M  V30 58 H 6.8602 -2.08356 -2.08978 0
M  V30 59 H 6.9412 -2.5297 -0.379448 0
M  V30 60 H 6.5852 -4.97482 -1.02341 0
M  V30 61 H 6.5152 -4.49794 -2.73848 0
M  V30 62 H 9.0062 -3.41924 -1.60924 0
M  V30 63 H 9.3192 -7.23564 -2.71433 0
M  V30 64 H 7.6642 -6.50476 -2.44757 0
M  V30 65 H 10.8552 -4.27056 -1.91679 0
M  V30 66 H 11.0282 -6.01078 -2.42093 0
M  V30 67 N 4.4343 0.785586 -1.36625 0
M  V30 68 C 5.7113 1.53198 -1.21613 0
M  V30 69 C 6.0913 2.10187 0.196113 0
M  V30 70 O 5.4393 1.94318 1.20219 0
M  V30 71 C 5.6493 2.62388 -2.30116 0
M  V30 72 C 6.9973 3.30167 -2.66974 0
M  V30 73 O 8.0213 2.72674 -2.29188 0
M  V30 74 O 6.8803 4.34077 -3.32023 0
M  V30 75 H 3.9743 0.677865 -0.473738 0
M  V30 76 H 6.5203 0.823739 -1.48367 0
M  V30 77 H 5.2923 2.18299 -3.24748 0
M  V30 78 H 4.9153 3.40827 -2.0475 0
M  V30 79 N 5.9124 1.20967 1.01018 0
M  V30 80 C 6.8224 0.980157 2.13143 0
M  V30 81 C 7.8384 -0.0660665 1.73875 0
M  V30 82 O 9.0144 0.122821 2.01025 0
M  V30 83 C 6.0794 0.54216 3.42435 0
M  V30 84 C 5.1404 1.65999 3.95908 0
M  V30 85 C 4.3734 1.2428 5.19028 0
M  V30 86 O 4.5964 0.114196 5.70286 0
M  V30 87 O 3.5304 2.05271 5.65816 0
M  V30 88 H 7.3564 1.91913 2.35379 0
M  V30 89 H 4.9414 0.994099 1.11526 0
M  V30 90 H 6.8234 0.30744 4.20277 0
M  V30 91 H 5.4984 -0.36815 3.216 0
M  V30 92 H 4.4054 1.94906 3.19316 0
M  V30 93 H 5.7384 2.54753 4.21143 0
M  V30 94 N 7.3905 -1.2043 1.01659 0
M  V30 95 C 8.8065 -1.41852 0.731442 0
M  V30 96 C 9.0065 -1.89358 -0.688898 0
M  V30 97 O 8.0625 -2.06247 -1.45666 0
M  V30 98 C 9.3755 -2.44019 1.75714 0
M  V30 99 C 10.9235 -2.57785 1.77527 0
M  V30 100 C 11.3985 -3.63194 2.79023 0
M  V30 101 N 12.8895 -3.70678 2.77763 0
M  V30 102 C 13.6245 -4.51897 3.52954 0
M  V30 103 N 13.1205 -5.36921 4.37821 0
M  V30 104 N 14.9135 -4.4643 3.41551 0
M  V30 105 H 7.0645 -0.879093 1.93354 0
M  V30 106 H 9.3275 -0.448425 0.835236 0
M  V30 107 H 9.0335 -2.1611 2.77469 0
M  V30 108 H 8.9075 -3.43007 1.56927 0
M  V30 109 H 11.2945 -2.85023 0.764569 0
M  V30 110 H 11.3755 -1.58992 2.00387 0
M  V30 111 H 11.0195 -3.36699 3.80258 0
M  V30 112 H 10.9495 -4.61609 2.53425 0
M  V30 113 H 13.4405 -3.09944 2.16201 0
M  V30 114 H 13.7535 -5.95981 4.91962 0
M  V30 115 H 12.0985 -5.36424 4.41899 0
M  V30 116 H 15.2895 -3.79042 2.74672 0
M  V30 117 H 15.4625 -5.09491 4.00404 0
M  V30 118 N 8.8686 -0.792821 -1.36206 0
M  V30 119 C 10.1456 -0.290627 -1.93429 0
M  V30 120 C 10.5256 1.21773 -1.72437 0
M  V30 121 O 9.8736 2.0108 -1.08531 0
M  V30 122 C 10.0836 -0.686973 -3.42172 0
M  V30 123 C 11.4316 -0.668643 -4.19302 0
M  V30 124 O 12.4556 -0.627658 -3.50626 0
M  V30 125 O 11.3146 -0.714597 -5.41808 0
M  V30 126 H 8.4086 -0.0727927 -0.82379 0
M  V30 127 H 10.9546 -0.875593 -1.45367 0
M  V30 128 H 9.7266 -1.72711 -3.51122 0
M  V30 129 H 9.3496 -0.0760733 -3.97527 0
M  V30 130 N 10.3467 1.47872 -0.545128 0
M  V30 131 C 11.3097 2.28337 0.198717 0
M  V30 132 C 12.3097 1.36255 0.853888 0
M  V30 133 O 13.4997 1.59003 0.711606 0
M  V30 134 C 10.6317 3.15585 1.28915 0
M  V30 135 H 11.8247 2.95567 -0.507941 0
M  V30 136 H 9.3777 1.53362 -0.301616 0
M  V30 137 H 10.1127 2.53019 2.02859 0
M  V30 138 H 9.8977 3.83337 0.824309 0
M  V30 139 H 11.3877 3.76243 1.81194 0
M  V30 140 N 11.8248 0.280983 1.55075 0
M  V30 141 C 12.7718 -0.603937 2.22758 0
M  V30 142 C 13.7418 -1.1452 1.20309 0
M  V30 143 O 14.9268 -1.19343 1.48869 0
M  V30 144 C 12.0668 -1.77947 2.95684 0
M  V30 145 C 11.1798 -1.2715 4.12864 0
M  V30 146 C 10.3148 -2.4093 4.7342 0
M  V30 147 C 9.3538 -1.87165 5.82783 0
M  V30 148 N 8.4908 -2.94441 6.37377 0
M  V30 149 H 13.3308 -0.020124 2.97993 0
M  V30 150 H 10.8678 0.00183425 1.471 0
M  V30 151 H 12.8258 -2.47055 3.36184 0
M  V30 152 H 11.4558 -2.33522 2.22861 0
M  V30 153 H 10.5078 -0.473331 3.77444 0
M  V30 154 H 11.8198 -0.837751 4.91715 0
M  V30 155 H 10.9738 -3.18021 5.1667 0
M  V30 156 H 9.7128 -2.87623 3.93859 0
M  V30 157 H 8.7178 -1.08556 5.38976 0
M  V30 158 H 9.9428 -1.41401 6.64216 0
M  V30 159 H 7.8888 -3.40505 5.60707 0
M  V30 160 H 7.8058 -2.55501 7.11516 0
M  V30 161 H 9.0738 -3.71489 6.85285 0
M  V30 162 N 13.3029 -1.57598 0.00835791 0
M  V30 163 C 14.2659 -2.07884 -0.965242 0
M  V30 164 C 15.2659 -0.989825 -1.26725 0
M  V30 165 O 16.4559 -1.25218 -1.21104 0
M  V30 166 C 13.5879 -2.52731 -2.28779 0
M  V30 167 H 14.7809 -2.95178 -0.530112 0
M  V30 168 H 12.3339 -1.54458 -0.239283 0
M  V30 169 H 13.0689 -1.68705 -2.76964 0
M  V30 170 H 12.8539 -3.32272 -2.08177 0
M  V30 171 H 14.3439 -2.91933 -2.98605 0
M  V30 172 N 14.781 0.264519 -1.55364 0
M  V30 173 C 15.714 1.35297 -1.83766 0
M  V30 174 C 16.692 1.47171 -0.691336 0
M  V30 175 O 17.876 1.63663 -0.935238 0
M  V30 176 C 15.003 2.72847 -2.00679 0
M  V30 177 C 14.049 2.78214 -3.23263 0
M  V30 178 S 14.882 2.36601 -4.80396 0
M  V30 179 C 16.038 3.7611 -5.00292 0
M  V30 180 H 16.271 1.11003 -2.758 0
M  V30 181 H 13.804 0.464596 -1.47244 0
M  V30 182 H 15.762 3.52057 -2.11108 0
M  V30 183 H 14.423 2.94388 -1.09518 0
M  V30 184 H 13.616 3.7919 -3.3201 0
M  V30 185 H 13.218 2.07034 -3.11469 0
M  V30 186 H 15.51 4.71457 -4.86554 0
M  V30 187 H 16.453 3.7231 -6.02321 0
M  V30 188 H 16.861 3.67806 -4.28228 0
M  V30 189 N 16.2591 1.48442 0.529413 0
M  V30 190 C 17.6751 1.34575 0.858004 0
M  V30 191 C 17.8751 0.3572 1.98309 0
M  V30 192 O 16.9311 -0.221379 2.51528 0
M  V30 193 C 18.2441 2.74617 1.22499 0
M  V30 194 C 19.7921 2.83109 1.33484 0
M  V30 195 C 20.2671 4.23854 1.73526 0
M  V30 196 N 21.7581 4.2653 1.80628 0
M  V30 197 C 22.4931 5.32372 2.12997 0
M  V30 198 N 21.9891 6.48491 2.43786 0
M  V30 199 N 23.7821 5.19766 2.14008 0
M  V30 200 H 15.9331 2.1133 -0.212925 0
M  V30 201 H 18.1961 0.947439 -0.0326199 0
M  V30 202 H 17.9021 3.4852 0.471905 0
M  V30 203 H 17.7761 3.08177 2.17501 0
M  V30 204 H 20.1631 2.09462 2.0787 0
M  V30 205 H 20.2441 2.53168 0.366027 0
M  V30 206 H 19.8881 4.98018 0.997013 0
M  V30 207 H 19.8181 4.5124 2.71459 0
M  V30 208 H 22.3091 3.42772 1.59108 0
M  V30 209 H 22.6221 7.24993 2.67592 0
M  V30 210 H 20.9671 6.51765 2.41304 0
M  V30 211 H 24.1581 4.28066 1.89412 0
M  V30 212 H 24.3311 6.02354 2.38902 0
M  V30 213 N 17.7372 -0.778329 1.37039 0
M  V30 214 C 18.9622 -1.57248 1.35233 0
M  V30 215 C 19.3872 -1.87999 -0.0615568 0
M  V30 216 O 18.7452 -1.48734 -1.03672 0
M  V30 217 C 18.7932 -2.86353 2.19167 0
M  V30 218 O 17.8972 -3.80442 1.59178 0
M  V30 219 H 17.2382 -0.476569 0.462362 0
M  V30 220 H 19.7682 -0.963853 1.80474 0
M  V30 221 H 19.7782 -3.35519 2.32145 0
M  V30 222 H 18.4532 -2.63299 3.21942 0
M  V30 223 H 17.0302 -3.39067 1.55203 0
M  V30 224 N 19.2153 -1.21501 -1.00376 0
M  V30 225 C 20.1453 -0.999478 -2.11028 0
M  V30 226 C 21.1263 0.0759671 -1.6993 0
M  V30 227 O 22.3113 -0.0841106 -1.94018 0
M  V30 228 C 19.4413 -0.564709 -3.42678 0
M  V30 229 C 18.3953 -1.58486 -3.97576 0
M  V30 230 C 17.7213 -1.00628 -5.25146 0
M  V30 231 C 19.0213 -2.97204 -4.29496 0
M  V30 232 H 20.7153 -1.92495 -2.29317 0
M  V30 233 H 18.2613 -0.92693 -1.102 0
M  V30 234 H 20.2143 -0.401091 -4.19487 0
M  V30 235 H 18.9383 0.396411 -3.24185 0
M  V30 236 H 17.5973 -1.73606 -3.22888 0
M  V30 237 H 17.2453 -0.0368439 -5.02987 0
M  V30 238 H 16.9453 -1.68771 -5.62841 0
M  V30 239 H 18.4693 -0.854015 -6.04598 0
M  V30 240 H 19.8833 -2.8552 -4.97143 0
M  V30 241 H 18.2803 -3.62372 -4.78338 0
M  V30 242 H 19.3503 -3.47956 -3.3772 0
M  V30 243 N 20.6934 1.19889 -1.02296 0
M  V30 244 C 21.6254 2.22334 -0.556787 0
M  V30 245 C 22.6384 1.58674 0.364199 0
M  V30 246 O 23.8274 1.77768 0.161533 0
M  V30 247 C 20.9274 3.38257 0.208694 0
M  V30 248 C 20.1004 4.31504 -0.71577 0
M  V30 249 C 19.1594 5.262 0.00325597 0
M  V30 250 O 18.1854 5.65798 -0.621357 0
M  V30 251 N 19.3874 5.66303 1.27599 0
M  V30 252 H 22.1524 2.62957 -1.43784 0
M  V30 253 H 19.7134 1.34495 -0.901261 0
M  V30 254 H 21.7054 3.98616 0.699111 0
M  V30 255 H 20.2754 2.96472 0.991102 0
M  V30 256 H 19.4954 3.69016 -1.38638 0
M  V30 257 H 20.7834 4.9072 -1.34428 0
M  V30 258 H 20.1814 5.36155 1.80429 0
M  V30 259 H 18.7384 6.28942 1.71102 0
M  V30 260 N 22.1715 0.800033 1.35784 0
M  V30 261 C 23.5825 0.439142 1.81462 0
M  V30 262 C 23.9335 -1.03813 1.66485 0
M  V30 263 O 23.0585 -1.80626 1.19177 0
M  V30 264 C 23.6535 0.790314 3.29453 0
M  V30 265 C 22.2125 0.482111 3.733 0
M  V30 266 C 21.3595 1.01938 2.57883 0
M  V30 267 H 24.3105 0.992254 1.23855 0
M  V30 268 H 24.3315 0.0853677 3.80404 0
M  V30 269 H 23.8435 1.86554 3.40322 0
M  V30 270 H 21.9445 -0.584652 3.67984 0
M  V30 271 H 22.0575 1.01015 4.6833 0
M  V30 272 H 20.4215 0.442043 2.50835 0
M  V30 273 H 21.2045 2.10059 2.71533 0
M  V30 274 N 23.6496 -1.47581 0.552962 0
M  V30 275 C 25.0606 -1.86324 0.118463 0
M  V30 276 C 25.4116 -1.46006 -1.3106 0
M  V30 277 O 24.5366 -0.861182 -1.98526 0
M  V30 278 C 25.1316 -3.3816 0.20821 0
M  V30 279 C 23.6906 -3.7601 -0.171226 0
M  V30 280 C 22.8376 -2.71634 0.557686 0
M  V30 281 H 25.7886 -1.39159 0.762928 0
M  V30 282 H 25.8096 -3.76141 -0.574278 0
M  V30 283 H 25.3216 -3.67473 1.24841 0
M  V30 284 H 23.4226 -3.52313 -1.21269 0
M  V30 285 H 23.5356 -4.78745 0.184379 0
M  V30 286 H 21.8996 -2.547 0.00125792 0
M  V30 287 H 22.6826 -3.0379 1.59896 0
M  V30 288 N 25.1277 -0.289203 -1.54924 0
M  V30 289 C 26.4047 0.376032 -1.91951 0
M  V30 290 C 26.7847 1.72622 -1.21511 0
M  V30 291 O 26.1327 2.25853 -0.346767 0
M  V30 292 C 26.3427 0.502378 -3.45365 0
M  V30 293 C 27.6907 0.778741 -4.17398 0
M  V30 294 O 28.7147 0.586647 -3.51336 0
M  V30 295 O 27.5737 1.14698 -5.34328 0
M  V30 296 H 24.6677 0.208167 -0.800372 0
M  V30 297 H 27.2137 -0.336394 -1.66332 0
M  V30 298 H 25.9857 -0.447255 -3.88736 0
M  V30 299 H 25.6087 1.26373 -3.76982 0
M  V30 300 N 26.6058 1.57591 -0.0167156 0
M  V30 301 C 27.8538 1.90906 0.663285 0
M  V30 302 C 28.1748 0.892509 1.73376 0
M  V30 303 O 27.4448 -0.0677623 1.95783 0
M  V30 304 H 26.0248 0.704637 0.247983 0
M  V30 305 H 28.6868 1.94803 -0.0615909 0
M  V30 306 H 27.7828 2.9116 1.12393 0
M  V30 307 N 28.0839 -0.256276 1.55502 0
M  V30 308 C 29.0469 -1.30047 1.88734 0
M  V30 309 C 30.0469 -1.4154 0.763086 0
M  V30 310 O 31.2369 -1.40403 1.03115 0
M  V30 311 C 28.3689 -2.67953 2.10747 0
M  V30 312 H 29.5619 -1.01802 2.82093 0
M  V30 313 H 27.1149 -0.495134 1.4825 0
M  V30 314 H 27.8499 -3.01351 1.19825 0
M  V30 315 H 27.6349 -2.60993 2.92617 0
M  V30 316 H 29.1249 -3.43368 2.37673 0
M  V30 317 N 29.562 -1.4872 -0.521534 0
M  V30 318 C 30.81 -1.56857 -1.27437 0
M  V30 319 C 31.131 -0.247982 -1.93417 0
M  V30 320 O 30.401 0.731151 -1.81744 0
M  V30 321 H 28.981 -0.577885 -0.473347 0
M  V30 322 H 31.643 -1.85233 -0.606205 0
M  V30 323 H 30.739 -2.35402 -2.0492 0
M  V30 324 N 31.0401 0.771051 -1.3745 0
M  V30 325 C 32.2651 1.56529 -1.36065 0
M  V30 326 C 32.6901 1.88029 0.0515859 0
M  V30 327 O 32.0481 1.49282 1.02882 0
M  V30 328 C 32.0961 2.85187 -2.20683 0
M  V30 329 O 31.2001 3.79593 -1.61193 0
M  V30 330 H 30.5411 0.47411 -0.464883 0
M  V30 331 H 33.0711 0.954269 -1.80983 0
M  V30 332 H 33.0811 3.34283 -2.33921 0
M  V30 333 H 31.7561 2.61588 -3.23334 0
M  V30 334 H 30.3331 3.38239 -1.56999 0
M  V30 335 N 32.5182 1.22032 0.997298 0
M  V30 336 C 33.9292 1.0397 1.55071 0
M  V30 337 C 34.2802 -0.398192 1.92117 0
M  V30 338 O 33.4052 -1.28254 1.74298 0
M  V30 339 C 34.0002 1.88109 2.81781 0
M  V30 340 C 32.5592 1.74357 3.33581 0
M  V30 341 C 31.7062 1.84846 2.06706 0
M  V30 342 H 34.6572 1.35941 0.818883 0
M  V30 343 H 34.6782 1.39589 3.53971 0
M  V30 344 H 34.1902 2.92754 2.54787 0
M  V30 345 H 32.2912 0.72427 3.65493 0
M  V30 346 H 32.4042 2.56772 4.04481 0
M  V30 347 H 30.7682 1.28238 2.20062 0
M  V30 348 H 31.5512 2.91014 1.82114 0
M  V30 349 N 33.9963 -1.19345 1.0293 0
M  V30 350 C 35.4073 -1.70725 0.755633 0
M  V30 351 C 35.7583 -1.82326 -0.724676 0
M  V30 352 O 34.8833 -1.49471 -1.56484 0
M  V30 353 C 35.4783 -3.10084 1.36503 0
M  V30 354 C 34.0373 -3.58723 1.13994 0
M  V30 355 C 33.1843 -2.35577 1.46283 0
M  V30 356 H 36.1353 -1.0418 1.19718 0
M  V30 357 H 36.1563 -3.72787 0.762217 0
M  V30 358 H 35.6683 -3.01609 2.44241 0
M  V30 359 H 33.7693 -3.72512 0.0807901 0
M  V30 360 H 33.8823 -4.42816 1.82894 0
M  V30 361 H 32.2463 -2.38935 0.88217 0
M  V30 362 H 33.0293 -2.29731 2.55105 0
M  V30 363 N 35.4744 -0.807222 -1.35358 0
M  V30 364 C 36.3844 -0.219594 -2.3357 0
M  V30 365 C 37.4004 0.637734 -1.61892 0
M  V30 366 O 38.5764 0.549336 -1.93763 0
M  V30 367 C 35.6414 0.62158 -3.41083 0
M  V30 368 C 34.7024 -0.256315 -4.28534 0
M  V30 369 C 33.9354 0.544807 -5.30912 0
M  V30 370 O 34.1584 1.77944 -5.41934 0
M  V30 371 O 33.0924 -0.0646478 -6.01865 0
M  V30 372 H 36.9184 -1.03208 -2.85625 0
M  V30 373 H 34.5034 -0.569025 -1.38139 0
M  V30 374 H 36.3854 1.10067 -4.06772 0
M  V30 375 H 35.0604 1.41165 -2.91297 0
M  V30 376 H 33.9674 -0.782559 -3.65823 0
M  V30 377 H 35.3004 -1.01034 -4.81719 0
M  V30 378 N 36.9525 1.47285 -0.560781 0
M  V30 379 C 38.1775 2.07359 -0.0410566 0
M  V30 380 C 38.6025 1.41017 1.24483 0
M  V30 381 O 37.9605 0.486368 1.74654 0
M  V30 382 C 38.0085 3.6035 0.134123 0
M  V30 383 O 37.1125 3.94681 1.19587 0
M  V30 384 H 36.4535 0.661887 -0.0529291 0
M  V30 385 H 38.9835 1.89252 -0.777482 0
M  V30 386 H 38.9935 4.0652 0.347207 0
M  V30 387 H 37.6685 4.08034 -0.805047 0
M  V30 388 H 36.2455 3.60251 0.962987 0
M  V30 389 N 38.4306 0.297415 1.54768 0
M  V30 390 C 39.3606 -0.573494 2.26348 0
M  V30 391 C 40.3416 -1.14085 1.26169 0
M  V30 392 O 41.5266 -1.17086 1.54934 0
M  V30 393 C 38.6566 -1.74716 3.00153 0
M  V30 394 C 37.6106 -1.31032 4.07449 0
M  V30 395 C 36.9366 -2.56887 4.68949 0
M  V30 396 C 38.2366 -0.444183 5.20408 0
M  V30 397 H 39.9306 0.0235131 2.99391 0
M  V30 398 H 37.4766 0.0127488 1.43994 0
M  V30 399 H 39.4296 -2.3625 3.48947 0
M  V30 400 H 38.1536 -2.37035 2.24682 0
M  V30 401 H 36.8126 -0.718066 3.59499 0
M  V30 402 H 36.4606 -3.17512 3.90122 0
M  V30 403 H 36.1606 -2.2836 5.41411 0
M  V30 404 H 37.6846 -3.19229 5.20505 0
M  V30 405 H 39.0986 -0.9651 5.65118 0
M  V30 406 H 37.4956 -0.252846 5.99567 0
M  V30 407 H 38.5656 0.531609 4.81977 0
M  V30 408 N 39.9087 -1.5758 0.0250728 0
M  V30 409 C 41.3247 -1.56124 -0.331282 0
M  V30 410 C 41.5247 -1.03029 -1.73169 0
M  V30 411 O 40.5807 -0.675215 -2.43305 0
M  V30 412 C 41.8937 -3.00139 -0.183584 0
M  V30 413 C 43.4417 -3.11946 -0.256654 0
M  V30 414 C 43.9167 -4.57793 -0.137792 0
M  V30 415 N 45.4077 -4.6279 -0.194904 0
M  V30 416 C 46.1427 -5.7326 -0.126655 0
M  V30 417 N 45.6387 -6.928 -0.00755288 0
M  V30 418 N 47.4317 -5.61811 -0.180348 0
M  V30 419 H 39.5827 -1.90424 0.94087 0
M  V30 420 H 41.8457 -0.875761 0.362968 0
M  V30 421 H 41.5517 -3.4292 0.780927 0
M  V30 422 H 41.4257 -3.64899 -0.955448 0
M  V30 423 H 43.8127 -2.69079 -1.21162 0
M  V30 424 H 43.8937 -2.49915 0.545517 0
M  V30 425 H 43.5377 -5.01339 0.813739 0
M  V30 426 H 43.4677 -5.17798 -0.958775 0
M  V30 427 H 45.9587 -3.76807 -0.287267 0
M  V30 428 H 46.2717 -7.72791 0.0379428 0
M  V30 429 H 44.6167 -6.94995 0.0271731 0
M  V30 430 H 47.8077 -4.6731 -0.271767 0
M  V30 431 H 47.9807 -6.47882 -0.123697 0
M  V30 432 N 41.3868 0.248026 -1.55636 0
M  V30 433 C 42.3348 1.32683 -1.91045 0
M  V30 434 C 43.3288 1.49883 -0.789401 0
M  V30 435 O 44.5348 1.51371 -0.974007 0
M  V30 436 H 40.9098 0.444272 -0.606734 0
M  V30 437 H 42.8808 1.00085 -2.81115 0
M  V30 438 C 41.6298 2.6755 -2.22064 0
M  V30 439 H 40.9528 2.55114 -3.07826 0
M  V30 440 H 42.3928 3.41912 -2.50743 0
M  V30 441 C 40.8518 3.20556 -1.0366 0
M  V30 442 O 41.3818 4.00695 -0.284016 0
M  V30 443 N 39.5878 2.78568 -0.82753 0
M  V30 444 H 39.1348 2.1351 -1.44123 0
M  V30 445 H 39.0928 3.14378 -0.0369803 0
M  V30 446 N 42.8649 1.48995 0.513639 0
M  V30 447 C 44.1129 1.57531 1.26604 0
M  V30 448 C 44.4339 0.258236 1.93283 0
M  V30 449 O 43.7039 -0.721502 1.8213 0
M  V30 450 H 42.2839 0.580387 0.470276 0
M  V30 451 H 44.9459 1.85552 0.596373 0
M  V30 452 H 44.0419 2.36486 2.03669 0
M  V30 453 N 44.343 -0.763751 1.37857 0
M  V30 454 C 45.573 -1.55067 1.3652 0
M  V30 455 C 45.981 -1.89135 -0.0494227 0
M  V30 456 O 45.324 -1.52529 -1.02375 0
M  V30 457 C 45.386 -2.8838 2.14656 0
M  V30 458 C 45.05 -2.76905 3.63555 0
M  V30 459 C 46.047 -2.4739 4.57268 0
M  V30 460 C 43.732 -2.94676 4.06781 0
M  V30 461 C 45.726 -2.35786 5.92186 0
M  V30 462 C 43.413 -2.82692 5.41782 0
M  V30 463 C 44.411 -2.53289 6.34298 0
M  V30 464 O 44.099 -2.41345 7.66817 0
M  V30 465 H 43.831 -0.486776 0.469069 0
M  V30 466 H 46.385 -0.953812 1.81911 0
M  V30 467 H 44.615 -3.50217 1.63967 0
M  V30 468 H 46.304 -3.49828 2.05852 0
M  V30 469 H 47.07 -2.33339 4.2518 0
M  V30 470 H 42.949 -3.16563 3.35126 0
M  V30 471 H 46.493 -2.12757 6.64365 0
M  V30 472 H 42.39 -2.96314 5.7347 0
M  V30 473 H 43.158 -2.56634 7.77226 0
M  V30 474 N 45.8211 -1.22559 -0.990812 0
M  V30 475 C 47.0671 -1.05297 -1.73322 0
M  V30 476 C 47.4001 0.410655 -1.89808 0
M  V30 477 O 46.6751 1.30439 -1.44277 0
M  V30 478 C 46.9581 -1.76713 -3.13759 0
M  V30 479 C 46.8111 -3.30684 -3.04907 0
M  V30 480 C 48.1301 -1.52121 -4.12974 0
M  V30 481 H 45.2491 -0.38392 -0.629106 0
M  V30 482 H 47.8911 -1.50926 -1.15418 0
M  V30 483 H 46.0411 -1.37924 -3.63193 0
M  V30 484 H 47.7131 -3.7893 -2.63077 0
M  V30 485 H 45.9561 -3.60253 -2.41661 0
M  V30 486 H 46.6271 -3.75833 -4.04294 0
M  V30 487 H 49.1031 -1.85819 -3.72304 0
M  V30 488 H 47.9791 -2.04582 -5.0935 0
M  V30 489 H 48.2401 -0.454257 -4.3976 0
M  V30 490 N 47.2992 1.18797 -1.03562 0
M  V30 491 C 48.2462 2.22253 -0.622259 0
M  V30 492 C 49.2162 1.61987 0.36736 0
M  V30 493 O 50.4012 1.88986 0.262492 0
M  V30 494 C 47.5412 3.45097 0.0138462 0
M  V30 495 C 46.6542 4.19722 -1.02263 0
M  V30 496 C 45.7892 5.30009 -0.355573 0
M  V30 497 C 44.8282 5.96399 -1.37749 0
M  V30 498 N 43.9652 6.98234 -0.735766 0
M  V30 499 H 48.8052 2.56968 -1.50903 0
M  V30 500 H 46.3422 1.26245 -0.755017 0
M  V30 501 H 48.3002 4.15279 0.399948 0
M  V30 502 H 46.9302 3.11018 0.864158 0
M  V30 503 H 45.9822 3.48418 -1.52673 0
M  V30 504 H 47.2942 4.65227 -1.79903 0
M  V30 505 H 46.4482 6.0664 0.0850095 0
M  V30 506 H 45.1872 4.85592 0.452967 0
M  V30 507 H 44.1922 5.18512 -1.82826 0
M  V30 508 H 45.4172 6.42899 -2.18764 0
M  V30 509 H 43.3632 6.55979 0.0525597 0
M  V30 510 H 43.2802 7.41965 -1.44995 0
M  V30 511 H 44.5482 7.78845 -0.31941 0
M  V30 512 N 48.7773 0.814389 1.34928 0
M  V30 513 C 50.0023 0.410097 2.03305 0
M  V30 514 C 50.4273 -0.973464 1.60951 0
M  V30 515 O 49.7853 -1.63185 0.789964 0
M  V30 516 C 49.8333 0.51049 3.56968 0
M  V30 517 O 48.9373 -0.473035 4.09678 0
M  V30 518 H 48.2783 0.170088 0.641846 0
M  V30 519 H 50.8083 1.10244 1.72358 0
M  V30 520 H 50.8183 0.383135 4.06197 0
M  V30 521 H 49.4933 1.51963 3.87144 0
M  V30 522 H 48.0703 -0.305272 3.71648 0
M  V30 523 N 50.2554 -1.46986 0.568584 0
M  V30 524 C 51.4954 -2.04336 0.0512999 0
M  V30 525 C 51.8594 -1.43214 -1.27881 0
M  V30 526 O 53.0604 -1.91679 -1.88448 0
M  V30 527 C 51.3314 -3.57389 -0.0282328 0
M  V30 528 S 52.8904 -4.36056 -0.489991 0
M  V30 529 H 49.7084 -0.71034 0.0306349 0
M  V30 530 H 52.3104 -1.80212 0.757891 0
M  V30 531 H 51.0144 -3.99395 0.944011 0
M  V30 532 H 50.5454 -3.86028 -0.75803 0
M  V30 533 H 52.5604 -4.6441 -1.74752 0
M  V30 534 N 51.7335 -0.305618 -1.54608 0
M  V30 535 C 52.9795 0.302746 -2.00528 0
M  V30 536 C 53.3125 1.53184 -1.19367 0
M  V30 537 O 52.5875 1.92598 -0.271321 0
M  V30 538 C 52.8705 0.654756 -3.54097 0
M  V30 539 C 52.7235 -0.583793 -4.45995 0
M  V30 540 C 54.0425 1.47947 -4.14487 0
M  V30 541 H 51.1615 0.108564 -0.72896 0
M  V30 542 H 53.8035 -0.418634 -1.85331 0
M  V30 543 H 51.9535 1.26935 -3.67178 0
M  V30 544 H 53.6255 -1.22224 -4.44814 0
M  V30 545 H 51.8685 -1.21615 -4.16404 0
M  V30 546 H 52.5395 -0.293287 -5.5122 0
M  V30 547 H 55.0155 0.96013 -4.04871 0
M  V30 548 H 53.8915 1.69454 -5.22088 0
M  V30 549 H 54.1525 2.47011 -3.66658 0
M  V30 550 N 53.2116 1.57565 -0.0334293 0
M  V30 551 C 54.4366 1.96689 0.657895 0
M  V30 552 C 54.8616 0.910057 1.64619 0
M  V30 553 O 54.2196 -0.128598 1.80843 0
M  V30 554 C 54.2676 3.34905 1.33683 0
M  V30 555 O 53.3716 3.31574 2.45219 0
M  V30 556 H 52.7126 0.641205 0.172489 0
M  V30 557 H 55.2426 2.04372 -0.0965621 0
M  V30 558 H 55.2526 3.71234 1.69262 0
M  V30 559 H 53.9276 4.11366 0.612411 0
M  V30 560 H 52.5046 3.06968 2.11719 0
M  V30 561 N 54.6897 -0.239769 1.55765 0
M  V30 562 C 56.1007 -0.808263 1.68297 0
M  V30 563 C 56.4517 -1.85736 0.632181 0
M  V30 564 O 55.5767 -2.15277 -0.220204 0
M  V30 565 C 56.1717 -1.47284 3.05111 0
M  V30 566 C 54.7307 -1.98895 3.19559 0
M  V30 567 C 53.8777 -0.842575 2.64189 0
M  V30 568 H 56.8287 -0.0154422 1.58692 0
M  V30 569 H 56.8497 -2.34111 2.99954 0
M  V30 570 H 56.3617 -0.709053 3.81568 0
M  V30 571 H 54.4627 -2.78132 2.47938 0
M  V30 572 H 54.5757 -2.18143 4.26556 0
M  V30 573 H 52.9397 -1.24501 2.22197 0
M  V30 574 H 53.7227 -0.0917552 3.43177 0
M  V30 575 N 56.1678 -1.49265 -0.50573 0
M  V30 576 C 57.0978 -1.68495 -1.61653 0
M  V30 577 C 58.0788 -0.53366 -1.61512 0
M  V30 578 O 59.2638 -0.76897 -1.78327 0
M  V30 579 C 56.3938 -1.74709 -3.00157 0
M  V30 580 C 55.3478 -2.89581 -3.15162 0
M  V30 581 C 54.6738 -2.80903 -4.5497 0
M  V30 582 C 55.9738 -4.30578 -2.95634 0
M  V30 583 H 57.6678 -2.61493 -1.45814 0
M  V30 584 H 55.2138 -1.25838 -0.70005 0
M  V30 585 H 57.1668 -1.86748 -3.77761 0
M  V30 586 H 55.8908 -0.783067 -3.17074 0
M  V30 587 H 54.5498 -2.77136 -2.39982 0
M  V30 588 H 54.1978 -1.82419 -4.68756 0
M  V30 589 H 53.8978 -3.57999 -4.65951 0
M  V30 590 H 55.4218 -2.94944 -5.34641 0
M  V30 591 H 56.8358 -4.4373 -3.63011 0
M  V30 592 H 55.2328 -5.0886 -3.18091 0
M  V30 593 H 56.3028 -4.45352 -1.91806 0
M  V30 594 N 57.6459 0.756429 -1.3826 0
M  V30 595 C 59.0619 1.0591 -1.19395 0
M  V30 596 C 59.2619 2.01459 -0.0406567 0
M  V30 597 O 58.3179 2.44909 0.614467 0
M  V30 598 C 59.6309 1.64191 -2.51916 0
M  V30 599 C 61.1789 1.76376 -2.58574 0
M  V30 600 C 61.6539 2.38069 -3.91264 0
M  V30 601 N 63.1449 2.45503 -3.92788 0
M  V30 602 C 63.8799 2.94126 -4.92217 0
M  V30 603 N 63.3759 3.42805 -6.02043 0
M  V30 604 N 65.1689 2.9314 -4.7961 0
M  V30 605 H 57.3199 0.122313 -2.12048 0
M  V30 606 H 59.5829 0.116892 -0.940766 0
M  V30 607 H 59.2889 1.01451 -3.3675 0
M  V30 608 H 59.1629 2.6329 -2.70108 0
M  V30 609 H 61.5499 2.38244 -1.74137 0
M  V30 610 H 61.6309 0.759894 -2.44252 0
M  V30 611 H 61.2749 1.76835 -4.76121 0
M  V30 612 H 61.2049 3.39091 -4.02895 0
M  V30 613 H 63.6959 2.1107 -3.13461 0
M  V30 614 H 64.0089 3.78354 -6.73846 0
M  V30 615 H 62.3539 3.4087 -6.05667 0
M  V30 616 H 65.5449 2.54419 -3.92923 0
M  V30 617 H 65.7179 3.30721 -5.5725 0
M  V30 618 N 59.124 1.23083 0.984299 0
M  V30 619 C 60.056 0.96636 2.07832 0
M  V30 620 C 61.069 -0.0582135 1.62696 0
M  V30 621 O 62.258 0.176843 1.77622 0
M  V30 622 C 59.358 0.433397 3.36117 0
M  V30 623 C 58.531 1.51722 4.10243 0
M  V30 624 C 57.59 0.989821 5.16807 0
M  V30 625 O 56.616 1.67794 5.43906 0
M  V30 626 N 57.818 -0.184367 5.80207 0
M  V30 627 H 60.583 1.90824 2.31098 0
M  V30 628 H 58.144 1.13888 1.1507 0
M  V30 629 H 60.136 0.065699 4.04647 0
M  V30 630 H 58.706 -0.413806 3.09849 0
M  V30 631 H 57.926 2.05786 3.36223 0
M  V30 632 H 59.214 2.24619 4.56534 0
M  V30 633 H 58.612 -0.760062 5.60571 0
M  V30 634 H 57.169 -0.493366 6.4993 0
M  V30 635 N 60.6021 -1.18246 1.0419 0
M  V30 636 C 61.8791 -1.84121 0.660208 0
M  V30 637 C 62.2591 -1.92778 -0.860221 0
M  V30 638 O 61.6071 -1.45464 -1.76217 0
M  V30 639 C 61.8171 -3.22355 1.33747 0
M  V30 640 C 63.1651 -3.98376 1.46906 0
M  V30 641 O 64.1891 -3.31799 1.29568 0
M  V30 642 O 63.0481 -5.17665 1.75171 0
M  V30 643 H 60.1421 -0.794036 0.231161 0
M  V30 644 H 62.6881 -1.25628 1.14087 0
M  V30 645 H 61.4601 -3.10964 2.37522 0
M  V30 646 H 61.0831 -3.88506 0.845515 0
M  V30 647 N 62.0802 -0.821533 -1.34494 0
M  V30 648 C 63.4912 -0.467956 -1.8074 0
M  V30 649 C 63.8422 1.01151 -1.68116 0
M  V30 650 O 62.9672 1.78707 -1.22036 0
M  V30 651 C 63.5622 -0.842627 -3.28154 0
M  V30 652 C 62.1212 -0.541439 -3.72485 0
M  V30 653 C 61.2682 -1.06028 -2.56229 0
M  V30 654 H 64.2192 -1.01183 -1.22261 0
M  V30 655 H 64.2402 -0.145876 -3.8022 0
M  V30 656 H 63.7522 -1.91945 -3.37311 0
M  V30 657 H 61.8532 0.526034 -3.68868 0
M  V30 658 H 61.9662 -1.08453 -4.66663 0
M  V30 659 H 60.3302 -0.481892 -2.501 0
M  V30 660 H 61.1132 -2.14352 -2.68157 0
M  V30 661 N 63.5583 1.46682 -0.576371 0
M  V30 662 C 64.9693 1.86112 -0.148091 0
M  V30 663 C 65.3203 1.48073 1.2872 0
M  V30 664 O 64.4453 0.892656 1.97131 0
M  V30 665 C 65.0403 3.37786 -0.261982 0
M  V30 666 C 63.5993 3.76235 0.111384 0
M  V30 667 C 62.7463 2.70713 -0.60083 0
M  V30 668 H 65.6973 1.37927 -0.78497 0
M  V30 669 H 65.7183 3.77007 0.514364 0
M  V30 670 H 65.2303 3.6544 -1.30671 0
M  V30 671 H 63.3313 3.54198 1.15649 0
M  V30 672 H 63.4443 4.78391 -0.26052 0
M  V30 673 H 61.8083 2.54666 -0.0417783 0
M  V30 674 H 62.5913 3.01208 -1.64708 0
M  V30 675 N 65.0364 0.313813 1.54444 0
M  V30 676 C 66.4524 -0.0391619 1.59552 0
M  V30 677 C 66.6524 -1.51322 1.33056 0
M  V30 678 O 65.7084 -2.26782 1.11022 0
M  V30 679 C 67.0214 0.370302 2.98411 0
M  V30 680 C 68.5694 0.320139 3.11358 0
M  V30 681 C 69.0444 0.704617 4.52547 0
M  V30 682 N 70.5354 0.657645 4.58508 0
M  V30 683 C 71.2704 0.927453 5.6585 0
M  V30 684 N 70.7664 1.26389 6.81174 0
M  V30 685 N 72.5594 0.853662 5.5558 0
M  V30 686 H 64.7104 1.27433 1.69925 0
M  V30 687 H 66.9734 0.517511 0.794284 0
M  V30 688 H 66.6794 1.39694 3.22767 0
M  V30 689 H 66.5534 -0.269619 3.76235 0
M  V30 690 H 68.9404 -0.697275 2.86744 0
M  V30 691 H 69.0214 0.99486 2.35661 0
M  V30 692 H 68.6654 1.7199 4.77893 0
M  V30 693 H 68.5954 0.00768843 5.26599 0
M  V30 694 H 71.0864 0.409067 3.75679 0
M  V30 695 H 71.3994 1.4554 7.58972 0
M  V30 696 H 69.7444 1.30206 6.82694 0
M  V30 697 H 72.9354 0.590383 4.64362 0
M  V30 698 H 73.1084 1.0673 6.3915 0
M  V30 699 N 66.5145 -1.57545 0.0417849 0
M  V30 700 C 67.7625 -1.91937 -0.632829 0
M  V30 701 C 68.0835 -0.919978 -1.71934 0
M  V30 702 O 67.3535 0.0366064 -1.95866 0
M  V30 703 H 65.9335 -0.708493 -0.236742 0
M  V30 704 H 68.5955 -1.9468 0.0925745 0
M  V30 705 H 67.6915 -2.92912 -1.07746 0
M  V30 706 N 67.9926 0.231505 -1.5589 0
M  V30 707 C 69.2396 0.957352 -1.78441 0
M  V30 708 C 69.5676 1.84726 -0.60882 0
M  V30 709 O 68.8226 1.91416 0.40725 0
M  V30 710 C 69.1216 1.83577 -3.0665 0
M  V30 711 C 68.7876 1.09993 -4.37278 0
M  V30 712 C 67.4496 0.896629 -4.72773 0
M  V30 713 C 69.8016 0.579558 -5.17968 0
M  V30 714 C 67.1296 0.160896 -5.86479 0
M  V30 715 C 69.4816 -0.142783 -6.32439 0
M  V30 716 C 68.1456 -0.357427 -6.66542 0
M  V30 717 H 67.4156 0.35032 -0.65296 0
M  V30 718 H 70.0626 0.226259 -1.90159 0
M  V30 719 H 68.3676 2.63441 -2.90011 0
M  V30 720 H 70.0646 2.39934 -3.21298 0
M  V30 721 H 66.6546 1.26835 -4.09403 0
M  V30 722 H 70.8386 0.724125 -4.90989 0
M  V30 723 H 66.0946 -0.0157293 -6.11398 0
M  V30 724 H 70.2686 -0.553559 -6.94196 0
M  V30 725 H 67.8956 -0.929466 -7.54497 0
M  V30 726 N 69.4707 1.49531 0.497807 0
M  V30 727 C 70.7177 1.59179 1.25173 0
M  V30 728 C 71.0457 0.279932 1.92475 0
M  V30 729 O 70.3007 -0.732383 1.81479 0
M  V30 730 C 70.5997 2.70252 2.33878 0
M  V30 731 C 70.2657 4.11644 1.84012 0
M  V30 732 C 68.9277 4.50121 1.70132 0
M  V30 733 C 71.2797 5.00121 1.46725 0
M  V30 734 C 68.6077 5.74845 1.17348 0
M  V30 735 C 70.9597 6.25366 0.95392 0
M  V30 736 C 69.6237 6.6267 0.801538 0
M  V30 737 H 68.8937 0.582478 0.45804 0
M  V30 738 H 71.5407 1.83373 0.551948 0
M  V30 739 H 69.8457 2.40041 3.09657 0
M  V30 740 H 71.5427 2.74925 2.9192 0
M  V30 741 H 68.1327 3.81274 1.95775 0
M  V30 742 H 72.3167 4.71048 1.56294 0
M  V30 743 H 67.5727 6.02444 1.04264 0
M  V30 744 H 71.7467 6.93301 0.656225 0
M  V30 745 H 69.3737 7.59197 0.390351 0
M  V30 746 N 70.9488 -0.749086 1.3866 0
M  V30 747 C 72.1958 -1.50833 1.35114 0
M  V30 748 C 72.5238 -1.94415 -0.0574049 0
M  V30 749 O 71.7788 -1.66065 -1.03541 0
M  V30 750 C 72.0778 -2.7712 2.25697 0
M  V30 751 C 71.7438 -2.52477 3.73585 0
M  V30 752 C 70.4058 -2.45466 4.13884 0
M  V30 753 C 72.7578 -2.31066 4.67181 0
M  V30 754 C 70.0858 -2.15064 5.45861 0
M  V30 755 C 72.4378 -2.02183 5.9942 0
M  V30 756 C 71.1018 -1.93631 6.38798 0
M  V30 757 H 70.3718 -0.551936 0.494416 0
M  V30 758 H 73.0188 -0.860979 1.71054 0
M  V30 759 H 71.3238 -3.46528 1.82827 0
M  V30 760 H 73.0208 -3.35096 2.20254 0
M  V30 761 H 69.6108 -2.58807 3.41638 0
M  V30 762 H 73.7948 -2.35459 4.3689 0
M  V30 763 H 69.0508 -2.06954 5.75308 0
M  V30 764 H 73.2248 -1.8462 6.71482 0
M  V30 765 H 70.8518 -1.69839 7.40985 0
M  V30 766 N 72.4269 -1.23603 -0.977757 0
M  V30 767 C 73.3769 -0.986664 -2.05545 0
M  V30 768 C 74.3609 0.0683009 -1.60755 0
M  V30 769 O 75.5529 -0.144162 -1.76412 0
M  V30 770 C 72.6819 -0.582623 -3.3832 0
M  V30 771 C 71.7679 -1.67313 -3.89701 0
M  V30 772 N 72.1589 -2.90394 -4.14132 0
M  V30 773 C 70.4569 -1.54832 -4.18262 0
M  V30 774 C 71.1579 -3.61017 -4.56116 0
M  V30 775 N 70.1339 -2.8854 -4.60701 0
M  V30 776 H 73.9359 -1.92139 -2.22396 0
M  V30 777 H 71.4499 -1.1358 -1.16074 0
M  V30 778 H 73.4469 -0.38524 -4.15116 0
M  V30 779 H 72.1069 0.34503 -3.22862 0
M  V30 780 H 73.1179 -3.26673 -4.01877 0
M  V30 781 H 69.7949 -0.687969 -4.11793 0
M  V30 782 H 71.1849 -4.66544 -4.83514 0
M  V30 783 N 73.905 1.17692 -1.04816 0
M  V30 784 C 74.835 2.23777 -0.666791 0
M  V30 785 C 75.816 1.66796 0.33361 0
M  V30 786 O 77.001 1.93039 0.212042 0
M  V30 787 C 74.131 3.47281 -0.0367933 0
M  V30 788 C 73.085 4.17059 -0.961546 0
M  V30 789 C 72.411 5.34342 -0.195626 0
M  V30 790 C 73.711 4.69713 -2.28402 0
M  V30 791 H 75.405 2.55933 -1.55367 0
M  V30 792 H 72.951 1.23019 -0.748484 0
M  V30 793 H 74.904 4.20706 0.241775 0
M  V30 794 H 73.628 3.14381 0.885004 0
M  V30 795 H 72.287 3.45541 -1.22462 0
M  V30 796 H 71.935 4.97692 0.728816 0
M  V30 797 H 71.635 5.81966 -0.811775 0
M  V30 798 H 73.159 6.10553 0.0757473 0
M  V30 799 H 74.573 5.34794 -2.06563 0
M  V30 800 H 72.97 5.279 -2.8538 0
M  V30 801 H 74.04 3.86726 -2.92525 0
M  V30 802 N 75.3831 0.828654 1.34056 0
M  V30 803 C 76.6231 0.425394 1.99924 0
M  V30 804 C 76.9871 -0.994294 1.64249 0
M  V30 805 O 78.1881 -1.50074 2.23005 0
M  V30 806 C 76.4591 0.628071 3.51838 0
M  V30 807 S 78.0181 0.318511 4.37642 0
M  V30 808 H 74.8361 0.160465 0.692656 0
M  V30 809 H 77.4381 1.07572 1.63244 0
M  V30 810 H 76.1421 1.66089 3.7529 0
M  V30 811 H 75.6731 -0.0367799 3.93383 0
M  V30 812 H 77.6881 -0.865632 4.88591 0
M  V30 813 N 76.8612 -1.46375 0.584142 0
M  V30 814 C 78.2772 -1.57694 0.245929 0
M  V30 815 C 78.4772 -1.57903 -1.25175 0
M  V30 816 O 77.5332 -1.49676 -2.03355 0
M  V30 817 C 78.8462 -2.87028 0.896402 0
M  V30 818 C 80.3942 -3.00662 0.870127 0
M  V30 819 C 80.8692 -4.32734 1.50017 0
M  V30 820 N 82.3602 -4.39436 1.46458 0
M  V30 821 C 83.0952 -5.40248 1.92144 0
M  V30 822 N 82.5912 -6.47726 2.4581 0
M  V30 823 N 84.3842 -5.31459 1.83052 0
M  V30 824 H 76.5352 -1.44483 1.55687 0
M  V30 825 H 78.7982 -0.689291 0.650831 0
M  V30 826 H 78.5042 -2.9269 1.95002 0
M  V30 827 H 78.3782 -3.75014 0.405486 0
M  V30 828 H 80.7652 -2.94581 -0.174871 0
M  V30 829 H 80.8462 -2.14148 1.39908 0
M  V30 830 H 80.4902 -4.39573 2.54437 0
M  V30 831 H 80.4202 -5.18025 0.946432 0
M  V30 832 H 82.9112 -3.62367 1.07231 0
M  V30 833 H 83.2242 -7.20863 2.78525 0
M  V30 834 H 81.5692 -6.48542 2.49836 0
M  V30 835 H 84.7602 -4.46396 1.40883 0
M  V30 836 H 84.9332 -6.09881 2.18973 0
M  V30 837 N 78.3393 -0.321999 -1.54275 0
M  V30 838 C 79.5863 0.281044 -2.0054 0
M  V30 839 C 79.9143 1.52265 -1.21019 0
M  V30 840 O 79.1693 1.93687 -0.279982 0
M  V30 841 C 79.4683 0.661769 -3.5122 0
M  V30 842 C 79.1343 -0.480482 -4.48333 0
M  V30 843 C 77.7963 -0.794005 -4.74604 0
M  V30 844 C 80.1483 -1.24783 -5.06042 0
M  V30 845 C 77.4763 -1.87763 -5.55844 0
M  V30 846 C 79.8283 -2.32153 -5.88462 0
M  V30 847 C 78.4923 -2.64089 -6.13036 0
M  V30 848 H 77.7623 0.102841 -0.733829 0
M  V30 849 H 80.4093 -0.445453 -1.86247 0
M  V30 850 H 78.7143 1.46867 -3.63232 0
M  V30 851 H 80.4113 1.13989 -3.84457 0
M  V30 852 H 77.0013 -0.226039 -4.28004 0
M  V30 853 H 81.1853 -1.01887 -4.85729 0
M  V30 854 H 76.4413 -2.12954 -5.73115 0
M  V30 855 H 80.6153 -2.92057 -6.32199 0
M  V30 856 H 78.2423 -3.48185 -6.75775 0
M  V30 857 N 79.8174 1.5752 -0.0501392 0
M  V30 858 C 81.0574 1.94521 0.627783 0
M  V30 859 C 81.4214 0.928265 1.68069 0
M  V30 860 O 82.6224 1.18517 2.41261 0
M  V30 861 C 80.8934 3.36319 1.20932 0
M  V30 862 S 82.4524 3.95272 1.90539 0
M  V30 863 H 79.2704 0.680456 0.206158 0
M  V30 864 H 81.8724 1.95139 -0.118829 0
M  V30 865 H 80.5764 4.08132 0.430865 0
M  V30 866 H 80.1074 3.39193 1.99277 0
M  V30 867 H 82.1224 3.80415 3.18589 0
M  V30 868 N 81.2955 -0.223234 1.56011 0
M  V30 869 C 82.2435 -1.29627 1.93131 0
M  V30 870 C 83.2375 -1.48608 0.813146 0
M  V30 871 O 84.4435 -1.49802 0.997966 0
M  V30 872 H 80.8185 -0.434563 0.613726 0
M  V30 873 H 82.7895 -0.955995 2.82672 0
M  V30 874 C 81.5385 -2.63983 2.26292 0
M  V30 875 H 80.8615 -2.50185 3.11846 0
M  V30 876 H 82.3015 -3.3788 2.56151 0
M  V30 877 C 80.7605 -3.18866 1.08747 0
M  V30 878 O 81.2905 -4.00192 0.347727 0
M  V30 879 N 79.4965 -2.77217 0.871743 0
M  V30 880 H 79.0435 -2.1119 1.47501 0
M  V30 881 H 79.0015 -3.1428 0.0869905 0
M  V30 882 N 82.7736 -1.49793 -0.48987 0
M  V30 883 C 84.0196 -1.60078 -1.24511 0
M  V30 884 C 84.3526 -0.291608 -1.91998 0
M  V30 885 O 83.6276 0.705647 -1.81248 0
M  V30 886 C 83.9106 -2.76791 -2.30345 0
M  V30 887 C 83.7636 -4.17535 -1.67286 0
M  V30 888 C 85.0826 -2.89111 -3.31817 0
M  V30 889 H 82.2016 -0.582645 -0.451324 0
M  V30 890 H 84.8436 -1.82117 -0.541612 0
M  V30 891 H 82.9936 -2.5813 -2.90346 0
M  V30 892 H 84.6656 -4.4774 -1.11026 0
M  V30 893 H 82.9086 -4.22665 -0.976577 0
M  V30 894 H 83.5796 -4.95094 -2.44103 0
M  V30 895 H 86.0556 -3.06133 -2.81819 0
M  V30 896 H 84.9316 -3.72433 -4.03219 0
M  V30 897 H 85.1926 -1.9893 -3.94815 0
M  V30 898 N 84.2517 0.741722 -1.39055 0
M  V30 899 C 85.1617 1.88621 -1.39496 0
M  V30 900 C 86.1777 1.71557 -0.290578 0
M  V30 901 O 87.3537 1.94275 -0.530954 0
M  V30 902 C 84.4187 3.24134 -1.23037 0
M  V30 903 C 83.4797 3.5364 -2.43387 0
M  V30 904 C 82.7127 4.82687 -2.27703 0
M  V30 905 O 82.9357 5.55922 -1.27696 0
M  V30 906 O 81.8697 5.1194 -3.16545 0
M  V30 907 H 85.6957 1.91203 -2.35956 0
M  V30 908 H 83.2807 0.888625 -1.20099 0
M  V30 909 H 85.1627 4.0513 -1.15964 0
M  V30 910 H 83.8377 3.22337 -0.296691 0
M  V30 911 H 82.7447 2.72758 -2.56035 0
M  V30 912 H 84.0777 3.60209 -3.35425 0
M  V30 913 N 85.7298 1.2412 0.971189 0
M  V30 914 C 86.6598 1.05508 2.08304 0
M  V30 915 C 87.6408 -0.0308864 1.70072 0
M  V30 916 O 88.8258 0.135521 1.93727 0
M  V30 917 C 85.9558 0.655365 3.4106 0
M  V30 918 C 84.9098 1.68971 3.93234 0
M  V30 919 C 84.2358 1.14516 5.22293 0
M  V30 920 C 85.5358 3.08487 4.21465 0
M  V30 921 H 87.2298 1.98507 2.24132 0
M  V30 922 H 84.7758 0.955821 1.07704 0
M  V30 923 H 86.7288 0.51217 4.18276 0
M  V30 924 H 85.4528 -0.31032 3.25122 0
M  V30 925 H 84.1118 1.82106 3.18171 0
M  V30 926 H 83.7598 0.170189 5.02712 0
M  V30 927 H 83.4598 1.83635 5.58168 0
M  V30 928 H 84.9838 1.01401 6.02121 0
M  V30 929 H 86.3978 2.98601 4.89398 0
M  V30 930 H 84.7948 3.74926 4.68562 0
M  V30 931 H 85.8648 3.56787 3.28376 0
M  V30 932 N 87.2079 -1.17134 1.05439 0
M  V30 933 C 88.6239 -1.39454 0.776201 0
M  V30 934 C 88.8239 -1.91454 -0.628307 0
M  V30 935 O 87.8799 -2.10777 -1.39031 0
M  V30 936 C 89.1929 -2.38305 1.83388 0
M  V30 937 C 90.7409 -2.52006 1.85639 0
M  V30 938 C 91.2159 -3.54133 2.90437 0
M  V30 939 N 92.7069 -3.61653 2.89415 0
M  V30 940 C 93.4419 -4.4044 3.67152 0
M  V30 941 N 92.9379 -5.22721 4.54681 0
M  V30 942 N 94.7309 -4.35337 3.55581 0
M  V30 943 H 86.8819 -0.817134 1.96053 0
M  V30 944 H 89.1449 -0.421626 0.849079 0
M  V30 945 H 88.8509 -2.07173 2.84204 0
M  V30 946 H 88.7249 -3.37841 1.67761 0
M  V30 947 H 91.1119 -2.82447 0.85486 0
M  V30 948 H 91.1929 -1.52537 2.05344 0
M  V30 949 H 90.8369 -3.24431 3.90777 0
M  V30 950 H 90.7669 -4.53313 2.67983 0
M  V30 951 H 93.2579 -3.02909 2.25952 0
M  V30 952 H 93.5709 -5.80027 5.10674 0
M  V30 953 H 91.9159 -5.22093 4.58741 0
M  V30 954 H 95.1069 -3.70112 2.86592 0
M  V30 955 H 95.2799 -4.96494 4.1641 0
M  V30 956 N 88.686 -0.835752 -1.33615 0
M  V30 957 C 90.097 -0.487099 -1.80234 0
M  V30 958 C 90.448 0.993627 -1.69179 0
M  V30 959 O 89.573 1.77403 -1.23924 0
M  V30 960 C 90.168 -0.877385 -3.27242 0
M  V30 961 C 88.727 -0.580915 -3.7189 0
M  V30 962 C 87.874 -1.0874 -2.5509 0
M  V30 963 H 90.825 -1.02474 -1.2118 0
M  V30 964 H 90.846 -0.186195 -3.80044 0
M  V30 965 H 90.358 -1.95512 -3.35256 0
M  V30 966 H 88.459 0.486881 -3.69405 0
M  V30 967 H 88.572 -1.13396 -4.65487 0
M  V30 968 H 86.936 -0.508392 -2.49575 0
M  V30 969 H 87.719 -2.17184 -2.65868 0
M  V30 970 N 90.1641 1.46063 -0.591896 0
M  V30 971 C 91.5751 1.85944 -0.167822 0
M  V30 972 C 91.9261 1.49429 1.27143 0
M  V30 973 O 91.0511 0.913515 1.96173 0
M  V30 974 C 91.6461 3.37489 -0.297794 0
M  V30 975 C 90.2051 3.76332 0.0714732 0
M  V30 976 C 89.3521 2.7006 -0.629509 0
M  V30 977 H 92.3031 1.37087 -0.799555 0
M  V30 978 H 92.3241 3.77532 0.474349 0
M  V30 979 H 91.8361 3.64034 -1.3454 0
M  V30 980 H 89.9371 3.55405 1.11886 0
M  V30 981 H 90.0501 4.78088 -0.311245 0
M  V30 982 H 88.4141 2.54607 -0.0687867 0
M  V30 983 H 89.1971 2.99444 -1.67894 0
M  V30 984 N 91.6422 0.330177 1.54103 0
M  V30 985 C 93.0532 -0.15652 1.86043 0
M  V30 986 C 93.4042 -1.51086 1.2517 0
M  V30 987 O 92.5292 -2.09023 0.560217 0
M  V30 988 C 93.1242 -0.290784 3.3755 0
M  V30 989 C 91.6832 -0.721705 3.69416 0
M  V30 990 C 90.8302 0.152622 2.7688 0
M  V30 991 H 93.7812 0.550237 1.48856 0
M  V30 992 H 93.8022 -1.12058 3.63625 0
M  V30 993 H 93.3142 0.695068 3.81825 0
M  V30 994 H 91.4152 -1.71706 3.30678 0
M  V30 995 H 91.5282 -0.520869 4.7626 0
M  V30 996 H 89.8922 -0.372894 2.51956 0
M  V30 997 H 90.6752 1.13536 3.23982 0
M  V30 998 N 93.1203 -1.57491 0.0584922 0
M  V30 999 C 94.0833 -2.1085 -0.898617 0
M  V30 1000 C 95.0833 -1.02964 -1.23511 0
M  V30 1001 O 96.2733 -1.29007 -1.17059 0
M  V30 1002 C 93.4053 -2.59881 -2.20623 0
M  V30 1003 H 94.5983 -2.96715 -0.435936 0
M  V30 1004 H 92.1513 -1.55141 -0.190023 0
M  V30 1005 H 92.8863 -1.77431 -2.71457 0
M  V30 1006 H 92.6713 -3.38727 -1.97501 0
M  V30 1007 H 94.1613 -3.01285 -2.89166 0
M  V30 1008 N 94.5984 0.214957 -1.56127 0
M  V30 1009 C 95.8234 0.95924 -1.83884 0
M  V30 1010 C 96.2484 1.7689 -0.639644 0
M  V30 1011 O 95.6064 1.76566 0.411601 0
M  V30 1012 C 95.6544 1.84723 -3.09693 0
M  V30 1013 O 94.7584 2.94346 -2.8885 0
M  V30 1014 H 94.0994 0.27125 -0.606069 0
M  V30 1015 H 96.6294 0.226276 -2.03345 0
M  V30 1016 H 96.6394 2.25576 -3.39969 0
M  V30 1017 H 95.3144 1.25218 -3.96602 0
M  V30 1018 H 93.8914 2.57391 -2.69823 0
M  V30 1019 N 96.0765 1.50051 0.48192 0
M  V30 1020 C 97.4875 1.5348 1.06305 0
M  V30 1021 C 97.8385 0.331997 1.93371 0
M  V30 1022 O 96.9635 -0.556256 2.09129 0
M  V30 1023 C 97.5585 2.7813 1.93466 0
M  V30 1024 C 96.1175 2.84275 2.46707 0
M  V30 1025 C 95.2645 2.47637 1.24785 0
M  V30 1026 H 98.2155 1.56472 0.264995 0
M  V30 1027 H 98.2365 2.59372 2.78399 0
M  V30 1028 H 97.7485 3.65654 1.30072 0
M  V30 1029 H 95.8495 2.01077 3.13686 0
M  V30 1030 H 95.9625 3.8691 2.82555 0
M  V30 1031 H 94.3265 1.99835 1.57918 0
M  V30 1032 H 95.1095 3.37457 0.630694 0
M  V30 1033 N 97.5546 -0.734337 1.39446 0
M  V30 1034 C 98.4866 -1.85861 1.34121 0
M  V30 1035 C 99.4996 -1.60871 0.249864 0
M  V30 1036 O 100.689 -1.71093 0.508865 0
M  V30 1037 C 97.7886 -3.21899 1.05991 0
M  V30 1038 C 96.9616 -3.74239 2.26415 0
M  V30 1039 C 96.0206 -4.88841 1.94733 0
M  V30 1040 O 95.0466 -5.02468 2.67422 0
M  V30 1041 N 96.2486 -5.73261 0.913884 0
M  V30 1042 H 99.0136 -1.90934 2.31007 0
M  V30 1043 H 96.5746 -0.915102 1.33557 0
M  V30 1044 H 98.5666 -3.96136 0.828147 0
M  V30 1045 H 97.1366 -3.12091 0.178361 0
M  V30 1046 H 96.3566 -2.91347 2.65539 0
M  V30 1047 H 97.6446 -4.05942 3.06738 0
M  V30 1048 H 97.0426 -5.64842 0.311476 0
M  V30 1049 H 95.5996 -6.47563 0.742015 0
M  V30 1050 N 99.0327 -1.24633 -0.964593 0
M  V30 1051 C 99.9647 -0.999302 -2.06268 0
M  V30 1052 C 100.978 0.0323226 -1.62768 0
M  V30 1053 O 102.167 -0.205079 -1.77318 0
M  V30 1054 C 99.2667 -0.486816 -3.35385 0
M  V30 1055 C 98.4397 -1.5823 -4.07777 0
M  V30 1056 C 97.4987 -1.07191 -5.15166 0
M  V30 1057 O 96.5247 -1.76426 -5.41168 0
M  V30 1058 N 97.7267 0.0920373 -5.80427 0
M  V30 1059 H 100.492 -1.94477 -2.28033 0
M  V30 1060 H 98.0527 -1.15704 -1.13244 0
M  V30 1061 H 100.045 -0.130066 -4.04491 0
M  V30 1062 H 98.6147 0.364459 -3.10468 0
M  V30 1063 H 97.8347 -2.11109 -3.32906 0
M  V30 1064 H 99.1227 -2.31854 -4.52903 0
M  V30 1065 H 98.5207 0.670784 -5.61709 0
M  V30 1066 H 97.0777 0.389905 -6.50633 0
M  V30 1067 N 100.511 1.16574 -1.06058 0
M  V30 1068 C 101.922 1.68662 -0.800632 0
M  V30 1069 C 102.273 1.84184 0.67608 0
M  V30 1070 O 101.398 1.53568 1.52466 0
M  V30 1071 C 101.993 3.06356 -1.44676 0
M  V30 1072 C 100.552 3.55575 -1.23465 0
M  V30 1073 C 99.6988 2.31616 -1.52477 0
M  V30 1074 H 102.65 1.00969 -1.22438 0
M  V30 1075 H 102.671 3.70636 -0.860788 0
M  V30 1076 H 102.183 2.95027 -2.52152 0
M  V30 1077 H 100.284 3.72167 -0.179527 0
M  V30 1078 H 100.397 4.37812 -1.94571 0
M  V30 1079 H 98.7608 2.36512 -0.945209 0
M  V30 1080 H 99.5438 2.22887 -2.61106 0
M  V30 1081 N 101.989 0.842826 1.3317 0
M  V30 1082 C 103.405 0.531128 1.50503 0
M  V30 1083 C 103.605 -0.940734 1.78192 0
M  V30 1084 O 102.661 -1.72436 1.84451 0
M  V30 1085 C 103.974 1.40789 2.65705 0
M  V30 1086 C 105.522 1.40708 2.79589 0
M  V30 1087 C 105.997 2.26878 3.97857 0
M  V30 1088 N 107.488 2.24609 4.05099 0
M  V30 1089 C 108.223 2.88019 4.95815 0
M  V30 1090 N 107.719 3.60496 5.9162 0
M  V30 1091 N 109.512 2.77469 4.88843 0
M  V30 1092 H 101.663 1.79557 1.1346 0
M  V30 1093 H 103.926 0.766267 0.558156 0
M  V30 1094 H 103.632 2.454 2.51936 0
M  V30 1095 H 103.506 1.08677 3.61205 0
M  V30 1096 H 105.893 0.368668 2.92788 0
M  V30 1097 H 105.974 1.76829 1.84838 0
M  V30 1098 H 105.618 3.3078 3.85418 0
M  V30 1099 H 105.548 1.88096 4.91861 0
M  V30 1100 H 108.039 1.71906 3.36536 0
M  V30 1101 H 108.352 4.06076 6.57512 0
M  V30 1102 H 106.697 3.64604 5.91683 0
M  V30 1103 H 109.888 2.20406 4.12963 0
M  V30 1104 H 110.061 3.2717 5.59342 0
M  V30 1105 N 103.467 -1.45747 0.599634 0
M  V30 1106 C 104.883 -1.57424 0.26264 0
M  V30 1107 C 105.083 -1.59222 -1.23493 0
M  V30 1108 O 104.139 -1.51825 -2.01756 0
M  V30 1109 C 105.452 -2.86061 0.926795 0
M  V30 1110 C 107 -2.99722 0.901967 0
M  V30 1111 C 107.475 -4.31119 1.54598 0
M  V30 1112 N 108.966 -4.37858 1.5111 0
M  V30 1113 C 109.701 -5.3818 1.97863 0
M  V30 1114 N 109.197 -6.45083 2.52666 0
M  V30 1115 N 110.99 -5.29487 1.88679 0
M  V30 1116 H 103.141 -1.42823 1.57211 0
M  V30 1117 H 105.404 -0.68235 0.658105 0
M  V30 1118 H 105.11 -2.90605 1.98095 0
M  V30 1119 H 104.984 -3.74563 0.445238 0
M  V30 1120 H 107.371 -2.9475 -0.143617 0
M  V30 1121 H 107.452 -2.12652 1.42171 0
M  V30 1122 H 107.096 -4.36849 2.59085 0
M  V30 1123 H 107.026 -5.16992 1.00132 0
M  V30 1124 H 109.517 -3.61209 1.11068 0
M  V30 1125 H 109.83 -7.17869 2.86155 0
M  V30 1126 H 108.175 -6.45856 2.56701 0
M  V30 1127 H 111.366 -4.44877 1.4561 0
M  V30 1128 H 111.539 -6.07524 2.25429 0
M  V30 1129 N 104.945 -0.338344 -1.53925 0
M  V30 1130 C 106.185 0.260168 -2.02737 0
M  V30 1131 C 106.549 1.48181 -1.22092 0
M  V30 1132 O 107.75 2.15416 -1.60777 0
M  V30 1133 C 106.021 0.571627 -3.52799 0
M  V30 1134 S 107.58 1.14769 -4.23525 0
M  V30 1135 H 104.398 0.077791 -0.706732 0
M  V30 1136 H 107 -0.474899 -1.89644 0
M  V30 1137 H 105.704 -0.325392 -4.09108 0
M  V30 1138 H 105.235 1.3365 -3.70002 0
M  V30 1139 H 107.25 2.43372 -4.32417 0
M  V30 1140 N 106.423 1.57458 -0.0668435 0
M  V30 1141 C 107.648 1.9804 0.616027 0
M  V30 1142 C 108.073 0.944771 1.62652 0
M  V30 1143 O 107.431 -0.0902094 1.81075 0
M  V30 1144 C 107.479 3.37665 1.26549 0
M  V30 1145 O 106.583 3.36701 2.38131 0
M  V30 1146 H 105.924 0.644719 0.158849 0
M  V30 1147 H 108.454 2.04121 -0.139891 0
M  V30 1148 H 108.464 3.7474 1.6135 0
M  V30 1149 H 107.139 4.12573 0.525016 0
M  V30 1150 H 105.716 3.1139 2.0516 0
M  V30 1151 N 107.901 -0.206675 1.56239 0
M  V30 1152 C 109.312 -0.772383 1.69974 0
M  V30 1153 C 109.663 -1.84353 0.671436 0
M  V30 1154 O 108.788 -2.15695 -0.174491 0
M  V30 1155 C 109.383 -1.40779 3.08167 0
M  V30 1156 C 107.942 -1.92072 3.23706 0
M  V30 1157 C 107.089 -0.786347 2.65917 0
M  V30 1158 H 110.04 0.0182223 1.5869 0
M  V30 1159 H 110.061 -2.27696 3.04852 0
M  V30 1160 H 109.573 -0.627958 3.82986 0
M  V30 1161 H 107.674 -2.7281 2.53782 0
M  V30 1162 H 107.787 -2.09046 4.31087 0
M  V30 1163 H 106.151 -1.1976 2.24788 0
M  V30 1164 H 106.934 -0.0189416 3.43295 0
M  V30 1165 N 109.379 -1.50304 -0.473955 0
M  V30 1166 C 110.626 -1.6115 -1.22625 0
M  V30 1167 C 110.954 -0.310517 -1.92005 0
M  V30 1168 O 110.209 0.703419 -1.82621 0
M  V30 1169 C 110.508 -2.73938 -2.29549 0
M  V30 1170 C 110.174 -4.14519 -1.7744 0
M  V30 1171 C 108.836 -4.5277 -1.62949 0
M  V30 1172 C 111.188 -5.02392 -1.3875 0
M  V30 1173 C 108.516 -5.76639 -1.08187 0
M  V30 1174 C 110.868 -6.26805 -0.854309 0
M  V30 1175 C 109.532 -6.63861 -0.696011 0
M  V30 1176 H 108.802 -0.589691 -0.448715 0
M  V30 1177 H 111.449 -1.84228 -0.522705 0
M  V30 1178 H 109.754 -2.44937 -3.05799 0
M  V30 1179 H 111.451 -2.79534 -2.87509 0
M  V30 1180 H 108.041 -3.8434 -1.89685 0
M  V30 1181 H 112.225 -4.73474 -1.4878 0
M  V30 1182 H 107.481 -6.04027 -0.946666 0
M  V30 1183 H 111.655 -6.94258 -0.545843 0
M  V30 1184 H 109.282 -7.59722 -0.26952 0
M  V30 1185 N 110.857 0.726932 -1.39834 0
M  V30 1186 C 112.097 1.4992 -1.38936 0
M  V30 1187 C 112.461 1.91996 0.0126883 0
M  V30 1188 O 113.662 2.68399 0.146715 0
M  V30 1189 C 111.933 2.70013 -2.34153 0
M  V30 1190 S 113.492 3.59563 -2.51515 0
M  V30 1191 H 110.31 0.51271 -0.492595 0
M  V30 1192 H 112.912 0.85107 -1.76003 0
M  V30 1193 H 111.616 2.37254 -3.34871 0
M  V30 1194 H 111.147 3.39748 -1.98331 0
M  V30 1195 H 113.162 4.63973 -1.75909 0
M  V30 1196 N 112.336 1.25143 0.95797 0
M  V30 1197 C 113.752 1.01892 1.22842 0
M  V30 1198 C 113.952 -0.266311 1.99732 0
M  V30 1199 O 113.008 -0.979913 2.3271 0
M  V30 1200 C 114.321 2.24004 2.00606 0
M  V30 1201 C 115.869 2.28731 2.13662 0
M  V30 1202 C 116.344 3.5049 2.94823 0
M  V30 1203 N 117.835 3.50866 3.02403 0
M  V30 1204 C 118.57 4.4174 3.65586 0
M  V30 1205 N 118.066 5.42882 4.30408 0
M  V30 1206 N 119.859 4.29429 3.62694 0
M  V30 1207 H 112.01 2.07718 0.443493 0
M  V30 1208 H 114.273 0.912031 0.258657 0
M  V30 1209 H 113.979 3.17395 1.51503 0
M  V30 1210 H 113.853 2.26907 3.01319 0
M  V30 1211 H 116.24 1.35865 2.61963 0
M  V30 1212 H 116.321 2.29848 1.12265 0
M  V30 1213 H 115.965 4.43676 2.47213 0
M  V30 1214 H 115.895 3.46617 3.96439 0
M  V30 1215 H 118.386 2.777 2.56302 0
M  V30 1216 H 118.699 6.0844 4.76467 0
M  V30 1217 H 117.044 5.46758 4.29047 0
M  V30 1218 H 120.235 3.49643 3.11236 0
M  V30 1219 H 120.408 5.00448 4.1165 0
M  V30 1220 N 113.814 -1.1601 1.06675 0
M  V30 1221 C 114.777 -2.18724 0.685001 0
M  V30 1222 C 115.777 -1.58496 -0.271246 0
M  V30 1223 O 116.967 -1.74119 -0.0531156 0
M  V30 1224 C 114.099 -3.40899 0.00853648 0
M  V30 1225 H 115.292 -2.54011 1.59431 0
M  V30 1226 H 112.845 -1.30352 0.862441 0
M  V30 1227 H 113.58 -3.11173 -0.913337 0
M  V30 1228 H 113.365 -3.8587 0.696204 0
M  V30 1229 H 114.855 -4.16886 -0.24414 0
M  V30 1230 N 115.292 -0.849877 -1.32721 0
M  V30 1231 C 116.708 -0.539102 -1.50219 0
M  V30 1232 C 116.908 0.931271 -1.78689 0
M  V30 1233 O 115.964 1.71455 -1.85363 0
M  V30 1234 C 117.277 -1.42196 -2.64954 0
M  V30 1235 C 118.825 -1.42189 -2.78839 0
M  V30 1236 C 119.3 -2.28985 -3.96648 0
M  V30 1237 N 120.791 -2.26754 -4.03902 0
M  V30 1238 C 121.526 -2.90644 -4.94281 0
M  V30 1239 N 121.022 -3.63629 -5.897 0
M  V30 1240 N 122.815 -2.80057 -4.87365 0
M  V30 1241 H 114.966 -1.80156 -1.12506 0
M  V30 1242 H 117.229 -0.769217 -0.554085 0
M  V30 1243 H 116.935 -2.46733 -2.50631 0
M  V30 1244 H 116.809 -1.10591 -3.60624 0
M  V30 1245 H 119.196 -0.38419 -2.92588 0
M  V30 1246 H 119.277 -1.77807 -1.83898 0
M  V30 1247 H 118.921 -3.32819 -3.83658 0
M  V30 1248 H 118.851 -1.90702 -4.90857 0
M  V30 1249 H 121.342 -1.73688 -3.3562 0
M  V30 1250 H 121.655 -4.09558 -6.55349 0
M  V30 1251 H 120 -3.67737 -5.89741 0
M  V30 1252 H 123.191 -2.22593 -4.11789 0
M  V30 1253 H 123.364 -3.30132 -5.57599 0
M  V30 1254 N 116.77 1.45427 -0.607355 0
M  V30 1255 C 117.7 2.3329 0.0989352 0
M  V30 1256 C 118.681 1.46816 0.859007 0
M  V30 1257 O 119.866 1.75588 0.829604 0
M  V30 1258 C 116.996 3.29518 1.09705 0
M  V30 1259 C 115.95 4.25626 0.450206 0
M  V30 1260 C 115.276 5.11542 1.55655 0
M  V30 1261 C 116.576 5.18505 -0.628455 0
M  V30 1262 H 118.27 2.92595 -0.634716 0
M  V30 1263 H 115.816 1.40696 -0.306681 0
M  V30 1264 H 117.769 3.89855 1.59971 0
M  V30 1265 H 116.493 2.68372 1.86129 0
M  V30 1266 H 115.152 3.66586 -0.0315886 0
M  V30 1267 H 114.8 4.46765 2.31107 0
M  V30 1268 H 114.5 5.76647 1.12925 0
M  V30 1269 H 116.024 5.74748 2.06148 0
M  V30 1270 H 117.438 5.72916 -0.209877 0
M  V30 1271 H 115.835 5.92085 -0.977489 0
M  V30 1272 H 116.905 4.60948 -1.50514 0
M  V30 1273 N 118.248 0.346503 1.53744 0
M  V30 1274 C 119.473 -0.253074 2.0585 0
M  V30 1275 C 119.898 -1.43202 1.21962 0
M  V30 1276 O 119.256 -1.79783 0.234073 0
M  V30 1277 C 119.304 -0.643193 3.54817 0
M  V30 1278 O 118.408 -1.74286 3.73762 0
M  V30 1279 H 117.749 -0.0413583 0.662711 0
M  V30 1280 H 120.279 0.501574 1.98357 0
M  V30 1281 H 120.289 -0.919526 3.97503 0
M  V30 1282 H 118.964 0.218966 4.15323 0
M  V30 1283 H 117.541 -1.46356 3.42979 0
M  V30 1284 N 119.726 -1.57421 0.075193 0
M  V30 1285 C 120.656 -2.15942 -0.888324 0
M  V30 1286 C 121.637 -1.08737 -1.30806 0
M  V30 1287 O 122.822 -1.36787 -1.37851 0
M  V30 1288 C 119.952 -2.72379 -2.1547 0
M  V30 1289 C 118.906 -3.8478 -1.87425 0
M  V30 1290 C 118.232 -4.27834 -3.20721 0
M  V30 1291 C 119.532 -5.08869 -1.17684 0
M  V30 1292 H 121.226 -2.96705 -0.400799 0
M  V30 1293 H 118.772 -1.42723 -0.191342 0
M  V30 1294 H 120.725 -3.11965 -2.83295 0
M  V30 1295 H 119.449 -1.88841 -2.6647 0
M  V30 1296 H 118.108 -3.45703 -1.22004 0
M  V30 1297 H 117.756 -3.41214 -3.6957 0
M  V30 1298 H 117.456 -5.03605 -3.02746 0
M  V30 1299 H 118.98 -4.70039 -3.89738 0
M  V30 1300 H 120.394 -5.4575 -1.75584 0
M  V30 1301 H 118.791 -5.8994 -1.09956 0
M  V30 1302 H 119.861 -4.84648 -0.156453 0
M  V30 1303 N 121.204 0.198386 -1.56346 0
M  V30 1304 C 122.452 0.91747 -1.80075 0
M  V30 1305 C 122.773 1.83929 -0.647692 0
M  V30 1306 O 122.043 1.93029 0.334166 0
M  V30 1307 H 120.623 0.341774 -0.664228 0
M  V30 1308 H 123.285 0.204684 -1.93822 0
M  V30 1309 H 122.381 1.51055 -2.7311 0
M  V30 1310 N 122.682 1.50554 0.465978 0
M  V30 1311 C 123.645 1.69233 1.54574 0
M  V30 1312 C 124.645 0.562901 1.50626 0
M  V30 1313 O 125.835 0.830016 1.53155 0
M  V30 1314 C 122.967 1.7223 2.94193 0
M  V30 1315 H 124.16 2.65571 1.39327 0
M  V30 1316 H 121.713 1.40111 0.692711 0
M  V30 1317 H 122.448 0.77603 3.14878 0
M  V30 1318 H 122.233 2.54285 2.98466 0
M  V30 1319 H 123.723 1.88618 3.72576 0
M  V30 1320 N 124.16 -0.719506 1.40217 0
M  V30 1321 C 125.09 -1.8465 1.42922 0
M  V30 1322 C 126.071 -1.67599 0.29062 0
M  V30 1323 O 127.256 -1.87688 0.498677 0
M  V30 1324 C 124.386 -3.22565 1.28722 0
M  V30 1325 C 123.34 -3.54281 2.40144 0
M  V30 1326 C 122.666 -4.91298 2.11023 0
M  V30 1327 C 123.966 -3.55676 3.82481 0
M  V30 1328 H 125.66 -1.82644 2.37237 0
M  V30 1329 H 123.206 -0.877305 1.1419 0
M  V30 1330 H 125.159 -4.01095 1.29232 0
M  V30 1331 H 123.883 -3.25137 0.308811 0
M  V30 1332 H 122.542 -2.78088 2.38877 0
M  V30 1333 H 122.19 -4.90468 1.11582 0
M  V30 1334 H 121.89 -5.13485 2.8567 0
M  V30 1335 H 123.414 -5.72166 2.13209 0
M  V30 1336 H 124.828 -4.24254 3.85592 0
M  V30 1337 H 123.225 -3.89388 4.56614 0
M  V30 1338 H 124.295 -2.55144 4.12346 0
M  V30 1339 N 125.638 -1.25649 -0.95132 0
M  V30 1340 C 126.601 -1.06399 -2.03007 0
M  V30 1341 C 127.601 -0.0156794 -1.60792 0
M  V30 1342 O 128.791 -0.25817 -1.72276 0
M  V30 1343 C 125.923 -0.616184 -3.35285 0
M  V30 1344 H 127.116 -2.02164 -2.21517 0
M  V30 1345 H 124.669 -1.08103 -1.12887 0
M  V30 1346 H 125.404 0.343917 -3.22471 0
M  V30 1347 H 125.189 -1.37301 -3.67275 0
M  V30 1348 H 126.679 -0.503032 -4.14559 0
M  V30 1349 N 127.117 1.15442 -1.07289 0
M  V30 1350 C 128.08 2.18358 -0.696591 0
M  V30 1351 C 129.08 1.58637 0.262837 0
M  V30 1352 O 130.27 1.74145 0.0438809 0
M  V30 1353 C 127.402 3.4089 -0.0266151 0
M  V30 1354 H 128.595 2.53162 -1.60776 0
M  V30 1355 H 126.148 1.29893 -0.869342 0
M  V30 1356 H 126.883 3.11653 0.896822 0
M  V30 1357 H 126.668 3.85495 -0.716657 0
M  V30 1358 H 128.158 4.17009 0.222028 0
M  V30 1359 N 128.595 0.856903 1.32268 0
M  V30 1360 C 129.842 0.461386 1.97174 0
M  V30 1361 C 130.17 -0.983491 1.67803 0
M  V30 1362 O 129.425 -1.70541 0.959903 0
M  V30 1363 C 129.724 0.649919 3.51441 0
M  V30 1364 C 129.39 2.0656 4.00804 0
M  V30 1365 C 128.052 2.45279 4.13995 0
M  V30 1366 C 130.404 2.98947 4.26943 0
M  V30 1367 C 127.732 3.75653 4.50668 0
M  V30 1368 C 130.084 4.28822 4.65075 0
M  V30 1369 C 128.748 4.67472 4.76472 0
M  V30 1370 H 128.018 0.168833 0.72151 0
M  V30 1371 H 130.665 1.08739 1.57633 0
M  V30 1372 H 128.97 -0.0593018 3.91755 0
M  V30 1373 H 130.667 0.32391 3.9969 0
M  V30 1374 H 127.257 1.75495 3.91024 0
M  V30 1375 H 131.441 2.70265 4.16258 0
M  V30 1376 H 126.697 4.05379 4.57688 0
M  V30 1377 H 130.871 5.0047 4.84255 0
M  V30 1378 H 128.498 5.68539 5.04646 0
M  V30 1379 N 130.073 -1.45103 0.615059 0
M  V30 1380 C 131.319 -2.02483 0.113347 0
M  V30 1381 C 131.652 -1.48146 -1.25564 0
M  V30 1382 O 130.927 -0.659104 -1.82992 0
M  V30 1383 C 131.21 -3.60005 0.0825278 0
M  V30 1384 C 131.063 -4.2466 1.48271 0
M  V30 1385 C 132.382 -4.35972 -0.601401 0
M  V30 1386 H 129.501 -0.735764 0.0426632 0
M  V30 1387 H 132.143 -1.72868 0.788461 0
M  V30 1388 H 130.293 -3.85367 -0.492378 0
M  V30 1389 H 131.965 -4.10458 2.10527 0
M  V30 1390 H 130.208 -3.82772 2.04127 0
M  V30 1391 H 130.879 -5.336 1.41332 0
M  V30 1392 H 133.355 -4.15947 -0.112666 0
M  V30 1393 H 132.231 -5.45697 -0.592097 0
M  V30 1394 H 132.492 -4.09391 -1.66887 0
M  V30 1395 N 131.551 -0.354651 -1.53558 0
M  V30 1396 C 132.481 0.489091 -2.2832 0
M  V30 1397 C 133.462 1.09324 -1.30316 0
M  V30 1398 O 134.647 1.11255 -1.59173 0
M  V30 1399 C 131.777 1.63456 -3.0643 0
M  V30 1400 C 130.731 1.1582 -4.12031 0
M  V30 1401 C 130.057 2.39305 -4.7816 0
M  V30 1402 C 131.357 0.250731 -5.21698 0
M  V30 1403 H 133.051 -0.134614 -2.99097 0
M  V30 1404 H 130.597 -0.0661826 -1.43848 0
M  V30 1405 H 132.55 2.23136 -3.57475 0
M  V30 1406 H 131.274 2.28533 -2.33325 0
M  V30 1407 H 129.933 0.584146 -3.61916 0
M  V30 1408 H 129.581 3.02814 -4.01637 0
M  V30 1409 H 129.281 2.08109 -5.49513 0
M  V30 1410 H 130.805 2.99691 -5.31994 0
M  V30 1411 H 132.219 0.754695 -5.68311 0
M  V30 1412 H 130.616 0.0301468 -6.00092 0
M  V30 1413 H 131.686 -0.710125 -4.79672 0
M  V30 1414 N 133.029 1.57378 -0.0835403 0
M  V30 1415 C 133.992 2.12252 0.864959 0
M  V30 1416 C 134.992 1.04916 1.21858 0
M  V30 1417 O 136.182 1.30853 1.14991 0
M  V30 1418 C 133.314 2.63358 2.16461 0
M  V30 1419 H 134.507 2.97371 0.388676 0
M  V30 1420 H 132.06 1.55423 0.165317 0
M  V30 1421 H 132.795 1.81727 2.686 0
M  V30 1422 H 132.58 3.41826 1.92087 0
M  V30 1423 H 134.07 3.05847 2.84337 0
M  V30 1424 N 134.507 -0.190092 1.56449 0
M  V30 1425 C 135.437 -1.23816 1.97969 0
M  V30 1426 C 136.418 -1.47201 0.852395 0
M  V30 1427 O 137.603 -1.58854 1.1171 0
M  V30 1428 C 134.733 -2.5813 2.3235 0
M  V30 1429 C 133.687 -2.49348 3.47864 0
M  V30 1430 C 133.013 -3.8798 3.67934 0
M  V30 1431 C 134.313 -2.01424 4.81898 0
M  V30 1432 H 136.007 -0.89311 2.85769 0
M  V30 1433 H 133.553 -0.428177 1.37487 0
M  V30 1434 H 135.506 -3.31637 2.59991 0
M  V30 1435 H 134.23 -2.94386 1.41438 0
M  V30 1436 H 132.889 -1.78297 3.20321 0
M  V30 1437 H 132.537 -4.21597 2.74344 0
M  V30 1438 H 132.237 -3.82978 4.45648 0
M  V30 1439 H 133.761 -4.63101 3.97957 0
M  V30 1440 H 135.175 -2.64693 5.08538 0
M  V30 1441 H 133.572 -2.07413 5.63116 0
M  V30 1442 H 134.642 -0.967677 4.75146 0
M  V30 1443 N 135.985 -1.50799 -0.457987 0
M  V30 1444 C 136.915 -1.73553 -1.5621 0
M  V30 1445 C 137.896 -0.584774 -1.59732 0
M  V30 1446 O 139.081 -0.825314 -1.7579 0
M  V30 1447 C 136.211 -1.84169 -2.94447 0
M  V30 1448 C 135.165 -2.99461 -3.0579 0
M  V30 1449 C 134.491 -2.95235 -4.45803 0
M  V30 1450 C 135.791 -4.39766 -2.81786 0
M  V30 1451 H 137.485 -2.66 -1.37421 0
M  V30 1452 H 135.031 -1.28002 -0.659662 0
M  V30 1453 H 136.984 -1.98672 -3.71628 0
M  V30 1454 H 135.708 -0.883545 -3.14422 0
M  V30 1455 H 134.367 -2.8463 -2.31044 0
M  V30 1456 H 134.015 -1.97239 -4.62715 0
M  V30 1457 H 133.715 -3.72642 -4.54326 0
M  V30 1458 H 135.239 -3.11803 -5.24987 0
M  V30 1459 H 136.653 -4.55054 -3.4871 0
M  V30 1460 H 135.05 -5.18722 -3.0174 0
M  V30 1461 H 136.12 -4.51229 -1.7754 0
M  V30 1462 N 137.463 0.71206 -1.40597 0
M  V30 1463 C 138.393 1.83889 -1.43899 0
M  V30 1464 C 139.374 1.67442 -0.299504 0
M  V30 1465 O 140.559 1.87421 -0.508624 0
M  V30 1466 C 137.689 3.21877 -1.30431 0
M  V30 1467 C 136.643 3.53002 -2.42019 0
M  V30 1468 C 135.969 4.90172 -2.13626 0
M  V30 1469 C 137.269 3.53643 -3.84362 0
M  V30 1470 H 138.963 1.81383 -2.38203 0
M  V30 1471 H 136.509 0.871237 -1.14654 0
M  V30 1472 H 138.462 4.00404 -1.31357 0
M  V30 1473 H 137.186 3.24968 -0.326049 0
M  V30 1474 H 135.845 2.76818 -2.40349 0
M  V30 1475 H 135.493 4.89869 -1.14182 0
M  V30 1476 H 135.193 5.11962 -2.88389 0
M  V30 1477 H 136.717 5.71028 -2.1624 0
M  V30 1478 H 138.131 4.22203 -3.87837 0
M  V30 1479 H 136.528 3.86961 -4.58673 0
M  V30 1480 H 137.598 2.52954 -4.13693 0
M  V30 1481 N 138.941 1.26152 0.944643 0
M  V30 1482 C 140.189 1.11271 1.6871 0
M  V30 1483 C 140.51 -0.345166 1.91921 0
M  V30 1484 O 139.78 -1.24387 1.51343 0
M  V30 1485 H 138.36 0.408783 0.625224 0
M  V30 1486 H 141.022 1.58427 1.1352 0
M  V30 1487 H 140.118 1.62879 2.66227 0
M  V30 1488 N 140.419 -1.14872 1.07899 0
M  V30 1489 C 141.382 -2.17986 0.708161 0
M  V30 1490 C 142.382 -1.58775 -0.25442 0
M  V30 1491 O 143.572 -1.74166 -0.034645 0
M  V30 1492 C 140.704 -3.40871 0.0446929 0
M  V30 1493 H 141.897 -2.52306 1.62116 0
M  V30 1494 H 139.45 -1.2943 0.876218 0
M  V30 1495 H 140.185 -3.12124 -0.880281 0
M  V30 1496 H 139.97 -3.8511 0.737091 0
M  V30 1497 H 141.46 -4.17121 -0.19991 0
M  V30 1498 N 141.898 -0.863906 -1.31812 0
M  V30 1499 C 142.808 -0.318461 -2.32428 0
M  V30 1500 C 143.824 0.568496 -1.64451 0
M  V30 1501 O 145 0.46666 -1.95919 0
M  V30 1502 C 142.065 0.476355 -3.43412 0
M  V30 1503 C 141.126 -0.43784 -4.27061 0
M  V30 1504 C 140.359 0.319138 -5.32745 0
M  V30 1505 O 140.582 1.54799 -5.48993 0
M  V30 1506 O 139.516 -0.319861 -6.01049 0
M  V30 1507 H 143.342 -1.15229 -2.80991 0
M  V30 1508 H 140.927 -0.627103 -1.35602 0
M  V30 1509 H 142.809 0.927156 -4.11074 0
M  V30 1510 H 141.484 1.28683 -2.97022 0
M  V30 1511 H 140.391 -0.937013 -3.62175 0
M  V30 1512 H 141.724 -1.21375 -4.77 0
M  V30 1513 N 143.376 1.44774 -0.622745 0
M  V30 1514 C 144.787 1.85546 -0.207226 0
M  V30 1515 C 145.138 1.52093 1.23944 0
M  V30 1516 O 144.263 0.95492 1.94191 0
M  V30 1517 C 144.858 3.36781 -0.369313 0
M  V30 1518 C 143.417 3.76399 -0.00836847 0
M  V30 1519 C 142.564 2.68664 -0.686651 0
M  V30 1520 H 145.515 1.3536 -0.828454 0
M  V30 1521 H 145.536 3.78453 0.394162 0
M  V30 1522 H 145.048 3.61098 -1.42231 0
M  V30 1523 H 143.149 3.57698 1.04322 0
M  V30 1524 H 143.262 4.7732 -0.412584 0
M  V30 1525 H 141.626 2.54404 -0.122777 0
M  V30 1526 H 142.409 2.95815 -1.74208 0
M  V30 1527 N 144.854 0.36279 1.53368 0
M  V30 1528 C 145.764 -0.492994 2.29362 0
M  V30 1529 C 146.78 -1.09507 1.35219 0
M  V30 1530 O 147.956 -1.10662 1.68273 0
M  V30 1531 C 145.021 -1.61855 3.066 0
M  V30 1532 C 144.082 -1.04429 4.16405 0
M  V30 1533 C 143.315 -2.11621 4.89951 0
M  V30 1534 O 143.538 -3.32684 4.63333 0
M  V30 1535 O 142.472 -1.74835 5.75948 0
M  V30 1536 H 146.298 0.125331 3.03441 0
M  V30 1537 H 143.883 0.127253 1.48857 0
M  V30 1538 H 145.765 -2.27302 3.54841 0
M  V30 1539 H 144.44 -2.22233 2.3536 0
M  V30 1540 H 143.347 -0.353819 3.72423 0
M  V30 1541 H 144.68 -0.485113 4.89804 0
M  V30 1542 N 146.332 -1.57332 0.0918853 0
M  V30 1543 C 147.557 -1.98995 -0.584442 0
M  V30 1544 C 147.982 -0.970528 -1.61128 0
M  V30 1545 O 147.34 0.0613904 -1.81196 0
M  V30 1546 C 147.388 -3.39636 -1.21161 0
M  V30 1547 O 146.492 -3.40447 -2.32744 0
M  V30 1548 H 145.833 -0.647165 -0.148572 0
M  V30 1549 H 148.363 -2.03873 0.172347 0
M  V30 1550 H 148.373 -3.7726 -1.55367 0
M  V30 1551 H 147.048 -4.13356 -0.459313 0
M  V30 1552 H 145.625 -3.14614 -2.0018 0
M  V30 1553 N 147.81 0.181792 -1.56548 0
M  V30 1554 C 149.056 0.896803 -1.82562 0
M  V30 1555 C 149.411 1.80324 -0.670908 0
M  V30 1556 O 148.704 1.8868 0.333235 0
M  V30 1557 C 148.898 1.73728 -3.12335 0
M  V30 1558 C 148.727 0.913714 -4.4032 0
M  V30 1559 C 147.497 0.592903 -5.01809 0
M  V30 1560 C 149.695 0.260164 -5.13642 0
M  V30 1561 N 147.677 -0.247901 -6.13399 0
M  V30 1562 C 149.048 -0.442256 -6.18421 0
M  V30 1563 C 151.103 0.177253 -4.97584 0
M  V30 1564 C 149.806 -1.21971 -7.08883 0
M  V30 1565 C 151.832 -0.586839 -5.88481 0
M  V30 1566 C 151.194 -1.27766 -6.92716 0
M  V30 1567 H 147.293 0.307122 -0.719166 0
M  V30 1568 H 149.877 0.164535 -1.94004 0
M  V30 1569 H 148.048 2.44105 -3.02105 0
M  V30 1570 H 149.78 2.39279 -3.26386 0
M  V30 1571 H 146.535 0.920502 -4.64568 0
M  V30 1572 H 146.959 -0.658304 -6.73792 0
M  V30 1573 H 151.601 0.696993 -4.17015 0
M  V30 1574 H 149.319 -1.75083 -7.88905 0
M  V30 1575 H 152.905 -0.652522 -5.78129 0
M  V30 1576 H 151.785 -1.85943 -7.61836 0
M  V30 1577 N 149.288 1.51039 0.449983 0
M  V30 1578 C 150.251 1.70863 1.5277 0
M  V30 1579 C 151.251 0.578846 1.5002 0
M  V30 1580 O 152.441 0.846213 1.52266 0
M  V30 1581 C 149.573 1.75341 2.9235 0
M  V30 1582 H 150.766 2.67034 1.36502 0
M  V30 1583 H 148.319 1.40838 0.677812 0
M  V30 1584 H 149.054 0.809383 3.14037 0
M  V30 1585 H 148.839 2.57436 2.95752 0
M  V30 1586 H 150.329 1.92559 3.70555 0
M  V30 1587 N 150.766 -0.704594 1.40972 0
M  V30 1588 C 151.729 -1.80035 1.41845 0
M  V30 1589 C 152.729 -1.57774 0.310474 0
M  V30 1590 O 153.919 -1.64613 0.56992 0
M  V30 1591 C 151.051 -3.18284 1.22098 0
M  V30 1592 H 152.244 -1.80658 2.3938 0
M  V30 1593 H 149.797 -0.911329 1.26982 0
M  V30 1594 H 150.532 -3.23306 0.253672 0
M  V30 1595 H 150.317 -3.35843 2.02366 0
M  V30 1596 H 151.807 -3.98289 1.25522 0
M  V30 1597 N 152.244 -1.26651 -0.937939 0
M  V30 1598 C 153.492 -1.12165 -1.68118 0
M  V30 1599 C 153.813 0.334983 -1.92101 0
M  V30 1600 O 153.083 1.23583 -1.52 0
M  V30 1601 H 151.663 -0.412093 -0.623048 0
M  V30 1602 H 154.325 -1.59027 -1.12678 0
M  V30 1603 H 153.421 -1.64289 -2.6536 0
M  V30 1604 N 153.722 1.14298 -1.08507 0
M  V30 1605 C 154.685 2.17607 -0.719711 0
M  V30 1606 C 155.685 1.58907 0.245997 0
M  V30 1607 O 156.875 1.74181 0.0254081 0
M  V30 1608 C 154.007 3.40842 -0.0627695 0
M  V30 1609 H 155.2 2.51443 -1.63452 0
M  V30 1610 H 152.753 1.28963 -0.88307 0
M  V30 1611 H 153.488 3.12587 0.863716 0
M  V30 1612 H 153.273 3.84713 -0.757504 0
M  V30 1613 H 154.763 4.17221 0.177786 0
M  V30 1614 N 155.201 0.870884 1.31352 0
M  V30 1615 C 156.164 0.332243 2.26779 0
M  V30 1616 C 157.164 -0.517302 1.52252 0
M  V30 1617 O 158.354 -0.326477 1.71113 0
M  V30 1618 C 155.486 -0.528066 3.36785 0
M  V30 1619 H 156.679 1.17469 2.75937 0
M  V30 1620 H 154.232 0.64655 1.423 0
M  V30 1621 H 154.967 -1.39167 2.92922 0
M  V30 1622 H 154.752 0.0802582 3.92018 0
M  V30 1623 H 156.242 -0.897179 4.07849 0
M  V30 1624 N 156.679 -1.44442 0.630414 0
M  V30 1625 C 157.925 -2.02894 0.143332 0
M  V30 1626 C 158.28 -1.48697 -1.22094 0
M  V30 1627 O 157.573 -0.661171 -1.79831 0
M  V30 1628 C 157.767 -3.57332 0.0697835 0
M  V30 1629 C 157.596 -4.26512 1.42539 0
M  V30 1630 C 156.366 -4.63516 2.01198 0
M  V30 1631 C 158.564 -4.57004 2.35907 0
M  V30 1632 N 156.546 -5.17661 3.30001 0
M  V30 1633 C 157.917 -5.12223 3.49324 0
M  V30 1634 C 159.972 -4.38955 2.34995 0
M  V30 1635 C 158.675 -5.51295 4.62024 0
M  V30 1636 C 160.701 -4.79075 3.46758 0
M  V30 1637 C 160.063 -5.34407 4.58899 0
M  V30 1638 H 156.162 -0.776041 0.0963523 0
M  V30 1639 H 158.746 -1.75945 0.833752 0
M  V30 1640 H 156.917 -3.83894 -0.589915 0
M  V30 1641 H 158.649 -4.02451 -0.42606 0
M  V30 1642 H 155.404 -4.47811 1.54151 0
M  V30 1643 H 155.828 -5.4921 3.95851 0
M  V30 1644 H 160.47 -3.95469 1.49545 0
M  V30 1645 H 158.188 -5.93736 5.48182 0
M  V30 1646 H 161.774 -4.66824 3.47227 0
M  V30 1647 H 160.654 -5.64878 5.4395 0
M  V30 1648 N 158.157 -0.370918 -1.53173 0
M  V30 1649 C 159.087 0.464847 -2.28826 0
M  V30 1650 C 160.068 1.07936 -1.31468 0
M  V30 1651 O 161.253 1.0956 -1.60344 0
M  V30 1652 C 158.383 1.60196 -3.08147 0
M  V30 1653 C 157.337 1.11443 -4.13237 0
M  V30 1654 C 156.663 2.3422 -4.80672 0
M  V30 1655 C 157.963 0.195384 -5.21934 0
M  V30 1656 H 159.657 -0.166329 -2.98938 0
M  V30 1657 H 157.203 -0.0814359 -1.4377 0
M  V30 1658 H 159.156 2.19332 -3.59822 0
M  V30 1659 H 157.88 2.26045 -2.35735 0
M  V30 1660 H 156.539 0.545727 -3.62515 0
M  V30 1661 H 156.187 2.98537 -4.04827 0
M  V30 1662 H 155.887 2.02269 -5.51689 0
M  V30 1663 H 157.411 2.94032 -5.35143 0
M  V30 1664 H 158.825 0.694375 -5.69079 0
M  V30 1665 H 157.222 -0.0335027 -6.00091 0
M  V30 1666 H 158.292 -0.760961 -4.78892 0
M  V30 1667 N 159.635 1.57281 -0.100228 0
M  V30 1668 C 161.051 1.57527 0.256416 0
M  V30 1669 C 161.251 1.11173 1.68056 0
M  V30 1670 O 160.307 0.79053 2.39806 0
M  V30 1671 C 161.62 3.00673 0.0401747 0
M  V30 1672 C 163.168 3.12815 0.107528 0
M  V30 1673 C 163.643 4.57929 -0.0807834 0
M  V30 1674 N 165.134 4.63193 -0.0261207 0
M  V30 1675 C 165.869 5.73212 -0.146999 0
M  V30 1676 N 165.365 6.92047 -0.322999 0
M  V30 1677 N 167.158 5.62031 -0.0879044 0
M  V30 1678 H 159.309 1.85718 -1.03065 0
M  V30 1679 H 161.572 0.857446 -0.404339 0
M  V30 1680 H 161.278 3.38804 -0.943649 0
M  V30 1681 H 161.152 3.69042 0.780262 0
M  V30 1682 H 163.539 2.74554 1.08186 0
M  V30 1683 H 163.62 2.47028 -0.664134 0
M  V30 1684 H 163.264 4.96886 -1.05201 0
M  V30 1685 H 163.194 5.21783 0.710635 0
M  V30 1686 H 165.685 3.77748 0.107161 0
M  V30 1687 H 165.998 7.7173 -0.406608 0
M  V30 1688 H 164.343 6.94074 -0.358733 0
M  V30 1689 H 167.534 4.68075 0.048498 0
M  V30 1690 H 167.707 6.47734 -0.185557 0
M  V30 1691 N 161.113 -0.173488 1.56642 0
M  V30 1692 C 162.341 -0.906095 1.86004 0
M  V30 1693 C 162.756 -1.75921 0.685355 0
M  V30 1694 O 162.113 -1.79198 -0.345578 0
M  V30 1695 C 162.164 -1.78462 3.14378 0
M  V30 1696 O 161.885 -0.965914 4.27319 0
M  V30 1697 C 163.386 -2.62707 3.57071 0
M  V30 1698 H 160.606 -0.263341 0.617165 0
M  V30 1699 H 163.15 -0.174236 2.03756 0
M  V30 1700 H 161.305 -2.46984 2.98459 0
M  V30 1701 H 161.719 -1.56655 5.00559 0
M  V30 1702 H 163.193 -3.19969 4.49804 0
M  V30 1703 H 163.67 -3.37472 2.81086 0
M  V30 1704 H 164.276 -1.99521 3.75595 0
M  V30 1705 N 162.591 -1.51276 -0.441967 0
M  V30 1706 C 163.521 -1.752 -1.54361 0
M  V30 1707 C 164.502 -0.601682 -1.59103 0
M  V30 1708 O 165.687 -0.843913 -1.74905 0
M  V30 1709 C 162.817 -1.87282 -2.92477 0
M  V30 1710 C 161.771 -3.02687 -3.02596 0
M  V30 1711 C 161.097 -2.99947 -4.42647 0
M  V30 1712 C 162.397 -4.4273 -2.77106 0
M  V30 1713 H 164.091 -2.67442 -1.34592 0
M  V30 1714 H 161.637 -1.28694 -0.646048 0
M  V30 1715 H 163.59 -2.02602 -3.695 0
M  V30 1716 H 162.314 -0.916844 -3.13467 0
M  V30 1717 H 160.973 -2.87065 -2.28012 0
M  V30 1718 H 160.621 -2.02136 -4.60597 0
M  V30 1719 H 160.321 -3.77439 -4.50348 0
M  V30 1720 H 161.845 -3.17354 -5.2165 0
M  V30 1721 H 163.259 -4.58727 -3.43864 0
M  V30 1722 H 161.656 -5.21893 -2.96222 0
M  V30 1723 H 162.726 -4.53087 -1.72744 0
M  V30 1724 N 164.069 0.697108 -1.41344 0
M  V30 1725 C 164.999 1.82353 -1.45841 0
M  V30 1726 C 165.98 1.67115 -0.317247 0
M  V30 1727 O 167.165 1.86871 -0.528474 0
M  V30 1728 C 164.295 3.20476 -1.33838 0
M  V30 1729 C 163.249 3.50415 -2.4575 0
M  V30 1730 C 162.575 4.87878 -2.18813 0
M  V30 1731 C 163.875 3.49546 -3.88091 0
M  V30 1732 H 165.569 1.78846 -2.40113 0
M  V30 1733 H 163.115 0.859028 -1.15571 0
M  V30 1734 H 165.068 3.98988 -1.35596 0
M  V30 1735 H 163.792 3.24604 -0.360498 0
M  V30 1736 H 162.451 2.74253 -2.43271 0
M  V30 1737 H 162.099 4.8863 -1.19371 0
M  V30 1738 H 161.799 5.08875 -2.93803 0
M  V30 1739 H 163.323 5.68702 -2.22284 0
M  V30 1740 H 164.737 4.18066 -3.92293 0
M  V30 1741 H 163.134 3.82075 -4.62751 0
M  V30 1742 H 164.204 2.48552 -4.16353 0
M  V30 1743 N 165.547 1.27147 0.931209 0
M  V30 1744 C 166.772 1.16191 1.71797 0
M  V30 1745 C 167.197 -0.278004 1.86034 0
M  V30 1746 O 166.555 -1.20137 1.35782 0
M  V30 1747 C 166.603 1.84673 3.09723 0
M  V30 1748 O 165.707 1.14231 3.96264 0
M  V30 1749 H 165.048 0.404303 0.526721 0
M  V30 1750 H 167.578 1.68152 1.1656 0
M  V30 1751 H 167.588 1.91893 3.60057 0
M  V30 1752 H 166.263 2.89421 2.98677 0
M  V30 1753 H 164.84 1.15056 3.54706 0
M  V30 1754 N 167.025 -1.13721 1.09112 0
M  V30 1755 C 168.271 -1.85198 0.826414 0
M  V30 1756 C 168.604 -1.83129 -0.646319 0
M  V30 1757 O 167.879 -1.2671 -1.47563 0
M  V30 1758 C 168.162 -3.33507 1.35812 0
M  V30 1759 C 168.015 -3.44108 2.89672 0
M  V30 1760 C 169.334 -4.28838 0.989256 0
M  V30 1761 H 166.453 -0.67243 0.301675 0
M  V30 1762 H 169.095 -1.33499 1.35197 0
M  V30 1763 H 167.245 -3.77666 0.911082 0
M  V30 1764 H 168.917 -3.08684 3.428 0
M  V30 1765 H 167.16 -2.85087 3.26967 0
M  V30 1766 H 167.831 -4.48388 3.21951 0
M  V30 1767 H 170.307 -3.92734 1.37475 0
M  V30 1768 H 169.183 -5.31051 1.38838 0
M  V30 1769 H 169.444 -4.4198 -0.102924 0
M  V30 1770 N 168.503 -0.877838 -1.30888 0
M  V30 1771 C 169.743 -0.499301 -1.98208 0
M  V30 1772 C 170.107 0.932649 -1.67826 0
M  V30 1773 O 171.308 1.41694 -2.28421 0
M  V30 1774 C 169.579 -0.758221 -3.49265 0
M  V30 1775 S 171.138 -0.480719 -4.36159 0
M  V30 1776 H 167.956 -0.186062 -0.686223 0
M  V30 1777 H 170.558 -1.13556 -1.59139 0
M  V30 1778 H 169.262 -1.79903 -3.68867 0
M  V30 1779 H 168.793 -0.109247 -3.93248 0
M  V30 1780 H 170.808 0.683698 -4.91467 0
M  V30 1781 N 169.982 1.44106 -0.638065 0
M  V30 1782 C 171.207 2.0685 -0.150916 0
M  V30 1783 C 171.632 1.47417 1.16833 0
M  V30 1784 O 170.99 0.578264 1.71831 0
M  V30 1785 C 171.038 3.60555 -0.05708 0
M  V30 1786 O 170.142 4.00465 0.984972 0
M  V30 1787 H 169.483 0.658151 -0.0879399 0
M  V30 1788 H 172.013 1.84865 -0.876707 0
M  V30 1789 H 172.023 4.07789 0.131232 0
M  V30 1790 H 170.698 4.03193 -1.02021 0
M  V30 1791 H 169.275 3.64849 0.770672 0
M  V30 1792 N 171.46 0.379036 1.52974 0
M  V30 1793 C 172.41 -0.477772 2.22938 0
M  V30 1794 C 173.394 -1.03792 1.22948 0
M  V30 1795 O 174.586 -0.965725 1.48333 0
M  V30 1796 C 171.715 -1.60994 3.03209 0
M  V30 1797 C 170.801 -1.06203 4.10587 0
M  V30 1798 N 171.192 -0.238214 5.05239 0
M  V30 1799 C 169.49 -1.33554 4.25534 0
M  V30 1800 C 170.191 0.0633235 5.81666 0
M  V30 1801 N 169.167 -0.537901 5.40932 0
M  V30 1802 H 172.969 0.158295 2.93473 0
M  V30 1803 H 170.483 0.187778 1.61311 0
M  V30 1804 H 172.48 -2.23607 3.5186 0
M  V30 1805 H 171.14 -2.24893 2.34207 0
M  V30 1806 H 172.151 0.123695 5.17752 0
M  V30 1807 H 168.828 -1.97632 3.6776 0
M  V30 1808 H 170.218 0.730161 6.67921 0
M  V30 1809 N 172.938 -1.57226 0.108567 0
M  V30 1810 C 174.163 -1.99604 -0.563303 0
M  V30 1811 C 174.588 -0.987563 -1.6009 0
M  V30 1812 O 173.946 0.0421687 -1.81251 0
M  V30 1813 C 173.994 -3.40902 -1.17552 0
M  V30 1814 O 173.098 -3.42896 -2.2912 0
M  V30 1815 H 172.439 -0.648704 -0.1417 0
M  V30 1816 H 174.969 -2.03679 0.193961 0
M  V30 1817 H 174.979 -3.78886 -1.51357 0
M  V30 1818 H 173.654 -4.1382 -0.415445 0
M  V30 1819 H 172.231 -3.1672 -1.96832 0
M  V30 1820 N 174.416 0.165178 -1.56732 0
M  V30 1821 C 175.346 1.20651 -1.99914 0
M  V30 1822 C 176.327 1.45827 -0.875705 0
M  V30 1823 O 177.512 1.57057 -1.14223 0
M  V30 1824 C 174.642 2.54401 -2.36427 0
M  V30 1825 C 173.596 2.43782 -3.51787 0
M  V30 1826 C 172.922 3.82078 -3.7406 0
M  V30 1827 C 174.222 1.93732 -4.85041 0
M  V30 1828 H 175.916 0.847534 -2.87154 0
M  V30 1829 H 173.462 0.40625 -1.38151 0
M  V30 1830 H 175.415 3.27458 -2.65234 0
M  V30 1831 H 174.139 2.92098 -1.46103 0
M  V30 1832 H 172.798 1.73178 -3.23117 0
M  V30 1833 H 172.446 4.17179 -2.81017 0
M  V30 1834 H 172.146 3.7584 -4.51684 0
M  V30 1835 H 173.67 4.56712 -4.05274 0
M  V30 1836 H 175.084 2.56569 -5.12684 0
M  V30 1837 H 173.481 1.98428 -5.66345 0
M  V30 1838 H 174.551 0.891962 -4.76626 0
M  V30 1839 N 175.894 1.51508 0.433938 0
M  V30 1840 C 177.119 1.68443 1.21003 0
M  V30 1841 C 177.544 0.382636 1.84167 0
M  V30 1842 O 176.902 -0.65755 1.68956 0
M  V30 1843 C 176.95 2.80405 2.26727 0
M  V30 1844 O 176.054 2.44245 3.32292 0
M  V30 1845 H 175.395 0.561536 0.354363 0
M  V30 1846 H 177.925 1.9809 0.512024 0
M  V30 1847 H 177.935 3.0459 2.71457 0
M  V30 1848 H 176.61 3.74867 1.80132 0
M  V30 1849 H 175.187 2.30644 2.93015 0
M  V30 1850 N 177.372 -0.689602 1.41712 0
M  V30 1851 C 178.783 -1.26973 1.36875 0
M  V30 1852 C 179.134 -1.96124 0.054748 0
M  V30 1853 O 178.259 -1.99141 -0.84687 0
M  V30 1854 C 178.854 -2.30912 2.47922 0
M  V30 1855 C 177.413 -2.84486 2.46464 0
M  V30 1856 C 176.56 -1.58603 2.27465 0
M  V30 1857 H 179.511 -0.48396 1.51141 0
M  V30 1858 H 179.532 -3.12331 2.17323 0
M  V30 1859 H 179.044 -1.80554 3.43543 0
M  V30 1860 H 177.145 -3.39005 1.54617 0
M  V30 1861 H 177.258 -3.34511 3.42986 0
M  V30 1862 H 175.622 -1.84632 1.75451 0
M  V30 1863 H 176.405 -1.10233 3.25121 0
M  V30 1864 N 178.85 -1.27639 -0.924453 0
M  V30 1865 C 179.78 -1.13166 -2.04244 0
M  V30 1866 C 180.761 -0.032256 -1.70069 0
M  V30 1867 O 181.946 -0.207328 -1.9309 0
M  V30 1868 C 179.076 -0.781496 -3.38393 0
M  V30 1869 C 178.03 -1.83449 -3.86692 0
M  V30 1870 C 177.356 -1.33822 -5.17683 0
M  V30 1871 C 178.656 -3.23917 -4.09726 0
M  V30 1872 H 180.35 -2.06689 -2.1661 0
M  V30 1873 H 177.896 -0.995136 -1.04082 0
M  V30 1874 H 179.849 -0.667057 -4.16087 0
M  V30 1875 H 178.573 0.189439 -3.2605 0
M  V30 1876 H 177.232 -1.93789 -3.11193 0
M  V30 1877 H 176.88 -0.35665 -5.01734 0
M  V30 1878 H 176.58 -2.04224 -5.50968 0
M  V30 1879 H 178.104 -1.23679 -5.97943 0
M  V30 1880 H 179.518 -3.16559 -4.77978 0
M  V30 1881 H 177.915 -3.92059 -4.54324 0
M  V30 1882 H 178.985 -3.68729 -3.14908 0
M  V30 1883 N 180.328 1.1314 -1.09713 0
M  V30 1884 C 181.575 1.84484 -0.834987 0
M  V30 1885 C 181.903 1.83689 0.639418 0
M  V30 1886 O 181.158 1.2724 1.4869 0
M  V30 1887 C 181.457 3.32167 -1.3191 0
M  V30 1888 C 181.123 3.53139 -2.80363 0
M  V30 1889 C 179.785 3.58571 -3.20905 0
M  V30 1890 C 182.137 3.60866 -3.76065 0
M  V30 1891 C 179.465 3.69267 -4.55916 0
M  V30 1892 C 181.817 3.73089 -5.10869 0
M  V30 1893 C 180.481 3.76775 -5.50996 0
M  V30 1894 H 179.751 0.675073 -0.305544 0
M  V30 1895 H 182.398 1.33554 -1.37243 0
M  V30 1896 H 180.703 3.85469 -0.701517 0
M  V30 1897 H 182.4 3.85821 -1.09284 0
M  V30 1898 H 178.99 3.49569 -2.47991 0
M  V30 1899 H 183.174 3.55946 -3.45855 0
M  V30 1900 H 178.43 3.70388 -4.86438 0
M  V30 1901 H 182.604 3.78011 -5.84877 0
M  V30 1902 H 180.231 3.84815 -6.55608 0
M  V30 1903 N 181.806 0.884767 1.30421 0
M  V30 1904 C 183.031 0.517288 2.00845 0
M  V30 1905 C 183.456 -0.886779 1.65885 0
M  V30 1906 O 182.814 -1.58768 0.875354 0
M  V30 1907 C 182.862 0.698994 3.5376 0
M  V30 1908 O 181.966 -0.255208 4.1161 0
M  V30 1909 H 181.307 0.203872 0.631927 0
M  V30 1910 H 183.837 1.19225 1.66272 0
M  V30 1911 H 183.847 0.597912 4.03595 0
M  V30 1912 H 182.522 1.72271 3.78544 0
M  V30 1913 H 181.099 -0.10784 3.72744 0
M  V30 1914 N 183.284 -1.43765 0.645699 0
M  V30 1915 C 184.533 -2.01116 0.153412 0
M  V30 1916 C 184.846 -1.51493 -1.23731 0
M  V30 1917 O 186.052 -2.01067 -1.8244 0
M  V30 1918 C 184.508 -3.59206 0.223473 0
M  V30 1919 C 184.116 -4.17823 1.61642 0
M  V30 1920 C 185.86 -4.23972 -0.211597 0
M  V30 1921 C 183.767 -5.68183 1.64081 0
M  V30 1922 H 182.697 -0.752093 0.0535891 0
M  V30 1923 H 185.348 -1.6482 0.806633 0
M  V30 1924 H 183.73 -3.92867 -0.497118 0
M  V30 1925 H 184.904 -3.95674 2.36176 0
M  V30 1926 H 183.219 -3.65399 1.99681 0
M  V30 1927 H 185.816 -5.34275 -0.213112 0
M  V30 1928 H 186.159 -3.97352 -1.24165 0
M  V30 1929 H 186.692 -3.95166 0.456988 0
M  V30 1930 H 183.431 -5.99559 2.64971 0
M  V30 1931 H 182.951 -5.9241 0.938611 0
M  V30 1932 H 184.63 -6.32085 1.3812 0
M  V30 1933 N 184.763 -0.387143 -1.52771 0
M  V30 1934 C 185.726 0.436939 -2.24997 0
M  V30 1935 C 186.726 0.991991 -1.26555 0
M  V30 1936 O 187.916 0.874335 -1.50669 0
M  V30 1937 C 185.048 1.61281 -3.00335 0
M  V30 1938 H 186.241 -0.195365 -2.99263 0
M  V30 1939 H 183.794 -0.139218 -1.55679 0
M  V30 1940 H 184.529 2.2826 -2.30364 0
M  V30 1941 H 184.314 1.22154 -3.72587 0
M  V30 1942 H 185.804 2.19629 -3.5518 0
M  V30 1943 N 186.241 1.57166 -0.116904 0
M  V30 1944 C 187.481 1.97008 0.544715 0
M  V30 1945 C 187.845 0.998713 1.63981 0
M  V30 1946 O 189.046 1.28644 2.36018 0
M  V30 1947 C 187.317 3.41145 1.06559 0
M  V30 1948 S 188.876 4.02998 1.73603 0
M  V30 1949 H 185.694 0.688587 0.177112 0
M  V30 1950 H 188.296 1.94459 -0.201487 0
M  V30 1951 H 187 4.09592 0.257374 0
M  V30 1952 H 186.531 3.4734 1.84712 0
M  V30 1953 H 188.546 3.93585 3.02168 0
M  V30 1954 N 187.719 -0.156864 1.56817 0
M  V30 1955 C 188.682 -1.17781 1.96622 0
M  V30 1956 C 189.682 -1.36401 0.851555 0
M  V30 1957 O 190.872 -1.33561 1.11836 0
M  V30 1958 C 188.004 -2.54008 2.27361 0
M  V30 1959 H 189.197 -0.836564 2.87996 0
M  V30 1960 H 186.75 -0.39985 1.51099 0
M  V30 1961 H 187.485 -2.9312 1.38748 0
M  V30 1962 H 187.27 -2.41856 3.08623 0
M  V30 1963 H 188.76 -3.27558 2.59029 0
M  V30 1964 N 189.197 -1.51736 -0.425897 0
M  V30 1965 C 190.444 -1.6497 -1.17436 0
M  V30 1966 C 190.772 -0.371445 -1.9092 0
M  V30 1967 O 190.027 0.644963 -1.84767 0
M  V30 1968 C 190.326 -2.81103 -2.20717 0
M  V30 1969 C 189.992 -4.19954 -1.64162 0
M  V30 1970 C 188.654 -4.57725 -1.48462 0
M  V30 1971 C 191.006 -5.06552 -1.22696 0
M  V30 1972 C 188.334 -5.79789 -0.897873 0
M  V30 1973 C 190.686 -6.29205 -0.654464 0
M  V30 1974 C 189.35 -6.6574 -0.484456 0
M  V30 1975 H 188.62 -0.603668 -0.429727 0
M  V30 1976 H 191.267 -1.85798 -0.463829 0
M  V30 1977 H 189.572 -2.54542 -2.97852 0
M  V30 1978 H 191.269 -2.8854 -2.78471 0
M  V30 1979 H 187.859 -3.90181 -1.77361 0
M  V30 1980 H 192.043 -4.77968 -1.33642 0
M  V30 1981 H 187.299 -6.06733 -0.75402 0
M  V30 1982 H 191.473 -6.95643 -0.324694 0
M  V30 1983 H 189.1 -7.60195 -0.0276833 0
M  V30 1984 N 190.675 0.682077 -1.42076 0
M  V30 1985 C 191.922 1.44215 -1.42156 0
M  V30 1986 C 192.25 1.94468 -0.0354186 0
M  V30 1987 O 191.505 1.70816 0.955002 0
M  V30 1988 C 191.804 2.66036 -2.38662 0
M  V30 1989 C 191.47 2.34366 -3.85206 0
M  V30 1990 C 190.132 2.25439 -4.25124 0
M  V30 1991 C 192.484 2.08513 -4.77673 0
M  V30 1992 C 189.812 1.88775 -5.55501 0
M  V30 1993 C 192.164 1.73354 -6.08384 0
M  V30 1994 C 190.828 1.62933 -6.47309 0
M  V30 1995 H 190.098 0.527718 -0.520187 0
M  V30 1996 H 192.745 0.778387 -1.74967 0
M  V30 1997 H 191.05 3.3741 -1.99152 0
M  V30 1998 H 192.747 3.24205 -2.35991 0
M  V30 1999 H 189.337 2.42213 -3.53597 0
M  V30 2000 H 193.521 2.14346 -4.47626 0
M  V30 2001 H 188.777 1.7927 -5.84527 0
M  V30 2002 H 192.951 1.52373 -6.79526 0
M  V30 2003 H 190.578 1.34292 -7.48244 0
M  V30 2004 N 192.153 1.28127 0.917671 0
M  V30 2005 C 193.4 1.15052 1.66641 0
M  V30 2006 C 193.728 -0.301677 1.92146 0
M  V30 2007 O 192.983 -1.23622 1.51711 0
M  V30 2008 C 193.282 1.89018 3.03327 0
M  V30 2009 C 192.948 3.38832 2.97496 0
M  V30 2010 C 191.61 3.79693 2.95613 0
M  V30 2011 C 193.962 4.34378 2.88036 0
M  V30 2012 C 191.29 5.14447 2.82066 0
M  V30 2013 C 193.642 5.69201 2.7603 0
M  V30 2014 C 192.306 6.09343 2.72502 0
M  V30 2015 H 191.576 0.421006 0.609783 0
M  V30 2016 H 194.223 1.58855 1.06945 0
M  V30 2017 H 192.528 1.37752 3.66785 0
M  V30 2018 H 194.225 1.76321 3.60156 0
M  V30 2019 H 190.815 3.06342 2.99754 0
M  V30 2020 H 194.999 4.03775 2.88581 0
M  V30 2021 H 190.255 5.44681 2.77728 0
M  V30 2022 H 194.429 6.42901 2.67678 0
M  V30 2023 H 192.056 7.13712 2.61762 0
M  V30 2024 N 193.631 -1.12557 1.10312 0
M  V30 2025 C 194.561 -2.20341 0.772798 0
M  V30 2026 C 195.542 -1.68198 -0.25365 0
M  V30 2027 O 196.727 -1.93831 -0.119699 0
M  V30 2028 C 193.857 -3.46709 0.202443 0
M  V30 2029 C 192.811 -4.11996 1.15943 0
M  V30 2030 C 192.137 -5.328 0.450345 0
M  V30 2031 C 193.437 -4.5828 2.50552 0
M  V30 2032 H 195.131 -2.48229 1.674 0
M  V30 2033 H 192.677 -1.19308 0.806326 0
M  V30 2034 H 194.63 -4.2138 -0.0407752 0
M  V30 2035 H 193.354 -3.18245 -0.734001 0
M  V30 2036 H 192.013 -3.39305 1.38808 0
M  V30 2037 H 191.661 -5.00602 -0.490531 0
M  V30 2038 H 191.361 -5.7743 1.08851 0
M  V30 2039 H 192.885 -6.10219 0.215642 0
M  V30 2040 H 194.299 -5.2433 2.31843 0
M  V30 2041 H 192.696 -5.13683 3.10242 0
M  V30 2042 H 193.766 -3.72329 3.10643 0
M  V30 2043 N 195.109 -0.891671 -1.2995 0
M  V30 2044 C 196.337 -0.52866 -2.00032 0
M  V30 2045 C 196.752 0.884574 -1.66795 0
M  V30 2046 O 196.109 1.5827 -0.908669 0
M  V30 2047 C 196.16 -0.701814 -3.54622 0
M  V30 2048 O 195.881 -2.05942 -3.86678 0
M  V30 2049 C 197.382 -0.342683 -4.41973 0
M  V30 2050 H 194.602 -0.203659 -0.639347 0
M  V30 2051 H 197.146 -1.19881 -1.65677 0
M  V30 2052 H 195.301 -0.0789468 -3.8732 0
M  V30 2053 H 195.715 -2.08291 -4.81368 0
M  V30 2054 H 197.189 -0.514709 -5.49595 0
M  V30 2055 H 197.666 0.71975 -4.33262 0
M  V30 2056 H 198.272 -0.942154 -4.14733 0
M  V30 2057 N 196.587 1.43421 -0.653314 0
M  V30 2058 C 197.827 2.03689 -0.170346 0
M  V30 2059 C 198.191 1.50427 1.19314 0
M  V30 2060 O 199.392 2.0234 1.76952 0
M  V30 2061 C 197.663 3.56946 -0.180183 0
M  V30 2062 S 199.222 4.38171 0.234925 0
M  V30 2063 H 196.04 0.707345 -0.0719976 0
M  V30 2064 H 198.642 1.75486 -0.86167 0
M  V30 2065 H 197.346 3.93212 -1.17526 0
M  V30 2066 H 196.877 3.89791 0.531675 0
M  V30 2067 H 198.892 4.73808 1.47378 0
M  V30 2068 N 198.065 0.39524 1.52563 0
M  V30 2069 C 199.312 -0.185044 2.01653 0
M  V30 2070 C 199.64 -1.46317 1.28146 0
M  V30 2071 O 198.895 -1.9213 0.372074 0
M  V30 2072 C 199.194 -0.493444 3.53977 0
M  V30 2073 C 198.86 0.69384 4.4553 0
M  V30 2074 C 197.522 1.01954 4.70275 0
M  V30 2075 C 199.874 1.48785 4.99512 0
M  V30 2076 C 197.202 2.14069 5.46252 0
M  V30 2077 C 199.554 2.59965 5.76716 0
M  V30 2078 C 198.218 2.93037 5.99738 0
M  V30 2079 H 197.488 -0.0677123 0.7379 0
M  V30 2080 H 200.135 0.533807 1.8391 0
M  V30 2081 H 198.44 -1.29369 3.69825 0
M  V30 2082 H 200.137 -0.955163 3.89458 0
M  V30 2083 H 196.727 0.429987 4.26438 0
M  V30 2084 H 200.911 1.24946 4.80315 0
M  V30 2085 H 196.167 2.40056 5.62302 0
M  V30 2086 H 200.341 3.21887 6.17545 0
M  V30 2087 H 197.968 3.8003 6.58393 0
M  V30 2088 N 199.544 -1.57102 0.125237 0
M  V30 2089 C 200.474 -2.18659 -0.819174 0
M  V30 2090 C 201.455 -1.12843 -1.27281 0
M  V30 2091 O 202.64 -1.41104 -1.33429 0
M  V30 2092 C 199.77 -2.79096 -2.06695 0
M  V30 2093 C 198.724 -3.90548 -1.75088 0
M  V30 2094 C 198.05 -4.37821 -3.06948 0
M  V30 2095 C 199.35 -5.12356 -1.01435 0
M  V30 2096 H 201.044 -2.9783 -0.306202 0
M  V30 2097 H 198.59 -1.4326 -0.145839 0
M  V30 2098 H 200.543 -3.2082 -2.73226 0
M  V30 2099 H 199.267 -1.97223 -2.60328 0
M  V30 2100 H 197.926 -3.49409 -1.10944 0
M  V30 2101 H 197.574 -3.52799 -3.58527 0
M  V30 2102 H 197.274 -5.12982 -2.86571 0
M  V30 2103 H 198.798 -4.822 -3.74587 0
M  V30 2104 H 200.212 -5.5106 -1.58132 0
M  V30 2105 H 198.609 -5.9314 -0.911319 0
M  V30 2106 H 199.679 -4.849 -0.00218681 0
M  V30 2107 N 201.022 0.148545 -1.56898 0
M  V30 2108 C 202.25 0.876389 -1.87422 0
M  V30 2109 C 202.665 1.74809 -0.713256 0
M  V30 2110 O 202.022 1.79725 0.317025 0
M  V30 2111 C 202.073 1.73438 -3.17178 0
M  V30 2112 O 201.794 0.897809 -4.28802 0
M  V30 2113 C 203.295 2.56993 -3.61205 0
M  V30 2114 H 200.515 0.253489 -0.621277 0
M  V30 2115 H 203.059 0.141798 -2.04008 0
M  V30 2116 H 201.214 2.42205 -3.0235 0
M  V30 2117 H 201.628 1.48672 -5.02988 0
M  V30 2118 H 203.102 3.12773 -4.54838 0
M  V30 2119 H 203.579 3.32958 -2.86419 0
M  V30 2120 H 204.185 1.9352 -3.78722 0
M  V30 2121 N 202.5 1.5196 0.417844 0
M  V30 2122 C 203.916 1.40569 0.755816 0
M  V30 2123 C 204.116 0.503316 1.95113 0
M  V30 2124 O 203.172 -0.0341925 2.52477 0
M  V30 2125 C 204.485 2.82947 1.01791 0
M  V30 2126 C 206.033 2.92231 1.12116 0
M  V30 2127 C 206.508 4.35559 1.41608 0
M  V30 2128 N 207.999 4.38753 1.48491 0
M  V30 2129 C 208.734 5.46705 1.7292 0
M  V30 2130 N 208.23 6.64788 1.95011 0
M  V30 2131 N 210.023 5.34209 1.74863 0
M  V30 2132 H 202.174 2.09168 -0.369098 0
M  V30 2133 H 204.437 0.942409 -0.102809 0
M  V30 2134 H 204.143 3.5106 0.212081 0
M  V30 2135 H 204.017 3.23462 1.94042 0
M  V30 2136 H 206.404 2.24304 1.9176 0
M  V30 2137 H 206.485 2.55185 0.177225 0
M  V30 2138 H 206.129 5.04042 0.624848 0
M  V30 2139 H 206.059 4.70133 2.37239 0
M  V30 2140 H 208.55 3.5363 1.33244 0
M  V30 2141 H 208.863 7.42845 2.13076 0
M  V30 2142 H 207.208 6.67869 1.92293 0
M  V30 2143 H 210.399 4.40937 1.57137 0
M  V30 2144 H 210.572 6.18415 1.93563 0
M  V30 2145 N 203.978 -0.674533 1.42435 0
M  V30 2146 C 205.206 -1.46283 1.46317 0
M  V30 2147 C 205.621 -1.88653 0.0745836 0
M  V30 2148 O 204.978 -1.58151 -0.91074 0
M  V30 2149 C 205.029 -2.71178 2.3905 0
M  V30 2150 O 204.75 -2.30586 3.72507 0
M  V30 2151 C 206.251 -3.64738 2.51955 0
M  V30 2152 H 203.471 -0.450104 0.497642 0
M  V30 2153 H 206.015 -0.828792 1.86953 0
M  V30 2154 H 204.17 -3.3077 2.01667 0
M  V30 2155 H 204.584 -3.11241 4.22172 0
M  V30 2156 H 206.058 -4.49096 3.20962 0
M  V30 2157 H 206.535 -4.10656 1.55752 0
M  V30 2158 H 207.141 -3.11038 2.90061 0
M  V30 2159 N 205.456 -1.28612 -0.910864 0
M  V30 2160 C 206.403 -1.12786 -2.01365 0
M  V30 2161 C 207.373 -0.024201 -1.66082 0
M  V30 2162 O 208.558 -0.189667 -1.89855 0
M  V30 2163 C 205.698 -0.798743 -3.35729 0
M  V30 2164 C 204.811 -1.98173 -3.83864 0
M  V30 2165 C 203.946 -1.59298 -5.06752 0
M  V30 2166 C 202.985 -2.74245 -5.47226 0
M  V30 2167 N 202.122 -2.35842 -6.61304 0
M  V30 2168 H 206.962 -2.07142 -2.14234 0
M  V30 2169 H 204.499 -1.03093 -1.0493 0
M  V30 2170 H 206.457 -0.588662 -4.13026 0
M  V30 2171 H 205.087 0.10789 -3.2262 0
M  V30 2172 H 204.139 -2.30386 -3.02699 0
M  V30 2173 H 205.451 -2.84343 -4.09818 0
M  V30 2174 H 204.605 -1.34513 -5.916 0
M  V30 2175 H 203.344 -0.702618 -4.82612 0
M  V30 2176 H 202.349 -2.99725 -4.60918 0
M  V30 2177 H 203.574 -3.63928 -5.73353 0
M  V30 2178 H 201.52 -1.49279 -6.38789 0
M  V30 2179 H 201.437 -3.15546 -6.86998 0
M  V30 2180 H 202.705 -2.14348 -7.4945 0
M  V30 2181 N 206.934 1.1197 -1.10907 0
M  V30 2182 C 208.35 1.35591 -0.841852 0
M  V30 2183 C 208.55 1.94233 0.536246 0
M  V30 2184 O 207.606 2.1717 1.28816 0
M  V30 2185 C 208.919 2.29284 -1.94549 0
M  V30 2186 C 210.467 2.42862 -1.97451 0
M  V30 2187 C 210.942 3.39873 -3.07002 0
M  V30 2188 N 212.433 3.47433 -3.06341 0
M  V30 2189 C 213.168 4.22421 -3.87748 0
M  V30 2190 N 212.664 5.00432 -4.79103 0
M  V30 2191 N 214.457 4.17876 -3.75946 0
M  V30 2192 H 206.608 0.722664 -1.99728 0
M  V30 2193 H 208.871 0.380635 -0.868229 0
M  V30 2194 H 208.577 1.93378 -2.93765 0
M  V30 2195 H 208.451 3.29452 -1.83688 0
M  V30 2196 H 210.838 2.78046 -0.988645 0
M  V30 2197 H 210.919 1.42566 -2.12388 0
M  V30 2198 H 210.563 3.05417 -4.05811 0
M  V30 2199 H 210.493 4.40011 -2.89306 0
M  V30 2200 H 212.984 2.91784 -2.40147 0
M  V30 2201 H 213.297 5.55002 -5.37766 0
M  V30 2202 H 211.642 4.99612 -4.83128 0
M  V30 2203 H 214.833 3.56016 -3.03924 0
M  V30 2204 H 215.006 4.76061 -4.39624 0
M  V30 2205 N 208.412 0.89855 1.29475 0
M  V30 2206 C 209.66 0.522847 1.9522 0
M  V30 2207 C 209.981 -0.93371 1.71192 0
M  V30 2208 O 209.251 -1.65823 1.04305 0
M  V30 2209 H 207.831 0.190366 0.722336 0
M  V30 2210 H 210.493 1.14459 1.5775 0
M  V30 2211 H 209.589 0.704476 3.04045 0
M  V30 2212 N 209.89 -1.43072 0.660911 0
M  V30 2213 C 211.301 -1.84932 0.256348 0
M  V30 2214 C 211.652 -1.55325 -1.19868 0
M  V30 2215 O 210.777 -1.00607 -1.91591 0
M  V30 2216 C 211.372 -3.35684 0.458475 0
M  V30 2217 C 209.931 -3.76245 0.108161 0
M  V30 2218 C 209.078 -2.66749 0.757641 0
M  V30 2219 H 212.029 -1.33116 0.864051 0
M  V30 2220 H 212.05 -3.79365 -0.293683 0
M  V30 2221 H 211.562 -3.572 1.51755 0
M  V30 2222 H 209.663 -3.60338 -0.948014 0
M  V30 2223 H 209.776 -4.76058 0.538992 0
M  V30 2224 H 208.14 -2.53989 0.190185 0
M  V30 2225 H 208.923 -2.91092 1.81989 0
M  V30 2226 N 211.368 -0.403325 -1.52352 0
M  V30 2227 C 212.616 0.174003 -2.0135 0
M  V30 2228 C 212.937 1.46139 -1.29106 0
M  V30 2229 O 212.207 1.91448 -0.415253 0
M  V30 2230 H 210.787 0.0672911 -0.743963 0
M  V30 2231 H 213.449 -0.538235 -1.87321 0
M  V30 2232 H 212.545 0.374254 -3.09848 0
M  V30 2233 N 212.846 1.57033 -0.133567 0
M  V30 2234 C 214.257 1.82593 0.389464 0
M  V30 2235 C 214.608 1.05156 1.6564 0
M  V30 2236 O 213.733 0.292644 2.14412 0
M  V30 2237 C 214.328 3.31204 0.713377 0
M  V30 2238 C 212.887 3.57393 1.18098 0
M  V30 2239 C 212.034 2.76598 0.197126 0
M  V30 2240 H 214.985 1.54598 -0.358481 0
M  V30 2241 H 215.006 3.46627 1.56939 0
M  V30 2242 H 214.518 3.87537 -0.2089 0
M  V30 2243 H 212.619 3.06433 2.11966 0
M  V30 2244 H 212.732 4.65915 1.11624 0
M  V30 2245 H 211.096 2.45257 0.687088 0
M  V30 2246 H 211.879 3.35697 -0.718504 0
M  V30 2247 N 214.325 -0.140222 1.56975 0
M  V30 2248 C 215.573 -0.850005 1.83356 0
M  V30 2249 C 215.894 -1.81399 0.71551 0
M  V30 2250 O 215.164 -1.94136 -0.262294 0
M  V30 2251 H 213.744 -0.316886 0.676456 0
M  V30 2252 H 216.406 -0.132608 1.94448 0
M  V30 2253 H 215.502 -1.40814 2.78528 0
M  V30 2254 N 215.803 -1.52179 -0.40978 0
M  V30 2255 C 217.219 -1.40968 -0.74835 0
M  V30 2256 C 217.419 -0.513657 -1.94843 0
M  V30 2257 O 216.475 0.0208026 -2.52491 0
M  V30 2258 C 217.788 -2.83483 -1.0029 0
M  V30 2259 C 219.336 -2.92821 -1.10565 0
M  V30 2260 C 219.811 -4.36303 -1.39296 0
M  V30 2261 N 221.302 -4.39535 -1.46162 0
M  V30 2262 C 222.037 -5.47614 -1.70018 0
M  V30 2263 N 221.533 -6.65812 -1.91483 0
M  V30 2264 N 223.326 -5.35129 -1.72027 0
M  V30 2265 H 215.477 -2.0897 0.380186 0
M  V30 2266 H 217.74 -0.94185 0.107805 0
M  V30 2267 H 217.446 -3.51168 -0.193461 0
M  V30 2268 H 217.32 -3.24487 -1.92323 0
M  V30 2269 H 219.707 -2.25318 -1.90568 0
M  V30 2270 H 219.788 -2.55276 -0.16369 0
M  V30 2271 H 219.432 -5.04366 -0.598109 0
M  V30 2272 H 219.362 -4.71385 -2.34743 0
M  V30 2273 H 221.853 -3.54332 -1.31367 0
M  V30 2274 H 222.166 -7.43964 -2.09134 0
M  V30 2275 H 220.511 -6.68879 -1.88749 0
M  V30 2276 H 223.702 -4.41764 -1.54796 0
M  V30 2277 H 223.875 -6.19433 -1.9028 0
M  V30 2278 N 217.281 0.66697 -1.42791 0
M  V30 2279 C 218.506 1.46004 -1.47301 0
M  V30 2280 C 218.931 1.87894 -0.0880317 0
M  V30 2281 O 218.289 1.56502 0.915253 0
M  V30 2282 C 218.337 2.68031 -2.41229 0
M  V30 2283 O 217.441 3.6659 -1.88906 0
M  V30 2284 H 216.782 0.43832 -0.49877 0
M  V30 2285 H 219.312 0.817391 -1.87563 0
M  V30 2286 H 219.322 3.1601 -2.58073 0
M  V30 2287 H 217.997 2.36883 -3.41847 0
M  V30 2288 H 216.574 3.25661 -1.81656 0
M  V30 2289 N 218.759 1.29093 0.90403 0
M  V30 2290 C 219.999 1.18076 1.66845 0
M  V30 2291 C 220.363 -0.26436 1.90171 0
M  V30 2292 O 221.564 -0.497423 2.64157 0
M  V30 2293 C 219.835 1.96722 2.98388 0
M  V30 2294 S 221.394 2.0219 3.89441 0
M  V30 2295 H 218.212 0.421104 0.572881 0
M  V30 2296 H 220.814 1.63322 1.07453 0
M  V30 2297 H 219.518 3.00866 2.7912 0
M  V30 2298 H 219.049 1.52064 3.62823 0
M  V30 2299 H 221.064 1.13545 4.83034 0
M  V30 2300 N 220.237 -1.11381 1.11499 0
M  V30 2301 C 221.485 -1.8277 0.862524 0
M  V30 2302 C 221.806 -1.85097 -0.613534 0
M  V30 2303 O 221.076 -1.32198 -1.4457 0
M  V30 2304 H 219.656 -0.676823 0.316101 0
M  V30 2305 H 222.318 -1.34816 1.4075 0
M  V30 2306 H 221.414 -2.86614 1.23527 0
M  V30 2307 N 221.715 -0.905404 -1.28997 0
M  V30 2308 C 222.94 -0.549175 -1.99997 0
M  V30 2309 C 223.365 0.860276 -1.67275 0
M  V30 2310 O 222.723 1.57355 -0.900502 0
M  V30 2311 C 222.771 -0.755185 -3.52604 0
M  V30 2312 O 221.875 0.189692 -4.11964 0
M  V30 2313 H 221.216 -0.213899 -0.628604 0
M  V30 2314 H 223.746 -1.21856 -1.64354 0
M  V30 2315 H 223.756 -0.662045 -4.02593 0
M  V30 2316 H 222.431 -1.78271 -3.75755 0
M  V30 2317 H 221.008 0.0485257 -3.72868 0
M  V30 2318 N 223.193 1.4272 -0.668489 0
M  V30 2319 C 224.439 2.02443 -0.197076 0
M  V30 2320 C 224.794 1.51882 1.18109 0
M  V30 2321 O 224.087 0.708618 1.78015 0
M  V30 2322 C 224.281 3.57021 -0.164499 0
M  V30 2323 C 224.11 4.22583 -1.53797 0
M  V30 2324 C 222.88 4.58019 -2.13416 0
M  V30 2325 C 225.078 4.50588 -2.47941 0
M  V30 2326 N 223.06 5.08729 -3.4361 0
M  V30 2327 C 224.431 5.02782 -3.62782 0
M  V30 2328 C 226.486 4.32571 -2.46551 0
M  V30 2329 C 225.189 5.38852 -4.76478 0
M  V30 2330 C 227.215 4.69713 -3.59338 0
M  V30 2331 C 226.577 5.22053 -4.72906 0
M  V30 2332 H 222.676 0.773214 -0.116894 0
M  V30 2333 H 225.26 1.73673 -0.880108 0
M  V30 2334 H 223.431 3.85323 0.487925 0
M  V30 2335 H 225.163 4.03439 0.319207 0
M  V30 2336 H 221.918 4.43566 -1.65969 0
M  V30 2337 H 222.342 5.38521 -4.10273 0
M  V30 2338 H 226.984 3.91365 -1.59978 0
M  V30 2339 H 224.702 5.78993 -5.63731 0
M  V30 2340 H 228.288 4.57454 -3.59482 0
M  V30 2341 H 227.168 5.50258 -5.58736 0
M  V30 2342 N 224.671 0.411399 1.52136 0
M  V30 2343 C 225.917 -0.156262 2.02799 0
M  V30 2344 C 226.272 -1.42613 1.29149 0
M  V30 2345 O 225.565 -1.87592 0.389839 0
M  V30 2346 C 225.759 -0.455872 3.54481 0
M  V30 2347 C 225.588 0.783404 4.42824 0
M  V30 2348 C 224.358 1.30928 4.88043 0
M  V30 2349 C 226.556 1.66217 4.86699 0
M  V30 2350 N 224.538 2.5038 5.6052 0
M  V30 2351 C 225.909 2.70292 5.5798 0
M  V30 2352 C 227.964 1.67966 4.68713 0
M  V30 2353 C 226.667 3.7603 6.13184 0
M  V30 2354 C 228.693 2.72624 5.24815 0
M  V30 2355 C 228.055 3.7542 5.9602 0
M  V30 2356 H 224.154 -0.0186886 0.781777 0
M  V30 2357 H 226.738 0.566255 1.86284 0
M  V30 2358 H 224.909 -1.14743 3.71064 0
M  V30 2359 H 226.641 -1.01261 3.91827 0
M  V30 2360 H 223.396 0.866977 4.65597 0
M  V30 2361 H 223.82 3.10881 6.014 0
M  V30 2362 H 228.462 0.898312 4.13147 0
M  V30 2363 H 226.18 4.55019 6.6782 0
M  V30 2364 H 229.766 2.74887 5.12765 0
M  V30 2365 H 228.646 4.55073 6.38654 0
M  V30 2366 N 226.149 -1.5696 0.141893 0
M  V30 2367 C 227.079 -2.19516 -0.795936 0
M  V30 2368 C 228.06 -1.14187 -1.26077 0
M  V30 2369 O 229.245 -1.42511 -1.31925 0
M  V30 2370 C 226.375 -2.81272 -2.03723 0
M  V30 2371 C 225.329 -3.92384 -1.70936 0
M  V30 2372 C 224.655 -4.41052 -3.02287 0
M  V30 2373 C 225.955 -5.13403 -0.959954 0
M  V30 2374 H 227.649 -2.98138 -0.274596 0
M  V30 2375 H 225.195 -1.43406 -0.130636 0
M  V30 2376 H 227.148 -3.237 -2.69808 0
M  V30 2377 H 225.872 -1.99973 -2.58221 0
M  V30 2378 H 224.531 -3.50566 -1.07232 0
M  V30 2379 H 224.179 -3.56582 -3.54765 0
M  V30 2380 H 223.879 -5.15993 -2.81114 0
M  V30 2381 H 225.403 -4.86146 -3.69451 0
M  V30 2382 H 226.817 -5.52706 -1.52279 0
M  V30 2383 H 225.214 -5.94073 -0.848357 0
M  V30 2384 H 226.284 -4.84875 0.0492434 0
M  V30 2385 N 227.627 0.131896 -1.57047 0
M  V30 2386 C 228.557 1.16384 -2.02428 0
M  V30 2387 C 229.538 1.43936 -0.90644 0
M  V30 2388 O 230.723 1.54599 -1.17528 0
M  V30 2389 C 227.853 2.49328 -2.4177 0
M  V30 2390 C 226.807 2.36266 -3.56879 0
M  V30 2391 C 226.133 3.74057 -3.8208 0
M  V30 2392 C 227.433 1.834 -4.89042 0
M  V30 2393 H 229.127 0.786433 -2.88887 0
M  V30 2394 H 226.673 0.376855 -1.38981 0
M  V30 2395 H 228.626 3.21759 -2.7212 0
M  V30 2396 H 227.35 2.88934 -1.52266 0
M  V30 2397 H 226.009 1.66286 -3.26718 0
M  V30 2398 H 225.657 4.11125 -2.89803 0
M  V30 2399 H 225.357 3.66174 -4.59554 0
M  V30 2400 H 226.881 4.48012 -4.1487 0
M  V30 2401 H 228.295 2.45636 -5.18011 0
M  V30 2402 H 226.692 1.8637 -5.70426 0
M  V30 2403 H 227.762 0.790662 -4.7841 0
M  V30 2404 N 229.106 1.52395 0.401703 0
M  V30 2405 C 230.069 1.75636 1.47257 0
M  V30 2406 C 231.069 0.62628 1.48103 0
M  V30 2407 O 232.259 0.894227 1.49497 0
M  V30 2408 C 229.391 1.84553 2.86624 0
M  V30 2409 H 230.584 2.71241 1.27938 0
M  V30 2410 H 228.137 1.42923 0.632662 0
M  V30 2411 H 228.872 0.908882 3.11303 0
M  V30 2412 H 228.657 2.66715 2.87412 0
M  V30 2413 H 230.147 2.04251 3.64241 0
M  V30 2414 N 230.584 -0.659388 1.43143 0
M  V30 2415 C 231.514 -1.78422 1.50625 0
M  V30 2416 C 232.495 -1.66216 0.361443 0
M  V30 2417 O 233.68 -1.85404 0.577834 0
M  V30 2418 C 230.81 -3.16815 1.42287 0
M  V30 2419 C 229.764 -3.43777 2.54954 0
M  V30 2420 C 229.09 -4.81905 2.31671 0
M  V30 2421 C 230.39 -3.39134 3.97222 0
M  V30 2422 H 232.084 -1.72417 2.44771 0
M  V30 2423 H 229.63 -0.828084 1.17808 0
M  V30 2424 H 231.583 -3.95253 1.46127 0
M  V30 2425 H 230.307 -3.23534 0.446435 0
M  V30 2426 H 228.966 -2.67707 2.50457 0
M  V30 2427 H 228.614 -4.85294 1.32284 0
M  V30 2428 H 228.314 -5.00906 3.07192 0
M  V30 2429 H 229.838 -5.62609 2.37284 0
M  V30 2430 H 231.252 -4.07518 4.03239 0
M  V30 2431 H 229.649 -3.69671 4.72719 0
M  V30 2432 H 230.719 -2.37426 4.22797 0
M  V30 2433 N 232.062 -1.29571 -0.897171 0
M  V30 2434 C 233.473 -1.15964 -1.46319 0
M  V30 2435 C 233.824 0.244267 -1.94674 0
M  V30 2436 O 232.949 1.13998 -1.83939 0
M  V30 2437 C 233.544 -2.09906 -2.65942 0
M  V30 2438 C 232.103 -2.00314 -3.18671 0
M  V30 2439 C 231.25 -2.00687 -1.91363 0
M  V30 2440 H 234.201 -1.42019 -0.708268 0
M  V30 2441 H 234.222 -1.67276 -3.41759 0
M  V30 2442 H 233.734 -3.12075 -2.30718 0
M  V30 2443 H 231.835 -1.01242 -3.58582 0
M  V30 2444 H 231.948 -2.88102 -3.82798 0
M  V30 2445 H 230.312 -1.45319 -2.09175 0
M  V30 2446 H 231.095 -3.04566 -1.58413 0
M  V30 2447 N 233.54 1.10788 -1.12088 0
M  V30 2448 C 234.503 2.15207 -0.788577 0
M  V30 2449 C 235.503 1.59609 0.195317 0
M  V30 2450 O 236.693 1.74174 -0.0300193 0
M  V30 2451 C 233.825 3.4047 -0.171174 0
M  V30 2452 H 235.018 2.46116 -1.71368 0
M  V30 2453 H 232.571 1.26089 -0.923652 0
M  V30 2454 H 233.306 3.15176 0.763832 0
M  V30 2455 H 233.091 3.82109 -0.879514 0
M  V30 2456 H 234.581 4.17576 0.04496 0
M  V30 2457 N 235.018 0.912232 1.28515 0
M  V30 2458 C 236.258 0.551677 1.96814 0
M  V30 2459 C 236.622 -0.887825 1.7024 0
M  V30 2460 O 237.823 -1.35588 2.32098 0
M  V30 2461 C 236.094 0.850555 3.47132 0
M  V30 2462 S 237.653 0.59619 4.34731 0
M  V30 2463 H 234.471 0.204191 0.681049 0
M  V30 2464 H 237.073 1.17736 1.56072 0
M  V30 2465 H 235.777 1.8962 3.63968 0
M  V30 2466 H 235.308 0.213471 3.9282 0
M  V30 2467 H 237.323 -0.553154 4.93107 0
M  V30 2468 N 236.496 -1.42363 0.676048 0
M  V30 2469 C 237.736 -2.03392 0.20273 0
M  V30 2470 C 238.1 -1.52306 -1.16906 0
M  V30 2471 O 239.301 -2.05129 -1.73711 0
M  V30 2472 C 237.572 -3.56614 0.236947 0
M  V30 2473 S 239.131 -4.38489 -0.165186 0
M  V30 2474 H 235.949 -0.70611 0.0832418 0
M  V30 2475 H 238.551 -1.74093 0.88948 0
M  V30 2476 H 237.255 -3.91293 1.23767 0
M  V30 2477 H 236.786 -3.90587 -0.469596 0
M  V30 2478 H 238.801 -4.76093 -1.39822 0
M  V30 2479 N 237.974 -0.419461 -1.51915 0
M  V30 2480 C 239.204 0.151915 -2.06041 0
M  V30 2481 C 239.612 1.38539 -1.28855 0
M  V30 2482 O 238.955 1.80592 -0.336463 0
M  V30 2483 C 239.017 0.557119 -3.55157 0
M  V30 2484 C 238.681 -0.567054 -4.53468 0
M  V30 2485 C 239.678 -1.43379 -4.99738 0
M  V30 2486 C 237.363 -0.742693 -4.96779 0
M  V30 2487 C 239.357 -2.46102 -5.87973 0
M  V30 2488 C 237.044 -1.77322 -5.84808 0
M  V30 2489 C 238.042 -2.63078 -6.30301 0
M  V30 2490 O 237.73 -3.64364 -7.16585 0
M  V30 2491 H 237.462 0.0193293 -0.675724 0
M  V30 2492 H 240.016 -0.592073 -1.96682 0
M  V30 2493 H 238.246 1.35355 -3.62238 0
M  V30 2494 H 239.935 1.05759 -3.9188 0
M  V30 2495 H 240.701 -1.30954 -4.66986 0
M  V30 2496 H 236.58 -0.0848307 -4.60922 0
M  V30 2497 H 240.124 -3.13071 -6.23404 0
M  V30 2498 H 236.021 -1.89773 -6.16974 0
M  V30 2499 H 236.789 -3.60731 -7.34721 0
M  V30 2500 N 239.452 1.56882 -0.150215 0
M  V30 2501 C 240.382 2.19935 0.784284 0
M  V30 2502 C 241.363 1.14854 1.25469 0
M  V30 2503 O 242.548 1.43209 1.31168 0
M  V30 2504 C 239.678 2.82349 2.02229 0
M  V30 2505 C 238.632 3.93285 1.68853 0
M  V30 2506 C 237.958 4.42649 2.99944 0
M  V30 2507 C 239.258 5.13904 0.932714 0
M  V30 2508 H 240.952 2.9828 0.258781 0
M  V30 2509 H 238.498 1.43473 0.123029 0
M  V30 2510 H 240.451 3.25126 2.68088 0
M  V30 2511 H 239.175 2.0134 2.57157 0
M  V30 2512 H 237.834 3.5113 1.05371 0
M  V30 2513 H 237.482 3.58458 3.52869 0
M  V30 2514 H 237.182 5.17476 2.78374 0
M  V30 2515 H 238.706 4.88099 3.66868 0
M  V30 2516 H 240.12 5.53506 1.49345 0
M  V30 2517 H 238.517 5.94515 0.81684 0
M  V30 2518 H 239.587 4.84842 -0.0749568 0
M  V30 2519 N 240.93 -0.123565 1.57115 0
M  V30 2520 C 242.178 -0.83051 1.84247 0
M  V30 2521 C 242.499 -1.80629 0.73471 0
M  V30 2522 O 241.769 -1.94403 -0.241688 0
M  V30 2523 H 240.349 -0.309694 0.679778 0
M  V30 2524 H 243.011 -0.111976 1.94578 0
M  V30 2525 H 242.107 -1.37852 2.80006 0
M  V30 2526 N 242.408 -1.52605 -0.393616 0
M  V30 2527 C 243.685 -1.58001 -1.15304 0
M  V30 2528 C 244.065 -0.370385 -2.07825 0
M  V30 2529 O 243.413 0.641638 -2.19306 0
M  V30 2530 C 243.623 -2.91652 -1.91677 0
M  V30 2531 C 244.971 -3.4522 -2.47201 0
M  V30 2532 O 245.995 -2.93495 -2.01839 0
M  V30 2533 O 244.854 -4.35579 -3.3005 0
M  V30 2534 H 241.948 -0.637068 -0.527327 0
M  V30 2535 H 244.494 -1.64939 -0.399141 0
M  V30 2536 H 243.266 -3.71136 -1.23992 0
M  V30 2537 H 242.889 -2.88077 -2.74039 0
M  V30 2538 N 243.887 0.651787 -1.4349 0
M  V30 2539 C 245.134 1.41167 -1.45183 0
M  V30 2540 C 245.462 1.94349 -0.0766601 0
M  V30 2541 O 244.717 1.72804 0.918555 0
M  V30 2542 C 245.016 2.60914 -2.44251 0
M  V30 2543 C 244.682 2.26142 -3.9009 0
M  V30 2544 C 243.344 2.16371 -4.2981 0
M  V30 2545 C 245.696 1.98334 -4.81989 0
M  V30 2546 C 243.024 1.7695 -5.5938 0
M  V30 2547 C 245.376 1.6041 -6.11924 0
M  V30 2548 C 244.04 1.49166 -6.5062 0
M  V30 2549 H 243.31 0.516566 -0.531263 0
M  V30 2550 H 245.957 0.741099 -1.76579 0
M  V30 2551 H 244.262 3.3311 -2.06265 0
M  V30 2552 H 245.959 3.19127 -2.42815 0
M  V30 2553 H 242.549 2.34658 -3.58655 0
M  V30 2554 H 246.733 2.04803 -4.52072 0
M  V30 2555 H 241.989 1.66831 -5.88198 0
M  V30 2556 H 246.163 1.37925 -6.82605 0
M  V30 2557 H 243.79 1.1839 -7.50925 0
M  V30 2558 N 245.365 1.30045 0.890287 0
M  V30 2559 C 246.295 1.18541 2.01172 0
M  V30 2560 C 247.276 0.0773356 1.69924 0
M  V30 2561 O 248.461 0.25845 1.92473 0
M  V30 2562 C 245.591 0.870941 3.36202 0
M  V30 2563 C 244.545 1.93637 3.81692 0
M  V30 2564 C 243.871 1.475 5.13953 0
M  V30 2565 C 245.171 3.34666 4.00994 0
M  V30 2566 H 246.865 2.12359 2.11054 0
M  V30 2567 H 244.411 1.02238 1.01407 0
M  V30 2568 H 246.364 0.777141 4.14172 0
M  V30 2569 H 245.088 -0.102926 3.26438 0
M  V30 2570 H 243.747 2.01972 3.05946 0
M  V30 2571 H 243.395 0.489551 5.00612 0
M  V30 2572 H 243.095 2.1876 5.4536 0
M  V30 2573 H 244.619 1.39489 5.94454 0
M  V30 2574 H 246.033 3.2912 4.69417 0
M  V30 2575 H 244.43 4.03966 4.43769 0
M  V30 2576 H 245.5 3.76949 3.05021 0
M  V30 2577 N 246.843 -1.10192 1.12674 0
M  V30 2578 C 248.089 -1.82475 0.884915 0
M  V30 2579 C 248.422 -1.85093 -0.58773 0
M  V30 2580 O 247.697 -1.3134 -1.43457 0
M  V30 2581 C 247.98 -3.29018 1.46353 0
M  V30 2582 C 247.833 -3.34718 3.00473 0
M  V30 2583 C 249.152 -4.25473 1.12519 0
M  V30 2584 H 246.271 -0.662492 0.322915 0
M  V30 2585 H 248.913 -1.2913 1.39375 0
M  V30 2586 H 247.063 -3.74576 1.03077 0
M  V30 2587 H 248.735 -2.97622 3.52447 0
M  V30 2588 H 246.978 -2.74541 3.35872 0
M  V30 2589 H 247.649 -4.37918 3.36053 0
M  V30 2590 H 250.125 -3.88161 1.499 0
M  V30 2591 H 249.001 -5.26365 1.55663 0
M  V30 2592 H 249.262 -4.42084 0.0377407 0
M  V30 2593 N 248.321 -0.919034 -1.28029 0
M  V30 2594 C 249.567 -0.565221 -1.95389 0
M  V30 2595 C 249.922 0.882325 -1.70976 0
M  V30 2596 O 249.215 1.61988 -1.02325 0
M  V30 2597 C 249.409 -0.816855 -3.4794 0
M  V30 2598 C 249.238 -2.28731 -3.87185 0
M  V30 2599 C 248.008 -2.93841 -4.11079 0
M  V30 2600 C 250.206 -3.26415 -3.97439 0
M  V30 2601 N 248.188 -4.31129 -4.37037 0
M  V30 2602 C 249.559 -4.48884 -4.27672 0
M  V30 2603 C 251.614 -3.21742 -3.79982 0
M  V30 2604 C 250.317 -5.67268 -4.42266 0
M  V30 2605 C 252.343 -4.39431 -3.95796 0
M  V30 2606 C 251.705 -5.60675 -4.26407 0
M  V30 2607 H 247.804 -0.256797 -0.738633 0
M  V30 2608 H 250.388 -1.18386 -1.54573 0
M  V30 2609 H 248.559 -0.227445 -3.87733 0
M  V30 2610 H 250.291 -0.426542 -4.02446 0
M  V30 2611 H 247.046 -2.44547 -4.05578 0
M  V30 2612 H 247.47 -5.02127 -4.5409 0
M  V30 2613 H 252.112 -2.29079 -3.55363 0
M  V30 2614 H 249.83 -6.60406 -4.65714 0
M  V30 2615 H 253.416 -4.37323 -3.83719 0
M  V30 2616 H 252.296 -6.50223 -4.38383 0
M  V30 2617 N 249.799 1.42003 -0.683588 0
M  V30 2618 C 250.731 2.29183 0.0283068 0
M  V30 2619 C 251.744 1.4415 0.756611 0
M  V30 2620 O 252.933 1.67779 0.609306 0
M  V30 2621 C 250.033 3.21765 1.06398 0
M  V30 2622 C 249.206 4.35496 0.407723 0
M  V30 2623 C 248.265 5.08737 1.34437 0
M  V30 2624 O 247.291 5.62948 0.841318 0
M  V30 2625 N 248.493 5.15075 2.67728 0
M  V30 2626 H 251.258 2.9092 -0.720105 0
M  V30 2627 H 248.819 1.53025 -0.528682 0
M  V30 2628 H 250.811 3.6763 1.69204 0
M  V30 2629 H 249.381 2.61418 1.71404 0
M  V30 2630 H 248.601 3.92165 -0.400012 0
M  V30 2631 H 249.889 5.08776 -0.0490956 0
M  V30 2632 H 249.287 4.72457 3.11129 0
M  V30 2633 H 247.844 5.64556 3.2576 0
M  V30 2634 N 251.277 0.427512 1.51691 0
M  V30 2635 C 252.523 -0.134744 2.02953 0
M  V30 2636 C 252.878 -1.41235 1.30654 0
M  V30 2637 O 252.171 -1.87168 0.409713 0
M  V30 2638 C 252.365 -0.418249 3.54944 0
M  V30 2639 C 252.194 0.830327 4.41968 0
M  V30 2640 C 250.964 1.36097 4.86627 0
M  V30 2641 C 253.162 1.7137 4.84909 0
M  V30 2642 N 251.144 2.56311 5.57833 0
M  V30 2643 C 252.515 2.76195 5.55082 0
M  V30 2644 C 254.57 1.72928 4.66905 0
M  V30 2645 C 253.273 3.82512 6.09161 0
M  V30 2646 C 255.299 2.78175 5.21894 0
M  V30 2647 C 254.661 3.8172 5.92004 0
M  V30 2648 H 250.76 -0.0103958 0.781931 0
M  V30 2649 H 253.344 0.585981 1.85673 0
M  V30 2650 H 251.515 -1.10801 3.7226 0
M  V30 2651 H 253.247 -0.970999 3.92879 0
M  V30 2652 H 250.002 0.916311 4.64651 0
M  V30 2653 H 250.426 3.17242 5.98069 0
M  V30 2654 H 255.068 0.942081 4.12171 0
M  V30 2655 H 252.786 4.62077 6.62956 0
M  V30 2656 H 256.372 2.8031 5.09821 0
M  V30 2657 H 255.252 4.61821 6.33791 0
M  V30 2658 N 252.755 -1.56801 0.158532 0
M  V30 2659 C 254.001 -1.97559 -0.483957 0
M  V30 2660 C 254.356 -1.04239 -1.61716 0
M  V30 2661 O 253.649 -0.079603 -1.91435 0
M  V30 2662 C 253.843 -3.4235 -1.02623 0
M  V30 2663 C 253.672 -4.49669 0.0528929 0
M  V30 2664 C 252.442 -5.02838 0.498234 0
M  V30 2665 C 254.64 -5.0725 0.848616 0
M  V30 2666 N 252.622 -5.93775 1.559 0
M  V30 2667 C 253.993 -5.94506 1.7596 0
M  V30 2668 C 256.048 -4.89788 0.895121 0
M  V30 2669 C 254.751 -6.66169 2.71314 0
M  V30 2670 C 256.777 -5.62161 1.83654 0
M  V30 2671 C 256.139 -6.49134 2.73503 0
M  V30 2672 H 252.238 -0.768332 -0.145566 0
M  V30 2673 H 254.822 -1.93012 0.255799 0
M  V30 2674 H 252.993 -3.47467 -1.73555 0
M  V30 2675 H 254.725 -3.70145 -1.63629 0
M  V30 2676 H 251.48 -4.73498 0.0983222 0
M  V30 2677 H 251.904 -6.43948 2.08949 0
M  V30 2678 H 256.546 -4.22255 0.21453 0
M  V30 2679 H 254.264 -7.32923 3.40367 0
M  V30 2680 H 257.85 -5.5064 1.87847 0
M  V30 2681 H 256.73 -7.04153 3.45163 0
M  V30 2682 N 254.233 0.115231 -1.57178 0
M  V30 2683 C 255.458 0.840354 -1.89612 0
M  V30 2684 C 255.883 1.72464 -0.750845 0
M  V30 2685 O 255.241 1.78826 0.298478 0
M  V30 2686 C 255.289 1.64654 -3.20814 0
M  V30 2687 O 254.393 2.7538 -3.06985 0
M  V30 2688 H 253.734 0.232158 -0.622092 0
M  V30 2689 H 256.264 0.0964977 -2.04372 0
M  V30 2690 H 256.274 2.03499 -3.53627 0
M  V30 2691 H 254.949 0.997416 -4.03763 0
M  V30 2692 H 253.526 2.3971 -2.85646 0
M  V30 2693 N 255.711 1.52812 0.385517 0
M  V30 2694 C 256.957 1.69225 1.12847 0
M  V30 2695 C 257.312 0.42864 1.87564 0
M  V30 2696 O 256.605 -0.57779 1.8268 0
M  V30 2697 C 256.799 2.86856 2.13187 0
M  V30 2698 C 256.628 4.24535 1.48325 0
M  V30 2699 C 255.398 4.89701 1.24585 0
M  V30 2700 C 257.596 5.05794 0.931501 0
M  V30 2701 N 255.578 6.11353 0.558644 0
M  V30 2702 C 256.949 6.1888 0.372552 0
M  V30 2703 C 259.004 4.90963 0.828248 0
M  V30 2704 C 257.707 7.18757 -0.279556 0
M  V30 2705 C 259.733 5.91095 0.189956 0
M  V30 2706 C 259.095 7.03489 -0.358207 0
M  V30 2707 H 255.194 0.67268 0.39878 0
M  V30 2708 H 257.778 1.9017 0.417528 0
M  V30 2709 H 255.949 2.67484 2.81614 0
M  V30 2710 H 257.681 2.92188 2.80014 0
M  V30 2711 H 254.436 4.48485 1.52178 0
M  V30 2712 H 254.86 6.76606 0.230983 0
M  V30 2713 H 259.502 4.04274 1.23784 0
M  V30 2714 H 257.22 8.05052 -0.701152 0
M  V30 2715 H 260.806 5.81694 0.111264 0
M  V30 2716 H 259.686 7.79642 -0.844314 0
M  V30 2717 N 257.189 -0.644168 1.43834 0
M  V30 2718 C 258.6 -1.22554 1.40845 0
M  V30 2719 C 258.951 -1.9585 0.117115 0
M  V30 2720 O 258.076 -2.01734 -0.783086 0
M  V30 2721 C 258.671 -2.22907 2.55143 0
M  V30 2722 C 257.23 -2.76501 2.5539 0
M  V30 2723 C 256.377 -1.51287 2.32396 0
M  V30 2724 H 259.328 -0.43563 1.52604 0
M  V30 2725 H 259.349 -3.05259 2.2715 0
M  V30 2726 H 258.861 -1.69533 3.49114 0
M  V30 2727 H 256.962 -3.33914 1.65324 0
M  V30 2728 H 257.075 -3.23429 3.53455 0
M  V30 2729 H 255.439 -1.78957 1.81236 0
M  V30 2730 H 256.222 -0.998336 3.28463 0
M  V30 2731 N 258.668 -1.30515 -0.883378 0
M  V30 2732 C 259.914 -1.20617 -1.63778 0
M  V30 2733 C 260.269 0.236469 -1.90941 0
M  V30 2734 O 259.562 1.16596 -1.52039 0
M  V30 2735 C 259.756 -1.96994 -2.98209 0
M  V30 2736 C 259.585 -3.48537 -2.84169 0
M  V30 2737 C 258.355 -4.17893 -2.84067 0
M  V30 2738 C 260.553 -4.43738 -2.60001 0
M  V30 2739 N 258.535 -5.55685 -2.60936 0
M  V30 2740 C 259.906 -5.69105 -2.46007 0
M  V30 2741 C 261.961 -4.33316 -2.45239 0
M  V30 2742 C 260.664 -6.8523 -2.18752 0
M  V30 2743 C 262.69 -5.4921 -2.19369 0
M  V30 2744 C 262.052 -6.73558 -2.06153 0
M  V30 2745 H 258.151 -0.496434 -0.604216 0
M  V30 2746 H 260.735 -1.64544 -1.04083 0
M  V30 2747 H 258.906 -1.55455 -3.55933 0
M  V30 2748 H 260.638 -1.79225 -3.62851 0
M  V30 2749 H 257.393 -3.69739 -2.95956 0
M  V30 2750 H 257.817 -6.28199 -2.52378 0
M  V30 2751 H 262.459 -3.37856 -2.54191 0
M  V30 2752 H 260.177 -7.80729 -2.08537 0
M  V30 2753 H 263.763 -5.43054 -2.08766 0
M  V30 2754 H 262.643 -7.61721 -1.86416 0
M  V30 2755 N 260.146 1.09593 -1.13257 0
M  V30 2756 C 261.394 1.81375 -0.891492 0
M  V30 2757 C 261.715 1.86049 0.584009 0
M  V30 2758 O 260.985 1.34481 1.42449 0
M  V30 2759 H 259.565 0.671708 -0.326828 0
M  V30 2760 H 262.227 1.3256 -1.42877 0
M  V30 2761 H 261.323 2.84612 -1.28071 0
M  V30 2762 N 261.624 0.925811 1.2754 0
M  V30 2763 C 262.901 0.483726 1.89524 0
M  V30 2764 C 263.281 -1.03809 1.83812 0
M  V30 2765 O 262.629 -1.89143 1.28207 0
M  V30 2766 C 262.839 1.02769 3.33526 0
M  V30 2767 C 264.187 1.08703 4.10449 0
M  V30 2768 O 265.211 0.977175 3.42534 0
M  V30 2769 O 264.07 1.25599 5.31871 0
M  V30 2770 H 261.164 0.15529 0.812289 0
M  V30 2771 H 263.71 1.01738 1.35822 0
M  V30 2772 H 262.482 2.07155 3.31967 0
M  V30 2773 H 262.105 0.475567 3.94746 0
M  V30 2774 N 263.102 -1.41638 0.69111 0
M  V30 2775 C 264.35 -2.00902 0.219758 0
M  V30 2776 C 264.671 -1.54994 -1.18329 0
M  V30 2777 O 263.941 -0.778628 -1.79762 0
M  V30 2778 H 262.521 -0.74289 0.0782558 0
M  V30 2779 H 265.183 -1.73327 0.891271 0
M  V30 2780 H 264.279 -3.11224 0.233708 0
M  V30 2781 N 264.58 -0.43555 -1.51462 0
M  V30 2782 C 265.857 0.191364 -1.94662 0
M  V30 2783 C 266.237 1.60254 -1.37411 0
M  V30 2784 O 265.585 2.2152 -0.560458 0
M  V30 2785 C 265.795 0.17091 -3.48581 0
M  V30 2786 C 267.143 0.377357 -4.2292 0
M  V30 2787 O 268.167 0.249104 -3.55328 0
M  V30 2788 O 267.026 0.63247 -5.42828 0
M  V30 2789 H 264.12 0.130932 -0.816569 0
M  V30 2790 H 266.666 -0.4934 -1.62369 0
M  V30 2791 H 265.438 -0.815738 -3.82703 0
M  V30 2792 H 265.061 0.898659 -3.87311 0
M  V30 2793 N 266.058 1.56714 -0.166846 0
M  V30 2794 C 267.021 2.16539 0.751232 0
M  V30 2795 C 268.021 1.11228 1.16125 0
M  V30 2796 O 269.211 1.36765 1.07894 0
M  V30 2797 C 266.343 2.74462 2.02196 0
M  V30 2798 H 267.536 2.99013 0.230499 0
M  V30 2799 H 265.089 1.56081 0.0826982 0
M  V30 2800 H 265.824 1.95709 2.58589 0
M  V30 2801 H 265.609 3.51527 1.73698 0
M  V30 2802 H 267.099 3.20489 2.67725 0
M  V30 2803 N 267.536 -0.106894 1.57237 0
M  V30 2804 C 268.784 -0.810921 1.85117 0
M  V30 2805 C 269.105 -1.7984 0.753827 0
M  V30 2806 O 268.375 -1.94649 -0.221056 0
M  V30 2807 H 266.955 -0.302466 0.683025 0
M  V30 2808 H 269.617 -0.0913324 1.94686 0
M  V30 2809 H 268.713 -1.34875 2.81452 0
M  V30 2810 N 269.014 -1.53014 -0.377408 0
M  V30 2811 C 270.239 -1.72818 -1.14668 0
M  V30 2812 C 270.664 -0.450725 -1.8262 0
M  V30 2813 O 270.022 0.59439 -1.7128 0
M  V30 2814 C 270.07 -2.88627 -2.16164 0
M  V30 2815 O 269.174 -2.56409 -3.22998 0
M  V30 2816 H 268.515 -0.574301 -0.333278 0
M  V30 2817 H 271.045 -1.99853 -0.438152 0
M  V30 2818 H 271.055 -3.14455 -2.59966 0
M  V30 2819 H 269.73 -3.81294 -1.66095 0
M  V30 2820 H 268.307 -2.4136 -2.84253 0
M  V30 2821 N 270.492 0.636531 -1.44174 0
M  V30 2822 C 271.455 1.73063 -1.50273 0
M  V30 2823 C 272.455 1.56113 -0.385397 0
M  V30 2824 O 273.645 1.61707 -0.64781 0
M  V30 2825 C 270.777 3.12096 -1.37145 0
M  V30 2826 H 271.97 1.69031 -2.47727 0
M  V30 2827 H 269.523 0.849706 -1.31186 0
M  V30 2828 H 270.258 3.21728 -0.407636 0
M  V30 2829 H 270.043 3.25805 -2.18159 0
M  V30 2830 H 271.533 3.91846 -1.44382 0
M  V30 2831 N 271.97 1.30982 0.876444 0
M  V30 2832 C 272.933 1.18054 1.96459 0
M  V30 2833 C 273.933 0.109399 1.60427 0
M  V30 2834 O 275.123 0.358173 1.70478 0
M  V30 2835 C 272.255 0.810616 3.31122 0
M  V30 2836 H 273.448 2.14735 2.09354 0
M  V30 2837 H 271.001 1.145 1.06392 0
M  V30 2838 H 271.736 -0.155322 3.23928 0
M  V30 2839 H 271.521 1.58481 3.58645 0
M  V30 2840 H 273.011 0.743876 4.10921 0
M  V30 2841 N 273.449 -1.08991 1.13837 0
M  V30 2842 C 274.86 -1.62746 0.914917 0
M  V30 2843 C 275.211 -1.88403 -0.547594 0
M  V30 2844 O 274.336 -1.63706 -1.41525 0
M  V30 2845 C 274.931 -2.95662 1.65437 0
M  V30 2846 C 273.49 -3.46225 1.47666 0
M  V30 2847 C 272.637 -2.20562 1.6807 0
M  V30 2848 H 275.588 -0.922946 1.29102 0
M  V30 2849 H 275.609 -3.63825 1.11407 0
M  V30 2850 H 275.121 -2.76956 2.71877 0
M  V30 2851 H 273.222 -3.70046 0.435478 0
M  V30 2852 H 273.335 -4.23368 2.24268 0
M  V30 2853 H 271.699 -2.29439 1.10589 0
M  V30 2854 H 272.482 -2.0437 2.7584 0
M  V30 2855 N 274.927 -0.932562 -1.27047 0
M  V30 2856 C 275.877 -0.406392 -2.24349 0
M  V30 2857 C 276.861 0.492066 -1.53191 0
M  V30 2858 O 278.053 0.328717 -1.73921 0
M  V30 2859 C 275.182 0.335214 -3.41659 0
M  V30 2860 C 274.268 -0.58004 -4.20115 0
M  V30 2861 N 274.659 -1.70203 -4.76303 0
M  V30 2862 C 272.957 -0.383974 -4.44344 0
M  V30 2863 C 273.658 -2.27167 -5.35509 0
M  V30 2864 N 272.634 -1.56068 -5.20715 0
M  V30 2865 H 276.436 -1.26299 -2.65378 0
M  V30 2866 H 273.95 -0.787408 -1.42034 0
M  V30 2867 H 275.947 0.729142 -4.10474 0
M  V30 2868 H 274.607 1.18868 -3.0216 0
M  V30 2869 H 275.618 -2.08433 -4.74106 0
M  V30 2870 H 272.295 0.428436 -4.15296 0
M  V30 2871 H 273.685 -3.21654 -5.89905 0
M  V30 2872 N 276.405 1.4127 -0.698611 0
M  V30 2873 C 277.633 2.05503 -0.239992 0
M  V30 2874 C 278.048 1.52584 1.11191 0
M  V30 2875 O 277.405 0.675323 1.69545 0
M  V30 2876 C 277.456 3.60987 -0.192429 0
M  V30 2877 O 277.177 4.1195 -1.49094 0
M  V30 2878 C 278.678 4.42371 0.28681 0
M  V30 2879 H 275.898 0.661748 -0.111045 0
M  V30 2880 H 278.442 1.80987 -0.95205 0
M  V30 2881 H 276.597 3.84533 0.470472 0
M  V30 2882 H 277.011 5.06018 -1.38007 0
M  V30 2883 H 278.485 5.51344 0.26896 0
M  V30 2884 H 278.962 4.18699 1.32619 0
M  V30 2885 H 279.568 4.23897 -0.345201 0
M  V30 2886 N 277.883 0.443576 1.51229 0
M  V30 2887 C 279.294 -0.0180867 1.86691 0
M  V30 2888 C 279.645 -1.41384 1.36033 0
M  V30 2889 O 278.77 -2.04291 0.713722 0
M  V30 2890 C 279.365 -0.039597 3.38777 0
M  V30 2891 C 277.924 -0.445692 3.73752 0
M  V30 2892 C 277.071 0.357584 2.74985 0
M  V30 2893 H 280.022 0.659138 1.44364 0
M  V30 2894 H 280.043 -0.847761 3.70936 0
M  V30 2895 H 279.555 0.976382 3.75617 0
M  V30 2896 H 277.656 -1.46704 3.42503 0
M  V30 2897 H 277.769 -0.166155 4.78812 0
M  V30 2898 H 276.133 -0.184973 2.54027 0
M  V30 2899 H 276.916 1.37256 3.14668 0
M  V30 2900 N 279.361 -1.56624 0.175154 0
M  V30 2901 C 280.772 -1.83561 -0.340916 0
M  V30 2902 C 281.123 -1.09511 -1.62794 0
M  V30 2903 O 280.248 -0.349389 -2.13561 0
M  V30 2904 C 280.843 -3.32979 -0.625313 0
M  V30 2905 C 279.402 -3.60399 -1.08581 0
M  V30 2906 C 278.549 -2.77024 -0.123722 0
M  V30 2907 H 281.5 -1.53593 0.399344 0
M  V30 2908 H 281.521 -3.50666 -1.47694 0
M  V30 2909 H 281.033 -3.86847 0.311575 0
M  V30 2910 H 279.134 -3.11945 -2.03767 0
M  V30 2911 H 279.247 -4.68711 -0.992317 0
M  V30 2912 H 277.611 -2.46993 -0.621821 0
M  V30 2913 H 278.394 -3.33674 0.807256 0
M  V30 2914 N 280.839 0.0985539 -1.57292 0
M  V30 2915 C 281.749 1.13824 -2.05137 0
M  V30 2916 C 282.765 1.44076 -0.975604 0
M  V30 2917 O 283.941 1.54786 -1.28853 0
M  V30 2918 C 281.006 2.43969 -2.46333 0
M  V30 2919 C 280.067 2.2093 -3.68087 0
M  V30 2920 C 279.3 3.44869 -4.0731 0
M  V30 2921 O 279.523 4.52972 -3.46659 0
M  V30 2922 O 278.457 3.34661 -5.00285 0
M  V30 2923 H 282.283 0.761881 -2.93988 0
M  V30 2924 H 279.868 0.310818 -1.46131 0
M  V30 2925 H 281.75 3.20609 -2.73473 0
M  V30 2926 H 280.425 2.81038 -1.60621 0
M  V30 2927 H 279.332 1.42081 -3.46069 0
M  V30 2928 H 280.665 1.88755 -4.54568 0
M  V30 2929 N 282.317 1.53212 0.369288 0
M  V30 2930 C 283.28 1.7872 1.43498 0
M  V30 2931 C 284.28 0.657554 1.46741 0
M  V30 2932 O 285.47 0.925736 1.47566 0
M  V30 2933 C 282.602 1.90591 2.82645 0
M  V30 2934 H 283.795 2.73894 1.22156 0
M  V30 2935 H 281.348 1.44233 0.602203 0
M  V30 2936 H 282.083 0.974709 3.09306 0
M  V30 2937 H 281.868 2.72751 2.8169 0
M  V30 2938 H 283.358 2.11931 3.59826 0
M  V30 2939 N 283.795 -0.628877 1.44509 0
M  V30 2940 C 284.758 -1.72263 1.51188 0
M  V30 2941 C 285.758 -1.55907 0.39367 0
M  V30 2942 O 286.948 -1.61361 0.656377 0
M  V30 2943 C 284.08 -3.11365 1.38798 0
M  V30 2944 H 285.273 -1.67714 2.4862 0
M  V30 2945 H 282.826 -0.842737 1.31634 0
M  V30 2946 H 283.561 -3.21507 0.424693 0
M  V30 2947 H 283.346 -3.24644 2.19884 0
M  V30 2948 H 284.836 -3.91075 1.46458 0
M  V30 2949 N 285.273 -1.31445 -0.869486 0
M  V30 2950 C 286.236 -1.19094 -1.9583 0
M  V30 2951 C 287.236 -0.117906 -1.60367 0
M  V30 2952 O 288.426 -0.367208 -1.70286 0
M  V30 2953 C 285.558 -0.828165 -3.30688 0
M  V30 2954 H 286.751 -2.15842 -2.08212 0
M  V30 2955 H 284.304 -1.15063 -1.05784 0
M  V30 2956 H 285.039 0.138142 -3.24006 0
M  V30 2957 H 284.824 -1.6038 -3.578 0
M  V30 2958 H 286.314 -0.765658 -4.10521 0
M  V30 2959 N 286.751 1.08385 -1.14413 0
M  V30 2960 C 287.999 1.80419 -0.910679 0
M  V30 2961 C 288.32 1.86658 0.564243 0
M  V30 2962 O 287.59 1.35985 1.41014 0
M  V30 2963 H 286.17 0.668204 -0.333934 0
M  V30 2964 H 288.832 1.31037 -1.44275 0
M  V30 2965 H 287.928 2.83238 -1.31082 0
M  V30 2966 N 288.23 0.939286 1.26551 0
M  V30 2967 C 289.646 0.641304 1.46149 0
M  V30 2968 C 289.846 -0.805964 1.84679 0
M  V30 2969 O 288.902 -1.58278 1.96734 0
M  V30 2970 C 290.215 1.6011 2.54529 0
M  V30 2971 C 291.763 1.6106 2.68382 0
M  V30 2972 C 292.238 2.55765 3.79932 0
M  V30 2973 N 293.729 2.5404 3.87322 0
M  V30 2974 C 294.464 3.24004 4.73085 0
M  V30 2975 N 293.96 4.03388 5.63249 0
M  V30 2976 N 295.753 3.12965 4.66914 0
M  V30 2977 H 287.904 1.87478 0.998285 0
M  V30 2978 H 290.167 0.805559 0.499779 0
M  V30 2979 H 289.873 2.63412 2.33039 0
M  V30 2980 H 289.747 1.35171 3.52149 0
M  V30 2981 H 292.134 0.584835 2.89247 0
M  V30 2982 H 292.215 1.90053 1.71212 0
M  V30 2983 H 291.859 3.58458 3.5982 0
M  V30 2984 H 291.789 2.24063 4.76554 0
M  V30 2985 H 294.28 1.96396 3.22858 0
M  V30 2986 H 294.593 4.5373 6.25579 0
M  V30 2987 H 292.938 4.07489 5.63008 0
M  V30 2988 H 296.129 2.50432 3.95476 0
M  V30 2989 H 296.302 3.67759 5.33533 0
M  V30 2990 N 289.708 -1.40897 0.706093 0
M  V30 2991 C 290.638 -2.33418 0.0620085 0
M  V30 2992 C 291.619 -1.52385 -0.755827 0
M  V30 2993 O 292.804 -1.80886 -0.706674 0
M  V30 2994 C 289.934 -3.36293 -0.867445 0
M  V30 2995 C 288.888 -4.27716 -0.155932 0
M  V30 2996 C 288.214 -5.2105 -1.20046 0
M  V30 2997 C 289.514 -5.12944 0.984149 0
M  V30 2998 H 291.208 -2.87527 0.83477 0
M  V30 2999 H 288.754 -1.38249 0.402875 0
M  V30 3000 H 290.707 -3.99949 -1.32735 0
M  V30 3001 H 289.431 -2.80556 -1.67199 0
M  V30 3002 H 288.09 -3.65498 0.284047 0
M  V30 3003 H 287.738 -4.61624 -1.99781 0
M  V30 3004 H 287.438 -5.83056 -0.729328 0
M  V30 3005 H 288.962 -5.87584 -1.66066 0
M  V30 3006 H 290.376 -5.70109 0.604048 0
M  V30 3007 H 288.773 -5.83945 1.38304 0
M  V30 3008 H 289.843 -4.49485 1.81911 0
M  V30 3009 N 291.186 -0.45159 -1.50991 0
M  V30 3010 C 292.116 0.342898 -2.30969 0
M  V30 3011 C 293.097 1.00815 -1.37005 0
M  V30 3012 O 294.282 1.00907 -1.65926 0
M  V30 3013 C 291.412 1.43637 -3.16205 0
M  V30 3014 C 290.366 0.893818 -4.18563 0
M  V30 3015 C 289.692 2.08411 -4.92411 0
M  V30 3016 C 290.992 -0.0815568 -5.22236 0
M  V30 3017 H 292.686 -0.324556 -2.97636 0
M  V30 3018 H 290.232 -0.157531 -1.43136 0
M  V30 3019 H 292.185 1.9995 -3.70942 0
M  V30 3020 H 290.909 2.13232 -2.47386 0
M  V30 3021 H 289.568 0.352798 -3.64898 0
M  V30 3022 H 289.216 2.76658 -4.20082 0
M  V30 3023 H 288.916 1.72741 -5.61636 0
M  V30 3024 H 290.44 2.65251 -5.49976 0
M  V30 3025 H 291.854 0.391742 -5.7196 0
M  V30 3026 H 290.251 -0.351551 -5.99069 0
M  V30 3027 H 291.321 -1.01374 -4.74185 0
M  V30 3028 N 292.664 1.56529 -0.183458 0
M  V30 3029 C 293.594 2.21549 0.737456 0
M  V30 3030 C 294.575 1.17489 1.23005 0
M  V30 3031 O 295.76 1.45959 1.281 0
M  V30 3032 C 292.89 2.86575 1.96194 0
M  V30 3033 C 291.844 3.96778 1.60473 0
M  V30 3034 C 291.17 4.48911 2.90487 0
M  V30 3035 C 292.47 5.15767 0.823497 0
M  V30 3036 H 294.164 2.98761 0.195453 0
M  V30 3037 H 291.71 1.43702 0.0925686 0
M  V30 3038 H 293.663 3.30739 2.61131 0
M  V30 3039 H 292.387 2.06749 2.52828 0
M  V30 3040 H 291.046 3.53286 0.978997 0
M  V30 3041 H 290.694 3.65862 3.45186 0
M  V30 3042 H 290.394 5.23265 2.67335 0
M  V30 3043 H 291.918 4.95771 3.56432 0
M  V30 3044 H 293.332 5.56549 1.37571 0
M  V30 3045 H 291.729 5.96114 0.690551 0
M  V30 3046 H 292.799 4.84574 -0.177782 0
M  V30 3047 N 294.142 -0.090211 1.57342 0
M  V30 3048 C 295.388 -0.793982 1.86611 0
M  V30 3049 C 295.721 -1.78142 0.773252 0
M  V30 3050 O 294.996 -1.93271 -0.218304 0
M  V30 3051 C 295.279 -1.51839 3.26523 0
M  V30 3052 C 295.132 -0.548609 4.46442 0
M  V30 3053 C 296.451 -2.46779 3.64401 0
M  V30 3054 H 293.57 -0.287186 0.678744 0
M  V30 3055 H 296.212 -0.0575076 1.89913 0
M  V30 3056 H 294.362 -2.14617 3.23839 0
M  V30 3057 H 296.034 0.0725513 4.61243 0
M  V30 3058 H 294.277 0.137614 4.33582 0
M  V30 3059 H 294.948 -1.09271 5.41076 0
M  V30 3060 H 297.424 -1.94089 3.68061 0
M  V30 3061 H 296.3 -2.94479 4.63221 0
M  V30 3062 H 296.561 -3.30758 2.93346 0
M  V30 3063 N 295.62 -1.53406 -0.361157 0
M  V30 3064 C 296.55 -1.83136 -1.44857 0
M  V30 3065 C 297.531 -0.685174 -1.5569 0
M  V30 3066 O 298.716 -0.93544 -1.70186 0
M  V30 3067 C 295.846 -2.02522 -2.82138 0
M  V30 3068 C 294.8 -3.18302 -2.86126 0
M  V30 3069 C 294.126 -3.22989 -4.26125 0
M  V30 3070 C 295.426 -4.56796 -2.53248 0
M  V30 3071 H 297.12 -2.74201 -1.20226 0
M  V30 3072 H 294.666 -1.31938 -0.576922 0
M  V30 3073 H 296.619 -2.21904 -3.58241 0
M  V30 3074 H 295.343 -1.08172 -3.08166 0
M  V30 3075 H 294.002 -2.98747 -2.12475 0
M  V30 3076 H 293.65 -2.26267 -4.49235 0
M  V30 3077 H 293.35 -4.00781 -4.29708 0
M  V30 3078 H 294.874 -3.44559 -5.04094 0
M  V30 3079 H 296.288 -4.7631 -3.19064 0
M  V30 3080 H 294.685 -5.36862 -2.68141 0
M  V30 3081 H 295.755 -4.61606 -1.48484 0
M  V30 3082 N 297.098 0.621204 -1.44841 0
M  V30 3083 C 298.323 1.41244 -1.51871 0
M  V30 3084 C 298.748 1.87519 -0.147764 0
M  V30 3085 O 298.106 1.59334 0.865 0
M  V30 3086 C 298.154 2.60221 -2.49634 0
M  V30 3087 O 297.258 3.60395 -2.00473 0
M  V30 3088 H 296.599 0.42223 -0.512463 0
M  V30 3089 H 299.129 0.757305 -1.90069 0
M  V30 3090 H 299.139 3.0764 -2.67996 0
M  V30 3091 H 297.814 2.25887 -3.4921 0
M  V30 3092 H 296.391 3.19717 -1.91925 0
M  V30 3093 N 298.576 1.31904 0.862503 0
M  V30 3094 C 299.816 1.23324 1.63004 0
M  V30 3095 C 300.18 -0.203724 1.90916 0
M  V30 3096 O 301.381 -0.413132 2.65606 0
M  V30 3097 C 299.652 2.06116 2.91978 0
M  V30 3098 S 301.211 2.14478 3.82812 0
M  V30 3099 H 298.029 0.439117 0.559193 0
M  V30 3100 H 300.631 1.66658 1.02202 0
M  V30 3101 H 299.335 3.09593 2.69407 0
M  V30 3102 H 298.866 1.6353 3.57801 0
M  V30 3103 H 300.881 1.28855 4.79177 0
M  V30 3104 N 300.054 -1.07777 1.14986 0
M  V30 3105 C 301.3 -1.80557 0.923422 0
M  V30 3106 C 301.633 -1.86298 -0.548337 0
M  V30 3107 O 300.908 -1.34354 -1.40639 0
M  V30 3108 C 301.191 -3.25839 1.53299 0
M  V30 3109 C 301.044 -3.28269 3.07505 0
M  V30 3110 C 302.363 -4.22991 1.21518 0
M  V30 3111 H 299.482 -0.655493 0.336894 0
M  V30 3112 H 302.124 -1.26144 1.42083 0
M  V30 3113 H 300.274 -3.72306 1.10999 0
M  V30 3114 H 301.946 -2.90079 3.58681 0
M  V30 3115 H 300.189 -2.67355 3.4162 0
M  V30 3116 H 300.86 -4.30691 3.45266 0
M  V30 3117 H 303.336 -3.84894 1.581 0
M  V30 3118 H 302.212 -5.22945 1.66793 0
M  V30 3119 H 302.473 -4.41904 0.131505 0
M  V30 3120 N 301.532 -0.945985 -1.26051 0
M  V30 3121 C 302.78 -0.594941 -1.93145 0
M  V30 3122 C 303.101 0.86953 -1.7454 0
M  V30 3123 O 302.371 1.61838 -1.10387 0
M  V30 3124 H 300.951 -0.217044 -0.714773 0
M  V30 3125 H 303.613 -1.20235 -1.53393 0
M  V30 3126 H 302.709 -0.816835 -3.01221 0
M  V30 3127 N 303.011 1.40521 -0.713556 0
M  V30 3128 C 303.941 2.33381 -0.0743864 0
M  V30 3129 C 304.922 1.52784 0.747735 0
M  V30 3130 O 306.107 1.81258 0.697071 0
M  V30 3131 C 303.237 3.36748 0.849598 0
M  V30 3132 C 302.191 4.27793 0.133247 0
M  V30 3133 C 301.517 5.21679 1.17281 0
M  V30 3134 C 302.817 5.12415 -1.01134 0
M  V30 3135 H 304.511 2.87081 -0.850007 0
M  V30 3136 H 302.057 1.38034 -0.410201 0
M  V30 3137 H 304.01 4.00648 1.30612 0
M  V30 3138 H 302.734 2.81439 1.65709 0
M  V30 3139 H 301.393 3.65342 -0.303426 0
M  V30 3140 H 301.041 4.62677 1.9733 0
M  V30 3141 H 300.741 5.83435 0.698397 0
M  V30 3142 H 302.265 5.88456 1.62947 0
M  V30 3143 H 303.679 5.69781 -0.634274 0
M  V30 3144 H 302.076 5.83203 -1.41399 0
M  V30 3145 H 303.146 4.48514 -1.84292 0
M  V30 3146 N 304.489 0.459591 1.5075 0
M  V30 3147 C 305.419 -0.330644 2.31147 0
M  V30 3148 C 306.4 -1.00087 1.37538 0
M  V30 3149 O 307.585 -1.00025 1.66459 0
M  V30 3150 C 304.715 -1.41958 3.16962 0
M  V30 3151 C 303.669 -0.871608 4.19031 0
M  V30 3152 C 302.995 -2.05797 4.9351 0
M  V30 3153 C 304.295 0.109251 5.22186 0
M  V30 3154 H 305.989 0.340336 2.97459 0
M  V30 3155 H 303.535 0.165119 1.4305 0
M  V30 3156 H 305.488 -1.9798 3.71997 0
M  V30 3157 H 304.212 -2.11917 2.48513 0
M  V30 3158 H 302.871 -0.333442 3.6508 0
M  V30 3159 H 302.519 -2.74427 4.21544 0
M  V30 3160 H 302.219 -1.6976 5.62544 0
M  V30 3161 H 303.743 -2.62331 5.51375 0
M  V30 3162 H 305.157 -0.361405 5.7216 0
M  V30 3163 H 303.554 0.383316 5.98875 0
M  V30 3164 H 304.624 1.03887 4.73641 0
M  V30 3165 N 305.967 -1.56429 0.191757 0
M  V30 3166 C 306.897 -2.21937 -0.725696 0
M  V30 3167 C 307.878 -1.1814 -1.2238 0
M  V30 3168 O 309.063 -1.46636 -1.27325 0
M  V30 3169 C 306.193 -2.87611 -1.94672 0
M  V30 3170 C 305.147 -3.97623 -1.58366 0
M  V30 3171 C 304.473 -4.50446 -2.88102 0
M  V30 3172 C 305.773 -5.16197 -0.796133 0
M  V30 3173 H 307.467 -2.98861 -0.179606 0
M  V30 3174 H 305.013 -1.43749 -0.0849464 0
M  V30 3175 H 306.966 -3.3212 -2.59373 0
M  V30 3176 H 305.69 -2.08087 -2.51728 0
M  V30 3177 H 304.349 -3.53801 -0.960247 0
M  V30 3178 H 303.997 -3.67688 -3.43241 0
M  V30 3179 H 303.697 -5.24675 -2.64556 0
M  V30 3180 H 305.221 -4.97654 -3.53798 0
M  V30 3181 H 306.635 -5.57271 -1.34618 0
M  V30 3182 H 305.032 -5.96471 -0.658928 0
M  V30 3183 H 306.102 -4.84473 0.203478 0
M  V30 3184 N 307.445 0.0818655 -1.57387 0
M  V30 3185 C 308.673 0.796108 -1.9097 0
M  V30 3186 C 309.088 1.71626 -0.786757 0
M  V30 3187 O 308.445 1.80908 0.240513 0
M  V30 3188 C 308.496 1.59829 -3.24248 0
M  V30 3189 O 308.217 0.715131 -4.32224 0
M  V30 3190 C 309.718 2.41442 -3.7178 0
M  V30 3191 H 306.938 0.22691 -0.631469 0
M  V30 3192 H 309.482 0.0551439 -2.04426 0
M  V30 3193 H 307.637 2.29163 -3.12351 0
M  V30 3194 H 308.051 1.27205 -5.08841 0
M  V30 3195 H 309.525 2.932 -4.67694 0
M  V30 3196 H 310.002 3.2051 -3.00283 0
M  V30 3197 H 310.608 1.77283 -3.86589 0
M  V30 3198 N 308.923 1.53595 0.353017 0
M  V30 3199 C 309.853 1.83902 1.43883 0
M  V30 3200 C 310.834 0.693421 1.55324 0
M  V30 3201 O 312.019 0.944452 1.69687 0
M  V30 3202 C 309.149 2.04016 2.8106 0
M  V30 3203 C 308.103 3.19814 2.84434 0
M  V30 3204 C 307.429 3.25244 4.24406 0
M  V30 3205 C 308.729 4.58133 2.50822 0
M  V30 3206 H 310.423 2.74835 1.1877 0
M  V30 3207 H 307.969 1.32242 0.569917 0
M  V30 3208 H 309.922 2.238 3.57059 0
M  V30 3209 H 308.646 1.09804 3.07588 0
M  V30 3210 H 307.305 2.9987 2.10887 0
M  V30 3211 H 306.953 2.28646 4.48029 0
M  V30 3212 H 306.653 4.03054 4.27576 0
M  V30 3213 H 308.177 3.47228 5.0226 0
M  V30 3214 H 309.591 4.77995 3.16534 0
M  V30 3215 H 307.988 5.38276 2.6529 0
M  V30 3216 H 309.058 4.62387 1.46034 0
M  V30 3217 N 310.401 -0.613514 1.45168 0
M  V30 3218 C 311.364 -1.7065 1.53007 0
M  V30 3219 C 312.364 -1.5548 0.410184 0
M  V30 3220 O 313.554 -1.60656 0.673455 0
M  V30 3221 C 310.686 -3.09875 1.42093 0
M  V30 3222 H 311.879 -1.65068 2.50385 0
M  V30 3223 H 309.432 -0.828728 1.32521 0
M  V30 3224 H 310.167 -3.21039 0.458769 0
M  V30 3225 H 309.952 -3.22293 2.23315 0
M  V30 3226 H 311.442 -3.895 1.50598 0
M  V30 3227 N 311.879 -1.3236 -0.855495 0
M  V30 3228 C 312.829 -1.17809 -1.95205 0
M  V30 3229 C 313.813 -0.0852319 -1.60674 0
M  V30 3230 O 315.005 -0.311651 -1.74235 0
M  V30 3231 C 312.134 -0.902437 -3.31226 0
M  V30 3232 C 311.22 -2.03695 -3.7198 0
M  V30 3233 N 311.611 -3.28544 -3.84568 0
M  V30 3234 C 309.909 -1.93993 -4.016 0
M  V30 3235 C 310.61 -4.02847 -4.19629 0
M  V30 3236 N 309.586 -3.31138 -4.31102 0
M  V30 3237 H 313.388 -2.12462 -2.0307 0
M  V30 3238 H 310.902 -1.24127 -1.0472 0
M  V30 3239 H 312.899 -0.77915 -4.09554 0
M  V30 3240 H 311.559 0.0357267 -3.2468 0
M  V30 3241 H 312.57 -3.6349 -3.68911 0
M  V30 3242 H 309.247 -1.07733 -4.03361 0
M  V30 3243 H 310.637 -5.10506 -4.36845 0
M  V30 3244 N 313.357 1.07166 -1.15556 0
M  V30 3245 C 314.768 1.6127 -0.940693 0
M  V30 3246 C 315.119 1.89251 0.517551 0
M  V30 3247 O 314.244 1.65937 1.38903 0
M  V30 3248 C 314.839 2.92993 -1.7012 0
M  V30 3249 C 313.398 3.43832 -1.53156 0
M  V30 3250 C 312.545 2.1786 -1.71558 0
M  V30 3251 H 315.496 0.90229 -1.30554 0
M  V30 3252 H 315.517 3.62007 -1.17181 0
M  V30 3253 H 315.029 2.72596 -2.76248 0
M  V30 3254 H 313.13 3.69307 -0.494294 0
M  V30 3255 H 313.243 4.19747 -2.30975 0
M  V30 3256 H 311.607 2.2765 -1.14225 0
M  V30 3257 H 312.39 1.99956 -2.79056 0
M  V30 3258 N 314.835 0.952656 1.25548 0
M  V30 3259 C 315.765 0.489287 2.28316 0
M  V30 3260 C 316.746 -0.463359 1.63667 0
M  V30 3261 O 317.931 -0.36274 1.90782 0
M  V30 3262 C 315.061 -0.235603 3.465 0
M  V30 3263 C 314.015 0.631593 4.23314 0
M  V30 3264 C 313.341 -0.223923 5.34231 0
M  V30 3265 C 314.641 1.90871 4.86174 0
M  V30 3266 H 316.335 1.34822 2.67326 0
M  V30 3267 H 313.881 0.649728 1.28509 0
M  V30 3268 H 315.834 -0.570882 4.17515 0
M  V30 3269 H 314.558 -1.12877 3.06474 0
M  V30 3270 H 313.217 0.949929 3.54079 0
M  V30 3271 H 312.865 -1.11678 4.90446 0
M  V30 3272 H 312.565 0.35299 5.86539 0
M  V30 3273 H 314.089 -0.554214 6.0808 0
M  V30 3274 H 315.503 1.63997 5.49343 0
M  V30 3275 H 313.9 2.43112 5.4865 0
M  V30 3276 H 314.97 2.61304 4.08471 0
M  V30 3277 N 316.313 -1.40141 0.720998 0
M  V30 3278 C 317.729 -1.54632 0.395113 0
M  V30 3279 C 317.929 -1.69115 -1.09555 0
M  V30 3280 O 316.985 -1.68377 -1.88163 0
M  V30 3281 C 318.298 -2.77177 1.1659 0
M  V30 3282 C 319.846 -2.91 1.15274 0
M  V30 3283 C 320.321 -4.16465 1.90579 0
M  V30 3284 N 321.812 -4.23476 1.87675 0
M  V30 3285 C 322.547 -5.19475 2.42762 0
M  V30 3286 N 322.043 -6.21348 3.06428 0
M  V30 3287 N 323.836 -5.11592 2.32874 0
M  V30 3288 H 315.987 -1.28986 1.68749 0
M  V30 3289 H 318.25 -0.62412 0.713567 0
M  V30 3290 H 317.956 -2.72771 2.22011 0
M  V30 3291 H 317.83 -3.69442 0.76108 0
M  V30 3292 H 320.217 -2.94907 0.106702 0
M  V30 3293 H 320.298 -1.99838 1.59682 0
M  V30 3294 H 319.942 -4.1332 2.95176 0
M  V30 3295 H 319.872 -5.06646 1.43587 0
M  V30 3296 H 322.363 -3.50497 1.41281 0
M  V30 3297 H 322.676 -6.91034 3.45965 0
M  V30 3298 H 321.021 -6.21777 3.10514 0
M  V30 3299 H 324.212 -4.30936 1.82789 0
M  V30 3300 H 324.385 -5.86233 2.76106 0
M  V30 3301 N 317.792 -0.46758 -1.50504 0
M  V30 3302 C 318.722 0.318381 -2.31319 0
M  V30 3303 C 319.703 0.993564 -1.38066 0
M  V30 3304 O 320.888 0.991411 -1.66987 0
M  V30 3305 C 318.018 1.40275 -3.17711 0
M  V30 3306 C 316.972 0.849373 -4.19487 0
M  V30 3307 C 316.298 2.03177 -4.94594 0
M  V30 3308 C 317.598 -0.136942 -5.2212 0
M  V30 3309 H 319.292 -0.356106 -2.97275 0
M  V30 3310 H 316.838 -0.172703 -1.42961 0
M  V30 3311 H 318.791 1.96004 -3.73042 0
M  V30 3312 H 317.515 2.10596 -2.49634 0
M  V30 3313 H 316.174 0.314076 -3.65252 0
M  V30 3314 H 315.822 2.72187 -4.22993 0
M  V30 3315 H 315.522 1.66774 -5.63436 0
M  V30 3316 H 317.046 2.59403 -5.52759 0
M  V30 3317 H 318.46 0.331056 -5.72343 0
M  V30 3318 H 316.857 -0.41507 -5.98663 0
M  V30 3319 H 317.927 -1.06398 -4.73083 0
M  V30 3320 N 319.27 1.56325 -0.20005 0
M  V30 3321 C 320.686 1.58839 0.155716 0
M  V30 3322 C 320.886 1.21636 1.60645 0
M  V30 3323 O 319.942 0.941437 2.34293 0
M  V30 3324 C 321.255 3.0032 -0.151124 0
M  V30 3325 C 322.803 3.12866 -0.0916284 0
M  V30 3326 C 323.278 4.56488 -0.371845 0
M  V30 3327 N 324.769 4.62089 -0.320641 0
M  V30 3328 C 325.504 5.71116 -0.511243 0
M  V30 3329 N 325 6.88592 -0.762461 0
M  V30 3330 N 326.793 5.60335 -0.445157 0
M  V30 3331 H 318.944 1.78788 -1.14668 0
M  V30 3332 H 321.207 0.829996 -0.458051 0
M  V30 3333 H 320.913 3.32117 -1.15721 0
M  V30 3334 H 320.787 3.73257 0.543986 0
M  V30 3335 H 323.174 2.80878 0.905065 0
M  V30 3336 H 323.255 2.42304 -0.81989 0
M  V30 3337 H 322.899 4.89189 -1.36588 0
M  V30 3338 H 322.829 5.25246 0.377362 0
M  V30 3339 H 325.32 3.77665 -0.13329 0
M  V30 3340 H 325.633 7.67581 -0.896576 0
M  V30 3341 H 323.978 6.90387 -0.799412 0
M  V30 3342 H 327.169 4.67436 -0.249278 0
M  V30 3343 H 327.342 6.45243 -0.597116 0
M  V30 3344 N 320.748 -0.0735177 1.57428 0
M  V30 3345 C 321.698 -1.09442 2.00016 0
M  V30 3346 C 322.682 -1.34575 0.881947 0
M  V30 3347 O 323.874 -1.34905 1.14585 0
M  V30 3348 C 321.003 -2.40865 2.4462 0
M  V30 3349 C 320.089 -2.19014 3.63172 0
M  V30 3350 N 320.48 -1.67087 4.77405 0
M  V30 3351 C 318.778 -2.49494 3.69688 0
M  V30 3352 C 319.479 -1.6001 5.5926 0
M  V30 3353 N 318.455 -2.05999 5.03056 0
M  V30 3354 H 322.257 -0.686227 2.85776 0
M  V30 3355 H 319.771 -0.280617 1.59957 0
M  V30 3356 H 321.768 -3.14763 2.73368 0
M  V30 3357 H 320.428 -2.82403 1.60246 0
M  V30 3358 H 321.439 -1.35975 4.99731 0
M  V30 3359 H 318.116 -2.94409 2.96023 0
M  V30 3360 H 319.506 -1.2073 6.60964 0
M  V30 3361 N 322.226 -1.5378 -0.344866 0
M  V30 3362 C 323.466 -1.72677 -1.09371 0
M  V30 3363 C 323.83 -0.479084 -1.85927 0
M  V30 3364 O 325.031 -0.54505 -2.63216 0
M  V30 3365 C 323.302 -2.95457 -2.01097 0
M  V30 3366 S 324.861 -3.35158 -2.83222 0
M  V30 3367 H 321.679 -0.607402 -0.369573 0
M  V30 3368 H 324.281 -1.91922 -0.372307 0
M  V30 3369 H 322.985 -3.84437 -1.43655 0
M  V30 3370 H 322.516 -2.78673 -2.77678 0
M  V30 3371 H 324.531 -2.88789 -4.03504 0
M  V30 3372 N 323.704 0.605807 -1.45491 0
M  V30 3373 C 324.95 1.36679 -1.49823 0
M  V30 3374 C 325.283 1.93693 -0.140175 0
M  V30 3375 O 324.558 1.75158 0.845581 0
M  V30 3376 C 324.841 2.51337 -2.57879 0
M  V30 3377 C 324.694 1.99508 -4.03134 0
M  V30 3378 C 326.013 3.53463 -2.62205 0
M  V30 3379 H 323.132 0.495617 -0.545466 0
M  V30 3380 H 325.774 0.682732 -1.7731 0
M  V30 3381 H 323.924 3.09691 -2.34571 0
M  V30 3382 H 325.596 1.45789 -4.37656 0
M  V30 3383 H 323.839 1.30496 -4.13707 0
M  V30 3384 H 324.51 2.82169 -4.74431 0
M  V30 3385 H 326.986 3.04953 -2.83095 0
M  V30 3386 H 325.862 4.31178 -3.39672 0
M  V30 3387 H 326.123 4.09197 -1.67363 0
M  V30 3388 N 325.182 1.32811 0.848464 0
M  V30 3389 C 326.112 1.24882 1.97299 0
M  V30 3390 C 327.093 0.131357 1.69592 0
M  V30 3391 O 328.278 0.319553 1.91553 0
M  V30 3392 C 325.408 0.97746 3.33261 0
M  V30 3393 C 324.362 2.05682 3.75338 0
M  V30 3394 C 323.688 1.63777 5.09 0
M  V30 3395 C 324.988 3.47254 3.90144 0
M  V30 3396 H 326.682 2.18966 2.04191 0
M  V30 3397 H 324.228 1.05413 0.981029 0
M  V30 3398 H 326.181 0.908513 4.1149 0
M  V30 3399 H 324.905 0.000980011 3.266 0
M  V30 3400 H 323.564 2.11603 2.99366 0
M  V30 3401 H 323.212 0.648569 4.98801 0
M  V30 3402 H 322.912 2.36 5.38124 0
M  V30 3403 H 324.436 1.5833 5.89715 0
M  V30 3404 H 325.85 3.43888 4.58709 0
M  V30 3405 H 324.247 4.1788 4.30693 0
M  V30 3406 H 325.317 3.86462 2.92874 0
M  V30 3407 N 326.66 -1.06551 1.16123 0
M  V30 3408 C 327.906 -1.79567 0.94252 0
M  V30 3409 C 328.239 -1.86869 -0.528547 0
M  V30 3410 O 327.514 -1.35838 -1.39206 0
M  V30 3411 C 327.797 -3.24195 1.56747 0
M  V30 3412 C 327.65 -3.24989 3.10969 0
M  V30 3413 C 328.969 -4.21678 1.25998 0
M  V30 3414 H 326.088 -0.651883 0.343828 0
M  V30 3415 H 328.73 -1.2463 1.43413 0
M  V30 3416 H 326.88 -3.71107 1.14942 0
M  V30 3417 H 328.552 -2.86258 3.61737 0
M  V30 3418 H 326.795 -2.63716 3.44436 0
M  V30 3419 H 327.466 -4.27005 3.49815 0
M  V30 3420 H 329.942 -3.83196 1.62174 0
M  V30 3421 H 328.818 -5.21146 1.7233 0
M  V30 3422 H 329.079 -4.4174 0.178367 0
M  V30 3423 N 328.138 -0.959301 -1.25041 0
M  V30 3424 C 329.068 -0.501388 -2.28053 0
M  V30 3425 C 330.049 0.454673 -1.63911 0
M  V30 3426 O 331.234 0.352618 -1.90972 0
M  V30 3427 C 328.364 0.217224 -3.4662 0
M  V30 3428 C 327.318 -0.654034 -4.22973 0
M  V30 3429 C 326.644 0.195589 -5.34342 0
M  V30 3430 C 327.944 -1.93447 -4.85155 0
M  V30 3431 H 329.638 -1.36238 -2.66608 0
M  V30 3432 H 327.184 -0.656534 -1.28163 0
M  V30 3433 H 329.137 0.548732 -4.17812 0
M  V30 3434 H 327.861 1.1125 -3.07068 0
M  V30 3435 H 326.52 -0.968693 -3.5357 0
M  V30 3436 H 326.168 1.09076 -4.91031 0
M  V30 3437 H 325.868 -0.384091 -5.86343 0
M  V30 3438 H 327.392 0.521958 -6.08365 0
M  V30 3439 H 328.806 -1.66908 -5.48466 0
M  V30 3440 H 327.203 -2.46018 -5.47353 0
M  V30 3441 H 328.273 -2.63466 -4.07079 0
M  V30 3442 N 329.616 1.39756 -0.72842 0
M  V30 3443 C 330.546 2.33289 -0.0991354 0
M  V30 3444 C 331.527 1.53568 0.731489 0
M  V30 3445 O 332.712 1.81987 0.677807 0
M  V30 3446 C 329.842 3.3763 0.813834 0
M  V30 3447 C 328.796 4.2791 0.0878663 0
M  V30 3448 C 328.122 5.22894 1.11741 0
M  V30 3449 C 329.422 5.11314 -1.06563 0
M  V30 3450 H 331.116 2.86163 -0.880408 0
M  V30 3451 H 328.662 1.37591 -0.424819 0
M  V30 3452 H 330.615 4.0201 1.26355 0
M  V30 3453 H 329.339 2.83181 1.62715 0
M  V30 3454 H 327.998 3.65 -0.342159 0
M  V30 3455 H 327.646 4.64744 1.92412 0
M  V30 3456 H 327.346 5.84143 0.636477 0
M  V30 3457 H 328.87 5.90151 1.56697 0
M  V30 3458 H 330.284 5.69076 -0.694671 0
M  V30 3459 H 328.681 5.81671 -1.47577 0
M  V30 3460 H 329.751 4.46534 -1.89038 0
M  V30 3461 N 331.094 0.475555 1.50254 0
M  V30 3462 C 332.024 -0.30611 2.31485 0
M  V30 3463 C 333.005 -0.986228 1.38591 0
M  V30 3464 O 334.19 -0.982541 1.67511 0
M  V30 3465 C 331.32 -1.38588 3.1845 0
M  V30 3466 C 330.274 -0.827115 4.19932 0
M  V30 3467 C 329.6 -2.00551 4.95665 0
M  V30 3468 C 330.9 0.16463 5.2204 0
M  V30 3469 H 332.594 0.371866 2.97082 0
M  V30 3470 H 330.14 0.180282 1.42867 0
M  V30 3471 H 332.093 -1.94023 3.74076 0
M  V30 3472 H 330.817 -2.09269 2.50747 0
M  V30 3473 H 329.476 -0.294702 3.65414 0
M  V30 3474 H 329.124 -2.6994 4.2443 0
M  V30 3475 H 328.824 -1.63784 5.64313 0
M  V30 3476 H 330.348 -2.56468 5.54127 0
M  V30 3477 H 331.762 -0.300699 5.72511 0
M  V30 3478 H 330.159 0.446813 5.98434 0
M  V30 3479 H 331.229 1.08905 4.72512 0
M  V30 3480 N 332.573 -1.56217 0.208337 0
M  V30 3481 C 333.536 -2.18455 -0.693557 0
M  V30 3482 C 334.536 -1.14268 -1.13135 0
M  V30 3483 O 335.726 -1.39577 -1.0423 0
M  V30 3484 C 332.858 -2.79727 -1.94848 0
M  V30 3485 H 334.051 -2.99519 -0.15114 0
M  V30 3486 H 331.604 -1.56245 -0.041287 0
M  V30 3487 H 332.339 -2.02497 -2.53309 0
M  V30 3488 H 332.124 -3.56009 -1.64316 0
M  V30 3489 H 333.614 -3.27475 -2.59133 0
M  V30 3490 N 334.051 0.0651679 -1.57465 0
M  V30 3491 C 335.276 0.779605 -1.9219 0
M  V30 3492 C 335.701 1.69988 -0.805333 0
M  V30 3493 O 335.059 1.79685 0.241435 0
M  V30 3494 C 335.107 1.54364 -3.2589 0
M  V30 3495 O 334.211 2.65474 -3.1559 0
M  V30 3496 H 333.552 0.212249 -0.629163 0
M  V30 3497 H 336.082 0.0314294 -2.04576 0
M  V30 3498 H 336.092 1.92146 -3.59922 0
M  V30 3499 H 334.767 0.868457 -4.06732 0
M  V30 3500 H 333.344 2.30501 -2.93128 0
M  V30 3501 N 335.529 1.53961 0.336706 0
M  V30 3502 C 336.776 1.71536 1.07618 0
M  V30 3503 C 337.104 0.482125 1.8843 0
M  V30 3504 O 336.359 -0.536142 1.88213 0
M  V30 3505 C 336.658 2.93493 2.03953 0
M  V30 3506 C 336.324 4.28811 1.39399 0
M  V30 3507 C 334.986 4.65602 1.21523 0
M  V30 3508 C 337.338 5.12844 0.929541 0
M  V30 3509 C 334.666 5.84037 0.558312 0
M  V30 3510 C 337.018 6.31951 0.286505 0
M  V30 3511 C 335.682 6.67432 0.0954869 0
M  V30 3512 H 334.952 0.627696 0.393801 0
M  V30 3513 H 337.599 1.88186 0.354715 0
M  V30 3514 H 335.904 2.71475 2.82504 0
M  V30 3515 H 337.601 3.04285 2.61174 0
M  V30 3516 H 334.191 3.99858 1.54311 0
M  V30 3517 H 338.375 4.84947 1.05548 0
M  V30 3518 H 333.631 6.10097 0.398995 0
M  V30 3519 H 337.805 6.96352 -0.0814376 0
M  V30 3520 H 335.432 7.59063 -0.415579 0
M  V30 3521 N 337.007 -0.598083 1.45811 0
M  V30 3522 C 338.253 -1.35882 1.50545 0
M  V30 3523 C 338.586 -1.93616 0.150445 0
M  V30 3524 O 337.861 -1.75604 -0.83628 0
M  V30 3525 C 338.144 -2.49966 2.59208 0
M  V30 3526 C 337.997 -1.97367 4.04186 0
M  V30 3527 C 339.316 -3.52068 2.64076 0
M  V30 3528 H 336.435 -0.492717 0.548087 0
M  V30 3529 H 339.077 -0.673319 1.77669 0
M  V30 3530 H 337.227 -3.08443 2.3621 0
M  V30 3531 H 338.899 -1.43466 4.38423 0
M  V30 3532 H 337.142 -1.283 4.14393 0
M  V30 3533 H 337.813 -2.79649 4.75921 0
M  V30 3534 H 340.289 -3.03448 2.84708 0
M  V30 3535 H 339.165 -4.2937 3.41954 0
M  V30 3536 H 339.426 -4.08304 1.69531 0
M  V30 3537 N 338.485 -1.33259 -0.841409 0
M  V30 3538 C 339.731 -1.25766 -1.59857 0
M  V30 3539 C 340.086 0.175602 -1.91597 0
M  V30 3540 O 339.379 1.117 -1.55672 0
M  V30 3541 C 339.573 -2.06381 -2.9179 0
M  V30 3542 C 339.402 -3.57401 -2.72937 0
M  V30 3543 C 338.172 -4.26718 -2.70628 0
M  V30 3544 C 340.37 -4.51786 -2.45753 0
M  V30 3545 N 338.352 -5.63705 -2.43125 0
M  V30 3546 C 339.723 -5.76643 -2.27777 0
M  V30 3547 C 341.778 -4.40898 -2.31329 0
M  V30 3548 C 340.481 -6.91842 -1.96841 0
M  V30 3549 C 342.507 -5.55911 -2.01786 0
M  V30 3550 C 341.869 -6.79776 -1.8462 0
M  V30 3551 H 337.968 -0.515406 -0.588117 0
M  V30 3552 H 340.552 -1.67772 -0.987955 0
M  V30 3553 H 338.723 -1.667 -3.50807 0
M  V30 3554 H 340.455 -1.90678 -3.56965 0
M  V30 3555 H 337.21 -3.78968 -2.84043 0
M  V30 3556 H 337.634 -6.35911 -2.32265 0
M  V30 3557 H 342.276 -3.45772 -2.43314 0
M  V30 3558 H 339.994 -7.86968 -1.83594 0
M  V30 3559 H 343.58 -5.49421 -1.91384 0
M  V30 3560 H 342.46 -7.67266 -1.62088 0
M  V30 3561 N 339.963 1.05934 -1.16686 0
M  V30 3562 C 341.209 1.79211 -0.962023 0
M  V30 3563 C 341.564 1.85667 0.504545 0
M  V30 3564 O 340.857 1.33991 1.36956 0
M  V30 3565 C 341.051 3.23105 -1.52767 0
M  V30 3566 C 340.88 3.30673 -3.04771 0
M  V30 3567 C 339.65 3.40395 -3.73442 0
M  V30 3568 C 341.848 3.20234 -4.02436 0
M  V30 3569 N 339.83 3.37015 -5.13122 0
M  V30 3570 C 341.201 3.24138 -5.28521 0
M  V30 3571 C 343.256 3.04143 -3.9421 0
M  V30 3572 C 341.959 3.13607 -6.47336 0
M  V30 3573 C 343.985 2.94951 -5.12599 0
M  V30 3574 C 343.347 2.99481 -6.37566 0
M  V30 3575 H 339.446 0.668442 -0.405844 0
M  V30 3576 H 342.03 1.26341 -1.48142 0
M  V30 3577 H 340.201 3.74364 -1.03471 0
M  V30 3578 H 341.933 3.84579 -1.26021 0
M  V30 3579 H 338.688 3.45344 -3.2409 0
M  V30 3580 H 339.112 3.38815 -5.86117 0
M  V30 3581 H 343.754 2.99484 -2.98445 0
M  V30 3582 H 341.472 3.17022 -7.43319 0
M  V30 3583 H 345.058 2.83583 -5.08008 0
M  V30 3584 H 343.938 2.92431 -7.27636 0
M  V30 3585 N 341.441 0.965919 1.2453 0
M  V30 3586 C 342.687 0.62776 1.92839 0
M  V30 3587 C 343.02 -0.834694 1.75347 0
M  V30 3588 O 342.295 -1.60031 1.10546 0
M  V30 3589 C 342.578 1.00109 3.45905 0
M  V30 3590 C 342.431 2.52011 3.72573 0
M  V30 3591 C 343.75 0.53435 4.36844 0
M  V30 3592 H 340.869 0.229537 0.700344 0
M  V30 3593 H 343.511 1.2046 1.46933 0
M  V30 3594 H 341.661 0.510238 3.85135 0
M  V30 3595 H 343.333 3.08559 3.42912 0
M  V30 3596 H 341.576 2.95287 3.17786 0
M  V30 3597 H 342.247 2.73183 4.79661 0
M  V30 3598 H 344.723 0.955565 4.04979 0
M  V30 3599 H 343.599 0.824152 5.42678 0
M  V30 3600 H 343.86 -0.565589 4.38467 0
M  V30 3601 N 342.919 -1.39368 0.735821 0
M  V30 3602 C 344.144 -2.05319 0.293052 0
M  V30 3603 C 344.569 -1.55115 -1.064 0
M  V30 3604 O 343.927 -0.695261 -1.67439 0
M  V30 3605 C 343.975 -3.59305 0.305323 0
M  V30 3606 O 343.079 -4.06299 -0.706761 0
M  V30 3607 H 342.42 -0.650529 0.13307 0
M  V30 3608 H 344.95 -1.78386 1.00197 0
M  V30 3609 H 344.96 -4.07724 0.149997 0
M  V30 3610 H 343.635 -3.95207 1.29553 0
M  V30 3611 H 342.212 -3.69292 -0.517504 0
M  V30 3612 N 344.397 -0.483516 -1.5 0
M  V30 3613 C 345.644 0.0671597 -2.02389 0
M  V30 3614 C 345.972 1.38597 -1.36459 0
M  V30 3615 O 345.227 1.89634 -0.483458 0
M  V30 3616 C 345.526 0.286226 -3.56252 0
M  V30 3617 C 345.192 -0.952416 -4.40726 0
M  V30 3618 C 343.854 -1.29199 -4.63531 0
M  V30 3619 C 346.206 -1.77655 -4.89988 0
M  V30 3620 C 343.534 -2.45553 -5.32842 0
M  V30 3621 C 345.886 -2.93147 -5.60578 0
M  V30 3622 C 344.55 -3.27505 -5.81633 0
M  V30 3623 H 343.82 0.0245755 -0.740592 0
M  V30 3624 H 346.467 -0.640124 -1.80485 0
M  V30 3625 H 344.772 1.07587 -3.76739 0
M  V30 3626 H 346.469 0.726473 -3.94365 0
M  V30 3627 H 343.059 -0.677881 -4.23205 0
M  V30 3628 H 347.243 -1.52737 -4.72213 0
M  V30 3629 H 342.499 -2.72431 -5.47349 0
M  V30 3630 H 346.673 -3.57344 -5.97727 0
M  V30 3631 H 344.3 -4.1777 -6.35116 0
M  V30 3632 N 345.875 1.56104 -0.216619 0
M  V30 3633 C 347.103 2.02563 0.421413 0
M  V30 3634 C 347.518 1.0965 1.53695 0
M  V30 3635 O 346.875 0.10521 1.82196 0
M  V30 3636 C 346.926 3.48584 0.957665 0
M  V30 3637 O 346.647 4.37953 -0.113389 0
M  V30 3638 C 348.148 4.10664 1.66943 0
M  V30 3639 H 345.368 0.662944 0.103665 0
M  V30 3640 H 347.912 2.01793 -0.331629 0
M  V30 3641 H 346.067 3.49985 1.661 0
M  V30 3642 H 346.481 5.23704 0.288932 0
M  V30 3643 H 347.955 5.14622 1.99671 0
M  V30 3644 H 348.432 3.55373 2.58083 0
M  V30 3645 H 349.038 4.13098 1.01142 0
M  V30 3646 N 347.353 -0.0568162 1.57498 0
M  V30 3647 C 348.578 -0.769402 1.92601 0
M  V30 3648 C 349.003 -1.69559 0.814336 0
M  V30 3649 O 348.361 -1.79811 -0.231903 0
M  V30 3650 C 348.409 -1.52634 3.26704 0
M  V30 3651 O 347.513 -2.63797 3.16994 0
M  V30 3652 H 346.854 -0.208909 0.63028 0
M  V30 3653 H 349.384 -0.0205798 2.0459 0
M  V30 3654 H 349.394 -1.90234 3.60936 0
M  V30 3655 H 348.069 -0.846875 4.07186 0
M  V30 3656 H 346.646 -2.28943 2.94346 0
M  V30 3657 N 348.832 -1.54138 -0.328536 0
M  V30 3658 C 349.762 -1.86167 -1.40939 0
M  V30 3659 C 350.743 -0.718044 -1.54202 0
M  V30 3660 O 351.928 -0.971328 -1.68163 0
M  V30 3661 C 349.058 -2.08461 -2.77779 0
M  V30 3662 C 348.012 -3.24299 -2.7931 0
M  V30 3663 C 347.338 -3.31955 -4.19178 0
M  V30 3664 C 348.638 -4.62065 -2.43502 0
M  V30 3665 H 350.332 -2.76689 -1.14383 0
M  V30 3666 H 347.878 -1.33132 -0.548806 0
M  V30 3667 H 349.831 -2.29453 -3.53454 0
M  V30 3668 H 348.555 -1.14684 -3.05802 0
M  V30 3669 H 347.214 -3.03187 -2.0609 0
M  V30 3670 H 346.862 -2.35745 -4.44335 0
M  V30 3671 H 346.562 -4.09805 -4.2111 0
M  V30 3672 H 348.086 -3.55175 -4.96672 0
M  V30 3673 H 349.5 -4.8297 -3.08889 0
M  V30 3674 H 347.897 -5.42429 -2.56693 0
M  V30 3675 H 348.967 -4.64652 -1.38659 0
M  V30 3676 N 350.31 0.590341 -1.46126 0
M  V30 3677 C 351.558 1.34616 -1.50742 0
M  V30 3678 C 351.879 1.94363 -0.157486 0
M  V30 3679 O 351.149 1.78136 0.815136 0
M  V30 3680 H 349.729 0.499789 -0.555175 0
M  V30 3681 H 352.391 0.691953 -1.82203 0
M  V30 3682 H 351.487 2.15678 -2.25587 0
M  V30 3683 N 351.788 1.33704 0.83433 0
M  V30 3684 C 353.013 1.28615 1.62705 0
M  V30 3685 C 353.438 -0.139242 1.87584 0
M  V30 3686 O 352.796 -1.09734 1.4432 0
M  V30 3687 C 352.844 2.07139 2.95171 0
M  V30 3688 O 351.948 1.4331 3.86699 0
M  V30 3689 H 351.289 0.44226 0.49528 0
M  V30 3690 H 353.819 1.76335 1.03766 0
M  V30 3691 H 353.829 2.18073 3.44831 0
M  V30 3692 H 352.504 3.10779 2.76386 0
M  V30 3693 H 351.081 1.4105 3.45195 0
M  V30 3694 N 353.266 -1.05314 1.17247 0
M  V30 3695 C 354.196 -2.1498 0.911362 0
M  V30 3696 C 355.177 -1.69471 -0.146169 0
M  V30 3697 O 356.362 -1.942 0.003812 0
M  V30 3698 C 353.492 -3.4472 0.422528 0
M  V30 3699 C 352.446 -4.03789 1.4191 0
M  V30 3700 C 351.772 -5.28858 0.788274 0
M  V30 3701 C 353.072 -4.41418 2.7919 0
M  V30 3702 H 354.766 -2.3708 1.82848 0
M  V30 3703 H 352.312 -1.13938 0.880569 0
M  V30 3704 H 354.265 -4.20787 0.227289 0
M  V30 3705 H 352.989 -3.22269 -0.530123 0
M  V30 3706 H 351.648 -3.2979 1.60106 0
M  V30 3707 H 351.296 -5.02709 -0.171173 0
M  V30 3708 H 350.996 -5.69338 1.45353 0
M  V30 3709 H 352.52 -6.07612 0.603282 0
M  V30 3710 H 353.934 -5.08524 2.64719 0
M  V30 3711 H 352.331 -4.92913 3.42282 0
M  V30 3712 H 353.401 -3.51819 3.33693 0
M  V30 3713 N 354.744 -0.972509 -1.24016 0
M  V30 3714 C 356.155 -0.67517 -1.74064 0
M  V30 3715 C 356.506 0.808939 -1.78747 0
M  V30 3716 O 355.631 1.63286 -1.42009 0
M  V30 3717 C 356.226 -1.21889 -3.16115 0
M  V30 3718 C 354.785 -0.971358 -3.6365 0
M  V30 3719 C 353.932 -1.35134 -2.42145 0
M  V30 3720 H 356.883 -1.14727 -1.09651 0
M  V30 3721 H 356.904 -0.587489 -3.75937 0
M  V30 3722 H 356.416 -2.29906 -3.12674 0
M  V30 3723 H 354.517 0.0930686 -3.72484 0
M  V30 3724 H 354.63 -1.62039 -4.50866 0
M  V30 3725 H 352.994 -0.769751 -2.4279 0
M  V30 3726 H 353.777 -2.4411 -2.41381 0
M  V30 3727 N 356.222 1.38976 -0.743202 0
M  V30 3728 C 357.447 2.05161 -0.303936 0
M  V30 3729 C 357.872 1.55677 1.05576 0
M  V30 3730 O 357.23 0.704131 1.67068 0
M  V30 3731 C 357.278 3.59138 -0.324373 0
M  V30 3732 O 356.382 4.06668 0.685204 0
M  V30 3733 H 355.723 0.649815 -0.136518 0
M  V30 3734 H 358.253 1.77852 -1.01142 0
M  V30 3735 H 358.263 4.07639 -0.171618 0
M  V30 3736 H 356.938 3.94515 -1.31647 0
M  V30 3737 H 355.515 3.69561 0.497913 0
M  V30 3738 N 357.7 0.491464 1.49741 0
M  V30 3739 C 358.663 -0.280906 2.27472 0
M  V30 3740 C 359.663 -0.902454 1.33088 0
M  V30 3741 O 360.853 -0.768465 1.56334 0
M  V30 3742 C 357.985 -1.40209 3.10732 0
M  V30 3743 H 359.178 0.401056 2.97206 0
M  V30 3744 H 356.731 0.246131 1.5435 0
M  V30 3745 H 357.466 -2.11849 2.45541 0
M  V30 3746 H 357.251 -0.961969 3.80117 0
M  V30 3747 H 358.741 -1.9464 3.69466 0
M  V30 3748 N 359.178 -1.55987 0.224894 0
M  V30 3749 C 360.108 -2.23426 -0.678457 0
M  V30 3750 C 361.089 -1.20709 -1.19847 0
M  V30 3751 O 362.274 -1.49304 -1.24186 0
M  V30 3752 C 359.404 -2.91676 -1.88527 0
M  V30 3753 C 358.358 -4.00893 -1.49896 0
M  V30 3754 C 357.684 -4.56455 -2.78483 0
M  V30 3755 C 358.984 -5.17769 -0.686461 0
M  V30 3756 H 360.678 -2.99175 -0.116173 0
M  V30 3757 H 358.224 -1.43897 -0.054436 0
M  V30 3758 H 360.177 -3.37547 -2.5227 0
M  V30 3759 H 358.901 -2.1338 -2.47258 0
M  V30 3760 H 357.56 -3.55758 -0.884985 0
M  V30 3761 H 357.208 -3.74886 -3.35365 0
M  V30 3762 H 356.908 -5.30169 -2.53368 0
M  V30 3763 H 358.432 -5.05047 -3.43162 0
M  V30 3764 H 359.846 -5.60001 -1.22767 0
M  V30 3765 H 358.243 -5.97735 -0.532259 0
M  V30 3766 H 359.313 -4.83932 0.306196 0
M  V30 3767 N 360.656 0.0484629 -1.57525 0
M  V30 3768 C 362.072 0.40375 -1.54409 0
M  V30 3769 C 362.272 1.77786 -0.948384 0
M  V30 3770 O 361.328 2.46189 -0.560983 0
M  V30 3771 C 362.641 0.323394 -2.98956 0
M  V30 3772 C 364.189 0.401892 -3.10409 0
M  V30 3773 C 364.664 0.351195 -4.56652 0
M  V30 3774 N 366.155 0.410576 -4.61377 0
M  V30 3775 C 366.89 0.393933 -5.72045 0
M  V30 3776 N 366.386 0.330724 -6.9201 0
M  V30 3777 N 368.179 0.442227 -5.60358 0
M  V30 3778 H 360.33 -0.851016 -1.94606 0
M  V30 3779 H 362.593 -0.321721 -0.89174 0
M  V30 3780 H 362.299 -0.62011 -3.4619 0
M  V30 3781 H 362.173 1.12463 -3.60044 0
M  V30 3782 H 364.56 1.33582 -2.63134 0
M  V30 3783 H 364.641 -0.428342 -2.52188 0
M  V30 3784 H 364.285 -0.578987 -5.04589 0
M  V30 3785 H 364.215 1.19928 -5.12762 0
M  V30 3786 H 366.706 0.462729 -3.75056 0
M  V30 3787 H 367.019 0.322592 -7.72126 0
M  V30 3788 H 365.364 0.29706 -6.94365 0
M  V30 3789 H 368.555 0.489464 -4.65534 0
M  V30 3790 H 368.728 0.425788 -6.466 0
M  V30 3791 N 362.134 1.5431 0.320358 0
M  V30 3792 C 363.545 1.63872 0.894594 0
M  V30 3793 C 363.896 0.534847 1.88769 0
M  V30 3794 O 363.021 -0.331732 2.13842 0
M  V30 3795 C 363.616 2.97049 1.62934 0
M  V30 3796 C 362.175 3.08796 2.15226 0
M  V30 3797 C 361.322 2.59456 0.978671 0
M  V30 3798 H 364.273 1.58398 0.0978544 0
M  V30 3799 H 364.294 2.87388 2.49376 0
M  V30 3800 H 363.806 3.7737 0.906302 0
M  V30 3801 H 361.907 2.33156 2.90636 0
M  V30 3802 H 362.02 4.14649 2.40006 0
M  V30 3803 H 360.384 2.1543 1.35875 0
M  V30 3804 H 361.167 3.42237 0.269895 0
M  V30 3805 N 363.613 -0.582584 1.46437 0
M  V30 3806 C 364.543 -1.70187 1.59871 0
M  V30 3807 C 365.524 -1.64066 0.449042 0
M  V30 3808 O 366.709 -1.82081 0.6753 0
M  V30 3809 C 363.839 -3.08827 1.58881 0
M  V30 3810 C 362.793 -3.29779 2.72819 0
M  V30 3811 C 362.119 -4.68947 2.5689 0
M  V30 3812 C 363.419 -3.17601 4.1464 0
M  V30 3813 H 365.113 -1.592 2.53566 0
M  V30 3814 H 362.659 -0.764472 1.22032 0
M  V30 3815 H 364.612 -3.86951 1.66873 0
M  V30 3816 H 363.336 -3.20713 0.617306 0
M  V30 3817 H 361.995 -2.54054 2.64296 0
M  V30 3818 H 361.643 -4.77599 1.57823 0
M  V30 3819 H 361.343 -4.83919 3.33312 0
M  V30 3820 H 362.867 -5.4924 2.66773 0
M  V30 3821 H 364.281 -3.8557 4.24274 0
M  V30 3822 H 362.678 -3.44094 4.9165 0
M  V30 3823 H 363.748 -2.14681 4.34788 0
M  V30 3824 N 365.091 -1.34144 -0.827227 0
M  V30 3825 C 366.021 -1.28005 -1.95287 0
M  V30 3826 C 367.002 -0.158321 -1.69362 0
M  V30 3827 O 368.187 -0.349987 -1.9102 0
M  V30 3828 C 365.317 -1.03036 -3.31664 0
M  V30 3829 C 364.271 -2.11628 -3.72019 0
M  V30 3830 C 363.597 -1.71854 -5.0633 0
M  V30 3831 C 364.897 -3.53417 -3.8457 0
M  V30 3832 H 366.591 -2.22187 -2.00682 0
M  V30 3833 H 364.137 -1.0696 -0.964135 0
M  V30 3834 H 366.09 -0.973863 -4.09993 0
M  V30 3835 H 364.814 -0.0529391 -3.26557 0
M  V30 3836 H 363.473 -2.16339 -2.95961 0
M  V30 3837 H 363.121 -0.727841 -4.97706 0
M  V30 3838 H 362.821 -2.44531 -5.34302 0
M  V30 3839 H 364.345 -1.67692 -5.87122 0
M  V30 3840 H 365.759 -3.51142 -4.5318 0
M  V30 3841 H 364.156 -4.24679 -4.2399 0
M  V30 3842 H 365.226 -3.91072 -2.86689 0
M  V30 3843 N 366.569 1.04691 -1.17803 0
M  V30 3844 C 367.794 1.81984 -0.994813 0
M  V30 3845 C 368.219 1.82586 0.452112 0
M  V30 3846 O 367.577 1.23854 1.324 0
M  V30 3847 C 367.625 3.2575 -1.54659 0
M  V30 3848 O 366.729 4.05267 -0.763728 0
M  V30 3849 H 366.07 0.562483 -0.352857 0
M  V30 3850 H 368.6 1.3189 -1.56417 0
M  V30 3851 H 368.61 3.76541 -1.57102 0
M  V30 3852 H 367.285 3.24627 -2.59981 0
M  V30 3853 H 365.862 3.63972 -0.811108 0
M  V30 3854 N 368.047 0.979072 1.23499 0
M  V30 3855 C 369.295 0.645941 1.91499 0
M  V30 3856 C 369.616 -0.822948 1.76784 0
M  V30 3857 O 368.886 -1.58854 1.14639 0
M  V30 3858 H 367.466 0.235919 0.708767 0
M  V30 3859 H 370.128 1.2426 1.50152 0
M  V30 3860 H 369.224 0.896411 2.9895 0
M  V30 3861 N 369.525 -1.3858 0.750561 0
M  V30 3862 C 370.455 -2.33102 0.136237 0
M  V30 3863 C 371.436 -1.54713 -0.706965 0
M  V30 3864 O 372.621 -1.83043 -0.648769 0
M  V30 3865 C 369.751 -3.38882 -0.760017 0
M  V30 3866 C 368.705 -4.27995 -0.0197785 0
M  V30 3867 C 368.031 -5.24605 -1.03408 0
M  V30 3868 C 369.331 -5.09554 1.14684 0
M  V30 3869 H 371.025 -2.84726 0.925822 0
M  V30 3870 H 368.571 -1.36898 0.446654 0
M  V30 3871 H 370.524 -4.0397 -1.19943 0
M  V30 3872 H 369.248 -2.85734 -1.58189 0
M  V30 3873 H 367.907 -3.64409 0.400184 0
M  V30 3874 H 367.555 -4.67746 -1.84994 0
M  V30 3875 H 367.255 -5.85081 -0.543464 0
M  V30 3876 H 368.779 -5.9257 -1.47288 0
M  V30 3877 H 370.193 -5.67899 0.785118 0
M  V30 3878 H 368.59 -5.7925 1.56812 0
M  V30 3879 H 369.66 -4.4347 1.96118 0
M  V30 3880 N 371.003 -0.499398 -1.49478 0
M  V30 3881 C 372.249 0.0457576 -2.02748 0
M  V30 3882 C 372.582 1.36793 -1.37846 0
M  V30 3883 O 371.857 1.87596 -0.513601 0
M  V30 3884 C 372.14 0.199986 -3.59544 0
M  V30 3885 C 371.993 -1.1452 -4.34977 0
M  V30 3886 C 373.312 0.94137 -4.29914 0
M  V30 3887 H 370.431 0.0151552 -0.736844 0
M  V30 3888 H 373.073 -0.650498 -1.78518 0
M  V30 3889 H 371.223 0.793007 -3.8032 0
M  V30 3890 H 372.895 -1.77697 -4.25701 0
M  V30 3891 H 371.138 -1.73488 -3.97598 0
M  V30 3892 H 371.809 -0.990607 -5.43039 0
M  V30 3893 H 374.285 0.43844 -4.13784 0
M  V30 3894 H 373.161 1.01812 -5.39375 0
M  V30 3895 H 373.422 1.98471 -3.95046 0
M  V30 3896 N 372.481 1.55866 -0.233164 0
M  V30 3897 C 373.729 1.9821 0.394593 0
M  V30 3898 C 374.05 1.12234 1.59463 0
M  V30 3899 O 373.32 0.201981 1.94856 0
M  V30 3900 H 371.9 0.732034 0.148778 0
M  V30 3901 H 374.562 1.92107 -0.32876 0
M  V30 3902 H 373.658 3.03845 0.713063 0
M  V30 3903 N 373.959 -0.0401083 1.57549 0
M  V30 3904 C 375.207 -0.731677 1.8839 0
M  V30 3905 C 375.528 -1.76481 0.829425 0
M  V30 3906 O 374.798 -1.95411 -0.1383 0
M  V30 3907 H 373.378 -0.273225 0.695239 0
M  V30 3908 H 376.04 -0.00867725 1.94898 0
M  V30 3909 H 375.136 -1.22816 2.86919 0
M  V30 3910 N 375.437 -1.54477 -0.31217 0
M  V30 3911 C 376.4 -1.83923 -1.36766 0
M  V30 3912 C 377.4 -0.711563 -1.44199 0
M  V30 3913 O 378.59 -0.979866 -1.44029 0
M  V30 3914 C 375.722 -2.0095 -2.75376 0
M  V30 3915 H 376.915 -2.78239 -1.11906 0
M  V30 3916 H 374.468 -1.46369 -0.548257 0
M  V30 3917 H 375.203 -1.08883 -3.05475 0
M  V30 3918 H 374.988 -2.83018 -2.71373 0
M  V30 3919 H 376.478 -2.2514 -3.51713 0
M  V30 3920 N 376.915 0.57481 -1.46744 0
M  V30 3921 C 378.163 1.33009 -1.52161 0
M  V30 3922 C 378.484 1.94185 -0.178092 0
M  V30 3923 O 377.754 1.7899 0.796196 0
M  V30 3924 H 376.334 0.493873 -0.560445 0
M  V30 3925 H 378.996 0.672589 -1.82927 0
M  V30 3926 H 378.092 2.13273 -2.27862 0
M  V30 3927 N 378.394 1.34581 0.820102 0
M  V30 3928 C 379.634 1.28448 1.58998 0
M  V30 3929 C 379.998 -0.142883 1.91468 0
M  V30 3930 O 381.199 -0.328422 2.66786 0
M  V30 3931 C 379.47 2.153 2.85273 0
M  V30 3932 S 381.029 2.26548 3.75794 0
M  V30 3933 H 377.847 0.456685 0.54494 0
M  V30 3934 H 380.449 1.69825 0.968487 0
M  V30 3935 H 379.153 3.18008 2.59421 0
M  V30 3936 H 378.684 1.7483 3.52417 0
M  V30 3937 H 380.699 1.44034 4.74835 0
M  V30 3938 N 379.872 -1.04064 1.18357 0
M  V30 3939 C 380.802 -2.14001 0.934113 0
M  V30 3940 C 381.783 -1.69616 -0.128186 0
M  V30 3941 O 382.968 -1.94185 0.0244093 0
M  V30 3942 C 380.098 -3.44253 0.459066 0
M  V30 3943 C 379.052 -4.02261 1.46185 0
M  V30 3944 C 378.378 -5.27992 0.844322 0
M  V30 3945 C 379.678 -4.38432 2.83856 0
M  V30 3946 H 381.372 -2.35127 1.85352 0
M  V30 3947 H 378.918 -1.12998 0.892604 0
M  V30 3948 H 380.871 -4.20522 0.271907 0
M  V30 3949 H 379.595 -3.22813 -0.495912 0
M  V30 3950 H 378.254 -3.28074 1.63595 0
M  V30 3951 H 377.902 -5.02862 -0.117845 0
M  V30 3952 H 377.602 -5.67765 1.51384 0
M  V30 3953 H 379.126 -6.06938 0.667693 0
M  V30 3954 H 380.54 -5.05688 2.70098 0
M  V30 3955 H 378.937 -4.89254 3.47491 0
M  V30 3956 H 380.007 -3.4826 3.37406 0
M  V30 3957 N 381.35 -0.985608 -1.22978 0
M  V30 3958 C 382.28 -0.549649 -2.26939 0
M  V30 3959 C 383.261 0.419803 -1.64838 0
M  V30 3960 O 384.446 0.31203 -1.91677 0
M  V30 3961 C 381.576 0.143652 -3.47003 0
M  V30 3962 C 380.53 -0.743606 -4.21491 0
M  V30 3963 C 379.856 0.0822027 -5.34637 0
M  V30 3964 C 381.156 -2.03694 -4.80943 0
M  V30 3965 H 382.85 -1.41862 -2.63658 0
M  V30 3966 H 380.396 -0.683571 -1.26741 0
M  V30 3967 H 382.349 0.459985 -4.18882 0
M  V30 3968 H 381.073 1.04711 -3.09359 0
M  V30 3969 H 379.732 -1.04347 -3.51436 0
M  V30 3970 H 379.38 0.986359 -4.93234 0
M  V30 3971 H 379.08 -0.508377 -5.85397 0
M  V30 3972 H 380.604 0.392797 -6.09335 0
M  V30 3973 H 382.018 -1.78504 -5.44802 0
M  V30 3974 H 380.415 -2.57573 -5.42011 0
M  V30 3975 H 381.485 -2.72042 -4.01399 0
M  V30 3976 N 382.828 1.3818 -0.7579 0
M  V30 3977 C 383.791 2.28764 -0.141286 0
M  V30 3978 C 384.791 1.47388 0.642907 0
M  V30 3979 O 385.981 1.67781 0.468536 0
M  V30 3980 C 383.113 3.31184 0.808069 0
M  V30 3981 H 384.306 2.848 -0.939633 0
M  V30 3982 H 381.859 1.47212 -0.525191 0
M  V30 3983 H 382.594 2.80247 1.63193 0
M  V30 3984 H 382.379 3.91314 0.248104 0
M  V30 3985 H 383.869 3.98909 1.23536 0
M  V30 3986 N 384.306 0.507319 1.49211 0
M  V30 3987 C 385.236 -0.256939 2.32082 0
M  V30 3988 C 386.217 -0.956609 1.40652 0
M  V30 3989 O 387.402 -0.946788 1.69557 0
M  V30 3990 C 384.532 -1.31802 3.21318 0
M  V30 3991 C 383.486 -0.737855 4.21592 0
M  V30 3992 C 382.812 -1.89992 4.99807 0
M  V30 3993 C 384.112 0.275325 5.21574 0
M  V30 3994 H 385.806 0.434798 2.96226 0
M  V30 3995 H 383.352 0.210546 1.42452 0
M  V30 3996 H 385.305 -1.86045 3.78107 0
M  V30 3997 H 384.029 -2.03903 2.5513 0
M  V30 3998 H 382.688 -0.217126 3.65956 0
M  V30 3999 H 382.336 -2.60877 4.30061 0
M  V30 4000 H 382.036 -1.51777 5.6766 0
M  V30 4001 H 383.56 -2.44657 5.59442 0
M  V30 4002 H 384.974 -0.179193 5.7302 0
M  V30 4003 H 383.371 0.573649 5.97352 0
M  V30 4004 H 384.441 1.18903 4.70096 0
M  V30 4005 N 385.784 -1.5574 0.241426 0
M  V30 4006 C 387.032 -1.98417 -0.384075 0
M  V30 4007 C 387.353 -1.13078 -1.58866 0
M  V30 4008 O 386.623 -0.212312 -1.94746 0
M  V30 4009 H 385.203 -0.732813 -0.144894 0
M  V30 4010 H 387.865 -1.9193 0.338943 0
M  V30 4011 H 386.961 -3.04219 -0.696939 0
M  V30 4012 N 387.262 0.0317525 -1.57568 0
M  V30 4013 C 388.192 1.03274 -2.0942 0
M  V30 4014 C 389.173 1.3788 -0.996143 0
M  V30 4015 O 390.358 1.46811 -1.27122 0
M  V30 4016 C 387.488 2.33448 -2.57137 0
M  V30 4017 C 386.442 2.13091 -3.71182 0
M  V30 4018 C 385.768 3.49001 -4.05095 0
M  V30 4019 C 387.068 1.51928 -4.99715 0
M  V30 4020 H 388.762 0.60112 -2.93303 0
M  V30 4021 H 386.308 0.287705 -1.41097 0
M  V30 4022 H 388.261 3.03802 -2.92032 0
M  V30 4023 H 386.985 2.78665 -1.70333 0
M  V30 4024 H 385.644 1.45171 -3.36632 0
M  V30 4025 H 385.292 3.91862 -3.15362 0
M  V30 4026 H 384.992 3.36207 -4.81911 0
M  V30 4027 H 386.516 4.20721 -4.42522 0
M  V30 4028 H 387.93 2.12196 -5.32584 0
M  V30 4029 H 386.327 1.49716 -5.81124 0
M  V30 4030 H 387.397 0.484811 -4.8247 0
M  V30 4031 N 388.74 1.54641 0.303973 0
M  V30 4032 C 390.017 1.64455 1.05896 0
M  V30 4033 C 390.397 0.490923 2.05312 0
M  V30 4034 O 389.745 -0.512685 2.22674 0
M  V30 4035 C 389.955 3.02331 1.74347 0
M  V30 4036 C 391.303 3.59045 2.26653 0
M  V30 4037 O 392.327 3.04764 1.84384 0
M  V30 4038 O 391.186 4.54081 3.04093 0
M  V30 4039 H 388.28 0.666729 0.489287 0
M  V30 4040 H 390.826 1.66986 0.302298 0
M  V30 4041 H 389.598 3.77734 1.02142 0
M  V30 4042 H 389.221 3.03565 2.56777 0
M  V30 4043 N 390.218 -0.567019 1.47046 0
M  V30 4044 C 391.168 -1.67018 1.55207 0
M  V30 4045 C 392.152 -1.55543 0.411714 0
M  V30 4046 O 393.344 -1.64192 0.661064 0
M  V30 4047 C 390.473 -3.05801 1.56014 0
M  V30 4048 C 389.559 -3.22515 2.75399 0
M  V30 4049 N 389.95 -3.09329 4.00186 0
M  V30 4050 C 388.248 -3.53493 2.71954 0
M  V30 4051 C 388.949 -3.2847 4.80086 0
M  V30 4052 N 387.925 -3.54352 4.12233 0
M  V30 4053 H 391.727 -1.55377 2.4947 0
M  V30 4054 H 389.241 -0.771503 1.42904 0
M  V30 4055 H 391.238 -3.84996 1.59949 0
M  V30 4056 H 389.898 -3.18561 0.628396 0
M  V30 4057 H 390.909 -2.86863 4.31196 0
M  V30 4058 H 387.586 -3.7284 1.87873 0
M  V30 4059 H 388.976 -3.23326 5.88991 0
M  V30 4060 N 391.696 -1.35014 -0.812953 0
M  V30 4061 C 392.943 -1.27931 -1.56971 0
M  V30 4062 C 393.271 0.148034 -1.93936 0
M  V30 4063 O 392.526 1.11175 -1.61054 0
M  V30 4064 C 392.825 -2.12524 -2.87347 0
M  V30 4065 C 392.491 -3.61401 -2.6963 0
M  V30 4066 C 391.153 -4.01983 -2.64506 0
M  V30 4067 C 393.505 -4.55894 -2.52607 0
M  V30 4068 C 390.833 -5.35235 -2.40293 0
M  V30 4069 C 393.185 -5.89336 -2.29925 0
M  V30 4070 C 391.849 -6.2907 -2.23219 0
M  V30 4071 H 391.119 -0.468131 -0.574399 0
M  V30 4072 H 393.766 -1.66851 -0.939836 0
M  V30 4073 H 392.071 -1.66463 -3.54679 0
M  V30 4074 H 393.768 -2.04383 -3.45005 0
M  V30 4075 H 390.358 -3.29193 -2.74463 0
M  V30 4076 H 394.542 -4.25431 -2.55583 0
M  V30 4077 H 389.798 -5.65028 -2.33566 0
M  V30 4078 H 393.972 -6.62139 -2.15743 0
M  V30 4079 H 391.599 -7.32256 -2.04219 0
M  V30 4080 N 393.175 1.03435 -1.18907 0
M  V30 4081 C 394.422 1.76743 -0.988334 0
M  V30 4082 C 394.75 1.88447 0.481441 0
M  V30 4083 O 394.005 1.39383 1.37371 0
M  V30 4084 C 394.304 3.19792 -1.59586 0
M  V30 4085 C 393.97 3.28108 -3.09283 0
M  V30 4086 C 392.632 3.30084 -3.5014 0
M  V30 4087 C 394.984 3.27696 -4.05296 0
M  V30 4088 C 392.312 3.29299 -4.85571 0
M  V30 4089 C 394.664 3.28451 -5.4065 0
M  V30 4090 C 393.328 3.28723 -5.80946 0
M  V30 4091 H 392.598 0.64675 -0.361657 0
M  V30 4092 H 395.245 1.21442 -1.48068 0
M  V30 4093 H 393.55 3.78136 -1.02568 0
M  V30 4094 H 395.247 3.75171 -1.41589 0
M  V30 4095 H 391.837 3.27294 -2.76725 0
M  V30 4096 H 396.021 3.25354 -3.74778 0
M  V30 4097 H 391.277 3.2783 -5.16079 0
M  V30 4098 H 395.451 3.27082 -6.14809 0
M  V30 4099 H 393.078 3.27868 -6.85862 0
M  V30 4100 N 394.653 0.992116 1.22453 0
M  V30 4101 C 395.585 0.500024 2.23679 0
M  V30 4102 C 396.598 -0.404463 1.57696 0
M  V30 4103 O 397.787 -0.206722 1.77299 0
M  V30 4104 C 394.887 -0.294711 3.37616 0
M  V30 4105 C 394.06 0.605723 4.33186 0
M  V30 4106 C 393.119 -0.13717 5.26021 0
M  V30 4107 O 392.145 0.477164 5.67196 0
M  V30 4108 N 393.347 -1.4197 5.62872 0
M  V30 4109 H 396.112 1.37045 2.66531 0
M  V30 4110 H 393.673 0.866741 1.36745 0
M  V30 4111 H 395.665 -0.800329 3.96707 0
M  V30 4112 H 394.235 -1.06623 2.93854 0
M  V30 4113 H 393.455 1.29202 3.72425 0
M  V30 4114 H 394.743 1.21896 4.93983 0
M  V30 4115 H 394.141 -1.94015 5.31389 0
M  V30 4116 H 392.698 -1.87052 6.24383 0
M  V30 4117 N 396.131 -1.37776 0.765217 0
M  V30 4118 C 397.38 -1.99092 0.323307 0
M  V30 4119 C 397.693 -1.61434 -1.10446 0
M  V30 4120 O 398.899 -2.15805 -1.64743 0
M  V30 4121 C 397.355 -3.56019 0.527098 0
M  V30 4122 C 396.963 -4.0262 1.96471 0
M  V30 4123 C 398.707 -4.2424 0.148483 0
M  V30 4124 C 396.614 -5.52233 2.11644 0
M  V30 4125 H 395.544 -0.744846 0.117137 0
M  V30 4126 H 398.195 -1.57391 0.943417 0
M  V30 4127 H 396.577 -3.95667 -0.162372 0
M  V30 4128 H 397.751 -3.74234 2.68859 0
M  V30 4129 H 396.066 -3.47161 2.29931 0
M  V30 4130 H 398.663 -5.34159 0.240456 0
M  V30 4131 H 399.006 -4.06446 -0.900422 0
M  V30 4132 H 399.539 -3.89872 0.79025 0
M  V30 4133 H 396.278 -5.74945 3.1483 0
M  V30 4134 H 395.798 -5.82324 1.4373 0
M  V30 4135 H 397.477 -6.18106 1.91193 0
M  V30 4136 N 397.609 -0.515225 -1.4894 0
M  V30 4137 C 399.025 -0.172099 -1.58669 0
M  V30 4138 C 399.225 1.32405 -1.51892 0
M  V30 4139 O 398.281 2.10116 -1.40027 0
M  V30 4140 C 399.594 -0.761533 -2.90897 0
M  V30 4141 C 401.142 -0.728926 -3.04394 0
M  V30 4142 C 401.617 -1.29667 -4.39261 0
M  V30 4143 N 403.108 -1.25799 -4.4579 0
M  V30 4144 C 403.843 -1.66733 -5.48623 0
M  V30 4145 N 403.339 -2.15327 -6.58488 0
M  V30 4146 N 405.132 -1.58061 -5.39419 0
M  V30 4147 H 397.283 -1.48778 -1.51588 0
M  V30 4148 H 399.546 -0.617968 -0.718901 0
M  V30 4149 H 399.252 -1.81136 -3.01468 0
M  V30 4150 H 399.126 -0.230106 -3.76497 0
M  V30 4151 H 401.513 0.312098 -2.93445 0
M  V30 4152 H 401.594 -1.29766 -2.20442 0
M  V30 4153 H 401.238 -2.33655 -4.50963 0
M  V30 4154 H 401.168 -0.703752 -5.21876 0
M  V30 4155 H 403.659 -0.902102 -3.66975 0
M  V30 4156 H 403.972 -2.44594 -7.33071 0
M  V30 4157 H 402.317 -2.19311 -6.59491 0
M  V30 4158 H 405.508 -1.19906 -4.52482 0
M  V30 4159 H 405.681 -1.90284 -6.19432 0
M  V30 4160 N 399.087 1.5561 -0.249682 0
M  V30 4161 C 399.997 2.25143 0.659375 0
M  V30 4162 C 401.013 1.2685 1.19101 0
M  V30 4163 O 402.189 1.59732 1.22669 0
M  V30 4164 C 399.254 2.93945 1.8384 0
M  V30 4165 C 398.315 4.07655 1.34596 0
M  V30 4166 C 397.548 4.73167 2.46878 0
M  V30 4167 O 397.771 4.37768 3.65671 0
M  V30 4168 O 396.705 5.61623 2.16478 0
M  V30 4169 H 400.531 3.03545 0.0968698 0
M  V30 4170 H 398.116 1.49389 -0.018074 0
M  V30 4171 H 399.998 3.37271 2.52638 0
M  V30 4172 H 398.673 2.18481 2.38847 0
M  V30 4173 H 397.58 3.68839 0.625174 0
M  V30 4174 H 398.913 4.84946 0.841941 0
M  V30 4175 N 400.565 -0.0233959 1.57583 0
M  V30 4176 C 401.528 -1.00693 2.05897 0
M  V30 4177 C 402.528 -1.28693 0.964092 0
M  V30 4178 O 403.718 -1.23602 1.22753 0
M  V30 4179 C 400.85 -2.33825 2.4807 0
M  V30 4180 H 402.043 -0.589476 2.9405 0
M  V30 4181 H 399.596 -0.270354 1.53944 0
M  V30 4182 H 400.331 -2.80307 1.6309 0
M  V30 4183 H 400.116 -2.1483 3.2801 0
M  V30 4184 H 401.606 -3.04426 2.85857 0
M  V30 4185 N 402.043 -1.548 -0.295768 0
M  V30 4186 C 403.454 -1.65274 -0.868411 0
M  V30 4187 C 403.805 -0.56481 -1.87894 0
M  V30 4188 O 402.93 0.29767 -2.14343 0
M  V30 4189 C 403.525 -2.99603 -1.58188 0
M  V30 4190 C 402.084 -3.12181 -2.10286 0
M  V30 4191 C 401.231 -2.6098 -0.93727 0
M  V30 4192 H 404.182 -1.58534 -0.0726422 0
M  V30 4193 H 404.203 -2.91319 -2.44772 0
M  V30 4194 H 403.715 -3.78764 -0.846151 0
M  V30 4195 H 401.816 -2.3775 -2.8689 0
M  V30 4196 H 401.929 -4.18415 -2.33379 0
M  V30 4197 H 400.293 -2.17564 -1.32431 0
M  V30 4198 H 401.076 -3.42623 -0.215414 0
M  V30 4199 N 403.521 0.559213 -1.47345 0
M  V30 4200 C 404.451 1.67622 -1.62558 0
M  V30 4201 C 405.432 1.63331 -0.475087 0
M  V30 4202 O 406.617 1.80983 -0.704182 0
M  V30 4203 C 403.747 3.0626 -1.63774 0
M  V30 4204 C 402.701 3.25397 -2.7803 0
M  V30 4205 C 402.027 4.64801 -2.64318 0
M  V30 4206 C 403.327 3.10965 -4.19641 0
M  V30 4207 H 405.021 1.55146 -2.56067 0
M  V30 4208 H 402.567 0.744961 -1.23233 0
M  V30 4209 H 404.52 3.84247 -1.73008 0
M  V30 4210 H 403.244 3.1969 -0.66825 0
M  V30 4211 H 401.903 2.49817 -2.68304 0
M  V30 4212 H 401.551 4.75028 -1.65401 0
M  V30 4213 H 401.251 4.78555 -3.40968 0
M  V30 4214 H 402.775 5.44926 -2.75478 0
M  V30 4215 H 404.189 3.78772 -4.30354 0
M  V30 4216 H 402.586 3.36229 -4.97062 0
M  V30 4217 H 403.656 2.07736 -4.38148 0
M  V30 4218 N 404.999 1.35443 0.805782 0
M  V30 4219 C 405.949 1.24972 1.90699 0
M  V30 4220 C 406.933 0.144806 1.60247 0
M  V30 4221 O 408.125 0.376102 1.72958 0
M  V30 4222 C 405.254 1.02475 3.27649 0
M  V30 4223 C 404.34 2.17361 3.64164 0
M  V30 4224 N 404.731 3.42591 3.72109 0
M  V30 4225 C 403.029 2.08765 3.94123 0
M  V30 4226 C 403.73 4.18144 4.04389 0
M  V30 4227 N 402.706 3.4691 4.18515 0
M  V30 4228 H 406.508 2.19852 1.95044 0
M  V30 4229 H 404.022 1.27928 1.00041 0
M  V30 4230 H 406.019 0.930617 4.06381 0
M  V30 4231 H 404.679 0.0848009 3.24589 0
M  V30 4232 H 405.69 3.76932 3.55166 0
M  V30 4233 H 402.367 1.22629 3.99084 0
M  V30 4234 H 403.757 5.26367 4.17597 0
M  V30 4235 N 406.477 -1.02803 1.19454 0
M  V30 4236 C 407.888 -1.57667 0.999899 0
M  V30 4237 C 408.239 -1.91041 -0.446956 0
M  V30 4238 O 407.364 -1.70978 -1.32648 0
M  V30 4239 C 407.959 -2.86477 1.80877 0
M  V30 4240 C 406.518 -3.37911 1.65811 0
M  V30 4241 C 405.665 -2.11343 1.79526 0
M  V30 4242 H 408.616 -0.853214 1.33813 0
M  V30 4243 H 408.637 -3.57408 1.30536 0
M  V30 4244 H 408.149 -2.62155 2.86175 0
M  V30 4245 H 406.25 -3.67218 0.63102 0
M  V30 4246 H 406.363 -4.10885 2.46395 0
M  V30 4247 H 404.727 -2.23254 1.22596 0
M  V30 4248 H 405.51 -1.89461 2.86285 0
M  V30 4249 N 407.956 -0.998596 -1.21925 0
M  V30 4250 C 409.372 -0.710303 -1.42923 0
M  V30 4251 C 409.572 0.716933 -1.88314 0
M  V30 4252 O 408.628 1.48712 -2.04062 0
M  V30 4253 C 409.941 -1.72072 -2.466 0
M  V30 4254 C 411.489 -1.73681 -2.60392 0
M  V30 4255 C 411.964 -2.73601 -3.67296 0
M  V30 4256 N 413.455 -2.7223 -3.7476 0
M  V30 4257 C 414.19 -3.46206 -4.57087 0
M  V30 4258 N 413.686 -4.29802 -5.43362 0
M  V30 4259 N 415.479 -3.34886 -4.51451 0
M  V30 4260 H 407.63 -1.92028 -0.9077 0
M  V30 4261 H 409.893 -0.828487 -0.460775 0
M  V30 4262 H 409.599 -2.74231 -2.20206 0
M  V30 4263 H 409.473 -1.51818 -3.45299 0
M  V30 4264 H 411.86 -0.722173 -2.86127 0
M  V30 4265 H 411.941 -1.98005 -1.61949 0
M  V30 4266 H 411.585 -3.75217 -3.42307 0
M  V30 4267 H 411.515 -2.46545 -4.65321 0
M  V30 4268 H 414.006 -2.11576 -3.1312 0
M  V30 4269 H 414.319 -4.83061 -6.03218 0
M  V30 4270 H 412.664 -4.33887 -5.42925 0
M  V30 4271 H 415.855 -2.69015 -3.83078 0
M  V30 4272 H 416.028 -3.92796 -5.15379 0
M  V30 4273 N 409.434 1.37368 -0.772513 0
M  V30 4274 C 410.364 2.32856 -0.173304 0
M  V30 4275 C 411.345 1.55818 0.682262 0
M  V30 4276 O 412.53 1.84052 0.619566 0
M  V30 4277 C 409.66 3.40048 0.706007 0
M  V30 4278 C 408.614 4.27973 -0.0483144 0
M  V30 4279 C 407.94 5.26184 0.950491 0
M  V30 4280 C 409.24 5.07665 -1.22776 0
M  V30 4281 H 410.934 2.83217 -0.971002 0
M  V30 4282 H 408.48 1.3617 -0.468377 0
M  V30 4283 H 410.433 4.05827 1.13501 0
M  V30 4284 H 409.157 2.88214 1.53623 0
M  V30 4285 H 407.816 3.63726 -0.458107 0
M  V30 4286 H 407.464 4.7063 1.77529 0
M  V30 4287 H 407.164 5.85872 0.450314 0
M  V30 4288 H 408.688 5.94838 1.37842 0
M  V30 4289 H 410.102 5.66578 -0.875366 0
M  V30 4290 H 408.499 5.76681 -1.66007 0
M  V30 4291 H 409.569 4.40294 -2.03149 0
M  V30 4292 N 410.912 0.523116 1.48665 0
M  V30 4293 C 412.137 -0.0117284 2.07397 0
M  V30 4294 C 412.562 -1.28031 1.37803 0
M  V30 4295 O 411.92 -1.75836 0.441762 0
M  V30 4296 C 411.968 -0.225786 3.59892 0
M  V30 4297 O 411.072 -1.29592 3.91509 0
M  V30 4298 H 410.413 0.0360673 0.66302 0
M  V30 4299 H 412.943 0.729066 1.9117 0
M  V30 4300 H 412.953 -0.450552 4.05505 0
M  V30 4301 H 411.628 0.700944 4.09951 0
M  V30 4302 H 410.205 -1.05436 3.57684 0
M  V30 4303 N 412.39 -1.55475 0.257931 0
M  V30 4304 C 413.615 -2.04064 -0.370488 0
M  V30 4305 C 414.04 -1.13565 -1.49948 0
M  V30 4306 O 413.398 -0.130781 -1.80828 0
M  V30 4307 C 413.446 -3.50554 -0.845237 0
M  V30 4308 O 412.55 -3.63173 -1.95394 0
M  V30 4309 H 411.891 -0.659257 -0.0792243 0
M  V30 4310 H 414.421 -2.00903 0.387212 0
M  V30 4311 H 414.431 -3.91588 -1.14555 0
M  V30 4312 H 413.106 -4.15896 -0.0191259 0
M  V30 4313 H 411.683 -3.34039 -1.65748 0
M  V30 4314 N 413.868 0.0150385 -1.57593 0
M  V30 4315 C 414.831 0.995996 -2.06428 0
M  V30 4316 C 415.831 1.2818 -0.970903 0
M  V30 4317 O 417.021 1.22949 -1.23406 0
M  V30 4318 C 414.153 2.32506 -2.49307 0
M  V30 4319 H 415.346 0.573873 -2.94358 0
M  V30 4320 H 412.899 0.262186 -1.54085 0
M  V30 4321 H 413.634 2.79438 -1.64575 0
M  V30 4322 H 413.419 2.13087 -3.29145 0
M  V30 4323 H 414.909 3.02906 -2.87468 0
M  V30 4324 N 415.346 1.54954 0.287554 0
M  V30 4325 C 416.309 1.86076 1.33823 0
M  V30 4326 C 417.309 0.734414 1.43049 0
M  V30 4327 O 418.499 1.00266 1.42452 0
M  V30 4328 C 415.631 2.05305 2.72144 0
M  V30 4329 H 416.824 2.79984 1.07465 0
M  V30 4330 H 414.377 1.47223 0.524902 0
M  V30 4331 H 415.112 1.1373 3.03704 0
M  V30 4332 H 414.897 2.873 2.66836 0
M  V30 4333 H 416.387 2.30706 3.48087 0
M  V30 4334 N 416.824 -0.551391 1.4764 0
M  V30 4335 C 417.734 -1.68525 1.63207 0
M  V30 4336 C 418.75 -1.6621 0.514815 0
M  V30 4337 O 419.926 -1.85551 0.783113 0
M  V30 4338 C 416.991 -3.05025 1.64805 0
M  V30 4339 C 416.052 -3.18362 2.88 0
M  V30 4340 C 415.285 -4.4835 2.89513 0
M  V30 4341 O 415.508 -5.34163 2.00065 0
M  V30 4342 O 414.442 -4.65602 3.81443 0
M  V30 4343 H 418.268 -1.58333 2.59161 0
M  V30 4344 H 415.853 -0.722063 1.30792 0
M  V30 4345 H 417.735 -3.86245 1.68502 0
M  V30 4346 H 416.41 -3.15587 0.720197 0
M  V30 4347 H 415.317 -2.36518 2.89845 0
M  V30 4348 H 416.65 -3.12707 3.80099 0
M  V30 4349 N 418.302 -1.35869 -0.798587 0
M  V30 4350 C 419.212 -1.31578 -1.94228 0
M  V30 4351 C 420.228 -0.21939 -1.72611 0
M  V30 4352 O 421.404 -0.450167 -1.96305 0
M  V30 4353 C 418.469 -1.09528 -3.28944 0
M  V30 4354 C 417.53 -2.28556 -3.63402 0
M  V30 4355 C 416.763 -2.07549 -4.9169 0
M  V30 4356 O 416.986 -1.046 -5.60727 0
M  V30 4357 O 415.92 -2.95106 -5.24591 0
M  V30 4358 H 419.746 -2.27847 -2.00796 0
M  V30 4359 H 417.331 -1.16322 -0.937526 0
M  V30 4360 H 419.213 -0.991127 -4.09579 0
M  V30 4361 H 417.888 -0.16315 -3.23289 0
M  V30 4362 H 416.795 -2.44538 -2.83112 0
M  V30 4363 H 418.128 -3.20244 -3.73771 0
M  V30 4364 N 419.78 1.02168 -1.19998 0
M  V30 4365 C 420.727 2.10601 -0.944228 0
M  V30 4366 C 421.697 1.65639 0.123664 0
M  V30 4367 O 422.882 1.9079 -0.0199941 0
M  V30 4368 C 420.022 3.41504 -0.496865 0
M  V30 4369 C 419.135 3.99973 -1.63234 0
M  V30 4370 C 418.27 5.18915 -1.13579 0
M  V30 4371 C 417.309 5.69456 -2.24468 0
M  V30 4372 N 416.446 6.79665 -1.76068 0
M  V30 4373 H 421.286 2.31814 -1.8726 0
M  V30 4374 H 418.823 1.13686 -0.933483 0
M  V30 4375 H 420.781 4.16626 -0.218843 0
M  V30 4376 H 419.411 3.2038 0.394508 0
M  V30 4377 H 418.463 3.21997 -2.0254 0
M  V30 4378 H 419.775 4.33492 -2.46752 0
M  V30 4379 H 418.929 6.01222 -0.813429 0
M  V30 4380 H 417.668 4.8695 -0.270434 0
M  V30 4381 H 416.673 4.85757 -2.57526 0
M  V30 4382 H 417.898 6.03459 -3.11472 0
M  V30 4383 H 415.844 6.49538 -0.918516 0
M  V30 4384 H 415.761 7.12349 -2.5317 0
M  V30 4385 H 417.029 7.65549 -1.46817 0
M  V30 4386 N 421.258 1.00505 1.21394 0
M  V30 4387 C 422.504 0.688793 1.90745 0
M  V30 4388 C 422.837 -0.778486 1.77914 0
M  V30 4389 O 422.112 -1.56433 1.15581 0
M  V30 4390 C 422.395 1.11063 3.42545 0
M  V30 4391 C 422.248 2.63737 3.64367 0
M  V30 4392 C 423.567 0.673059 4.34923 0
M  V30 4393 H 420.686 0.251702 0.692687 0
M  V30 4394 H 423.328 1.25074 1.43026 0
M  V30 4395 H 421.478 0.632508 3.83317 0
M  V30 4396 H 423.15 3.19313 3.32922 0
M  V30 4397 H 421.393 3.05248 3.08231 0
M  V30 4398 H 422.064 2.88305 4.70727 0
M  V30 4399 H 424.54 1.08392 4.01734 0
M  V30 4400 H 423.416 0.996383 5.39781 0
M  V30 4401 H 423.677 -0.425808 4.40045 0
M  V30 4402 N 422.737 -1.36956 0.779787 0
M  V30 4403 C 424.148 -1.82094 0.412156 0
M  V30 4404 C 424.499 -1.64926 -1.06273 0
M  V30 4405 O 423.624 -1.16483 -1.82375 0
M  V30 4406 C 424.219 -3.3059 0.741319 0
M  V30 4407 C 422.778 -3.73974 0.426641 0
M  V30 4408 C 421.925 -2.59368 0.980987 0
M  V30 4409 H 424.876 -1.25314 0.973758 0
M  V30 4410 H 424.897 -3.80489 0.028887 0
M  V30 4411 H 424.409 -3.43054 1.81482 0
M  V30 4412 H 422.51 -3.67076 -0.639215 0
M  V30 4413 H 422.623 -4.69778 0.940515 0
M  V30 4414 H 420.987 -2.51463 0.404757 0
M  V30 4415 H 421.77 -2.74621 2.06005 0
M  V30 4416 N 424.215 -0.530993 -1.48385 0
M  V30 4417 C 425.461 0.00274135 -2.028 0
M  V30 4418 C 425.794 1.33838 -1.40716 0
M  V30 4419 O 425.069 1.86465 -0.553277 0
M  V30 4420 C 425.352 0.123676 -3.59888 0
M  V30 4421 C 425.205 -1.2372 -4.3245 0
M  V30 4422 C 426.524 0.849967 -4.31814 0
M  V30 4423 H 423.643 -0.000477758 -0.737 0
M  V30 4424 H 426.285 -0.688217 -1.77098 0
M  V30 4425 H 424.435 0.712157 -3.81917 0
M  V30 4426 H 426.107 -1.86687 -4.21836 0
M  V30 4427 H 424.35 -1.81882 -3.93829 0
M  V30 4428 H 425.021 -1.10557 -5.40815 0
M  V30 4429 H 427.497 0.350572 -4.14621 0
M  V30 4430 H 426.373 0.903486 -5.41413 0
M  V30 4431 H 426.634 1.90047 -3.99167 0
M  V30 4432 N 425.693 1.55336 -0.266172 0
M  V30 4433 C 426.942 1.98574 0.353749 0
M  V30 4434 C 427.255 1.15789 1.57646 0
M  V30 4435 O 428.461 1.49129 2.26876 0
M  V30 4436 C 426.917 3.53403 0.680747 0
M  V30 4437 C 426.525 4.44953 -0.52165 0
M  V30 4438 C 428.269 4.05251 1.26379 0
M  V30 4439 C 426.176 5.91156 -0.169736 0
M  V30 4440 H 425.106 0.741643 0.135949 0
M  V30 4441 H 427.757 1.79743 -0.369421 0
M  V30 4442 H 426.139 3.68001 1.46257 0
M  V30 4443 H 427.313 4.42121 -1.29869 0
M  V30 4444 H 425.628 4.03691 -1.02093 0
M  V30 4445 H 428.225 5.12021 1.54074 0
M  V30 4446 H 428.568 3.53749 2.19471 0
M  V30 4447 H 429.101 3.94057 0.544447 0
M  V30 4448 H 425.84 6.46736 -1.0683 0
M  V30 4449 H 425.36 5.97079 0.570717 0
M  V30 4450 H 427.039 6.4655 0.241245 0
M  V30 4451 N 427.171 -0.0066808 1.57599 0
M  V30 4452 C 428.587 -0.36267 1.55425 0
M  V30 4453 C 428.787 -1.75209 0.995187 0
M  V30 4454 O 427.843 -2.44616 0.626058 0
M  V30 4455 C 429.156 -0.244017 2.99708 0
M  V30 4456 C 430.704 -0.319451 3.11366 0
M  V30 4457 C 431.179 -0.229998 4.57422 0
M  V30 4458 N 432.67 -0.288105 4.62303 0
M  V30 4459 C 433.405 -0.242127 5.72889 0
M  V30 4460 N 432.901 -0.147133 6.92644 0
M  V30 4461 N 434.694 -0.293502 5.61333 0
M  V30 4462 H 426.845 0.902314 1.92281 0
M  V30 4463 H 429.108 0.34525 0.882896 0
M  V30 4464 H 428.814 0.711678 3.44424 0
M  V30 4465 H 428.688 -1.02877 3.629 0
M  V30 4466 H 431.075 -1.26559 2.66584 0
M  V30 4467 H 431.156 0.495055 2.50964 0
M  V30 4468 H 430.8 0.712566 5.02877 0
M  V30 4469 H 430.73 -1.0629 5.15761 0
M  V30 4470 H 433.221 -0.363126 3.76151 0
M  V30 4471 H 433.534 -0.117763 7.7271 0
M  V30 4472 H 431.879 -0.112857 6.94908 0
M  V30 4473 H 435.07 -0.365864 4.66668 0
M  V30 4474 H 435.243 -0.254204 6.47501 0
M  V30 4475 N 428.649 -1.55105 -0.279332 0
M  V30 4476 C 430.06 -1.66186 -0.850832 0
M  V30 4477 C 430.411 -0.584707 -1.87285 0
M  V30 4478 O 429.536 0.274919 -2.14647 0
M  V30 4479 C 430.131 -3.01264 -1.55001 0
M  V30 4480 C 428.69 -3.14394 -2.06963 0
M  V30 4481 C 427.837 -2.61959 -0.909536 0
M  V30 4482 H 430.788 -1.58602 -0.0558235 0
M  V30 4483 H 430.809 -2.93899 -2.41669 0
M  V30 4484 H 430.321 -3.7964 -0.805931 0
M  V30 4485 H 428.422 -2.4078 -2.84352 0
M  V30 4486 H 428.535 -4.20867 -2.28928 0
M  V30 4487 H 426.899 -2.18957 -1.30116 0
M  V30 4488 H 427.682 -3.42833 -0.179062 0
M  V30 4489 N 430.127 0.543554 -1.4793 0
M  V30 4490 C 431.543 0.870806 -1.3375 0
M  V30 4491 C 431.743 1.9864 -0.338261 0
M  V30 4492 O 430.799 2.51305 0.245371 0
M  V30 4493 C 432.112 1.25114 -2.73435 0
M  V30 4494 C 433.66 1.3618 -2.81823 0
M  V30 4495 C 434.135 1.77563 -4.22179 0
M  V30 4496 N 435.626 1.8469 -4.24787 0
M  V30 4497 C 436.361 2.18067 -5.30315 0
M  V30 4498 N 435.857 2.49963 -6.46135 0
M  V30 4499 N 437.65 2.18958 -5.17701 0
M  V30 4500 H 429.801 -0.19275 -2.11524 0
M  V30 4501 H 432.064 -0.0235777 -0.947707 0
M  V30 4502 H 431.77 0.50514 -3.48053 0
M  V30 4503 H 431.644 2.20431 -3.06088 0
M  V30 4504 H 434.031 2.09859 -2.07468 0
M  V30 4505 H 434.112 0.390169 -2.52807 0
M  V30 4506 H 433.756 1.04449 -4.97044 0
M  V30 4507 H 433.686 2.75753 -4.48629 0
M  V30 4508 H 436.177 1.62372 -3.41239 0
M  V30 4509 H 436.49 2.74497 -7.22406 0
M  V30 4510 H 434.835 2.47513 -6.49432 0
M  V30 4511 H 438.026 1.93488 -4.2624 0
M  V30 4512 H 438.199 2.44639 -6.00047 0
M  V30 4513 N 431.605 1.3629 0.791371 0
M  V30 4514 C 433.021 1.16661 1.08914 0
M  V30 4515 C 433.221 -0.0106266 2.01497 0
M  V30 4516 O 432.277 -0.676596 2.43266 0
M  V30 4517 C 433.59 2.47656 1.70549 0
M  V30 4518 C 435.138 2.54002 1.82899 0
M  V30 4519 C 435.613 3.85078 2.47949 0
M  V30 4520 N 437.104 3.86413 2.5542 0
M  V30 4521 C 437.839 4.84572 3.06557 0
M  V30 4522 N 437.335 5.93124 3.58016 0
M  V30 4523 N 439.128 4.71994 3.05251 0
M  V30 4524 H 431.279 2.11668 0.176238 0
M  V30 4525 H 433.542 0.937486 0.140796 0
M  V30 4526 H 433.248 3.34059 1.09989 0
M  V30 4527 H 433.122 2.63319 2.70079 0
M  V30 4528 H 435.509 1.68018 2.42598 0
M  V30 4529 H 435.59 2.42239 0.821808 0
M  V30 4530 H 435.234 4.71467 1.88895 0
M  V30 4531 H 435.164 3.94135 3.49235 0
M  V30 4532 H 437.655 3.07988 2.18979 0
M  V30 4533 H 437.968 6.63999 3.95381 0
M  V30 4534 H 436.313 5.96796 3.56173 0
M  V30 4535 H 439.504 3.86321 2.64336 0
M  V30 4536 H 439.677 5.48653 3.44796 0
M  V30 4537 N 433.083 -1.0153 1.20538 0
M  V30 4538 C 434.499 -1.27461 0.96051 0
M  V30 4539 C 434.699 -1.98273 -0.359193 0
M  V30 4540 O 433.755 -2.27886 -1.0874 0
M  V30 4541 C 435.068 -2.10837 2.14402 0
M  V30 4542 C 436.616 -2.24099 2.18515 0
M  V30 4543 C 437.091 -3.10852 3.36355 0
M  V30 4544 N 438.582 -3.18441 3.36377 0
M  V30 4545 C 439.317 -3.85795 4.24205 0
M  V30 4546 N 438.813 -4.55264 5.22213 0
M  V30 4547 N 440.606 -3.82331 4.12043 0
M  V30 4548 H 432.757 -0.539907 2.05423 0
M  V30 4549 H 435.02 -0.30092 0.898972 0
M  V30 4550 H 434.726 -1.66144 3.09983 0
M  V30 4551 H 434.6 -3.11576 2.12604 0
M  V30 4552 H 436.987 -2.68016 1.23497 0
M  V30 4553 H 437.068 -1.22865 2.24361 0
M  V30 4554 H 436.712 -2.6764 4.31661 0
M  V30 4555 H 436.642 -4.12177 3.27746 0
M  V30 4556 H 439.133 -2.68978 2.65442 0
M  V30 4557 H 439.446 -5.04331 5.85551 0
M  V30 4558 H 437.791 -4.54085 5.26148 0
M  V30 4559 H 440.982 -3.27207 3.34743 0
M  V30 4560 H 441.155 -4.34547 4.807 0
M  V30 4561 N 434.561 -1.01147 -1.20859 0
M  V30 4562 C 435.786 -0.716698 -1.94623 0
M  V30 4563 C 436.211 0.715415 -1.73964 0
M  V30 4564 O 435.569 1.49157 -1.03062 0
M  V30 4565 C 435.617 -1.0513 -3.44935 0
M  V30 4566 O 434.721 -0.160131 -4.12089 0
M  V30 4567 H 434.062 -0.266404 -0.608214 0
M  V30 4568 H 436.592 -1.35346 -1.53436 0
M  V30 4569 H 436.602 -1.00086 -3.95533 0
M  V30 4570 H 435.277 -2.09475 -3.59295 0
M  V30 4571 H 433.854 -0.267657 -3.71938 0
M  V30 4572 N 436.039 1.36541 -0.78704 0
M  V30 4573 C 437.264 2.0409 -0.369053 0
M  V30 4574 C 437.689 1.58957 1.00569 0
M  V30 4575 O 437.047 0.756926 1.64743 0
M  V30 4576 C 437.095 3.57924 -0.438466 0
M  V30 4577 O 436.199 4.08642 0.555479 0
M  V30 4578 H 435.54 0.645142 -0.157122 0
M  V30 4579 H 438.07 1.74545 -1.06749 0
M  V30 4580 H 438.08 4.06887 -0.301218 0
M  V30 4581 H 436.755 3.90127 -1.44132 0
M  V30 4582 H 435.332 3.70958 0.380088 0
M  V30 4583 N 437.518 0.538854 1.48102 0
M  V30 4584 C 438.758 0.0101209 2.04397 0
M  V30 4585 C 439.122 -1.30741 1.40609 0
M  V30 4586 O 440.323 -1.92272 1.87843 0
M  V30 4587 C 438.594 -0.100232 3.57259 0
M  V30 4588 S 440.153 -0.577746 4.3498 0
M  V30 4589 H 436.971 0.0163171 0.710813 0
M  V30 4590 H 439.573 0.721429 1.81702 0
M  V30 4591 H 438.277 0.863351 4.01216 0
M  V30 4592 H 437.808 -0.835651 3.84422 0
M  V30 4593 H 439.823 -1.84073 4.60794 0
M  V30 4594 N 438.996 -1.55193 0.274407 0
M  V30 4595 C 440.242 -1.99877 -0.343086 0
M  V30 4596 C 440.575 -1.16256 -1.55558 0
M  V30 4597 O 439.85 -0.232462 -1.93106 0
M  V30 4598 C 440.133 -3.52706 -0.725965 0
M  V30 4599 C 439.986 -4.47081 0.493818 0
M  V30 4600 C 441.305 -4.11422 -1.56268 0
M  V30 4601 H 438.424 -0.726625 -0.123229 0
M  V30 4602 H 441.066 -1.86136 0.38121 0
M  V30 4603 H 439.216 -3.64546 -1.34307 0
M  V30 4604 H 440.888 -4.47186 1.13237 0
M  V30 4605 H 439.131 -4.1877 1.13201 0
M  V30 4606 H 439.802 -5.51699 0.18217 0
M  V30 4607 H 442.278 -4.02855 -1.04151 0
M  V30 4608 H 441.154 -5.18568 -1.79939 0
M  V30 4609 H 441.415 -3.61607 -2.54348 0
M  V30 4610 N 440.474 -0.00167713 -1.576 0
M  V30 4611 C 441.699 0.69739 -1.95323 0
M  V30 4612 C 442.124 1.6642 -0.876706 0
M  V30 4613 O 441.482 1.80548 0.165007 0
M  V30 4614 C 441.53 1.40403 -3.32144 0
M  V30 4615 O 440.634 2.5185 -3.26566 0
M  V30 4616 H 439.975 0.185373 -0.637599 0
M  V30 4617 H 442.505 -0.0553665 -2.04525 0
M  V30 4618 H 442.515 1.76707 -3.67748 0
M  V30 4619 H 441.19 0.695167 -4.10049 0
M  V30 4620 H 439.767 2.17861 -3.0264 0
M  V30 4621 N 441.952 1.55251 0.271103 0
M  V30 4622 C 442.882 1.9127 1.33933 0
M  V30 4623 C 443.863 0.77478 1.5143 0
M  V30 4624 O 445.048 1.03307 1.64442 0
M  V30 4625 C 442.178 2.18627 2.69851 0
M  V30 4626 C 441.132 3.34442 2.67081 0
M  V30 4627 C 440.458 3.47284 4.06569 0
M  V30 4628 C 441.758 4.70784 2.26185 0
M  V30 4629 H 443.452 2.80744 1.04035 0
M  V30 4630 H 440.998 1.35077 0.499017 0
M  V30 4631 H 442.951 2.42413 3.44694 0
M  V30 4632 H 441.675 1.25955 3.01335 0
M  V30 4633 H 440.334 3.10627 1.94695 0
M  V30 4634 H 439.982 2.52074 4.35279 0
M  V30 4635 H 439.682 4.25152 4.0561 0
M  V30 4636 H 441.206 3.73363 4.83148 0
M  V30 4637 H 442.62 4.94102 2.90751 0
M  V30 4638 H 441.017 5.51582 2.36384 0
M  V30 4639 H 442.087 4.69478 1.21319 0
M  V30 4640 N 443.43 -0.535701 1.48216 0
M  V30 4641 C 444.678 -1.28928 1.55634 0
M  V30 4642 C 444.999 -1.93645 0.229514 0
M  V30 4643 O 444.269 -1.81038 -0.74846 0
M  V30 4644 H 442.849 -0.47884 0.573342 0
M  V30 4645 H 445.511 -0.623853 1.84646 0
M  V30 4646 H 444.607 -2.07157 2.33436 0
M  V30 4647 N 444.908 -1.36708 -0.784132 0
M  V30 4648 C 445.818 -1.3363 -1.92822 0
M  V30 4649 C 446.834 -0.237686 -1.72369 0
M  V30 4650 O 448.01 -0.470962 -1.95816 0
M  V30 4651 C 445.075 -1.13011 -3.27764 0
M  V30 4652 C 444.136 -2.32397 -3.60957 0
M  V30 4653 C 443.369 -2.12752 -4.89461 0
M  V30 4654 O 443.592 -1.10541 -5.59586 0
M  V30 4655 O 442.526 -3.00653 -5.21432 0
M  V30 4656 H 446.352 -2.29964 -1.98369 0
M  V30 4657 H 443.937 -1.1731 -0.925136 0
M  V30 4658 H 445.819 -1.03451 -4.08504 0
M  V30 4659 H 444.494 -0.19743 -3.23097 0
M  V30 4660 H 443.401 -2.47527 -2.80502 0
M  V30 4661 H 444.734 -3.2419 -3.70354 0
M  V30 4662 N 446.386 1.0089 -1.21074 0
M  V30 4663 C 447.614 1.78191 -1.05145 0
M  V30 4664 C 448.029 1.84537 0.398952 0
M  V30 4665 O 447.386 1.30393 1.27687 0
M  V30 4666 C 447.437 3.22288 -1.63746 0
M  V30 4667 O 447.158 3.16315 -3.03111 0
M  V30 4668 C 448.659 4.16106 -1.52875 0
M  V30 4669 H 445.879 0.560129 -0.369454 0
M  V30 4670 H 448.423 1.26945 -1.60328 0
M  V30 4671 H 446.578 3.70655 -1.12664 0
M  V30 4672 H 446.992 4.06817 -3.31059 0
M  V30 4673 H 448.466 5.15026 -1.98626 0
M  V30 4674 H 448.943 4.36541 -0.482521 0
M  V30 4675 H 449.549 3.73625 -2.03185 0
M  V30 4676 N 447.864 1.01787 1.20321 0
M  V30 4677 C 448.827 0.593972 2.2137 0
M  V30 4678 C 449.827 -0.336553 1.57239 0
M  V30 4679 O 451.017 -0.125069 1.7375 0
M  V30 4680 C 448.149 -0.132433 3.40643 0
M  V30 4681 H 449.342 1.48791 2.60387 0
M  V30 4682 H 446.895 0.807803 1.33807 0
M  V30 4683 H 447.63 -1.04123 3.0713 0
M  V30 4684 H 447.415 0.53605 3.88418 0
M  V30 4685 H 448.905 -0.416314 4.1552 0
M  V30 4686 N 449.342 -1.36122 0.79427 0
M  V30 4687 C 450.305 -2.28309 0.201889 0
M  V30 4688 C 451.305 -1.49041 -0.603603 0
M  V30 4689 O 452.495 -1.68964 -0.423888 0
M  V30 4690 C 449.627 -3.3321 -0.719978 0
M  V30 4691 H 450.82 -2.82208 1.01481 0
M  V30 4692 H 448.373 -1.45768 0.564037 0
M  V30 4693 H 449.108 -2.84475 -1.55706 0
M  V30 4694 H 448.893 -3.91835 -0.144266 0
M  V30 4695 H 450.383 -4.02044 -1.12916 0
M  V30 4696 N 450.82 -0.546701 -1.47814 0
M  V30 4697 C 452.045 -0.021268 -2.07389 0
M  V30 4698 C 452.47 1.25822 -1.39822 0
M  V30 4699 O 451.828 1.75111 -0.46968 0
M  V30 4700 C 451.876 0.168502 -3.60206 0
M  V30 4701 O 450.98 1.23347 -3.93522 0
M  V30 4702 H 450.321 -0.0466108 -0.662362 0
M  V30 4703 H 452.851 -0.759387 -1.89985 0
M  V30 4704 H 452.861 0.385982 -4.0617 0
M  V30 4705 H 451.536 -0.766075 -4.08784 0
M  V30 4706 H 450.113 0.997319 -3.59316 0
M  V30 4707 N 452.299 1.55045 -0.282633 0
M  V30 4708 C 453.529 2.03872 0.334635 0
M  V30 4709 C 453.937 1.16018 1.49454 0
M  V30 4710 O 453.28 0.174449 1.8287 0
M  V30 4711 C 453.342 3.48791 0.870905 0
M  V30 4712 C 453.006 4.56715 -0.161338 0
M  V30 4713 C 454.003 5.10513 -0.983466 0
M  V30 4714 C 451.688 5.01417 -0.297745 0
M  V30 4715 C 453.682 6.07538 -1.92811 0
M  V30 4716 C 451.369 5.98265 -1.24586 0
M  V30 4717 C 452.367 6.51208 -2.05954 0
M  V30 4718 O 452.055 7.46162 -2.99162 0
M  V30 4719 H 451.787 0.671324 0.0793742 0
M  V30 4720 H 454.341 2.01169 -0.41473 0
M  V30 4721 H 452.571 3.48758 1.67047 0
M  V30 4722 H 454.26 3.80916 1.40207 0
M  V30 4723 H 455.026 4.76785 -0.888856 0
M  V30 4724 H 450.905 4.59849 0.325604 0
M  V30 4725 H 454.449 6.48787 -2.56363 0
M  V30 4726 H 450.346 6.31412 -1.34126 0
M  V30 4727 H 451.114 7.63903 -2.93929 0
M  V30 4728 N 453.777 0.010035 1.57597 0
M  V30 4729 C 455.007 -0.682422 1.95004 0
M  V30 4730 C 455.415 -1.67278 0.884014 0
M  V30 4731 O 454.758 -1.83129 -0.144672 0
M  V30 4732 C 454.82 -1.46141 3.28456 0
M  V30 4733 C 454.484 -0.631523 4.52615 0
M  V30 4734 C 455.481 0.0850905 5.1983 0
M  V30 4735 C 453.166 -0.574539 4.99003 0
M  V30 4736 C 455.16 0.847566 6.3174 0
M  V30 4737 C 452.847 0.191655 6.10799 0
M  V30 4738 C 453.845 0.901432 6.77025 0
M  V30 4739 O 453.533 1.65511 7.86677 0
M  V30 4740 H 453.265 -0.194361 0.647456 0
M  V30 4741 H 455.819 0.060312 2.05311 0
M  V30 4742 H 454.049 -2.24885 3.14585 0
M  V30 4743 H 455.738 -2.04016 3.50902 0
M  V30 4744 H 456.504 0.0502812 4.84974 0
M  V30 4745 H 452.383 -1.11654 4.47274 0
M  V30 4746 H 455.927 1.4021 6.83364 0
M  V30 4747 H 451.824 0.228249 6.45096 0
M  V30 4748 H 452.592 1.57287 8.03245 0
M  V30 4749 N 455.255 -1.55392 -0.262866 0
M  V30 4750 C 456.503 -1.76127 -0.991147 0
M  V30 4751 C 456.824 -0.571083 -1.8645 0
M  V30 4752 O 456.094 0.413698 -1.91482 0
M  V30 4753 H 454.674 -0.649528 -0.368948 0
M  V30 4754 H 457.336 -1.9281 -0.284655 0
M  V30 4755 H 456.432 -2.6663 -1.62219 0
M  V30 4756 N 456.733 0.527833 -1.48498 0
M  V30 4757 C 457.958 1.313 -1.60546 0
M  V30 4758 C 458.383 1.86199 -0.26672 0
M  V30 4759 O 457.741 1.64513 0.761918 0
M  V30 4760 C 457.789 2.43818 -2.65678 0
M  V30 4761 O 456.893 3.46916 -2.22987 0
M  V30 4762 H 456.234 0.388784 -0.538277 0
M  V30 4763 H 458.764 0.634896 -1.945 0
M  V30 4764 H 458.774 2.89973 -2.87018 0
M  V30 4765 H 457.449 2.03222 -3.62869 0
M  V30 4766 H 456.026 3.06864 -2.11869 0
M  V30 4767 N 458.211 1.37122 0.776871 0
M  V30 4768 C 459.451 1.33441 1.54831 0
M  V30 4769 C 459.815 -0.0818963 1.91825 0
M  V30 4770 O 461.016 -0.24338 2.67696 0
M  V30 4771 C 459.287 2.24267 2.78279 0
M  V30 4772 S 460.846 2.38389 3.68397 0
M  V30 4773 H 457.664 0.473791 0.530135 0
M  V30 4774 H 460.266 1.7282 0.913968 0
M  V30 4775 H 458.97 3.261 2.49173 0
M  V30 4776 H 458.501 1.85953 3.46677 0
M  V30 4777 H 460.516 1.59068 4.70013 0
M  V30 4778 N 459.689 -1.00246 1.21608 0
M  V30 4779 C 460.636 -2.09073 0.977613 0
M  V30 4780 C 461.606 -1.65815 -0.097297 0
M  V30 4781 O 462.791 -1.90734 0.0503445 0
M  V30 4782 C 459.931 -3.40671 0.551133 0
M  V30 4783 C 459.044 -3.97326 1.69576 0
M  V30 4784 C 458.179 -5.17043 1.2182 0
M  V30 4785 C 457.218 -5.65813 2.335 0
M  V30 4786 N 456.355 -6.76778 1.86859 0
M  V30 4787 H 461.195 -2.28806 1.90924 0
M  V30 4788 H 458.732 -1.12186 0.951452 0
M  V30 4789 H 460.69 -4.16225 0.285097 0
M  V30 4790 H 459.32 -3.20967 -0.343489 0
M  V30 4791 H 458.372 -3.18734 2.07637 0
M  V30 4792 H 459.684 -4.29511 2.53617 0
M  V30 4793 H 458.838 -5.99852 0.908975 0
M  V30 4794 H 457.577 -4.86458 0.347869 0
M  V30 4795 H 456.582 -4.81599 2.65222 0
M  V30 4796 H 457.807 -5.98427 3.21033 0
M  V30 4797 H 455.753 -6.47994 1.02174 0
M  V30 4798 H 455.67 -7.08231 2.64471 0
M  V30 4799 H 456.938 -7.63116 1.58978 0
M  V30 4800 N 461.167 -1.02423 -1.1978 0
M  V30 4801 C 462.416 -0.713265 -1.88667 0
M  V30 4802 C 462.729 0.7609 -1.80193 0
M  V30 4803 O 463.935 1.18473 -2.44288 0
M  V30 4804 C 462.391 -1.22545 -3.38394 0
M  V30 4805 C 461.999 -2.72706 -3.55437 0
M  V30 4806 C 463.743 -0.990257 -4.12788 0
M  V30 4807 C 461.65 -3.17367 -4.99031 0
M  V30 4808 H 460.58 -0.263105 -0.706606 0
M  V30 4809 H 463.231 -1.23792 -1.35454 0
M  V30 4810 H 461.613 -0.628732 -3.90977 0
M  V30 4811 H 462.787 -3.37993 -3.13205 0
M  V30 4812 H 461.102 -2.94453 -2.94425 0
M  V30 4813 H 463.699 -1.29926 -5.18675 0
M  V30 4814 H 464.042 0.0730761 -4.16236 0
M  V30 4815 H 464.575 -1.55074 -3.66329 0
M  V30 4816 H 461.314 -4.23009 -5.00743 0
M  V30 4817 H 460.834 -2.56805 -5.42044 0
M  V30 4818 H 462.513 -3.10441 -5.67658 0
M  V30 4819 N 462.645 1.35699 -0.801477 0
M  V30 4820 C 463.892 1.98913 -0.379459 0
M  V30 4821 C 464.22 1.63592 1.05204 0
M  V30 4822 O 463.475 0.888563 1.74365 0
M  V30 4823 C 463.774 3.53828 -0.504041 0
M  V30 4824 C 463.44 4.09002 -1.8981 0
M  V30 4825 C 462.102 4.23783 -2.27951 0
M  V30 4826 C 464.454 4.38939 -2.81038 0
M  V30 4827 C 461.782 4.65816 -3.56696 0
M  V30 4828 C 464.134 4.82409 -4.09224 0
M  V30 4829 C 462.798 4.95395 -4.4737 0
M  V30 4830 H 462.068 0.727874 -0.138854 0
M  V30 4831 H 464.715 1.61994 -1.02128 0
M  V30 4832 H 463.02 3.91175 0.221242 0
M  V30 4833 H 464.717 4.00687 -0.158361 0
M  V30 4834 H 461.307 3.97946 -1.59176 0
M  V30 4835 H 465.491 4.27077 -2.52821 0
M  V30 4836 H 460.747 4.74059 -3.86106 0
M  V30 4837 H 464.921 5.04535 -4.80018 0
M  V30 4838 H 462.548 5.27724 -5.47185 0
M  V30 4839 N 464.123 0.554532 1.47522 0
M  V30 4840 C 465.539 0.214107 1.58157 0
M  V30 4841 C 465.739 -1.28331 1.55349 0
M  V30 4842 O 464.795 -2.06329 1.45549 0
M  V30 4843 C 466.108 0.838391 2.88776 0
M  V30 4844 C 467.656 0.809374 3.02354 0
M  V30 4845 C 468.131 1.41268 4.35669 0
M  V30 4846 N 469.622 1.37574 4.42298 0
M  V30 4847 C 470.357 1.8122 5.4401 0
M  V30 4848 N 469.853 2.3271 6.52547 0
M  V30 4849 N 471.646 1.72307 5.35039 0
M  V30 4850 H 463.797 1.52744 1.4759 0
M  V30 4851 H 466.06 0.636812 0.702264 0
M  V30 4852 H 465.766 1.89065 2.96559 0
M  V30 4853 H 465.64 0.329847 3.75755 0
M  V30 4854 H 468.027 -0.234187 2.94169 0
M  V30 4855 H 468.108 1.35565 2.16924 0
M  V30 4856 H 467.752 2.45529 4.4461 0
M  V30 4857 H 467.682 0.841871 5.19827 0
M  V30 4858 H 470.173 0.999081 3.64454 0
M  V30 4859 H 470.486 2.63944 7.26329 0
M  V30 4860 H 468.831 2.36719 6.53444 0
M  V30 4861 H 472.022 1.3186 4.49144 0
M  V30 4862 H 472.195 2.06641 6.14169 0
M  V30 4863 N 465.601 -1.54893 0.290851 0
M  V30 4864 C 467.017 -1.59476 -0.0628432 0
M  V30 4865 C 467.217 -1.30795 -1.5328 0
M  V30 4866 O 466.273 -1.07644 -2.28406 0
M  V30 4867 C 467.586 -2.98928 0.325962 0
M  V30 4868 C 469.134 -3.11799 0.273882 0
M  V30 4869 C 469.609 -4.53544 0.637359 0
M  V30 4870 N 471.1 -4.59433 0.589507 0
M  V30 4871 C 471.835 -5.67164 0.84335 0
M  V30 4872 N 471.331 -6.82975 1.16263 0
M  V30 4873 N 473.124 -5.56786 0.771091 0
M  V30 4874 H 465.275 -1.71798 1.24896 0
M  V30 4875 H 467.538 -0.801879 0.505663 0
M  V30 4876 H 467.244 -3.24805 1.34887 0
M  V30 4877 H 467.118 -3.75793 -0.325441 0
M  V30 4878 H 469.505 -2.85677 -0.739765 0
M  V30 4879 H 469.586 -2.37112 0.959766 0
M  V30 4880 H 469.23 -4.80394 1.64877 0
M  V30 4881 H 469.16 -5.26553 -0.0704866 0
M  V30 4882 H 471.651 -3.76245 0.353252 0
M  V30 4883 H 471.964 -7.61048 1.34257 0
M  V30 4884 H 470.309 -6.84552 1.20057 0
M  V30 4885 H 473.5 -4.65187 0.521383 0
M  V30 4886 H 473.673 -6.40664 0.972295 0
M  V30 4887 N 467.08 -0.0183926 -1.57589 0
M  V30 4888 C 468.491 0.521927 -1.79256 0
M  V30 4889 C 468.842 1.72885 -0.927636 0
M  V30 4890 O 467.967 2.15978 -0.135091 0
M  V30 4891 C 468.562 0.953632 -3.25102 0
M  V30 4892 C 467.121 1.43913 -3.47801 0
M  V30 4893 C 466.268 0.398837 -2.74417 0
M  V30 4894 H 469.219 -0.244485 -1.56805 0
M  V30 4895 H 469.24 1.81863 -3.34224 0
M  V30 4896 H 468.752 0.0750123 -3.88028 0
M  V30 4897 H 466.853 2.33804 -2.90115 0
M  V30 4898 H 466.966 1.45391 -4.56507 0
M  V30 4899 H 465.33 0.864572 -2.39577 0
M  V30 4900 H 466.113 -0.471132 -3.40052 0
M  V30 4901 N 468.558 1.5553 0.254621 0
M  V30 4902 C 469.783 1.81383 1.00573 0
M  V30 4903 C 470.208 0.594419 1.78461 0
M  V30 4904 O 469.566 -0.456403 1.75461 0
M  V30 4905 C 469.614 3.04892 1.92545 0
M  V30 4906 O 468.718 2.81266 3.01601 0
M  V30 4907 H 468.059 0.598969 0.286587 0
M  V30 4908 H 470.589 2.02703 0.277952 0
M  V30 4909 H 470.599 3.34119 2.34155 0
M  V30 4910 H 469.274 3.93287 1.3527 0
M  V30 4911 H 467.851 2.63185 2.64174 0
M  V30 4912 N 470.036 -0.519951 1.48776 0
M  V30 4913 C 470.966 -1.63253 1.66945 0
M  V30 4914 C 471.947 -1.62014 0.518224 0
M  V30 4915 O 473.132 -1.79053 0.751919 0
M  V30 4916 C 470.262 -3.0181 1.71836 0
M  V30 4917 C 469.216 -3.17911 2.8656 0
M  V30 4918 C 468.542 -4.5763 2.76548 0
M  V30 4919 C 469.842 -2.99729 4.27738 0
M  V30 4920 H 471.536 -1.48302 2.6009 0
M  V30 4921 H 469.082 -0.712026 1.25165 0
M  V30 4922 H 471.035 -3.79525 1.83135 0
M  V30 4923 H 469.759 -3.17806 0.752775 0
M  V30 4924 H 468.418 -2.42616 2.74833 0
M  V30 4925 H 468.066 -4.70476 1.77937 0
M  V30 4926 H 467.766 -4.69346 3.53536 0
M  V30 4927 H 469.29 -5.37431 2.89828 0
M  V30 4928 H 470.704 -3.67228 4.40246 0
M  V30 4929 H 469.101 -3.22932 5.05801 0
M  V30 4930 H 470.171 -1.96047 4.43502 0
M  V30 4931 N 471.514 -1.37532 -0.769588 0
M  V30 4932 C 472.925 -1.29382 -1.346 0
M  V30 4933 C 473.276 0.0576039 -1.96115 0
M  V30 4934 O 472.401 0.95947 -1.93967 0
M  V30 4935 C 472.996 -2.34298 -2.44724 0
M  V30 4936 C 471.555 -2.29776 -2.98128 0
M  V30 4937 C 470.702 -2.18013 -1.71364 0
M  V30 4938 H 473.653 -1.48123 -0.56968 0
M  V30 4939 H 473.674 -1.99089 -3.24259 0
M  V30 4940 H 473.186 -3.32645 -1.99922 0
M  V30 4941 H 471.287 -1.34959 -3.47299 0
M  V30 4942 H 471.4 -3.23276 -3.53595 0
M  V30 4943 H 469.764 -1.64595 -1.94372 0
M  V30 4944 H 470.547 -3.18278 -1.28662 0
M  V30 4945 N 472.992 0.995999 -1.22138 0
M  V30 4946 C 474.232 1.75032 -1.05561 0
M  V30 4947 C 474.596 1.87729 0.402698 0
M  V30 4948 O 475.797 2.59813 0.689234 0
M  V30 4949 C 474.068 3.11973 -1.74379 0
M  V30 4950 S 475.627 4.03182 -1.73175 0
M  V30 4951 H 472.445 0.602137 -0.37809 0
M  V30 4952 H 475.047 1.19107 -1.55028 0
M  V30 4953 H 473.751 3.00371 -2.79652 0
M  V30 4954 H 473.282 3.7297 -1.25128 0
M  V30 4955 H 475.297 4.90043 -0.77923 0
M  V30 4956 N 474.47 1.03057 1.19235 0
M  V30 4957 C 475.719 0.72326 1.88287 0
M  V30 4958 C 476.032 -0.751333 1.80594 0
M  V30 4959 O 477.238 -1.17176 2.44912 0
M  V30 4960 C 475.694 1.24338 3.3774 0
M  V30 4961 C 475.302 2.74587 3.53986 0
M  V30 4962 C 477.046 1.01213 4.12257 0
M  V30 4963 C 474.953 3.20009 4.97341 0
M  V30 4964 H 473.883 0.266848 0.705201 0
M  V30 4965 H 476.534 1.24509 1.34795 0
M  V30 4966 H 474.916 0.649457 3.90638 0
M  V30 4967 H 476.09 3.39649 3.11408 0
M  V30 4968 H 474.405 2.9601 2.9286 0
M  V30 4969 H 477.002 1.32675 5.17978 0
M  V30 4970 H 477.345 -0.051001 4.16269 0
M  V30 4971 H 477.878 1.57014 3.65501 0
M  V30 4972 H 474.617 4.25659 4.98493 0
M  V30 4973 H 474.137 2.59676 5.40674 0
M  V30 4974 H 475.816 3.13447 5.66003 0
M  V30 4975 N 475.948 -1.35272 0.808662 0
M  V30 4976 C 477.173 -2.03477 0.401475 0
M  V30 4977 C 477.598 -1.60537 -0.980279 0
M  V30 4978 O 476.956 -0.78304 -1.63518 0
M  V30 4979 C 477.004 -3.57181 0.495354 0
M  V30 4980 O 476.108 -4.09474 -0.490397 0
M  V30 4981 H 475.449 -0.642561 0.167366 0
M  V30 4982 H 477.979 -1.72824 1.09512 0
M  V30 4983 H 477.989 -4.06356 0.365912 0
M  V30 4984 H 476.664 -3.87784 1.5032 0
M  V30 4985 H 475.241 -3.71516 -0.321023 0
M  V30 4986 N 477.426 -0.562348 -1.47226 0
M  V30 4987 C 478.842 -0.222492 -1.58042 0
M  V30 4988 C 479.042 1.27505 -1.56028 0
M  V30 4989 O 478.098 2.05555 -1.46641 0
M  V30 4990 C 479.411 -0.853694 -2.88327 0
M  V30 4991 C 480.959 -0.825397 -3.01921 0
M  V30 4992 C 481.434 -1.43576 -4.34914 0
M  V30 4993 N 482.925 -1.39918 -4.41562 0
M  V30 4994 C 483.66 -1.84103 -5.43041 0
M  V30 4995 N 483.156 -2.36167 -6.51304 0
M  V30 4996 N 484.949 -1.75142 -5.34118 0
M  V30 4997 H 477.1 -1.53525 -1.46778 0
M  V30 4998 H 479.363 -0.640527 -0.698877 0
M  V30 4999 H 479.069 -1.90635 -2.95552 0
M  V30 5000 H 478.943 -0.34977 -3.75575 0
M  V30 5001 H 481.33 0.218583 -2.94289 0
M  V30 5002 H 481.411 -1.36713 -2.16202 0
M  V30 5003 H 481.055 -2.47884 -4.43301 0
M  V30 5004 H 480.985 -0.869427 -5.19373 0
M  V30 5005 H 483.476 -1.0184 -3.63919 0
M  V30 5006 H 483.789 -2.67793 -7.24919 0
M  V30 5007 H 482.134 -2.40181 -6.52179 0
M  V30 5008 H 485.325 -1.34241 -4.48439 0
M  V30 5009 H 485.498 -2.09895 -6.13065 0
M  V30 5010 N 478.904 1.54736 -0.299062 0
M  V30 5011 C 479.814 2.27127 0.587413 0
M  V30 5012 C 480.83 1.30575 1.15005 0
M  V30 5013 O 482.006 1.63554 1.17525 0
M  V30 5014 C 479.071 2.99645 1.74395 0
M  V30 5015 C 478.132 4.11731 1.21559 0
M  V30 5016 C 477.365 4.80781 2.317 0
M  V30 5017 O 477.588 4.4918 3.51558 0
M  V30 5018 O 476.522 5.68226 1.98501 0
M  V30 5019 H 480.348 3.037 0.000250109 0
M  V30 5020 H 477.933 1.49256 -0.0655919 0
M  V30 5021 H 479.815 3.45138 2.4178 0
M  V30 5022 H 478.49 2.25969 2.31775 0
M  V30 5023 H 477.397 3.70641 0.507514 0
M  V30 5024 H 478.73 4.87379 0.687233 0
M  V30 5025 N 480.382 0.0267497 1.57577 0
M  V30 5026 C 481.314 -0.984594 2.06974 0
M  V30 5027 C 482.327 -1.29032 0.992705 0
M  V30 5028 O 483.516 -1.25539 1.26895 0
M  V30 5029 C 480.616 -2.31262 2.47732 0
M  V30 5030 C 479.789 -2.1924 3.78487 0
M  V30 5031 C 478.848 -3.34956 4.05821 0
M  V30 5032 O 477.874 -3.11948 4.76106 0
M  V30 5033 N 479.076 -4.58672 3.55809 0
M  V30 5034 H 481.841 -0.563143 2.94362 0
M  V30 5035 H 479.402 -0.160061 1.61107 0
M  V30 5036 H 481.394 -3.07496 2.63112 0
M  V30 5037 H 479.964 -2.65056 1.65723 0
M  V30 5038 H 479.184 -1.27747 3.72927 0
M  V30 5039 H 480.472 -2.08409 4.64158 0
M  V30 5040 H 479.87 -4.8026 2.98942 0
M  V30 5041 H 478.427 -5.32083 3.76472 0
M  V30 5042 N 481.861 -1.55662 -0.24637 0
M  V30 5043 C 482.794 -1.85332 -1.33143 0
M  V30 5044 C 483.772 -0.708464 -1.46354 0
M  V30 5045 O 484.956 -0.954274 -1.6256 0
M  V30 5046 C 482.083 -2.0385 -2.70487 0
M  V30 5047 C 481.129 -3.26488 -2.74423 0
M  V30 5048 S 481.962 -4.83124 -2.30979 0
M  V30 5049 C 483.118 -5.04647 -3.70246 0
M  V30 5050 H 483.351 -2.77077 -1.07777 0
M  V30 5051 H 480.884 -1.47776 -0.44738 0
M  V30 5052 H 482.842 -2.15202 -3.49569 0
M  V30 5053 H 481.503 -1.12947 -2.9309 0
M  V30 5054 H 480.696 -3.36413 -3.7529 0
M  V30 5055 H 480.298 -3.13864 -2.03385 0
M  V30 5056 H 482.59 -4.92023 -4.65746 0
M  V30 5057 H 483.533 -6.06625 -3.65255 0
M  V30 5058 H 483.941 -4.32491 -3.62784 0
M  V30 5059 N 483.339 0.512053 -1.4905 0
M  V30 5060 C 484.588 1.26343 -1.57227 0
M  V30 5061 C 484.901 1.93876 -0.259155 0
M  V30 5062 O 486.107 2.70612 -0.219358 0
M  V30 5063 C 484.563 2.29343 -2.77362 0
M  V30 5064 C 484.171 1.67799 -4.15388 0
M  V30 5065 C 485.915 3.05378 -2.94864 0
M  V30 5066 C 483.822 2.68845 -5.2676 0
M  V30 5067 H 482.752 0.475231 -0.585382 0
M  V30 5068 H 485.403 0.53862 -1.75417 0
M  V30 5069 H 483.785 3.04938 -2.52643 0
M  V30 5070 H 484.959 0.982715 -4.50199 0
M  V30 5071 H 483.274 1.04194 -4.03153 0
M  V30 5072 H 485.871 3.80921 -3.75238 0
M  V30 5073 H 486.214 3.62327 -2.05 0
M  V30 5074 H 486.747 2.36898 -3.19569 0
M  V30 5075 H 483.486 2.16692 -6.18647 0
M  V30 5076 H 483.006 3.36647 -4.96416 0
M  V30 5077 H 484.685 3.31487 -5.5563 0
M  V30 5078 N 484.817 1.37938 0.762283 0
M  V30 5079 C 485.747 1.37176 1.88958 0
M  V30 5080 C 486.728 0.238945 1.68413 0
M  V30 5081 O 487.913 0.440726 1.89133 0
M  V30 5082 C 485.043 1.18742 3.2637 0
M  V30 5083 C 483.997 2.29136 3.61498 0
M  V30 5084 C 483.323 1.95816 4.97554 0
M  V30 5085 C 484.623 3.71363 3.6727 0
M  V30 5086 H 486.317 2.31509 1.89853 0
M  V30 5087 H 483.863 1.11438 0.912005 0
M  V30 5088 H 485.816 1.16837 4.04879 0
M  V30 5089 H 484.54 0.208683 3.25933 0
M  V30 5090 H 483.199 2.30213 2.85303 0
M  V30 5091 H 482.847 0.964475 4.93667 0
M  V30 5092 H 482.547 2.69745 5.22026 0
M  V30 5093 H 484.071 1.95513 5.78452 0
M  V30 5094 H 485.485 3.72364 4.35911 0
M  V30 5095 H 483.882 4.44425 4.03245 0
M  V30 5096 H 484.952 4.04305 2.67704 0
M  V30 5097 N 486.295 -0.989507 1.22664 0
M  V30 5098 C 487.541 -1.73298 1.06487 0
M  V30 5099 C 487.896 -1.88292 -0.395438 0
M  V30 5100 O 487.189 -1.41748 -1.28911 0
M  V30 5101 C 487.383 -3.13649 1.71345 0
M  V30 5102 C 487.212 -3.12341 3.23532 0
M  V30 5103 C 485.982 -3.18044 3.92653 0
M  V30 5104 C 488.18 -2.96226 4.20422 0
M  V30 5105 N 486.162 -3.06526 5.31898 0
M  V30 5106 C 487.533 -2.92773 5.4652 0
M  V30 5107 C 489.588 -2.80642 4.11271 0
M  V30 5108 C 488.291 -2.75332 6.64519 0
M  V30 5109 C 490.317 -2.64563 5.28924 0
M  V30 5110 C 489.679 -2.618 6.53942 0
M  V30 5111 H 485.778 -0.643643 0.444126 0
M  V30 5112 H 488.362 -1.17489 1.55256 0
M  V30 5113 H 486.533 -3.67694 1.25122 0
M  V30 5114 H 488.265 -3.76577 1.48229 0
M  V30 5115 H 485.02 -3.25861 3.43673 0
M  V30 5116 H 485.444 -3.04067 6.04874 0
M  V30 5117 H 490.086 -2.81574 3.15398 0
M  V30 5118 H 487.804 -2.73145 7.60538 0
M  V30 5119 H 491.39 -2.53482 5.23677 0
M  V30 5120 H 490.27 -2.49511 7.43447 0
M  V30 5121 N 487.773 -1.03688 -1.18687 0
M  V30 5122 C 489.05 -0.652397 -1.84399 0
M  V30 5123 C 489.43 0.868386 -1.92412 0
M  V30 5124 O 488.778 1.76832 -1.44716 0
M  V30 5125 C 488.988 -1.3238 -3.22919 0
M  V30 5126 C 490.336 -1.45216 -3.98996 0
M  V30 5127 O 491.36 -1.2816 -3.32345 0
M  V30 5128 O 490.219 -1.72975 -5.18403 0
M  V30 5129 H 487.313 -0.227793 -0.795009 0
M  V30 5130 H 489.859 -1.13553 -1.2611 0
M  V30 5131 H 488.631 -2.36202 -3.11968 0
M  V30 5132 H 488.254 -0.829039 -3.88861 0
M  V30 5133 N 489.251 1.34841 -0.815825 0
M  V30 5134 C 490.497 1.99219 -0.410288 0
M  V30 5135 C 490.852 1.63532 1.01366 0
M  V30 5136 O 490.145 0.893093 1.69512 0
M  V30 5137 C 490.339 3.53273 -0.541541 0
M  V30 5138 C 490.168 4.03927 -1.9767 0
M  V30 5139 C 488.938 4.32852 -2.60706 0
M  V30 5140 C 491.136 4.21808 -2.9425 0
M  V30 5141 N 489.118 4.69494 -3.95536 0
M  V30 5142 C 490.489 4.6155 -4.13971 0
M  V30 5143 C 492.544 4.04038 -2.9096 0
M  V30 5144 C 491.247 4.85381 -5.30847 0
M  V30 5145 C 493.273 4.29031 -4.07046 0
M  V30 5146 C 492.635 4.69054 -5.25517 0
M  V30 5147 H 488.734 0.756494 -0.198094 0
M  V30 5148 H 491.318 1.63379 -1.05902 0
M  V30 5149 H 489.489 3.88323 0.0772544 0
M  V30 5150 H 491.221 4.04551 -0.109694 0
M  V30 5151 H 487.976 4.23503 -2.11995 0
M  V30 5152 H 488.4 4.92061 -4.64979 0
M  V30 5153 H 493.042 3.7223 -2.00512 0
M  V30 5154 H 490.76 5.16059 -6.21859 0
M  V30 5155 H 494.346 4.16826 -4.05891 0
M  V30 5156 H 493.226 4.88014 -6.1385 0
M  V30 5157 N 490.729 0.570148 1.46925 0
M  V30 5158 C 492.006 -0.0153259 1.95594 0
M  V30 5159 C 492.386 -1.47232 1.51281 0
M  V30 5160 O 491.734 -2.15574 0.757624 0
M  V30 5161 C 491.944 0.143624 3.48704 0
M  V30 5162 C 493.292 0.00494484 4.246 0
M  V30 5163 O 494.316 0.0718214 3.56128 0
M  V30 5164 O 493.175 -0.141175 5.46318 0
M  V30 5165 H 490.269 -0.0568819 0.825041 0
M  V30 5166 H 492.815 0.637583 1.57267 0
M  V30 5167 H 491.587 1.15699 3.73804 0
M  V30 5168 H 491.21 -0.5463 3.93829 0
M  V30 5169 N 492.207 -1.54576 0.307264 0
M  V30 5170 C 493.137 -2.26708 -0.55907 0
M  V30 5171 C 494.118 -1.26893 -1.1328 0
M  V30 5172 O 495.303 -1.55677 -1.16097 0
M  V30 5173 C 492.433 -3.01259 -1.72801 0
M  V30 5174 C 491.387 -4.08275 -1.28435 0
M  V30 5175 C 490.713 -4.70575 -2.53895 0
M  V30 5176 C 492.013 -5.2068 -0.411038 0
M  V30 5177 H 493.707 -2.9937 0.042576 0
M  V30 5178 H 491.253 -1.43983 0.0219173 0
M  V30 5179 H 493.206 -3.50444 -2.34023 0
M  V30 5180 H 491.93 -2.26187 -2.356 0
M  V30 5181 H 490.589 -3.59949 -0.695161 0
M  V30 5182 H 490.237 -3.92136 -3.15021 0
M  V30 5183 H 489.937 -5.42854 -2.24908 0
M  V30 5184 H 491.461 -5.22527 -3.15908 0
M  V30 5185 H 492.875 -5.65721 -0.929097 0
M  V30 5186 H 491.272 -5.99716 -0.214664 0
M  V30 5187 H 492.342 -4.81629 0.562287 0
M  V30 5188 N 493.685 -0.035106 -1.57561 0
M  V30 5189 C 494.632 0.94474 -2.10578 0
M  V30 5190 C 495.602 1.3192 -1.00927 0
M  V30 5191 O 496.787 1.41147 -1.28382 0
M  V30 5192 C 493.927 2.21982 -2.64231 0
M  V30 5193 C 493.04 1.90128 -3.87911 0
M  V30 5194 C 492.175 3.11975 -4.29936 0
M  V30 5195 C 491.214 2.75968 -5.46359 0
M  V30 5196 N 490.351 3.90459 -5.83512 0
M  V30 5197 H 495.191 0.485717 -2.94015 0
M  V30 5198 H 492.728 0.228143 -1.4532 0
M  V30 5199 H 494.686 2.96572 -2.9343 0
M  V30 5200 H 493.316 2.6549 -1.83616 0
M  V30 5201 H 492.368 1.05755 -3.65404 0
M  V30 5202 H 493.68 1.59613 -4.72573 0
M  V30 5203 H 492.834 3.9488 -4.60603 0
M  V30 5204 H 491.573 3.45657 -3.44053 0
M  V30 5205 H 490.578 1.91478 -5.1538 0
M  V30 5206 H 491.803 2.43497 -6.33945 0
M  V30 5207 H 489.749 4.23971 -5.00584 0
M  V30 5208 H 489.666 3.63588 -6.62827 0
M  V30 5209 H 490.934 4.7405 -6.18787 0
M  V30 5210 N 495.163 1.55791 0.238111 0
M  V30 5211 C 496.095 1.87513 1.31802 0
M  V30 5212 C 497.108 0.762053 1.43863 0
M  V30 5213 O 498.297 1.04024 1.45056 0
M  V30 5214 C 495.397 2.05402 2.69561 0
M  V30 5215 C 494.57 3.3632 2.79656 0
M  V30 5216 C 493.629 3.43844 3.98319 0
M  V30 5217 O 492.655 4.16994 3.87433 0
M  V30 5218 N 493.857 2.73777 5.11885 0
M  V30 5219 H 496.622 2.80734 1.04922 0
M  V30 5220 H 494.183 1.56135 0.428196 0
M  V30 5221 H 496.175 2.07769 3.47296 0
M  V30 5222 H 494.745 1.18884 2.89111 0
M  V30 5223 H 493.965 3.46195 1.88528 0
M  V30 5224 H 495.253 4.22594 2.83358 0
M  V30 5225 H 494.651 2.14094 5.23622 0
M  V30 5226 H 493.208 2.81825 5.87723 0
M  V30 5227 N 496.642 -0.504142 1.49319 0
M  V30 5228 C 497.888 -1.25767 1.59857 0
M  V30 5229 C 498.243 -1.90348 0.280262 0
M  V30 5230 O 497.536 -1.77588 -0.719241 0
M  V30 5231 C 497.73 -2.35021 2.69258 0
M  V30 5232 C 497.559 -1.81154 4.11598 0
M  V30 5233 C 496.329 -1.62596 4.78425 0
M  V30 5234 C 498.527 -1.3252 4.96934 0
M  V30 5235 N 496.509 -1.03625 6.05091 0
M  V30 5236 C 497.88 -0.856633 6.14054 0
M  V30 5237 C 499.935 -1.21063 4.82958 0
M  V30 5238 C 498.638 -0.284841 7.18736 0
M  V30 5239 C 500.664 -0.652815 5.87786 0
M  V30 5240 C 500.026 -0.194461 7.04132 0
M  V30 5241 H 496.125 -0.450293 0.639343 0
M  V30 5242 H 498.709 -0.565344 1.86311 0
M  V30 5243 H 496.88 -3.01719 2.44581 0
M  V30 5244 H 498.612 -3.02061 2.69335 0
M  V30 5245 H 495.367 -1.86873 4.35173 0
M  V30 5246 H 495.791 -0.76076 6.72712 0
M  V30 5247 H 500.433 -1.551 3.93324 0
M  V30 5248 H 498.151 0.0677979 8.08072 0
M  V30 5249 H 501.737 -0.566994 5.79031 0
M  V30 5250 H 500.617 0.230442 7.83861 0
M  V30 5251 N 498.12 -1.38341 -0.754957 0
M  V30 5252 C 499.35 -1.37504 -1.54195 0
M  V30 5253 C 499.758 0.0373787 -1.89163 0
M  V30 5254 O 499.101 1.01402 -1.53178 0
M  V30 5255 C 499.163 -2.16488 -2.87008 0
M  V30 5256 C 498.827 -3.65311 -2.74585 0
M  V30 5257 C 499.824 -4.58834 -2.44474 0
M  V30 5258 C 497.509 -4.08649 -2.9208 0
M  V30 5259 C 499.503 -5.93675 -2.32011 0
M  V30 5260 C 497.19 -5.43571 -2.79237 0
M  V30 5261 C 498.188 -6.35898 -2.49245 0
M  V30 5262 O 497.876 -7.68338 -2.36458 0
M  V30 5263 H 497.608 -0.472159 -0.483779 0
M  V30 5264 H 500.162 -1.82515 -0.94221 0
M  V30 5265 H 498.392 -1.66194 -3.49166 0
M  V30 5266 H 500.081 -2.08076 -3.4851 0
M  V30 5267 H 500.847 -4.26657 -2.30627 0
M  V30 5268 H 496.726 -3.37134 -3.14422 0
M  V30 5269 H 500.27 -6.65706 -2.08522 0
M  V30 5270 H 496.167 -5.75345 -2.92657 0
M  V30 5271 H 496.935 -7.78845 -2.5168 0
M  V30 5272 N 499.598 0.982988 -1.23187 0
M  V30 5273 C 500.545 2.07491 -1.01075 0
M  V30 5274 C 501.515 1.65949 0.070905 0
M  V30 5275 O 502.7 1.90629 -0.0806822 0
M  V30 5276 C 499.84 3.39751 -0.605261 0
M  V30 5277 C 498.953 3.94578 -1.75876 0
M  V30 5278 C 498.088 5.15039 -1.3003 0
M  V30 5279 C 497.127 5.62027 -2.42472 0
M  V30 5280 N 496.264 6.73719 -1.97602 0
M  V30 5281 H 501.104 2.25739 -1.9454 0
M  V30 5282 H 498.641 1.10659 -0.969179 0
M  V30 5283 H 500.599 4.15719 -0.351279 0
M  V30 5284 H 499.229 3.21473 0.292382 0
M  V30 5285 H 498.281 3.1539 -2.12681 0
M  V30 5286 H 499.593 4.25422 -2.60418 0
M  V30 5287 H 498.747 5.9833 -1.00429 0
M  V30 5288 H 497.486 4.85843 -0.425216 0
M  V30 5289 H 496.491 4.77318 -2.7285 0
M  V30 5290 H 497.716 5.93244 -3.30512 0
M  V30 5291 H 495.662 6.46287 -1.1247 0
M  V30 5292 H 495.579 7.03934 -2.75705 0
M  V30 5293 H 496.847 7.6049 -1.71098 0
M  V30 5294 N 501.076 1.04316 1.18135 0
M  V30 5295 C 502.487 0.775505 1.69832 0
M  V30 5296 C 502.838 -0.703348 1.8316 0
M  V30 5297 O 501.963 -1.54729 1.51287 0
M  V30 5298 C 502.558 1.40112 3.0847 0
M  V30 5299 C 501.117 1.18172 3.57368 0
M  V30 5300 C 500.264 1.49022 2.33854 0
M  V30 5301 H 503.215 1.20925 1.02775 0
M  V30 5302 H 503.236 0.805672 3.71873 0
M  V30 5303 H 502.748 2.47744 2.98738 0
M  V30 5304 H 500.849 0.124258 3.72393 0
M  V30 5305 H 500.962 1.8805 4.40652 0
M  V30 5306 H 499.326 0.909995 2.37889 0
M  V30 5307 H 500.109 2.57768 2.26738 0
M  V30 5308 N 502.554 -1.34406 0.822964 0
M  V30 5309 C 503.504 -2.26963 0.217208 0
M  V30 5310 C 504.488 -1.48536 -0.618545 0
M  V30 5311 O 505.68 -1.7056 -0.473118 0
M  V30 5312 C 502.809 -3.37655 -0.619973 0
M  V30 5313 C 501.895 -4.23495 0.226411 0
M  V30 5314 N 502.286 -4.88876 1.29744 0
M  V30 5315 C 500.584 -4.45999 0.0107554 0
M  V30 5316 C 501.285 -5.52642 1.81553 0
M  V30 5317 N 500.261 -5.31949 1.11942 0
M  V30 5318 H 504.063 -2.75017 1.03647 0
M  V30 5319 H 501.577 -1.48126 0.665777 0
M  V30 5320 H 503.574 -4.02932 -1.07011 0
M  V30 5321 H 502.234 -2.91151 -1.43739 0
M  V30 5322 H 503.245 -4.89886 1.68024 0
M  V30 5323 H 499.922 -4.10253 -0.774495 0
M  V30 5324 H 501.312 -6.14755 2.71156 0
M  V30 5325 N 504.032 -0.577932 -1.46621 0
M  V30 5326 C 505.262 -0.0670668 -2.06491 0
M  V30 5327 C 505.67 1.24119 -1.42798 0
M  V30 5328 O 505.013 1.76016 -0.525759 0
M  V30 5329 C 505.075 0.177995 -3.59059 0
M  V30 5330 C 504.739 -1.04394 -4.44917 0
M  V30 5331 C 505.736 -1.95479 -4.81751 0
M  V30 5332 C 503.421 -1.26444 -4.86125 0
M  V30 5333 C 505.415 -3.06965 -5.58615 0
M  V30 5334 C 503.102 -2.38237 -5.62749 0
M  V30 5335 C 504.1 -3.28327 -5.98908 0
M  V30 5336 O 503.788 -4.38179 -6.73984 0
M  V30 5337 H 503.52 -0.0523159 -0.673973 0
M  V30 5338 H 506.074 -0.796966 -1.89308 0
M  V30 5339 H 504.304 0.962451 -3.74531 0
M  V30 5340 H 505.993 0.636782 -4.00874 0
M  V30 5341 H 506.759 -1.79657 -4.50498 0
M  V30 5342 H 502.638 -0.572316 -4.57434 0
M  V30 5343 H 506.182 -3.77309 -5.86757 0
M  V30 5344 H 502.079 -2.54023 -5.93416 0
M  V30 5345 H 502.847 -4.36486 -6.92403 0
M  V30 5346 N 505.51 1.54411 -0.315457 0
M  V30 5347 C 506.442 2.21527 0.588067 0
M  V30 5348 C 507.455 1.21263 1.08624 0
M  V30 5349 O 508.644 1.47777 1.00121 0
M  V30 5350 C 505.744 2.85963 1.81875 0
M  V30 5351 C 504.917 4.12291 1.46063 0
M  V30 5352 C 503.976 4.60396 2.54799 0
M  V30 5353 O 503.002 5.25265 2.19283 0
M  V30 5354 N 504.204 4.33935 3.85591 0
M  V30 5355 H 506.969 2.99697 0.013414 0
M  V30 5356 H 504.53 1.61308 -0.138295 0
M  V30 5357 H 506.522 3.15071 2.53993 0
M  V30 5358 H 505.092 2.11548 2.30144 0
M  V30 5359 H 504.312 3.90036 0.571445 0
M  V30 5360 H 505.6 4.9452 1.19695 0
M  V30 5361 H 504.998 3.81996 4.17248 0
M  V30 5362 H 503.555 4.67718 4.53964 0
M  V30 5363 N 506.988 0.0434614 1.5754 0
M  V30 5364 C 507.936 -0.951465 2.1225 0
M  V30 5365 C 508.93 -1.3274 1.05245 0
M  V30 5366 O 510.136 -1.30795 1.23663 0
M  V30 5367 H 506.511 -0.324667 0.678303 0
M  V30 5368 H 508.482 -0.464855 2.94757 0
M  V30 5369 C 507.231 -2.21972 2.67626 0
M  V30 5370 H 506.554 -1.93923 3.4962 0
M  V30 5371 H 507.994 -2.89765 3.09536 0
M  V30 5372 C 506.453 -2.95919 1.61038 0
M  V30 5373 O 506.983 -3.8857 1.01862 0
M  V30 5374 N 505.189 -2.58511 1.32741 0
M  V30 5375 H 504.736 -1.83244 1.81051 0
M  V30 5376 H 504.694 -3.08296 0.616531 0
M  V30 5377 N 508.466 -1.55915 -0.229846 0
M  V30 5378 C 509.691 -1.8296 -0.976743 0
M  V30 5379 C 510.116 -0.622735 -1.77493 0
M  V30 5380 O 509.474 0.428431 -1.76165 0
M  V30 5381 C 509.522 -3.07916 -1.8767 0
M  V30 5382 O 508.626 -2.86028 -2.97088 0
M  V30 5383 H 507.967 -0.603453 -0.277021 0
M  V30 5384 H 510.497 -2.0312 -0.245669 0
M  V30 5385 H 510.507 -3.37802 -2.2881 0
M  V30 5386 H 509.182 -3.95389 -1.28996 0
M  V30 5387 H 507.759 -2.67355 -2.59954 0
M  V30 5388 N 509.944 0.496216 -1.49584 0
M  V30 5389 C 511.192 1.24756 -1.58998 0
M  V30 5390 C 511.513 1.92968 -0.280775 0
M  V30 5391 O 510.783 1.82959 0.700198 0
M  V30 5392 H 509.363 0.463471 -0.585836 0
M  V30 5393 H 512.025 0.574678 -1.86235 0
M  V30 5394 H 511.121 2.00895 -2.38847 0
M  V30 5395 N 511.423 1.38739 0.74761 0
M  V30 5396 C 512.671 1.35007 1.50391 0
M  V30 5397 C 512.992 -0.0574274 1.94915 0
M  V30 5398 O 512.262 -1.00628 1.6808 0
M  V30 5399 H 510.842 0.496784 0.557866 0
M  V30 5400 H 513.504 1.73479 0.888319 0
M  V30 5401 H 512.6 2.00474 2.392 0
M  V30 5402 N 512.901 -0.976442 1.23707 0
M  V30 5403 C 514.149 -1.71487 1.06942 0
M  V30 5404 C 514.47 -1.9098 -0.393897 0
M  V30 5405 O 513.74 -1.48128 -1.28198 0
M  V30 5406 H 512.32 -0.635425 0.392739 0
M  V30 5407 H 514.982 -1.17515 1.55487 0
M  V30 5408 H 514.078 -2.70286 1.56051 0
M  V30 5409 N 514.379 -1.04941 -1.1758 0
M  V30 5410 C 515.327 -0.64204 -2.23563 0
M  V30 5411 C 516.321 0.335453 -1.66045 0
M  V30 5412 O 517.527 0.20179 -1.78865 0
M  V30 5413 H 513.902 -0.18944 -0.727748 0
M  V30 5414 H 515.873 -1.54609 -2.55223 0
M  V30 5415 C 514.622 -0.0301051 -3.47687 0
M  V30 5416 H 513.945 -0.773339 -3.92249 0
M  V30 5417 H 515.385 0.217592 -4.23441 0
M  V30 5418 C 513.844 1.2225 -3.13937 0
M  V30 5419 O 514.374 2.3122 -3.28482 0
M  V30 5420 N 512.58 1.11917 -2.68185 0
M  V30 5421 H 512.127 0.232403 -2.5655 0
M  V30 5422 H 512.085 1.95814 -2.45976 0
M  V30 5423 N 515.857 1.33968 -0.830081 0
M  V30 5424 C 517.105 1.97672 -0.420734 0
M  V30 5425 C 517.426 1.66111 1.02138 0
M  V30 5426 O 516.696 0.955503 1.71017 0
M  V30 5427 H 515.276 0.73125 -0.152587 0
M  V30 5428 H 517.938 1.63483 -1.0611 0
M  V30 5429 H 517.034 3.07294 -0.545588 0
M  V30 5430 N 517.335 0.585699 1.46312 0
M  V30 5431 C 518.581 0.0725284 2.0267 0
M  V30 5432 C 518.914 -1.28523 1.45586 0
M  V30 5433 O 518.189 -1.84283 0.622101 0
M  V30 5434 C 518.472 0.0099788 3.60099 0
M  V30 5435 C 518.325 1.39685 4.27561 0
M  V30 5436 C 519.644 -0.689117 4.34671 0
M  V30 5437 H 516.763 0.0278307 0.736474 0
M  V30 5438 H 519.405 0.753472 1.74421 0
M  V30 5439 H 517.555 -0.56992 3.84297 0
M  V30 5440 H 519.227 2.02215 4.14617 0
M  V30 5441 H 517.47 1.96374 3.86807 0
M  V30 5442 H 518.141 1.30553 5.36339 0
M  V30 5443 H 520.617 -0.196446 4.15636 0
M  V30 5444 H 519.493 -0.701921 5.44393 0
M  V30 5445 H 519.754 -1.75101 4.05946 0
M  V30 5446 N 518.813 -1.54241 0.323641 0
M  V30 5447 C 520.09 -1.92741 -0.333181 0
M  V30 5448 C 520.47 -1.25326 -1.69872 0
M  V30 5449 O 519.818 -0.396991 -2.25025 0
M  V30 5450 C 520.028 -3.46399 -0.425322 0
M  V30 5451 C 521.376 -4.19029 -0.68557 0
M  V30 5452 O 522.4 -3.52555 -0.50824 0
M  V30 5453 O 521.259 -5.36751 -1.02767 0
M  V30 5454 H 518.353 -0.804811 -0.190286 0
M  V30 5455 H 520.899 -1.65542 0.373361 0
M  V30 5456 H 519.671 -3.87643 0.533737 0
M  V30 5457 H 519.294 -3.79704 -1.17944 0
M  V30 5458 N 520.291 -0.0518155 -1.57515 0
M  V30 5459 C 521.221 0.920283 -2.146 0
M  V30 5460 C 522.202 1.32406 -1.06783 0
M  V30 5461 O 523.387 1.39866 -1.34726 0
M  V30 5462 C 520.517 2.1949 -2.6915 0
M  V30 5463 C 519.471 1.93116 -3.81956 0
M  V30 5464 C 518.797 3.27037 -4.23026 0
M  V30 5465 C 520.097 1.25225 -5.07066 0
M  V30 5466 H 521.791 0.444801 -2.96077 0
M  V30 5467 H 519.337 0.212508 -1.42423 0
M  V30 5468 H 521.29 2.87894 -3.07725 0
M  V30 5469 H 520.014 2.69244 -1.84865 0
M  V30 5470 H 518.673 1.27123 -3.43854 0
M  V30 5471 H 518.321 3.74595 -3.3569 0
M  V30 5472 H 518.021 3.10189 -4.99056 0
M  V30 5473 H 519.545 3.96673 -4.64202 0
M  V30 5474 H 520.959 1.83666 -5.43083 0
M  V30 5475 H 519.356 1.18702 -5.88243 0
M  V30 5476 H 520.426 0.228382 -4.84362 0
M  V30 5477 N 521.769 1.56035 0.221574 0
M  V30 5478 C 522.994 1.83476 0.967026 0
M  V30 5479 C 523.419 0.632139 1.7716 0
M  V30 5480 O 522.777 -0.419082 1.7639 0
M  V30 5481 C 522.825 3.08907 1.86034 0
M  V30 5482 O 521.929 2.876 2.95567 0
M  V30 5483 H 521.27 0.604913 0.273817 0
M  V30 5484 H 523.8 2.03247 0.234893 0
M  V30 5485 H 523.81 3.3901 2.27016 0
M  V30 5486 H 522.485 3.96068 1.26898 0
M  V30 5487 H 521.062 2.6873 2.58532 0
M  V30 5488 N 523.247 -0.488276 1.49845 0
M  V30 5489 C 524.493 -1.24341 1.6021 0
M  V30 5490 C 524.826 -1.91967 0.293651 0
M  V30 5491 O 524.101 -1.81323 -0.703718 0
M  V30 5492 C 524.384 -2.3005 2.77036 0
M  V30 5493 C 524.237 -1.66842 4.17713 0
M  V30 5494 C 525.556 -3.31509 2.89464 0
M  V30 5495 H 522.675 -0.450704 0.583125 0
M  V30 5496 H 525.317 -0.539673 1.82174 0
M  V30 5497 H 523.467 -2.90071 2.58439 0
M  V30 5498 H 525.139 -1.1055 4.47858 0
M  V30 5499 H 523.382 -0.972079 4.22768 0
M  V30 5500 H 524.053 -2.43576 4.95353 0
M  V30 5501 H 526.529 -2.81493 3.06433 0
M  V30 5502 H 525.405 -4.02822 3.72861 0
M  V30 5503 H 525.666 -3.94603 1.99351 0
M  V30 5504 N 524.725 -1.39134 -0.740242 0
M  V30 5505 C 525.655 -1.40165 -1.86751 0
M  V30 5506 C 526.636 -0.265708 -1.68012 0
M  V30 5507 O 527.821 -0.47076 -1.88408 0
M  V30 5508 C 524.951 -1.2392 -3.2444 0
M  V30 5509 C 523.905 -2.34858 -3.57807 0
M  V30 5510 C 523.231 -2.03707 -4.94376 0
M  V30 5511 C 524.531 -3.77159 -3.61315 0
M  V30 5512 H 526.225 -2.345 -1.86145 0
M  V30 5513 H 523.771 -1.12875 -0.89416 0
M  V30 5514 H 525.724 -1.23263 -4.02969 0
M  V30 5515 H 524.448 -0.26051 -3.25559 0
M  V30 5516 H 523.107 -2.34723 -2.81604 0
M  V30 5517 H 522.755 -1.04289 -4.9207 0
M  V30 5518 H 522.455 -2.78016 -5.17669 0
M  V30 5519 H 523.979 -2.04691 -5.75268 0
M  V30 5520 H 525.393 -3.79252 -4.29931 0
M  V30 5521 H 523.79 -4.50784 -3.96124 0
M  V30 5522 H 524.86 -4.08513 -2.61238 0
M  V30 5523 N 526.204 0.969867 -1.24223 0
M  V30 5524 C 527.152 2.08535 -1.03034 0
M  V30 5525 C 528.146 1.69366 0.0340379 0
M  V30 5526 O 529.352 1.79597 -0.12034 0
M  V30 5527 H 525.727 0.682313 -0.316154 0
M  V30 5528 H 527.698 2.23569 -1.97635 0
M  V30 5529 C 526.447 3.4158 -0.649509 0
M  V30 5530 H 525.77 3.72177 -1.46028 0
M  V30 5531 H 527.21 4.20536 -0.540841 0
M  V30 5532 C 525.669 3.30703 0.643194 0
M  V30 5533 O 526.199 3.64443 1.68951 0
M  V30 5534 N 524.405 2.83841 0.623095 0
M  V30 5535 H 523.952 2.56583 -0.228719 0
M  V30 5536 H 523.91 2.76946 1.48823 0
M  V30 5537 N 527.682 1.05563 1.17022 0
M  V30 5538 C 528.592 0.670758 2.24807 0
M  V30 5539 C 529.608 -0.309865 1.71219 0
M  V30 5540 O 530.784 -0.161025 2.00755 0
M  V30 5541 C 527.849 0.055337 3.46656 0
M  V30 5542 C 526.91 1.08688 4.15314 0
M  V30 5543 C 526.143 0.500736 5.31346 0
M  V30 5544 O 526.366 -0.688718 5.66227 0
M  V30 5545 O 525.3 1.23683 5.89055 0
M  V30 5546 H 529.126 1.56914 2.60023 0
M  V30 5547 H 526.711 0.827428 1.24395 0
M  V30 5548 H 528.593 -0.286492 4.20425 0
M  V30 5549 H 527.268 -0.816638 3.13229 0
M  V30 5550 H 526.175 1.48077 3.43546 0
M  V30 5551 H 527.508 1.93014 4.52777 0
M  V30 5552 N 529.16 -1.33526 0.837174 0
M  V30 5553 C 530.123 -2.27551 0.274421 0
M  V30 5554 C 531.123 -1.50886 -0.555881 0
M  V30 5555 O 532.313 -1.70227 -0.369918 0
M  V30 5556 C 529.445 -3.35332 -0.613605 0
M  V30 5557 H 530.638 -2.78837 1.10408 0
M  V30 5558 H 528.191 -1.439 0.610126 0
M  V30 5559 H 528.926 -2.89285 -1.46577 0
M  V30 5560 H 528.711 -3.92095 -0.0195341 0
M  V30 5561 H 530.201 -4.05433 -1.00068 0
M  V30 5562 N 530.638 -0.59345 -1.46 0
M  V30 5563 C 532.054 -0.255965 -1.57534 0
M  V30 5564 C 532.254 1.24167 -1.58697 0
M  V30 5565 O 531.31 2.02398 -1.50968 0
M  V30 5566 C 532.623 -0.91466 -2.86451 0
M  V30 5567 C 534.171 -0.889253 -3.00102 0
M  V30 5568 C 534.646 -1.52769 -4.3177 0
M  V30 5569 N 536.137 -1.49253 -4.38495 0
M  V30 5570 C 536.872 -1.9558 -5.39014 0
M  V30 5571 N 536.368 -2.49929 -6.46148 0
M  V30 5572 N 538.161 -1.86432 -5.30282 0
M  V30 5573 H 530.312 -1.56604 -1.43489 0
M  V30 5574 H 532.575 -0.655207 -0.685133 0
M  V30 5575 H 532.281 -1.96861 -2.91442 0
M  V30 5576 H 532.155 -0.429356 -3.74748 0
M  V30 5577 H 534.542 0.156111 -2.94687 0
M  V30 5578 H 534.623 -1.41268 -2.13253 0
M  V30 5579 H 534.267 -2.57231 -4.37944 0
M  V30 5580 H 534.197 -0.979398 -5.17412 0
M  V30 5581 H 536.688 -1.09536 -3.61677 0
M  V30 5582 H 537.001 -2.83109 -7.19075 0
M  V30 5583 H 535.346 -2.53961 -6.46938 0
M  V30 5584 H 538.537 -1.43722 -4.4549 0
M  V30 5585 H 538.71 -2.22852 -6.08474 0
M  V30 5586 N 532.116 1.54067 -0.331816 0
M  V30 5587 C 533.064 2.26105 0.54582 0
M  V30 5588 C 534.058 1.27816 1.11173 0
M  V30 5589 O 535.264 1.45565 1.05882 0
M  V30 5590 H 531.639 0.726363 0.194683 0
M  V30 5591 H 533.61 2.98282 -0.083931 0
M  V30 5592 C 532.359 3.03814 1.69092 0
M  V30 5593 H 531.682 3.79269 1.26473 0
M  V30 5594 H 533.122 3.57453 2.28043 0
M  V30 5595 C 531.581 2.12606 2.61343 0
M  V30 5596 O 532.111 1.71437 3.6328 0
M  V30 5597 N 530.317 1.77925 2.29763 0
M  V30 5598 H 529.864 2.11602 1.46909 0
M  V30 5599 H 529.822 1.1718 2.91747 0
M  V30 5600 N 533.594 0.0601682 1.57485 0
M  V30 5601 C 534.527 -0.94676 2.07634 0
M  V30 5602 C 535.505 -1.29837 0.978826 0
M  V30 5603 O 536.689 -1.40969 1.2514 0
M  V30 5604 C 533.816 -2.25822 2.52433 0
M  V30 5605 C 532.862 -2.05901 3.73507 0
M  V30 5606 S 533.695 -1.32907 5.18745 0
M  V30 5607 C 534.851 -2.65356 5.66866 0
M  V30 5608 H 535.084 -0.520003 2.92717 0
M  V30 5609 H 532.617 -0.152319 1.53647 0
M  V30 5610 H 534.575 -3.01201 2.78905 0
M  V30 5611 H 533.236 -2.65624 1.67639 0
M  V30 5612 H 532.429 -3.02929 4.02803 0
M  V30 5613 H 532.031 -1.38659 3.47347 0
M  V30 5614 H 534.323 -3.61492 5.73001 0
M  V30 5615 H 535.266 -2.40685 6.6594 0
M  V30 5616 H 535.674 -2.72028 4.94632 0
M  V30 5617 N 535.072 -1.5615 -0.213296 0
M  V30 5618 C 536.318 -1.79812 -0.937849 0
M  V30 5619 C 536.651 -0.631201 -1.83656 0
M  V30 5620 O 535.926 0.369165 -1.90964 0
M  V30 5621 C 536.209 -3.13613 -1.76972 0
M  V30 5622 C 536.062 -4.40766 -0.89695 0
M  V30 5623 C 537.381 -3.43931 -2.7459 0
M  V30 5624 H 534.5 -0.654138 -0.339518 0
M  V30 5625 H 537.142 -1.88877 -0.20623 0
M  V30 5626 H 535.292 -3.06015 -2.39347 0
M  V30 5627 H 536.964 -4.60392 -0.289306 0
M  V30 5628 H 535.207 -4.33326 -0.202756 0
M  V30 5629 H 535.878 -5.30843 -1.51358 0
M  V30 5630 H 538.354 -3.5171 -2.22349 0
M  V30 5631 H 537.23 -4.38706 -3.29891 0
M  V30 5632 H 537.491 -2.6651 -3.52739 0
M  V30 5633 N 536.55 0.480323 -1.50102 0
M  V30 5634 C 537.775 1.26126 -1.64642 0
M  V30 5635 C 538.2 1.85257 -0.325823 0
M  V30 5636 O 537.558 1.66854 0.709194 0
M  V30 5637 C 537.606 2.35243 -2.73301 0
M  V30 5638 O 536.71 3.39646 -2.33911 0
M  V30 5639 H 536.051 0.371463 -0.550374 0
M  V30 5640 H 538.581 0.572696 -1.96421 0
M  V30 5641 H 538.591 2.80695 -2.96098 0
M  V30 5642 H 537.266 1.91574 -3.6915 0
M  V30 5643 H 535.843 2.99969 -2.21525 0
M  V30 5644 N 538.028 1.39524 0.732853 0
M  V30 5645 C 539.305 1.27373 1.48444 0
M  V30 5646 C 539.685 -0.115725 2.10783 0
M  V30 5647 O 539.033 -1.12713 1.98766 0
M  V30 5648 C 539.243 2.39966 2.53412 0
M  V30 5649 C 540.591 2.79384 3.19733 0
M  V30 5650 O 541.615 2.39431 2.63725 0
M  V30 5651 O 540.474 3.48353 4.21085 0
M  V30 5652 H 537.568 0.499272 0.659285 0
M  V30 5653 H 540.114 1.51403 0.766496 0
M  V30 5654 H 538.886 3.32845 2.05742 0
M  V30 5655 H 538.509 2.17612 3.32762 0
M  V30 5656 N 539.506 -0.963266 1.24736 0
M  V30 5657 C 540.436 -2.07628 1.06832 0
M  V30 5658 C 541.417 -1.70088 -0.0200566 0
M  V30 5659 O 542.602 -1.93636 0.147854 0
M  V30 5660 C 539.732 -3.40636 0.677069 0
M  V30 5661 C 538.686 -3.9215 1.71471 0
M  V30 5662 C 538.012 -5.21553 1.1784 0
M  V30 5663 C 539.312 -4.19493 3.11164 0
M  V30 5664 H 541.006 -2.22864 1.9993 0
M  V30 5665 H 538.552 -1.07093 0.96266 0
M  V30 5666 H 540.505 -4.17941 0.538792 0
M  V30 5667 H 539.229 -3.25313 -0.289612 0
M  V30 5668 H 537.888 -3.17005 1.84128 0
M  V30 5669 H 537.536 -5.02593 0.202195 0
M  V30 5670 H 537.236 -5.56988 1.87185 0
M  V30 5671 H 538.76 -6.01463 1.05233 0
M  V30 5672 H 540.174 -4.87487 3.01711 0
M  V30 5673 H 538.571 -4.66165 3.77902 0
M  V30 5674 H 539.641 -3.26097 3.58871 0
M  V30 5675 N 540.985 -1.06182 -1.16461 0
M  V30 5676 C 541.915 -0.692861 -2.22984 0
M  V30 5677 C 542.896 0.314122 -1.67174 0
M  V30 5678 O 544.081 0.189499 -1.93273 0
M  V30 5679 C 541.211 -0.07732 -3.47214 0
M  V30 5680 C 540.165 -1.01015 -4.15909 0
M  V30 5681 C 539.491 -0.257973 -5.34077 0
M  V30 5682 C 540.791 -2.33868 -4.67015 0
M  V30 5683 H 542.485 -1.58343 -2.54102 0
M  V30 5684 H 540.031 -0.76279 -1.22137 0
M  V30 5685 H 541.984 0.19266 -4.20959 0
M  V30 5686 H 540.708 0.848254 -3.15392 0
M  V30 5687 H 539.367 -1.26486 -3.44088 0
M  V30 5688 H 539.015 0.670684 -4.98509 0
M  V30 5689 H 538.715 -0.879638 -5.80979 0
M  V30 5690 H 540.239 0.00448788 -6.106 0
M  V30 5691 H 541.653 -2.1279 -5.32347 0
M  V30 5692 H 540.05 -2.91522 -5.24533 0
M  V30 5693 H 541.12 -2.97019 -3.83286 0
M  V30 5694 N 542.463 1.3308 -0.844243 0
M  V30 5695 C 543.691 2.01808 -0.456203 0
M  V30 5696 C 544.106 1.63498 0.944131 0
M  V30 5697 O 543.463 0.85102 1.61443 0
M  V30 5698 C 543.514 3.56922 -0.573513 0
M  V30 5699 O 543.235 3.93851 -1.91868 0
M  V30 5700 C 544.736 4.42922 -0.183125 0
M  V30 5701 H 541.956 0.646273 -0.180477 0
M  V30 5702 H 544.5 1.69891 -1.1383 0
M  V30 5703 H 542.655 3.87352 0.0607367 0
M  V30 5704 H 543.069 4.88564 -1.90802 0
M  V30 5705 H 544.543 5.51093 -0.316241 0
M  V30 5706 H 545.02 4.30386 0.875477 0
M  V30 5707 H 545.626 4.1786 -0.792027 0
M  V30 5708 N 543.941 0.601185 1.45683 0
M  V30 5709 C 545.218 0.0261659 1.95582 0
M  V30 5710 C 545.598 -1.4399 1.5437 0
M  V30 5711 O 544.946 -2.13919 0.80318 0
M  V30 5712 C 545.156 0.217557 3.48321 0
M  V30 5713 C 546.504 0.0950076 4.24494 0
M  V30 5714 O 547.528 0.147345 3.55895 0
M  V30 5715 O 546.387 -0.025261 5.46494 0
M  V30 5716 H 543.481 -0.0393688 0.826062 0
M  V30 5717 H 546.027 0.670798 1.55879 0
M  V30 5718 H 544.799 1.23601 3.71266 0
M  V30 5719 H 544.422 -0.46264 3.94899 0
M  V30 5720 N 545.419 -1.53889 0.339982 0
M  V30 5721 C 546.83 -1.86139 -0.144671 0
M  V30 5722 C 547.181 -1.2613 -1.50285 0
M  V30 5723 O 546.306 -0.573515 -2.08662 0
M  V30 5724 C 546.901 -3.37728 -0.269285 0
M  V30 5725 C 545.46 -3.69868 -0.698168 0
M  V30 5726 C 544.607 -2.76777 0.170249 0
M  V30 5727 H 547.558 -1.48503 0.559704 0
M  V30 5728 H 547.579 -3.64331 -1.0974 0
M  V30 5729 H 547.091 -3.81375 0.719366 0
M  V30 5730 H 545.192 -3.31764 -1.69597 0
M  V30 5731 H 545.305 -4.76582 -0.490533 0
M  V30 5732 H 543.669 -2.52188 -0.356844 0
M  V30 5733 H 544.452 -3.23253 1.15597 0
M  V30 5734 N 546.897 -0.0685191 -1.57451 0
M  V30 5735 C 548.122 0.613919 -1.98106 0
M  V30 5736 C 548.547 1.62551 -0.946501 0
M  V30 5737 O 547.905 1.81085 0.0882824 0
M  V30 5738 C 547.953 1.26189 -3.378 0
M  V30 5739 O 547.057 2.37773 -3.36954 0
M  V30 5740 H 546.398 0.158163 -0.644888 0
M  V30 5741 H 548.928 -0.142063 -2.04106 0
M  V30 5742 H 548.938 1.60951 -3.74912 0
M  V30 5743 H 547.613 0.520625 -4.12629 0
M  V30 5744 H 546.19 2.04829 -3.11608 0
M  V30 5745 N 548.375 1.56261 0.205012 0
M  V30 5746 C 549.305 1.96779 1.257 0
M  V30 5747 C 550.286 0.838309 1.48008 0
M  V30 5748 O 551.471 1.10189 1.59913 0
M  V30 5749 C 548.601 2.29876 2.60335 0
M  V30 5750 C 547.555 3.45469 2.52656 0
M  V30 5751 C 546.881 3.64215 3.91473 0
M  V30 5752 C 548.181 4.79954 2.06014 0
M  V30 5753 H 549.875 2.84904 0.920338 0
M  V30 5754 H 547.421 1.37072 0.441277 0
M  V30 5755 H 549.374 2.56814 3.34102 0
M  V30 5756 H 548.098 1.38622 2.95722 0
M  V30 5757 H 546.757 3.18605 1.81345 0
M  V30 5758 H 546.405 2.70309 4.24196 0
M  V30 5759 H 546.105 4.41973 3.87213 0
M  V30 5760 H 547.629 3.93519 4.66878 0
M  V30 5761 H 549.043 5.05989 2.69533 0
M  V30 5762 H 547.44 5.61111 2.12777 0
M  V30 5763 H 548.51 4.74201 1.01297 0
M  V30 5764 N 549.853 -0.472356 1.50355 0
M  V30 5765 C 551.264 -1.05326 1.54154 0
M  V30 5766 C 551.615 -1.93155 0.344303 0
M  V30 5767 O 550.74 -2.09479 -0.542928 0
M  V30 5768 C 551.335 -1.91691 2.79356 0
M  V30 5769 C 549.894 -2.44892 2.8584 0
M  V30 5770 C 549.041 -1.23205 2.48426 0
M  V30 5771 H 551.992 -0.255027 1.56637 0
M  V30 5772 H 552.013 -2.76742 2.6114 0
M  V30 5773 H 551.525 -1.27741 3.66475 0
M  V30 5774 H 549.626 -3.12399 2.0307 0
M  V30 5775 H 549.739 -2.80086 3.88701 0
M  V30 5776 H 548.103 -1.56643 2.00836 0
M  V30 5777 H 548.886 -0.609194 3.37852 0
M  V30 5778 N 551.331 -1.39911 -0.725443 0
M  V30 5779 C 552.742 -1.33599 -1.30415 0
M  V30 5780 C 553.093 -0.00481792 -1.96199 0
M  V30 5781 O 552.218 0.897275 -1.96921 0
M  V30 5782 C 552.813 -2.41965 -2.37146 0
M  V30 5783 C 551.372 -2.39144 -2.90667 0
M  V30 5784 C 550.519 -2.23355 -1.64341 0
M  V30 5785 H 553.47 -1.4986 -0.522267 0
M  V30 5786 H 553.491 -2.09304 -3.17761 0
M  V30 5787 H 553.003 -3.38837 -1.89238 0
M  V30 5788 H 551.104 -1.4594 -3.4283 0
M  V30 5789 H 551.217 -3.34362 -3.43131 0
M  V30 5790 H 549.581 -1.70696 -1.89037 0
M  V30 5791 H 550.364 -3.2221 -1.18471 0
M  V30 5792 N 552.809 0.956637 -1.25245 0
M  V30 5793 C 553.741 2.05628 -1.01242 0
M  V30 5794 C 554.754 1.62785 0.0219579 0
M  V30 5795 O 555.943 1.77184 -0.216365 0
M  V30 5796 C 553.043 3.35069 -0.508161 0
M  V30 5797 C 552.216 4.06761 -1.60823 0
M  V30 5798 C 551.275 5.14473 -1.1047 0
M  V30 5799 O 550.301 5.40033 -1.79868 0
M  V30 5800 N 551.503 5.80474 0.0550773 0
M  V30 5801 H 554.268 2.2679 -1.95925 0
M  V30 5802 H 551.829 1.12505 -1.16423 0
M  V30 5803 H 553.821 4.044 -0.155819 0
M  V30 5804 H 552.391 3.10694 0.344683 0
M  V30 5805 H 551.611 3.31555 -2.13224 0
M  V30 5806 H 552.899 4.51418 -2.34733 0
M  V30 5807 H 552.297 5.62125 0.635004 0
M  V30 5808 H 550.854 6.50868 0.348469 0
M  V30 5809 N 554.287 1.06798 1.15896 0
M  V30 5810 C 555.533 0.788934 1.86825 0
M  V30 5811 C 555.866 -0.683084 1.8179 0
M  V30 5812 O 555.141 -1.50086 1.23711 0
M  V30 5813 C 555.424 1.29065 3.36176 0
M  V30 5814 C 555.277 2.8268 3.49874 0
M  V30 5815 C 556.596 0.902655 4.30744 0
M  V30 5816 H 553.715 0.288066 0.678371 0
M  V30 5817 H 556.357 1.32479 1.36195 0
M  V30 5818 H 554.507 0.834806 3.79425 0
M  V30 5819 H 556.179 3.36511 3.15528 0
M  V30 5820 H 554.422 3.21157 2.91617 0
M  V30 5821 H 555.093 3.12852 4.54783 0
M  V30 5822 H 557.569 1.29535 3.95424 0
M  V30 5823 H 556.445 1.28111 5.3374 0
M  V30 5824 H 556.706 -0.191951 4.41683 0
M  V30 5825 N 555.766 -1.3263 0.851289 0
M  V30 5826 C 557.015 -1.96633 0.449267 0
M  V30 5827 C 557.328 -1.68131 -0.999562 0
M  V30 5828 O 558.534 -2.25845 -1.50685 0
M  V30 5829 C 556.99 -3.51946 0.752446 0
M  V30 5830 C 556.598 -3.89311 2.21678 0
M  V30 5831 C 558.342 -4.22437 0.417983 0
M  V30 5832 C 556.249 -5.37655 2.46336 0
M  V30 5833 H 555.179 -0.735888 0.164269 0
M  V30 5834 H 557.83 -1.51073 1.0416 0
M  V30 5835 H 556.212 -3.95899 0.0895858 0
M  V30 5836 H 557.386 -3.56378 2.92115 0
M  V30 5837 H 555.701 -3.31836 2.51543 0
M  V30 5838 H 558.298 -5.31549 0.579674 0
M  V30 5839 H 558.641 -4.11349 -0.640115 0
M  V30 5840 H 559.174 -3.84057 1.03659 0
M  V30 5841 H 555.913 -5.5376 3.50757 0
M  V30 5842 H 555.433 -5.72005 1.80473 0
M  V30 5843 H 557.112 -6.04695 2.30115 0
M  V30 5844 N 557.244 -0.608902 -1.45362 0
M  V30 5845 C 558.469 -0.10921 -2.07112 0
M  V30 5846 C 558.894 1.19779 -1.45033 0
M  V30 5847 O 558.252 1.72961 -0.543527 0
M  V30 5848 C 558.3 0.0155745 -3.60597 0
M  V30 5849 O 557.404 1.06546 -3.98399 0
M  V30 5850 H 556.745 -0.0746619 -0.659789 0
M  V30 5851 H 559.275 -0.839283 -1.86594 0
M  V30 5852 H 559.285 0.213364 -4.07442 0
M  V30 5853 H 557.96 -0.938765 -4.05167 0
M  V30 5854 H 556.537 0.844024 -3.63223 0
M  V30 5855 N 558.722 1.53707 -0.348139 0
M  V30 5856 C 559.947 2.05877 0.250883 0
M  V30 5857 C 560.372 1.22115 1.43072 0
M  V30 5858 O 559.73 0.235986 1.79758 0
M  V30 5859 C 559.778 3.54886 0.639416 0
M  V30 5860 O 558.882 3.73948 1.73888 0
M  V30 5861 H 558.223 0.662754 0.040653 0
M  V30 5862 H 560.753 1.98303 -0.503685 0
M  V30 5863 H 560.763 3.97601 0.915295 0
M  V30 5864 H 559.438 4.153 -0.223386 0
M  V30 5865 H 558.015 3.43134 1.45991 0
M  V30 5866 N 560.2 0.0768682 1.57412 0
M  V30 5867 C 561.13 -0.886026 2.16037 0
M  V30 5868 C 562.111 -1.30691 1.08876 0
M  V30 5869 O 563.296 -1.37705 1.36934 0
M  V30 5870 C 560.426 -2.1518 2.72608 0
M  V30 5871 C 559.38 -1.87015 3.8498 0
M  V30 5872 C 558.706 -3.20266 4.28175 0
M  V30 5873 C 560.006 -1.17143 5.08994 0
M  V30 5874 H 561.7 -0.397642 2.96748 0
M  V30 5875 H 559.246 -0.189823 1.42743 0
M  V30 5876 H 561.199 -2.82962 3.12266 0
M  V30 5877 H 559.923 -2.66269 1.89125 0
M  V30 5878 H 558.582 -1.21636 3.45833 0
M  V30 5879 H 558.23 -3.69207 3.41607 0
M  V30 5880 H 557.93 -3.0221 5.03927 0
M  V30 5881 H 559.454 -3.89237 4.70454 0
M  V30 5882 H 560.868 -1.75003 5.45937 0
M  V30 5883 H 559.265 -1.09328 5.90057 0
M  V30 5884 H 560.335 -0.151295 4.84664 0
M  V30 5885 N 561.678 -1.56367 -0.196722 0
M  V30 5886 C 563.094 -1.49916 -0.54749 0
M  V30 5887 C 563.294 -0.77659 -1.85934 0
M  V30 5888 O 562.35 -0.32644 -2.50381 0
M  V30 5889 C 563.663 -2.94577 -0.603734 0
M  V30 5890 C 565.211 -3.05239 -0.692677 0
M  V30 5891 C 565.686 -4.51308 -0.780046 0
M  V30 5892 N 567.177 -4.55453 -0.843616 0
M  V30 5893 C 567.912 -5.65786 -0.931358 0
M  V30 5894 N 567.408 -6.85812 -0.981503 0
M  V30 5895 N 569.201 -5.53695 -0.968421 0
M  V30 5896 H 561.352 -2.01761 0.663803 0
M  V30 5897 H 563.615 -0.918094 0.236238 0
M  V30 5898 H 563.321 -3.50494 0.29105 0
M  V30 5899 H 563.195 -3.47841 -1.45898 0
M  V30 5900 H 565.582 -2.49372 -1.57789 0
M  V30 5901 H 565.663 -2.55103 0.188736 0
M  V30 5902 H 565.307 -5.078 0.100811 0
M  V30 5903 H 565.237 -4.99176 -1.67724 0
M  V30 5904 H 567.728 -3.69025 -0.814176 0
M  V30 5905 H 568.041 -7.65648 -1.04892 0
M  V30 5906 H 566.386 -6.88474 -0.950208 0
M  V30 5907 H 569.577 -4.58848 -0.926072 0
M  V30 5908 H 569.75 -6.39708 -1.03334 0
M  V30 5909 N 563.156 0.464375 -1.50603 0
M  V30 5910 C 564.381 1.24372 -1.65971 0
M  V30 5911 C 564.806 1.84901 -0.345453 0
M  V30 5912 O 564.164 1.67596 0.691457 0
M  V30 5913 C 564.212 2.32331 -2.7578 0
M  V30 5914 O 563.316 3.37146 -2.375 0
M  V30 5915 H 562.657 0.365604 -0.554283 0
M  V30 5916 H 565.187 0.55183 -1.97018 0
M  V30 5917 H 565.197 2.77539 -2.99059 0
M  V30 5918 H 563.872 1.87648 -3.71162 0
M  V30 5919 H 562.449 2.97602 -2.24694 0
M  V30 5920 N 564.634 1.40294 0.718013 0
M  V30 5921 C 565.883 1.37746 1.4734 0
M  V30 5922 C 566.196 -0.0180754 1.95592 0
M  V30 5923 O 567.402 -0.166166 2.70991 0
M  V30 5924 C 565.858 2.4208 2.66318 0
M  V30 5925 C 565.466 3.87432 2.24945 0
M  V30 5926 C 567.21 2.48635 3.44065 0
M  V30 5927 C 565.117 4.83368 3.40748 0
M  V30 5928 H 564.047 0.512165 0.553356 0
M  V30 5929 H 566.698 1.66019 0.781661 0
M  V30 5930 H 565.08 2.06903 3.3765 0
M  V30 5931 H 566.254 4.3174 1.6105 0
M  V30 5932 H 564.569 3.8433 1.60249 0
M  V30 5933 H 567.166 3.17499 4.30231 0
M  V30 5934 H 567.509 1.51611 3.87711 0
M  V30 5935 H 568.042 2.82791 2.79775 0
M  V30 5936 H 564.781 5.81716 3.02136 0
M  V30 5937 H 564.301 4.43726 4.03568 0
M  V30 5938 H 565.98 5.03074 4.06848 0
M  V30 5939 N 566.112 -0.949982 1.2575 0
M  V30 5940 C 567.337 -1.73503 1.13628 0
M  V30 5941 C 567.762 -1.85601 -0.30559 0
M  V30 5942 O 567.12 -1.33984 -1.22139 0
M  V30 5943 C 567.168 -3.1243 1.80055 0
M  V30 5944 O 566.272 -3.97916 1.08336 0
M  V30 5945 H 565.613 -0.532665 0.396439 0
M  V30 5946 H 568.143 -1.19043 1.66403 0
M  V30 5947 H 568.153 -3.62866 1.86527 0
M  V30 5948 H 566.828 -3.02941 2.84956 0
M  V30 5949 H 565.405 -3.56375 1.09777 0
M  V30 5950 N 567.59 -1.07411 -1.15328 0
M  V30 5951 C 568.815 -0.818856 -1.90551 0
M  V30 5952 C 569.24 0.622194 -1.77512 0
M  V30 5953 O 568.598 1.43484 -1.10824 0
M  V30 5954 C 568.646 -1.23267 -3.38877 0
M  V30 5955 O 567.75 -0.378345 -4.10661 0
M  V30 5956 H 567.091 -0.29827 -0.593238 0
M  V30 5957 H 569.621 -1.43289 -1.46046 0
M  V30 5958 H 569.631 -1.20912 -3.89672 0
M  V30 5959 H 568.306 -2.28226 -3.47686 0
M  V30 5960 H 566.883 -0.464437 -3.69996 0
M  V30 5961 N 569.068 1.32177 -0.85831 0
M  V30 5962 C 569.998 2.31282 -0.321041 0
M  V30 5963 C 570.979 1.59841 0.581786 0
M  V30 5964 O 572.164 1.87619 0.501262 0
M  V30 5965 C 569.294 3.4385 0.48832 0
M  V30 5966 C 568.248 4.26799 -0.320391 0
M  V30 5967 C 567.574 5.31164 0.613934 0
M  V30 5968 C 568.874 4.98829 -1.54813 0
M  V30 5969 H 570.568 2.76469 -1.14915 0
M  V30 5970 H 568.114 1.32916 -0.554028 0
M  V30 5971 H 570.067 4.12224 0.874626 0
M  V30 5972 H 568.791 2.97401 1.34983 0
M  V30 5973 H 567.45 3.60077 -0.688497 0
M  V30 5974 H 567.098 4.80967 1.47239 0
M  V30 5975 H 566.798 5.8755 0.0768097 0
M  V30 5976 H 568.322 6.024 0.997336 0
M  V30 5977 H 569.736 5.59864 -1.23392 0
M  V30 5978 H 568.133 5.64957 -2.02346 0
M  V30 5979 H 569.203 4.26483 -2.30739 0
M  V30 5980 N 570.547 0.616602 1.45037 0
M  V30 5981 C 571.48 -0.145984 2.27733 0
M  V30 5982 C 572.458 -0.865108 1.37676 0
M  V30 5983 O 573.642 -0.872152 1.6711 0
M  V30 5984 C 570.769 -1.2122 3.16265 0
M  V30 5985 C 569.815 -0.595218 4.22326 0
M  V30 5986 S 570.648 0.603744 5.32086 0
M  V30 5987 C 571.804 -0.462842 6.24186 0
M  V30 5988 H 572.037 0.555591 2.92062 0
M  V30 5989 H 569.57 0.404364 1.49011 0
M  V30 5990 H 571.528 -1.82247 3.67827 0
M  V30 5991 H 570.189 -1.88589 2.51183 0
M  V30 5992 H 569.382 -1.39775 4.8423 0
M  V30 5993 H 568.984 -0.0598965 3.73952 0
M  V30 5994 H 571.276 -1.33945 6.64127 0
M  V30 5995 H 572.219 0.120259 7.07998 0
M  V30 5996 H 572.627 -0.782219 5.59054 0
M  V30 5997 N 572.025 -1.5352 0.356285 0
M  V30 5998 C 573.273 -2.00719 -0.235837 0
M  V30 5999 C 573.594 -1.24551 -1.5004 0
M  V30 6000 O 572.864 -0.356185 -1.92635 0
M  V30 6001 H 571.444 -0.741542 -0.0901366 0
M  V30 6002 H 574.106 -1.88887 0.480378 0
M  V30 6003 H 573.202 -3.08551 -0.469357 0
M  V30 6004 N 573.503 -0.0852151 -1.57369 0
M  V30 6005 C 574.466 0.8627 -2.12344 0
M  V30 6006 C 575.466 1.21746 -1.05046 0
M  V30 6007 O 576.656 1.14852 -1.30976 0
M  V30 6008 C 573.788 2.1618 -2.63589 0
M  V30 6009 H 574.981 0.385511 -2.97412 0
M  V30 6010 H 572.534 0.163663 -1.55441 0
M  V30 6011 H 573.269 2.68406 -1.82013 0
M  V30 6012 H 573.054 1.91723 -3.4203 0
M  V30 6013 H 574.544 2.84011 -3.06149 0
M  V30 6014 N 574.981 1.5647 0.188427 0
M  V30 6015 C 576.228 1.81013 0.907779 0
M  V30 6016 C 576.556 0.65953 1.82977 0
M  V30 6017 O 575.811 -0.354308 1.92466 0
M  V30 6018 C 576.11 3.11596 1.7505 0
M  V30 6019 C 575.776 4.40145 0.978922 0
M  V30 6020 C 574.438 4.75066 0.765912 0
M  V30 6021 C 576.79 5.19369 0.436498 0
M  V30 6022 C 574.118 5.867 -0.00089868 0
M  V30 6023 C 576.47 6.31805 -0.317136 0
M  V30 6024 C 575.134 6.65303 -0.541103 0
M  V30 6025 H 574.404 0.662373 0.33218 0
M  V30 6026 H 577.051 1.9071 0.173732 0
M  V30 6027 H 575.356 2.97165 2.55343 0
M  V30 6028 H 577.053 3.27793 2.30983 0
M  V30 6029 H 573.643 4.12745 1.15497 0
M  V30 6030 H 577.827 4.92799 0.588449 0
M  V30 6031 H 573.083 6.11122 -0.184329 0
M  V30 6032 H 577.257 6.92406 -0.744788 0
M  V30 6033 H 574.884 7.51646 -1.13718 0
M  V30 6034 N 576.459 -0.456382 1.50847 0
M  V30 6035 C 577.684 -1.2349 1.66628 0
M  V30 6036 C 578.109 -1.84715 0.355254 0
M  V30 6037 O 577.467 -1.67961 -0.682559 0
M  V30 6038 C 577.515 -2.30865 2.77009 0
M  V30 6039 O 576.619 -3.35882 2.39285 0
M  V30 6040 H 575.96 -0.36266 0.556214 0
M  V30 6041 H 578.49 -0.541374 1.97308 0
M  V30 6042 H 578.5 -2.75949 3.00526 0
M  V30 6043 H 577.175 -1.85677 3.72152 0
M  V30 6044 H 575.752 -2.96406 2.26269 0
M  V30 6045 N 577.937 -1.40673 -0.710563 0
M  V30 6046 C 579.185 -1.38947 -1.46759 0
M  V30 6047 C 579.506 0.00572879 -1.94999 0
M  V30 6048 O 578.776 0.961358 -1.70689 0
M  V30 6049 H 577.356 -0.5114 -0.544499 0
M  V30 6050 H 580.018 -1.75773 -0.842012 0
M  V30 6051 H 579.114 -2.06745 -2.33801 0
M  V30 6052 N 579.415 0.9433 -1.26252 0
M  V30 6053 C 580.64 1.72898 -1.14547 0
M  V30 6054 C 581.065 1.85761 0.295743 0
M  V30 6055 O 580.423 1.3463 1.21427 0
M  V30 6056 C 580.471 3.11471 -1.8171 0
M  V30 6057 O 579.575 3.97336 -1.10445 0
M  V30 6058 H 578.916 0.530555 -0.399259 0
M  V30 6059 H 581.446 1.18159 -1.67032 0
M  V30 6060 H 581.456 3.61872 -1.88449 0
M  V30 6061 H 580.131 3.01425 -2.86558 0
M  V30 6062 H 578.708 3.55788 -1.11666 0
M  V30 6063 N 580.893 1.08022 1.14757 0
M  V30 6064 C 582.133 0.816959 1.87364 0
M  V30 6065 C 582.497 -0.645407 1.80827 0
M  V30 6066 O 583.698 -1.024 2.48531 0
M  V30 6067 C 581.969 1.31961 3.32146 0
M  V30 6068 S 583.528 1.18806 4.2241 0
M  V30 6069 H 580.346 0.295862 0.646519 0
M  V30 6070 H 582.948 1.3807 1.38408 0
M  V30 6071 H 581.652 2.37847 3.3445 0
M  V30 6072 H 581.183 0.751371 3.86158 0
M  V30 6073 H 583.198 0.129865 4.9603 0
M  V30 6074 N 582.371 -1.3172 0.865308 0
M  V30 6075 C 583.787 -1.4958 0.556596 0
M  V30 6076 C 583.987 -1.79763 -0.910353 0
M  V30 6077 O 583.043 -1.87351 -1.6928 0
M  V30 6078 C 584.356 -2.63277 1.45279 0
M  V30 6079 C 585.904 -2.77161 1.45433 0
M  V30 6080 C 586.379 -3.93949 2.33598 0
M  V30 6081 N 587.87 -4.01228 2.31453 0
M  V30 6082 C 588.605 -4.90855 2.96393 0
M  V30 6083 N 588.101 -5.85416 3.70486 0
M  V30 6084 N 589.894 -4.84063 2.85726 0
M  V30 6085 H 582.045 -1.10396 1.81456 0
M  V30 6086 H 584.308 -0.54507 0.775631 0
M  V30 6087 H 584.014 -2.47734 2.49641 0
M  V30 6088 H 583.888 -3.59309 1.14792 0
M  V30 6089 H 586.275 -2.9212 0.41831 0
M  V30 6090 H 586.356 -1.8181 1.79941 0
M  V30 6091 H 586 -3.79748 3.37274 0
M  V30 6092 H 585.93 -4.88598 1.96417 0
M  V30 6093 H 588.421 -3.3357 1.77593 0
M  V30 6094 H 588.734 -6.50525 4.17178 0
M  V30 6095 H 587.079 -5.85409 3.74594 0
M  V30 6096 H 590.27 -4.09163 2.27384 0
M  V30 6097 H 590.443 -5.53708 3.36617 0
M  V30 6098 N 583.85 -0.624285 -1.44708 0
M  V30 6099 C 585.26 -0.2092 -1.85524 0
M  V30 6100 C 585.611 1.23783 -1.52225 0
M  V30 6101 O 584.736 1.94089 -0.956986 0
M  V30 6102 C 585.332 -0.372897 -3.36742 0
M  V30 6103 C 583.891 -0.012374 -3.76398 0
M  V30 6104 C 583.038 -0.68951 -2.68591 0
M  V30 6105 H 585.989 -0.829894 -1.35272 0
M  V30 6106 H 586.01 0.390134 -3.78495 0
M  V30 6107 H 585.522 -1.42615 -3.60947 0
M  V30 6108 H 583.623 1.03941 -3.57809 0
M  V30 6109 H 583.736 -0.417663 -4.77276 0
M  V30 6110 H 582.1 -0.125484 -2.54391 0
M  V30 6111 H 582.883 -1.74522 -2.9563 0
M  V30 6112 N 585.328 1.53329 -0.364422 0
M  V30 6113 C 586.275 2.25698 0.482607 0
M  V30 6114 C 587.245 1.26325 1.07848 0
M  V30 6115 O 588.43 1.55104 1.11119 0
M  V30 6116 C 585.57 3.04873 1.61699 0
M  V30 6117 C 584.683 4.19135 1.0464 0
M  V30 6118 C 583.818 4.85754 2.14979 0
M  V30 6119 C 582.857 5.9205 1.5538 0
M  V30 6120 N 581.994 6.52365 2.59547 0
M  V30 6121 H 586.834 2.97666 -0.141032 0
M  V30 6122 H 584.371 1.46875 -0.0813692 0
M  V30 6123 H 586.329 3.49051 2.28516 0
M  V30 6124 H 584.959 2.35162 2.2113 0
M  V30 6125 H 584.011 3.79451 0.268553 0
M  V30 6126 H 585.323 4.95525 0.570653 0
M  V30 6127 H 584.477 5.3311 2.89619 0
M  V30 6128 H 583.216 4.08834 2.65906 0
M  V30 6129 H 582.221 5.44058 0.792549 0
M  V30 6130 H 583.446 6.7089 1.0528 0
M  V30 6131 H 581.392 5.78298 3.09689 0
M  V30 6132 H 581.309 7.2429 2.16655 0
M  V30 6133 H 582.577 7.0437 3.33892 0
M  V30 6134 N 586.806 0.0935595 1.57322 0
M  V30 6135 C 588.055 -0.570191 1.93473 0
M  V30 6136 C 588.368 -1.69434 0.977318 0
M  V30 6137 O 589.574 -2.41914 1.23248 0
M  V30 6138 C 588.03 -1.06564 3.43762 0
M  V30 6139 C 587.638 0.0286723 4.47991 0
M  V30 6140 C 589.382 -1.70221 3.88877 0
M  V30 6141 C 587.289 -0.482046 5.89432 0
M  V30 6142 H 586.219 -0.216764 0.72217 0
M  V30 6143 H 588.87 0.169313 1.82717 0
M  V30 6144 H 587.252 -1.85878 3.49664 0
M  V30 6145 H 588.426 0.804106 4.5373 0
M  V30 6146 H 586.741 0.570336 4.12476 0
M  V30 6147 H 589.338 -2.09502 4.91948 0
M  V30 6148 H 589.681 -2.57078 3.27439 0
M  V30 6149 H 590.214 -0.974919 3.85668 0
M  V30 6150 H 586.953 0.349871 6.54566 0
M  V30 6151 H 586.473 -1.22452 5.87167 0
M  V30 6152 H 588.152 -0.951508 6.39965 0
M  V30 6153 N 588.284 -1.56567 -0.180126 0
M  V30 6154 C 589.232 -1.96632 -1.24251 0
M  V30 6155 C 590.226 -0.853818 -1.46309 0
M  V30 6156 O 591.432 -1.0389 -1.46993 0
M  V30 6157 H 587.807 -0.625476 -0.417473 0
M  V30 6158 H 589.778 -2.85201 -0.877679 0
M  V30 6159 C 588.527 -2.33486 -2.57642 0
M  V30 6160 H 587.85 -3.18626 -2.4149 0
M  V30 6161 H 589.29 -2.65371 -3.30688 0
M  V30 6162 C 587.749 -1.17499 -3.15746 0
M  V30 6163 O 588.279 -0.457956 -3.99081 0
M  V30 6164 N 586.485 -0.94786 -2.74707 0
M  V30 6165 H 586.032 -1.53269 -2.07042 0
M  V30 6166 H 585.99 -0.173626 -3.1392 0
M  V30 6167 N 589.762 0.448376 -1.51087 0
M  V30 6168 C 591.173 1.0286 -1.5581 0
M  V30 6169 C 591.524 1.92583 -0.374989 0
M  V30 6170 O 590.649 2.10316 0.509533 0
M  V30 6171 C 591.244 1.87223 -2.8237 0
M  V30 6172 C 589.803 2.40314 -2.897 0
M  V30 6173 C 588.95 1.19238 -2.50355 0
M  V30 6174 H 591.901 0.230075 -1.57023 0
M  V30 6175 H 591.922 2.72553 -2.6551 0
M  V30 6176 H 591.434 1.21894 -3.68461 0
M  V30 6177 H 589.535 3.09129 -2.08014 0
M  V30 6178 H 589.648 2.73866 -3.93108 0
M  V30 6179 H 588.012 1.53428 -2.03303 0
M  V30 6180 H 588.795 0.555367 -3.38778 0
M  V30 6181 N 591.24 1.41047 0.703093 0
M  V30 6182 C 592.17 1.45067 1.82969 0
M  V30 6183 C 593.151 0.31016 1.67248 0
M  V30 6184 O 594.336 0.520548 1.87093 0
M  V30 6185 C 591.466 1.32478 3.2104 0
M  V30 6186 C 590.42 2.44262 3.51454 0
M  V30 6187 C 589.746 2.16742 4.88801 0
M  V30 6188 C 591.046 3.86606 3.51189 0
M  V30 6189 H 592.74 2.39353 1.79863 0
M  V30 6190 H 590.286 1.15206 0.863919 0
M  V30 6191 H 592.239 1.33904 3.99559 0
M  V30 6192 H 590.963 0.346735 3.24754 0
M  V30 6193 H 589.622 2.42107 2.75282 0
M  V30 6194 H 589.27 1.17299 4.89132 0
M  V30 6195 H 588.97 2.91643 5.10116 0
M  V30 6196 H 590.494 2.19872 5.69639 0
M  V30 6197 H 591.908 3.90517 4.19725 0
M  V30 6198 H 590.305 4.61128 3.84033 0
M  V30 6199 H 591.375 4.15296 2.50315 0
M  V30 6200 N 592.718 -0.936591 1.26751 0
M  V30 6201 C 593.946 -1.71758 1.15355 0
M  V30 6202 C 594.361 -1.86549 -0.290683 0
M  V30 6203 O 593.718 -1.37616 -1.19868 0
M  V30 6204 C 593.769 -3.12193 1.82258 0
M  V30 6205 O 593.49 -2.98105 3.21038 0
M  V30 6206 C 594.991 -4.06485 1.76875 0
M  V30 6207 H 592.211 -0.537636 0.401483 0
M  V30 6208 H 594.755 -1.17382 1.67457 0
M  V30 6209 H 592.91 -3.63456 1.34083 0
M  V30 6210 H 593.324 -3.86824 3.54214 0
M  V30 6211 H 594.798 -5.02569 2.28316 0
M  V30 6212 H 595.275 -4.32986 0.736216 0
M  V30 6213 H 595.881 -3.61144 2.24623 0
M  V30 6214 N 594.196 -1.08629 -1.14182 0
M  V30 6215 C 595.607 -0.838003 -1.66836 0
M  V30 6216 C 595.958 0.634885 -1.85644 0
M  V30 6217 O 595.083 1.49008 -1.56926 0
M  V30 6218 C 595.678 -1.51465 -3.03058 0
M  V30 6219 C 594.237 -1.31355 -3.52736 0
M  V30 6220 C 593.384 -1.57599 -2.28162 0
M  V30 6221 H 596.335 -1.24656 -0.982165 0
M  V30 6222 H 596.356 -0.943134 -3.68626 0
M  V30 6223 H 595.868 -2.58661 -2.89337 0
M  V30 6224 H 593.969 -0.262384 -3.71675 0
M  V30 6225 H 594.082 -2.04275 -4.33369 0
M  V30 6226 H 592.446 -0.997659 -2.34348 0
M  V30 6227 H 593.229 -2.66006 -2.17015 0
M  V30 6228 N 595.674 1.31259 -0.872281 0
M  V30 6229 C 596.921 1.96622 -0.484365 0
M  V30 6230 C 597.249 1.68939 0.963841 0
M  V30 6231 O 596.504 0.97974 1.6941 0
M  V30 6232 C 596.803 3.50659 -0.690889 0
M  V30 6233 C 596.469 3.98366 -2.11224 0
M  V30 6234 C 595.131 4.11104 -2.50094 0
M  V30 6235 C 597.483 4.23425 -3.0391 0
M  V30 6236 C 594.811 4.46254 -3.80887 0
M  V30 6237 C 597.163 4.60039 -4.3422 0
M  V30 6238 C 595.827 4.70984 -4.73001 0
M  V30 6239 H 595.097 0.71949 -0.177242 0
M  V30 6240 H 597.744 1.56353 -1.10571 0
M  V30 6241 H 596.049 3.91798 0.0135782 0
M  V30 6242 H 597.746 3.99284 -0.370534 0
M  V30 6243 H 594.336 3.88949 -1.80047 0
M  V30 6244 H 598.52 4.13075 -2.75104 0
M  V30 6245 H 593.776 4.52926 -4.10692 0
M  V30 6246 H 597.95 4.78381 -5.06088 0
M  V30 6247 H 595.577 4.97977 -5.7439 0
M  V30 6248 N 597.152 0.631951 1.44375 0
M  V30 6249 C 598.563 0.219036 1.85411 0
M  V30 6250 C 598.914 -1.22974 1.52879 0
M  V30 6251 O 598.039 -1.93579 0.967266 0
M  V30 6252 C 598.634 0.39075 3.36539 0
M  V30 6253 C 597.193 0.0323351 3.76386 0
M  V30 6254 C 596.34 0.703744 2.68221 0
M  V30 6255 H 599.291 0.837056 1.3483 0
M  V30 6256 H 599.312 -0.370056 3.78696 0
M  V30 6257 H 598.824 1.44527 3.60185 0
M  V30 6258 H 596.925 -1.02042 3.58355 0
M  V30 6259 H 597.038 0.442969 4.77048 0
M  V30 6260 H 595.402 0.138974 2.54321 0
M  V30 6261 H 596.185 1.76088 2.947 0
M  V30 6262 N 598.631 -1.53133 0.372548 0
M  V30 6263 C 599.879 -2.00958 -0.214534 0
M  V30 6264 C 600.2 -1.26135 -1.48711 0
M  V30 6265 O 599.47 -0.376597 -1.92246 0
M  V30 6266 H 598.05 -0.742456 -0.0822664 0
M  V30 6267 H 600.712 -1.88367 0.500385 0
M  V30 6268 H 599.808 -3.09031 -0.436605 0
M  V30 6269 N 600.109 -0.101901 -1.5727 0
M  V30 6270 C 601.356 0.560197 -1.94597 0
M  V30 6271 C 601.684 1.67767 -0.984101 0
M  V30 6272 O 600.939 1.95699 -0.00489193 0
M  V30 6273 C 601.238 1.14898 -3.38427 0
M  V30 6274 C 600.904 0.154613 -4.50635 0
M  V30 6275 C 599.566 -0.118861 -4.81053 0
M  V30 6276 C 601.918 -0.523979 -5.18559 0
M  V30 6277 C 599.246 -1.0775 -5.76721 0
M  V30 6278 C 601.598 -1.47114 -6.15256 0
M  V30 6279 C 600.262 -1.75278 -6.44076 0
M  V30 6280 H 599.532 0.204991 -0.712081 0
M  V30 6281 H 602.179 -0.17918 -1.9066 0
M  V30 6282 H 600.484 1.96476 -3.38976 0
M  V30 6283 H 602.181 1.66909 -3.64613 0
M  V30 6284 H 598.771 0.377948 -4.2693 0
M  V30 6285 H 602.955 -0.325851 -4.95229 0
M  V30 6286 H 598.211 -1.30263 -5.97362 0
M  V30 6287 H 602.385 -2.00274 -6.66981 0
M  V30 6288 H 600.012 -2.49717 -7.18015 0
M  V30 6289 N 601.587 1.56661 0.17182 0
M  V30 6290 C 602.817 1.85831 0.902804 0
M  V30 6291 C 603.225 0.685157 1.76358 0
M  V30 6292 O 602.568 -0.354947 1.80238 0
M  V30 6293 C 602.63 3.09406 1.83053 0
M  V30 6294 C 602.294 4.4231 1.1494 0
M  V30 6295 C 603.291 5.17342 0.515104 0
M  V30 6296 C 600.976 4.89045 1.14631 0
M  V30 6297 C 602.97 6.37299 -0.113194 0
M  V30 6298 C 600.657 6.08933 0.514184 0
M  V30 6299 C 601.655 6.82904 -0.114463 0
M  V30 6300 O 601.343 8.00518 -0.736622 0
M  V30 6301 H 601.075 0.620715 0.267748 0
M  V30 6302 H 603.629 2.04637 0.176918 0
M  V30 6303 H 601.859 2.86544 2.59672 0
M  V30 6304 H 603.548 3.25027 2.4313 0
M  V30 6305 H 604.314 4.82317 0.509474 0
M  V30 6306 H 600.193 4.31409 1.62502 0
M  V30 6307 H 603.737 6.94976 -0.604477 0
M  V30 6308 H 599.634 6.43423 0.517395 0
M  V30 6309 H 600.402 8.16027 -0.635822 0
M  V30 6310 N 603.065 -0.440357 1.51323 0
M  V30 6311 C 604.476 -1.02032 1.56353 0
M  V30 6312 C 604.827 -1.92382 0.385197 0
M  V30 6313 O 603.952 -2.10583 -0.498373 0
M  V30 6314 C 604.547 -1.85723 2.83359 0
M  V30 6315 C 603.106 -2.38774 2.90971 0
M  V30 6316 C 602.253 -1.17908 2.50984 0
M  V30 6317 H 605.204 -0.221744 1.57143 0
M  V30 6318 H 605.225 -2.71141 2.66951 0
M  V30 6319 H 604.737 -1.19939 3.69102 0
M  V30 6320 H 602.838 -3.08021 2.09651 0
M  V30 6321 H 602.951 -2.71778 3.94555 0
M  V30 6322 H 601.315 -1.52347 2.04114 0
M  V30 6323 H 602.098 -0.537393 3.39068 0
M  V30 6324 N 604.543 -1.41418 -0.695603 0
M  V30 6325 C 605.783 -1.42241 -1.46788 0
M  V30 6326 C 606.147 -0.0300827 -1.91976 0
M  V30 6327 O 607.348 0.0868914 -2.6866 0
M  V30 6328 C 605.619 -2.4011 -2.6473 0
M  V30 6329 S 607.178 -2.59462 -3.53871 0
M  V30 6330 H 603.996 -0.503893 -0.50161 0
M  V30 6331 H 606.598 -1.77855 -0.811654 0
M  V30 6332 H 605.302 -3.40073 -2.29736 0
M  V30 6333 H 604.833 -2.05849 -3.35246 0
M  V30 6334 H 606.848 -1.862 -4.59939 0
M  V30 6335 N 606.021 0.929856 -1.27246 0
M  V30 6336 C 607.246 1.71674 -1.16374 0
M  V30 6337 C 607.671 1.86064 0.276024 0
M  V30 6338 O 607.029 1.3591 1.19992 0
M  V30 6339 C 607.077 3.09526 -1.85003 0
M  V30 6340 O 606.181 3.96142 -1.14653 0
M  V30 6341 H 605.522 0.52629 -0.404863 0
M  V30 6342 H 608.052 1.16381 -1.68276 0
M  V30 6343 H 608.062 3.59852 -1.92276 0
M  V30 6344 H 606.737 2.98369 -2.89739 0
M  V30 6345 H 605.314 3.54584 -1.15433 0
M  V30 6346 N 607.499 1.09233 1.13605 0
M  V30 6347 C 608.409 0.741939 2.22559 0
M  V30 6348 C 609.425 -0.255236 1.72118 0
M  V30 6349 O 610.601 -0.0970747 2.01166 0
M  V30 6350 C 607.666 0.165595 3.46304 0
M  V30 6351 C 606.727 1.21846 4.11645 0
M  V30 6352 C 605.96 0.669526 5.29484 0
M  V30 6353 O 606.183 -0.508228 5.68131 0
M  V30 6354 O 605.117 1.42361 5.84822 0
M  V30 6355 H 608.943 1.65107 2.54899 0
M  V30 6356 H 606.528 0.866584 1.21699 0
M  V30 6357 H 608.41 -0.152592 4.21124 0
M  V30 6358 H 607.085 -0.716573 3.15669 0
M  V30 6359 H 605.992 1.58931 3.38662 0
M  V30 6360 H 607.325 2.07321 4.46407 0
M  V30 6361 N 608.977 -1.30795 0.87923 0
M  V30 6362 C 610.226 -1.95636 0.490875 0
M  V30 6363 C 610.539 -1.70214 -0.963674 0
M  V30 6364 O 611.745 -2.28991 -1.45861 0
M  V30 6365 C 610.201 -3.50271 0.826929 0
M  V30 6366 C 609.809 -3.84521 2.29886 0
M  V30 6367 C 611.553 -4.21456 0.507494 0
M  V30 6368 C 609.46 -5.32309 2.57685 0
M  V30 6369 H 608.39 -0.732238 0.179841 0
M  V30 6370 H 611.041 -1.48829 1.07341 0
M  V30 6371 H 609.423 -3.9562 0.173542 0
M  V30 6372 H 610.597 -3.50102 2.99609 0
M  V30 6373 H 608.912 -3.26425 2.58526 0
M  V30 6374 H 611.509 -5.30199 0.692293 0
M  V30 6375 H 611.852 -4.12614 -0.552718 0
M  V30 6376 H 612.385 -3.81772 1.11782 0
M  V30 6377 H 609.124 -5.46195 3.62424 0
M  V30 6378 H 608.644 -5.68048 1.92566 0
M  V30 6379 H 610.323 -5.99678 2.42889 0
M  V30 6380 N 610.455 -0.639598 -1.44038 0
M  V30 6381 C 611.365 0.0612377 -2.3452 0
M  V30 6382 C 612.381 0.826717 -1.53106 0
M  V30 6383 O 613.557 0.777059 -1.85806 0
M  V30 6384 C 610.622 1.02492 -3.31204 0
M  V30 6385 C 609.683 0.25788 -4.28525 0
M  V30 6386 C 608.916 1.17566 -5.2059 0
M  V30 6387 O 609.139 2.41461 -5.16771 0
M  V30 6388 O 608.073 0.655407 -5.98321 0
M  V30 6389 H 611.899 -0.68318 -2.95916 0
M  V30 6390 H 609.484 -0.399784 -1.43952 0
M  V30 6391 H 611.366 1.57911 -3.90694 0
M  V30 6392 H 610.041 1.7498 -2.7233 0
M  V30 6393 H 608.948 -0.339566 -3.72556 0
M  V30 6394 H 610.281 -0.427154 -4.90343 0
M  V30 6395 N 611.933 1.52934 -0.380664 0
M  V30 6396 C 613.21 1.93845 0.261417 0
M  V30 6397 C 613.59 1.31544 1.65104 0
M  V30 6398 O 612.938 0.480234 2.23397 0
M  V30 6399 C 613.148 3.47739 0.296466 0
M  V30 6400 C 614.496 4.21284 0.529578 0
M  V30 6401 O 615.52 3.54199 0.377041 0
M  V30 6402 O 614.379 5.40195 0.827753 0
M  V30 6403 H 611.473 0.811318 0.160285 0
M  V30 6404 H 614.019 1.64042 -0.434544 0
M  V30 6405 H 612.791 3.85395 -0.67724 0
M  V30 6406 H 612.414 3.8382 1.0377 0
M  V30 6407 N 613.412 0.11024 1.57214 0
M  V30 6408 C 614.823 -0.416527 1.81994 0
M  V30 6409 C 615.174 -1.67183 1.02686 0
M  V30 6410 O 614.299 -2.14823 0.260782 0
M  V30 6411 C 614.894 -0.762466 3.30109 0
M  V30 6412 C 613.453 -1.23391 3.556 0
M  V30 6413 C 612.6 -0.238166 2.76275 0
M  V30 6414 H 615.551 0.335491 1.55113 0
M  V30 6415 H 615.572 -1.62068 3.44259 0
M  V30 6416 H 615.084 0.151346 3.87805 0
M  V30 6417 H 613.185 -2.16492 3.03253 0
M  V30 6418 H 613.298 -1.18528 4.64207 0
M  V30 6419 H 611.662 -0.723421 2.4421 0
M  V30 6420 H 612.445 0.668591 3.36727 0
M  V30 6421 N 614.89 -1.56749 -0.16351 0
M  V30 6422 C 615.853 -1.96121 -1.18613 0
M  V30 6423 C 616.853 -0.845765 -1.36761 0
M  V30 6424 O 618.043 -1.11268 -1.34033 0
M  V30 6425 C 615.175 -2.26282 -2.54969 0
M  V30 6426 H 616.368 -2.87639 -0.848764 0
M  V30 6427 H 613.921 -1.50928 -0.406251 0
M  V30 6428 H 614.656 -1.37504 -2.93706 0
M  V30 6429 H 614.441 -3.07595 -2.43162 0
M  V30 6430 H 615.931 -2.57638 -3.28653 0
M  V30 6431 N 616.368 0.432326 -1.51554 0
M  V30 6432 C 617.278 1.55023 -1.76082 0
M  V30 6433 C 618.294 1.61593 -0.645265 0
M  V30 6434 O 619.47 1.78742 -0.928086 0
M  V30 6435 C 616.535 2.90964 -1.88523 0
M  V30 6436 C 615.596 2.9447 -3.12388 0
M  V30 6437 C 614.829 4.23926 -3.24225 0
M  V30 6438 O 615.052 5.16576 -2.4188 0
M  V30 6439 O 613.986 4.33818 -4.17235 0
M  V30 6440 H 617.812 1.37238 -2.70923 0
M  V30 6441 H 615.397 0.615845 -1.36117 0
M  V30 6442 H 617.279 3.71633 -1.98662 0
M  V30 6443 H 615.954 3.08865 -0.9687 0
M  V30 6444 H 614.861 2.12737 -3.07723 0
M  V30 6445 H 616.194 2.81514 -4.03746 0
M  V30 6446 N 617.846 1.41785 0.688094 0
M  V30 6447 C 618.793 1.44221 1.80191 0
M  V30 6448 C 619.763 0.295688 1.63447 0
M  V30 6449 O 620.948 0.49783 1.84191 0
M  V30 6450 C 618.088 1.33743 3.1813 0
M  V30 6451 C 617.201 2.58325 3.46254 0
M  V30 6452 C 616.336 2.40086 4.73848 0
M  V30 6453 C 615.375 3.60107 4.94964 0
M  V30 6454 N 614.512 3.40892 6.13789 0
M  V30 6455 H 619.352 2.39411 1.77444 0
M  V30 6456 H 616.889 1.18876 0.866423 0
M  V30 6457 H 618.847 1.25669 3.97823 0
M  V30 6458 H 617.477 0.42157 3.20035 0
M  V30 6459 H 616.529 2.7682 2.60912 0
M  V30 6460 H 617.841 3.4758 3.57756 0
M  V30 6461 H 616.995 2.29522 5.61609 0
M  V30 6462 H 615.734 1.483 4.64606 0
M  V30 6463 H 614.739 3.71118 4.05649 0
M  V30 6464 H 615.964 4.52857 5.06061 0
M  V30 6465 H 613.91 2.51812 6.05745 0
M  V30 6466 H 613.827 4.23727 6.26092 0
M  V30 6467 H 615.095 3.34114 7.04264 0
M  V30 6468 N 619.324 -0.923095 1.27737 0
M  V30 6469 C 620.572 -1.66797 1.14119 0
M  V30 6470 C 620.893 -1.92479 -0.312541 0
M  V30 6471 O 620.163 -1.53432 -1.218 0
M  V30 6472 H 618.743 -0.618196 0.419336 0
M  V30 6473 H 621.405 -1.10815 1.60331 0
M  V30 6474 H 620.501 -2.63424 1.67374 0
M  V30 6475 N 620.802 -1.09834 -1.13024 0
M  V30 6476 C 622.079 -0.749225 -1.80682 0
M  V30 6477 C 622.459 0.765171 -1.96744 0
M  V30 6478 O 621.807 1.68912 -1.53886 0
M  V30 6479 C 622.017 -1.49311 -3.15448 0
M  V30 6480 C 623.365 -1.66162 -3.90737 0
M  V30 6481 O 624.389 -1.45597 -3.25085 0
M  V30 6482 O 623.248 -2.00211 -5.08505 0
M  V30 6483 H 620.342 -0.269614 -0.781817 0
M  V30 6484 H 622.888 -1.20078 -1.19914 0
M  V30 6485 H 621.66 -2.52407 -2.99009 0
M  V30 6486 H 621.283 -1.034 -3.8392 0
M  V30 6487 N 622.28 1.30327 -0.886154 0
M  V30 6488 C 623.696 1.48676 -0.580323 0
M  V30 6489 C 623.896 1.81189 0.881639 0
M  V30 6490 O 622.952 1.90021 1.66278 0
M  V30 6491 C 624.265 2.60932 -1.49449 0
M  V30 6492 C 625.813 2.74812 -1.49824 0
M  V30 6493 C 626.288 3.90183 -2.39836 0
M  V30 6494 N 627.779 3.97495 -2.37806 0
M  V30 6495 C 628.514 4.86078 -3.04165 0
M  V30 6496 N 628.01 5.79448 -3.79753 0
M  V30 6497 N 629.803 4.79456 -2.93391 0
M  V30 6498 H 621.954 1.07495 -1.8319 0
M  V30 6499 H 624.217 0.532661 -0.784204 0
M  V30 6500 H 623.923 2.43731 -2.5355 0
M  V30 6501 H 623.797 3.57437 -1.20494 0
M  V30 6502 H 626.184 2.91418 -0.464731 0
M  V30 6503 H 626.265 1.78924 -1.82811 0
M  V30 6504 H 625.909 3.74334 -3.43273 0
M  V30 6505 H 625.839 4.85411 -2.04166 0
M  V30 6506 H 628.33 3.30703 -1.82877 0
M  V30 6507 H 628.643 6.43805 -4.27475 0
M  V30 6508 H 626.988 5.79376 -3.8386 0
M  V30 6509 H 630.179 4.05494 -2.33864 0
M  V30 6510 H 630.352 5.48283 -3.45383 0
M  V30 6511 N 623.758 0.647228 1.43697 0
M  V30 6512 C 624.705 -0.0480092 2.3075 0
M  V30 6513 C 625.675 -0.820705 1.44408 0
M  V30 6514 O 626.86 -0.798515 1.73287 0
M  V30 6515 C 624 -1.01259 3.2991 0
M  V30 6516 C 623.113 -0.236629 4.31351 0
M  V30 6517 C 622.248 -1.19447 5.17596 0
M  V30 6518 C 621.287 -0.408595 6.10735 0
M  V30 6519 N 620.424 -1.31772 6.89623 0
M  V30 6520 H 625.264 0.700238 2.89656 0
M  V30 6521 H 622.801 0.357082 1.427 0
M  V30 6522 H 624.759 -1.58538 3.85903 0
M  V30 6523 H 623.389 -1.72778 2.72667 0
M  V30 6524 H 622.441 0.452353 3.77701 0
M  V30 6525 H 623.753 0.374731 4.9739 0
M  V30 6526 H 622.907 -1.83809 5.78186 0
M  V30 6527 H 621.646 -1.83975 4.51669 0
M  V30 6528 H 620.651 0.24841 5.49239 0
M  V30 6529 H 621.876 0.232188 6.78703 0
M  V30 6530 H 619.822 -1.94991 6.2635 0
M  V30 6531 H 619.739 -0.760779 7.52162 0
M  V30 6532 H 621.007 -1.94967 7.54724 0
M  V30 6533 N 625.236 -1.5273 0.388769 0
M  V30 6534 C 626.166 -2.29353 -0.438111 0
M  V30 6535 C 627.147 -1.32719 -1.06394 0
M  V30 6536 O 628.332 -1.61612 -1.07681 0
M  V30 6537 C 625.462 -3.09995 -1.56589 0
M  V30 6538 C 624.416 -4.14509 -1.06613 0
M  V30 6539 C 623.742 -4.83372 -2.28594 0
M  V30 6540 C 625.042 -5.22127 -0.134459 0
M  V30 6541 H 626.736 -2.98723 0.201206 0
M  V30 6542 H 624.282 -1.43665 0.0982089 0
M  V30 6543 H 626.235 -3.62357 -2.15118 0
M  V30 6544 H 624.959 -2.38357 -2.23279 0
M  V30 6545 H 623.618 -3.63128 -0.503383 0
M  V30 6546 H 623.266 -4.08283 -2.93792 0
M  V30 6547 H 622.966 -5.54012 -1.95817 0
M  V30 6548 H 624.49 -5.38538 -2.87766 0
M  V30 6549 H 625.904 -5.69851 -0.627914 0
M  V30 6550 H 624.301 -6.00011 0.103534 0
M  V30 6551 H 625.371 -4.77971 0.816798 0
M  V30 6552 N 626.714 -0.118576 -1.57153 0
M  V30 6553 C 627.662 0.849114 -2.16547 0
M  V30 6554 C 628.656 1.27567 -1.11458 0
M  V30 6555 O 629.862 1.24746 -1.29763 0
M  V30 6556 H 626.237 0.291935 -0.693021 0
M  V30 6557 H 628.208 0.323693 -2.96639 0
M  V30 6558 C 626.957 2.08951 -2.77912 0
M  V30 6559 H 626.28 1.77021 -3.58474 0
M  V30 6560 H 627.72 2.74666 -3.23008 0
M  V30 6561 C 626.179 2.87899 -1.74974 0
M  V30 6562 O 626.709 3.83268 -1.20285 0
M  V30 6563 N 624.915 2.51884 -1.44924 0
M  V30 6564 H 624.462 1.74397 -1.89587 0
M  V30 6565 H 624.42 3.05003 -0.762921 0
M  V30 6566 N 628.193 1.56834 0.155195 0
M  V30 6567 C 629.14 1.97646 1.19184 0
M  V30 6568 C 630.11 0.842788 1.4313 0
M  V30 6569 O 631.295 1.1042 1.55602 0
M  V30 6570 C 628.435 2.35527 2.52232 0
M  V30 6571 C 627.548 3.62147 2.35529 0
M  V30 6572 C 626.683 3.89167 3.61555 0
M  V30 6573 C 625.722 5.09084 3.39853 0
M  V30 6574 N 624.859 5.32156 4.5799 0
M  V30 6575 H 629.699 2.8601 0.836802 0
M  V30 6576 H 627.236 1.41507 0.401758 0
M  V30 6577 H 629.194 2.55516 3.29799 0
M  V30 6578 H 627.824 1.50253 2.85699 0
M  V30 6579 H 626.876 3.4998 1.49057 0
M  V30 6580 H 628.188 4.49871 2.15448 0
M  V30 6581 H 627.342 4.09611 4.47553 0
M  V30 6582 H 626.081 2.9985 3.84632 0
M  V30 6583 H 625.086 4.88522 2.52243 0
M  V30 6584 H 626.311 5.99947 3.18183 0
M  V30 6585 H 624.257 4.45791 4.81255 0
M  V30 6586 H 624.174 6.14133 4.40882 0
M  V30 6587 H 625.442 5.57091 5.45225 0
M  V30 6588 N 629.671 -0.424282 1.51781 0
M  V30 6589 C 630.919 -1.17028 1.64769 0
M  V30 6590 C 631.24 -1.91409 0.372523 0
M  V30 6591 O 630.51 -1.86091 -0.612108 0
M  V30 6592 H 629.09 -0.434992 0.607282 0
M  V30 6593 H 631.752 -0.485169 1.88765 0
M  V30 6594 H 630.848 -1.8927 2.4816 0
M  V30 6595 N 631.149 -1.42148 -0.680565 0
M  V30 6596 C 632.079 -1.4796 -1.80638 0
M  V30 6597 C 633.06 -0.336728 -1.66734 0
M  V30 6598 O 634.245 -0.550247 -1.86242 0
M  V30 6599 C 631.375 -1.37569 -3.18892 0
M  V30 6600 C 630.329 -2.49823 -3.47524 0
M  V30 6601 C 629.655 -2.24491 -4.85291 0
M  V30 6602 C 630.955 -3.92144 -3.44994 0
M  V30 6603 H 632.649 -2.42184 -1.76032 0
M  V30 6604 H 630.195 -1.16566 -0.845481 0
M  V30 6605 H 632.148 -1.40243 -3.97379 0
M  V30 6606 H 630.872 -0.398357 -3.24162 0
M  V30 6607 H 629.531 -2.46455 -2.71395 0
M  V30 6608 H 629.179 -1.25066 -4.87204 0
M  V30 6609 H 628.879 -2.99722 -5.05411 0
M  V30 6610 H 630.403 -2.28906 -5.66069 0
M  V30 6611 H 631.817 -3.97145 -4.13459 0
M  V30 6612 H 630.214 -4.67179 -3.76648 0
M  V30 6613 H 631.284 -4.19225 -2.43676 0
M  V30 6614 N 632.627 0.916307 -1.28225 0
M  V30 6615 C 633.575 2.03977 -1.11786 0
M  V30 6616 C 634.569 1.69358 -0.0378265 0
M  V30 6617 O 635.775 1.78925 -0.196405 0
M  V30 6618 H 632.15 0.66829 -0.344809 0
M  V30 6619 H 634.121 2.14985 -2.06939 0
M  V30 6620 C 632.87 3.38518 -0.7938 0
M  V30 6621 H 632.193 3.65649 -1.61682 0
M  V30 6622 H 633.633 4.17864 -0.718719 0
M  V30 6623 C 632.092 3.33134 0.502353 0
M  V30 6624 O 632.622 3.71281 1.53341 0
M  V30 6625 N 630.828 2.86229 0.502147 0
M  V30 6626 H 630.375 2.55382 -0.337338 0
M  V30 6627 H 630.333 2.83009 1.36942 0
M  V30 6628 N 634.105 1.10431 1.1244 0
M  V30 6629 C 635.521 0.836096 1.35947 0
M  V30 6630 C 635.721 -0.544475 1.94004 0
M  V30 6631 O 634.777 -1.29735 2.16622 0
M  V30 6632 C 636.09 1.93575 2.30107 0
M  V30 6633 C 637.638 1.9642 2.43697 0
M  V30 6634 C 638.113 3.05559 3.41171 0
M  V30 6635 N 639.604 3.04865 3.48728 0
M  V30 6636 C 640.339 3.85954 4.24061 0
M  V30 6637 N 639.835 4.76977 5.02458 0
M  V30 6638 N 641.628 3.74172 4.19466 0
M  V30 6639 H 633.779 1.9942 0.731124 0
M  V30 6640 H 636.042 0.866607 0.384312 0
M  V30 6641 H 635.748 2.92943 1.94621 0
M  V30 6642 H 635.622 1.8229 3.30227 0
M  V30 6643 H 638.009 0.97685 2.78463 0
M  V30 6644 H 638.09 2.11782 1.43465 0
M  V30 6645 H 637.734 4.04513 3.07135 0
M  V30 6646 H 637.664 2.87438 4.41234 0
M  V30 6647 H 640.155 2.38908 2.92799 0
M  V30 6648 H 640.468 5.35409 5.57277 0
M  V30 6649 H 638.813 4.81006 5.01655 0
M  V30 6650 H 642.004 3.02412 3.57302 0
M  V30 6651 H 642.177 4.37602 4.77921 0
M  V30 6652 N 635.583 -1.29855 0.893053 0
M  V30 6653 C 636.531 -2.29867 0.355512 0
M  V30 6654 C 637.525 -1.60502 -0.541801 0
M  V30 6655 O 638.731 -1.74902 -0.425339 0
M  V30 6656 H 635.106 -0.745805 0.0963247 0
M  V30 6657 H 637.077 -2.72655 1.21252 0
M  V30 6658 C 635.826 -3.453 -0.407801 0
M  V30 6659 H 635.149 -3.98864 0.273426 0
M  V30 6660 H 636.589 -4.17334 -0.748887 0
M  V30 6661 C 635.048 -2.96051 -1.60795 0
M  V30 6662 O 635.578 -2.96763 -2.7073 0
M  V30 6663 N 633.784 -2.51963 -1.44786 0
M  V30 6664 H 633.331 -2.51583 -0.553498 0
M  V30 6665 H 633.289 -2.1937 -2.2522 0
M  V30 6666 N 637.061 -0.65484 -1.43351 0
M  V30 6667 C 638.286 -0.175046 -2.0666 0
M  V30 6668 C 638.711 1.15104 -1.4877 0
M  V30 6669 O 638.069 1.71144 -0.598279 0
M  V30 6670 C 638.117 -0.0991544 -3.60464 0
M  V30 6671 O 637.221 0.938169 -4.01587 0
M  V30 6672 H 636.562 -0.0956148 -0.65708 0
M  V30 6673 H 639.092 -0.898222 -1.83829 0
M  V30 6674 H 639.102 0.083632 -4.07914 0
M  V30 6675 H 637.777 -1.06719 -4.01975 0
M  V30 6676 H 636.354 0.72804 -3.65724 0
M  V30 6677 N 638.539 1.52521 -0.396863 0
M  V30 6678 C 639.469 2.29582 0.425941 0
M  V30 6679 C 640.45 1.33281 1.05689 0
M  V30 6680 O 641.635 1.62181 1.06823 0
M  V30 6681 C 638.765 3.10821 1.54943 0
M  V30 6682 C 637.719 4.15069 1.04413 0
M  V30 6683 C 637.045 4.84578 2.26028 0
M  V30 6684 C 638.345 5.22191 0.106767 0
M  V30 6685 H 640.039 2.98612 -0.217045 0
M  V30 6686 H 637.585 1.43611 -0.105826 0
M  V30 6687 H 639.538 3.63492 2.13193 0
M  V30 6688 H 638.262 2.39538 2.22011 0
M  V30 6689 H 636.921 3.63389 0.484118 0
M  V30 6690 H 636.569 4.09835 2.91623 0
M  V30 6691 H 636.269 5.55043 1.92876 0
M  V30 6692 H 637.793 5.40056 2.84906 0
M  V30 6693 H 639.207 5.70176 0.597685 0
M  V30 6694 H 637.604 5.99947 -0.135352 0
M  V30 6695 H 638.674 4.77531 -0.842134 0
M  V30 6696 N 640.017 0.126909 1.57088 0
M  V30 6697 C 641.428 -0.397201 1.82426 0
M  V30 6698 C 641.779 -1.66084 1.04453 0
M  V30 6699 O 640.904 -2.14534 0.283552 0
M  V30 6700 C 641.499 -0.727411 3.30899 0
M  V30 6701 C 640.058 -1.19612 3.56889 0
M  V30 6702 C 639.205 -0.20885 2.76512 0
M  V30 6703 H 642.156 0.351924 1.54749 0
M  V30 6704 H 642.177 -1.58407 3.45959 0
M  V30 6705 H 641.689 0.19247 3.87622 0
M  V30 6706 H 639.79 -2.13263 3.05532 0
M  V30 6707 H 639.903 -1.13598 4.65438 0
M  V30 6708 H 638.267 -0.697479 2.44964 0
M  V30 6709 H 639.05 0.704267 3.35998 0
M  V30 6710 N 641.495 -1.56914 -0.146875 0
M  V30 6711 C 642.723 -1.87515 -0.874394 0
M  V30 6712 C 643.138 -0.715116 -1.74733 0
M  V30 6713 O 642.495 0.315113 -1.79759 0
M  V30 6714 C 642.546 -3.17362 -1.731 0
M  V30 6715 O 642.267 -4.28897 -0.893245 0
M  V30 6716 C 643.768 -3.61479 -2.56609 0
M  V30 6717 H 640.988 -0.621546 -0.252827 0
M  V30 6718 H 643.532 -2.04023 -0.139627 0
M  V30 6719 H 641.687 -3.02608 -2.41883 0
M  V30 6720 H 642.101 -5.03146 -1.48137 0
M  V30 6721 H 643.575 -4.5517 -3.12289 0
M  V30 6722 H 644.052 -2.86773 -3.32653 0
M  V30 6723 H 644.658 -3.78927 -1.93117 0
M  V30 6724 N 642.974 0.416227 -1.52004 0
M  V30 6725 C 644.385 0.995319 -1.57957 0
M  V30 6726 C 644.736 1.91744 -0.415754 0
M  V30 6727 O 643.861 2.11349 0.464808 0
M  V30 6728 C 644.456 1.81191 -2.86278 0
M  V30 6729 C 643.015 2.34115 -2.94732 0
M  V30 6730 C 642.162 1.139 -2.52828 0
M  V30 6731 H 645.113 0.196716 -1.57476 0
M  V30 6732 H 645.134 2.66859 -2.71231 0
M  V30 6733 H 644.646 1.14051 -3.70963 0
M  V30 6734 H 642.747 3.04647 -2.14525 0
M  V30 6735 H 642.86 2.65466 -3.98829 0
M  V30 6736 H 641.224 1.49081 -2.06511 0
M  V30 6737 H 642.007 0.483383 -3.3988 0
M  V30 6738 N 644.452 1.42507 0.673017 0
M  V30 6739 C 645.384 1.42074 1.79854 0
M  V30 6740 C 646.397 0.319569 1.59633 0
M  V30 6741 O 647.586 0.582769 1.68719 0
M  V30 6742 C 644.686 1.19886 3.16987 0
M  V30 6743 C 643.859 2.42471 3.64042 0
M  V30 6744 C 642.918 2.15802 4.79913 0
M  V30 6745 O 641.944 2.89015 4.90366 0
M  V30 6746 N 643.146 1.16225 5.68746 0
M  V30 6747 H 645.911 2.3909 1.8071 0
M  V30 6748 H 643.472 1.37409 0.856171 0
M  V30 6749 H 645.464 0.999591 3.92161 0
M  V30 6750 H 644.034 0.313879 3.1102 0
M  V30 6751 H 643.254 2.77954 2.79526 0
M  V30 6752 H 644.542 3.24097 3.92223 0
M  V30 6753 H 643.94 0.556756 5.62954 0
M  V30 6754 H 642.497 1.02285 6.43724 0
M  V30 6755 N 645.93 -0.909495 1.28709 0
M  V30 6756 C 646.86 -2.0291 1.15542 0
M  V30 6757 C 647.841 -1.7002 0.0521017 0
M  V30 6758 O 649.026 -1.92835 0.229849 0
M  V30 6759 C 646.156 -3.37458 0.820935 0
M  V30 6760 C 645.11 -3.84524 1.87949 0
M  V30 6761 C 644.436 -5.16086 1.39854 0
M  V30 6762 C 645.736 -4.05918 3.28676 0
M  V30 6763 H 647.43 -2.14183 2.09203 0
M  V30 6764 H 644.976 -1.02913 1.00722 0
M  V30 6765 H 646.929 -4.1528 0.715571 0
M  V30 6766 H 645.653 -3.26249 -0.151374 0
M  V30 6767 H 644.312 -3.08911 1.97408 0
M  V30 6768 H 643.96 -5.01284 0.41518 0
M  V30 6769 H 643.66 -5.48547 2.1064 0
M  V30 6770 H 645.184 -5.96459 1.30649 0
M  V30 6771 H 646.598 -4.74252 3.22115 0
M  V30 6772 H 644.995 -4.49717 3.97334 0
M  V30 6773 H 646.065 -3.10583 3.72379 0
M  V30 6774 N 647.408 -1.11026 -1.11852 0
M  V30 6775 C 648.824 -0.843294 -1.35502 0
M  V30 6776 C 649.024 0.534179 -1.9429 0
M  V30 6777 O 648.08 1.28585 -2.17307 0
M  V30 6778 C 649.393 -1.94793 -2.29077 0
M  V30 6779 C 650.941 -1.97709 -2.42652 0
M  V30 6780 C 651.416 -3.07364 -3.39546 0
M  V30 6781 N 652.907 -3.0671 -3.47107 0
M  V30 6782 C 653.642 -3.88197 -4.22008 0
M  V30 6783 N 653.138 -4.79635 -4.99922 0
M  V30 6784 N 654.931 -3.76391 -4.17476 0
M  V30 6785 H 647.082 -1.99805 -0.720538 0
M  V30 6786 H 649.345 -0.868633 -0.379711 0
M  V30 6787 H 649.051 -2.93971 -1.93065 0
M  V30 6788 H 648.925 -1.84039 -3.29256 0
M  V30 6789 H 651.312 -0.991604 -2.77941 0
M  V30 6790 H 651.393 -2.1254 -1.4234 0
M  V30 6791 H 651.037 -4.06136 -3.04985 0
M  V30 6792 H 650.967 -2.89774 -4.39703 0
M  V30 6793 H 653.458 -2.40457 -2.91528 0
M  V30 6794 H 653.771 -5.38357 -5.54429 0
M  V30 6795 H 652.116 -4.8366 -4.99097 0
M  V30 6796 H 655.307 -3.04303 -3.55693 0
M  V30 6797 H 655.48 -4.40131 -4.75593 0
M  V30 6798 N 648.886 1.2938 -0.899927 0
M  V30 6799 C 650.302 1.48052 -0.596059 0
M  V30 6800 C 650.502 1.82114 0.862372 0
M  V30 6801 O 649.558 1.91774 1.64253 0
M  V30 6802 C 650.871 2.59332 -1.52208 0
M  V30 6803 C 652.419 2.73208 -1.5273 0
M  V30 6804 C 652.894 3.87617 -2.43961 0
M  V30 6805 N 654.385 3.9495 -2.42009 0
M  V30 6806 C 655.12 4.82824 -3.09303 0
M  V30 6807 N 654.616 5.75387 -3.85877 0
M  V30 6808 N 656.409 4.76317 -2.98459 0
M  V30 6809 H 648.56 1.05546 -1.8432 0
M  V30 6810 H 650.823 0.524314 -0.78981 0
M  V30 6811 H 650.529 2.41029 -2.56121 0
M  V30 6812 H 650.403 3.56139 -1.24278 0
M  V30 6813 H 652.79 2.90908 -0.495614 0
M  V30 6814 H 652.871 1.76975 -1.84698 0
M  V30 6815 H 652.515 3.70672 -3.47224 0
M  V30 6816 H 652.445 4.83218 -2.09303 0
M  V30 6817 H 654.936 3.28744 -1.86375 0
M  V30 6818 H 655.249 6.39235 -4.34279 0
M  V30 6819 H 653.594 5.75272 -3.89984 0
M  V30 6820 H 656.785 4.0299 -2.38152 0
M  V30 6821 H 656.958 5.44589 -3.51179 0
M  V30 6822 N 650.364 0.662433 1.43002 0
M  V30 6823 C 651.589 0.186003 2.06564 0
M  V30 6824 C 652.014 -1.14314 1.49379 0
M  V30 6825 O 651.372 -1.70824 0.607346 0
M  V30 6826 C 651.42 0.118269 3.60406 0
M  V30 6827 O 650.524 -0.916859 4.02079 0
M  V30 6828 H 649.865 0.0990981 0.656563 0
M  V30 6829 H 652.395 0.907958 1.8335 0
M  V30 6830 H 652.405 -0.0619981 4.07953 0
M  V30 6831 H 651.08 1.08849 4.01403 0
M  V30 6832 H 649.657 -0.708635 3.66105 0
M  V30 6833 N 651.842 -1.52309 0.404946 0
M  V30 6834 C 653.067 -2.06666 -0.1743 0
M  V30 6835 C 653.492 -1.27341 -1.38441 0
M  V30 6836 O 652.85 -0.302539 -1.78758 0
M  V30 6837 C 652.898 -3.57014 -0.507262 0
M  V30 6838 O 652.002 -3.80144 -1.59889 0
M  V30 6839 H 651.343 -0.663807 -0.0160273 0
M  V30 6840 H 653.873 -1.96297 0.576937 0
M  V30 6841 H 653.883 -4.00724 -0.767098 0
M  V30 6842 H 652.558 -4.14184 0.377368 0
M  V30 6843 H 651.135 -3.48316 -1.33155 0
M  V30 6844 N 653.32 -0.135238 -1.57019 0
M  V30 6845 C 654.568 0.51777 -1.95355 0
M  V30 6846 C 654.889 1.6617 -1.02042 0
M  V30 6847 O 654.159 1.95738 -0.0797343 0
M  V30 6848 H 652.739 0.194264 -0.721298 0
M  V30 6849 H 655.401 -0.207983 -1.93787 0
M  V30 6850 H 654.497 0.901675 -2.98791 0
M  V30 6851 N 654.798 1.5699 0.138552 0
M  V30 6852 C 656.026 1.87976 0.864437 0
M  V30 6853 C 656.441 0.724372 1.74351 0
M  V30 6854 O 655.798 -0.305575 1.79924 0
M  V30 6855 C 655.849 3.18276 1.71414 0
M  V30 6856 O 655.57 4.29365 0.870487 0
M  V30 6857 C 657.071 3.62834 2.54688 0
M  V30 6858 H 654.291 0.622878 0.249528 0
M  V30 6859 H 656.835 2.04094 0.128805 0
M  V30 6860 H 654.99 3.03886 2.40274 0
M  V30 6861 H 655.404 5.03924 1.45466 0
M  V30 6862 H 656.878 4.5682 3.0987 0
M  V30 6863 H 657.355 2.88533 3.31127 0
M  V30 6864 H 657.961 3.79946 1.91105 0
M  V30 6865 N 656.276 -0.40816 1.52223 0
M  V30 6866 C 657.501 -1.18127 1.70472 0
M  V30 6867 C 657.926 -1.83491 0.41384 0
M  V30 6868 O 657.284 -1.70047 -0.628778 0
M  V30 6869 C 657.332 -2.21935 2.84213 0
M  V30 6870 O 656.436 -3.28099 2.4985 0
M  V30 6871 H 655.777 -0.344781 0.56747 0
M  V30 6872 H 658.307 -0.478328 1.9893 0
M  V30 6873 H 658.317 -2.66248 3.09153 0
M  V30 6874 H 656.992 -1.73744 3.7787 0
M  V30 6875 H 655.569 -2.89058 2.35584 0
M  V30 6876 N 657.755 -1.42862 -0.66545 0
M  V30 6877 C 659.003 -1.43546 -1.42264 0
M  V30 6878 C 659.324 -0.0563116 -1.94919 0
M  V30 6879 O 658.594 0.906568 -1.73661 0
M  V30 6880 H 657.174 -0.528464 -0.527953 0
M  V30 6881 H 659.836 -1.78363 -0.785665 0
M  V30 6882 H 658.932 -2.14079 -2.27105 0
M  V30 6883 N 659.233 0.902656 -1.29189 0
M  V30 6884 C 660.163 2.02294 -1.16616 0
M  V30 6885 C 661.144 1.6999 -0.0611175 0
M  V30 6886 O 662.329 1.9271 -0.240072 0
M  V30 6887 C 659.459 3.37018 -0.83882 0
M  V30 6888 C 658.413 3.83522 -1.89986 0
M  V30 6889 C 657.739 5.15337 -1.42589 0
M  V30 6890 C 659.039 4.04169 -3.30824 0
M  V30 6891 H 660.733 2.13071 -2.10336 0
M  V30 6892 H 658.279 1.02378 -1.01266 0
M  V30 6893 H 660.232 4.14895 -0.737584 0
M  V30 6894 H 658.956 3.26325 0.134071 0
M  V30 6895 H 657.615 3.07859 -1.99043 0
M  V30 6896 H 657.263 5.01056 -0.441759 0
M  V30 6897 H 656.963 5.47423 -2.13547 0
M  V30 6898 H 658.487 5.95758 -1.3381 0
M  V30 6899 H 659.901 4.72537 -3.24626 0
M  V30 6900 H 658.298 4.47604 -3.99713 0
M  V30 6901 H 659.368 3.08604 -3.74021 0
M  V30 6902 N 660.711 1.11618 1.11262 0
M  V30 6903 C 661.641 0.79846 2.19424 0
M  V30 6904 C 662.622 -0.234003 1.68483 0
M  V30 6905 O 663.807 -0.0970704 1.93957 0
M  V30 6906 C 660.937 0.242892 3.4645 0
M  V30 6907 C 659.891 1.20744 4.10615 0
M  V30 6908 C 659.217 0.512494 5.32238 0
M  V30 6909 C 660.517 2.55884 4.55325 0
M  V30 6910 H 662.211 1.70286 2.46258 0
M  V30 6911 H 659.757 0.820195 1.18359 0
M  V30 6912 H 661.71 0.00840447 4.21399 0
M  V30 6913 H 660.434 -0.696811 3.1908 0
M  V30 6914 H 659.093 1.42759 3.37662 0
M  V30 6915 H 658.741 -0.432075 5.01141 0
M  V30 6916 H 658.441 1.15583 5.7612 0
M  V30 6917 H 659.965 0.286842 6.09926 0
M  V30 6918 H 661.379 2.37946 5.21588 0
M  V30 6919 H 659.776 3.16216 5.10027 0
M  V30 6920 H 660.846 3.14968 3.68678 0
M  V30 6921 N 662.189 -1.289 0.906776 0
M  V30 6922 C 663.6 -1.77336 0.58384 0
M  V30 6923 C 663.951 -1.74304 -0.900697 0
M  V30 6924 O 663.076 -1.33335 -1.70443 0
M  V30 6925 C 663.671 -3.22019 1.05304 0
M  V30 6926 C 662.23 -3.68205 0.781148 0
M  V30 6927 C 661.377 -2.48837 1.22373 0
M  V30 6928 H 664.328 -1.15462 1.08877 0
M  V30 6929 H 664.349 -3.78481 0.391414 0
M  V30 6930 H 663.861 -3.24194 2.13353 0
M  V30 6931 H 661.962 -3.71497 -0.28643 0
M  V30 6932 H 662.075 -4.58675 1.384 0
M  V30 6933 H 660.439 -2.46461 0.642594 0
M  V30 6934 H 661.222 -2.53736 2.31242 0
M  V30 6935 N 663.667 -0.670007 -1.42649 0
M  V30 6936 C 664.913 -0.190568 -2.01903 0
M  V30 6937 C 665.246 1.19817 -1.52832 0
M  V30 6938 O 664.521 1.80342 -0.728485 0
M  V30 6939 C 664.804 -0.21991 -3.59428 0
M  V30 6940 C 664.657 -1.64376 -4.18689 0
M  V30 6941 C 665.976 0.434519 -4.3795 0
M  V30 6942 H 663.095 -0.0707219 -0.733599 0
M  V30 6943 H 665.737 -0.853883 -1.69732 0
M  V30 6944 H 663.887 0.344894 -3.86966 0
M  V30 6945 H 665.559 -2.26044 -4.02122 0
M  V30 6946 H 663.802 -2.18591 -3.747 0
M  V30 6947 H 664.473 -1.61601 -5.27815 0
M  V30 6948 H 666.949 -0.0462156 -4.16074 0
M  V30 6949 H 665.825 0.38333 -5.4756 0
M  V30 6950 H 666.086 1.51135 -4.15464 0
M  V30 6951 N 665.145 1.52092 -0.413018 0
M  V30 6952 C 666.055 2.30858 0.417318 0
M  V30 6953 C 667.071 1.38746 1.05003 0
M  V30 6954 O 668.247 1.71821 1.05069 0
M  V30 6955 C 665.312 3.11756 1.51687 0
M  V30 6956 C 664.373 4.19613 0.906825 0
M  V30 6957 C 663.606 4.96644 1.95399 0
M  V30 6958 O 663.829 4.7402 3.17271 0
M  V30 6959 O 662.763 5.81385 1.55805 0
M  V30 6960 H 666.589 3.02865 -0.225028 0
M  V30 6961 H 664.174 1.48358 -0.176126 0
M  V30 6962 H 666.056 3.62122 2.15512 0
M  V30 6963 H 664.731 2.42539 2.14375 0
M  V30 6964 H 663.638 3.73385 0.231183 0
M  V30 6965 H 664.971 4.91134 0.323814 0
M  V30 6966 N 666.623 0.143563 1.56945 0
M  V30 6967 C 667.555 -0.828353 2.13708 0
M  V30 6968 C 668.568 -1.21313 1.08568 0
M  V30 6969 O 669.757 -1.1578 1.35857 0
M  V30 6970 C 666.857 -2.12248 2.64204 0
M  V30 6971 C 666.03 -1.90561 3.93707 0
M  V30 6972 C 665.089 -3.03931 4.29549 0
M  V30 6973 O 664.115 -2.75772 4.97934 0
M  V30 6974 N 665.317 -4.31016 3.88852 0
M  V30 6975 H 668.082 -0.343242 2.97728 0
M  V30 6976 H 665.643 -0.0401152 1.6185 0
M  V30 6977 H 667.635 -2.87132 2.85197 0
M  V30 6978 H 666.205 -2.52033 1.84928 0
M  V30 6979 H 665.425 -0.997327 3.81375 0
M  V30 6980 H 666.713 -1.73405 4.78339 0
M  V30 6981 H 666.111 -4.56762 3.33743 0
M  V30 6982 H 664.668 -5.02691 4.14903 0
M  V30 6983 N 668.101 -1.57061 -0.130224 0
M  V30 6984 C 669.326 -1.88802 -0.858409 0
M  V30 6985 C 669.751 -0.734353 -1.73173 0
M  V30 6986 O 669.109 0.315529 -1.78533 0
M  V30 6987 C 669.157 -3.19228 -1.67708 0
M  V30 6988 O 668.261 -3.04343 -2.78297 0
M  V30 6989 H 667.602 -0.619849 -0.238083 0
M  V30 6990 H 670.132 -2.04271 -0.115995 0
M  V30 6991 H 670.142 -3.51669 -2.06864 0
M  V30 6992 H 668.817 -4.02793 -1.0359 0
M  V30 6993 H 667.394 -2.83346 -2.42425 0
M  V30 6994 N 669.579 0.400081 -1.52437 0
M  V30 6995 C 670.804 1.17221 -1.71096 0
M  V30 6996 C 671.229 1.83269 -0.423565 0
M  V30 6997 O 670.587 1.70378 0.619751 0
M  V30 6998 C 670.635 2.20425 -2.85386 0
M  V30 6999 O 669.739 3.26769 -2.51586 0
M  V30 7000 H 669.08 0.341766 -0.569291 0
M  V30 7001 H 671.61 0.467772 -1.99181 0
M  V30 7002 H 671.62 2.64605 -3.10561 0
M  V30 7003 H 670.295 1.71737 -3.78786 0
M  V30 7004 H 668.872 2.87804 -2.37114 0
M  V30 7005 N 671.057 1.43213 0.657864 0
M  V30 7006 C 672.473 1.26511 0.972992 0
M  V30 7007 C 672.673 0.181477 2.00681 0
M  V30 7008 O 671.729 -0.441649 2.48608 0
M  V30 7009 C 673.042 2.62784 1.46168 0
M  V30 7010 C 674.59 2.70278 1.57857 0
M  V30 7011 C 675.065 4.06958 2.10117 0
M  V30 7012 N 676.556 4.08999 2.17426 0
M  V30 7013 C 677.291 5.11585 2.58975 0
M  V30 7014 N 676.787 6.24548 2.99853 0
M  V30 7015 N 678.58 4.9894 2.58873 0
M  V30 7016 H 670.731 2.12384 -0.0263129 0
M  V30 7017 H 672.994 0.946638 0.0507992 0
M  V30 7018 H 672.7 3.43022 0.776474 0
M  V30 7019 H 672.574 2.87863 2.43751 0
M  V30 7020 H 674.961 1.90376 2.25479 0
M  V30 7021 H 675.042 2.4897 0.587179 0
M  V30 7022 H 674.686 4.87325 1.43098 0
M  V30 7023 H 674.616 4.25628 3.10078 0
M  V30 7024 H 677.107 3.27457 1.88627 0
M  V30 7025 H 677.42 6.98661 3.30292 0
M  V30 7026 H 675.765 6.28027 2.97669 0
M  V30 7027 H 678.956 4.09757 2.26311 0
M  V30 7028 H 679.129 5.79019 2.90932 0
M  V30 7029 N 672.536 -0.895792 1.29666 0
M  V30 7030 C 673.782 -1.64921 1.19049 0
M  V30 7031 C 674.137 -1.90707 -0.254678 0
M  V30 7032 O 673.43 -1.5092 -1.18041 0
M  V30 7033 C 673.624 -3.00075 1.94139 0
M  V30 7034 C 673.453 -2.87482 3.4581 0
M  V30 7035 C 672.223 -2.88041 4.15163 0
M  V30 7036 C 674.421 -2.64224 4.41237 0
M  V30 7037 N 672.403 -2.66226 5.5317 0
M  V30 7038 C 673.774 -2.51427 5.66732 0
M  V30 7039 C 675.829 -2.49362 4.30956 0
M  V30 7040 C 674.532 -2.25281 6.83111 0
M  V30 7041 C 676.558 -2.246 5.47091 0
M  V30 7042 C 675.92 -2.12571 6.7156 0
M  V30 7043 H 672.019 -0.608926 0.490646 0
M  V30 7044 H 674.603 -1.05648 1.63544 0
M  V30 7045 H 672.774 -3.574 1.52052 0
M  V30 7046 H 674.506 -3.64544 1.75754 0
M  V30 7047 H 671.261 -2.99471 3.66898 0
M  V30 7048 H 671.685 -2.58361 6.25762 0
M  V30 7049 H 676.327 -2.57403 3.35415 0
M  V30 7050 H 674.045 -2.15978 7.78704 0
M  V30 7051 H 677.631 -2.13939 5.41037 0
M  V30 7052 H 676.511 -1.93676 7.59907 0
M  V30 7053 N 674.014 -1.12206 -1.10668 0
M  V30 7054 C 675.291 -0.787382 -1.79052 0
M  V30 7055 C 675.671 0.723267 -1.98323 0
M  V30 7056 O 675.019 1.6561 -1.57434 0
M  V30 7057 C 675.229 -1.55968 -3.1221 0
M  V30 7058 C 676.577 -1.74413 -3.87125 0
M  V30 7059 O 677.601 -1.5246 -3.21923 0
M  V30 7060 O 676.46 -2.10952 -5.04144 0
M  V30 7061 H 673.554 -0.286137 -0.775922 0
M  V30 7062 H 676.1 -1.22595 -1.1734 0
M  V30 7063 H 674.872 -2.58692 -2.93588 0
M  V30 7064 H 674.495 -1.1152 -3.8164 0
M  V30 7065 N 675.492 1.28418 -0.913599 0
M  V30 7066 C 676.908 1.47411 -0.611728 0
M  V30 7067 C 677.108 1.83018 0.843008 0
M  V30 7068 O 676.164 1.93505 1.6221 0
M  V30 7069 C 677.477 2.57703 -1.5495 0
M  V30 7070 C 679.025 2.71572 -1.5562 0
M  V30 7071 C 679.5 3.85008 -2.48058 0
M  V30 7072 N 680.991 3.92361 -2.46184 0
M  V30 7073 C 681.726 4.79516 -3.14407 0
M  V30 7074 N 681.222 5.71262 -3.91958 0
M  V30 7075 N 683.015 4.73125 -3.03495 0
M  V30 7076 H 675.166 1.03585 -1.85429 0
M  V30 7077 H 677.429 0.515907 -0.795326 0
M  V30 7078 H 677.135 2.38298 -2.58663 0
M  V30 7079 H 677.009 3.54801 -1.28048 0
M  V30 7080 H 679.396 2.90366 -0.526441 0
M  V30 7081 H 679.477 1.75006 -1.86565 0
M  V30 7082 H 679.121 3.66969 -3.51136 0
M  V30 7083 H 679.051 4.80971 -2.14416 0
M  V30 7084 H 681.542 3.26749 -1.89851 0
M  V30 7085 H 681.855 6.34593 -4.41034 0
M  V30 7086 H 680.2 5.71103 -3.96063 0
M  V30 7087 H 683.391 4.00442 -2.42413 0
M  V30 7088 H 683.564 5.40834 -3.56935 0
M  V30 7089 N 676.97 0.677563 1.42291 0
M  V30 7090 C 677.918 -0.0106755 2.32598 0
M  V30 7091 C 678.912 -0.787643 1.49975 0
M  V30 7092 O 680.118 -0.695295 1.66029 0
M  V30 7093 H 676.493 -0.0222482 0.751671 0
M  V30 7094 H 678.464 0.768312 2.88339 0
M  V30 7095 C 677.213 -0.946142 3.3458 0
M  V30 7096 H 676.536 -0.357701 3.98197 0
M  V30 7097 H 677.976 -1.39634 4.00348 0
M  V30 7098 C 676.435 -2.05383 2.67057 0
M  V30 7099 O 676.965 -3.1406 2.50458 0
M  V30 7100 N 675.171 -1.82635 2.26038 0
M  V30 7101 H 674.718 -0.942534 2.39737 0
M  V30 7102 H 674.676 -2.56937 1.81192 0
M  V30 7103 N 678.448 -1.51871 0.421078 0
M  V30 7104 C 679.396 -2.28903 -0.413066 0
M  V30 7105 C 680.39 -1.3408 -1.03532 0
M  V30 7106 O 681.596 -1.5149 -0.972146 0
M  V30 7107 H 677.971 -0.736478 -0.152003 0
M  V30 7108 H 679.942 -2.97285 0.257695 0
M  V30 7109 C 678.691 -3.13156 -1.51091 0
M  V30 7110 H 678.014 -3.85997 -1.04145 0
M  V30 7111 H 679.454 -3.7014 -2.06814 0
M  V30 7112 C 677.913 -2.27482 -2.48503 0
M  V30 7113 O 678.443 -1.92325 -3.52667 0
M  V30 7114 N 676.649 -1.91019 -2.18998 0
M  V30 7115 H 676.196 -2.19808 -1.34322 0
M  V30 7116 H 676.154 -1.3399 -2.84419 0
M  V30 7117 N 679.926 -0.151884 -1.56866 0
M  V30 7118 C 681.174 0.497021 -1.95893 0
M  V30 7119 C 681.495 1.65078 -1.03799 0
M  V30 7120 O 680.765 1.95642 -0.10049 0
M  V30 7121 H 679.345 0.186603 -0.723318 0
M  V30 7122 H 682.007 -0.228525 -1.93556 0
M  V30 7123 H 681.103 0.869933 -2.99731 0
M  V30 7124 N 681.404 1.57128 0.121893 0
M  V30 7125 C 682.351 2.0013 1.14964 0
M  V30 7126 C 683.321 0.872959 1.4131 0
M  V30 7127 O 684.506 1.13696 1.53225 0
M  V30 7128 C 681.646 2.40824 2.4718 0
M  V30 7129 C 680.759 3.67061 2.27794 0
M  V30 7130 C 679.894 3.96749 3.53219 0
M  V30 7131 C 678.933 5.16178 3.28978 0
M  V30 7132 N 678.07 5.41751 4.46599 0
M  V30 7133 H 682.91 2.8772 0.775947 0
M  V30 7134 H 680.447 1.42328 0.371652 0
M  V30 7135 H 682.405 2.62454 3.24305 0
M  V30 7136 H 681.035 1.56279 2.82448 0
M  V30 7137 H 680.087 3.53063 1.416 0
M  V30 7138 H 681.399 4.5434 2.05857 0
M  V30 7139 H 680.553 4.19012 4.38764 0
M  V30 7140 H 679.292 3.07941 3.78185 0
M  V30 7141 H 678.297 4.93762 2.41824 0
M  V30 7142 H 679.522 6.06561 3.05386 0
M  V30 7143 H 677.468 4.55899 4.71691 0
M  V30 7144 H 677.385 6.23347 4.27756 0
M  V30 7145 H 678.653 5.68531 5.33285 0
M  V30 7146 N 682.882 -0.391992 1.52647 0
M  V30 7147 C 684.298 -0.731848 1.41831 0
M  V30 7148 C 684.498 -1.9423 0.536361 0
M  V30 7149 O 683.554 -2.52499 0.00866571 0
M  V30 7150 C 684.867 -0.969743 2.84634 0
M  V30 7151 C 686.415 -1.0714 2.94092 0
M  V30 7152 C 686.89 -1.34195 4.37899 0
M  V30 7153 N 688.381 -1.41023 4.41211 0
M  V30 7154 C 689.116 -1.63616 5.49561 0
M  V30 7155 N 688.612 -1.83699 6.68002 0
M  V30 7156 N 690.405 -1.65771 5.371 0
M  V30 7157 H 682.556 0.404547 2.08512 0
M  V30 7158 H 684.819 0.11879 0.940528 0
M  V30 7159 H 684.525 -0.152465 3.51369 0
M  V30 7160 H 684.399 -1.88523 3.26709 0
M  V30 7161 H 686.786 -1.87925 2.27526 0
M  V30 7162 H 686.867 -0.133887 2.55449 0
M  V30 7163 H 686.511 -0.539207 5.0503 0
M  V30 7164 H 686.441 -2.29226 4.74092 0
M  V30 7165 H 688.932 -1.27223 3.55841 0
M  V30 7166 H 689.245 -2.00437 7.46354 0
M  V30 7167 H 687.59 -1.8093 6.71036 0
M  V30 7168 H 690.781 -1.4963 4.43541 0
M  V30 7169 H 690.954 -1.83038 6.21612 0
M  V30 7170 N 684.36 -1.4356 -0.65026 0
M  V30 7171 C 685.771 -1.40324 -1.2315 0
M  V30 7172 C 686.122 -0.108812 -1.95898 0
M  V30 7173 O 685.247 0.79163 -2.01401 0
M  V30 7174 C 685.842 -2.54195 -2.23987 0
M  V30 7175 C 684.401 -2.54215 -2.77582 0
M  V30 7176 C 683.548 -2.31752 -1.5227 0
M  V30 7177 H 686.499 -1.52418 -0.442095 0
M  V30 7178 H 686.52 -2.25854 -3.0622 0
M  V30 7179 H 686.032 -3.48392 -1.71011 0
M  V30 7180 H 684.133 -1.63907 -3.34612 0
M  V30 7181 H 684.246 -3.52081 -3.24925 0
M  V30 7182 H 682.61 -1.80476 -1.79723 0
M  V30 7183 H 683.393 -3.28037 -1.01225 0
M  V30 7184 N 685.838 0.888903 -1.30139 0
M  V30 7185 C 686.788 1.9814 -1.12803 0
M  V30 7186 C 687.772 1.60839 -0.0443137 0
M  V30 7187 O 688.964 1.74971 -0.267208 0
M  V30 7188 C 686.093 3.33416 -0.817849 0
M  V30 7189 C 685.179 3.77043 -1.94163 0
M  V30 7190 N 685.57 3.92805 -3.18651 0
M  V30 7191 C 683.868 4.06407 -1.8371 0
M  V30 7192 C 684.569 4.29746 -3.92038 0
M  V30 7193 N 683.545 4.3939 -3.20059 0
M  V30 7194 H 687.347 2.08411 -2.07225 0
M  V30 7195 H 684.861 1.07845 -1.21421 0
M  V30 7196 H 686.858 4.11405 -0.674668 0
M  V30 7197 H 685.518 3.24484 0.118344 0
M  V30 7198 H 686.529 3.78042 -3.53984 0
M  V30 7199 H 683.206 4.05972 -0.974331 0
M  V30 7200 H 684.596 4.49695 -4.99223 0
M  V30 7201 N 687.317 1.12792 1.10072 0
M  V30 7202 C 688.249 0.757003 2.16338 0
M  V30 7203 C 689.262 -0.218144 1.61332 0
M  V30 7204 O 690.451 0.0010727 1.785 0
M  V30 7205 C 687.551 0.100303 3.38752 0
M  V30 7206 C 686.724 1.10586 4.2319 0
M  V30 7207 C 685.783 0.47609 5.24042 0
M  V30 7208 O 684.809 1.13418 5.57786 0
M  V30 7209 N 686.011 -0.754823 5.75572 0
M  V30 7210 H 688.776 1.6714 2.48766 0
M  V30 7211 H 686.337 1.02003 1.25726 0
M  V30 7212 H 688.329 -0.333092 4.03327 0
M  V30 7213 H 686.899 -0.716915 3.04268 0
M  V30 7214 H 686.119 1.71677 3.54853 0
M  V30 7215 H 687.407 1.78571 4.76435 0
M  V30 7216 H 686.805 -1.30838 5.50362 0
M  V30 7217 H 685.362 -1.13098 6.41913 0
M  V30 7218 N 688.795 -1.27931 0.920396 0
M  V30 7219 C 689.705 -2.30824 0.419212 0
M  V30 7220 C 690.721 -1.66767 -0.496461 0
M  V30 7221 O 691.897 -1.97763 -0.38104 0
M  V30 7222 C 688.962 -3.45158 -0.326601 0
M  V30 7223 C 688.023 -4.24754 0.623098 0
M  V30 7224 C 687.256 -5.33629 -0.0872172 0
M  V30 7225 O 687.479 -5.55204 -1.30784 0
M  V30 7226 O 686.413 -5.99091 0.580875 0
M  V30 7227 H 690.239 -2.75716 1.27337 0
M  V30 7228 H 687.824 -1.32747 0.685465 0
M  V30 7229 H 689.706 -4.14716 -0.747559 0
M  V30 7230 H 688.381 -3.02336 -1.15648 0
M  V30 7231 H 687.288 -3.57759 1.09359 0
M  V30 7232 H 688.621 -4.71272 1.41998 0
M  V30 7233 N 690.273 -0.685099 -1.4193 0
M  V30 7234 C 691.52 -0.211658 -2.01391 0
M  V30 7235 C 691.848 1.18526 -1.54214 0
M  V30 7236 O 691.103 1.81189 -0.739519 0
M  V30 7237 C 691.402 -0.206154 -3.56805 0
M  V30 7238 C 691.068 -1.54915 -4.23453 0
M  V30 7239 C 689.73 -1.91684 -4.41373 0
M  V30 7240 C 692.082 -2.43317 -4.60919 0
M  V30 7241 C 689.41 -3.16461 -4.94034 0
M  V30 7242 C 691.762 -3.67415 -5.14965 0
M  V30 7243 C 690.426 -4.04341 -5.31098 0
M  V30 7244 H 689.696 -0.0774511 -0.736941 0
M  V30 7245 H 692.343 -0.882121 -1.69973 0
M  V30 7246 H 690.648 0.547841 -3.87951 0
M  V30 7247 H 692.345 0.17753 -4.00607 0
M  V30 7248 H 688.935 -1.25314 -4.09871 0
M  V30 7249 H 693.119 -2.16192 -4.46738 0
M  V30 7250 H 688.375 -3.45078 -5.04709 0
M  V30 7251 H 692.549 -4.3611 -5.42938 0
M  V30 7252 H 690.176 -5.01101 -5.71666 0
M  V30 7253 N 691.751 1.51645 -0.429126 0
M  V30 7254 C 692.999 2.01616 0.139802 0
M  V30 7255 C 693.32 1.31568 1.43927 0
M  V30 7256 O 692.59 0.447688 1.90716 0
M  V30 7257 H 691.17 0.744998 0.054654 0
M  V30 7258 H 693.832 1.8638 -0.569952 0
M  V30 7259 H 692.928 3.10439 0.321609 0
M  V30 7260 N 693.229 0.160201 1.56784 0
M  V30 7261 C 694.478 -0.487619 1.95717 0
M  V30 7262 C 694.791 -1.65136 1.0483 0
M  V30 7263 O 695.997 -2.36468 1.33398 0
M  V30 7264 C 694.453 -0.91888 3.47972 0
M  V30 7265 C 694.061 0.218655 4.47466 0
M  V30 7266 C 695.805 -1.53575 3.95746 0
M  V30 7267 C 693.712 -0.231614 5.90946 0
M  V30 7268 H 692.642 -0.185939 0.730714 0
M  V30 7269 H 695.293 0.246657 1.81835 0
M  V30 7270 H 693.675 -1.70881 3.57234 0
M  V30 7271 H 694.849 0.995825 4.49911 0
M  V30 7272 H 693.164 0.744767 4.09685 0
M  V30 7273 H 695.761 -1.88448 5.00391 0
M  V30 7274 H 696.104 -2.42959 3.38048 0
M  V30 7275 H 696.637 -0.810467 3.89456 0
M  V30 7276 H 693.376 0.62718 6.52493 0
M  V30 7277 H 692.896 -0.974379 5.91833 0
M  V30 7278 H 694.575 -0.67922 6.43425 0
M  V30 7279 N 694.707 -1.5719 -0.113559 0
M  V30 7280 C 695.932 -1.89702 -0.838336 0
M  V30 7281 C 696.357 -0.752679 -1.72384 0
M  V30 7282 O 695.715 0.296575 -1.78858 0
M  V30 7283 C 695.763 -3.20989 -1.64312 0
M  V30 7284 O 694.867 -3.07278 -2.75053 0
M  V30 7285 H 694.208 -0.622339 -0.231496 0
M  V30 7286 H 696.738 -2.04382 -0.0943228 0
M  V30 7287 H 696.748 -3.53843 -2.03123 0
M  V30 7288 H 695.423 -4.03869 -0.993119 0
M  V30 7289 H 694 -2.85901 -2.39406 0
M  V30 7290 N 696.185 0.383891 -1.52853 0
M  V30 7291 C 697.41 1.154 -1.7233 0
M  V30 7292 C 697.835 1.82809 -0.44298 0
M  V30 7293 O 697.193 1.71026 0.601645 0
M  V30 7294 C 697.241 2.17386 -2.87708 0
M  V30 7295 O 696.345 3.24082 -2.55038 0
M  V30 7296 H 695.686 0.335709 -0.572883 0
M  V30 7297 H 698.216 0.44662 -1.99666 0
M  V30 7298 H 698.226 2.61296 -3.1335 0
M  V30 7299 H 696.901 1.6771 -3.80587 0
M  V30 7300 H 695.478 2.85273 -2.40153 0
M  V30 7301 N 697.663 1.43903 0.642637 0
M  V30 7302 C 698.595 1.45857 1.768 0
M  V30 7303 C 699.608 0.353358 1.58919 0
M  V30 7304 O 700.797 0.618426 1.67445 0
M  V30 7305 C 697.897 1.26583 3.14372 0
M  V30 7306 C 697.07 2.50139 3.58817 0
M  V30 7307 C 696.129 2.25933 4.75227 0
M  V30 7308 O 695.155 2.99351 4.84125 0
M  V30 7309 N 696.357 1.28263 5.66153 0
M  V30 7310 H 699.122 2.42869 1.75598 0
M  V30 7311 H 696.683 1.39194 0.826832 0
M  V30 7312 H 698.675 1.08255 3.89953 0
M  V30 7313 H 697.245 0.37978 3.10284 0
M  V30 7314 H 696.465 2.83821 2.73568 0
M  V30 7315 H 697.753 3.32344 3.8526 0
M  V30 7316 H 697.151 0.676041 5.61646 0
M  V30 7317 H 695.708 1.15916 6.4141 0
M  V30 7318 N 699.141 -0.881989 1.30609 0
M  V30 7319 C 700.389 -1.63082 1.19368 0
M  V30 7320 C 700.71 -1.93376 -0.251147 0
M  V30 7321 O 699.98 -1.5723 -1.16857 0
M  V30 7322 H 698.56 -0.604542 0.438791 0
M  V30 7323 H 701.222 -1.05658 1.63776 0
M  V30 7324 H 700.318 -2.57966 1.7567 0
M  V30 7325 N 700.619 -1.13374 -1.09472 0
M  V30 7326 C 701.859 -0.905422 -1.83252 0
M  V30 7327 C 702.223 0.558396 -1.83701 0
M  V30 7328 O 703.424 0.904254 -2.53134 0
M  V30 7329 C 701.695 -1.47658 -3.25472 0
M  V30 7330 S 703.254 -1.38825 -4.16261 0
M  V30 7331 H 700.072 -0.326371 -0.631667 0
M  V30 7332 H 702.674 -1.44517 -1.31663 0
M  V30 7333 H 701.378 -2.53533 -3.22722 0
M  V30 7334 H 700.909 -0.934756 -3.82133 0
M  V30 7335 H 702.924 -0.366379 -4.94846 0
M  V30 7336 N 702.098 1.27442 -0.927168 0
M  V30 7337 C 703.328 1.9821 -0.582775 0
M  V30 7338 C 703.736 1.69361 0.843406 0
M  V30 7339 O 703.079 0.950381 1.57205 0
M  V30 7340 C 703.141 3.52048 -0.728165 0
M  V30 7341 C 702.805 4.04518 -2.12637 0
M  V30 7342 C 703.802 4.17332 -3.10048 0
M  V30 7343 C 701.487 4.38879 -2.44317 0
M  V30 7344 C 703.481 4.6378 -4.37249 0
M  V30 7345 C 701.168 4.85018 -3.71753 0
M  V30 7346 C 702.166 4.97428 -4.68033 0
M  V30 7347 O 701.854 5.42556 -5.93202 0
M  V30 7348 H 701.586 0.639314 -0.219667 0
M  V30 7349 H 704.14 1.63272 -1.24626 0
M  V30 7350 H 702.37 3.86699 -0.00758143 0
M  V30 7351 H 704.059 4.04033 -0.388906 0
M  V30 7352 H 704.825 3.91046 -2.86894 0
M  V30 7353 H 700.704 4.28462 -1.70121 0
M  V30 7354 H 704.248 4.73382 -5.12402 0
M  V30 7355 H 700.145 5.10746 -3.94726 0
M  V30 7356 H 700.913 5.60811 -5.96182 0
M  V30 7357 N 703.576 0.692616 1.41565 0
M  V30 7358 C 704.506 0.0397325 2.33466 0
M  V30 7359 C 705.487 -0.770334 1.51657 0
M  V30 7360 O 706.672 -0.723903 1.80203 0
M  V30 7361 C 703.802 -0.899495 3.3545 0
M  V30 7362 C 702.756 -0.196738 4.27548 0
M  V30 7363 C 702.082 -1.25012 5.19881 0
M  V30 7364 C 703.382 0.935158 5.1386 0
M  V30 7365 H 705.076 0.807296 2.88311 0
M  V30 7366 H 702.622 0.389665 1.38628 0
M  V30 7367 H 704.575 -1.36545 3.98665 0
M  V30 7368 H 703.299 -1.69869 2.78948 0
M  V30 7369 H 701.958 0.249158 3.65752 0
M  V30 7370 H 701.606 -2.04177 4.59696 0
M  V30 7371 H 701.306 -0.784931 5.82334 0
M  V30 7372 H 702.83 -1.71665 5.85972 0
M  V30 7373 H 704.244 0.549619 5.70659 0
M  V30 7374 H 702.641 1.32726 5.85238 0
M  V30 7375 H 703.711 1.77613 4.512 0
M  V30 7376 N 705.054 -1.51416 0.437162 0
M  V30 7377 C 706.002 -2.29328 -0.388765 0
M  V30 7378 C 706.996 -1.35171 -1.02104 0
M  V30 7379 O 708.202 -1.52513 -0.956024 0
M  V30 7380 H 704.577 -0.738048 -0.144183 0
M  V30 7381 H 706.548 -2.96995 0.289212 0
M  V30 7382 C 705.297 -3.14741 -1.47761 0
M  V30 7383 H 704.62 -3.8708 -1.00045 0
M  V30 7384 H 706.06 -3.72313 -2.02877 0
M  V30 7385 C 704.519 -2.30105 -2.46076 0
M  V30 7386 O 705.049 -1.96055 -3.50607 0
M  V30 7387 N 703.255 -1.93331 -2.1696 0
M  V30 7388 H 702.802 -2.2122 -1.31983 0
M  V30 7389 H 702.76 -1.36999 -2.82982 0
M  V30 7390 N 706.532 -0.168513 -1.56696 0
M  V30 7391 C 707.78 0.476216 -1.96409 0
M  V30 7392 C 708.101 1.63968 -1.05544 0
M  V30 7393 O 707.371 1.95525 -0.121235 0
M  V30 7394 H 705.951 0.178921 -0.725256 0
M  V30 7395 H 708.613 -0.249042 -1.93302 0
M  V30 7396 H 707.709 0.838094 -3.00637 0
M  V30 7397 N 708.01 1.57248 0.105221 0
M  V30 7398 C 709.421 1.74612 0.660865 0
M  V30 7399 C 709.772 0.789231 1.79626 0
M  V30 7400 O 708.897 -0.0346611 2.16372 0
M  V30 7401 C 709.492 3.16624 1.20559 0
M  V30 7402 C 708.051 3.35447 1.7074 0
M  V30 7403 C 707.198 2.70445 0.612764 0
M  V30 7404 H 710.149 1.5824 -0.12079 0
M  V30 7405 H 710.17 3.18937 2.07508 0
M  V30 7406 H 709.682 3.86245 0.379012 0
M  V30 7407 H 707.783 2.7089 2.5583 0
M  V30 7408 H 707.896 4.43702 1.80736 0
M  V30 7409 H 706.26 2.32061 1.04975 0
M  V30 7410 H 707.043 3.42699 -0.203066 0
M  V30 7411 N 709.488 -0.375779 1.53054 0
M  V30 7412 C 710.735 -1.11948 1.68742 0
M  V30 7413 C 711.063 -1.89596 0.434015 0
M  V30 7414 O 710.318 -1.86787 -0.583867 0
M  V30 7415 C 710.617 -2.11356 2.88207 0
M  V30 7416 C 710.283 -1.50266 4.25124 0
M  V30 7417 C 708.945 -1.33333 4.62359 0
M  V30 7418 C 711.297 -1.05976 5.10312 0
M  V30 7419 C 708.625 -0.706765 5.82427 0
M  V30 7420 C 710.977 -0.447241 6.31017 0
M  V30 7421 C 709.641 -0.265314 6.66973 0
M  V30 7422 H 708.911 -0.409648 0.61747 0
M  V30 7423 H 711.558 -0.402492 1.87222 0
M  V30 7424 H 709.863 -2.89322 2.64197 0
M  V30 7425 H 711.56 -2.68833 2.97539 0
M  V30 7426 H 708.15 -1.64437 3.95801 0
M  V30 7427 H 712.334 -1.17855 4.82104 0
M  V30 7428 H 707.59 -0.554132 6.08884 0
M  V30 7429 H 711.764 -0.0958064 6.96334 0
M  V30 7430 H 709.391 0.222267 7.59875 0
M  V30 7431 N 710.966 -1.44241 -0.634997 0
M  V30 7432 C 711.914 -1.51103 -1.76835 0
M  V30 7433 C 712.908 -0.383051 -1.65012 0
M  V30 7434 O 714.114 -0.557832 -1.71138 0
M  V30 7435 H 710.489 -0.474076 -0.583743 0
M  V30 7436 H 712.46 -2.46499 -1.68169 0
M  V30 7437 C 711.209 -1.4687 -3.15158 0
M  V30 7438 H 710.532 -2.32979 -3.24901 0
M  V30 7439 H 711.972 -1.55731 -3.94365 0
M  V30 7440 C 710.431 -0.188884 -3.3637 0
M  V30 7441 O 710.961 0.742487 -3.94778 0
M  V30 7442 N 709.167 -0.0932516 -2.9045 0
M  V30 7443 H 708.714 -0.852004 -2.43102 0
M  V30 7444 H 708.672 0.762308 -3.05018 0
M  V30 7445 N 712.444 0.87505 -1.31075 0
M  V30 7446 C 713.669 1.66583 -1.23551 0
M  V30 7447 C 714.094 1.87067 0.19686 0
M  V30 7448 O 713.452 1.40877 1.1412 0
M  V30 7449 C 713.5 3.01401 -1.97965 0
M  V30 7450 O 712.604 3.90923 -1.31351 0
M  V30 7451 H 711.945 0.508645 -0.426821 0
M  V30 7452 H 714.475 1.09139 -1.7306 0
M  V30 7453 H 714.485 3.51374 -2.07366 0
M  V30 7454 H 713.16 2.85812 -3.02133 0
M  V30 7455 H 711.737 3.49369 -1.30368 0
M  V30 7456 N 713.922 1.13953 1.08869 0
M  V30 7457 C 714.87 0.817664 2.17754 0
M  V30 7458 C 715.864 -0.202444 1.68186 0
M  V30 7459 O 717.07 -0.0590159 1.79903 0
M  V30 7460 H 713.445 0.246671 0.710392 0
M  V30 7461 H 715.416 1.74401 2.4213 0
M  V30 7462 C 714.165 0.3063 3.46348 0
M  V30 7463 H 713.488 1.08259 3.84864 0
M  V30 7464 H 714.928 0.119584 4.23831 0
M  V30 7465 C 713.387 -0.969158 3.22659 0
M  V30 7466 O 713.917 -2.04386 3.45817 0
M  V30 7467 N 712.123 -0.902516 2.7623 0
M  V30 7468 H 711.67 -0.027801 2.57585 0
M  V30 7469 H 711.628 -1.75649 2.60758 0
M  V30 7470 N 715.4 -1.26948 0.933913 0
M  V30 7471 C 716.33 -2.29017 0.45534 0
M  V30 7472 C 717.311 -1.62961 -0.487605 0
M  V30 7473 O 718.496 -1.90223 -0.391022 0
M  V30 7474 C 715.626 -3.46112 -0.287015 0
M  V30 7475 C 714.58 -4.24205 0.568682 0
M  V30 7476 C 713.906 -5.3384 -0.303206 0
M  V30 7477 C 715.206 -4.88954 1.83633 0
M  V30 7478 H 716.9 -2.69298 1.30839 0
M  V30 7479 H 714.446 -1.29459 0.630579 0
M  V30 7480 H 716.399 -4.16622 -0.6328 0
M  V30 7481 H 715.123 -3.04765 -1.17414 0
M  V30 7482 H 713.782 -3.5545 0.897261 0
M  V30 7483 H 713.43 -4.88734 -1.18947 0
M  V30 7484 H 713.13 -5.86998 0.265879 0
M  V30 7485 H 714.654 -6.0719 -0.644423 0
M  V30 7486 H 716.068 -5.51717 1.55823 0
M  V30 7487 H 714.465 -5.52198 2.34941 0
M  V30 7488 H 715.535 -4.12305 2.55211 0
M  V30 7489 N 716.879 -0.700114 -1.41195 0
M  V30 7490 C 717.809 -0.0521132 -2.33442 0
M  V30 7491 C 718.79 0.76228 -1.52063 0
M  V30 7492 O 719.975 0.714336 -1.80585 0
M  V30 7493 C 717.105 0.881693 -3.35922 0
M  V30 7494 C 716.059 0.174062 -4.27646 0
M  V30 7495 C 715.385 1.22254 -5.20536 0
M  V30 7496 C 716.685 -0.962396 -5.13357 0
M  V30 7497 H 718.379 -0.822574 -2.87879 0
M  V30 7498 H 715.925 -0.397011 -1.38419 0
M  V30 7499 H 717.878 1.34429 -3.99383 0
M  V30 7500 H 716.602 1.68387 -2.79845 0
M  V30 7501 H 715.261 -0.268551 -3.65615 0
M  V30 7502 H 714.909 2.01736 -4.60773 0
M  V30 7503 H 714.609 0.754038 -5.82742 0
M  V30 7504 H 716.133 1.68555 -5.86874 0
M  V30 7505 H 717.547 -0.579875 -5.7036 0
M  V30 7506 H 715.944 -1.35828 -5.84526 0
M  V30 7507 H 717.014 -1.80003 -4.50252 0
M  V30 7508 N 718.357 1.51182 -0.445186 0
M  V30 7509 C 719.585 2.06568 0.117091 0
M  V30 7510 C 720 1.31182 1.35781 0
M  V30 7511 O 719.357 0.373605 1.78635 0
M  V30 7512 C 719.408 3.58917 0.431408 0
M  V30 7513 O 719.129 4.31456 -0.760078 0
M  V30 7514 C 720.63 4.30843 1.0435 0
M  V30 7515 H 717.85 0.670985 0.00444436 0
M  V30 7516 H 720.394 1.94666 -0.626525 0
M  V30 7517 H 718.549 3.70708 1.12493 0
M  V30 7518 H 718.963 5.22215 -0.489048 0
M  V30 7519 H 720.437 5.38499 1.21337 0
M  V30 7520 H 720.914 3.89644 2.02667 0
M  V30 7521 H 721.52 4.23516 0.38913 0
M  V30 7522 N 719.835 0.176821 1.56605 0
M  V30 7523 C 721.084 -0.466833 1.96223 0
M  V30 7524 C 721.397 -1.64015 1.06576 0
M  V30 7525 O 722.603 -2.3504 1.35898 0
M  V30 7526 C 721.059 -0.881921 3.48927 0
M  V30 7527 C 720.667 0.266102 4.47209 0
M  V30 7528 C 722.411 -1.49368 3.97353 0
M  V30 7529 C 720.318 -0.168923 5.91159 0
M  V30 7530 H 719.248 -0.178178 0.732645 0
M  V30 7531 H 721.899 0.265929 1.81563 0
M  V30 7532 H 720.281 -1.67082 3.59026 0
M  V30 7533 H 721.455 1.04349 4.4883 0
M  V30 7534 H 719.77 0.788178 4.08872 0
M  V30 7535 H 722.367 -1.8313 5.02362 0
M  V30 7536 H 722.71 -2.3936 3.40606 0
M  V30 7537 H 723.243 -0.769114 3.90294 0
M  V30 7538 H 719.982 0.696351 6.51791 0
M  V30 7539 H 719.502 -0.911552 5.92833 0
M  V30 7540 H 721.181 -0.610938 6.44109 0
M  V30 7541 N 721.313 -1.57302 -0.09688 0
M  V30 7542 C 722.724 -1.7496 -0.651595 0
M  V30 7543 C 723.075 -0.798746 -1.79205 0
M  V30 7544 O 722.2 0.0231858 -2.16388 0
M  V30 7545 C 722.795 -3.17259 -1.18878 0
M  V30 7546 C 721.354 -3.36348 -1.68958 0
M  V30 7547 C 720.501 -2.70766 -0.598413 0
M  V30 7548 H 723.452 -1.58173 0.12918 0
M  V30 7549 H 723.473 -3.20033 -2.05814 0
M  V30 7550 H 722.985 -3.8644 -0.358523 0
M  V30 7551 H 721.086 -2.72243 -2.5439 0
M  V30 7552 H 721.199 -4.44654 -1.7838 0
M  V30 7553 H 719.563 -2.32615 -1.03743 0
M  V30 7554 H 720.346 -3.42586 0.221238 0
M  V30 7555 N 722.791 0.367657 -1.53252 0
M  V30 7556 C 723.738 1.45028 -1.79543 0
M  V30 7557 C 724.708 1.53288 -0.63969 0
M  V30 7558 O 725.893 1.69209 -0.881653 0
M  V30 7559 C 723.033 2.82 -1.98923 0
M  V30 7560 C 722.146 2.82722 -3.26638 0
M  V30 7561 C 721.281 4.11257 -3.36216 0
M  V30 7562 C 720.32 4.06113 -4.57972 0
M  V30 7563 N 719.457 5.26293 -4.64715 0
M  V30 7564 H 724.297 1.21908 -2.71923 0
M  V30 7565 H 721.834 0.591011 -1.34705 0
M  V30 7566 H 723.792 3.61568 -2.08146 0
M  V30 7567 H 722.422 3.03523 -1.09881 0
M  V30 7568 H 721.474 1.95399 -3.26379 0
M  V30 7569 H 722.786 2.74794 -4.16281 0
M  V30 7570 H 721.94 4.99239 -3.44739 0
M  V30 7571 H 720.679 4.21935 -2.44586 0
M  V30 7572 H 719.684 3.16517 -4.49552 0
M  V30 7573 H 720.909 3.97039 -5.50942 0
M  V30 7574 H 718.855 5.37561 -3.75985 0
M  V30 7575 H 718.772 5.20526 -5.4826 0
M  V30 7576 H 720.04 6.16113 -4.77519 0
M  V30 7577 N 724.269 1.44576 0.627338 0
M  V30 7578 C 725.201 1.47724 1.75243 0
M  V30 7579 C 726.214 0.370193 1.58535 0
M  V30 7580 O 727.403 0.636151 1.66779 0
M  V30 7581 C 724.503 1.2991 3.13012 0
M  V30 7582 C 723.676 2.5393 3.56143 0
M  V30 7583 C 722.735 2.30961 4.72804 0
M  V30 7584 O 721.761 3.04469 4.80923 0
M  V30 7585 N 722.963 1.34261 5.6476 0
M  V30 7586 H 725.728 2.44718 1.73012 0
M  V30 7587 H 723.289 1.40064 0.812022 0
M  V30 7588 H 725.281 1.12385 3.88782 0
M  V30 7589 H 723.851 0.412668 3.09864 0
M  V30 7590 H 723.071 2.86707 2.70542 0
M  V30 7591 H 724.359 3.36411 3.81713 0
M  V30 7592 H 723.757 0.735573 5.60897 0
M  V30 7593 H 722.314 1.22713 6.40144 0
M  V30 7594 N 725.747 -0.868086 1.31537 0
M  V30 7595 C 727.163 -1.15414 1.10235 0
M  V30 7596 C 727.363 -2.01106 -0.125947 0
M  V30 7597 O 726.419 -2.38994 -0.814734 0
M  V30 7598 C 727.732 -1.84445 2.37488 0
M  V30 7599 C 729.28 -1.97139 2.43116 0
M  V30 7600 C 729.755 -2.69585 3.70254 0
M  V30 7601 N 731.246 -2.77119 3.71159 0
M  V30 7602 C 731.981 -3.33791 4.6623 0
M  V30 7603 N 731.477 -3.9138 5.71659 0
M  V30 7604 N 733.27 -3.31767 4.53747 0
M  V30 7605 H 725.421 -0.297109 2.10312 0
M  V30 7606 H 727.684 -0.194227 0.92789 0
M  V30 7607 H 727.39 -1.2893 3.27215 0
M  V30 7608 H 727.264 -2.84709 2.47428 0
M  V30 7609 H 729.651 -2.51818 1.53856 0
M  V30 7610 H 729.732 -0.95912 2.37138 0
M  V30 7611 H 729.376 -2.15572 4.59881 0
M  V30 7612 H 729.306 -3.71223 3.73499 0
M  V30 7613 H 731.797 -2.3625 2.94948 0
M  V30 7614 H 732.11 -4.3274 6.40278 0
M  V30 7615 H 730.455 -3.8975 5.7543 0
M  V30 7616 H 733.646 -2.86016 3.70557 0
M  V30 7617 H 733.819 -3.75636 5.28017 0
M  V30 7618 N 727.225 -1.14528 -1.08264 0
M  V30 7619 C 728.45 -0.938381 -1.84957 0
M  V30 7620 C 728.875 0.508044 -1.81109 0
M  V30 7621 O 728.233 1.36146 -1.19724 0
M  V30 7622 C 728.281 -1.44568 -3.30352 0
M  V30 7623 O 727.385 -0.638745 -4.07423 0
M  V30 7624 H 726.726 -0.335394 -0.573068 0
M  V30 7625 H 729.256 -1.52287 -1.36637 0
M  V30 7626 H 729.266 -1.45449 -3.81194 0
M  V30 7627 H 727.941 -2.49876 -3.32468 0
M  V30 7628 H 726.518 -0.698801 -3.66294 0
M  V30 7629 N 728.703 1.26451 -0.940633 0
M  V30 7630 C 729.928 1.98407 -0.60412 0
M  V30 7631 C 730.353 1.69584 0.81382 0
M  V30 7632 O 729.711 0.943553 1.54812 0
M  V30 7633 C 729.759 3.50387 -0.852136 0
M  V30 7634 O 728.863 4.1233 0.076013 0
M  V30 7635 H 728.204 0.622466 -0.231153 0
M  V30 7636 H 730.734 1.60932 -1.26342 0
M  V30 7637 H 730.744 4.00614 -0.772816 0
M  V30 7638 H 729.419 3.70696 -1.88566 0
M  V30 7639 H 727.996 3.7286 -0.0543187 0
M  V30 7640 N 730.181 0.707592 1.40822 0
M  V30 7641 C 731.406 0.251626 2.05868 0
M  V30 7642 C 731.831 -1.09503 1.5294 0
M  V30 7643 O 731.189 -1.68806 0.661385 0
M  V30 7644 C 731.237 0.23287 3.59847 0
M  V30 7645 O 730.341 -0.788477 4.04792 0
M  V30 7646 H 729.682 0.119936 0.653078 0
M  V30 7647 H 732.212 0.96583 1.80369 0
M  V30 7648 H 732.222 0.0678204 4.07944 0
M  V30 7649 H 730.897 1.21565 3.97737 0
M  V30 7650 H 729.474 -0.591802 3.68174 0
M  V30 7651 N 731.66 -1.50943 0.453197 0
M  V30 7652 C 732.906 -2.02512 -0.108082 0
M  V30 7653 C 733.239 -1.33574 -1.40967 0
M  V30 7654 O 732.514 -0.455671 -1.89087 0
M  V30 7655 C 732.797 -3.58759 -0.310453 0
M  V30 7656 C 732.65 -4.38293 1.0109 0
M  V30 7657 C 733.969 -4.26816 -1.07313 0
M  V30 7658 H 731.088 -0.73603 -0.0378064 0
M  V30 7659 H 733.73 -1.80433 0.595295 0
M  V30 7660 H 731.88 -3.77702 -0.909582 0
M  V30 7661 H 733.552 -4.30964 1.64523 0
M  V30 7662 H 731.795 -4.02745 1.61179 0
M  V30 7663 H 732.466 -5.45828 0.82315 0
M  V30 7664 H 734.942 -4.1224 -0.565473 0
M  V30 7665 H 733.818 -5.35989 -1.1835 0
M  V30 7666 H 734.079 -3.88757 -2.10525 0
M  V30 7667 N 733.138 -0.185124 -1.56509 0
M  V30 7668 C 734.363 0.465278 -2.02114 0
M  V30 7669 C 734.788 1.55083 -1.06447 0
M  V30 7670 O 734.146 1.81241 -0.0462852 0
M  V30 7671 C 734.194 1.00784 -3.46229 0
M  V30 7672 O 733.298 2.12123 -3.53663 0
M  V30 7673 H 732.639 0.109891 -0.654843 0
M  V30 7674 H 735.169 -0.293072 -2.0249 0
M  V30 7675 H 735.179 1.32697 -3.85818 0
M  V30 7676 H 733.854 0.213113 -4.15354 0
M  V30 7677 H 732.431 1.8115 -3.25943 0
M  V30 7678 N 734.616 1.57351 0.0885366 0
M  V30 7679 C 735.546 2.05561 1.10757 0
M  V30 7680 C 736.527 0.945789 1.41382 0
M  V30 7681 O 737.712 1.21747 1.51299 0
M  V30 7682 C 734.842 2.48554 2.42566 0
M  V30 7683 C 733.796 3.63259 2.26334 0
M  V30 7684 C 733.122 3.9225 3.63378 0
M  V30 7685 C 734.422 4.93913 1.69844 0
M  V30 7686 H 736.116 2.90946 0.706468 0
M  V30 7687 H 733.662 1.39968 0.338385 0
M  V30 7688 H 735.615 2.8089 3.14132 0
M  V30 7689 H 734.339 1.60176 2.84625 0
M  V30 7690 H 732.998 3.31179 1.57213 0
M  V30 7691 H 732.646 3.0103 4.02976 0
M  V30 7692 H 732.346 4.69478 3.53362 0
M  V30 7693 H 733.87 4.27067 4.36401 0
M  V30 7694 H 735.284 5.24588 2.31258 0
M  V30 7695 H 733.681 5.75349 1.70569 0
M  V30 7696 H 734.751 4.80409 0.65843 0
M  V30 7697 N 736.094 -0.359525 1.53444 0
M  V30 7698 C 737.322 -1.12198 1.73837 0
M  V30 7699 C 737.737 -1.82854 0.470107 0
M  V30 7700 O 737.094 -1.73781 -0.557349 0
M  V30 7701 C 737.145 -2.14769 2.90786 0
M  V30 7702 O 736.866 -1.46989 4.12706 0
M  V30 7703 C 738.367 -3.03514 3.231 0
M  V30 7704 H 735.587 -0.33524 0.581253 0
M  V30 7705 H 738.131 -0.416598 2.00212 0
M  V30 7706 H 736.286 -2.80896 2.66788 0
M  V30 7707 H 736.7 -2.15378 4.78239 0
M  V30 7708 H 738.174 -3.71453 4.08322 0
M  V30 7709 H 738.651 -3.68658 2.38721 0
M  V30 7710 H 739.257 -2.42996 3.49046 0
M  V30 7711 N 737.572 -1.44907 -0.619662 0
M  V30 7712 C 738.522 -1.49085 -1.72504 0
M  V30 7713 C 739.506 -0.355372 -1.56926 0
M  V30 7714 O 740.698 -0.601441 -1.66468 0
M  V30 7715 C 737.827 -1.44889 -3.11227 0
M  V30 7716 C 736.913 -2.63593 -3.32234 0
M  V30 7717 N 737.304 -3.88775 -3.23555 0
M  V30 7718 C 735.602 -2.59033 -3.63067 0
M  V30 7719 C 736.303 -4.67932 -3.45564 0
M  V30 7720 N 735.279 -3.9919 -3.68983 0
M  V30 7721 H 739.081 -2.43706 -1.6427 0
M  V30 7722 H 736.595 -1.4003 -0.82252 0
M  V30 7723 H 738.592 -1.45966 -3.90512 0
M  V30 7724 H 737.252 -0.513143 -3.2062 0
M  V30 7725 H 738.263 -4.20574 -3.02221 0
M  V30 7726 H 734.94 -1.7431 -3.79371 0
M  V30 7727 H 736.33 -5.76952 -3.44349 0
M  V30 7728 N 739.05 0.861098 -1.31996 0
M  V30 7729 C 740 1.95703 -1.1698 0
M  V30 7730 C 740.984 1.60709 -0.0784201 0
M  V30 7731 O 742.176 1.74365 -0.304262 0
M  V30 7732 C 739.305 3.31606 -0.888388 0
M  V30 7733 C 738.391 3.7284 -2.02117 0
M  V30 7734 N 738.782 3.85957 -3.26911 0
M  V30 7735 C 737.08 4.02419 -1.92289 0
M  V30 7736 C 737.781 4.21333 -4.01065 0
M  V30 7737 N 736.757 4.32502 -3.29307 0
M  V30 7738 H 740.559 2.03968 -2.11599 0
M  V30 7739 H 738.073 1.05245 -1.23682 0
M  V30 7740 H 740.07 4.09881 -0.761782 0
M  V30 7741 H 738.73 3.24662 0.0494898 0
M  V30 7742 H 739.741 3.70449 -3.61923 0
M  V30 7743 H 736.418 4.03814 -1.06022 0
M  V30 7744 H 737.808 4.39005 -5.08649 0
M  V30 7745 N 740.528 1.15101 1.07655 0
M  V30 7746 C 741.774 0.925343 1.80458 0
M  V30 7747 C 742.107 -0.546354 1.86356 0
M  V30 7748 O 741.382 -1.40496 1.34503 0
M  V30 7749 C 741.665 1.53646 3.25676 0
M  V30 7750 C 741.518 3.07854 3.27942 0
M  V30 7751 C 742.837 1.21968 4.22861 0
M  V30 7752 H 739.956 0.337592 0.655134 0
M  V30 7753 H 742.598 1.42217 1.25993 0
M  V30 7754 H 740.748 1.11395 3.72187 0
M  V30 7755 H 742.42 3.58989 2.89697 0
M  V30 7756 H 740.663 3.41904 2.66991 0
M  V30 7757 H 741.334 3.45725 4.30324 0
M  V30 7758 H 743.81 1.5851 3.84726 0
M  V30 7759 H 742.686 1.67349 5.22767 0
M  V30 7760 H 742.947 0.136207 4.4189 0
M  V30 7761 N 742.006 -1.2595 0.947325 0
M  V30 7762 C 743.254 -1.93081 0.596996 0
M  V30 7763 C 743.575 -1.74632 -0.867672 0
M  V30 7764 O 742.845 -1.1056 -1.6172 0
M  V30 7765 H 741.425 -0.714542 0.217805 0
M  V30 7766 H 744.087 -1.53265 1.20398 0
M  V30 7767 H 743.183 -3.01134 0.82004 0
M  V30 7768 N 743.484 -0.715051 -1.40445 0
M  V30 7769 C 744.414 -0.0768699 -2.33373 0
M  V30 7770 C 745.395 0.746109 -1.52863 0
M  V30 7771 O 746.58 0.695142 -1.81332 0
M  V30 7772 C 743.71 0.846014 -3.36838 0
M  V30 7773 C 742.664 0.128694 -4.27806 0
M  V30 7774 C 741.99 1.16726 -5.21804 0
M  V30 7775 C 743.29 -1.01679 -5.12307 0
M  V30 7776 H 744.984 -0.853061 -2.8699 0
M  V30 7777 H 742.53 -0.41167 -1.3799 0
M  V30 7778 H 744.483 1.30185 -4.00786 0
M  V30 7779 H 743.207 1.6541 -2.81615 0
M  V30 7780 H 741.866 -0.307314 -3.6531 0
M  V30 7781 H 741.514 1.96838 -4.62887 0
M  V30 7782 H 741.214 0.692188 -5.83509 0
M  V30 7783 H 742.738 1.62321 -5.88629 0
M  V30 7784 H 744.152 -0.640337 -5.69713 0
M  V30 7785 H 742.549 -1.4202 -5.83053 0
M  V30 7786 H 743.619 -1.84769 -4.48317 0
M  V30 7787 N 744.962 1.50701 -0.461195 0
M  V30 7788 C 746.378 1.59187 -0.114786 0
M  V30 7789 C 746.578 1.4702 1.37794 0
M  V30 7790 O 745.634 1.32361 2.15027 0
M  V30 7791 C 746.947 2.93453 -0.656167 0
M  V30 7792 C 748.495 3.06824 -0.618715 0
M  V30 7793 C 748.97 4.4365 -1.13747 0
M  V30 7794 N 750.461 4.50035 -1.09646 0
M  V30 7795 C 751.196 5.54278 -1.46846 0
M  V30 7796 N 750.692 6.65822 -1.91448 0
M  V30 7797 N 752.485 5.44767 -1.38512 0
M  V30 7798 H 744.636 1.56853 -1.43216 0
M  V30 7799 H 746.899 0.740712 -0.59165 0
M  V30 7800 H 746.605 3.07802 -1.7015 0
M  V30 7801 H 746.479 3.77082 -0.0942261 0
M  V30 7802 H 748.866 2.92129 0.417685 0
M  V30 7803 H 748.947 2.24976 -1.21734 0
M  V30 7804 H 748.591 4.59093 -2.17245 0
M  V30 7805 H 748.521 5.24074 -0.515153 0
M  V30 7806 H 751.012 3.69988 -0.769217 0
M  V30 7807 H 751.325 7.41413 -2.18007 0
M  V30 7808 H 749.67 6.66968 -1.95393 0
M  V30 7809 H 752.861 4.56511 -1.03516 0
M  V30 7810 H 753.034 6.25889 -1.6783 0
M  V30 7811 N 746.441 0.193421 1.56409 0
M  V30 7812 C 747.857 -0.162447 1.58771 0
M  V30 7813 C 748.057 -1.6116 1.20954 0
M  V30 7814 O 747.113 -2.3469 0.931497 0
M  V30 7815 C 748.426 0.138391 3.00381 0
M  V30 7816 C 749.974 0.0783649 3.12902 0
M  V30 7817 C 750.449 0.352491 4.56642 0
M  V30 7818 N 751.94 0.30105 4.62221 0
M  V30 7819 C 752.675 0.487028 5.71328 0
M  V30 7820 N 752.171 0.733265 6.88909 0
M  V30 7821 N 753.964 0.4214 5.60518 0
M  V30 7822 H 746.115 1.13909 1.79272 0
M  V30 7823 H 748.378 0.454528 0.83193 0
M  V30 7824 H 748.084 1.14312 3.32604 0
M  V30 7825 H 747.958 -0.559804 3.73023 0
M  V30 7826 H 750.345 -0.916963 2.80492 0
M  V30 7827 H 750.426 0.809611 2.4265 0
M  V30 7828 H 750.07 1.34513 4.89764 0
M  V30 7829 H 750 -0.399624 5.25081 0
M  V30 7830 H 752.491 0.117279 3.77718 0
M  V30 7831 H 752.804 0.86403 7.67955 0
M  V30 7832 H 751.149 0.770138 6.9072 0
M  V30 7833 H 754.34 0.229461 4.67537 0
M  V30 7834 H 754.513 0.569758 6.4549 0
M  V30 7835 N 747.919 -1.57396 -0.0801906 0
M  V30 7836 C 748.882 -2.02133 -1.0805 0
M  V30 7837 C 749.882 -0.91707 -1.32085 0
M  V30 7838 O 751.072 -1.18217 -1.27947 0
M  V30 7839 C 748.204 -2.39479 -2.42616 0
M  V30 7840 H 749.397 -2.91733 -0.6951 0
M  V30 7841 H 746.95 -1.52869 -0.325677 0
M  V30 7842 H 747.685 -1.52879 -2.86004 0
M  V30 7843 H 747.47 -3.20052 -2.26515 0
M  V30 7844 H 748.96 -2.74697 -3.14534 0
M  V30 7845 N 749.397 0.351382 -1.53633 0
M  V30 7846 C 750.645 1.09034 -1.70165 0
M  V30 7847 C 750.966 1.89413 -0.463422 0
M  V30 7848 O 750.236 1.888 0.522624 0
M  V30 7849 H 748.816 0.405522 -0.627344 0
M  V30 7850 H 751.478 0.394554 -1.90865 0
M  V30 7851 H 750.574 1.77215 -2.56907 0
M  V30 7852 N 750.875 1.45233 0.611969 0
M  V30 7853 C 752.121 1.49242 1.37312 0
M  V30 7854 C 752.454 0.131963 1.93751 0
M  V30 7855 O 751.729 -0.852999 1.74798 0
M  V30 7856 C 752.012 2.56811 2.52428 0
M  V30 7857 C 751.865 4.02284 2.01215 0
M  V30 7858 C 753.184 2.60705 3.54572 0
M  V30 7859 H 750.303 0.54336 0.497925 0
M  V30 7860 H 752.945 1.77019 0.690242 0
M  V30 7861 H 751.095 2.33256 3.10683 0
M  V30 7862 H 752.767 4.37035 1.47643 0
M  V30 7863 H 751.01 4.1315 1.32248 0
M  V30 7864 H 751.681 4.7323 2.84178 0
M  V30 7865 H 754.157 2.81799 3.06151 0
M  V30 7866 H 753.033 3.37841 4.32614 0
M  V30 7867 H 753.294 1.65627 4.09903 0
M  V30 7868 N 752.353 -0.854086 1.3245 0
M  V30 7869 C 753.283 -1.97827 1.24044 0
M  V30 7870 C 754.264 -1.69646 0.124166 0
M  V30 7871 O 755.449 -1.91687 0.31143 0
M  V30 7872 C 752.579 -3.33673 0.963324 0
M  V30 7873 C 751.533 -3.76207 2.04089 0
M  V30 7874 C 750.859 -5.0969 1.61618 0
M  V30 7875 C 752.159 -3.91612 3.45597 0
M  V30 7876 H 753.853 -2.05118 2.18099 0
M  V30 7877 H 751.399 -0.985489 1.04996 0
M  V30 7878 H 753.352 -4.11871 0.891061 0
M  V30 7879 H 752.076 -3.26597 -0.0128649 0
M  V30 7880 H 750.735 -3.0026 2.10332 0
M  V30 7881 H 750.383 -4.99072 0.627418 0
M  V30 7882 H 750.083 -5.3912 2.33717 0
M  V30 7883 H 751.607 -5.90381 1.55829 0
M  V30 7884 H 753.021 -4.60163 3.4194 0
M  V30 7885 H 751.418 -4.3246 4.16051 0
M  V30 7886 H 752.488 -2.9451 3.85217 0
M  V30 7887 N 753.831 -1.1567 -1.07043 0
M  V30 7888 C 755.056 -0.957946 -1.83952 0
M  V30 7889 C 755.481 0.488807 -1.81638 0
M  V30 7890 O 754.839 1.34869 -1.21162 0
M  V30 7891 C 754.887 -1.48064 -3.288 0
M  V30 7892 O 753.991 -0.681921 -4.06723 0
M  V30 7893 H 753.332 -0.341453 -0.569479 0
M  V30 7894 H 755.862 -1.53728 -1.35015 0
M  V30 7895 H 755.872 -1.49484 -3.7963 0
M  V30 7896 H 754.547 -2.53388 -3.29799 0
M  V30 7897 H 753.124 -0.737612 -3.65532 0
M  V30 7898 N 755.309 1.25446 -0.953992 0
M  V30 7899 C 756.534 1.97755 -0.625129 0
M  V30 7900 C 756.959 1.70437 0.795787 0
M  V30 7901 O 756.317 0.95992 1.53803 0
M  V30 7902 C 756.365 3.49463 -0.889251 0
M  V30 7903 O 755.469 4.12387 0.0322757 0
M  V30 7904 H 754.81 0.61998 -0.237742 0
M  V30 7905 H 757.34 1.59582 -1.28041 0
M  V30 7906 H 757.35 3.99772 -0.815263 0
M  V30 7907 H 756.025 3.68676 -1.92487 0
M  V30 7908 H 754.602 3.72782 -0.0938625 0
M  V30 7909 N 756.787 0.722489 1.40064 0
M  V30 7910 C 757.717 0.0892452 2.33329 0
M  V30 7911 C 758.698 -0.737992 1.53257 0
M  V30 7912 O 759.883 -0.685516 1.81698 0
M  V30 7913 C 757.013 -0.828139 3.37282 0
M  V30 7914 C 755.967 -0.106005 4.27869 0
M  V30 7915 C 755.293 -1.13957 5.22415 0
M  V30 7916 C 756.593 1.04395 5.11761 0
M  V30 7917 H 758.287 0.868269 2.86534 0
M  V30 7918 H 755.833 0.418982 1.3777 0
M  V30 7919 H 757.786 -1.28058 4.01471 0
M  V30 7920 H 756.51 -1.63914 2.82489 0
M  V30 7921 H 755.169 0.326683 3.65142 0
M  V30 7922 H 754.817 -1.9438 4.63924 0
M  V30 7923 H 754.517 -0.661233 5.83868 0
M  V30 7924 H 756.041 -1.59197 5.89482 0
M  V30 7925 H 757.455 0.670541 5.69365 0
M  V30 7926 H 755.852 1.4511 5.82291 0
M  V30 7927 H 756.922 1.87144 4.47331 0
M  V30 7928 N 758.265 -1.50454 0.469181 0
M  V30 7929 C 759.49 -2.0722 -0.0864892 0
M  V30 7930 C 759.915 -1.33098 -1.32916 0
M  V30 7931 O 759.273 -0.378084 -1.77314 0
M  V30 7932 C 759.321 -3.58845 -0.355384 0
M  V30 7933 O 758.425 -3.86583 -1.43622 0
M  V30 7934 H 757.766 -0.663889 0.0121414 0
M  V30 7935 H 760.296 -1.93674 0.659674 0
M  V30 7936 H 760.306 -4.03617 -0.596447 0
M  V30 7937 H 758.981 -4.12211 0.552698 0
M  V30 7938 H 757.558 -3.5365 -1.18262 0
M  V30 7939 N 759.743 -0.201713 -1.56304 0
M  V30 7940 C 761.154 0.309711 -1.84113 0
M  V30 7941 C 761.505 1.60912 -1.12258 0
M  V30 7942 O 760.63 2.12937 -0.385587 0
M  V30 7943 C 761.225 0.568706 -3.33993 0
M  V30 7944 C 759.784 1.02448 -3.6219 0
M  V30 7945 C 758.931 0.0766842 -2.77194 0
M  V30 7946 H 761.882 -0.425356 -1.52893 0
M  V30 7947 H 761.903 1.41721 -3.53122 0
M  V30 7948 H 761.415 -0.37719 -3.86263 0
M  V30 7949 H 759.516 1.98443 -3.15359 0
M  V30 7950 H 759.629 0.912619 -4.70328 0
M  V30 7951 H 757.993 0.579809 -2.48013 0
M  V30 7952 H 758.776 -0.863774 -3.32256 0
M  V30 7953 N 761.222 1.57436 0.0718424 0
M  V30 7954 C 762.468 1.87525 0.772149 0
M  V30 7955 C 762.801 0.79399 1.77227 0
M  V30 7956 O 762.076 -0.195733 1.93513 0
M  V30 7957 C 762.359 3.28272 1.48018 0
M  V30 7958 C 762.212 4.47052 0.49647 0
M  V30 7959 C 763.531 3.67256 2.42509 0
M  V30 7960 H 760.65 0.682049 0.279245 0
M  V30 7961 H 763.292 1.89967 0.03534 0
M  V30 7962 H 761.442 3.26321 2.10824 0
M  V30 7963 H 763.114 4.61127 -0.126375 0
M  V30 7964 H 761.357 4.33392 -0.188205 0
M  V30 7965 H 762.028 5.42315 1.02949 0
M  V30 7966 H 764.504 3.70301 1.89781 0
M  V30 7967 H 763.38 4.66626 2.89053 0
M  V30 7968 H 763.641 2.97186 3.27312 0
M  V30 7969 N 762.7 -0.34323 1.53817 0
M  V30 7970 C 763.648 -1.44176 1.82527 0
M  V30 7971 C 764.642 -1.54452 0.695772 0
M  V30 7972 O 765.848 -1.57072 0.879114 0
M  V30 7973 H 762.223 -0.480729 0.578277 0
M  V30 7974 H 764.194 -1.17176 2.74431 0
M  V30 7975 C 762.943 -2.80695 2.05197 0
M  V30 7976 H 762.266 -2.73554 2.91561 0
M  V30 7977 H 763.706 -3.56679 2.29251 0
M  V30 7978 C 762.165 -3.26322 0.837589 0
M  V30 7979 O 762.695 -4.01683 0.0371631 0
M  V30 7980 N 760.901 -2.83128 0.654724 0
M  V30 7981 H 760.448 -2.21965 1.30725 0
M  V30 7982 H 760.406 -3.14011 -0.156345 0
M  V30 7983 N 764.178 -1.45556 -0.604258 0
M  V30 7984 C 765.403 -1.53509 -1.39462 0
M  V30 7985 C 765.828 -0.169638 -1.87333 0
M  V30 7986 O 765.186 0.846346 -1.60333 0
M  V30 7987 C 765.234 -2.52654 -2.5729 0
M  V30 7988 O 764.338 -2.04666 -3.5803 0
M  V30 7989 H 763.679 -0.517355 -0.416221 0
M  V30 7990 H 766.209 -1.90939 -0.735072 0
M  V30 7991 H 766.219 -2.71568 -3.04491 0
M  V30 7992 H 764.894 -3.51823 -2.21797 0
M  V30 7993 H 763.471 -1.95643 -3.17456 0
M  V30 7994 N 765.656 0.84705 -1.32902 0
M  V30 7995 C 766.881 1.63925 -1.27056 0
M  V30 7996 C 767.306 1.87443 0.157136 0
M  V30 7997 O 766.664 1.43266 1.11106 0
M  V30 7998 C 766.712 2.97134 -2.04313 0
M  V30 7999 O 765.816 3.88049 -1.39614 0
M  V30 8000 H 765.157 0.499477 -0.437514 0
M  V30 8001 H 767.687 1.05443 -1.75336 0
M  V30 8002 H 767.697 3.46896 -2.14772 0
M  V30 8003 H 766.372 2.79339 -3.08128 0
M  V30 8004 H 764.949 3.46525 -1.3775 0
M  V30 8005 N 767.134 1.16236 1.06428 0
M  V30 8006 C 768.082 0.863669 2.15971 0
M  V30 8007 C 769.076 -0.166723 1.68578 0
M  V30 8008 O 770.282 -0.0208425 1.79988 0
M  V30 8009 H 766.657 0.261684 0.705 0
M  V30 8010 H 768.628 1.79498 2.38376 0
M  V30 8011 C 767.377 0.379697 3.45621 0
M  V30 8012 H 766.7 1.16399 3.82481 0
M  V30 8013 H 768.14 0.209458 4.23482 0
M  V30 8014 C 766.599 -0.900499 3.24642 0
M  V30 8015 O 767.129 -1.97004 3.50074 0
M  V30 8016 N 765.335 -0.843721 2.78082 0
M  V30 8017 H 764.882 0.0268429 2.57586 0
M  V30 8018 H 764.84 -1.70078 2.64425 0
M  V30 8019 N 768.612 -1.24939 0.960631 0
M  V30 8020 C 769.562 -2.23388 0.456266 0
M  V30 8021 C 770.546 -1.54249 -0.45782 0
M  V30 8022 O 771.738 -1.7461 -0.289894 0
M  V30 8023 C 768.867 -3.42321 -0.259024 0
M  V30 8024 C 767.953 -4.18718 0.673478 0
M  V30 8025 N 768.344 -4.72394 1.8077 0
M  V30 8026 C 766.642 -4.43378 0.482859 0
M  V30 8027 C 767.343 -5.30316 2.3904 0
M  V30 8028 N 766.319 -5.17109 1.67629 0
M  V30 8029 H 770.121 -2.62499 1.32179 0
M  V30 8030 H 767.635 -1.40245 0.818851 0
M  V30 8031 H 769.632 -4.11997 -0.637527 0
M  V30 8032 H 768.292 -3.04732 -1.12108 0
M  V30 8033 H 769.303 -4.69345 2.18942 0
M  V30 8034 H 765.98 -4.16147 -0.335821 0
M  V30 8035 H 767.37 -5.82594 3.34715 0
M  V30 8036 N 770.09 -0.729906 -1.39679 0
M  V30 8037 C 771.338 -0.275077 -2.00219 0
M  V30 8038 C 771.659 1.1401 -1.58199 0
M  V30 8039 O 770.929 1.77546 -0.827904 0
M  V30 8040 H 769.509 -0.0987127 -0.740449 0
M  V30 8041 H 772.171 -0.93873 -1.70804 0
M  V30 8042 H 771.267 -0.319446 -3.10461 0
M  V30 8043 N 771.568 1.50203 -0.477153 0
M  V30 8044 C 772.979 1.86685 -0.0235041 0
M  V30 8045 C 773.33 1.39148 1.38319 0
M  V30 8046 O 772.455 0.759051 2.02651 0
M  V30 8047 C 773.05 3.38781 -0.0358767 0
M  V30 8048 C 771.609 3.74652 0.362327 0
M  V30 8049 C 770.756 2.7412 -0.41875 0
M  V30 8050 H 773.707 1.4286 -0.691133 0
M  V30 8051 H 773.728 3.72732 0.764924 0
M  V30 8052 H 773.24 3.73349 -1.05981 0
M  V30 8053 H 771.341 3.45686 1.39039 0
M  V30 8054 H 771.454 4.79063 0.059457 0
M  V30 8055 H 769.818 2.54376 0.128341 0
M  V30 8056 H 770.601 3.11532 -1.44231 0
M  V30 8057 N 773.046 0.209999 1.56195 0
M  V30 8058 C 774.292 -0.425442 1.98287 0
M  V30 8059 C 774.625 -1.60232 1.09724 0
M  V30 8060 O 773.9 -1.93902 0.152414 0
M  V30 8061 C 774.183 -0.871189 3.49403 0
M  V30 8062 C 774.036 0.308527 4.48741 0
M  V30 8063 C 775.355 -1.73146 4.04609 0
M  V30 8064 H 772.474 -0.153169 0.720908 0
M  V30 8065 H 775.116 0.303916 1.87554 0
M  V30 8066 H 773.266 -1.49266 3.58681 0
M  V30 8067 H 774.938 0.946487 4.51486 0
M  V30 8068 H 773.181 0.957878 4.23092 0
M  V30 8069 H 773.852 -0.0461143 5.51981 0
M  V30 8070 H 776.328 -1.2072 3.98203 0
M  V30 8071 H 775.204 -2.01228 5.10684 0
M  V30 8072 H 775.465 -2.69083 3.5078 0
M  V30 8073 N 774.524 -1.57472 -0.0634922 0
M  V30 8074 C 775.749 -1.92273 -0.77756 0
M  V30 8075 C 776.174 -0.807141 -1.69902 0
M  V30 8076 O 775.532 0.239523 -1.79711 0
M  V30 8077 C 775.58 -3.26054 -1.54017 0
M  V30 8078 O 774.684 -3.15873 -2.65138 0
M  V30 8079 H 774.025 -0.629389 -0.211579 0
M  V30 8080 H 776.555 -2.04579 -0.0292523 0
M  V30 8081 H 776.565 -3.60127 -1.91763 0
M  V30 8082 H 775.24 -4.06824 -0.864128 0
M  V30 8083 H 773.817 -2.93373 -2.30189 0
M  V30 8084 N 776.003 0.335068 -1.53997 0
M  V30 8085 C 777.231 1.09418 -1.756 0
M  V30 8086 C 777.646 1.82083 -0.499138 0
M  V30 8087 O 777.003 1.74646 0.529631 0
M  V30 8088 C 777.054 2.10115 -2.94166 0
M  V30 8089 O 776.775 1.40404 -4.14992 0
M  V30 8090 C 778.276 2.98336 -3.27888 0
M  V30 8091 H 775.496 0.32595 -0.586513 0
M  V30 8092 H 778.04 0.384693 -2.00849 0
M  V30 8093 H 776.195 2.76616 -2.71224 0
M  V30 8094 H 776.609 2.07743 -4.81605 0
M  V30 8095 H 778.083 3.6491 -4.1418 0
M  V30 8096 H 778.56 3.64814 -2.44556 0
M  V30 8097 H 779.166 2.37412 -3.52868 0
M  V30 8098 N 777.481 1.45874 0.596531 0
M  V30 8099 C 778.729 1.5017 1.35253 0
M  V30 8100 C 779.05 0.149246 1.94428 0
M  V30 8101 O 778.32 -0.82268 1.77789 0
M  V30 8102 H 776.9 0.553052 0.502138 0
M  V30 8103 H 779.562 1.81908 0.699671 0
M  V30 8104 H 778.658 2.24671 2.16632 0
M  V30 8105 N 778.959 -0.83999 1.33349 0
M  V30 8106 C 780.184 -1.63249 1.27924 0
M  V30 8107 C 780.609 -1.87523 -0.147193 0
M  V30 8108 O 779.967 -1.43853 -1.10345 0
M  V30 8109 C 780.015 -2.96046 2.05886 0
M  V30 8110 O 779.119 -3.87303 1.4167 0
M  V30 8111 H 778.46 -0.49715 0.440157 0
M  V30 8112 H 780.99 -1.04512 1.75893 0
M  V30 8113 H 781 -3.45752 2.16609 0
M  V30 8114 H 779.675 -2.77701 3.09605 0
M  V30 8115 H 778.252 -3.45789 1.39585 0
M  V30 8116 N 780.437 -1.16799 -1.0581 0
M  V30 8117 C 781.367 -0.902241 -2.15364 0
M  V30 8118 C 782.348 0.153351 -1.69407 0
M  V30 8119 O 783.533 0.00442032 -1.94199 0
M  V30 8120 C 780.663 -0.407911 -3.44896 0
M  V30 8121 C 779.617 -1.40197 -4.04387 0
M  V30 8122 C 778.943 -0.765848 -5.29187 0
M  V30 8123 C 780.243 -2.77316 -4.42598 0
M  V30 8124 H 781.937 -1.81841 -2.37853 0
M  V30 8125 H 779.483 -0.875731 -1.14311 0
M  V30 8126 H 781.436 -0.20945 -4.20879 0
M  V30 8127 H 780.16 0.54378 -3.22041 0
M  V30 8128 H 778.819 -1.58707 -3.30466 0
M  V30 8129 H 778.467 0.192482 -5.02632 0
M  V30 8130 H 778.167 -1.42939 -5.69949 0
M  V30 8131 H 779.691 -0.577519 -6.07863 0
M  V30 8132 H 781.105 -2.62561 -5.09642 0
M  V30 8133 H 779.502 -3.4019 -4.94359 0
M  V30 8134 H 780.572 -3.32199 -3.53231 0
M  V30 8135 N 781.915 1.24427 -0.967243 0
M  V30 8136 C 783.143 1.96541 -0.646477 0
M  V30 8137 C 783.558 1.71753 0.783996 0
M  V30 8138 O 782.915 1.00102 1.52597 0
M  V30 8139 C 782.966 3.4983 -0.911098 0
M  V30 8140 O 782.687 3.7377 -2.28534 0
M  V30 8141 C 784.188 4.3916 -0.604458 0
M  V30 8142 H 781.408 0.626129 -0.241255 0
M  V30 8143 H 783.952 1.58268 -1.29505 0
M  V30 8144 H 782.107 3.86168 -0.308741 0
M  V30 8145 H 782.521 4.68154 -2.365 0
M  V30 8146 H 783.995 5.4557 -0.840069 0
M  V30 8147 H 784.472 4.36771 0.461273 0
M  V30 8148 H 785.078 4.08409 -1.1867 0
M  V30 8149 N 783.393 0.737304 1.3929 0
M  V30 8150 C 784.341 0.0879867 2.32434 0
M  V30 8151 C 785.335 -0.723324 1.53181 0
M  V30 8152 O 786.541 -0.624251 1.68829 0
M  V30 8153 H 782.916 0.00965277 0.751938 0
M  V30 8154 H 784.887 0.889915 2.84821 0
M  V30 8155 C 783.636 -0.803384 3.38291 0
M  V30 8156 H 782.959 -0.18849 3.99355 0
M  V30 8157 H 784.399 -1.22528 4.0591 0
M  V30 8158 C 782.858 -1.93872 2.75527 0
M  V30 8159 O 783.388 -3.03154 2.63553 0
M  V30 8160 N 781.594 -1.72883 2.3358 0
M  V30 8161 H 781.141 -0.840005 2.43519 0
M  V30 8162 H 781.099 -2.49021 1.91927 0
M  V30 8163 N 784.871 -1.49948 0.485112 0
M  V30 8164 C 786.287 -1.58984 0.140096 0
M  V30 8165 C 786.487 -1.49194 -1.35438 0
M  V30 8166 O 785.543 -1.35765 -2.12894 0
M  V30 8167 C 786.856 -2.92372 0.702769 0
M  V30 8168 C 788.404 -3.05801 0.66745 0
M  V30 8169 C 788.879 -4.41785 1.20791 0
M  V30 8170 N 790.37 -4.48234 1.16792 0
M  V30 8171 C 791.105 -5.51871 1.55646 0
M  V30 8172 N 790.601 -6.62692 2.02016 0
M  V30 8173 N 792.394 -5.42494 1.47161 0
M  V30 8174 H 784.545 -1.54555 1.45693 0
M  V30 8175 H 786.808 -0.731206 0.603359 0
M  V30 8176 H 786.514 -3.05056 1.75025 0
M  V30 8177 H 786.388 -3.76885 0.154205 0
M  V30 8178 H 788.775 -2.92757 -0.371157 0
M  V30 8179 H 788.856 -2.23011 1.25298 0
M  V30 8180 H 788.5 -4.55579 2.24522 0
M  V30 8181 H 788.43 -5.23188 0.598464 0
M  V30 8182 H 790.921 -3.68718 0.827982 0
M  V30 8183 H 791.234 -7.3785 2.29775 0
M  V30 8184 H 789.579 -6.63775 2.05979 0
M  V30 8185 H 792.77 -4.54806 1.10765 0
M  V30 8186 H 792.943 -6.2314 1.77766 0
M  V30 8187 N 786.349 -0.21828 -1.56081 0
M  V30 8188 C 787.574 0.422302 -2.03055 0
M  V30 8189 C 787.999 1.5279 -1.09713 0
M  V30 8190 O 787.357 1.81102 -0.0847187 0
M  V30 8191 C 787.405 0.934177 -3.48289 0
M  V30 8192 O 786.509 2.04574 -3.58083 0
M  V30 8193 H 785.85 0.0959764 -0.657027 0
M  V30 8194 H 788.38 -0.335958 -2.01823 0
M  V30 8195 H 788.39 1.24484 -3.88546 0
M  V30 8196 H 787.065 0.124963 -4.15712 0
M  V30 8197 H 785.642 1.74196 -3.29712 0
M  V30 8198 N 787.827 1.57504 0.0551401 0
M  V30 8199 C 789.238 1.76626 0.604979 0
M  V30 8200 C 789.589 0.845978 1.77024 0
M  V30 8201 O 788.714 0.0341936 2.16373 0
M  V30 8202 C 789.309 3.203 1.10425 0
M  V30 8203 C 787.868 3.4071 1.59981 0
M  V30 8204 C 787.015 2.72258 0.526414 0
M  V30 8205 H 789.966 1.57775 -0.171072 0
M  V30 8206 H 789.987 3.25377 1.97256 0
M  V30 8207 H 789.499 3.87255 0.255939 0
M  V30 8208 H 787.6 2.78892 2.47083 0
M  V30 8209 H 787.713 4.49227 1.66528 0
M  V30 8210 H 786.077 2.35283 0.97539 0
M  V30 8211 H 786.86 3.41879 -0.311991 0
M  V30 8212 N 789.305 -0.326896 1.54172 0
M  V30 8213 C 790.554 -1.06274 1.71431 0
M  V30 8214 C 790.867 -1.89282 0.493123 0
M  V30 8215 O 792.073 -2.65933 0.54699 0
M  V30 8216 C 790.529 -1.93892 3.03206 0
M  V30 8217 C 790.137 -1.16011 4.32719 0
M  V30 8218 C 791.881 -2.67232 3.29829 0
M  V30 8219 C 789.788 -2.02755 5.55558 0
M  V30 8220 H 788.718 -0.400475 0.638855 0
M  V30 8221 H 791.369 -0.321184 1.80667 0
M  V30 8222 H 789.751 -2.71933 2.87869 0
M  V30 8223 H 790.925 -0.427643 4.58811 0
M  V30 8224 H 789.24 -0.54367 4.12836 0
M  V30 8225 H 791.837 -3.32434 4.18798 0
M  V30 8226 H 792.18 -3.34692 2.47562 0
M  V30 8227 H 792.713 -1.96255 3.46018 0
M  V30 8228 H 789.452 -1.3981 6.40417 0
M  V30 8229 H 788.972 -2.73745 5.33689 0
M  V30 8230 H 790.651 -2.61419 5.91835 0
M  V30 8231 N 790.784 -1.46188 -0.588786 0
M  V30 8232 C 791.694 -1.58865 -1.72624 0
M  V30 8233 C 792.71 -0.472348 -1.67466 0
M  V30 8234 O 793.886 -0.735638 -1.87484 0
M  V30 8235 C 790.951 -1.56989 -3.0912 0
M  V30 8236 C 790.012 -2.79804 -3.25589 0
M  V30 8237 C 789.245 -2.78009 -4.55573 0
M  V30 8238 O 789.468 -1.86406 -5.39082 0
M  V30 8239 O 788.402 -3.6947 -4.75159 0
M  V30 8240 H 792.228 -2.55047 -1.64878 0
M  V30 8241 H 789.813 -1.28912 -0.755115 0
M  V30 8242 H 791.695 -1.58618 -3.90408 0
M  V30 8243 H 790.37 -0.639648 -3.17317 0
M  V30 8244 H 789.277 -2.83732 -2.43818 0
M  V30 8245 H 790.61 -3.72017 -3.22279 0
M  V30 8246 N 792.262 0.832906 -1.33792 0
M  V30 8247 C 793.509 1.58853 -1.25586 0
M  V30 8248 C 793.837 1.93695 0.176807 0
M  V30 8249 O 793.092 1.59386 1.13554 0
M  V30 8250 C 793.391 2.9047 -2.08235 0
M  V30 8251 C 793.057 2.74965 -3.57358 0
M  V30 8252 C 791.719 2.70444 -3.98012 0
M  V30 8253 C 794.071 2.59347 -4.52093 0
M  V30 8254 C 791.399 2.48212 -5.31608 0
M  V30 8255 C 793.751 2.38649 -5.85858 0
M  V30 8256 C 792.415 2.32533 -6.25687 0
M  V30 8257 H 791.685 0.581285 -0.459553 0
M  V30 8258 H 794.332 0.964501 -1.65438 0
M  V30 8259 H 792.637 3.57111 -1.6118 0
M  V30 8260 H 794.334 3.48001 -1.99239 0
M  V30 8261 H 790.924 2.79319 -3.25083 0
M  V30 8262 H 795.108 2.6187 -4.2159 0
M  V30 8263 H 790.364 2.41929 -5.61498 0
M  V30 8264 H 794.538 2.25549 -6.58863 0
M  V30 8265 H 792.165 2.15067 -7.29143 0
M  V30 8266 N 793.74 1.17359 1.05189 0
M  V30 8267 C 795.151 0.96793 1.5965 0
M  V30 8268 C 795.502 -0.485355 1.90102 0
M  V30 8269 O 794.627 -1.36066 1.6827 0
M  V30 8270 C 795.222 1.75068 2.90063 0
M  V30 8271 C 793.781 1.58969 3.41183 0
M  V30 8272 C 792.928 1.75231 2.14917 0
M  V30 8273 H 795.879 1.32067 0.880001 0
M  V30 8274 H 795.9 1.23308 3.59966 0
M  V30 8275 H 795.412 2.80835 2.67868 0
M  V30 8276 H 793.513 0.556906 3.68415 0
M  V30 8277 H 793.626 2.38067 4.15766 0
M  V30 8278 H 791.99 1.18073 2.25679 0
M  V30 8279 H 792.773 2.8241 1.95191 0
M  V30 8280 N 795.218 -1.23913 0.973828 0
M  V30 8281 C 796.495 -1.87539 0.555729 0
M  V30 8282 C 796.875 -1.87641 -0.967162 0
M  V30 8283 O 796.223 -1.35335 -1.84111 0
M  V30 8284 C 796.433 -3.29359 1.15427 0
M  V30 8285 C 797.781 -4.06 1.24294 0
M  V30 8286 O 798.805 -3.38554 1.10723 0
M  V30 8287 O 797.664 -5.26689 1.45813 0
M  V30 8288 H 794.758 -0.805769 0.186188 0
M  V30 8289 H 797.304 -1.31838 1.06849 0
M  V30 8290 H 796.076 -3.23817 2.19678 0
M  V30 8291 H 795.699 -3.92642 0.625925 0
M  V30 8292 N 796.696 -0.74468 -1.38897 0
M  V30 8293 C 797.924 -0.307428 -2.04603 0
M  V30 8294 C 798.339 1.06115 -1.56157 0
M  V30 8295 O 797.696 1.67233 -0.730701 0
M  V30 8296 C 797.747 -0.31101 -3.6016 0
M  V30 8297 O 797.468 -1.62557 -4.06825 0
M  V30 8298 C 798.969 0.141213 -4.43075 0
M  V30 8299 H 796.189 -0.132741 -0.657739 0
M  V30 8300 H 798.733 -1.01104 -1.77759 0
M  V30 8301 H 796.888 0.343792 -3.85872 0
M  V30 8302 H 797.302 -1.54569 -5.01207 0
M  V30 8303 H 798.776 0.0875449 -5.51931 0
M  V30 8304 H 799.253 1.18782 -4.22833 0
M  V30 8305 H 799.859 -0.484383 -4.22533 0
M  V30 8306 N 798.174 1.49689 -0.493057 0
M  V30 8307 C 799.137 2.27502 0.278485 0
M  V30 8308 C 800.137 1.33184 0.901037 0
M  V30 8309 O 801.327 1.56415 0.766801 0
M  V30 8310 C 798.459 3.10881 1.39878 0
M  V30 8311 H 799.652 2.97163 -0.404219 0
M  V30 8312 H 797.205 1.54324 -0.247774 0
M  V30 8313 H 797.94 2.45767 2.11587 0
M  V30 8314 H 797.725 3.80219 0.957924 0
M  V30 8315 H 799.215 3.69673 1.94247 0
M  V30 8316 N 799.652 0.226554 1.55963 0
M  V30 8317 C 800.929 -0.453058 1.90281 0
M  V30 8318 C 801.309 -1.77377 1.14458 0
M  V30 8319 O 800.657 -2.27067 0.255496 0
M  V30 8320 C 800.867 -0.641108 3.43061 0
M  V30 8321 C 802.215 -0.946265 4.13921 0
M  V30 8322 O 803.239 -0.727713 3.48687 0
M  V30 8323 O 802.098 -1.36131 5.29274 0
M  V30 8324 H 799.192 -0.240242 0.791336 0
M  V30 8325 H 801.738 0.26911 1.67553 0
M  V30 8326 H 800.51 0.290283 3.90222 0
M  V30 8327 H 800.133 -1.41458 3.71585 0
M  V30 8328 N 801.13 -1.57531 -0.0467866 0
M  V30 8329 C 802.377 -1.88451 -0.74112 0
M  V30 8330 C 802.705 -0.821592 -1.76296 0
M  V30 8331 O 801.96 0.179585 -1.94874 0
M  V30 8332 C 802.259 -3.26091 -1.46285 0
M  V30 8333 C 801.925 -4.47171 -0.578669 0
M  V30 8334 C 800.587 -4.80032 -0.335083 0
M  V30 8335 C 802.939 -5.2119 0.0328809 0
M  V30 8336 C 800.267 -5.84309 0.529121 0
M  V30 8337 C 802.619 -6.26383 0.884684 0
M  V30 8338 C 801.283 -6.57729 1.1379 0
M  V30 8339 H 800.553 -0.68959 -0.271195 0
M  V30 8340 H 803.2 -1.915 -0.00132378 0
M  V30 8341 H 801.505 -3.18948 -2.27551 0
M  V30 8342 H 803.202 -3.47258 -2.00532 0
M  V30 8343 H 799.792 -4.21467 -0.778666 0
M  V30 8344 H 803.976 -4.96096 -0.142375 0
M  V30 8345 H 799.232 -6.06981 0.733794 0
M  V30 8346 H 803.406 -6.82888 1.36516 0
M  V30 8347 H 801.033 -7.38355 1.80929 0
M  V30 8348 N 802.608 0.318715 -1.54344 0
M  V30 8349 C 803.538 1.39751 -1.87061 0
M  V30 8350 C 804.519 1.53741 -0.727848 0
M  V30 8351 O 805.704 1.67541 -0.982016 0
M  V30 8352 C 802.834 2.76446 -2.10226 0
M  V30 8353 C 801.788 2.77239 -3.26071 0
M  V30 8354 C 801.114 4.17056 -3.34617 0
M  V30 8355 C 802.414 2.40555 -4.63606 0
M  V30 8356 H 804.108 1.12619 -2.77412 0
M  V30 8357 H 801.654 0.540318 -1.33479 0
M  V30 8358 H 803.607 3.51985 -2.31699 0
M  V30 8359 H 802.331 3.05066 -1.16629 0
M  V30 8360 H 800.99 2.04155 -3.04493 0
M  V30 8361 H 800.638 4.42824 -2.3857 0
M  V30 8362 H 800.338 4.18492 -4.12478 0
M  V30 8363 H 801.862 4.94401 -3.5833 0
M  V30 8364 H 803.276 3.05808 -4.84927 0
M  V30 8365 H 801.673 2.53234 -5.44052 0
M  V30 8366 H 802.743 1.35698 -4.65526 0
M  V30 8367 N 804.086 1.46499 0.581025 0
M  V30 8368 C 805.034 1.57562 1.71105 0
M  V30 8369 C 806.028 0.44403 1.63477 0
M  V30 8370 O 807.234 0.620964 1.6895 0
M  V30 8371 H 803.609 0.495415 0.565746 0
M  V30 8372 H 805.58 2.5257 1.58905 0
M  V30 8373 C 804.329 1.58465 3.0949 0
M  V30 8374 H 803.652 2.44877 3.16031 0
M  V30 8375 H 805.092 1.70261 3.88313 0
M  V30 8376 C 803.551 0.313596 3.35437 0
M  V30 8377 O 804.081 -0.595456 3.97262 0
M  V30 8378 N 802.287 0.200986 2.89904 0
M  V30 8379 H 801.834 0.941643 2.39773 0
M  V30 8380 H 801.792 -0.648577 3.07638 0
M  V30 8381 N 805.565 -0.825799 1.34232 0
M  V30 8382 C 806.512 -1.93651 1.2557 0
M  V30 8383 C 807.482 -1.65578 0.131536 0
M  V30 8384 O 808.667 -1.88231 0.312027 0
M  V30 8385 C 805.807 -3.29862 1.01415 0
M  V30 8386 C 804.92 -3.70247 2.22579 0
M  V30 8387 C 804.055 -4.95392 1.91731 0
M  V30 8388 C 803.094 -5.28349 3.09053 0
M  V30 8389 N 802.231 -6.44671 2.78107 0
M  V30 8390 H 807.071 -2.00392 2.20561 0
M  V30 8391 H 804.608 -0.980441 1.09662 0
M  V30 8392 H 806.566 -4.08356 0.854485 0
M  V30 8393 H 805.196 -3.22642 0.100936 0
M  V30 8394 H 804.248 -2.87169 2.49476 0
M  V30 8395 H 805.56 -3.90575 3.10246 0
M  V30 8396 H 804.714 -5.81665 1.72484 0
M  V30 8397 H 803.453 -4.77059 1.0132 0
M  V30 8398 H 802.458 -4.40574 3.289 0
M  V30 8399 H 803.683 -5.48622 4.00239 0
M  V30 8400 H 801.629 -6.278 1.9027 0
M  V30 8401 H 801.546 -6.65158 3.59306 0
M  V30 8402 H 802.814 -7.34022 2.62358 0
M  V30 8403 N 807.043 -1.17915 -1.04565 0
M  V30 8404 C 808.454 -0.976383 -1.59134 0
M  V30 8405 C 808.805 0.475267 -1.90357 0
M  V30 8406 O 807.93 1.35172 -1.6899 0
M  V30 8407 C 808.525 -1.76604 -2.89131 0
M  V30 8408 C 807.084 -1.60777 -3.40335 0
M  V30 8409 C 806.231 -1.76369 -2.13985 0
M  V30 8410 H 809.182 -1.32532 -0.872985 0
M  V30 8411 H 809.203 -1.25215 -3.59307 0
M  V30 8412 H 808.715 -2.82252 -2.66375 0
M  V30 8413 H 806.816 -0.576436 -3.68114 0
M  V30 8414 H 806.929 -2.40268 -4.14497 0
M  V30 8415 H 805.293 -1.19268 -2.25049 0
M  V30 8416 H 806.076 -2.83441 -1.9369 0
M  V30 8417 N 808.521 1.23394 -0.980386 0
M  V30 8418 C 809.746 1.96384 -0.666935 0
M  V30 8419 C 810.171 1.72087 0.759456 0
M  V30 8420 O 809.529 0.992328 1.51732 0
M  V30 8421 C 809.577 3.47499 -0.963177 0
M  V30 8422 O 808.681 4.12363 -0.0552051 0
M  V30 8423 H 808.022 0.614797 -0.250839 0
M  V30 8424 H 810.552 1.56831 -1.31398 0
M  V30 8425 H 810.562 3.97953 -0.899877 0
M  V30 8426 H 809.237 3.6451 -2.00264 0
M  V30 8427 H 807.814 3.72499 -0.172914 0
M  V30 8428 N 809.999 0.752036 1.385 0
M  V30 8429 C 811.245 0.307958 2.00448 0
M  V30 8430 C 811.578 -1.10702 1.59558 0
M  V30 8431 O 810.853 -1.75788 0.832391 0
M  V30 8432 C 811.136 0.429092 3.57534 0
M  V30 8433 C 810.989 1.88507 4.08393 0
M  V30 8434 C 812.308 -0.178442 4.39738 0
M  V30 8435 H 809.427 0.113373 0.728228 0
M  V30 8436 H 812.069 0.951389 1.64465 0
M  V30 8437 H 810.219 -0.118695 3.88319 0
M  V30 8438 H 811.891 2.49104 3.88259 0
M  V30 8439 H 810.134 2.40066 3.61318 0
M  V30 8440 H 810.805 1.92099 5.17496 0
M  V30 8441 H 813.281 0.28872 4.15097 0
M  V30 8442 H 812.157 -0.0634349 5.48863 0
M  V30 8443 H 812.418 -1.26655 4.23569 0
M  V30 8444 N 811.477 -1.49425 0.500989 0
M  V30 8445 C 812.726 -2.01649 -0.04538 0
M  V30 8446 C 813.039 -1.38572 -1.38047 0
M  V30 8447 O 814.245 -1.82124 -2.01353 0
M  V30 8448 C 812.701 -3.5966 -0.131337 0
M  V30 8449 C 812.309 -4.3171 1.19711 0
M  V30 8450 C 814.053 -4.19828 -0.628071 0
M  V30 8451 C 811.96 -5.81579 1.07332 0
M  V30 8452 H 810.89 -0.753715 -0.0207329 0
M  V30 8453 H 813.541 -1.71962 0.640407 0
M  V30 8454 H 811.923 -3.86063 -0.881574 0
M  V30 8455 H 813.097 -4.17008 1.96064 0
M  V30 8456 H 811.412 -3.83286 1.62729 0
M  V30 8457 H 814.009 -5.2958 -0.738198 0
M  V30 8458 H 814.352 -3.83194 -1.6269 0
M  V30 8459 H 814.885 -3.97746 0.0656314 0
M  V30 8460 H 811.624 -6.22738 2.04642 0
M  V30 8461 H 811.144 -5.98774 0.350679 0
M  V30 8462 H 812.823 -6.42614 0.752047 0
M  V30 8463 N 812.955 -0.234822 -1.55841 0
M  V30 8464 C 813.885 0.664217 -2.23854 0
M  V30 8465 C 814.866 1.19076 -1.2147 0
M  V30 8466 O 816.051 1.23232 -1.50091 0
M  V30 8467 C 813.181 1.86666 -2.9287 0
M  V30 8468 C 812.135 1.47341 -4.01839 0
M  V30 8469 C 811.461 2.75571 -4.58219 0
M  V30 8470 C 812.761 0.653479 -5.18196 0
M  V30 8471 H 814.455 0.0971213 -2.99242 0
M  V30 8472 H 812.001 0.0452724 -1.43929 0
M  V30 8473 H 813.954 2.50116 -3.39146 0
M  V30 8474 H 812.678 2.45894 -2.1495 0
M  V30 8475 H 811.337 0.862314 -3.56314 0
M  V30 8476 H 810.985 3.32971 -3.77014 0
M  V30 8477 H 810.685 2.49987 -5.31771 0
M  V30 8478 H 812.209 3.39939 -5.07221 0
M  V30 8479 H 813.623 1.19198 -5.60771 0
M  V30 8480 H 812.02 0.494188 -5.98062 0
M  V30 8481 H 813.09 -0.337004 -4.83728 0
M  V30 8482 N 814.433 1.57553 0.0384317 0
M  V30 8483 C 815.365 2.02726 1.06934 0
M  V30 8484 C 816.378 0.938502 1.33026 0
M  V30 8485 O 817.567 1.21595 1.30678 0
M  V30 8486 C 814.667 2.37958 2.41308 0
M  V30 8487 C 813.84 3.69098 2.34703 0
M  V30 8488 C 812.899 3.91623 3.51451 0
M  V30 8489 O 811.925 4.628 3.31368 0
M  V30 8490 N 813.127 3.36538 4.72993 0
M  V30 8491 H 815.892 2.91781 0.684381 0
M  V30 8492 H 813.453 1.60307 0.226542 0
M  V30 8493 H 815.445 2.50172 3.18113 0
M  V30 8494 H 814.015 1.54621 2.71682 0
M  V30 8495 H 813.235 3.67325 1.43059 0
M  V30 8496 H 814.523 4.55144 2.27424 0
M  V30 8497 H 813.921 2.78828 4.92211 0
M  V30 8498 H 812.478 3.54148 5.47195 0
M  V30 8499 N 815.911 -0.310526 1.54511 0
M  V30 8500 C 817.327 -0.655637 1.45511 0
M  V30 8501 C 817.527 -1.91114 0.638564 0
M  V30 8502 O 816.583 -2.52098 0.142497 0
M  V30 8503 C 817.896 -0.817501 2.89374 0
M  V30 8504 C 819.444 -0.914003 2.99358 0
M  V30 8505 C 819.919 -1.10794 4.44397 0
M  V30 8506 N 821.41 -1.17437 4.48066 0
M  V30 8507 C 822.145 -1.34255 5.57461 0
M  V30 8508 N 821.641 -1.48032 6.768 0
M  V30 8509 N 823.434 -1.37067 5.45132 0
M  V30 8510 H 815.585 0.514506 2.06074 0
M  V30 8511 H 817.848 0.168478 0.932909 0
M  V30 8512 H 817.554 0.034003 3.51684 0
M  V30 8513 H 817.428 -1.7094 3.36243 0
M  V30 8514 H 819.815 -1.756 2.37168 0
M  V30 8515 H 819.896 0.00170958 2.558 0
M  V30 8516 H 819.54 -0.270743 5.07178 0
M  V30 8517 H 819.47 -2.03773 4.85576 0
M  V30 8518 H 821.961 -1.08181 3.62084 0
M  V30 8519 H 822.274 -1.60593 7.5593 0
M  V30 8520 H 820.619 -1.45105 6.79683 0
M  V30 8521 H 823.81 -1.25909 4.50849 0
M  V30 8522 H 823.983 -1.49831 6.3044 0
M  V30 8523 N 817.389 -1.46805 -0.573248 0
M  V30 8524 C 818.614 -1.56433 -1.36175 0
M  V30 8525 C 819.039 -0.209336 -1.86932 0
M  V30 8526 O 818.397 0.812146 -1.62092 0
M  V30 8527 C 818.445 -2.58055 -2.51873 0
M  V30 8528 O 817.549 -2.12214 -3.53609 0
M  V30 8529 H 816.89 -0.526068 -0.405153 0
M  V30 8530 H 819.42 -1.92456 -0.694405 0
M  V30 8531 H 819.43 -2.77966 -2.98662 0
M  V30 8532 H 818.105 -3.56448 -2.14284 0
M  V30 8533 H 816.682 -2.02333 -3.13234 0
M  V30 8534 N 818.867 0.818669 -1.34668 0
M  V30 8535 C 819.797 1.94468 -1.29245 0
M  V30 8536 C 820.778 1.69257 -0.169101 0
M  V30 8537 O 821.963 1.90794 -0.362143 0
M  V30 8538 C 819.093 3.31001 -1.05145 0
M  V30 8539 C 818.047 3.70663 -2.13992 0
M  V30 8540 C 817.373 5.05226 -1.75074 0
M  V30 8541 C 818.673 3.82312 -3.55858 0
M  V30 8542 H 820.367 1.99263 -2.2346 0
M  V30 8543 H 817.913 0.957304 -1.07572 0
M  V30 8544 H 819.866 4.09364 -0.999949 0
M  V30 8545 H 818.59 3.26517 -0.0737312 0
M  V30 8546 H 817.249 2.94578 -2.18219 0
M  V30 8547 H 816.897 4.97233 -0.759518 0
M  V30 8548 H 816.597 5.32734 -2.47928 0
M  V30 8549 H 818.121 5.86042 -1.71427 0
M  V30 8550 H 819.535 4.50935 -3.5402 0
M  V30 8551 H 817.932 4.21278 -4.2737 0
M  V30 8552 H 819.002 2.84193 -3.9289 0
M  V30 8553 N 820.346 1.18468 1.03938 0
M  V30 8554 C 821.594 0.978895 1.76811 0
M  V30 8555 C 821.915 -0.49257 1.88676 0
M  V30 8556 O 821.185 -1.3572 1.41269 0
M  V30 8557 H 819.765 0.359201 0.654968 0
M  V30 8558 H 822.427 1.49173 1.25433 0
M  V30 8559 H 821.523 1.418 2.78027 0
M  V30 8560 N 821.824 -1.22873 0.986916 0
M  V30 8561 C 822.772 -2.26597 0.525043 0
M  V30 8562 C 823.766 -1.64079 -0.421252 0
M  V30 8563 O 824.972 -1.77576 -0.294429 0
M  V30 8564 H 821.347 -0.736606 0.151381 0
M  V30 8565 H 823.318 -2.62909 1.41142 0
M  V30 8566 C 822.067 -3.47374 -0.150542 0
M  V30 8567 H 821.39 -3.95737 0.568541 0
M  V30 8568 H 822.83 -4.21739 -0.437256 0
M  V30 8569 C 821.289 -3.07163 -1.38392 0
M  V30 8570 O 821.819 -3.16028 -2.47971 0
M  V30 8571 N 820.025 -2.62009 -1.25697 0
M  V30 8572 H 819.572 -2.54996 -0.365355 0
M  V30 8573 H 819.53 -2.35472 -2.08327 0
M  V30 8574 N 823.302 -0.75937 -1.38099 0
M  V30 8575 C 824.265 -0.14372 -2.28749 0
M  V30 8576 C 825.265 0.641338 -1.47457 0
M  V30 8577 O 826.455 0.466751 -1.67831 0
M  V30 8578 C 823.587 0.804545 -3.3127 0
M  V30 8579 H 824.78 -0.942663 -2.847 0
M  V30 8580 H 822.333 -0.526757 -1.47156 0
M  V30 8581 H 823.068 1.62895 -2.80421 0
M  V30 8582 H 822.853 0.243939 -3.9134 0
M  V30 8583 H 824.343 1.23111 -3.99041 0
M  V30 8584 N 824.78 1.49157 -0.508906 0
M  V30 8585 C 826.191 1.86593 -0.0630975 0
M  V30 8586 C 826.542 1.42051 1.35337 0
M  V30 8587 O 825.667 0.801866 2.00995 0
M  V30 8588 C 826.262 3.38629 -0.107729 0
M  V30 8589 C 824.821 3.75336 0.282776 0
M  V30 8590 C 823.968 2.7317 -0.4768 0
M  V30 8591 H 826.919 1.41362 -0.72128 0
M  V30 8592 H 826.94 3.74271 0.685689 0
M  V30 8593 H 826.452 3.71017 -1.13876 0
M  V30 8594 H 824.553 3.48558 1.31675 0
M  V30 8595 H 824.666 4.79081 -0.0421728 0
M  V30 8596 H 823.03 2.54591 0.0743552 0
M  V30 8597 H 823.813 3.08403 -1.50807 0
M  V30 8598 N 826.258 0.243083 1.55714 0
M  V30 8599 C 827.206 -0.674349 2.2261 0
M  V30 8600 C 828.2 -1.18307 1.21243 0
M  V30 8601 O 829.406 -1.1404 1.39265 0
M  V30 8602 H 825.781 -0.235941 0.714028 0
M  V30 8603 H 827.752 -0.0869446 2.98273 0
M  V30 8604 C 826.501 -1.86206 2.93637 0
M  V30 8605 H 825.824 -1.47975 3.71407 0
M  V30 8606 H 827.264 -2.4813 3.43813 0
M  V30 8607 C 825.723 -2.73084 1.97298 0
M  V30 8608 O 826.253 -3.72497 1.50361 0
M  V30 8609 N 824.459 -2.39571 1.64482 0
M  V30 8610 H 824.006 -1.5878 2.02846 0
M  V30 8611 H 823.964 -2.97976 1.00288 0
M  V30 8612 N 827.736 -1.57571 -0.0300757 0
M  V30 8613 C 828.964 -1.93485 -0.732891 0
M  V30 8614 C 829.379 -0.842758 -1.68947 0
M  V30 8615 O 828.736 0.180904 -1.81601 0
M  V30 8616 C 828.787 -3.29328 -1.49082 0
M  V30 8617 O 828.508 -4.34341 -0.572639 0
M  V30 8618 C 830.009 -3.79517 -2.29088 0
M  V30 8619 H 827.229 -0.638588 -0.206026 0
M  V30 8620 H 829.773 -2.04496 0.0120966 0
M  V30 8621 H 827.928 -3.19716 -2.1877 0
M  V30 8622 H 828.342 -5.12748 -1.10406 0
M  V30 8623 H 829.816 -4.77081 -2.77665 0
M  V30 8624 H 830.293 -3.10659 -3.10464 0
M  V30 8625 H 830.899 -3.92208 -1.64477 0
M  V30 8626 N 829.214 0.302327 -1.54673 0
M  V30 8627 C 830.625 0.875409 -1.64904 0
M  V30 8628 C 830.976 1.88132 -0.55684 0
M  V30 8629 O 830.101 2.14215 0.306754 0
M  V30 8630 C 830.696 1.59457 -2.9893 0
M  V30 8631 C 829.255 2.11607 -3.11287 0
M  V30 8632 C 828.402 0.948324 -2.6058 0
M  V30 8633 H 831.353 0.079362 -1.58501 0
M  V30 8634 H 831.374 2.46005 -2.90279 0
M  V30 8635 H 830.886 0.8622 -3.78402 0
M  V30 8636 H 828.987 2.87895 -2.36532 0
M  V30 8637 H 829.1 2.35151 -4.17422 0
M  V30 8638 H 827.464 1.33352 -2.17001 0
M  V30 8639 H 828.247 0.229936 -3.42529 0
M  V30 8640 N 830.692 1.47107 0.565454 0
M  V30 8641 C 831.969 1.43787 1.32607 0
M  V30 8642 C 832.349 0.130428 2.10697 0
M  V30 8643 O 831.697 -0.888086 2.10536 0
M  V30 8644 C 831.907 2.67833 2.23755 0
M  V30 8645 C 833.255 3.14704 2.85037 0
M  V30 8646 O 834.279 2.68503 2.34061 0
M  V30 8647 O 833.138 3.95002 3.77671 0
M  V30 8648 H 830.232 0.572623 0.596684 0
M  V30 8649 H 832.778 1.59296 0.58504 0
M  V30 8650 H 831.55 3.54532 1.65597 0
M  V30 8651 H 831.173 2.54869 3.05168 0
M  V30 8652 N 832.17 -0.811516 1.35101 0
M  V30 8653 C 833.417 -1.56835 1.28098 0
M  V30 8654 C 833.745 -1.93951 -0.14597 0
M  V30 8655 O 833 -1.61173 -1.11004 0
M  V30 8656 C 833.299 -2.87121 2.1283 0
M  V30 8657 C 832.965 -2.69245 3.61688 0
M  V30 8658 C 831.627 -2.64078 4.02264 0
M  V30 8659 C 833.979 -2.52122 4.56162 0
M  V30 8660 C 831.307 -2.39724 5.3549 0
M  V30 8661 C 833.659 -2.29298 5.89581 0
M  V30 8662 C 832.323 -2.2255 6.29307 0
M  V30 8663 H 831.593 -0.5739 0.468742 0
M  V30 8664 H 834.24 -0.93806 1.66951 0
M  V30 8665 H 832.545 -3.54502 1.66841 0
M  V30 8666 H 834.242 -3.44788 2.0475 0
M  V30 8667 H 830.832 -2.74112 3.29485 0
M  V30 8668 H 835.016 -2.5513 4.25702 0
M  V30 8669 H 830.272 -2.32965 5.65276 0
M  V30 8670 H 834.446 -2.15038 6.62368 0
M  V30 8671 H 832.073 -2.0344 7.32473 0
M  V30 8672 N 833.648 -1.19017 -1.03309 0
M  V30 8673 C 834.878 -1.01387 -1.80012 0
M  V30 8674 C 835.286 0.440655 -1.83997 0
M  V30 8675 O 834.629 1.31786 -1.27977 0
M  V30 8676 C 834.691 -1.50171 -3.26633 0
M  V30 8677 C 834.355 -2.98213 -3.46292 0
M  V30 8678 C 835.352 -3.96009 -3.36857 0
M  V30 8679 C 833.037 -3.36812 -3.72643 0
M  V30 8680 C 835.031 -5.30399 -3.5349 0
M  V30 8681 C 832.718 -4.71363 -3.88922 0
M  V30 8682 C 833.716 -5.67966 -3.79347 0
M  V30 8683 O 833.404 -7.00079 -3.95151 0
M  V30 8684 H 833.136 -0.357899 -0.573484 0
M  V30 8685 H 835.69 -1.58171 -1.31039 0
M  V30 8686 H 833.92 -0.877586 -3.7661 0
M  V30 8687 H 835.609 -1.28814 -3.84918 0
M  V30 8688 H 836.375 -3.67534 -3.16455 0
M  V30 8689 H 832.254 -2.62175 -3.7919 0
M  V30 8690 H 835.798 -6.05786 -3.45933 0
M  V30 8691 H 831.695 -4.99536 -4.0882 0
M  V30 8692 H 832.463 -7.07092 -4.12266 0
M  V30 8693 N 835.127 1.22348 -0.993418 0
M  V30 8694 C 836.059 2.23626 -0.502404 0
M  V30 8695 C 837.072 1.57739 0.402784 0
M  V30 8696 O 838.261 1.77321 0.204835 0
M  V30 8697 C 835.361 3.37647 0.291118 0
M  V30 8698 C 834.534 4.33121 -0.610332 0
M  V30 8699 C 833.593 5.26035 0.131572 0
M  V30 8700 O 832.619 5.67145 -0.483199 0
M  V30 8701 N 833.821 5.63023 1.41371 0
M  V30 8702 H 836.586 2.66385 -1.37329 0
M  V30 8703 H 834.147 1.36653 -0.868196 0
M  V30 8704 H 836.139 3.96792 0.796107 0
M  V30 8705 H 834.709 2.93967 1.0631 0
M  V30 8706 H 833.929 3.72287 -1.29598 0
M  V30 8707 H 835.217 4.93853 -1.22422 0
M  V30 8708 H 834.615 5.31596 1.93449 0
M  V30 8709 H 833.172 6.24582 1.86388 0
M  V30 8710 N 836.605 0.766683 1.37694 0
M  V30 8711 C 837.537 0.107798 2.28946 0
M  V30 8712 C 838.55 -0.669701 1.48387 0
M  V30 8713 O 839.739 -0.508629 1.711 0
M  V30 8714 C 836.839 -0.871084 3.27514 0
M  V30 8715 C 836.012 -0.148471 4.37148 0
M  V30 8716 C 835.071 -1.03998 5.1582 0
M  V30 8717 O 834.097 -0.505639 5.6695 0
M  V30 8718 N 835.299 -2.36679 5.3006 0
M  V30 8719 H 838.064 0.89154 2.86132 0
M  V30 8720 H 835.625 0.618593 1.49616 0
M  V30 8721 H 837.617 -1.47081 3.77027 0
M  V30 8722 H 836.187 -1.55582 2.71133 0
M  V30 8723 H 835.407 0.632117 3.89099 0
M  V30 8724 H 836.695 0.351045 5.07588 0
M  V30 8725 H 836.093 -2.82532 4.90094 0
M  V30 8726 H 834.65 -2.9167 5.82899 0
M  V30 8727 N 838.083 -1.48885 0.516809 0
M  V30 8728 C 839.013 -2.32241 -0.242157 0
M  V30 8729 C 839.994 -1.41258 -0.947633 0
M  V30 8730 O 841.179 -1.70156 -0.935973 0
M  V30 8731 C 838.309 -3.22151 -1.29754 0
M  V30 8732 C 837.263 -4.22053 -0.710995 0
M  V30 8733 C 836.589 -5.01007 -1.86806 0
M  V30 8734 C 837.889 -5.21388 0.30853 0
M  V30 8735 H 839.583 -2.95943 0.453651 0
M  V30 8736 H 837.129 -1.42316 0.219612 0
M  V30 8737 H 839.082 -3.79284 -1.83634 0
M  V30 8738 H 837.806 -2.56423 -2.02274 0
M  V30 8739 H 836.465 -3.66087 -0.193819 0
M  V30 8740 H 836.113 -4.31713 -2.58133 0
M  V30 8741 H 835.813 -5.68615 -1.48159 0
M  V30 8742 H 837.337 -5.60989 -2.4109 0
M  V30 8743 H 838.751 -5.73122 -0.142703 0
M  V30 8744 H 837.148 -5.96975 0.611673 0
M  V30 8745 H 838.218 -4.69329 1.21894 0
M  V30 8746 N 839.561 -0.251338 -1.55583 0
M  V30 8747 C 840.977 0.103409 -1.59265 0
M  V30 8748 C 841.177 1.56559 -1.26852 0
M  V30 8749 O 840.233 2.31071 -1.01796 0
M  V30 8750 C 841.546 -0.249781 -2.99661 0
M  V30 8751 C 843.094 -0.194442 -3.12395 0
M  V30 8752 C 843.569 -0.521728 -4.55019 0
M  V30 8753 N 845.06 -0.472393 -4.60785 0
M  V30 8754 C 845.795 -0.698737 -5.69127 0
M  V30 8755 N 845.291 -0.988443 -6.85713 0
M  V30 8756 N 847.084 -0.629143 -5.58568 0
M  V30 8757 H 839.235 -1.20484 -1.74921 0
M  V30 8758 H 841.498 -0.485092 -0.814488 0
M  V30 8759 H 841.204 -1.26577 -3.28133 0
M  V30 8760 H 841.078 0.420973 -3.74844 0
M  V30 8761 H 843.465 0.812229 -2.83702 0
M  V30 8762 H 843.546 -0.899111 -2.39478 0
M  V30 8763 H 843.19 -1.52597 -4.84434 0
M  V30 8764 H 843.12 0.204468 -5.26203 0
M  V30 8765 H 845.611 -0.257386 -3.77022 0
M  V30 8766 H 845.924 -1.14846 -7.64219 0
M  V30 8767 H 844.269 -1.02596 -6.87386 0
M  V30 8768 H 847.46 -0.402826 -4.66364 0
M  V30 8769 H 847.633 -0.808935 -6.42931 0
M  V30 8770 N 841.039 1.57585 0.0217189 0
M  V30 8771 C 841.987 2.08134 1.03842 0
M  V30 8772 C 842.981 0.996662 1.36978 0
M  V30 8773 O 844.187 1.18149 1.35797 0
M  V30 8774 H 840.562 0.664298 0.352438 0
M  V30 8775 H 842.533 2.92583 0.58634 0
M  V30 8776 C 841.282 2.58218 2.32849 0
M  V30 8777 H 840.605 3.41302 2.08214 0
M  V30 8778 H 842.045 2.97289 3.02316 0
M  V30 8779 C 840.504 1.48664 3.02325 0
M  V30 8780 O 841.034 0.857075 3.9245 0
M  V30 8781 N 839.24 1.21938 2.63779 0
M  V30 8782 H 838.787 1.73319 1.90574 0
M  V30 8783 H 838.745 0.488523 3.10581 0
M  V30 8784 N 842.517 -0.29412 1.54831 0
M  V30 8785 C 843.742 -1.05156 1.78765 0
M  V30 8786 C 844.167 -1.79916 0.548809 0
M  V30 8787 O 843.525 -1.74243 -0.500909 0
M  V30 8788 C 843.573 -2.00242 2.99893 0
M  V30 8789 O 842.677 -3.08662 2.73499 0
M  V30 8790 H 842.018 -0.301737 0.591482 0
M  V30 8791 H 844.548 -0.329449 2.0193 0
M  V30 8792 H 844.558 -2.42583 3.28051 0
M  V30 8793 H 843.233 -1.45235 3.89717 0
M  V30 8794 H 841.81 -2.70786 2.56377 0
M  V30 8795 N 843.995 -1.47404 -0.557645 0
M  V30 8796 C 845.272 -1.44488 -1.31843 0
M  V30 8797 C 845.652 -0.1416 -2.10625 0
M  V30 8798 O 845 0.876908 -2.11004 0
M  V30 8799 C 845.21 -2.69016 -2.22331 0
M  V30 8800 C 846.558 -3.16212 -2.83364 0
M  V30 8801 O 847.582 -2.69741 -2.32634 0
M  V30 8802 O 846.441 -3.96999 -3.75571 0
M  V30 8803 H 843.535 -0.57578 -0.593639 0
M  V30 8804 H 846.081 -1.59605 -0.576584 0
M  V30 8805 H 844.853 -3.55406 -1.63715 0
M  V30 8806 H 844.476 -2.56484 -3.03812 0
M  V30 8807 N 845.473 0.80434 -1.35529 0
M  V30 8808 C 846.698 1.598 -1.32207 0
M  V30 8809 C 847.123 1.87848 0.0974226 0
M  V30 8810 O 846.481 1.46728 1.06492 0
M  V30 8811 C 846.529 2.90483 -2.13663 0
M  V30 8812 O 845.633 3.83411 -1.51888 0
M  V30 8813 H 844.974 0.485305 -0.453183 0
M  V30 8814 H 847.504 0.998119 -1.78602 0
M  V30 8815 H 847.514 3.39888 -2.257 0
M  V30 8816 H 846.189 2.69395 -3.16859 0
M  V30 8817 H 844.766 3.41967 -1.48704 0
M  V30 8818 N 846.951 1.19563 1.02676 0
M  V30 8819 C 847.899 0.931942 2.13114 0
M  V30 8820 C 848.893 -0.113007 1.69023 0
M  V30 8821 O 850.099 0.0364298 1.79963 0
M  V30 8822 H 846.474 0.283981 0.696318 0
M  V30 8823 H 848.445 1.86991 2.32545 0
M  V30 8824 C 847.194 0.489461 3.44238 0
M  V30 8825 H 846.517 1.28508 3.78584 0
M  V30 8826 H 847.957 0.34408 4.22602 0
M  V30 8827 C 846.416 -0.796761 3.27343 0
M  V30 8828 O 846.946 -1.85767 3.56165 0
M  V30 8829 N 845.152 -0.754824 2.80626 0
M  V30 8830 H 844.699 0.108778 2.5737 0
M  V30 8831 H 844.657 -1.6158 2.69702 0
M  V30 8832 N 848.429 -1.21819 0.999893 0
M  V30 8833 C 849.359 -2.26282 0.576096 0
M  V30 8834 C 850.34 -1.65317 -0.400537 0
M  V30 8835 O 851.525 -1.92028 -0.28964 0
M  V30 8836 C 848.655 -3.47147 -0.103145 0
M  V30 8837 C 847.609 -4.20594 0.792745 0
M  V30 8838 C 846.935 -5.34696 -0.0198026 0
M  V30 8839 C 848.235 -4.78533 2.09293 0
M  V30 8840 H 849.929 -2.61984 1.4493 0
M  V30 8841 H 847.475 -1.25935 0.698316 0
M  V30 8842 H 849.428 -4.1939 -0.411068 0
M  V30 8843 H 848.152 -3.1056 -1.01094 0
M  V30 8844 H 846.811 -3.50194 1.08442 0
M  V30 8845 H 846.459 -4.94352 -0.928729 0
M  V30 8846 H 846.159 -5.84764 0.576661 0
M  V30 8847 H 847.683 -6.09752 -0.321659 0
M  V30 8848 H 849.097 -5.42682 1.8485 0
M  V30 8849 H 847.494 -5.38968 2.63881 0
M  V30 8850 H 848.564 -3.98197 2.76708 0
M  V30 8851 N 849.908 -0.773975 -1.37286 0
M  V30 8852 C 851.148 -0.344505 -2.01476 0
M  V30 8853 C 851.512 1.05966 -1.6011 0
M  V30 8854 O 852.713 1.58937 -2.16778 0
M  V30 8855 C 850.984 -0.485816 -3.54083 0
M  V30 8856 S 852.543 -0.141939 -4.3857 0
M  V30 8857 H 849.361 -0.13243 -0.698558 0
M  V30 8858 H 851.963 -1.00908 -1.67445 0
M  V30 8859 H 850.667 -1.50835 -3.81677 0
M  V30 8860 H 850.198 0.195232 -3.92915 0
M  V30 8861 H 852.213 1.06177 -4.84707 0
M  V30 8862 N 851.386 1.48609 -0.524698 0
M  V30 8863 C 852.334 2.31205 0.254398 0
M  V30 8864 C 853.328 1.40894 0.940491 0
M  V30 8865 O 854.534 1.57827 0.865478 0
M  V30 8866 H 850.909 0.745199 0.100907 0
M  V30 8867 H 852.88 2.94804 -0.461876 0
M  V30 8868 C 851.629 3.2282 1.2916 0
M  V30 8869 H 850.952 3.92255 0.773074 0
M  V30 8870 H 852.392 3.83508 1.80825 0
M  V30 8871 C 850.851 2.4406 2.32242 0
M  V30 8872 O 851.381 2.16163 3.3858 0
M  V30 8873 N 849.587 2.05651 2.05319 0
M  V30 8874 H 849.134 2.28539 1.18861 0
M  V30 8875 H 849.092 1.53265 2.74513 0
M  V30 8876 N 852.864 0.259585 1.55447 0
M  V30 8877 C 854.089 -0.368317 2.04103 0
M  V30 8878 C 854.514 -1.49827 1.13725 0
M  V30 8879 O 853.872 -1.80814 0.132705 0
M  V30 8880 C 853.92 -0.841506 3.50644 0
M  V30 8881 O 853.024 -1.95008 3.63381 0
M  V30 8882 H 852.365 -0.0785227 0.659341 0
M  V30 8883 H 854.895 0.389349 2.00861 0
M  V30 8884 H 854.905 -1.14138 3.9171 0
M  V30 8885 H 853.58 -0.0147001 4.15897 0
M  V30 8886 H 852.157 -1.65393 3.34215 0
M  V30 8887 N 854.342 -1.57594 -0.0133615 0
M  V30 8888 C 855.582 -1.91834 -0.705639 0
M  V30 8889 C 855.946 -0.859801 -1.71672 0
M  V30 8890 O 857.147 -1.08702 -2.4584 0
M  V30 8891 C 855.418 -3.31174 -1.34383 0
M  V30 8892 S 856.977 -3.87275 -2.06309 0
M  V30 8893 H 853.795 -0.671598 -0.233404 0
M  V30 8894 H 856.397 -1.95459 0.0401173 0
M  V30 8895 H 855.101 -4.06065 -0.594939 0
M  V30 8896 H 854.632 -3.3089 -2.12781 0
M  V30 8897 H 856.647 -3.67271 -3.33657 0
M  V30 8898 N 855.82 0.285905 -1.54985 0
M  V30 8899 C 857.068 1.01718 -1.74636 0
M  V30 8900 C 857.389 1.87277 -0.543342 0
M  V30 8901 O 856.659 1.90847 0.442078 0
M  V30 8902 H 855.239 0.378549 -0.643979 0
M  V30 8903 H 857.901 0.313247 -1.92366 0
M  V30 8904 H 856.997 1.66159 -2.64192 0
M  V30 8905 N 857.298 1.47698 0.54982 0
M  V30 8906 C 858.248 1.57145 1.65195 0
M  V30 8907 C 859.232 0.429839 1.55052 0
M  V30 8908 O 860.424 0.68018 1.63409 0
M  V30 8909 C 857.553 1.59573 3.0396 0
M  V30 8910 C 856.639 2.79144 3.19279 0
M  V30 8911 N 857.03 4.03769 3.04638 0
M  V30 8912 C 855.328 2.76061 3.50295 0
M  V30 8913 C 856.029 4.83887 3.22845 0
M  V30 8914 N 855.005 4.1634 3.49517 0
M  V30 8915 H 858.807 2.51266 1.52455 0
M  V30 8916 H 856.321 1.43795 0.754773 0
M  V30 8917 H 858.318 1.64431 3.83103 0
M  V30 8918 H 856.978 0.66553 3.17806 0
M  V30 8919 H 857.989 4.34515 2.81811 0
M  V30 8920 H 854.666 1.92211 3.70622 0
M  V30 8921 H 856.056 5.92724 3.1643 0
M  V30 8922 N 858.776 -0.797141 1.35954 0
M  V30 8923 C 859.708 -1.91782 1.25509 0
M  V30 8924 C 860.721 -1.61843 0.176271 0
M  V30 8925 O 861.91 -1.73235 0.430343 0
M  V30 8926 C 859.01 -3.26396 0.912073 0
M  V30 8927 C 858.183 -3.84171 2.0912 0
M  V30 8928 C 857.242 -4.9721 1.72246 0
M  V30 8929 O 856.268 -5.14136 2.44239 0
M  V30 8930 N 857.47 -5.76831 0.651611 0
M  V30 8931 H 860.235 -2.01266 2.22063 0
M  V30 8932 H 857.796 -0.975033 1.29247 0
M  V30 8933 H 859.788 -3.99499 0.646707 0
M  V30 8934 H 858.358 -3.12579 0.0359079 0
M  V30 8935 H 857.578 -3.03148 2.51982 0
M  V30 8936 H 858.866 -4.19503 2.87914 0
M  V30 8937 H 858.264 -5.65675 0.0536678 0
M  V30 8938 H 856.821 -6.50272 0.44605 0
M  V30 8939 N 860.254 -1.20106 -1.0204 0
M  V30 8940 C 861.187 -0.889795 -2.10138 0
M  V30 8941 C 862.165 0.156595 -1.61844 0
M  V30 8942 O 863.349 0.0310192 -1.88474 0
M  V30 8943 C 860.476 -0.333227 -3.37057 0
M  V30 8944 C 859.522 -1.36001 -4.04235 0
M  V30 8945 S 860.355 -2.92366 -4.48645 0
M  V30 8946 C 861.511 -2.38274 -5.78771 0
M  V30 8947 H 861.744 -1.80523 -2.36217 0
M  V30 8948 H 859.277 -1.02912 -1.15102 0
M  V30 8949 H 861.235 -0.0186507 -4.10496 0
M  V30 8950 H 859.896 0.560652 -3.09056 0
M  V30 8951 H 859.089 -0.919874 -4.95534 0
M  V30 8952 H 858.691 -1.62186 -3.37004 0
M  V30 8953 H 860.983 -1.77799 -6.53754 0
M  V30 8954 H 861.926 -3.27955 -6.27576 0
M  V30 8955 H 862.334 -1.8054 -5.34851 0
M  V30 8956 N 861.732 1.21287 -1.00634 0
M  V30 8957 C 862.662 2.25973 -0.588089 0
M  V30 8958 C 863.643 1.65527 0.391764 0
M  V30 8959 O 864.828 1.92179 0.279452 0
M  V30 8960 C 861.958 3.47197 0.0847336 0
M  V30 8961 C 860.912 4.20168 -0.815039 0
M  V30 8962 C 860.238 5.34699 -0.00855393 0
M  V30 8963 C 861.538 4.77416 -2.11828 0
M  V30 8964 H 863.232 2.61212 -1.46317 0
M  V30 8965 H 860.778 1.25563 -0.704985 0
M  V30 8966 H 862.731 4.19602 0.388821 0
M  V30 8967 H 861.455 3.11092 0.994456 0
M  V30 8968 H 860.114 3.49614 -1.10297 0
M  V30 8969 H 859.762 4.94837 0.902499 0
M  V30 8970 H 859.462 5.84449 -0.607664 0
M  V30 8971 H 860.986 6.09914 0.289317 0
M  V30 8972 H 862.4 5.41694 -1.87725 0
M  V30 8973 H 860.797 5.37561 -2.66736 0
M  V30 8974 H 861.867 3.96724 -2.78816 0
M  V30 8975 N 863.21 0.781244 1.36873 0
M  V30 8976 C 864.157 0.172146 2.30157 0
M  V30 8977 C 865.127 -0.679328 1.51573 0
M  V30 8978 O 866.312 -0.629713 1.80109 0
M  V30 8979 C 863.452 -0.693534 3.38059 0
M  V30 8980 C 862.565 0.175586 4.31643 0
M  V30 8981 C 861.7 -0.695695 5.26625 0
M  V30 8982 C 860.739 0.17538 6.11849 0
M  V30 8983 N 859.876 -0.654416 6.99043 0
M  V30 8984 H 864.716 0.973133 2.81663 0
M  V30 8985 H 862.253 0.491469 1.38647 0
M  V30 8986 H 864.211 -1.21035 3.99257 0
M  V30 8987 H 862.841 -1.46003 2.87894 0
M  V30 8988 H 861.893 0.810295 3.7167 0
M  V30 8989 H 863.205 0.847107 4.91554 0
M  V30 8990 H 862.359 -1.27863 5.93073 0
M  V30 8991 H 861.098 -1.40087 4.67148 0
M  V30 8992 H 860.103 0.77078 5.4437 0
M  V30 8993 H 861.328 0.87803 6.734 0
M  V30 8994 H 859.274 -1.34403 6.42084 0
M  V30 8995 H 859.191 -0.0403998 7.55989 0
M  V30 8996 H 860.459 -1.22144 7.69871 0
M  V30 8997 N 864.689 -1.48329 0.532571 0
M  V30 8998 C 865.919 -2.066 0.00353785 0
M  V30 8999 C 866.327 -1.38913 -1.28451 0
M  V30 9000 O 865.67 -0.471385 -1.77549 0
M  V30 9001 C 865.732 -3.58342 -0.288324 0
M  V30 9002 C 865.396 -4.47917 0.906631 0
M  V30 9003 C 866.393 -4.87534 1.80572 0
M  V30 9004 C 864.078 -4.89783 1.11436 0
M  V30 9005 C 866.072 -5.6779 2.89642 0
M  V30 9006 C 863.759 -5.69809 2.20819 0
M  V30 9007 C 864.757 -6.08721 3.09755 0
M  V30 9008 O 864.445 -6.8714 4.17246 0
M  V30 9009 H 864.177 -0.675263 0.0315661 0
M  V30 9010 H 866.731 -1.91669 0.738375 0
M  V30 9011 H 864.961 -3.71395 -1.07717 0
M  V30 9012 H 866.65 -3.98726 -0.759752 0
M  V30 9013 H 867.416 -4.5581 1.65719 0
M  V30 9014 H 863.295 -4.58977 0.431382 0
M  V30 9015 H 866.839 -5.98082 3.59087 0
M  V30 9016 H 862.736 -6.00947 2.35655 0
M  V30 9017 H 863.504 -7.05498 4.14988 0
M  V30 9018 N 866.167 -0.267825 -1.55308 0
M  V30 9019 C 867.413 0.351556 -1.9973 0
M  V30 9020 C 867.746 1.56049 -1.15596 0
M  V30 9021 O 867.021 1.93203 -0.224274 0
M  V30 9022 C 867.304 0.74091 -3.52395 0
M  V30 9023 C 867.157 -0.474861 -4.47286 0
M  V30 9024 C 868.476 1.5801 -4.10756 0
M  V30 9025 H 865.595 0.126308 -0.726096 0
M  V30 9026 H 868.237 -0.373316 -1.86296 0
M  V30 9027 H 866.387 1.35851 -3.63973 0
M  V30 9028 H 868.059 -1.1134 -4.47662 0
M  V30 9029 H 866.302 -1.11425 -4.19246 0
M  V30 9030 H 866.973 -0.158782 -5.51772 0
M  V30 9031 H 869.449 1.05857 -4.0241 0
M  V30 9032 H 868.325 1.82135 -5.17801 0
M  V30 9033 H 868.586 2.55878 -3.60526 0
M  V30 9034 N 867.645 1.57599 0.00500368 0
M  V30 9035 C 868.87 1.95026 0.705663 0
M  V30 9036 C 869.295 0.869643 1.6679 0
M  V30 9037 O 868.653 -0.172659 1.80476 0
M  V30 9038 C 868.701 3.31545 1.4181 0
M  V30 9039 O 867.805 3.25495 2.53232 0
M  V30 9040 H 867.146 0.636808 0.188074 0
M  V30 9041 H 869.676 2.04547 -0.046696 0
M  V30 9042 H 869.686 3.66996 1.78265 0
M  V30 9043 H 868.361 4.09751 0.712543 0
M  V30 9044 H 866.938 3.01714 2.19142 0
M  V30 9045 N 869.123 -0.277682 1.55134 0
M  V30 9046 C 870.351 -1.02826 1.7954 0
M  V30 9047 C 870.766 -1.80105 0.566373 0
M  V30 9048 O 870.123 -1.76491 -0.464448 0
M  V30 9049 C 870.174 -1.99053 3.01762 0
M  V30 9050 O 869.895 -1.24906 4.19917 0
M  V30 9051 C 871.396 -2.85961 3.38735 0
M  V30 9052 H 868.616 -0.303958 0.598206 0
M  V30 9053 H 871.16 -0.309884 2.02138 0
M  V30 9054 H 869.315 -2.66359 2.81303 0
M  V30 9055 H 869.729 -1.89725 4.88983 0
M  V30 9056 H 871.203 -3.49286 4.27438 0
M  V30 9057 H 871.68 -3.55486 2.57928 0
M  V30 9058 H 872.286 -2.24152 3.61436 0
M  V30 9059 N 870.601 -1.47988 -0.541979 0
M  V30 9060 C 871.826 -1.59286 -1.32826 0
M  V30 9061 C 872.251 -0.24894 -1.86445 0
M  V30 9062 O 871.609 0.777581 -1.63778 0
M  V30 9063 C 871.657 -2.6334 -2.46343 0
M  V30 9064 O 870.761 -2.19667 -3.49028 0
M  V30 9065 H 870.102 -0.534543 -0.393903 0
M  V30 9066 H 872.632 -1.93885 -0.653427 0
M  V30 9067 H 872.642 -2.84238 -2.92699 0
M  V30 9068 H 871.317 -3.60913 -2.06675 0
M  V30 9069 H 869.894 -2.08932 -3.08872 0
M  V30 9070 N 872.079 0.78992 -1.36375 0
M  V30 9071 C 872.989 1.93386 -1.32812 0
M  V30 9072 C 874.005 1.72468 -0.230377 0
M  V30 9073 O 875.181 1.96014 -0.462657 0
M  V30 9074 C 872.246 3.2824 -1.11621 0
M  V30 9075 C 871.307 3.61939 -2.30865 0
M  V30 9076 C 870.54 4.90359 -2.10675 0
M  V30 9077 O 870.763 5.6005 -1.08168 0
M  V30 9078 O 869.697 5.22702 -2.9844 0
M  V30 9079 H 873.523 1.99342 -2.29121 0
M  V30 9080 H 871.108 0.9301 -1.16917 0
M  V30 9081 H 872.99 4.08939 -1.01719 0
M  V30 9082 H 871.665 3.23178 -0.183732 0
M  V30 9083 H 870.572 2.81549 -2.46335 0
M  V30 9084 H 871.905 3.71725 -3.22617 0
M  V30 9085 N 873.557 1.20646 1.01402 0
M  V30 9086 C 874.782 1.04462 1.79172 0
M  V30 9087 C 875.207 -0.401588 1.83763 0
M  V30 9088 O 874.565 -1.28934 1.27459 0
M  V30 9089 C 874.613 1.63583 3.21361 0
M  V30 9090 O 873.717 0.875198 4.03006 0
M  V30 9091 H 873.058 0.368235 0.552539 0
M  V30 9092 H 875.588 1.59994 1.27526 0
M  V30 9093 H 875.598 1.67426 3.72065 0
M  V30 9094 H 874.273 2.68835 3.17334 0
M  V30 9095 H 872.85 0.911172 3.61597 0
M  V30 9096 N 875.035 -1.20752 1.01276 0
M  V30 9097 C 876.312 -1.85676 0.615112 0
M  V30 9098 C 876.692 -1.90623 -0.906976 0
M  V30 9099 O 876.04 -1.41124 -1.79712 0
M  V30 9100 C 876.25 -3.2552 1.25847 0
M  V30 9101 C 877.598 -4.0184 1.37148 0
M  V30 9102 O 878.622 -3.3486 1.21438 0
M  V30 9103 O 877.481 -5.21783 1.62495 0
M  V30 9104 H 874.575 -0.799437 0.211729 0
M  V30 9105 H 877.121 -1.28372 1.10989 0
M  V30 9106 H 875.893 -3.16664 2.29869 0
M  V30 9107 H 875.516 -3.90452 0.750524 0
M  V30 9108 N 876.513 -0.788492 -1.36457 0
M  V30 9109 C 877.761 -0.359749 -1.98872 0
M  V30 9110 C 878.082 1.07197 -1.62892 0
M  V30 9111 O 877.352 1.73875 -0.902463 0
M  V30 9112 H 875.932 -0.130029 -0.735596 0
M  V30 9113 H 878.594 -1.01033 -1.66668 0
M  V30 9114 H 877.69 -0.450835 -3.08827 0
M  V30 9115 N 877.991 1.48044 -0.54043 0
M  V30 9116 C 879.219 2.06895 -0.0145153 0
M  V30 9117 C 879.634 1.39552 1.27164 0
M  V30 9118 O 878.991 0.486454 1.75897 0
M  V30 9119 C 879.042 3.60934 0.202278 0
M  V30 9120 O 878.763 4.25749 -1.03293 0
M  V30 9121 C 880.264 4.36607 0.767387 0
M  V30 9122 H 877.484 0.66991 -0.0382368 0
M  V30 9123 H 880.028 1.90288 -0.749057 0
M  V30 9124 H 878.183 3.77111 0.886897 0
M  V30 9125 H 878.597 5.18048 -0.820167 0
M  V30 9126 H 880.071 5.45126 0.86845 0
M  V30 9127 H 880.548 4.01745 1.77477 0
M  V30 9128 H 881.154 4.25133 0.119002 0
M  V30 9129 N 879.47 0.276058 1.55163 0
M  V30 9130 C 880.747 -0.392292 1.91626 0
M  V30 9131 C 881.127 -1.73646 1.20043 0
M  V30 9132 O 880.475 -2.26139 0.327606 0
M  V30 9133 C 880.685 -0.531641 3.44927 0
M  V30 9134 C 882.033 -0.8141 4.16722 0
M  V30 9135 O 883.057 -0.616413 3.50826 0
M  V30 9136 O 881.916 -1.19224 5.33337 0
M  V30 9137 H 879.01 -0.214945 0.798579 0
M  V30 9138 H 881.556 0.32228 1.66612 0
M  V30 9139 H 880.328 0.414282 3.89101 0
M  V30 9140 H 879.951 -1.29564 3.75897 0
M  V30 9141 N 880.948 -1.576 0.00335426 0
M  V30 9142 C 882.188 -1.92571 -0.685253 0
M  V30 9143 C 882.552 -0.877961 -1.70751 0
M  V30 9144 O 883.753 -1.11303 -2.44673 0
M  V30 9145 C 882.024 -3.3258 -1.30863 0
M  V30 9146 S 883.583 -3.89442 -2.02189 0
M  V30 9147 H 880.401 -0.674035 -0.226268 0
M  V30 9148 H 883.003 -1.95405 0.0608461 0
M  V30 9149 H 881.707 -4.06673 -0.551837 0
M  V30 9150 H 881.238 -3.33128 -2.09259 0
M  V30 9151 H 883.253 -3.70789 -3.29742 0
M  V30 9152 N 882.426 0.269451 -1.5528 0
M  V30 9153 C 883.666 1.00819 -1.77806 0
M  V30 9154 C 884.03 1.83369 -0.569198 0
M  V30 9155 O 885.231 2.60244 -0.672783 0
M  V30 9156 C 883.502 1.86447 -3.04913 0
M  V30 9157 S 885.061 2.66538 -3.48573 0
M  V30 9158 H 881.879 0.339508 -0.624704 0
M  V30 9159 H 884.481 0.278256 -1.9351 0
M  V30 9160 H 883.185 1.24733 -3.90986 0
M  V30 9161 H 882.716 2.63755 -2.91885 0
M  V30 9162 H 884.731 3.88938 -3.08126 0
M  V30 9163 N 883.904 1.48273 0.534124 0
M  V30 9164 C 885.129 1.59988 1.31979 0
M  V30 9165 C 885.554 0.258824 1.86311 0
M  V30 9166 O 884.912 -0.768885 1.64188 0
M  V30 9167 C 884.96 2.64642 2.44943 0
M  V30 9168 O 884.064 2.21515 3.47858 0
M  V30 9169 H 883.405 0.536625 0.391063 0
M  V30 9170 H 885.935 1.94229 0.643135 0
M  V30 9171 H 885.945 2.85786 2.91187 0
M  V30 9172 H 884.62 3.62004 2.04758 0
M  V30 9173 H 883.197 2.10567 3.0776 0
M  V30 9174 N 885.382 -0.782676 1.36792 0
M  V30 9175 C 886.63 -1.53778 1.31136 0
M  V30 9176 C 886.951 -1.94706 -0.107014 0
M  V30 9177 O 886.221 -1.65465 -1.04872 0
M  V30 9178 H 884.801 -0.570328 0.482426 0
M  V30 9179 H 887.463 -0.932181 1.71162 0
M  V30 9180 H 886.559 -2.44224 1.94321 0
M  V30 9181 N 886.86 -1.21182 -1.00761 0
M  V30 9182 C 887.807 -0.968741 -2.09485 0
M  V30 9183 C 888.777 0.104325 -1.65772 0
M  V30 9184 O 889.962 -0.0422587 -1.90753 0
M  V30 9185 C 887.102 -0.536686 -3.40901 0
M  V30 9186 C 886.215 -1.6789 -3.98041 0
M  V30 9187 C 885.35 -1.19627 -5.17555 0
M  V30 9188 C 884.389 -2.31099 -5.66798 0
M  V30 9189 N 883.526 -1.83988 -6.77564 0
M  V30 9190 H 888.366 -1.89952 -2.29613 0
M  V30 9191 H 885.903 -0.946688 -1.12589 0
M  V30 9192 H 887.861 -0.26745 -4.16342 0
M  V30 9193 H 886.491 0.357092 -3.20819 0
M  V30 9194 H 885.543 -2.06284 -3.19611 0
M  V30 9195 H 886.855 -2.51794 -4.30582 0
M  V30 9196 H 886.009 -0.883539 -6.00232 0
M  V30 9197 H 884.748 -0.327244 -4.86601 0
M  V30 9198 H 883.753 -2.63178 -4.82719 0
M  V30 9199 H 884.978 -3.18493 -5.99782 0
M  V30 9200 H 882.924 -0.994257 -6.48422 0
M  V30 9201 H 882.841 -2.61466 -7.09346 0
M  V30 9202 H 884.109 -1.55741 -7.63783 0
M  V30 9203 N 888.338 1.20213 -1.01915 0
M  V30 9204 C 889.563 1.94163 -0.729076 0
M  V30 9205 C 889.988 1.74416 0.704323 0
M  V30 9206 O 889.346 1.0401 1.48498 0
M  V30 9207 C 889.394 3.44258 -1.07324 0
M  V30 9208 O 888.498 4.11979 -0.186367 0
M  V30 9209 H 887.839 0.606506 -0.270272 0
M  V30 9210 H 890.369 1.52571 -1.3632 0
M  V30 9211 H 890.379 3.94888 -1.02603 0
M  V30 9212 H 889.054 3.57954 -2.11759 0
M  V30 9213 H 887.631 3.7176 -0.291334 0
M  V30 9214 N 889.816 0.795718 1.36037 0
M  V30 9215 C 891.064 0.370291 1.98679 0
M  V30 9216 C 891.385 -1.06332 1.63458 0
M  V30 9217 O 890.655 -1.73394 0.911671 0
M  V30 9218 H 889.235 0.133928 0.734896 0
M  V30 9219 H 891.897 1.01915 1.6613 0
M  V30 9220 H 890.993 0.467207 3.08583 0
M  V30 9221 N 891.294 -1.47756 0.548274 0
M  V30 9222 C 892.204 -2.33678 -0.207773 0
M  V30 9223 C 893.22 -1.47636 -0.920843 0
M  V30 9224 O 894.396 -1.80583 -0.89173 0
M  V30 9225 C 891.461 -3.24147 -1.23003 0
M  V30 9226 C 890.522 -4.26073 -0.52535 0
M  V30 9227 C 889.755 -5.12219 -1.4989 0
M  V30 9228 O 889.978 -5.0066 -2.73305 0
M  V30 9229 O 888.912 -5.93051 -1.02828 0
M  V30 9230 H 892.738 -2.99609 0.496794 0
M  V30 9231 H 890.323 -1.4617 0.308982 0
M  V30 9232 H 892.205 -3.80055 -1.82034 0
M  V30 9233 H 890.88 -2.60855 -1.91668 0
M  V30 9234 H 889.787 -3.7395 0.105927 0
M  V30 9235 H 891.12 -4.92054 0.119686 0
M  V30 9236 N 892.772 -0.284283 -1.55015 0
M  V30 9237 C 893.682 0.60906 -2.26556 0
M  V30 9238 C 894.698 1.16246 -1.29472 0
M  V30 9239 O 895.874 1.1908 -1.62425 0
M  V30 9240 C 892.939 1.77246 -2.97968 0
M  V30 9241 C 892 1.25482 -4.10552 0
M  V30 9242 C 891.233 2.36277 -4.78549 0
M  V30 9243 O 891.456 3.55829 -4.45805 0
M  V30 9244 O 890.39 2.03914 -5.66306 0
M  V30 9245 H 894.216 0.0292298 -3.03686 0
M  V30 9246 H 891.801 -0.0513466 -1.49312 0
M  V30 9247 H 893.683 2.45062 -3.42815 0
M  V30 9248 H 892.358 2.33921 -2.23747 0
M  V30 9249 H 891.265 0.542859 -3.7014 0
M  V30 9250 H 892.598 0.733708 -4.86701 0
M  V30 9251 N 894.251 1.57596 -0.0117121 0
M  V30 9252 C 895.161 2.12596 0.991964 0
M  V30 9253 C 896.177 1.07399 1.36899 0
M  V30 9254 O 897.353 1.39365 1.45394 0
M  V30 9255 C 894.418 2.62796 2.2614 0
M  V30 9256 C 893.479 3.8264 1.94642 0
M  V30 9257 C 892.712 4.30435 3.15533 0
M  V30 9258 O 892.935 3.77495 4.27614 0
M  V30 9259 O 891.869 5.22469 2.98847 0
M  V30 9260 H 895.695 2.98597 0.554371 0
M  V30 9261 H 893.28 1.47947 0.207839 0
M  V30 9262 H 895.162 2.9523 3.00695 0
M  V30 9263 H 893.837 1.79886 2.69114 0
M  V30 9264 H 892.744 3.5516 1.17526 0
M  V30 9265 H 894.077 4.66658 1.56496 0
M  V30 9266 N 895.729 -0.261212 1.5542 0
M  V30 9267 C 896.677 -1.34298 1.89913 0
M  V30 9268 C 897.671 -1.50547 0.776665 0
M  V30 9269 O 898.877 -1.52191 0.961139 0
M  V30 9270 H 895.252 -0.4494 0.602946 0
M  V30 9271 H 897.223 -1.02464 2.80256 0
M  V30 9272 C 895.972 -2.69423 2.19788 0
M  V30 9273 H 895.295 -2.57715 3.05652 0
M  V30 9274 H 896.735 -3.44026 2.47835 0
M  V30 9275 C 895.194 -3.21423 1.00939 0
M  V30 9276 O 895.724 -4.00921 0.250034 0
M  V30 9277 N 893.93 -2.7926 0.803883 0
M  V30 9278 H 893.477 -2.14724 1.42308 0
M  V30 9279 H 893.435 -3.14398 0.0103257 0
M  V30 9280 N 897.207 -1.48554 -0.526253 0
M  V30 9281 C 898.456 -1.56014 -1.27837 0
M  V30 9282 C 898.769 -0.240643 -1.94114 0
M  V30 9283 O 899.975 -0.193525 -2.70809 0
M  V30 9284 C 898.431 -2.75161 -2.31979 0
M  V30 9285 C 898.039 -4.13768 -1.71755 0
M  V30 9286 C 899.783 -2.91936 -3.08178 0
M  V30 9287 C 897.69 -5.24171 -2.7386 0
M  V30 9288 H 896.62 -0.58082 -0.480795 0
M  V30 9289 H 899.271 -1.74895 -0.555335 0
M  V30 9290 H 897.653 -2.49722 -3.07335 0
M  V30 9291 H 898.827 -4.49241 -1.02563 0
M  V30 9292 H 897.142 -4.02141 -1.08036 0
M  V30 9293 H 899.739 -3.71586 -3.84484 0
M  V30 9294 H 900.082 -2.01533 -3.64267 0
M  V30 9295 H 900.615 -3.17294 -2.39937 0
M  V30 9296 H 897.354 -6.16552 -2.22586 0
M  V30 9297 H 896.874 -4.93181 -3.41368 0
M  V30 9298 H 898.553 -5.52442 -3.36774 0
M  V30 9299 N 898.685 0.775411 -1.37205 0
M  V30 9300 C 899.932 1.53384 -1.32211 0
M  V30 9301 C 900.26 1.9427 0.0944958 0
M  V30 9302 O 899.515 1.64059 1.06692 0
M  V30 9303 C 899.814 2.81377 -2.20367 0
M  V30 9304 C 899.48 2.59561 -3.68699 0
M  V30 9305 C 898.142 2.53319 -4.09124 0
M  V30 9306 C 900.494 2.39939 -4.62686 0
M  V30 9307 C 897.822 2.25442 -5.41658 0
M  V30 9308 C 900.174 2.13586 -5.95453 0
M  V30 9309 C 898.838 2.05786 -6.34987 0
M  V30 9310 H 898.108 0.561271 -0.483793 0
M  V30 9311 H 900.755 0.893466 -1.6938 0
M  V30 9312 H 899.06 3.49954 -1.76181 0
M  V30 9313 H 900.757 3.39238 -2.13819 0
M  V30 9314 H 897.347 2.6528 -3.36637 0
M  V30 9315 H 901.531 2.43753 -4.32317 0
M  V30 9316 H 896.787 2.17896 -5.71254 0
M  V30 9317 H 900.961 1.97401 -6.67837 0
M  V30 9318 H 898.588 1.83948 -7.37609 0
M  V30 9319 N 900.163 1.21714 1.00117 0
M  V30 9320 C 901.388 1.06357 1.78054 0
M  V30 9321 C 901.813 -0.382075 1.84179 0
M  V30 9322 O 901.171 -1.27575 1.28819 0
M  V30 9323 C 901.219 1.66982 3.19608 0
M  V30 9324 O 900.323 0.917892 4.02055 0
M  V30 9325 H 899.664 0.374074 0.548602 0
M  V30 9326 H 902.194 1.61338 1.25822 0
M  V30 9327 H 902.204 1.71363 3.70268 0
M  V30 9328 H 900.879 2.72185 3.14465 0
M  V30 9329 H 899.456 0.949473 3.6061 0
M  V30 9330 N 901.641 -1.19671 1.02551 0
M  V30 9331 C 902.588 -2.22773 0.603394 0
M  V30 9332 C 903.558 -1.61669 -0.381081 0
M  V30 9333 O 904.743 -1.88756 -0.278505 0
M  V30 9334 C 901.883 -3.45073 -0.0431034 0
M  V30 9335 C 900.996 -4.20574 0.987006 0
M  V30 9336 C 900.131 -5.30291 0.310626 0
M  V30 9337 C 899.17 -5.97545 1.32688 0
M  V30 9338 N 898.307 -6.98833 0.676542 0
M  V30 9339 H 903.147 -2.58238 1.48719 0
M  V30 9340 H 900.684 -1.26881 0.744286 0
M  V30 9341 H 902.642 -4.14925 -0.435141 0
M  V30 9342 H 901.272 -3.10274 -0.890495 0
M  V30 9343 H 900.324 -3.497 1.49713 0
M  V30 9344 H 901.636 -4.66736 1.75952 0
M  V30 9345 H 900.79 -6.06547 -0.136438 0
M  V30 9346 H 899.529 -4.8519 -0.49412 0
M  V30 9347 H 898.534 -5.20043 1.78424 0
M  V30 9348 H 899.759 -6.4473 2.13306 0
M  V30 9349 H 897.705 -6.55911 -0.108172 0
M  V30 9350 H 897.622 -7.43168 1.38699 0
M  V30 9351 H 898.89 -7.79088 0.253367 0
M  V30 9352 N 903.119 -0.802921 -1.35613 0
M  V30 9353 C 904.029 -0.212177 -2.33639 0
M  V30 9354 C 905.045 0.642871 -1.61689 0
M  V30 9355 O 906.221 0.555485 -1.93588 0
M  V30 9356 C 903.286 0.632406 -3.40883 0
M  V30 9357 C 902.347 -0.242708 -4.28613 0
M  V30 9358 C 901.58 0.56166 -5.30736 0
M  V30 9359 O 901.803 1.79664 -5.41366 0
M  V30 9360 O 900.737 -0.0455387 -6.01883 0
M  V30 9361 H 904.563 -1.023 -2.85952 0
M  V30 9362 H 902.148 -0.564636 -1.38319 0
M  V30 9363 H 904.03 1.11358 -4.0642 0
M  V30 9364 H 902.705 1.42089 -2.90848 0
M  V30 9365 H 901.612 -0.77094 -3.6607 0
M  V30 9366 H 902.945 -0.995046 -4.82037 0
M  V30 9367 N 904.597 1.47463 -0.556102 0
M  V30 9368 C 905.822 2.07371 -0.0344729 0
M  V30 9369 C 906.247 1.40621 1.2493 0
M  V30 9370 O 905.605 0.48082 1.74808 0
M  V30 9371 C 905.653 3.60306 0.145563 0
M  V30 9372 O 904.757 3.94299 1.20839 0
M  V30 9373 H 904.098 0.662052 -0.0508274 0
M  V30 9374 H 906.628 1.89498 -0.771469 0
M  V30 9375 H 906.638 4.06408 0.360112 0
M  V30 9376 H 905.313 4.08288 -0.792089 0
M  V30 9377 H 903.89 3.59944 0.97442 0
M  V30 9378 N 906.075 0.2925 1.54862 0
M  V30 9379 C 907.322 -0.319263 1.99967 0
M  V30 9380 C 907.65 -1.54547 1.18092 0
M  V30 9381 O 906.905 -1.94186 0.242969 0
M  V30 9382 C 907.204 -0.728674 3.49893 0
M  V30 9383 C 906.87 0.394836 4.49168 0
M  V30 9384 C 905.532 0.703289 4.76033 0
M  V30 9385 C 907.884 1.15103 5.08331 0
M  V30 9386 C 905.212 1.77121 5.59325 0
M  V30 9387 C 907.564 2.20881 5.92785 0
M  V30 9388 C 906.228 2.52342 6.17964 0
M  V30 9389 H 905.498 -0.116827 0.731733 0
M  V30 9390 H 908.145 0.40983 1.87063 0
M  V30 9391 H 906.45 -1.53772 3.60363 0
M  V30 9392 H 908.147 -1.21305 3.82212 0
M  V30 9393 H 904.737 0.144319 4.28357 0
M  V30 9394 H 908.921 0.92599 4.87585 0
M  V30 9395 H 904.177 2.01978 5.77074 0
M  V30 9396 H 908.351 2.79939 6.37657 0
M  V30 9397 H 905.978 3.35225 6.82296 0
M  V30 9398 N 907.553 -1.57587 0.0200696 0
M  V30 9399 C 908.5 -2.09667 -0.964791 0
M  V30 9400 C 909.47 -0.99664 -1.32877 0
M  V30 9401 O 910.655 -1.2703 -1.42366 0
M  V30 9402 C 907.795 -2.62101 -2.24493 0
M  V30 9403 C 906.908 -3.8608 -1.93821 0
M  V30 9404 C 906.043 -4.26939 -3.16064 0
M  V30 9405 C 905.082 -5.43701 -2.81169 0
M  V30 9406 N 904.219 -5.79759 -3.9601 0
M  V30 9407 H 909.059 -2.93538 -0.513751 0
M  V30 9408 H 906.596 -1.45096 -0.242 0
M  V30 9409 H 908.554 -2.90587 -2.99358 0
M  V30 9410 H 907.184 -1.81074 -2.6723 0
M  V30 9411 H 906.236 -3.64378 -1.09237 0
M  V30 9412 H 907.548 -4.71028 -1.64115 0
M  V30 9413 H 906.702 -4.56814 -3.99257 0
M  V30 9414 H 905.441 -3.40739 -3.48924 0
M  V30 9415 H 904.446 -5.13529 -1.96387 0
M  V30 9416 H 905.671 -6.31593 -2.49535 0
M  V30 9417 H 903.617 -4.96516 -4.28729 0
M  V30 9418 H 903.534 -6.59327 -3.69896 0
M  V30 9419 H 904.802 -6.14235 -4.79933 0
M  V30 9420 N 909.032 0.252966 -1.55557 0
M  V30 9421 C 909.962 1.31691 -1.9282 0
M  V30 9422 C 910.943 1.50516 -0.7924 0
M  V30 9423 O 912.128 1.63225 -1.05219 0
M  V30 9424 C 909.258 2.67281 -2.21762 0
M  V30 9425 C 908.212 2.6316 -3.37536 0
M  V30 9426 C 907.538 4.02488 -3.52005 0
M  V30 9427 C 908.838 2.20675 -4.73392 0
M  V30 9428 H 910.532 1.00751 -2.81939 0
M  V30 9429 H 908.078 0.483219 -1.3565 0
M  V30 9430 H 910.031 3.41842 -2.46419 0
M  V30 9431 H 908.755 2.99845 -1.29463 0
M  V30 9432 H 907.414 1.91057 -3.12878 0
M  V30 9433 H 907.062 4.32307 -2.57137 0
M  V30 9434 H 906.762 4.00621 -4.29857 0
M  V30 9435 H 908.286 4.78758 -3.78977 0
M  V30 9436 H 909.7 2.84965 -4.97461 0
M  V30 9437 H 908.097 2.29931 -5.54303 0
M  V30 9438 H 909.167 1.15831 -4.70862 0
M  V30 9439 N 910.51 1.48831 0.518367 0
M  V30 9440 C 911.443 1.588 1.63884 0
M  V30 9441 C 912.421 0.437847 1.56594 0
M  V30 9442 O 913.605 0.651042 1.769 0
M  V30 9443 C 910.732 1.52681 3.02335 0
M  V30 9444 C 909.778 2.7268 3.27945 0
M  V30 9445 S 910.611 4.34536 3.12951 0
M  V30 9446 C 911.767 4.31034 4.53828 0
M  V30 9447 H 912 2.53587 1.5518 0
M  V30 9448 H 909.533 1.37507 0.702218 0
M  V30 9449 H 911.491 1.49837 3.82177 0
M  V30 9450 H 910.152 0.592107 3.08469 0
M  V30 9451 H 909.345 2.64569 4.28974 0
M  V30 9452 H 908.947 2.72847 2.55794 0
M  V30 9453 H 911.239 4.01683 5.45579 0
M  V30 9454 H 912.182 5.32282 4.66991 0
M  V30 9455 H 912.59 3.61343 4.33695 0
M  V30 9456 N 911.988 -0.768124 1.37614 0
M  V30 9457 C 912.898 -1.91249 1.35871 0
M  V30 9458 C 913.914 -1.7208 0.257786 0
M  V30 9459 O 915.09 -1.95253 0.493782 0
M  V30 9460 C 912.155 -3.26423 1.16829 0
M  V30 9461 C 911.216 -3.5822 2.36594 0
M  V30 9462 C 910.449 -4.86945 2.1845 0
M  V30 9463 O 910.672 -5.58258 1.17064 0
M  V30 9464 O 909.606 -5.17888 3.06718 0
M  V30 9465 H 913.432 -1.95671 2.32264 0
M  V30 9466 H 911.017 -0.911382 1.18382 0
M  V30 9467 H 912.899 -4.07269 1.08212 0
M  V30 9468 H 911.574 -3.22845 0.235123 0
M  V30 9469 H 910.481 -2.77594 2.50783 0
M  V30 9470 H 911.814 -3.66545 3.2849 0
M  V30 9471 N 913.466 -1.22244 -0.994698 0
M  V30 9472 C 914.694 -1.07218 -1.76952 0
M  V30 9473 C 915.109 0.377388 -1.8499 0
M  V30 9474 O 914.466 1.26157 -1.31874 0
M  V30 9475 C 914.517 -1.67496 -3.20355 0
M  V30 9476 O 914.238 -3.06782 -3.12756 0
M  V30 9477 C 915.739 -1.57721 -4.14294 0
M  V30 9478 H 912.959 -0.375966 -0.555779 0
M  V30 9479 H 915.503 -1.61799 -1.25065 0
M  V30 9480 H 913.658 -1.16982 -3.69315 0
M  V30 9481 H 914.072 -3.35784 -4.02926 0
M  V30 9482 H 915.546 -2.04623 -5.12673 0
M  V30 9483 H 916.023 -0.533434 -4.35949 0
M  V30 9484 H 916.629 -2.07531 -3.71229 0
M  V30 9485 N 914.944 1.19125 -1.03184 0
M  V30 9486 C 915.876 2.21914 -0.573294 0
M  V30 9487 C 916.889 1.5894 0.352397 0
M  V30 9488 O 918.078 1.77883 0.148318 0
M  V30 9489 C 915.178 3.38403 0.18355 0
M  V30 9490 C 914.351 4.3096 -0.747817 0
M  V30 9491 C 913.41 5.26188 -0.0358489 0
M  V30 9492 O 912.436 5.65321 -0.663388 0
M  V30 9493 N 913.638 5.67235 1.23387 0
M  V30 9494 H 916.403 2.61881 -1.45734 0
M  V30 9495 H 913.964 1.33821 -0.911231 0
M  V30 9496 H 915.956 3.99124 0.669468 0
M  V30 9497 H 914.526 2.97201 0.969043 0
M  V30 9498 H 913.746 3.67976 -1.41377 0
M  V30 9499 H 915.034 4.89708 -1.38071 0
M  V30 9500 H 914.432 5.37481 1.76439 0
M  V30 9501 H 912.989 6.30196 1.66423 0
M  V30 9502 N 916.422 0.810101 1.35185 0
M  V30 9503 C 917.354 0.180581 2.28488 0
M  V30 9504 C 918.367 -0.622154 1.50443 0
M  V30 9505 O 919.556 -0.453938 1.72632 0
M  V30 9506 C 916.656 -0.766447 3.30119 0
M  V30 9507 C 915.829 -0.00932028 4.37399 0
M  V30 9508 C 914.888 -0.875354 5.18868 0
M  V30 9509 O 913.914 -0.325012 5.68271 0
M  V30 9510 N 915.116 -2.19695 5.37321 0
M  V30 9511 H 917.881 0.98212 2.83151 0
M  V30 9512 H 915.442 0.665879 1.47573 0
M  V30 9513 H 917.434 -1.35012 3.81515 0
M  V30 9514 H 916.004 -1.46878 2.75945 0
M  V30 9515 H 915.224 0.755585 3.86891 0
M  V30 9516 H 916.512 0.512352 5.06214 0
M  V30 9517 H 915.91 -2.66797 4.98834 0
M  V30 9518 H 914.467 -2.72978 5.91884 0
M  V30 9519 N 917.9 -1.47166 0.563914 0
M  V30 9520 C 918.81 -2.33885 -0.182977 0
M  V30 9521 C 919.826 -1.48605 -0.905132 0
M  V30 9522 O 921.002 -1.81518 -0.872527 0
M  V30 9523 C 918.067 -3.25433 -1.19558 0
M  V30 9524 C 917.128 -4.26607 -0.480129 0
M  V30 9525 C 916.361 -5.1378 -1.44449 0
M  V30 9526 O 916.584 -5.03531 -2.67979 0
M  V30 9527 O 915.518 -5.94109 -0.965321 0
M  V30 9528 H 919.344 -2.99065 0.528544 0
M  V30 9529 H 916.929 -1.45834 0.324468 0
M  V30 9530 H 918.811 -3.81964 -1.77993 0
M  V30 9531 H 917.486 -2.62873 -1.8889 0
M  V30 9532 H 916.393 -3.73817 0.145583 0
M  V30 9533 H 917.726 -4.919 0.171868 0
M  V30 9534 N 919.378 -0.300708 -1.54705 0
M  V30 9535 C 920.288 0.584996 -2.27189 0
M  V30 9536 C 921.304 1.14866 -1.30697 0
M  V30 9537 O 922.48 1.17351 -1.63679 0
M  V30 9538 C 919.545 1.74076 -2.99831 0
M  V30 9539 C 918.606 1.2112 -4.1186 0
M  V30 9540 C 917.839 2.31188 -4.81028 0
M  V30 9541 O 918.062 3.5108 -4.49554 0
M  V30 9542 O 916.996 1.97897 -5.68437 0
M  V30 9543 H 920.822 -0.00298177 -3.037 0
M  V30 9544 H 918.407 -0.0671802 -1.49249 0
M  V30 9545 H 920.289 2.41413 -3.45395 0
M  V30 9546 H 918.964 2.31535 -2.26215 0
M  V30 9547 H 917.871 0.50357 -3.70695 0
M  V30 9548 H 919.204 0.682046 -4.87452 0
M  V30 9549 N 920.856 1.57574 -0.0284266 0
M  V30 9550 C 921.766 2.13637 0.96936 0
M  V30 9551 C 922.782 1.08845 1.35752 0
M  V30 9552 O 923.958 1.40899 1.43908 0
M  V30 9553 C 921.023 2.65179 2.2334 0
M  V30 9554 C 920.084 3.84683 1.90572 0
M  V30 9555 C 919.317 4.33758 3.1095 0
M  V30 9556 O 919.54 3.82009 4.23586 0
M  V30 9557 O 918.474 5.2561 2.93288 0
M  V30 9558 H 922.3 2.99169 0.52267 0
M  V30 9559 H 919.885 1.48159 0.192135 0
M  V30 9560 H 921.767 2.98402 2.97547 0
M  V30 9561 H 920.442 1.82731 2.67191 0
M  V30 9562 H 919.349 3.56386 1.13753 0
M  V30 9563 H 920.682 4.68292 1.51538 0
M  V30 9564 N 922.334 -0.244713 1.55689 0
M  V30 9565 C 923.562 -0.989944 1.8168 0
M  V30 9566 C 923.977 -1.78863 0.604449 0
M  V30 9567 O 923.334 -1.77437 -0.426907 0
M  V30 9568 C 923.385 -1.92607 3.05916 0
M  V30 9569 O 923.106 -1.1597 4.22472 0
M  V30 9570 C 924.607 -2.78711 3.44724 0
M  V30 9571 H 921.827 -0.2912 0.604519 0
M  V30 9572 H 924.371 -0.266938 2.0275 0
M  V30 9573 H 922.526 -2.60333 2.8689 0
M  V30 9574 H 922.94 -1.79311 4.92898 0
M  V30 9575 H 924.414 -3.40141 4.34751 0
M  V30 9576 H 924.891 -3.49935 2.6541 0
M  V30 9577 H 925.497 -2.16435 3.66109 0
M  V30 9578 N 923.813 -1.49104 -0.510467 0
M  V30 9579 C 924.723 -1.67792 -1.6396 0
M  V30 9580 C 925.739 -0.560454 -1.64727 0
M  V30 9581 O 926.915 -0.833985 -1.83321 0
M  V30 9582 C 923.98 -1.73154 -3.00364 0
M  V30 9583 C 923.041 -2.9667 -3.10299 0
M  V30 9584 C 922.274 -3.01767 -4.40196 0
M  V30 9585 O 922.497 -2.1472 -5.28443 0
M  V30 9586 O 921.431 -3.94137 -4.54906 0
M  V30 9587 H 925.257 -2.63428 -1.51126 0
M  V30 9588 H 922.842 -1.32734 -0.685719 0
M  V30 9589 H 924.724 -1.79089 -3.81451 0
M  V30 9590 H 923.399 -0.806952 -3.1348 0
M  V30 9591 H 922.306 -2.96257 -2.28435 0
M  V30 9592 H 923.639 -3.88578 -3.02106 0
M  V30 9593 N 925.291 0.760815 -1.38019 0
M  V30 9594 C 926.238 1.8744 -1.34666 0
M  V30 9595 C 927.208 1.64762 -0.210386 0
M  V30 9596 O 928.393 1.86528 -0.401479 0
M  V30 9597 C 925.533 3.24648 -1.17037 0
M  V30 9598 C 924.646 3.59206 -2.3999 0
M  V30 9599 C 923.781 4.8568 -2.15148 0
M  V30 9600 C 922.82 5.13002 -3.3391 0
M  V30 9601 N 921.957 6.30668 -3.08549 0
M  V30 9602 H 926.797 1.8964 -2.29871 0
M  V30 9603 H 924.334 0.927004 -1.14215 0
M  V30 9604 H 926.292 4.03814 -1.04834 0
M  V30 9605 H 924.922 3.21793 -0.254758 0
M  V30 9606 H 923.974 2.74939 -2.62893 0
M  V30 9607 H 925.286 3.75328 -3.28527 0
M  V30 9608 H 924.44 5.72773 -2.00039 0
M  V30 9609 H 923.179 4.71682 -1.23965 0
M  V30 9610 H 922.184 4.2438 -3.49545 0
M  V30 9611 H 923.409 5.28901 -4.25958 0
M  V30 9612 H 921.355 6.18008 -2.20006 0
M  V30 9613 H 921.272 6.47257 -3.90633 0
M  V30 9614 H 922.54 7.20669 -2.9708 0
M  V30 9615 N 926.769 1.22769 0.988202 0
M  V30 9616 C 927.716 1.00195 2.07917 0
M  V30 9617 C 928.686 -0.0779391 1.65917 0
M  V30 9618 O 929.871 0.0726005 1.90662 0
M  V30 9619 C 927.011 0.590853 3.40004 0
M  V30 9620 C 926.124 1.74202 3.9532 0
M  V30 9621 C 925.259 1.27846 5.15586 0
M  V30 9622 C 924.298 2.40087 5.63049 0
M  V30 9623 N 923.435 1.94744 6.74551 0
M  V30 9624 H 928.275 1.93581 2.26562 0
M  V30 9625 H 925.812 0.96448 1.11068 0
M  V30 9626 H 927.77 0.333653 4.15864 0
M  V30 9627 H 926.4 -0.306007 3.21346 0
M  V30 9628 H 925.452 2.11342 3.16289 0
M  V30 9629 H 926.764 2.58612 4.26522 0
M  V30 9630 H 925.918 0.978919 5.9875 0
M  V30 9631 H 924.657 0.404617 4.86019 0
M  V30 9632 H 923.662 2.70824 4.78471 0
M  V30 9633 H 924.887 3.27995 5.9464 0
M  V30 9634 H 922.833 1.09729 6.46758 0
M  V30 9635 H 922.75 2.72718 7.05096 0
M  V30 9636 H 924.018 1.67873 7.61209 0
M  V30 9637 N 928.247 -1.18576 1.03814 0
M  V30 9638 C 929.524 -1.8433 0.654358 0
M  V30 9639 C 929.904 -1.92504 -0.866338 0
M  V30 9640 O 929.252 -1.44904 -1.76678 0
M  V30 9641 C 929.462 -3.22778 1.32723 0
M  V30 9642 C 930.81 -3.98841 1.45641 0
M  V30 9643 O 931.834 -3.32209 1.28514 0
M  V30 9644 O 930.693 -5.18219 1.73526 0
M  V30 9645 H 927.787 -0.794766 0.228638 0
M  V30 9646 H 930.333 -1.25989 1.13687 0
M  V30 9647 H 929.105 -3.11717 2.36534 0
M  V30 9648 H 928.728 -3.88772 0.833176 0
M  V30 9649 N 929.725 -0.817259 -1.34754 0
M  V30 9650 C 930.95 -0.414423 -2.03217 0
M  V30 9651 C 931.375 0.970037 -1.61158 0
M  V30 9652 O 930.733 1.63016 -0.793436 0
M  V30 9653 C 930.781 -0.518087 -3.56859 0
M  V30 9654 O 929.885 0.464314 -4.09778 0
M  V30 9655 H 929.226 -0.171454 -0.641482 0
M  V30 9656 H 931.756 -1.10611 -1.72123 0
M  V30 9657 H 931.766 -0.391779 -4.06115 0
M  V30 9658 H 930.441 -1.52786 -3.86819 0
M  V30 9659 H 929.018 0.297361 -3.71712 0
M  V30 9660 N 931.203 1.46865 -0.571711 0
M  V30 9661 C 932.619 1.57897 -0.23255 0
M  V30 9662 C 932.819 1.56836 1.26509 0
M  V30 9663 O 931.875 1.47947 2.04617 0
M  V30 9664 C 933.188 2.87778 -0.872036 0
M  V30 9665 C 934.736 3.01389 -0.844605 0
M  V30 9666 C 935.211 4.33991 -1.46343 0
M  V30 9667 N 936.702 4.40662 -1.42727 0
M  V30 9668 C 937.437 5.41858 -1.87557 0
M  V30 9669 N 936.933 6.49787 -2.4031 0
M  V30 9670 N 938.726 5.32992 -1.7854 0
M  V30 9671 H 930.877 1.45798 -1.54457 0
M  V30 9672 H 933.14 0.694785 -0.644964 0
M  V30 9673 H 932.846 2.94332 -1.92513 0
M  V30 9674 H 932.72 3.75345 -0.373677 0
M  V30 9675 H 935.107 2.94423 0.19984 0
M  V30 9676 H 935.188 2.15327 -1.38087 0
M  V30 9677 H 934.832 4.41714 -2.50701 0
M  V30 9678 H 934.762 5.18809 -0.902479 0
M  V30 9679 H 937.253 3.63263 -1.04155 0
M  V30 9680 H 937.566 7.23199 -2.72403 0
M  V30 9681 H 935.911 6.50637 -2.44329 0
M  V30 9682 H 939.102 4.47575 -1.37093 0
M  V30 9683 H 939.275 6.11716 -2.13794 0
M  V30 9684 N 932.681 0.308908 1.54543 0
M  V30 9685 C 933.628 -0.563659 2.23811 0
M  V30 9686 C 934.598 -1.12332 1.22355 0
M  V30 9687 O 935.783 -1.16638 1.50997 0
M  V30 9688 C 932.923 -1.72585 2.98845 0
M  V30 9689 C 932.036 -1.19682 4.1509 0
M  V30 9690 C 931.171 -2.32351 4.77688 0
M  V30 9691 C 930.21 -1.76623 5.86064 0
M  V30 9692 N 929.347 -2.82896 6.42584 0
M  V30 9693 H 934.187 0.0336288 2.97981 0
M  V30 9694 H 931.724 0.0283666 1.47073 0
M  V30 9695 H 933.682 -2.40951 3.40586 0
M  V30 9696 H 932.312 -2.29464 2.27037 0
M  V30 9697 H 931.364 -0.405173 3.78236 0
M  V30 9698 H 932.676 -0.748923 4.93146 0
M  V30 9699 H 931.83 -3.0865 5.22322 0
M  V30 9700 H 930.569 -2.80472 3.98982 0
M  V30 9701 H 929.574 -0.988171 5.40847 0
M  V30 9702 H 930.799 -1.29398 6.66658 0
M  V30 9703 H 928.745 -3.30336 5.66758 0
M  V30 9704 H 928.662 -2.42626 7.16009 0
M  V30 9705 H 929.93 -3.59068 6.91875 0
M  V30 9706 N 934.159 -1.57557 0.0367827 0
M  V30 9707 C 935.089 -2.13712 -0.940719 0
M  V30 9708 C 936.07 -1.05515 -1.33419 0
M  V30 9709 O 937.255 -1.33385 -1.41146 0
M  V30 9710 C 934.385 -2.67043 -2.22048 0
M  V30 9711 C 933.339 -3.80096 -1.96752 0
M  V30 9712 C 932.665 -4.19886 -3.31059 0
M  V30 9713 C 933.965 -5.05848 -1.30058 0
M  V30 9714 H 935.659 -2.9564 -0.473033 0
M  V30 9715 H 933.205 -1.42214 -0.226089 0
M  V30 9716 H 935.158 -3.04964 -2.90818 0
M  V30 9717 H 933.882 -1.82287 -2.70996 0
M  V30 9718 H 932.541 -3.42625 -1.30398 0
M  V30 9719 H 932.189 -3.32101 -3.77781 0
M  V30 9720 H 931.889 -4.96073 -3.14937 0
M  V30 9721 H 933.413 -4.60395 -4.01084 0
M  V30 9722 H 934.827 -5.41306 -1.8884 0
M  V30 9723 H 933.224 -5.87084 -1.24309 0
M  V30 9724 H 934.294 -4.84122 -0.274591 0
M  V30 9725 N 935.637 0.236453 -1.55816 0
M  V30 9726 C 936.884 0.963012 -1.78136 0
M  V30 9727 C 937.212 1.84918 -0.602952 0
M  V30 9728 O 936.467 1.91285 0.413325 0
M  V30 9729 C 936.766 1.84549 -3.06066 0
M  V30 9730 C 936.432 1.11381 -4.36927 0
M  V30 9731 C 935.094 0.911635 -4.72486 0
M  V30 9732 C 937.446 0.596 -5.17781 0
M  V30 9733 C 934.774 0.179515 -5.86425 0
M  V30 9734 C 937.126 -0.122702 -6.32481 0
M  V30 9735 C 935.79 -0.336263 -6.66652 0
M  V30 9736 H 935.06 0.352391 -0.651845 0
M  V30 9737 H 937.707 0.232295 -1.90086 0
M  V30 9738 H 936.012 2.6436 -2.89173 0
M  V30 9739 H 937.709 2.40953 -3.20535 0
M  V30 9740 H 934.299 1.28134 -4.08998 0
M  V30 9741 H 938.483 0.73971 -4.90757 0
M  V30 9742 H 933.739 0.00368224 -6.114 0
M  V30 9743 H 937.913 -0.531516 -6.94369 0
M  V30 9744 H 935.54 -0.905507 -7.54788 0
M  V30 9745 N 937.115 1.49373 0.502552 0
M  V30 9746 C 938.047 1.62045 1.62093 0
M  V30 9747 C 939.06 0.503221 1.54827 0
M  V30 9748 O 940.249 0.775208 1.60788 0
M  V30 9749 C 937.349 1.55971 3.00876 0
M  V30 9750 C 936.522 2.832 3.33341 0
M  V30 9751 C 935.581 2.702 4.51529 0
M  V30 9752 O 934.607 3.44132 4.53389 0
M  V30 9753 N 935.809 1.81642 5.5135 0
M  V30 9754 H 938.574 2.58501 1.51649 0
M  V30 9755 H 936.135 1.46442 0.690396 0
M  V30 9756 H 938.127 1.4493 3.77859 0
M  V30 9757 H 936.697 0.673795 3.05252 0
M  V30 9758 H 935.917 3.08604 2.4527 0
M  V30 9759 H 937.205 3.67551 3.51829 0
M  V30 9760 H 936.603 1.20829 5.52645 0
M  V30 9761 H 935.16 1.76524 6.27441 0
M  V30 9762 N 938.594 -0.753485 1.38421 0
M  V30 9763 C 939.504 -1.89797 1.37892 0
M  V30 9764 C 940.52 -1.71797 0.276023 0
M  V30 9765 O 941.696 -1.94718 0.514464 0
M  V30 9766 C 938.761 -3.25166 1.20284 0
M  V30 9767 C 937.822 -3.55691 2.4038 0
M  V30 9768 C 937.055 -4.84601 2.23602 0
M  V30 9769 O 937.278 -5.56985 1.22979 0
M  V30 9770 O 936.212 -5.14605 3.12194 0
M  V30 9771 H 940.038 -1.93197 2.34326 0
M  V30 9772 H 937.623 -0.898775 1.19342 0
M  V30 9773 H 939.505 -4.06099 1.12525 0
M  V30 9774 H 938.18 -3.22577 0.269352 0
M  V30 9775 H 937.087 -2.74919 2.53714 0
M  V30 9776 H 938.42 -3.6304 3.32359 0
M  V30 9777 N 940.072 -1.23292 -0.981677 0
M  V30 9778 C 941.32 -1.06214 -1.71939 0
M  V30 9779 C 941.641 0.401989 -1.90812 0
M  V30 9780 O 940.911 1.28825 -1.47584 0
M  V30 9781 H 939.491 -0.390042 -0.637084 0
M  V30 9782 H 942.153 -1.54988 -1.18173 0
M  V30 9783 H 941.249 -1.54904 -2.70945 0
M  V30 9784 N 941.55 1.18024 -1.04442 0
M  V30 9785 C 942.827 1.8398 -0.664125 0
M  V30 9786 C 943.207 1.92961 0.856116 0
M  V30 9787 O 942.555 1.45839 1.75907 0
M  V30 9788 C 942.765 3.22069 -1.34433 0
M  V30 9789 C 944.113 3.98063 -1.47754 0
M  V30 9790 O 945.137 3.31523 -1.30274 0
M  V30 9791 O 943.996 5.17291 -1.76272 0
M  V30 9792 H 941.09 0.793543 -0.23285 0
M  V30 9793 H 943.636 1.25385 -1.14354 0
M  V30 9794 H 942.408 3.10458 -2.38184 0
M  V30 9795 H 942.031 3.88325 -0.853782 0
M  V30 9796 N 943.028 0.824394 1.34319 0
M  V30 9797 C 943.975 0.245282 2.29493 0
M  V30 9798 C 944.945 -0.630762 1.53657 0
M  V30 9799 O 946.13 -0.572094 1.82021 0
M  V30 9800 C 943.27 -0.585631 3.40095 0
M  V30 9801 C 942.383 0.312821 4.30866 0
M  V30 9802 C 941.518 -0.527801 5.28571 0
M  V30 9803 C 940.557 0.369946 6.10981 0
M  V30 9804 N 939.694 -0.43169 7.00772 0
M  V30 9805 H 944.534 1.06225 2.78425 0
M  V30 9806 H 942.071 0.53533 1.37013 0
M  V30 9807 H 944.029 -1.08271 4.02906 0
M  V30 9808 H 942.659 -1.3677 2.92393 0
M  V30 9809 H 941.711 0.928129 3.68904 0
M  V30 9810 H 943.023 1.00306 4.8861 0
M  V30 9811 H 942.177 -1.0893 5.96841 0
M  V30 9812 H 940.916 -1.25154 4.71368 0
M  V30 9813 H 939.921 0.943577 5.41643 0
M  V30 9814 H 941.146 1.09182 6.70266 0
M  V30 9815 H 939.092 -1.13908 6.46035 0
M  V30 9816 H 939.009 0.200133 7.55735 0
M  V30 9817 H 940.277 -0.975894 7.73367 0
M  V30 9818 N 944.506 -1.46559 0.579492 0
M  V30 9819 C 945.752 -2.03272 0.0722569 0
M  V30 9820 C 946.107 -1.44334 -1.27222 0
M  V30 9821 O 945.4 -0.597848 -1.82034 0
M  V30 9822 C 945.594 -3.57357 -0.0552803 0
M  V30 9823 C 945.423 -4.31238 1.27529 0
M  V30 9824 C 944.193 -4.70272 1.84857 0
M  V30 9825 C 946.391 -4.64978 2.19773 0
M  V30 9826 N 944.373 -5.2889 3.11687 0
M  V30 9827 C 945.744 -5.24132 3.31189 0
M  V30 9828 C 947.799 -4.46908 2.19493 0
M  V30 9829 C 946.502 -5.67123 4.42452 0
M  V30 9830 C 948.528 -4.90914 3.29784 0
M  V30 9831 C 947.89 -5.50136 4.3992 0
M  V30 9832 H 943.989 -0.778937 0.0691416 0
M  V30 9833 H 946.573 -1.78754 0.771683 0
M  V30 9834 H 944.744 -3.81595 -0.723868 0
M  V30 9835 H 946.476 -4.00714 -0.566606 0
M  V30 9836 H 943.231 -4.5293 1.38388 0
M  V30 9837 H 943.655 -5.62723 3.76393 0
M  V30 9838 H 948.297 -4.00459 1.35617 0
M  V30 9839 H 946.015 -6.12552 5.27073 0
M  V30 9840 H 949.601 -4.78687 3.30682 0
M  V30 9841 H 948.481 -5.83564 5.23854 0
M  V30 9842 N 945.984 -0.3171 -1.54377 0
M  V30 9843 C 946.914 0.544623 -2.2706 0
M  V30 9844 C 947.895 1.12469 -1.27611 0
M  V30 9845 O 949.08 1.15103 -1.56413 0
M  V30 9846 C 946.21 1.70879 -3.02353 0
M  V30 9847 C 945.164 1.25833 -4.09084 0
M  V30 9848 C 944.49 2.50894 -4.72182 0
M  V30 9849 C 945.79 0.377876 -5.20931 0
M  V30 9850 H 947.484 -0.0616372 -2.99337 0
M  V30 9851 H 945.03 -0.0310848 -1.43966 0
M  V30 9852 H 946.983 2.31787 -3.51927 0
M  V30 9853 H 945.707 2.34155 -2.27682 0
M  V30 9854 H 944.366 0.672228 -3.60384 0
M  V30 9855 H 944.014 3.12518 -3.94134 0
M  V30 9856 H 943.714 2.21447 -5.44275 0
M  V30 9857 H 945.238 3.12575 -5.24528 0
M  V30 9858 H 946.652 0.893056 -5.66302 0
M  V30 9859 H 945.049 0.176474 -5.9984 0
M  V30 9860 H 946.119 -0.592943 -4.81261 0
M  V30 9861 N 947.462 1.57535 -0.0451378 0
M  V30 9862 C 948.69 1.96761 0.639742 0
M  V30 9863 C 949.105 0.922405 1.64734 0
M  V30 9864 O 948.462 -0.0940535 1.82257 0
M  V30 9865 C 948.513 3.36066 1.33199 0
M  V30 9866 O 948.234 4.36579 0.364757 0
M  V30 9867 C 949.735 3.90015 2.1072 0
M  V30 9868 H 946.955 0.64769 0.175324 0
M  V30 9869 H 949.499 2.04206 -0.109651 0
M  V30 9870 H 947.654 3.2979 2.03266 0
M  V30 9871 H 948.068 5.17432 0.858168 0
M  V30 9872 H 949.542 4.89785 2.54586 0
M  V30 9873 H 950.019 3.25117 2.95288 0
M  V30 9874 H 950.625 3.99609 1.45577 0
M  V30 9875 N 948.94 -0.228186 1.55939 0
M  V30 9876 C 949.85 -1.30386 1.9503 0
M  V30 9877 C 950.866 -1.51645 0.853218 0
M  V30 9878 O 952.042 -1.64904 1.15623 0
M  V30 9879 C 949.107 -2.63489 2.25332 0
M  V30 9880 C 948.168 -2.5059 3.48573 0
M  V30 9881 C 947.401 -3.77345 3.7742 0
M  V30 9882 O 947.624 -4.80067 3.08045 0
M  V30 9883 O 946.558 -3.74855 4.70922 0
M  V30 9884 H 950.384 -1.0022 2.86687 0
M  V30 9885 H 947.969 -0.430503 1.43063 0
M  V30 9886 H 949.851 -3.4211 2.46046 0
M  V30 9887 H 948.526 -2.93349 1.3685 0
M  V30 9888 H 947.433 -1.70191 3.33145 0
M  V30 9889 H 948.766 -2.2567 4.37417 0
M  V30 9890 N 950.418 -1.49637 -0.494624 0
M  V30 9891 C 951.328 -1.69522 -1.62172 0
M  V30 9892 C 952.344 -0.577894 -1.64123 0
M  V30 9893 O 953.52 -0.853382 -1.82426 0
M  V30 9894 C 950.585 -1.7633 -2.9851 0
M  V30 9895 C 949.646 -2.99944 -3.07135 0
M  V30 9896 C 948.879 -3.06419 -4.36971 0
M  V30 9897 O 949.102 -2.20312 -5.26136 0
M  V30 9898 O 948.036 -3.9894 -4.507 0
M  V30 9899 H 951.862 -2.65017 -1.48324 0
M  V30 9900 H 949.447 -1.33454 -0.671603 0
M  V30 9901 H 951.329 -1.83125 -3.7953 0
M  V30 9902 H 950.004 -0.840155 -3.12607 0
M  V30 9903 H 948.911 -2.98664 -2.2528 0
M  V30 9904 H 950.244 -3.9176 -2.97968 0
M  V30 9905 N 951.896 0.746133 -1.38819 0
M  V30 9906 C 952.859 1.84167 -1.36437 0
M  V30 9907 C 953.859 1.58626 -0.263499 0
M  V30 9908 O 955.049 1.66233 -0.520801 0
M  V30 9909 C 952.181 3.21769 -1.12596 0
M  V30 9910 H 953.374 1.87684 -2.33912 0
M  V30 9911 H 950.927 0.948625 -1.24221 0
M  V30 9912 H 951.662 3.23917 -0.15758 0
M  V30 9913 H 951.447 3.41702 -1.92307 0
M  V30 9914 H 952.937 4.0184 -1.13643 0
M  V30 9915 N 953.375 1.23811 0.975125 0
M  V30 9916 C 954.307 0.981779 2.07108 0
M  V30 9917 C 955.32 -0.0461211 1.62735 0
M  V30 9918 O 956.509 0.190039 1.77486 0
M  V30 9919 C 953.609 0.458364 3.35786 0
M  V30 9920 C 952.782 1.54767 4.09104 0
M  V30 9921 C 951.841 1.0282 5.16057 0
M  V30 9922 O 950.867 1.71831 5.42644 0
M  V30 9923 N 952.069 -0.141243 5.80328 0
M  V30 9924 H 954.834 1.92537 2.29673 0
M  V30 9925 H 952.395 1.1474 1.14221 0
M  V30 9926 H 954.387 0.0957686 4.04587 0
M  V30 9927 H 952.957 -0.390768 3.10148 0
M  V30 9928 H 952.177 2.08279 3.34684 0
M  V30 9929 H 953.465 2.28006 4.54853 0
M  V30 9930 H 952.863 -0.718382 5.6112 0
M  V30 9931 H 951.42 -0.445052 6.50279 0
M  V30 9932 N 954.853 -1.17469 1.05066 0
M  V30 9933 C 956.078 -1.92162 0.780298 0
M  V30 9934 C 956.503 -1.76222 -0.657832 0
M  V30 9935 O 955.861 -1.0791 -1.45688 0
M  V30 9936 C 955.909 -3.41292 1.16414 0
M  V30 9937 O 955.013 -4.1134 0.295531 0
M  V30 9938 H 954.354 -0.599127 0.286257 0
M  V30 9939 H 956.884 -1.48903 1.40318 0
M  V30 9940 H 956.894 -3.92029 1.13036 0
M  V30 9941 H 955.569 -3.52214 2.21175 0
M  V30 9942 H 954.146 -3.70857 0.389797 0
M  V30 9943 N 956.331 -0.831506 -1.3388 0
M  V30 9944 C 957.241 -0.261688 -2.33136 0
M  V30 9945 C 958.257 0.608429 -1.63016 0
M  V30 9946 O 959.433 0.514297 -1.94723 0
M  V30 9947 C 956.498 0.559957 -3.42148 0
M  V30 9948 C 955.559 -0.333569 -4.28002 0
M  V30 9949 C 954.792 0.448956 -5.31808 0
M  V30 9950 O 955.015 1.6814 -5.45055 0
M  V30 9951 O 953.949 -0.173197 -6.01651 0
M  V30 9952 H 957.775 -1.08343 -2.83717 0
M  V30 9953 H 955.36 -0.593849 -1.3709 0
M  V30 9954 H 957.242 1.02712 -4.08691 0
M  V30 9955 H 955.917 1.35888 -2.93796 0
M  V30 9956 H 954.824 -0.848416 -3.64352 0
M  V30 9957 H 956.157 -1.09707 -4.79818 0
M  V30 9958 N 957.809 1.4625 -0.587256 0
M  V30 9959 C 958.741 2.28482 0.181256 0
M  V30 9960 C 959.754 1.38777 0.851163 0
M  V30 9961 O 960.943 1.63336 0.719963 0
M  V30 9962 C 958.043 3.13944 1.27643 0
M  V30 9963 C 957.216 4.31802 0.697569 0
M  V30 9964 C 956.275 4.98626 1.68102 0
M  V30 9965 O 955.301 5.56075 1.21529 0
M  V30 9966 N 956.503 4.96051 3.0152 0
M  V30 9967 H 959.268 2.95079 -0.524267 0
M  V30 9968 H 956.829 1.56213 -0.425336 0
M  V30 9969 H 958.821 3.55513 1.93371 0
M  V30 9970 H 957.391 2.49391 1.88475 0
M  V30 9971 H 956.611 3.93961 -0.137293 0
M  V30 9972 H 957.899 5.07969 0.290696 0
M  V30 9973 H 957.297 4.5063 3.41978 0
M  V30 9974 H 955.854 5.41547 3.62725 0
M  V30 9975 N 959.287 0.325282 1.54207 0
M  V30 9976 C 960.219 -0.57395 2.21897 0
M  V30 9977 C 961.232 -1.0785 1.21952 0
M  V30 9978 O 962.421 -0.991782 1.48411 0
M  V30 9979 C 959.521 -1.8005 2.87115 0
M  V30 9980 C 958.694 -1.43435 4.13213 0
M  V30 9981 C 957.753 -2.51862 4.62009 0
M  V30 9982 O 956.779 -2.15934 5.26651 0
M  V30 9983 N 957.981 -3.8282 4.36382 0
M  V30 9984 H 960.746 0.00566918 2.99699 0
M  V30 9985 H 958.307 0.148563 1.61217 0
M  V30 9986 H 960.299 -2.51981 3.16682 0
M  V30 9987 H 958.869 -2.28792 2.13009 0
M  V30 9988 H 958.089 -0.546598 3.90392 0
M  V30 9989 H 959.377 -1.16544 4.95273 0
M  V30 9990 H 958.775 -4.14807 3.84645 0
M  V30 9991 H 957.332 -4.50976 4.70599 0
M  V30 9992 N 960.765 -1.57509 0.0534917 0
M  V30 9993 C 961.993 -1.97098 -0.629298 0
M  V30 9994 C 962.408 -0.931128 -1.64242 0
M  V30 9995 O 961.765 0.0843866 -1.82305 0
M  V30 9996 C 961.816 -3.36767 -1.31415 0
M  V30 9997 O 961.537 -4.36766 -0.341599 0
M  V30 9998 C 963.038 -3.91127 -2.08649 0
M  V30 9999 H 960.258 -0.648611 -0.171886 0
M  V30 10000 H 962.802 -2.04145 0.120479 0
M  V30 10001 H 960.957 -3.30863 -2.01515 0
M  V30 10002 H 961.371 -5.1788 -0.830715 0
M  V30 10003 H 962.845 -4.91129 -2.51985 0
M  V30 10004 H 963.322 -3.26679 -2.9356 0
M  V30 10005 H 963.928 -4.00376 -1.43456 0
M  V30 10006 N 962.243 0.219913 -1.56058 0
M  V30 10007 C 963.191 1.29215 -1.93407 0
M  V30 10008 C 964.185 1.48434 -0.816307 0
M  V30 10009 O 965.391 1.49589 -1.00115 0
M  V30 10010 H 961.766 0.433256 -0.614649 0
M  V30 10011 H 963.737 0.949977 -2.82875 0
M  V30 10012 C 962.486 2.63501 -2.26854 0
M  V30 10013 H 961.809 2.4952 -3.12377 0
M  V30 10014 H 963.249 3.37334 -2.56869 0
M  V30 10015 C 961.708 3.18634 -1.09425 0
M  V30 10016 O 962.238 4.00117 -0.356243 0
M  V30 10017 N 960.444 2.7703 -0.877642 0
M  V30 10018 H 959.991 2.10875 -1.47951 0
M  V30 10019 H 959.949 3.1426 -0.0936792 0
M  V30 10020 N 963.721 1.49897 0.486681 0
M  V30 10021 C 964.97 1.59349 1.23656 0
M  V30 10022 C 965.283 0.292024 1.93408 0
M  V30 10023 O 966.489 0.265258 2.70201 0
M  V30 10024 C 964.945 2.81215 2.24602 0
M  V30 10025 C 964.553 4.18177 1.60725 0
M  V30 10026 C 966.297 3.00004 3.00329 0
M  V30 10027 C 964.204 5.31247 2.59866 0
M  V30 10028 H 963.134 0.593363 0.465227 0
M  V30 10029 H 965.785 1.76306 0.508769 0
M  V30 10030 H 964.167 2.57783 3.00606 0
M  V30 10031 H 965.341 4.51802 0.90616 0
M  V30 10032 H 963.656 4.04864 0.973362 0
M  V30 10033 H 966.253 3.81649 3.74497 0
M  V30 10034 H 966.596 2.1112 3.58795 0
M  V30 10035 H 967.129 3.23544 2.3144 0
M  V30 10036 H 963.868 6.22236 2.06161 0
M  V30 10037 H 963.388 5.02059 3.28172 0
M  V30 10038 H 965.067 5.61177 3.22009 0
M  V30 10039 N 965.199 -0.738761 1.39212 0
M  V30 10040 C 966.109 -1.88324 1.39897 0
M  V30 10041 C 967.125 -1.71494 0.294229 0
M  V30 10042 O 968.301 -1.94162 0.535087 0
M  V30 10043 C 965.366 -3.23871 1.23726 0
M  V30 10044 C 964.427 -3.53121 2.44139 0
M  V30 10045 C 963.66 -4.82202 2.2873 0
M  V30 10046 O 963.883 -5.55649 1.28879 0
M  V30 10047 O 962.817 -5.11265 3.17634 0
M  V30 10048 H 966.643 -1.90701 2.36362 0
M  V30 10049 H 964.228 -0.886067 1.20288 0
M  V30 10050 H 966.11 -4.04882 1.16826 0
M  V30 10051 H 964.785 -3.22274 0.303551 0
M  V30 10052 H 963.692 -2.72212 2.56615 0
M  V30 10053 H 965.025 -3.59495 3.36191 0
M  V30 10054 N 966.677 -1.24326 -0.968545 0
M  V30 10055 C 967.609 -0.992749 -2.06584 0
M  V30 10056 C 968.622 0.0374902 -1.62757 0
M  V30 10057 O 969.811 -0.199448 -1.77382 0
M  V30 10058 C 966.911 -0.476165 -3.35538 0
M  V30 10059 C 966.084 -1.56934 -4.08277 0
M  V30 10060 C 965.143 -1.05555 -5.15504 0
M  V30 10061 O 964.169 -1.74707 -5.41725 0
M  V30 10062 N 965.371 0.110465 -5.80395 0
M  V30 10063 H 968.136 -1.93752 -2.28649 0
M  V30 10064 H 965.697 -1.15344 -1.13611 0
M  V30 10065 H 967.689 -0.117223 -4.0453 0
M  V30 10066 H 966.259 0.374315 -3.10351 0
M  V30 10067 H 965.479 -2.10051 -3.33575 0
M  V30 10068 H 966.767 -2.30415 -4.53637 0
M  V30 10069 H 966.165 0.688614 -5.61493 0
M  V30 10070 H 964.722 0.41056 -6.50506 0
M  V30 10071 N 968.156 1.1691 -1.05688 0
M  V30 10072 C 969.066 2.24735 -0.67315 0
M  V30 10073 C 970.082 1.71252 0.308043 0
M  V30 10074 O 971.258 2.00772 0.158889 0
M  V30 10075 C 968.323 3.4665 -0.059026 0
M  V30 10076 C 967.384 4.15198 -1.0913 0
M  V30 10077 C 966.617 5.31292 -0.50639 0
M  V30 10078 O 966.84 5.663 0.682692 0
M  V30 10079 O 965.774 5.88923 -1.2431 0
M  V30 10080 H 969.6 2.59855 -1.57191 0
M  V30 10081 H 967.185 1.24306 -0.828751 0
M  V30 10082 H 969.067 4.20455 0.282018 0
M  V30 10083 H 967.742 3.13316 0.813304 0
M  V30 10084 H 966.649 3.43389 -1.48442 0
M  V30 10085 H 967.982 4.52571 -1.93495 0
M  V30 10086 N 969.634 0.838594 1.33437 0
M  V30 10087 C 970.88 0.434813 1.98084 0
M  V30 10088 C 971.213 -1.00331 1.66275 0
M  V30 10089 O 970.488 -1.70139 0.942501 0
M  V30 10090 C 970.771 0.655602 3.54082 0
M  V30 10091 C 970.624 2.14097 3.95578 0
M  V30 10092 C 971.943 0.101576 4.39983 0
M  V30 10093 H 969.062 0.159456 0.719544 0
M  V30 10094 H 971.704 1.05406 1.58081 0
M  V30 10095 H 969.854 0.128501 3.88287 0
M  V30 10096 H 971.526 2.73292 3.71631 0
M  V30 10097 H 969.769 2.62558 3.4532 0
M  V30 10098 H 970.44 2.24621 5.04231 0
M  V30 10099 H 972.916 0.552122 4.12421 0
M  V30 10100 H 971.792 0.28575 5.48156 0
M  V30 10101 H 972.053 -0.994616 4.30767 0
M  V30 10102 N 971.112 -1.45937 0.595003 0
M  V30 10103 C 972.337 -2.07207 0.0894416 0
M  V30 10104 C 972.762 -1.43884 -1.21157 0
M  V30 10105 O 972.12 -0.526998 -1.73472 0
M  V30 10106 C 972.168 -3.60565 -0.0499828 0
M  V30 10107 O 971.272 -3.97364 -1.10342 0
M  V30 10108 H 970.613 -0.660471 0.0683627 0
M  V30 10109 H 973.143 -1.87386 0.82144 0
M  V30 10110 H 973.153 -4.0722 -0.252234 0
M  V30 10111 H 971.828 -4.06044 0.90006 0
M  V30 10112 H 970.405 -3.62401 -0.878645 0
M  V30 10113 N 972.59 -0.333456 -1.54032 0
M  V30 10114 C 973.52 0.52051 -2.27625 0
M  V30 10115 C 974.501 1.1111 -1.28797 0
M  V30 10116 O 975.686 1.13438 -1.57625 0
M  V30 10117 C 972.816 1.67663 -3.04149 0
M  V30 10118 C 971.77 1.21487 -4.10396 0
M  V30 10119 C 971.096 2.45872 -4.74817 0
M  V30 10120 C 972.396 0.322603 -5.21303 0
M  V30 10121 H 974.09 -0.0933823 -2.99254 0
M  V30 10122 H 971.636 -0.0463526 -1.43925 0
M  V30 10123 H 973.589 2.28041 -3.54366 0
M  V30 10124 H 972.313 2.31727 -2.30153 0
M  V30 10125 H 970.972 0.633966 -3.61077 0
M  V30 10126 H 970.62 3.0832 -3.97426 0
M  V30 10127 H 970.32 2.15662 -5.46593 0
M  V30 10128 H 971.844 3.06994 -5.27814 0
M  V30 10129 H 973.258 0.832942 -5.67217 0
M  V30 10130 H 971.655 0.112843 -5.99994 0
M  V30 10131 H 972.725 -0.643954 -4.80605 0
M  V30 10132 N 974.068 1.57479 -0.061844 0
M  V30 10133 C 975.345 1.84484 0.649993 0
M  V30 10134 C 975.725 0.952366 1.88396 0
M  V30 10135 O 975.073 0.0161035 2.28494 0
M  V30 10136 C 975.283 3.34452 0.997133 0
M  V30 10137 C 976.631 4.01724 1.37488 0
M  V30 10138 O 977.655 3.3914 1.08916 0
M  V30 10139 O 976.514 5.12091 1.90854 0
M  V30 10140 H 973.608 0.761798 0.321858 0
M  V30 10141 H 976.154 1.6945 -0.0920192 0
M  V30 10142 H 974.926 3.91115 0.120301 0
M  V30 10143 H 974.549 3.54713 1.79624 0
M  V30 10144 N 975.546 -0.211634 1.56173 0
M  V30 10145 C 976.476 -1.26533 1.96244 0
M  V30 10146 C 977.457 -1.48362 0.832028 0
M  V30 10147 O 978.642 -1.60378 1.0951 0
M  V30 10148 C 975.772 -2.61307 2.2877 0
M  V30 10149 C 974.726 -2.54119 3.44395 0
M  V30 10150 C 974.052 -3.93014 3.62552 0
M  V30 10151 C 975.352 -2.08046 4.79076 0
M  V30 10152 H 977.046 -0.932407 2.84511 0
M  V30 10153 H 974.592 -0.447084 1.36884 0
M  V30 10154 H 976.545 -3.35188 2.55396 0
M  V30 10155 H 975.269 -2.96307 1.37367 0
M  V30 10156 H 973.928 -1.82694 3.17834 0
M  V30 10157 H 973.576 -4.25338 2.68508 0
M  V30 10158 H 973.276 -3.89083 4.40327 0
M  V30 10159 H 974.8 -4.68542 3.91537 0
M  V30 10160 H 976.214 -2.71676 5.04842 0
M  V30 10161 H 974.611 -2.15154 5.60204 0
M  V30 10162 H 975.681 -1.03306 4.73768 0
M  V30 10163 N 977.024 -1.50153 -0.478725 0
M  V30 10164 C 978.273 -1.60002 -1.22809 0
M  V30 10165 C 978.586 -0.302277 -1.9325 0
M  V30 10166 O 979.792 -0.279583 -2.70057 0
M  V30 10167 C 978.248 -2.82402 -2.23108 0
M  V30 10168 C 977.856 -4.19023 -1.58505 0
M  V30 10169 C 979.6 -3.01593 -2.98734 0
M  V30 10170 C 977.507 -5.32618 -2.57045 0
M  V30 10171 H 976.437 -0.595822 -0.462073 0
M  V30 10172 H 979.088 -1.76573 -0.499412 0
M  V30 10173 H 977.47 -2.59373 -2.99235 0
M  V30 10174 H 978.644 -4.52277 -0.882187 0
M  V30 10175 H 976.959 -4.05374 -0.951877 0
M  V30 10176 H 979.556 -3.8363 -3.72468 0
M  V30 10177 H 979.899 -2.1302 -3.57671 0
M  V30 10178 H 980.432 -3.24766 -2.29721 0
M  V30 10179 H 977.171 -6.23321 -2.02858 0
M  V30 10180 H 976.691 -5.03792 -3.25505 0
M  V30 10181 H 978.37 -5.62877 -3.19028 0
M  V30 10182 N 978.502 0.731368 -1.39602 0
M  V30 10183 C 979.432 1.85855 -1.41351 0
M  V30 10184 C 980.413 1.67839 -0.2764 0
M  V30 10185 O 981.598 1.88104 -0.482747 0
M  V30 10186 C 978.728 3.23644 -1.25983 0
M  V30 10187 C 977.682 3.56304 -2.37132 0
M  V30 10188 C 977.008 4.93069 -2.0685 0
M  V30 10189 C 978.308 3.58906 -3.79452 0
M  V30 10190 H 980.002 1.84648 -2.3568 0
M  V30 10191 H 977.548 0.886955 -1.13442 0
M  V30 10192 H 979.501 4.02176 -1.25826 0
M  V30 10193 H 978.225 3.25387 -0.281234 0
M  V30 10194 H 976.884 2.80104 -2.36511 0
M  V30 10195 H 976.532 4.91396 -1.0742 0
M  V30 10196 H 976.232 5.15888 -2.81306 0
M  V30 10197 H 977.756 5.73953 -2.0835 0
M  V30 10198 H 979.17 4.27508 -3.81982 0
M  V30 10199 H 977.567 3.93246 -4.53297 0
M  V30 10200 H 978.637 2.58631 -4.10168 0
M  V30 10201 N 979.98 1.24838 0.961938 0
M  V30 10202 C 981.226 1.09313 1.70817 0
M  V30 10203 C 981.559 -0.366244 1.90715 0
M  V30 10204 O 980.834 -1.27036 1.47282 0
M  V30 10205 C 981.117 1.83988 3.09549 0
M  V30 10206 C 980.97 3.3771 2.97106 0
M  V30 10207 C 982.289 1.61718 4.09311 0
M  V30 10208 H 979.408 0.398498 0.619974 0
M  V30 10209 H 982.05 1.53579 1.11864 0
M  V30 10210 H 980.2 1.46363 3.59875 0
M  V30 10211 H 981.872 3.84967 2.54161 0
M  V30 10212 H 980.115 3.65795 2.33187 0
M  V30 10213 H 980.786 3.85166 3.95412 0
M  V30 10214 H 983.262 1.94458 3.67866 0
M  V30 10215 H 982.138 2.16415 5.04436 0
M  V30 10216 H 982.399 0.55677 4.3858 0
M  V30 10217 N 981.458 -1.16348 1.06306 0
M  V30 10218 C 982.368 -2.24375 0.685059 0
M  V30 10219 C 983.384 -1.71413 -0.298956 0
M  V30 10220 O 984.56 -2.00854 -0.148239 0
M  V30 10221 C 981.625 -3.46614 0.0774088 0
M  V30 10222 C 980.686 -4.14613 1.11331 0
M  V30 10223 C 979.919 -5.31016 0.534559 0
M  V30 10224 O 980.142 -5.66654 -0.65265 0
M  V30 10225 O 979.076 -5.88256 1.27431 0
M  V30 10226 H 982.902 -2.59018 1.58566 0
M  V30 10227 H 980.487 -1.23865 0.835332 0
M  V30 10228 H 982.369 -4.20599 -0.259716 0
M  V30 10229 H 981.044 -3.13743 -0.796677 0
M  V30 10230 H 979.951 -3.42597 1.50261 0
M  V30 10231 H 981.284 -4.51538 1.95893 0
M  V30 10232 N 982.937 -0.845659 -1.3299 0
M  V30 10233 C 983.847 -0.2864 -2.32845 0
M  V30 10234 C 984.863 0.591105 -1.63652 0
M  V30 10235 O 986.039 0.493615 -1.95257 0
M  V30 10236 C 983.104 0.523636 -3.42723 0
M  V30 10237 C 982.165 -0.378945 -4.27624 0
M  V30 10238 C 981.398 0.392526 -5.32255 0
M  V30 10239 O 981.621 1.6235 -5.46808 0
M  V30 10240 O 980.555 -0.237 -6.01433 0
M  V30 10241 H 984.381 -1.11346 -2.82552 0
M  V30 10242 H 981.966 -0.608356 -1.36453 0
M  V30 10243 H 983.848 0.983718 -4.09757 0
M  V30 10244 H 982.523 1.32764 -2.95221 0
M  V30 10245 H 981.43 -0.887012 -3.63432 0
M  V30 10246 H 982.763 -1.1479 -4.78627 0
M  V30 10247 N 984.415 1.45619 -0.602734 0
M  V30 10248 C 985.645 2.06348 -0.102105 0
M  V30 10249 C 986.053 1.44884 1.21677 0
M  V30 10250 O 985.396 0.555559 1.75098 0
M  V30 10251 C 985.458 3.59309 0.117026 0
M  V30 10252 C 985.122 4.43081 -1.11931 0
M  V30 10253 C 986.119 4.78364 -2.03627 0
M  V30 10254 C 983.804 4.83908 -1.34677 0
M  V30 10255 C 985.798 5.53325 -3.16403 0
M  V30 10256 C 983.485 5.58624 -2.47754 0
M  V30 10257 C 984.483 5.93249 -3.38445 0
M  V30 10258 O 984.171 6.6645 -4.49555 0
M  V30 10259 H 983.903 0.672988 -0.0637478 0
M  V30 10260 H 986.457 1.87928 -0.828983 0
M  V30 10261 H 984.687 3.76111 0.898742 0
M  V30 10262 H 986.376 4.01897 0.568649 0
M  V30 10263 H 987.142 4.47384 -1.87277 0
M  V30 10264 H 983.021 4.56396 -0.649875 0
M  V30 10265 H 986.565 5.80268 -3.87214 0
M  V30 10266 H 982.462 5.89019 -2.64059 0
M  V30 10267 H 983.23 6.84895 -4.48175 0
M  V30 10268 N 985.893 0.34162 1.53853 0
M  V30 10269 C 987.17 -0.310664 1.93117 0
M  V30 10270 C 987.55 -1.68398 1.273 0
M  V30 10271 O 986.898 -2.24546 0.423225 0
M  V30 10272 C 987.108 -0.384867 3.46871 0
M  V30 10273 C 988.456 -0.636621 4.198 0
M  V30 10274 O 989.48 -0.467061 3.53125 0
M  V30 10275 O 988.339 -0.964962 5.37913 0
M  V30 10276 H 985.433 -0.180881 0.806977 0
M  V30 10277 H 987.979 0.392656 1.65095 0
M  V30 10278 H 986.751 0.57894 3.86994 0
M  V30 10279 H 986.374 -1.13505 3.81054 0
M  V30 10280 N 987.371 -1.57444 0.0701946 0
M  V30 10281 C 988.596 -1.98171 -0.61181 0
M  V30 10282 C 989.021 -0.94823 -1.62451 0
M  V30 10283 O 988.379 0.0863553 -1.81094 0
M  V30 10284 C 988.427 -3.37934 -1.2583 0
M  V30 10285 O 987.531 -3.37207 -2.37414 0
M  V30 10286 H 986.872 -0.645056 -0.157477 0
M  V30 10287 H 989.402 -2.04091 0.144235 0
M  V30 10288 H 989.412 -3.75083 -1.60552 0
M  V30 10289 H 988.087 -4.12684 -0.516234 0
M  V30 10290 H 986.664 -3.11826 -2.04497 0
M  V30 10291 N 988.849 0.203349 -1.56283 0
M  V30 10292 C 989.779 1.2549 -1.96912 0
M  V30 10293 C 990.76 1.47919 -0.839884 0
M  V30 10294 O 991.945 1.59795 -1.10359 0
M  V30 10295 C 989.075 2.6009 -2.30153 0
M  V30 10296 C 988.029 2.52289 -3.45738 0
M  V30 10297 C 987.355 3.91086 -3.64632 0
M  V30 10298 C 988.655 2.05503 -4.80173 0
M  V30 10299 H 990.349 0.917306 -2.85002 0
M  V30 10300 H 987.895 0.439818 -1.37119 0
M  V30 10301 H 989.848 3.33829 -2.5717 0
M  V30 10302 H 988.572 2.95574 -1.38937 0
M  V30 10303 H 987.231 1.81006 -3.18798 0
M  V30 10304 H 986.879 4.23908 -2.7076 0
M  V30 10305 H 986.579 3.86742 -4.42385 0
M  V30 10306 H 988.103 4.66459 -3.94016 0
M  V30 10307 H 989.517 2.68995 -5.06275 0
M  V30 10308 H 987.914 2.1218 -5.61337 0
M  V30 10309 H 988.984 1.00793 -4.74309 0
M  V30 10310 N 990.327 1.50405 0.470755 0
M  V30 10311 C 991.576 1.60652 1.21959 0
M  V30 10312 C 991.889 0.312521 1.93087 0
M  V30 10313 O 993.095 0.293901 2.69905 0
M  V30 10314 C 991.551 2.83581 2.21607 0
M  V30 10315 C 991.159 4.19858 1.5628 0
M  V30 10316 C 992.903 3.03173 2.9713 0
M  V30 10317 C 990.81 5.33974 2.54217 0
M  V30 10318 H 989.74 0.598264 0.458907 0
M  V30 10319 H 992.391 1.76836 0.490041 0
M  V30 10320 H 990.773 2.60957 2.97855 0
M  V30 10321 H 991.947 4.52738 0.85819 0
M  V30 10322 H 990.262 4.05873 0.930366 0
M  V30 10323 H 992.859 3.856 3.70428 0
M  V30 10324 H 993.202 2.14914 3.56536 0
M  V30 10325 H 993.735 3.2598 2.27995 0
M  V30 10326 H 990.474 6.24388 1.99549 0
M  V30 10327 H 989.994 5.05511 3.22829 0
M  V30 10328 H 991.673 5.64561 3.16039 0
M  V30 10329 N 991.805 -0.723954 1.39988 0
M  V30 10330 C 992.715 -1.86829 1.41887 0
M  V30 10331 C 993.731 -1.71173 0.312401 0
M  V30 10332 O 994.907 -1.93583 0.555651 0
M  V30 10333 C 991.972 -3.22541 1.27154 0
M  V30 10334 C 991.033 -3.50512 2.47871 0
M  V30 10335 C 990.266 -4.79749 2.33831 0
M  V30 10336 O 990.489 -5.54251 1.34765 0
M  V30 10337 O 989.423 -5.07868 3.23039 0
M  V30 10338 H 993.249 -1.88183 2.38371 0
M  V30 10339 H 990.834 -0.873259 1.21221 0
M  V30 10340 H 992.716 -4.0362 1.21114 0
M  V30 10341 H 991.391 -3.21933 0.337715 0
M  V30 10342 H 990.298 -2.69475 2.59488 0
M  V30 10343 H 991.631 -3.55909 3.39985 0
M  V30 10344 N 993.283 -1.25346 -0.955304 0
M  V30 10345 C 994.23 -1.05672 -2.05188 0
M  V30 10346 C 995.2 0.0339217 -1.66065 0
M  V30 10347 O 996.385 -0.123126 -1.90402 0
M  V30 10348 C 993.525 -0.680791 -3.38318 0
M  V30 10349 C 992.638 -1.84622 -3.90562 0
M  V30 10350 C 991.773 -1.41471 -5.12015 0
M  V30 10351 C 990.812 -2.54931 -5.56486 0
M  V30 10352 N 989.949 -2.1256 -6.69151 0
M  V30 10353 H 994.789 -1.9952 -2.2135 0
M  V30 10354 H 992.326 -0.993588 -1.08472 0
M  V30 10355 H 994.284 -0.443794 -4.14833 0
M  V30 10356 H 992.914 0.2207 -3.22045 0
M  V30 10357 H 991.966 -2.19654 -3.10574 0
M  V30 10358 H 993.278 -2.6983 -4.19515 0
M  V30 10359 H 992.432 -1.13732 -5.95945 0
M  V30 10360 H 991.171 -0.533334 -4.84775 0
M  V30 10361 H 990.176 -2.83415 -4.71122 0
M  V30 10362 H 991.401 -3.43645 -5.85734 0
M  V30 10363 H 989.347 -1.26838 -6.43621 0
M  V30 10364 H 989.264 -2.91317 -6.97618 0
M  V30 10365 H 990.532 -1.87996 -7.5649 0
M  V30 10366 N 994.761 1.15782 -1.06922 0
M  V30 10367 C 995.694 2.19336 -0.629837 0
M  V30 10368 C 996.672 1.58774 0.350663 0
M  V30 10369 O 997.856 1.86724 0.258124 0
M  V30 10370 C 994.983 3.38615 0.0757526 0
M  V30 10371 C 994.029 4.17688 -0.862503 0
M  V30 10372 S 994.862 4.80634 -2.36117 0
M  V30 10373 C 996.018 6.03286 -1.66725 0
M  V30 10374 H 996.251 2.56267 -1.50714 0
M  V30 10375 H 993.784 1.26674 -0.882776 0
M  V30 10376 H 995.742 4.07724 0.476611 0
M  V30 10377 H 994.403 3.00037 0.929332 0
M  V30 10378 H 993.596 5.03012 -0.315461 0
M  V30 10379 H 993.198 3.54106 -1.20354 0
M  V30 10380 H 995.49 6.70426 -0.976472 0
M  V30 10381 H 996.433 6.62551 -2.49864 0
M  V30 10382 H 996.841 5.52722 -1.14711 0
M  V30 10383 N 996.239 0.8527 1.3254 0
M  V30 10384 C 997.464 0.468157 2.02047 0
M  V30 10385 C 997.889 -0.926967 1.63673 0
M  V30 10386 O 997.247 -1.60855 0.836378 0
M  V30 10387 C 997.295 0.612519 3.5536 0
M  V30 10388 O 996.399 -0.355506 4.10865 0
M  V30 10389 H 995.74 0.188401 0.636711 0
M  V30 10390 H 998.27 1.15135 1.6913 0
M  V30 10391 H 998.28 0.499315 4.04933 0
M  V30 10392 H 996.955 1.62988 3.82632 0
M  V30 10393 H 995.532 -0.198703 3.7237 0
M  V30 10394 N 997.718 -1.45297 0.610449 0
M  V30 10395 C 998.666 -2.32295 -0.119167 0
M  V30 10396 C 999.66 -1.46138 -0.856746 0
M  V30 10397 O 1000.87 -1.62605 -0.771988 0
M  V30 10398 H 997.241 -0.749815 -0.0572881 0
M  V30 10399 H 999.212 -2.91609 0.63297 0
M  V30 10400 C 997.961 -3.29802 -1.10119 0
M  V30 10401 H 997.284 -3.96095 -0.543063 0
M  V30 10402 H 998.724 -3.93398 -1.58158 0
M  V30 10403 C 997.183 -2.57185 -2.17617 0
M  V30 10404 O 997.713 -2.35535 -3.25401 0
M  V30 10405 N 995.919 -2.17272 -1.9298 0
M  V30 10406 H 995.466 -2.3508 -1.05334 0
M  V30 10407 H 995.424 -1.69009 -2.6511 0
M  V30 10408 N 999.196 -0.349774 -1.5367 0
M  V30 10409 C 1000.44 0.237837 -2.02005 0
M  V30 10410 C 1000.8 1.477 -1.23298 0
M  V30 10411 O 1000.09 1.8901 -0.313947 0
M  V30 10412 C 1000.28 0.598311 -3.52356 0
M  V30 10413 C 1000.11 -0.604368 -4.4562 0
M  V30 10414 C 998.883 -1.1116 -4.92922 0
M  V30 10415 C 1001.08 -1.46474 -4.93001 0
M  V30 10416 N 999.063 -2.27595 -5.70152 0
M  V30 10417 C 1000.43 -2.47593 -5.68417 0
M  V30 10418 C 1002.49 -1.48947 -4.75099 0
M  V30 10419 C 1001.19 -3.51021 -6.27835 0
M  V30 10420 C 1003.22 -2.51259 -5.35372 0
M  V30 10421 C 1002.58 -3.51103 -6.1066 0
M  V30 10422 H 998.679 0.0501688 -0.780389 0
M  V30 10423 H 1001.26 -0.490748 -1.88414 0
M  V30 10424 H 999.434 1.29599 -3.6614 0
M  V30 10425 H 1001.17 1.16965 -3.87429 0
M  V30 10426 H 997.921 -0.678699 -4.68712 0
M  V30 10427 H 998.345 -2.864 -6.13436 0
M  V30 10428 H 1002.99 -0.731138 -4.1643 0
M  V30 10429 H 1000.7 -4.27745 -6.85609 0
M  V30 10430 H 1004.29 -2.54006 -5.23423 0
M  V30 10431 H 1003.17 -4.28974 -6.56469 0
M  V30 10432 N 1000.67 1.57404 -0.0785433 0
M  V30 10433 C 1001.62 2.14316 0.903949 0
M  V30 10434 C 1002.62 1.08176 1.30362 0
M  V30 10435 O 1003.82 1.26546 1.28008 0
M  V30 10436 H 1000.2 0.685367 0.309477 0
M  V30 10437 H 1002.17 2.95719 0.399081 0
M  V30 10438 C 1000.92 2.72504 2.15956 0
M  V30 10439 H 1000.24 3.53853 1.86087 0
M  V30 10440 H 1001.68 3.15914 2.82798 0
M  V30 10441 C 1000.14 1.6759 2.92259 0
M  V30 10442 O 1000.67 1.10492 3.86205 0
M  V30 10443 N 998.875 1.38467 2.5549 0
M  V30 10444 H 998.422 1.85088 1.79166 0
M  V30 10445 H 998.38 0.685053 3.06846 0
M  V30 10446 N 1002.15 -0.195058 1.56388 0
M  V30 10447 C 1003.4 -0.915444 1.80626 0
M  V30 10448 C 1003.73 -1.83255 0.651768 0
M  V30 10449 O 1002.98 -1.92314 -0.362464 0
M  V30 10450 C 1003.28 -1.7637 3.10851 0
M  V30 10451 C 1002.95 -0.997572 4.39726 0
M  V30 10452 C 1001.61 -0.786043 4.74737 0
M  V30 10453 C 1003.96 -0.45851 5.19179 0
M  V30 10454 C 1001.29 -0.023972 5.86695 0
M  V30 10455 C 1003.64 0.29035 6.31933 0
M  V30 10456 C 1002.3 0.512895 6.65527 0
M  V30 10457 H 1001.57 -0.334985 0.660959 0
M  V30 10458 H 1004.22 -0.181815 1.90635 0
M  V30 10459 H 1002.53 -2.566 2.9608 0
M  V30 10460 H 1004.22 -2.3237 3.26811 0
M  V30 10461 H 1000.81 -1.17245 4.12252 0
M  V30 10462 H 1005 -0.609334 4.92545 0
M  V30 10463 H 1000.25 0.158421 6.11195 0
M  V30 10464 H 1004.43 0.715429 6.92715 0
M  V30 10465 H 1002.05 1.10531 7.52122 0
M  V30 10466 N 1003.63 -1.50653 -0.462772 0
M  V30 10467 C 1005.04 -1.54821 -1.04342 0
M  V30 10468 C 1005.39 -0.356595 -1.92932 0
M  V30 10469 O 1004.52 0.529579 -2.0982 0
M  V30 10470 C 1005.11 -2.80571 -1.89909 0
M  V30 10471 C 1003.67 -2.87394 -2.43067 0
M  V30 10472 C 1002.82 -2.49206 -1.21621 0
M  V30 10473 H 1005.77 -1.56797 -0.245048 0
M  V30 10474 H 1005.79 -2.62897 -2.75074 0
M  V30 10475 H 1005.3 -3.67281 -1.25405 0
M  V30 10476 H 1003.4 -2.05055 -3.111 0
M  V30 10477 H 1003.52 -3.90477 -2.77605 0
M  V30 10478 H 1001.88 -2.01829 -1.55361 0
M  V30 10479 H 1002.66 -3.38233 -0.587669 0
M  V30 10480 N 1005.11 0.71652 -1.4037 0
M  V30 10481 C 1006.36 1.47193 -1.37903 0
M  V30 10482 C 1006.67 1.95593 0.0159939 0
M  V30 10483 O 1007.88 2.71009 0.163282 0
M  V30 10484 C 1006.33 2.6606 -2.42363 0
M  V30 10485 C 1005.94 2.24533 -3.87671 0
M  V30 10486 C 1007.68 3.438 -2.49001 0
M  V30 10487 C 1005.59 3.40234 -4.8373 0
M  V30 10488 H 1004.52 0.552811 -0.512753 0
M  V30 10489 H 1007.17 0.779894 -1.66102 0
M  V30 10490 H 1005.55 3.37429 -2.07262 0
M  V30 10491 H 1006.73 1.6059 -4.31911 0
M  V30 10492 H 1005.04 1.59839 -3.845 0
M  V30 10493 H 1007.64 4.29893 -3.17956 0
M  V30 10494 H 1007.98 3.8755 -1.52023 0
M  V30 10495 H 1008.52 2.79474 -2.83088 0
M  V30 10496 H 1005.26 3.01517 -5.82037 0
M  V30 10497 H 1004.78 4.03095 -4.44156 0
M  V30 10498 H 1006.45 4.06312 -5.03507 0
M  V30 10499 N 1006.59 1.25851 0.948643 0
M  V30 10500 C 1007.83 1.10954 1.69397 0
M  V30 10501 C 1008.16 -0.348443 1.91353 0
M  V30 10502 O 1007.42 -1.27285 1.48651 0
M  V30 10503 C 1007.72 1.81565 3.07846 0
M  V30 10504 C 1007.38 3.31477 3.0567 0
M  V30 10505 C 1006.04 3.72371 3.04784 0
M  V30 10506 C 1008.4 4.27225 2.98543 0
M  V30 10507 C 1005.72 5.07416 2.94527 0
M  V30 10508 C 1008.08 5.62301 2.89828 0
M  V30 10509 C 1006.74 6.02516 2.87281 0
M  V30 10510 H 1006.01 0.406011 0.619868 0
M  V30 10511 H 1008.66 1.562 1.10787 0
M  V30 10512 H 1006.96 1.28767 3.70035 0
M  V30 10513 H 1008.66 1.67486 3.64348 0
M  V30 10514 H 1005.25 2.98941 3.07135 0
M  V30 10515 H 1009.43 3.96618 2.98342 0
M  V30 10516 H 1004.69 5.37746 2.90928 0
M  V30 10517 H 1008.86 6.36182 2.83276 0
M  V30 10518 H 1006.49 7.07116 2.79089 0
M  V30 10519 N 1008.06 -1.15214 1.07534 0
M  V30 10520 C 1008.97 -2.23636 0.708818 0
M  V30 10521 C 1009.99 -1.7172 -0.280759 0
M  V30 10522 O 1011.17 -2.01 -0.126927 0
M  V30 10523 C 1008.23 -3.46512 0.114167 0
M  V30 10524 C 1007.29 -4.13409 1.15722 0
M  V30 10525 C 1006.53 -5.30419 0.59085 0
M  V30 10526 O 1006.75 -5.67314 -0.592512 0
M  V30 10527 O 1005.68 -5.86871 1.33663 0
M  V30 10528 H 1009.51 -2.57322 1.61305 0
M  V30 10529 H 1007.09 -1.22972 0.848422 0
M  V30 10530 H 1008.98 -4.20851 -0.215091 0
M  V30 10531 H 1007.65 -3.1457 -0.763356 0
M  V30 10532 H 1006.56 -3.40984 1.53886 0
M  V30 10533 H 1007.89 -4.49435 2.00671 0
M  V30 10534 N 1009.54 -0.859717 -1.32086 0
M  V30 10535 C 1010.47 -0.323502 -2.31248 0
M  V30 10536 C 1011.45 0.580085 -1.59903 0
M  V30 10537 O 1012.64 0.499265 -1.87673 0
M  V30 10538 C 1009.77 0.484661 -3.43902 0
M  V30 10539 C 1008.72 -0.324933 -4.26765 0
M  V30 10540 C 1008.05 0.608281 -5.31229 0
M  V30 10541 C 1009.35 -1.55344 -4.98664 0
M  V30 10542 H 1011.04 -1.15209 -2.76346 0
M  V30 10543 H 1008.59 -0.555442 -1.32856 0
M  V30 10544 H 1010.54 0.870238 -4.12316 0
M  V30 10545 H 1009.27 1.34666 -2.97544 0
M  V30 10546 H 1007.92 -0.692328 -3.60003 0
M  V30 10547 H 1007.57 1.46727 -4.81124 0
M  V30 10548 H 1007.27 0.0705571 -5.87558 0
M  V30 10549 H 1008.8 0.990925 -6.02506 0
M  V30 10550 H 1010.21 -1.23987 -5.59732 0
M  V30 10551 H 1008.61 -2.02947 -5.64741 0
M  V30 10552 H 1009.68 -2.31192 -4.26237 0
M  V30 10553 N 1011.02 1.44971 -0.618145 0
M  V30 10554 C 1012.27 2.02458 -0.117656 0
M  V30 10555 C 1012.6 1.48413 1.25248 0
M  V30 10556 O 1011.87 0.662997 1.82851 0
M  V30 10557 C 1012.16 3.59987 -0.0901897 0
M  V30 10558 C 1012.01 4.24343 -1.49175 0
M  V30 10559 C 1013.33 4.36099 0.592121 0
M  V30 10560 H 1010.45 0.735672 -0.0442291 0
M  V30 10561 H 1013.09 1.727 -0.792138 0
M  V30 10562 H 1011.24 3.85471 0.484175 0
M  V30 10563 H 1012.91 4.10009 -2.114 0
M  V30 10564 H 1011.16 3.82337 -2.04941 0
M  V30 10565 H 1011.83 5.33298 -1.42468 0
M  V30 10566 H 1014.3 4.1597 0.103813 0
M  V30 10567 H 1013.18 5.45822 0.580481 0
M  V30 10568 H 1013.44 4.09746 1.66015 0
M  V30 10569 N 1012.5 0.357919 1.53482 0
M  V30 10570 C 1013.41 -0.500273 2.29204 0
M  V30 10571 C 1014.42 -1.09936 1.3487 0
M  V30 10572 O 1015.6 -1.11195 1.67921 0
M  V30 10573 C 1012.67 -1.62828 3.06085 0
M  V30 10574 C 1011.73 -1.05751 4.16071 0
M  V30 10575 C 1010.96 -2.13176 4.89277 0
M  V30 10576 O 1011.18 -3.34153 4.62274 0
M  V30 10577 O 1010.12 -1.76663 5.7539 0
M  V30 10578 H 1013.94 0.115696 3.0348 0
M  V30 10579 H 1011.53 0.122527 1.48897 0
M  V30 10580 H 1013.41 -2.28427 3.54117 0
M  V30 10581 H 1012.08 -2.22979 2.34653 0
M  V30 10582 H 1010.99 -0.365642 3.72309 0
M  V30 10583 H 1012.32 -0.500661 4.89647 0
M  V30 10584 N 1013.98 -1.5736 0.0868897 0
M  V30 10585 C 1014.92 -2.13571 -0.874996 0
M  V30 10586 C 1015.89 -1.0521 -1.2853 0
M  V30 10587 O 1017.08 -1.32954 -1.3685 0
M  V30 10588 C 1014.22 -2.71386 -2.13175 0
M  V30 10589 C 1013.33 -3.93953 -1.77272 0
M  V30 10590 C 1012.47 -4.3996 -2.97671 0
M  V30 10591 C 1011.51 -5.55137 -2.57856 0
M  V30 10592 N 1010.64 -5.96034 -3.71064 0
M  V30 10593 H 1015.48 -2.95453 -0.388789 0
M  V30 10594 H 1013.02 -1.45992 -0.180242 0
M  V30 10595 H 1014.98 -3.03022 -2.86764 0
M  V30 10596 H 1013.61 -1.92245 -2.5931 0
M  V30 10597 H 1012.66 -3.68683 -0.936845 0
M  V30 10598 H 1013.97 -4.77565 -1.43989 0
M  V30 10599 H 1013.13 -4.73337 -3.79522 0
M  V30 10600 H 1011.86 -3.55232 -3.34158 0
M  V30 10601 H 1010.87 -5.21397 -1.7443 0
M  V30 10602 H 1012.09 -6.41608 -2.22522 0
M  V30 10603 H 1010.04 -5.14253 -4.07284 0
M  V30 10604 H 1009.96 -6.74423 -3.41599 0
M  V30 10605 H 1011.23 -6.34038 -4.53449 0
M  V30 10606 N 1015.45 0.186762 -1.56489 0
M  V30 10607 C 1016.39 1.25971 -1.9028 0
M  V30 10608 C 1017.37 1.43543 -0.763822 0
M  V30 10609 O 1018.55 1.58799 -1.01564 0
M  V30 10610 C 1015.68 2.62507 -2.14028 0
M  V30 10611 C 1014.72 2.61758 -3.36727 0
M  V30 10612 S 1015.56 2.12366 -4.9159 0
M  V30 10613 C 1016.71 3.5071 -5.18414 0
M  V30 10614 H 1016.94 0.971203 -2.80989 0
M  V30 10615 H 1014.48 0.390636 -1.49377 0
M  V30 10616 H 1016.44 3.41098 -2.28391 0
M  V30 10617 H 1015.1 2.88564 -1.24054 0
M  V30 10618 H 1014.29 3.62173 -3.50495 0
M  V30 10619 H 1013.89 1.91254 -3.214 0
M  V30 10620 H 1016.18 4.46622 -5.09445 0
M  V30 10621 H 1017.13 3.41829 -6.20128 0
M  V30 10622 H 1017.53 3.46008 -4.46026 0
M  V30 10623 N 1016.93 1.50896 0.454776 0
M  V30 10624 C 1018.18 1.62378 1.20324 0
M  V30 10625 C 1018.5 0.333883 1.9212 0
M  V30 10626 O 1017.77 -0.649477 1.8482 0
M  V30 10627 H 1016.35 0.598395 0.447139 0
M  V30 10628 H 1019.01 1.87749 0.523102 0
M  V30 10629 H 1018.11 2.44296 1.94232 0
M  V30 10630 N 1018.41 -0.709066 1.40748 0
M  V30 10631 C 1019.32 -1.85314 1.43861 0
M  V30 10632 C 1020.34 -1.70832 0.330539 0
M  V30 10633 O 1021.51 -1.92983 0.576152 0
M  V30 10634 C 1018.58 -3.21174 1.30568 0
M  V30 10635 C 1017.64 -3.47863 2.51574 0
M  V30 10636 C 1016.87 -4.77241 2.38906 0
M  V30 10637 O 1017.09 -5.52791 1.40636 0
M  V30 10638 O 1016.03 -5.04413 3.28407 0
M  V30 10639 H 1019.85 -1.85644 2.40354 0
M  V30 10640 H 1017.44 -0.860352 1.2214 0
M  V30 10641 H 1019.32 -4.02313 1.25388 0
M  V30 10642 H 1018 -3.21557 0.371841 0
M  V30 10643 H 1016.9 -2.66708 2.62331 0
M  V30 10644 H 1018.24 -3.52283 3.43741 0
M  V30 10645 N 1019.89 -1.26353 -0.941956 0
M  V30 10646 C 1020.84 -1.07842 -2.04056 0
M  V30 10647 C 1021.81 0.0163064 -1.66092 0
M  V30 10648 O 1022.99 -0.143313 -1.90261 0
M  V30 10649 C 1020.13 -0.716636 -3.37577 0
M  V30 10650 C 1019.24 -1.88754 -3.88582 0
M  V30 10651 C 1018.38 -1.46893 -5.10486 0
M  V30 10652 C 1017.42 -2.60819 -5.53751 0
M  V30 10653 N 1016.56 -2.19646 -6.66858 0
M  V30 10654 H 1021.4 -2.01856 -2.19221 0
M  V30 10655 H 1018.93 -1.00504 -1.07412 0
M  V30 10656 H 1020.89 -0.487768 -4.14339 0
M  V30 10657 H 1019.52 0.18653 -3.22261 0
M  V30 10658 H 1018.57 -2.22936 -3.08227 0
M  V30 10659 H 1019.88 -2.74264 -4.1663 0
M  V30 10660 H 1019.04 -1.20047 -5.94705 0
M  V30 10661 H 1017.78 -0.584721 -4.84182 0
M  V30 10662 H 1016.78 -2.88396 -4.6809 0
M  V30 10663 H 1018.01 -3.49838 -5.82057 0
M  V30 10664 H 1015.95 -1.33657 -6.4224 0
M  V30 10665 H 1015.87 -2.987 -6.94489 0
M  V30 10666 H 1017.14 -1.96009 -7.54454 0
M  V30 10667 N 1021.37 1.14642 -1.08144 0
M  V30 10668 C 1022.59 1.90025 -0.830972 0
M  V30 10669 C 1023.02 1.77904 0.610879 0
M  V30 10670 O 1022.38 1.11735 1.42776 0
M  V30 10671 C 1022.42 3.38085 -1.25422 0
M  V30 10672 O 1021.53 4.10412 -0.404486 0
M  V30 10673 H 1020.87 0.591327 -0.302041 0
M  V30 10674 H 1023.4 1.4513 -1.44216 0
M  V30 10675 H 1023.41 3.88894 -1.23391 0
M  V30 10676 H 1022.08 3.46226 -2.30435 0
M  V30 10677 H 1020.66 3.69693 -0.487987 0
M  V30 10678 N 1022.85 0.866709 1.31628 0
M  V30 10679 C 1024.09 0.475086 1.96437 0
M  V30 10680 C 1024.41 -0.975179 1.68865 0
M  V30 10681 O 1023.68 -1.68317 1.0023 0
M  V30 10682 H 1022.26 0.172695 0.726764 0
M  V30 10683 H 1024.93 1.10578 1.60494 0
M  V30 10684 H 1024.02 0.630123 3.05673 0
M  V30 10685 N 1024.32 -1.44642 0.625825 0
M  V30 10686 C 1025.74 -1.56925 0.290992 0
M  V30 10687 C 1025.94 -1.61424 -1.20601 0
M  V30 10688 O 1025 -1.55439 -1.98985 0
M  V30 10689 C 1026.31 -2.84343 0.978242 0
M  V30 10690 C 1027.86 -2.98047 0.955882 0
M  V30 10691 C 1028.33 -4.2826 1.62349 0
M  V30 10692 N 1029.82 -4.35062 1.58983 0
M  V30 10693 C 1030.56 -5.34524 2.07538 0
M  V30 10694 N 1030.05 -6.4042 2.6426 0
M  V30 10695 N 1031.85 -5.25998 1.98198 0
M  V30 10696 H 1024 -1.39965 1.59761 0
M  V30 10697 H 1026.26 -0.670368 0.670306 0
M  V30 10698 H 1025.97 -2.86985 2.03304 0
M  V30 10699 H 1025.84 -3.73699 0.512726 0
M  V30 10700 H 1028.23 -2.94961 -0.0904292 0
M  V30 10701 H 1028.31 -2.10053 1.45984 0
M  V30 10702 H 1027.95 -4.32105 2.66923 0
M  V30 10703 H 1027.88 -5.15102 1.09441 0
M  V30 10704 H 1030.37 -3.59147 1.17565 0
M  V30 10705 H 1030.69 -7.1259 2.99056 0
M  V30 10706 H 1029.03 -6.41121 2.68308 0
M  V30 10707 H 1032.22 -4.42178 1.5361 0
M  V30 10708 H 1032.4 -6.03359 2.3635 0
M  V30 10709 N 1025.8 -0.366053 -1.5329 0
M  V30 10710 C 1027.05 0.224614 -2.00445 0
M  V30 10711 C 1027.36 1.49829 -1.2574 0
M  V30 10712 O 1028.57 2.16759 -1.63487 0
M  V30 10713 C 1027.03 0.450818 -3.57065 0
M  V30 10714 C 1026.63 -0.808257 -4.40649 0
M  V30 10715 C 1028.38 0.999116 -4.12575 0
M  V30 10716 C 1026.28 -0.551612 -5.88822 0
M  V30 10717 H 1025.21 0.0877114 -0.748881 0
M  V30 10718 H 1027.87 -0.484866 -1.76978 0
M  V30 10719 H 1026.25 1.22157 -3.76688 0
M  V30 10720 H 1027.42 -1.58184 -4.32798 0
M  V30 10721 H 1025.74 -1.27981 -3.96245 0
M  V30 10722 H 1028.33 1.20646 -5.20911 0
M  V30 10723 H 1028.68 1.96139 -3.67199 0
M  V30 10724 H 1029.21 0.288518 -3.96752 0
M  V30 10725 H 1025.95 -1.48423 -6.38475 0
M  V30 10726 H 1025.47 0.183462 -5.99519 0
M  V30 10727 H 1027.15 -0.177307 -6.46757 0
M  V30 10728 N 1027.28 1.57312 -0.0952337 0
M  V30 10729 C 1028.21 2.17056 0.860753 0
M  V30 10730 C 1029.19 1.10394 1.29411 0
M  V30 10731 O 1030.38 1.38532 1.36098 0
M  V30 10732 C 1027.51 2.751 2.11984 0
M  V30 10733 C 1026.46 3.87136 1.8251 0
M  V30 10734 C 1025.79 4.31883 3.15247 0
M  V30 10735 C 1027.09 5.10326 1.11194 0
M  V30 10736 H 1028.78 2.97192 0.362983 0
M  V30 10737 H 1026.33 1.42955 0.173151 0
M  V30 10738 H 1028.28 3.15547 2.79299 0
M  V30 10739 H 1027 1.92219 2.64044 0
M  V30 10740 H 1025.66 3.47229 1.17592 0
M  V30 10741 H 1025.31 3.45893 3.65195 0
M  V30 10742 H 1025.01 5.0742 2.96309 0
M  V30 10743 H 1026.53 4.74964 3.83721 0
M  V30 10744 H 1027.95 5.47942 1.6862 0
M  V30 10745 H 1026.34 5.91293 1.02435 0
M  V30 10746 H 1027.41 4.84807 0.0947227 0
M  V30 10747 N 1028.76 -0.17846 1.56586 0
M  V30 10748 C 1029.98 -0.916061 1.86073 0
M  V30 10749 C 1030.41 -1.75349 0.680754 0
M  V30 10750 O 1029.77 -1.77479 -0.37028 0
M  V30 10751 C 1029.81 -1.77445 3.1392 0
M  V30 10752 O 1028.92 -2.87524 2.95641 0
M  V30 10753 H 1028.26 -0.257031 0.612234 0
M  V30 10754 H 1030.79 -0.178755 2.03818 0
M  V30 10755 H 1030.8 -2.1758 3.45142 0
M  V30 10756 H 1029.47 -1.15927 3.99417 0
M  V30 10757 H 1028.05 -2.51023 2.75757 0
M  V30 10758 N 1030.24 -1.51135 -0.446768 0
M  V30 10759 C 1031.17 -1.67949 -1.55967 0
M  V30 10760 C 1032.18 -0.560337 -1.52853 0
M  V30 10761 O 1033.37 -0.83435 -1.578 0
M  V30 10762 C 1030.47 -1.6703 -2.9488 0
M  V30 10763 C 1029.64 -2.95377 -3.22601 0
M  V30 10764 C 1028.7 -2.86772 -4.4119 0
M  V30 10765 O 1027.73 -3.60722 -4.40304 0
M  V30 10766 N 1028.93 -2.01979 -5.44228 0
M  V30 10767 H 1031.69 -2.63951 -1.41951 0
M  V30 10768 H 1029.26 -1.48903 -0.635569 0
M  V30 10769 H 1031.25 -1.58854 -3.7222 0
M  V30 10770 H 1029.82 -0.786623 -3.02541 0
M  V30 10771 H 1029.04 -3.17494 -2.33647 0
M  V30 10772 H 1030.33 -3.80356 -3.37945 0
M  V30 10773 H 1029.72 -1.41257 -5.4778 0
M  V30 10774 H 1028.28 -1.99689 -6.20457 0
M  V30 10775 N 1031.71 0.701592 -1.41122 0
M  V30 10776 C 1032.96 1.46376 -1.40363 0
M  V30 10777 C 1033.29 1.94197 -0.0105442 0
M  V30 10778 O 1032.57 1.69121 0.960637 0
M  V30 10779 C 1032.85 2.67994 -2.40523 0
M  V30 10780 C 1032.7 2.25977 -3.88914 0
M  V30 10781 C 1034.02 3.70181 -2.38022 0
M  V30 10782 H 1031.14 0.530929 -0.511159 0
M  V30 10783 H 1033.78 0.799588 -1.72356 0
M  V30 10784 H 1031.93 3.24661 -2.13372 0
M  V30 10785 H 1033.61 1.74684 -4.26946 0
M  V30 10786 H 1031.85 1.57826 -4.04071 0
M  V30 10787 H 1032.52 3.13215 -4.54533 0
M  V30 10788 H 1035 3.23174 -2.62103 0
M  V30 10789 H 1033.87 4.52894 -3.10127 0
M  V30 10790 H 1034.13 4.19458 -1.3967 0
M  V30 10791 N 1033.19 1.2685 0.935242 0
M  V30 10792 C 1034.12 1.03244 2.03509 0
M  V30 10793 C 1035.1 -0.0447323 1.62538 0
M  V30 10794 O 1036.29 0.0988905 1.8824 0
M  V30 10795 C 1033.41 0.564626 3.33961 0
M  V30 10796 C 1032.46 1.63524 3.93906 0
M  V30 10797 S 1033.29 3.22577 4.27439 0
M  V30 10798 C 1034.45 2.77579 5.60982 0
M  V30 10799 H 1034.68 1.96367 2.2322 0
M  V30 10800 H 1032.21 1.10597 1.07739 0
M  V30 10801 H 1034.17 0.301388 4.09392 0
M  V30 10802 H 1032.83 -0.346419 3.12184 0
M  V30 10803 H 1032.03 1.25905 4.8802 0
M  V30 10804 H 1031.63 1.85017 3.25031 0
M  V30 10805 H 1033.92 2.22412 6.39952 0
M  V30 10806 H 1034.86 3.70408 6.03493 0
M  V30 10807 H 1035.27 2.16956 5.21143 0
M  V30 10808 N 1034.67 -1.14067 1.0875 0
M  V30 10809 C 1035.9 -1.88767 0.839682 0
M  V30 10810 C 1036.31 -1.79024 -0.612119 0
M  V30 10811 O 1035.65 -1.14986 -1.43262 0
M  V30 10812 C 1035.71 -3.39333 1.18716 0
M  V30 10813 C 1035.38 -3.72858 2.64245 0
M  V30 10814 C 1036.37 -3.72683 3.62496 0
M  V30 10815 C 1034.06 -4.0273 3.0019 0
M  V30 10816 C 1036.05 -4.01909 4.9472 0
M  V30 10817 C 1033.74 -4.31618 4.32607 0
M  V30 10818 C 1034.74 -4.31192 5.29682 0
M  V30 10819 O 1034.43 -4.59377 6.59718 0
M  V30 10820 H 1034.16 -0.604665 0.302253 0
M  V30 10821 H 1036.71 -1.45364 1.45115 0
M  V30 10822 H 1034.94 -3.83205 0.518707 0
M  V30 10823 H 1036.63 -3.95346 0.919599 0
M  V30 10824 H 1037.4 -3.49688 3.3607 0
M  V30 10825 H 1033.28 -4.02213 2.25268 0
M  V30 10826 H 1036.82 -4.01491 5.70483 0
M  V30 10827 H 1032.72 -4.54083 4.58779 0
M  V30 10828 H 1033.49 -4.77078 6.65086 0
M  V30 10829 N 1036.15 -0.873678 -1.31166 0
M  V30 10830 C 1037.38 -0.501043 -2.00742 0
M  V30 10831 C 1037.79 0.907477 -1.65561 0
M  V30 10832 O 1037.15 1.59507 -0.886771 0
M  V30 10833 C 1037.2 -0.652877 -3.55556 0
M  V30 10834 O 1036.92 -2.00593 -3.89479 0
M  V30 10835 C 1038.42 -0.281742 -4.42404 0
M  V30 10836 H 1035.64 -0.194829 -0.642092 0
M  V30 10837 H 1038.19 -1.17587 -1.67313 0
M  V30 10838 H 1036.34 -0.0255627 -3.87392 0
M  V30 10839 H 1036.75 -2.01638 -4.84193 0
M  V30 10840 H 1038.23 -0.43892 -5.50252 0
M  V30 10841 H 1038.71 0.779389 -4.32229 0
M  V30 10842 H 1039.31 -0.88491 -4.15992 0
M  V30 10843 N 1037.63 1.44308 -0.633487 0
M  V30 10844 C 1038.56 2.33431 0.0568402 0
M  V30 10845 C 1039.54 1.48342 0.832386 0
M  V30 10846 O 1040.72 1.77056 0.797798 0
M  V30 10847 C 1037.85 3.31443 1.03743 0
M  V30 10848 C 1036.81 4.26368 0.373362 0
M  V30 10849 C 1036.13 5.14267 1.46403 0
M  V30 10850 C 1037.43 5.17287 -0.721876 0
M  V30 10851 H 1039.13 2.91402 -0.687388 0
M  V30 10852 H 1036.67 1.4012 -0.332009 0
M  V30 10853 H 1038.63 3.92677 1.52913 0
M  V30 10854 H 1037.35 2.71686 1.81258 0
M  V30 10855 H 1036.01 3.6647 -0.0977053 0
M  V30 10856 H 1035.66 4.50861 2.23011 0
M  V30 10857 H 1035.36 5.7859 1.02506 0
M  V30 10858 H 1036.88 5.78373 1.95748 0
M  V30 10859 H 1038.29 5.72444 -0.313181 0
M  V30 10860 H 1036.69 5.90226 -1.08413 0
M  V30 10861 H 1037.76 4.58159 -1.58804 0
M  V30 10862 N 1039.1 0.374177 1.53094 0
M  V30 10863 C 1040.35 -0.212816 2.01379 0
M  V30 10864 C 1040.68 -1.48069 1.26118 0
M  V30 10865 O 1039.93 -1.92625 0.345561 0
M  V30 10866 C 1040.23 -0.542179 3.53264 0
M  V30 10867 C 1039.9 0.632375 4.46444 0
M  V30 10868 C 1038.56 0.954635 4.71636 0
M  V30 10869 C 1040.91 1.41887 5.01515 0
M  V30 10870 C 1038.24 2.06521 5.4915 0
M  V30 10871 C 1040.59 2.51993 5.80243 0
M  V30 10872 C 1039.26 2.84744 6.03719 0
M  V30 10873 H 1038.53 -0.0778749 0.736897 0
M  V30 10874 H 1041.17 0.508412 1.84628 0
M  V30 10875 H 1039.48 -1.34454 3.68007 0
M  V30 10876 H 1041.18 -1.00874 3.88105 0
M  V30 10877 H 1037.77 0.371179 4.2699 0
M  V30 10878 H 1041.95 1.18315 4.81991 0
M  V30 10879 H 1037.21 2.32284 5.65557 0
M  V30 10880 H 1041.38 3.13346 6.21922 0
M  V30 10881 H 1039.01 3.70921 6.63568 0
M  V30 10882 N 1040.58 -1.57259 0.103575 0
M  V30 10883 C 1041.51 -2.1153 -0.882472 0
M  V30 10884 C 1042.53 -1.05446 -1.24036 0
M  V30 10885 O 1043.72 -1.32867 -1.192 0
M  V30 10886 C 1040.82 -2.58717 -2.18903 0
M  V30 10887 C 1039.99 -3.8873 -2.00519 0
M  V30 10888 C 1039.05 -4.21675 -3.14764 0
M  V30 10889 O 1038.07 -4.90755 -2.88355 0
M  V30 10890 N 1039.28 -3.77757 -4.40772 0
M  V30 10891 H 1042.04 -2.96758 -0.418901 0
M  V30 10892 H 1039.6 -1.61696 -0.0812921 0
M  V30 10893 H 1041.59 -2.77797 -2.94297 0
M  V30 10894 H 1040.16 -1.78454 -2.56657 0
M  V30 10895 H 1039.38 -3.78714 -1.09406 0
M  V30 10896 H 1040.67 -4.73771 -1.85522 0
M  V30 10897 H 1040.07 -3.22011 -4.65108 0
M  V30 10898 H 1038.63 -4.01975 -5.13088 0
M  V30 10899 N 1042.06 0.170153 -1.56679 0
M  V30 10900 C 1043.34 0.913938 -1.72935 0
M  V30 10901 C 1043.72 2.00342 -0.665293 0
M  V30 10902 O 1043.07 2.26252 0.319715 0
M  V30 10903 C 1043.28 1.47761 -3.16177 0
M  V30 10904 C 1044.62 1.95007 -3.7717 0
M  V30 10905 O 1045.65 1.57552 -3.19462 0
M  V30 10906 O 1044.51 2.64007 -4.78501 0
M  V30 10907 H 1041.6 0.43027 -0.706256 0
M  V30 10908 H 1044.15 0.157891 -1.68964 0
M  V30 10909 H 1042.92 0.69352 -3.85105 0
M  V30 10910 H 1042.54 2.2978 -3.24479 0
M  V30 10911 N 1043.54 1.5137 0.438746 0
M  V30 10912 C 1044.77 1.67774 1.21077 0
M  V30 10913 C 1045.18 0.374489 1.85049 0
M  V30 10914 O 1044.54 -0.646867 1.70651 0
M  V30 10915 C 1044.59 2.79238 2.29584 0
M  V30 10916 O 1044.31 4.04513 1.68228 0
M  V30 10917 C 1045.81 3.06898 3.19888 0
M  V30 10918 H 1043.03 0.563054 0.364981 0
M  V30 10919 H 1045.58 1.97777 0.520035 0
M  V30 10920 H 1043.73 2.51837 2.94375 0
M  V30 10921 H 1044.14 4.66405 2.3993 0
M  V30 10922 H 1045.62 3.88476 3.92162 0
M  V30 10923 H 1046.1 2.19249 3.80561 0
M  V30 10924 H 1046.7 3.35952 2.60799 0
M  V30 10925 N 1045.02 -0.694098 1.41492 0
M  V30 10926 C 1046.26 -1.45127 1.4065 0
M  V30 10927 C 1046.59 -1.94993 0.0170289 0
M  V30 10928 O 1045.86 -1.71799 -0.941372 0
M  V30 10929 H 1044.44 -0.538493 0.51772 0
M  V30 10930 H 1047.1 -0.821441 1.76744 0
M  V30 10931 H 1046.19 -2.31372 2.0946 0
M  V30 10932 N 1046.49 -1.27344 -0.928501 0
M  V30 10933 C 1047.42 -1.12517 -2.04602 0
M  V30 10934 C 1048.41 -0.0268563 -1.70079 0
M  V30 10935 O 1049.59 -0.201197 -1.93155 0
M  V30 10936 C 1046.72 -0.770749 -3.3864 0
M  V30 10937 C 1045.67 -1.8222 -3.87272 0
M  V30 10938 C 1045 -1.32178 -5.18105 0
M  V30 10939 C 1046.3 -3.22614 -4.10752 0
M  V30 10940 H 1047.99 -2.06 -2.17265 0
M  V30 10941 H 1045.54 -0.991827 -1.04397 0
M  V30 10942 H 1047.49 -0.653843 -4.16297 0
M  V30 10943 H 1046.22 0.19979 -3.25988 0
M  V30 10944 H 1044.88 -1.928 -3.11807 0
M  V30 10945 H 1044.52 -0.340719 -5.01845 0
M  V30 10946 H 1044.22 -2.02474 -5.51614 0
M  V30 10947 H 1045.75 -1.2178 -5.98333 0
M  V30 10948 H 1047.16 -3.1504 -4.78981 0
M  V30 10949 H 1045.56 -3.90614 -4.55566 0
M  V30 10950 H 1046.63 -3.67727 -3.16077 0
M  V30 10951 N 1047.97 1.13488 -1.09353 0
M  V30 10952 C 1048.9 2.20988 -0.75409 0
M  V30 10953 C 1049.88 1.67977 0.267901 0
M  V30 10954 O 1051.07 1.93722 0.136128 0
M  V30 10955 C 1048.2 3.46869 -0.173042 0
M  V30 10956 C 1047.15 4.12965 -1.12446 0
M  V30 10957 C 1046.48 5.33163 -0.405157 0
M  V30 10958 C 1047.78 4.60388 -2.46658 0
M  V30 10959 H 1049.47 2.49639 -1.6529 0
M  V30 10960 H 1047.02 1.19987 -0.796182 0
M  V30 10961 H 1048.97 4.21331 0.0764988 0
M  V30 10962 H 1047.7 3.17611 0.760956 0
M  V30 10963 H 1046.35 3.40469 -1.35927 0
M  V30 10964 H 1046 5.00169 0.532955 0
M  V30 10965 H 1045.7 5.78332 -1.03952 0
M  V30 10966 H 1047.23 6.1038 -0.163899 0
M  V30 10967 H 1048.64 5.26276 -2.27389 0
M  V30 10968 H 1047.04 5.16294 -3.05876 0
M  V30 10969 H 1048.11 3.74949 -3.07476 0
M  V30 10970 N 1049.45 0.880621 1.30701 0
M  V30 10971 C 1050.36 0.348034 2.32004 0
M  V30 10972 C 1051.38 -0.547508 1.65162 0
M  V30 10973 O 1052.55 -0.441673 1.96497 0
M  V30 10974 C 1049.62 -0.432585 3.43991 0
M  V30 10975 C 1048.68 0.492189 4.26469 0
M  V30 10976 C 1047.91 -0.25127 5.33108 0
M  V30 10977 O 1048.14 -1.47795 5.5092 0
M  V30 10978 O 1047.07 0.396376 6.00593 0
M  V30 10979 H 1050.9 1.18798 2.79501 0
M  V30 10980 H 1048.48 0.64432 1.34792 0
M  V30 10981 H 1050.36 -0.874733 4.12221 0
M  V30 10982 H 1049.04 -1.2489 2.98637 0
M  V30 10983 H 1047.94 0.983058 3.60953 0
M  V30 10984 H 1049.28 1.27439 4.75416 0
M  V30 10985 N 1050.93 -1.4397 0.641131 0
M  V30 10986 C 1052.18 -2.01163 0.147026 0
M  V30 10987 C 1052.49 -1.51099 -1.24211 0
M  V30 10988 O 1053.7 -2.00487 -1.83078 0
M  V30 10989 C 1052.15 -3.59275 0.212068 0
M  V30 10990 C 1051.76 -4.18334 1.60314 0
M  V30 10991 C 1053.51 -4.23903 -0.225057 0
M  V30 10992 C 1051.41 -5.68701 1.62276 0
M  V30 10993 H 1050.34 -0.75226 0.051201 0
M  V30 10994 H 1052.99 -1.65075 0.801396 0
M  V30 10995 H 1051.38 -3.92708 -0.509589 0
M  V30 10996 H 1052.55 -3.96422 2.34918 0
M  V30 10997 H 1050.86 -3.66031 1.9852 0
M  V30 10998 H 1053.46 -5.34205 -0.230074 0
M  V30 10999 H 1053.8 -3.96956 -1.25426 0
M  V30 11000 H 1054.34 -3.95309 0.44444 0
M  V30 11001 H 1051.08 -6.00397 2.63066 0
M  V30 11002 H 1050.6 -5.92705 0.919797 0
M  V30 11003 H 1052.28 -6.32521 1.36112 0
M  V30 11004 N 1052.41 -0.382291 -1.52893 0
M  V30 11005 C 1053.65 0.202133 -2.01489 0
M  V30 11006 C 1053.98 1.47399 -1.26901 0
M  V30 11007 O 1053.24 1.92439 -0.355771 0
M  V30 11008 C 1053.54 0.523437 -3.53546 0
M  V30 11009 C 1053.2 -0.656042 -4.46102 0
M  V30 11010 C 1051.86 -0.979633 -4.71123 0
M  V30 11011 C 1054.22 -1.44545 -5.00756 0
M  V30 11012 C 1051.54 -2.0943 -5.48047 0
M  V30 11013 C 1053.9 -2.55066 -5.78899 0
M  V30 11014 C 1052.56 -2.87942 -6.02201 0
M  V30 11015 H 1051.83 0.0739659 -0.737299 0
M  V30 11016 H 1054.48 -0.518196 -1.84356 0
M  V30 11017 H 1052.78 1.325 -3.68715 0
M  V30 11018 H 1054.48 0.988148 -3.88634 0
M  V30 11019 H 1051.07 -0.393818 -4.26787 0
M  V30 11020 H 1055.25 -1.20869 -4.81357 0
M  V30 11021 H 1050.51 -2.3528 -5.64317 0
M  V30 11022 H 1054.68 -3.1664 -6.20252 0
M  V30 11023 H 1052.31 -3.74435 -6.61591 0
M  V30 11024 N 1053.89 1.57202 -0.111913 0
M  V30 11025 C 1054.83 2.14936 0.840908 0
M  V30 11026 C 1055.8 1.07242 1.2684 0
M  V30 11027 O 1056.99 1.35114 1.34718 0
M  V30 11028 C 1054.13 2.74743 2.0883 0
M  V30 11029 C 1053.24 3.96723 1.70982 0
M  V30 11030 C 1052.38 4.4464 2.90634 0
M  V30 11031 C 1051.41 5.59169 2.48992 0
M  V30 11032 N 1050.55 6.01862 3.61534 0
M  V30 11033 H 1055.39 2.96034 0.341735 0
M  V30 11034 H 1052.93 1.4626 0.156993 0
M  V30 11035 H 1054.89 3.07546 2.81907 0
M  V30 11036 H 1053.52 1.96346 2.56218 0
M  V30 11037 H 1052.57 3.70127 0.878072 0
M  V30 11038 H 1053.88 4.79795 1.36373 0
M  V30 11039 H 1053.03 4.79315 3.71944 0
M  V30 11040 H 1051.77 3.60503 3.28464 0
M  V30 11041 H 1050.78 5.24106 1.66113 0
M  V30 11042 H 1052 6.45067 2.12287 0
M  V30 11043 H 1049.95 5.20667 3.99051 0
M  V30 11044 H 1049.87 6.79772 3.30827 0
M  V30 11045 H 1051.13 6.41172 4.43305 0
M  V30 11046 N 1055.36 -0.161842 1.56767 0
M  V30 11047 C 1056.61 -0.875278 1.81719 0
M  V30 11048 C 1056.93 -1.82998 0.690739 0
M  V30 11049 O 1058.13 -2.58648 0.82545 0
M  V30 11050 C 1056.59 -1.60703 3.22029 0
M  V30 11051 C 1056.2 -0.695486 4.42569 0
M  V30 11052 C 1057.94 -2.30813 3.56266 0
M  V30 11053 C 1055.85 -1.42801 5.73901 0
M  V30 11054 H 1054.78 -0.330591 0.677662 0
M  V30 11055 H 1057.43 -0.128112 1.83052 0
M  V30 11056 H 1055.81 -2.39929 3.1504 0
M  V30 11057 H 1056.98 0.0604882 4.6076 0
M  V30 11058 H 1055.3 -0.10356 4.16271 0
M  V30 11059 H 1057.9 -2.86229 4.51638 0
M  V30 11060 H 1058.24 -3.06603 2.81604 0
M  V30 11061 H 1058.77 -1.5852 3.64851 0
M  V30 11062 H 1055.51 -0.712253 6.51619 0
M  V30 11063 H 1055.03 -2.15707 5.5967 0
M  V30 11064 H 1056.71 -1.97295 6.16185 0
M  V30 11065 N 1056.84 -1.516 -0.430713 0
M  V30 11066 C 1058.25 -1.57 -1.01035 0
M  V30 11067 C 1058.6 -0.397439 -1.92132 0
M  V30 11068 O 1057.73 0.484954 -2.10896 0
M  V30 11069 C 1058.32 -2.84536 -1.83915 0
M  V30 11070 C 1056.88 -2.92485 -2.36917 0
M  V30 11071 C 1056.03 -2.5173 -1.16308 0
M  V30 11072 H 1058.98 -1.57281 -0.211734 0
M  V30 11073 H 1059 -2.68672 -2.69435 0
M  V30 11074 H 1058.51 -3.69858 -1.17586 0
M  V30 11075 H 1056.61 -2.11608 -3.0668 0
M  V30 11076 H 1056.73 -3.96277 -2.6926 0
M  V30 11077 H 1055.09 -2.05079 -1.51045 0
M  V30 11078 H 1055.87 -3.39403 -0.515793 0
M  V30 11079 N 1058.32 0.686584 -1.41858 0
M  V30 11080 C 1059.55 1.47519 -1.45072 0
M  V30 11081 C 1059.96 1.88709 -0.0585868 0
M  V30 11082 O 1059.32 1.57373 0.924116 0
M  V30 11083 C 1059.37 2.73195 -2.36742 0
M  V30 11084 O 1059.09 2.33736 -3.70539 0
M  V30 11085 C 1060.59 3.66861 -2.48854 0
M  V30 11086 H 1057.81 0.454307 -0.493808 0
M  V30 11087 H 1060.36 0.844612 -1.86243 0
M  V30 11088 H 1058.51 3.32468 -1.98856 0
M  V30 11089 H 1058.93 3.14809 -4.19518 0
M  V30 11090 H 1060.4 4.51801 -3.17143 0
M  V30 11091 H 1060.88 4.11961 -1.52265 0
M  V30 11092 H 1061.48 3.13486 -2.87414 0
M  V30 11093 N 1059.8 1.27835 0.921735 0
M  V30 11094 C 1060.73 1.06874 2.02758 0
M  V30 11095 C 1061.74 0.0229418 1.62784 0
M  V30 11096 O 1062.93 0.265145 1.7652 0
M  V30 11097 C 1060.03 0.60037 3.3354 0
M  V30 11098 C 1059.2 1.71979 4.02172 0
M  V30 11099 C 1058.26 1.24615 5.11231 0
M  V30 11100 O 1057.29 1.94692 5.34868 0
M  V30 11101 N 1058.49 0.105021 5.80405 0
M  V30 11102 H 1061.26 2.02105 2.213 0
M  V30 11103 H 1058.82 1.19481 1.09251 0
M  V30 11104 H 1060.81 0.267281 4.03816 0
M  V30 11105 H 1059.38 -0.258872 3.11526 0
M  V30 11106 H 1058.6 2.22287 3.25549 0
M  V30 11107 H 1059.89 2.47092 4.44773 0
M  V30 11108 H 1059.29 -0.479745 5.63662 0
M  V30 11109 H 1057.84 -0.168846 6.51581 0
M  V30 11110 N 1061.28 -1.12907 1.09954 0
M  V30 11111 C 1062.21 -2.18194 0.701701 0
M  V30 11112 C 1063.22 -1.60724 -0.259131 0
M  V30 11113 O 1064.41 -1.78445 -0.0443549 0
M  V30 11114 C 1061.51 -3.38897 0.0140602 0
M  V30 11115 C 1060.68 -4.25867 0.997807 0
M  V30 11116 C 1059.74 -5.25084 0.34257 0
M  V30 11117 O 1058.77 -5.60492 0.991857 0
M  V30 11118 N 1059.97 -5.73464 -0.901058 0
M  V30 11119 H 1062.73 -2.52939 1.60755 0
M  V30 11120 H 1060.3 -1.28281 0.987703 0
M  V30 11121 H 1062.29 -4.02349 -0.435628 0
M  V30 11122 H 1060.86 -3.02345 -0.794118 0
M  V30 11123 H 1060.08 -3.59107 1.6259 0
M  V30 11124 H 1061.37 -4.80825 1.66388 0
M  V30 11125 H 1060.76 -5.46854 -1.44802 0
M  V30 11126 H 1059.32 -6.38827 -1.29398 0
M  V30 11127 N 1062.75 -0.88754 -1.30232 0
M  V30 11128 C 1064 -0.507279 -1.96043 0
M  V30 11129 C 1064.33 0.944059 -1.70052 0
M  V30 11130 O 1063.58 1.68255 -0.999444 0
M  V30 11131 C 1063.88 -0.731765 -3.49828 0
M  V30 11132 C 1063.55 -2.15858 -3.95874 0
M  V30 11133 C 1062.21 -2.54875 -4.08157 0
M  V30 11134 C 1064.56 -3.0883 -4.19849 0
M  V30 11135 C 1061.89 -3.86069 -4.41778 0
M  V30 11136 C 1064.24 -4.39559 -4.5494 0
M  V30 11137 C 1062.91 -4.78465 -4.65432 0
M  V30 11138 H 1062.18 -0.185627 -0.717373 0
M  V30 11139 H 1064.82 -1.12388 -1.55052 0
M  V30 11140 H 1063.13 -0.0321473 -3.91787 0
M  V30 11141 H 1064.83 -0.417107 -3.98825 0
M  V30 11142 H 1061.42 -1.84574 -3.86821 0
M  V30 11143 H 1065.6 -2.79906 -4.09837 0
M  V30 11144 H 1060.86 -4.1595 -4.48102 0
M  V30 11145 H 1065.03 -5.11636 -4.72442 0
M  V30 11146 H 1062.66 -5.80162 -4.91239 0
M  V30 11147 N 1064.23 1.43628 -0.648757 0
M  V30 11148 C 1065.17 2.28001 0.0952198 0
M  V30 11149 C 1066.14 1.39569 0.834225 0
M  V30 11150 O 1067.33 1.69011 0.834711 0
M  V30 11151 C 1064.45 3.18886 1.14145 0
M  V30 11152 C 1063.5 4.23547 0.500996 0
M  V30 11153 S 1064.33 5.30609 -0.722118 0
M  V30 11154 C 1065.49 6.25062 0.323687 0
M  V30 11155 H 1065.72 2.90752 -0.620511 0
M  V30 11156 H 1063.26 1.48073 -0.437457 0
M  V30 11157 H 1065.21 3.71795 1.74008 0
M  V30 11158 H 1063.87 2.55322 1.82947 0
M  V30 11159 H 1063.07 4.87224 1.28954 0
M  V30 11160 H 1062.67 3.73993 -0.0234176 0
M  V30 11161 H 1064.96 6.66946 1.19118 0
M  V30 11162 H 1065.9 7.07554 -0.277939 0
M  V30 11163 H 1066.31 5.60658 0.657493 0
M  V30 11164 N 1065.71 0.390394 1.52688 0
M  V30 11165 C 1066.66 -0.4591 2.28024 0
M  V30 11166 C 1067.65 -1.06212 1.31967 0
M  V30 11167 O 1068.86 -1.00247 1.49501 0
M  V30 11168 H 1065.23 -0.16681 0.733266 0
M  V30 11169 H 1067.2 0.197747 2.97744 0
M  V30 11170 C 1065.95 -1.5737 3.10048 0
M  V30 11171 H 1065.28 -1.11901 3.83821 0
M  V30 11172 H 1066.72 -2.1423 3.65898 0
M  V30 11173 C 1065.18 -2.53036 2.22429 0
M  V30 11174 O 1065.71 -3.5647 1.85181 0
M  V30 11175 N 1063.91 -2.22802 1.86567 0
M  V30 11176 H 1063.46 -1.38723 2.17057 0
M  V30 11177 H 1063.42 -2.87061 1.28233 0
M  V30 11178 N 1067.19 -1.57141 0.120249 0
M  V30 11179 C 1068.42 -1.993 -0.544346 0
M  V30 11180 C 1068.83 -0.998858 -1.60684 0
M  V30 11181 O 1068.17 0.0162197 -1.83693 0
M  V30 11182 C 1068.23 -3.37874 -1.22808 0
M  V30 11183 C 1067.9 -4.55924 -0.313374 0
M  V30 11184 C 1068.89 -5.17962 0.448501 0
M  V30 11185 C 1066.58 -5.018 -0.224082 0
M  V30 11186 C 1068.57 -6.24264 1.28739 0
M  V30 11187 C 1066.26 -6.07963 0.618437 0
M  V30 11188 C 1067.26 -6.69061 1.3728 0
M  V30 11189 O 1066.94 -7.73173 2.20133 0
M  V30 11190 H 1066.68 -0.659466 -0.148596 0
M  V30 11191 H 1069.23 -2.04387 0.203779 0
M  V30 11192 H 1067.46 -3.29545 -2.02329 0
M  V30 11193 H 1069.15 -3.64314 -1.7897 0
M  V30 11194 H 1069.92 -4.83434 0.389395 0
M  V30 11195 H 1065.79 -4.53989 -0.80094 0
M  V30 11196 H 1069.34 -6.71883 1.87667 0
M  V30 11197 H 1065.24 -6.4192 0.678932 0
M  V30 11198 H 1066 -7.90276 2.13088 0
M  V30 11199 N 1068.67 0.153526 -1.5685 0
M  V30 11200 C 1069.91 0.867232 -1.8299 0
M  V30 11201 C 1070.24 1.81462 -0.700125 0
M  V30 11202 O 1069.5 1.93207 0.311348 0
M  V30 11203 C 1069.8 1.68066 -3.15418 0
M  V30 11204 C 1069.46 0.880635 -4.42217 0
M  V30 11205 C 1068.12 0.659899 -4.76654 0
M  V30 11206 C 1070.48 0.320698 -5.20212 0
M  V30 11207 C 1067.8 -0.131588 -5.86552 0
M  V30 11208 C 1070.16 -0.457794 -6.30941 0
M  V30 11209 C 1068.82 -0.689168 -6.63933 0
M  V30 11210 H 1068.09 0.317343 -0.669608 0
M  V30 11211 H 1070.74 0.131208 -1.9105 0
M  V30 11212 H 1069.04 2.4866 -3.02779 0
M  V30 11213 H 1070.74 2.23623 -3.32857 0
M  V30 11214 H 1067.33 1.06274 -4.15215 0
M  V30 11215 H 1071.51 0.47853 -4.93988 0
M  V30 11216 H 1066.77 -0.320413 -6.1056 0
M  V30 11217 H 1070.94 -0.898839 -6.90575 0
M  V30 11218 H 1068.57 -1.30433 -7.48927 0
M  V30 11219 N 1070.14 1.51827 0.422667 0
M  V30 11220 C 1071.56 1.40328 0.760275 0
M  V30 11221 C 1071.76 0.497119 1.95272 0
M  V30 11222 O 1070.82 -0.0422083 2.52465 0
M  V30 11223 C 1072.13 2.82622 1.02689 0
M  V30 11224 C 1073.68 2.91874 1.13044 0
M  V30 11225 C 1074.15 4.35107 1.4299 0
M  V30 11226 N 1075.64 4.3828 1.49883 0
M  V30 11227 C 1076.38 5.46153 1.74655 0
M  V30 11228 N 1075.87 6.64165 1.9712 0
M  V30 11229 N 1077.67 5.33651 1.76558 0
M  V30 11230 H 1069.82 2.09285 -0.362455 0
M  V30 11231 H 1072.08 0.94273 -0.0998161 0
M  V30 11232 H 1071.79 3.50991 0.223226 0
M  V30 11233 H 1071.66 3.22844 1.95068 0
M  V30 11234 H 1074.05 2.23694 1.92471 0
M  V30 11235 H 1074.13 2.55128 0.185326 0
M  V30 11236 H 1073.77 5.03841 0.640848 0
M  V30 11237 H 1073.7 4.69377 2.38731 0
M  V30 11238 H 1076.19 3.53206 1.34366 0
M  V30 11239 H 1076.51 7.42165 2.15434 0
M  V30 11240 H 1074.85 6.67255 1.94413 0
M  V30 11241 H 1078.04 4.40436 1.58536 0
M  V30 11242 H 1078.22 6.17798 1.95525 0
M  V30 11243 N 1071.62 -0.679052 1.4222 0
M  V30 11244 C 1072.59 -1.77448 1.45069 0
M  V30 11245 C 1073.59 -1.57189 0.338882 0
M  V30 11246 O 1074.78 -1.63559 0.599519 0
M  V30 11247 C 1071.91 -3.1603 1.27819 0
M  V30 11248 H 1073.1 -1.7631 2.426 0
M  V30 11249 H 1070.65 -0.888277 1.28605 0
M  V30 11250 H 1071.39 -3.22796 0.311946 0
M  V30 11251 H 1071.17 -3.32138 2.08391 0
M  V30 11252 H 1072.66 -3.9596 1.32686 0
M  V30 11253 N 1073.1 -1.28322 -0.914942 0
M  V30 11254 C 1074.03 -1.14681 -2.03398 0
M  V30 11255 C 1075.01 -0.0448939 -1.70041 0
M  V30 11256 O 1076.2 -0.221672 -1.92931 0
M  V30 11257 C 1073.33 -0.806623 -3.37803 0
M  V30 11258 C 1072.28 -1.86318 -3.85318 0
M  V30 11259 C 1071.61 -1.37665 -5.16674 0
M  V30 11260 C 1072.91 -3.26953 -4.07307 0
M  V30 11261 H 1074.6 -2.08293 -2.15068 0
M  V30 11262 H 1072.15 -1.00284 -1.03339 0
M  V30 11263 H 1074.1 -0.69796 -4.1558 0
M  V30 11264 H 1072.82 0.165203 -3.26182 0
M  V30 11265 H 1071.48 -1.96096 -3.09745 0
M  V30 11266 H 1071.13 -0.393927 -5.01455 0
M  V30 11267 H 1070.83 -2.08313 -5.49435 0
M  V30 11268 H 1072.35 -1.28119 -5.97007 0
M  V30 11269 H 1073.77 -3.20102 -4.75613 0
M  V30 11270 H 1072.17 -3.95424 -4.51398 0
M  V30 11271 H 1073.24 -3.71059 -3.12159 0
M  V30 11272 N 1074.58 1.12322 -1.10551 0
M  V30 11273 C 1075.49 2.21678 -0.767862 0
M  V30 11274 C 1076.5 1.72404 0.235132 0
M  V30 11275 O 1077.68 2.01266 0.0735912 0
M  V30 11276 C 1074.75 3.46087 -0.205999 0
M  V30 11277 C 1073.81 4.10195 -1.26642 0
M  V30 11278 C 1073.04 5.28666 -0.731274 0
M  V30 11279 O 1073.26 5.68686 0.44189 0
M  V30 11280 O 1072.2 5.83121 -1.49176 0
M  V30 11281 H 1076.02 2.52955 -1.6807 0
M  V30 11282 H 1073.61 1.2068 -0.880728 0
M  V30 11283 H 1075.49 4.21273 0.103435 0
M  V30 11284 H 1074.16 3.16484 0.679685 0
M  V30 11285 H 1073.07 3.36784 -1.62873 0
M  V30 11286 H 1074.4 4.43957 -2.12516 0
M  V30 11287 N 1076.06 0.894434 1.2976 0
M  V30 11288 C 1077 0.357958 2.29829 0
M  V30 11289 C 1078 -0.540093 1.6056 0
M  V30 11290 O 1079.2 -0.423478 1.74948 0
M  V30 11291 H 1075.58 0.0971183 0.745702 0
M  V30 11292 H 1077.55 1.21542 2.72526 0
M  V30 11293 C 1076.3 -0.404126 3.45343 0
M  V30 11294 H 1075.62 0.277671 3.98835 0
M  V30 11295 H 1077.06 -0.744446 4.17413 0
M  V30 11296 C 1075.52 -1.6048 2.96222 0
M  V30 11297 O 1076.05 -2.70414 2.97051 0
M  V30 11298 N 1074.26 -1.44517 2.52117 0
M  V30 11299 H 1073.8 -0.55082 2.51642 0
M  V30 11300 H 1073.76 -2.24987 2.1961 0
M  V30 11301 N 1077.53 -1.43282 0.656365 0
M  V30 11302 C 1078.78 -2.01378 0.170702 0
M  V30 11303 C 1079.1 -1.52063 -1.22073 0
M  V30 11304 O 1078.37 -0.73456 -1.81607 0
M  V30 11305 H 1076.95 -0.744577 0.0601168 0
M  V30 11306 H 1079.62 -1.75449 0.848739 0
M  V30 11307 H 1078.71 -3.11701 0.157745 0
M  V30 11308 N 1079.01 -0.398486 -1.52479 0
M  V30 11309 C 1080.24 0.180295 -2.05812 0
M  V30 11310 C 1080.65 1.40301 -1.26934 0
M  V30 11311 O 1079.99 1.81039 -0.311544 0
M  V30 11312 C 1080.06 0.60601 -3.54355 0
M  V30 11313 C 1079.72 -0.504508 -4.54207 0
M  V30 11314 C 1080.72 -1.36478 -5.01667 0
M  V30 11315 C 1078.4 -0.674161 -4.97755 0
M  V30 11316 C 1080.4 -2.37975 -5.91309 0
M  V30 11317 C 1078.08 -1.69246 -5.87196 0
M  V30 11318 C 1079.08 -2.54367 -6.33866 0
M  V30 11319 O 1078.77 -3.54454 -7.21538 0
M  V30 11320 H 1078.5 0.0286396 -0.675393 0
M  V30 11321 H 1081.06 -0.564912 -1.97479 0
M  V30 11322 H 1079.29 1.40334 -3.60338 0
M  V30 11323 H 1080.97 1.1115 -3.90385 0
M  V30 11324 H 1081.74 -1.24506 -4.68746 0
M  V30 11325 H 1077.62 -0.0213029 -4.60995 0
M  V30 11326 H 1081.16 -3.0445 -6.27659 0
M  V30 11327 H 1077.06 -1.81252 -6.1953 0
M  V30 11328 H 1077.83 -3.50571 -7.39623 0
M  V30 11329 N 1080.49 1.57075 -0.12858 0
M  V30 11330 C 1081.91 1.57964 0.227961 0
M  V30 11331 C 1082.11 1.14186 1.66023 0
M  V30 11332 O 1081.16 0.833655 2.38341 0
M  V30 11333 C 1082.48 3.00697 -0.0140648 0
M  V30 11334 C 1084.02 3.12958 0.0510876 0
M  V30 11335 C 1084.5 4.57709 -0.163368 0
M  V30 11336 N 1085.99 4.6307 -0.109663 0
M  V30 11337 C 1086.73 5.72853 -0.250366 0
M  V30 11338 N 1086.22 6.91351 -0.447772 0
M  V30 11339 N 1088.01 5.61781 -0.189265 0
M  V30 11340 H 1080.17 1.83829 -1.06398 0
M  V30 11341 H 1082.43 0.850014 -0.419739 0
M  V30 11342 H 1082.13 3.37047 -1.00461 0
M  V30 11343 H 1082.01 3.70389 0.713571 0
M  V30 11344 H 1084.4 2.7646 1.03216 0
M  V30 11345 H 1084.48 2.4579 -0.708583 0
M  V30 11346 H 1084.12 4.94907 -1.14146 0
M  V30 11347 H 1084.05 5.2298 0.616405 0
M  V30 11348 H 1086.54 3.7788 0.0390086 0
M  V30 11349 H 1086.85 7.70871 -0.54574 0
M  V30 11350 H 1085.2 6.93314 -0.483866 0
M  V30 11351 H 1088.39 4.68086 -0.0359374 0
M  V30 11352 H 1088.56 6.47294 -0.302359 0
M  V30 11353 N 1081.97 -0.145205 1.5693 0
M  V30 11354 C 1083.25 -0.88631 1.74367 0
M  V30 11355 C 1083.63 -1.99259 0.697081 0
M  V30 11356 O 1082.97 -2.26732 -0.28368 0
M  V30 11357 C 1083.18 -1.42712 3.18488 0
M  V30 11358 C 1084.53 -1.88982 3.80225 0
M  V30 11359 O 1085.56 -1.5245 3.21928 0
M  V30 11360 O 1084.42 -2.56361 4.8264 0
M  V30 11361 H 1081.51 -0.418979 0.713011 0
M  V30 11362 H 1084.06 -0.130991 1.69194 0
M  V30 11363 H 1082.83 -0.632165 3.8616 0
M  V30 11364 H 1082.45 -2.24589 3.28094 0
M  V30 11365 N 1083.45 -1.52049 -0.414609 0
M  V30 11366 C 1084.7 -1.65067 -1.15912 0
M  V30 11367 C 1085.01 -0.383969 -1.91794 0
M  V30 11368 O 1086.22 -0.393872 -2.68628 0
M  V30 11369 C 1084.67 -2.91611 -2.1093 0
M  V30 11370 C 1084.28 -4.25369 -1.4059 0
M  V30 11371 C 1086.02 -3.13992 -2.85674 0
M  V30 11372 C 1083.93 -5.43041 -2.34223 0
M  V30 11373 H 1082.86 -0.614884 -0.436387 0
M  V30 11374 H 1085.51 -1.78533 -0.424072 0
M  V30 11375 H 1083.89 -2.71831 -2.87965 0
M  V30 11376 H 1085.07 -4.55611 -0.689568 0
M  V30 11377 H 1083.38 -4.09047 -0.779088 0
M  V30 11378 H 1085.98 -3.99082 -3.55861 0
M  V30 11379 H 1086.32 -2.27998 -3.48314 0
M  V30 11380 H 1086.86 -3.34217 -2.1574 0
M  V30 11381 H 1083.59 -6.31364 -1.76238 0
M  V30 11382 H 1083.11 -5.17144 -3.03845 0
M  V30 11383 H 1084.79 -5.75901 -2.94868 0
M  V30 11384 N 1084.93 0.6715 -1.42579 0
M  V30 11385 C 1086.34 1.2522 -1.38481 0
M  V30 11386 C 1086.69 1.96038 -0.079719 0
M  V30 11387 O 1085.81 2.00203 0.821441 0
M  V30 11388 C 1086.41 2.27736 -2.50842 0
M  V30 11389 C 1084.97 2.81325 -2.50067 0
M  V30 11390 C 1084.11 1.55694 -2.29466 0
M  V30 11391 H 1087.06 0.464673 -1.51745 0
M  V30 11392 H 1087.09 3.09539 -2.21283 0
M  V30 11393 H 1086.6 1.76164 -3.45815 0
M  V30 11394 H 1084.7 3.37008 -1.58922 0
M  V30 11395 H 1084.81 3.30116 -3.47218 0
M  V30 11396 H 1083.18 1.82383 -1.77788 0
M  V30 11397 H 1083.96 1.06084 -3.26498 0
M  V30 11398 N 1086.4 1.28806 0.908124 0
M  V30 11399 C 1087.63 1.1898 1.689 0
M  V30 11400 C 1088.04 -0.253334 1.87496 0
M  V30 11401 O 1087.38 -1.18245 1.40584 0
M  V30 11402 C 1087.45 1.82266 3.0987 0
M  V30 11403 C 1087.11 3.31534 3.14538 0
M  V30 11404 C 1088.11 4.27886 2.95313 0
M  V30 11405 C 1085.79 3.72589 3.36872 0
M  V30 11406 C 1087.79 5.63267 2.98343 0
M  V30 11407 C 1085.47 5.08095 3.39534 0
M  V30 11408 C 1086.47 6.03244 3.2029 0
M  V30 11409 O 1086.16 7.36277 3.22724 0
M  V30 11410 H 1085.89 0.413772 0.534574 0
M  V30 11411 H 1088.45 1.7055 1.14464 0
M  V30 11412 H 1086.68 1.25197 3.65872 0
M  V30 11413 H 1088.36 1.6688 3.70008 0
M  V30 11414 H 1089.13 3.97502 2.77879 0
M  V30 11415 H 1085.01 2.98989 3.50894 0
M  V30 11416 H 1088.55 6.37511 2.83241 0
M  V30 11417 H 1084.45 5.38126 3.56497 0
M  V30 11418 H 1085.22 7.44976 3.39048 0
M  V30 11419 N 1087.88 -1.11734 1.11145 0
M  V30 11420 C 1088.83 -2.15789 0.736133 0
M  V30 11421 C 1089.82 -1.58813 -0.25832 0
M  V30 11422 O 1091.01 -1.76877 -0.0659078 0
M  V30 11423 C 1088.14 -3.4284 0.177597 0
M  V30 11424 C 1087.22 -4.06783 1.19953 0
M  V30 11425 N 1087.61 -4.45626 2.39271 0
M  V30 11426 C 1085.91 -4.33663 1.04176 0
M  V30 11427 C 1086.61 -4.95684 3.04422 0
M  V30 11428 N 1085.59 -4.91648 2.31912 0
M  V30 11429 H 1089.39 -2.43598 1.6443 0
M  V30 11430 H 1086.9 -1.28716 0.990247 0
M  V30 11431 H 1088.9 -4.16756 -0.109402 0
M  V30 11432 H 1087.56 -3.16498 -0.725201 0
M  V30 11433 H 1088.57 -4.37757 2.76747 0
M  V30 11434 H 1085.25 -4.17044 0.195132 0
M  V30 11435 H 1086.64 -5.35394 4.05959 0
M  V30 11436 N 1089.36 -0.901303 -1.29284 0
M  V30 11437 C 1090.31 -0.370142 -2.29636 0
M  V30 11438 C 1091.3 0.53157 -1.60844 0
M  V30 11439 O 1092.51 0.414194 -1.7517 0
M  V30 11440 H 1088.88 -0.101072 -0.745177 0
M  V30 11441 H 1090.85 -1.22985 -2.71877 0
M  V30 11442 C 1089.6 0.385806 -3.45553 0
M  V30 11443 H 1088.93 -0.298818 -3.98682 0
M  V30 11444 H 1090.37 0.722299 -4.17802 0
M  V30 11445 C 1088.82 1.58907 -2.97069 0
M  V30 11446 O 1089.35 2.68835 -2.98481 0
M  V30 11447 N 1087.56 1.43178 -2.5288 0
M  V30 11448 H 1087.11 0.537467 -2.51931 0
M  V30 11449 H 1087.07 2.23819 -2.208 0
M  V30 11450 N 1090.84 1.42931 -0.663954 0
M  V30 11451 C 1092.25 1.56098 -0.332496 0
M  V30 11452 C 1092.45 1.64564 1.16279 0
M  V30 11453 O 1091.51 1.6066 1.94794 0
M  V30 11454 C 1092.82 2.81649 -1.05329 0
M  V30 11455 C 1094.37 2.95408 -1.03457 0
M  V30 11456 C 1094.85 4.23805 -1.73647 0
M  V30 11457 N 1096.34 4.30693 -1.70462 0
M  V30 11458 C 1097.07 5.28833 -2.21637 0
M  V30 11459 N 1096.57 6.33189 -2.81147 0
M  V30 11460 N 1098.36 5.20558 -2.12075 0
M  V30 11461 H 1090.51 1.3568 -1.63416 0
M  V30 11462 H 1092.77 0.652361 -0.687844 0
M  V30 11463 H 1092.48 2.81494 -2.10842 0
M  V30 11464 H 1092.35 3.72208 -0.611626 0
M  V30 11465 H 1094.74 2.95097 0.0121936 0
M  V30 11466 H 1094.82 2.06109 -1.51502 0
M  V30 11467 H 1094.47 4.24876 -2.78285 0
M  V30 11468 H 1094.4 5.12019 -1.2306 0
M  V30 11469 H 1096.89 3.55904 -1.27046 0
M  V30 11470 H 1097.2 7.04411 -3.17844 0
M  V30 11471 H 1095.55 6.33781 -2.85212 0
M  V30 11472 H 1098.74 4.3795 -1.6528 0
M  V30 11473 H 1098.91 5.96881 -2.52264 0
M  V30 11474 N 1092.32 0.406567 1.52266 0
M  V30 11475 C 1093.56 -0.171391 2.00971 0
M  V30 11476 C 1093.88 -1.46443 1.29668 0
M  V30 11477 O 1095.08 -2.12348 1.69176 0
M  V30 11478 C 1093.54 -0.35599 3.58135 0
M  V30 11479 C 1093.15 0.924803 4.38351 0
M  V30 11480 C 1094.89 -0.889378 4.15079 0
M  V30 11481 C 1092.8 0.707534 5.87152 0
M  V30 11482 H 1091.73 -0.0678253 0.750943 0
M  V30 11483 H 1094.38 0.531619 1.7563 0
M  V30 11484 H 1092.76 -1.12127 3.79794 0
M  V30 11485 H 1093.94 1.69603 4.28452 0
M  V30 11486 H 1092.25 1.38442 3.92712 0
M  V30 11487 H 1094.85 -1.06792 5.23927 0
M  V30 11488 H 1095.19 -1.86334 3.7227 0
M  V30 11489 H 1095.72 -0.183224 3.97378 0
M  V30 11490 H 1092.46 1.65299 6.34316 0
M  V30 11491 H 1091.98 -0.024446 5.99795 0
M  V30 11492 H 1093.66 0.348721 6.4606 0
M  V30 11493 N 1093.79 -1.57004 0.136909 0
M  V30 11494 C 1094.74 -2.12815 -0.818144 0
M  V30 11495 C 1095.73 -1.0534 -1.21623 0
M  V30 11496 O 1096.92 -1.31539 -1.18434 0
M  V30 11497 C 1094.05 -2.74533 -2.06122 0
M  V30 11498 C 1093.14 -3.89117 -1.68669 0
M  V30 11499 N 1093.53 -4.95412 -1.01983 0
M  V30 11500 C 1091.82 -3.99636 -1.98009 0
M  V30 11501 C 1092.53 -5.75594 -0.840624 0
M  V30 11502 N 1091.5 -5.26019 -1.37131 0
M  V30 11503 H 1095.3 -2.92372 -0.299315 0
M  V30 11504 H 1092.82 -1.6227 -0.0649741 0
M  V30 11505 H 1094.81 -3.12872 -2.7553 0
M  V30 11506 H 1093.47 -1.96446 -2.58532 0
M  V30 11507 H 1094.49 -5.13393 -0.681744 0
M  V30 11508 H 1091.16 -3.32613 -2.52339 0
M  V30 11509 H 1092.55 -6.71157 -0.315807 0
M  V30 11510 N 1095.27 0.136881 -1.57004 0
M  V30 11511 C 1096.24 1.15267 -1.98106 0
M  V30 11512 C 1097.24 1.35305 -0.868856 0
M  V30 11513 O 1098.43 1.32126 -1.13527 0
M  V30 11514 C 1095.56 2.51092 -2.30577 0
M  V30 11515 H 1096.75 0.799821 -2.89038 0
M  V30 11516 H 1094.3 0.380576 -1.51596 0
M  V30 11517 H 1095.04 2.9133 -1.42469 0
M  V30 11518 H 1094.82 2.37906 -3.11678 0
M  V30 11519 H 1096.31 3.24232 -2.63179 0
M  V30 11520 N 1096.75 1.52266 0.40654 0
M  V30 11521 C 1097.98 1.70304 1.17491 0
M  V30 11522 C 1098.39 0.413656 1.84213 0
M  V30 11523 O 1097.75 -0.610524 1.71985 0
M  V30 11524 C 1097.8 2.84045 2.23609 0
M  V30 11525 O 1097.52 4.0799 1.5961 0
M  V30 11526 C 1099.02 3.13614 3.13306 0
M  V30 11527 H 1096.24 0.570669 0.352955 0
M  V30 11528 H 1098.79 1.98836 0.477967 0
M  V30 11529 H 1096.94 2.58025 2.88967 0
M  V30 11530 H 1097.36 4.7139 2.29983 0
M  V30 11531 H 1098.83 3.96707 3.83833 0
M  V30 11532 H 1099.31 2.27272 3.75824 0
M  V30 11533 H 1099.91 3.41409 2.53614 0
M  V30 11534 N 1098.23 -0.663929 1.42933 0
M  V30 11535 C 1099.51 -1.42054 1.34462 0
M  V30 11536 C 1099.89 -2.11096 -0.0127801 0
M  V30 11537 O 1099.23 -2.04027 -1.02884 0
M  V30 11538 C 1099.44 -2.41406 2.5204 0
M  V30 11539 C 1100.79 -3.05726 2.94647 0
M  V30 11540 O 1101.82 -2.51733 2.52009 0
M  V30 11541 O 1100.67 -4.03593 3.68477 0
M  V30 11542 H 1097.77 -0.634149 0.530834 0
M  V30 11543 H 1100.31 -0.691738 1.54962 0
M  V30 11544 H 1099.09 -1.89263 3.42484 0
M  V30 11545 H 1098.71 -3.21752 2.33584 0
M  V30 11546 N 1099.71 -1.29285 -0.901281 0
M  V30 11547 C 1100.95 -1.17339 -1.65407 0
M  V30 11548 C 1101.29 0.274834 -1.92245 0
M  V30 11549 O 1100.56 1.19865 -1.53176 0
M  V30 11550 C 1100.84 -1.98547 -3.00418 0
M  V30 11551 C 1100.7 -3.51501 -2.80655 0
M  V30 11552 C 1102.02 -1.81062 -4.01129 0
M  V30 11553 H 1099.13 -0.427624 -0.600255 0
M  V30 11554 H 1101.78 -1.58741 -1.0441 0
M  V30 11555 H 1099.93 -1.63366 -3.52482 0
M  V30 11556 H 1101.6 -3.96655 -2.35505 0
M  V30 11557 H 1099.84 -3.76504 -2.15469 0
M  V30 11558 H 1100.51 -4.03593 -3.76585 0
M  V30 11559 H 1102.99 -2.11788 -3.58169 0
M  V30 11560 H 1101.86 -2.40235 -4.93536 0
M  V30 11561 H 1102.13 -0.765388 -4.35424 0
M  V30 11562 N 1101.18 1.11143 -1.11736 0
M  V30 11563 C 1102.11 2.19339 -0.800795 0
M  V30 11564 C 1103.1 1.68508 0.23221 0
M  V30 11565 O 1104.28 1.93967 0.0950063 0
M  V30 11566 C 1101.41 3.46424 -0.246579 0
M  V30 11567 C 1100.36 4.10487 -1.21181 0
M  V30 11568 C 1099.69 5.32183 -0.518158 0
M  V30 11569 C 1100.99 4.55052 -2.56368 0
M  V30 11570 H 1102.68 2.46077 -1.70548 0
M  V30 11571 H 1100.23 1.18271 -0.821454 0
M  V30 11572 H 1102.18 4.21398 -0.0128889 0
M  V30 11573 H 1100.91 3.19154 0.693415 0
M  V30 11574 H 1099.57 3.3751 -1.43118 0
M  V30 11575 H 1099.21 5.01187 0.426742 0
M  V30 11576 H 1098.91 5.75997 -1.16196 0
M  V30 11577 H 1100.44 6.09895 -0.293333 0
M  V30 11578 H 1101.85 5.21335 -2.38501 0
M  V30 11579 H 1100.25 5.0969 -3.16758 0
M  V30 11580 H 1101.32 3.68343 -3.1536 0
M  V30 11581 N 1102.66 0.908147 1.28804 0
M  V30 11582 C 1103.61 0.363504 2.25084 0
M  V30 11583 C 1104.6 -0.52121 1.52224 0
M  V30 11584 O 1105.79 -0.361848 1.73262 0
M  V30 11585 C 1102.92 -0.400353 3.40958 0
M  V30 11586 C 1102 0.499761 4.21145 0
M  V30 11587 N 1102.39 1.61082 4.79464 0
M  V30 11588 C 1100.69 0.299108 4.44996 0
M  V30 11589 C 1101.39 2.16906 5.39747 0
M  V30 11590 N 1100.37 1.46103 5.23598 0
M  V30 11591 H 1104.17 1.21212 2.6774 0
M  V30 11592 H 1101.69 0.760159 1.43511 0
M  V30 11593 H 1103.68 -0.807343 4.09008 0
M  V30 11594 H 1102.34 -1.24613 2.99836 0
M  V30 11595 H 1103.35 1.99347 4.77997 0
M  V30 11596 H 1100.03 -0.507611 4.14403 0
M  V30 11597 H 1101.42 3.10338 5.95936 0
M  V30 11598 N 1104.14 -1.42577 0.671525 0
M  V30 11599 C 1105.1 -2.292 0.000392482 0
M  V30 11600 C 1106.1 -1.43158 -0.732294 0
M  V30 11601 O 1107.29 -1.64583 -0.570789 0
M  V30 11602 C 1104.43 -3.25591 -1.01013 0
M  V30 11603 H 1105.62 -2.90037 0.762783 0
M  V30 11604 H 1103.17 -1.50162 0.433703 0
M  V30 11605 H 1103.91 -2.69685 -1.80112 0
M  V30 11606 H 1103.69 -3.89049 -0.488183 0
M  V30 11607 H 1105.18 -3.90561 -1.47824 0
M  V30 11608 N 1105.62 -0.414636 -1.52048 0
M  V30 11609 C 1106.86 0.159585 -2.02171 0
M  V30 11610 C 1107.2 1.44321 -1.29943 0
M  V30 11611 O 1106.47 1.90185 -0.407402 0
M  V30 11612 C 1106.76 0.401655 -3.57853 0
M  V30 11613 C 1106.61 -0.899026 -4.40724 0
M  V30 11614 C 1107.93 1.1814 -4.23947 0
M  V30 11615 H 1105.05 0.0565257 -0.734829 0
M  V30 11616 H 1107.69 -0.549183 -1.8189 0
M  V30 11617 H 1105.84 1.00541 -3.75265 0
M  V30 11618 H 1107.51 -1.53502 -4.35011 0
M  V30 11619 H 1105.75 -1.50877 -4.06717 0
M  V30 11620 H 1106.42 -0.683974 -5.47746 0
M  V30 11621 H 1108.9 0.670203 -4.10667 0
M  V30 11622 H 1107.78 1.31953 -5.32804 0
M  V30 11623 H 1108.04 2.2035 -3.83273 0
M  V30 11624 N 1107.1 1.56929 -0.145233 0
M  V30 11625 C 1108.34 1.97141 0.500689 0
M  V30 11626 C 1108.7 1.02864 1.62594 0
M  V30 11627 O 1107.99 0.0633701 1.91495 0
M  V30 11628 C 1108.18 3.41467 1.05522 0
M  V30 11629 C 1108.01 4.49698 -0.0147676 0
M  V30 11630 C 1106.78 5.03242 -0.455585 0
M  V30 11631 C 1108.98 5.07952 -0.80558 0
M  V30 11632 N 1106.96 5.95075 -1.5086 0
M  V30 11633 C 1108.33 5.95977 -1.70914 0
M  V30 11634 C 1110.39 4.90529 -0.853564 0
M  V30 11635 C 1109.09 6.68445 -2.65656 0
M  V30 11636 C 1111.12 5.63698 -1.78881 0
M  V30 11637 C 1110.48 6.5143 -2.6799 0
M  V30 11638 H 1106.58 0.767071 0.152075 0
M  V30 11639 H 1109.16 1.93222 -0.239426 0
M  V30 11640 H 1107.33 3.45983 1.76495 0
M  V30 11641 H 1109.07 3.68745 1.66762 0
M  V30 11642 H 1105.82 4.73564 -0.0581751 0
M  V30 11643 H 1106.25 6.45697 -2.03482 0
M  V30 11644 H 1110.89 4.22422 -0.178723 0
M  V30 11645 H 1108.61 7.35782 -3.34141 0
M  V30 11646 H 1112.19 5.52213 -1.83172 0
M  V30 11647 H 1111.07 7.07054 -3.39181 0
M  V30 11648 N 1108.58 -0.128553 1.57075 0
M  V30 11649 C 1109.81 -0.851214 1.8825 0
M  V30 11650 C 1110.21 -1.74402 0.733531 0
M  V30 11651 O 1109.56 -1.81149 -0.305108 0
M  V30 11652 C 1109.62 -1.74451 3.14336 0
M  V30 11653 C 1109.28 -1.02699 4.45311 0
M  V30 11654 C 1110.28 -0.37224 5.18566 0
M  V30 11655 C 1107.96 -1.01101 4.9202 0
M  V30 11656 C 1109.96 0.2889 6.36745 0
M  V30 11657 C 1107.65 -0.346063 6.10119 0
M  V30 11658 C 1108.64 0.302744 6.82329 0
M  V30 11659 O 1108.33 0.9571 7.98182 0
M  V30 11660 H 1108.06 -0.250529 0.627863 0
M  V30 11661 H 1110.62 -0.120418 2.05047 0
M  V30 11662 H 1108.85 -2.51671 2.93596 0
M  V30 11663 H 1110.54 -2.34075 3.31608 0
M  V30 11664 H 1111.3 -0.376271 4.83538 0
M  V30 11665 H 1107.18 -1.50543 4.35727 0
M  V30 11666 H 1110.73 0.795901 6.93045 0
M  V30 11667 H 1106.62 -0.339762 6.44605 0
M  V30 11668 H 1107.39 0.860616 8.13963 0
M  V30 11669 N 1110.05 -1.5248 -0.398459 0
M  V30 11670 C 1110.98 -1.79549 -1.49279 0
M  V30 11671 C 1111.96 -0.647004 -1.57315 0
M  V30 11672 O 1113.15 -0.893661 -1.72416 0
M  V30 11673 C 1110.28 -1.95582 -2.86993 0
M  V30 11674 C 1109.23 -3.1123 -2.93803 0
M  V30 11675 C 1108.56 -3.12501 -4.33874 0
M  V30 11676 C 1109.86 -4.50485 -2.64312 0
M  V30 11677 H 1111.55 -2.71187 -1.26877 0
M  V30 11678 H 1109.1 -1.30492 -0.608924 0
M  V30 11679 H 1111.05 -2.13102 -3.63546 0
M  V30 11680 H 1109.78 -1.00625 -3.10712 0
M  V30 11681 H 1108.44 -2.93477 -2.19697 0
M  V30 11682 H 1108.08 -2.15245 -4.54619 0
M  V30 11683 H 1107.78 -3.90183 -4.39353 0
M  V30 11684 H 1109.31 -3.32164 -5.12347 0
M  V30 11685 H 1110.72 -4.68387 -3.30585 0
M  V30 11686 H 1109.12 -5.30163 -2.81153 0
M  V30 11687 H 1110.19 -4.57848 -1.59696 0
M  V30 11688 N 1111.53 0.65634 -1.43283 0
M  V30 11689 C 1112.76 1.44408 -1.48168 0
M  V30 11690 C 1113.17 1.88542 -0.0986016 0
M  V30 11691 O 1112.53 1.59298 0.890527 0
M  V30 11692 C 1112.58 2.68111 -2.42484 0
M  V30 11693 O 1112.3 2.25824 -3.75413 0
M  V30 11694 C 1113.8 3.61499 -2.56579 0
M  V30 11695 H 1111.02 0.443731 -0.503333 0
M  V30 11696 H 1113.57 0.804917 -1.87993 0
M  V30 11697 H 1111.72 3.28175 -2.05863 0
M  V30 11698 H 1112.14 3.05839 -4.26102 0
M  V30 11699 H 1113.61 4.44972 -3.26655 0
M  V30 11700 H 1114.09 4.08639 -1.60969 0
M  V30 11701 H 1114.69 3.07319 -2.93998 0
M  V30 11702 N 1113.01 1.29761 0.894412 0
M  V30 11703 C 1114.24 1.2094 1.67872 0
M  V30 11704 C 1114.65 -0.229192 1.87404 0
M  V30 11705 O 1114.01 -1.15278 1.41482 0
M  V30 11706 C 1114.06 1.92424 3.06032 0
M  V30 11707 O 1113.78 3.30665 2.87388 0
M  V30 11708 C 1115.28 1.90144 4.0045 0
M  V30 11709 H 1112.5 0.418942 0.524145 0
M  V30 11710 H 1115.05 1.71226 1.11813 0
M  V30 11711 H 1113.2 1.4596 3.58851 0
M  V30 11712 H 1113.62 3.66741 3.74969 0
M  V30 11713 H 1115.09 2.44716 4.94791 0
M  V30 11714 H 1115.57 0.878175 4.30331 0
M  V30 11715 H 1116.17 2.36375 3.53563 0
M  V30 11716 N 1114.49 -1.10549 1.12324 0
M  V30 11717 C 1115.9 -1.34508 0.85905 0
M  V30 11718 C 1116.1 -1.94901 -0.511468 0
M  V30 11719 O 1115.16 -2.18793 -1.2604 0
M  V30 11720 C 1116.47 -2.26788 1.97453 0
M  V30 11721 C 1118.02 -2.40328 2.00528 0
M  V30 11722 C 1118.5 -3.35936 3.11305 0
M  V30 11723 N 1119.99 -3.43504 3.1074 0
M  V30 11724 C 1120.72 -4.17449 3.93096 0
M  V30 11725 N 1120.22 -4.9429 4.85437 0
M  V30 11726 N 1122.01 -4.13055 3.81237 0
M  V30 11727 H 1114.16 -0.697171 2.00632 0
M  V30 11728 H 1116.42 -0.369548 0.873005 0
M  V30 11729 H 1116.13 -1.89621 2.96204 0
M  V30 11730 H 1116 -3.27086 1.87869 0
M  V30 11731 H 1118.39 -2.76765 1.02397 0
M  V30 11732 H 1118.47 -1.39849 2.14186 0
M  V30 11733 H 1118.12 -3.00225 4.09667 0
M  V30 11734 H 1118.05 -4.36291 2.94886 0
M  V30 11735 H 1120.54 -2.88702 2.43843 0
M  V30 11736 H 1120.85 -5.48109 5.4479 0
M  V30 11737 H 1119.2 -4.93419 4.89452 0
M  V30 11738 H 1122.39 -3.52117 3.08433 0
M  V30 11739 H 1122.56 -4.70424 4.45651 0
M  V30 11740 N 1115.97 -0.914965 -1.28321 0
M  V30 11741 C 1117.38 -0.59512 -1.76961 0
M  V30 11742 C 1117.73 0.88958 -1.74874 0
M  V30 11743 O 1116.85 1.6959 -1.34418 0
M  V30 11744 C 1117.45 -1.07353 -3.21342 0
M  V30 11745 C 1116.01 -0.804577 -3.677 0
M  V30 11746 C 1115.15 -1.23955 -2.48053 0
M  V30 11747 H 1118.1 -1.0961 -1.14767 0
M  V30 11748 H 1118.13 -0.415506 -3.78225 0
M  V30 11749 H 1117.64 -2.15413 -3.22829 0
M  V30 11750 H 1115.74 0.26277 -3.71672 0
M  V30 11751 H 1115.85 -1.41317 -4.57784 0
M  V30 11752 H 1114.22 -0.658274 -2.46046 0
M  V30 11753 H 1115 -2.32853 -2.52258 0
M  V30 11754 N 1117.44 1.42219 -0.679077 0
M  V30 11755 C 1118.69 2.01777 -0.20342 0
M  V30 11756 C 1119.02 1.53592 1.18841 0
M  V30 11757 O 1118.3 0.739954 1.79875 0
M  V30 11758 C 1118.58 3.59281 -0.242791 0
M  V30 11759 C 1118.43 4.17634 -1.67038 0
M  V30 11760 C 1119.75 4.38218 0.406624 0
M  V30 11761 H 1116.87 0.733134 -0.0753916 0
M  V30 11762 H 1119.51 1.69185 -0.864673 0
M  V30 11763 H 1117.66 3.87178 0.320248 0
M  V30 11764 H 1119.34 4.00674 -2.286 0
M  V30 11765 H 1117.58 3.73301 -2.20973 0
M  V30 11766 H 1118.25 5.26776 -1.64958 0
M  V30 11767 H 1120.73 4.16036 -0.0727077 0
M  V30 11768 H 1119.6 5.47793 0.348457 0
M  V30 11769 H 1119.86 4.16418 1.48487 0
M  V30 11770 N 1118.92 0.422693 1.51826 0
M  V30 11771 C 1120.33 -0.0438129 1.86649 0
M  V30 11772 C 1120.68 -1.43246 1.34071 0
M  V30 11773 O 1119.81 -2.05256 0.685501 0
M  V30 11774 C 1120.4 -0.0862802 3.3869 0
M  V30 11775 C 1118.96 -0.497157 3.73102 0
M  V30 11776 C 1118.11 0.319655 2.75451 0
M  V30 11777 H 1121.06 0.639181 1.45259 0
M  V30 11778 H 1121.08 -0.8988 3.69732 0
M  V30 11779 H 1120.59 0.924525 3.76927 0
M  V30 11780 H 1118.69 -1.51411 3.40449 0
M  V30 11781 H 1118.81 -0.232125 4.78537 0
M  V30 11782 H 1117.17 -0.219963 2.53748 0
M  V30 11783 H 1117.95 1.32906 3.16529 0
M  V30 11784 N 1120.4 -1.5685 0.153553 0
M  V30 11785 C 1121.65 -1.95946 -0.494936 0
M  V30 11786 C 1121.97 -1.03975 -1.64967 0
M  V30 11787 O 1121.24 -0.102572 -1.95631 0
M  V30 11788 H 1119.82 -0.723516 -0.185833 0
M  V30 11789 H 1122.48 -1.93531 0.230585 0
M  V30 11790 H 1121.58 -2.99823 -0.866743 0
M  V30 11791 N 1121.88 0.120221 -1.57141 0
M  V30 11792 C 1122.81 1.14876 -2.03287 0
M  V30 11793 C 1123.79 1.43259 -0.917112 0
M  V30 11794 O 1124.97 1.53721 -1.18674 0
M  V30 11795 C 1122.1 2.47525 -2.43616 0
M  V30 11796 C 1121.06 2.33607 -3.58625 0
M  V30 11797 C 1120.38 3.71207 -3.84849 0
M  V30 11798 C 1121.68 1.79761 -4.90391 0
M  V30 11799 H 1123.38 0.764943 -2.89463 0
M  V30 11800 H 1120.92 0.366516 -1.39258 0
M  V30 11801 H 1122.88 3.19728 -2.74504 0
M  V30 11802 H 1121.6 2.87794 -1.54409 0
M  V30 11803 H 1120.26 1.63853 -3.27945 0
M  V30 11804 H 1119.91 4.0896 -2.9285 0
M  V30 11805 H 1119.61 3.62749 -4.62263 0
M  V30 11806 H 1121.13 4.44917 -4.18188 0
M  V30 11807 H 1122.55 2.4178 -5.19822 0
M  V30 11808 H 1120.94 1.82126 -5.71795 0
M  V30 11809 H 1122.01 0.755087 -4.78985 0
M  V30 11810 N 1123.36 1.52689 0.390367 0
M  V30 11811 C 1124.29 1.73622 1.49626 0
M  V30 11812 C 1125.3 0.616682 1.50668 0
M  V30 11813 O 1126.49 0.892341 1.54595 0
M  V30 11814 C 1123.59 1.77859 2.88477 0
M  V30 11815 C 1122.76 3.07146 3.11416 0
M  V30 11816 C 1121.82 3.02949 4.30242 0
M  V30 11817 O 1120.85 3.76816 4.26613 0
M  V30 11818 N 1122.05 2.22039 5.36357 0
M  V30 11819 H 1124.82 2.69037 1.32057 0
M  V30 11820 H 1122.38 1.51159 0.579867 0
M  V30 11821 H 1124.37 1.72559 3.66067 0
M  V30 11822 H 1122.94 0.898367 2.99413 0
M  V30 11823 H 1122.16 3.25947 2.21703 0
M  V30 11824 H 1123.45 3.92637 3.23595 0
M  V30 11825 H 1122.84 1.6149 5.4216 0
M  V30 11826 H 1121.4 2.2258 6.12619 0
M  V30 11827 N 1124.83 -0.648732 1.43629 0
M  V30 11828 C 1125.77 -1.77417 1.45107 0
M  V30 11829 C 1126.78 -1.59067 0.346618 0
M  V30 11830 O 1127.97 -1.67705 0.611322 0
M  V30 11831 C 1125.07 -3.14906 1.25249 0
M  V30 11832 C 1124.24 -3.59874 2.48616 0
M  V30 11833 C 1123.3 -4.76181 2.23916 0
M  V30 11834 O 1122.33 -4.8539 2.97296 0
M  V30 11835 N 1123.53 -5.66691 1.25862 0
M  V30 11836 H 1126.29 -1.76626 2.42123 0
M  V30 11837 H 1123.85 -0.832725 1.38843 0
M  V30 11838 H 1125.85 -3.90408 1.06601 0
M  V30 11839 H 1124.42 -3.10443 0.366623 0
M  V30 11840 H 1123.64 -2.74768 2.82659 0
M  V30 11841 H 1124.92 -3.86665 3.30708 0
M  V30 11842 H 1124.32 -5.61927 0.652227 0
M  V30 11843 H 1122.88 -6.41895 1.13196 0
M  V30 11844 N 1126.31 -1.30234 -0.887518 0
M  V30 11845 C 1127.56 -1.18277 -1.63381 0
M  V30 11846 C 1127.87 0.262079 -1.93836 0
M  V30 11847 O 1129.08 0.503127 -2.66797 0
M  V30 11848 C 1127.54 -2.06944 -2.94452 0
M  V30 11849 C 1127.14 -3.56323 -2.71547 0
M  V30 11850 C 1128.89 -2.03743 -3.7241 0
M  V30 11851 C 1126.8 -4.37054 -3.98419 0
M  V30 11852 H 1125.73 -0.439087 -0.612959 0
M  V30 11853 H 1128.38 -1.54964 -0.982779 0
M  V30 11854 H 1126.76 -1.63138 -3.60835 0
M  V30 11855 H 1127.93 -4.08261 -2.13681 0
M  V30 11856 H 1126.25 -3.61321 -2.06969 0
M  V30 11857 H 1128.84 -2.61312 -4.66497 0
M  V30 11858 H 1129.19 -1.02029 -4.03603 0
M  V30 11859 H 1129.72 -2.45657 -3.12886 0
M  V30 11860 H 1126.46 -5.39453 -3.72385 0
M  V30 11861 H 1125.98 -3.89881 -4.55799 0
M  V30 11862 H 1127.66 -4.48356 -4.66462 0
M  V30 11863 N 1127.79 1.09952 -1.12909 0
M  V30 11864 C 1128.74 2.14591 -0.77037 0
M  V30 11865 C 1129.72 1.59204 0.233021 0
M  V30 11866 O 1130.92 1.7696 0.0377599 0
M  V30 11867 C 1128.05 3.42514 -0.232117 0
M  V30 11868 C 1127.13 4.04823 -1.26409 0
M  V30 11869 N 1127.52 4.41763 -2.46331 0
M  V30 11870 C 1125.82 4.31951 -1.11062 0
M  V30 11871 C 1126.52 4.90778 -3.12269 0
M  V30 11872 N 1125.5 4.87896 -2.39704 0
M  V30 11873 H 1129.3 2.40951 -1.68285 0
M  V30 11874 H 1126.81 1.27125 -1.0106 0
M  V30 11875 H 1128.81 4.16878 0.0430853 0
M  V30 11876 H 1127.47 3.17612 0.674757 0
M  V30 11877 H 1128.48 4.33299 -2.83677 0
M  V30 11878 H 1125.16 4.16681 -0.261456 0
M  V30 11879 H 1126.55 5.28868 -4.14425 0
M  V30 11880 N 1129.27 0.921757 1.27833 0
M  V30 11881 C 1130.22 0.406628 2.29018 0
M  V30 11882 C 1131.21 -0.505914 1.61669 0
M  V30 11883 O 1132.42 -0.386273 1.75807 0
M  V30 11884 H 1128.79 0.112914 0.743475 0
M  V30 11885 H 1130.76 1.27295 2.69886 0
M  V30 11886 C 1129.51 -0.330783 3.46123 0
M  V30 11887 H 1128.83 0.362207 3.98156 0
M  V30 11888 H 1130.27 -0.655738 4.18899 0
M  V30 11889 C 1128.73 -1.54161 2.9956 0
M  V30 11890 O 1129.26 -2.64052 3.0272 0
M  V30 11891 N 1127.47 -1.39137 2.55126 0
M  V30 11892 H 1127.02 -0.497319 2.52754 0
M  V30 11893 H 1126.97 -2.20278 2.24333 0
M  V30 11894 N 1130.75 -1.41857 0.686609 0
M  V30 11895 C 1131.99 -2.0097 0.213378 0
M  V30 11896 C 1132.32 -1.54618 -1.1882 0
M  V30 11897 O 1131.59 -0.772916 -1.80008 0
M  V30 11898 H 1130.17 -0.743134 0.0758968 0
M  V30 11899 H 1132.83 -1.73609 0.885763 0
M  V30 11900 H 1131.92 -3.11296 0.223826 0
M  V30 11901 N 1132.22 -0.430739 -1.51599 0
M  V30 11902 C 1133.46 0.137184 -2.03939 0
M  V30 11903 C 1133.83 1.40533 -1.30823 0
M  V30 11904 O 1135.03 2.05307 -1.73501 0
M  V30 11905 C 1133.3 0.357395 -3.55609 0
M  V30 11906 S 1134.86 0.889669 -4.29686 0
M  V30 11907 H 1131.68 0.0349429 -0.710141 0
M  V30 11908 H 1134.28 -0.588628 -1.86428 0
M  V30 11909 H 1132.98 -0.572011 -4.06394 0
M  V30 11910 H 1132.51 1.11047 -3.77402 0
M  V30 11911 H 1134.53 2.16797 -4.46333 0
M  V30 11912 N 1133.7 1.56767 -0.161869 0
M  V30 11913 C 1134.95 1.96206 0.484537 0
M  V30 11914 C 1135.27 1.04848 1.64414 0
M  V30 11915 O 1134.54 0.112946 1.95574 0
M  V30 11916 H 1133.12 0.724491 0.181994 0
M  V30 11917 H 1135.78 1.93406 -0.240845 0
M  V30 11918 H 1134.88 3.00279 0.85083 0
M  V30 11919 N 1135.18 -0.111886 1.57202 0
M  V30 11920 C 1136.41 -0.832407 1.89416 0
M  V30 11921 C 1136.82 -1.73096 0.753861 0
M  V30 11922 O 1136.18 -1.80416 -0.274992 0
M  V30 11923 C 1136.23 -1.65988 3.21139 0
M  V30 11924 O 1135.95 -0.797485 4.3078 0
M  V30 11925 C 1137.45 -2.48493 3.67105 0
M  V30 11926 H 1134.67 -0.238919 0.627024 0
M  V30 11927 H 1137.22 -0.0941456 2.04283 0
M  V30 11928 H 1135.37 -2.35082 3.07921 0
M  V30 11929 H 1135.79 -1.36892 5.06321 0
M  V30 11930 H 1137.26 -3.02072 4.62014 0
M  V30 11931 H 1137.74 -3.26182 2.94112 0
M  V30 11932 H 1138.34 -1.84628 3.83135 0
M  V30 11933 N 1136.66 -1.52894 -0.382264 0
M  V30 11934 C 1137.91 -1.67933 -1.1244 0
M  V30 11935 C 1138.23 -0.425166 -1.90309 0
M  V30 11936 O 1137.5 0.560557 -1.87709 0
M  V30 11937 H 1136.08 -0.619047 -0.418079 0
M  V30 11938 H 1138.74 -1.90031 -0.432928 0
M  V30 11939 H 1137.84 -2.53285 -1.82355 0
M  V30 11940 N 1138.14 0.641106 -1.43971 0
M  V30 11941 C 1139.09 1.77474 -1.50352 0
M  V30 11942 C 1140.08 1.65173 -0.376052 0
M  V30 11943 O 1141.29 1.71373 -0.550572 0
M  V30 11944 H 1137.66 0.585747 -0.471597 0
M  V30 11945 H 1139.63 1.69213 -2.45784 0
M  V30 11946 C 1138.38 3.15778 -1.45532 0
M  V30 11947 H 1137.7 3.25886 -2.316 0
M  V30 11948 H 1139.14 3.95022 -1.54058 0
M  V30 11949 C 1137.6 3.36447 -0.174624 0
M  V30 11950 O 1138.13 3.9446 0.759215 0
M  V30 11951 N 1136.34 2.90487 -0.0809383 0
M  V30 11952 H 1135.89 2.43461 -0.841691 0
M  V30 11953 H 1135.84 3.04693 0.775231 0
M  V30 11954 N 1139.62 1.30703 0.880598 0
M  V30 11955 C 1140.53 1.19389 2.01949 0
M  V30 11956 C 1141.54 0.112868 1.73634 0
M  V30 11957 O 1142.72 0.328643 1.98701 0
M  V30 11958 C 1139.78 0.891004 3.35055 0
M  V30 11959 C 1138.84 2.05784 3.76764 0
M  V30 11960 C 1138.08 1.76931 5.03519 0
M  V30 11961 O 1138.3 0.699326 5.66097 0
M  V30 11962 O 1137.23 2.623 5.4174 0
M  V30 11963 H 1141.06 2.15073 2.14423 0
M  V30 11964 H 1138.64 1.10339 1.00726 0
M  V30 11965 H 1140.53 0.737476 4.14897 0
M  V30 11966 H 1139.2 -0.0358909 3.2368 0
M  V30 11967 H 1138.11 2.26672 2.97608 0
M  V30 11968 H 1139.44 2.96661 3.9275 0
M  V30 11969 N 1141.09 -1.09351 1.1349 0
M  V30 11970 C 1142.32 -1.85304 0.920324 0
M  V30 11971 C 1142.74 -1.81182 -0.530883 0
M  V30 11972 O 1142.09 -1.20853 -1.36751 0
M  V30 11973 C 1142.14 -3.33249 1.40098 0
M  V30 11974 O 1141.87 -3.37333 2.79531 0
M  V30 11975 C 1143.37 -4.2604 1.22495 0
M  V30 11976 H 1140.59 -0.585294 0.328134 0
M  V30 11977 H 1143.13 -1.38168 1.50765 0
M  V30 11978 H 1141.29 -3.7781 0.85664 0
M  V30 11979 H 1141.7 -4.29614 3.00885 0
M  V30 11980 H 1143.17 -5.27999 1.61 0
M  V30 11981 H 1143.65 -4.38883 0.166717 0
M  V30 11982 H 1144.26 -3.87295 1.75735 0
M  V30 11983 N 1142.57 -0.928524 -1.27343 0
M  V30 11984 C 1143.85 -0.487758 -1.89421 0
M  V30 11985 C 1144.23 1.03418 -1.84032 0
M  V30 11986 O 1143.58 1.8887 -1.2861 0
M  V30 11987 C 1143.79 -1.03478 -3.33307 0
M  V30 11988 C 1145.13 -1.09577 -4.10217 0
M  V30 11989 O 1146.16 -0.984463 -3.42326 0
M  V30 11990 O 1145.02 -1.2673 -5.31603 0
M  V30 11991 H 1142.11 -0.157018 -0.811957 0
M  V30 11992 H 1144.66 -1.02027 -1.35605 0
M  V30 11993 H 1143.43 -2.07861 -3.31526 0
M  V30 11994 H 1143.05 -0.483967 -3.94644 0
M  V30 11995 N 1144.05 1.41491 -0.694123 0
M  V30 11996 C 1145.27 2.06099 -0.23197 0
M  V30 11997 C 1145.7 1.51888 1.10958 0
M  V30 11998 O 1145.06 0.645247 1.69429 0
M  V30 11999 C 1145.11 3.60053 -0.198522 0
M  V30 12000 O 1144.21 4.04021 0.827067 0
M  V30 12001 H 1143.55 0.654193 -0.113699 0
M  V30 12002 H 1146.08 1.81282 -0.948575 0
M  V30 12003 H 1146.09 4.0799 -0.0288904 0
M  V30 12004 H 1144.77 3.98879 -1.17764 0
M  V30 12005 H 1143.34 3.67593 0.626908 0
M  V30 12006 N 1145.53 0.438773 1.51369 0
M  V30 12007 C 1146.8 -0.18722 1.94702 0
M  V30 12008 C 1147.18 -1.59962 1.37752 0
M  V30 12009 O 1146.53 -2.214 0.565171 0
M  V30 12010 C 1146.74 -0.163491 3.48617 0
M  V30 12011 C 1148.09 -0.368355 4.22999 0
M  V30 12012 O 1149.11 -0.241541 3.5538 0
M  V30 12013 O 1147.97 -0.620916 5.42961 0
M  V30 12014 H 1145.07 -0.129194 0.816846 0
M  V30 12015 H 1147.61 0.496855 1.62263 0
M  V30 12016 H 1146.39 0.823882 3.82528 0
M  V30 12017 H 1146.01 -0.890414 3.87501 0
M  V30 12018 N 1147.01 -1.56678 0.170181 0
M  V30 12019 C 1148.25 -1.9646 -0.474125 0
M  V30 12020 C 1148.57 -1.05719 -1.63855 0
M  V30 12021 O 1147.84 -0.123316 -1.95511 0
M  V30 12022 H 1146.42 -0.725446 -0.178149 0
M  V30 12023 H 1149.09 -1.93276 0.251099 0
M  V30 12024 H 1148.18 -3.00726 -0.834894 0
M  V30 12025 N 1148.48 0.103547 -1.57259 0
M  V30 12026 C 1149.9 0.457527 -1.52901 0
M  V30 12027 C 1150.1 1.80995 -0.8856 0
M  V30 12028 O 1149.16 2.48001 -0.474504 0
M  V30 12029 C 1150.47 0.427793 -2.97641 0
M  V30 12030 C 1152.02 0.51025 -3.08813 0
M  V30 12031 C 1152.49 0.51075 -4.55143 0
M  V30 12032 N 1153.98 0.571748 -4.59658 0
M  V30 12033 C 1154.72 0.593836 -5.70317 0
M  V30 12034 N 1154.21 0.572638 -6.90429 0
M  V30 12035 N 1156.01 0.638011 -5.58467 0
M  V30 12036 H 1148.16 -0.782408 -1.97464 0
M  V30 12037 H 1150.42 -0.290324 -0.90245 0
M  V30 12038 H 1150.13 -0.498608 -3.48148 0
M  V30 12039 H 1150 1.24991 -3.55889 0
M  V30 12040 H 1152.39 1.42707 -2.583 0
M  V30 12041 H 1152.47 -0.339846 -2.53532 0
M  V30 12042 H 1152.11 -0.40209 -5.06306 0
M  V30 12043 H 1152.04 1.37794 -5.08252 0
M  V30 12044 H 1154.53 0.593668 -3.73208 0
M  V30 12045 H 1154.85 0.592542 -7.70525 0
M  V30 12046 H 1153.19 0.539818 -6.929 0
M  V30 12047 H 1156.38 0.652042 -4.63536 0
M  V30 12048 H 1156.56 0.651756 -6.44714 0
M  V30 12049 N 1149.96 1.53094 0.37415 0
M  V30 12050 C 1151.21 1.68082 1.11495 0
M  V30 12051 C 1151.52 0.434685 1.90709 0
M  V30 12052 O 1152.73 0.464956 2.67489 0
M  V30 12053 C 1151.19 2.97101 2.03124 0
M  V30 12054 C 1150.79 4.28947 1.29262 0
M  V30 12055 C 1152.54 3.21456 2.77248 0
M  V30 12056 C 1150.44 5.4906 2.19743 0
M  V30 12057 H 1149.37 0.626238 0.419931 0
M  V30 12058 H 1152.03 1.79594 0.376588 0
M  V30 12059 H 1150.41 2.79371 2.80656 0
M  V30 12060 H 1151.58 4.57279 0.568528 0
M  V30 12061 H 1149.9 4.10968 0.670362 0
M  V30 12062 H 1152.49 4.08377 3.45155 0
M  V30 12063 H 1152.84 2.37153 3.42146 0
M  V30 12064 H 1153.37 3.3982 2.06803 0
M  V30 12065 H 1150.11 6.35815 1.59437 0
M  V30 12066 H 1149.63 5.25019 2.90027 0
M  V30 12067 H 1151.31 5.83517 2.79495 0
M  V30 12068 N 1151.44 -0.633461 1.44309 0
M  V30 12069 C 1152.39 -1.76674 1.51292 0
M  V30 12070 C 1153.38 -1.64972 0.384807 0
M  V30 12071 O 1154.59 -1.71079 0.559653 0
M  V30 12072 H 1150.96 -0.583238 0.474697 0
M  V30 12073 H 1152.93 -1.67907 2.46678 0
M  V30 12074 C 1151.68 -3.15002 1.47205 0
M  V30 12075 H 1151.01 -3.24653 2.33325 0
M  V30 12076 H 1152.45 -3.94199 1.56151 0
M  V30 12077 C 1150.9 -3.3635 0.192464 0
M  V30 12078 O 1151.43 -3.94857 -0.738285 0
M  V30 12079 N 1149.64 -2.9044 0.0963424 0
M  V30 12080 H 1149.19 -2.43011 0.85459 0
M  V30 12081 H 1149.15 -3.05099 -0.759061 0
M  V30 12082 N 1152.92 -1.31168 -0.873655 0
M  V30 12083 C 1153.87 -1.15107 -1.9681 0
M  V30 12084 C 1154.85 -0.0630813 -1.60776 0
M  V30 12085 O 1156.04 -0.28761 -1.74648 0
M  V30 12086 C 1153.17 -0.856705 -3.32439 0
M  V30 12087 C 1152.26 -1.9855 -3.74752 0
M  V30 12088 N 1152.65 -3.23213 -3.89059 0
M  V30 12089 C 1150.95 -1.8844 -4.04235 0
M  V30 12090 C 1151.65 -3.97026 -4.25141 0
M  V30 12091 N 1150.63 -3.25165 -4.35624 0
M  V30 12092 H 1154.43 -2.09643 -2.05978 0
M  V30 12093 H 1151.94 -1.22672 -1.06421 0
M  V30 12094 H 1153.94 -0.722635 -4.10589 0
M  V30 12095 H 1152.6 0.0804676 -3.246 0
M  V30 12096 H 1153.61 -3.58372 -3.73885 0
M  V30 12097 H 1150.29 -1.02164 -4.04807 0
M  V30 12098 H 1151.68 -5.04437 -4.43839 0
M  V30 12099 N 1154.4 1.08748 -1.14068 0
M  V30 12100 C 1155.64 1.80707 -0.904947 0
M  V30 12101 C 1155.97 1.86478 0.570167 0
M  V30 12102 O 1155.24 1.35536 1.41445 0
M  V30 12103 H 1153.82 0.669261 -0.331811 0
M  V30 12104 H 1156.48 1.31494 -1.43859 0
M  V30 12105 H 1155.57 2.83653 -1.30182 0
M  V30 12106 N 1155.87 0.935264 1.26849 0
M  V30 12107 C 1157.29 0.636661 1.46352 0
M  V30 12108 C 1157.49 -0.811823 1.84423 0
M  V30 12109 O 1156.55 -1.58902 1.9623 0
M  V30 12110 C 1157.86 1.59301 2.55036 0
M  V30 12111 C 1159.41 1.60207 2.68892 0
M  V30 12112 C 1159.88 2.54558 3.80742 0
M  V30 12113 N 1161.37 2.52809 3.88126 0
M  V30 12114 C 1162.11 3.225 4.74111 0
M  V30 12115 N 1161.6 4.01598 5.64527 0
M  V30 12116 N 1163.4 3.11481 4.67906 0
M  V30 12117 H 1155.55 1.8716 1.00423 0
M  V30 12118 H 1157.81 0.803968 0.502334 0
M  V30 12119 H 1157.52 2.62671 2.33874 0
M  V30 12120 H 1157.39 1.34052 3.52576 0
M  V30 12121 H 1159.78 0.575649 2.89431 0
M  V30 12122 H 1159.86 1.89508 1.71815 0
M  V30 12123 H 1159.5 3.57314 3.60956 0
M  V30 12124 H 1159.43 2.22549 4.77263 0
M  V30 12125 H 1161.92 1.9537 3.2348 0
M  V30 12126 H 1162.24 4.51742 6.27016 0
M  V30 12127 H 1160.58 4.057 5.64298 0
M  V30 12128 H 1163.77 2.49175 3.9627 0
M  V30 12129 H 1163.95 3.66064 5.34697 0
M  V30 12130 N 1157.35 -1.41121 0.701616 0
M  V30 12131 C 1158.6 -2.00359 0.232214 0
M  V30 12132 C 1158.91 -1.56231 -1.17691 0
M  V30 12133 O 1160.12 -2.08071 -1.74409 0
M  V30 12134 C 1158.58 -3.58052 0.364257 0
M  V30 12135 C 1158.18 -4.11158 1.77913 0
M  V30 12136 C 1159.93 -4.24476 -0.0450628 0
M  V30 12137 C 1157.84 -5.61306 1.8625 0
M  V30 12138 H 1156.77 -0.749411 0.0830609 0
M  V30 12139 H 1159.42 -1.61528 0.870689 0
M  V30 12140 H 1157.8 -3.94515 -0.342569 0
M  V30 12141 H 1158.97 -3.86101 2.5152 0
M  V30 12142 H 1157.29 -3.57282 2.13866 0
M  V30 12143 H 1159.88 -5.347 -0.00329209 0
M  V30 12144 H 1160.23 -4.01919 -1.08477 0
M  V30 12145 H 1160.76 -3.93069 0.611704 0
M  V30 12146 H 1157.5 -5.88699 2.88294 0
M  V30 12147 H 1157.02 -5.88271 1.17036 0
M  V30 12148 H 1158.7 -6.26179 1.62817 0
M  V30 12149 N 1158.83 -0.446794 -1.51134 0
M  V30 12150 C 1159.79 0.348311 -2.26538 0
M  V30 12151 C 1160.79 0.941566 -1.3035 0
M  V30 12152 O 1161.98 0.814537 -1.53984 0
M  V30 12153 C 1159.12 1.49371 -3.06433 0
M  V30 12154 H 1160.31 -0.312648 -2.98266 0
M  V30 12155 H 1157.86 -0.200201 -1.55013 0
M  V30 12156 H 1158.6 2.19045 -2.39144 0
M  V30 12157 H 1158.38 1.07439 -3.77093 0
M  V30 12158 H 1159.87 2.05522 -3.63525 0
M  V30 12159 N 1160.31 1.56586 -0.178487 0
M  V30 12160 C 1161.54 2.01183 0.470002 0
M  V30 12161 C 1161.95 1.05781 1.56866 0
M  V30 12162 O 1161.29 0.0519678 1.83626 0
M  V30 12163 C 1161.35 3.42199 1.10183 0
M  V30 12164 C 1161.02 4.56773 0.143945 0
M  V30 12165 C 1162.01 5.1594 -0.64043 0
M  V30 12166 C 1159.7 5.02286 0.0376874 0
M  V30 12167 C 1161.69 6.19055 -1.51819 0
M  V30 12168 C 1159.38 6.05248 -0.843652 0
M  V30 12169 C 1160.38 6.63505 -1.62017 0
M  V30 12170 O 1160.06 7.6447 -2.48677 0
M  V30 12171 H 1159.8 0.664527 0.124018 0
M  V30 12172 H 1162.35 2.0349 -0.279495 0
M  V30 12173 H 1160.58 3.36827 1.89959 0
M  V30 12174 H 1162.27 3.70705 1.65326 0
M  V30 12175 H 1163.04 4.81656 -0.56855 0
M  V30 12176 H 1158.91 4.56649 0.631893 0
M  V30 12177 H 1162.46 6.64455 -2.12475 0
M  V30 12178 H 1158.36 6.38958 -0.916708 0
M  V30 12179 H 1159.12 7.81823 -2.42272 0
M  V30 12180 N 1161.79 -0.095206 1.57312 0
M  V30 12181 C 1163.04 -0.797417 1.85268 0
M  V30 12182 C 1163.35 -1.79903 0.767733 0
M  V30 12183 O 1164.55 -2.54914 0.934409 0
M  V30 12184 C 1163.01 -1.469 3.28555 0
M  V30 12185 C 1162.62 -0.507152 4.4512 0
M  V30 12186 C 1164.36 -2.15494 3.65735 0
M  V30 12187 C 1162.27 -1.18331 5.79441 0
M  V30 12188 H 1161.2 -0.301552 0.691074 0
M  V30 12189 H 1163.85 -0.0503584 1.83431 0
M  V30 12190 H 1162.23 -2.26351 3.24933 0
M  V30 12191 H 1163.41 0.255858 4.60089 0
M  V30 12192 H 1161.72 0.0730882 4.16336 0
M  V30 12193 H 1164.32 -2.66816 4.63371 0
M  V30 12194 H 1164.66 -2.94383 2.94354 0
M  V30 12195 H 1165.19 -1.42903 3.71246 0
M  V30 12196 H 1161.93 -0.435238 6.54053 0
M  V30 12197 H 1161.45 -1.91775 5.68315 0
M  V30 12198 H 1163.13 -1.70983 6.23998 0
M  V30 12199 N 1163.26 -1.53291 -0.366026 0
M  V30 12200 C 1164.49 -1.73665 -1.13381 0
M  V30 12201 C 1164.91 -0.464284 -1.8228 0
M  V30 12202 O 1164.27 0.581645 -1.71717 0
M  V30 12203 C 1164.32 -2.90225 -2.14013 0
M  V30 12204 O 1163.42 -2.58803 -3.21084 0
M  V30 12205 H 1162.77 -0.576762 -0.329 0
M  V30 12206 H 1165.3 -2.00174 -0.423287 0
M  V30 12207 H 1165.31 -3.16378 -2.57622 0
M  V30 12208 H 1163.98 -3.82518 -1.63257 0
M  V30 12209 H 1162.56 -2.43466 -2.82451 0
M  V30 12210 N 1164.74 0.6258 -1.44643 0
M  V30 12211 C 1165.97 1.41726 -1.51422 0
M  V30 12212 C 1166.39 1.87565 -0.14181 0
M  V30 12213 O 1165.75 1.59059 0.870054 0
M  V30 12214 C 1165.8 2.61012 -2.48807 0
M  V30 12215 O 1164.9 3.61029 -1.99328 0
M  V30 12216 H 1164.24 0.423855 -0.511119 0
M  V30 12217 H 1166.77 0.763336 -1.89827 0
M  V30 12218 H 1166.78 3.08489 -2.67018 0
M  V30 12219 H 1165.46 2.26995 -3.48491 0
M  V30 12220 H 1164.04 3.20325 -1.90909 0
M  V30 12221 N 1166.22 1.31629 0.866686 0
M  V30 12222 C 1167.17 1.19556 1.97421 0
M  V30 12223 C 1168.14 0.0805578 1.65905 0
M  V30 12224 O 1169.32 0.253997 1.89102 0
M  V30 12225 C 1166.46 0.912234 3.32825 0
M  V30 12226 C 1165.58 2.11088 3.76916 0
M  V30 12227 C 1164.71 1.76406 5.01053 0
M  V30 12228 C 1163.75 2.9266 5.37602 0
M  V30 12229 N 1162.89 2.58152 6.52918 0
M  V30 12230 H 1167.73 2.14294 2.0708 0
M  V30 12231 H 1165.26 1.06595 1.0137 0
M  V30 12232 H 1167.22 0.72851 4.1079 0
M  V30 12233 H 1165.85 0.00167404 3.228 0
M  V30 12234 H 1164.9 2.40527 2.94705 0
M  V30 12235 H 1166.22 2.98089 3.99931 0
M  V30 12236 H 1165.37 1.54515 5.86694 0
M  V30 12237 H 1164.11 0.866018 4.79949 0
M  V30 12238 H 1163.11 3.15196 4.50479 0
M  V30 12239 H 1164.34 3.83179 5.6067 0
M  V30 12240 H 1162.28 1.70874 6.33355 0
M  V30 12241 H 1162.2 3.38682 6.75892 0
M  V30 12242 H 1163.47 2.39662 7.41743 0
M  V30 12243 N 1167.7 -1.08142 1.14644 0
M  V30 12244 C 1168.92 -1.84857 0.940349 0
M  V30 12245 C 1169.35 -1.81163 -0.506117 0
M  V30 12246 O 1168.71 -1.19869 -1.36019 0
M  V30 12247 C 1168.76 -3.30198 1.4492 0
M  V30 12248 O 1167.86 -4.07355 0.64308 0
M  V30 12249 H 1167.2 -0.572711 0.336003 0
M  V30 12250 H 1169.73 -1.36475 1.52432 0
M  V30 12251 H 1169.74 -3.81039 1.45854 0
M  V30 12252 H 1168.42 -3.32202 2.50229 0
M  V30 12253 H 1166.99 -3.66219 0.702698 0
M  V30 12254 N 1169.18 -0.941978 -1.26351 0
M  V30 12255 C 1170.42 -0.597462 -1.95473 0
M  V30 12256 C 1170.78 0.847851 -1.72266 0
M  V30 12257 O 1171.98 1.30134 -2.35199 0
M  V30 12258 C 1170.25 -0.931342 -3.45052 0
M  V30 12259 S 1171.81 -0.697491 -4.33221 0
M  V30 12260 H 1168.63 -0.22003 -0.676097 0
M  V30 12261 H 1171.23 -1.21346 -1.53282 0
M  V30 12262 H 1169.94 -1.98063 -3.59443 0
M  V30 12263 H 1169.47 -0.305095 -3.92215 0
M  V30 12264 H 1171.48 0.437915 -4.94264 0
M  V30 12265 N 1170.66 1.40747 -0.709091 0
M  V30 12266 C 1171.88 2.05841 -0.253816 0
M  V30 12267 C 1172.31 1.53056 1.09341 0
M  V30 12268 O 1171.66 0.663181 1.68735 0
M  V30 12269 C 1171.71 3.59822 -0.236699 0
M  V30 12270 O 1170.82 4.04876 0.784168 0
M  V30 12271 H 1170.16 0.65295 -0.120631 0
M  V30 12272 H 1172.69 1.80266 -0.967749 0
M  V30 12273 H 1172.7 4.07936 -0.0721616 0
M  V30 12274 H 1171.37 3.97608 -1.21988 0
M  V30 12275 H 1169.95 3.68237 0.587884 0
M  V30 12276 N 1172.13 0.454803 1.50895 0
M  V30 12277 C 1173.08 -0.361974 2.29766 0
M  V30 12278 C 1174.08 -1.00519 1.36353 0
M  V30 12279 O 1175.28 -0.938159 1.53618 0
M  V30 12280 H 1171.66 -0.135559 0.739681 0
M  V30 12281 H 1173.63 0.323853 2.96637 0
M  V30 12282 C 1172.38 -1.44078 3.16444 0
M  V30 12283 H 1171.7 -0.955212 3.88221 0
M  V30 12284 H 1173.14 -1.98518 3.74655 0
M  V30 12285 C 1171.6 -2.43374 2.32961 0
M  V30 12286 O 1172.13 -3.48295 2.00133 0
M  V30 12287 N 1170.33 -2.14689 1.95849 0
M  V30 12288 H 1169.88 -1.29392 2.22745 0
M  V30 12289 H 1169.84 -2.81363 1.40292 0
M  V30 12290 N 1173.61 -1.56489 0.186789 0
M  V30 12291 C 1175.02 -1.83809 -0.327265 0
M  V30 12292 C 1175.37 -1.10718 -1.61976 0
M  V30 12293 O 1174.5 -0.36525 -2.13295 0
M  V30 12294 C 1175.09 -3.33435 -0.600551 0
M  V30 12295 C 1173.65 -3.61195 -1.059 0
M  V30 12296 C 1172.8 -2.77108 -0.103131 0
M  V30 12297 H 1175.75 -1.53292 0.410747 0
M  V30 12298 H 1175.77 -3.51754 -1.45084 0
M  V30 12299 H 1175.28 -3.86605 0.340315 0
M  V30 12300 H 1173.38 -3.13451 -2.01443 0
M  V30 12301 H 1173.5 -4.69435 -0.957458 0
M  V30 12302 H 1171.86 -2.47448 -0.603449 0
M  V30 12303 H 1172.64 -3.33065 0.832031 0
M  V30 12304 N 1175.09 0.086862 -1.5736 0
M  V30 12305 C 1176.37 0.820984 -1.77537 0
M  V30 12306 C 1176.75 1.96534 -0.770554 0
M  V30 12307 O 1176.09 2.27629 0.199334 0
M  V30 12308 C 1176.3 1.30793 -3.23565 0
M  V30 12309 C 1177.65 1.7474 -3.86977 0
M  V30 12310 O 1178.68 1.40396 -3.27364 0
M  V30 12311 O 1177.54 2.38271 -4.91822 0
M  V30 12312 H 1174.63 0.392228 -0.72807 0
M  V30 12313 H 1177.18 0.0681051 -1.69563 0
M  V30 12314 H 1175.95 0.488409 -3.8824 0
M  V30 12315 H 1175.57 2.12258 -3.36203 0
M  V30 12316 N 1176.57 1.53483 0.357892 0
M  V30 12317 C 1177.48 1.83434 1.4625 0
M  V30 12318 C 1178.49 0.723313 1.58254 0
M  V30 12319 O 1179.67 1.01416 1.74002 0
M  V30 12320 C 1176.73 2.0249 2.81423 0
M  V30 12321 C 1175.8 3.26378 2.78883 0
M  V30 12322 C 1175.03 3.44516 4.07608 0
M  V30 12323 O 1175.25 2.66787 5.04163 0
M  V30 12324 O 1174.19 4.37898 4.12952 0
M  V30 12325 H 1178.01 2.77294 1.23861 0
M  V30 12326 H 1175.6 1.38958 0.548722 0
M  V30 12327 H 1177.48 2.16552 3.61501 0
M  V30 12328 H 1176.15 1.11819 3.03773 0
M  V30 12329 H 1175.06 3.17733 1.97475 0
M  V30 12330 H 1176.39 4.16996 2.61486 0
M  V30 12331 N 1178.05 -0.61812 1.44973 0
M  V30 12332 C 1179.27 -1.40921 1.52171 0
M  V30 12333 C 1179.7 -1.87487 0.151755 0
M  V30 12334 O 1179.05 -1.59518 -0.861606 0
M  V30 12335 C 1179.1 -2.59689 2.50188 0
M  V30 12336 O 1178.21 -3.59967 2.0124 0
M  V30 12337 H 1177.55 -0.421138 0.51336 0
M  V30 12338 H 1180.08 -0.753258 1.90229 0
M  V30 12339 H 1180.09 -3.07069 2.6865 0
M  V30 12340 H 1178.76 -2.25144 3.4969 0
M  V30 12341 H 1177.34 -3.19308 1.92605 0
M  V30 12342 N 1179.52 -1.32087 -0.859693 0
M  V30 12343 C 1180.75 -1.25167 -1.64368 0
M  V30 12344 C 1181.16 0.183572 -1.88307 0
M  V30 12345 O 1180.5 1.12945 -1.44876 0
M  V30 12346 C 1180.57 -1.93641 -3.02892 0
M  V30 12347 C 1180.23 -3.4298 -3.02017 0
M  V30 12348 C 1181.23 -4.38551 -2.79229 0
M  V30 12349 C 1178.91 -3.84835 -3.22812 0
M  V30 12350 C 1180.91 -5.73952 -2.77232 0
M  V30 12351 C 1178.59 -5.20346 -3.20442 0
M  V30 12352 C 1179.59 -6.14716 -2.97681 0
M  V30 12353 O 1179.28 -7.47748 -2.95175 0
M  V30 12354 H 1179.01 -0.433327 -0.518848 0
M  V30 12355 H 1181.57 -1.7468 -1.08055 0
M  V30 12356 H 1179.8 -1.3869 -3.60974 0
M  V30 12357 H 1181.48 -1.80497 -3.63559 0
M  V30 12358 H 1182.25 -4.07542 -2.62935 0
M  V30 12359 H 1178.13 -3.11806 -3.39555 0
M  V30 12360 H 1181.67 -6.47584 -2.59385 0
M  V30 12361 H 1177.57 -5.50987 -3.36279 0
M  V30 12362 H 1178.34 -7.57046 -3.11165 0
M  V30 12363 N 1181 1.07532 -1.15215 0
M  V30 12364 C 1182.25 1.79737 -0.924062 0
M  V30 12365 C 1182.57 1.87072 0.550356 0
M  V30 12366 O 1181.84 1.37029 1.4 0
M  V30 12367 H 1180.42 0.665704 -0.338891 0
M  V30 12368 H 1183.08 1.29961 -1.45245 0
M  V30 12369 H 1182.18 2.82256 -1.33184 0
M  V30 12370 N 1182.48 0.948665 1.2585 0
M  V30 12371 C 1183.72 0.60782 1.95154 0
M  V30 12372 C 1184.08 -0.838703 1.72713 0
M  V30 12373 O 1185.29 -1.28885 2.35886 0
M  V30 12374 C 1183.56 0.949628 3.44553 0
M  V30 12375 S 1185.12 0.720456 4.32845 0
M  V30 12376 H 1181.93 0.223613 0.674921 0
M  V30 12377 H 1184.54 1.22157 1.52636 0
M  V30 12378 H 1183.24 1.99966 3.58388 0
M  V30 12379 H 1182.77 0.325891 3.92048 0
M  V30 12380 H 1184.79 -0.411697 4.94489 0
M  V30 12381 N 1183.96 -1.40369 0.716545 0
M  V30 12382 C 1184.89 -2.33365 0.0793533 0
M  V30 12383 C 1185.87 -1.52943 -0.744482 0
M  V30 12384 O 1187.05 -1.81406 -0.693212 0
M  V30 12385 C 1184.18 -3.36928 -0.842429 0
M  V30 12386 C 1183.14 -4.2782 -0.124142 0
M  V30 12387 C 1182.46 -5.21928 -1.1617 0
M  V30 12388 C 1183.76 -5.12199 1.02224 0
M  V30 12389 H 1185.46 -2.86899 0.856115 0
M  V30 12390 H 1183 -1.37946 0.413138 0
M  V30 12391 H 1184.96 -4.00925 -1.29759 0
M  V30 12392 H 1183.68 -2.81791 -1.6511 0
M  V30 12393 H 1182.34 -3.65277 0.311201 0
M  V30 12394 H 1181.99 -4.63096 -1.96345 0
M  V30 12395 H 1181.69 -5.83582 -0.685978 0
M  V30 12396 H 1183.21 -5.88802 -1.61694 0
M  V30 12397 H 1184.63 -5.69644 0.646399 0
M  V30 12398 H 1183.02 -5.82901 1.4264 0
M  V30 12399 H 1184.09 -4.4812 1.85246 0
M  V30 12400 N 1185.44 -0.462799 -1.50652 0
M  V30 12401 C 1186.66 0.0952726 -2.07181 0
M  V30 12402 C 1187.09 1.33479 -1.32533 0
M  V30 12403 O 1186.44 1.77473 -0.370564 0
M  V30 12404 C 1186.49 0.370592 -3.58691 0
M  V30 12405 O 1185.6 1.4526 -3.85971 0
M  V30 12406 H 1184.94 -0.00932702 -0.663934 0
M  V30 12407 H 1187.47 -0.651458 -1.93951 0
M  V30 12408 H 1187.48 0.613551 -4.0336 0
M  V30 12409 H 1186.15 -0.535219 -4.12442 0
M  V30 12410 H 1184.73 1.1976 -3.53146 0
M  V30 12411 N 1186.91 1.56388 -0.195085 0
M  V30 12412 C 1188.14 2.02406 0.452399 0
M  V30 12413 C 1188.56 1.07432 1.54402 0
M  V30 12414 O 1187.92 0.0578246 1.81208 0
M  V30 12415 C 1187.97 3.46864 0.985778 0
M  V30 12416 O 1187.07 3.55007 2.09867 0
M  V30 12417 H 1186.42 0.65553 0.105719 0
M  V30 12418 H 1188.95 2.02299 -0.30596 0
M  V30 12419 H 1188.96 3.86655 1.30238 0
M  V30 12420 H 1187.63 4.15481 0.186662 0
M  V30 12421 H 1186.21 3.2709 1.79071 0
M  V30 12422 N 1188.39 -0.0785156 1.57404 0
M  V30 12423 C 1189.34 -1.11278 2.04255 0
M  V30 12424 C 1190.33 -1.40482 0.946633 0
M  V30 12425 O 1191.54 -1.39968 1.13177 0
M  V30 12426 H 1187.92 -0.376157 0.65116 0
M  V30 12427 H 1189.89 -0.691437 2.90279 0
M  V30 12428 C 1188.64 -2.42006 2.49656 0
M  V30 12429 H 1187.96 -2.20383 3.33574 0
M  V30 12430 H 1189.4 -3.12837 2.86197 0
M  V30 12431 C 1187.86 -3.07488 1.37669 0
M  V30 12432 O 1188.39 -3.95285 0.715036 0
M  V30 12433 N 1186.59 -2.68004 1.1235 0
M  V30 12434 H 1186.14 -1.96698 1.66336 0
M  V30 12435 H 1186.1 -3.12141 0.376238 0
M  V30 12436 N 1189.87 -1.5367 -0.349747 0
M  V30 12437 C 1191.12 -1.69835 -1.08807 0
M  V30 12438 C 1191.43 -0.46497 -1.89993 0
M  V30 12439 O 1192.64 -0.507452 -2.66716 0
M  V30 12440 C 1191.09 -3.00294 -1.98372 0
M  V30 12441 C 1190.7 -4.30949 -1.22422 0
M  V30 12442 C 1192.45 -3.25826 -2.72099 0
M  V30 12443 C 1190.35 -5.52486 -2.1098 0
M  V30 12444 H 1189.28 -0.63284 -0.409915 0
M  V30 12445 H 1191.93 -1.80171 -0.347968 0
M  V30 12446 H 1190.32 -2.838 -2.76176 0
M  V30 12447 H 1191.49 -4.58126 -0.495707 0
M  V30 12448 H 1189.81 -4.11983 -0.604896 0
M  V30 12449 H 1192.4 -4.13817 -3.38615 0
M  V30 12450 H 1192.75 -2.42566 -3.3833 0
M  V30 12451 H 1193.28 -3.43067 -2.0137 0
M  V30 12452 H 1190.02 -6.38271 -1.49301 0
M  V30 12453 H 1189.54 -5.29566 -2.81638 0
M  V30 12454 H 1191.22 -5.87889 -2.70176 0
M  V30 12455 N 1191.35 0.610423 -1.45298 0
M  V30 12456 C 1192.76 1.19234 -1.43667 0
M  V30 12457 C 1193.11 1.95523 -0.162794 0
M  V30 12458 O 1192.24 2.03507 0.735789 0
M  V30 12459 C 1192.83 2.16892 -2.60276 0
M  V30 12460 C 1191.39 2.70465 -2.61774 0
M  V30 12461 C 1190.54 1.45821 -2.35863 0
M  V30 12462 H 1193.49 0.399895 -1.53579 0
M  V30 12463 H 1193.51 2.99875 -2.34212 0
M  V30 12464 H 1193.02 1.61339 -3.52975 0
M  V30 12465 H 1191.12 3.29965 -1.73072 0
M  V30 12466 H 1191.23 3.15092 -3.60907 0
M  V30 12467 H 1189.6 1.74678 -1.85364 0
M  V30 12468 H 1190.38 0.921403 -3.30704 0
M  V30 12469 N 1192.83 1.32541 0.852676 0
M  V30 12470 C 1193.79 1.21578 1.94297 0
M  V30 12471 C 1194.79 0.138318 1.60204 0
M  V30 12472 O 1195.98 0.388864 1.69804 0
M  V30 12473 C 1193.11 0.870209 3.29606 0
M  V30 12474 H 1194.3 2.18476 2.05446 0
M  V30 12475 H 1191.86 1.16401 1.0431 0
M  V30 12476 H 1192.59 -0.0968698 3.24155 0
M  V30 12477 H 1192.38 1.64924 3.55728 0
M  V30 12478 H 1193.87 0.817874 4.09513 0
M  V30 12479 N 1194.3 -1.0692 1.15784 0
M  V30 12480 C 1195.23 -2.16216 0.881649 0
M  V30 12481 C 1196.22 -1.69253 -0.16951 0
M  V30 12482 O 1197.4 -1.94186 -0.0229511 0
M  V30 12483 C 1194.53 -3.4527 0.374982 0
M  V30 12484 C 1193.48 -4.05706 1.36332 0
M  V30 12485 C 1192.81 -5.29894 0.715317 0
M  V30 12486 C 1194.11 -4.45224 2.7308 0
M  V30 12487 H 1195.8 -2.39577 1.79563 0
M  V30 12488 H 1193.35 -1.15141 0.864784 0
M  V30 12489 H 1195.3 -4.2106 0.169279 0
M  V30 12490 H 1194.03 -3.21508 -0.574485 0
M  V30 12491 H 1192.69 -3.31965 1.55546 0
M  V30 12492 H 1192.33 -5.02425 -0.240436 0
M  V30 12493 H 1192.03 -5.71287 1.37494 0
M  V30 12494 H 1193.56 -6.08386 0.519489 0
M  V30 12495 H 1194.97 -5.12124 2.57686 0
M  V30 12496 H 1193.37 -4.97583 3.35457 0
M  V30 12497 H 1194.44 -3.56384 3.28813 0
M  V30 12498 N 1195.78 -0.955326 -1.25345 0
M  V30 12499 C 1196.69 -0.482707 -2.2958 0
M  V30 12500 C 1197.71 0.450283 -1.68073 0
M  V30 12501 O 1198.88 0.326358 -1.98738 0
M  V30 12502 C 1195.95 0.231293 -3.45928 0
M  V30 12503 C 1195.01 -0.739995 -4.22874 0
M  V30 12504 C 1194.24 -0.0599748 -5.33666 0
M  V30 12505 O 1194.47 1.15423 -5.586 0
M  V30 12506 O 1193.4 -0.745865 -5.97261 0
M  V30 12507 H 1197.23 -1.34892 -2.72099 0
M  V30 12508 H 1194.81 -0.721812 -1.30806 0
M  V30 12509 H 1196.69 0.632908 -4.1662 0
M  V30 12510 H 1195.37 1.07267 -3.0541 0
M  V30 12511 H 1194.28 -1.19183 -3.54607 0
M  V30 12512 H 1195.61 -1.54941 -4.67177 0
M  V30 12513 N 1197.26 1.39987 -0.723979 0
M  V30 12514 C 1198.19 2.3332 -0.0917282 0
M  V30 12515 C 1199.17 1.53335 0.736361 0
M  V30 12516 O 1200.36 1.81771 0.683582 0
M  V30 12517 C 1197.49 3.3737 0.824549 0
M  V30 12518 C 1196.44 4.2788 0.101452 0
M  V30 12519 C 1195.77 5.22536 1.13401 0
M  V30 12520 C 1197.07 5.11649 -1.04939 0
M  V30 12521 H 1198.76 2.86441 -0.871318 0
M  V30 12522 H 1196.31 1.37725 -0.420448 0
M  V30 12523 H 1198.26 4.01607 1.27631 0
M  V30 12524 H 1196.98 2.82663 1.63613 0
M  V30 12525 H 1195.64 3.65107 -0.330569 0
M  V30 12526 H 1195.29 4.64131 1.93886 0
M  V30 12527 H 1194.99 5.83938 0.65502 0
M  V30 12528 H 1196.52 5.89651 1.58569 0
M  V30 12529 H 1197.93 5.69293 -0.6766 0
M  V30 12530 H 1196.33 5.82137 -1.45729 0
M  V30 12531 H 1197.4 4.47132 -1.8762 0
M  V30 12532 N 1198.74 0.470782 1.50404 0
M  V30 12533 C 1199.67 -0.369532 2.25188 0
M  V30 12534 C 1200.65 -0.996478 1.28488 0
M  V30 12535 O 1201.83 -1.03247 1.57709 0
M  V30 12536 C 1198.96 -1.51775 3.02791 0
M  V30 12537 C 1198.01 -1.00821 4.14412 0
M  V30 12538 S 1198.84 0.076844 5.35445 0
M  V30 12539 C 1200 -1.07525 6.16595 0
M  V30 12540 H 1200.23 0.265286 2.96114 0
M  V30 12541 H 1197.76 0.255662 1.52269 0
M  V30 12542 H 1199.72 -2.17582 3.48092 0
M  V30 12543 H 1198.38 -2.12408 2.31391 0
M  V30 12544 H 1197.57 -1.8678 4.68112 0
M  V30 12545 H 1197.18 -0.427851 3.71545 0
M  V30 12546 H 1199.47 -1.98693 6.47709 0
M  V30 12547 H 1200.41 -0.577518 7.05741 0
M  V30 12548 H 1200.82 -1.32894 5.48634 0
M  V30 12549 N 1200.22 -1.56282 0.203376 0
M  V30 12550 C 1201.18 -2.18233 -0.700489 0
M  V30 12551 C 1202.18 -1.13908 -1.13497 0
M  V30 12552 O 1203.37 -1.39246 -1.04672 0
M  V30 12553 C 1200.5 -2.79107 -1.95735 0
M  V30 12554 H 1201.7 -2.99469 -0.160649 0
M  V30 12555 H 1199.25 -1.56232 -0.0462475 0
M  V30 12556 H 1199.98 -2.01691 -2.53951 0
M  V30 12557 H 1199.77 -3.55486 -1.65446 0
M  V30 12558 H 1201.26 -3.2665 -2.60172 0
M  V30 12559 N 1201.7 0.070167 -1.57444 0
M  V30 12560 C 1202.63 1.08351 -2.06839 0
M  V30 12561 C 1203.61 1.40269 -0.962224 0
M  V30 12562 O 1204.79 1.49867 -1.23505 0
M  V30 12563 C 1201.92 2.39649 -2.51368 0
M  V30 12564 C 1200.88 2.22079 -3.65875 0
M  V30 12565 C 1200.2 3.58776 -3.96464 0
M  V30 12566 C 1201.5 1.64069 -4.95862 0
M  V30 12567 H 1203.2 0.672465 -2.9175 0
M  V30 12568 H 1200.74 0.322027 -1.40353 0
M  V30 12569 H 1202.69 3.10833 -2.84537 0
M  V30 12570 H 1201.42 2.82736 -1.63487 0
M  V30 12571 H 1200.08 1.53337 -3.32992 0
M  V30 12572 H 1199.73 3.99436 -3.05712 0
M  V30 12573 H 1199.43 3.47859 -4.7357 0
M  V30 12574 H 1200.95 4.31387 -4.32131 0
M  V30 12575 H 1202.36 2.2512 -5.27251 0
M  V30 12576 H 1200.76 1.63843 -5.773 0
M  V30 12577 H 1201.83 0.60232 -4.81145 0
M  V30 12578 N 1203.17 1.53854 0.341593 0
M  V30 12579 C 1204.4 1.7488 1.10002 0
M  V30 12580 C 1204.81 0.488802 1.82777 0
M  V30 12581 O 1204.15 -0.549333 1.75294 0
M  V30 12582 C 1204.22 2.87604 2.15694 0
M  V30 12583 C 1203.88 4.27142 1.62477 0
M  V30 12584 C 1204.88 5.08642 1.07606 0
M  V30 12585 C 1202.56 4.73633 1.67265 0
M  V30 12586 C 1204.56 6.34735 0.582284 0
M  V30 12587 C 1202.24 5.99697 1.175 0
M  V30 12588 C 1203.24 6.80081 0.630742 0
M  V30 12589 O 1202.93 8.03777 0.140519 0
M  V30 12590 H 1202.66 0.587824 0.333824 0
M  V30 12591 H 1205.22 2.01488 0.398965 0
M  V30 12592 H 1203.45 2.56526 2.89364 0
M  V30 12593 H 1205.13 2.96583 2.77117 0
M  V30 12594 H 1205.9 4.73887 1.03227 0
M  V30 12595 H 1201.78 4.11121 2.08567 0
M  V30 12596 H 1205.32 6.97424 0.156811 0
M  V30 12597 H 1201.22 6.33947 1.21579 0
M  V30 12598 H 1201.99 8.18094 0.257626 0
M  V30 12599 N 1204.65 -0.602709 1.4562 0
M  V30 12600 C 1205.9 -1.36359 1.50113 0
M  V30 12601 C 1206.23 -1.93663 0.144297 0
M  V30 12602 O 1205.51 -1.75337 -0.841851 0
M  V30 12603 C 1205.79 -2.50788 2.58413 0
M  V30 12604 C 1205.64 -1.98649 4.03557 0
M  V30 12605 C 1206.96 -3.52905 2.62957 0
M  V30 12606 H 1204.08 -0.494455 0.54652 0
M  V30 12607 H 1206.72 -0.678957 1.77455 0
M  V30 12608 H 1204.87 -3.09191 2.3523 0
M  V30 12609 H 1206.54 -1.44857 4.37966 0
M  V30 12610 H 1204.79 -1.29615 4.13984 0
M  V30 12611 H 1205.46 -2.81159 4.7503 0
M  V30 12612 H 1207.93 -3.0435 2.83743 0
M  V30 12613 H 1206.81 -4.30454 3.40589 0
M  V30 12614 H 1207.07 -4.0884 1.68233 0
M  V30 12615 N 1206.13 -1.32992 -0.845635 0
M  V30 12616 C 1207.09 -1.22607 -1.9365 0
M  V30 12617 C 1208.09 -0.146812 -1.60128 0
M  V30 12618 O 1209.28 -0.397863 -1.69596 0
M  V30 12619 C 1206.41 -0.887677 -3.2914 0
M  V30 12620 H 1207.61 -2.19563 -2.04285 0
M  V30 12621 H 1205.16 -1.16952 -1.03691 0
M  V30 12622 H 1205.9 0.0796777 -3.24202 0
M  V30 12623 H 1205.68 -1.66808 -3.54849 0
M  V30 12624 H 1207.17 -0.83958 -4.09073 0
M  V30 12625 N 1207.61 1.06304 -1.1635 0
M  V30 12626 C 1208.57 2.11947 -0.872419 0
M  V30 12627 C 1209.57 1.60253 0.132534 0
M  V30 12628 O 1210.76 1.73922 -0.0983441 0
M  V30 12629 C 1207.89 3.39536 -0.304646 0
M  V30 12630 H 1209.09 2.39201 -1.80894 0
M  V30 12631 H 1206.64 1.22367 -0.972419 0
M  V30 12632 H 1207.37 3.17931 0.639565 0
M  V30 12633 H 1207.16 3.78363 -1.02878 0
M  V30 12634 H 1208.65 4.17431 -0.118936 0
M  V30 12635 N 1209.09 0.96196 1.24836 0
M  V30 12636 C 1210.05 0.492443 2.23847 0
M  V30 12637 C 1211.05 -0.40788 1.55541 0
M  V30 12638 O 1212.24 -0.204143 1.73 0
M  V30 12639 C 1209.37 -0.287578 3.39685 0
M  V30 12640 H 1210.56 1.36767 2.66899 0
M  V30 12641 H 1208.12 0.745967 1.3735 0
M  V30 12642 H 1208.85 -1.18015 3.02064 0
M  V30 12643 H 1208.64 0.358431 3.90458 0
M  V30 12644 H 1210.13 -0.605297 4.1319 0
M  V30 12645 N 1210.56 -1.39601 0.731392 0
M  V30 12646 C 1211.5 -2.28169 0.0378735 0
M  V30 12647 C 1212.47 -1.44195 -0.751434 0
M  V30 12648 O 1213.66 -1.7359 -0.734753 0
M  V30 12649 C 1210.79 -3.24999 -0.953589 0
M  V30 12650 C 1209.83 -4.25748 -0.253203 0
M  V30 12651 S 1210.66 -5.25496 1.03025 0
M  V30 12652 C 1211.82 -6.25886 0.0412927 0
M  V30 12653 H 1212.05 -2.8664 0.788973 0
M  V30 12654 H 1209.59 -1.45271 0.523044 0
M  V30 12655 H 1211.54 -3.81308 -1.52035 0
M  V30 12656 H 1210.21 -2.65554 -1.6775 0
M  V30 12657 H 1209.4 -4.93913 -1.00328 0
M  V30 12658 H 1209 -3.7322 0.241426 0
M  V30 12659 H 1211.29 -6.72757 -0.800305 0
M  V30 12660 H 1212.24 -7.0473 0.68999 0
M  V30 12661 H 1212.64 -5.63538 -0.329495 0
M  V30 12662 N 1212.04 -0.478751 -1.50152 0
M  V30 12663 C 1212.99 0.330224 -2.25596 0
M  V30 12664 C 1213.98 0.954871 -1.29503 0
M  V30 12665 O 1215.17 0.866153 -1.54359 0
M  V30 12666 C 1212.3 1.40719 -3.13134 0
M  V30 12667 C 1211.38 0.789896 -4.16679 0
M  V30 12668 N 1211.77 -0.094345 -5.05712 0
M  V30 12669 C 1210.07 1.05299 -4.33391 0
M  V30 12670 C 1210.77 -0.445458 -5.79992 0
M  V30 12671 N 1209.75 0.181237 -5.43298 0
M  V30 12672 H 1213.55 -0.350824 -2.91799 0
M  V30 12673 H 1211.07 -0.293386 -1.59728 0
M  V30 12674 H 1213.06 1.99999 -3.65795 0
M  V30 12675 H 1211.72 2.09015 -2.48481 0
M  V30 12676 H 1212.73 -0.463695 -5.1582 0
M  V30 12677 H 1209.41 1.73036 -3.79954 0
M  V30 12678 H 1210.8 -1.16754 -6.61678 0
M  V30 12679 N 1213.52 1.56172 -0.211661 0
M  V30 12680 C 1214.8 1.8984 0.471195 0
M  V30 12681 C 1215.18 1.1276 1.78461 0
M  V30 12682 O 1214.53 0.233817 2.27301 0
M  V30 12683 C 1214.74 3.42434 0.673814 0
M  V30 12684 C 1216.08 4.13 0.985719 0
M  V30 12685 O 1217.11 3.47977 0.760953 0
M  V30 12686 O 1215.97 5.2795 1.41176 0
M  V30 12687 H 1213.06 0.789008 0.247782 0
M  V30 12688 H 1215.61 1.67802 -0.25311 0
M  V30 12689 H 1214.38 3.90481 -0.253034 0
M  V30 12690 H 1214 3.70218 1.44997 0
M  V30 12691 N 1215 -0.0618163 1.57479 0
M  V30 12692 C 1216.23 -0.770605 1.9169 0
M  V30 12693 C 1216.64 -1.71134 0.806841 0
M  V30 12694 O 1215.98 -1.8228 -0.228002 0
M  V30 12695 C 1216.04 -1.60962 3.21452 0
M  V30 12696 C 1215.71 -0.837193 4.49266 0
M  V30 12697 C 1216.7 -0.151964 5.19678 0
M  V30 12698 C 1214.39 -0.801414 4.95866 0
M  V30 12699 C 1216.38 0.558705 6.34947 0
M  V30 12700 C 1214.07 -0.0869788 6.11038 0
M  V30 12701 C 1215.07 0.591871 6.80431 0
M  V30 12702 O 1214.75 1.29478 7.93405 0
M  V30 12703 H 1214.49 -0.223673 0.637923 0
M  V30 12704 H 1217.04 -0.0333424 2.05373 0
M  V30 12705 H 1215.27 -2.38992 3.04006 0
M  V30 12706 H 1216.96 -2.19799 3.41238 0
M  V30 12707 H 1217.73 -0.170848 4.84699 0
M  V30 12708 H 1213.6 -1.31927 4.4172 0
M  V30 12709 H 1217.15 1.08913 6.89046 0
M  V30 12710 H 1213.05 -0.066057 6.45466 0
M  V30 12711 H 1213.81 1.20507 8.0958 0
M  V30 12712 N 1216.48 -1.54033 -0.333429 0
M  V30 12713 C 1217.75 -1.62404 -1.09015 0
M  V30 12714 C 1218.13 -0.451653 -2.06212 0
M  V30 12715 O 1217.48 0.555086 -2.21655 0
M  V30 12716 C 1217.69 -2.98949 -1.80085 0
M  V30 12717 C 1219.04 -3.54655 -2.33464 0
M  V30 12718 O 1220.06 -3.0119 -1.90166 0
M  V30 12719 O 1218.92 -4.48195 -3.12703 0
M  V30 12720 H 1216.02 -0.65727 -0.501921 0
M  V30 12721 H 1218.56 -1.66378 -0.33411 0
M  V30 12722 H 1217.33 -3.75716 -1.09332 0
M  V30 12723 H 1216.96 -2.98609 -2.62523 0
M  V30 12724 N 1217.95 0.594978 -1.45938 0
M  V30 12725 C 1218.9 1.69949 -1.51991 0
M  V30 12726 C 1219.89 1.56301 -0.381956 0
M  V30 12727 O 1221.08 1.65423 -0.62961 0
M  V30 12728 C 1218.21 3.08723 -1.5015 0
M  V30 12729 C 1217.3 3.27712 -2.69194 0
M  V30 12730 N 1217.69 3.1691 -3.9421 0
M  V30 12731 C 1215.98 3.58618 -2.65158 0
M  V30 12732 C 1216.69 3.37572 -4.7373 0
M  V30 12733 N 1215.66 3.62154 -4.05395 0
M  V30 12734 H 1219.46 1.60109 -2.46459 0
M  V30 12735 H 1216.98 0.798634 -1.41406 0
M  V30 12736 H 1218.97 3.87978 -1.52573 0
M  V30 12737 H 1217.63 3.19702 -0.567488 0
M  V30 12738 H 1218.65 2.95039 -4.25643 0
M  V30 12739 H 1215.32 3.76358 -1.80724 0
M  V30 12740 H 1216.71 3.34507 -5.82713 0
M  V30 12741 N 1219.43 1.33438 0.838571 0
M  V30 12742 C 1220.84 1.22366 1.41009 0
M  V30 12743 C 1221.19 -0.157317 1.95568 0
M  V30 12744 O 1220.32 -1.05692 1.88834 0
M  V30 12745 C 1220.91 2.21542 2.56329 0
M  V30 12746 C 1219.47 2.14309 3.09433 0
M  V30 12747 C 1218.62 2.09012 1.82235 0
M  V30 12748 H 1221.57 1.45032 0.64431 0
M  V30 12749 H 1221.59 1.82332 3.33969 0
M  V30 12750 H 1221.1 3.22042 2.16589 0
M  V30 12751 H 1219.21 1.17113 3.53717 0
M  V30 12752 H 1219.32 3.04866 3.69586 0
M  V30 12753 H 1217.68 1.54492 2.02495 0
M  V30 12754 H 1218.47 3.11319 1.4469 0
M  V30 12755 N 1220.91 -1.05686 1.16912 0
M  V30 12756 C 1222.16 -1.78244 0.95254 0
M  V30 12757 C 1222.48 -1.87924 -0.520525 0
M  V30 12758 O 1221.75 -1.39239 -1.37802 0
M  V30 12759 H 1220.33 -0.660228 0.349439 0
M  V30 12760 H 1222.99 -1.27634 1.47294 0
M  V30 12761 H 1222.09 -2.80102 1.37657 0
M  V30 12762 N 1222.39 -0.968567 -1.24324 0
M  V30 12763 C 1223.8 -0.675239 -1.44612 0
M  V30 12764 C 1224 0.762641 -1.8651 0
M  V30 12765 O 1223.06 1.53644 -2.00374 0
M  V30 12766 C 1224.37 -1.66007 -2.50723 0
M  V30 12767 C 1225.92 -1.6728 -2.6455 0
M  V30 12768 C 1226.4 -2.64563 -3.73859 0
M  V30 12769 N 1227.89 -2.6301 -3.81287 0
M  V30 12770 C 1228.62 -3.34957 -4.65394 0
M  V30 12771 N 1228.12 -4.16424 -5.53681 0
M  V30 12772 N 1229.91 -3.23778 -4.59483 0
M  V30 12773 H 1222.06 -1.89757 -0.954257 0
M  V30 12774 H 1224.33 -0.817004 -0.480841 0
M  V30 12775 H 1224.03 -2.68779 -2.26827 0
M  V30 12776 H 1223.91 -1.43353 -3.48898 0
M  V30 12777 H 1226.29 -0.652184 -2.87803 0
M  V30 12778 H 1226.37 -1.93997 -1.6673 0
M  V30 12779 H 1226.02 -3.66759 -3.51355 0
M  V30 12780 H 1225.95 -2.35124 -4.71194 0
M  V30 12781 H 1228.44 -2.03877 -3.18186 0
M  V30 12782 H 1228.75 -4.68207 -6.14818 0
M  V30 12783 H 1227.1 -4.20518 -5.53344 0
M  V30 12784 H 1230.29 -2.59594 -3.89524 0
M  V30 12785 H 1230.46 -3.80112 -5.24804 0
M  V30 12786 N 1223.87 1.39211 -0.738786 0
M  V30 12787 C 1225.09 2.04732 -0.298751 0
M  V30 12788 C 1225.51 1.55706 1.06776 0
M  V30 12789 O 1224.87 0.723605 1.67542 0
M  V30 12790 C 1224.92 3.60288 -0.29574 0
M  V30 12791 O 1224.64 4.07511 -1.60831 0
M  V30 12792 C 1226.14 4.43011 0.159994 0
M  V30 12793 H 1223.36 0.658296 -0.129952 0
M  V30 12794 H 1225.9 1.78186 -1.0035 0
M  V30 12795 H 1224.06 3.85722 0.360146 0
M  V30 12796 H 1224.47 5.01858 -1.52443 0
M  V30 12797 H 1225.95 5.51889 0.110941 0
M  V30 12798 H 1226.42 4.22325 1.20573 0
M  V30 12799 H 1227.03 4.22734 -0.466467 0
M  V30 12800 N 1225.34 0.486708 1.49896 0
M  V30 12801 C 1226.29 -0.313156 2.30482 0
M  V30 12802 C 1227.29 -0.976043 1.38455 0
M  V30 12803 O 1228.49 -0.905364 1.55574 0
M  V30 12804 H 1224.87 -0.119839 0.74239 0
M  V30 12805 H 1226.84 0.386701 2.95884 0
M  V30 12806 C 1225.59 -1.37334 3.19429 0
M  V30 12807 H 1224.91 -0.87265 3.9016 0
M  V30 12808 H 1226.35 -1.90526 3.78782 0
M  V30 12809 C 1224.81 -2.38378 2.38071 0
M  V30 12810 O 1225.34 -3.43972 2.07476 0
M  V30 12811 N 1223.55 -2.10486 2.00359 0
M  V30 12812 H 1223.09 -1.24638 2.2544 0
M  V30 12813 H 1223.05 -2.78324 1.46229 0
M  V30 12814 N 1226.82 -1.56058 0.219941 0
M  V30 12815 C 1227.79 -2.18964 -0.677303 0
M  V30 12816 C 1228.79 -1.15105 -1.12283 0
M  V30 12817 O 1229.98 -1.40348 -1.03189 0
M  V30 12818 C 1227.11 -2.81167 -1.92764 0
M  V30 12819 H 1228.3 -2.99623 -0.128877 0
M  V30 12820 H 1225.85 -1.56272 -0.0296744 0
M  V30 12821 H 1226.59 -2.04374 -2.51797 0
M  V30 12822 H 1226.37 -3.5722 -1.61666 0
M  V30 12823 H 1227.86 -3.29391 -2.56693 0
M  V30 12824 N 1228.3 0.053464 -1.57509 0
M  V30 12825 C 1229.55 0.749102 -1.88135 0
M  V30 12826 C 1229.88 1.76642 -0.814111 0
M  V30 12827 O 1229.13 1.94796 0.187845 0
M  V30 12828 C 1229.43 1.47666 -3.25468 0
M  V30 12829 C 1229.1 0.597619 -4.46922 0
M  V30 12830 C 1227.76 0.355429 -4.79886 0
M  V30 12831 C 1230.11 -0.0107869 -5.21199 0
M  V30 12832 C 1227.44 -0.504347 -5.84528 0
M  V30 12833 C 1229.79 -0.858123 -6.26753 0
M  V30 12834 C 1228.45 -1.11001 -6.58206 0
M  V30 12835 H 1227.72 0.274116 -0.688434 0
M  V30 12836 H 1230.37 0.00944162 -1.91498 0
M  V30 12837 H 1228.68 2.28901 -3.1798 0
M  V30 12838 H 1230.37 2.02002 -3.46404 0
M  V30 12839 H 1226.96 0.796526 -4.21134 0
M  V30 12840 H 1231.15 0.163404 -4.96031 0
M  V30 12841 H 1226.4 -0.708057 -6.07286 0
M  V30 12842 H 1230.58 -1.3362 -6.83461 0
M  V30 12843 H 1228.2 -1.77798 -7.39116 0
M  V30 12844 N 1229.78 1.54207 0.325255 0
M  V30 12845 C 1230.71 1.86467 1.40543 0
M  V30 12846 C 1231.69 0.721324 1.54048 0
M  V30 12847 O 1232.88 0.974905 1.67956 0
M  V30 12848 C 1230.01 2.09052 2.77335 0
M  V30 12849 C 1228.96 3.24893 2.78619 0
M  V30 12850 C 1228.29 3.32846 4.1847 0
M  V30 12851 C 1229.59 4.62582 2.42518 0
M  V30 12852 H 1231.28 2.76932 1.13794 0
M  V30 12853 H 1228.83 1.33248 0.545971 0
M  V30 12854 H 1230.78 2.30204 3.52964 0
M  V30 12855 H 1229.5 1.15335 3.05558 0
M  V30 12856 H 1228.16 3.03625 2.05444 0
M  V30 12857 H 1227.81 2.3669 4.43832 0
M  V30 12858 H 1227.51 4.10701 4.20237 0
M  V30 12859 H 1229.03 3.56231 4.95915 0
M  V30 12860 H 1230.45 4.83627 3.07861 0
M  V30 12861 H 1228.84 5.42974 2.55538 0
M  V30 12862 H 1229.91 4.64946 1.3767 0
M  V30 12863 N 1231.26 -0.58723 1.46251 0
M  V30 12864 C 1232.5 -1.3476 1.51551 0
M  V30 12865 C 1232.84 -1.93499 0.16483 0
M  V30 12866 O 1232.11 -1.7622 -0.823207 0
M  V30 12867 C 1232.39 -2.48033 2.61059 0
M  V30 12868 C 1232.25 -1.94358 4.05642 0
M  V30 12869 C 1233.57 -3.50096 2.66685 0
M  V30 12870 H 1230.69 -0.48863 0.551733 0
M  V30 12871 H 1233.33 -0.660097 1.78165 0
M  V30 12872 H 1231.48 -3.06679 2.38496 0
M  V30 12873 H 1233.15 -1.40204 4.39478 0
M  V30 12874 H 1231.39 -1.25217 4.15335 0
M  V30 12875 H 1232.06 -2.76105 4.77986 0
M  V30 12876 H 1234.54 -3.01324 2.86955 0
M  V30 12877 H 1233.42 -4.26817 3.45135 0
M  V30 12878 H 1233.68 -4.07032 1.7256 0
M  V30 12879 N 1232.74 -1.33881 -0.831482 0
M  V30 12880 C 1233.7 -1.24654 -1.92339 0
M  V30 12881 C 1234.7 -0.163788 -1.59964 0
M  V30 12882 O 1235.89 -0.415829 -1.69164 0
M  V30 12883 C 1233.02 -0.922537 -3.2818 0
M  V30 12884 H 1234.21 -2.21717 -2.01944 0
M  V30 12885 H 1231.77 -1.18046 -1.02445 0
M  V30 12886 H 1232.5 0.0452872 -3.24268 0
M  V30 12887 H 1232.29 -1.70562 -3.53059 0
M  V30 12888 H 1233.78 -0.88292 -4.0816 0
M  V30 12889 N 1234.21 1.05064 -1.1747 0
M  V30 12890 C 1235.44 1.81761 -0.988464 0
M  V30 12891 C 1235.86 1.83028 0.463272 0
M  V30 12892 O 1235.21 1.25846 1.32171 0
M  V30 12893 C 1235.26 3.2782 -1.5237 0
M  V30 12894 O 1234.99 3.26726 -2.91859 0
M  V30 12895 C 1236.49 4.212 -1.38223 0
M  V30 12896 H 1233.71 0.572712 -0.349631 0
M  V30 12897 H 1236.25 1.32477 -1.55789 0
M  V30 12898 H 1234.41 3.7437 -0.996272 0
M  V30 12899 H 1234.82 4.18151 -3.16623 0
M  V30 12900 H 1236.29 5.2166 -1.80485 0
M  V30 12901 H 1236.77 4.37962 -0.329491 0
M  V30 12902 H 1237.38 3.80506 -1.89988 0
M  V30 12903 N 1235.69 0.975146 1.23809 0
M  V30 12904 C 1236.64 0.503396 2.27087 0
M  V30 12905 C 1237.63 -0.43689 1.63669 0
M  V30 12906 O 1238.84 -0.31136 1.77287 0
M  V30 12907 H 1235.21 0.144346 0.738017 0
M  V30 12908 H 1237.19 1.38627 2.64244 0
M  V30 12909 C 1235.93 -0.183682 3.47214 0
M  V30 12910 H 1235.26 0.530753 3.96261 0
M  V30 12911 H 1236.7 -0.477479 4.21303 0
M  V30 12912 C 1235.16 -1.41317 3.05829 0
M  V30 12913 O 1235.69 -2.50975 3.13647 0
M  V30 12914 N 1233.89 -1.28191 2.60798 0
M  V30 12915 H 1233.44 -0.38967 2.54636 0
M  V30 12916 H 1233.4 -2.10565 2.33473 0
M  V30 12917 N 1237.17 -1.38817 0.746158 0
M  V30 12918 C 1238.13 -2.28876 0.121886 0
M  V30 12919 C 1239.13 -1.46838 -0.655379 0
M  V30 12920 O 1240.32 -1.67377 -0.482744 0
M  V30 12921 C 1237.45 -3.30487 -0.836118 0
M  V30 12922 H 1238.65 -2.85586 0.915453 0
M  V30 12923 H 1236.2 -1.47652 0.512691 0
M  V30 12924 H 1236.94 -2.78853 -1.65563 0
M  V30 12925 H 1236.72 -3.9109 -0.281271 0
M  V30 12926 H 1238.21 -3.97848 -1.26914 0
M  V30 12927 N 1238.65 -0.49465 -1.49636 0
M  V30 12928 C 1240.06 -0.0452894 -1.86645 0
M  V30 12929 C 1240.41 1.36686 -1.40753 0
M  V30 12930 O 1239.53 2.01751 -0.78265 0
M  V30 12931 C 1240.13 -0.0754115 -3.38716 0
M  V30 12932 C 1238.69 0.318579 -3.75049 0
M  V30 12933 C 1237.84 -0.450712 -2.73613 0
M  V30 12934 H 1240.79 -0.707758 -1.42044 0
M  V30 12935 H 1240.81 0.721372 -3.73599 0
M  V30 12936 H 1240.32 -1.10331 -3.72087 0
M  V30 12937 H 1238.42 1.34995 -3.47285 0
M  V30 12938 H 1238.53 0.00354416 -4.791 0
M  V30 12939 H 1236.9 0.0986455 -2.54509 0
M  V30 12940 H 1237.68 -1.47857 -3.09828 0
M  V30 12941 N 1240.13 1.55939 -0.228214 0
M  V30 12942 C 1241.06 2.17874 0.711589 0
M  V30 12943 C 1242.07 1.14969 1.15265 0
M  V30 12944 O 1243.26 1.41919 1.08265 0
M  V30 12945 C 1240.36 2.75294 1.97652 0
M  V30 12946 C 1239.53 4.03435 1.68994 0
M  V30 12947 C 1238.59 4.45354 2.8026 0
M  V30 12948 O 1237.62 5.12117 2.48445 0
M  V30 12949 N 1238.82 4.11588 4.0936 0
M  V30 12950 H 1241.58 2.99148 0.181757 0
M  V30 12951 H 1239.15 1.6183 -0.0474567 0
M  V30 12952 H 1241.14 3.00305 2.71292 0
M  V30 12953 H 1239.71 1.98285 2.41665 0
M  V30 12954 H 1238.93 3.8621 0.789657 0
M  V30 12955 H 1240.22 4.87015 1.47287 0
M  V30 12956 H 1239.61 3.57953 4.38048 0
M  V30 12957 H 1238.17 4.41477 4.79522 0
M  V30 12958 N 1241.6 -0.0451101 1.57535 0
M  V30 12959 C 1242.57 -1.03521 2.0449 0
M  V30 12960 C 1243.57 -1.30009 0.946265 0
M  V30 12961 O 1244.76 -1.25282 1.21038 0
M  V30 12962 C 1241.89 -2.37221 2.44824 0
M  V30 12963 H 1243.08 -0.629943 2.93209 0
M  V30 12964 H 1240.64 -0.291544 1.53557 0
M  V30 12965 H 1241.37 -2.82528 1.59212 0
M  V30 12966 H 1241.16 -2.19329 3.25018 0
M  V30 12967 H 1242.65 -3.08337 2.81635 0
M  V30 12968 N 1243.08 -1.54377 -0.317073 0
M  V30 12969 C 1244.33 -1.73149 -1.05581 0
M  V30 12970 C 1244.66 -0.507176 -1.8746 0
M  V30 12971 O 1243.94 0.495837 -1.88074 0
M  V30 12972 C 1244.22 -3.01098 -1.97515 0
M  V30 12973 C 1244.07 -4.33794 -1.18922 0
M  V30 12974 C 1245.39 -3.24831 -2.9694 0
M  V30 12975 H 1242.51 -0.630011 -0.382434 0
M  V30 12976 H 1245.15 -1.87079 -0.331873 0
M  V30 12977 H 1243.3 -2.89352 -2.59244 0
M  V30 12978 H 1244.97 -4.57433 -0.596039 0
M  V30 12979 H 1243.22 -4.31005 -0.491612 0
M  V30 12980 H 1243.89 -5.19554 -1.86462 0
M  V30 12981 H 1246.36 -3.3608 -2.45335 0
M  V30 12982 H 1245.24 -4.15702 -3.58445 0
M  V30 12983 H 1245.5 -2.42365 -3.69745 0
M  V30 12984 N 1244.56 0.579466 -1.4656 0
M  V30 12985 C 1245.49 1.69846 -1.60233 0
M  V30 12986 C 1246.47 1.6397 -0.452533 0
M  V30 12987 O 1247.66 1.81936 -0.679174 0
M  V30 12988 C 1244.79 3.08488 -1.59538 0
M  V30 12989 C 1243.74 3.29197 -2.7352 0
M  V30 12990 C 1243.07 4.684 -2.57887 0
M  V30 12991 C 1244.37 3.16718 -4.15315 0
M  V30 12992 H 1246.06 1.5866 -2.53904 0
M  V30 12993 H 1243.61 0.761873 -1.22194 0
M  V30 12994 H 1245.56 3.86595 -1.67696 0
M  V30 12995 H 1244.28 3.20581 -0.62413 0
M  V30 12996 H 1242.94 2.53491 -2.64836 0
M  V30 12997 H 1242.59 4.77262 -1.58839 0
M  V30 12998 H 1242.29 4.83208 -3.34341 0
M  V30 12999 H 1243.81 5.48671 -2.67942 0
M  V30 13000 H 1245.23 3.84666 -4.25094 0
M  V30 13001 H 1243.63 3.43047 -4.92381 0
M  V30 13002 H 1244.7 2.13755 -4.35244 0
M  V30 13003 N 1246.04 1.3432 0.824371 0
M  V30 13004 C 1247.27 1.29481 1.60992 0
M  V30 13005 C 1247.68 -0.133581 1.88728 0
M  V30 13006 O 1247.02 -1.09065 1.4782 0
M  V30 13007 C 1247.08 2.01604 2.97651 0
M  V30 13008 C 1246.75 3.50866 2.92817 0
M  V30 13009 C 1247.74 4.458 2.67504 0
M  V30 13010 C 1245.43 3.93258 3.12495 0
M  V30 13011 C 1247.42 5.81101 2.61918 0
M  V30 13012 C 1245.11 5.28659 3.06533 0
M  V30 13013 C 1246.11 6.22392 2.81278 0
M  V30 13014 O 1245.79 7.55311 2.75246 0
M  V30 13015 H 1245.53 0.446931 0.507177 0
M  V30 13016 H 1248.08 1.77484 1.03386 0
M  V30 13017 H 1246.31 1.48212 3.5717 0
M  V30 13018 H 1248 1.90073 3.58646 0
M  V30 13019 H 1248.77 4.1437 2.52037 0
M  V30 13020 H 1244.64 3.20699 3.31169 0
M  V30 13021 H 1248.19 6.54233 2.42125 0
M  V30 13022 H 1244.09 5.59709 3.21553 0
M  V30 13023 H 1244.85 7.6503 2.90984 0
M  V30 13024 N 1247.52 -1.0444 1.18026 0
M  V30 13025 C 1248.46 -2.14474 0.900202 0
M  V30 13026 C 1249.46 -1.68836 -0.138086 0
M  V30 13027 O 1250.66 -1.79997 0.00971011 0
M  V30 13028 H 1247.04 -0.700457 0.273613 0
M  V30 13029 H 1249.01 -2.35295 1.83518 0
M  V30 13030 C 1247.76 -3.44926 0.438305 0
M  V30 13031 H 1247.08 -3.8045 1.22874 0
M  V30 13032 H 1248.52 -4.23066 0.281306 0
M  V30 13033 C 1246.98 -3.26124 -0.845268 0
M  V30 13034 O 1247.51 -3.53368 -1.91034 0
M  V30 13035 N 1245.72 -2.79474 -0.7964 0
M  V30 13036 H 1245.26 -2.57503 0.0705595 0
M  V30 13037 H 1245.22 -2.67274 -1.65566 0
M  V30 13038 N 1248.99 -0.981699 -1.2329 0
M  V30 13039 C 1250.27 -0.567659 -1.87182 0
M  V30 13040 C 1250.65 0.955194 -1.88253 0
M  V30 13041 O 1250 1.83245 -1.36504 0
M  V30 13042 C 1250.21 -1.17522 -3.28618 0
M  V30 13043 C 1251.56 -1.26877 -4.052 0
M  V30 13044 O 1252.58 -1.12877 -3.37842 0
M  V30 13045 O 1251.44 -1.49163 -5.2575 0
M  V30 13046 H 1248.53 -0.191315 -0.804567 0
M  V30 13047 H 1251.08 -1.07686 -1.31155 0
M  V30 13048 H 1249.85 -2.21735 -3.22411 0
M  V30 13049 H 1249.48 -0.650913 -3.92236 0
M  V30 13050 N 1250.47 1.3842 -0.753509 0
M  V30 13051 C 1251.89 1.53668 -0.431095 0
M  V30 13052 C 1252.09 1.71626 1.05578 0
M  V30 13053 O 1251.14 1.72723 1.84182 0
M  V30 13054 C 1252.46 2.74381 -1.23027 0
M  V30 13055 C 1254.01 2.8823 -1.22034 0
M  V30 13056 C 1254.48 4.11904 -2.00248 0
M  V30 13057 N 1255.97 4.18981 -1.97508 0
M  V30 13058 C 1256.71 5.13667 -2.5482 0
M  V30 13059 N 1256.2 6.14027 -3.20846 0
M  V30 13060 N 1258 5.06017 -2.44751 0
M  V30 13061 H 1250.15 1.25012 -1.71714 0
M  V30 13062 H 1252.41 0.607296 -0.727939 0
M  V30 13063 H 1252.12 2.67515 -2.28317 0
M  V30 13064 H 1251.99 3.67565 -0.847098 0
M  V30 13065 H 1254.38 2.94578 -0.175502 0
M  V30 13066 H 1254.46 1.96057 -1.64303 0
M  V30 13067 H 1254.1 4.06318 -3.04742 0
M  V30 13068 H 1254.03 5.03157 -1.55373 0
M  V30 13069 H 1256.52 3.47104 -1.49423 0
M  V30 13070 H 1256.84 6.82771 -3.61999 0
M  V30 13071 H 1255.18 6.1436 -3.24941 0
M  V30 13072 H 1258.37 4.26552 -1.92797 0
M  V30 13073 H 1258.54 5.7963 -2.89713 0
M  V30 13074 N 1251.95 0.502579 1.49372 0
M  V30 13075 C 1253.18 -0.0403087 2.07361 0
M  V30 13076 C 1253.6 -1.29918 1.36026 0
M  V30 13077 O 1252.96 -1.76428 0.417488 0
M  V30 13078 C 1253.01 -0.275362 3.59547 0
M  V30 13079 O 1252.11 -1.34975 3.89686 0
M  V30 13080 H 1251.45 0.0269268 0.663454 0
M  V30 13081 H 1253.98 0.702652 1.92156 0
M  V30 13082 H 1253.99 -0.506392 4.04845 0
M  V30 13083 H 1252.67 0.644382 4.10878 0
M  V30 13084 H 1251.24 -1.10355 3.56197 0
M  V30 13085 N 1253.43 -1.55816 0.23648 0
M  V30 13086 C 1254.67 -1.98981 -0.391725 0
M  V30 13087 C 1255.01 -1.12428 -1.58346 0
M  V30 13088 O 1254.28 -0.185303 -1.93615 0
M  V30 13089 C 1254.57 -3.50831 -0.811759 0
M  V30 13090 C 1254.42 -4.48152 0.384648 0
M  V30 13091 C 1255.74 -4.07489 -1.66254 0
M  V30 13092 H 1252.86 -0.723404 -0.140911 0
M  V30 13093 H 1255.5 -1.87011 0.335706 0
M  V30 13094 H 1253.65 -3.61162 -1.43157 0
M  V30 13095 H 1255.32 -4.49814 1.02298 0
M  V30 13096 H 1253.56 -4.21406 1.02955 0
M  V30 13097 H 1254.23 -5.51979 0.0475809 0
M  V30 13098 H 1256.71 -4.00195 -1.13944 0
M  V30 13099 H 1255.59 -5.14026 -1.92531 0
M  V30 13100 H 1255.85 -3.55297 -2.6309 0
M  V30 13101 N 1254.91 0.036755 -1.57557 0
M  V30 13102 C 1255.84 1.03939 -2.09091 0
M  V30 13103 C 1256.82 1.38196 -0.991761 0
M  V30 13104 O 1258 1.47214 -1.26656 0
M  V30 13105 C 1255.13 2.34263 -2.56394 0
M  V30 13106 C 1254.09 2.14269 -3.70504 0
M  V30 13107 C 1253.41 3.50286 -4.03985 0
M  V30 13108 C 1254.71 1.53514 -4.9923 0
M  V30 13109 H 1256.41 0.610429 -2.93111 0
M  V30 13110 H 1253.95 0.292183 -1.41005 0
M  V30 13111 H 1255.91 3.04727 -2.91066 0
M  V30 13112 H 1254.63 2.79205 -1.69447 0
M  V30 13113 H 1253.29 1.46239 -3.36169 0
M  V30 13114 H 1252.94 3.92861 -3.14116 0
M  V30 13115 H 1252.64 3.37735 -4.80842 0
M  V30 13116 H 1254.16 4.22124 -4.41184 0
M  V30 13117 H 1255.57 2.13885 -5.31908 0
M  V30 13118 H 1253.97 1.51561 -5.80646 0
M  V30 13119 H 1255.04 0.500126 -4.82314 0
M  V30 13120 N 1256.39 1.54543 0.308881 0
M  V30 13121 C 1257.3 1.87994 1.4034 0
M  V30 13122 C 1258.31 0.773294 1.55872 0
M  V30 13123 O 1259.49 1.069 1.70688 0
M  V30 13124 C 1256.55 2.11341 2.74838 0
M  V30 13125 C 1255.61 3.35086 2.68358 0
M  V30 13126 C 1254.85 3.5731 3.96441 0
M  V30 13127 O 1255.07 2.82692 4.9542 0
M  V30 13128 O 1254 4.50814 3.98811 0
M  V30 13129 H 1257.83 2.81094 1.14976 0
M  V30 13130 H 1255.41 1.40634 0.504236 0
M  V30 13131 H 1257.3 2.27943 3.54429 0
M  V30 13132 H 1255.97 1.21427 3.00062 0
M  V30 13133 H 1254.88 3.23855 1.87267 0
M  V30 13134 H 1256.21 4.25104 2.48087 0
M  V30 13135 N 1257.86 -0.571685 1.46866 0
M  V30 13136 C 1258.81 -1.70098 1.58649 0
M  V30 13137 C 1259.81 -1.63191 0.45443 0
M  V30 13138 O 1261.01 -1.68551 0.63171 0
M  V30 13139 H 1257.39 -0.56258 0.499007 0
M  V30 13140 H 1259.36 -1.57293 2.53577 0
M  V30 13141 C 1258.11 -3.08475 1.60433 0
M  V30 13142 H 1257.43 -3.14465 2.46884 0
M  V30 13143 H 1258.87 -3.87221 1.7273 0
M  V30 13144 C 1257.33 -3.35231 0.334948 0
M  V30 13145 O 1257.86 -3.97633 -0.570149 0
M  V30 13146 N 1256.06 -2.8977 0.219441 0
M  V30 13147 H 1255.61 -2.39168 0.956891 0
M  V30 13148 H 1255.57 -3.08044 -0.628975 0
M  V30 13149 N 1259.34 -1.34755 -0.817236 0
M  V30 13150 C 1260.29 -1.23351 -1.91751 0
M  V30 13151 C 1261.28 -0.131215 -1.60364 0
M  V30 13152 O 1262.47 -0.361425 -1.73271 0
M  V30 13153 C 1259.6 -0.996932 -3.28506 0
M  V30 13154 C 1258.68 -2.14265 -3.65993 0
M  V30 13155 N 1259.07 -3.39424 -3.75 0
M  V30 13156 C 1257.37 -2.05416 -3.95879 0
M  V30 13157 C 1258.07 -4.14701 -4.07919 0
M  V30 13158 N 1257.05 -3.43349 -4.21441 0
M  V30 13159 H 1260.85 -2.18191 -1.96901 0
M  V30 13160 H 1258.36 -1.27075 -1.01122 0
M  V30 13161 H 1260.36 -0.89613 -4.07155 0
M  V30 13162 H 1259.02 -0.0572789 -3.24649 0
M  V30 13163 H 1260.03 -3.73907 -3.58349 0
M  V30 13164 H 1256.71 -1.19242 -4.0011 0
M  V30 13165 H 1258.1 -5.22808 -4.22044 0
M  V30 13166 N 1260.82 1.03812 -1.18578 0
M  V30 13167 C 1261.77 2.10206 -0.883037 0
M  V30 13168 C 1262.75 1.60215 0.148303 0
M  V30 13169 O 1263.95 1.76911 -0.0560957 0
M  V30 13170 C 1261.07 3.40802 -0.41335 0
M  V30 13171 C 1260.16 3.97553 -1.47691 0
M  V30 13172 N 1260.55 4.28085 -2.69401 0
M  V30 13173 C 1258.85 4.25456 -1.33802 0
M  V30 13174 C 1259.55 4.73535 -3.37845 0
M  V30 13175 N 1258.53 4.74504 -2.6523 0
M  V30 13176 H 1262.33 2.31692 -1.80821 0
M  V30 13177 H 1259.84 1.21589 -1.07656 0
M  V30 13178 H 1261.84 4.1652 -0.177953 0
M  V30 13179 H 1260.5 3.20742 0.505449 0
M  V30 13180 H 1261.51 4.17653 -3.06246 0
M  V30 13181 H 1258.19 4.14709 -0.481961 0
M  V30 13182 H 1259.58 5.06157 -4.41876 0
M  V30 13183 N 1262.3 0.988223 1.22768 0
M  V30 13184 C 1263.26 0.539813 2.22752 0
M  V30 13185 C 1264.26 -0.374796 1.56371 0
M  V30 13186 O 1265.45 -0.167402 1.73394 0
M  V30 13187 C 1262.58 -0.215461 3.40218 0
M  V30 13188 H 1263.78 1.42397 2.63938 0
M  V30 13189 H 1261.33 0.774933 1.35737 0
M  V30 13190 H 1262.06 -1.11581 3.045 0
M  V30 13191 H 1261.85 0.441173 3.8961 0
M  V30 13192 H 1263.34 -0.517517 4.14381 0
M  V30 13193 N 1263.78 -1.38018 0.760839 0
M  V30 13194 C 1264.74 -2.28734 0.146154 0
M  V30 13195 C 1265.74 -1.47525 -0.639768 0
M  V30 13196 O 1266.93 -1.6788 -0.464964 0
M  V30 13197 C 1264.06 -3.31356 -0.801019 0
M  V30 13198 H 1265.25 -2.84599 0.945692 0
M  V30 13199 H 1262.81 -1.471 0.528323 0
M  V30 13200 H 1263.54 -2.80594 -1.62597 0
M  V30 13201 H 1263.33 -3.91366 -0.239775 0
M  V30 13202 H 1264.82 -3.99171 -1.22687 0
M  V30 13203 N 1265.25 -0.510493 -1.49103 0
M  V30 13204 C 1266.48 0.0293113 -2.07379 0
M  V30 13205 C 1266.9 1.29195 -1.36713 0
M  V30 13206 O 1266.26 1.76204 -0.426838 0
M  V30 13207 C 1266.31 0.25629 -3.59688 0
M  V30 13208 O 1265.41 1.32907 -3.90397 0
M  V30 13209 H 1264.75 -0.0304449 -0.663302 0
M  V30 13210 H 1267.28 -0.712832 -1.91781 0
M  V30 13211 H 1267.29 0.484915 -4.05108 0
M  V30 13212 H 1265.97 -0.666163 -4.1053 0
M  V30 13213 H 1264.55 1.08464 -3.56777 0
M  V30 13214 N 1266.73 1.55688 -0.24474 0
M  V30 13215 C 1267.69 2.20014 0.642382 0
M  V30 13216 C 1268.69 1.16877 1.10437 0
M  V30 13217 O 1269.88 1.41972 1.00943 0
M  V30 13218 C 1267.02 2.84198 1.88267 0
M  V30 13219 H 1268.21 2.9979 0.0811937 0
M  V30 13220 H 1265.76 1.56299 0.00480917 0
M  V30 13221 H 1266.5 2.08354 2.48514 0
M  V30 13222 H 1266.28 3.59747 1.55963 0
M  V30 13223 H 1267.77 3.33434 2.5142 0
M  V30 13224 N 1268.21 -0.0283989 1.57574 0
M  V30 13225 C 1269.46 -0.714661 1.90432 0
M  V30 13226 C 1269.81 -1.72929 0.843409 0
M  V30 13227 O 1269.1 -1.91029 -0.147815 0
M  V30 13228 C 1269.3 -1.4247 3.27776 0
M  V30 13229 C 1269.13 -0.480353 4.47127 0
M  V30 13230 C 1267.9 -0.101157 5.05199 0
M  V30 13231 C 1270.09 0.241526 5.13733 0
M  V30 13232 N 1268.08 0.844371 6.08065 0
M  V30 13233 C 1269.45 1.04269 6.11169 0
M  V30 13234 C 1271.5 0.308398 4.96944 0
M  V30 13235 C 1270.21 1.90459 6.93627 0
M  V30 13236 C 1272.23 1.15742 5.79964 0
M  V30 13237 C 1271.59 1.94651 6.76971 0
M  V30 13238 H 1267.69 -0.23559 0.745668 0
M  V30 13239 H 1270.28 0.0252703 1.94684 0
M  V30 13240 H 1268.45 -2.13509 3.24451 0
M  V30 13241 H 1270.18 -2.0634 3.48146 0
M  V30 13242 H 1266.93 -0.463482 4.71327 0
M  V30 13243 H 1267.36 1.31166 6.64172 0
M  V30 13244 H 1272 -0.287369 4.21822 0
M  V30 13245 H 1269.72 2.51115 7.68093 0
M  V30 13246 H 1273.3 1.2127 5.69021 0
M  V30 13247 H 1272.18 2.59286 7.40095 0
M  V30 13248 N 1269.69 -1.54705 -0.300681 0
M  V30 13249 C 1270.64 -1.86433 -1.39087 0
M  V30 13250 C 1271.63 -0.738101 -1.52474 0
M  V30 13251 O 1272.84 -0.922096 -1.54588 0
M  V30 13252 H 1269.21 -0.591314 -0.464599 0
M  V30 13253 H 1271.18 -2.77558 -1.09563 0
M  V30 13254 C 1269.93 -2.1286 -2.74929 0
M  V30 13255 H 1269.25 -2.98994 -2.6541 0
M  V30 13256 H 1270.69 -2.39 -3.50222 0
M  V30 13257 C 1269.15 -0.92726 -3.23888 0
M  V30 13258 O 1269.68 -0.147921 -4.01428 0
M  V30 13259 N 1267.89 -0.732553 -2.81215 0
M  V30 13260 H 1267.44 -1.36797 -2.18276 0
M  V30 13261 H 1267.39 0.0696902 -3.14323 0
M  V30 13262 N 1271.17 0.563888 -1.47167 0
M  V30 13263 C 1272.1 1.68137 -1.62025 0
M  V30 13264 C 1273.08 1.63481 -0.469899 0
M  V30 13265 O 1274.26 1.81206 -0.698432 0
M  V30 13266 C 1271.39 3.06779 -1.62801 0
M  V30 13267 C 1270.35 3.26278 -2.76996 0
M  V30 13268 C 1269.67 4.65638 -2.62841 0
M  V30 13269 C 1270.97 3.12295 -4.18651 0
M  V30 13270 H 1272.67 1.55958 -2.55573 0
M  V30 13271 H 1270.21 0.74887 -1.22996 0
M  V30 13272 H 1272.17 3.84795 -1.71787 0
M  V30 13273 H 1270.89 3.19901 -0.658097 0
M  V30 13274 H 1269.55 2.50668 -2.67509 0
M  V30 13275 H 1269.2 4.75551 -1.63892 0
M  V30 13276 H 1268.9 4.79635 -3.39447 0
M  V30 13277 H 1270.42 5.45798 -2.73746 0
M  V30 13278 H 1271.83 3.80136 -4.2915 0
M  V30 13279 H 1270.23 3.37805 -4.95992 0
M  V30 13280 H 1271.3 2.09126 -4.37486 0
M  V30 13281 N 1272.64 1.35187 0.810078 0
M  V30 13282 C 1273.87 1.31181 1.59609 0
M  V30 13283 C 1274.28 -0.113556 1.88859 0
M  V30 13284 O 1273.63 -1.07491 1.48968 0
M  V30 13285 C 1273.69 2.04749 2.95496 0
M  V30 13286 C 1273.35 3.53952 2.89079 0
M  V30 13287 C 1274.35 4.48612 2.6276 0
M  V30 13288 C 1272.03 3.96551 3.08306 0
M  V30 13289 C 1274.03 5.83846 2.5574 0
M  V30 13290 C 1271.71 5.31881 3.00909 0
M  V30 13291 C 1272.71 6.2534 2.74661 0
M  V30 13292 O 1272.4 7.58188 2.6722 0
M  V30 13293 H 1272.13 0.452285 0.502408 0
M  V30 13294 H 1274.69 1.78571 1.01497 0
M  V30 13295 H 1272.92 1.51992 3.55577 0
M  V30 13296 H 1274.61 1.93866 3.5661 0
M  V30 13297 H 1275.37 4.1702 2.47628 0
M  V30 13298 H 1271.25 3.24194 3.27749 0
M  V30 13299 H 1274.79 6.56765 2.35172 0
M  V30 13300 H 1270.69 5.63088 3.15598 0
M  V30 13301 H 1271.46 7.68073 2.82853 0
M  V30 13302 N 1274.12 -1.03182 1.19127 0
M  V30 13303 C 1275.05 -2.13301 0.94999 0
M  V30 13304 C 1276.03 -1.69707 -0.115577 0
M  V30 13305 O 1277.22 -1.94161 0.0388395 0
M  V30 13306 C 1274.35 -3.43902 0.484637 0
M  V30 13307 C 1273.3 -4.01164 1.4917 0
M  V30 13308 C 1272.63 -5.2735 0.883537 0
M  V30 13309 C 1273.93 -4.36311 2.87107 0
M  V30 13310 H 1275.62 -2.33743 1.87095 0
M  V30 13311 H 1273.17 -1.12332 0.900977 0
M  V30 13312 H 1275.12 -4.20308 0.30315 0
M  V30 13313 H 1273.85 -3.23173 -0.471909 0
M  V30 13314 H 1272.5 -3.26849 1.66028 0
M  V30 13315 H 1272.15 -5.02936 -0.0804712 0
M  V30 13316 H 1271.85 -5.66624 1.55599 0
M  V30 13317 H 1273.38 -6.06425 0.71278 0
M  V30 13318 H 1274.79 -5.03666 2.73848 0
M  V30 13319 H 1273.19 -4.86659 3.51117 0
M  V30 13320 H 1274.26 -3.45743 3.39985 0
M  V30 13321 N 1275.6 -0.99472 -1.22242 0
M  V30 13322 C 1276.83 -0.689809 -1.95592 0
M  V30 13323 C 1277.25 0.739321 -1.72961 0
M  V30 13324 O 1276.61 1.50563 -1.00997 0
M  V30 13325 C 1276.66 -1.00367 -3.46351 0
M  V30 13326 O 1275.76 -0.103326 -4.12271 0
M  V30 13327 H 1275.1 -0.257997 -0.611828 0
M  V30 13328 H 1277.63 -1.33219 -1.55286 0
M  V30 13329 H 1277.64 -0.946259 -3.96875 0
M  V30 13330 H 1276.32 -2.04504 -3.62148 0
M  V30 13331 H 1274.89 -0.216374 -3.72272 0
M  V30 13332 N 1277.08 1.37613 -0.768148 0
M  V30 13333 C 1278.49 1.53202 -0.44737 0
M  V30 13334 C 1278.69 1.72736 1.03752 0
M  V30 13335 O 1277.75 1.74667 1.8234 0
M  V30 13336 C 1279.06 2.7306 -1.25931 0
M  V30 13337 C 1280.61 2.8692 -1.25084 0
M  V30 13338 C 1281.09 4.09757 -2.04605 0
M  V30 13339 N 1282.58 4.16862 -2.0194 0
M  V30 13340 C 1283.31 5.10936 -2.60254 0
M  V30 13341 N 1282.81 6.1059 -3.27341 0
M  V30 13342 N 1284.6 5.03393 -2.50104 0
M  V30 13343 H 1276.75 1.23184 -1.7303 0
M  V30 13344 H 1279.02 0.599541 -0.73434 0
M  V30 13345 H 1278.72 2.65078 -2.31141 0
M  V30 13346 H 1278.6 3.66646 -0.886036 0
M  V30 13347 H 1280.98 2.94375 -0.206736 0
M  V30 13348 H 1281.06 1.94303 -1.66373 0
M  V30 13349 H 1280.71 4.03063 -3.09035 0
M  V30 13350 H 1280.64 5.01481 -1.60701 0
M  V30 13351 H 1283.13 3.455 -1.53096 0
M  V30 13352 H 1283.44 6.78893 -3.6922 0
M  V30 13353 H 1281.79 6.10879 -3.31439 0
M  V30 13354 H 1284.98 4.24483 -1.9731 0
M  V30 13355 H 1285.15 5.76524 -2.95844 0
M  V30 13356 N 1278.56 0.518393 1.4883 0
M  V30 13357 C 1279.97 0.0749773 1.86549 0
M  V30 13358 C 1280.32 -1.34429 1.4291 0
M  V30 13359 O 1279.44 -2.00481 0.814648 0
M  V30 13360 C 1280.04 0.129289 3.38553 0
M  V30 13361 C 1278.6 -0.258871 3.75509 0
M  V30 13362 C 1277.74 0.494185 2.72861 0
M  V30 13363 H 1280.7 0.730266 1.409 0
M  V30 13364 H 1280.72 -0.661844 3.747 0
M  V30 13365 H 1280.23 1.16237 3.70285 0
M  V30 13366 H 1278.33 -1.29453 3.49389 0
M  V30 13367 H 1278.44 0.0726769 4.79045 0
M  V30 13368 H 1276.81 -0.0581428 2.54634 0
M  V30 13369 H 1277.59 1.52767 3.07436 0
M  V30 13370 N 1280.03 -1.55556 0.252993 0
M  V30 13371 C 1280.94 -2.25283 -0.654581 0
M  V30 13372 C 1281.96 -1.27103 -1.18831 0
M  V30 13373 O 1283.14 -1.59993 -1.22329 0
M  V30 13374 C 1280.2 -2.94336 -1.83214 0
M  V30 13375 C 1279.26 -4.0794 -1.33728 0
M  V30 13376 C 1278.5 -4.73691 -2.45871 0
M  V30 13377 O 1278.72 -4.38545 -3.64738 0
M  V30 13378 O 1277.65 -5.62083 -2.15283 0
M  V30 13379 H 1281.48 -3.03565 -0.0904091 0
M  V30 13380 H 1279.06 -1.49385 0.0212535 0
M  V30 13381 H 1280.95 -3.37808 -2.5192 0
M  V30 13382 H 1279.62 -2.18989 -2.38381 0
M  V30 13383 H 1278.53 -3.68971 -0.617323 0
M  V30 13384 H 1279.86 -4.85124 -0.831617 0
M  V30 13385 N 1281.51 0.0200419 -1.57587 0
M  V30 13386 C 1282.74 0.719511 -1.93666 0
M  V30 13387 C 1283.15 1.68934 -0.85193 0
M  V30 13388 O 1282.49 1.8282 0.179593 0
M  V30 13389 C 1282.56 1.52382 -3.25607 0
M  V30 13390 C 1282.22 0.717784 -4.51328 0
M  V30 13391 C 1283.22 0.0141272 -5.19898 0
M  V30 13392 C 1280.9 0.669662 -4.97816 0
M  V30 13393 C 1282.9 -0.726853 -6.33242 0
M  V30 13394 C 1280.58 -0.0750577 -6.11054 0
M  V30 13395 C 1281.58 -0.772067 -6.78622 0
M  V30 13396 O 1281.27 -1.50468 -7.89693 0
M  V30 13397 H 1281 0.206681 -0.643629 0
M  V30 13398 H 1283.55 -0.0211203 -2.05389 0
M  V30 13399 H 1281.78 2.30848 -3.10236 0
M  V30 13400 H 1283.47 2.10675 -3.46945 0
M  V30 13401 H 1284.24 0.0422784 -4.84982 0
M  V30 13402 H 1280.12 1.20169 -4.45062 0
M  V30 13403 H 1283.66 -1.27143 -6.85916 0
M  V30 13404 H 1279.56 -0.1051 -6.45414 0
M  V30 13405 H 1280.33 -1.41929 -8.06101 0
M  V30 13406 N 1282.99 1.54862 0.292472 0
M  V30 13407 C 1283.94 1.87168 1.38097 0
M  V30 13408 C 1284.93 0.746176 1.52081 0
M  V30 13409 O 1286.14 0.930281 1.54097 0
M  V30 13410 H 1282.51 0.593769 0.461456 0
M  V30 13411 H 1284.48 2.78135 1.0809 0
M  V30 13412 C 1283.23 2.14315 2.73796 0
M  V30 13413 H 1282.56 3.00398 2.63821 0
M  V30 13414 H 1284 2.40853 3.48949 0
M  V30 13415 C 1282.46 0.944424 3.23392 0
M  V30 13416 O 1282.99 0.169208 4.01343 0
M  V30 13417 N 1281.19 0.747456 2.80823 0
M  V30 13418 H 1280.74 1.37953 2.17547 0
M  V30 13419 H 1280.7 -0.0530199 3.14355 0
M  V30 13420 N 1284.47 -0.556076 1.47464 0
M  V30 13421 C 1285.72 -1.3132 1.54147 0
M  V30 13422 C 1286.04 -1.93425 0.204221 0
M  V30 13423 O 1285.3 -1.78467 -0.803002 0
M  V30 13424 C 1285.6 -2.44298 2.6087 0
M  V30 13425 C 1285.26 -2.00016 4.04109 0
M  V30 13426 C 1283.93 -1.87656 4.43101 0
M  V30 13427 C 1286.28 -1.66228 4.93981 0
M  V30 13428 C 1283.61 -1.39805 5.698 0
M  V30 13429 C 1285.96 -1.19848 6.21144 0
M  V30 13430 C 1284.62 -1.06084 6.59016 0
M  V30 13431 H 1283.89 -0.480534 0.564064 0
M  V30 13432 H 1286.54 -0.623449 1.81067 0
M  V30 13433 H 1284.84 -3.18834 2.27711 0
M  V30 13434 H 1286.54 -3.02479 2.63263 0
M  V30 13435 H 1283.13 -2.1058 3.73302 0
M  V30 13436 H 1287.31 -1.7465 4.64555 0
M  V30 13437 H 1282.57 -1.27814 5.97891 0
M  V30 13438 H 1286.74 -0.927657 6.90194 0
M  V30 13439 H 1284.37 -0.687834 7.57082 0
M  V30 13440 N 1285.95 -1.35615 -0.802897 0
M  V30 13441 C 1286.88 -1.31506 -1.92947 0
M  V30 13442 C 1287.86 -0.188843 -1.69048 0
M  V30 13443 O 1289.04 -0.384384 -1.90358 0
M  V30 13444 C 1286.17 -1.09001 -3.29752 0
M  V30 13445 C 1285.13 -2.18303 -3.68141 0
M  V30 13446 C 1284.45 -1.80959 -5.03148 0
M  V30 13447 C 1285.75 -3.60296 -3.78132 0
M  V30 13448 H 1287.45 -2.25771 -1.96642 0
M  V30 13449 H 1284.99 -1.08682 -0.944685 0
M  V30 13450 H 1286.95 -1.04766 -4.08169 0
M  V30 13451 H 1285.67 -0.111832 -3.26408 0
M  V30 13452 H 1284.33 -2.21642 -2.92011 0
M  V30 13453 H 1283.98 -0.817495 -4.96312 0
M  V30 13454 H 1283.68 -2.54129 -5.29804 0
M  V30 13455 H 1285.2 -1.78255 -5.84001 0
M  V30 13456 H 1286.62 -3.59259 -4.46773 0
M  V30 13457 H 1285.01 -4.32258 -4.16261 0
M  V30 13458 H 1286.08 -3.9618 -2.79588 0
M  V30 13459 N 1287.43 1.02549 -1.19673 0
M  V30 13460 C 1288.36 2.12794 -0.961289 0
M  V30 13461 C 1289.34 1.69766 0.106575 0
M  V30 13462 O 1290.52 1.94138 -0.0491358 0
M  V30 13463 C 1287.65 3.4364 -0.502868 0
M  V30 13464 C 1286.61 4.00367 -1.51296 0
M  V30 13465 C 1285.93 5.26874 -0.911491 0
M  V30 13466 C 1287.23 4.34782 -2.89416 0
M  V30 13467 H 1288.93 2.32748 -1.88331 0
M  V30 13468 H 1286.47 1.11852 -0.906922 0
M  V30 13469 H 1288.42 4.20141 -0.325436 0
M  V30 13470 H 1287.15 3.23418 0.454764 0
M  V30 13471 H 1285.81 3.25964 -1.67759 0
M  V30 13472 H 1285.46 5.02971 0.0537982 0
M  V30 13473 H 1285.16 5.65791 -1.58602 0
M  V30 13474 H 1286.68 6.06039 -0.74493 0
M  V30 13475 H 1288.09 5.02207 -2.76516 0
M  V30 13476 H 1286.49 4.8479 -3.53693 0
M  V30 13477 H 1287.56 3.43935 -3.41814 0
M  V30 13478 N 1288.9 1.00119 1.21713 0
M  V30 13479 C 1289.85 0.529464 2.21767 0
M  V30 13480 C 1290.84 -0.406858 1.55671 0
M  V30 13481 O 1292.03 -0.232329 1.75469 0
M  V30 13482 C 1289.16 -0.146336 3.42988 0
M  V30 13483 C 1288.24 0.81078 4.16278 0
M  V30 13484 N 1288.64 1.96204 4.66195 0
M  V30 13485 C 1286.93 0.628371 4.41551 0
M  V30 13486 C 1287.63 2.56346 5.2217 0
M  V30 13487 N 1286.61 1.8454 5.11318 0
M  V30 13488 H 1290.41 1.40738 2.58012 0
M  V30 13489 H 1287.93 0.864518 1.37477 0
M  V30 13490 H 1289.92 -0.501726 4.1387 0
M  V30 13491 H 1288.58 -1.02029 3.08254 0
M  V30 13492 H 1289.59 2.34255 4.61893 0
M  V30 13493 H 1286.27 -0.198819 4.17026 0
M  V30 13494 H 1287.66 3.53688 5.71274 0
M  V30 13495 N 1290.38 -1.37203 0.775435 0
M  V30 13496 C 1291.31 -2.32819 0.17826 0
M  V30 13497 C 1292.29 -1.55963 -0.678944 0
M  V30 13498 O 1293.48 -1.84183 -0.615648 0
M  V30 13499 C 1290.61 -3.40198 -0.698768 0
M  V30 13500 C 1289.56 -4.27961 0.057423 0
M  V30 13501 C 1288.89 -5.26385 -0.93929 0
M  V30 13502 C 1290.19 -5.07402 1.23856 0
M  V30 13503 H 1291.88 -2.8301 0.977028 0
M  V30 13504 H 1289.43 -1.3607 0.471274 0
M  V30 13505 H 1291.38 -4.06067 -1.12637 0
M  V30 13506 H 1290.1 -2.88541 -1.53009 0
M  V30 13507 H 1288.76 -3.63628 0.465848 0
M  V30 13508 H 1288.41 -4.71007 -1.76527 0
M  V30 13509 H 1288.11 -5.85966 -0.437844 0
M  V30 13510 H 1289.64 -5.9513 -1.36576 0
M  V30 13511 H 1291.05 -5.6639 0.887423 0
M  V30 13512 H 1289.45 -5.76327 1.67234 0
M  V30 13513 H 1290.52 -4.3986 2.04085 0
M  V30 13514 N 1291.86 -0.526279 -1.48553 0
M  V30 13515 C 1293.14 0.073385 -1.95462 0
M  V30 13516 C 1293.52 1.51658 -1.46843 0
M  V30 13517 O 1292.86 2.17729 -0.693293 0
M  V30 13518 C 1293.07 -0.040041 -3.48977 0
M  V30 13519 C 1294.42 0.121108 -4.24427 0
M  V30 13520 O 1295.45 0.0339335 -3.56184 0
M  V30 13521 O 1294.31 0.303297 -5.45658 0
M  V30 13522 H 1291.4 0.0813498 -0.822989 0
M  V30 13523 H 1293.95 -0.590614 -1.59091 0
M  V30 13524 H 1292.72 -1.0455 -3.77074 0
M  V30 13525 H 1292.34 0.662975 -3.92034 0
M  V30 13526 N 1293.34 1.5542 -0.261239 0
M  V30 13527 C 1294.29 2.18644 0.646442 0
M  V30 13528 C 1295.27 1.14672 1.12868 0
M  V30 13529 O 1296.46 1.40534 1.07606 0
M  V30 13530 C 1293.59 2.90045 1.83655 0
M  V30 13531 C 1292.68 4.01289 1.37214 0
M  V30 13532 N 1293.07 5.01949 0.622927 0
M  V30 13533 C 1291.37 4.14107 1.65625 0
M  V30 13534 C 1292.07 5.80454 0.380569 0
M  V30 13535 N 1291.04 5.35253 0.94897 0
M  V30 13536 H 1294.85 2.93826 0.0660348 0
M  V30 13537 H 1292.36 1.62273 -0.0641794 0
M  V30 13538 H 1294.36 3.33778 2.49796 0
M  V30 13539 H 1293.02 2.16369 2.42104 0
M  V30 13540 H 1294.03 5.17187 0.271619 0
M  V30 13541 H 1290.71 3.51613 2.2511 0
M  V30 13542 H 1292.1 6.71545 -0.218528 0
M  V30 13543 N 1294.82 -0.0116844 1.57596 0
M  V30 13544 C 1296.06 -0.699994 1.90336 0
M  V30 13545 C 1296.39 -1.74067 0.861072 0
M  V30 13546 O 1295.67 -1.94119 -0.121712 0
M  V30 13547 C 1295.95 -1.35377 3.33684 0
M  V30 13548 C 1295.81 -0.325434 4.48621 0
M  V30 13549 C 1297.12 -2.28312 3.76247 0
M  V30 13550 H 1294.24 -0.253002 0.692213 0
M  V30 13551 H 1296.89 0.037211 1.89964 0
M  V30 13552 H 1295.04 -1.98212 3.34132 0
M  V30 13553 H 1296.71 0.302331 4.60308 0
M  V30 13554 H 1294.95 0.353527 4.32357 0
M  V30 13555 H 1295.62 -0.8217 5.4585 0
M  V30 13556 H 1298.1 -1.75505 3.77276 0
M  V30 13557 H 1296.97 -2.71028 4.77321 0
M  V30 13558 H 1297.23 -3.15727 3.09465 0
M  V30 13559 N 1296.29 -1.55015 -0.284256 0
M  V30 13560 C 1297.2 -1.90203 -1.37332 0
M  V30 13561 C 1298.22 -0.797994 -1.54622 0
M  V30 13562 O 1299.4 -1.09602 -1.68965 0
M  V30 13563 C 1296.46 -2.15687 -2.71441 0
M  V30 13564 C 1295.52 -3.39313 -2.62993 0
M  V30 13565 C 1294.75 -3.63571 -3.90707 0
M  V30 13566 O 1294.98 -2.90538 -4.9086 0
M  V30 13567 O 1293.91 -4.57102 -3.91589 0
M  V30 13568 H 1297.74 -2.82888 -1.1049 0
M  V30 13569 H 1295.32 -1.41418 -0.481798 0
M  V30 13570 H 1297.2 -2.33553 -3.50758 0
M  V30 13571 H 1295.88 -1.26185 -2.98092 0
M  V30 13572 H 1294.79 -3.26793 -1.82091 0
M  V30 13573 H 1296.12 -4.28997 -2.41293 0
M  V30 13574 N 1297.77 0.548248 -1.47757 0
M  V30 13575 C 1299.02 1.30501 -1.54841 0
M  V30 13576 C 1299.35 1.93314 -0.214476 0
M  V30 13577 O 1298.6 1.7889 0.793526 0
M  V30 13578 C 1298.9 2.42911 -2.62162 0
M  V30 13579 C 1298.57 1.97871 -4.05164 0
M  V30 13580 C 1297.23 1.85304 -4.4409 0
M  V30 13581 C 1299.58 1.63606 -4.94856 0
M  V30 13582 C 1296.91 1.36781 -5.70533 0
M  V30 13583 C 1299.26 1.16552 -6.2177 0
M  V30 13584 C 1297.92 1.02588 -6.5957 0
M  V30 13585 H 1297.19 0.477536 -0.566604 0
M  V30 13586 H 1299.84 0.613837 -1.81395 0
M  V30 13587 H 1298.15 3.17622 -2.29398 0
M  V30 13588 H 1299.84 3.01078 -2.64864 0
M  V30 13589 H 1296.43 2.08597 -3.74413 0
M  V30 13590 H 1300.62 1.72184 -4.65474 0
M  V30 13591 H 1295.87 1.24641 -5.9856 0
M  V30 13592 H 1300.05 0.891041 -6.90676 0
M  V30 13593 H 1297.67 0.647675 -7.57436 0
M  V30 13594 N 1299.25 1.36039 0.795694 0
M  V30 13595 C 1300.2 1.29853 1.90806 0
M  V30 13596 C 1301.17 0.168387 1.65244 0
M  V30 13597 O 1302.35 0.353879 1.8749 0
M  V30 13598 C 1299.49 1.08737 3.27521 0
M  V30 13599 C 1298.6 2.30771 3.65197 0
M  V30 13600 C 1297.74 2.02718 4.90998 0
M  V30 13601 C 1296.78 3.20746 5.21333 0
M  V30 13602 N 1295.92 2.92399 6.38316 0
M  V30 13603 H 1300.76 2.2497 1.95429 0
M  V30 13604 H 1298.29 1.11819 0.955771 0
M  V30 13605 H 1300.25 0.945236 4.06351 0
M  V30 13606 H 1298.88 0.172781 3.22337 0
M  V30 13607 H 1297.93 2.5581 2.81541 0
M  V30 13608 H 1299.24 3.18869 3.83568 0
M  V30 13609 H 1298.4 1.85398 5.77679 0
M  V30 13610 H 1297.14 1.11921 4.74684 0
M  V30 13611 H 1296.14 3.38632 4.33138 0
M  V30 13612 H 1297.37 4.1236 5.3957 0
M  V30 13613 H 1295.31 2.04207 6.23406 0
M  V30 13614 H 1295.23 3.74034 6.56989 0
M  V30 13615 H 1296.5 2.78643 7.27996 0
M  V30 13616 N 1300.73 -1.01913 1.20215 0
M  V30 13617 C 1302.14 -1.27766 0.956459 0
M  V30 13618 C 1302.34 -1.98158 -0.365486 0
M  V30 13619 O 1301.4 -2.27539 -1.09463 0
M  V30 13620 C 1302.71 -2.11516 2.13732 0
M  V30 13621 C 1304.26 -2.24792 2.17802 0
M  V30 13622 C 1304.74 -3.11919 3.35367 0
M  V30 13623 N 1306.23 -3.19507 3.35364 0
M  V30 13624 C 1306.96 -3.8714 4.22978 0
M  V30 13625 N 1306.46 -4.5692 5.20765 0
M  V30 13626 N 1308.25 -3.83638 4.10827 0
M  V30 13627 H 1300.4 -0.546426 2.05251 0
M  V30 13628 H 1302.67 -0.303772 0.898012 0
M  V30 13629 H 1302.37 -1.67127 3.09453 0
M  V30 13630 H 1302.25 -3.12249 2.11614 0
M  V30 13631 H 1304.63 -2.68407 1.22645 0
M  V30 13632 H 1304.71 -1.23576 2.2397 0
M  V30 13633 H 1304.36 -2.6901 4.30809 0
M  V30 13634 H 1304.29 -4.13215 3.26436 0
M  V30 13635 H 1306.78 -2.69819 2.64587 0
M  V30 13636 H 1307.09 -5.06188 5.83947 0
M  V30 13637 H 1305.44 -4.55753 5.24704 0
M  V30 13638 H 1308.63 -3.28268 3.33703 0
M  V30 13639 H 1308.8 -4.36071 4.79318 0
M  V30 13640 N 1302.21 -1.00763 -1.2118 0
M  V30 13641 C 1303.45 -0.691826 -1.90316 0
M  V30 13642 C 1303.78 0.777678 -1.78276 0
M  V30 13643 O 1303.04 1.57962 -1.15526 0
M  V30 13644 C 1303.34 -1.06187 -3.41261 0
M  V30 13645 C 1303 -2.52608 -3.73497 0
M  V30 13646 C 1301.66 -2.92617 -3.82006 0
M  V30 13647 C 1304.02 -3.47442 -3.88502 0
M  V30 13648 C 1301.34 -4.26419 -4.02969 0
M  V30 13649 C 1303.7 -4.8092 -4.10973 0
M  V30 13650 C 1302.36 -5.20649 -4.17709 0
M  V30 13651 H 1301.63 -0.253157 -0.696414 0
M  V30 13652 H 1304.28 -1.26655 -1.43634 0
M  V30 13653 H 1302.58 -0.405428 -3.89697 0
M  V30 13654 H 1304.28 -0.795343 -3.93033 0
M  V30 13655 H 1300.87 -2.20603 -3.67468 0
M  V30 13656 H 1305.05 -3.17695 -3.81292 0
M  V30 13657 H 1300.31 -4.56767 -4.06416 0
M  V30 13658 H 1304.48 -5.54337 -4.21525 0
M  V30 13659 H 1302.11 -6.24343 -4.33705 0
M  V30 13660 N 1303.68 1.3679 -0.7827 0
M  V30 13661 C 1305.1 1.52719 -0.463594 0
M  V30 13662 C 1305.3 1.73827 1.01914 0
M  V30 13663 O 1304.36 1.76591 1.80477 0
M  V30 13664 C 1305.67 2.71709 -1.2882 0
M  V30 13665 C 1307.22 2.85577 -1.2812 0
M  V30 13666 C 1307.69 4.07564 -2.0894 0
M  V30 13667 N 1309.18 4.14697 -2.0635 0
M  V30 13668 C 1309.92 5.08147 -2.65659 0
M  V30 13669 N 1309.41 6.07083 -3.33799 0
M  V30 13670 N 1311.21 5.00712 -2.55429 0
M  V30 13671 H 1303.36 1.21342 -1.74327 0
M  V30 13672 H 1305.62 0.591719 -0.740657 0
M  V30 13673 H 1305.33 2.62612 -2.3394 0
M  V30 13674 H 1305.2 3.65686 -0.924873 0
M  V30 13675 H 1307.59 2.94139 -0.237947 0
M  V30 13676 H 1307.67 1.92528 -1.68424 0
M  V30 13677 H 1307.31 3.99763 -3.13293 0
M  V30 13678 H 1307.24 4.99748 -1.66011 0
M  V30 13679 H 1309.73 3.43856 -1.56752 0
M  V30 13680 H 1310.05 6.74939 -3.764 0
M  V30 13681 H 1308.39 6.07329 -3.379 0
M  V30 13682 H 1311.58 4.22367 -2.01802 0
M  V30 13683 H 1311.76 5.73354 -3.01943 0
M  V30 13684 N 1305.16 0.53415 1.48272 0
M  V30 13685 C 1306.41 0.00157259 2.025 0
M  V30 13686 C 1306.74 -1.33886 1.41085 0
M  V30 13687 O 1305.99 -1.87884 0.547544 0
M  V30 13688 C 1306.29 -0.165144 3.57018 0
M  V30 13689 C 1305.96 1.10146 4.3724 0
M  V30 13690 C 1304.62 1.44857 4.58879 0
M  V30 13691 C 1306.97 1.94183 4.83676 0
M  V30 13692 C 1304.3 2.63497 5.24201 0
M  V30 13693 C 1306.65 3.12005 5.50305 0
M  V30 13694 C 1305.32 3.47058 5.70182 0
M  V30 13695 H 1304.59 0.00057545 0.741 0
M  V30 13696 H 1307.23 0.701014 1.78208 0
M  V30 13697 H 1305.54 -0.947384 3.80173 0
M  V30 13698 H 1307.23 -0.592202 3.96603 0
M  V30 13699 H 1303.82 0.821132 4.20661 0
M  V30 13700 H 1308.01 1.68677 4.66757 0
M  V30 13701 H 1303.26 2.90852 5.37787 0
M  V30 13702 H 1307.44 3.77426 5.85254 0
M  V30 13703 H 1305.07 4.39086 6.2057 0
M  V30 13704 N 1306.64 -1.55279 0.269478 0
M  V30 13705 C 1307.57 -2.25278 -0.614188 0
M  V30 13706 C 1308.55 -1.24092 -1.1634 0
M  V30 13707 O 1309.74 -1.52799 -1.19858 0
M  V30 13708 C 1306.87 -2.96956 -1.80096 0
M  V30 13709 C 1305.82 -4.05021 -1.38353 0
M  V30 13710 C 1305.15 -4.64244 -2.65295 0
M  V30 13711 C 1306.45 -5.19523 -0.537886 0
M  V30 13712 H 1308.14 -2.99385 -0.0304397 0
M  V30 13713 H 1305.69 -1.43994 -0.0132004 0
M  V30 13714 H 1307.64 -3.44633 -2.42499 0
M  V30 13715 H 1306.36 -2.20374 -2.41045 0
M  V30 13716 H 1305.02 -3.58146 -0.78273 0
M  V30 13717 H 1304.67 -3.84337 -3.2449 0
M  V30 13718 H 1304.37 -5.37208 -2.38079 0
M  V30 13719 H 1305.89 -5.14668 -3.28557 0
M  V30 13720 H 1307.31 -5.63287 -1.06677 0
M  V30 13721 H 1305.71 -5.99014 -0.360845 0
M  V30 13722 H 1306.78 -4.82857 0.444672 0
M  V30 13723 N 1308.12 0.00332656 -1.576 0
M  V30 13724 C 1309.36 0.68989 -1.90705 0
M  V30 13725 C 1309.7 1.73608 -0.870291 0
M  V30 13726 O 1308.97 1.94181 0.111416 0
M  V30 13727 C 1309.26 1.33605 -3.34397 0
M  V30 13728 C 1309.11 0.301638 -4.48787 0
M  V30 13729 C 1310.43 2.26313 -3.77453 0
M  V30 13730 H 1307.55 0.249328 -0.693545 0
M  V30 13731 H 1310.19 -0.0472847 -1.89941 0
M  V30 13732 H 1308.34 1.96437 -3.35179 0
M  V30 13733 H 1310.01 -0.326738 -4.60141 0
M  V30 13734 H 1308.25 -0.376451 -4.32163 0
M  V30 13735 H 1308.92 0.792741 -5.46278 0
M  V30 13736 H 1311.4 1.73502 -3.78201 0
M  V30 13737 H 1310.28 2.68492 -4.78752 0
M  V30 13738 H 1310.54 3.14082 -3.11135 0
M  V30 13739 N 1309.6 1.55164 0.276031 0
M  V30 13740 C 1310.85 1.74833 1.0058 0
M  V30 13741 C 1311.16 0.555089 1.87558 0
M  V30 13742 O 1312.36 0.634127 2.63991 0
M  V30 13743 C 1310.82 3.09417 1.83818 0
M  V30 13744 C 1310.43 4.36299 1.01721 0
M  V30 13745 C 1312.17 3.38437 2.56244 0
M  V30 13746 C 1310.08 5.61923 1.8438 0
M  V30 13747 H 1309.01 0.651676 0.379254 0
M  V30 13748 H 1311.66 1.81626 0.26161 0
M  V30 13749 H 1310.04 2.96654 2.62321 0
M  V30 13750 H 1311.22 4.59969 0.276565 0
M  V30 13751 H 1309.53 4.144 0.407645 0
M  V30 13752 H 1312.13 4.29501 3.18485 0
M  V30 13753 H 1312.47 2.58432 3.26372 0
M  V30 13754 H 1313 3.52284 1.84773 0
M  V30 13755 H 1309.74 6.44667 1.18679 0
M  V30 13756 H 1309.26 5.424 2.56051 0
M  V30 13757 H 1310.94 6.0011 2.4182 0
M  V30 13758 N 1311.07 -0.540404 1.48045 0
M  V30 13759 C 1311.98 -1.67308 1.64455 0
M  V30 13760 C 1313 -1.65823 0.527152 0
M  V30 13761 O 1314.18 -1.84964 0.796881 0
M  V30 13762 C 1311.24 -3.03792 1.67068 0
M  V30 13763 C 1310.3 -3.16213 2.90358 0
M  V30 13764 C 1309.54 -4.46187 2.92837 0
M  V30 13765 O 1309.76 -5.32662 2.04029 0
M  V30 13766 O 1308.69 -4.62754 3.84892 0
M  V30 13767 H 1312.52 -1.56403 2.6033 0
M  V30 13768 H 1310.1 -0.712323 1.31325 0
M  V30 13769 H 1311.99 -3.84982 1.71368 0
M  V30 13770 H 1310.66 -3.15043 0.74363 0
M  V30 13771 H 1309.57 -2.34357 2.91595 0
M  V30 13772 H 1310.9 -3.09874 3.82412 0
M  V30 13773 N 1312.55 -1.36459 -0.788468 0
M  V30 13774 C 1313.52 -1.3071 -1.88275 0
M  V30 13775 C 1314.52 -0.214596 -1.59362 0
M  V30 13776 O 1315.71 -0.469437 -1.67756 0
M  V30 13777 C 1312.84 -1.02648 -3.25079 0
M  V30 13778 H 1314.03 -2.28029 -1.94788 0
M  V30 13779 H 1311.58 -1.21245 -0.986375 0
M  V30 13780 H 1312.32 -0.0578992 -3.24248 0
M  V30 13781 H 1312.1 -1.81708 -3.47454 0
M  V30 13782 H 1313.59 -1.01233 -4.05144 0
M  V30 13783 N 1314.03 1.01274 -1.20754 0
M  V30 13784 C 1315.28 1.74342 -1.01428 0
M  V30 13785 C 1315.59 1.90265 0.453708 0
M  V30 13786 O 1316.8 2.60465 0.76618 0
M  V30 13787 C 1315.25 3.13588 -1.76609 0
M  V30 13788 C 1314.86 3.05664 -3.27526 0
M  V30 13789 C 1316.61 3.9084 -1.65664 0
M  V30 13790 C 1314.51 4.39942 -3.95228 0
M  V30 13791 H 1313.44 0.653619 -0.375897 0
M  V30 13792 H 1316.09 1.13214 -1.44412 0
M  V30 13793 H 1314.48 3.75281 -1.26413 0
M  V30 13794 H 1315.65 2.53256 -3.84965 0
M  V30 13795 H 1313.97 2.41904 -3.38927 0
M  V30 13796 H 1316.56 4.9019 -2.13583 0
M  V30 13797 H 1316.91 4.11754 -0.61351 0
M  V30 13798 H 1317.44 3.35783 -2.13294 0
M  V30 13799 H 1314.18 4.24229 -4.9971 0
M  V30 13800 H 1313.7 4.92342 -3.42578 0
M  V30 13801 H 1315.38 5.08771 -3.99701 0
M  V30 13802 N 1315.51 1.01404 1.20644 0
M  V30 13803 C 1316.44 0.602465 2.25594 0
M  V30 13804 C 1317.42 -0.381216 1.65773 0
M  V30 13805 O 1318.61 -0.267209 1.92353 0
M  V30 13806 C 1315.74 -0.0626245 3.47244 0
M  V30 13807 C 1314.69 0.841776 4.1964 0
M  V30 13808 C 1314.02 0.0426002 5.34683 0
M  V30 13809 C 1315.32 2.14864 4.76058 0
M  V30 13810 H 1317.01 1.47977 2.60275 0
M  V30 13811 H 1314.56 0.712966 1.25111 0
M  V30 13812 H 1316.51 -0.362095 4.19841 0
M  V30 13813 H 1315.23 -0.974627 3.11719 0
M  V30 13814 H 1313.89 1.12521 3.48905 0
M  V30 13815 H 1313.54 -0.870973 4.95402 0
M  V30 13816 H 1313.24 0.644866 5.84051 0
M  V30 13817 H 1314.76 -0.250476 6.10086 0
M  V30 13818 H 1316.18 1.9117 5.40488 0
M  V30 13819 H 1314.57 2.70153 5.35852 0
M  V30 13820 H 1315.64 2.81336 3.9494 0
M  V30 13821 N 1316.99 -1.36373 0.789944 0
M  V30 13822 C 1317.95 -2.28372 0.194639 0
M  V30 13823 C 1318.95 -1.48849 -0.608332 0
M  V30 13824 O 1320.14 -1.68829 -0.42925 0
M  V30 13825 C 1317.27 -3.3298 -0.730553 0
M  V30 13826 H 1318.47 -2.82529 1.00585 0
M  V30 13827 H 1316.02 -1.45946 0.559406 0
M  V30 13828 H 1316.75 -2.8398 -1.56608 0
M  V30 13829 H 1316.54 -3.91787 -0.156706 0
M  V30 13830 H 1318.03 -4.01684 -1.14192 0
M  V30 13831 N 1318.47 -0.542005 -1.47987 0
M  V30 13832 C 1319.69 -0.016717 -2.06893 0
M  V30 13833 C 1320.11 1.27015 -1.39687 0
M  V30 13834 O 1319.47 1.75845 -0.488326 0
M  V30 13835 C 1319.52 0.198437 -3.60955 0
M  V30 13836 O 1319.24 -1.03746 -4.25639 0
M  V30 13837 C 1320.74 0.762741 -4.36689 0
M  V30 13838 H 1317.96 -0.0389497 -0.669869 0
M  V30 13839 H 1320.5 -0.751082 -1.90208 0
M  V30 13840 H 1318.66 0.882884 -3.77205 0
M  V30 13841 H 1319.07 -0.82568 -5.1796 0
M  V30 13842 H 1320.55 0.862649 -5.45218 0
M  V30 13843 H 1321.02 1.77049 -4.01933 0
M  V30 13844 H 1321.63 0.114478 -4.25146 0
M  V30 13845 N 1319.94 1.55134 -0.277709 0
M  V30 13846 C 1321.22 1.91667 0.390253 0
M  V30 13847 C 1321.6 1.20228 1.73518 0
M  V30 13848 O 1320.95 0.330013 2.26104 0
M  V30 13849 C 1321.16 3.44983 0.52797 0
M  V30 13850 C 1322.51 4.16809 0.809665 0
M  V30 13851 O 1323.53 3.50891 0.612679 0
M  V30 13852 O 1322.39 5.33463 1.18656 0
M  V30 13853 H 1319.48 0.798807 0.214095 0
M  V30 13854 H 1322.03 1.66577 -0.324053 0
M  V30 13855 H 1320.8 3.89056 -0.418422 0
M  V30 13856 H 1320.42 3.76035 1.29164 0
M  V30 13857 N 1321.42 0.00503138 1.57599 0
M  V30 13858 C 1322.35 -0.983586 2.11773 0
M  V30 13859 C 1323.33 -1.35518 1.02805 0
M  V30 13860 O 1324.52 -1.43804 1.30514 0
M  V30 13861 C 1321.65 -2.27383 2.62515 0
M  V30 13862 C 1320.6 -2.0437 3.76054 0
M  V30 13863 C 1319.93 -3.39451 4.1313 0
M  V30 13864 C 1321.23 -1.40223 5.03125 0
M  V30 13865 H 1322.92 -0.532501 2.94627 0
M  V30 13866 H 1320.47 -0.254696 1.4173 0
M  V30 13867 H 1322.42 -2.96903 2.99043 0
M  V30 13868 H 1321.14 -2.74614 1.7679 0
M  V30 13869 H 1319.8 -1.37275 3.39928 0
M  V30 13870 H 1319.45 -3.84395 3.24422 0
M  V30 13871 H 1319.15 -3.24868 4.89627 0
M  V30 13872 H 1320.68 -4.10279 4.52221 0
M  V30 13873 H 1322.09 -1.99708 5.37392 0
M  V30 13874 H 1320.49 -1.36112 5.8446 0
M  V30 13875 H 1321.56 -0.372073 4.8347 0
M  V30 13876 N 1322.9 -1.55308 -0.267798 0
M  V30 13877 C 1323.85 -1.88544 -1.33115 0
M  V30 13878 C 1324.82 -0.737465 -1.48831 0
M  V30 13879 O 1326 -0.989215 -1.63154 0
M  V30 13880 C 1323.14 -2.1674 -2.68547 0
M  V30 13881 C 1322.25 -3.44234 -2.61011 0
M  V30 13882 C 1321.39 -3.62104 -3.88657 0
M  V30 13883 C 1320.43 -4.83272 -3.75652 0
M  V30 13884 N 1319.57 -4.97772 -4.95144 0
M  V30 13885 H 1324.41 -2.79237 -1.04071 0
M  V30 13886 H 1321.94 -1.38245 -0.502677 0
M  V30 13887 H 1323.9 -2.31088 -3.47353 0
M  V30 13888 H 1322.53 -1.29276 -2.95783 0
M  V30 13889 H 1321.58 -3.3833 -1.73887 0
M  V30 13890 H 1322.89 -4.33177 -2.47303 0
M  V30 13891 H 1322.05 -3.76298 -4.75904 0
M  V30 13892 H 1320.79 -2.71356 -4.05238 0
M  V30 13893 H 1319.79 -4.69076 -2.86788 0
M  V30 13894 H 1321.02 -5.75461 -3.60585 0
M  V30 13895 H 1318.96 -4.09956 -5.12125 0
M  V30 13896 H 1318.88 -5.80769 -4.83987 0
M  V30 13897 H 1320.15 -5.16357 -5.83949 0
M  V30 13898 N 1324.38 0.532545 -1.4833 0
M  V30 13899 C 1325.32 1.63737 -1.62661 0
M  V30 13900 C 1326.29 1.59348 -0.468758 0
M  V30 13901 O 1327.48 1.77812 -0.691921 0
M  V30 13902 C 1324.62 3.02006 -1.66993 0
M  V30 13903 C 1323.73 3.16648 -2.93867 0
M  V30 13904 C 1322.87 4.4546 -2.89376 0
M  V30 13905 C 1321.91 4.53622 -4.10966 0
M  V30 13906 N 1321.04 5.7382 -4.04567 0
M  V30 13907 H 1325.88 1.50828 -2.57012 0
M  V30 13908 H 1323.42 0.734348 -1.27459 0
M  V30 13909 H 1325.38 3.82105 -1.67486 0
M  V30 13910 H 1324.01 3.13693 -0.76135 0
M  V30 13911 H 1323.06 2.29817 -3.0313 0
M  V30 13912 H 1324.37 3.1854 -3.8384 0
M  V30 13913 H 1323.53 5.33848 -2.88256 0
M  V30 13914 H 1322.27 4.46085 -1.97127 0
M  V30 13915 H 1321.27 3.63642 -4.12364 0
M  V30 13916 H 1322.5 4.54738 -5.04371 0
M  V30 13917 H 1320.44 5.75347 -3.15137 0
M  V30 13918 H 1320.36 5.77196 -4.88243 0
M  V30 13919 H 1321.63 6.64502 -4.07502 0
M  V30 13920 N 1325.86 1.36875 0.78122 0
M  V30 13921 C 1326.81 1.28392 1.88413 0
M  V30 13922 C 1327.79 0.173687 1.5996 0
M  V30 13923 O 1328.98 0.407238 1.72251 0
M  V30 13924 C 1326.11 1.08368 3.25747 0
M  V30 13925 C 1325.2 2.23894 3.60184 0
M  V30 13926 N 1325.59 3.49247 3.65869 0
M  V30 13927 C 1323.89 2.1584 3.90294 0
M  V30 13928 C 1324.59 4.2537 3.96781 0
M  V30 13929 N 1323.56 3.54402 4.1219 0
M  V30 13930 H 1327.36 2.23334 1.91047 0
M  V30 13931 H 1324.88 1.29711 0.977175 0
M  V30 13932 H 1326.88 1.00376 4.04636 0
M  V30 13933 H 1325.54 0.143334 3.24383 0
M  V30 13934 H 1326.55 3.83276 3.4831 0
M  V30 13935 H 1323.22 1.29808 3.96807 0
M  V30 13936 H 1324.61 5.33814 4.08035 0
M  V30 13937 N 1327.33 -1.00632 1.21289 0
M  V30 13938 C 1328.58 -1.74388 1.02932 0
M  V30 13939 C 1328.91 -1.8952 -0.437327 0
M  V30 13940 O 1328.16 -1.42551 -1.3408 0
M  V30 13941 C 1328.46 -3.1598 1.67007 0
M  V30 13942 C 1328.13 -3.208 3.16857 0
M  V30 13943 C 1326.79 -3.21823 3.57748 0
M  V30 13944 C 1329.14 -3.18147 4.12834 0
M  V30 13945 C 1326.47 -3.17877 4.93124 0
M  V30 13946 C 1328.82 -3.15743 5.48169 0
M  V30 13947 C 1327.49 -3.15074 5.88459 0
M  V30 13948 H 1326.76 -0.638133 0.376653 0
M  V30 13949 H 1329.4 -1.17953 1.50862 0
M  V30 13950 H 1327.71 -3.75639 1.11365 0
M  V30 13951 H 1329.41 -3.71764 1.50307 0
M  V30 13952 H 1326 -3.20746 2.84289 0
M  V30 13953 H 1330.18 -3.16519 3.82269 0
M  V30 13954 H 1325.44 -3.15696 5.2359 0
M  V30 13955 H 1329.61 -3.12644 6.22275 0
M  V30 13956 H 1327.24 -3.11771 6.93327 0
M  V30 13957 N 1328.81 -1.02043 -1.20104 0
M  V30 13958 C 1330.09 -0.626922 -1.85281 0
M  V30 13959 C 1330.47 0.894819 -1.91197 0
M  V30 13960 O 1329.82 1.7881 -1.42265 0
M  V30 13961 C 1330.03 -1.27917 -3.24713 0
M  V30 13962 C 1331.37 -1.39704 -4.00959 0
M  V30 13963 O 1332.4 -1.23568 -3.3408 0
M  V30 13964 O 1331.26 -1.65814 -5.20738 0
M  V30 13965 H 1328.35 -0.216815 -0.798073 0
M  V30 13966 H 1330.9 -1.11804 -1.27663 0
M  V30 13967 H 1329.67 -2.3188 -3.15194 0
M  V30 13968 H 1329.29 -0.775371 -3.89966 0
M  V30 13969 N 1330.29 1.35952 -0.797165 0
M  V30 13970 C 1331.54 1.99032 -0.373142 0
M  V30 13971 C 1331.87 1.63257 1.05723 0
M  V30 13972 O 1331.12 0.883022 1.74646 0
M  V30 13973 C 1331.42 3.53986 -0.492805 0
M  V30 13974 C 1331.09 4.09603 -1.88511 0
M  V30 13975 C 1329.75 4.24505 -2.26604 0
M  V30 13976 C 1332.1 4.39829 -2.79643 0
M  V30 13977 C 1329.43 4.66946 -3.55215 0
M  V30 13978 C 1331.78 4.83706 -4.0769 0
M  V30 13979 C 1330.44 4.96813 -4.45795 0
M  V30 13980 H 1329.71 0.728311 -0.136542 0
M  V30 13981 H 1332.36 1.62318 -1.01613 0
M  V30 13982 H 1330.67 3.91103 0.233661 0
M  V30 13983 H 1332.36 4.00735 -0.145638 0
M  V30 13984 H 1328.95 3.98449 -1.57912 0
M  V30 13985 H 1333.14 4.27878 -2.51464 0
M  V30 13986 H 1328.39 4.75282 -3.84599 0
M  V30 13987 H 1332.57 5.06057 -4.78414 0
M  V30 13988 H 1330.19 5.29458 -5.45507 0
M  V30 13989 N 1331.77 0.549846 1.47697 0
M  V30 13990 C 1332.7 -0.190364 2.32723 0
M  V30 13991 C 1333.68 -0.915933 1.43334 0
M  V30 13992 O 1334.86 -0.897838 1.72199 0
M  V30 13993 C 1331.99 -1.22545 3.24961 0
M  V30 13994 C 1330.95 -0.616805 4.23532 0
M  V30 13995 C 1330.27 -1.75599 5.05044 0
M  V30 13996 C 1331.57 0.424595 5.20571 0
M  V30 13997 H 1333.27 0.519461 2.94859 0
M  V30 13998 H 1330.81 0.251259 1.41791 0
M  V30 13999 H 1332.77 -1.75139 3.83281 0
M  V30 14000 H 1331.49 -1.96512 2.60865 0
M  V30 14001 H 1330.15 -0.112224 3.66428 0
M  V30 14002 H 1329.8 -2.48453 4.37356 0
M  V30 14003 H 1329.5 -1.35456 5.71774 0
M  V30 14004 H 1331.02 -2.28533 5.6622 0
M  V30 14005 H 1332.44 -0.0150025 5.73298 0
M  V30 14006 H 1330.83 0.7445 5.95464 0
M  V30 14007 H 1331.9 1.32318 4.66497 0
M  V30 14008 N 1333.25 -1.54984 0.285932 0
M  V30 14009 C 1334.21 -2.2164 -0.583824 0
M  V30 14010 C 1335.21 -1.19764 -1.073 0
M  V30 14011 O 1336.4 -1.44598 -0.971439 0
M  V30 14012 C 1333.53 -2.8909 -1.80665 0
M  V30 14013 H 1334.72 -2.999 -0.00168109 0
M  V30 14014 H 1332.28 -1.56257 0.0366325 0
M  V30 14015 H 1333.01 -2.14869 -2.42903 0
M  V30 14016 H 1332.8 -3.63756 -1.4637 0
M  V30 14017 H 1334.29 -3.39982 -2.42491 0
M  V30 14018 N 1334.72 -0.0133892 -1.57594 0
M  V30 14019 C 1335.63 0.989701 -2.12702 0
M  V30 14020 C 1336.65 1.36785 -1.07545 0
M  V30 14021 O 1337.83 1.45246 -1.39519 0
M  V30 14022 C 1334.89 2.2586 -2.63036 0
M  V30 14023 C 1333.95 1.94234 -3.82847 0
M  V30 14024 C 1333.19 3.15075 -4.30771 0
M  V30 14025 O 1333.41 4.27212 -3.7795 0
M  V30 14026 O 1332.34 2.98291 -5.22787 0
M  V30 14027 H 1336.17 0.551194 -2.98656 0
M  V30 14028 H 1333.75 0.206264 -1.47969 0
M  V30 14029 H 1335.64 3.0038 -2.9555 0
M  V30 14030 H 1334.31 2.68923 -1.80173 0
M  V30 14031 H 1333.22 1.17148 -3.55285 0
M  V30 14032 H 1334.55 1.55999 -4.66824 0
M  V30 14033 N 1336.2 1.55448 0.259558 0
M  V30 14034 C 1337.45 1.76686 0.98935 0
M  V30 14035 C 1337.78 0.575434 1.85793 0
M  V30 14036 O 1337.03 -0.441676 1.90651 0
M  V30 14037 C 1337.33 3.03292 1.89073 0
M  V30 14038 C 1337 4.35225 1.17855 0
M  V30 14039 C 1335.66 4.7108 0.981675 0
M  V30 14040 C 1338.01 5.16839 0.6728 0
M  V30 14041 C 1335.34 5.86094 0.266551 0
M  V30 14042 C 1337.69 6.32593 -0.0287965 0
M  V30 14043 C 1336.36 6.67078 -0.23726 0
M  V30 14044 H 1335.63 0.646542 0.362029 0
M  V30 14045 H 1338.27 1.8972 0.260488 0
M  V30 14046 H 1336.58 2.85217 2.68624 0
M  V30 14047 H 1338.27 3.16923 2.45685 0
M  V30 14048 H 1334.86 4.07051 1.34192 0
M  V30 14049 H 1339.05 4.89604 0.812481 0
M  V30 14050 H 1334.3 6.11327 0.0944447 0
M  V30 14051 H 1338.48 6.95081 -0.428378 0
M  V30 14052 H 1336.11 7.56049 -0.793358 0
M  V30 14053 N 1337.68 -0.524672 1.4861 0
M  V30 14054 C 1338.63 -1.64965 1.6398 0
M  V30 14055 C 1339.62 -1.61663 0.506118 0
M  V30 14056 O 1340.83 -1.66456 0.685013 0
M  V30 14057 H 1337.2 -0.546419 0.516653 0
M  V30 14058 H 1339.17 -1.49146 2.58453 0
M  V30 14059 C 1337.92 -3.03215 1.70165 0
M  V30 14060 H 1337.25 -3.06451 2.56764 0
M  V30 14061 H 1338.69 -3.8153 1.84962 0
M  V30 14062 C 1337.15 -3.33996 0.44143 0
M  V30 14063 O 1337.68 -3.99246 -0.443356 0
M  V30 14064 N 1335.88 -2.88925 0.311518 0
M  V30 14065 H 1335.43 -2.36003 1.0325 0
M  V30 14066 H 1335.39 -3.09889 -0.530655 0
M  V30 14067 N 1339.16 -1.37287 -0.77395 0
M  V30 14068 C 1340.12 -1.32699 -1.86878 0
M  V30 14069 C 1341.12 -0.231486 -1.59125 0
M  V30 14070 O 1342.31 -0.487203 -1.67248 0
M  V30 14071 C 1339.44 -1.0609 -3.23972 0
M  V30 14072 H 1340.64 -2.30083 -1.92359 0
M  V30 14073 H 1338.19 -1.22284 -0.973459 0
M  V30 14074 H 1338.92 -0.0922868 -3.24169 0
M  V30 14075 H 1338.71 -1.85383 -3.45508 0
M  V30 14076 H 1340.2 -1.05524 -4.04048 0
M  V30 14077 N 1340.64 0.999871 -1.21821 0
M  V30 14078 C 1341.58 2.08864 -0.98206 0
M  V30 14079 C 1342.55 1.65835 0.0937677 0
M  V30 14080 O 1343.74 1.90722 -0.0544038 0
M  V30 14081 C 1340.88 3.40553 -0.558382 0
M  V30 14082 C 1339.99 3.96964 -1.70422 0
M  V30 14083 C 1339.13 5.16782 -1.2292 0
M  V30 14084 C 1338.17 5.65315 -2.34703 0
M  V30 14085 N 1337.3 6.76379 -1.88299 0
M  V30 14086 H 1342.14 2.28399 -1.9141 0
M  V30 14087 H 1339.68 1.11984 -0.953837 0
M  V30 14088 H 1341.64 4.16163 -0.293955 0
M  V30 14089 H 1340.27 3.2104 0.336656 0
M  V30 14090 H 1339.32 3.18291 -2.08315 0
M  V30 14091 H 1340.63 4.2897 -2.54531 0
M  V30 14092 H 1339.79 5.99657 -0.92174 0
M  V30 14093 H 1338.52 4.86383 -0.358222 0
M  V30 14094 H 1337.53 4.81033 -2.66246 0
M  V30 14095 H 1338.75 5.97742 -3.22306 0
M  V30 14096 H 1336.7 6.47775 -1.03552 0
M  V30 14097 H 1336.62 7.07666 -2.65978 0
M  V30 14098 H 1337.89 7.62776 -1.60601 0
M  V30 14099 N 1342.11 1.02678 1.19562 0
M  V30 14100 C 1343.08 0.610407 2.20922 0
M  V30 14101 C 1344.08 -0.324858 1.57484 0
M  V30 14102 O 1345.27 -0.112153 1.73839 0
M  V30 14103 C 1342.4 -0.107115 3.40732 0
M  V30 14104 H 1343.59 1.50722 2.59274 0
M  V30 14105 H 1341.15 0.817725 1.33203 0
M  V30 14106 H 1341.88 -1.01837 3.07896 0
M  V30 14107 H 1341.67 0.564901 3.88009 0
M  V30 14108 H 1343.16 -0.385423 4.15818 0
M  V30 14109 N 1343.59 -1.35528 0.804364 0
M  V30 14110 C 1344.54 -2.31728 0.20125 0
M  V30 14111 C 1345.53 -1.56527 -0.647751 0
M  V30 14112 O 1346.74 -1.71672 -0.541163 0
M  V30 14113 H 1343.12 -0.750572 0.0463165 0
M  V30 14114 H 1345.09 -2.80142 1.02777 0
M  V30 14115 C 1343.84 -3.41807 -0.637429 0
M  V30 14116 H 1343.16 -3.99799 0.00651699 0
M  V30 14117 H 1344.6 -4.11403 -1.02585 0
M  V30 14118 C 1343.06 -2.84655 -1.80202 0
M  V30 14119 O 1343.59 -2.78026 -2.89939 0
M  V30 14120 N 1341.79 -2.41735 -1.61285 0
M  V30 14121 H 1341.34 -2.47327 -0.720231 0
M  V30 14122 H 1341.3 -2.03844 -2.39364 0
M  V30 14123 N 1345.07 -0.557671 -1.47404 0
M  V30 14124 C 1346.35 0.031908 -1.95574 0
M  V30 14125 C 1346.73 1.48509 -1.50027 0
M  V30 14126 O 1346.08 2.16209 -0.73932 0
M  V30 14127 C 1346.29 -0.114055 -3.48814 0
M  V30 14128 C 1347.63 0.0310533 -4.24589 0
M  V30 14129 O 1348.66 -0.041626 -3.56176 0
M  V30 14130 O 1347.52 0.187487 -5.46178 0
M  V30 14131 H 1344.61 0.0638747 -0.82453 0
M  V30 14132 H 1347.16 -0.624227 -1.57802 0
M  V30 14133 H 1345.93 -1.12525 -3.74772 0
M  V30 14134 H 1345.55 0.57967 -3.93352 0
M  V30 14135 N 1346.55 1.54831 -0.294147 0
M  V30 14136 C 1347.8 2.00298 0.317605 0
M  V30 14137 C 1348.13 1.18228 1.54064 0
M  V30 14138 O 1347.4 0.257034 1.92794 0
M  V30 14139 C 1347.69 3.53602 0.680991 0
M  V30 14140 C 1347.54 4.46416 -0.550711 0
M  V30 14141 C 1348.86 4.13379 1.51016 0
M  V30 14142 H 1345.98 0.728135 0.113965 0
M  V30 14143 H 1348.62 1.85636 -0.404883 0
M  V30 14144 H 1346.77 3.66227 1.29654 0
M  V30 14145 H 1348.44 4.45707 -1.18922 0
M  V30 14146 H 1346.68 4.17294 -1.18524 0
M  V30 14147 H 1347.36 5.51423 -0.252412 0
M  V30 14148 H 1349.83 4.04148 0.99012 0
M  V30 14149 H 1348.71 5.20818 1.73321 0
M  V30 14150 H 1348.97 3.64817 2.49722 0
M  V30 14151 N 1348.03 0.0217466 1.57585 0
M  V30 14152 C 1348.98 -0.980624 2.10918 0
M  V30 14153 C 1349.97 -1.34178 1.03406 0
M  V30 14154 O 1351.18 -1.32487 1.21849 0
M  V30 14155 H 1347.55 -0.333984 0.673764 0
M  V30 14156 H 1349.52 -0.505431 2.94088 0
M  V30 14157 C 1348.27 -2.25639 2.64542 0
M  V30 14158 H 1347.59 -1.98722 3.46914 0
M  V30 14159 H 1349.03 -2.94003 3.05513 0
M  V30 14160 C 1347.49 -2.98111 1.56945 0
M  V30 14161 O 1348.02 -3.89937 0.964975 0
M  V30 14162 N 1346.23 -2.60316 1.29166 0
M  V30 14163 H 1345.78 -1.85722 1.78508 0
M  V30 14164 H 1345.73 -3.09116 0.573987 0
M  V30 14165 N 1349.51 -1.55583 -0.251311 0
M  V30 14166 C 1350.73 -1.81597 -1.00186 0
M  V30 14167 C 1351.16 -0.598216 -1.78334 0
M  V30 14168 O 1350.51 0.452667 -1.75558 0
M  V30 14169 C 1350.56 -3.05301 -1.91895 0
M  V30 14170 O 1349.67 -2.81907 -3.01002 0
M  V30 14171 H 1349.01 -0.599578 -0.285311 0
M  V30 14172 H 1351.54 -2.02762 -0.273638 0
M  V30 14173 H 1351.55 -3.34616 -2.33444 0
M  V30 14174 H 1350.22 -3.93574 -1.34433 0
M  V30 14175 H 1348.8 -2.63747 -2.63613 0
M  V30 14176 N 1350.98 0.516783 -1.48886 0
M  V30 14177 C 1351.93 1.64093 -1.64853 0
M  V30 14178 C 1352.93 1.61392 -0.514685 0
M  V30 14179 O 1354.13 1.6609 -0.693831 0
M  V30 14180 H 1350.51 0.543672 -0.519543 0
M  V30 14181 H 1352.48 1.47774 -2.5924 0
M  V30 14182 C 1351.23 3.02308 -1.71771 0
M  V30 14183 H 1350.55 3.05085 -2.58385 0
M  V30 14184 H 1351.99 3.80544 -1.86982 0
M  V30 14185 C 1350.45 3.33757 -0.459136 0
M  V30 14186 O 1350.98 3.99475 0.422177 0
M  V30 14187 N 1349.18 2.88756 -0.326837 0
M  V30 14188 H 1348.73 2.35452 -1.045 0
M  V30 14189 H 1348.69 3.10166 0.514213 0
M  V30 14190 N 1352.46 1.37696 0.766659 0
M  V30 14191 C 1353.71 1.32922 1.52237 0
M  V30 14192 C 1354.03 -0.0842833 1.94818 0
M  V30 14193 O 1353.3 -1.02934 1.66677 0
M  V30 14194 H 1351.88 0.489049 0.564659 0
M  V30 14195 H 1354.54 1.72238 0.912142 0
M  V30 14196 H 1353.64 1.97158 2.4194 0
M  V30 14197 N 1353.94 -0.993397 1.22349 0
M  V30 14198 C 1355.19 -1.72707 1.04189 0
M  V30 14199 C 1355.5 -1.90963 -0.423381 0
M  V30 14200 O 1356.71 -2.61651 -0.724645 0
M  V30 14201 C 1355.16 -3.10739 1.81575 0
M  V30 14202 C 1354.77 -3.00415 3.32347 0
M  V30 14203 C 1356.52 -3.88155 1.71861 0
M  V30 14204 C 1354.42 -4.33598 4.02177 0
M  V30 14205 H 1353.35 -0.647556 0.386248 0
M  V30 14206 H 1356 -1.10902 1.46195 0
M  V30 14207 H 1354.39 -3.73222 1.32367 0
M  V30 14208 H 1355.56 -2.47099 3.88946 0
M  V30 14209 H 1353.87 -2.36482 3.42732 0
M  V30 14210 H 1356.47 -4.8673 2.21354 0
M  V30 14211 H 1356.81 -4.10726 0.678939 0
M  V30 14212 H 1357.35 -3.32347 2.18609 0
M  V30 14213 H 1354.09 -4.16226 5.06395 0
M  V30 14214 H 1353.61 -4.86829 3.50367 0
M  V30 14215 H 1355.29 -5.02348 4.07744 0
M  V30 14216 N 1355.42 -1.03311 -1.19015 0
M  V30 14217 C 1356.33 -0.627735 -2.26046 0
M  V30 14218 C 1357.34 0.342483 -1.70596 0
M  V30 14219 O 1358.52 0.199307 -2.00411 0
M  V30 14220 C 1355.58 0.0108274 -3.46698 0
M  V30 14221 C 1354.65 -1.00743 -4.17312 0
M  V30 14222 C 1353.88 -0.399245 -5.32205 0
M  V30 14223 O 1354.1 0.796649 -5.64809 0
M  V30 14224 O 1353.04 -1.12419 -5.91308 0
M  V30 14225 H 1356.86 -1.51923 -2.6297 0
M  V30 14226 H 1354.45 -0.803538 -1.25951 0
M  V30 14227 H 1356.33 0.366672 -4.19802 0
M  V30 14228 H 1355 0.876265 -3.11614 0
M  V30 14229 H 1353.91 -1.41494 -3.4631 0
M  V30 14230 H 1355.24 -1.84338 -4.56377 0
M  V30 14231 N 1356.9 1.35099 -0.81154 0
M  V30 14232 C 1358.14 1.99348 -0.403961 0
M  V30 14233 C 1358.5 1.63209 1.01885 0
M  V30 14234 O 1357.79 0.887707 1.69795 0
M  V30 14235 C 1357.98 3.53444 -0.530322 0
M  V30 14236 C 1357.81 4.04552 -1.96387 0
M  V30 14237 C 1356.58 4.33677 -2.5933 0
M  V30 14238 C 1358.78 4.2274 -2.92909 0
M  V30 14239 N 1356.76 4.70747 -3.94043 0
M  V30 14240 C 1358.13 4.62862 -4.12503 0
M  V30 14241 C 1360.19 4.0496 -2.89675 0
M  V30 14242 C 1358.89 4.87064 -5.29303 0
M  V30 14243 C 1360.92 4.30321 -4.05682 0
M  V30 14244 C 1360.28 4.7072 -5.24025 0
M  V30 14245 H 1356.38 0.757119 -0.195692 0
M  V30 14246 H 1358.96 1.63715 -1.05383 0
M  V30 14247 H 1357.13 3.88297 0.089583 0
M  V30 14248 H 1358.87 4.04584 -0.0968489 0
M  V30 14249 H 1355.62 4.24174 -2.1065 0
M  V30 14250 H 1356.04 4.93534 -4.63414 0
M  V30 14251 H 1360.69 3.72864 -1.99329 0
M  V30 14252 H 1358.4 5.18031 -6.20217 0
M  V30 14253 H 1361.99 4.18112 -4.04566 0
M  V30 14254 H 1360.87 4.89961 -6.12298 0
M  V30 14255 N 1358.37 0.56548 1.47106 0
M  V30 14256 C 1359.6 0.0476763 2.07345 0
M  V30 14257 C 1360.02 -1.24032 1.41413 0
M  V30 14258 O 1359.38 -1.74498 0.491941 0
M  V30 14259 C 1359.43 -0.122618 3.60391 0
M  V30 14260 O 1358.53 -1.18326 3.9506 0
M  V30 14261 H 1357.87 0.0550419 0.661715 0
M  V30 14262 H 1360.4 0.78352 1.89003 0
M  V30 14263 H 1360.41 -0.334227 4.06629 0
M  V30 14264 H 1359.09 0.81807 4.07775 0
M  V30 14265 H 1357.67 -0.951481 3.60557 0
M  V30 14266 N 1359.85 -1.54672 0.302354 0
M  V30 14267 C 1360.8 -2.25022 -0.58887 0
M  V30 14268 C 1361.79 -1.25671 -1.13592 0
M  V30 14269 O 1363 -1.43518 -1.0864 0
M  V30 14270 H 1359.38 -0.722515 -0.208509 0
M  V30 14271 H 1361.35 -2.98388 0.0269928 0
M  V30 14272 C 1360.1 -3.00532 -1.74859 0
M  V30 14273 H 1359.42 -3.76786 -1.33688 0
M  V30 14274 H 1360.86 -3.53036 -2.34823 0
M  V30 14275 C 1359.32 -2.0758 -2.65353 0
M  V30 14276 O 1359.85 -1.64473 -3.66485 0
M  V30 14277 N 1358.05 -1.73508 -2.33116 0
M  V30 14278 H 1357.6 -2.0876 -1.5092 0
M  V30 14279 H 1357.56 -1.11591 -2.9393 0
M  V30 14280 N 1361.33 -0.0301034 -1.57571 0
M  V30 14281 C 1362.24 0.967086 -2.1374 0
M  V30 14282 C 1363.26 1.35636 -1.0899 0
M  V30 14283 O 1364.43 1.43758 -1.41052 0
M  V30 14284 C 1361.5 2.23058 -2.65417 0
M  V30 14285 C 1360.56 1.90163 -3.84885 0
M  V30 14286 C 1359.79 3.10488 -4.34088 0
M  V30 14287 O 1360.01 4.23179 -3.8246 0
M  V30 14288 O 1358.95 2.92729 -5.25921 0
M  V30 14289 H 1362.77 0.519486 -2.99224 0
M  V30 14290 H 1360.36 0.190559 -1.4818 0
M  V30 14291 H 1362.24 2.97229 -2.98719 0
M  V30 14292 H 1360.92 2.66997 -1.83015 0
M  V30 14293 H 1359.82 1.13373 -3.56507 0
M  V30 14294 H 1361.16 1.51039 -4.68453 0
M  V30 14295 N 1362.81 1.55714 0.243056 0
M  V30 14296 C 1363.76 1.91467 1.32072 0
M  V30 14297 C 1364.75 0.794182 1.4963 0
M  V30 14298 O 1365.96 0.978835 1.51059 0
M  V30 14299 H 1362.33 0.60815 0.442333 0
M  V30 14300 H 1364.3 2.81433 0.991865 0
M  V30 14301 C 1363.05 2.22917 2.6684 0
M  V30 14302 H 1362.37 3.08639 2.5413 0
M  V30 14303 H 1363.81 2.51833 3.4111 0
M  V30 14304 C 1362.27 1.04683 3.20223 0
M  V30 14305 O 1362.8 0.296806 4.00602 0
M  V30 14306 N 1361.01 0.836419 2.78303 0
M  V30 14307 H 1360.56 1.44804 2.13048 0
M  V30 14308 H 1360.51 0.0470167 3.14365 0
M  V30 14309 N 1364.29 -0.50888 1.49158 0
M  V30 14310 C 1365.56 -1.27021 1.48745 0
M  V30 14311 C 1365.94 -2.10045 0.210772 0
M  V30 14312 O 1365.29 -2.13773 -0.807061 0
M  V30 14313 C 1365.5 -2.13367 2.76181 0
M  V30 14314 C 1366.85 -2.72815 3.25357 0
M  V30 14315 O 1367.87 -2.23639 2.77243 0
M  V30 14316 O 1366.73 -3.62316 4.09133 0
M  V30 14317 H 1363.83 -0.574387 0.594986 0
M  V30 14318 H 1366.37 -0.523798 1.61414 0
M  V30 14319 H 1365.14 -1.51941 3.60596 0
M  V30 14320 H 1364.77 -2.95215 2.66334 0
M  V30 14321 N 1365.76 -1.381 -0.759346 0
M  V30 14322 C 1367.18 -1.19171 -1.06162 0
M  V30 14323 C 1367.38 -0.0364043 -2.01467 0
M  V30 14324 O 1366.44 0.619635 -2.44779 0
M  V30 14325 C 1367.75 -2.51569 -1.64723 0
M  V30 14326 C 1369.3 -2.58201 -1.76921 0
M  V30 14327 C 1369.77 -3.9076 -2.38894 0
M  V30 14328 N 1371.26 -3.92269 -2.46331 0
M  V30 14329 C 1372 -4.91595 -2.95164 0
M  V30 14330 N 1371.49 -6.01318 -3.44075 0
M  V30 14331 N 1373.29 -4.7899 -2.94152 0
M  V30 14332 H 1365.44 -2.12021 -0.126788 0
M  V30 14333 H 1367.7 -0.940517 -0.118877 0
M  V30 14334 H 1367.41 -3.36535 -1.02162 0
M  V30 14335 H 1367.28 -2.69551 -2.6386 0
M  V30 14336 H 1369.67 -1.73634 -2.38611 0
M  V30 14337 H 1369.75 -2.44092 -0.765047 0
M  V30 14338 H 1369.39 -4.75747 -1.7784 0
M  V30 14339 H 1369.32 -4.02179 -3.39941 0
M  V30 14340 H 1371.81 -3.13015 -2.11731 0
M  V30 14341 H 1372.13 -6.73046 -3.79776 0
M  V30 14342 H 1370.47 -6.04946 -3.42148 0
M  V30 14343 H 1373.66 -3.92385 -2.55248 0
M  V30 14344 H 1373.84 -5.5655 -3.31897 0
M  V30 14345 N 1367.24 0.986894 -1.22875 0
M  V30 14346 C 1368.17 2.09628 -1.0285 0
M  V30 14347 C 1369.15 1.70019 0.0525118 0
M  V30 14348 O 1370.34 1.93883 -0.110874 0
M  V30 14349 C 1367.47 3.41866 -0.61194 0
M  V30 14350 C 1366.42 3.95351 -1.63956 0
M  V30 14351 C 1365.75 5.23707 -1.07865 0
M  V30 14352 C 1367.05 4.25354 -3.03102 0
M  V30 14353 H 1368.74 2.26639 -1.95641 0
M  V30 14354 H 1366.29 1.0891 -0.942048 0
M  V30 14355 H 1368.24 4.18893 -0.458936 0
M  V30 14356 H 1366.97 3.24701 0.35164 0
M  V30 14357 H 1365.62 3.20462 -1.78045 0
M  V30 14358 H 1365.27 5.02888 -0.106246 0
M  V30 14359 H 1364.97 5.60459 -1.76522 0
M  V30 14360 H 1366.5 6.03362 -0.937359 0
M  V30 14361 H 1367.91 4.93156 -2.92353 0
M  V30 14362 H 1366.31 4.73292 -3.68938 0
M  V30 14363 H 1367.38 3.32887 -3.52583 0
M  V30 14364 N 1368.72 1.0394 1.18466 0
M  V30 14365 C 1369.65 0.650182 2.24265 0
M  V30 14366 C 1370.63 -0.345968 1.66545 0
M  V30 14367 O 1371.82 -0.226348 1.92876 0
M  V30 14368 C 1368.95 0.0110451 3.47298 0
M  V30 14369 C 1367.9 0.930599 4.17761 0
M  V30 14370 C 1367.23 0.156005 5.34472 0
M  V30 14371 C 1368.53 2.24913 4.71393 0
M  V30 14372 H 1370.22 1.53465 2.57078 0
M  V30 14373 H 1367.77 0.739343 1.23571 0
M  V30 14374 H 1369.72 -0.272959 4.20515 0
M  V30 14375 H 1368.44 -0.908288 3.13716 0
M  V30 14376 H 1367.1 1.19897 3.4644 0
M  V30 14377 H 1366.75 -0.765695 4.97138 0
M  V30 14378 H 1366.45 0.768606 5.82551 0
M  V30 14379 H 1367.97 -0.121011 6.1048 0
M  V30 14380 H 1369.39 2.02592 5.36311 0
M  V30 14381 H 1367.79 2.81459 5.30001 0
M  V30 14382 H 1368.86 2.8965 3.88884 0
M  V30 14383 N 1370.2 -1.34667 0.818693 0
M  V30 14384 C 1371.44 -1.98708 0.405359 0
M  V30 14385 C 1371.78 -1.64767 -1.02788 0
M  V30 14386 O 1371.05 -0.91714 -1.71519 0
M  V30 14387 C 1371.34 -3.55016 0.602966 0
M  V30 14388 C 1371.19 -3.98713 2.08201 0
M  V30 14389 C 1372.51 -4.40085 0.0362489 0
M  V30 14390 H 1369.63 -0.721831 0.148756 0
M  V30 14391 H 1372.27 -1.59628 1.03047 0
M  V30 14392 H 1370.42 -3.88435 0.0708453 0
M  V30 14393 H 1372.09 -3.75647 2.67745 0
M  V30 14394 H 1370.33 -3.49179 2.57403 0
M  V30 14395 H 1371 -5.0751 2.17111 0
M  V30 14396 H 1373.48 -4.13195 0.490837 0
M  V30 14397 H 1372.36 -5.4852 0.204344 0
M  V30 14398 H 1372.62 -4.29243 -1.05845 0
M  V30 14399 N 1371.68 -0.573274 -1.46804 0
M  V30 14400 C 1372.92 -0.057823 -2.04318 0
M  V30 14401 C 1373.28 1.27424 -1.43622 0
M  V30 14402 O 1374.48 1.87835 -1.92279 0
M  V30 14403 C 1372.75 0.016823 -3.57396 0
M  V30 14404 S 1374.31 0.476068 -4.3621 0
M  V30 14405 H 1371.13 -0.0329025 -0.710238 0
M  V30 14406 H 1373.73 -0.76364 -1.79969 0
M  V30 14407 H 1372.44 -0.956757 -3.99092 0
M  V30 14408 H 1371.97 0.745702 -3.86268 0
M  V30 14409 H 1373.98 1.73268 -4.64965 0
M  V30 14410 N 1373.15 1.5451 -0.310553 0
M  V30 14411 C 1374.09 2.2134 0.595098 0
M  V30 14412 C 1375.1 1.20917 1.09009 0
M  V30 14413 O 1376.29 1.47458 1.0059 0
M  V30 14414 C 1373.39 2.85384 1.82782 0
M  V30 14415 C 1372.56 4.11826 1.47372 0
M  V30 14416 C 1371.62 4.59584 2.56259 0
M  V30 14417 O 1370.65 5.24567 2.20949 0
M  V30 14418 N 1371.85 4.32709 3.86967 0
M  V30 14419 H 1374.61 2.99691 0.0229291 0
M  V30 14420 H 1372.17 1.61351 -0.133173 0
M  V30 14421 H 1374.17 3.14263 2.54992 0
M  V30 14422 H 1372.74 2.10816 2.30815 0
M  V30 14423 H 1371.96 3.89853 0.583826 0
M  V30 14424 H 1373.24 4.94138 1.21265 0
M  V30 14425 H 1372.64 3.80669 4.18458 0
M  V30 14426 H 1371.2 4.66275 4.55446 0
M  V30 14427 N 1374.63 0.0384594 1.57553 0
M  V30 14428 C 1375.88 -0.639085 1.92467 0
M  V30 14429 C 1376.21 -1.71239 0.916014 0
M  V30 14430 O 1375.49 -1.94408 -0.0598928 0
M  V30 14431 C 1375.77 -1.24693 3.37822 0
M  V30 14432 C 1375.62 -0.182544 4.49429 0
M  V30 14433 C 1376.94 -2.16226 3.8332 0
M  V30 14434 H 1374.06 -0.230852 0.699912 0
M  V30 14435 H 1376.7 0.0976276 1.89749 0
M  V30 14436 H 1374.85 -1.87481 3.40269 0
M  V30 14437 H 1376.53 0.448622 4.59113 0
M  V30 14438 H 1374.77 0.4909 4.31013 0
M  V30 14439 H 1375.44 -0.647626 5.48188 0
M  V30 14440 H 1377.92 -1.63413 3.82669 0
M  V30 14441 H 1376.79 -2.55705 4.85702 0
M  V30 14442 H 1377.05 -3.05722 3.19353 0
M  V30 14443 N 1376.11 -1.55841 -0.234795 0
M  V30 14444 C 1377.35 -1.80007 -0.968334 0
M  V30 14445 C 1377.72 -0.609903 -1.82055 0
M  V30 14446 O 1378.92 -0.730586 -2.58681 0
M  V30 14447 C 1377.19 -3.08991 -1.79609 0
M  V30 14448 S 1378.75 -3.54423 -2.58707 0
M  V30 14449 H 1375.56 -0.632112 -0.325508 0
M  V30 14450 H 1378.17 -1.94081 -0.235082 0
M  V30 14451 H 1376.87 -3.93667 -1.15993 0
M  V30 14452 H 1376.4 -2.97688 -2.57188 0
M  V30 14453 H 1378.42 -3.16713 -3.81978 0
M  V30 14454 N 1377.59 0.500963 -1.49426 0
M  V30 14455 C 1378.84 1.25171 -1.58162 0
M  V30 14456 C 1379.15 1.93678 -0.273556 0
M  V30 14457 O 1380.36 2.70442 -0.239462 0
M  V30 14458 C 1378.81 2.27276 -2.79059 0
M  V30 14459 C 1378.42 1.64708 -4.16624 0
M  V30 14460 C 1380.17 3.03178 -2.97125 0
M  V30 14461 C 1378.07 2.64923 -5.28743 0
M  V30 14462 H 1377 0.470867 -0.588897 0
M  V30 14463 H 1379.65 0.525569 -1.75812 0
M  V30 14464 H 1378.04 3.03052 -2.54903 0
M  V30 14465 H 1379.21 0.949231 -4.50917 0
M  V30 14466 H 1377.52 1.01195 -4.03916 0
M  V30 14467 H 1380.12 3.78122 -3.78058 0
M  V30 14468 H 1380.46 3.60793 -2.07687 0
M  V30 14469 H 1381 2.34517 -3.2132 0
M  V30 14470 H 1377.74 2.12089 -6.20241 0
M  V30 14471 H 1377.26 3.32948 -4.98904 0
M  V30 14472 H 1378.94 3.27349 -5.58079 0
M  V30 14473 N 1379.07 1.38501 0.752011 0
M  V30 14474 C 1380.01 1.35857 1.86578 0
M  V30 14475 C 1380.98 0.220873 1.64625 0
M  V30 14476 O 1382.17 0.413348 1.86269 0
M  V30 14477 C 1379.31 1.19102 3.23896 0
M  V30 14478 C 1378.42 2.42272 3.5767 0
M  V30 14479 C 1377.56 2.18236 4.843 0
M  V30 14480 C 1376.6 3.37169 5.10865 0
M  V30 14481 N 1375.73 3.12558 6.28691 0
M  V30 14482 H 1380.57 2.31073 1.88173 0
M  V30 14483 H 1378.11 1.14803 0.919712 0
M  V30 14484 H 1380.07 1.07404 4.03138 0
M  V30 14485 H 1378.7 0.275243 3.21624 0
M  V30 14486 H 1377.75 2.64638 2.7326 0
M  V30 14487 H 1379.06 3.3091 3.73229 0
M  V30 14488 H 1378.22 2.03682 5.71488 0
M  V30 14489 H 1376.96 1.26966 4.70883 0
M  V30 14490 H 1375.96 3.52241 4.22145 0
M  V30 14491 H 1377.19 4.29317 5.26178 0
M  V30 14492 H 1375.13 2.23937 6.16594 0
M  V30 14493 H 1375.05 3.94746 6.44757 0
M  V30 14494 H 1376.32 3.01663 7.18763 0
M  V30 14495 N 1380.55 -0.980364 1.23396 0
M  V30 14496 C 1381.48 -2.0908 1.0396 0
M  V30 14497 C 1382.46 -1.70044 -0.0434946 0
M  V30 14498 O 1383.64 -1.93822 0.121155 0
M  V30 14499 C 1380.77 -3.41537 0.630061 0
M  V30 14500 C 1379.73 -3.94476 1.66051 0
M  V30 14501 C 1379.05 -5.23128 1.10641 0
M  V30 14502 C 1380.35 -4.23741 3.05354 0
M  V30 14503 H 1382.05 -2.25598 1.9684 0
M  V30 14504 H 1379.59 -1.08409 0.94781 0
M  V30 14505 H 1381.54 -4.18644 0.481145 0
M  V30 14506 H 1380.27 -3.24883 -0.334416 0
M  V30 14507 H 1378.93 -3.19513 1.79742 0
M  V30 14508 H 1378.58 -5.02824 0.132913 0
M  V30 14509 H 1378.28 -5.59515 1.79492 0
M  V30 14510 H 1379.8 -6.02857 0.969344 0
M  V30 14511 H 1381.21 -4.91598 2.94964 0
M  V30 14512 H 1379.61 -4.71329 3.71442 0
M  V30 14513 H 1380.68 -3.31012 3.54343 0
M  V30 14514 N 1382.02 -1.04567 -1.17913 0
M  V30 14515 C 1382.99 -0.645476 -2.19923 0
M  V30 14516 C 1383.99 0.299763 -1.57981 0
M  V30 14517 O 1385.18 0.0844825 -1.73995 0
M  V30 14518 C 1382.31 0.0528935 -3.40859 0
M  V30 14519 H 1383.5 -1.54828 -2.56843 0
M  V30 14520 H 1381.05 -0.838812 -1.31885 0
M  V30 14521 H 1381.79 0.969261 -3.09477 0
M  V30 14522 H 1381.57 -0.626558 -3.87062 0
M  V30 14523 H 1383.06 0.319221 -4.16378 0
M  V30 14524 N 1383.5 1.34231 -0.825823 0
M  V30 14525 C 1384.78 1.92662 -0.337743 0
M  V30 14526 C 1385.16 1.75358 1.17529 0
M  V30 14527 O 1384.51 1.13405 1.98372 0
M  V30 14528 C 1384.72 3.40394 -0.770269 0
M  V30 14529 C 1386.06 4.17546 -0.770767 0
M  V30 14530 O 1387.09 3.4899 -0.713035 0
M  V30 14531 O 1385.95 5.39903 -0.846602 0
M  V30 14532 H 1383.04 0.821768 -0.0928741 0
M  V30 14533 H 1385.59 1.43187 -0.910807 0
M  V30 14534 H 1384.36 3.46802 -1.81228 0
M  V30 14535 H 1383.98 3.97223 -0.17306 0
M  V30 14536 N 1384.98 0.581051 1.46498 0
M  V30 14537 C 1386.23 0.0637189 2.01599 0
M  V30 14538 C 1386.54 -1.30353 1.45834 0
M  V30 14539 O 1387.75 -1.91211 1.92745 0
M  V30 14540 C 1386.2 0.0633254 3.59844 0
M  V30 14541 C 1385.81 1.42879 4.24605 0
M  V30 14542 C 1387.56 -0.400149 4.2261 0
M  V30 14543 C 1385.46 1.38621 5.74924 0
M  V30 14544 H 1384.39 0.0200512 0.753733 0
M  V30 14545 H 1387.04 0.732451 1.68248 0
M  V30 14546 H 1385.43 -0.671538 3.90264 0
M  V30 14547 H 1386.6 2.18325 4.05796 0
M  V30 14548 H 1384.91 1.83215 3.73927 0
M  V30 14549 H 1387.51 -0.450771 5.32797 0
M  V30 14550 H 1387.85 -1.41733 3.9143 0
M  V30 14551 H 1388.39 0.280598 3.96809 0
M  V30 14552 H 1385.13 2.38014 6.10761 0
M  V30 14553 H 1384.65 0.673926 5.96002 0
M  V30 14554 H 1386.33 1.09841 6.37608 0
M  V30 14555 N 1386.46 -1.54343 0.318742 0
M  V30 14556 C 1387.41 -2.25634 -0.56497 0
M  V30 14557 C 1388.4 -1.26869 -1.12252 0
M  V30 14558 O 1389.61 -1.44662 -1.07112 0
M  V30 14559 H 1385.98 -0.724686 -0.200834 0
M  V30 14560 H 1387.95 -2.98342 0.0586393 0
M  V30 14561 C 1386.7 -3.0237 -1.71662 0
M  V30 14562 H 1386.02 -3.78183 -1.29684 0
M  V30 14563 H 1387.46 -3.55507 -2.31065 0
M  V30 14564 C 1385.92 -2.10383 -2.63136 0
M  V30 14565 O 1386.45 -1.68351 -3.6472 0
M  V30 14566 N 1384.66 -1.75971 -2.31263 0
M  V30 14567 H 1384.21 -2.10349 -1.48698 0
M  V30 14568 H 1384.16 -1.14702 -2.9273 0
M  V30 14569 N 1387.94 -0.0468143 -1.5753 0
M  V30 14570 C 1389.18 0.626699 -1.92138 0
M  V30 14571 C 1389.5 1.7164 -0.925463 0
M  V30 14572 O 1388.77 1.95876 0.0303531 0
M  V30 14573 H 1387.35 0.234479 -0.709245 0
M  V30 14574 H 1390.02 -0.0987892 -1.94649 0
M  V30 14575 H 1389.11 1.06811 -2.93254 0
M  V30 14576 N 1389.41 1.55964 0.226527 0
M  V30 14577 C 1390.83 1.68978 0.793936 0
M  V30 14578 C 1391.18 0.647938 1.85192 0
M  V30 14579 O 1390.3 -0.201907 2.15456 0
M  V30 14580 C 1390.9 3.06351 1.44687 0
M  V30 14581 C 1389.46 3.21237 1.96173 0
M  V30 14582 C 1388.6 2.64896 0.8201 0
M  V30 14583 H 1391.55 1.587 0.00195967 0
M  V30 14584 H 1391.57 3.01932 2.31554 0
M  V30 14585 H 1391.09 3.82156 0.676611 0
M  V30 14586 H 1389.19 2.50292 2.76016 0
M  V30 14587 H 1389.3 4.28394 2.14512 0
M  V30 14588 H 1387.66 2.23247 1.22609 0
M  V30 14589 H 1388.45 3.43243 0.0625967 0
M  V30 14590 N 1390.89 -0.493031 1.4969 0
M  V30 14591 C 1391.86 -1.57598 1.6642 0
M  V30 14592 C 1392.86 -1.51615 0.535668 0
M  V30 14593 O 1394.05 -1.54626 0.802283 0
M  V30 14594 C 1391.18 -2.97249 1.66901 0
M  V30 14595 H 1392.37 -1.4409 2.63017 0
M  V30 14596 H 1389.92 -0.717846 1.3884 0
M  V30 14597 H 1390.66 -3.16225 0.719164 0
M  V30 14598 H 1390.44 -3.02999 2.48865 0
M  V30 14599 H 1391.93 -3.75914 1.81874 0
M  V30 14600 N 1392.37 -1.38898 -0.744656 0
M  V30 14601 C 1393.32 -1.36845 -1.85855 0
M  V30 14602 C 1394.29 -0.2296 -1.64505 0
M  V30 14603 O 1395.47 -0.423221 -1.86047 0
M  V30 14604 C 1392.61 -1.20818 -3.2326 0
M  V30 14605 C 1391.73 -2.44166 -3.5638 0
M  V30 14606 C 1390.86 -2.20801 -4.83136 0
M  V30 14607 C 1389.9 -3.39874 -5.0907 0
M  V30 14608 N 1389.04 -3.15888 -6.27024 0
M  V30 14609 H 1393.88 -2.32068 -1.86945 0
M  V30 14610 H 1391.41 -1.15289 -0.913611 0
M  V30 14611 H 1393.37 -1.0954 -4.02563 0
M  V30 14612 H 1392 -0.292295 -3.21474 0
M  V30 14613 H 1391.05 -2.66083 -2.71852 0
M  V30 14614 H 1392.37 -3.32885 -3.71469 0
M  V30 14615 H 1391.52 -2.0671 -5.704 0
M  V30 14616 H 1390.26 -1.29462 -4.70203 0
M  V30 14617 H 1389.26 -3.54474 -4.20271 0
M  V30 14618 H 1390.49 -4.32102 -5.23894 0
M  V30 14619 H 1388.43 -2.27204 -6.15398 0
M  V30 14620 H 1388.35 -3.9816 -6.42655 0
M  V30 14621 H 1389.62 -3.0547 -7.17153 0
M  V30 14622 N 1393.85 0.973806 -1.23914 0
M  V30 14623 C 1395.09 1.71852 -1.07678 0
M  V30 14624 C 1395.43 1.90357 0.384425 0
M  V30 14625 O 1394.7 1.46063 1.28436 0
M  V30 14626 C 1394.99 3.1129 -1.81026 0
M  V30 14627 C 1394.84 3.00315 -3.3486 0
M  V30 14628 C 1396.16 4.10835 -1.57805 0
M  V30 14629 H 1393.28 0.623749 -0.392564 0
M  V30 14630 H 1395.92 1.13325 -1.52504 0
M  V30 14631 H 1394.07 3.61255 -1.42922 0
M  V30 14632 H 1395.74 2.57823 -3.82524 0
M  V30 14633 H 1393.98 2.36667 -3.63553 0
M  V30 14634 H 1394.65 3.9907 -3.81376 0
M  V30 14635 H 1397.13 3.69705 -1.90939 0
M  V30 14636 H 1396.01 5.06478 -2.11591 0
M  V30 14637 H 1396.27 4.39091 -0.514894 0
M  V30 14638 N 1395.33 1.05191 1.17357 0
M  V30 14639 C 1396.74 0.773255 1.39617 0
M  V30 14640 C 1396.94 -0.632346 1.91321 0
M  V30 14641 O 1396 -1.39475 2.10483 0
M  V30 14642 C 1397.31 1.82885 2.38692 0
M  V30 14643 C 1398.86 1.85106 2.52398 0
M  V30 14644 C 1399.33 2.89689 3.54746 0
M  V30 14645 N 1400.83 2.88651 3.62263 0
M  V30 14646 C 1401.56 3.66221 4.41214 0
M  V30 14647 N 1401.06 4.53577 5.23679 0
M  V30 14648 N 1402.85 3.54661 4.36087 0
M  V30 14649 H 1395 1.9588 0.82127 0
M  V30 14650 H 1397.26 0.848187 0.423417 0
M  V30 14651 H 1396.97 2.83766 2.07773 0
M  V30 14652 H 1396.84 1.67047 3.38194 0
M  V30 14653 H 1399.23 0.848896 2.82627 0
M  V30 14654 H 1399.31 2.05022 1.5297 0
M  V30 14655 H 1398.96 3.90091 3.25255 0
M  V30 14656 H 1398.89 2.67025 4.53878 0
M  V30 14657 H 1401.38 2.25312 3.03386 0
M  V30 14658 H 1401.69 5.09449 5.81104 0
M  V30 14659 H 1400.03 4.57638 5.23061 0
M  V30 14660 H 1403.23 2.8581 3.70716 0
M  V30 14661 H 1403.4 4.15361 4.97372 0
M  V30 14662 N 1396.8 -1.33791 0.83293 0
M  V30 14663 C 1398.08 -1.9248 0.347955 0
M  V30 14664 C 1398.46 -1.75978 -1.16597 0
M  V30 14665 O 1397.81 -1.14456 -1.97768 0
M  V30 14666 C 1398.02 -3.3998 0.78831 0
M  V30 14667 C 1399.37 -4.17131 0.7929 0
M  V30 14668 O 1400.39 -3.48607 0.731533 0
M  V30 14669 O 1399.25 -5.39446 0.875223 0
M  V30 14670 H 1396.34 -0.821264 0.0972309 0
M  V30 14671 H 1398.89 -1.42702 0.918387 0
M  V30 14672 H 1397.66 -3.45836 1.83065 0
M  V30 14673 H 1397.29 -3.97126 0.194123 0
M  V30 14674 N 1398.28 -0.588812 -1.46187 0
M  V30 14675 C 1399.21 0.128595 -2.33146 0
M  V30 14676 C 1400.19 0.877608 -1.45712 0
M  V30 14677 O 1401.38 0.851866 -1.74519 0
M  V30 14678 C 1398.51 1.13886 -3.28096 0
M  V30 14679 C 1397.46 0.504296 -4.25019 0
M  V30 14680 C 1396.79 1.62147 -5.09522 0
M  V30 14681 C 1398.09 -0.562466 -5.19263 0
M  V30 14682 H 1399.78 -0.597455 -2.93378 0
M  V30 14683 H 1397.33 -0.288764 -1.41075 0
M  V30 14684 H 1399.28 1.64916 -3.8779 0
M  V30 14685 H 1398.01 1.89527 -2.65983 0
M  V30 14686 H 1396.66 0.0150325 -3.66597 0
M  V30 14687 H 1396.31 2.36769 -4.4379 0
M  V30 14688 H 1396.01 1.20249 -5.75164 0
M  V30 14689 H 1397.54 2.13441 -5.7208 0
M  V30 14690 H 1398.95 -0.137003 -5.73136 0
M  V30 14691 H 1397.35 -0.902115 -5.93281 0
M  V30 14692 H 1398.42 -1.4464 -4.62825 0
M  V30 14693 N 1399.76 1.54172 -0.326923 0
M  V30 14694 C 1400.71 2.21189 0.553126 0
M  V30 14695 C 1401.69 1.19356 1.07903 0
M  V30 14696 O 1402.89 1.44972 1.01549 0
M  V30 14697 C 1400.02 2.97573 1.71188 0
M  V30 14698 C 1399.1 4.06748 1.20071 0
M  V30 14699 N 1399.49 5.0414 0.409473 0
M  V30 14700 C 1397.79 4.20759 1.47913 0
M  V30 14701 C 1398.49 5.81546 0.134036 0
M  V30 14702 N 1397.47 5.38796 0.721097 0
M  V30 14703 H 1401.27 2.93841 -0.0586462 0
M  V30 14704 H 1398.78 1.61855 -0.132947 0
M  V30 14705 H 1400.78 3.44072 2.35415 0
M  V30 14706 H 1399.44 2.26443 2.32709 0
M  V30 14707 H 1400.45 5.17874 0.0520181 0
M  V30 14708 H 1397.13 3.60844 2.09995 0
M  V30 14709 H 1398.52 6.70013 -0.503156 0
M  V30 14710 N 1401.24 0.0551678 1.57503 0
M  V30 14711 C 1402.17 -0.915714 2.14795 0
M  V30 14712 C 1403.15 -1.32179 1.07065 0
M  V30 14713 O 1404.33 -1.39579 1.35023 0
M  V30 14714 C 1401.46 -2.18916 2.69616 0
M  V30 14715 C 1400.42 -1.92303 3.82366 0
M  V30 14716 C 1399.74 -3.26136 4.23721 0
M  V30 14717 C 1401.04 -1.24146 5.07331 0
M  V30 14718 H 1402.74 -0.438499 2.96171 0
M  V30 14719 H 1400.28 -0.209477 1.42468 0
M  V30 14720 H 1402.24 -2.87239 3.08337 0
M  V30 14721 H 1400.96 -2.6885 1.85437 0
M  V30 14722 H 1399.62 -1.26391 3.44123 0
M  V30 14723 H 1399.27 -3.73879 3.36487 0
M  V30 14724 H 1398.97 -3.09126 4.99715 0
M  V30 14725 H 1400.49 -3.95684 4.65045 0
M  V30 14726 H 1401.91 -1.8251 5.43473 0
M  V30 14727 H 1400.3 -1.17449 5.88494 0
M  V30 14728 H 1401.37 -0.218073 4.84409 0
M  V30 14729 N 1402.72 -1.56081 -0.218252 0
M  V30 14730 C 1403.66 -1.92684 -1.27049 0
M  V30 14731 C 1404.63 -0.784441 -1.46409 0
M  V30 14732 O 1405.82 -1.04062 -1.59924 0
M  V30 14733 C 1402.96 -2.25174 -2.61516 0
M  V30 14734 C 1402.07 -3.52364 -2.49927 0
M  V30 14735 C 1401.21 -3.74286 -3.7694 0
M  V30 14736 C 1400.25 -4.94979 -3.60087 0
M  V30 14737 N 1399.38 -5.13273 -4.79057 0
M  V30 14738 H 1404.22 -2.82406 -0.951347 0
M  V30 14739 H 1401.76 -1.39774 -0.458441 0
M  V30 14740 H 1403.72 -2.42022 -3.39825 0
M  V30 14741 H 1402.35 -1.38621 -2.9152 0
M  V30 14742 H 1401.4 -3.43691 -1.63036 0
M  V30 14743 H 1402.71 -4.40826 -2.33397 0
M  V30 14744 H 1401.87 -3.91248 -4.63692 0
M  V30 14745 H 1400.6 -2.84111 -3.96399 0
M  V30 14746 H 1399.61 -4.77963 -2.71719 0
M  V30 14747 H 1400.83 -5.86641 -3.42095 0
M  V30 14748 H 1398.78 -4.26041 -4.98824 0
M  V30 14749 H 1398.7 -5.95873 -4.65265 0
M  V30 14750 H 1399.97 -5.34673 -5.67226 0
M  V30 14751 N 1404.2 0.485086 -1.49949 0
M  V30 14752 C 1405.44 1.23721 -1.61445 0
M  V30 14753 C 1405.8 1.89975 -0.304479 0
M  V30 14754 O 1405.09 1.78489 0.696567 0
M  V30 14755 C 1405.28 2.31573 -2.72229 0
M  V30 14756 C 1405.11 1.75898 -4.13872 0
M  V30 14757 C 1403.88 1.5649 -4.80457 0
M  V30 14758 C 1406.08 1.26181 -4.98581 0
M  V30 14759 N 1404.06 0.959112 -6.06361 0
M  V30 14760 C 1405.43 0.778367 -6.15095 0
M  V30 14761 C 1407.49 1.14903 -4.8446 0
M  V30 14762 C 1406.19 0.19329 -7.1904 0
M  V30 14763 C 1408.22 0.57791 -5.8857 0
M  V30 14764 C 1407.58 0.104777 -7.04322 0
M  V30 14765 H 1403.68 0.442115 -0.645026 0
M  V30 14766 H 1406.26 0.541572 -1.87016 0
M  V30 14767 H 1404.43 2.9858 -2.48404 0
M  V30 14768 H 1406.17 2.98607 -2.73159 0
M  V30 14769 H 1402.92 1.81316 -4.37517 0
M  V30 14770 H 1403.34 0.675032 -6.73626 0
M  V30 14771 H 1407.99 1.50079 -3.95267 0
M  V30 14772 H 1405.7 -0.170697 -8.0792 0
M  V30 14773 H 1409.29 0.493211 -5.79706 0
M  V30 14774 H 1408.17 -0.330245 -7.83504 0
M  V30 14775 N 1405.67 1.39291 0.737279 0
M  V30 14776 C 1406.9 1.39659 1.52653 0
M  V30 14777 C 1407.32 -0.00948259 1.88798 0
M  V30 14778 O 1406.67 -0.980249 1.53939 0
M  V30 14779 C 1406.72 2.2674 2.81552 0
M  V30 14780 O 1406.45 3.61871 2.46943 0
M  V30 14781 C 1407.95 2.35466 3.75594 0
M  V30 14782 H 1405.17 0.477108 0.471814 0
M  V30 14783 H 1407.71 1.83077 0.911205 0
M  V30 14784 H 1405.87 1.86741 3.39421 0
M  V30 14785 H 1406.28 4.07897 3.29728 0
M  V30 14786 H 1407.75 3.00649 4.62941 0
M  V30 14787 H 1408.23 1.37314 4.17183 0
M  V30 14788 H 1408.84 2.75925 3.23644 0
M  V30 14789 N 1407.15 -0.967221 1.24429 0
M  V30 14790 C 1408.06 -2.09582 1.05417 0
M  V30 14791 C 1409.08 -1.73999 -0.00516127 0
M  V30 14792 O 1410.25 -2.00472 0.193115 0
M  V30 14793 C 1407.32 -3.40327 0.661697 0
M  V30 14794 C 1406.38 -3.89854 1.79756 0
M  V30 14795 C 1405.61 -5.1436 1.42372 0
M  V30 14796 O 1405.84 -5.69536 0.313754 0
M  V30 14797 O 1404.77 -5.58283 2.24952 0
M  V30 14798 H 1408.6 -2.28517 2.00034 0
M  V30 14799 H 1406.18 -1.07978 1.03253 0
M  V30 14800 H 1408.06 -4.18943 0.454369 0
M  V30 14801 H 1406.74 -3.22691 -0.255348 0
M  V30 14802 H 1405.64 -3.12297 2.05964 0
M  V30 14803 H 1406.98 -4.11967 2.69339 0
M  V30 14804 N 1408.63 -1.05812 -1.16797 0
M  V30 14805 C 1409.88 -0.770398 -1.8684 0
M  V30 14806 C 1410.2 0.704986 -1.8181 0
M  V30 14807 O 1409.47 1.50977 -1.24832 0
M  V30 14808 H 1408.05 -0.281989 -0.691731 0
M  V30 14809 H 1410.71 -1.33859 -1.41661 0
M  V30 14810 H 1409.81 -1.09094 -2.92412 0
M  V30 14811 N 1410.11 1.33347 -0.840014 0
M  V30 14812 C 1411.36 1.97007 -0.432581 0
M  V30 14813 C 1411.67 1.67278 1.01378 0
M  V30 14814 O 1412.88 2.2456 1.52595 0
M  V30 14815 C 1411.33 3.52572 -0.72258 0
M  V30 14816 C 1410.94 3.91176 -2.1837 0
M  V30 14817 C 1412.68 4.22776 -0.382153 0
M  V30 14818 C 1410.59 5.39724 -2.41768 0
M  V30 14819 H 1409.52 0.737255 -0.158024 0
M  V30 14820 H 1412.17 1.5195 -1.02876 0
M  V30 14821 H 1410.55 3.9596 -0.0560179 0
M  V30 14822 H 1411.73 3.58842 -2.89083 0
M  V30 14823 H 1410.04 3.33956 -2.48721 0
M  V30 14824 H 1412.64 5.32021 -0.534588 0
M  V30 14825 H 1412.98 4.10792 0.674967 0
M  V30 14826 H 1413.52 3.84922 -1.004 0
M  V30 14827 H 1410.25 5.56713 -3.4605 0
M  V30 14828 H 1409.77 5.73514 -1.75617 0
M  V30 14829 H 1411.45 6.06624 -2.2498 0
M  V30 14830 N 1411.59 0.596556 1.45873 0
M  V30 14831 C 1412.83 0.0875879 2.02611 0
M  V30 14832 C 1413.16 -1.27438 1.46538 0
M  V30 14833 O 1412.44 -1.83815 0.635779 0
M  V30 14834 C 1412.72 0.0367394 3.60081 0
M  V30 14835 C 1412.58 1.42859 4.26511 0
M  V30 14836 C 1413.89 -0.656795 4.35171 0
M  V30 14837 H 1411.01 0.0333031 0.736247 0
M  V30 14838 H 1413.66 0.766413 1.73857 0
M  V30 14839 H 1411.81 -0.541345 3.8471 0
M  V30 14840 H 1413.48 2.0529 4.13102 0
M  V30 14841 H 1411.72 1.99243 3.85337 0
M  V30 14842 H 1412.39 1.34535 5.35354 0
M  V30 14843 H 1414.87 -0.165553 4.15771 0
M  V30 14844 H 1413.74 -0.661445 5.449 0
M  V30 14845 H 1414 -1.72079 4.07236 0
M  V30 14846 N 1413.06 -1.53996 0.335095 0
M  V30 14847 C 1414.01 -2.26221 -0.541007 0
M  V30 14848 C 1415.01 -1.28053 -1.109 0
M  V30 14849 O 1416.21 -1.4579 -1.05571 0
M  V30 14850 H 1412.59 -0.726775 -0.193136 0
M  V30 14851 H 1414.56 -2.98263 0.0902792 0
M  V30 14852 C 1413.31 -3.04173 -1.68445 0
M  V30 14853 H 1412.63 -3.79537 -1.25665 0
M  V30 14854 H 1414.07 -3.57937 -2.27282 0
M  V30 14855 C 1412.53 -2.13162 -2.6089 0
M  V30 14856 O 1413.06 -1.7221 -3.62914 0
M  V30 14857 N 1411.26 -1.78414 -2.29384 0
M  V30 14858 H 1410.81 -2.11914 -1.46458 0
M  V30 14859 H 1410.77 -1.178 -2.91497 0
M  V30 14860 N 1414.54 -0.0635198 -1.57472 0
M  V30 14861 C 1415.45 0.921531 -2.15743 0
M  V30 14862 C 1416.47 1.33294 -1.11842 0
M  V30 14863 O 1417.64 1.40733 -1.4407 0
M  V30 14864 C 1414.71 2.17378 -2.70088 0
M  V30 14865 C 1413.77 1.81956 -3.88832 0
M  V30 14866 C 1413 3.01211 -4.40577 0
M  V30 14867 O 1413.23 4.14971 -3.9135 0
M  V30 14868 O 1412.16 2.81507 -5.32012 0
M  V30 14869 H 1415.99 0.455899 -3.00259 0
M  V30 14870 H 1413.57 0.159085 -1.48551 0
M  V30 14871 H 1415.45 2.90826 -3.04956 0
M  V30 14872 H 1414.13 2.63055 -1.88637 0
M  V30 14873 H 1413.03 1.05786 -3.58832 0
M  V30 14874 H 1414.37 1.41069 -4.71551 0
M  V30 14875 N 1416.02 1.56195 0.209972 0
M  V30 14876 C 1417.27 1.79745 0.932638 0
M  V30 14877 C 1417.59 0.634252 1.83868 0
M  V30 14878 O 1416.85 -0.380798 1.91959 0
M  V30 14879 C 1417.15 3.09154 1.79328 0
M  V30 14880 C 1416.81 4.38754 1.03949 0
M  V30 14881 C 1415.48 4.73965 0.831308 0
M  V30 14882 C 1417.83 5.18718 0.508031 0
M  V30 14883 C 1415.16 5.86646 0.0799547 0
M  V30 14884 C 1417.51 6.32182 -0.230037 0
M  V30 14885 C 1416.17 6.65986 -0.449366 0
M  V30 14886 H 1415.44 0.657732 0.341276 0
M  V30 14887 H 1418.09 1.90453 0.199998 0
M  V30 14888 H 1416.39 2.93618 2.59414 0
M  V30 14889 H 1418.09 3.24578 2.35478 0
M  V30 14890 H 1414.68 4.11114 1.21174 0
M  V30 14891 H 1418.87 4.91941 0.656306 0
M  V30 14892 H 1414.12 6.11318 -0.100092 0
M  V30 14893 H 1418.3 6.93367 -0.649296 0
M  V30 14894 H 1415.92 7.53142 -1.03349 0
M  V30 14895 N 1417.5 -0.477127 1.50204 0
M  V30 14896 C 1418.73 -1.25126 1.64399 0
M  V30 14897 C 1419.14 -1.86401 0.32424 0
M  V30 14898 O 1418.48 -1.69711 -0.703119 0
M  V30 14899 C 1418.54 -2.40428 2.67273 0
M  V30 14900 C 1418.2 -1.99837 4.10992 0
M  V30 14901 C 1419.2 -1.52435 4.97051 0
M  V30 14902 C 1416.89 -2.08742 4.56872 0
M  V30 14903 C 1418.88 -1.14472 6.27037 0
M  V30 14904 C 1416.57 -1.70391 5.86865 0
M  V30 14905 C 1417.57 -1.23333 6.71772 0
M  V30 14906 O 1417.25 -0.855111 7.99339 0
M  V30 14907 H 1416.99 -0.384801 0.555791 0
M  V30 14908 H 1419.54 -0.576654 1.97139 0
M  V30 14909 H 1417.77 -3.1104 2.29763 0
M  V30 14910 H 1419.46 -3.02406 2.7075 0
M  V30 14911 H 1420.22 -1.44981 4.62823 0
M  V30 14912 H 1416.1 -2.44319 3.90934 0
M  V30 14913 H 1419.65 -0.776712 6.93263 0
M  V30 14914 H 1415.54 -1.77501 6.20615 0
M  V30 14915 H 1416.31 -0.984492 8.12558 0
M  V30 14916 N 1418.98 -1.3968 -0.729882 0
M  V30 14917 C 1419.89 -1.41094 -1.87429 0
M  V30 14918 C 1420.9 -0.305142 -1.71303 0
M  V30 14919 O 1422.08 -0.54744 -1.93817 0
M  V30 14920 C 1419.14 -1.25786 -3.23077 0
M  V30 14921 C 1418.2 -2.46382 -3.5156 0
M  V30 14922 C 1417.44 -2.31795 -4.80735 0
M  V30 14923 O 1417.66 -1.32415 -5.54818 0
M  V30 14924 O 1416.59 -3.20883 -5.09232 0
M  V30 14925 H 1420.42 -2.37571 -1.89192 0
M  V30 14926 H 1418.01 -1.2085 -0.878389 0
M  V30 14927 H 1419.89 -1.19402 -4.0413 0
M  V30 14928 H 1418.56 -0.324065 -3.22074 0
M  V30 14929 H 1417.47 -2.58343 -2.70573 0
M  V30 14930 H 1418.8 -3.38473 -3.57347 0
M  V30 14931 N 1420.45 0.960609 -1.2494 0
M  V30 14932 C 1421.39 2.05948 -1.00588 0
M  V30 14933 C 1422.4 1.62777 0.0271261 0
M  V30 14934 O 1423.59 1.77252 -0.210739 0
M  V30 14935 C 1420.69 3.35228 -0.497521 0
M  V30 14936 C 1419.86 4.0727 -1.59531 0
M  V30 14937 C 1418.92 5.14822 -1.08836 0
M  V30 14938 O 1417.95 5.40602 -1.78153 0
M  V30 14939 N 1419.15 5.80453 0.0735067 0
M  V30 14940 H 1421.91 2.27411 -1.95204 0
M  V30 14941 H 1419.47 1.12874 -1.16065 0
M  V30 14942 H 1421.47 4.04447 -0.142979 0
M  V30 14943 H 1420.04 3.10583 0.354546 0
M  V30 14944 H 1419.26 3.32231 -2.12171 0
M  V30 14945 H 1420.54 4.52161 -2.33299 0
M  V30 14946 H 1419.94 5.6192 0.652848 0
M  V30 14947 H 1418.5 6.50754 0.369132 0
M  V30 14948 N 1421.93 1.0643 1.16234 0
M  V30 14949 C 1423.18 0.780296 1.86429 0
M  V30 14950 C 1423.5 -0.695335 1.82181 0
M  V30 14951 O 1422.77 -1.50312 1.2563 0
M  V30 14952 H 1421.35 0.285654 0.690225 0
M  V30 14953 H 1424.01 1.34609 1.40949 0
M  V30 14954 H 1423.11 1.10644 2.91829 0
M  V30 14955 N 1423.41 -1.329 0.847073 0
M  V30 14956 C 1424.69 -1.921 0.368351 0
M  V30 14957 C 1425.07 -1.77205 -1.14724 0
M  V30 14958 O 1424.42 -1.16547 -1.96543 0
M  V30 14959 C 1424.63 -3.39125 0.824326 0
M  V30 14960 C 1425.97 -4.16267 0.837097 0
M  V30 14961 O 1427 -3.47812 0.768466 0
M  V30 14962 O 1425.86 -5.38487 0.932389 0
M  V30 14963 H 1422.95 -0.820187 0.105936 0
M  V30 14964 H 1425.5 -1.41719 0.933471 0
M  V30 14965 H 1424.27 -3.43875 1.86723 0
M  V30 14966 H 1423.89 -3.96898 0.236233 0
M  V30 14967 N 1424.89 -0.604284 -1.45555 0
M  V30 14968 C 1425.8 0.118409 -2.34301 0
M  V30 14969 C 1426.81 0.863807 -1.51044 0
M  V30 14970 O 1427.99 0.822138 -1.83856 0
M  V30 14971 C 1425.06 1.10538 -3.28606 0
M  V30 14972 C 1424.12 0.362301 -4.27768 0
M  V30 14973 C 1423.35 1.30226 -5.17568 0
M  V30 14974 O 1423.57 2.53991 -5.10729 0
M  V30 14975 O 1422.51 0.801116 -5.96545 0
M  V30 14976 H 1426.33 -0.610816 -2.97494 0
M  V30 14977 H 1423.92 -0.364562 -1.44884 0
M  V30 14978 H 1425.8 1.67392 -3.86727 0
M  V30 14979 H 1424.47 1.81569 -2.67982 0
M  V30 14980 H 1423.38 -0.248616 -3.73273 0
M  V30 14981 H 1424.71 -0.307454 -4.91239 0
M  V30 14982 N 1426.37 1.53816 -0.343257 0
M  V30 14983 C 1427.28 2.28716 0.522121 0
M  V30 14984 C 1428.29 1.33815 1.11218 0
M  V30 14985 O 1429.47 1.66853 1.12793 0
M  V30 14986 C 1426.53 3.04517 1.65741 0
M  V30 14987 C 1425.59 4.15043 1.09716 0
M  V30 14988 C 1424.83 4.8722 2.17835 0
M  V30 14989 O 1425.05 4.59065 3.38549 0
M  V30 14990 O 1423.98 5.73678 1.82145 0
M  V30 14991 H 1427.81 3.03576 -0.086732 0
M  V30 14992 H 1425.4 1.49007 -0.108313 0
M  V30 14993 H 1427.28 3.51921 2.31796 0
M  V30 14994 H 1425.95 2.32514 2.25208 0
M  V30 14995 H 1424.86 3.71943 0.401152 0
M  V30 14996 H 1426.19 4.89147 0.547362 0
M  V30 14997 N 1427.84 0.0718701 1.57436 0
M  V30 14998 C 1428.81 -0.880671 2.11605 0
M  V30 14999 C 1429.81 -1.22632 1.0401 0
M  V30 15000 O 1431 -1.15958 1.29997 0
M  V30 15001 C 1428.13 -2.18407 2.61746 0
M  V30 15002 H 1429.32 -0.410712 2.97074 0
M  V30 15003 H 1426.88 -0.176836 1.55296 0
M  V30 15004 H 1427.61 -2.6994 1.79731 0
M  V30 15005 H 1427.4 -1.94616 3.40392 0
M  V30 15006 H 1428.89 -2.86596 3.03731 0
M  V30 15007 N 1429.32 -1.56304 -0.201686 0
M  V30 15008 C 1430.27 -1.94901 -1.26949 0
M  V30 15009 C 1431.26 -0.833574 -1.47472 0
M  V30 15010 O 1432.47 -1.01854 -1.48411 0
M  V30 15011 H 1428.85 -0.619663 -0.426053 0
M  V30 15012 H 1430.82 -2.83964 -0.9169 0
M  V30 15013 C 1429.57 -2.29913 -2.60835 0
M  V30 15014 H 1428.89 -3.15268 -2.45858 0
M  V30 15015 H 1430.33 -2.60789 -3.34313 0
M  V30 15016 C 1428.79 -1.13136 -3.17335 0
M  V30 15017 O 1429.32 -0.402915 -3.99674 0
M  V30 15018 N 1427.52 -0.909912 -2.75987 0
M  V30 15019 H 1427.07 -1.50402 -2.09134 0
M  V30 15020 H 1427.03 -0.130348 -3.1413 0
M  V30 15021 N 1430.8 0.469154 -1.50455 0
M  V30 15022 C 1431.73 1.57493 -1.7239 0
M  V30 15023 C 1432.71 1.60161 -0.572915 0
M  V30 15024 O 1433.9 1.76397 -0.812259 0
M  V30 15025 C 1431.03 2.95804 -1.81981 0
M  V30 15026 C 1429.98 3.08001 -2.97185 0
M  V30 15027 C 1429.31 4.4798 -2.91922 0
M  V30 15028 C 1430.61 2.85039 -4.37665 0
M  V30 15029 H 1432.3 1.39389 -2.64974 0
M  V30 15030 H 1429.85 0.669133 -1.27509 0
M  V30 15031 H 1431.8 3.73091 -1.95911 0
M  V30 15032 H 1430.52 3.15068 -0.86021 0
M  V30 15033 H 1429.18 2.33148 -2.82909 0
M  V30 15034 H 1428.83 4.64165 -1.93803 0
M  V30 15035 H 1428.53 4.57076 -3.69263 0
M  V30 15036 H 1430.05 5.27284 -3.07903 0
M  V30 15037 H 1431.47 3.52074 -4.52456 0
M  V30 15038 H 1429.87 3.05578 -5.16471 0
M  V30 15039 H 1430.94 1.8088 -4.499 0
M  V30 15040 N 1432.28 1.40065 0.722464 0
M  V30 15041 C 1433.53 1.37698 1.47932 0
M  V30 15042 C 1433.85 -0.0222608 1.94987 0
M  V30 15043 O 1433.12 -0.975795 1.69868 0
M  V30 15044 H 1431.7 0.506766 0.548815 0
M  V30 15045 H 1434.36 1.75053 0.856884 0
M  V30 15046 H 1433.46 2.04756 2.35545 0
M  V30 15047 N 1433.76 -0.95397 1.25448 0
M  V30 15048 C 1434.69 -2.06828 1.08372 0
M  V30 15049 C 1435.67 -1.70098 -0.00741585 0
M  V30 15050 O 1436.85 -1.93521 0.16224 0
M  V30 15051 C 1433.98 -3.40124 0.702365 0
M  V30 15052 C 1432.94 -3.90865 1.74381 0
M  V30 15053 C 1432.26 -5.20663 1.21712 0
M  V30 15054 C 1433.56 -4.17169 3.14273 0
M  V30 15055 H 1435.26 -2.21372 2.01581 0
M  V30 15056 H 1432.8 -1.06374 0.970592 0
M  V30 15057 H 1434.76 -4.17529 0.569837 0
M  V30 15058 H 1433.48 -3.2552 -0.265428 0
M  V30 15059 H 1432.14 -3.15628 1.86479 0
M  V30 15060 H 1431.79 -5.02429 0.23954 0
M  V30 15061 H 1431.49 -5.55581 1.91319 0
M  V30 15062 H 1433.01 -6.00665 1.097 0
M  V30 15063 H 1434.43 -4.85231 3.05325 0
M  V30 15064 H 1432.82 -4.63344 3.81356 0
M  V30 15065 H 1433.89 -3.23421 3.61285 0
M  V30 15066 N 1435.24 -1.07045 -1.15668 0
M  V30 15067 C 1436.65 -0.814932 -1.67975 0
M  V30 15068 C 1437 0.660408 -1.84751 0
M  V30 15069 O 1436.12 1.51156 -1.54857 0
M  V30 15070 C 1436.72 -1.47274 -3.05116 0
M  V30 15071 C 1435.28 -1.26481 -3.54513 0
M  V30 15072 C 1434.42 -1.54439 -2.30312 0
M  V30 15073 H 1437.37 -1.23291 -0.999251 0
M  V30 15074 H 1437.4 -0.892244 -3.69891 0
M  V30 15075 H 1436.91 -2.54649 -2.92874 0
M  V30 15076 H 1435.01 -0.211138 -3.72001 0
M  V30 15077 H 1435.12 -1.98283 -4.36143 0
M  V30 15078 H 1433.49 -0.965269 -2.357 0
M  V30 15079 H 1434.27 -2.6299 -2.20661 0
M  V30 15080 N 1436.71 1.32449 -0.85411 0
M  V30 15081 C 1437.96 1.96537 -0.453451 0
M  V30 15082 C 1438.28 1.68344 0.995982 0
M  V30 15083 O 1439.48 2.26166 1.50204 0
M  V30 15084 C 1437.94 3.51785 -0.759934 0
M  V30 15085 C 1437.55 3.88838 -2.22506 0
M  V30 15086 C 1439.29 4.22347 -0.426973 0
M  V30 15087 C 1437.2 5.37129 -2.47479 0
M  V30 15088 H 1436.13 0.735537 -0.165835 0
M  V30 15089 H 1438.78 1.50851 -1.04481 0
M  V30 15090 H 1437.16 3.95879 -0.0980116 0
M  V30 15091 H 1438.33 3.55756 -2.92873 0
M  V30 15092 H 1436.65 3.31299 -2.52249 0
M  V30 15093 H 1439.25 5.31424 -0.590986 0
M  V30 15094 H 1439.59 4.11485 0.631359 0
M  V30 15095 H 1440.12 3.83835 -1.04477 0
M  V30 15096 H 1436.86 5.53012 -3.51935 0
M  V30 15097 H 1436.38 5.71619 -1.8169 0
M  V30 15098 H 1438.06 6.04204 -2.31401 0
M  V30 15099 N 1438.19 0.611994 1.45232 0
M  V30 15100 C 1439.42 0.113618 2.07089 0
M  V30 15101 C 1439.84 -1.1947 1.45288 0
M  V30 15102 O 1439.2 -1.72845 0.547207 0
M  V30 15103 C 1439.25 -0.00789978 3.60599 0
M  V30 15104 O 1438.35 -1.05697 3.98625 0
M  V30 15105 H 1437.69 0.076066 0.659629 0
M  V30 15106 H 1440.22 0.843253 1.86415 0
M  V30 15107 H 1440.23 -0.204692 4.07486 0
M  V30 15108 H 1438.91 0.947386 4.04966 0
M  V30 15109 H 1437.48 -0.836291 3.63401 0
M  V30 15110 N 1439.67 -1.53632 0.351409 0
M  V30 15111 C 1441.08 -1.86241 -0.130834 0
M  V30 15112 C 1441.43 -1.27243 -1.49344 0
M  V30 15113 O 1440.56 -0.589006 -2.0823 0
M  V30 15114 C 1441.15 -3.37919 -0.244179 0
M  V30 15115 C 1439.71 -3.70377 -0.670662 0
M  V30 15116 C 1438.86 -2.76643 0.190813 0
M  V30 15117 H 1441.81 -1.48083 0.570724 0
M  V30 15118 H 1441.83 -3.65137 -1.07029 0
M  V30 15119 H 1441.34 -3.8083 0.747688 0
M  V30 15120 H 1439.44 -3.33015 -1.67127 0
M  V30 15121 H 1439.56 -4.76934 -0.455102 0
M  V30 15122 H 1437.92 -2.52446 -0.338092 0
M  V30 15123 H 1438.7 -3.22385 1.17996 0
M  V30 15124 N 1441.15 -0.0802183 -1.57396 0
M  V30 15125 C 1442.39 0.586962 -1.93807 0
M  V30 15126 C 1442.72 1.69107 -0.960887 0
M  V30 15127 O 1441.98 1.95688 0.0220779 0
M  V30 15128 C 1442.28 1.19551 -3.36812 0
M  V30 15129 C 1441.94 0.216701 -4.50379 0
M  V30 15130 C 1440.6 -0.0525552 -4.81171 0
M  V30 15131 C 1442.96 -0.452467 -5.19232 0
M  V30 15132 C 1440.28 -0.997923 -5.78151 0
M  V30 15133 C 1442.64 -1.38621 -6.17225 0
M  V30 15134 C 1441.3 -1.66385 -6.4643 0
M  V30 15135 H 1440.57 0.214785 -0.709189 0
M  V30 15136 H 1443.22 -0.152888 -1.90889 0
M  V30 15137 H 1441.52 2.01129 -3.36236 0
M  V30 15138 H 1443.22 1.71918 -3.62278 0
M  V30 15139 H 1439.81 0.436747 -4.26369 0
M  V30 15140 H 1443.99 -0.257573 -4.95631 0
M  V30 15141 H 1439.25 -1.22019 -5.991 0
M  V30 15142 H 1443.42 -1.91063 -6.69677 0
M  V30 15143 H 1441.05 -2.39799 -7.21388 0
M  V30 15144 N 1442.63 1.56409 0.193394 0
M  V30 15145 C 1443.56 1.89745 1.26776 0
M  V30 15146 C 1444.54 0.75773 1.43865 0
M  V30 15147 O 1445.72 1.0089 1.59228 0
M  V30 15148 C 1442.85 2.12913 2.63412 0
M  V30 15149 C 1441.89 3.35614 2.63183 0
M  V30 15150 S 1442.73 4.90686 2.14448 0
M  V30 15151 C 1443.88 5.16923 3.52904 0
M  V30 15152 H 1444.12 2.80575 0.983105 0
M  V30 15153 H 1441.65 1.4921 0.396965 0
M  V30 15154 H 1443.61 2.26943 3.42063 0
M  V30 15155 H 1442.27 1.2283 2.89088 0
M  V30 15156 H 1441.46 3.48957 3.63655 0
M  V30 15157 H 1441.06 3.20586 1.92615 0
M  V30 15158 H 1443.35 5.07548 4.48778 0
M  V30 15159 H 1444.3 6.18673 3.44455 0
M  V30 15160 H 1444.71 4.44555 3.47895 0
M  V30 15161 N 1444.1 -0.461169 1.50702 0
M  V30 15162 C 1445.38 -1.22225 1.52711 0
M  V30 15163 C 1445.76 -2.09268 0.27749 0
M  V30 15164 O 1445.11 -2.16232 -0.738642 0
M  V30 15165 C 1445.32 -2.04472 2.82829 0
M  V30 15166 C 1446.67 -2.62326 3.33872 0
M  V30 15167 O 1447.69 -2.14706 2.84218 0
M  V30 15168 O 1446.55 -3.49116 4.20453 0
M  V30 15169 H 1443.64 -0.555168 0.612958 0
M  V30 15170 H 1446.19 -0.47218 1.62999 0
M  V30 15171 H 1444.96 -1.40392 3.65247 0
M  V30 15172 H 1444.58 -2.86593 2.75591 0
M  V30 15173 N 1445.58 -1.40446 -0.715026 0
M  V30 15174 C 1447 -1.22488 -1.02317 0
M  V30 15175 C 1447.2 -0.100481 -2.01249 0
M  V30 15176 O 1446.25 0.541447 -2.46626 0
M  V30 15177 C 1447.57 -2.56682 -1.56636 0
M  V30 15178 C 1449.11 -2.63699 -1.68617 0
M  V30 15179 C 1449.59 -3.98163 -2.26342 0
M  V30 15180 N 1451.08 -3.99907 -2.33727 0
M  V30 15181 C 1451.82 -5.00737 -2.79375 0
M  V30 15182 N 1451.31 -6.11961 -3.24771 0
M  V30 15183 N 1453.1 -4.88106 -2.78764 0
M  V30 15184 H 1445.26 -2.12317 -0.0592712 0
M  V30 15185 H 1447.52 -0.943823 -0.088895 0
M  V30 15186 H 1447.22 -3.39615 -0.914036 0
M  V30 15187 H 1447.1 -2.77809 -2.55151 0
M  V30 15188 H 1449.49 -1.81138 -2.32966 0
M  V30 15189 H 1449.57 -2.46402 -0.687004 0
M  V30 15190 H 1449.21 -4.81164 -1.62614 0
M  V30 15191 H 1449.14 -4.1279 -3.26974 0
M  V30 15192 H 1451.63 -3.19592 -2.01666 0
M  V30 15193 H 1451.94 -6.84787 -3.58171 0
M  V30 15194 H 1450.29 -6.15525 -3.22729 0
M  V30 15195 H 1453.48 -4.00307 -2.42635 0
M  V30 15196 H 1453.65 -5.66828 -3.14023 0
M  V30 15197 N 1447.06 0.947303 -1.25952 0
M  V30 15198 C 1448.28 1.73261 -1.13997 0
M  V30 15199 C 1448.71 1.85666 0.301639 0
M  V30 15200 O 1448.07 1.34244 1.21854 0
M  V30 15201 C 1448.12 3.12046 -1.8072 0
M  V30 15202 O 1447.22 3.97684 -1.09182 0
M  V30 15203 H 1446.56 0.53182 -0.397572 0
M  V30 15204 H 1449.09 1.18689 -1.66656 0
M  V30 15205 H 1449.1 3.62468 -1.87299 0
M  V30 15206 H 1447.78 3.02334 -2.856 0
M  V30 15207 H 1446.35 3.56141 -1.10536 0
M  V30 15208 N 1448.54 1.07657 1.15099 0
M  V30 15209 C 1449.76 0.82291 1.90376 0
M  V30 15210 C 1450.19 -0.618415 1.77644 0
M  V30 15211 O 1449.55 -1.43248 1.11129 0
M  V30 15212 C 1449.59 1.23988 3.38614 0
M  V30 15213 O 1448.7 0.387085 4.10579 0
M  V30 15214 H 1448.04 0.299532 0.592602 0
M  V30 15215 H 1450.57 1.436 1.4574 0
M  V30 15216 H 1450.58 1.21741 3.89414 0
M  V30 15217 H 1449.25 2.28966 3.472 0
M  V30 15218 H 1447.83 0.472311 3.69897 0
M  V30 15219 N 1450.02 -1.31994 0.861122 0
M  V30 15220 C 1451.43 -1.79271 0.521437 0
M  V30 15221 C 1451.78 -1.71046 -0.96113 0
M  V30 15222 O 1450.9 -1.2729 -1.75003 0
M  V30 15223 C 1451.5 -3.25507 0.939731 0
M  V30 15224 C 1450.06 -3.70713 0.651845 0
M  V30 15225 C 1449.2 -2.52967 1.13592 0
M  V30 15226 H 1452.16 -1.19201 1.0477 0
M  V30 15227 H 1452.18 -3.79619 0.258754 0
M  V30 15228 H 1451.69 -3.3146 2.0188 0
M  V30 15229 H 1449.79 -3.70268 -0.416232 0
M  V30 15230 H 1449.9 -4.63236 1.22267 0
M  V30 15231 H 1448.27 -2.48558 0.555971 0
M  V30 15232 H 1449.05 -2.61671 2.22223 0
M  V30 15233 N 1451.49 -0.619688 -1.44906 0
M  V30 15234 C 1452.43 0.130316 -2.28829 0
M  V30 15235 C 1453.44 0.820039 -1.40639 0
M  V30 15236 O 1454.63 0.683401 -1.649 0
M  V30 15237 C 1451.73 1.20618 -3.16709 0
M  V30 15238 C 1450.9 0.60121 -4.33248 0
M  V30 15239 C 1449.96 1.56954 -5.02247 0
M  V30 15240 O 1448.99 1.09112 -5.58644 0
M  V30 15241 N 1450.19 2.90395 -5.02644 0
M  V30 15242 H 1452.95 -0.589867 -2.93838 0
M  V30 15243 H 1450.51 -0.460028 -1.55227 0
M  V30 15244 H 1452.51 1.85404 -3.59732 0
M  V30 15245 H 1451.08 1.82873 -2.53528 0
M  V30 15246 H 1450.3 -0.225015 -3.93557 0
M  V30 15247 H 1451.58 0.177471 -5.0849 0
M  V30 15248 H 1450.98 3.31855 -4.58136 0
M  V30 15249 H 1449.54 3.50572 -5.49493 0
M  V30 15250 N 1452.97 1.53444 -0.359552 0
M  V30 15251 C 1453.9 2.28475 0.4818 0
M  V30 15252 C 1454.88 1.30664 1.08908 0
M  V30 15253 O 1456.07 1.59527 1.10746 0
M  V30 15254 C 1453.2 3.06951 1.62477 0
M  V30 15255 C 1452.15 4.12399 1.14504 0
M  V30 15256 C 1451.48 4.78922 2.37777 0
M  V30 15257 C 1452.78 5.21775 0.234075 0
M  V30 15258 H 1454.47 2.99053 -0.144162 0
M  V30 15259 H 1452.02 1.43826 -0.0707746 0
M  V30 15260 H 1453.97 3.58186 2.21993 0
M  V30 15261 H 1452.7 2.34053 2.27787 0
M  V30 15262 H 1451.35 3.62101 0.572589 0
M  V30 15263 H 1451 4.02602 3.0153 0
M  V30 15264 H 1450.7 5.50175 2.06353 0
M  V30 15265 H 1452.23 5.32948 2.97991 0
M  V30 15266 H 1453.64 5.68549 0.736548 0
M  V30 15267 H 1452.04 6.00099 0.0109887 0
M  V30 15268 H 1453.11 4.79443 -0.725435 0
M  V30 15269 N 1454.45 0.0885642 1.57351 0
M  V30 15270 C 1455.41 -0.858178 2.12528 0
M  V30 15271 C 1456.41 -1.21522 1.05304 0
M  V30 15272 O 1457.6 -1.14573 1.3122 0
M  V30 15273 C 1454.74 -2.15619 2.64048 0
M  V30 15274 H 1455.93 -0.37918 2.97493 0
M  V30 15275 H 1453.48 -0.160354 1.55475 0
M  V30 15276 H 1454.22 -2.68018 1.82584 0
M  V30 15277 H 1454 -1.90995 3.42437 0
M  V30 15278 H 1455.49 -2.83359 3.06753 0
M  V30 15279 N 1455.93 -1.56509 -0.185096 0
M  V30 15280 C 1456.88 -1.95336 -1.22934 0
M  V30 15281 C 1457.85 -0.81532 -1.44713 0
M  V30 15282 O 1459.03 -1.07431 -1.57681 0
M  V30 15283 C 1456.17 -2.30671 -2.56681 0
M  V30 15284 C 1455.28 -3.57586 -2.42397 0
M  V30 15285 C 1454.42 -3.82197 -3.68916 0
M  V30 15286 C 1453.46 -5.02505 -3.49507 0
M  V30 15287 N 1452.59 -5.23319 -4.68062 0
M  V30 15288 H 1457.43 -2.84361 -0.89123 0
M  V30 15289 H 1454.97 -1.40715 -0.428689 0
M  V30 15290 H 1456.93 -2.49176 -3.34615 0
M  V30 15291 H 1455.56 -1.44773 -2.88514 0
M  V30 15292 H 1454.61 -3.47072 -1.55709 0
M  V30 15293 H 1455.92 -4.45677 -2.23994 0
M  V30 15294 H 1455.08 -4.00996 -4.55288 0
M  V30 15295 H 1453.82 -2.92455 -3.90284 0
M  V30 15296 H 1452.82 -4.83619 -2.6152 0
M  V30 15297 H 1454.05 -5.93765 -3.29574 0
M  V30 15298 H 1451.99 -4.36526 -4.89674 0
M  V30 15299 H 1451.91 -6.05608 -4.52521 0
M  V30 15300 H 1453.18 -5.46585 -5.55757 0
M  V30 15301 N 1457.41 0.45317 -1.50944 0
M  V30 15302 C 1458.34 1.55655 -1.74051 0
M  V30 15303 C 1459.32 1.59545 -0.58987 0
M  V30 15304 O 1460.5 1.75526 -0.830922 0
M  V30 15305 C 1457.63 2.93857 -1.85109 0
M  V30 15306 C 1456.59 3.04832 -3.00435 0
M  V30 15307 C 1455.91 4.44858 -2.96657 0
M  V30 15308 C 1457.21 2.80381 -4.40663 0
M  V30 15309 H 1458.91 1.36571 -2.66437 0
M  V30 15310 H 1456.45 0.655572 -1.28212 0
M  V30 15311 H 1458.41 3.70992 -1.99857 0
M  V30 15312 H 1457.13 3.14138 -0.893579 0
M  V30 15313 H 1455.79 2.30134 -2.85366 0
M  V30 15314 H 1455.44 4.62083 -1.98716 0
M  V30 15315 H 1455.14 4.53134 -3.7409 0
M  V30 15316 H 1456.66 5.23989 -3.13478 0
M  V30 15317 H 1458.07 3.47255 -4.56165 0
M  V30 15318 H 1456.47 3.00083 -5.19683 0
M  V30 15319 H 1457.54 1.76099 -4.51793 0
M  V30 15320 N 1458.88 1.40823 0.707568 0
M  V30 15321 C 1459.82 1.37646 1.83265 0
M  V30 15322 C 1460.83 0.280547 1.60365 0
M  V30 15323 O 1462.02 0.541453 1.7009 0
M  V30 15324 C 1459.12 1.12121 3.19816 0
M  V30 15325 C 1458.29 2.33522 3.69846 0
M  V30 15326 C 1457.35 2.04035 4.85032 0
M  V30 15327 O 1456.38 2.76971 4.97268 0
M  V30 15328 N 1457.58 1.02322 5.71411 0
M  V30 15329 H 1460.34 2.34612 1.86486 0
M  V30 15330 H 1457.9 1.35281 0.889424 0
M  V30 15331 H 1459.9 0.903663 3.94482 0
M  V30 15332 H 1458.47 0.237941 3.11693 0
M  V30 15333 H 1457.69 2.71055 2.86221 0
M  V30 15334 H 1458.97 3.14436 4.00009 0
M  V30 15335 H 1458.37 0.419311 5.64144 0
M  V30 15336 H 1456.93 0.865571 6.46027 0
M  V30 15337 N 1460.36 -0.94061 1.26453 0
M  V30 15338 C 1461.27 -2.07298 1.09839 0
M  V30 15339 C 1462.29 -1.73971 0.0317477 0
M  V30 15340 O 1463.46 -2.00017 0.235594 0
M  V30 15341 C 1460.53 -3.38847 0.733736 0
M  V30 15342 C 1459.59 -3.85954 1.87985 0
M  V30 15343 C 1458.82 -5.11224 1.5325 0
M  V30 15344 O 1459.05 -5.68743 0.434491 0
M  V30 15345 O 1457.98 -5.53386 2.36743 0
M  V30 15346 H 1461.81 -2.24222 2.04837 0
M  V30 15347 H 1459.39 -1.05763 1.0552 0
M  V30 15348 H 1461.27 -4.17885 0.543131 0
M  V30 15349 H 1459.95 -3.2316 -0.186843 0
M  V30 15350 H 1458.86 -3.07858 2.12542 0
M  V30 15351 H 1460.19 -4.06162 2.78017 0
M  V30 15352 N 1461.84 -1.08266 -1.14527 0
M  V30 15353 C 1463.07 -0.832994 -1.89937 0
M  V30 15354 C 1463.49 0.608985 -1.77969 0
M  V30 15355 O 1462.85 1.42657 -1.11887 0
M  V30 15356 C 1462.9 -1.25782 -3.37952 0
M  V30 15357 O 1462 -0.408853 -4.10368 0
M  V30 15358 H 1461.34 -0.30267 -0.591005 0
M  V30 15359 H 1463.87 -1.44371 -1.44977 0
M  V30 15360 H 1463.88 -1.23804 -3.88763 0
M  V30 15361 H 1462.56 -2.30804 -3.4598 0
M  V30 15362 H 1461.13 -0.49192 -3.69641 0
M  V30 15363 N 1463.32 1.31536 -0.86811 0
M  V30 15364 C 1464.57 1.96775 -0.47812 0
M  V30 15365 C 1464.89 1.68632 0.9692 0
M  V30 15366 O 1464.15 0.974357 1.6972 0
M  V30 15367 C 1464.45 3.50876 -0.679752 0
M  V30 15368 C 1464.11 3.99034 -2.09958 0
M  V30 15369 C 1462.78 4.11896 -2.48787 0
M  V30 15370 C 1465.13 4.24387 -3.02564 0
M  V30 15371 C 1462.46 4.47461 -3.79468 0
M  V30 15372 C 1464.81 4.61415 -4.32757 0
M  V30 15373 C 1463.47 4.72484 -4.71503 0
M  V30 15374 H 1462.74 0.720049 -0.174957 0
M  V30 15375 H 1465.39 1.56703 -1.10074 0
M  V30 15376 H 1463.69 3.91791 0.0260174 0
M  V30 15377 H 1465.39 3.994 -0.357855 0
M  V30 15378 H 1461.98 3.89518 -1.78811 0
M  V30 15379 H 1466.17 4.13947 -2.73791 0
M  V30 15380 H 1461.42 4.54227 -4.09252 0
M  V30 15381 H 1465.6 4.79985 -5.04566 0
M  V30 15382 H 1463.22 4.99798 -5.72806 0
M  V30 15383 N 1464.8 0.627364 1.44575 0
M  V30 15384 C 1466.05 0.127824 2.01295 0
M  V30 15385 C 1466.36 -1.25647 1.49907 0
M  V30 15386 O 1467.57 -1.84982 1.9873 0
M  V30 15387 C 1466.02 0.177775 3.59461 0
M  V30 15388 C 1465.63 1.56315 4.19845 0
M  V30 15389 C 1467.37 -0.265497 4.23669 0
M  V30 15390 C 1465.28 1.56842 5.70223 0
M  V30 15391 H 1464.21 0.0440205 0.752714 0
M  V30 15392 H 1466.86 0.785607 1.65833 0
M  V30 15393 H 1465.24 -0.547038 3.92203 0
M  V30 15394 H 1466.42 2.31125 3.98645 0
M  V30 15395 H 1464.73 1.95019 3.67909 0
M  V30 15396 H 1467.33 -0.281038 5.33961 0
M  V30 15397 H 1467.67 -1.29208 3.95741 0
M  V30 15398 H 1468.21 0.406698 3.95716 0
M  V30 15399 H 1464.94 2.57325 6.0288 0
M  V30 15400 H 1464.46 0.863198 5.93556 0
M  V30 15401 H 1466.14 1.30071 6.33791 0
M  V30 15402 N 1466.28 -1.53251 0.367684 0
M  V30 15403 C 1467.5 -2.05705 -0.222047 0
M  V30 15404 C 1467.92 -1.24104 -1.4228 0
M  V30 15405 O 1467.28 -0.282228 -1.80305 0
M  V30 15406 C 1467.33 -3.56257 -0.613475 0
M  V30 15407 O 1467.05 -4.34765 0.539558 0
M  V30 15408 C 1468.55 -4.24976 -1.26137 0
M  V30 15409 H 1465.77 -0.66989 -0.0385799 0
M  V30 15410 H 1468.31 -1.97602 0.526663 0
M  V30 15411 H 1466.47 -3.64503 -1.3121 0
M  V30 15412 H 1466.88 -5.24027 0.222699 0
M  V30 15413 H 1468.36 -5.31628 -1.4858 0
M  V30 15414 H 1468.83 -3.78828 -2.2223 0
M  V30 15415 H 1469.44 -4.20987 -0.604121 0
M  V30 15416 N 1467.75 -0.0969077 -1.57302 0
M  V30 15417 C 1468.7 0.872039 -2.10664 0
M  V30 15418 C 1469.69 1.24265 -1.02211 0
M  V30 15419 O 1470.88 1.21743 -1.28482 0
M  V30 15420 C 1468.01 2.13042 -2.69199 0
M  V30 15421 C 1467.09 1.78517 -3.84698 0
M  V30 15422 N 1467.49 1.14558 -4.92656 0
M  V30 15423 C 1465.78 2.08115 -3.94467 0
M  V30 15424 C 1466.48 0.986837 -5.73268 0
M  V30 15425 N 1465.46 1.50473 -5.22359 0
M  V30 15426 H 1469.26 0.373625 -2.91515 0
M  V30 15427 H 1466.78 0.10625 -1.62052 0
M  V30 15428 H 1468.77 2.83403 -3.05759 0
M  V30 15429 H 1467.43 2.63448 -1.89803 0
M  V30 15430 H 1468.44 0.812179 -5.11492 0
M  V30 15431 H 1465.12 2.60722 -3.26083 0
M  V30 15432 H 1466.51 0.48651 -6.70136 0
M  V30 15433 N 1469.23 1.56605 0.176793 0
M  V30 15434 C 1470.48 1.80875 0.892578 0
M  V30 15435 C 1470.79 0.673245 1.83648 0
M  V30 15436 O 1472 0.800732 2.59423 0
M  V30 15437 C 1470.46 3.20481 1.63768 0
M  V30 15438 C 1470.06 4.41885 0.737685 0
M  V30 15439 C 1471.81 3.54048 2.34202 0
M  V30 15440 C 1469.71 5.72512 1.48271 0
M  V30 15441 H 1468.64 0.674476 0.337042 0
M  V30 15442 H 1471.3 1.82922 0.145574 0
M  V30 15443 H 1469.68 3.12736 2.42924 0
M  V30 15444 H 1470.85 4.60797 -0.0165186 0
M  V30 15445 H 1469.17 4.16153 0.143277 0
M  V30 15446 H 1471.76 4.48886 2.90526 0
M  V30 15447 H 1472.11 2.78665 3.09276 0
M  V30 15448 H 1472.64 3.63322 1.61995 0
M  V30 15449 H 1469.38 6.5091 0.774399 0
M  V30 15450 H 1468.9 5.57586 2.21038 0
M  V30 15451 H 1470.58 6.14274 2.03165 0
M  V30 15452 N 1470.71 -0.445159 1.51182 0
M  V30 15453 C 1471.96 -1.19701 1.63705 0
M  V30 15454 C 1472.29 -1.91047 0.348511 0
M  V30 15455 O 1471.56 -1.83264 -0.651497 0
M  V30 15456 C 1471.85 -2.22021 2.83511 0
M  V30 15457 C 1471.7 -1.54809 4.2232 0
M  V30 15458 C 1473.02 -3.23083 2.9884 0
M  V30 15459 H 1470.14 -0.433818 0.595795 0
M  V30 15460 H 1472.78 -0.487276 1.83645 0
M  V30 15461 H 1470.93 -2.82551 2.66641 0
M  V30 15462 H 1472.6 -0.976774 4.5084 0
M  V30 15463 H 1470.84 -0.850596 4.25379 0
M  V30 15464 H 1471.52 -2.29289 5.02126 0
M  V30 15465 H 1473.99 -2.72601 3.14369 0
M  V30 15466 H 1472.87 -3.91978 3.84246 0
M  V30 15467 H 1473.13 -3.88732 2.1057 0
M  V30 15468 N 1472.19 -1.41197 -0.700089 0
M  V30 15469 C 1473.44 -1.40034 -1.45722 0
M  V30 15470 C 1473.76 -0.00876281 -1.94998 0
M  V30 15471 O 1473.03 0.948647 -1.71399 0
M  V30 15472 H 1471.61 -0.515433 -0.540683 0
M  V30 15473 H 1474.27 -1.76394 -0.828926 0
M  V30 15474 H 1473.36 -2.08477 -2.32258 0
M  V30 15475 N 1473.67 0.933891 -1.2695 0
M  V30 15476 C 1475.08 1.49578 -1.11728 0
M  V30 15477 C 1475.43 1.93895 0.299889 0
M  V30 15478 O 1474.55 1.806 1.19216 0
M  V30 15479 C 1475.15 2.71841 -2.02208 0
M  V30 15480 C 1473.71 3.24274 -1.9111 0
M  V30 15481 C 1472.85 1.97029 -1.95128 0
M  V30 15482 H 1475.8 0.748628 -1.39933 0
M  V30 15483 H 1475.83 3.46407 -1.57425 0
M  V30 15484 H 1475.34 2.39556 -3.05343 0
M  V30 15485 H 1473.44 3.61333 -0.909367 0
M  V30 15486 H 1473.55 3.90887 -2.77027 0
M  V30 15487 H 1471.92 2.13249 -1.39273 0
M  V30 15488 H 1472.7 1.67066 -2.99907 0
M  V30 15489 N 1475.14 1.08871 1.13951 0
M  V30 15490 C 1476.07 0.744715 2.21306 0
M  V30 15491 C 1477.05 -0.275019 1.67862 0
M  V30 15492 O 1478.24 -0.144339 1.93663 0
M  V30 15493 C 1475.37 0.158336 3.46939 0
M  V30 15494 C 1474.32 1.10695 4.13438 0
M  V30 15495 C 1473.65 0.382552 5.3333 0
M  V30 15496 C 1474.95 2.44704 4.61429 0
M  V30 15497 H 1476.64 1.6423 2.50337 0
M  V30 15498 H 1474.19 0.791088 1.20324 0
M  V30 15499 H 1476.14 -0.0943587 4.21294 0
M  V30 15500 H 1474.87 -0.774413 3.17286 0
M  V30 15501 H 1473.53 1.34482 3.41043 0
M  V30 15502 H 1473.17 -0.554153 4.99938 0
M  V30 15503 H 1472.87 1.01499 5.78767 0
M  V30 15504 H 1474.4 0.138023 6.10444 0
M  V30 15505 H 1475.81 2.25156 5.27236 0
M  V30 15506 H 1474.21 3.03684 5.17586 0
M  V30 15507 H 1475.28 3.05883 3.76249 0
M  V30 15508 N 1476.62 -1.31073 0.875073 0
M  V30 15509 C 1477.86 -1.98313 0.495116 0
M  V30 15510 C 1478.23 -1.67629 -0.93619 0
M  V30 15511 O 1479.43 -2.28122 -1.42176 0
M  V30 15512 C 1477.7 -3.49424 0.750847 0
M  V30 15513 S 1479.26 -4.36259 0.471512 0
M  V30 15514 H 1476.07 -0.686614 0.184613 0
M  V30 15515 H 1478.68 -1.59378 1.1322 0
M  V30 15516 H 1477.38 -3.69246 1.79124 0
M  V30 15517 H 1476.91 -3.9327 0.100946 0
M  V30 15518 H 1478.93 -4.91322 -0.69407 0
M  V30 15519 N 1478.1 -0.635022 -1.4424 0
M  V30 15520 C 1479.05 0.0797218 -2.32463 0
M  V30 15521 C 1480.04 0.831818 -1.47571 0
M  V30 15522 O 1481.25 0.744277 -1.63892 0
M  V30 15523 H 1477.62 0.0445532 -0.750679 0
M  V30 15524 H 1479.59 -0.682374 -2.90493 0
M  V30 15525 C 1478.34 1.04505 -3.31623 0
M  V30 15526 H 1477.67 0.475755 -3.96959 0
M  V30 15527 H 1479.11 1.51458 -3.96026 0
M  V30 15528 C 1477.57 2.13221 -2.60842 0
M  V30 15529 O 1478.1 3.21357 -2.41025 0
M  V30 15530 N 1476.3 1.89264 -2.20516 0
M  V30 15531 H 1475.85 1.01329 -2.36834 0
M  V30 15532 H 1475.81 2.62203 -1.73484 0
M  V30 15533 N 1479.58 1.53054 -0.375806 0
M  V30 15534 C 1480.8 2.06296 0.213708 0
M  V30 15535 C 1481.23 1.24675 1.40846 0
M  V30 15536 O 1480.59 0.268371 1.79303 0
M  V30 15537 C 1480.63 3.55981 0.575301 0
M  V30 15538 O 1479.74 3.77023 1.67115 0
M  V30 15539 H 1479.08 0.66338 0.0286922 0
M  V30 15540 H 1481.61 1.97362 -0.539371 0
M  V30 15541 H 1481.62 3.99187 0.843431 0
M  V30 15542 H 1480.29 4.14829 -0.298258 0
M  V30 15543 H 1478.87 3.45712 1.39778 0
M  V30 15544 N 1481.06 0.105248 1.57248 0
M  V30 15545 C 1482.29 -0.563339 1.98771 0
M  V30 15546 C 1482.69 -1.6163 0.98348 0
M  V30 15547 O 1482.04 -1.83669 -0.0337474 0
M  V30 15548 C 1482.1 -1.26026 3.36686 0
M  V30 15549 C 1481.76 -0.356865 4.55605 0
M  V30 15550 C 1482.76 0.399055 5.18366 0
M  V30 15551 C 1480.45 -0.271954 5.01563 0
M  V30 15552 C 1482.44 1.22776 6.25464 0
M  V30 15553 C 1480.13 0.560395 6.08525 0
M  V30 15554 C 1481.12 1.30889 6.70341 0
M  V30 15555 O 1480.81 2.12745 7.75239 0
M  V30 15556 H 1480.54 -0.154882 0.658018 0
M  V30 15557 H 1483.1 0.184266 2.04572 0
M  V30 15558 H 1481.33 -2.05465 3.27599 0
M  V30 15559 H 1483.02 -1.82439 3.62589 0
M  V30 15560 H 1483.78 0.343247 4.83784 0
M  V30 15561 H 1479.66 -0.844224 4.53204 0
M  V30 15562 H 1483.21 1.81248 6.73643 0
M  V30 15563 H 1479.1 0.617647 6.42538 0
M  V30 15564 H 1479.87 2.05537 7.92273 0
M  V30 15565 N 1482.53 -1.56697 -0.168486 0
M  V30 15566 C 1483.81 -1.73032 -0.912097 0
M  V30 15567 C 1484.19 -0.667424 -2.00271 0
M  V30 15568 O 1483.54 0.317307 -2.26286 0
M  V30 15569 C 1483.75 -3.16334 -1.47424 0
M  V30 15570 C 1485.1 -3.77378 -1.94606 0
M  V30 15571 O 1486.12 -3.19629 -1.57212 0
M  V30 15572 O 1484.98 -4.78781 -2.63497 0
M  V30 15573 H 1482.07 -0.706713 -0.429518 0
M  V30 15574 H 1484.62 -1.68981 -0.156093 0
M  V30 15575 H 1483.39 -3.85179 -0.689421 0
M  V30 15576 H 1483.02 -3.24723 -2.29435 0
M  V30 15577 N 1484.01 0.437135 -1.51416 0
M  V30 15578 C 1484.98 1.51313 -1.72154 0
M  V30 15579 C 1485.98 1.49523 -0.59157 0
M  V30 15580 O 1487.17 1.51541 -0.859118 0
M  V30 15581 C 1484.3 2.9085 -1.77818 0
M  V30 15582 H 1485.49 1.34229 -2.68184 0
M  V30 15583 H 1483.04 0.665822 -1.41409 0
M  V30 15584 H 1483.78 3.13338 -0.836033 0
M  V30 15585 H 1483.56 2.93554 -2.59939 0
M  V30 15586 H 1485.05 3.68905 -1.957 0
M  V30 15587 N 1485.49 1.41566 0.692592 0
M  V30 15588 C 1486.45 1.43369 1.78824 0
M  V30 15589 C 1487.45 0.323867 1.57505 0
M  V30 15590 O 1488.64 0.583885 1.64123 0
M  V30 15591 C 1485.78 1.24798 3.17235 0
M  V30 15592 H 1486.97 2.40906 1.78617 0
M  V30 15593 H 1484.52 1.27752 0.900508 0
M  V30 15594 H 1485.26 0.281129 3.23079 0
M  V30 15595 H 1485.04 2.05212 3.34111 0
M  V30 15596 H 1486.53 1.28902 3.97208 0
M  V30 15597 N 1486.97 -0.927146 1.27443 0
M  V30 15598 C 1488.22 -1.67159 1.13589 0
M  V30 15599 C 1488.54 -1.92379 -0.31865 0
M  V30 15600 O 1487.81 -1.53045 -1.22287 0
M  V30 15601 H 1486.39 -0.619524 0.417371 0
M  V30 15602 H 1489.05 -1.11323 1.59979 0
M  V30 15603 H 1488.15 -2.63954 1.66537 0
M  V30 15604 N 1488.45 -1.09474 -1.13372 0
M  V30 15605 C 1489.38 -0.756441 -2.20908 0
M  V30 15606 C 1490.36 0.266113 -1.68006 0
M  V30 15607 O 1491.54 0.134067 -1.93737 0
M  V30 15608 C 1488.67 -0.176733 -3.4685 0
M  V30 15609 C 1487.63 -1.12886 -4.12845 0
M  V30 15610 C 1486.95 -0.410831 -5.33119 0
M  V30 15611 C 1488.25 -2.47148 -4.60125 0
M  V30 15612 H 1489.95 -1.65555 -2.49463 0
M  V30 15613 H 1487.49 -0.797458 -1.19902 0
M  V30 15614 H 1489.45 0.0720151 -4.21338 0
M  V30 15615 H 1488.17 0.757576 -3.17692 0
M  V30 15616 H 1486.83 -1.36289 -3.40325 0
M  V30 15617 H 1486.48 0.527632 -5.00225 0
M  V30 15618 H 1486.18 -1.04567 -5.78221 0
M  V30 15619 H 1487.7 -0.170394 -6.10362 0
M  V30 15620 H 1489.11 -2.27949 -5.26034 0
M  V30 15621 H 1487.51 -3.06425 -5.15969 0
M  V30 15622 H 1488.58 -3.07874 -3.74622 0
M  V30 15623 N 1489.92 1.30607 -0.882012 0
M  V30 15624 C 1490.85 2.30666 -0.362706 0
M  V30 15625 C 1491.84 1.60865 0.552861 0
M  V30 15626 O 1493.02 1.88493 0.467339 0
M  V30 15627 C 1490.15 3.44675 0.42622 0
M  V30 15628 C 1489.1 4.26152 -0.397322 0
M  V30 15629 C 1488.43 5.32185 0.518027 0
M  V30 15630 C 1489.73 4.95955 -1.63785 0
M  V30 15631 H 1491.42 2.74351 -1.19883 0
M  V30 15632 H 1488.97 1.31895 -0.577912 0
M  V30 15633 H 1490.92 4.13734 0.80013 0
M  V30 15634 H 1489.65 2.99787 1.29597 0
M  V30 15635 H 1488.31 3.58776 -0.753332 0
M  V30 15636 H 1487.95 4.83545 1.3854 0
M  V30 15637 H 1487.65 5.87593 -0.0291802 0
M  V30 15638 H 1489.18 6.04101 0.888518 0
M  V30 15639 H 1490.59 5.57547 -1.3347 0
M  V30 15640 H 1488.99 5.61215 -2.12504 0
M  V30 15641 H 1490.06 4.22252 -2.38394 0
M  V30 15642 N 1491.4 0.642663 1.43901 0
M  V30 15643 C 1492.81 0.232809 1.85243 0
M  V30 15644 C 1493.16 -1.21834 1.53789 0
M  V30 15645 O 1492.29 -1.92855 0.981625 0
M  V30 15646 C 1492.88 0.415749 3.36239 0
M  V30 15647 C 1491.44 0.0603055 3.76352 0
M  V30 15648 C 1490.59 0.723658 2.67691 0
M  V30 15649 H 1493.54 0.847052 1.34204 0
M  V30 15650 H 1493.56 -0.341903 3.78961 0
M  V30 15651 H 1493.07 1.472 3.59101 0
M  V30 15652 H 1491.18 -0.993761 3.59103 0
M  V30 15653 H 1491.29 0.478408 4.76705 0
M  V30 15654 H 1489.65 0.15787 2.5421 0
M  V30 15655 H 1490.44 1.78273 2.93383 0
M  V30 15656 N 1492.88 -1.52852 0.383918 0
M  V30 15657 C 1494.13 -2.01112 -0.199594 0
M  V30 15658 C 1494.45 -1.27237 -1.47769 0
M  V30 15659 O 1493.72 -0.390873 -1.91961 0
M  V30 15660 H 1492.3 -0.743047 -0.0767466 0
M  V30 15661 H 1494.96 -1.8799 0.51437 0
M  V30 15662 H 1494.06 -3.09347 -0.413627 0
M  V30 15663 N 1494.36 -0.113586 -1.5719 0
M  V30 15664 C 1495.29 0.868985 -2.12088 0
M  V30 15665 C 1496.3 1.23362 -1.06233 0
M  V30 15666 O 1497.49 1.18352 -1.33623 0
M  V30 15667 C 1494.59 2.17252 -2.60106 0
M  V30 15668 C 1493.77 1.9804 -3.89999 0
M  V30 15669 C 1492.83 3.12073 -4.23671 0
M  V30 15670 O 1491.85 2.85224 -4.92581 0
M  V30 15671 N 1493.05 4.38358 -3.80556 0
M  V30 15672 H 1495.82 0.399996 -2.97019 0
M  V30 15673 H 1493.38 0.0709947 -1.61744 0
M  V30 15674 H 1495.37 2.92523 -2.79665 0
M  V30 15675 H 1493.94 2.55516 -1.80084 0
M  V30 15676 H 1493.16 1.06993 -3.79402 0
M  V30 15677 H 1494.45 1.82502 -4.74943 0
M  V30 15678 H 1493.85 4.63048 -3.24966 0
M  V30 15679 H 1492.4 5.10518 -4.05234 0
M  V30 15680 N 1495.84 1.56784 0.160173 0
M  V30 15681 C 1497.08 1.83782 0.871526 0
M  V30 15682 C 1497.44 0.695726 1.79381 0
M  V30 15683 O 1496.73 -0.307168 1.89122 0
M  V30 15684 C 1496.93 3.14703 1.69402 0
M  V30 15685 C 1496.75 4.41538 0.852869 0
M  V30 15686 C 1495.52 5.0258 0.523604 0
M  V30 15687 C 1497.72 5.13952 0.189264 0
M  V30 15688 N 1495.7 6.12999 -0.332518 0
M  V30 15689 C 1497.08 6.17752 -0.527548 0
M  V30 15690 C 1499.13 4.97782 0.108577 0
M  V30 15691 C 1497.83 7.07133 -1.31741 0
M  V30 15692 C 1499.86 5.87615 -0.667985 0
M  V30 15693 C 1499.22 6.90887 -1.37312 0
M  V30 15694 H 1495.32 0.723336 0.297169 0
M  V30 15695 H 1497.9 1.94212 0.137749 0
M  V30 15696 H 1496.08 3.05445 2.39913 0
M  V30 15697 H 1497.81 3.29657 2.34752 0
M  V30 15698 H 1494.56 4.65794 0.85631 0
M  V30 15699 H 1494.99 6.72819 -0.751215 0
M  V30 15700 H 1499.63 4.17937 0.639385 0
M  V30 15701 H 1497.35 7.86414 -1.85952 0
M  V30 15702 H 1500.93 5.77174 -0.732234 0
M  V30 15703 H 1499.81 7.59198 -1.96438 0
M  V30 15704 N 1497.32 -0.429099 1.51646 0
M  V30 15705 C 1498.25 -1.52867 1.76505 0
M  V30 15706 C 1499.23 -1.58586 0.615178 0
M  V30 15707 O 1500.41 -1.74182 0.858742 0
M  V30 15708 C 1497.54 -2.90875 1.8976 0
M  V30 15709 C 1496.5 -3.00014 3.05247 0
M  V30 15710 C 1495.82 -4.40082 3.03696 0
M  V30 15711 C 1497.12 -2.73334 4.45068 0
M  V30 15712 H 1498.82 -1.32315 2.68576 0
M  V30 15713 H 1496.36 -0.635091 1.29238 0
M  V30 15714 H 1498.31 -3.67765 2.05734 0
M  V30 15715 H 1497.04 -3.12677 0.943442 0
M  V30 15716 H 1495.7 -2.25565 2.88991 0
M  V30 15717 H 1495.35 -4.58864 2.06042 0
M  V30 15718 H 1495.05 -4.47125 3.81252 0
M  V30 15719 H 1496.57 -5.18935 3.21774 0
M  V30 15720 H 1497.98 -3.39954 4.61632 0
M  V30 15721 H 1496.38 -2.91777 5.24391 0
M  V30 15722 H 1497.45 -1.68889 4.54538 0
M  V30 15723 N 1498.79 -1.41931 -0.685074 0
M  V30 15724 C 1499.7 -1.46985 -1.82846 0
M  V30 15725 C 1500.72 -0.359487 -1.70246 0
M  V30 15726 O 1501.9 -0.608824 -1.91977 0
M  V30 15727 C 1498.96 -1.36001 -3.18912 0
M  V30 15728 C 1498.02 -2.57442 -3.43543 0
M  V30 15729 C 1497.25 -2.46972 -4.73118 0
M  V30 15730 O 1497.48 -1.49999 -5.50324 0
M  V30 15731 O 1496.41 -3.36922 -4.98766 0
M  V30 15732 H 1500.24 -2.4347 -1.81538 0
M  V30 15733 H 1497.82 -1.23583 -0.839497 0
M  V30 15734 H 1499.7 -1.32198 -4.00127 0
M  V30 15735 H 1498.38 -0.426366 -3.2088 0
M  V30 15736 H 1497.29 -2.66821 -2.62217 0
M  V30 15737 H 1498.62 -3.49671 -3.46398 0
M  V30 15738 N 1500.27 0.920374 -1.27933 0
M  V30 15739 C 1501.23 2.0035 -1.11321 0
M  V30 15740 C 1502.23 1.60706 -0.0549132 0
M  V30 15741 O 1503.42 1.71595 -0.300134 0
M  V30 15742 C 1500.56 3.33681 -0.69782 0
M  V30 15743 H 1501.75 2.16518 -2.07509 0
M  V30 15744 H 1499.3 1.10216 -1.10825 0
M  V30 15745 H 1500.04 3.23214 0.265122 0
M  V30 15746 H 1499.82 3.63815 -1.46223 0
M  V30 15747 H 1501.31 4.13208 -0.604048 0
M  V30 15748 N 1501.75 1.10074 1.1279 0
M  V30 15749 C 1502.66 0.758458 2.22001 0
M  V30 15750 C 1503.68 -0.242438 1.72303 0
M  V30 15751 O 1504.85 -0.0821223 2.01233 0
M  V30 15752 C 1501.92 0.191326 3.46172 0
M  V30 15753 C 1500.98 1.24902 4.10729 0
M  V30 15754 C 1500.21 0.708857 5.28972 0
M  V30 15755 O 1500.43 -0.465993 5.68493 0
M  V30 15756 O 1499.37 1.46703 5.83748 0
M  V30 15757 H 1503.19 1.66997 2.53665 0
M  V30 15758 H 1500.78 0.875604 1.21052 0
M  V30 15759 H 1502.66 -0.121292 4.21225 0
M  V30 15760 H 1501.34 -0.693094 3.16193 0
M  V30 15761 H 1500.24 1.61444 3.37471 0
M  V30 15762 H 1501.58 2.10632 4.44854 0
M  V30 15763 N 1503.23 -1.30138 0.888926 0
M  V30 15764 C 1504.14 -2.31778 0.3628 0
M  V30 15765 C 1505.15 -1.65507 -0.53698 0
M  V30 15766 O 1506.33 -1.96775 -0.429152 0
M  V30 15767 C 1503.39 -3.44259 -0.410673 0
M  V30 15768 C 1502.46 -4.26147 0.519334 0
M  V30 15769 C 1501.69 -5.33257 -0.21732 0
M  V30 15770 O 1501.91 -5.5185 -1.44284 0
M  V30 15771 O 1500.85 -6.00329 0.43461 0
M  V30 15772 H 1504.67 -2.78739 1.20575 0
M  V30 15773 H 1502.26 -1.34379 0.65289 0
M  V30 15774 H 1504.14 -4.1277 -0.848467 0
M  V30 15775 H 1502.81 -2.99426 -1.22986 0
M  V30 15776 H 1501.72 -3.60319 1.00602 0
M  V30 15777 H 1503.05 -4.74595 1.30464 0
M  V30 15778 N 1504.71 -0.650285 -1.43559 0
M  V30 15779 C 1505.98 -0.0925343 -1.95381 0
M  V30 15780 C 1506.36 1.38668 -1.59168 0
M  V30 15781 O 1505.71 2.11069 -0.875324 0
M  V30 15782 C 1505.92 -0.335657 -3.47382 0
M  V30 15783 C 1507.27 -0.239032 -4.23927 0
M  V30 15784 O 1508.29 -0.268056 -3.5519 0
M  V30 15785 O 1507.15 -0.160241 -5.46265 0
M  V30 15786 H 1504.25 0.0113084 -0.826923 0
M  V30 15787 H 1506.79 -0.723319 -1.53513 0
M  V30 15788 H 1505.56 -1.36132 -3.66857 0
M  V30 15789 H 1505.19 0.328339 -3.96242 0
M  V30 15790 N 1506.18 1.52647 -0.392018 0
M  V30 15791 C 1507.13 2.28073 0.456674 0
M  V30 15792 C 1508.13 1.3208 1.06071 0
M  V30 15793 O 1509.33 1.49608 1.00088 0
M  V30 15794 H 1505.71 0.733443 0.166029 0
M  V30 15795 H 1507.68 2.97723 -0.200916 0
M  V30 15796 C 1506.43 3.10216 1.5704 0
M  V30 15797 H 1505.75 3.83939 1.11493 0
M  V30 15798 H 1507.19 3.66126 2.1384 0
M  V30 15799 C 1505.65 2.22698 2.52799 0
M  V30 15800 O 1506.18 1.8556 3.56273 0
M  V30 15801 N 1504.38 1.86804 2.22604 0
M  V30 15802 H 1503.93 2.17204 1.38492 0
M  V30 15803 H 1503.89 1.28538 2.86924 0
M  V30 15804 N 1507.66 0.121921 1.57128 0
M  V30 15805 C 1508.94 -0.579087 1.86831 0
M  V30 15806 C 1509.32 -1.84623 1.0236 0
M  V30 15807 O 1508.67 -2.28266 0.103326 0
M  V30 15808 C 1508.88 -0.86872 3.38015 0
M  V30 15809 C 1510.23 -1.22051 4.0668 0
M  V30 15810 O 1511.25 -0.958889 3.43051 0
M  V30 15811 O 1510.11 -1.71164 5.19004 0
M  V30 15812 H 1507.2 -0.292539 0.773531 0
M  V30 15813 H 1509.75 0.156644 1.68975 0
M  V30 15814 H 1508.52 0.0291056 3.91289 0
M  V30 15815 H 1508.14 -1.65951 3.61312 0
M  V30 15816 N 1509.14 -1.56867 -0.151857 0
M  V30 15817 C 1510.37 -1.87237 -0.880343 0
M  V30 15818 C 1510.78 -0.709565 -1.74959 0
M  V30 15819 O 1510.14 0.320818 -1.79658 0
M  V30 15820 C 1510.19 -3.16811 -1.74107 0
M  V30 15821 O 1509.91 -4.28611 -0.906858 0
M  V30 15822 C 1511.41 -3.60662 -2.57755 0
M  V30 15823 H 1508.63 -0.62074 -0.254799 0
M  V30 15824 H 1511.18 -2.03977 -0.146104 0
M  V30 15825 H 1509.33 -3.01838 -2.42842 0
M  V30 15826 H 1509.75 -5.02673 -1.49733 0
M  V30 15827 H 1511.22 -4.54176 -3.13732 0
M  V30 15828 H 1511.7 -2.85716 -3.33561 0
M  V30 15829 H 1512.3 -3.78312 -1.94319 0
M  V30 15830 N 1510.62 0.421051 -1.51871 0
M  V30 15831 C 1511.53 1.5371 -1.7723 0
M  V30 15832 C 1512.54 1.61109 -0.657256 0
M  V30 15833 O 1513.72 1.78047 -0.941343 0
M  V30 15834 C 1510.79 2.89555 -1.9068 0
M  V30 15835 C 1509.85 2.9214 -3.14567 0
M  V30 15836 C 1509.08 4.21505 -3.27367 0
M  V30 15837 O 1509.3 5.14764 -2.45712 0
M  V30 15838 O 1508.24 4.30706 -4.20448 0
M  V30 15839 H 1512.06 1.35221 -2.71935 0
M  V30 15840 H 1509.65 0.605712 -1.3657 0
M  V30 15841 H 1511.53 3.70147 -2.01418 0
M  V30 15842 H 1510.2 3.08137 -0.991627 0
M  V30 15843 H 1509.11 2.10444 -3.09296 0
M  V30 15844 H 1510.44 2.78505 -4.05827 0
M  V30 15845 N 1512.1 1.42293 0.677538 0
M  V30 15846 C 1513.32 1.46214 1.47092 0
M  V30 15847 C 1513.75 0.0740989 1.87954 0
M  V30 15848 O 1513.1 -0.926831 1.55819 0
M  V30 15849 C 1513.15 2.39236 2.69812 0
M  V30 15850 O 1512.26 1.86183 3.6798 0
M  V30 15851 H 1511.6 0.495507 0.442006 0
M  V30 15852 H 1514.13 1.86952 0.831274 0
M  V30 15853 H 1514.14 2.55723 3.17915 0
M  V30 15854 H 1512.81 3.40081 2.39411 0
M  V30 15855 H 1511.39 1.79237 3.26999 0
M  V30 15856 N 1513.57 -0.913576 1.28419 0
M  V30 15857 C 1514.82 -1.65944 1.15355 0
M  V30 15858 C 1515.14 -1.92706 -0.298228 0
M  V30 15859 O 1514.41 -1.54333 -1.20657 0
M  V30 15860 H 1512.99 -0.615063 0.423919 0
M  V30 15861 H 1515.66 -1.0962 1.6115 0
M  V30 15862 H 1514.75 -2.62173 1.69327 0
M  V30 15863 N 1515.05 -1.1067 -1.12204 0
M  V30 15864 C 1516.33 -0.762632 -1.8012 0
M  V30 15865 C 1516.71 0.750529 -1.97308 0
M  V30 15866 O 1516.06 1.67764 -1.55137 0
M  V30 15867 C 1516.27 -1.51651 -3.14329 0
M  V30 15868 C 1517.62 -1.69061 -3.89491 0
M  V30 15869 O 1518.64 -1.48009 -3.23994 0
M  V30 15870 O 1517.5 -2.03984 -5.07004 0
M  V30 15871 H 1514.59 -0.275417 -0.779791 0
M  V30 15872 H 1517.14 -1.20966 -1.19018 0
M  V30 15873 H 1515.91 -2.54622 -2.97125 0
M  V30 15874 H 1515.53 -1.0625 -3.83141 0
M  V30 15875 N 1516.53 1.29665 -0.895815 0
M  V30 15876 C 1517.81 1.90601 -0.439394 0
M  V30 15877 C 1518.19 1.81341 1.08068 0
M  V30 15878 O 1517.54 1.23761 1.92082 0
M  V30 15879 C 1517.75 3.35832 -0.949622 0
M  V30 15880 C 1519.09 4.12873 -0.991015 0
M  V30 15881 O 1520.12 3.4472 -0.897025 0
M  V30 15882 O 1518.98 5.34656 -1.1316 0
M  V30 15883 H 1516.07 0.81569 -0.136304 0
M  V30 15884 H 1518.62 1.38157 -0.985426 0
M  V30 15885 H 1517.39 3.36708 -1.99357 0
M  V30 15886 H 1517.01 3.95747 -0.383376 0
M  V30 15887 N 1518.01 0.657889 1.43212 0
M  V30 15888 C 1518.92 -0.0313677 2.34579 0
M  V30 15889 C 1519.93 -0.807153 1.54146 0
M  V30 15890 O 1521.11 -0.753335 1.8678 0
M  V30 15891 C 1518.18 -0.982659 3.32483 0
M  V30 15892 C 1517.24 -0.203288 4.28818 0
M  V30 15893 C 1516.47 -1.10927 5.22045 0
M  V30 15894 O 1516.69 -2.34861 5.19804 0
M  V30 15895 O 1515.63 -0.57916 5.99107 0
M  V30 15896 H 1519.45 0.720808 2.95022 0
M  V30 15897 H 1517.04 0.418083 1.43431 0
M  V30 15898 H 1518.92 -1.52923 3.92673 0
M  V30 15899 H 1517.59 -1.71498 2.74536 0
M  V30 15900 H 1516.5 0.386982 3.72093 0
M  V30 15901 H 1517.83 0.489562 4.89759 0
M  V30 15902 N 1519.49 -1.52437 0.400108 0
M  V30 15903 C 1520.76 -1.94162 -0.23671 0
M  V30 15904 C 1521.14 -1.33636 -1.63416 0
M  V30 15905 O 1520.49 -0.508643 -2.22767 0
M  V30 15906 C 1520.7 -3.48088 -0.252159 0
M  V30 15907 C 1522.05 -4.21925 -0.475887 0
M  V30 15908 O 1523.07 -3.5465 -0.331905 0
M  V30 15909 O 1521.93 -5.41205 -0.758895 0
M  V30 15910 H 1519.03 -0.813294 -0.14994 0
M  V30 15911 H 1521.57 -1.63475 0.455399 0
M  V30 15912 H 1520.34 -3.84501 0.726263 0
M  V30 15913 H 1519.97 -3.8511 -0.988742 0
M  V30 15914 N 1520.96 -0.130252 -1.57061 0
M  V30 15915 C 1522.21 0.523969 -1.9519 0
M  V30 15916 C 1522.53 1.66493 -1.01514 0
M  V30 15917 O 1521.8 1.95762 -0.0735194 0
M  V30 15918 H 1520.38 0.196553 -0.720677 0
M  V30 15919 H 1523.05 -0.20183 -1.93852 0
M  V30 15920 H 1522.14 0.911156 -2.98504 0
M  V30 15921 N 1522.44 1.56945 0.143535 0
M  V30 15922 C 1523.35 2.01795 1.1965 0
M  V30 15923 C 1524.37 0.933965 1.4681 0
M  V30 15924 O 1525.55 1.2437 1.58411 0
M  V30 15925 C 1522.61 2.39249 2.5092 0
M  V30 15926 C 1521.67 3.61613 2.31376 0
M  V30 15927 C 1520.9 3.97271 3.56386 0
M  V30 15928 O 1521.13 3.33552 4.62709 0
M  V30 15929 O 1520.06 4.90501 3.48844 0
M  V30 15930 H 1523.89 2.91687 0.845718 0
M  V30 15931 H 1521.47 1.45182 0.352518 0
M  V30 15932 H 1523.35 2.64184 3.28306 0
M  V30 15933 H 1522.03 1.52511 2.85521 0
M  V30 15934 H 1520.94 3.4186 1.51929 0
M  V30 15935 H 1522.27 4.48979 2.01689 0
M  V30 15936 N 1523.92 -0.412991 1.52093 0
M  V30 15937 C 1524.83 -1.52768 1.78042 0
M  V30 15938 C 1525.85 -1.60758 0.665791 0
M  V30 15939 O 1527.02 -1.77545 0.950772 0
M  V30 15940 C 1524.09 -2.8854 1.92213 0
M  V30 15941 C 1523.15 -2.90468 3.16112 0
M  V30 15942 C 1522.38 -4.19763 3.29598 0
M  V30 15943 O 1522.61 -5.13454 2.48438 0
M  V30 15944 O 1521.54 -4.2847 4.22726 0
M  V30 15945 H 1525.37 -1.33777 2.72649 0
M  V30 15946 H 1522.95 -0.598461 1.3689 0
M  V30 15947 H 1524.83 -3.69073 2.03379 0
M  V30 15948 H 1523.51 -3.07607 1.00795 0
M  V30 15949 H 1522.41 -2.08801 3.10408 0
M  V30 15950 H 1523.75 -2.76349 4.07298 0
M  V30 15951 N 1525.4 -1.4265 -0.669982 0
M  V30 15952 C 1526.33 -1.49298 -1.79534 0
M  V30 15953 C 1527.31 -0.34911 -1.66479 0
M  V30 15954 O 1528.5 -0.564072 -1.85828 0
M  V30 15955 C 1525.63 -1.39935 -3.17861 0
M  V30 15956 C 1524.58 -2.52398 -3.45657 0
M  V30 15957 C 1523.91 -2.28092 -4.8361 0
M  V30 15958 C 1525.21 -3.94697 -3.4207 0
M  V30 15959 H 1526.9 -2.43486 -1.74227 0
M  V30 15960 H 1524.45 -1.17191 -0.836796 0
M  V30 15961 H 1526.4 -1.43193 -3.96325 0
M  V30 15962 H 1525.12 -0.422436 -3.23857 0
M  V30 15963 H 1523.78 -2.48465 -2.69556 0
M  V30 15964 H 1523.43 -1.28683 -4.86261 0
M  V30 15965 H 1523.13 -3.03469 -5.0317 0
M  V30 15966 H 1524.65 -2.33107 -5.64352 0
M  V30 15967 H 1526.07 -4.00207 -4.10496 0
M  V30 15968 H 1524.46 -4.69965 -3.73166 0
M  V30 15969 H 1525.53 -4.21025 -2.40554 0
M  V30 15970 N 1526.88 0.906753 -1.28902 0
M  V30 15971 C 1528.15 1.63637 -1.07155 0
M  V30 15972 C 1528.53 2.07527 0.386727 0
M  V30 15973 O 1527.88 1.82562 1.37417 0
M  V30 15974 C 1528.09 2.82256 -2.05263 0
M  V30 15975 C 1529.44 3.53109 -2.35794 0
M  V30 15976 O 1530.46 2.92414 -2.03402 0
M  V30 15977 O 1529.32 4.62512 -2.91109 0
M  V30 15978 H 1526.42 0.718194 -0.410032 0
M  V30 15979 H 1528.96 0.955442 -1.40248 0
M  V30 15980 H 1527.74 2.46968 -3.03517 0
M  V30 15981 H 1527.36 3.58059 -1.72857 0
M  V30 15982 N 1528.36 1.11264 1.11616 0
M  V30 15983 C 1529.58 0.882802 1.87121 0
M  V30 15984 C 1530 -0.567279 1.80076 0
M  V30 15985 O 1529.36 -1.39158 1.18074 0
M  V30 15986 C 1529.41 1.33355 3.36004 0
M  V30 15987 O 1529.13 2.72678 3.42897 0
M  V30 15988 C 1530.63 1.13886 4.28421 0
M  V30 15989 H 1527.85 0.316275 0.591786 0
M  V30 15990 H 1530.39 1.4795 1.41177 0
M  V30 15991 H 1528.55 0.780347 3.79459 0
M  V30 15992 H 1528.96 2.92168 4.35589 0
M  V30 15993 H 1530.44 1.50329 5.31136 0
M  V30 15994 H 1530.91 0.078259 4.3913 0
M  V30 15995 H 1531.52 1.67896 3.90757 0
M  V30 15996 N 1529.83 -1.29188 0.902679 0
M  V30 15997 C 1530.74 -2.3138 0.387363 0
M  V30 15998 C 1531.76 -1.66067 -0.519396 0
M  V30 15999 O 1532.94 -1.97219 -0.408257 0
M  V30 16000 C 1530 -3.44675 -0.374137 0
M  V30 16001 C 1529.06 -4.25572 0.564503 0
M  V30 16002 C 1528.29 -5.33458 -0.160748 0
M  V30 16003 O 1528.52 -5.53349 -1.38423 0
M  V30 16004 O 1527.45 -5.99834 0.498259 0
M  V30 16005 H 1531.28 -2.77444 1.23525 0
M  V30 16006 H 1528.86 -1.33679 0.667106 0
M  V30 16007 H 1530.74 -4.13647 -0.80464 0
M  V30 16008 H 1529.42 -3.00714 -1.19804 0
M  V30 16009 H 1528.33 -3.59232 1.04418 0
M  V30 16010 H 1529.66 -4.73184 1.3549 0
M  V30 16011 N 1531.31 -0.665475 -1.42861 0
M  V30 16012 C 1532.59 -0.113252 -1.95272 0
M  V30 16013 C 1532.97 1.36972 -1.6063 0
M  V30 16014 O 1532.32 2.10129 -0.897662 0
M  V30 16015 C 1532.53 -0.372482 -3.47007 0
M  V30 16016 C 1533.87 -0.283982 -4.23649 0
M  V30 16017 O 1534.9 -0.305714 -3.54886 0
M  V30 16018 O 1533.76 -0.218171 -5.46064 0
M  V30 16019 H 1530.85 0.00253712 -0.826996 0
M  V30 16020 H 1533.4 -0.739561 -1.52737 0
M  V30 16021 H 1532.17 -1.40015 -3.65392 0
M  V30 16022 H 1531.79 0.286294 -3.96568 0
M  V30 16023 N 1532.79 1.52222 -0.408187 0
M  V30 16024 C 1533.7 2.30725 0.424645 0
M  V30 16025 C 1534.72 1.38412 1.05442 0
M  V30 16026 O 1535.89 1.71486 1.05614 0
M  V30 16027 C 1532.96 3.11273 1.52677 0
M  V30 16028 C 1532.02 4.19323 0.920143 0
M  V30 16029 C 1531.25 4.96021 1.96974 0
M  V30 16030 O 1531.47 4.73011 3.18774 0
M  V30 16031 O 1530.41 5.80887 1.5765 0
M  V30 16032 H 1534.23 3.02935 -0.215411 0
M  V30 16033 H 1531.82 1.48413 -0.171414 0
M  V30 16034 H 1533.7 3.61436 2.16661 0
M  V30 16035 H 1532.38 2.41857 2.15144 0
M  V30 16036 H 1531.28 3.7331 0.243037 0
M  V30 16037 H 1532.62 4.91028 0.339405 0
M  V30 16038 N 1534.27 0.138579 1.5699 0
M  V30 16039 C 1535.18 -0.817548 2.19894 0
M  V30 16040 C 1536.19 -1.27806 1.18075 0
M  V30 16041 O 1537.37 -1.33699 1.5062 0
M  V30 16042 C 1534.43 -2.04244 2.80152 0
M  V30 16043 C 1533.5 -1.63197 3.97071 0
M  V30 16044 C 1532.73 -2.79847 4.54446 0
M  V30 16045 O 1532.95 -3.95827 4.10703 0
M  V30 16046 O 1531.89 -2.55804 5.44838 0
M  V30 16047 H 1535.71 -0.312123 3.02092 0
M  V30 16048 H 1533.3 -0.0880281 1.4914 0
M  V30 16049 H 1535.18 -2.75945 3.18485 0
M  V30 16050 H 1533.85 -2.53755 2.00973 0
M  V30 16051 H 1532.76 -0.885448 3.6347 0
M  V30 16052 H 1534.09 -1.1841 4.77745 0
M  V30 16053 N 1535.75 -1.57019 -0.13521 0
M  V30 16054 C 1536.68 -1.94319 -1.19646 0
M  V30 16055 C 1537.66 -0.810603 -1.40954 0
M  V30 16056 O 1538.84 -1.0673 -1.55374 0
M  V30 16057 C 1535.97 -2.22542 -2.55328 0
M  V30 16058 C 1535.01 -3.45151 -2.50546 0
M  V30 16059 S 1535.85 -4.98307 -1.96089 0
M  V30 16060 C 1537 -5.29665 -3.33476 0
M  V30 16061 H 1537.24 -2.8403 -0.878294 0
M  V30 16062 H 1534.77 -1.5058 -0.341313 0
M  V30 16063 H 1536.73 -2.39482 -3.33405 0
M  V30 16064 H 1535.39 -1.33474 -2.8433 0
M  V30 16065 H 1534.58 -3.62213 -3.50454 0
M  V30 16066 H 1534.18 -3.27514 -1.80583 0
M  V30 16067 H 1536.47 -5.23854 -4.29631 0
M  V30 16068 H 1537.42 -6.31031 -3.21256 0
M  V30 16069 H 1537.83 -4.57161 -3.31156 0
M  V30 16070 N 1537.22 0.404919 -1.52309 0
M  V30 16071 C 1538.13 1.51822 -1.7885 0
M  V30 16072 C 1539.15 1.60403 -0.674307 0
M  V30 16073 O 1540.33 1.77038 -0.960175 0
M  V30 16074 C 1537.39 2.87516 -1.9374 0
M  V30 16075 C 1536.45 2.88787 -3.17648 0
M  V30 16076 C 1535.69 4.18009 -3.31819 0
M  V30 16077 O 1535.91 5.12129 -2.51158 0
M  V30 16078 O 1534.84 4.26222 -4.24992 0
M  V30 16079 H 1538.67 1.32329 -2.73354 0
M  V30 16080 H 1536.25 0.591193 -1.37205 0
M  V30 16081 H 1538.14 3.6799 -2.05333 0
M  V30 16082 H 1536.81 3.07068 -1.02425 0
M  V30 16083 H 1535.72 2.07152 -3.11511 0
M  V30 16084 H 1537.05 2.74185 -4.08758 0
M  V30 16085 N 1538.7 1.43003 0.662408 0
M  V30 16086 C 1539.65 1.47701 1.79686 0
M  V30 16087 C 1540.64 0.351491 1.65713 0
M  V30 16088 O 1541.85 0.525071 1.72171 0
M  V30 16089 H 1538.23 0.46285 0.592684 0
M  V30 16090 H 1540.2 2.43245 1.72843 0
M  V30 16091 C 1538.95 1.40828 3.17904 0
M  V30 16092 H 1538.27 2.26736 3.29288 0
M  V30 16093 H 1539.71 1.48177 3.97265 0
M  V30 16094 C 1538.17 0.124659 3.36669 0
M  V30 16095 O 1538.7 -0.81769 3.9329 0
M  V30 16096 N 1536.9 0.0378063 2.90575 0
M  V30 16097 H 1536.45 0.805456 2.44684 0
M  V30 16098 H 1536.41 -0.820377 3.03508 0
M  V30 16099 N 1540.18 -0.899904 1.29381 0
M  V30 16100 C 1541.13 -2.02537 1.14375 0
M  V30 16101 C 1542.12 -1.69296 0.0593904 0
M  V30 16102 O 1543.33 -1.78661 0.219174 0
M  V30 16103 H 1539.7 -0.663844 0.353291 0
M  V30 16104 H 1541.67 -2.12332 2.0966 0
M  V30 16105 C 1540.42 -3.37479 0.836845 0
M  V30 16106 H 1539.75 -3.6356 1.66326 0
M  V30 16107 H 1541.19 -4.16915 0.771873 0
M  V30 16108 C 1539.65 -3.33746 -0.459889 0
M  V30 16109 O 1540.18 -3.73203 -1.48601 0
M  V30 16110 N 1538.38 -2.86845 -0.465657 0
M  V30 16111 H 1537.93 -2.54931 0.369833 0
M  V30 16112 H 1537.89 -2.8473 -1.33327 0
M  V30 16113 N 1541.66 -1.11854 -1.11024 0
M  V30 16114 C 1542.59 -0.803129 -2.19253 0
M  V30 16115 C 1543.57 0.230417 -1.68532 0
M  V30 16116 O 1544.75 0.0929421 -1.93977 0
M  V30 16117 C 1541.88 -0.250265 -3.46397 0
M  V30 16118 C 1540.84 -1.21617 -4.10357 0
M  V30 16119 C 1540.16 -0.523821 -5.32128 0
M  V30 16120 C 1541.46 -2.56852 -4.54779 0
M  V30 16121 H 1543.16 -1.7081 -2.45895 0
M  V30 16122 H 1540.7 -0.822712 -1.18184 0
M  V30 16123 H 1542.66 -0.0173732 -4.21396 0
M  V30 16124 H 1541.38 0.690018 -3.19228 0
M  V30 16125 H 1540.04 -1.43477 -3.37357 0
M  V30 16126 H 1539.69 0.421408 -5.01232 0
M  V30 16127 H 1539.39 -1.16809 -5.75873 0
M  V30 16128 H 1540.91 -0.299823 -6.09863 0
M  V30 16129 H 1542.33 -2.39056 -5.21081 0
M  V30 16130 H 1540.72 -3.17301 -5.09353 0
M  V30 16131 H 1541.79 -3.15751 -3.68007 0
M  V30 16132 N 1543.14 1.28707 -0.909517 0
M  V30 16133 C 1544.08 2.29396 -0.384756 0
M  V30 16134 C 1545.08 1.61179 0.521318 0
M  V30 16135 O 1546.28 1.7543 0.403032 0
M  V30 16136 H 1542.66 0.744518 -0.105814 0
M  V30 16137 H 1544.63 2.71089 -1.24714 0
M  V30 16138 C 1543.38 3.45792 0.363795 0
M  V30 16139 H 1542.7 3.98483 -0.324198 0
M  V30 16140 H 1544.14 4.18254 0.695681 0
M  V30 16141 C 1542.6 2.98075 1.57012 0
M  V30 16142 O 1543.13 3.00187 2.66929 0
M  V30 16143 N 1541.34 2.53787 1.41565 0
M  V30 16144 H 1540.88 2.52268 0.521415 0
M  V30 16145 H 1540.84 2.2222 2.22408 0
M  V30 16146 N 1544.61 0.673042 1.42506 0
M  V30 16147 C 1546.03 0.272049 1.84707 0
M  V30 16148 C 1546.38 -1.18545 1.56338 0
M  V30 16149 O 1545.5 -1.9073 1.02231 0
M  V30 16150 C 1546.1 0.486977 3.35282 0
M  V30 16151 C 1544.66 0.140122 3.76139 0
M  V30 16152 C 1543.8 0.780276 2.66096 0
M  V30 16153 H 1546.75 0.875329 1.32377 0
M  V30 16154 H 1546.77 -0.261443 3.79601 0
M  V30 16155 H 1546.29 1.54784 3.55898 0
M  V30 16156 H 1544.39 -0.917366 3.6113 0
M  V30 16157 H 1544.5 0.579417 4.75583 0
M  V30 16158 H 1542.86 0.211756 2.53818 0
M  V30 16159 H 1543.65 1.84456 2.89536 0
M  V30 16160 N 1546.09 -1.52004 0.416254 0
M  V30 16161 C 1547.04 -2.27206 -0.405723 0
M  V30 16162 C 1548.01 -1.29913 -1.03498 0
M  V30 16163 O 1549.19 -1.58786 -1.0579 0
M  V30 16164 C 1546.33 -3.10186 -1.51258 0
M  V30 16165 C 1545.45 -4.22445 -0.903539 0
M  V30 16166 C 1544.58 -4.92771 -1.98368 0
M  V30 16167 C 1543.62 -5.96983 -1.35196 0
M  V30 16168 N 1542.76 -6.60798 -2.37255 0
M  V30 16169 H 1547.6 -2.97016 0.241983 0
M  V30 16170 H 1545.14 -1.46514 0.131174 0
M  V30 16171 H 1547.09 -3.56606 -2.16537 0
M  V30 16172 H 1545.72 -2.42532 -2.13021 0
M  V30 16173 H 1544.78 -3.80144 -0.139607 0
M  V30 16174 H 1546.09 -4.97176 -0.402136 0
M  V30 16175 H 1545.24 -5.42633 -2.71357 0
M  V30 16176 H 1543.98 -4.17624 -2.51876 0
M  V30 16177 H 1542.99 -5.46434 -0.607431 0
M  V30 16178 H 1544.21 -6.74076 -0.824482 0
M  V30 16179 H 1542.16 -5.88476 -2.89882 0
M  V30 16180 H 1542.07 -7.31227 -1.91947 0
M  V30 16181 H 1543.34 -7.15296 -3.09792 0
M  V30 16182 N 1547.57 -0.146903 -1.56914 0
M  V30 16183 C 1548.98 0.373938 -1.82917 0
M  V30 16184 C 1549.33 1.64741 -1.06559 0
M  V30 16185 O 1548.46 2.14156 -0.310849 0
M  V30 16186 C 1549.05 0.685213 -3.31799 0
M  V30 16187 C 1547.61 1.15058 -3.58383 0
M  V30 16188 C 1546.76 0.17362 -2.76756 0
M  V30 16189 H 1549.71 -0.371602 -1.54288 0
M  V30 16190 H 1549.73 1.53989 -3.47948 0
M  V30 16191 H 1549.24 -0.241816 -3.87346 0
M  V30 16192 H 1547.34 2.09355 -3.08223 0
M  V30 16193 H 1547.46 1.07662 -4.66847 0
M  V30 16194 H 1545.82 0.666227 -2.45832 0
M  V30 16195 H 1546.6 -0.746998 -3.35074 0
M  V30 16196 N 1549.05 1.57088 0.126881 0
M  V30 16197 C 1550.46 1.73685 0.684865 0
M  V30 16198 C 1550.81 0.764401 1.80697 0
M  V30 16199 O 1549.94 -0.0644761 2.16304 0
M  V30 16200 C 1550.53 3.14933 1.24911 0
M  V30 16201 C 1549.09 3.33063 1.75346 0
M  V30 16202 C 1548.24 2.69575 0.649976 0
M  V30 16203 H 1551.19 1.58391 -0.0989715 0
M  V30 16204 H 1551.21 3.16047 2.11884 0
M  V30 16205 H 1550.72 3.85686 0.432204 0
M  V30 16206 H 1548.82 2.67339 2.59539 0
M  V30 16207 H 1548.93 4.41169 1.86833 0
M  V30 16208 H 1547.3 2.30592 1.08163 0
M  V30 16209 H 1548.08 3.42946 -0.15582 0
M  V30 16210 N 1550.53 -0.396836 1.52522 0
M  V30 16211 C 1551.94 -0.736347 1.41598 0
M  V30 16212 C 1552.14 -1.944 0.530191 0
M  V30 16213 O 1551.2 -2.525 0.000649033 0
M  V30 16214 C 1552.51 -0.978775 2.84325 0
M  V30 16215 C 1554.06 -1.08073 2.9375 0
M  V30 16216 C 1554.53 -1.35584 4.37471 0
M  V30 16217 N 1556.03 -1.42423 4.40761 0
M  V30 16218 C 1556.76 -1.6536 5.49039 0
M  V30 16219 N 1556.26 -1.85819 6.67415 0
M  V30 16220 N 1558.05 -1.67475 5.36571 0
M  V30 16221 H 1550.2 0.397925 2.08639 0
M  V30 16222 H 1552.46 0.115803 0.9409 0
M  V30 16223 H 1552.17 -0.16362 3.51319 0
M  V30 16224 H 1552.04 -1.8956 3.26109 0
M  V30 16225 H 1554.43 -1.88646 2.26928 0
M  V30 16226 H 1554.51 -0.141996 2.55406 0
M  V30 16227 H 1554.16 -0.555238 5.04856 0
M  V30 16228 H 1554.09 -2.3073 4.73362 0
M  V30 16229 H 1556.58 -1.28352 3.55435 0
M  V30 16230 H 1556.89 -2.02806 7.45714 0
M  V30 16231 H 1555.23 -1.83059 6.70458 0
M  V30 16232 H 1558.43 -1.51038 4.43064 0
M  V30 16233 H 1558.6 -1.85011 6.21027 0
M  V30 16234 N 1552.01 -1.43353 -0.654814 0
M  V30 16235 C 1553.42 -1.26718 -0.970297 0
M  V30 16236 C 1553.62 -0.185747 -2.00642 0
M  V30 16237 O 1552.68 0.436357 -2.48701 0
M  V30 16238 C 1553.99 -2.63095 -1.45608 0
M  V30 16239 C 1555.54 -2.70613 -1.57281 0
M  V30 16240 C 1556.01 -4.07404 -2.0925 0
M  V30 16241 N 1557.5 -4.09461 -2.16555 0
M  V30 16242 C 1558.24 -5.12135 -2.57885 0
M  V30 16243 N 1557.74 -6.25185 -2.98523 0
M  V30 16244 N 1559.53 -4.9949 -2.57811 0
M  V30 16245 H 1551.68 -2.12378 0.0308331 0
M  V30 16246 H 1553.94 -0.946744 -0.0487843 0
M  V30 16247 H 1553.65 -3.43186 -0.769171 0
M  V30 16248 H 1553.52 -2.88381 -2.43138 0
M  V30 16249 H 1555.91 -1.90855 -2.25074 0
M  V30 16250 H 1555.99 -2.49094 -0.581879 0
M  V30 16251 H 1555.63 -4.87628 -1.4206 0
M  V30 16252 H 1555.56 -4.26287 -3.09172 0
M  V30 16253 H 1558.06 -3.27858 -1.87929 0
M  V30 16254 H 1558.37 -6.99362 -3.28804 0
M  V30 16255 H 1556.71 -6.28659 -2.96332 0
M  V30 16256 H 1559.9 -4.10238 -2.25438 0
M  V30 16257 H 1560.08 -5.79637 -2.89699 0
M  V30 16258 N 1553.48 0.89303 -1.29857 0
M  V30 16259 C 1554.43 1.9979 -1.15554 0
M  V30 16260 C 1555.4 1.66033 -0.0471157 0
M  V30 16261 O 1556.59 1.89575 -0.215846 0
M  V30 16262 C 1553.73 3.34595 -0.844993 0
M  V30 16263 C 1552.84 3.81093 -2.03451 0
M  V30 16264 C 1551.97 5.04506 -1.66275 0
M  V30 16265 C 1551.01 5.4339 -2.8177 0
M  V30 16266 N 1550.15 6.57987 -2.44945 0
M  V30 16267 H 1554.99 2.11355 -2.10079 0
M  V30 16268 H 1552.53 1.03497 -1.04531 0
M  V30 16269 H 1554.48 4.12175 -0.645598 0
M  V30 16270 H 1553.11 3.22738 0.0633626 0
M  V30 16271 H 1552.17 2.99491 -2.34541 0
M  V30 16272 H 1553.48 4.05855 -2.8997 0
M  V30 16273 H 1552.63 5.89688 -1.42664 0
M  V30 16274 H 1551.37 4.81597 -0.769144 0
M  V30 16275 H 1550.38 4.56738 -3.06056 0
M  V30 16276 H 1551.6 5.68276 -3.71805 0
M  V30 16277 H 1549.55 6.36669 -1.58079 0
M  V30 16278 H 1549.46 6.82579 -3.24996 0
M  V30 16279 H 1550.73 7.46421 -2.24669 0
M  V30 16280 N 1554.96 1.12442 1.10429 0
M  V30 16281 C 1556.19 0.902914 1.86714 0
M  V30 16282 C 1556.61 -0.542514 1.80107 0
M  V30 16283 O 1555.97 -1.38406 1.17105 0
M  V30 16284 C 1556.02 1.38238 3.33051 0
M  V30 16285 O 1555.12 0.560877 4.08568 0
M  V30 16286 H 1554.46 0.324397 0.579364 0
M  V30 16287 H 1556.99 1.49652 1.39519 0
M  V30 16288 H 1557 1.38148 3.839 0
M  V30 16289 H 1555.68 2.43486 3.37176 0
M  V30 16290 H 1554.25 0.628771 3.67561 0
M  V30 16291 N 1556.44 -1.28223 0.91633 0
M  V30 16292 C 1557.86 -1.47281 0.614864 0
M  V30 16293 C 1558.06 -1.83197 -0.839111 0
M  V30 16294 O 1557.11 -1.9385 -1.61798 0
M  V30 16295 C 1558.42 -2.57373 1.55498 0
M  V30 16296 C 1559.97 -2.71241 1.56197 0
M  V30 16297 C 1560.45 -3.84479 2.48877 0
M  V30 16298 N 1561.94 -3.91837 2.47019 0
M  V30 16299 C 1562.67 -4.78846 3.15427 0
M  V30 16300 N 1562.17 -5.70427 3.93173 0
M  V30 16301 N 1563.96 -4.72478 3.04501 0
M  V30 16302 H 1556.11 -1.03191 1.85649 0
M  V30 16303 H 1558.38 -0.514213 0.796422 0
M  V30 16304 H 1558.08 -2.37747 2.5917 0
M  V30 16305 H 1557.96 -3.54527 1.28803 0
M  V30 16306 H 1560.34 -2.90254 0.532619 0
M  V30 16307 H 1560.42 -1.74609 1.86937 0
M  V30 16308 H 1560.07 -3.6622 3.51916 0
M  V30 16309 H 1560 -4.80514 2.15439 0
M  V30 16310 H 1562.49 -3.26344 1.90546 0
M  V30 16311 H 1562.8 -6.33653 4.42384 0
M  V30 16312 H 1561.15 -5.70259 3.97278 0
M  V30 16313 H 1564.34 -3.99925 2.43265 0
M  V30 16314 H 1564.51 -5.40073 3.58086 0
M  V30 16315 N 1557.92 -0.68059 -1.42147 0
M  V30 16316 C 1559.33 -0.350691 -1.55699 0
M  V30 16317 C 1559.53 1.1435 -1.6591 0
M  V30 16318 O 1558.59 1.92905 -1.62923 0
M  V30 16319 C 1559.9 -1.08608 -2.80401 0
M  V30 16320 C 1561.45 -1.06897 -2.9418 0
M  V30 16321 C 1561.93 -1.78581 -4.2175 0
M  V30 16322 N 1563.42 -1.75477 -4.28675 0
M  V30 16323 C 1564.15 -2.27794 -5.26211 0
M  V30 16324 N 1563.65 -2.88518 -6.29865 0
M  V30 16325 N 1565.44 -2.18135 -5.18048 0
M  V30 16326 H 1557.59 -1.64988 -1.33763 0
M  V30 16327 H 1559.85 -0.695411 -0.644289 0
M  V30 16328 H 1559.56 -2.14113 -2.79014 0
M  V30 16329 H 1559.43 -0.655022 -3.71469 0
M  V30 16330 H 1561.82 -0.0222464 -2.95092 0
M  V30 16331 H 1561.9 -1.53897 -2.04327 0
M  V30 16332 H 1561.55 -2.83225 -4.21599 0
M  V30 16333 H 1561.48 -1.29027 -5.10548 0
M  V30 16334 H 1563.97 -1.31191 -3.54397 0
M  V30 16335 H 1564.28 -3.26043 -7.00654 0
M  V30 16336 H 1562.63 -2.92589 -6.3041 0
M  V30 16337 H 1565.82 -1.7038 -4.35991 0
M  V30 16338 H 1565.99 -2.59213 -5.93896 0
M  V30 16339 N 1559.4 1.51781 -0.424309 0
M  V30 16340 C 1560.81 1.59419 -0.0759329 0
M  V30 16341 C 1561.01 1.43616 1.41339 0
M  V30 16342 O 1560.07 1.27078 2.18191 0
M  V30 16343 C 1561.38 2.94966 -0.584411 0
M  V30 16344 C 1562.93 3.08241 -0.54371 0
M  V30 16345 C 1563.4 4.46292 -1.02895 0
M  V30 16346 N 1564.89 4.52575 -0.986392 0
M  V30 16347 C 1565.63 5.57694 -1.33286 0
M  V30 16348 N 1565.13 6.70293 -1.75154 0
M  V30 16349 N 1566.92 5.47983 -1.25186 0
M  V30 16350 H 1559.07 1.60299 -1.39349 0
M  V30 16351 H 1561.33 0.75492 -0.573411 0
M  V30 16352 H 1561.04 3.11859 -1.62593 0
M  V30 16353 H 1560.91 3.772 -0.00224435 0
M  V30 16354 H 1563.3 2.91024 0.488798 0
M  V30 16355 H 1563.38 2.27878 -1.16212 0
M  V30 16356 H 1563.02 4.64255 -2.05986 0
M  V30 16357 H 1562.95 5.25175 -0.387202 0
M  V30 16358 H 1565.45 3.71754 -0.678765 0
M  V30 16359 H 1565.76 7.46508 -1.99863 0
M  V30 16360 H 1564.1 6.71535 -1.79071 0
M  V30 16361 H 1567.29 4.58899 -0.923525 0
M  V30 16362 H 1567.47 6.29796 -1.52517 0
M  V30 16363 N 1560.87 0.155222 1.56834 0
M  V30 16364 C 1562.12 -0.493831 1.95561 0
M  V30 16365 C 1562.44 -1.65468 1.04305 0
M  V30 16366 O 1563.64 -2.36891 1.32646 0
M  V30 16367 C 1562.1 -0.929923 3.47679 0
M  V30 16368 C 1561.71 0.204447 4.47533 0
M  V30 16369 C 1563.45 -1.5483 3.95257 0
M  V30 16370 C 1561.36 -0.250375 5.9087 0
M  V30 16371 H 1560.29 -0.188258 0.73012 0
M  V30 16372 H 1562.94 0.240883 1.81912 0
M  V30 16373 H 1561.32 -1.72014 3.56689 0
M  V30 16374 H 1562.49 0.981535 4.50225 0
M  V30 16375 H 1560.81 0.731756 4.0992 0
M  V30 16376 H 1563.41 -1.90036 4.9979 0
M  V30 16377 H 1563.75 -2.44031 3.37275 0
M  V30 16378 H 1564.28 -0.822828 3.89197 0
M  V30 16379 H 1561.02 0.606461 6.52689 0
M  V30 16380 H 1560.54 -0.993164 5.9152 0
M  V30 16381 H 1562.22 -0.699645 6.43206 0
M  V30 16382 N 1562.35 -1.57153 -0.118549 0
M  V30 16383 C 1563.6 -1.84876 -0.826255 0
M  V30 16384 C 1563.93 -0.740373 -1.79858 0
M  V30 16385 O 1563.18 0.268233 -1.93853 0
M  V30 16386 C 1563.48 -3.19084 -1.60998 0
M  V30 16387 C 1563.15 -4.44069 -0.781911 0
M  V30 16388 C 1561.81 -4.78005 -0.553559 0
M  V30 16389 C 1564.16 -5.20798 -0.204739 0
M  V30 16390 C 1561.49 -5.86114 0.262212 0
M  V30 16391 C 1563.84 -6.29765 0.598225 0
M  V30 16392 C 1562.5 -6.62233 0.83689 0
M  V30 16393 H 1561.77 -0.676511 -0.302348 0
M  V30 16394 H 1564.42 -1.91295 -0.0886182 0
M  V30 16395 H 1562.73 -3.08243 -2.41854 0
M  V30 16396 H 1564.42 -3.37755 -2.16153 0
M  V30 16397 H 1561.01 -4.1748 -0.969984 0
M  V30 16398 H 1565.2 -4.94931 -0.368374 0
M  V30 16399 H 1560.45 -6.09695 0.456338 0
M  V30 16400 H 1564.63 -6.88401 1.05244 0
M  V30 16401 H 1562.25 -7.45835 1.47083 0
M  V30 16402 N 1563.83 0.388742 -1.5273 0
M  V30 16403 C 1565.07 1.14269 -1.69475 0
M  V30 16404 C 1565.43 1.87222 -0.425669 0
M  V30 16405 O 1566.63 2.64668 -0.469486 0
M  V30 16406 C 1564.91 2.09472 -2.8958 0
M  V30 16407 S 1566.46 2.927 -3.26913 0
M  V30 16408 H 1563.28 0.386807 -0.596574 0
M  V30 16409 H 1565.88 0.427089 -1.90778 0
M  V30 16410 H 1564.59 1.54599 -3.80167 0
M  V30 16411 H 1564.12 2.8554 -2.70611 0
M  V30 16412 H 1566.13 4.11605 -2.77121 0
M  V30 16413 N 1565.31 1.43698 0.647203 0
M  V30 16414 C 1566.24 1.45295 1.77262 0
M  V30 16415 C 1567.25 0.34831 1.5903 0
M  V30 16416 O 1568.44 0.613106 1.6764 0
M  V30 16417 C 1565.54 1.25584 3.14773 0
M  V30 16418 C 1564.71 2.48998 3.59609 0
M  V30 16419 C 1563.77 2.24423 4.75942 0
M  V30 16420 O 1562.8 2.97813 4.85073 0
M  V30 16421 N 1564 1.26465 5.66557 0
M  V30 16422 H 1566.77 2.42311 1.76368 0
M  V30 16423 H 1564.33 1.38931 0.831247 0
M  V30 16424 H 1566.32 1.07016 3.90294 0
M  V30 16425 H 1564.89 0.369927 3.10403 0
M  V30 16426 H 1564.11 2.82951 2.74467 0
M  V30 16427 H 1565.4 3.31119 3.86313 0
M  V30 16428 H 1564.8 0.658206 5.61858 0
M  V30 16429 H 1563.35 1.13879 6.41775 0
M  V30 16430 N 1566.79 -0.886131 1.30328 0
M  V30 16431 C 1567.72 -2.00793 1.19183 0
M  V30 16432 C 1568.7 -1.69899 0.08276 0
M  V30 16433 O 1569.88 -1.92389 0.264593 0
M  V30 16434 C 1567.01 -3.35922 0.881669 0
M  V30 16435 C 1565.97 -3.81072 1.94855 0
M  V30 16436 C 1565.29 -5.1348 1.4914 0
M  V30 16437 C 1566.59 -3.99923 3.35944 0
M  V30 16438 H 1568.29 -2.10375 2.13032 0
M  V30 16439 H 1565.83 -1.0108 1.02561 0
M  V30 16440 H 1567.79 -4.13922 0.790359 0
M  V30 16441 H 1566.51 -3.26469 -0.0925037 0
M  V30 16442 H 1565.17 -3.053 2.02947 0
M  V30 16443 H 1564.82 -5.00453 0.50553 0
M  V30 16444 H 1564.52 -5.44659 2.205 0
M  V30 16445 H 1566.04 -5.94005 1.41386 0
M  V30 16446 H 1567.45 -4.68364 3.30617 0
M  V30 16447 H 1565.85 -4.42477 4.05381 0
M  V30 16448 H 1566.92 -3.03816 3.77921 0
M  V30 16449 N 1568.26 -1.13026 -1.09832 0
M  V30 16450 C 1569.2 -0.747512 -2.1561 0
M  V30 16451 C 1570.18 0.2643 -1.60438 0
M  V30 16452 O 1571.36 0.156784 -1.87847 0
M  V30 16453 C 1568.49 -0.107449 -3.3853 0
M  V30 16454 C 1567.53 -1.08709 -4.12413 0
M  V30 16455 S 1568.37 -2.6176 -4.67164 0
M  V30 16456 C 1569.52 -1.99102 -5.93388 0
M  V30 16457 H 1569.75 -1.6435 -2.47743 0
M  V30 16458 H 1567.29 -0.949978 -1.21716 0
M  V30 16459 H 1569.25 0.255456 -4.09704 0
M  V30 16460 H 1567.91 0.765741 -3.04623 0
M  V30 16461 H 1567.1 -0.58698 -5.0057 0
M  V30 16462 H 1566.7 -1.39325 -3.4708 0
M  V30 16463 H 1568.99 -1.33755 -6.64166 0
M  V30 16464 H 1569.94 -2.85323 -6.48071 0
M  V30 16465 H 1570.34 -1.44429 -5.45711 0
M  V30 16466 N 1569.74 1.27735 -0.923117 0
M  V30 16467 C 1570.69 2.24644 -0.389748 0
M  V30 16468 C 1571.68 1.52822 0.50341 0
M  V30 16469 O 1572.87 1.73672 0.341602 0
M  V30 16470 C 1570 3.41402 0.360535 0
M  V30 16471 C 1569.08 4.20533 -0.548877 0
M  V30 16472 N 1569.47 4.77552 -1.66667 0
M  V30 16473 C 1567.77 4.44617 -0.35102 0
M  V30 16474 C 1568.47 5.37179 -2.23191 0
M  V30 16475 N 1567.45 5.21857 -1.52204 0
M  V30 16476 H 1571.25 2.66308 -1.24328 0
M  V30 16477 H 1568.77 1.42614 -0.776856 0
M  V30 16478 H 1570.76 4.09922 0.759555 0
M  V30 16479 H 1569.42 3.0127 1.21105 0
M  V30 16480 H 1570.43 4.75638 -2.04912 0
M  V30 16481 H 1567.11 4.14967 0.459214 0
M  V30 16482 H 1568.5 5.92274 -3.17272 0
M  V30 16483 N 1571.22 0.688118 1.41784 0
M  V30 16484 C 1572.17 -0.00492036 2.27999 0
M  V30 16485 C 1573.15 -0.760299 1.41804 0
M  V30 16486 O 1574.35 -0.637019 1.6514 0
M  V30 16487 C 1571.48 -0.945951 3.3001 0
M  V30 16488 C 1570.56 -0.187213 4.23687 0
M  V30 16489 N 1570.95 0.815028 4.9919 0
M  V30 16490 C 1569.25 -0.423765 4.43982 0
M  V30 16491 C 1569.95 1.26854 5.677 0
M  V30 16492 N 1568.93 0.595901 5.40324 0
M  V30 16493 H 1572.73 0.763628 2.83806 0
M  V30 16494 H 1570.24 0.518314 1.53907 0
M  V30 16495 H 1572.24 -1.45754 3.90591 0
M  V30 16496 H 1570.9 -1.71418 2.75764 0
M  V30 16497 H 1571.91 1.19502 5.03924 0
M  V30 16498 H 1568.59 -1.17046 4.00757 0
M  V30 16499 H 1569.98 2.0998 6.38246 0
M  V30 16500 N 1572.7 -1.51554 0.432352 0
M  V30 16501 C 1573.63 -2.30514 -0.372243 0
M  V30 16502 C 1574.61 -1.35712 -1.02549 0
M  V30 16503 O 1575.79 -1.6463 -1.03009 0
M  V30 16504 C 1572.92 -3.14353 -1.47646 0
M  V30 16505 C 1571.88 -4.17392 -0.946974 0
M  V30 16506 C 1571.2 -4.89721 -2.14656 0
M  V30 16507 C 1572.5 -5.22298 0.0151377 0
M  V30 16508 H 1574.2 -2.98024 0.28668 0
M  V30 16509 H 1571.74 -1.43325 0.139315 0
M  V30 16510 H 1573.7 -3.68369 -2.04651 0
M  V30 16511 H 1572.42 -2.44654 -2.1636 0
M  V30 16512 H 1571.08 -3.6442 -0.399174 0
M  V30 16513 H 1570.73 -4.1653 -2.81978 0
M  V30 16514 H 1570.43 -5.59393 -1.79869 0
M  V30 16515 H 1571.95 -5.46559 -2.72224 0
M  V30 16516 H 1573.37 -5.71416 -0.464447 0
M  V30 16517 H 1571.76 -5.99468 0.275339 0
M  V30 16518 H 1572.83 -4.75436 0.953357 0
M  V30 16519 N 1574.18 -0.163538 -1.56749 0
M  V30 16520 C 1575.4 0.489888 -2.01017 0
M  V30 16521 C 1575.82 1.57327 -1.04373 0
M  V30 16522 O 1575.18 1.82449 -0.0433414 0
M  V30 16523 C 1575.23 1.07537 -3.45135 0
M  V30 16524 O 1574.95 0.0352465 -4.38086 0
M  V30 16525 C 1576.45 1.80779 -4.04764 0
M  V30 16526 H 1573.67 0.126095 -0.659046 0
M  V30 16527 H 1576.21 -0.262982 -2.02802 0
M  V30 16528 H 1574.37 1.77877 -3.44149 0
M  V30 16529 H 1574.78 0.466426 -5.22422 0
M  V30 16530 H 1576.26 2.17014 -5.07552 0
M  V30 16531 H 1576.73 2.6999 -3.46413 0
M  V30 16532 H 1577.34 1.15098 -4.09429 0
M  V30 16533 N 1575.65 1.57214 0.110213 0
M  V30 16534 C 1576.56 2.04287 1.15342 0
M  V30 16535 C 1577.58 0.964895 1.44796 0
M  V30 16536 O 1578.76 1.27702 1.55737 0
M  V30 16537 C 1575.82 2.44518 2.45788 0
M  V30 16538 C 1574.88 3.66439 2.23653 0
M  V30 16539 C 1574.12 4.04742 3.47879 0
M  V30 16540 O 1574.34 3.43291 4.5553 0
M  V30 16541 O 1573.27 4.97791 3.38361 0
M  V30 16542 H 1577.1 2.93415 0.783656 0
M  V30 16543 H 1574.68 1.45897 0.321644 0
M  V30 16544 H 1576.57 2.71089 3.22628 0
M  V30 16545 H 1575.24 1.58533 2.82221 0
M  V30 16546 H 1574.15 3.45006 1.44643 0
M  V30 16547 H 1575.48 4.53156 1.9212 0
M  V30 16548 N 1577.13 -0.380637 1.52934 0
M  V30 16549 C 1578.08 -1.48584 1.78957 0
M  V30 16550 C 1579.07 -1.56103 0.657901 0
M  V30 16551 O 1580.28 -1.59169 0.84055 0
M  V30 16552 H 1576.66 -0.494687 0.566382 0
M  V30 16553 H 1578.63 -1.23833 2.71492 0
M  V30 16554 C 1577.38 -2.85615 1.98291 0
M  V30 16555 H 1576.7 -2.80583 2.84804 0
M  V30 16556 H 1578.14 -3.62164 2.20485 0
M  V30 16557 C 1576.6 -3.28267 0.757764 0
M  V30 16558 O 1577.13 -4.01654 -0.0608007 0
M  V30 16559 N 1575.33 -2.84641 0.585486 0
M  V30 16560 H 1574.88 -2.25087 1.25274 0
M  V30 16561 H 1574.84 -3.13536 -0.232871 0
M  V30 16562 N 1578.61 -1.44039 -0.639573 0
M  V30 16563 C 1579.56 -1.46693 -1.74543 0
M  V30 16564 C 1580.54 -0.333712 -1.57401 0
M  V30 16565 O 1581.74 -0.578443 -1.67281 0
M  V30 16566 C 1578.87 -1.40586 -3.13194 0
M  V30 16567 C 1577.95 -2.5899 -3.35835 0
M  V30 16568 N 1578.34 -3.84279 -3.28882 0
M  V30 16569 C 1576.64 -2.54005 -3.66602 0
M  V30 16570 C 1577.34 -4.63125 -3.5198 0
M  V30 16571 N 1576.32 -3.94067 -3.74449 0
M  V30 16572 H 1580.12 -2.41419 -1.67612 0
M  V30 16573 H 1577.63 -1.38883 -0.841739 0
M  V30 16574 H 1579.63 -1.4057 -3.92486 0
M  V30 16575 H 1578.29 -0.46891 -3.21296 0
M  V30 16576 H 1579.3 -4.16369 -3.07988 0
M  V30 16577 H 1575.98 -1.69065 -3.81737 0
M  V30 16578 H 1577.37 -5.72151 -3.52268 0
M  V30 16579 N 1580.09 0.879207 -1.30796 0
M  V30 16580 C 1581.04 1.98553 -1.17667 0
M  V30 16581 C 1582.01 1.65974 -0.0647231 0
M  V30 16582 O 1583.19 1.89336 -0.235941 0
M  V30 16583 C 1580.33 3.3368 -0.880434 0
M  V30 16584 C 1579.44 3.78913 -2.07482 0
M  V30 16585 C 1578.58 5.02714 -1.71617 0
M  V30 16586 C 1577.62 5.40371 -2.87517 0
M  V30 16587 N 1576.75 6.55352 -2.5191 0
M  V30 16588 H 1581.59 2.09115 -2.12309 0
M  V30 16589 H 1579.13 1.02382 -1.05623 0
M  V30 16590 H 1581.09 4.11467 -0.689278 0
M  V30 16591 H 1579.72 3.22787 0.0291283 0
M  V30 16592 H 1578.77 2.96987 -2.37704 0
M  V30 16593 H 1580.08 4.02757 -2.94259 0
M  V30 16594 H 1579.24 5.88142 -1.4891 0
M  V30 16595 H 1577.98 4.80754 -0.820181 0
M  V30 16596 H 1576.98 4.53466 -3.10883 0
M  V30 16597 H 1578.21 5.64301 -3.77811 0
M  V30 16598 H 1576.15 6.34956 -1.64823 0
M  V30 16599 H 1576.07 6.79093 -3.32217 0
M  V30 16600 H 1577.34 7.43996 -2.32573 0
M  V30 16601 N 1581.57 1.13606 1.09231 0
M  V30 16602 C 1582.82 0.893694 1.8082 0
M  V30 16603 C 1583.13 -0.581713 1.8675 0
M  V30 16604 O 1584.34 -0.941079 2.54668 0
M  V30 16605 C 1582.79 1.54932 3.24845 0
M  V30 16606 C 1582.4 3.0604 3.27175 0
M  V30 16607 C 1584.14 1.38773 4.01176 0
M  V30 16608 C 1582.05 3.64478 4.65735 0
M  V30 16609 H 1580.98 0.330699 0.677609 0
M  V30 16610 H 1583.63 1.36401 1.22748 0
M  V30 16611 H 1582.01 1.00668 3.82991 0
M  V30 16612 H 1583.19 3.66901 2.78783 0
M  V30 16613 H 1581.5 3.21739 2.64335 0
M  V30 16614 H 1584.1 1.79843 5.03548 0
M  V30 16615 H 1584.44 0.33282 4.14967 0
M  V30 16616 H 1584.98 1.90028 3.49477 0
M  V30 16617 H 1581.71 4.69785 4.57146 0
M  V30 16618 H 1581.23 3.08396 5.14444 0
M  V30 16619 H 1582.91 3.64272 5.3471 0
M  V30 16620 N 1583.05 -1.27244 0.929878 0
M  V30 16621 C 1584.29 -1.94902 0.5818 0
M  V30 16622 C 1584.65 -1.71719 -0.867768 0
M  V30 16623 O 1583.94 -1.03697 -1.61113 0
M  V30 16624 C 1584.13 -3.47233 0.846386 0
M  V30 16625 C 1583.96 -3.85228 2.32012 0
M  V30 16626 C 1582.73 -4.08567 2.97323 0
M  V30 16627 C 1584.93 -3.94651 3.2978 0
M  V30 16628 N 1582.91 -4.33358 4.34826 0
M  V30 16629 C 1584.28 -4.23843 4.52501 0
M  V30 16630 C 1586.34 -3.77235 3.24959 0
M  V30 16631 C 1585.04 -4.37431 5.71005 0
M  V30 16632 C 1587.07 -3.92049 4.42777 0
M  V30 16633 C 1586.43 -4.21629 5.64277 0
M  V30 16634 H 1582.53 -0.736425 0.263063 0
M  V30 16635 H 1585.11 -1.53562 1.19695 0
M  V30 16636 H 1583.28 -3.87526 0.260378 0
M  V30 16637 H 1585.02 -4.02069 0.460717 0
M  V30 16638 H 1581.77 -4.03486 2.47984 0
M  V30 16639 H 1582.19 -4.49807 5.05967 0
M  V30 16640 H 1586.84 -3.53404 2.32089 0
M  V30 16641 H 1584.55 -4.60087 6.64339 0
M  V30 16642 H 1588.14 -3.7999 4.40567 0
M  V30 16643 H 1587.02 -4.32843 6.53924 0
M  V30 16644 N 1584.52 -0.695628 -1.41417 0
M  V30 16645 C 1585.47 -0.0303383 -2.3078 0
M  V30 16646 C 1586.44 0.771218 -1.4711 0
M  V30 16647 O 1587.63 0.739239 -1.75897 0
M  V30 16648 C 1584.77 0.900034 -3.33157 0
M  V30 16649 C 1583.88 0.0900862 -4.31906 0
M  V30 16650 C 1583.01 1.01811 -5.21352 0
M  V30 16651 C 1582.05 0.201068 -6.1177 0
M  V30 16652 N 1581.19 1.0829 -6.93699 0
M  V30 16653 H 1586.03 -0.798148 -2.87113 0
M  V30 16654 H 1583.57 -0.405311 -1.41406 0
M  V30 16655 H 1585.52 1.45349 -3.91062 0
M  V30 16656 H 1584.15 1.63424 -2.78375 0
M  V30 16657 H 1583.21 -0.58029 -3.75948 0
M  V30 16658 H 1584.52 -0.543336 -4.95832 0
M  V30 16659 H 1583.67 1.64079 -5.84092 0
M  V30 16660 H 1582.41 1.68538 -4.57653 0
M  V30 16661 H 1581.42 -0.434686 -5.48079 0
M  V30 16662 H 1582.64 -0.462416 -6.77524 0
M  V30 16663 H 1580.59 1.73619 -6.32608 0
M  V30 16664 H 1580.5 0.505046 -7.54311 0
M  V30 16665 H 1581.77 1.69239 -7.60906 0
M  V30 16666 N 1586 1.51322 -0.440383 0
M  V30 16667 C 1586.91 2.31574 0.37561 0
M  V30 16668 C 1587.93 1.40617 1.02483 0
M  V30 16669 O 1589.1 1.73688 1.01953 0
M  V30 16670 C 1586.17 3.14441 1.4604 0
M  V30 16671 C 1585.23 4.21181 0.830991 0
M  V30 16672 C 1584.46 5.00087 1.86409 0
M  V30 16673 O 1584.69 4.79666 3.08669 0
M  V30 16674 O 1583.62 5.84101 1.45293 0
M  V30 16675 H 1587.45 3.0241 -0.27962 0
M  V30 16676 H 1585.03 1.48016 -0.202857 0
M  V30 16677 H 1586.91 3.6595 2.08946 0
M  V30 16678 H 1585.59 2.46366 2.09965 0
M  V30 16679 H 1584.49 3.73741 0.163798 0
M  V30 16680 H 1585.83 4.91638 0.235174 0
M  V30 16681 N 1587.48 0.171848 1.5666 0
M  V30 16682 C 1588.73 -0.473061 1.96074 0
M  V30 16683 C 1589.04 -1.64353 1.06054 0
M  V30 16684 O 1590.25 -2.35471 1.35151 0
M  V30 16685 C 1588.7 -0.892995 3.48645 0
M  V30 16686 C 1588.31 0.251902 4.47291 0
M  V30 16687 C 1590.06 -1.50629 3.96877 0
M  V30 16688 C 1587.96 -0.187691 5.91102 0
M  V30 16689 H 1586.89 -0.180503 0.732075 0
M  V30 16690 H 1589.54 0.260164 1.81646 0
M  V30 16691 H 1587.93 -1.68221 3.58494 0
M  V30 16692 H 1589.1 1.02923 4.49159 0
M  V30 16693 H 1587.41 0.775193 4.09121 0
M  V30 16694 H 1590.01 -1.84724 5.01778 0
M  V30 16695 H 1590.35 -2.4044 3.39844 0
M  V30 16696 H 1590.89 -0.781502 3.90048 0
M  V30 16697 H 1587.63 0.675653 6.52009 0
M  V30 16698 H 1587.15 -0.93037 5.9254 0
M  V30 16699 H 1588.83 -0.631385 6.43912 0
M  V30 16700 N 1588.96 -1.5727 -0.101874 0
M  V30 16701 C 1590.2 -1.86017 -0.807795 0
M  V30 16702 C 1590.54 -0.760024 -1.7871 0
M  V30 16703 O 1589.81 0.232627 -1.93104 0
M  V30 16704 C 1590.09 -3.25388 -1.54255 0
M  V30 16705 C 1589.95 -4.46023 -0.581693 0
M  V30 16706 C 1591.27 -3.62561 -2.49474 0
M  V30 16707 H 1588.39 -0.676596 -0.29221 0
M  V30 16708 H 1591.03 -1.89865 -0.0715861 0
M  V30 16709 H 1589.18 -3.22239 -2.17013 0
M  V30 16710 H 1590.85 -4.61284 0.0383529 0
M  V30 16711 H 1589.09 -4.33672 0.105465 0
M  V30 16712 H 1589.76 -5.40251 -1.1328 0
M  V30 16713 H 1592.24 -3.66611 -1.96813 0
M  V30 16714 H 1591.12 -4.61025 -2.97905 0
M  V30 16715 H 1591.38 -2.90885 -3.32924 0
M  V30 16716 N 1590.44 0.372521 -1.53134 0
M  V30 16717 C 1591.35 1.47994 -1.8203 0
M  V30 16718 C 1592.36 1.58937 -0.708179 0
M  V30 16719 O 1593.54 1.74962 -0.997511 0
M  V30 16720 C 1590.6 2.83342 -1.99796 0
M  V30 16721 C 1589.66 2.81984 -3.23702 0
M  V30 16722 C 1588.9 4.10877 -3.40611 0
M  V30 16723 O 1589.12 5.06686 -2.61964 0
M  V30 16724 O 1588.05 4.17111 -4.33938 0
M  V30 16725 H 1591.88 1.26501 -2.761 0
M  V30 16726 H 1589.46 0.561957 -1.38428 0
M  V30 16727 H 1591.35 3.63551 -2.13092 0
M  V30 16728 H 1590.02 3.04826 -1.08916 0
M  V30 16729 H 1588.93 2.00498 -3.15834 0
M  V30 16730 H 1590.26 2.65453 -4.14482 0
M  V30 16731 N 1591.91 1.44376 0.631925 0
M  V30 16732 C 1592.82 1.5367 1.77264 0
M  V30 16733 C 1593.84 0.422425 1.68794 0
M  V30 16734 O 1595.02 0.679656 1.89585 0
M  V30 16735 C 1592.08 1.47743 3.13644 0
M  V30 16736 C 1591.14 2.70015 3.33752 0
M  V30 16737 C 1590.37 2.64362 4.63626 0
M  V30 16738 O 1590.6 1.7032 5.44378 0
M  V30 16739 O 1589.53 3.55201 4.85918 0
M  V30 16740 H 1593.36 2.5004 1.72376 0
M  V30 16741 H 1590.94 1.26614 0.793052 0
M  V30 16742 H 1592.82 1.46958 3.94945 0
M  V30 16743 H 1591.5 0.545165 3.19076 0
M  V30 16744 H 1590.41 2.76369 2.52133 0
M  V30 16745 H 1591.74 3.62286 3.33181 0
M  V30 16746 N 1593.39 -0.872258 1.31261 0
M  V30 16747 C 1594.3 -2.01185 1.20673 0
M  V30 16748 C 1595.32 -1.73558 0.123921 0
M  V30 16749 O 1596.49 -1.98487 0.341288 0
M  V30 16750 C 1593.56 -3.34481 0.91232 0
M  V30 16751 C 1592.62 -3.75446 2.08179 0
M  V30 16752 C 1591.85 -5.02382 1.80134 0
M  V30 16753 O 1592.08 -5.6564 0.735358 0
M  V30 16754 O 1591.01 -5.40059 2.65744 0
M  V30 16755 H 1594.84 -2.13049 2.16434 0
M  V30 16756 H 1592.42 -1.00021 1.10978 0
M  V30 16757 H 1594.3 -4.14419 0.763879 0
M  V30 16758 H 1592.98 -3.23696 -0.0152802 0
M  V30 16759 H 1591.88 -2.96159 2.28562 0
M  V30 16760 H 1593.22 -3.90853 2.99156 0
M  V30 16761 N 1594.87 -1.14184 -1.08627 0
M  V30 16762 C 1595.78 -0.84033 -2.19033 0
M  V30 16763 C 1596.8 0.178322 -1.73084 0
M  V30 16764 O 1597.97 0.00737963 -2.01399 0
M  V30 16765 C 1595.04 -0.319674 -3.45223 0
M  V30 16766 C 1594.1 -1.4006 -4.0581 0
M  V30 16767 C 1593.33 -0.904693 -5.25976 0
M  V30 16768 O 1593.55 0.25468 -5.69831 0
M  V30 16769 O 1592.49 -1.68267 -5.77901 0
M  V30 16770 H 1596.31 -1.76296 -2.47292 0
M  V30 16771 H 1593.9 -0.919929 -1.17719 0
M  V30 16772 H 1595.78 -0.0351268 -4.21385 0
M  V30 16773 H 1594.46 0.575264 -3.18547 0
M  V30 16774 H 1593.36 -1.73858 -3.31247 0
M  V30 16775 H 1594.7 -2.26998 -4.3673 0
M  V30 16776 N 1596.35 1.26749 -0.936613 0
M  V30 16777 C 1597.3 2.26542 -0.441307 0
M  V30 16778 C 1598.27 1.58503 0.496581 0
M  V30 16779 O 1599.45 1.86259 0.41379 0
M  V30 16780 C 1596.59 3.43866 0.291633 0
M  V30 16781 C 1595.7 4.26592 -0.681397 0
M  V30 16782 C 1594.84 5.31151 0.0722826 0
M  V30 16783 C 1593.88 6.05553 -0.892869 0
M  V30 16784 N 1593.01 7.01891 -0.17124 0
M  V30 16785 H 1597.85 2.68282 -1.29725 0
M  V30 16786 H 1595.39 1.31914 -0.650928 0
M  V30 16787 H 1597.35 4.10711 0.732984 0
M  V30 16788 H 1595.98 3.03051 1.11175 0
M  V30 16789 H 1595.03 3.59579 -1.24126 0
M  V30 16790 H 1596.34 4.78201 -1.41864 0
M  V30 16791 H 1595.5 6.03987 0.57313 0
M  V30 16792 H 1594.24 4.80369 0.842439 0
M  V30 16793 H 1593.24 5.31548 -1.40488 0
M  V30 16794 H 1594.47 6.58424 -1.66296 0
M  V30 16795 H 1592.41 6.53426 0.580507 0
M  V30 16796 H 1592.33 7.5123 -0.847897 0
M  V30 16797 H 1593.6 7.78889 0.308662 0
M  V30 16798 N 1597.83 0.703118 1.41046 0
M  V30 16799 C 1599.07 0.241543 2.02968 0
M  V30 16800 C 1599.43 -1.13975 1.54511 0
M  V30 16801 O 1600.63 -1.69761 2.0841 0
M  V30 16802 C 1598.9 0.305021 3.56096 0
M  V30 16803 S 1600.46 -0.0813994 4.38724 0
M  V30 16804 H 1597.28 0.0967141 0.704391 0
M  V30 16805 H 1599.88 0.922571 1.72363 0
M  V30 16806 H 1598.59 1.31219 3.88857 0
M  V30 16807 H 1598.12 -0.394903 3.91413 0
M  V30 16808 H 1600.13 -1.30702 4.78677 0
M  V30 16809 N 1599.3 -1.51086 0.448402 0
M  V30 16810 C 1600.25 -2.28015 -0.357438 0
M  V30 16811 C 1601.22 -1.32079 -1.00719 0
M  V30 16812 O 1602.41 -1.60995 -1.02398 0
M  V30 16813 C 1599.55 -3.13324 -1.44644 0
M  V30 16814 C 1598.66 -4.24267 -0.813729 0
M  V30 16815 C 1597.79 -4.96868 -1.87871 0
M  V30 16816 C 1596.83 -5.99716 -1.22502 0
M  V30 16817 N 1595.97 -6.65682 -2.23185 0
M  V30 16818 H 1600.81 -2.96436 0.30493 0
M  V30 16819 H 1598.35 -1.46203 0.162222 0
M  V30 16820 H 1600.31 -3.61119 -2.08924 0
M  V30 16821 H 1598.94 -2.46996 -2.07829 0
M  V30 16822 H 1597.99 -3.80354 -0.0589414 0
M  V30 16823 H 1599.3 -4.97917 -0.296587 0
M  V30 16824 H 1598.45 -5.48266 -2.59786 0
M  V30 16825 H 1597.19 -4.22873 -2.42961 0
M  V30 16826 H 1596.2 -5.476 -0.491388 0
M  V30 16827 H 1597.42 -6.75674 -0.681315 0
M  V30 16828 H 1595.37 -5.94493 -2.77334 0
M  V30 16829 H 1595.29 -7.35134 -1.76393 0
M  V30 16830 H 1596.55 -7.21707 -2.9455 0
M  V30 16831 N 1600.78 -0.180154 -1.56567 0
M  V30 16832 C 1601.75 0.732809 -2.17169 0
M  V30 16833 C 1602.75 1.15176 -1.1221 0
M  V30 16834 O 1603.94 1.06728 -1.37677 0
M  V30 16835 C 1601.07 1.99857 -2.7617 0
M  V30 16836 H 1602.26 0.205088 -2.99198 0
M  V30 16837 H 1599.81 0.0694351 -1.56146 0
M  V30 16838 H 1600.55 2.56917 -1.97899 0
M  V30 16839 H 1600.33 1.70705 -3.5299 0
M  V30 16840 H 1601.82 2.64992 -3.22752 0
M  V30 16841 N 1602.26 1.57322 0.0935319 0
M  V30 16842 C 1603.54 1.77187 0.828503 0
M  V30 16843 C 1603.92 0.762216 1.96859 0
M  V30 16844 O 1603.27 -0.208982 2.27542 0
M  V30 16845 C 1603.48 3.23007 1.32163 0
M  V30 16846 C 1604.82 3.86233 1.76379 0
M  V30 16847 O 1605.85 3.26766 1.41783 0
M  V30 16848 O 1604.71 4.90808 2.40354 0
M  V30 16849 H 1601.8 0.726401 0.395311 0
M  V30 16850 H 1604.35 1.69533 0.0752924 0
M  V30 16851 H 1603.12 3.88029 0.504863 0
M  V30 16852 H 1602.74 3.353 2.13681 0
M  V30 16853 N 1603.74 -0.364395 1.53329 0
M  V30 16854 C 1604.99 -1.10473 1.69234 0
M  V30 16855 C 1605.31 -1.89799 0.447347 0
M  V30 16856 O 1604.58 -1.8835 -0.538612 0
M  V30 16857 H 1603.16 -0.410826 0.623884 0
M  V30 16858 H 1605.82 -0.410721 1.90523 0
M  V30 16859 H 1604.92 -1.79387 2.55396 0
M  V30 16860 N 1605.22 -1.44709 -0.62426 0
M  V30 16861 C 1606.16 -1.52413 -1.75707 0
M  V30 16862 C 1607.16 -0.395303 -1.64723 0
M  V30 16863 O 1608.36 -0.570535 -1.70719 0
M  V30 16864 H 1604.74 -0.478401 -0.580204 0
M  V30 16865 H 1606.71 -2.47742 -1.66333 0
M  V30 16866 C 1605.46 -1.49208 -3.14058 0
M  V30 16867 H 1604.78 -2.35387 -3.23161 0
M  V30 16868 H 1606.22 -1.58658 -3.93197 0
M  V30 16869 C 1604.68 -0.213877 -3.3622 0
M  V30 16870 O 1605.21 0.713128 -3.95319 0
M  V30 16871 N 1603.42 -0.114834 -2.90373 0
M  V30 16872 H 1602.96 -0.870047 -2.42462 0
M  V30 16873 H 1602.92 0.739619 -3.05576 0
M  V30 16874 N 1606.69 0.865285 -1.31722 0
M  V30 16875 C 1607.64 1.97294 -1.19766 0
M  V30 16876 C 1608.61 1.65896 -0.0823232 0
M  V30 16877 O 1609.8 1.89075 -0.256009 0
M  V30 16878 C 1606.94 3.32727 -0.915776 0
M  V30 16879 C 1606.05 3.76691 -2.11489 0
M  V30 16880 C 1605.18 5.00865 -1.76939 0
M  V30 16881 C 1604.22 5.37291 -2.93232 0
M  V30 16882 N 1603.36 6.52643 -2.58846 0
M  V30 16883 H 1608.2 2.06851 -2.14515 0
M  V30 16884 H 1605.74 1.01256 -1.06703 0
M  V30 16885 H 1607.7 4.10712 -0.732881 0
M  V30 16886 H 1606.33 3.228 -0.00510917 0
M  V30 16887 H 1605.38 2.94449 -2.4084 0
M  V30 16888 H 1606.69 3.99613 -2.98514 0
M  V30 16889 H 1605.84 5.86529 -1.5514 0
M  V30 16890 H 1604.58 4.79857 -0.871125 0
M  V30 16891 H 1603.59 4.50143 -3.15675 0
M  V30 16892 H 1604.81 5.60262 -3.83775 0
M  V30 16893 H 1602.76 6.33172 -1.71548 0
M  V30 16894 H 1602.68 6.75531 -3.39401 0
M  V30 16895 H 1603.94 7.41487 -2.40451 0
M  V30 16896 N 1608.17 1.14759 1.0802 0
M  V30 16897 C 1609.1 0.860977 2.17047 0
M  V30 16898 C 1610.08 -0.185652 1.69084 0
M  V30 16899 O 1611.27 -0.0414797 1.94156 0
M  V30 16900 C 1608.4 0.342018 3.45612 0
M  V30 16901 C 1607.35 1.32455 4.06989 0
M  V30 16902 C 1606.68 0.664721 5.30552 0
M  V30 16903 C 1607.98 2.68819 4.4781 0
M  V30 16904 H 1609.67 1.77269 2.4128 0
M  V30 16905 H 1607.22 0.853757 1.15961 0
M  V30 16906 H 1609.17 0.129093 4.21202 0
M  V30 16907 H 1607.9 -0.605138 3.20945 0
M  V30 16908 H 1606.55 1.52371 3.33435 0
M  V30 16909 H 1606.2 -0.288367 5.02173 0
M  V30 16910 H 1605.9 1.32036 5.72573 0
M  V30 16911 H 1607.43 0.461412 6.08854 0
M  V30 16912 H 1608.84 2.52787 5.14559 0
M  V30 16913 H 1607.24 3.30694 5.00761 0
M  V30 16914 H 1608.31 3.25398 3.59506 0
M  V30 16915 N 1609.65 -1.26251 0.943322 0
M  V30 16916 C 1610.58 -2.25468 0.411904 0
M  V30 16917 C 1611.6 -1.55988 -0.466005 0
M  V30 16918 O 1612.78 -1.76352 -0.276106 0
M  V30 16919 C 1609.88 -3.362 -0.426909 0
M  V30 16920 C 1609.06 -4.35228 0.435346 0
M  V30 16921 C 1608.12 -5.25078 -0.343388 0
M  V30 16922 O 1607.14 -5.68632 0.254322 0
M  V30 16923 N 1608.34 -5.5687 -1.63939 0
M  V30 16924 H 1611.11 -2.71701 1.26486 0
M  V30 16925 H 1608.67 -1.40039 0.812438 0
M  V30 16926 H 1610.66 -3.93263 -0.955316 0
M  V30 16927 H 1609.23 -2.89446 -1.18067 0
M  V30 16928 H 1608.45 -3.77206 1.14495 0
M  V30 16929 H 1609.74 -4.98384 1.02427 0
M  V30 16930 H 1609.14 -5.2337 -2.14709 0
M  V30 16931 H 1607.7 -6.16566 -2.11399 0
M  V30 16932 N 1611.13 -0.710588 -1.40671 0
M  V30 16933 C 1612.38 -0.248316 -2.01274 0
M  V30 16934 C 1612.71 1.1539 -1.56201 0
M  V30 16935 O 1611.98 1.78182 -0.779838 0
M  V30 16936 C 1612.27 -0.322762 -3.58651 0
M  V30 16937 C 1612.12 -1.763 -4.1381 0
M  V30 16938 C 1613.44 0.308908 -4.39015 0
M  V30 16939 H 1610.56 -0.0917037 -0.731272 0
M  V30 16940 H 1613.2 -0.902145 -1.67216 0
M  V30 16941 H 1611.35 0.233923 -3.87795 0
M  V30 16942 H 1613.02 -2.37468 -3.95483 0
M  V30 16943 H 1611.26 -2.29233 -3.68286 0
M  V30 16944 H 1611.94 -1.76652 -5.22971 0
M  V30 16945 H 1614.41 -0.165363 -4.15771 0
M  V30 16946 H 1613.29 0.226347 -5.48433 0
M  V30 16947 H 1613.55 1.39174 -4.19622 0
M  V30 16948 N 1612.61 1.50847 -0.456408 0
M  V30 16949 C 1613.52 2.31959 0.351027 0
M  V30 16950 C 1614.53 1.41697 1.00986 0
M  V30 16951 O 1615.71 1.7476 1.00105 0
M  V30 16952 C 1612.77 3.15973 1.42696 0
M  V30 16953 C 1611.84 4.22038 0.786272 0
M  V30 16954 C 1611.07 5.02036 1.81094 0
M  V30 16955 O 1611.29 4.82913 3.03564 0
M  V30 16956 O 1610.23 5.85609 1.3909 0
M  V30 16957 H 1614.05 3.02096 -0.311678 0
M  V30 16958 H 1611.64 1.47793 -0.218544 0
M  V30 16959 H 1613.52 3.68146 2.05053 0
M  V30 16960 H 1612.19 2.48579 2.0734 0
M  V30 16961 H 1611.1 3.73894 0.124148 0
M  V30 16962 H 1612.43 4.9186 0.183016 0
M  V30 16963 N 1614.09 0.188454 1.56469 0
M  V30 16964 C 1615.03 -0.751822 2.20115 0
M  V30 16965 C 1616.03 -1.22476 1.1703 0
M  V30 16966 O 1617.23 -1.18843 1.3519 0
M  V30 16967 H 1613.61 -0.260778 0.705336 0
M  V30 16968 H 1615.58 -0.191249 2.97786 0
M  V30 16969 C 1614.33 -1.96365 2.86943 0
M  V30 16970 H 1613.65 -1.60879 3.66003 0
M  V30 16971 H 1615.09 -2.60007 3.34921 0
M  V30 16972 C 1613.55 -2.7982 1.87623 0
M  V30 16973 O 1614.08 -3.7753 1.37237 0
M  V30 16974 N 1612.29 -2.45179 1.55999 0
M  V30 16975 H 1611.83 -1.6578 1.97167 0
M  V30 16976 H 1611.79 -3.01302 0.898012 0
M  V30 16977 N 1615.56 -1.5737 -0.0851874 0
M  V30 16978 C 1616.79 -1.91183 -0.803983 0
M  V30 16979 C 1617.21 -0.78365 -1.70999 0
M  V30 16980 O 1616.57 0.264266 -1.79364 0
M  V30 16981 C 1616.62 -3.239 -1.58496 0
M  V30 16982 O 1615.72 -3.12189 -2.69466 0
M  V30 16983 H 1615.06 -0.626413 -0.220233 0
M  V30 16984 H 1617.59 -2.04519 -0.0574426 0
M  V30 16985 H 1617.6 -3.5745 -1.96707 0
M  V30 16986 H 1616.28 -4.05594 -0.920111 0
M  V30 16987 H 1614.86 -2.90173 -2.3421 0
M  V30 16988 N 1617.04 0.356258 -1.53521 0
M  V30 16989 C 1618.27 1.12273 -1.74383 0
M  V30 16990 C 1618.69 1.81981 -0.475881 0
M  V30 16991 O 1618.05 1.72083 0.570699 0
M  V30 16992 C 1618.1 2.12161 -2.91582 0
M  V30 16993 O 1617.2 3.1943 -2.60842 0
M  V30 16994 H 1616.54 0.325321 -0.578845 0
M  V30 16995 H 1619.07 0.410533 -2.00439 0
M  V30 16996 H 1619.08 2.55602 -3.18012 0
M  V30 16997 H 1617.76 1.60818 -3.8355 0
M  V30 16998 H 1616.33 2.80895 -2.4526 0
M  V30 16999 N 1618.52 1.45038 0.616577 0
M  V30 17000 C 1619.45 1.55858 1.73869 0
M  V30 17001 C 1620.43 0.410657 1.65069 0
M  V30 17002 O 1621.62 0.632652 1.83606 0
M  V30 17003 C 1618.75 1.51635 3.12448 0
M  V30 17004 C 1617.7 2.65053 3.36052 0
M  V30 17005 C 1617.03 2.45883 4.74811 0
M  V30 17006 C 1618.33 4.07121 3.27185 0
M  V30 17007 H 1620.02 2.49784 1.6507 0
M  V30 17008 H 1617.57 1.20216 0.792724 0
M  V30 17009 H 1619.52 1.57803 3.90738 0
M  V30 17010 H 1618.24 0.542342 3.22066 0
M  V30 17011 H 1616.9 2.58299 2.60149 0
M  V30 17012 H 1616.55 1.46641 4.8115 0
M  V30 17013 H 1616.25 3.21935 4.9156 0
M  V30 17014 H 1617.77 2.53892 5.55312 0
M  V30 17015 H 1619.19 4.15167 3.9536 0
M  V30 17016 H 1617.58 4.83491 3.55466 0
M  V30 17017 H 1618.65 4.29663 2.24762 0
M  V30 17018 N 1620 -0.858287 1.32179 0
M  V30 17019 C 1621.41 -1.4281 1.20259 0
M  V30 17020 C 1621.76 -1.95313 -0.186332 0
M  V30 17021 O 1620.88 -1.87244 -1.08484 0
M  V30 17022 C 1621.48 -2.59589 2.17713 0
M  V30 17023 C 1620.04 -3.1258 2.09691 0
M  V30 17024 C 1619.19 -1.85317 2.06283 0
M  V30 17025 H 1622.14 -0.665769 1.4406 0
M  V30 17026 H 1622.16 -3.36639 1.77354 0
M  V30 17027 H 1621.67 -2.21346 3.18791 0
M  V30 17028 H 1619.77 -3.55416 1.11849 0
M  V30 17029 H 1619.88 -3.74071 2.99346 0
M  V30 17030 H 1618.25 -2.04766 1.51469 0
M  V30 17031 H 1619.03 -1.49296 3.09137 0
M  V30 17032 N 1621.48 -1.1533 -1.07409 0
M  V30 17033 C 1622.41 -0.807289 -2.14512 0
M  V30 17034 C 1623.42 0.18043 -1.61797 0
M  V30 17035 O 1624.61 -0.042733 -1.78449 0
M  V30 17036 C 1621.71 -0.179338 -3.38425 0
M  V30 17037 C 1620.88 -1.20433 -4.20493 0
M  V30 17038 C 1619.94 -0.598268 -5.22788 0
M  V30 17039 O 1618.97 -1.26405 -5.54987 0
M  V30 17040 N 1620.17 0.620283 -5.77177 0
M  V30 17041 H 1622.93 -1.729 -2.44797 0
M  V30 17042 H 1620.5 -1.0491 -1.23311 0
M  V30 17043 H 1622.49 0.238867 -4.03994 0
M  V30 17044 H 1621.06 0.645706 -3.05858 0
M  V30 17045 H 1620.28 -1.79912 -3.5075 0
M  V30 17046 H 1621.57 -1.89642 -4.72137 0
M  V30 17047 H 1620.96 1.17958 -5.53265 0
M  V30 17048 H 1619.52 0.980853 -6.44378 0
M  V30 17049 N 1622.95 1.25748 -0.950004 0
M  V30 17050 C 1623.92 2.24307 -0.47106 0
M  V30 17051 C 1624.92 1.55145 0.422704 0
M  V30 17052 O 1626.11 1.72797 0.220642 0
M  V30 17053 C 1623.24 3.39395 0.319979 0
M  V30 17054 H 1624.43 2.68192 -1.34214 0
M  V30 17055 H 1621.98 1.38056 -0.732827 0
M  V30 17056 H 1622.72 3.00925 1.20892 0
M  V30 17057 H 1622.5 3.90783 -0.321157 0
M  V30 17058 H 1623.99 4.12594 0.644697 0
M  V30 17059 N 1624.43 0.718038 1.40292 0
M  V30 17060 C 1625.71 0.185648 1.94717 0
M  V30 17061 C 1626.09 -1.30916 1.65603 0
M  V30 17062 O 1625.44 -2.06653 0.975031 0
M  V30 17063 C 1625.65 0.501015 3.45385 0
M  V30 17064 C 1626.99 0.441021 4.22303 0
M  V30 17065 O 1628.02 0.437217 3.53507 0
M  V30 17066 O 1626.88 0.420689 5.44878 0
M  V30 17067 H 1623.97 0.0281581 0.82652 0
M  V30 17068 H 1626.52 0.795738 1.49887 0
M  V30 17069 H 1625.29 1.5348 3.59944 0
M  V30 17070 H 1624.91 -0.138913 3.97357 0
M  V30 17071 N 1625.91 -1.50602 0.464402 0
M  V30 17072 C 1626.82 -2.32142 -0.338721 0
M  V30 17073 C 1627.84 -1.4223 -1.00233 0
M  V30 17074 O 1629.01 -1.75288 -0.99177 0
M  V30 17075 C 1626.08 -3.16725 -1.41019 0
M  V30 17076 C 1625.14 -4.22449 -0.76388 0
M  V30 17077 C 1624.37 -5.0299 -1.78429 0
M  V30 17078 O 1624.59 -4.84516 -3.00999 0
M  V30 17079 O 1623.53 -5.86338 -1.35982 0
M  V30 17080 H 1627.35 -3.01927 0.327695 0
M  V30 17081 H 1624.94 -1.47675 0.226379 0
M  V30 17082 H 1626.82 -3.69228 -2.03097 0
M  V30 17083 H 1625.5 -2.49675 -2.06019 0
M  V30 17084 H 1624.4 -3.73955 -0.104318 0
M  V30 17085 H 1625.74 -4.9195 -0.156929 0
M  V30 17086 N 1627.39 -0.19675 -1.56367 0
M  V30 17087 C 1628.64 0.441807 -1.96802 0
M  V30 17088 C 1628.95 1.62645 -1.08656 0
M  V30 17089 O 1630.16 2.33291 -1.3888 0
M  V30 17090 C 1628.61 0.837415 -3.50022 0
M  V30 17091 C 1628.22 -0.323031 -4.46834 0
M  V30 17092 C 1629.96 1.44296 -3.99223 0
M  V30 17093 C 1627.87 0.0936285 -5.91326 0
M  V30 17094 H 1626.8 0.168834 -0.734854 0
M  V30 17095 H 1629.45 -0.289029 -1.81209 0
M  V30 17096 H 1627.83 1.62497 -3.61124 0
M  V30 17097 H 1629.01 -1.10056 -4.47464 0
M  V30 17098 H 1627.32 -0.840182 -4.07836 0
M  V30 17099 H 1629.92 1.76718 -5.04653 0
M  V30 17100 H 1630.26 2.35003 -3.43627 0
M  V30 17101 H 1630.8 0.71935 -3.91242 0
M  V30 17102 H 1627.54 -0.779297 -6.50851 0
M  V30 17103 H 1627.06 0.835984 -5.93946 0
M  V30 17104 H 1628.73 0.528864 -6.44835 0
M  V30 17105 N 1628.87 1.57413 0.0768405 0
M  V30 17106 C 1629.8 2.00058 1.11845 0
M  V30 17107 C 1630.81 0.905783 1.35275 0
M  V30 17108 O 1632 1.18372 1.33605 0
M  V30 17109 C 1629.1 2.32002 2.47039 0
M  V30 17110 C 1628.27 3.63265 2.43634 0
M  V30 17111 C 1627.33 3.82937 3.60896 0
M  V30 17112 O 1626.36 4.54582 3.42555 0
M  V30 17113 N 1627.56 3.24904 4.81059 0
M  V30 17114 H 1630.33 2.90026 0.75533 0
M  V30 17115 H 1627.89 1.59707 0.265567 0
M  V30 17116 H 1629.88 2.4234 3.24119 0
M  V30 17117 H 1628.45 1.4795 2.75372 0
M  V30 17118 H 1627.67 3.63727 1.51974 0
M  V30 17119 H 1628.96 4.49462 2.38455 0
M  V30 17120 H 1628.35 2.66742 4.98864 0
M  V30 17121 H 1626.91 3.40699 5.55669 0
M  V30 17122 N 1630.34 -0.348112 1.53707 0
M  V30 17123 C 1631.59 -1.09048 1.70987 0
M  V30 17124 C 1631.92 -1.88444 0.469305 0
M  V30 17125 O 1631.2 -1.87037 -0.533629 0
M  V30 17126 C 1631.48 -2.03542 2.97057 0
M  V30 17127 C 1631.33 -1.27638 4.3131 0
M  V30 17128 C 1632.65 -3.03424 3.18782 0
M  V30 17129 H 1629.77 -0.395049 0.622178 0
M  V30 17130 H 1632.41 -0.369498 1.86373 0
M  V30 17131 H 1630.56 -2.65021 2.8407 0
M  V30 17132 H 1632.24 -0.688079 4.56139 0
M  V30 17133 H 1630.48 -0.578349 4.29927 0
M  V30 17134 H 1631.15 -1.96891 5.15692 0
M  V30 17135 H 1633.63 -2.52056 3.31069 0
M  V30 17136 H 1632.5 -3.66748 4.08396 0
M  V30 17137 H 1632.76 -3.74553 2.34866 0
M  V30 17138 N 1631.82 -1.45363 -0.608876 0
M  V30 17139 C 1633.07 -1.48586 -1.364 0
M  V30 17140 C 1633.38 -0.131213 -1.95159 0
M  V30 17141 O 1634.59 -0.0410845 -2.71469 0
M  V30 17142 C 1633.05 -2.61694 -2.47071 0
M  V30 17143 C 1632.65 -4.03466 -1.94729 0
M  V30 17144 C 1634.4 -2.74162 -3.24091 0
M  V30 17145 C 1632.31 -5.07958 -3.02874 0
M  V30 17146 H 1631.24 -0.552893 -0.512665 0
M  V30 17147 H 1633.89 -1.71499 -0.65271 0
M  V30 17148 H 1632.27 -2.32062 -3.20879 0
M  V30 17149 H 1633.44 -4.4277 -1.27638 0
M  V30 17150 H 1631.76 -3.95436 -1.30457 0
M  V30 17151 H 1634.35 -3.494 -4.04752 0
M  V30 17152 H 1634.7 -1.80751 -3.75013 0
M  V30 17153 H 1635.23 -3.03313 -2.57383 0
M  V30 17154 H 1631.97 -6.03073 -2.56871 0
M  V30 17155 H 1631.49 -4.73225 -3.68535 0
M  V30 17156 H 1633.17 -5.3265 -3.67277 0
M  V30 17157 N 1633.3 0.851265 -1.32632 0
M  V30 17158 C 1634.21 1.99239 -1.23858 0
M  V30 17159 C 1635.23 1.73339 -0.151517 0
M  V30 17160 O 1636.4 1.97919 -0.372822 0
M  V30 17161 C 1633.47 3.32987 -0.965417 0
M  V30 17162 C 1632.53 3.72087 -2.14126 0
M  V30 17163 C 1631.76 4.99453 -1.88103 0
M  V30 17164 O 1631.98 5.64399 -0.825253 0
M  V30 17165 O 1630.92 5.35763 -2.74302 0
M  V30 17166 H 1634.74 2.09579 -2.19796 0
M  V30 17167 H 1632.33 0.98243 -1.12555 0
M  V30 17168 H 1634.21 4.13151 -0.829713 0
M  V30 17169 H 1632.89 3.2368 -0.036219 0
M  V30 17170 H 1631.79 2.92485 -2.33245 0
M  V30 17171 H 1633.13 3.86045 -3.05336 0
M  V30 17172 N 1634.78 1.15898 1.06796 0
M  V30 17173 C 1635.69 0.87507 2.17669 0
M  V30 17174 C 1636.7 -0.150763 1.73346 0
M  V30 17175 O 1637.88 0.0246621 2.01385 0
M  V30 17176 C 1634.95 0.374555 3.44671 0
M  V30 17177 C 1634.01 1.46498 4.0353 0
M  V30 17178 C 1633.24 0.988256 5.2447 0
M  V30 17179 O 1633.46 -0.163992 5.70164 0
M  V30 17180 O 1632.4 1.7744 5.75151 0
M  V30 17181 H 1636.22 1.80208 2.44456 0
M  V30 17182 H 1633.81 0.93854 1.1624 0
M  V30 17183 H 1635.69 0.102161 4.21276 0
M  V30 17184 H 1634.36 -0.524513 3.19422 0
M  V30 17185 H 1633.27 1.79105 3.28439 0
M  V30 17186 H 1634.6 2.33917 4.33063 0
M  V30 17187 N 1636.26 -1.25243 0.956659 0
M  V30 17188 C 1637.22 -2.24054 0.482949 0
M  V30 17189 C 1638.22 -1.55367 -0.41447 0
M  V30 17190 O 1639.41 -1.72912 -0.211475 0
M  V30 17191 C 1636.54 -3.3956 -0.301975 0
M  V30 17192 H 1637.73 -2.67476 1.35634 0
M  V30 17193 H 1635.29 -1.37665 0.740138 0
M  V30 17194 H 1636.02 -3.01561 -1.19294 0
M  V30 17195 H 1635.81 -3.90607 0.341876 0
M  V30 17196 H 1637.3 -4.1293 -0.622807 0
M  V30 17197 N 1637.73 -0.725468 -1.3991 0
M  V30 17198 C 1639.01 -0.195971 -1.94616 0
M  V30 17199 C 1639.39 1.30035 -1.66295 0
M  V30 17200 O 1638.74 2.06133 -0.985977 0
M  V30 17201 C 1638.95 -0.519325 -3.45115 0
M  V30 17202 C 1640.3 -0.46341 -4.22064 0
M  V30 17203 O 1641.32 -0.455958 -3.5327 0
M  V30 17204 O 1640.18 -0.449579 -5.44648 0
M  V30 17205 H 1637.27 -0.0325409 -0.82636 0
M  V30 17206 H 1639.82 -0.803676 -1.49463 0
M  V30 17207 H 1638.59 -1.55386 -3.59125 0
M  V30 17208 H 1638.22 0.117838 -3.97425 0
M  V30 17209 N 1639.21 1.50354 -0.472382 0
M  V30 17210 C 1640.12 2.32318 0.326405 0
M  V30 17211 C 1641.14 1.4276 0.994771 0
M  V30 17212 O 1642.31 1.75811 0.98246 0
M  V30 17213 C 1639.38 3.17468 1.39337 0
M  V30 17214 C 1638.44 4.22848 0.741465 0
M  V30 17215 C 1637.67 5.03929 1.75759 0
M  V30 17216 O 1637.9 4.86105 2.98425 0
M  V30 17217 O 1636.83 5.87051 1.32871 0
M  V30 17218 H 1640.66 3.01749 -0.343702 0
M  V30 17219 H 1638.24 1.47553 -0.234207 0
M  V30 17220 H 1640.12 3.703 2.01136 0
M  V30 17221 H 1638.8 2.50764 2.04692 0
M  V30 17222 H 1637.71 3.74005 0.0844848 0
M  V30 17223 H 1639.04 4.92026 0.130838 0
M  V30 17224 N 1640.69 0.205039 1.56261 0
M  V30 17225 C 1641.6 -0.723548 2.23164 0
M  V30 17226 C 1642.62 -1.22683 1.23389 0
M  V30 17227 O 1643.79 -1.27191 1.56155 0
M  V30 17228 C 1640.86 -1.92178 2.88563 0
M  V30 17229 C 1639.92 -1.46209 4.03635 0
M  V30 17230 C 1639.15 -2.60321 4.65906 0
M  V30 17231 O 1639.38 -3.78051 4.27122 0
M  V30 17232 O 1638.31 -2.32465 5.55197 0
M  V30 17233 H 1642.14 -0.183715 3.03144 0
M  V30 17234 H 1639.72 -0.0246933 1.4938 0
M  V30 17235 H 1641.6 -2.62188 3.29902 0
M  V30 17236 H 1640.28 -2.45003 2.11555 0
M  V30 17237 H 1639.18 -0.730492 3.66899 0
M  V30 17238 H 1640.52 -0.980402 4.82337 0
M  V30 17239 N 1642.17 -1.57451 -0.0684915 0
M  V30 17240 C 1643.08 -2.07274 -1.09885 0
M  V30 17241 C 1644.1 -1.00295 -1.42186 0
M  V30 17242 O 1645.27 -1.31786 -1.52297 0
M  V30 17243 C 1642.34 -2.50949 -2.39219 0
M  V30 17244 C 1641.4 -3.7224 -2.13859 0
M  V30 17245 C 1640.63 -4.13823 -3.37026 0
M  V30 17246 O 1640.85 -3.55248 -4.46268 0
M  V30 17247 O 1639.79 -5.06587 -3.25044 0
M  V30 17248 H 1643.61 -2.9539 -0.705587 0
M  V30 17249 H 1641.2 -1.46698 -0.282849 0
M  V30 17250 H 1643.08 -2.79547 -3.15327 0
M  V30 17251 H 1641.76 -1.6596 -2.77919 0
M  V30 17252 H 1640.66 -3.4872 -1.35445 0
M  V30 17253 H 1642 -4.58091 -1.80038 0
M  V30 17254 O 1643.69 0.212043 -1.60102 0
M  V30 17255 H 1644.38 0.852415 -1.73936 0
M  V30 END ATOM
M  V30 BEGIN BOND
M  V30 END BOND
M  V30 END CTAB
M  END
$$$$
