drugbank_target|P19531 Maltogenic alpha-amylase (DB03323; DB03971)
 OpenBabel12092119573D

  0  0  0     0  0            999 V3000
M  V30 BEGIN CTAB
M  V30 COUNTS 10896 11037 0 0 0
M  V30 BEGIN ATOM
M  V30 1 H -0.908 1.98254 -0.117106 0
M  V30 2 N 0 1.576 0 0
M  V30 3 C 0.933 2.03868 1.02534 0
M  V30 4 C 1.911 0.928543 1.3348 0
M  V30 5 O 3.095 1.19667 1.45644 0
M  V30 6 C 0.222 2.43627 2.35294 0
M  V30 7 C -0.732 3.65373 2.2001 0
M  V30 8 S 0.101 5.13292 1.52614 0
M  V30 9 C 1.257 5.56322 2.86805 0
M  V30 10 H 1.49 2.90518 0.631377 0
M  V30 11 H -0.977 1.52953 0.210867 0
M  V30 12 H 0.981 2.67203 3.11629 0
M  V30 13 H -0.358 1.57376 2.7183 0
M  V30 14 H -1.165 3.90944 3.18086 0
M  V30 15 H -1.563 3.418 1.51819 0
M  V30 16 H 0.729 5.58782 3.83104 0
M  V30 17 H 1.672 6.56266 2.65933 0
M  V30 18 H 2.08 4.83886 2.90714 0
M  V30 19 N 1.4781 -0.272755 1.55222 0
M  V30 20 C 2.4251 -1.33716 1.88119 0
M  V30 21 C 3.3951 -1.49066 0.73271 0
M  V30 22 O 4.5801 -1.63469 0.984002 0
M  V30 23 C 1.7201 -2.69238 2.15882 0
M  V30 24 C 0.8331 -2.62108 3.43399 0
M  V30 25 C -0.0319 -3.89811 3.60861 0
M  V30 26 C -0.9929 -3.77193 4.8207 0
M  V30 27 N -1.8559 -4.9673 4.96189 0
M  V30 28 H 2.9841 -1.04962 2.78903 0
M  V30 29 H 0.5211 -0.507088 1.38083 0
M  V30 30 H 2.4791 -3.48089 2.29978 0
M  V30 31 H 1.1091 -2.96194 1.28331 0
M  V30 32 H 0.1611 -1.74967 3.37773 0
M  V30 33 H 1.4731 -2.48685 4.32386 0
M  V30 34 H 0.6271 -4.77103 3.74777 0
M  V30 35 H -0.6339 -4.06102 2.7006 0
M  V30 36 H -1.6289 -2.88284 4.68159 0
M  V30 37 H -0.4039 -3.62421 5.74307 0
M  V30 38 H -2.4579 -5.13431 4.08319 0
M  V30 39 H -2.5409 -4.85839 5.79221 0
M  V30 40 H -1.2729 -5.85594 5.1449 0
M  V30 41 N 2.9562 -1.48159 -0.537278 0
M  V30 42 C 3.9032 -1.62138 -1.64256 0
M  V30 43 C 4.8732 -0.463668 -1.59497 0
M  V30 44 O 6.0582 -0.686241 -1.78032 0
M  V30 45 C 3.1982 -1.66028 -3.02537 0
M  V30 46 C 2.3112 -2.92855 -3.17585 0
M  V30 47 C 1.4462 -2.87952 -4.46382 0
M  V30 48 C 0.4852 -4.09516 -4.54932 0
M  V30 49 N -0.3778 -4.02733 -5.75109 0
M  V30 50 H 4.4622 -2.56529 -1.51647 0
M  V30 51 H 1.9992 -1.27224 -0.738414 0
M  V30 52 H 3.9572 -1.66265 -3.82638 0
M  V30 53 H 2.5872 -0.751331 -3.13934 0
M  V30 54 H 1.6392 -3.02395 -2.30784 0
M  V30 55 H 2.9512 -3.82822 -3.19764 0
M  V30 56 H 2.1052 -2.8655 -5.34765 0
M  V30 57 H 0.8442 -1.95702 -4.46712 0
M  V30 58 H -0.1508 -4.11201 -3.64957 0
M  V30 59 H 1.0742 -5.02917 -4.56346 0
M  V30 60 H -0.9798 -3.13299 -5.76351 0
M  V30 61 H -1.0628 -4.86397 -5.78752 0
M  V30 62 H 0.2052 -4.05379 -6.65799 0
M  V30 63 N 4.4343 0.785586 -1.36625 0
M  V30 64 C 5.3813 1.89838 -1.31264 0
M  V30 65 C 6.3513 1.65115 -0.180633 0
M  V30 66 O 7.5363 1.87222 -0.36777 0
M  V30 67 C 4.6763 3.26706 -1.11163 0
M  V30 68 C 3.7893 3.63476 -2.33472 0
M  V30 69 C 2.9243 4.89481 -2.06353 0
M  V30 70 C 1.9633 5.18941 -3.24602 0
M  V30 71 N 1.1003 6.36131 -2.97123 0
M  V30 72 H 5.9403 1.93756 -2.26413 0
M  V30 73 H 3.4773 0.947454 -1.12524 0
M  V30 74 H 5.4353 4.05639 -0.975337 0
M  V30 75 H 4.0653 3.222 -0.196674 0
M  V30 76 H 3.1173 2.79636 -2.57891 0
M  V30 77 H 4.4293 3.81193 -3.21704 0
M  V30 78 H 3.5833 5.76288 -1.89675 0
M  V30 79 H 2.3223 4.73841 -1.15437 0
M  V30 80 H 1.3273 4.30615 -3.41834 0
M  V30 81 H 2.5523 5.36498 -4.16349 0
M  V30 82 H 0.4983 6.21875 -2.08823 0
M  V30 83 H 0.4153 6.54198 -3.78894 0
M  V30 84 H 1.6833 7.2591 -2.84033 0
M  V30 85 N 5.9124 1.20967 1.01018 0
M  V30 86 C 7.1404 1.04956 1.78303 0
M  V30 87 C 7.5554 -0.400915 1.84494 0
M  V30 88 O 6.9124 -1.27826 1.30257 0
M  V30 89 C 6.9634 1.63403 3.22462 0
M  V30 90 O 6.6844 3.02775 3.16637 0
M  V30 91 C 8.1854 1.52432 4.16268 0
M  V30 92 H 5.4054 0.368858 0.560522 0
M  V30 93 H 7.9494 1.60193 1.27116 0
M  V30 94 H 6.1044 1.1227 3.70775 0
M  V30 95 H 6.5184 3.30626 4.07169 0
M  V30 96 H 7.9924 1.98078 5.15237 0
M  V30 97 H 8.4694 0.477875 4.36592 0
M  V30 98 H 9.0754 2.02787 3.73841 0
M  V30 99 N 7.3905 -1.2043 1.01659 0
M  V30 100 C 8.3205 -2.25466 0.607226 0
M  V30 101 C 9.3015 -1.65853 -0.377716 0
M  V30 102 O 10.4865 -1.92409 -0.263149 0
M  V30 103 C 7.6165 -3.47256 -0.0552949 0
M  V30 104 C 6.5705 -4.19462 0.850632 0
M  V30 105 C 5.8965 -5.34673 0.0538859 0
M  V30 106 C 7.1965 -4.75603 2.15868 0
M  V30 107 H 8.8905 -2.59962 1.48526 0
M  V30 108 H 6.4365 -1.2496 0.715605 0
M  V30 109 H 8.3895 -4.19917 -0.353233 0
M  V30 110 H 7.1135 -3.11924 -0.968045 0
M  V30 111 H 5.7725 -3.48667 1.13257 0
M  V30 112 H 5.4205 -4.95585 -0.860514 0
M  V30 113 H 5.1205 -5.83913 0.657192 0
M  V30 114 H 6.6445 -6.10138 -0.237598 0
M  V30 115 H 8.0585 -5.40083 1.92311 0
M  V30 116 H 6.4555 -5.3528 2.71284 0
M  V30 117 H 7.5255 -3.94346 2.82169 0
M  V30 118 N 8.8686 -0.792821 -1.36206 0
M  V30 119 C 10.0936 -0.377701 -2.03932 0
M  V30 120 C 10.5186 0.998947 -1.59382 0
M  V30 121 O 9.8766 1.64421 -0.763903 0
M  V30 122 C 9.9246 -0.453635 -3.57735 0
M  V30 123 O 9.0286 0.538151 -4.08874 0
M  V30 124 H 8.3696 -0.159855 -0.644471 0
M  V30 125 H 10.8996 -1.07488 -1.7409 0
M  V30 126 H 10.9096 -0.318464 -4.06755 0
M  V30 127 H 9.5846 -1.45784 -3.89512 0
M  V30 128 H 8.1616 0.364359 -3.71116 0
M  V30 129 N 10.3467 1.47872 -0.545128 0
M  V30 130 C 11.2767 2.32661 0.197793 0
M  V30 131 C 12.2577 1.43041 0.920504 0
M  V30 132 O 13.4427 1.71912 0.90333 0
M  V30 133 C 10.5727 3.24569 1.23582 0
M  V30 134 C 9.5267 4.23333 0.630323 0
M  V30 135 C 8.8527 5.0448 1.77211 0
M  V30 136 C 10.1527 5.20704 -0.407974 0
M  V30 137 H 11.8467 2.95024 -0.510045 0
M  V30 138 H 9.3927 1.4187 -0.246731 0
M  V30 139 H 11.3457 3.8272 1.76362 0
M  V30 140 H 10.0697 2.60236 1.97344 0
M  V30 141 H 8.7287 3.6639 0.123922 0
M  V30 142 H 8.3767 4.36561 2.49847 0
M  V30 143 H 8.0767 5.71339 1.37281 0
M  V30 144 H 9.6007 5.65487 2.3034 0
M  V30 145 H 11.0147 5.7329 0.033305 0
M  V30 146 H 9.4117 5.95699 -0.725486 0
M  V30 147 H 10.4817 4.66917 -1.30828 0
M  V30 148 N 11.8248 0.280983 1.55075 0
M  V30 149 C 13.0718 -0.334115 1.99725 0
M  V30 150 C 13.3998 -1.5542 1.1694 0
M  V30 151 O 12.6548 -1.94361 0.228531 0
M  V30 152 C 12.9538 -0.754656 3.49342 0
M  V30 153 C 12.6198 0.361445 4.49449 0
M  V30 154 C 11.2818 0.667893 4.76542 0
M  V30 155 C 13.6338 1.11322 5.09173 0
M  V30 156 C 10.9618 1.7296 5.60626 0
M  V30 157 C 13.3138 2.1647 5.9441 0
M  V30 158 C 11.9778 2.47742 6.19822 0
M  V30 159 H 11.2478 -0.122261 0.730844 0
M  V30 160 H 13.8948 0.395917 1.87363 0
M  V30 161 H 12.1998 -1.56446 3.5921 0
M  V30 162 H 13.8968 -1.24142 3.813 0
M  V30 163 H 10.4868 0.112481 4.28452 0
M  V30 164 H 14.6708 0.88973 4.8826 0
M  V30 165 H 9.9268 1.97684 5.78559 0
M  V30 166 H 14.1008 2.75193 6.3972 0
M  V30 167 H 11.7278 3.30145 6.84769 0
M  V30 168 N 13.3029 -1.57598 0.00835791 0
M  V30 169 C 14.5489 -1.91211 -0.675732 0
M  V30 170 C 14.8819 -0.883139 -1.72958 0
M  V30 171 O 14.1569 0.097016 -1.94258 0
M  V30 172 C 14.4399 -3.35379 -1.31123 0
M  V30 173 C 14.2929 -4.48999 -0.268356 0
M  V30 174 C 15.6119 -3.7912 -2.23508 0
M  V30 175 H 12.7309 -0.695374 -0.244179 0
M  V30 176 H 15.3729 -1.89901 0.0613655 0
M  V30 177 H 13.5229 -3.36626 -1.93946 0
M  V30 178 H 15.1949 -4.59887 0.360844 0
M  V30 179 H 13.4379 -4.31873 0.408482 0
M  V30 180 H 14.1089 -5.46851 -0.752218 0
M  V30 181 H 16.5849 -3.79477 -1.70693 0
M  V30 182 H 15.4609 -4.80729 -2.64936 0
M  V30 183 H 15.7219 -3.13455 -3.11766 0
M  V30 184 N 14.781 0.264519 -1.55364 0
M  V30 185 C 16.029 0.993021 -1.76021 0
M  V30 186 C 16.35 1.86511 -0.569099 0
M  V30 187 O 15.62 1.91438 0.415735 0
M  V30 188 H 14.2 0.369639 -0.649135 0
M  V30 189 H 16.862 0.286707 -1.9278 0
M  V30 190 H 15.958 1.62502 -2.66457 0
M  V30 191 N 16.2591 1.48442 0.529413 0
M  V30 192 C 17.1891 1.65902 1.64313 0
M  V30 193 C 18.1701 0.507897 1.6234 0
M  V30 194 O 19.3551 0.740503 1.79528 0
M  V30 195 C 16.4851 1.69911 3.02898 0
M  V30 196 C 15.4391 2.8453 3.19729 0
M  V30 197 C 14.7651 2.73629 4.59381 0
M  V30 198 C 16.0651 4.25821 3.02447 0
M  V30 199 H 17.7591 2.5914 1.49955 0
M  V30 200 H 15.3051 1.24709 0.719982 0
M  V30 201 H 17.2581 1.80715 3.80684 0
M  V30 202 H 15.9821 0.732524 3.18279 0
M  V30 203 H 14.6411 2.73283 2.44361 0
M  V30 204 H 14.2891 1.74938 4.71599 0
M  V30 205 H 13.9891 3.50541 4.71588 0
M  V30 206 H 15.5131 2.86401 5.39265 0
M  V30 207 H 16.9271 4.37898 3.70024 0
M  V30 208 H 15.3241 5.03735 3.26146 0
M  V30 209 H 16.3941 4.42244 1.98867 0
M  V30 210 N 17.7372 -0.778329 1.37039 0
M  V30 211 C 18.6702 -1.8984 1.26633 0
M  V30 212 C 19.6482 -1.61923 0.148197 0
M  V30 213 O 20.8322 -1.85742 0.321265 0
M  V30 214 C 17.9592 -3.24916 0.956403 0
M  V30 215 C 17.0052 -3.71752 2.09051 0
M  V30 216 S 17.8382 -3.86201 3.70957 0
M  V30 217 C 18.9942 -5.24135 3.42101 0
M  V30 218 H 19.2272 -1.98377 2.21436 0
M  V30 219 H 16.7602 -0.938738 1.22585 0
M  V30 220 H 18.7182 -4.02936 0.784409 0
M  V30 221 H 17.3792 -3.14089 0.0259713 0
M  V30 222 H 16.5722 -4.69661 1.8285 0
M  V30 223 H 16.1742 -3.00815 2.2223 0
M  V30 224 H 18.4662 -6.09086 2.96682 0
M  V30 225 H 19.4092 -5.55346 4.39314 0
M  V30 226 H 19.8172 -4.91761 2.77185 0
M  V30 227 N 19.2153 -1.21501 -1.00376 0
M  V30 228 C 20.1453 -0.999478 -2.11028 0
M  V30 229 C 21.1263 0.0759671 -1.6993 0
M  V30 230 O 22.3113 -0.0841106 -1.94018 0
M  V30 231 C 19.4413 -0.564709 -3.42678 0
M  V30 232 C 18.3953 -1.58486 -3.97576 0
M  V30 233 C 17.7213 -1.00628 -5.25146 0
M  V30 234 C 19.0213 -2.97204 -4.29496 0
M  V30 235 H 20.7153 -1.92495 -2.29317 0
M  V30 236 H 18.2613 -0.92693 -1.102 0
M  V30 237 H 20.2143 -0.401091 -4.19487 0
M  V30 238 H 18.9383 0.396411 -3.24185 0
M  V30 239 H 17.5973 -1.73606 -3.22888 0
M  V30 240 H 17.2453 -0.0368439 -5.02987 0
M  V30 241 H 16.9453 -1.68771 -5.62841 0
M  V30 242 H 18.4693 -0.854015 -6.04598 0
M  V30 243 H 19.8833 -2.8552 -4.97143 0
M  V30 244 H 18.2803 -3.62372 -4.78338 0
M  V30 245 H 19.3503 -3.47956 -3.3772 0
M  V30 246 N 20.6934 1.19889 -1.02296 0
M  V30 247 C 21.6234 2.25141 -0.619174 0
M  V30 248 C 22.6044 1.66051 0.368915 0
M  V30 249 O 23.7894 1.92546 0.252941 0
M  V30 250 C 20.9194 3.4728 0.0368783 0
M  V30 251 C 19.8734 4.19005 -0.872865 0
M  V30 252 C 19.1994 5.34637 -0.0822402 0
M  V30 253 C 20.4994 4.74452 -2.18387 0
M  V30 254 H 22.1934 2.59171 -1.49903 0
M  V30 255 H 19.7394 1.24579 -0.722222 0
M  V30 256 H 21.6924 4.20098 0.330958 0
M  V30 257 H 20.4164 3.12433 0.95149 0
M  V30 258 H 19.0754 3.48061 -1.15105 0
M  V30 259 H 18.7234 4.96034 0.83422 0
M  V30 260 H 18.4234 5.83557 -0.688149 0
M  V30 261 H 19.9474 6.10255 0.205238 0
M  V30 262 H 21.3614 5.39055 -1.95172 0
M  V30 263 H 19.7584 5.33834 -2.74119 0
M  V30 264 H 20.8284 3.92844 -2.84257 0
M  V30 265 N 22.1715 0.800033 1.35784 0
M  V30 266 C 23.4205 0.37387 1.98205 0
M  V30 267 C 23.7335 -1.06302 1.64193 0
M  V30 268 O 24.9395 -1.59198 2.19928 0
M  V30 269 C 23.3955 0.617532 3.54562 0
M  V30 270 C 23.0035 2.06654 3.9749 0
M  V30 271 C 24.7475 0.256401 4.23725 0
M  V30 272 C 22.6545 2.2563 5.46667 0
M  V30 273 H 21.5845 0.136055 0.741623 0
M  V30 274 H 24.2355 0.983166 1.54939 0
M  V30 275 H 22.6175 -0.0616248 3.95952 0
M  V30 276 H 23.7915 2.78296 3.67271 0
M  V30 277 H 22.1065 2.38691 3.41197 0
M  V30 278 H 24.7035 0.376318 5.33374 0
M  V30 279 H 25.0465 -0.796692 4.08606 0
M  V30 280 H 25.5795 0.889214 3.87734 0
M  V30 281 H 22.3185 3.2936 5.66747 0
M  V30 282 H 21.8385 1.58504 5.78478 0
M  V30 283 H 23.5175 2.06861 6.1304 0
M  V30 284 N 23.6496 -1.47581 0.552962 0
M  V30 285 C 24.8976 -2.02082 0.0272703 0
M  V30 286 C 25.2186 -1.4301 -1.32563 0
M  V30 287 O 24.4886 -0.603745 -1.86365 0
M  V30 288 H 23.0686 -0.746966 0.00709182 0
M  V30 289 H 25.7306 -1.81033 0.722008 0
M  V30 290 H 24.8266 -3.12034 -0.0639951 0
M  V30 291 N 25.1277 -0.289203 -1.54924 0
M  V30 292 C 26.0577 0.58549 -2.2604 0
M  V30 293 C 27.0387 1.14753 -1.25562 0
M  V30 294 O 28.2237 1.17906 -1.54311 0
M  V30 295 C 25.3537 1.76305 -2.99222 0
M  V30 296 C 24.3077 1.33191 -4.06748 0
M  V30 297 C 23.6337 2.5937 -4.6758 0
M  V30 298 C 24.9337 0.471775 -5.20165 0
M  V30 299 H 26.6277 -0.00763532 -2.99399 0
M  V30 300 H 24.1737 -0.00511229 -1.43999 0
M  V30 301 H 26.1267 2.38097 -3.47689 0
M  V30 302 H 24.8507 2.38223 -2.23422 0
M  V30 303 H 23.5097 0.737121 -3.59113 0
M  V30 304 H 23.1577 3.19576 -3.88433 0
M  V30 305 H 22.8577 2.31228 -5.40192 0
M  V30 306 H 24.3817 3.21985 -5.18804 0
M  V30 307 H 25.7957 0.995056 -5.64599 0
M  V30 308 H 24.1927 0.284639 -5.99425 0
M  V30 309 H 25.2627 -0.506041 -4.82252 0
M  V30 310 N 26.6058 1.57591 -0.0167156 0
M  V30 311 C 27.5358 2.12496 0.967858 0
M  V30 312 C 28.5168 1.03807 1.34752 0
M  V30 313 O 29.7018 1.31577 1.42833 0
M  V30 314 C 26.8318 2.64194 2.25431 0
M  V30 315 C 25.7858 3.77559 2.01576 0
M  V30 316 C 25.1118 4.15636 3.36379 0
M  V30 317 C 26.4118 5.04151 1.36489 0
M  V30 318 H 28.1058 2.95013 0.510643 0
M  V30 319 H 25.6518 1.41915 0.244181 0
M  V30 320 H 27.6048 3.01236 2.94678 0
M  V30 321 H 26.3288 1.78821 2.73296 0
M  V30 322 H 24.9878 3.40937 1.34751 0
M  V30 323 H 24.6358 3.27263 3.81979 0
M  V30 324 H 24.3358 4.92022 3.21229 0
M  V30 325 H 25.8598 4.5525 4.06915 0
M  V30 326 H 27.2738 5.38857 1.95718 0
M  V30 327 H 25.6708 5.85453 1.31776 0
M  V30 328 H 26.7408 4.83733 0.336219 0
M  V30 329 N 28.0839 -0.256276 1.55502 0
M  V30 330 C 29.3309 -0.985619 1.76895 0
M  V30 331 C 29.6589 -1.85671 0.579355 0
M  V30 332 O 28.9139 -1.90744 -0.437651 0
M  V30 333 C 29.2129 -1.88432 3.03691 0
M  V30 334 C 28.8789 -1.16936 4.35473 0
M  V30 335 C 27.5409 -0.97173 4.71286 0
M  V30 336 C 29.8929 -0.661889 5.1698 0
M  V30 337 C 27.2209 -0.254179 5.86149 0
M  V30 338 C 29.5729 0.042149 6.32586 0
M  V30 339 C 28.2369 0.25134 6.67027 0
M  V30 340 H 27.5069 -0.360663 0.647304 0
M  V30 341 H 30.1539 -0.256483 1.89775 0
M  V30 342 H 28.4589 -2.68021 2.85783 0
M  V30 343 H 30.1559 -2.45015 3.1744 0
M  V30 344 H 26.7459 -1.33332 4.07333 0
M  V30 345 H 30.9299 -0.802145 4.89775 0
M  V30 346 H 26.1859 -0.0815408 6.11346 0
M  V30 347 H 30.3599 0.443049 6.94989 0
M  V30 348 H 27.9869 0.809314 7.5588 0
M  V30 349 N 29.562 -1.4872 -0.521534 0
M  V30 350 C 30.787 -1.61101 -1.30618 0
M  V30 351 C 31.212 -0.274611 -1.86085 0
M  V30 352 O 30.57 0.754937 -1.64834 0
M  V30 353 C 30.618 -2.66709 -2.4269 0
M  V30 354 O 29.722 -2.24456 -3.45967 0
M  V30 355 H 29.063 -0.539921 -0.386499 0
M  V30 356 H 31.593 -1.94767 -0.626645 0
M  V30 357 H 31.603 -2.88245 -2.88754 0
M  V30 358 H 30.278 -3.63727 -2.01682 0
M  V30 359 H 28.855 -2.13168 -3.05964 0
M  V30 360 N 31.0401 0.771051 -1.3745 0
M  V30 361 C 32.2881 1.52661 -1.32435 0
M  V30 362 C 32.6091 1.9479 0.0905024 0
M  V30 363 O 31.8791 1.66348 1.03466 0
M  V30 364 H 30.4591 0.566218 -0.487244 0
M  V30 365 H 33.1211 0.917636 -1.71946 0
M  V30 366 H 32.2171 2.42568 -1.96385 0
M  V30 367 N 32.5182 1.22032 0.997298 0
M  V30 368 C 33.7432 1.06921 1.77715 0
M  V30 369 C 34.1682 -0.376226 1.84299 0
M  V30 370 O 33.5262 -1.27165 1.29223 0
M  V30 371 C 33.5742 1.67996 3.19076 0
M  V30 372 O 32.6782 0.930653 4.01762 0
M  V30 373 H 32.0192 0.375814 0.547412 0
M  V30 374 H 34.5492 1.61737 1.25309 0
M  V30 375 H 34.5592 1.72538 3.69723 0
M  V30 376 H 33.2342 2.73182 3.13599 0
M  V30 377 H 31.8112 0.960917 3.60307 0
M  V30 378 N 33.9963 -1.19345 1.0293 0
M  V30 379 C 34.9263 -2.2481 0.631105 0
M  V30 380 C 35.9073 -1.66245 -0.360104 0
M  V30 381 O 37.0923 -1.92677 -0.242726 0
M  V30 382 C 34.2223 -3.47295 -0.0184607 0
M  V30 383 C 33.1763 -4.18536 0.895073 0
M  V30 384 C 32.5023 -5.34586 0.110592 0
M  V30 385 C 33.8023 -4.73287 2.209 0
M  V30 386 H 35.4963 -2.58372 1.51275 0
M  V30 387 H 33.0423 -1.24194 0.728818 0
M  V30 388 H 34.9953 -4.20268 -0.308675 0
M  V30 389 H 33.7193 -3.12933 -0.934907 0
M  V30 390 H 32.3783 -3.47446 1.16949 0
M  V30 391 H 32.0263 -4.96469 -0.807902 0
M  V30 392 H 31.7263 -5.83183 0.719087 0
M  V30 393 H 33.2503 -6.10355 -0.172871 0
M  V30 394 H 34.6643 -5.38013 1.98028 0
M  V30 395 H 33.0613 -5.32373 2.76946 0
M  V30 396 H 34.1313 -3.91331 2.86336 0
M  V30 397 N 35.4744 -0.807222 -1.35358 0
M  V30 398 C 36.8854 -0.44876 -1.81226 0
M  V30 399 C 37.2364 1.02929 -1.67033 0
M  V30 400 O 36.3614 1.79991 -1.20133 0
M  V30 401 C 36.9564 -0.807774 -3.2903 0
M  V30 402 C 35.5154 -0.501901 -3.73039 0
M  V30 403 C 34.6624 -1.03304 -2.57339 0
M  V30 404 H 37.6134 -0.998808 -1.23327 0
M  V30 405 H 37.6344 -0.10554 -3.80354 0
M  V30 406 H 37.1464 -1.88357 -3.39328 0
M  V30 407 H 35.2474 0.565128 -3.68289 0
M  V30 408 H 35.3604 -1.03497 -4.67787 0
M  V30 409 H 33.7244 -0.455339 -2.50597 0
M  V30 410 H 34.5074 -2.11496 -2.70415 0
M  V30 411 N 36.9525 1.47285 -0.560781 0
M  V30 412 C 38.1825 2.06555 -0.0429638 0
M  V30 413 C 38.5905 1.41339 1.25777 0
M  V30 414 O 37.9335 0.505182 1.76617 0
M  V30 415 C 37.9955 3.58827 0.219887 0
M  V30 416 C 37.6595 4.46105 -0.991944 0
M  V30 417 C 38.6565 4.84 -1.89843 0
M  V30 418 C 36.3415 4.87567 -1.20762 0
M  V30 419 C 38.3355 5.6216 -3.00425 0
M  V30 420 C 36.0225 5.65491 -2.31653 0
M  V30 421 C 37.0205 6.02699 -3.21315 0
M  V30 422 O 36.7085 6.79052 -4.30283 0
M  V30 423 H 36.4405 0.674537 -0.0444468 0
M  V30 424 H 38.9945 1.90225 -0.774818 0
M  V30 425 H 37.2245 3.73383 1.00609 0
M  V30 426 H 38.9135 4.00103 0.683522 0
M  V30 427 H 39.6795 4.52564 -1.74387 0
M  V30 428 H 35.5585 4.5807 -0.518893 0
M  V30 429 H 39.1025 5.9112 -3.70436 0
M  V30 430 H 34.9995 5.9634 -2.47081 0
M  V30 431 H 35.7675 6.9745 -4.28376 0
M  V30 432 N 38.4306 0.297415 1.54768 0
M  V30 433 C 39.3786 -0.596051 2.24833 0
M  V30 434 C 40.3726 -1.13992 1.25308 0
M  V30 435 O 41.5786 -1.09098 1.4317 0
M  V30 436 H 37.9536 -0.210814 0.721846 0
M  V30 437 H 39.9246 0.0174667 2.98395 0
M  V30 438 C 38.6736 -1.75818 2.99972 0
M  V30 439 H 37.9966 -1.3489 3.76357 0
M  V30 440 H 39.4366 -2.35949 3.52284 0
M  V30 441 C 37.8956 -2.66014 2.06732 0
M  V30 442 O 38.4256 -3.67009 1.63302 0
M  V30 443 N 36.6316 -2.33669 1.72763 0
M  V30 444 H 36.1786 -1.51586 2.08277 0
M  V30 445 H 36.1366 -2.94285 1.10652 0
M  V30 446 N 39.9087 -1.5758 0.0250728 0
M  V30 447 C 41.3197 -1.79476 -0.514323 0
M  V30 448 C 41.6707 -0.934956 -1.72491 0
M  V30 449 O 40.7957 -0.144245 -2.15919 0
M  V30 450 C 41.3907 -3.25503 -0.939842 0
M  V30 451 C 39.9497 -3.48408 -1.42438 0
M  V30 452 C 39.0967 -2.74583 -0.387201 0
M  V30 453 H 42.0477 -1.567 0.25113 0
M  V30 454 H 42.0687 -3.34992 -1.80445 0
M  V30 455 H 41.5807 -3.88056 -0.0585628 0
M  V30 456 H 39.6817 -2.91103 -2.32572 0
M  V30 457 H 39.7947 -4.57119 -1.43455 0
M  V30 458 H 38.1587 -2.39942 -0.854409 0
M  V30 459 H 38.9417 -3.39849 0.485543 0
M  V30 460 N 41.3868 0.248026 -1.55636 0
M  V30 461 C 42.3348 1.32683 -1.91045 0
M  V30 462 C 43.3288 1.49883 -0.789401 0
M  V30 463 O 44.5348 1.51371 -0.974007 0
M  V30 464 H 40.9098 0.444272 -0.606734 0
M  V30 465 H 42.8808 1.00085 -2.81115 0
M  V30 466 C 41.6298 2.6755 -2.22064 0
M  V30 467 H 40.9528 2.55114 -3.07826 0
M  V30 468 H 42.3928 3.41912 -2.50743 0
M  V30 469 C 40.8518 3.20556 -1.0366 0
M  V30 470 O 41.3818 4.00695 -0.284016 0
M  V30 471 N 39.5878 2.78568 -0.82753 0
M  V30 472 H 39.1348 2.1351 -1.44123 0
M  V30 473 H 39.0928 3.14378 -0.0369803 0
M  V30 474 N 42.8649 1.48995 0.513639 0
M  V30 475 C 43.8279 1.64229 1.59879 0
M  V30 476 C 44.8279 0.514696 1.5234 0
M  V30 477 O 46.0179 0.78087 1.55718 0
M  V30 478 C 43.1499 1.62783 2.99524 0
M  V30 479 H 44.3429 2.61004 1.47705 0
M  V30 480 H 41.8959 1.37837 0.736936 0
M  V30 481 H 42.6309 0.675461 3.17188 0
M  V30 482 H 42.4159 2.4466 3.06404 0
M  V30 483 H 43.9059 1.76669 3.78388 0
M  V30 484 N 44.343 -0.763751 1.37857 0
M  V30 485 C 45.306 -1.85889 1.34081 0
M  V30 486 C 46.306 -1.58949 0.243277 0
M  V30 487 O 47.496 -1.66882 0.499589 0
M  V30 488 C 44.628 -3.23176 1.08489 0
M  V30 489 H 45.821 -1.90648 2.31502 0
M  V30 490 H 43.374 -0.964367 1.23003 0
M  V30 491 H 44.109 -3.24091 0.116318 0
M  V30 492 H 43.894 -3.44124 1.8794 0
M  V30 493 H 45.384 -4.03254 1.08517 0
M  V30 494 N 45.8211 -1.22559 -0.990812 0
M  V30 495 C 46.7311 -1.01394 -2.11557 0
M  V30 496 C 47.7471 0.0383962 -1.73958 0
M  V30 497 O 48.9231 -0.154787 -2.00804 0
M  V30 498 C 45.9881 -0.596569 -3.41529 0
M  V30 499 C 45.0491 -1.72276 -3.93217 0
M  V30 500 C 44.2821 -1.32521 -5.16985 0
M  V30 501 O 44.5051 -0.204909 -5.70032 0
M  V30 502 O 43.4391 -2.14247 -5.62478 0
M  V30 503 H 47.2651 -1.95633 -2.32296 0
M  V30 504 H 44.8501 -1.01172 -1.0993 0
M  V30 505 H 46.7321 -0.374263 -4.19735 0
M  V30 506 H 45.4071 0.316939 -3.22145 0
M  V30 507 H 44.3141 -1.99961 -3.16174 0
M  V30 508 H 45.6471 -2.61421 -4.17037 0
M  V30 509 N 47.2992 1.18797 -1.03562 0
M  V30 510 C 48.2622 2.20464 -0.626769 0
M  V30 511 C 49.2622 1.57721 0.313173 0
M  V30 512 O 50.4522 1.73917 0.0992615 0
M  V30 513 C 47.5842 3.40802 0.0818498 0
M  V30 514 H 48.7772 2.58149 -1.5264 0
M  V30 515 H 46.3302 1.32593 -0.827578 0
M  V30 516 H 47.0652 3.08642 0.995518 0
M  V30 517 H 46.8502 3.8758 -0.593652 0
M  V30 518 H 48.3402 4.16092 0.354584 0
M  V30 519 N 48.7773 0.814389 1.34928 0
M  V30 520 C 50.0023 0.410097 2.03305 0
M  V30 521 C 50.4273 -0.973464 1.60951 0
M  V30 522 O 49.7853 -1.63185 0.789964 0
M  V30 523 C 49.8333 0.51049 3.56968 0
M  V30 524 O 48.9373 -0.473035 4.09678 0
M  V30 525 H 48.2783 0.170088 0.641846 0
M  V30 526 H 50.8083 1.10244 1.72358 0
M  V30 527 H 50.8183 0.383135 4.06197 0
M  V30 528 H 49.4933 1.51963 3.87144 0
M  V30 529 H 48.0703 -0.305272 3.71648 0
M  V30 530 N 50.2554 -1.46986 0.568584 0
M  V30 531 C 51.4804 -2.07335 0.0520528 0
M  V30 532 C 51.9054 -1.41675 -1.23733 0
M  V30 533 O 51.2634 -0.495623 -1.74394 0
M  V30 534 C 51.3114 -3.60417 -0.11501 0
M  V30 535 O 50.4154 -3.95309 -1.17492 0
M  V30 536 H 49.7564 -0.661597 0.0564385 0
M  V30 537 H 52.2864 -1.88837 0.787507 0
M  V30 538 H 52.2964 -4.06698 -0.325644 0
M  V30 539 H 50.9714 -4.07601 0.826675 0
M  V30 540 H 49.5484 -3.60757 -0.943869 0
M  V30 541 N 51.7335 -0.305618 -1.54608 0
M  V30 542 C 52.9585 0.307562 -2.05107 0
M  V30 543 C 53.3835 1.46385 -1.18123 0
M  V30 544 O 52.7415 1.8034 -0.186324 0
M  V30 545 C 52.7895 0.73704 -3.52987 0
M  V30 546 O 51.8935 1.84134 -3.6901 0
M  V30 547 H 51.2345 0.0589143 -0.661381 0
M  V30 548 H 53.7645 -0.448807 -1.99617 0
M  V30 549 H 53.7745 1.02459 -3.94925 0
M  V30 550 H 52.4495 -0.108773 -4.15758 0
M  V30 551 H 51.0265 1.55398 -3.38978 0
M  V30 552 N 53.2116 1.57565 -0.0334293 0
M  V30 553 C 54.1746 2.09393 0.932048 0
M  V30 554 C 55.1746 1.00986 1.25134 0
M  V30 555 O 56.3646 1.27129 1.19096 0
M  V30 556 C 53.4966 2.56338 2.2473 0
M  V30 557 H 54.6896 2.95984 0.483085 0
M  V30 558 H 52.2426 1.54819 0.21468 0
M  V30 559 H 52.9776 1.7309 2.74245 0
M  V30 560 H 52.7626 3.35542 2.02865 0
M  V30 561 H 54.2526 2.96646 2.93923 0
M  V30 562 N 54.6897 -0.239769 1.55765 0
M  V30 563 C 55.9147 -0.988373 1.82335 0
M  V30 564 C 56.3397 -1.77886 0.611421 0
M  V30 565 O 55.6977 -1.75889 -0.439639 0
M  V30 566 C 55.7457 -1.89627 3.06715 0
M  V30 567 O 54.8497 -2.98904 2.84131 0
M  V30 568 H 54.1907 -0.280858 0.601677 0
M  V30 569 H 56.7207 -0.258597 2.02959 0
M  V30 570 H 56.7307 -2.30957 3.36338 0
M  V30 571 H 55.4057 -1.31511 3.9456 0
M  V30 572 H 53.9827 -2.61651 2.65694 0
M  V30 573 N 56.1678 -1.49265 -0.50573 0
M  V30 574 C 57.4138 -1.58748 -1.26202 0
M  V30 575 C 57.7468 -0.271227 -1.92297 0
M  V30 576 O 57.0218 0.724831 -1.80489 0
M  V30 577 C 57.3048 -2.74332 -2.33268 0
M  V30 578 C 57.1578 -4.15737 -1.71705 0
M  V30 579 C 58.4768 -2.85576 -3.34865 0
M  V30 580 H 55.5958 -0.577826 -0.457478 0
M  V30 581 H 58.2378 -1.81532 -0.560897 0
M  V30 582 H 56.3878 -2.55036 -2.93068 0
M  V30 583 H 58.0598 -4.46537 -1.15769 0
M  V30 584 H 56.3028 -4.21605 -1.02135 0
M  V30 585 H 56.9738 -4.92477 -2.49341 0
M  V30 586 H 59.4498 -3.03127 -2.8505 0
M  V30 587 H 58.3258 -3.68135 -4.07146 0
M  V30 588 H 58.5868 -1.94732 -3.96903 0
M  V30 589 N 57.6459 0.756429 -1.3826 0
M  V30 590 C 58.5929 1.87011 -1.35261 0
M  V30 591 C 59.5629 1.64695 -0.215616 0
M  V30 592 O 60.7479 1.864 -0.407399 0
M  V30 593 C 57.8879 3.24275 -1.18068 0
M  V30 594 C 57.0009 3.58442 -2.41129 0
M  V30 595 C 56.1359 4.84994 -2.16689 0
M  V30 596 C 55.1749 5.11939 -3.35537 0
M  V30 597 N 54.3119 6.29685 -3.10549 0
M  V30 598 H 59.1519 1.8891 -2.30472 0
M  V30 599 H 56.6889 0.923373 -1.14509 0
M  V30 600 H 58.6469 4.03479 -1.06116 0
M  V30 601 H 57.2769 3.21711 -0.264973 0
M  V30 602 H 56.3289 2.74103 -2.63764 0
M  V30 603 H 57.6409 3.74283 -3.29717 0
M  V30 604 H 56.7949 5.72135 -2.01857 0
M  V30 605 H 55.5339 4.71286 -1.25462 0
M  V30 606 H 54.5389 4.23268 -3.50891 0
M  V30 607 H 55.7639 5.27546 -4.27635 0
M  V30 608 H 53.7099 6.17306 -2.21967 0
M  V30 609 H 53.6269 6.46014 -3.92686 0
M  V30 610 H 54.8949 7.19722 -2.99367 0
M  V30 611 N 59.124 1.23083 0.984299 0
M  V30 612 C 60.372 1.05848 1.72165 0
M  V30 613 C 60.693 -0.406049 1.90726 0
M  V30 614 O 59.963 -1.29139 1.47309 0
M  V30 615 H 58.543 0.388685 0.637913 0
M  V30 616 H 61.205 1.54736 1.18503 0
M  V30 617 H 60.301 1.54327 2.71274 0
M  V30 618 N 60.6021 -1.18246 1.0419 0
M  V30 619 C 61.8791 -1.84121 0.660208 0
M  V30 620 C 62.2591 -1.92778 -0.860221 0
M  V30 621 O 61.6071 -1.45464 -1.76217 0
M  V30 622 C 61.8171 -3.22355 1.33747 0
M  V30 623 C 63.1651 -3.98376 1.46906 0
M  V30 624 O 64.1891 -3.31799 1.29568 0
M  V30 625 O 63.0481 -5.17665 1.75171 0
M  V30 626 H 60.1421 -0.794036 0.231161 0
M  V30 627 H 62.6881 -1.25628 1.14087 0
M  V30 628 H 61.4601 -3.10964 2.37522 0
M  V30 629 H 61.0831 -3.88506 0.845515 0
M  V30 630 N 62.0802 -0.821533 -1.34494 0
M  V30 631 C 63.3262 -0.409552 -1.98622 0
M  V30 632 C 63.6592 1.0244 -1.64984 0
M  V30 633 O 62.9342 1.71325 -0.920758 0
M  V30 634 C 63.2172 -0.610458 -3.54888 0
M  V30 635 C 63.0702 -2.09043 -3.98273 0
M  V30 636 C 64.3892 -0.0455379 -4.40076 0
M  V30 637 H 61.5082 -0.15028 -0.721516 0
M  V30 638 H 64.1502 -1.03384 -1.59411 0
M  V30 639 H 62.3002 -0.079044 -3.8842 0
M  V30 640 H 63.9722 -2.68537 -3.75081 0
M  V30 641 H 62.2152 -2.58139 -3.48635 0
M  V30 642 H 62.8862 -2.18182 -5.07051 0
M  V30 643 H 65.3622 -0.499557 -4.1309 0
M  V30 644 H 64.2382 -0.215922 -5.48475 0
M  V30 645 H 64.4992 1.04939 -4.29465 0
M  V30 646 N 63.5583 1.46682 -0.576371 0
M  V30 647 C 64.8073 2.01619 -0.0572825 0
M  V30 648 C 65.1203 1.45417 1.30818 0
M  V30 649 O 66.3263 1.92133 1.91825 0
M  V30 650 C 64.7823 3.59863 -0.0518371 0
M  V30 651 C 64.3903 4.25059 -1.41523 0
M  V30 652 C 66.1343 4.2248 0.413639 0
M  V30 653 C 64.0413 5.75364 -1.36785 0
M  V30 654 H 62.9713 0.753794 -0.0176448 0
M  V30 655 H 65.6223 1.68481 -0.727076 0
M  V30 656 H 64.0043 3.90048 0.683994 0
M  V30 657 H 65.1783 4.06491 -2.17029 0
M  V30 658 H 63.4933 3.7451 -1.8202 0
M  V30 659 H 66.0903 5.3265 0.467779 0
M  V30 660 H 66.4333 3.90976 1.42982 0
M  V30 661 H 66.9663 3.96897 -0.267929 0
M  V30 662 H 63.7053 6.11518 -2.36063 0
M  V30 663 H 63.2253 5.96214 -0.654895 0
M  V30 664 H 64.9043 6.37955 -1.07805 0
M  V30 665 N 65.0364 0.313813 1.54444 0
M  V30 666 C 66.2664 -0.293491 2.04505 0
M  V30 667 C 66.6744 -1.47086 1.19005 0
M  V30 668 O 66.0174 -1.82481 0.211257 0
M  V30 669 C 66.0794 -0.800455 3.50475 0
M  V30 670 C 65.7434 0.253322 4.56297 0
M  V30 671 C 66.7404 1.08612 5.08428 0
M  V30 672 C 64.4254 0.398708 5.00715 0
M  V30 673 C 66.4194 2.05013 6.0353 0
M  V30 674 C 64.1064 1.36614 5.95634 0
M  V30 675 C 65.1044 2.19033 6.46926 0
M  V30 676 O 64.7924 3.14134 7.39983 0
M  V30 677 H 64.5244 -0.0658325 0.672787 0
M  V30 678 H 67.0784 0.455177 2.00293 0
M  V30 679 H 65.3084 -1.59987 3.52053 0
M  V30 680 H 66.9974 -1.32504 3.83663 0
M  V30 681 H 67.7634 0.984736 4.74898 0
M  V30 682 H 63.6424 -0.23289 4.60411 0
M  V30 683 H 67.1864 2.69382 6.4349 0
M  V30 684 H 63.0834 1.4682 6.28581 0
M  V30 685 H 63.8514 3.0926 7.57826 0
M  V30 686 N 66.5145 -1.57545 0.0417849 0
M  V30 687 C 67.4465 -2.07904 -0.964799 0
M  V30 688 C 68.4595 -1.00497 -1.28079 0
M  V30 689 O 69.6485 -1.28087 -1.24322 0
M  V30 690 C 66.7485 -2.49928 -2.28887 0
M  V30 691 C 65.9215 -3.80562 -2.15619 0
M  V30 692 C 64.9805 -4.08999 -3.31069 0
M  V30 693 O 64.0065 -4.79061 -3.0739 0
M  V30 694 N 65.2085 -3.6017 -4.55256 0
M  V30 695 H 67.9735 -2.94886 -0.535029 0
M  V30 696 H 65.5345 -1.61252 -0.144681 0
M  V30 697 H 67.5265 -2.66034 -3.04972 0
M  V30 698 H 66.0965 -1.68245 -2.63463 0
M  V30 699 H 65.3165 -3.74129 -1.24183 0
M  V30 700 H 66.6045 -4.66126 -2.03971 0
M  V30 701 H 66.0025 -3.03512 -4.77386 0
M  V30 702 H 64.5595 -3.81532 -5.28466 0
M  V30 703 N 67.9926 0.231505 -1.5589 0
M  V30 704 C 69.2416 0.955346 -1.7764 0
M  V30 705 C 69.5546 1.85893 -0.608546 0
M  V30 706 O 70.7606 2.62067 -0.70943 0
M  V30 707 C 69.2166 1.74886 -3.14552 0
M  V30 708 C 68.8246 0.891915 -4.39032 0
M  V30 709 C 70.5686 2.46452 -3.45633 0
M  V30 710 C 68.4756 1.68221 -5.66971 0
M  V30 711 H 67.4056 0.360446 -0.662265 0
M  V30 712 H 70.0566 0.209516 -1.823 0
M  V30 713 H 68.4386 2.53723 -3.04041 0
M  V30 714 H 69.6126 0.144793 -4.60572 0
M  V30 715 H 67.9276 0.288863 -4.15397 0
M  V30 716 H 70.5246 3.06061 -4.38441 0
M  V30 717 H 70.8676 3.18841 -2.67668 0
M  V30 718 H 71.4006 1.74613 -3.57428 0
M  V30 719 H 68.1396 1.00178 -6.478 0
M  V30 720 H 67.6596 2.4042 -5.49507 0
M  V30 721 H 69.3386 2.24544 -6.06786 0
M  V30 722 N 69.4707 1.49531 0.497807 0
M  V30 723 C 70.7197 1.58426 1.24837 0
M  V30 724 C 71.0327 0.277643 1.93619 0
M  V30 725 O 72.2387 0.24517 2.70391 0
M  V30 726 C 70.6947 2.79538 2.26686 0
M  V30 727 C 70.3027 4.16971 1.63828 0
M  V30 728 C 72.0467 2.97764 3.0255 0
M  V30 729 C 69.9537 5.29301 2.63807 0
M  V30 730 H 68.8837 0.58989 0.469623 0
M  V30 731 H 71.5347 1.75923 0.521857 0
M  V30 732 H 69.9167 2.55542 3.02514 0
M  V30 733 H 71.0907 4.51116 0.939711 0
M  V30 734 H 69.4057 4.04129 1.00342 0
M  V30 735 H 72.0027 3.78856 3.77323 0
M  V30 736 H 72.3457 2.08448 3.60354 0
M  V30 737 H 72.8787 3.21815 2.33838 0
M  V30 738 H 69.6177 6.20687 2.10779 0
M  V30 739 H 69.1377 4.99606 3.31894 0
M  V30 740 H 70.8167 5.58768 3.2617 0
M  V30 741 N 70.9488 -0.749086 1.3866 0
M  V30 742 C 72.1978 -1.50371 1.3443 0
M  V30 743 C 72.5108 -1.95503 -0.0616397 0
M  V30 744 O 73.7168 -2.70554 -0.226489 0
M  V30 745 C 72.1728 -2.71644 2.36088 0
M  V30 746 C 71.7808 -2.3352 3.82325 0
M  V30 747 C 73.5248 -3.49518 2.40909 0
M  V30 748 C 71.4318 -3.51431 4.75658 0
M  V30 749 H 70.3618 -0.564628 0.499712 0
M  V30 750 H 73.0128 -0.818449 1.64237 0
M  V30 751 H 71.3948 -3.42175 1.9933 0
M  V30 752 H 72.5688 -1.70627 4.28046 0
M  V30 753 H 70.8838 -1.6877 3.80665 0
M  V30 754 H 73.4808 -4.37197 3.07836 0
M  V30 755 H 73.8238 -3.90992 1.42937 0
M  V30 756 H 74.3568 -2.86005 2.76489 0
M  V30 757 H 71.0958 -3.15019 5.74842 0
M  V30 758 H 70.6158 -4.13352 4.34627 0
M  V30 759 H 72.2948 -4.17953 4.93887 0
M  V30 760 N 72.4269 -1.23603 -0.977757 0
M  V30 761 C 73.7039 -0.977897 -1.69401 0
M  V30 762 C 74.0839 0.502738 -2.05026 0
M  V30 763 O 73.4319 1.47459 -1.74551 0
M  V30 764 C 73.6419 -1.89077 -2.93345 0
M  V30 765 C 74.9899 -2.15579 -3.65802 0
M  V30 766 O 76.0139 -1.86648 -3.03383 0
M  V30 767 O 74.8729 -2.64658 -4.78141 0
M  V30 768 H 71.9669 -0.369025 -0.740101 0
M  V30 769 H 74.5129 -1.34657 -1.03274 0
M  V30 770 H 73.2849 -2.89158 -2.63634 0
M  V30 771 H 72.9079 -1.52463 -3.67207 0
M  V30 772 N 73.905 1.17692 -1.04816 0
M  V30 773 C 75.321 1.39863 -0.768794 0
M  V30 774 C 75.521 1.91118 0.638451 0
M  V30 775 O 74.577 2.10036 1.40146 0
M  V30 776 C 75.89 2.39274 -1.82122 0
M  V30 777 C 77.438 2.52987 -1.843 0
M  V30 778 C 77.913 3.55669 -2.88555 0
M  V30 779 N 79.404 3.63183 -2.87493 0
M  V30 780 C 80.139 4.42381 -3.64811 0
M  V30 781 N 79.635 5.25125 -4.51903 0
M  V30 782 N 81.428 4.37217 -3.53267 0
M  V30 783 H 73.579 0.82752 -1.95617 0
M  V30 784 H 75.842 0.426123 -0.846831 0
M  V30 785 H 75.548 2.08678 -2.83102 0
M  V30 786 H 75.422 3.38725 -1.65967 0
M  V30 787 H 77.809 2.82896 -0.839869 0
M  V30 788 H 77.89 1.53623 -2.04532 0
M  V30 789 H 77.534 3.26499 -3.89051 0
M  V30 790 H 77.464 4.54728 -2.65575 0
M  V30 791 H 79.955 3.04103 -2.24343 0
M  V30 792 H 80.268 5.82728 -5.07591 0
M  V30 793 H 78.613 5.24519 -4.55966 0
M  V30 794 H 81.804 3.71626 -2.84625 0
M  V30 795 H 81.977 4.98696 -4.13771 0
M  V30 796 N 75.3831 0.828654 1.34056 0
M  V30 797 C 76.6301 0.419458 1.98108 0
M  V30 798 C 76.9581 -1.01886 1.65679 0
M  V30 799 O 76.2131 -1.72539 0.923512 0
M  V30 800 C 76.5121 0.575226 3.52741 0
M  V30 801 C 76.1781 1.98012 4.05095 0
M  V30 802 C 74.8401 2.36442 4.19104 0
M  V30 803 C 77.1921 2.89824 4.33188 0
M  V30 804 C 74.5201 3.66009 4.58535 0
M  V30 805 C 76.8721 4.1886 4.74066 0
M  V30 806 C 75.5361 4.5726 4.86281 0
M  V30 807 H 74.8061 0.153491 0.724929 0
M  V30 808 H 77.4531 1.05371 1.59904 0
M  V30 809 H 75.7581 -0.142385 3.91541 0
M  V30 810 H 77.4551 0.239057 4.00287 0
M  V30 811 H 74.0451 1.67162 3.94658 0
M  V30 812 H 78.2291 2.61375 4.21897 0
M  V30 813 H 73.4851 3.95579 4.66184 0
M  V30 814 H 77.6591 4.90086 4.94761 0
M  V30 815 H 75.2861 5.57707 5.16592 0
M  V30 816 N 76.8612 -1.46375 0.584142 0
M  V30 817 C 78.0912 -2.06461 0.0758195 0
M  V30 818 C 78.4992 -1.43322 -1.23512 0
M  V30 819 O 77.8422 -0.533216 -1.75791 0
M  V30 820 C 77.9042 -3.59131 -0.162773 0
M  V30 821 C 77.5682 -4.4447 1.06279 0
M  V30 822 C 78.5652 -4.80918 1.97519 0
M  V30 823 C 76.2502 -4.85584 1.28504 0
M  V30 824 C 78.2442 -5.57309 3.09331 0
M  V30 825 C 75.9312 -5.61734 2.4062 0
M  V30 826 C 76.9292 -5.9751 3.30863 0
M  V30 827 O 76.6172 -6.72121 4.41032 0
M  V30 828 H 76.3492 -0.673745 0.0551725 0
M  V30 829 H 78.9032 -1.88969 0.804984 0
M  V30 830 H 77.1332 -3.74936 -0.946565 0
M  V30 831 H 78.8222 -4.0114 -0.619782 0
M  V30 832 H 79.5882 -4.49732 1.81565 0
M  V30 833 H 75.4672 -4.57187 0.591702 0
M  V30 834 H 79.0112 -5.85152 3.79793 0
M  V30 835 H 74.9082 -5.92334 2.56537 0
M  V30 836 H 75.6762 -6.90547 4.39417 0
M  V30 837 N 78.3393 -0.321999 -1.54275 0
M  V30 838 C 79.6163 0.335232 -1.92706 0
M  V30 839 C 79.9963 1.70006 -1.25145 0
M  V30 840 O 79.3443 2.25067 -0.394596 0
M  V30 841 C 79.5543 0.429008 -3.46353 0
M  V30 842 C 80.9023 0.690029 -4.18956 0
M  V30 843 O 81.9263 0.511992 -3.52501 0
M  V30 844 O 80.7853 1.03338 -5.36641 0
M  V30 845 H 77.8793 0.191143 -0.804608 0
M  V30 846 H 80.4253 -0.3716 -1.65581 0
M  V30 847 H 79.1973 -0.529611 -3.87699 0
M  V30 848 H 78.8203 1.18348 -3.79578 0
M  V30 849 N 79.8174 1.5752 -0.0501392 0
M  V30 850 C 81.0654 1.9227 0.622642 0
M  V30 851 C 81.3864 0.929083 1.71444 0
M  V30 852 O 80.6564 -0.0262186 1.95882 0
M  V30 853 H 79.2364 0.709739 0.232981 0
M  V30 854 H 81.8984 1.94628 -0.102898 0
M  V30 855 H 80.9944 2.93479 1.06191 0
M  V30 856 N 81.2955 -0.223234 1.56011 0
M  V30 857 C 82.5725 -0.972108 1.69733 0
M  V30 858 C 82.9525 -2.02485 0.59691 0
M  V30 859 O 82.3005 -2.25037 -0.396324 0
M  V30 860 C 82.5105 -1.58407 3.10979 0
M  V30 861 C 83.8585 -2.07696 3.70334 0
M  V30 862 O 84.8825 -1.68304 3.1393 0
M  V30 863 O 83.7415 -2.80096 4.69264 0
M  V30 864 H 80.8355 -0.453993 0.691245 0
M  V30 865 H 83.3815 -0.215149 1.68331 0
M  V30 866 H 82.1535 -0.823831 3.82529 0
M  V30 867 H 81.7765 -2.40661 3.16493 0
M  V30 868 N 82.7736 -1.49793 -0.48987 0
M  V30 869 C 84.0016 -1.63568 -1.26701 0
M  V30 870 C 84.4166 -0.311465 -1.86213 0
M  V30 871 O 83.7736 0.704416 -1.68357 0
M  V30 872 C 83.8246 -2.71284 -2.38929 0
M  V30 873 O 83.5456 -3.9857 -1.81861 0
M  V30 874 C 85.0466 -2.95864 -3.3012 0
M  V30 875 H 82.2666 -0.550342 -0.383881 0
M  V30 876 H 84.8106 -1.95898 -0.586864 0
M  V30 877 H 82.9656 -2.417 -3.02753 0
M  V30 878 H 83.3796 -4.57993 -2.55622 0
M  V30 879 H 84.8536 -3.74941 -4.05121 0
M  V30 880 H 85.3306 -2.06206 -3.87783 0
M  V30 881 H 85.9366 -3.26907 -2.72051 0
M  V30 882 N 84.2517 0.741722 -1.39055 0
M  V30 883 C 85.4797 1.53098 -1.39171 0
M  V30 884 C 85.8947 1.88794 0.0155099 0
M  V30 885 O 85.2517 1.53626 0.985159 0
M  V30 886 C 85.3027 2.82274 -2.2584 0
M  V30 887 O 85.0237 2.48097 -3.61081 0
M  V30 888 C 86.5247 3.76343 -2.34266 0
M  V30 889 H 83.7447 0.473335 -0.4756 0
M  V30 890 H 86.2887 0.917045 -1.82785 0
M  V30 891 H 84.4437 3.40015 -1.85656 0
M  V30 892 H 84.8577 3.31029 -4.06842 0
M  V30 893 H 86.3317 4.63898 -2.9917 0
M  V30 894 H 86.8087 4.17619 -1.35982 0
M  V30 895 H 87.4147 3.24523 -2.74891 0
M  V30 896 N 85.7298 1.2412 0.971189 0
M  V30 897 C 86.6778 1.02812 2.08644 0
M  V30 898 C 87.6718 -0.0358403 1.69362 0
M  V30 899 O 88.8778 0.118429 1.7961 0
M  V30 900 H 85.2528 0.315428 0.682649 0
M  V30 901 H 87.2238 1.97397 2.23779 0
M  V30 902 C 85.9728 0.645874 3.41649 0
M  V30 903 H 85.2958 1.45632 3.72332 0
M  V30 904 H 86.7358 0.536366 4.20594 0
M  V30 905 C 85.1948 -0.646713 3.30635 0
M  V30 906 O 85.7248 -1.69338 3.64263 0
M  V30 907 N 83.9308 -0.626115 2.83775 0
M  V30 908 H 83.4778 0.225988 2.56607 0
M  V30 909 H 83.4358 -1.49117 2.76788 0
M  V30 910 N 87.2079 -1.17134 1.05439 0
M  V30 911 C 88.1559 -2.23289 0.651511 0
M  V30 912 C 89.1499 -1.66186 -0.328411 0
M  V30 913 O 90.3559 -1.78949 -0.194206 0
M  V30 914 H 86.7309 -0.726938 0.192523 0
M  V30 915 H 88.7019 -2.54565 1.55689 0
M  V30 916 C 87.4509 -3.47671 0.0448436 0
M  V30 917 H 86.7739 -3.91918 0.78996 0
M  V30 918 H 88.2139 -4.2353 -0.19964 0
M  V30 919 C 86.6729 -3.14453 -1.20918 0
M  V30 920 O 87.2029 -3.29459 -2.29825 0
M  V30 921 N 85.4089 -2.68657 -1.10779 0
M  V30 922 H 84.9559 -2.56646 -0.221526 0
M  V30 923 H 84.9139 -2.46804 -1.9477 0
M  V30 924 N 88.686 -0.835752 -1.33615 0
M  V30 925 C 89.634 -0.255238 -2.31195 0
M  V30 926 C 90.628 0.61107 -1.57995 0
M  V30 927 O 91.834 0.500979 -1.72888 0
M  V30 928 H 88.209 -0.0638085 -0.749288 0
M  V30 929 H 90.18 -1.09283 -2.77669 0
M  V30 930 C 88.929 0.55754 -3.43201 0
M  V30 931 H 88.252 -0.0997553 -3.99676 0
M  V30 932 H 89.692 0.929622 -4.13683 0
M  V30 933 C 88.151 1.73515 -2.88781 0
M  V30 934 O 88.681 2.83376 -2.84712 0
M  V30 935 N 86.887 1.55603 -2.4543 0
M  V30 936 H 86.434 0.662354 -2.48939 0
M  V30 937 H 86.392 2.34545 -2.09371 0
M  V30 938 N 90.1641 1.46063 -0.591896 0
M  V30 939 C 91.5751 1.85944 -0.167822 0
M  V30 940 C 91.9261 1.49429 1.27143 0
M  V30 941 O 91.0511 0.913515 1.96173 0
M  V30 942 C 91.6461 3.37489 -0.297794 0
M  V30 943 C 90.2051 3.76332 0.0714732 0
M  V30 944 C 89.3521 2.7006 -0.629509 0
M  V30 945 H 92.3031 1.37087 -0.799555 0
M  V30 946 H 92.3241 3.77532 0.474349 0
M  V30 947 H 91.8361 3.64034 -1.3454 0
M  V30 948 H 89.9371 3.55405 1.11886 0
M  V30 949 H 90.0501 4.78088 -0.311245 0
M  V30 950 H 88.4141 2.54607 -0.0687867 0
M  V30 951 H 89.1971 2.99444 -1.67894 0
M  V30 952 N 91.6422 0.330177 1.54103 0
M  V30 953 C 92.6052 -0.520144 2.2322 0
M  V30 954 C 93.6052 -1.03828 1.22786 0
M  V30 955 O 94.7952 -0.929652 1.4732 0
M  V30 956 C 91.9272 -1.72317 2.94142 0
M  V30 957 H 93.1202 0.0841605 2.99782 0
M  V30 958 H 90.6732 0.0813433 1.56088 0
M  V30 959 H 91.4082 -2.36653 2.21734 0
M  V30 960 H 91.1932 -1.35898 3.67796 0
M  V30 961 H 92.6832 -2.3266 3.46784 0
M  V30 962 N 93.1203 -1.57491 0.0584922 0
M  V30 963 C 94.0673 -2.11958 -0.913376 0
M  V30 964 C 95.0373 -1.02875 -1.30407 0
M  V30 965 O 96.2223 -1.30464 -1.39226 0
M  V30 966 C 93.3623 -2.67497 -2.18035 0
M  V30 967 C 92.4753 -3.90691 -1.84349 0
M  V30 968 C 91.6103 -4.3452 -3.05559 0
M  V30 969 C 90.6493 -5.50395 -2.67827 0
M  V30 970 N 89.7863 -5.89244 -3.81754 0
M  V30 971 H 94.6263 -2.94704 -0.442017 0
M  V30 972 H 92.1633 -1.45643 -0.206545 0
M  V30 973 H 94.1213 -2.978 -2.92183 0
M  V30 974 H 92.7513 -1.87537 -2.62735 0
M  V30 975 H 91.8033 -3.66934 -1.00319 0
M  V30 976 H 93.1153 -4.7489 -1.5258 0
M  V30 977 H 92.2693 -4.66414 -3.87998 0
M  V30 978 H 91.0083 -3.49147 -3.40511 0
M  V30 979 H 90.0133 -5.18165 -1.83806 0
M  V30 980 H 91.2383 -6.3749 -2.34059 0
M  V30 981 H 89.1843 -5.06823 -4.16493 0
M  V30 982 H 89.1013 -6.68151 -3.53708 0
M  V30 983 H 90.3693 -6.25756 -4.64811 0
M  V30 984 N 94.5984 0.214957 -1.56127 0
M  V30 985 C 95.8234 0.95924 -1.83884 0
M  V30 986 C 96.2484 1.7689 -0.639644 0
M  V30 987 O 95.6064 1.76566 0.411601 0
M  V30 988 C 95.6544 1.84723 -3.09693 0
M  V30 989 O 94.7584 2.94346 -2.8885 0
M  V30 990 H 94.0994 0.27125 -0.606069 0
M  V30 991 H 96.6294 0.226276 -2.03345 0
M  V30 992 H 96.6394 2.25576 -3.39969 0
M  V30 993 H 95.3144 1.25218 -3.96602 0
M  V30 994 H 93.8914 2.57391 -2.69823 0
M  V30 995 N 96.0765 1.50051 0.48192 0
M  V30 996 C 97.3065 1.63999 1.2565 0
M  V30 997 C 97.7145 0.318288 1.86504 0
M  V30 998 O 97.0575 -0.708534 1.69486 0
M  V30 999 C 97.1195 2.66504 2.4128 0
M  V30 1000 C 96.7835 4.10352 2.01148 0
M  V30 1001 C 97.7805 4.96562 1.54021 0
M  V30 1002 C 95.4655 4.56203 2.10199 0
M  V30 1003 C 97.4595 6.26668 1.16473 0
M  V30 1004 C 95.1465 5.86318 1.72264 0
M  V30 1005 C 96.1445 6.71375 1.25477 0
M  V30 1006 O 95.8325 7.99062 0.880626 0
M  V30 1007 H 95.5645 0.55456 0.386574 0
M  V30 1008 H 98.1185 1.96954 0.582944 0
M  V30 1009 H 96.3485 2.28769 3.11772 0
M  V30 1010 H 98.0375 2.69783 3.03268 0
M  V30 1011 H 98.8035 4.62358 1.46458 0
M  V30 1012 H 94.6825 3.90152 2.45566 0
M  V30 1013 H 98.2265 6.93011 0.798841 0
M  V30 1014 H 94.1235 6.20046 1.79482 0
M  V30 1015 H 94.8915 8.12239 1.01043 0
M  V30 1016 N 97.5546 -0.734337 1.39446 0
M  V30 1017 C 98.8026 -1.49096 1.36436 0
M  V30 1018 C 99.1236 -1.94961 -0.0388255 0
M  V30 1019 O 98.3936 -1.69033 -0.990191 0
M  V30 1020 H 96.9736 -0.5531 0.502085 0
M  V30 1021 H 99.6356 -0.871725 1.74319 0
M  V30 1022 H 98.7316 -2.37276 2.02747 0
M  V30 1023 N 99.0327 -1.24633 -0.964593 0
M  V30 1024 C 99.9627 -1.06611 -2.07741 0
M  V30 1025 C 100.944 0.0218666 -1.70086 0
M  V30 1026 O 102.129 -0.145793 -1.93652 0
M  V30 1027 C 99.2587 -0.673444 -3.40708 0
M  V30 1028 C 98.2127 -1.71054 -3.92332 0
M  V30 1029 C 97.5387 -1.17285 -5.21678 0
M  V30 1030 C 98.8387 -3.10718 -4.19824 0
M  V30 1031 H 100.533 -1.99693 -2.23076 0
M  V30 1032 H 98.0787 -0.96152 -1.07195 0
M  V30 1033 H 100.032 -0.534345 -4.17998 0
M  V30 1034 H 98.7557 0.293073 -3.25282 0
M  V30 1035 H 97.4147 -1.83791 -3.17201 0
M  V30 1036 H 97.0627 -0.196847 -5.02615 0
M  V30 1037 H 96.7627 -1.86592 -5.57187 0
M  V30 1038 H 98.2867 -1.04593 -6.01575 0
M  V30 1039 H 99.7007 -3.01192 -4.87808 0
M  V30 1040 H 98.0977 -3.77406 -4.66567 0
M  V30 1041 H 99.1677 -3.58524 -3.26479 0
M  V30 1042 N 100.511 1.16574 -1.06058 0
M  V30 1043 C 101.741 1.90675 -0.795397 0
M  V30 1044 C 102.149 1.77547 0.653735 0
M  V30 1045 O 101.492 1.11611 1.45907 0
M  V30 1046 C 101.554 3.42011 -1.10764 0
M  V30 1047 C 101.218 3.78924 -2.55471 0
M  V30 1048 C 102.215 3.81042 -3.53699 0
M  V30 1049 C 99.8998 4.09626 -2.90708 0
M  V30 1050 C 101.894 4.13346 -4.85205 0
M  V30 1051 C 99.5808 4.41597 -4.22416 0
M  V30 1052 C 100.579 4.43436 -5.19474 0
M  V30 1053 O 100.267 4.74649 -6.48817 0
M  V30 1054 H 99.9988 0.611554 -0.288058 0
M  V30 1055 H 102.553 1.48711 -1.41683 0
M  V30 1056 H 100.783 3.84312 -0.429128 0
M  V30 1057 H 102.472 3.97384 -0.827077 0
M  V30 1058 H 103.238 3.57437 -3.27817 0
M  V30 1059 H 99.1168 4.07361 -2.15819 0
M  V30 1060 H 102.661 4.14696 -5.60957 0
M  V30 1061 H 98.5578 4.64667 -4.48056 0
M  V30 1062 H 99.3258 4.9247 -6.5377 0
M  V30 1063 N 101.989 0.842826 1.3317 0
M  V30 1064 C 103.266 0.362216 1.92217 0
M  V30 1065 C 103.646 -1.15289 1.76838 0
M  V30 1066 O 102.994 -1.96914 1.15919 0
M  V30 1067 C 103.204 0.813495 3.39387 0
M  V30 1068 C 104.552 0.823804 4.16532 0
M  V30 1069 O 105.576 0.757358 3.48055 0
M  V30 1070 O 104.435 0.915193 5.38782 0
M  V30 1071 H 101.529 0.103317 0.820521 0
M  V30 1072 H 104.075 0.928942 1.42017 0
M  V30 1073 H 102.847 1.85624 3.4447 0
M  V30 1074 H 102.47 0.223561 3.96971 0
M  V30 1075 N 103.467 -1.45747 0.599634 0
M  V30 1076 C 104.878 -1.85853 0.177681 0
M  V30 1077 C 105.229 -1.50102 -1.26348 0
M  V30 1078 O 104.354 -0.923905 -1.95686 0
M  V30 1079 C 104.949 -3.37326 0.315688 0
M  V30 1080 C 103.508 -3.76365 -0.0515144 0
M  V30 1081 C 102.655 -2.69722 0.643822 0
M  V30 1082 H 105.606 -1.36661 0.806814 0
M  V30 1083 H 105.627 -3.77778 -0.454321 0
M  V30 1084 H 105.139 -3.63315 1.36468 0
M  V30 1085 H 103.24 -3.55993 -1.09999 0
M  V30 1086 H 103.353 -4.77916 0.336594 0
M  V30 1087 H 101.717 -2.54567 0.0822881 0
M  V30 1088 H 102.5 -2.98549 1.6948 0
M  V30 1089 N 104.945 -0.338344 -1.53925 0
M  V30 1090 C 106.173 0.261298 -2.05243 0
M  V30 1091 C 106.588 1.44625 -1.21363 0
M  V30 1092 O 105.945 1.80811 -0.247736 0
M  V30 1093 C 105.996 0.681412 -3.5502 0
M  V30 1094 O 105.717 -0.456414 -4.35716 0
M  V30 1095 C 107.218 1.34232 -4.22489 0
M  V30 1096 H 104.438 0.0513685 -0.669031 0
M  V30 1097 H 106.982 -0.488822 -1.98572 0
M  V30 1098 H 105.137 1.38148 -3.61931 0
M  V30 1099 H 105.551 -0.122564 -5.24357 0
M  V30 1100 H 107.025 1.58708 -5.28693 0
M  V30 1101 H 107.502 2.29426 -3.74514 0
M  V30 1102 H 108.108 0.684424 -4.19757 0
M  V30 1103 N 106.423 1.57458 -0.0668435 0
M  V30 1104 C 107.37 2.12439 0.902122 0
M  V30 1105 C 108.34 1.03565 1.2986 0
M  V30 1106 O 109.525 1.312 1.38532 0
M  V30 1107 C 106.665 2.6865 2.16614 0
M  V30 1108 C 105.778 3.91663 1.82274 0
M  V30 1109 C 104.913 4.36134 3.0325 0
M  V30 1110 C 103.952 5.51808 2.64904 0
M  V30 1111 N 103.089 5.9126 3.78624 0
M  V30 1112 H 107.929 2.94934 0.426382 0
M  V30 1113 H 105.466 1.4575 0.198819 0
M  V30 1114 H 107.424 2.99346 2.90599 0
M  V30 1115 H 106.054 1.88928 2.61737 0
M  V30 1116 H 105.106 3.6746 0.983719 0
M  V30 1117 H 106.418 4.75693 1.50059 0
M  V30 1118 H 105.572 4.68465 3.85519 0
M  V30 1119 H 104.311 3.50948 3.38655 0
M  V30 1120 H 103.316 5.19133 1.81055 0
M  V30 1121 H 104.541 6.38722 2.30675 0
M  V30 1122 H 102.487 5.09024 4.138 0
M  V30 1123 H 102.404 6.70018 3.5016 0
M  V30 1124 H 103.672 6.28212 4.61486 0
M  V30 1125 N 107.901 -0.206675 1.56239 0
M  V30 1126 C 109.126 -0.949474 1.8439 0
M  V30 1127 C 109.551 -1.76549 0.649016 0
M  V30 1128 O 108.909 -1.76782 -0.402231 0
M  V30 1129 C 108.957 -1.83078 3.10668 0
M  V30 1130 O 108.061 -2.9281 2.90407 0
M  V30 1131 H 107.402 -0.268033 0.607499 0
M  V30 1132 H 109.932 -0.215488 2.03462 0
M  V30 1133 H 109.942 -2.2377 3.41161 0
M  V30 1134 H 108.617 -1.23112 3.97261 0
M  V30 1135 H 107.194 -2.55956 2.71184 0
M  V30 1136 N 109.379 -1.50304 -0.473955 0
M  V30 1137 C 110.326 -1.68959 -1.57231 0
M  V30 1138 C 111.296 -0.530899 -1.57387 0
M  V30 1139 O 112.481 -0.761133 -1.74961 0
M  V30 1140 C 109.621 -1.7871 -2.95223 0
M  V30 1141 C 108.734 -3.06061 -3.04878 0
M  V30 1142 C 107.869 -3.06626 -4.33767 0
M  V30 1143 C 106.908 -4.28443 -4.37154 0
M  V30 1144 N 106.045 -4.26763 -5.5751 0
M  V30 1145 H 110.885 -2.6273 -1.40631 0
M  V30 1146 H 108.422 -1.30241 -0.683789 0
M  V30 1147 H 110.38 -1.82344 -3.75242 0
M  V30 1148 H 109.01 -0.883806 -3.10465 0
M  V30 1149 H 108.062 -3.11911 -2.17751 0
M  V30 1150 H 109.374 -3.96039 -3.0324 0
M  V30 1151 H 108.528 -3.08973 -5.22131 0
M  V30 1152 H 107.267 -2.14473 -4.3801 0
M  V30 1153 H 106.272 -4.2631 -3.47188 0
M  V30 1154 H 107.497 -5.2182 -4.34605 0
M  V30 1155 H 105.443 -3.37462 -5.62544 0
M  V30 1156 H 105.36 -5.10507 -5.57601 0
M  V30 1157 H 106.628 -4.33253 -6.48006 0
M  V30 1158 N 110.857 0.726932 -1.39834 0
M  V30 1159 C 112.103 1.48771 -1.38704 0
M  V30 1160 C 112.458 1.92394 0.0146387 0
M  V30 1161 O 111.751 1.64474 0.982797 0
M  V30 1162 C 111.945 2.73495 -2.30077 0
M  V30 1163 C 111.774 2.42068 -3.78989 0
M  V30 1164 C 110.544 2.33966 -4.4787 0
M  V30 1165 C 112.742 2.0708 -4.70768 0
M  V30 1166 N 110.724 1.95095 -5.82075 0
M  V30 1167 C 112.095 1.78719 -5.93683 0
M  V30 1168 C 114.15 1.93618 -4.58712 0
M  V30 1169 C 112.853 1.3825 -7.05889 0
M  V30 1170 C 114.879 1.54553 -5.70848 0
M  V30 1171 C 114.241 1.27082 -6.92842 0
M  V30 1172 H 110.34 0.542919 -0.562817 0
M  V30 1173 H 112.924 0.84408 -1.75452 0
M  V30 1174 H 111.095 3.35625 -1.95474 0
M  V30 1175 H 112.827 3.39755 -2.19883 0
M  V30 1176 H 109.582 2.51331 -4.0141 0
M  V30 1177 H 110.006 1.7823 -6.53118 0
M  V30 1178 H 114.648 2.13522 -3.64922 0
M  V30 1179 H 112.366 1.17088 -7.99572 0
M  V30 1180 H 115.952 1.44731 -5.6351 0
M  V30 1181 H 114.832 0.973069 -7.78139 0
M  V30 1182 N 112.336 1.25143 0.95797 0
M  V30 1183 C 113.283 1.05235 2.05412 0
M  V30 1184 C 114.253 -0.0374561 1.66058 0
M  V30 1185 O 115.438 0.119073 1.90428 0
M  V30 1186 C 112.578 0.673589 3.38462 0
M  V30 1187 C 111.691 1.8379 3.90954 0
M  V30 1188 C 110.826 1.40381 5.12315 0
M  V30 1189 C 109.865 2.53746 5.57027 0
M  V30 1190 N 109.002 2.11136 6.69601 0
M  V30 1191 H 113.842 1.99048 2.21774 0
M  V30 1192 H 111.379 0.991277 1.08683 0
M  V30 1193 H 113.337 0.434964 4.14926 0
M  V30 1194 H 111.967 -0.227554 3.21997 0
M  V30 1195 H 111.019 2.18992 3.11041 0
M  V30 1196 H 112.331 2.68937 4.20089 0
M  V30 1197 H 111.485 1.12464 5.96185 0
M  V30 1198 H 110.224 0.523015 4.84887 0
M  V30 1199 H 109.229 2.82412 4.71724 0
M  V30 1200 H 110.454 3.42398 5.86464 0
M  V30 1201 H 108.4 1.25468 6.4389 0
M  V30 1202 H 108.317 2.89832 6.98236 0
M  V30 1203 H 109.585 1.86385 7.56889 0
M  V30 1204 N 113.814 -1.1601 1.06675 0
M  V30 1205 C 114.747 -2.1947 0.625168 0
M  V30 1206 C 115.725 -1.58699 -0.354041 0
M  V30 1207 O 116.909 -1.86669 -0.262098 0
M  V30 1208 C 114.036 -3.38598 -0.0829593 0
M  V30 1209 C 113.082 -4.1787 0.853611 0
M  V30 1210 S 113.915 -4.81135 2.35094 0
M  V30 1211 C 115.071 -6.03639 1.65441 0
M  V30 1212 H 115.304 -2.56587 1.50168 0
M  V30 1213 H 112.837 -1.26862 0.880078 0
M  V30 1214 H 114.795 -4.07621 -0.485288 0
M  V30 1215 H 113.456 -2.99839 -0.935716 0
M  V30 1216 H 112.649 -5.03078 0.304755 0
M  V30 1217 H 112.251 -3.54361 1.196 0
M  V30 1218 H 114.543 -6.70632 0.962201 0
M  V30 1219 H 115.486 -6.63081 2.48454 0
M  V30 1220 H 115.894 -5.52965 1.13534 0
M  V30 1221 N 115.292 -0.849877 -1.32721 0
M  V30 1222 C 116.522 -0.46408 -2.0132 0
M  V30 1223 C 116.93 0.94246 -1.64056 0
M  V30 1224 O 116.273 1.6257 -0.855379 0
M  V30 1225 C 116.335 -0.517887 -3.5575 0
M  V30 1226 C 115.999 -1.88248 -4.16427 0
M  V30 1227 C 116.996 -2.84726 -4.35002 0
M  V30 1228 C 114.681 -2.17832 -4.52609 0
M  V30 1229 C 116.675 -4.08945 -4.8892 0
M  V30 1230 C 114.362 -3.42304 -5.06232 0
M  V30 1231 C 115.36 -4.37677 -5.24335 0
M  V30 1232 O 115.048 -5.59946 -5.76815 0
M  V30 1233 H 114.78 -0.181327 -0.651227 0
M  V30 1234 H 117.334 -1.14713 -1.70382 0
M  V30 1235 H 115.564 0.221997 -3.86062 0
M  V30 1236 H 117.253 -0.148366 -4.05629 0
M  V30 1237 H 118.019 -2.63174 -4.07388 0
M  V30 1238 H 113.898 -1.44385 -4.37806 0
M  V30 1239 H 117.442 -4.83396 -5.02966 0
M  V30 1240 H 113.339 -3.63709 -5.33278 0
M  V30 1241 H 114.107 -5.61838 -5.95214 0
M  V30 1242 N 116.77 1.45427 -0.607355 0
M  V30 1243 C 118.016 2.03097 -0.111035 0
M  V30 1244 C 118.371 1.46735 1.24445 0
M  V30 1245 O 117.664 0.632478 1.8086 0
M  V30 1246 C 117.858 3.57398 -0.0129263 0
M  V30 1247 C 117.687 4.28726 -1.35735 0
M  V30 1248 C 116.457 4.66659 -1.93798 0
M  V30 1249 C 118.655 4.60699 -2.28607 0
M  V30 1250 N 116.637 5.22845 -3.21723 0
M  V30 1251 C 118.008 5.17716 -3.41131 0
M  V30 1252 C 120.063 4.42638 -2.27982 0
M  V30 1253 C 118.766 5.58576 -4.53194 0
M  V30 1254 C 120.792 4.84531 -3.39093 0
M  V30 1255 C 120.154 5.4164 -4.50339 0
M  V30 1256 H 116.253 0.777476 -0.083994 0
M  V30 1257 H 118.837 1.77249 -0.805655 0
M  V30 1258 H 117.008 3.82907 0.650914 0
M  V30 1259 H 118.74 4.01722 0.490033 0
M  V30 1260 H 115.495 4.50207 -1.47007 0
M  V30 1261 H 115.919 5.55438 -3.87063 0
M  V30 1262 H 120.561 3.97798 -1.43235 0
M  V30 1263 H 118.279 6.02382 -5.38667 0
M  V30 1264 H 121.865 4.72289 -3.39757 0
M  V30 1265 H 120.745 5.73461 -5.34895 0
M  V30 1266 N 118.248 0.346503 1.53744 0
M  V30 1267 C 119.496 -0.248612 2.00565 0
M  V30 1268 C 119.817 -1.5083 1.23593 0
M  V30 1269 O 119.087 -1.92858 0.343912 0
M  V30 1270 H 117.667 -0.0948564 0.740953 0
M  V30 1271 H 120.329 0.468341 1.89189 0
M  V30 1272 H 119.425 -0.488994 3.08245 0
M  V30 1273 N 119.726 -1.57421 0.075193 0
M  V30 1274 C 120.974 -1.93236 -0.591974 0
M  V30 1275 C 121.295 -0.956241 -1.69944 0
M  V30 1276 O 120.565 -0.00494792 -1.95899 0
M  V30 1277 H 119.145 -0.713355 -0.22166 0
M  V30 1278 H 121.807 -1.9444 0.133848 0
M  V30 1279 H 120.903 -2.95131 -1.01509 0
M  V30 1280 N 121.204 0.198386 -1.56346 0
M  V30 1281 C 122.481 0.944982 -1.71258 0
M  V30 1282 C 122.861 2.0151 -0.629048 0
M  V30 1283 O 122.209 2.25639 0.360473 0
M  V30 1284 C 122.419 1.5344 -3.1346 0
M  V30 1285 C 123.767 2.01778 -3.73591 0
M  V30 1286 O 124.791 1.63288 -3.16568 0
M  V30 1287 O 123.65 2.72594 -4.73661 0
M  V30 1288 H 120.744 0.442939 -0.69838 0
M  V30 1289 H 123.29 0.188342 -1.68652 0
M  V30 1290 H 122.062 0.762869 -3.83792 0
M  V30 1291 H 121.685 2.35596 -3.20282 0
M  V30 1292 N 122.682 1.50554 0.465978 0
M  V30 1293 C 123.612 1.72722 1.57128 0
M  V30 1294 C 124.593 0.576294 1.6004 0
M  V30 1295 O 125.778 0.81598 1.76225 0
M  V30 1296 C 122.908 1.82605 2.95419 0
M  V30 1297 C 121.862 2.97835 3.07373 0
M  V30 1298 C 121.188 2.92867 4.47363 0
M  V30 1299 C 122.488 4.38265 2.84114 0
M  V30 1300 H 124.182 2.65267 1.38829 0
M  V30 1301 H 121.728 1.2765 0.666441 0
M  V30 1302 H 123.681 1.96698 3.72677 0
M  V30 1303 H 122.405 0.866858 3.14886 0
M  V30 1304 H 121.064 2.83401 2.3255 0
M  V30 1305 H 120.712 1.94783 4.63755 0
M  V30 1306 H 120.412 3.70227 4.56296 0
M  V30 1307 H 121.936 3.09015 5.26633 0
M  V30 1308 H 123.35 4.53198 3.51118 0
M  V30 1309 H 121.747 5.17115 3.04487 0
M  V30 1310 H 122.817 4.50281 1.7993 0
M  V30 1311 N 124.16 -0.719506 1.40217 0
M  V30 1312 C 125.07 -1.86378 1.42479 0
M  V30 1313 C 126.086 -1.71073 0.317834 0
M  V30 1314 O 127.262 -1.93406 0.561794 0
M  V30 1315 C 124.327 -3.22136 1.28178 0
M  V30 1316 C 123.388 -3.49723 2.48982 0
M  V30 1317 C 122.621 -4.79004 2.35353 0
M  V30 1318 O 122.844 -5.53821 1.36524 0
M  V30 1319 O 121.778 -5.06839 3.2465 0
M  V30 1320 H 125.604 -1.87425 2.38968 0
M  V30 1321 H 123.189 -0.869405 1.21498 0
M  V30 1322 H 125.071 -4.03234 1.22395 0
M  V30 1323 H 123.746 -3.21825 0.347934 0
M  V30 1324 H 122.653 -2.6865 2.60342 0
M  V30 1325 H 123.986 -3.54828 3.41113 0
M  V30 1326 N 125.638 -1.25649 -0.95132 0
M  V30 1327 C 126.886 -1.10375 -1.69298 0
M  V30 1328 C 127.207 0.355339 -1.91735 0
M  V30 1329 O 126.477 1.25188 -1.50681 0
M  V30 1330 H 125.057 -0.405461 -0.627384 0
M  V30 1331 H 127.719 -1.57823 -1.14358 0
M  V30 1332 H 126.815 -1.61465 -2.67087 0
M  V30 1333 N 127.117 1.15442 -1.07289 0
M  V30 1334 C 128.363 1.86489 -0.796846 0
M  V30 1335 C 128.696 1.82078 0.675371 0
M  V30 1336 O 127.971 1.24346 1.4956 0
M  V30 1337 C 128.254 3.35626 -1.30489 0
M  V30 1338 C 128.107 3.48673 -2.84161 0
M  V30 1339 C 129.426 4.30357 -0.920907 0
M  V30 1340 H 126.545 0.677144 -0.290939 0
M  V30 1341 H 129.187 1.35633 -1.33056 0
M  V30 1342 H 127.337 3.79068 -0.850883 0
M  V30 1343 H 129.009 3.14099 -3.37846 0
M  V30 1344 H 127.252 2.90253 -3.22391 0
M  V30 1345 H 127.923 4.53453 -3.14777 0
M  V30 1346 H 130.399 3.94871 -1.3121 0
M  V30 1347 H 129.275 5.33193 -1.30372 0
M  V30 1348 H 129.536 4.4176 0.173226 0
M  V30 1349 N 128.595 0.856903 1.32268 0
M  V30 1350 C 130.011 0.547061 1.49931 0
M  V30 1351 C 130.211 -0.921781 1.7918 0
M  V30 1352 O 129.267 -1.70469 1.8627 0
M  V30 1353 C 130.58 1.43599 2.64196 0
M  V30 1354 C 132.128 1.43665 2.78081 0
M  V30 1355 C 132.603 2.31085 3.95428 0
M  V30 1356 N 134.094 2.28893 4.02694 0
M  V30 1357 C 134.829 2.93262 4.92732 0
M  V30 1358 N 134.325 3.66751 5.87763 0
M  V30 1359 N 136.118 2.82638 4.85873 0
M  V30 1360 H 128.269 1.8075 1.11549 0
M  V30 1361 H 130.532 0.772144 0.549997 0
M  V30 1362 H 130.238 2.48058 2.49319 0
M  V30 1363 H 130.112 1.12502 3.60032 0
M  V30 1364 H 132.499 0.399701 2.92381 0
M  V30 1365 H 132.58 1.7878 1.82952 0
M  V30 1366 H 132.224 3.34849 3.81888 0
M  V30 1367 H 132.154 1.93302 4.89839 0
M  V30 1368 H 134.645 1.75466 3.34694 0
M  V30 1369 H 134.958 4.13027 6.53168 0
M  V30 1370 H 133.303 3.70859 5.87783 0
M  V30 1371 H 136.494 2.24774 4.10602 0
M  V30 1372 H 136.667 3.33084 5.55841 0
M  V30 1373 N 130.073 -1.45103 0.615059 0
M  V30 1374 C 131.005 -2.28786 -0.13762 0
M  V30 1375 C 132.018 -1.40376 -0.824525 0
M  V30 1376 O 133.207 -1.64681 -0.688662 0
M  V30 1377 C 130.307 -3.16322 -1.21628 0
M  V30 1378 C 129.48 -4.33054 -0.615039 0
M  V30 1379 C 128.539 -5.01743 -1.58556 0
M  V30 1380 O 127.565 -5.58293 -1.10895 0
M  V30 1381 N 128.767 -5.01714 -2.91998 0
M  V30 1382 H 131.532 -2.94025 0.580483 0
M  V30 1383 H 129.093 -1.55373 0.45507 0
M  V30 1384 H 131.085 -3.59139 -1.86552 0
M  V30 1385 H 129.655 -2.52943 -1.83681 0
M  V30 1386 H 128.875 -3.93627 0.21245 0
M  V30 1387 H 130.163 -5.08431 -0.193704 0
M  V30 1388 H 129.561 -4.57075 -3.33316 0
M  V30 1389 H 128.118 -5.48371 -3.52325 0
M  V30 1390 N 131.551 -0.354651 -1.53558 0
M  V30 1391 C 132.498 0.496968 -2.25386 0
M  V30 1392 C 133.468 1.0865 -1.25636 0
M  V30 1393 O 134.653 1.12104 -1.54394 0
M  V30 1394 C 131.793 1.63637 -3.03837 0
M  V30 1395 C 130.906 1.07307 -4.18461 0
M  V30 1396 C 130.041 2.18068 -4.84376 0
M  V30 1397 C 129.08 1.59147 -5.91049 0
M  V30 1398 N 128.217 2.63695 -6.50699 0
M  V30 1399 H 133.057 -0.122075 -2.9775 0
M  V30 1400 H 130.594 -0.0720154 -1.46924 0
M  V30 1401 H 132.552 2.30734 -3.47589 0
M  V30 1402 H 131.182 2.22623 -2.33749 0
M  V30 1403 H 130.234 0.292708 -3.79272 0
M  V30 1404 H 131.546 0.602193 -4.95152 0
M  V30 1405 H 130.7 2.93007 -5.31255 0
M  V30 1406 H 129.439 2.68504 -4.07133 0
M  V30 1407 H 128.444 0.827175 -5.43542 0
M  V30 1408 H 129.669 1.09549 -6.70206 0
M  V30 1409 H 127.615 3.13365 -5.76315 0
M  V30 1410 H 127.532 2.21263 -7.22896 0
M  V30 1411 H 128.8 3.3837 -7.02229 0
M  V30 1412 N 133.029 1.57378 -0.0835403 0
M  V30 1413 C 133.959 2.1641 0.87686 0
M  V30 1414 C 134.94 1.09429 1.30228 0
M  V30 1415 O 136.125 1.37516 1.37124 0
M  V30 1416 C 133.255 2.73517 2.14022 0
M  V30 1417 C 132.209 3.85769 1.85381 0
M  V30 1418 C 131.535 4.29529 3.18448 0
M  V30 1419 C 132.835 5.09486 1.14984 0
M  V30 1420 H 134.529 2.96914 0.385059 0
M  V30 1421 H 132.075 1.42823 0.18377 0
M  V30 1422 H 134.028 3.13463 2.81636 0
M  V30 1423 H 132.752 1.90252 2.65465 0
M  V30 1424 H 131.411 3.46345 1.20169 0
M  V30 1425 H 131.059 3.43169 3.67755 0
M  V30 1426 H 130.759 5.05204 3.00071 0
M  V30 1427 H 132.283 4.72099 3.8724 0
M  V30 1428 H 133.697 5.46674 1.72687 0
M  V30 1429 H 132.094 5.90515 1.06826 0
M  V30 1430 H 133.164 4.84724 0.130749 0
M  V30 1431 N 134.507 -0.190092 1.56449 0
M  V30 1432 C 135.918 -0.754312 1.70784 0
M  V30 1433 C 136.269 -1.83631 0.690951 0
M  V30 1434 O 135.394 -2.15868 -0.151604 0
M  V30 1435 C 135.989 -1.37503 3.09642 0
M  V30 1436 C 134.548 -1.88628 3.25725 0
M  V30 1437 C 133.695 -0.758098 2.66736 0
M  V30 1438 H 136.646 0.0350524 1.58661 0
M  V30 1439 H 136.667 -2.2445 3.0725 0
M  V30 1440 H 136.179 -0.587302 3.83631 0
M  V30 1441 H 134.28 -2.70103 2.56661 0
M  V30 1442 H 134.393 -2.04462 4.3328 0
M  V30 1443 H 132.757 -1.17369 2.26046 0
M  V30 1444 H 133.54 0.0174705 3.43296 0
M  V30 1445 N 135.985 -1.50799 -0.457987 0
M  V30 1446 C 137.215 -1.65977 -1.23025 0
M  V30 1447 C 137.623 -0.347918 -1.85974 0
M  V30 1448 O 136.966 0.68148 -1.70592 0
M  V30 1449 C 137.028 -2.70309 -2.3701 0
M  V30 1450 C 136.692 -4.135 -1.94594 0
M  V30 1451 C 137.689 -4.98949 -1.46101 0
M  V30 1452 C 135.374 -4.5949 -2.02915 0
M  V30 1453 C 137.368 -6.28442 -1.06489 0
M  V30 1454 C 135.055 -5.88984 -1.62914 0
M  V30 1455 C 136.053 -6.73286 -1.1478 0
M  V30 1456 O 135.741 -8.00362 -0.75339 0
M  V30 1457 H 135.473 -0.56064 -0.377702 0
M  V30 1458 H 138.027 -1.97857 -0.551537 0
M  V30 1459 H 136.257 -2.337 -3.08093 0
M  V30 1460 H 137.946 -2.74574 -2.98938 0
M  V30 1461 H 138.712 -4.6463 -1.39084 0
M  V30 1462 H 134.591 -3.94009 -2.39328 0
M  V30 1463 H 138.135 -6.94194 -0.688488 0
M  V30 1464 H 134.032 -6.22822 -1.69595 0
M  V30 1465 H 134.8 -8.13744 -0.88108 0
M  V30 1466 N 137.463 0.71206 -1.40597 0
M  V30 1467 C 138.393 1.83889 -1.43899 0
M  V30 1468 C 139.374 1.67442 -0.299504 0
M  V30 1469 O 140.559 1.87421 -0.508624 0
M  V30 1470 C 137.689 3.21877 -1.30431 0
M  V30 1471 C 136.643 3.53002 -2.42019 0
M  V30 1472 C 135.969 4.90172 -2.13626 0
M  V30 1473 C 137.269 3.53643 -3.84362 0
M  V30 1474 H 138.963 1.81383 -2.38203 0
M  V30 1475 H 136.509 0.871237 -1.14654 0
M  V30 1476 H 138.462 4.00404 -1.31357 0
M  V30 1477 H 137.186 3.24968 -0.326049 0
M  V30 1478 H 135.845 2.76818 -2.40349 0
M  V30 1479 H 135.493 4.89869 -1.14182 0
M  V30 1480 H 135.193 5.11962 -2.88389 0
M  V30 1481 H 136.717 5.71028 -2.1624 0
M  V30 1482 H 138.131 4.22203 -3.87837 0
M  V30 1483 H 136.528 3.86961 -4.58673 0
M  V30 1484 H 137.598 2.52954 -4.13693 0
M  V30 1485 N 138.941 1.26152 0.944643 0
M  V30 1486 C 139.888 1.07408 2.04285 0
M  V30 1487 C 140.858 -0.0198413 1.66088 0
M  V30 1488 O 142.043 0.139264 1.90291 0
M  V30 1489 C 139.183 0.70945 3.37729 0
M  V30 1490 C 138.296 1.87926 3.88983 0
M  V30 1491 C 137.431 1.45807 5.10797 0
M  V30 1492 C 136.47 2.5964 5.54305 0
M  V30 1493 N 135.607 2.18226 6.67324 0
M  V30 1494 H 140.447 2.01389 2.1965 0
M  V30 1495 H 137.984 1.00275 1.07626 0
M  V30 1496 H 139.942 0.478948 4.14442 0
M  V30 1497 H 138.572 -0.193389 3.2222 0
M  V30 1498 H 137.624 2.22279 3.08701 0
M  V30 1499 H 138.936 2.73377 4.17213 0
M  V30 1500 H 138.09 1.18781 5.94959 0
M  V30 1501 H 136.829 0.574414 4.84305 0
M  V30 1502 H 135.834 2.87399 4.68702 0
M  V30 1503 H 137.059 3.48599 5.828 0
M  V30 1504 H 135.005 1.3229 6.42523 0
M  V30 1505 H 134.922 2.97221 6.95123 0
M  V30 1506 H 136.19 1.94403 7.54869 0
M  V30 1507 N 140.419 -1.14872 1.07899 0
M  V30 1508 C 141.351 -2.19425 0.662231 0
M  V30 1509 C 142.364 -1.60231 -0.288079 0
M  V30 1510 O 143.553 -1.78336 -0.076534 0
M  V30 1511 C 140.653 -3.38867 -0.0470695 0
M  V30 1512 C 139.826 -4.27597 0.920831 0
M  V30 1513 C 138.885 -5.25616 0.247805 0
M  V30 1514 O 137.911 -5.62189 0.890599 0
M  V30 1515 N 139.113 -5.71746 -1.00435 0
M  V30 1516 H 141.878 -2.55797 1.56166 0
M  V30 1517 H 139.439 -1.30042 0.964404 0
M  V30 1518 H 141.431 -4.01497 -0.50813 0
M  V30 1519 H 140.001 -3.00864 -0.848523 0
M  V30 1520 H 139.221 -3.61982 1.56087 0
M  V30 1521 H 140.509 -4.83748 1.57688 0
M  V30 1522 H 139.907 -5.44153 -1.54642 0
M  V30 1523 H 138.464 -6.36389 -1.40899 0
M  V30 1524 N 141.898 -0.863906 -1.31812 0
M  V30 1525 C 142.828 -0.330843 -2.31144 0
M  V30 1526 C 143.809 0.575005 -1.60087 0
M  V30 1527 O 144.994 0.493304 -1.8783 0
M  V30 1528 C 142.124 0.47374 -3.44054 0
M  V30 1529 C 141.078 -0.338481 -4.26659 0
M  V30 1530 C 140.404 0.591412 -5.31419 0
M  V30 1531 C 141.704 -1.56926 -4.98168 0
M  V30 1532 H 143.398 -1.16086 -2.75979 0
M  V30 1533 H 140.944 -0.559657 -1.32679 0
M  V30 1534 H 142.897 0.857143 -4.12591 0
M  V30 1535 H 141.621 1.33721 -2.9797 0
M  V30 1536 H 140.28 -0.703754 -3.59782 0
M  V30 1537 H 139.928 1.45199 -4.81587 0
M  V30 1538 H 139.628 0.0519022 -5.87577 0
M  V30 1539 H 141.152 0.97179 -6.02817 0
M  V30 1540 H 142.566 -1.25764 -5.59336 0
M  V30 1541 H 140.963 -2.04739 -5.64094 0
M  V30 1542 H 142.033 -2.32544 -4.25501 0
M  V30 1543 N 143.376 1.44774 -0.622745 0
M  V30 1544 C 144.624 2.01721 -0.123655 0
M  V30 1545 C 144.945 1.49172 1.25589 0
M  V30 1546 O 144.215 0.691974 1.83272 0
M  V30 1547 H 142.795 0.745777 -0.0427225 0
M  V30 1548 H 145.457 1.77382 -0.807559 0
M  V30 1549 H 144.553 3.11984 -0.0849534 0
M  V30 1550 N 144.854 0.36279 1.53368 0
M  V30 1551 C 146.1 -0.228113 2.01513 0
M  V30 1552 C 146.433 -1.48648 1.2497 0
M  V30 1553 O 145.708 -1.91459 0.342616 0
M  V30 1554 C 145.991 -0.522884 3.56284 0
M  V30 1555 C 145.844 0.74892 4.43521 0
M  V30 1556 C 147.163 -1.32461 4.19693 0
M  V30 1557 H 144.282 -0.0814343 0.732487 0
M  V30 1558 H 146.924 0.48713 1.83649 0
M  V30 1559 H 145.074 -1.1322 3.71636 0
M  V30 1560 H 146.746 1.38648 4.39971 0
M  V30 1561 H 144.989 1.36986 4.11603 0
M  V30 1562 H 145.66 0.497667 5.49752 0
M  V30 1563 H 148.136 -0.809203 4.08156 0
M  V30 1564 H 147.012 -1.49961 5.28018 0
M  V30 1565 H 147.273 -2.33232 3.75573 0
M  V30 1566 N 146.332 -1.57332 0.0918853 0
M  V30 1567 C 147.56 -1.98574 -0.581048 0
M  V30 1568 C 147.975 -0.970903 -1.61923 0
M  V30 1569 O 147.332 0.0399054 -1.82456 0
M  V30 1570 C 147.383 -3.39872 -1.23164 0
M  V30 1571 O 147.104 -4.37469 -0.234989 0
M  V30 1572 C 148.605 -3.96099 -1.99049 0
M  V30 1573 H 145.825 -0.65261 -0.156018 0
M  V30 1574 H 148.369 -2.0379 0.170225 0
M  V30 1575 H 146.524 -3.35679 -1.93386 0
M  V30 1576 H 146.938 -5.19751 -0.70418 0
M  V30 1577 H 148.412 -4.97127 -2.39934 0
M  V30 1578 H 148.889 -3.3374 -2.85507 0
M  V30 1579 H 149.495 -4.03755 -1.3365 0
M  V30 1580 N 147.81 0.181792 -1.56548 0
M  V30 1581 C 149.038 0.915947 -1.85521 0
M  V30 1582 C 149.453 1.76282 -0.676016 0
M  V30 1583 O 148.81 1.79012 0.355077 0
M  V30 1584 C 148.861 1.80126 -3.13427 0
M  V30 1585 O 148.582 0.988562 -4.26801 0
M  V30 1586 C 150.083 2.64597 -3.55673 0
M  V30 1587 H 147.303 0.26661 -0.61576 0
M  V30 1588 H 149.847 0.185039 -2.03661 0
M  V30 1589 H 148.002 2.48563 -2.97145 0
M  V30 1590 H 148.416 1.59308 -4.99721 0
M  V30 1591 H 149.89 3.2235 -4.48101 0
M  V30 1592 H 150.367 3.38958 -2.79292 0
M  V30 1593 H 150.973 2.0151 -3.74532 0
M  V30 1594 N 149.288 1.51039 0.449983 0
M  V30 1595 C 150.537 1.62317 1.19733 0
M  V30 1596 C 150.85 0.339101 1.92638 0
M  V30 1597 O 152.056 0.331069 2.69474 0
M  V30 1598 C 150.512 2.86608 2.17678 0
M  V30 1599 C 150.12 4.21972 1.50479 0
M  V30 1600 C 151.864 3.07239 2.92924 0
M  V30 1601 C 149.771 5.37426 2.46834 0
M  V30 1602 H 148.701 0.604532 0.450619 0
M  V30 1603 H 151.352 1.77494 0.465625 0
M  V30 1604 H 149.734 2.65037 2.94231 0
M  V30 1605 H 150.908 4.53878 0.795716 0
M  V30 1606 H 149.223 4.07117 0.874344 0
M  V30 1607 H 151.82 3.90668 3.65079 0
M  V30 1608 H 152.163 2.19807 3.5354 0
M  V30 1609 H 152.696 3.29091 2.23481 0
M  V30 1610 H 149.435 6.27079 1.90926 0
M  V30 1611 H 148.955 5.09912 3.15832 0
M  V30 1612 H 150.634 5.68862 3.08228 0
M  V30 1613 N 150.766 -0.704594 1.40972 0
M  V30 1614 C 152.012 -1.46546 1.41053 0
M  V30 1615 C 152.367 -1.92393 0.0159714 0
M  V30 1616 O 151.66 -1.66017 -0.956506 0
M  V30 1617 C 151.854 -2.698 2.34399 0
M  V30 1618 C 151.683 -2.36008 3.82793 0
M  V30 1619 C 150.453 -2.26812 4.51536 0
M  V30 1620 C 152.651 -1.99565 4.74003 0
M  V30 1621 N 150.633 -1.8581 5.85105 0
M  V30 1622 C 152.004 -1.69251 5.96451 0
M  V30 1623 C 154.059 -1.86296 4.61734 0
M  V30 1624 C 152.762 -1.27003 7.07999 0
M  V30 1625 C 154.788 -1.45452 5.73234 0
M  V30 1626 C 154.15 -1.16043 6.94776 0
M  V30 1627 H 150.249 -0.533896 0.571383 0
M  V30 1628 H 152.833 -0.816061 1.76773 0
M  V30 1629 H 151.004 -3.32473 2.00789 0
M  V30 1630 H 152.736 -3.36214 2.25261 0
M  V30 1631 H 149.491 -2.44913 4.05357 0
M  V30 1632 H 149.915 -1.67817 6.55871 0
M  V30 1633 H 154.557 -2.0769 3.68273 0
M  V30 1634 H 152.275 -1.04353 8.01334 0
M  V30 1635 H 155.861 -1.35748 5.65742 0
M  V30 1636 H 154.741 -0.84915 7.79589 0
M  V30 1637 N 152.244 -1.26651 -0.937939 0
M  V30 1638 C 153.174 -1.10993 -2.05433 0
M  V30 1639 C 154.155 -0.0142161 -1.70094 0
M  V30 1640 O 155.34 -0.186837 -1.93299 0
M  V30 1641 C 152.47 -0.745561 -3.39203 0
M  V30 1642 C 151.424 -1.79337 -3.88616 0
M  V30 1643 C 150.75 -1.28324 -5.19073 0
M  V30 1644 C 152.05 -3.19553 -4.13138 0
M  V30 1645 H 153.744 -2.0438 -2.1879 0
M  V30 1646 H 151.29 -0.984041 -1.05131 0
M  V30 1647 H 153.243 -0.622888 -4.16771 0
M  V30 1648 H 151.967 0.22401 -3.25831 0
M  V30 1649 H 150.626 -1.90477 -3.13231 0
M  V30 1650 H 150.274 -0.303414 -5.02084 0
M  V30 1651 H 149.974 -1.98369 -5.53103 0
M  V30 1652 H 151.498 -1.1733 -5.99221 0
M  V30 1653 H 152.912 -3.11471 -4.81309 0
M  V30 1654 H 151.309 -3.87218 -4.58457 0
M  V30 1655 H 152.379 -3.65368 -3.18801 0
M  V30 1656 N 153.722 1.14298 -1.08507 0
M  V30 1657 C 154.947 1.8976 -0.837001 0
M  V30 1658 C 155.372 1.78097 0.605228 0
M  V30 1659 O 154.73 1.12188 1.4242 0
M  V30 1660 C 154.778 3.37685 -1.26495 0
M  V30 1661 O 153.882 4.10281 -0.417514 0
M  V30 1662 H 153.223 0.590365 -0.303917 0
M  V30 1663 H 155.753 1.44672 -1.44676 0
M  V30 1664 H 155.763 3.88501 -1.24625 0
M  V30 1665 H 154.438 3.45492 -2.31534 0
M  V30 1666 H 153.015 3.69536 -0.499722 0
M  V30 1667 N 155.201 0.870884 1.31352 0
M  V30 1668 C 156.612 0.534714 1.78879 0
M  V30 1669 C 156.963 -0.948423 1.71754 0
M  V30 1670 O 156.088 -1.74055 1.28584 0
M  V30 1671 C 156.683 0.963839 3.24801 0
M  V30 1672 C 155.242 0.679311 3.70219 0
M  V30 1673 C 154.389 1.15465 2.52117 0
M  V30 1674 H 157.34 1.05651 1.18421 0
M  V30 1675 H 157.361 0.286892 3.79417 0
M  V30 1676 H 156.873 2.04332 3.29955 0
M  V30 1677 H 154.974 -0.388769 3.70566 0
M  V30 1678 H 155.087 1.25698 4.62317 0
M  V30 1679 H 153.451 0.574383 2.48139 0
M  V30 1680 H 154.234 2.24157 2.60016 0
M  V30 1681 N 156.679 -1.44442 0.630414 0
M  V30 1682 C 157.925 -2.02351 0.134816 0
M  V30 1683 C 158.258 -1.4947 -1.23986 0
M  V30 1684 O 157.533 -0.678475 -1.82283 0
M  V30 1685 C 157.816 -3.59898 0.120707 0
M  V30 1686 C 157.669 -4.23063 1.52767 0
M  V30 1687 C 158.988 -4.36585 -0.555127 0
M  V30 1688 H 156.107 -0.73527 0.0504646 0
M  V30 1689 H 158.749 -1.72022 0.806751 0
M  V30 1690 H 156.899 -3.85868 -0.451477 0
M  V30 1691 H 158.571 -4.08202 2.14869 0
M  V30 1692 H 156.814 -3.80586 2.08175 0
M  V30 1693 H 157.485 -5.32071 1.46984 0
M  V30 1694 H 159.961 -4.16044 -0.0685429 0
M  V30 1695 H 158.837 -5.46294 -0.534185 0
M  V30 1696 H 159.098 -4.11138 -1.62535 0
M  V30 1697 N 158.157 -0.370918 -1.53173 0
M  V30 1698 C 159.087 0.464847 -2.28826 0
M  V30 1699 C 160.068 1.07936 -1.31468 0
M  V30 1700 O 161.253 1.0956 -1.60344 0
M  V30 1701 C 158.383 1.60196 -3.08147 0
M  V30 1702 C 157.337 1.11443 -4.13237 0
M  V30 1703 C 156.663 2.3422 -4.80672 0
M  V30 1704 C 157.963 0.195384 -5.21934 0
M  V30 1705 H 159.657 -0.166329 -2.98938 0
M  V30 1706 H 157.203 -0.0814359 -1.4377 0
M  V30 1707 H 159.156 2.19332 -3.59822 0
M  V30 1708 H 157.88 2.26045 -2.35735 0
M  V30 1709 H 156.539 0.545727 -3.62515 0
M  V30 1710 H 156.187 2.98537 -4.04827 0
M  V30 1711 H 155.887 2.02269 -5.51689 0
M  V30 1712 H 157.411 2.94032 -5.35143 0
M  V30 1713 H 158.825 0.694375 -5.69079 0
M  V30 1714 H 157.222 -0.0335027 -6.00091 0
M  V30 1715 H 158.292 -0.760961 -4.78892 0
M  V30 1716 N 159.635 1.57281 -0.100228 0
M  V30 1717 C 160.912 1.86014 0.604812 0
M  V30 1718 C 161.292 0.998025 1.86018 0
M  V30 1719 O 160.64 0.0718184 2.28387 0
M  V30 1720 C 160.85 3.36784 0.915278 0
M  V30 1721 C 162.198 4.04957 1.27651 0
M  V30 1722 O 163.222 3.41695 1.00613 0
M  V30 1723 O 162.081 5.16593 1.7831 0
M  V30 1724 H 159.175 0.76942 0.303185 0
M  V30 1725 H 161.721 1.69176 -0.133313 0
M  V30 1726 H 160.493 3.91292 0.0248896 0
M  V30 1727 H 160.116 3.58987 1.70921 0
M  V30 1728 N 161.113 -0.173488 1.56642 0
M  V30 1729 C 162.061 -1.23417 1.97157 0
M  V30 1730 C 163.055 -1.45946 0.860013 0
M  V30 1731 O 164.261 -1.46551 1.04512 0
M  V30 1732 H 160.636 -0.414818 0.62724 0
M  V30 1733 H 162.607 -0.865582 2.8557 0
M  V30 1734 C 161.356 -2.5665 2.34576 0
M  V30 1735 H 160.679 -2.40137 3.19647 0
M  V30 1736 H 162.119 -3.2956 2.6677 0
M  V30 1737 C 160.578 -3.15245 1.18836 0
M  V30 1738 O 161.108 -3.98883 0.474869 0
M  V30 1739 N 159.314 -2.74303 0.959497 0
M  V30 1740 H 158.861 -2.0639 1.54146 0
M  V30 1741 H 158.819 -3.13844 0.186932 0
M  V30 1742 N 162.591 -1.51276 -0.441967 0
M  V30 1743 C 163.521 -1.752 -1.54361 0
M  V30 1744 C 164.502 -0.601682 -1.59103 0
M  V30 1745 O 165.687 -0.843913 -1.74905 0
M  V30 1746 C 162.817 -1.87282 -2.92477 0
M  V30 1747 C 161.771 -3.02687 -3.02596 0
M  V30 1748 C 161.097 -2.99947 -4.42647 0
M  V30 1749 C 162.397 -4.4273 -2.77106 0
M  V30 1750 H 164.091 -2.67442 -1.34592 0
M  V30 1751 H 161.637 -1.28694 -0.646048 0
M  V30 1752 H 163.59 -2.02602 -3.695 0
M  V30 1753 H 162.314 -0.916844 -3.13467 0
M  V30 1754 H 160.973 -2.87065 -2.28012 0
M  V30 1755 H 160.621 -2.02136 -4.60597 0
M  V30 1756 H 160.321 -3.77439 -4.50348 0
M  V30 1757 H 161.845 -3.17354 -5.2165 0
M  V30 1758 H 163.259 -4.58727 -3.43864 0
M  V30 1759 H 161.656 -5.21893 -2.96222 0
M  V30 1760 H 162.726 -4.53087 -1.72744 0
M  V30 1761 N 164.069 0.697108 -1.41344 0
M  V30 1762 C 165.346 1.45154 -1.31109 0
M  V30 1763 C 165.726 2.11009 0.0620449 0
M  V30 1764 O 165.074 2.01571 1.07618 0
M  V30 1765 C 165.284 2.47223 -2.46337 0
M  V30 1766 C 166.632 3.1252 -2.87431 0
M  V30 1767 O 167.656 2.57547 -2.46065 0
M  V30 1768 O 166.515 4.12083 -3.58957 0
M  V30 1769 H 163.609 0.646365 -0.515889 0
M  V30 1770 H 166.155 0.727716 -1.53305 0
M  V30 1771 H 164.927 1.97204 -3.37974 0
M  V30 1772 H 164.55 3.27116 -2.2601 0
M  V30 1773 N 165.547 1.27147 0.931209 0
M  V30 1774 C 166.775 1.16082 1.71267 0
M  V30 1775 C 167.19 -0.282772 1.8667 0
M  V30 1776 O 166.547 -1.19283 1.38122 0
M  V30 1777 C 166.598 1.8358 3.11417 0
M  V30 1778 O 166.319 3.22299 2.96741 0
M  V30 1779 C 167.82 1.78597 4.05732 0
M  V30 1780 H 165.04 0.403758 0.535929 0
M  V30 1781 H 167.584 1.67953 1.16671 0
M  V30 1782 H 165.739 1.35623 3.62885 0
M  V30 1783 H 166.153 3.55851 3.85319 0
M  V30 1784 H 167.627 2.30444 5.01597 0
M  V30 1785 H 168.104 0.754564 4.3267 0
M  V30 1786 H 168.71 2.26152 3.60188 0
M  V30 1787 N 167.025 -1.13721 1.09112 0
M  V30 1788 C 167.955 -2.21148 0.749385 0
M  V30 1789 C 168.936 -1.6792 -0.271475 0
M  V30 1790 O 170.121 -1.93693 -0.140251 0
M  V30 1791 C 167.251 -3.46905 0.165659 0
M  V30 1792 C 166.205 -4.13203 1.11567 0
M  V30 1793 C 165.531 -5.33248 0.393809 0
M  V30 1794 C 166.831 -4.60912 2.45678 0
M  V30 1795 H 168.525 -2.4999 1.64758 0
M  V30 1796 H 166.071 -1.20156 0.793626 0
M  V30 1797 H 168.024 -4.21313 -0.085466 0
M  V30 1798 H 166.748 -3.17449 -0.767714 0
M  V30 1799 H 165.407 -3.40758 1.35202 0
M  V30 1800 H 165.055 -5.00054 -0.543599 0
M  V30 1801 H 164.755 -5.78552 1.02721 0
M  V30 1802 H 166.279 -6.10413 0.150908 0
M  V30 1803 H 167.693 -5.26759 2.26269 0
M  V30 1804 H 166.09 -5.16944 3.04776 0
M  V30 1805 H 167.16 -3.75603 3.06677 0
M  V30 1806 N 168.503 -0.877838 -1.30888 0
M  V30 1807 C 169.466 -0.344265 -2.266 0
M  V30 1808 C 170.466 0.50922 -1.52524 0
M  V30 1809 O 171.656 0.317398 -1.71284 0
M  V30 1810 C 168.788 0.510198 -3.37061 0
M  V30 1811 H 169.981 -1.1893 -2.7531 0
M  V30 1812 H 167.534 -0.654088 -1.41956 0
M  V30 1813 H 168.269 1.37612 -2.93655 0
M  V30 1814 H 168.054 -0.101047 -3.9197 0
M  V30 1815 H 169.544 0.875537 -4.08319 0
M  V30 1816 N 169.982 1.44106 -0.638065 0
M  V30 1817 C 171.23 2.01579 -0.145043 0
M  V30 1818 C 171.551 1.50496 1.24 0
M  V30 1819 O 170.821 0.711374 1.82527 0
M  V30 1820 H 169.401 0.745282 -0.05063 0
M  V30 1821 H 172.063 1.76516 -0.826327 0
M  V30 1822 H 171.159 3.11877 -0.118039 0
M  V30 1823 N 171.46 0.379036 1.52974 0
M  V30 1824 C 172.688 -0.20679 2.05864 0
M  V30 1825 C 173.103 -1.41356 1.25155 0
M  V30 1826 O 172.46 -1.8009 0.295588 0
M  V30 1827 C 172.511 -0.587045 3.56702 0
M  V30 1828 O 172.232 0.571776 4.34353 0
M  V30 1829 C 173.733 -1.22983 4.25899 0
M  V30 1830 H 170.953 -0.0336123 0.670158 0
M  V30 1831 H 173.497 0.541298 1.97206 0
M  V30 1832 H 171.652 -1.28504 3.65466 0
M  V30 1833 H 172.066 0.261544 5.23847 0
M  V30 1834 H 173.54 -1.44635 5.32715 0
M  V30 1835 H 174.017 -2.19416 3.80465 0
M  V30 1836 H 174.623 -0.572892 4.21424 0
M  V30 1837 N 172.938 -1.57226 0.108567 0
M  V30 1838 C 174.215 -1.86333 -0.594939 0
M  V30 1839 C 174.595 -1.00788 -1.85486 0
M  V30 1840 O 173.943 -0.0839293 -2.28346 0
M  V30 1841 C 174.153 -3.37265 -0.897405 0
M  V30 1842 C 175.501 -4.05629 -1.25501 0
M  V30 1843 O 176.525 -3.42224 -0.987998 0
M  V30 1844 O 175.384 -5.17531 -1.75567 0
M  V30 1845 H 172.478 -0.771018 -0.2991 0
M  V30 1846 H 175.024 -1.69102 0.142283 0
M  V30 1847 H 173.796 -3.913 -0.00413806 0
M  V30 1848 H 173.419 -3.59889 -1.69014 0
M  V30 1849 N 174.416 0.165178 -1.56732 0
M  V30 1850 C 175.364 1.22369 -1.97809 0
M  V30 1851 C 176.358 1.45488 -0.867741 0
M  V30 1852 O 177.564 1.45995 -1.05288 0
M  V30 1853 H 173.939 0.411486 -0.629431 0
M  V30 1854 H 175.91 0.850425 -2.86025 0
M  V30 1855 C 174.659 2.55403 -2.35934 0
M  V30 1856 H 173.982 2.38438 -3.20916 0
M  V30 1857 H 175.422 3.2814 -2.68514 0
M  V30 1858 C 173.881 3.14611 -1.20506 0
M  V30 1859 O 174.411 3.98626 -0.496016 0
M  V30 1860 N 172.617 2.7379 -0.97403 0
M  V30 1861 H 172.164 2.0557 -1.55238 0
M  V30 1862 H 172.122 3.1374 -0.203573 0
M  V30 1863 N 175.894 1.51508 0.433938 0
M  V30 1864 C 177.122 1.68157 1.20543 0
M  V30 1865 C 177.537 0.380362 1.84929 0
M  V30 1866 O 176.894 -0.641446 1.70856 0
M  V30 1867 C 176.945 2.79965 2.28696 0
M  V30 1868 O 176.666 4.05045 1.66943 0
M  V30 1869 C 178.167 3.07912 3.18912 0
M  V30 1870 H 175.387 0.56421 0.363191 0
M  V30 1871 H 177.931 1.97941 0.513754 0
M  V30 1872 H 176.086 2.5277 2.93574 0
M  V30 1873 H 176.5 4.67165 2.38448 0
M  V30 1874 H 177.974 3.89719 3.90926 0
M  V30 1875 H 178.451 2.20456 3.79863 0
M  V30 1876 H 179.057 3.36779 2.59731 0
M  V30 1877 N 177.372 -0.689602 1.41712 0
M  V30 1878 C 178.62 -1.4468 1.4111 0
M  V30 1879 C 178.941 -1.94986 0.0232196 0
M  V30 1880 O 178.211 -1.72097 -0.935913 0
M  V30 1881 H 176.791 -0.536847 0.519427 0
M  V30 1882 H 179.453 -0.815825 1.77004 0
M  V30 1883 H 178.549 -2.30706 2.10193 0
M  V30 1884 N 178.85 -1.27639 -0.924453 0
M  V30 1885 C 180.08 -1.16819 -1.70402 0
M  V30 1886 C 180.488 0.277191 -1.87158 0
M  V30 1887 O 179.831 1.20025 -1.39067 0
M  V30 1888 C 179.893 -1.78305 -3.12166 0
M  V30 1889 C 179.557 -3.27502 -3.18734 0
M  V30 1890 C 180.554 -4.2409 -3.00738 0
M  V30 1891 C 178.239 -3.68269 -3.4159 0
M  V30 1892 C 180.233 -5.59422 -3.05492 0
M  V30 1893 C 177.92 -5.0373 -3.45977 0
M  V30 1894 C 178.918 -5.99116 -3.27946 0
M  V30 1895 O 178.606 -7.32108 -3.32074 0
M  V30 1896 H 178.338 -0.406931 -0.539799 0
M  V30 1897 H 180.892 -1.69078 -1.16626 0
M  V30 1898 H 179.122 -1.20528 -3.67437 0
M  V30 1899 H 180.811 -1.62154 -3.72103 0
M  V30 1900 H 181.577 -3.93931 -2.82919 0
M  V30 1901 H 177.456 -2.94496 -3.54673 0
M  V30 1902 H 181 -6.33852 -2.91337 0
M  V30 1903 H 176.897 -5.33543 -3.63321 0
M  V30 1904 H 177.665 -7.40598 -3.48507 0
M  V30 1905 N 180.328 1.1314 -1.09713 0
M  V30 1906 C 181.278 2.16709 -0.708593 0
M  V30 1907 C 182.262 1.58471 0.278523 0
M  V30 1908 O 183.454 1.76779 0.088427 0
M  V30 1909 C 180.583 3.43039 -0.133923 0
M  V30 1910 C 179.669 4.08277 -1.14763 0
M  V30 1911 N 180.06 4.48637 -2.33577 0
M  V30 1912 C 178.358 4.34954 -0.986446 0
M  V30 1913 C 179.059 4.9952 -2.98085 0
M  V30 1914 N 178.035 4.94561 -2.25632 0
M  V30 1915 H 181.837 2.45672 -1.61315 0
M  V30 1916 H 179.351 1.29967 -0.973775 0
M  V30 1917 H 181.348 4.16583 0.162465 0
M  V30 1918 H 180.008 3.15549 0.765447 0
M  V30 1919 H 181.019 4.41246 -2.7115 0
M  V30 1920 H 177.696 4.17258 -0.142008 0
M  V30 1921 H 179.086 5.40521 -3.99108 0
M  V30 1922 N 181.806 0.884767 1.30421 0
M  V30 1923 C 183.054 0.502112 1.95763 0
M  V30 1924 C 183.375 -0.951815 1.70192 0
M  V30 1925 O 182.645 -1.6692 1.0254 0
M  V30 1926 H 181.225 0.182694 0.724315 0
M  V30 1927 H 183.887 1.1278 1.58955 0
M  V30 1928 H 182.983 0.672188 3.04775 0
M  V30 1929 N 183.284 -1.43765 0.645699 0
M  V30 1930 C 184.514 -2.05953 0.163318 0
M  V30 1931 C 184.922 -1.48432 -1.17322 0
M  V30 1932 O 184.265 -0.607295 -1.73371 0
M  V30 1933 C 184.327 -3.59499 -0.0103065 0
M  V30 1934 C 183.991 -4.39563 1.25035 0
M  V30 1935 C 184.988 -4.72108 2.17739 0
M  V30 1936 C 182.673 -4.79697 1.48983 0
M  V30 1937 C 184.667 -5.43688 3.3269 0
M  V30 1938 C 182.354 -5.51023 2.64229 0
M  V30 1939 C 183.352 -5.8294 3.55908 0
M  V30 1940 O 183.04 -6.5281 4.69142 0
M  V30 1941 H 182.772 -0.670798 0.0836986 0
M  V30 1942 H 185.326 -1.85384 0.884407 0
M  V30 1943 H 183.556 -3.78613 -0.78669 0
M  V30 1944 H 185.245 -4.03408 -0.449087 0
M  V30 1945 H 186.011 -4.41627 2.00476 0
M  V30 1946 H 181.89 -4.54266 0.785078 0
M  V30 1947 H 185.434 -5.68517 4.04269 0
M  V30 1948 H 181.331 -5.8092 2.81429 0
M  V30 1949 H 182.099 -6.71288 4.6831 0
M  V30 1950 N 184.763 -0.387143 -1.52771 0
M  V30 1951 C 186.009 0.188506 -2.02525 0
M  V30 1952 C 186.364 1.44649 -1.26864 0
M  V30 1953 O 185.657 1.88189 -0.359945 0
M  V30 1954 C 185.851 0.512209 -3.53711 0
M  V30 1955 C 185.68 -0.712855 -4.44014 0
M  V30 1956 C 184.45 -1.23147 -4.90064 0
M  V30 1957 C 186.648 -1.58453 -4.89282 0
M  V30 1958 N 184.63 -2.41431 -5.64433 0
M  V30 1959 C 186.001 -2.61381 -5.6221 0
M  V30 1960 C 188.056 -1.60488 -4.71326 0
M  V30 1961 C 186.759 -3.66227 -6.19088 0
M  V30 1962 C 188.785 -2.6424 -5.29085 0
M  V30 1963 C 188.147 -3.6589 -6.01917 0
M  V30 1964 H 184.246 0.0311236 -0.78138 0
M  V30 1965 H 186.83 -0.536548 -1.87161 0
M  V30 1966 H 185.001 1.20632 -3.69192 0
M  V30 1967 H 186.733 1.07482 -3.90166 0
M  V30 1968 H 183.488 -0.792795 -4.66917 0
M  V30 1969 H 183.912 -3.01274 -6.0627 0
M  V30 1970 H 188.554 -0.83247 -4.14524 0
M  V30 1971 H 186.272 -4.44337 -6.74974 0
M  V30 1972 H 189.858 -2.66695 -5.17074 0
M  V30 1973 H 188.738 -4.44855 -6.45813 0
M  V30 1974 N 186.241 1.57166 -0.116904 0
M  V30 1975 C 187.469 1.99473 0.549383 0
M  V30 1976 C 187.884 0.996541 1.60357 0
M  V30 1977 O 187.241 -0.0108731 1.82497 0
M  V30 1978 C 187.292 3.41788 1.17741 0
M  V30 1979 O 187.013 4.37788 0.165362 0
M  V30 1980 C 188.514 3.99216 1.92722 0
M  V30 1981 H 185.734 0.655009 0.145616 0
M  V30 1982 H 188.278 2.03494 -0.202625 0
M  V30 1983 H 186.433 3.38713 1.88021 0
M  V30 1984 H 186.847 5.20806 0.621403 0
M  V30 1985 H 188.321 5.00882 2.31995 0
M  V30 1986 H 188.798 3.3824 2.80161 0
M  V30 1987 H 189.404 4.0583 1.27209 0
M  V30 1988 N 187.719 -0.156864 1.56817 0
M  V30 1989 C 189.135 -0.50916 1.5126 0
M  V30 1990 C 189.335 -1.83897 0.823658 0
M  V30 1991 O 188.391 -2.49469 0.390055 0
M  V30 1992 C 189.704 -0.52857 2.96018 0
M  V30 1993 C 191.252 -0.614771 3.06903 0
M  V30 1994 C 191.727 -0.664938 4.53147 0
M  V30 1995 N 193.218 -0.727433 4.57452 0
M  V30 1996 C 193.953 -0.787067 5.67973 0
M  V30 1997 N 193.449 -0.806649 6.88088 0
M  V30 1998 N 195.242 -0.827195 5.5598 0
M  V30 1999 H 187.393 0.714935 2.00006 0
M  V30 2000 H 189.656 0.259526 0.911784 0
M  V30 2001 H 189.362 0.380154 3.49639 0
M  V30 2002 H 189.236 -1.36998 3.51442 0
M  V30 2003 H 191.623 -1.51392 2.53307 0
M  V30 2004 H 191.704 0.253597 2.5454 0
M  V30 2005 H 191.348 0.230011 5.07379 0
M  V30 2006 H 191.278 -1.54966 5.03282 0
M  V30 2007 H 193.769 -0.719998 3.70978 0
M  V30 2008 H 194.082 -0.853727 7.6807 0
M  V30 2009 H 192.427 -0.774687 6.90669 0
M  V30 2010 H 195.618 -0.808998 4.61056 0
M  V30 2011 H 195.791 -0.870206 6.4213 0
M  V30 2012 N 189.197 -1.51736 -0.425897 0
M  V30 2013 C 190.474 -1.55519 -1.1863 0
M  V30 2014 C 190.854 -0.326219 -2.08564 0
M  V30 2015 O 190.202 0.688012 -2.17896 0
M  V30 2016 C 190.412 -2.87521 -1.9782 0
M  V30 2017 C 191.76 -3.39899 -2.54468 0
M  V30 2018 O 192.784 -2.89148 -2.08019 0
M  V30 2019 O 191.643 -4.2848 -3.39215 0
M  V30 2020 H 188.737 -0.625739 -0.540721 0
M  V30 2021 H 191.283 -1.64055 -0.434038 0
M  V30 2022 H 190.055 -3.68422 -1.31836 0
M  V30 2023 H 189.678 -2.822 -2.80088 0
M  V30 2024 N 190.675 0.682077 -1.42076 0
M  V30 2025 C 191.922 1.44215 -1.42156 0
M  V30 2026 C 192.25 1.94468 -0.0354186 0
M  V30 2027 O 191.505 1.70816 0.955002 0
M  V30 2028 C 191.804 2.66036 -2.38662 0
M  V30 2029 C 191.47 2.34366 -3.85206 0
M  V30 2030 C 190.132 2.25439 -4.25124 0
M  V30 2031 C 192.484 2.08513 -4.77673 0
M  V30 2032 C 189.812 1.88775 -5.55501 0
M  V30 2033 C 192.164 1.73354 -6.08384 0
M  V30 2034 C 190.828 1.62933 -6.47309 0
M  V30 2035 H 190.098 0.527718 -0.520187 0
M  V30 2036 H 192.745 0.778387 -1.74967 0
M  V30 2037 H 191.05 3.3741 -1.99152 0
M  V30 2038 H 192.747 3.24205 -2.35991 0
M  V30 2039 H 189.337 2.42213 -3.53597 0
M  V30 2040 H 193.521 2.14346 -4.47626 0
M  V30 2041 H 188.777 1.7927 -5.84527 0
M  V30 2042 H 192.951 1.52373 -6.79526 0
M  V30 2043 H 190.578 1.34292 -7.48244 0
M  V30 2044 N 192.153 1.28127 0.917671 0
M  V30 2045 C 193.1 1.11717 2.0196 0
M  V30 2046 C 194.07 0.0153929 1.66093 0
M  V30 2047 O 195.255 0.179596 1.89953 0
M  V30 2048 C 192.395 0.780927 3.36148 0
M  V30 2049 C 191.508 1.96135 3.84909 0
M  V30 2050 C 190.643 1.56609 5.0759 0
M  V30 2051 C 189.682 2.71339 5.48673 0
M  V30 2052 N 188.819 2.32332 6.62545 0
M  V30 2053 H 193.659 2.06003 2.15329 0
M  V30 2054 H 191.196 1.02535 1.05475 0
M  V30 2055 H 193.154 0.56675 4.13333 0
M  V30 2056 H 191.784 -0.124998 3.22558 0
M  V30 2057 H 190.836 2.28777 3.03916 0
M  V30 2058 H 192.148 2.82165 4.1132 0
M  V30 2059 H 191.302 1.31374 5.92305 0
M  V30 2060 H 190.041 0.677014 4.82978 0
M  V30 2061 H 189.046 2.97276 4.62501 0
M  V30 2062 H 190.271 3.60882 5.75274 0
M  V30 2063 H 188.217 1.45889 6.39572 0
M  V30 2064 H 188.134 3.11899 6.88662 0
M  V30 2065 H 189.402 2.10371 7.50576 0
M  V30 2066 N 193.631 -1.12557 1.10312 0
M  V30 2067 C 194.563 -2.17971 0.708625 0
M  V30 2068 C 195.576 -1.60806 -0.254027 0
M  V30 2069 O 196.765 -1.78458 -0.0386891 0
M  V30 2070 C 193.865 -3.38891 0.0248198 0
M  V30 2071 C 193.038 -4.25548 1.01132 0
M  V30 2072 C 192.097 -5.24972 0.35924 0
M  V30 2073 O 191.123 -5.60174 1.00965 0
M  V30 2074 N 192.325 -5.73747 -0.882847 0
M  V30 2075 H 195.09 -2.52427 1.61557 0
M  V30 2076 H 192.651 -1.27967 0.991771 0
M  V30 2077 H 194.643 -4.02485 -0.422852 0
M  V30 2078 H 193.213 -3.02596 -0.784514 0
M  V30 2079 H 192.433 -3.58589 1.6373 0
M  V30 2080 H 193.721 -4.80294 1.67914 0
M  V30 2081 H 193.119 -5.4731 -1.43065 0
M  V30 2082 H 191.676 -6.39234 -1.27369 0
M  V30 2083 N 195.109 -0.891671 -1.2995 0
M  V30 2084 C 196.358 -0.509521 -1.95158 0
M  V30 2085 C 196.671 0.947388 -1.71125 0
M  V30 2086 O 197.877 1.43669 -2.30372 0
M  V30 2087 C 196.333 -0.860315 -3.49466 0
M  V30 2088 C 195.941 -2.33545 -3.8231 0
M  V30 2089 C 197.685 -0.547687 -4.20952 0
M  V30 2090 C 195.592 -2.62752 -5.29826 0
M  V30 2091 H 194.522 -0.18682 -0.730489 0
M  V30 2092 H 197.173 -1.08756 -1.47798 0
M  V30 2093 H 195.555 -0.211285 -3.95436 0
M  V30 2094 H 196.729 -3.02936 -3.47227 0
M  V30 2095 H 195.044 -2.61629 -3.23944 0
M  V30 2096 H 197.641 -0.742854 -5.29515 0
M  V30 2097 H 197.984 0.51332 -4.13123 0
M  V30 2098 H 198.517 -1.1542 -3.80688 0
M  V30 2099 H 195.256 -3.6762 -5.42712 0
M  V30 2100 H 194.776 -1.97977 -5.66185 0
M  V30 2101 H 196.455 -2.48601 -5.97333 0
M  V30 2102 N 196.587 1.43421 -0.653314 0
M  V30 2103 C 197.497 2.34568 0.0388565 0
M  V30 2104 C 198.513 1.53888 0.81207 0
M  V30 2105 O 199.689 1.86539 0.759294 0
M  V30 2106 C 196.754 3.32167 0.993269 0
M  V30 2107 C 195.815 4.28751 0.216977 0
M  V30 2108 C 195.048 5.21688 1.12593 0
M  V30 2109 O 195.271 5.19052 2.36519 0
M  V30 2110 O 194.205 5.98919 0.598284 0
M  V30 2111 H 198.031 2.95251 -0.711386 0
M  V30 2112 H 195.616 1.43564 -0.413502 0
M  V30 2113 H 197.498 3.92183 1.54176 0
M  V30 2114 H 196.173 2.73987 1.72374 0
M  V30 2115 H 195.08 3.72215 -0.375101 0
M  V30 2116 H 196.413 4.89913 -0.473924 0
M  V30 2117 N 198.065 0.39524 1.52563 0
M  V30 2118 C 198.975 -0.444232 2.30356 0
M  V30 2119 C 199.991 -1.06615 1.37511 0
M  V30 2120 O 201.167 -1.07067 1.70583 0
M  V30 2121 C 198.232 -1.55315 3.09964 0
M  V30 2122 C 197.293 -0.955734 4.18526 0
M  V30 2123 C 196.526 -2.01181 4.9433 0
M  V30 2124 O 196.749 -3.22781 4.70285 0
M  V30 2125 O 195.683 -1.62579 5.79527 0
M  V30 2126 H 199.509 0.189667 3.03107 0
M  V30 2127 H 197.094 0.1588 1.48554 0
M  V30 2128 H 198.976 -2.19724 3.59582 0
M  V30 2129 H 197.651 -2.17191 2.4002 0
M  V30 2130 H 196.558 -0.274743 3.7309 0
M  V30 2131 H 197.891 -0.381109 4.90722 0
M  V30 2132 N 199.544 -1.57102 0.125237 0
M  V30 2133 C 200.494 -2.12202 -0.833936 0
M  V30 2134 C 201.478 -1.04433 -1.22403 0
M  V30 2135 O 202.67 -1.30655 -1.19408 0
M  V30 2136 C 199.799 -2.72994 -2.08157 0
M  V30 2137 C 198.885 -3.87852 -1.71556 0
M  V30 2138 N 199.276 -4.9464 -1.05662 0
M  V30 2139 C 197.574 -3.98153 -2.00973 0
M  V30 2140 C 198.275 -5.74953 -0.883376 0
M  V30 2141 N 197.251 -5.24985 -1.41036 0
M  V30 2142 H 201.053 -2.92141 -0.321035 0
M  V30 2143 H 198.567 -1.62217 -0.0770315 0
M  V30 2144 H 200.564 -3.10816 -2.77847 0
M  V30 2145 H 199.224 -1.9452 -2.59985 0
M  V30 2146 H 200.235 -5.12872 -0.719878 0
M  V30 2147 H 196.912 -3.30728 -2.54804 0
M  V30 2148 H 198.302 -6.70904 -0.365675 0
M  V30 2149 N 201.022 0.148545 -1.56898 0
M  V30 2150 C 202.269 0.861418 -1.83264 0
M  V30 2151 C 202.597 1.81239 -0.705883 0
M  V30 2152 O 201.852 1.93305 0.305212 0
M  V30 2153 C 202.151 1.67064 -3.1595 0
M  V30 2154 C 201.817 0.866591 -4.42494 0
M  V30 2155 C 200.479 0.644762 -4.76861 0
M  V30 2156 C 202.831 0.30418 -5.20312 0
M  V30 2157 C 200.159 -0.15021 -5.86508 0
M  V30 2158 C 202.511 -0.477824 -6.30793 0
M  V30 2159 C 201.175 -0.710244 -6.63711 0
M  V30 2160 H 200.445 0.315215 -0.670612 0
M  V30 2161 H 203.092 0.125142 -1.91091 0
M  V30 2162 H 201.397 2.47698 -3.03567 0
M  V30 2163 H 203.094 2.22566 -3.33565 0
M  V30 2164 H 199.684 1.04955 -4.15551 0
M  V30 2165 H 203.868 0.462844 -4.94137 0
M  V30 2166 H 199.124 -0.339796 -6.10455 0
M  V30 2167 H 203.298 -0.92076 -6.90286 0
M  V30 2168 H 200.925 -1.3281 -7.48509 0
M  V30 2169 N 202.5 1.5196 0.417844 0
M  V30 2170 C 203.748 1.65263 1.16329 0
M  V30 2171 C 204.069 0.380634 1.91249 0
M  V30 2172 O 203.339 -0.604214 1.86349 0
M  V30 2173 H 201.919 0.60912 0.432414 0
M  V30 2174 H 204.581 1.88969 0.477162 0
M  V30 2175 H 203.677 2.4896 1.88217 0
M  V30 2176 N 203.978 -0.674533 1.42435 0
M  V30 2177 C 204.926 -1.80934 1.46169 0
M  V30 2178 C 205.92 -1.66006 0.3374 0
M  V30 2179 O 207.126 -1.72611 0.510425 0
M  V30 2180 H 203.501 -0.596594 0.457798 0
M  V30 2181 H 205.472 -1.74903 2.41767 0
M  V30 2182 C 204.221 -3.19088 1.38123 0
M  V30 2183 H 203.544 -3.31203 2.23931 0
M  V30 2184 H 204.984 -3.9851 1.44797 0
M  V30 2185 C 203.443 -3.36763 0.0960517 0
M  V30 2186 O 203.973 -3.92581 -0.851073 0
M  V30 2187 N 202.179 -2.90597 0.0131186 0
M  V30 2188 H 201.726 -2.45359 0.784639 0
M  V30 2189 H 201.684 -3.028 -0.846133 0
M  V30 2190 N 205.456 -1.28612 -0.910864 0
M  V30 2191 C 206.702 -1.17116 -1.66299 0
M  V30 2192 C 207.057 0.276917 -1.90397 0
M  V30 2193 O 206.35 1.19795 -1.49532 0
M  V30 2194 C 206.544 -1.90624 -3.0232 0
M  V30 2195 C 206.373 -3.42431 -2.91498 0
M  V30 2196 C 205.143 -4.11773 -2.92867 0
M  V30 2197 C 207.341 -4.38124 -2.69355 0
M  V30 2198 N 205.323 -5.50025 -2.72664 0
M  V30 2199 C 206.694 -5.63759 -2.58023 0
M  V30 2200 C 208.749 -4.28016 -2.54375 0
M  V30 2201 C 207.452 -6.80436 -2.33238 0
M  V30 2202 C 209.478 -5.44433 -2.30969 0
M  V30 2203 C 208.84 -6.69034 -2.20394 0
M  V30 2204 H 204.939 -0.483506 -0.61461 0
M  V30 2205 H 207.523 -1.62299 -1.0755 0
M  V30 2206 H 205.694 -1.4787 -3.5915 0
M  V30 2207 H 207.426 -1.71488 -3.66571 0
M  V30 2208 H 204.181 -3.63378 -3.03732 0
M  V30 2209 H 204.605 -6.22705 -2.65646 0
M  V30 2210 H 209.247 -3.32388 -2.613 0
M  V30 2211 H 206.965 -7.7613 -2.25051 0
M  V30 2212 H 210.551 -5.38504 -2.20238 0
M  V30 2213 H 209.431 -7.57595 -2.02531 0
M  V30 2214 N 206.934 1.1197 -1.10907 0
M  V30 2215 C 208.162 1.87402 -0.876824 0
M  V30 2216 C 208.577 1.79894 0.573025 0
M  V30 2217 O 207.934 1.17629 1.39534 0
M  V30 2218 C 207.985 3.36428 -1.32282 0
M  V30 2219 O 207.706 3.43765 -2.71582 0
M  V30 2220 C 209.207 4.28783 -1.12518 0
M  V30 2221 H 206.427 0.592793 -0.314384 0
M  V30 2222 H 208.971 1.41649 -1.47499 0
M  V30 2223 H 207.126 3.79706 -0.768229 0
M  V30 2224 H 207.54 4.3652 -2.90776 0
M  V30 2225 H 209.014 5.31613 -1.48633 0
M  V30 2226 H 209.491 4.39153 -0.0642394 0
M  V30 2227 H 210.097 3.91291 -1.66648 0
M  V30 2228 N 208.412 0.89855 1.29475 0
M  V30 2229 C 209.64 0.539261 1.99749 0
M  V30 2230 C 210.055 -0.875716 1.67262 0
M  V30 2231 O 209.412 -1.57786 0.917049 0
M  V30 2232 C 209.463 0.72061 3.54245 0
M  V30 2233 O 209.184 2.07989 3.8558 0
M  V30 2234 C 210.685 0.366118 4.41786 0
M  V30 2235 H 207.905 0.207047 0.638258 0
M  V30 2236 H 210.449 1.20758 1.65039 0
M  V30 2237 H 208.604 0.0994862 3.87272 0
M  V30 2238 H 209.018 2.10841 4.80257 0
M  V30 2239 H 210.492 0.543848 5.49314 0
M  V30 2240 H 210.969 -0.696763 4.33638 0
M  V30 2241 H 211.575 0.964135 4.14228 0
M  V30 2242 N 209.89 -1.43072 0.660911 0
M  V30 2243 C 211.137 -2.01721 0.177445 0
M  V30 2244 C 211.465 -1.5218 -1.21126 0
M  V30 2245 O 210.72 -0.708659 -1.82419 0
M  V30 2246 C 211.019 -3.57103 0.145563 0
M  V30 2247 C 210.685 -4.26021 1.47705 0
M  V30 2248 C 209.347 -4.44563 1.84165 0
M  V30 2249 C 211.699 -4.64983 2.35458 0
M  V30 2250 C 209.027 -4.99334 3.0803 0
M  V30 2251 C 211.379 -5.21127 3.58622 0
M  V30 2252 C 210.043 -5.37884 3.95268 0
M  V30 2253 H 209.313 -0.73815 0.0649317 0
M  V30 2254 H 211.96 -1.71446 0.853144 0
M  V30 2255 H 210.265 -3.86965 -0.61361 0
M  V30 2256 H 211.962 -4.00248 -0.2455 0
M  V30 2257 H 208.552 -4.11939 1.18339 0
M  V30 2258 H 212.736 -4.50343 2.08579 0
M  V30 2259 H 207.992 -5.10493 3.36462 0
M  V30 2260 H 212.166 -5.50262 4.26831 0
M  V30 2261 H 209.793 -5.80089 4.91325 0
M  V30 2262 N 211.368 -0.403325 -1.52352 0
M  V30 2263 C 212.645 0.232611 -1.94212 0
M  V30 2264 C 213.025 1.63133 -1.33981 0
M  V30 2265 O 212.373 2.22659 -0.513344 0
M  V30 2266 C 212.583 0.244811 -3.4814 0
M  V30 2267 C 213.931 0.46698 -4.22024 0
M  V30 2268 O 214.955 0.324419 -3.5472 0
M  V30 2269 O 213.814 0.74747 -5.41364 0
M  V30 2270 H 210.908 0.148223 -0.813609 0
M  V30 2271 H 213.454 -0.458848 -1.63379 0
M  V30 2272 H 212.226 -0.734378 -3.84347 0
M  V30 2273 H 211.849 0.980611 -3.85318 0
M  V30 2274 N 212.846 1.57033 -0.133567 0
M  V30 2275 C 214.074 2.00044 0.528195 0
M  V30 2276 C 214.489 1.01349 1.59291 0
M  V30 2277 O 213.846 0.00848369 1.82498 0
M  V30 2278 C 213.897 3.43018 1.1411 0
M  V30 2279 O 213.618 4.37939 0.11892 0
M  V30 2280 C 215.119 4.01237 1.88477 0
M  V30 2281 H 212.339 0.656517 0.138661 0
M  V30 2282 H 214.883 2.03267 -0.224196 0
M  V30 2283 H 213.038 3.40688 1.84418 0
M  V30 2284 H 213.452 5.21436 0.56613 0
M  V30 2285 H 214.926 5.03314 2.26669 0
M  V30 2286 H 215.403 3.41193 2.76558 0
M  V30 2287 H 216.009 4.07156 1.22898 0
M  V30 2288 N 214.325 -0.140222 1.56975 0
M  V30 2289 C 215.255 -1.17456 2.01808 0
M  V30 2290 C 216.236 -1.44415 0.898794 0
M  V30 2291 O 217.421 -1.5522 1.16707 0
M  V30 2292 C 214.551 -2.50607 2.40444 0
M  V30 2293 C 213.505 -2.38155 3.55621 0
M  V30 2294 C 212.831 -3.76078 3.80091 0
M  V30 2295 C 214.131 -1.85991 4.88062 0
M  V30 2296 H 215.825 -0.801743 2.88466 0
M  V30 2297 H 213.371 -0.38422 1.38779 0
M  V30 2298 H 215.324 -3.23197 2.7041 0
M  V30 2299 H 214.048 -2.89737 1.50732 0
M  V30 2300 H 212.707 -1.68016 3.25832 0
M  V30 2301 H 212.355 -4.12656 2.87618 0
M  V30 2302 H 212.055 -3.68606 4.57606 0
M  V30 2303 H 213.579 -4.50206 4.12488 0
M  V30 2304 H 214.993 -2.4838 5.16701 0
M  V30 2305 H 213.39 -1.89393 5.6943 0
M  V30 2306 H 214.46 -0.816023 4.77984 0
M  V30 2307 N 215.803 -1.52179 -0.40978 0
M  V30 2308 C 217.049 -1.66453 -1.15851 0
M  V30 2309 C 217.382 -0.392972 -1.90182 0
M  V30 2310 O 216.657 0.608579 -1.84734 0
M  V30 2311 C 216.94 -2.88612 -2.15349 0
M  V30 2312 C 216.793 -4.25815 -1.44918 0
M  V30 2313 C 218.112 -3.06294 -3.16026 0
M  V30 2314 H 215.231 -0.60575 -0.419805 0
M  V30 2315 H 217.873 -1.84732 -0.444314 0
M  V30 2316 H 216.023 -2.73158 -2.76255 0
M  V30 2317 H 217.695 -4.52995 -0.871365 0
M  V30 2318 H 215.938 -4.27247 -0.751159 0
M  V30 2319 H 216.609 -5.07337 -2.17516 0
M  V30 2320 H 219.085 -3.20641 -2.65195 0
M  V30 2321 H 217.961 -3.93283 -3.8291 0
M  V30 2322 H 218.222 -2.19579 -3.83715 0
M  V30 2323 N 217.281 0.66697 -1.42791 0
M  V30 2324 C 218.229 1.80157 -1.47127 0
M  V30 2325 C 219.223 1.65825 -0.346199 0
M  V30 2326 O 220.429 1.72338 -0.519572 0
M  V30 2327 H 216.804 0.594158 -0.460956 0
M  V30 2328 H 218.775 1.73619 -2.42692 0
M  V30 2329 C 217.524 3.18351 -1.39813 0
M  V30 2330 H 216.847 3.3001 -2.25684 0
M  V30 2331 H 218.287 3.97736 -1.46908 0
M  V30 2332 C 216.746 3.36707 -0.11391 0
M  V30 2333 O 217.276 3.93027 0.830241 0
M  V30 2334 N 215.482 2.90586 -0.0285295 0
M  V30 2335 H 215.029 2.4494 -0.79764 0
M  V30 2336 H 214.987 3.03245 0.830063 0
M  V30 2337 N 218.759 1.29093 0.90403 0
M  V30 2338 C 220.036 1.075 1.63411 0
M  V30 2339 C 220.416 -0.382346 2.07609 0
M  V30 2340 O 219.764 -1.37031 1.82851 0
M  V30 2341 C 219.974 2.05858 2.81822 0
M  V30 2342 C 221.322 2.36539 3.52611 0
M  V30 2343 O 222.346 2.04019 2.91984 0
M  V30 2344 O 221.205 2.92085 4.61897 0
M  V30 2345 H 218.299 0.411547 0.717327 0
M  V30 2346 H 220.845 1.40449 0.952479 0
M  V30 2347 H 219.617 3.04037 2.46327 0
M  V30 2348 H 219.24 1.73613 3.57693 0
M  V30 2349 N 220.237 -1.11381 1.11499 0
M  V30 2350 C 221.2 -2.15622 0.777153 0
M  V30 2351 C 222.2 -1.59504 -0.203779 0
M  V30 2352 O 223.39 -1.74188 0.020782 0
M  V30 2353 C 220.522 -3.40556 0.153116 0
M  V30 2354 H 221.715 -2.47021 1.70061 0
M  V30 2355 H 219.268 -1.26577 0.916952 0
M  V30 2356 H 220.003 -3.14767 -0.780536 0
M  V30 2357 H 219.788 -3.8257 0.859238 0
M  V30 2358 H 221.278 -4.17546 -0.0671044 0
M  V30 2359 N 221.715 -0.905404 -1.28997 0
M  V30 2360 C 222.665 -0.358713 -2.25161 0
M  V30 2361 C 223.649 0.524449 -1.52113 0
M  V30 2362 O 224.841 0.365534 -1.73184 0
M  V30 2363 C 221.97 0.407609 -3.40872 0
M  V30 2364 C 221.056 -0.490797 -4.21251 0
M  V30 2365 N 221.447 -1.60061 -4.79806 0
M  V30 2366 C 219.745 -0.289636 -4.45059 0
M  V30 2367 C 220.446 -2.15757 -5.40207 0
M  V30 2368 N 219.422 -1.44988 -5.23908 0
M  V30 2369 H 223.224 -1.20642 -2.67998 0
M  V30 2370 H 220.738 -0.757103 -1.43672 0
M  V30 2371 H 222.735 0.816046 -4.08835 0
M  V30 2372 H 221.395 1.25251 -2.9957 0
M  V30 2373 H 222.406 -1.98329 -4.7842 0
M  V30 2374 H 219.083 0.51643 -4.14294 0
M  V30 2375 H 220.473 -3.09069 -5.96595 0
M  V30 2376 N 223.193 1.4272 -0.668489 0
M  V30 2377 C 224.125 2.2914 0.052613 0
M  V30 2378 C 225.138 1.43339 0.771857 0
M  V30 2379 O 226.327 1.67123 0.627067 0
M  V30 2380 C 223.427 3.20618 1.09804 0
M  V30 2381 C 222.6 4.35039 0.45389 0
M  V30 2382 C 221.659 5.07282 1.39825 0
M  V30 2383 O 220.685 5.62024 0.900978 0
M  V30 2384 N 221.887 5.12206 2.73176 0
M  V30 2385 H 224.652 2.91668 -0.689209 0
M  V30 2386 H 222.213 1.53577 -0.512422 0
M  V30 2387 H 224.205 3.65815 1.73094 0
M  V30 2388 H 222.775 2.59585 1.74167 0
M  V30 2389 H 221.995 3.92567 -0.358396 0
M  V30 2390 H 223.283 5.088 0.00486972 0
M  V30 2391 H 222.681 4.6913 3.16122 0
M  V30 2392 H 221.238 5.61069 3.31729 0
M  V30 2393 N 224.671 0.411399 1.52136 0
M  V30 2394 C 225.619 -0.427633 2.28635 0
M  V30 2395 C 226.613 -1.04383 1.33419 0
M  V30 2396 O 227.819 -0.981772 1.50868 0
M  V30 2397 H 224.194 -0.156689 0.735495 0
M  V30 2398 H 226.165 0.238761 2.97443 0
M  V30 2399 C 224.914 -1.53082 3.12188 0
M  V30 2400 H 224.237 -1.06601 3.85326 0
M  V30 2401 H 225.677 -2.09167 3.68816 0
M  V30 2402 C 224.136 -2.49946 2.25895 0
M  V30 2403 O 224.666 -3.53884 1.90076 0
M  V30 2404 N 222.872 -2.2021 1.8962 0
M  V30 2405 H 222.419 -1.35719 2.18948 0
M  V30 2406 H 222.377 -2.85266 1.32176 0
M  V30 2407 N 226.149 -1.5696 0.141893 0
M  V30 2408 C 227.397 -1.95573 -0.509484 0
M  V30 2409 C 227.718 -1.02746 -1.65736 0
M  V30 2410 O 226.988 -0.0880311 -1.95702 0
M  V30 2411 H 225.568 -0.722115 -0.191205 0
M  V30 2412 H 228.23 -1.93697 0.216196 0
M  V30 2413 H 227.326 -2.99171 -0.889 0
M  V30 2414 N 227.627 0.131896 -1.57047 0
M  V30 2415 C 228.876 0.84044 -1.83356 0
M  V30 2416 C 229.189 1.81646 -0.725535 0
M  V30 2417 O 230.395 2.57025 -0.874659 0
M  V30 2418 C 228.851 1.54528 -3.25037 0
M  V30 2419 C 228.459 0.610902 -4.43815 0
M  V30 2420 C 230.203 2.23972 -3.60606 0
M  V30 2421 C 228.11 1.31823 -5.76521 0
M  V30 2422 H 227.04 0.317599 -0.683847 0
M  V30 2423 H 229.691 0.0931561 -1.83263 0
M  V30 2424 H 228.073 2.33873 -3.19561 0
M  V30 2425 H 229.247 -0.148407 -4.60561 0
M  V30 2426 H 227.562 0.0241016 -4.16393 0
M  V30 2427 H 230.159 2.77558 -4.57018 0
M  V30 2428 H 230.502 3.01173 -2.87403 0
M  V30 2429 H 231.035 1.51529 -3.6781 0
M  V30 2430 H 227.774 0.587771 -6.52859 0
M  V30 2431 H 227.294 2.04987 -5.63685 0
M  V30 2432 H 228.973 1.855 -6.19838 0
M  V30 2433 N 229.106 1.52395 0.401703 0
M  V30 2434 C 230.053 1.76268 1.48991 0
M  V30 2435 C 231.023 0.605386 1.54675 0
M  V30 2436 O 232.208 0.843742 1.7113 0
M  V30 2437 C 229.348 1.92592 2.86361 0
M  V30 2438 C 228.461 3.20259 2.89928 0
M  V30 2439 C 227.596 3.26972 4.18644 0
M  V30 2440 C 226.635 4.48812 4.16214 0
M  V30 2441 N 225.772 4.52877 5.36514 0
M  V30 2442 H 230.612 2.6914 1.27935 0
M  V30 2443 H 228.149 1.33355 0.620871 0
M  V30 2444 H 230.107 2.0004 3.66115 0
M  V30 2445 H 228.737 1.03093 3.05895 0
M  V30 2446 H 227.789 3.21945 2.02621 0
M  V30 2447 H 229.101 4.10056 2.83999 0
M  V30 2448 H 228.255 3.33533 5.06794 0
M  V30 2449 H 226.994 2.35126 4.27278 0
M  V30 2450 H 225.999 4.4239 3.26453 0
M  V30 2451 H 227.224 5.41961 4.09213 0
M  V30 2452 H 225.17 3.63917 5.45802 0
M  V30 2453 H 225.087 5.36529 5.32609 0
M  V30 2454 H 226.355 4.63676 6.26597 0
M  V30 2455 N 230.584 -0.659388 1.43143 0
M  V30 2456 C 231.83 -1.42145 1.44647 0
M  V30 2457 C 232.163 -1.9408 0.0681907 0
M  V30 2458 O 231.438 -1.71899 -0.910007 0
M  V30 2459 C 231.721 -2.60735 2.48373 0
M  V30 2460 C 231.574 -2.14332 3.95451 0
M  V30 2461 C 232.893 -3.62951 2.48906 0
M  V30 2462 H 230.012 -0.51552 0.526696 0
M  V30 2463 H 232.654 -0.748069 1.74654 0
M  V30 2464 H 230.804 -3.18184 2.22916 0
M  V30 2465 H 232.476 -1.61932 4.31944 0
M  V30 2466 H 230.719 -1.4576 4.08578 0
M  V30 2467 H 231.39 -2.99583 4.63631 0
M  V30 2468 H 233.866 -3.1525 2.71582 0
M  V30 2469 H 232.742 -4.43487 3.23435 0
M  V30 2470 H 233.003 -4.15126 1.52061 0
M  V30 2471 N 232.062 -1.29571 -0.897171 0
M  V30 2472 C 233.311 -1.1706 -1.64256 0
M  V30 2473 C 233.624 0.276476 -1.93636 0
M  V30 2474 O 234.83 0.52294 -2.66416 0
M  V30 2475 C 233.286 -2.0475 -2.95982 0
M  V30 2476 C 232.894 -3.54295 -2.74187 0
M  V30 2477 C 234.638 -2.0097 -3.73914 0
M  V30 2478 C 232.545 -4.34081 -4.01656 0
M  V30 2479 H 231.475 -0.43452 -0.616205 0
M  V30 2480 H 234.126 -1.54229 -0.994268 0
M  V30 2481 H 232.508 -1.60452 -3.62038 0
M  V30 2482 H 233.682 -4.06662 -2.1671 0
M  V30 2483 H 231.997 -3.59773 -2.09648 0
M  V30 2484 H 234.594 -2.57838 -4.68427 0
M  V30 2485 H 234.937 -0.990273 -4.0435 0
M  V30 2486 H 235.47 -2.43325 -3.14703 0
M  V30 2487 H 232.209 -5.36671 -3.76384 0
M  V30 2488 H 231.729 -3.86483 -4.58684 0
M  V30 2489 H 233.408 -4.44877 -4.69781 0
M  V30 2490 N 233.54 1.10788 -1.12088 0
M  V30 2491 C 234.786 1.82942 -0.875226 0
M  V30 2492 C 235.119 1.84779 0.597538 0
M  V30 2493 O 234.394 1.30578 1.44152 0
M  V30 2494 C 234.677 3.29789 -1.44606 0
M  V30 2495 C 234.53 3.36307 -2.98693 0
M  V30 2496 C 235.849 4.26064 -1.10261 0
M  V30 2497 H 232.968 0.664195 -0.319397 0
M  V30 2498 H 235.61 1.29867 -1.38689 0
M  V30 2499 H 233.76 3.75118 -1.01089 0
M  V30 2500 H 235.432 2.99487 -3.50864 0
M  V30 2501 H 233.675 2.76318 -3.34411 0
M  V30 2502 H 234.346 4.39694 -3.33726 0
M  V30 2503 H 236.822 3.88951 -1.4784 0
M  V30 2504 H 235.698 5.27183 -1.52869 0
M  V30 2505 H 235.959 4.42098 -0.0142953 0
M  V30 2506 N 235.018 0.912232 1.28515 0
M  V30 2507 C 236.295 0.463597 1.90027 0
M  V30 2508 C 236.675 -1.05753 1.82701 0
M  V30 2509 O 236.023 -1.90492 1.26194 0
M  V30 2510 C 236.233 0.992253 3.34597 0
M  V30 2511 C 237.581 1.04344 4.11579 0
M  V30 2512 O 238.605 0.94079 3.43551 0
M  V30 2513 O 237.464 1.1995 5.33174 0
M  V30 2514 H 234.558 0.146666 0.813891 0
M  V30 2515 H 237.104 1.00292 1.36893 0
M  V30 2516 H 235.876 2.03623 3.34146 0
M  V30 2517 H 235.499 0.433672 3.95228 0
M  V30 2518 N 236.496 -1.42363 0.676048 0
M  V30 2519 C 237.743 -2.01522 0.19883 0
M  V30 2520 C 238.071 -1.53456 -1.19505 0
M  V30 2521 O 237.326 -0.727967 -1.81657 0
M  V30 2522 C 237.625 -3.56929 0.183431 0
M  V30 2523 C 237.291 -4.24431 1.52215 0
M  V30 2524 C 235.953 -4.42585 1.8887 0
M  V30 2525 C 238.305 -4.62459 2.40377 0
M  V30 2526 C 235.633 -4.96039 3.13309 0
M  V30 2527 C 237.985 -5.17294 3.64129 0
M  V30 2528 C 236.649 -5.33661 4.00951 0
M  V30 2529 H 235.919 -0.737419 0.0727571 0
M  V30 2530 H 238.566 -1.70531 0.871281 0
M  V30 2531 H 236.871 -3.87594 -0.572532 0
M  V30 2532 H 238.568 -4.00486 -0.203035 0
M  V30 2533 H 235.158 -4.10661 1.22701 0
M  V30 2534 H 239.342 -4.48105 2.13343 0
M  V30 2535 H 234.598 -5.06896 3.41857 0
M  V30 2536 H 238.772 -5.45704 4.32644 0
M  V30 2537 H 236.399 -5.74845 4.9745 0
M  V30 2538 N 237.974 -0.419461 -1.51915 0
M  V30 2539 C 239.22 0.153166 -2.02221 0
M  V30 2540 C 239.553 1.43907 -1.30401 0
M  V30 2541 O 238.828 1.90055 -0.413438 0
M  V30 2542 C 239.111 0.390291 -3.57979 0
M  V30 2543 C 238.964 -0.913014 -4.40436 0
M  V30 2544 C 240.283 1.16794 -4.2432 0
M  V30 2545 H 237.402 0.0541924 -0.735005 0
M  V30 2546 H 240.044 -0.554955 -1.81715 0
M  V30 2547 H 238.194 0.993491 -3.75582 0
M  V30 2548 H 239.866 -1.54882 -4.34522 0
M  V30 2549 H 238.109 -1.52168 -4.06236 0
M  V30 2550 H 238.78 -0.701361 -5.47526 0
M  V30 2551 H 241.256 0.657161 -4.10878 0
M  V30 2552 H 240.132 1.3026 -5.3322 0
M  V30 2553 H 240.393 2.19132 -3.83971 0
M  V30 2554 N 239.452 1.56882 -0.150215 0
M  V30 2555 C 240.863 1.82995 0.370076 0
M  V30 2556 C 241.214 1.06907 1.64515 0
M  V30 2557 O 240.339 0.315369 2.1409 0
M  V30 2558 C 240.934 3.31942 0.678208 0
M  V30 2559 C 239.493 3.58625 1.14301 0
M  V30 2560 C 238.64 2.76792 0.167778 0
M  V30 2561 H 241.591 1.54209 -0.374858 0
M  V30 2562 H 241.612 3.48272 1.53254 0
M  V30 2563 H 241.124 3.87294 -0.249991 0
M  V30 2564 H 239.225 3.08664 2.08704 0
M  V30 2565 H 239.338 4.67073 1.06676 0
M  V30 2566 H 237.702 2.45972 0.661037 0
M  V30 2567 H 238.485 3.34916 -0.754069 0
M  V30 2568 N 240.93 -0.123565 1.57115 0
M  V30 2569 C 241.878 -1.17082 2.00984 0
M  V30 2570 C 242.872 -1.43136 0.906009 0
M  V30 2571 O 244.078 -1.43152 1.09121 0
M  V30 2572 H 240.453 -0.394653 0.64012 0
M  V30 2573 H 242.424 -0.774292 2.88179 0
M  V30 2574 C 241.173 -2.49057 2.42623 0
M  V30 2575 H 240.496 -2.29846 3.27125 0
M  V30 2576 H 241.936 -3.20906 2.7712 0
M  V30 2577 C 240.395 -3.11305 1.28805 0
M  V30 2578 O 240.925 -3.97171 0.60153 0
M  V30 2579 N 239.131 -2.71111 1.04628 0
M  V30 2580 H 238.678 -2.01382 1.60634 0
M  V30 2581 H 238.636 -3.1309 0.286685 0
M  V30 2582 N 242.408 -1.52605 -0.393616 0
M  V30 2583 C 243.358 -1.73436 -1.48 0
M  V30 2584 C 244.342 -0.588386 -1.49756 0
M  V30 2585 O 245.534 -0.846047 -1.5547 0
M  V30 2586 C 242.663 -1.90247 -2.85764 0
M  V30 2587 C 241.749 -3.10763 -2.88595 0
M  V30 2588 N 242.14 -4.33196 -2.61103 0
M  V30 2589 C 240.438 -3.10914 -3.19763 0
M  V30 2590 C 241.139 -5.1477 -2.70899 0
M  V30 2591 N 240.115 -4.50356 -3.04435 0
M  V30 2592 H 243.917 -2.65727 -1.25563 0
M  V30 2593 H 241.431 -1.5085 -0.601513 0
M  V30 2594 H 243.428 -2.03291 -3.63976 0
M  V30 2595 H 242.088 -0.991663 -3.09186 0
M  V30 2596 H 243.099 -4.61408 -2.35209 0
M  V30 2597 H 239.776 -2.29626 -3.4868 0
M  V30 2598 H 241.166 -6.22355 -2.53227 0
M  V30 2599 N 243.887 0.651787 -1.4349 0
M  V30 2600 C 245.112 1.44434 -1.48841 0
M  V30 2601 C 245.537 1.8779 -0.107955 0
M  V30 2602 O 244.895 1.57464 0.898602 0
M  V30 2603 C 244.943 2.65458 -2.44059 0
M  V30 2604 O 244.047 3.64566 -1.92784 0
M  V30 2605 H 243.388 0.433005 -0.503391 0
M  V30 2606 H 245.918 0.797451 -1.88419 0
M  V30 2607 H 245.928 3.13255 -2.6141 0
M  V30 2608 H 244.603 2.33244 -3.4434 0
M  V30 2609 H 243.18 3.23716 -1.851 0
M  V30 2610 N 245.365 1.30045 0.890287 0
M  V30 2611 C 246.593 1.21472 1.67487 0
M  V30 2612 C 247.008 -0.223241 1.87476 0
M  V30 2613 O 246.365 -1.14828 1.41847 0
M  V30 2614 C 246.416 1.93394 3.05419 0
M  V30 2615 O 246.137 3.31576 2.86337 0
M  V30 2616 C 247.638 1.91414 3.99844 0
M  V30 2617 H 244.858 0.420604 0.522813 0
M  V30 2618 H 247.402 1.7158 1.11268 0
M  V30 2619 H 245.557 1.47099 3.58386 0
M  V30 2620 H 245.971 3.67929 3.73802 0
M  V30 2621 H 247.445 2.46285 4.94012 0
M  V30 2622 H 247.922 0.891833 4.3005 0
M  V30 2623 H 248.528 2.37496 3.52811 0
M  V30 2624 N 246.843 -1.10192 1.12674 0
M  V30 2625 C 248.254 -1.63707 0.897604 0
M  V30 2626 C 248.605 -1.87812 -0.567546 0
M  V30 2627 O 247.73 -1.62196 -1.43253 0
M  V30 2628 C 248.325 -2.974 1.62292 0
M  V30 2629 C 246.884 -3.47772 1.43986 0
M  V30 2630 C 246.031 -2.22332 1.65722 0
M  V30 2631 H 248.982 -0.936587 1.28116 0
M  V30 2632 H 249.003 -3.64986 1.07541 0
M  V30 2633 H 248.515 -2.79824 2.68924 0
M  V30 2634 H 246.616 -3.70487 0.396206 0
M  V30 2635 H 246.729 -4.25723 2.19765 0
M  V30 2636 H 245.093 -2.30599 1.08149 0
M  V30 2637 H 245.876 -2.07285 2.73657 0
M  V30 2638 N 248.321 -0.919034 -1.28029 0
M  V30 2639 C 249.568 -0.554934 -1.94748 0
M  V30 2640 C 249.896 0.90231 -1.72304 0
M  V30 2641 O 249.151 1.65767 -1.04018 0
M  V30 2642 C 249.45 -0.816855 -3.4794 0
M  V30 2643 C 249.116 -2.25448 -3.90492 0
M  V30 2644 C 247.778 -2.64752 -4.01821 0
M  V30 2645 C 250.13 -3.18977 -4.12193 0
M  V30 2646 C 247.458 -3.96727 -4.32232 0
M  V30 2647 C 249.81 -4.50523 -4.44086 0
M  V30 2648 C 248.474 -4.89673 -4.53626 0
M  V30 2649 H 247.744 -0.203065 -0.712633 0
M  V30 2650 H 250.391 -1.16136 -1.52265 0
M  V30 2651 H 248.696 -0.127677 -3.91592 0
M  V30 2652 H 250.393 -0.514238 -3.97689 0
M  V30 2653 H 246.983 -1.93952 -3.82205 0
M  V30 2654 H 251.167 -2.89817 -4.02889 0
M  V30 2655 H 246.423 -4.26754 -4.37825 0
M  V30 2656 H 250.597 -5.23005 -4.59825 0
M  V30 2657 H 248.224 -5.91969 -4.76946 0
M  V30 2658 N 249.799 1.42003 -0.683588 0
M  V30 2659 C 250.746 2.30798 -0.0107309 0
M  V30 2660 C 251.716 1.4645 0.783688 0
M  V30 2661 O 252.901 1.75263 0.754156 0
M  V30 2662 C 250.041 3.3238 0.928306 0
M  V30 2663 C 249.154 4.31814 0.126776 0
M  V30 2664 C 248.289 5.20468 1.06236 0
M  V30 2665 C 247.328 6.11577 0.253035 0
M  V30 2666 N 246.465 6.92754 1.14179 0
M  V30 2667 H 251.305 2.8778 -0.773727 0
M  V30 2668 H 248.842 1.41745 -0.393283 0
M  V30 2669 H 250.8 3.89813 1.48666 0
M  V30 2670 H 249.43 2.76976 1.65783 0
M  V30 2671 H 248.482 3.76427 -0.54833 0
M  V30 2672 H 249.794 4.96276 -0.501192 0
M  V30 2673 H 248.948 5.82677 1.69035 0
M  V30 2674 H 247.687 4.56204 1.7242 0
M  V30 2675 H 246.692 5.48428 -0.388108 0
M  V30 2676 H 247.917 6.77892 -0.404839 0
M  V30 2677 H 245.863 6.3111 1.78987 0
M  V30 2678 H 245.78 7.53855 0.569111 0
M  V30 2679 H 247.048 7.59441 1.75697 0
M  V30 2680 N 251.277 0.427512 1.51691 0
M  V30 2681 C 252.24 -0.377132 2.26076 0
M  V30 2682 C 253.24 -0.958089 1.29141 0
M  V30 2683 O 254.43 -0.83408 1.52934 0
M  V30 2684 C 251.562 -1.53262 3.04506 0
M  V30 2685 H 252.755 0.27464 2.9864 0
M  V30 2686 H 250.308 0.180445 1.55255 0
M  V30 2687 H 251.043 -2.22072 2.36335 0
M  V30 2688 H 250.828 -1.12232 3.75694 0
M  V30 2689 H 252.318 -2.10135 3.60878 0
M  V30 2690 N 252.755 -1.56801 0.158532 0
M  V30 2691 C 253.703 -2.18638 -0.793729 0
M  V30 2692 C 254.697 -1.14669 -1.24689 0
M  V30 2693 O 255.903 -1.32895 -1.21403 0
M  V30 2694 H 252.278 -0.700226 -0.274204 0
M  V30 2695 H 254.249 -2.97367 -0.248095 0
M  V30 2696 C 252.998 -2.83139 -2.0181 0
M  V30 2697 H 252.321 -3.62863 -1.67841 0
M  V30 2698 H 253.761 -3.29894 -2.66357 0
M  V30 2699 C 252.22 -1.82244 -2.83353 0
M  V30 2700 O 252.75 -1.3 -3.80083 0
M  V30 2701 N 250.956 -1.51288 -2.48114 0
M  V30 2702 H 250.503 -1.93964 -1.69516 0
M  V30 2703 H 250.461 -0.840296 -3.02963 0
M  V30 2704 N 254.233 0.115231 -1.57178 0
M  V30 2705 C 255.51 0.852873 -1.76027 0
M  V30 2706 C 255.89 1.97892 -0.73498 0
M  V30 2707 O 255.238 2.27232 0.24036 0
M  V30 2708 C 255.448 1.36608 -3.21153 0
M  V30 2709 C 256.796 1.81692 -3.83762 0
M  V30 2710 O 257.82 1.46278 -3.24779 0
M  V30 2711 O 256.679 2.47104 -4.87444 0
M  V30 2712 H 253.773 0.405296 -0.720877 0
M  V30 2713 H 256.319 0.0986785 -1.69413 0
M  V30 2714 H 255.091 0.558357 -3.87296 0
M  V30 2715 H 254.714 2.18287 -3.3232 0
M  V30 2716 N 255.711 1.52812 0.385517 0
M  V30 2717 C 256.936 1.72207 1.15583 0
M  V30 2718 C 257.361 0.441034 1.82857 0
M  V30 2719 O 256.719 -0.603465 1.70962 0
M  V30 2720 C 256.767 2.87476 2.17692 0
M  V30 2721 O 255.871 2.54693 3.24354 0
M  V30 2722 H 255.212 0.572526 0.336319 0
M  V30 2723 H 257.742 1.99618 0.448744 0
M  V30 2724 H 257.752 3.13072 2.6163 0
M  V30 2725 H 256.427 3.80408 1.68115 0
M  V30 2726 H 255.004 2.3985 2.85529 0
M  V30 2727 N 257.189 -0.644168 1.43834 0
M  V30 2728 C 258.417 -1.43147 1.49387 0
M  V30 2729 C 258.832 -1.88452 0.114583 0
M  V30 2730 O 258.189 -1.60047 -0.876989 0
M  V30 2731 C 258.24 -2.66046 2.44748 0
M  V30 2732 O 257.961 -2.22633 3.77314 0
M  V30 2733 C 259.462 -3.59311 2.59635 0
M  V30 2734 H 256.682 -0.439447 0.507077 0
M  V30 2735 H 259.226 -0.78895 1.88669 0
M  V30 2736 H 257.381 -3.26418 2.08638 0
M  V30 2737 H 257.795 -3.02216 4.28679 0
M  V30 2738 H 259.269 -4.42187 3.30416 0
M  V30 2739 H 259.746 -4.07259 1.64427 0
M  V30 2740 H 260.352 -3.04816 2.96593 0
M  V30 2741 N 258.668 -1.30515 -0.883378 0
M  V30 2742 C 259.915 -1.1943 -1.63532 0
M  V30 2743 C 260.243 0.250627 -1.92878 0
M  V30 2744 O 259.498 1.19556 -1.54935 0
M  V30 2745 C 259.797 -1.96994 -2.98209 0
M  V30 2746 C 259.463 -3.466 -2.88408 0
M  V30 2747 C 258.125 -3.87397 -2.85442 0
M  V30 2748 C 260.477 -4.41863 -2.76418 0
M  V30 2749 C 257.805 -5.21745 -2.68327 0
M  V30 2750 C 260.157 -5.7632 -2.60841 0
M  V30 2751 C 258.821 -6.16354 -2.56251 0
M  V30 2752 H 258.091 -0.437025 -0.598406 0
M  V30 2753 H 260.738 -1.61635 -1.02696 0
M  V30 2754 H 259.043 -1.47429 -3.63004 0
M  V30 2755 H 260.74 -1.85808 -3.55354 0
M  V30 2756 H 257.33 -3.14182 -2.91527 0
M  V30 2757 H 261.514 -4.11285 -2.77775 0
M  V30 2758 H 256.77 -5.51853 -2.63189 0
M  V30 2759 H 260.944 -6.49772 -2.50538 0
M  V30 2760 H 258.571 -7.20401 -2.42748 0
M  V30 2761 N 260.146 1.09593 -1.13257 0
M  V30 2762 C 261.109 2.14359 -0.811358 0
M  V30 2763 C 262.109 1.59808 0.178377 0
M  V30 2764 O 263.299 1.74132 -0.0484911 0
M  V30 2765 C 260.431 3.40269 -0.207276 0
M  V30 2766 H 261.624 2.44284 -1.73969 0
M  V30 2767 H 259.177 1.25102 -0.936973 0
M  V30 2768 H 259.912 3.15969 0.73036 0
M  V30 2769 H 259.697 3.81154 -0.919992 0
M  V30 2770 H 261.187 4.176 0.000667944 0
M  V30 2771 N 261.624 0.925811 1.2754 0
M  V30 2772 C 262.534 0.428993 2.30644 0
M  V30 2773 C 263.55 -0.489387 1.66976 0
M  V30 2774 O 264.726 -0.372653 1.97922 0
M  V30 2775 C 261.791 -0.311967 3.45294 0
M  V30 2776 C 260.852 0.641098 4.24486 0
M  V30 2777 C 260.085 -0.0645955 5.33661 0
M  V30 2778 O 260.308 -1.28429 5.55754 0
M  V30 2779 O 259.242 0.606265 5.98839 0
M  V30 2780 H 263.068 1.28504 2.75173 0
M  V30 2781 H 260.653 0.691086 1.32455 0
M  V30 2782 H 262.535 -0.729972 4.15029 0
M  V30 2783 H 261.21 -1.14365 3.02824 0
M  V30 2784 H 260.117 1.10874 3.57292 0
M  V30 2785 H 261.45 1.43995 4.70666 0
M  V30 2786 N 263.102 -1.41638 0.69111 0
M  V30 2787 C 264.35 -2.00902 0.219758 0
M  V30 2788 C 264.671 -1.54994 -1.18329 0
M  V30 2789 O 263.941 -0.778628 -1.79762 0
M  V30 2790 H 262.521 -0.74289 0.0782558 0
M  V30 2791 H 265.183 -1.73327 0.891271 0
M  V30 2792 H 264.279 -3.11224 0.233708 0
M  V30 2793 N 264.58 -0.43555 -1.51462 0
M  V30 2794 C 265.828 0.131254 -2.01673 0
M  V30 2795 C 266.149 1.43368 -1.32177 0
M  V30 2796 O 265.419 1.90524 -0.455769 0
M  V30 2797 H 263.999 0.0514954 -0.745223 0
M  V30 2798 H 266.661 -0.577847 -1.86137 0
M  V30 2799 H 265.757 0.308446 -3.10572 0
M  V30 2800 N 266.058 1.56714 -0.166846 0
M  V30 2801 C 267.021 2.16539 0.751232 0
M  V30 2802 C 268.021 1.11228 1.16125 0
M  V30 2803 O 269.211 1.36765 1.07894 0
M  V30 2804 C 266.343 2.74462 2.02196 0
M  V30 2805 H 267.536 2.99013 0.230499 0
M  V30 2806 H 265.089 1.56081 0.0826982 0
M  V30 2807 H 265.824 1.95709 2.58589 0
M  V30 2808 H 265.609 3.51527 1.73698 0
M  V30 2809 H 267.099 3.20489 2.67725 0
M  V30 2810 N 267.536 -0.106894 1.57237 0
M  V30 2811 C 268.466 -1.13148 2.04254 0
M  V30 2812 C 269.447 -1.42476 0.929224 0
M  V30 2813 O 270.632 -1.52709 1.19973 0
M  V30 2814 C 267.762 -2.4545 2.45706 0
M  V30 2815 C 266.716 -2.30558 3.60592 0
M  V30 2816 C 266.042 -3.67931 3.87983 0
M  V30 2817 C 267.342 -1.75597 4.91897 0
M  V30 2818 H 269.036 -0.740374 2.90101 0
M  V30 2819 H 266.582 -0.354696 1.39563 0
M  V30 2820 H 268.535 -3.17389 2.77205 0
M  V30 2821 H 267.259 -2.86475 1.56843 0
M  V30 2822 H 265.918 -1.61067 3.29322 0
M  V30 2823 H 265.566 -4.06462 2.96306 0
M  V30 2824 H 265.266 -3.58817 4.65322 0
M  V30 2825 H 266.79 -4.41356 4.21945 0
M  V30 2826 H 268.204 -2.37364 5.21854 0
M  V30 2827 H 266.601 -1.77272 5.73319 0
M  V30 2828 H 267.671 -0.714451 4.79608 0
M  V30 2829 N 269.014 -1.53014 -0.377408 0
M  V30 2830 C 270.244 -1.72265 -1.14054 0
M  V30 2831 C 270.652 -0.44601 -1.83868 0
M  V30 2832 O 269.995 0.590095 -1.73964 0
M  V30 2833 C 270.057 -2.82492 -2.22348 0
M  V30 2834 C 269.721 -4.23233 -1.72402 0
M  V30 2835 C 270.718 -5.05992 -1.19448 0
M  V30 2836 C 268.403 -4.696 -1.78273 0
M  V30 2837 C 270.397 -6.33203 -0.730268 0
M  V30 2838 C 268.084 -5.96792 -1.31464 0
M  V30 2839 C 269.082 -6.78424 -0.789297 0
M  V30 2840 O 268.77 -8.0323 -0.328077 0
M  V30 2841 H 268.502 -0.579873 -0.347453 0
M  V30 2842 H 271.056 -2.00502 -0.445882 0
M  V30 2843 H 269.286 -2.49702 -2.95272 0
M  V30 2844 H 270.975 -2.90034 -2.83963 0
M  V30 2845 H 271.741 -4.71349 -1.14259 0
M  V30 2846 H 267.62 -4.06142 -2.18106 0
M  V30 2847 H 271.164 -6.96868 -0.319542 0
M  V30 2848 H 267.061 -6.30937 -1.36342 0
M  V30 2849 H 267.829 -8.1727 -0.448493 0
M  V30 2850 N 270.492 0.636531 -1.44174 0
M  V30 2851 C 271.44 1.76995 -1.50915 0
M  V30 2852 C 272.434 1.65053 -0.381295 0
M  V30 2853 O 273.64 1.71197 -0.55601 0
M  V30 2854 H 270.015 0.584247 -0.473455 0
M  V30 2855 H 271.986 1.68432 -2.4632 0
M  V30 2856 C 270.735 3.15314 -1.46534 0
M  V30 2857 H 270.058 3.25149 -2.32633 0
M  V30 2858 H 271.498 3.9453 -1.55312 0
M  V30 2859 C 269.957 3.3639 -0.185305 0
M  V30 2860 O 270.487 3.94699 0.746688 0
M  V30 2861 N 268.693 2.9046 -0.0901606 0
M  V30 2862 H 268.24 2.43193 -0.849416 0
M  V30 2863 H 268.198 3.04937 0.765553 0
M  V30 2864 N 271.97 1.30982 0.876444 0
M  V30 2865 C 272.918 1.18006 2.00443 0
M  V30 2866 C 273.912 0.0898871 1.69161 0
M  V30 2867 O 275.118 0.251333 1.78237 0
M  V30 2868 H 271.493 0.365196 0.65737 0
M  V30 2869 H 273.464 2.13453 2.0852 0
M  V30 2870 C 272.213 0.897521 3.35916 0
M  V30 2871 H 271.536 1.7285 3.60504 0
M  V30 2872 H 272.976 0.846874 4.15456 0
M  V30 2873 C 271.435 -0.399674 3.34521 0
M  V30 2874 O 271.965 -1.41852 3.7582 0
M  V30 2875 N 270.171 -0.413893 2.87637 0
M  V30 2876 H 269.718 0.41571 2.54224 0
M  V30 2877 H 269.676 -1.28175 2.87086 0
M  V30 2878 N 273.449 -1.08991 1.13837 0
M  V30 2879 C 274.697 -1.80899 0.901098 0
M  V30 2880 C 275.018 -1.86356 -0.574134 0
M  V30 2881 O 274.288 -1.35235 -1.41733 0
M  V30 2882 H 272.868 -0.669966 0.330386 0
M  V30 2883 H 275.53 -1.318 1.43578 0
M  V30 2884 H 274.626 -2.83929 1.29578 0
M  V30 2885 N 274.927 -0.932562 -1.27047 0
M  V30 2886 C 276.155 -0.592031 -1.98249 0
M  V30 2887 C 276.57 0.831062 -1.69525 0
M  V30 2888 O 275.927 1.55299 -0.958561 0
M  V30 2889 C 275.978 -0.814279 -3.5221 0
M  V30 2890 O 275.699 -2.18139 -3.7993 0
M  V30 2891 C 277.2 -0.483121 -4.4066 0
M  V30 2892 H 274.42 -0.223896 -0.632544 0
M  V30 2893 H 276.964 -1.25091 -1.61779 0
M  V30 2894 H 275.119 -0.20213 -3.86872 0
M  V30 2895 H 275.533 -2.235 -4.74498 0
M  V30 2896 H 277.007 -0.689298 -5.47679 0
M  V30 2897 H 277.484 0.581546 -4.35333 0
M  V30 2898 H 278.09 -1.07362 -4.11526 0
M  V30 2899 N 276.405 1.4127 -0.698611 0
M  V30 2900 C 277.635 2.05205 -0.239644 0
M  V30 2901 C 278.043 1.52684 1.11733 0
M  V30 2902 O 277.386 0.671222 1.70998 0
M  V30 2903 C 277.448 3.59289 -0.123126 0
M  V30 2904 C 277.112 4.34619 -1.41263 0
M  V30 2905 C 278.109 4.63701 -2.35111 0
M  V30 2906 C 275.794 4.73837 -1.66684 0
M  V30 2907 C 277.788 5.30966 -3.52639 0
M  V30 2908 C 275.475 5.40837 -2.84498 0
M  V30 2909 C 276.473 5.69329 -3.77298 0
M  V30 2910 O 276.161 6.34949 -4.93047 0
M  V30 2911 H 275.893 0.66723 -0.108537 0
M  V30 2912 H 278.447 1.81974 -0.952602 0
M  V30 2913 H 276.677 3.81272 0.645628 0
M  V30 2914 H 278.366 4.04797 0.299056 0
M  V30 2915 H 279.132 4.33882 -2.16729 0
M  V30 2916 H 275.011 4.51039 -0.953135 0
M  V30 2917 H 278.555 5.53121 -4.25091 0
M  V30 2918 H 274.452 5.70075 -3.02795 0
M  V30 2919 H 275.22 6.53445 -4.92902 0
M  V30 2920 N 277.883 0.443576 1.51229 0
M  V30 2921 C 278.816 -0.410089 2.24485 0
M  V30 2922 C 279.794 -1.01949 1.26669 0
M  V30 2923 O 280.978 -1.06075 1.55821 0
M  V30 2924 C 278.105 -1.57211 3.00004 0
M  V30 2925 C 277.151 -1.08279 4.12526 0
M  V30 2926 S 277.984 -0.0197476 5.35496 0
M  V30 2927 C 279.14 -1.18629 6.14555 0
M  V30 2928 H 279.373 0.211832 2.96544 0
M  V30 2929 H 276.906 0.228156 1.52705 0
M  V30 2930 H 278.864 -2.23825 3.44111 0
M  V30 2931 H 277.525 -2.16547 2.27522 0
M  V30 2932 H 276.718 -1.95193 4.64667 0
M  V30 2933 H 276.32 -0.494797 3.70713 0
M  V30 2934 H 278.612 -2.10344 6.4402 0
M  V30 2935 H 279.555 -0.70472 7.04584 0
M  V30 2936 H 279.963 -1.42768 5.46148 0
M  V30 2937 N 279.361 -1.56624 0.175154 0
M  V30 2938 C 280.609 -1.96609 -0.467885 0
M  V30 2939 C 280.93 -1.06238 -1.63519 0
M  V30 2940 O 280.2 -0.129523 -1.95471 0
M  V30 2941 H 278.78 -0.726008 -0.175845 0
M  V30 2942 H 281.442 -1.93195 0.257234 0
M  V30 2943 H 280.538 -3.00989 -0.825342 0
M  V30 2944 N 280.839 0.0985539 -1.57292 0
M  V30 2945 C 281.787 1.1387 -2.02821 0
M  V30 2946 C 282.781 1.41676 -0.928666 0
M  V30 2947 O 283.987 1.41398 -1.11385 0
M  V30 2948 H 280.362 0.384419 -0.646317 0
M  V30 2949 H 282.333 0.728347 -2.89375 0
M  V30 2950 C 281.082 2.45166 -2.46554 0
M  V30 2951 H 280.405 2.24613 -3.3074 0
M  V30 2952 H 281.845 3.16456 -2.8219 0
M  V30 2953 C 280.304 3.09216 -1.33742 0
M  V30 2954 O 280.834 3.96163 -0.66464 0
M  V30 2955 N 279.04 2.69413 -1.08928 0
M  V30 2956 H 278.587 1.98801 -1.63817 0
M  V30 2957 H 278.545 3.12594 -0.336458 0
M  V30 2958 N 282.317 1.53212 0.369288 0
M  V30 2959 C 283.547 1.72868 1.13139 0
M  V30 2960 C 283.955 0.455754 1.83629 0
M  V30 2961 O 283.298 -0.580861 1.74275 0
M  V30 2962 C 283.36 2.83667 2.20847 0
M  V30 2963 C 283.024 4.24142 1.70155 0
M  V30 2964 C 284.021 5.06619 1.16763 0
M  V30 2965 C 281.706 4.70539 1.7578 0
M  V30 2966 C 283.7 6.33581 0.696678 0
M  V30 2967 C 281.387 5.97481 1.28297 0
M  V30 2968 C 282.385 6.78833 0.753307 0
M  V30 2969 O 282.073 8.03393 0.285475 0
M  V30 2970 H 281.805 0.581707 0.344373 0
M  V30 2971 H 284.359 2.00736 0.435243 0
M  V30 2972 H 282.589 2.51265 2.93944 0
M  V30 2973 H 284.278 2.91536 2.82421 0
M  V30 2974 H 285.044 4.71948 1.11758 0
M  V30 2975 H 280.923 4.07293 2.15949 0
M  V30 2976 H 284.467 6.97027 0.282581 0
M  V30 2977 H 280.364 6.31651 1.32994 0
M  V30 2978 H 281.132 8.17497 0.405145 0
M  V30 2979 N 283.795 -0.628877 1.44509 0
M  V30 2980 C 285.042 -1.38839 1.47411 0
M  V30 2981 C 285.37 -1.94202 0.10757 0
M  V30 2982 O 284.625 -1.74243 -0.890947 0
M  V30 2983 C 284.924 -2.56995 2.48371 0
M  V30 2984 C 284.59 -2.19908 3.93639 0
M  V30 2985 C 283.252 -2.09506 4.33198 0
M  V30 2986 C 285.604 -1.9064 4.85083 0
M  V30 2987 C 282.932 -1.68028 5.62124 0
M  V30 2988 C 285.284 -1.50655 6.14399 0
M  V30 2989 C 283.948 -1.38796 6.5291 0
M  V30 2990 H 283.218 -0.508048 0.539414 0
M  V30 2991 H 285.865 -0.712913 1.77735 0
M  V30 2992 H 284.17 -3.29786 2.11538 0
M  V30 2993 H 285.867 -3.15223 2.47861 0
M  V30 2994 H 282.457 -2.28922 3.62343 0
M  V30 2995 H 286.641 -1.97585 4.55273 0
M  V30 2996 H 281.897 -1.57452 5.90778 0
M  V30 2997 H 286.071 -1.27048 6.84713 0
M  V30 2998 H 283.698 -1.06429 7.52713 0
M  V30 2999 N 285.273 -1.31445 -0.869486 0
M  V30 3000 C 286.55 -1.11795 -1.60503 0
M  V30 3001 C 286.93 0.327168 -2.08549 0
M  V30 3002 O 286.278 1.32135 -1.8642 0
M  V30 3003 C 286.488 -2.13258 -2.76265 0
M  V30 3004 C 287.836 -2.45805 -3.46215 0
M  V30 3005 O 288.86 -2.11688 -2.86473 0
M  V30 3006 O 287.719 -3.04228 -4.5399 0
M  V30 3007 H 284.813 -0.430421 -0.706163 0
M  V30 3008 H 287.359 -1.42925 -0.914907 0
M  V30 3009 H 286.131 -3.10461 -2.3818 0
M  V30 3010 H 285.754 -1.83035 -3.52964 0
M  V30 3011 N 286.751 1.08385 -1.14413 0
M  V30 3012 C 288.028 1.77429 -0.823297 0
M  V30 3013 C 288.408 1.9974 0.683163 0
M  V30 3014 O 287.756 1.60739 1.62405 0
M  V30 3015 C 287.966 3.09004 -1.62227 0
M  V30 3016 C 289.314 3.83532 -1.82177 0
M  V30 3017 O 290.338 3.18786 -1.58915 0
M  V30 3018 O 289.197 4.99792 -2.21067 0
M  V30 3019 H 286.291 0.769999 -0.301712 0
M  V30 3020 H 288.837 1.14846 -1.24934 0
M  V30 3021 H 287.609 2.88316 -2.64555 0
M  V30 3022 H 287.232 3.79316 -1.19187 0
M  V30 3023 N 288.23 0.939286 1.26551 0
M  V30 3024 C 289.193 0.451987 2.24699 0
M  V30 3025 C 290.193 -0.435869 1.5478 0
M  V30 3026 O 291.383 -0.235314 1.72603 0
M  V30 3027 C 288.515 -0.348801 3.39111 0
M  V30 3028 H 289.708 1.3193 2.69322 0
M  V30 3029 H 287.261 0.721072 1.38673 0
M  V30 3030 H 287.996 -1.23444 2.99887 0
M  V30 3031 H 287.781 0.287945 3.91041 0
M  V30 3032 H 289.271 -0.679726 4.12031 0
M  V30 3033 N 289.708 -1.40897 0.706093 0
M  V30 3034 C 290.936 -2.05373 0.250887 0
M  V30 3035 C 291.351 -1.53172 -1.10381 0
M  V30 3036 O 290.708 -0.684305 -1.69185 0
M  V30 3037 C 290.759 -3.6088 0.211571 0
M  V30 3038 O 290.48 -4.11153 1.51276 0
M  V30 3039 C 291.981 -4.42517 -0.263346 0
M  V30 3040 H 289.201 -0.66115 0.114552 0
M  V30 3041 H 291.745 -1.80479 0.961635 0
M  V30 3042 H 289.9 -3.84777 -0.450073 0
M  V30 3043 H 290.314 -5.05279 1.40689 0
M  V30 3044 H 291.788 -5.51479 -0.239718 0
M  V30 3045 H 292.265 -4.19396 -1.30397 0
M  V30 3046 H 292.871 -4.23708 0.367677 0
M  V30 3047 N 291.186 -0.45159 -1.50991 0
M  V30 3048 C 292.133 0.352625 -2.2809 0
M  V30 3049 C 293.103 1.0044 -1.32291 0
M  V30 3050 O 294.288 1.02058 -1.6121 0
M  V30 3051 C 291.428 1.43983 -3.13629 0
M  V30 3052 C 290.541 0.804772 -4.24438 0
M  V30 3053 C 289.676 1.86822 -4.97263 0
M  V30 3054 C 288.715 1.21236 -5.99973 0
M  V30 3055 N 287.852 2.2178 -6.66152 0
M  V30 3056 H 292.692 -0.311186 -2.96371 0
M  V30 3057 H 290.229 -0.165308 -1.46168 0
M  V30 3058 H 292.187 2.08161 -3.61559 0
M  V30 3059 H 290.817 2.07307 -2.47434 0
M  V30 3060 H 289.869 0.0509129 -3.80366 0
M  V30 3061 H 291.181 0.286076 -4.97979 0
M  V30 3062 H 290.335 2.58628 -5.48813 0
M  V30 3063 H 289.074 2.42068 -4.23385 0
M  V30 3064 H 288.079 0.479828 -5.47702 0
M  V30 3065 H 289.304 0.667051 -6.75816 0
M  V30 3066 H 287.25 2.76079 -5.95077 0
M  V30 3067 H 287.167 1.74841 -7.35504 0
M  V30 3068 H 288.435 2.93026 -7.22327 0
M  V30 3069 N 292.664 1.56529 -0.183458 0
M  V30 3070 C 293.912 1.96855 0.457452 0
M  V30 3071 C 294.233 1.07104 1.62953 0
M  V30 3072 O 293.503 0.139887 1.954 0
M  V30 3073 H 292.083 0.72693 0.171992 0
M  V30 3074 H 294.745 1.93056 -0.267476 0
M  V30 3075 H 293.841 3.01423 0.809368 0
M  V30 3076 N 294.142 -0.090211 1.57342 0
M  V30 3077 C 295.372 -0.805055 1.90269 0
M  V30 3078 C 295.78 -1.72561 0.775842 0
M  V30 3079 O 295.123 -1.81839 -0.260843 0
M  V30 3080 C 295.185 -1.66734 3.18497 0
M  V30 3081 C 294.849 -0.918092 4.47683 0
M  V30 3082 C 295.846 -0.245674 5.19319 0
M  V30 3083 C 293.531 -0.890724 4.94339 0
M  V30 3084 C 295.525 0.444088 6.35851 0
M  V30 3085 C 293.212 -0.197179 6.10782 0
M  V30 3086 C 294.21 0.469044 6.81388 0
M  V30 3087 O 293.898 1.15146 7.95611 0
M  V30 3088 H 293.63 -0.235143 0.633785 0
M  V30 3089 H 296.184 -0.0703805 2.05279 0
M  V30 3090 H 294.414 -2.44437 2.99646 0
M  V30 3091 H 296.103 -2.25919 3.37217 0
M  V30 3092 H 296.869 -0.258246 4.84312 0
M  V30 3093 H 292.748 -1.39873 4.39268 0
M  V30 3094 H 296.292 0.964667 6.90898 0
M  V30 3095 H 292.189 -0.18247 6.45242 0
M  V30 3096 H 292.957 1.05885 8.11622 0
M  V30 3097 N 295.62 -1.53406 -0.361157 0
M  V30 3098 C 296.867 -1.69802 -1.10333 0
M  V30 3099 C 297.195 -0.452087 -1.89173 0
M  V30 3100 O 296.45 0.566017 -1.87336 0
M  V30 3101 C 296.749 -2.90211 -2.08596 0
M  V30 3102 C 296.415 -4.26539 -1.46203 0
M  V30 3103 C 295.077 -4.6361 -1.28915 0
M  V30 3104 C 297.429 -5.113 -1.01101 0
M  V30 3105 C 294.757 -5.83075 -0.651157 0
M  V30 3106 C 297.109 -6.31415 -0.387007 0
M  V30 3107 C 295.773 -6.67195 -0.201657 0
M  V30 3108 H 295.043 -0.621351 -0.403737 0
M  V30 3109 H 297.69 -1.87598 -0.384609 0
M  V30 3110 H 295.995 -2.66946 -2.86788 0
M  V30 3111 H 297.692 -3.00091 -2.65982 0
M  V30 3112 H 294.282 -3.97352 -1.60653 0
M  V30 3113 H 298.466 -4.83206 -1.13249 0
M  V30 3114 H 293.722 -6.09385 -0.496006 0
M  V30 3115 H 297.896 -6.96394 -0.0293563 0
M  V30 3116 H 295.523 -7.59628 0.294766 0
M  V30 3117 N 297.098 0.621204 -1.44841 0
M  V30 3118 C 298.048 1.72663 -1.48901 0
M  V30 3119 C 299.032 1.56964 -0.353702 0
M  V30 3120 O 300.224 1.66532 -0.599669 0
M  V30 3121 C 297.353 3.11381 -1.44557 0
M  V30 3122 C 296.439 3.32514 -2.6324 0
M  V30 3123 N 296.83 3.23969 -3.8843 0
M  V30 3124 C 295.128 3.63343 -2.58647 0
M  V30 3125 C 295.829 3.46062 -4.67564 0
M  V30 3126 N 294.805 3.69407 -3.98797 0
M  V30 3127 H 298.607 1.64529 -2.43531 0
M  V30 3128 H 296.121 0.82401 -1.39942 0
M  V30 3129 H 298.118 3.90667 -1.4555 0
M  V30 3130 H 296.778 3.20674 -0.509731 0
M  V30 3131 H 297.789 3.02669 -4.20252 0
M  V30 3132 H 294.466 3.79556 -1.73906 0
M  V30 3133 H 295.856 3.44963 -5.76585 0
M  V30 3134 N 298.576 1.31904 0.862503 0
M  V30 3135 C 299.526 1.16772 1.95827 0
M  V30 3136 C 300.51 0.0767098 1.60717 0
M  V30 3137 O 301.702 0.302407 1.74398 0
M  V30 3138 C 298.831 0.884858 3.317 0
M  V30 3139 C 297.917 2.0172 3.73055 0
M  V30 3140 N 298.308 3.265 3.86305 0
M  V30 3141 C 296.606 1.91861 4.02623 0
M  V30 3142 C 297.307 4.00616 4.2176 0
M  V30 3143 N 296.283 3.28847 4.32852 0
M  V30 3144 H 300.085 2.11382 2.04193 0
M  V30 3145 H 297.599 1.2357 1.05377 0
M  V30 3146 H 299.596 0.757419 4.09962 0
M  V30 3147 H 298.256 -0.0529448 3.24657 0
M  V30 3148 H 299.267 3.61529 3.70833 0
M  V30 3149 H 295.944 1.05593 4.03926 0
M  V30 3150 H 297.334 5.08182 4.39546 0
M  V30 3151 N 300.054 -1.07777 1.14986 0
M  V30 3152 C 301.002 -2.16964 0.838406 0
M  V30 3153 C 301.996 -1.68372 -0.186386 0
M  V30 3154 O 303.202 -1.79951 -0.0418465 0
M  V30 3155 H 299.577 -0.708006 0.253439 0
M  V30 3156 H 301.548 -2.40454 1.76704 0
M  V30 3157 C 300.297 -3.4604 0.339335 0
M  V30 3158 H 299.62 -3.83813 1.11927 0
M  V30 3159 H 301.06 -4.23698 0.160021 0
M  V30 3160 C 299.519 -3.23569 -0.938325 0
M  V30 3161 O 300.049 -3.47752 -2.01077 0
M  V30 3162 N 298.255 -2.77079 -0.876117 0
M  V30 3163 H 297.802 -2.576 -0.00322037 0
M  V30 3164 H 297.76 -2.62422 -1.73153 0
M  V30 3165 N 301.532 -0.945985 -1.26051 0
M  V30 3166 C 302.78 -0.594941 -1.93145 0
M  V30 3167 C 303.101 0.86953 -1.7454 0
M  V30 3168 O 302.371 1.61838 -1.10387 0
M  V30 3169 H 300.951 -0.217044 -0.714773 0
M  V30 3170 H 303.613 -1.20235 -1.53393 0
M  V30 3171 H 302.709 -0.816835 -3.01221 0
M  V30 3172 N 303.011 1.40521 -0.713556 0
M  V30 3173 C 304.288 1.94775 -0.17943 0
M  V30 3174 C 304.668 1.65184 1.31444 0
M  V30 3175 O 304.016 0.968429 2.06963 0
M  V30 3176 C 304.226 3.45543 -0.489986 0
M  V30 3177 C 305.574 4.22442 -0.427536 0
M  V30 3178 O 306.598 3.53644 -0.425929 0
M  V30 3179 O 305.457 5.4501 -0.403292 0
M  V30 3180 H 302.551 0.826606 -0.0255192 0
M  V30 3181 H 305.097 1.5014 -0.790949 0
M  V30 3182 H 303.869 3.60432 -1.5233 0
M  V30 3183 H 303.492 3.97311 0.151598 0
M  V30 3184 N 304.489 0.459591 1.5075 0
M  V30 3185 C 305.738 -0.100971 2.01447 0
M  V30 3186 C 306.051 -1.41816 1.34713 0
M  V30 3187 O 307.257 -2.06299 1.76502 0
M  V30 3188 C 305.713 -0.23047 3.59161 0
M  V30 3189 C 305.321 1.0776 4.34847 0
M  V30 3190 C 307.065 -0.743608 4.17936 0
M  V30 3191 C 304.972 0.91253 5.84317 0
M  V30 3192 H 303.902 -0.0415102 0.752856 0
M  V30 3193 H 306.553 0.592742 1.73663 0
M  V30 3194 H 304.935 -0.987703 3.83485 0
M  V30 3195 H 306.109 1.8449 4.22256 0
M  V30 3196 H 304.424 1.52097 3.87628 0
M  V30 3197 H 307.021 -0.883959 5.27343 0
M  V30 3198 H 307.364 -1.73196 3.78562 0
M  V30 3199 H 307.897 -0.04408 3.97776 0
M  V30 3200 H 304.636 1.87391 6.28144 0
M  V30 3201 H 304.156 0.185422 5.99513 0
M  V30 3202 H 305.835 0.574547 6.44444 0
M  V30 3203 N 305.967 -1.56429 0.191757 0
M  V30 3204 C 307.192 -2.02309 -0.456706 0
M  V30 3205 C 307.617 -1.07103 -1.5463 0
M  V30 3206 O 306.975 -0.0539677 -1.8122 0
M  V30 3207 C 307.023 -3.46654 -0.993159 0
M  V30 3208 O 306.127 -3.54559 -2.10622 0
M  V30 3209 H 305.468 -0.655303 -0.107114 0
M  V30 3210 H 307.998 -2.02364 0.301653 0
M  V30 3211 H 308.008 -3.86377 -1.31061 0
M  V30 3212 H 306.683 -4.1544 -0.195504 0
M  V30 3213 H 305.26 -3.26708 -1.79767 0
M  V30 3214 N 307.445 0.0818655 -1.57387 0
M  V30 3215 C 308.393 1.11712 -2.04018 0
M  V30 3216 C 309.387 1.40683 -0.94364 0
M  V30 3217 O 310.593 1.40209 -1.12878 0
M  V30 3218 H 306.968 0.377542 -0.650358 0
M  V30 3219 H 308.939 0.697614 -2.90131 0
M  V30 3220 C 307.688 2.42537 -2.49141 0
M  V30 3221 H 307.011 2.21092 -3.33104 0
M  V30 3222 H 308.451 3.13446 -2.85531 0
M  V30 3223 C 306.91 3.0778 -1.37014 0
M  V30 3224 O 307.44 3.95436 -0.706621 0
M  V30 3225 N 305.646 2.68242 -1.11779 0
M  V30 3226 H 305.193 1.97052 -1.65917 0
M  V30 3227 H 305.151 3.1222 -0.369594 0
M  V30 3228 N 308.923 1.53595 0.353017 0
M  V30 3229 C 310.169 1.71581 1.09232 0
M  V30 3230 C 310.524 0.468328 1.86613 0
M  V30 3231 O 309.817 -0.538911 1.83865 0
M  V30 3232 C 310.011 2.91313 2.07054 0
M  V30 3233 C 309.84 4.27585 1.39287 0
M  V30 3234 C 308.61 4.92233 1.1417 0
M  V30 3235 C 310.808 5.07656 0.824005 0
M  V30 3236 N 308.79 6.124 0.428841 0
M  V30 3237 C 310.161 6.19531 0.241195 0
M  V30 3238 C 312.216 4.92609 0.723922 0
M  V30 3239 C 310.919 7.18002 -0.431952 0
M  V30 3240 C 312.945 5.91365 0.0645334 0
M  V30 3241 C 312.307 7.02571 -0.507347 0
M  V30 3242 H 308.406 0.680987 0.384422 0
M  V30 3243 H 310.99 1.91013 0.377096 0
M  V30 3244 H 309.161 2.73398 2.75877 0
M  V30 3245 H 310.893 2.98062 2.73753 0
M  V30 3246 H 307.648 4.51612 1.42631 0
M  V30 3247 H 308.072 6.76944 0.0874131 0
M  V30 3248 H 312.714 4.06808 1.15181 0
M  V30 3249 H 310.432 8.03384 -0.871758 0
M  V30 3250 H 314.018 5.81799 -0.0121469 0
M  V30 3251 H 312.898 7.77675 -1.0095 0
M  V30 3252 N 310.401 -0.613514 1.45168 0
M  V30 3253 C 311.678 -1.37263 1.39349 0
M  V30 3254 C 312.058 -2.11012 0.0610848 0
M  V30 3255 O 311.406 -2.07502 -0.956825 0
M  V30 3256 C 311.616 -2.3244 2.60332 0
M  V30 3257 C 312.964 -2.9523 3.05163 0
M  V30 3258 O 313.988 -2.42762 2.60663 0
M  V30 3259 O 312.847 -3.90454 3.82372 0
M  V30 3260 H 309.941 -0.615188 0.552696 0
M  V30 3261 H 312.487 -0.637097 1.57287 0
M  V30 3262 H 311.259 -1.77164 3.48896 0
M  V30 3263 H 310.882 -3.13383 2.44698 0
M  V30 3264 N 311.879 -1.3236 -0.855495 0
M  V30 3265 C 313.156 -1.13491 -1.59309 0
M  V30 3266 C 313.536 0.30503 -2.08885 0
M  V30 3267 O 312.884 1.30151 -1.87811 0
M  V30 3268 C 313.094 -2.16176 -2.73987 0
M  V30 3269 C 314.442 -2.49463 -3.43589 0
M  V30 3270 O 315.466 -2.14715 -2.84211 0
M  V30 3271 O 314.325 -3.09027 -4.50738 0
M  V30 3272 H 311.419 -0.437887 -0.701559 0
M  V30 3273 H 313.965 -1.43887 -0.899696 0
M  V30 3274 H 312.737 -3.1297 -2.34873 0
M  V30 3275 H 312.36 -1.86769 -3.51003 0
M  V30 3276 N 313.357 1.07166 -1.15556 0
M  V30 3277 C 314.773 1.31899 -0.898603 0
M  V30 3278 C 314.973 1.96333 0.453383 0
M  V30 3279 O 314.029 2.22438 1.19489 0
M  V30 3280 C 315.342 2.20826 -2.04099 0
M  V30 3281 C 316.89 2.34269 -2.07574 0
M  V30 3282 C 317.365 3.26546 -3.21141 0
M  V30 3283 N 318.856 3.34127 -3.20801 0
M  V30 3284 C 319.591 4.05595 -4.05315 0
M  V30 3285 N 319.087 4.79661 -4.99897 0
M  V30 3286 N 320.88 4.01555 -3.93332 0
M  V30 3287 H 313.031 0.637302 -2.02613 0
M  V30 3288 H 315.294 0.343468 -0.883591 0
M  V30 3289 H 315 1.80744 -3.01703 0
M  V30 3290 H 314.874 3.21364 -1.97496 0
M  V30 3291 H 317.261 2.73603 -1.10568 0
M  V30 3292 H 317.342 1.33429 -2.18244 0
M  V30 3293 H 316.986 2.87931 -4.184 0
M  V30 3294 H 316.916 4.27345 -3.07708 0
M  V30 3295 H 319.407 2.81336 -2.52306 0
M  V30 3296 H 319.72 5.31694 -5.60822 0
M  V30 3297 H 318.065 4.78671 -5.03884 0
M  V30 3298 H 321.256 3.42806 -3.18751 0
M  V30 3299 H 321.429 4.56987 -4.5942 0
M  V30 3300 N 314.835 0.952656 1.25548 0
M  V30 3301 C 316.065 0.622592 1.96996 0
M  V30 3302 C 316.473 -0.809112 1.71026 0
M  V30 3303 O 315.816 -1.55258 0.981861 0
M  V30 3304 C 315.878 0.798946 3.5051 0
M  V30 3305 C 315.542 2.20744 4.00151 0
M  V30 3306 C 316.539 3.18394 4.11001 0
M  V30 3307 C 314.224 2.5311 4.33867 0
M  V30 3308 C 316.218 4.46504 4.54877 0
M  V30 3309 C 313.905 3.8145 4.7743 0
M  V30 3310 C 314.903 4.77959 4.87897 0
M  V30 3311 O 314.591 6.04012 5.30494 0
M  V30 3312 H 314.323 0.232503 0.634758 0
M  V30 3313 H 316.877 1.2789 1.60728 0
M  V30 3314 H 315.107 0.0854903 3.86605 0
M  V30 3315 H 316.796 0.47023 4.03167 0
M  V30 3316 H 317.562 2.94715 3.85186 0
M  V30 3317 H 313.441 1.78719 4.24948 0
M  V30 3318 H 316.985 5.21835 4.62962 0
M  V30 3319 H 312.882 4.04936 5.0269 0
M  V30 3320 H 313.65 6.0736 5.48685 0
M  V30 3321 N 316.313 -1.40141 0.720998 0
M  V30 3322 C 317.223 -2.34486 0.0731031 0
M  V30 3323 C 318.239 -1.57587 -0.737723 0
M  V30 3324 O 319.415 -1.89949 -0.669429 0
M  V30 3325 C 316.48 -3.36528 -0.833656 0
M  V30 3326 C 315.541 -4.29298 -0.0121673 0
M  V30 3327 C 314.774 -5.26466 -0.875742 0
M  V30 3328 O 314.997 -5.29745 -2.11485 0
M  V30 3329 O 313.931 -6.01092 -0.31185 0
M  V30 3330 H 317.757 -2.9152 0.851444 0
M  V30 3331 H 315.342 -1.41427 0.481527 0
M  V30 3332 H 317.224 -3.99093 -1.35289 0
M  V30 3333 H 315.899 -2.81899 -1.59105 0
M  V30 3334 H 314.806 -3.70001 0.552262 0
M  V30 3335 H 316.139 -4.87094 0.707129 0
M  V30 3336 N 317.792 -0.46758 -1.50504 0
M  V30 3337 C 318.755 0.317059 -2.26996 0
M  V30 3338 C 319.755 0.923513 -1.31635 0
M  V30 3339 O 320.945 0.793239 -1.55091 0
M  V30 3340 C 318.077 1.45134 -3.08462 0
M  V30 3341 H 319.27 -0.353723 -2.97807 0
M  V30 3342 H 316.823 -0.221545 -1.54722 0
M  V30 3343 H 317.558 2.15728 -2.4214 0
M  V30 3344 H 317.343 1.02232 -3.78538 0
M  V30 3345 H 318.833 2.00493 -3.66323 0
M  V30 3346 N 319.27 1.56325 -0.20005 0
M  V30 3347 C 320.202 2.16555 0.750771 0
M  V30 3348 C 321.215 1.12871 1.1732 0
M  V30 3349 O 322.404 1.39943 1.10807 0
M  V30 3350 C 319.504 2.71684 2.02586 0
M  V30 3351 C 318.677 4.00321 1.76244 0
M  V30 3352 C 317.736 4.40227 2.88248 0
M  V30 3353 O 316.762 5.07552 2.57642 0
M  V30 3354 N 317.964 4.04138 4.16717 0
M  V30 3355 H 320.729 2.98772 0.235685 0
M  V30 3356 H 318.29 1.6189 -0.0182594 0
M  V30 3357 H 320.282 2.95363 2.76664 0
M  V30 3358 H 318.852 1.93893 2.45202 0
M  V30 3359 H 318.072 3.84723 0.85919 0
M  V30 3360 H 319.36 4.84279 1.56048 0
M  V30 3361 H 318.758 3.49993 4.44434 0
M  V30 3362 H 317.315 4.32756 4.87407 0
M  V30 3363 N 320.748 -0.0735177 1.57428 0
M  V30 3364 C 321.994 -0.768909 1.88307 0
M  V30 3365 C 322.349 -1.75273 0.793535 0
M  V30 3366 O 321.642 -1.90527 -0.202466 0
M  V30 3367 C 321.836 -1.51799 3.23561 0
M  V30 3368 C 321.665 -0.608217 4.45568 0
M  V30 3369 C 320.435 -0.245808 5.04702 0
M  V30 3370 C 322.633 0.0942904 5.14214 0
M  V30 3371 N 320.615 0.66987 6.10234 0
M  V30 3372 C 321.986 0.867222 6.13905 0
M  V30 3373 C 324.041 0.165943 4.97623 0
M  V30 3374 C 322.744 1.70515 6.98797 0
M  V30 3375 C 324.77 0.990837 5.83041 0
M  V30 3376 C 324.132 1.75182 6.82269 0
M  V30 3377 H 320.231 -0.25685 0.738615 0
M  V30 3378 H 322.815 -0.030499 1.94676 0
M  V30 3379 H 320.986 -2.22713 3.18203 0
M  V30 3380 H 322.718 -2.16226 3.42094 0
M  V30 3381 H 319.473 -0.598284 4.69806 0
M  V30 3382 H 319.897 1.1209 6.67656 0
M  V30 3383 H 324.539 -0.408064 4.20826 0
M  V30 3384 H 322.257 2.29013 7.7497 0
M  V30 3385 H 325.843 1.04923 5.72261 0
M  V30 3386 H 324.723 2.37983 7.47217 0
M  V30 3387 N 322.226 -1.5378 -0.344866 0
M  V30 3388 C 323.173 -1.81676 -1.42346 0
M  V30 3389 C 324.143 -0.662376 -1.52321 0
M  V30 3390 O 325.328 -0.906675 -1.67881 0
M  V30 3391 C 322.468 -2.03087 -2.79015 0
M  V30 3392 C 321.581 -3.30799 -2.77842 0
M  V30 3393 C 320.716 -3.42285 -4.0622 0
M  V30 3394 C 319.755 -4.6395 -3.9927 0
M  V30 3395 N 318.892 -4.72477 -5.19336 0
M  V30 3396 H 323.732 -2.73703 -1.17858 0
M  V30 3397 H 321.269 -1.35568 -0.570949 0
M  V30 3398 H 323.227 -2.1349 -3.58438 0
M  V30 3399 H 321.857 -1.14375 -3.01858 0
M  V30 3400 H 320.909 -3.29244 -1.90533 0
M  V30 3401 H 322.221 -4.20314 -2.68584 0
M  V30 3402 H 321.375 -3.52113 -4.94066 0
M  V30 3403 H 320.114 -2.50823 -4.18258 0
M  V30 3404 H 319.119 -4.54201 -3.09809 0
M  V30 3405 H 320.344 -5.56775 -3.88817 0
M  V30 3406 H 318.29 -3.83924 -5.3192 0
M  V30 3407 H 318.207 -5.55927 -5.12329 0
M  V30 3408 H 319.475 -4.86613 -6.08957 0
M  V30 3409 N 323.704 0.605807 -1.45491 0
M  V30 3410 C 324.652 1.73754 -1.54636 0
M  V30 3411 C 325.646 1.64207 -0.416219 0
M  V30 3412 O 326.852 1.69979 -0.592199 0
M  V30 3413 H 323.227 0.574073 -0.485741 0
M  V30 3414 H 325.198 1.63169 -2.49837 0
M  V30 3415 C 323.947 3.12135 -1.53189 0
M  V30 3416 H 323.27 3.20141 -2.39478 0
M  V30 3417 H 324.71 3.91147 -1.63645 0
M  V30 3418 C 323.169 3.35921 -0.256616 0
M  V30 3419 O 323.699 3.96194 0.662798 0
M  V30 3420 N 321.905 2.90204 -0.151751 0
M  V30 3421 H 321.452 2.41336 -0.90081 0
M  V30 3422 H 321.41 3.06492 0.700699 0
M  V30 3423 N 325.182 1.32811 0.848464 0
M  V30 3424 C 326.429 1.23724 1.60308 0
M  V30 3425 C 326.757 -0.1994 1.93475 0
M  V30 3426 O 326.012 -1.15406 1.5805 0
M  V30 3427 C 326.311 2.04831 2.92881 0
M  V30 3428 C 325.977 3.54125 2.79117 0
M  V30 3429 C 324.639 3.94829 2.7507 0
M  V30 3430 C 326.991 4.49036 2.64606 0
M  V30 3431 C 324.319 5.28675 2.544 0
M  V30 3432 C 326.671 5.83033 2.4547 0
M  V30 3433 C 325.335 6.22931 2.39819 0
M  V30 3434 H 324.605 0.452737 0.586609 0
M  V30 3435 H 327.252 1.64301 0.983743 0
M  V30 3436 H 325.557 1.57001 3.58968 0
M  V30 3437 H 327.254 1.95164 3.50303 0
M  V30 3438 H 323.844 3.21801 2.83094 0
M  V30 3439 H 328.028 4.18505 2.66772 0
M  V30 3440 H 323.284 5.58637 2.48465 0
M  V30 3441 H 327.458 6.56186 2.33222 0
M  V30 3442 H 325.085 7.26584 2.23562 0
M  V30 3443 N 326.66 -1.06551 1.16123 0
M  V30 3444 C 327.888 -1.83005 0.965237 0
M  V30 3445 C 328.303 -1.82423 -0.486542 0
M  V30 3446 O 327.66 -1.24152 -1.33763 0
M  V30 3447 C 327.711 -3.29733 1.48183 0
M  V30 3448 O 327.432 -3.30416 2.87674 0
M  V30 3449 C 328.933 -4.22926 1.32848 0
M  V30 3450 H 326.153 -0.577118 0.342309 0
M  V30 3451 H 328.697 -1.3445 1.54089 0
M  V30 3452 H 326.852 -3.75609 0.948517 0
M  V30 3453 H 327.266 -4.22149 3.11272 0
M  V30 3454 H 328.74 -5.23916 1.73827 0
M  V30 3455 H 329.217 -4.38346 0.273692 0
M  V30 3456 H 329.823 -3.82894 1.85127 0
M  V30 3457 N 328.138 -0.959301 -1.25041 0
M  V30 3458 C 329.415 -0.533805 -1.88175 0
M  V30 3459 C 329.795 0.988994 -1.865 0
M  V30 3460 O 329.143 1.85677 -1.33177 0
M  V30 3461 C 329.353 -1.11575 -3.30684 0
M  V30 3462 C 330.701 -1.19548 -4.07423 0
M  V30 3463 O 331.725 -1.06765 -3.39823 0
M  V30 3464 O 330.584 -1.39656 -5.28354 0
M  V30 3465 H 327.678 -0.176772 -0.807887 0
M  V30 3466 H 330.224 -1.05303 -1.33076 0
M  V30 3467 H 328.996 -2.15884 -3.26358 0
M  V30 3468 H 328.619 -0.580059 -3.93346 0
M  V30 3469 N 329.616 1.39756 -0.72842 0
M  V30 3470 C 331.027 1.83498 -0.344289 0
M  V30 3471 C 331.378 1.60868 1.12321 0
M  V30 3472 O 330.503 1.09634 1.86573 0
M  V30 3473 C 331.098 3.33114 -0.618112 0
M  V30 3474 C 329.657 3.753 -0.287549 0
M  V30 3475 C 328.804 2.62831 -0.884048 0
M  V30 3476 H 331.755 1.28842 -0.926578 0
M  V30 3477 H 331.776 3.80334 0.112349 0
M  V30 3478 H 331.288 3.49553 -1.68625 0
M  V30 3479 H 329.389 3.64451 0.775012 0
M  V30 3480 H 329.502 4.72945 -0.765512 0
M  V30 3481 H 327.866 2.52792 -0.311149 0
M  V30 3482 H 328.649 2.82078 -1.95671 0
M  V30 3483 N 331.094 0.475555 1.50254 0
M  V30 3484 C 332.057 -0.305016 2.27161 0
M  V30 3485 C 333.057 -0.916519 1.32123 0
M  V30 3486 O 334.247 -0.785003 1.5551 0
M  V30 3487 C 331.379 -1.43496 3.09227 0
M  V30 3488 H 332.572 0.369511 2.97615 0
M  V30 3489 H 330.125 0.229747 1.54602 0
M  V30 3490 H 330.86 -2.14441 2.43281 0
M  V30 3491 H 330.645 -1.00223 3.79075 0
M  V30 3492 H 332.135 -1.98548 3.67381 0
M  V30 3493 N 332.573 -1.56217 0.208337 0
M  V30 3494 C 333.821 -1.97558 -0.426076 0
M  V30 3495 C 334.142 -1.09683 -1.61229 0
M  V30 3496 O 333.412 -0.170956 -1.95153 0
M  V30 3497 H 331.992 -0.729575 -0.160405 0
M  V30 3498 H 334.654 -1.92606 0.298155 0
M  V30 3499 H 333.75 -3.02672 -0.761312 0
M  V30 3500 N 334.051 0.0651679 -1.57465 0
M  V30 3501 C 335.298 0.763063 -1.87573 0
M  V30 3502 C 335.626 1.77242 -0.800961 0
M  V30 3503 O 334.881 1.94651 0.202316 0
M  V30 3504 C 335.18 1.50081 -3.24362 0
M  V30 3505 C 334.846 0.630816 -4.46466 0
M  V30 3506 C 333.508 0.391082 -4.79608 0
M  V30 3507 C 335.86 0.0279465 -5.21193 0
M  V30 3508 C 333.188 -0.460894 -5.84887 0
M  V30 3509 C 335.54 -0.811522 -6.27373 0
M  V30 3510 C 334.204 -1.06106 -6.59013 0
M  V30 3511 H 333.474 0.279224 -0.686378 0
M  V30 3512 H 336.121 0.0236726 -1.91485 0
M  V30 3513 H 334.426 2.31258 -3.16271 0
M  V30 3514 H 336.123 2.04571 -3.44894 0
M  V30 3515 H 332.713 0.8278 -4.2053 0
M  V30 3516 H 336.897 0.200262 -4.95896 0
M  V30 3517 H 332.153 -0.662907 -6.07796 0
M  V30 3518 H 336.327 -1.28537 -6.84435 0
M  V30 3519 H 333.954 -1.723 -7.40417 0
M  V30 3520 N 335.529 1.53961 0.336706 0
M  V30 3521 C 336.754 1.75797 1.10046 0
M  V30 3522 C 337.179 0.498985 1.81361 0
M  V30 3523 O 336.537 -0.548769 1.72795 0
M  V30 3524 C 336.585 2.94257 2.08436 0
M  V30 3525 O 335.689 2.64883 3.16087 0
M  V30 3526 H 335.03 0.582936 0.317934 0
M  V30 3527 H 337.56 2.00945 0.38501 0
M  V30 3528 H 337.57 3.21237 2.51537 0
M  V30 3529 H 336.245 3.85564 1.55927 0
M  V30 3530 H 334.822 2.48812 2.77753 0
M  V30 3531 N 337.007 -0.598083 1.45811 0
M  V30 3532 C 337.937 -1.71873 1.58057 0
M  V30 3533 C 338.918 -1.64533 0.431615 0
M  V30 3534 O 340.103 -1.82787 0.65595 0
M  V30 3535 C 337.233 -3.10495 1.55597 0
M  V30 3536 C 336.187 -3.32654 2.69305 0
M  V30 3537 C 335.513 -4.71646 2.51902 0
M  V30 3538 C 336.813 -3.21981 4.11248 0
M  V30 3539 H 338.507 -1.61881 2.51863 0
M  V30 3540 H 336.053 -0.777372 1.21214 0
M  V30 3541 H 338.006 -3.88699 1.6276 0
M  V30 3542 H 336.73 -3.2135 0.583255 0
M  V30 3543 H 335.389 -2.56843 2.61586 0
M  V30 3544 H 335.037 -4.79246 1.52748 0
M  V30 3545 H 334.737 -4.87426 3.2816 0
M  V30 3546 H 336.261 -5.52038 2.60933 0
M  V30 3547 H 337.675 -3.90049 4.20161 0
M  V30 3548 H 336.072 -3.49289 4.87972 0
M  V30 3549 H 337.142 -2.1928 4.32486 0
M  V30 3550 N 338.485 -1.33259 -0.841409 0
M  V30 3551 C 339.448 -1.23221 -1.9326 0
M  V30 3552 C 340.448 -0.151895 -1.60081 0
M  V30 3553 O 341.638 -0.403246 -1.69468 0
M  V30 3554 C 338.77 -0.898123 -3.28856 0
M  V30 3555 H 339.963 -2.2021 -2.03587 0
M  V30 3556 H 337.516 -1.17281 -1.03319 0
M  V30 3557 H 338.251 0.0693841 -3.24226 0
M  V30 3558 H 338.036 -1.67934 -3.54317 0
M  V30 3559 H 339.526 -0.852563 -4.08805 0
M  V30 3560 N 339.963 1.05934 -1.16686 0
M  V30 3561 C 341.24 1.75643 -0.860747 0
M  V30 3562 C 341.62 2.01144 0.640641 0
M  V30 3563 O 340.968 1.64147 1.58959 0
M  V30 3564 C 341.178 3.05493 -1.68745 0
M  V30 3565 C 342.526 3.79581 -1.90271 0
M  V30 3566 O 343.55 3.15344 -1.65641 0
M  V30 3567 O 342.409 4.9499 -2.31618 0
M  V30 3568 H 339.503 0.763426 -0.317977 0
M  V30 3569 H 342.049 1.1217 -1.27342 0
M  V30 3570 H 340.821 2.8264 -2.70611 0
M  V30 3571 H 340.444 3.76702 -1.27206 0
M  V30 3572 N 341.441 0.965919 1.2453 0
M  V30 3573 C 342.371 0.513476 2.27784 0
M  V30 3574 C 343.352 -0.445974 1.6415 0
M  V30 3575 O 344.537 -0.342485 1.91156 0
M  V30 3576 C 341.667 -0.198839 3.4673 0
M  V30 3577 C 340.621 0.676456 4.2262 0
M  V30 3578 C 339.947 -0.167248 5.34438 0
M  V30 3579 C 341.247 1.96017 4.84123 0
M  V30 3580 H 342.941 1.3765 2.65881 0
M  V30 3581 H 340.487 0.663321 1.27813 0
M  V30 3582 H 342.44 -0.526567 4.18097 0
M  V30 3583 H 341.164 -1.0962 3.07654 0
M  V30 3584 H 339.823 0.98743 3.53052 0
M  V30 3585 H 339.471 -1.0647 4.91603 0
M  V30 3586 H 339.171 0.415181 5.86131 0
M  V30 3587 H 340.695 -0.489688 6.08633 0
M  V30 3588 H 342.109 1.69814 5.47573 0
M  V30 3589 H 340.506 2.48918 5.4604 0
M  V30 3590 H 341.576 2.65622 4.05676 0
M  V30 3591 N 342.919 -1.39368 0.735821 0
M  V30 3592 C 344.144 -2.05319 0.293052 0
M  V30 3593 C 344.569 -1.55115 -1.064 0
M  V30 3594 O 343.927 -0.695261 -1.67439 0
M  V30 3595 C 343.975 -3.59305 0.305323 0
M  V30 3596 O 343.079 -4.06299 -0.706761 0
M  V30 3597 H 342.42 -0.650529 0.13307 0
M  V30 3598 H 344.95 -1.78386 1.00197 0
M  V30 3599 H 344.96 -4.07724 0.149997 0
M  V30 3600 H 343.635 -3.95207 1.29553 0
M  V30 3601 H 342.212 -3.69292 -0.517504 0
M  V30 3602 N 344.397 -0.483516 -1.5 0
M  V30 3603 C 345.329 0.340634 -2.26655 0
M  V30 3604 C 346.342 0.946152 -1.32483 0
M  V30 3605 O 347.531 0.832453 -1.579 0
M  V30 3606 C 344.631 1.4929 -3.04246 0
M  V30 3607 C 343.804 0.997903 -4.25865 0
M  V30 3608 C 342.863 2.02569 -4.85646 0
M  V30 3609 O 341.889 1.60128 -5.46212 0
M  V30 3610 N 343.091 3.3548 -4.73744 0
M  V30 3611 H 345.856 -0.316577 -2.98023 0
M  V30 3612 H 343.417 -0.315024 -1.58806 0
M  V30 3613 H 345.409 2.17766 -3.41116 0
M  V30 3614 H 343.979 2.05458 -2.35597 0
M  V30 3615 H 343.199 0.138617 -3.93956 0
M  V30 3616 H 344.487 0.645305 -5.04691 0
M  V30 3617 H 343.885 3.72661 -4.25605 0
M  V30 3618 H 342.442 3.99718 -5.14848 0
M  V30 3619 N 345.875 1.56104 -0.216619 0
M  V30 3620 C 346.785 2.23694 0.706982 0
M  V30 3621 C 347.801 1.24295 1.21765 0
M  V30 3622 O 348.977 1.57094 1.2603 0
M  V30 3623 C 346.042 2.8998 1.90033 0
M  V30 3624 C 345.103 4.04708 1.43213 0
M  V30 3625 C 344.336 4.67824 2.56859 0
M  V30 3626 O 344.559 4.29913 3.74874 0
M  V30 3627 O 343.493 5.56905 2.28343 0
M  V30 3628 H 347.319 3.03272 0.161235 0
M  V30 3629 H 344.904 1.49394 0.0136177 0
M  V30 3630 H 346.786 3.31837 2.59735 0
M  V30 3631 H 345.461 2.13365 2.43428 0
M  V30 3632 H 344.368 3.6743 0.70327 0
M  V30 3633 H 345.701 4.83051 0.944615 0
M  V30 3634 N 347.353 -0.0568162 1.57498 0
M  V30 3635 C 348.301 -1.08452 2.05769 0
M  V30 3636 C 349.295 -1.39164 0.965903 0
M  V30 3637 O 350.501 -1.38395 1.15095 0
M  V30 3638 H 346.876 -0.367148 0.656282 0
M  V30 3639 H 348.847 -0.651368 2.91204 0
M  V30 3640 C 347.596 -2.38543 2.52968 0
M  V30 3641 H 346.919 -2.15765 3.36579 0
M  V30 3642 H 348.359 -3.08863 2.90481 0
M  V30 3643 C 346.818 -3.05562 1.41893 0
M  V30 3644 O 347.348 -3.94262 0.769442 0
M  V30 3645 N 345.554 -2.6643 1.16032 0
M  V30 3646 H 345.101 -1.94387 1.6903 0
M  V30 3647 H 345.059 -3.11593 0.419219 0
M  V30 3648 N 348.832 -1.54138 -0.328536 0
M  V30 3649 C 350.08 -1.71765 -1.06496 0
M  V30 3650 C 350.401 -0.49149 -1.88704 0
M  V30 3651 O 349.671 0.494539 -1.89555 0
M  V30 3652 H 348.251 -0.633295 -0.396164 0
M  V30 3653 H 350.913 -1.91429 -0.366176 0
M  V30 3654 H 350.009 -2.5951 -1.73381 0
M  V30 3655 N 350.31 0.590341 -1.46126 0
M  V30 3656 C 351.538 1.37504 -1.54597 0
M  V30 3657 C 351.953 1.87897 -0.184447 0
M  V30 3658 O 351.31 1.63192 0.816984 0
M  V30 3659 C 351.361 2.56779 -2.54454 0
M  V30 3660 O 351.082 2.08476 -3.85317 0
M  V30 3661 C 352.583 3.49427 -2.72792 0
M  V30 3662 H 349.803 0.420325 -0.523037 0
M  V30 3663 H 352.347 0.718383 -1.91467 0
M  V30 3664 H 350.502 3.1845 -2.20609 0
M  V30 3665 H 350.916 2.86097 -4.396 0
M  V30 3666 H 352.39 4.29619 -3.466 0
M  V30 3667 H 352.867 4.00876 -1.79429 0
M  V30 3668 H 353.473 2.93598 -3.07702 0
M  V30 3669 N 351.788 1.33704 0.83433 0
M  V30 3670 C 353.037 1.24763 1.58484 0
M  V30 3671 C 353.35 -0.183775 1.94735 0
M  V30 3672 O 354.556 -0.395234 2.68608 0
M  V30 3673 C 353.012 2.18638 2.85876 0
M  V30 3674 C 352.62 3.66974 2.56971 0
M  V30 3675 C 354.364 2.18581 3.63899 0
M  V30 3676 C 352.271 4.5275 3.80488 0
M  V30 3677 H 351.201 0.463425 0.594772 0
M  V30 3678 H 353.852 1.58797 0.919551 0
M  V30 3679 H 352.234 1.77542 3.5397 0
M  V30 3680 H 353.408 4.16538 1.9706 0
M  V30 3681 H 351.723 3.69366 1.92244 0
M  V30 3682 H 354.32 2.79894 4.55591 0
M  V30 3683 H 354.663 1.18207 3.99165 0
M  V30 3684 H 355.196 2.58062 3.02735 0
M  V30 3685 H 351.935 5.54017 3.5035 0
M  V30 3686 H 351.455 4.07927 4.39722 0
M  V30 3687 H 353.134 4.66784 4.4802 0
M  V30 3688 N 353.266 -1.05314 1.17247 0
M  V30 3689 C 354.229 -2.112 0.890357 0
M  V30 3690 C 355.229 -1.60359 -0.118943 0
M  V30 3691 O 356.419 -1.73833 0.113086 0
M  V30 3692 C 353.551 -3.39266 0.333422 0
M  V30 3693 H 354.744 -2.37659 1.82916 0
M  V30 3694 H 352.297 -1.21538 0.982758 0
M  V30 3695 H 353.032 -3.18462 -0.612587 0
M  V30 3696 H 352.817 -3.77477 1.06082 0
M  V30 3697 H 354.307 -4.17315 0.154322 0
M  V30 3698 N 354.744 -0.972509 -1.24016 0
M  V30 3699 C 355.676 -0.464375 -2.24446 0
M  V30 3700 C 356.689 0.4295 -1.57032 0
M  V30 3701 O 357.878 0.234902 -1.76948 0
M  V30 3702 C 354.978 0.348385 -3.37105 0
M  V30 3703 C 354.151 -0.53673 -4.34094 0
M  V30 3704 C 353.21 0.220838 -5.25736 0
M  V30 3705 O 352.236 -0.386867 -5.67884 0
M  V30 3706 N 353.438 1.50907 -5.60542 0
M  V30 3707 H 356.203 -1.32788 -2.68677 0
M  V30 3708 H 353.764 -0.844877 -1.38107 0
M  V30 3709 H 355.756 0.863341 -3.95384 0
M  V30 3710 H 354.326 1.11285 -2.92121 0
M  V30 3711 H 353.546 -1.23261 -3.74433 0
M  V30 3712 H 354.834 -1.14022 -4.95859 0
M  V30 3713 H 354.232 2.02444 -5.28236 0
M  V30 3714 H 352.789 1.96962 -6.21329 0
M  V30 3715 N 356.222 1.38976 -0.743202 0
M  V30 3716 C 357.452 2.04339 -0.304807 0
M  V30 3717 C 357.86 1.56162 1.06819 0
M  V30 3718 O 357.203 0.725284 1.68776 0
M  V30 3719 C 357.265 3.58716 -0.237369 0
M  V30 3720 C 356.929 4.29905 -1.55018 0
M  V30 3721 C 357.926 4.55987 -2.49744 0
M  V30 3722 C 355.611 4.68294 -1.81675 0
M  V30 3723 C 357.605 5.19478 -3.69353 0
M  V30 3724 C 355.292 5.31512 -3.0156 0
M  V30 3725 C 356.29 5.57037 -3.9522 0
M  V30 3726 O 355.978 6.18941 -5.12998 0
M  V30 3727 H 355.71 0.663439 -0.12971 0
M  V30 3728 H 358.264 1.78852 -1.01001 0
M  V30 3729 H 356.494 3.83133 0.524003 0
M  V30 3730 H 358.183 4.05543 0.170121 0
M  V30 3731 H 358.949 4.26767 -2.30423 0
M  V30 3732 H 354.828 4.47779 -1.09615 0
M  V30 3733 H 358.372 5.39318 -4.42473 0
M  V30 3734 H 354.269 5.60153 -3.20778 0
M  V30 3735 H 355.037 6.37433 -5.13441 0
M  V30 3736 N 357.7 0.491464 1.49741 0
M  V30 3737 C 358.63 -0.28154 2.31796 0
M  V30 3738 C 359.611 -0.971473 1.3963 0
M  V30 3739 O 360.796 -0.964719 1.68543 0
M  V30 3740 C 357.926 -1.35203 3.19902 0
M  V30 3741 C 356.88 -0.782529 4.20786 0
M  V30 3742 C 356.206 -1.95283 4.97764 0
M  V30 3743 C 357.506 0.21999 5.21837 0
M  V30 3744 H 359.2 0.403355 2.96671 0
M  V30 3745 H 356.746 0.195425 1.42668 0
M  V30 3746 H 358.699 -1.90045 3.76113 0
M  V30 3747 H 357.423 -2.06598 2.52953 0
M  V30 3748 H 356.082 -0.255928 3.65706 0
M  V30 3749 H 355.73 -2.65423 4.2727 0
M  V30 3750 H 355.43 -1.57789 5.66018 0
M  V30 3751 H 356.954 -2.50577 5.56816 0
M  V30 3752 H 358.368 -0.23996 5.72798 0
M  V30 3753 H 356.765 0.51026 5.97927 0
M  V30 3754 H 357.835 1.13911 4.7133 0
M  V30 3755 N 359.178 -1.55987 0.224894 0
M  V30 3756 C 360.406 -2.02784 -0.410665 0
M  V30 3757 C 360.821 -1.10464 -1.53112 0
M  V30 3758 O 360.178 -0.114871 -1.82138 0
M  V30 3759 C 360.229 -3.49087 -0.939165 0
M  V30 3760 O 359.95 -4.37887 0.136614 0
M  V30 3761 C 361.451 -4.11543 -1.64763 0
M  V30 3762 H 358.671 -0.663484 -0.100148 0
M  V30 3763 H 361.215 -2.01614 0.342326 0
M  V30 3764 H 359.37 -3.50861 -1.64242 0
M  V30 3765 H 359.784 -5.23849 -0.261155 0
M  V30 3766 H 361.258 -5.15673 -1.96939 0
M  V30 3767 H 361.735 -3.56736 -2.56195 0
M  V30 3768 H 362.341 -4.13629 -0.989503 0
M  V30 3769 N 360.656 0.0484629 -1.57525 0
M  V30 3770 C 361.933 0.777447 -1.79486 0
M  V30 3771 C 362.313 1.94597 -0.818251 0
M  V30 3772 O 361.661 2.28047 0.143767 0
M  V30 3773 C 361.871 1.22864 -3.26658 0
M  V30 3774 C 363.219 1.65251 -3.91123 0
M  V30 3775 O 364.243 1.32372 -3.3069 0
M  V30 3776 O 363.102 2.26207 -4.97486 0
M  V30 3777 H 360.196 0.374357 -0.737419 0
M  V30 3778 H 362.742 0.0267359 -1.69679 0
M  V30 3779 H 361.514 0.393589 -3.89316 0
M  V30 3780 H 361.137 2.03996 -3.41279 0
M  V30 3781 N 362.134 1.5431 0.320358 0
M  V30 3782 C 363.097 1.83195 1.3774 0
M  V30 3783 C 364.097 0.703906 1.44575 0
M  V30 3784 O 365.287 0.972214 1.44546 0
M  V30 3785 C 362.419 1.99487 2.76438 0
M  V30 3786 H 363.612 2.77642 1.1338 0
M  V30 3787 H 361.165 1.46076 0.556012 0
M  V30 3788 H 361.9 1.07262 3.06048 0
M  V30 3789 H 361.685 2.81575 2.7287 0
M  V30 3790 H 363.175 2.23271 3.52902 0
M  V30 3791 N 363.613 -0.582584 1.46437 0
M  V30 3792 C 364.576 -1.67366 1.56592 0
M  V30 3793 C 365.576 -1.54575 0.443072 0
M  V30 3794 O 366.766 -1.59191 0.707381 0
M  V30 3795 C 363.898 -3.06791 1.48634 0
M  V30 3796 H 365.091 -1.5972 2.5383 0
M  V30 3797 H 362.644 -0.800432 1.34249 0
M  V30 3798 H 363.379 -3.19993 0.526763 0
M  V30 3799 H 363.164 -3.17484 2.30101 0
M  V30 3800 H 364.654 -3.86218 1.58826 0
M  V30 3801 N 365.091 -1.34144 -0.827227 0
M  V30 3802 C 366.337 -1.26446 -1.58554 0
M  V30 3803 C 366.67 0.1664 -1.93486 0
M  V30 3804 O 365.945 1.1107 -1.59667 0
M  V30 3805 C 366.228 -2.15111 -2.8879 0
M  V30 3806 C 366.081 -3.66712 -2.60465 0
M  V30 3807 C 367.4 -2.03311 -3.90324 0
M  V30 3808 H 364.519 -0.46067 -0.575284 0
M  V30 3809 H 367.161 -1.64356 -0.953269 0
M  V30 3810 H 365.311 -1.8291 -3.42748 0
M  V30 3811 H 366.983 -4.09259 -2.1285 0
M  V30 3812 H 365.226 -3.88014 -1.93978 0
M  V30 3813 H 365.897 -4.24112 -3.53317 0
M  V30 3814 H 368.373 -2.31574 -3.45706 0
M  V30 3815 H 367.249 -2.67582 -4.79261 0
M  V30 3816 H 367.51 -1.00879 -4.30437 0
M  V30 3817 N 366.569 1.04691 -1.17803 0
M  V30 3818 C 367.501 2.12571 -0.857097 0
M  V30 3819 C 368.514 1.62174 0.142647 0
M  V30 3820 O 369.703 1.78301 -0.0843387 0
M  V30 3821 C 366.803 3.37915 -0.258216 0
M  V30 3822 C 365.976 4.1757 -1.30207 0
M  V30 3823 C 365.035 5.2125 -0.720029 0
M  V30 3824 O 364.061 5.51888 -1.39314 0
M  V30 3825 N 365.263 5.78466 0.485507 0
M  V30 3826 H 368.028 2.40698 -1.78562 0
M  V30 3827 H 365.589 1.20831 -1.07757 0
M  V30 3828 H 367.581 4.04442 0.144584 0
M  V30 3829 H 366.151 3.07281 0.574199 0
M  V30 3830 H 365.371 3.46458 -1.88043 0
M  V30 3831 H 366.659 4.67586 -2.00601 0
M  V30 3832 H 366.057 5.55866 1.05022 0
M  V30 3833 H 364.614 6.4649 0.830307 0
M  V30 3834 N 368.047 0.979072 1.23499 0
M  V30 3835 C 368.977 0.537606 2.27227 0
M  V30 3836 C 369.958 -0.428539 1.64613 0
M  V30 3837 O 371.143 -0.322191 1.91509 0
M  V30 3838 C 368.273 -0.162052 3.46922 0
M  V30 3839 C 367.227 0.721242 4.21879 0
M  V30 3840 C 366.553 -0.110555 5.34586 0
M  V30 3841 C 367.853 2.01141 4.82016 0
M  V30 3842 H 369.547 1.40462 2.64406 0
M  V30 3843 H 367.093 0.67684 1.27102 0
M  V30 3844 H 369.046 -0.482192 4.18632 0
M  V30 3845 H 367.77 -1.06351 3.08799 0
M  V30 3846 H 366.429 1.02482 3.51984 0
M  V30 3847 H 366.077 -1.0125 4.92704 0
M  V30 3848 H 365.777 0.477325 5.85658 0
M  V30 3849 H 367.301 -0.425107 6.09118 0
M  V30 3850 H 368.715 1.75612 5.45741 0
M  V30 3851 H 367.112 2.54695 5.43369 0
M  V30 3852 H 368.182 2.69909 4.02836 0
M  V30 3853 N 369.525 -1.3858 0.750561 0
M  V30 3854 C 370.771 -2.00481 0.305825 0
M  V30 3855 C 371.104 -1.5944 -1.10872 0
M  V30 3856 O 370.379 -0.83052 -1.75877 0
M  V30 3857 C 370.662 -3.5758 0.425287 0
M  V30 3858 C 370.515 -4.08594 1.88072 0
M  V30 3859 C 371.834 -4.39719 -0.183122 0
M  V30 3860 H 368.953 -0.728348 0.112598 0
M  V30 3861 H 371.595 -1.64566 0.949638 0
M  V30 3862 H 369.745 -3.88306 -0.122828 0
M  V30 3863 H 371.417 -3.88523 2.48691 0
M  V30 3864 H 369.66 -3.61574 2.39681 0
M  V30 3865 H 370.331 -5.177 1.91548 0
M  V30 3866 H 372.807 -4.15128 0.284303 0
M  V30 3867 H 371.683 -5.48856 -0.0692757 0
M  V30 3868 H 371.944 -4.23434 -1.27106 0
M  V30 3869 N 371.003 -0.499398 -1.49478 0
M  V30 3870 C 371.966 0.268838 -2.27618 0
M  V30 3871 C 372.966 0.895383 -1.33565 0
M  V30 3872 O 374.156 0.760164 -1.56739 0
M  V30 3873 C 371.288 1.38559 -3.11471 0
M  V30 3874 H 372.481 -0.416812 -2.96989 0
M  V30 3875 H 370.034 -0.254313 -1.54217 0
M  V30 3876 H 370.769 2.10544 -2.46661 0
M  V30 3877 H 370.554 0.941797 -3.80621 0
M  V30 3878 H 372.044 1.92678 -3.70493 0
M  V30 3879 N 372.481 1.55866 -0.233164 0
M  V30 3880 C 373.431 2.17442 0.685774 0
M  V30 3881 C 374.415 1.12617 1.14918 0
M  V30 3882 O 375.607 1.3857 1.10124 0
M  V30 3883 C 372.736 2.86685 1.88856 0
M  V30 3884 C 371.822 3.98749 1.4443 0
M  V30 3885 N 372.213 5.00744 0.713364 0
M  V30 3886 C 370.511 4.11052 1.73068 0
M  V30 3887 C 371.212 5.79673 0.485205 0
M  V30 3888 N 370.188 5.33454 1.04536 0
M  V30 3889 H 373.99 2.93659 0.119022 0
M  V30 3890 H 371.504 1.62362 -0.0348995 0
M  V30 3891 H 373.501 3.29218 2.55776 0
M  V30 3892 H 372.161 2.11967 2.45967 0
M  V30 3893 H 373.172 5.16613 0.364861 0
M  V30 3894 H 369.849 3.47495 2.31416 0
M  V30 3895 H 371.239 6.71829 -0.097365 0
M  V30 3896 N 373.959 -0.0401083 1.57549 0
M  V30 3897 C 375.207 -0.731677 1.8839 0
M  V30 3898 C 375.528 -1.76481 0.829425 0
M  V30 3899 O 374.798 -1.95411 -0.1383 0
M  V30 3900 H 373.378 -0.273225 0.695239 0
M  V30 3901 H 376.04 -0.00867725 1.94898 0
M  V30 3902 H 375.136 -1.22816 2.86919 0
M  V30 3903 N 375.437 -1.54477 -0.31217 0
M  V30 3904 C 376.4 -1.83923 -1.36766 0
M  V30 3905 C 377.4 -0.711563 -1.44199 0
M  V30 3906 O 378.59 -0.979866 -1.44029 0
M  V30 3907 C 375.722 -2.0095 -2.75376 0
M  V30 3908 H 376.915 -2.78239 -1.11906 0
M  V30 3909 H 374.468 -1.46369 -0.548257 0
M  V30 3910 H 375.203 -1.08883 -3.05475 0
M  V30 3911 H 374.988 -2.83018 -2.71373 0
M  V30 3912 H 376.478 -2.2514 -3.51713 0
M  V30 3913 N 376.915 0.57481 -1.46744 0
M  V30 3914 C 378.192 1.3352 -1.4294 0
M  V30 3915 C 378.572 2.10775 -0.117009 0
M  V30 3916 O 377.92 2.09966 0.901474 0
M  V30 3917 C 378.13 2.25456 -2.66403 0
M  V30 3918 C 379.478 2.87035 -3.12883 0
M  V30 3919 O 380.502 2.35766 -2.67007 0
M  V30 3920 O 379.361 3.80179 -3.92589 0
M  V30 3921 H 376.455 0.600318 -0.568812 0
M  V30 3922 H 379.001 0.595171 -1.58921 0
M  V30 3923 H 377.773 1.67851 -3.53471 0
M  V30 3924 H 377.396 3.06785 -2.52921 0
M  V30 3925 N 378.394 1.34581 0.820102 0
M  V30 3926 C 379.642 1.26845 1.57336 0
M  V30 3927 C 379.963 -0.160667 1.94337 0
M  V30 3928 O 379.233 -1.09396 1.6251 0
M  V30 3929 H 377.813 0.466514 0.583415 0
M  V30 3930 H 380.475 1.68526 0.979027 0
M  V30 3931 H 379.571 1.87513 2.4949 0
M  V30 3932 N 379.872 -1.04064 1.18357 0
M  V30 3933 C 380.802 -2.14001 0.934113 0
M  V30 3934 C 381.783 -1.69616 -0.128186 0
M  V30 3935 O 382.968 -1.94185 0.0244093 0
M  V30 3936 C 380.098 -3.44253 0.459066 0
M  V30 3937 C 379.052 -4.02261 1.46185 0
M  V30 3938 C 378.378 -5.27992 0.844322 0
M  V30 3939 C 379.678 -4.38432 2.83856 0
M  V30 3940 H 381.372 -2.35127 1.85352 0
M  V30 3941 H 378.918 -1.12998 0.892604 0
M  V30 3942 H 380.871 -4.20522 0.271907 0
M  V30 3943 H 379.595 -3.22813 -0.495912 0
M  V30 3944 H 378.254 -3.28074 1.63595 0
M  V30 3945 H 377.902 -5.02862 -0.117845 0
M  V30 3946 H 377.602 -5.67765 1.51384 0
M  V30 3947 H 379.126 -6.06938 0.667693 0
M  V30 3948 H 380.54 -5.05688 2.70098 0
M  V30 3949 H 378.937 -4.89254 3.47491 0
M  V30 3950 H 380.007 -3.4826 3.37406 0
M  V30 3951 N 381.35 -0.985608 -1.22978 0
M  V30 3952 C 382.766 -0.695104 -1.43668 0
M  V30 3953 C 382.966 0.736866 -1.87543 0
M  V30 3954 O 382.022 1.50868 -2.02473 0
M  V30 3955 C 383.335 -1.69447 -2.48412 0
M  V30 3956 C 384.883 -1.70909 -2.62219 0
M  V30 3957 C 385.358 -2.6969 -3.70178 0
M  V30 3958 N 386.849 -2.6824 -3.77626 0
M  V30 3959 C 387.584 -3.41339 -4.60733 0
M  V30 3960 N 387.08 -4.24015 -5.4789 0
M  V30 3961 N 388.873 -3.30079 -4.54977 0
M  V30 3962 H 381.024 -1.91054 -0.928016 0
M  V30 3963 H 383.287 -0.823553 -0.469536 0
M  V30 3964 H 382.993 -2.7188 -2.23102 0
M  V30 3965 H 382.867 -1.48147 -3.46889 0
M  V30 3966 H 385.254 -0.691785 -2.86877 0
M  V30 3967 H 385.335 -1.96276 -1.6404 0
M  V30 3968 H 384.979 -3.71566 -3.46268 0
M  V30 3969 H 384.909 -2.41595 -4.67909 0
M  V30 3970 H 387.4 -2.08243 -3.15346 0
M  V30 3971 H 387.713 -4.76636 -6.08308 0
M  V30 3972 H 386.058 -4.28104 -5.47496 0
M  V30 3973 H 389.249 -2.64937 -3.85909 0
M  V30 3974 H 389.422 -3.87308 -5.19516 0
M  V30 3975 N 382.828 1.3818 -0.7579 0
M  V30 3976 C 384.077 1.99261 -0.312744 0
M  V30 3977 C 384.39 1.60846 1.11301 0
M  V30 3978 O 385.596 2.14929 1.65885 0
M  V30 3979 C 384.052 3.56294 -0.50821 0
M  V30 3980 C 383.66 4.03657 -1.94333 0
M  V30 3981 C 385.404 4.24313 -0.125982 0
M  V30 3982 C 383.311 5.53347 -2.08712 0
M  V30 3983 H 382.241 0.745456 -0.113185 0
M  V30 3984 H 384.892 1.57889 -0.935056 0
M  V30 3985 H 383.274 3.95575 0.183353 0
M  V30 3986 H 384.448 3.75655 -2.66871 0
M  V30 3987 H 382.763 3.48376 -2.28086 0
M  V30 3988 H 385.36 5.34279 -0.212125 0
M  V30 3989 H 385.703 4.05962 0.921964 0
M  V30 3990 H 386.236 3.90285 -0.769563 0
M  V30 3991 H 382.975 5.76607 -3.11777 0
M  V30 3992 H 382.495 5.83078 -1.4064 0
M  V30 3993 H 384.174 6.19111 -1.87912 0
M  V30 3994 N 384.306 0.507319 1.49211 0
M  V30 3995 C 385.583 -0.0982702 1.95353 0
M  V30 3996 C 385.963 -1.53516 1.449 0
M  V30 3997 O 385.311 -2.18594 0.66551 0
M  V30 3998 C 385.521 -0.00440283 3.49 0
M  V30 3999 C 386.869 -0.175147 4.24239 0
M  V30 4000 O 387.893 -0.0792891 3.56112 0
M  V30 4001 O 386.752 -0.37276 5.45227 0
M  V30 4002 H 383.846 -0.0918236 0.821887 0
M  V30 4003 H 386.392 0.570307 1.5983 0
M  V30 4004 H 385.164 0.997402 3.78375 0
M  V30 4005 H 384.787 -0.712845 3.91158 0
M  V30 4006 N 385.784 -1.5574 0.241426 0
M  V30 4007 C 386.747 -2.19877 -0.647063 0
M  V30 4008 C 387.747 -1.16642 -1.10686 0
M  V30 4009 O 388.937 -1.41757 -1.01245 0
M  V30 4010 C 386.069 -2.83797 -1.88871 0
M  V30 4011 H 387.262 -2.99772 -0.087574 0
M  V30 4012 H 384.815 -1.56298 -0.00813574 0
M  V30 4013 H 385.55 -2.07824 -2.48957 0
M  V30 4014 H 385.335 -3.59414 -1.56728 0
M  V30 4015 H 386.825 -3.32898 -2.52129 0
M  V30 4016 N 387.262 0.0317525 -1.57568 0
M  V30 4017 C 388.508 0.724175 -1.8943 0
M  V30 4018 C 388.841 1.75149 -0.838836 0
M  V30 4019 O 388.116 1.93948 0.146422 0
M  V30 4020 C 388.399 1.39615 -3.31933 0
M  V30 4021 C 388.252 0.382537 -4.4817 0
M  V30 4022 C 389.571 2.33084 -3.73309 0
M  V30 4023 H 386.69 0.261797 -0.688935 0
M  V30 4024 H 389.332 -0.013017 -1.89996 0
M  V30 4025 H 387.482 2.02451 -3.31581 0
M  V30 4026 H 389.154 -0.243689 -4.60656 0
M  V30 4027 H 387.397 -0.29844 -4.32772 0
M  V30 4028 H 388.068 0.891145 -5.44759 0
M  V30 4029 H 390.544 1.80295 -3.7501 0
M  V30 4030 H 389.42 2.77084 -4.73831 0
M  V30 4031 H 389.681 3.19643 -3.05419 0
M  V30 4032 N 388.74 1.54641 0.303973 0
M  V30 4033 C 389.687 1.85386 1.37479 0
M  V30 4034 C 390.657 0.702528 1.50512 0
M  V30 4035 O 391.842 0.950867 1.65418 0
M  V30 4036 C 388.982 2.10413 2.73533 0
M  V30 4037 C 388.095 3.38049 2.68974 0
M  V30 4038 C 387.23 3.52934 3.97002 0
M  V30 4039 C 386.269 4.74373 3.86829 0
M  V30 4040 N 385.406 4.8608 5.06627 0
M  V30 4041 H 390.246 2.76732 1.1056 0
M  V30 4042 H 387.783 1.37034 0.534805 0
M  V30 4043 H 389.741 2.22919 3.52652 0
M  V30 4044 H 388.371 1.22338 2.98719 0
M  V30 4045 H 387.423 3.3418 1.81736 0
M  V30 4046 H 388.735 4.27288 2.57346 0
M  V30 4047 H 387.889 3.65088 4.84557 0
M  V30 4048 H 386.628 2.61824 4.1146 0
M  V30 4049 H 385.633 4.62255 2.97658 0
M  V30 4050 H 386.858 5.66888 3.73918 0
M  V30 4051 H 384.804 3.97891 5.21554 0
M  V30 4052 H 384.721 5.69315 4.9741 0
M  V30 4053 H 385.989 5.02587 5.95841 0
M  V30 4054 N 390.218 -0.567019 1.47046 0
M  V30 4055 C 391.168 -1.67018 1.55207 0
M  V30 4056 C 392.152 -1.55543 0.411714 0
M  V30 4057 O 393.344 -1.64192 0.661064 0
M  V30 4058 C 390.473 -3.05801 1.56014 0
M  V30 4059 C 389.559 -3.22515 2.75399 0
M  V30 4060 N 389.95 -3.09329 4.00186 0
M  V30 4061 C 388.248 -3.53493 2.71954 0
M  V30 4062 C 388.949 -3.2847 4.80086 0
M  V30 4063 N 387.925 -3.54352 4.12233 0
M  V30 4064 H 391.727 -1.55377 2.4947 0
M  V30 4065 H 389.241 -0.771503 1.42904 0
M  V30 4066 H 391.238 -3.84996 1.59949 0
M  V30 4067 H 389.898 -3.18561 0.628396 0
M  V30 4068 H 390.909 -2.86863 4.31196 0
M  V30 4069 H 387.586 -3.7284 1.87873 0
M  V30 4070 H 388.976 -3.23326 5.88991 0
M  V30 4071 N 391.696 -1.35014 -0.812953 0
M  V30 4072 C 392.943 -1.27931 -1.56971 0
M  V30 4073 C 393.271 0.148034 -1.93936 0
M  V30 4074 O 392.526 1.11175 -1.61054 0
M  V30 4075 C 392.825 -2.12524 -2.87347 0
M  V30 4076 C 392.491 -3.61401 -2.6963 0
M  V30 4077 C 391.153 -4.01983 -2.64506 0
M  V30 4078 C 393.505 -4.55894 -2.52607 0
M  V30 4079 C 390.833 -5.35235 -2.40293 0
M  V30 4080 C 393.185 -5.89336 -2.29925 0
M  V30 4081 C 391.849 -6.2907 -2.23219 0
M  V30 4082 H 391.119 -0.468131 -0.574399 0
M  V30 4083 H 393.766 -1.66851 -0.939836 0
M  V30 4084 H 392.071 -1.66463 -3.54679 0
M  V30 4085 H 393.768 -2.04383 -3.45005 0
M  V30 4086 H 390.358 -3.29193 -2.74463 0
M  V30 4087 H 394.542 -4.25431 -2.55583 0
M  V30 4088 H 389.798 -5.65028 -2.33566 0
M  V30 4089 H 393.972 -6.62139 -2.15743 0
M  V30 4090 H 391.599 -7.32256 -2.04219 0
M  V30 4091 N 393.175 1.03435 -1.18907 0
M  V30 4092 C 394.123 2.13703 -0.918353 0
M  V30 4093 C 395.117 1.68947 0.123767 0
M  V30 4094 O 396.323 1.79983 -0.0249701 0
M  V30 4095 H 392.698 0.698112 -0.279542 0
M  V30 4096 H 394.669 2.33731 -1.85506 0
M  V30 4097 C 393.418 3.44542 -0.467532 0
M  V30 4098 H 392.741 3.79394 -1.26095 0
M  V30 4099 H 394.181 4.22812 -0.317164 0
M  V30 4100 C 392.64 3.26829 0.817588 0
M  V30 4101 O 393.17 3.54975 1.88031 0
M  V30 4102 N 391.376 2.80139 0.772677 0
M  V30 4103 H 390.923 2.57434 -0.0923883 0
M  V30 4104 H 390.881 2.68668 1.63294 0
M  V30 4105 N 394.653 0.992116 1.22453 0
M  V30 4106 C 395.878 0.685644 1.95739 0
M  V30 4107 C 396.303 -0.743 1.72804 0
M  V30 4108 O 395.661 -1.50778 1.00676 0
M  V30 4109 C 395.709 0.996293 3.46564 0
M  V30 4110 O 394.813 0.0945512 4.12292 0
M  V30 4111 H 394.154 0.256694 0.612376 0
M  V30 4112 H 396.684 1.32888 1.5557 0
M  V30 4113 H 396.694 0.93781 3.97076 0
M  V30 4114 H 395.369 2.03733 3.62582 0
M  V30 4115 H 393.946 0.208451 3.72317 0
M  V30 4116 N 396.131 -1.37776 0.765217 0
M  V30 4117 C 397.379 -1.99454 0.325943 0
M  V30 4118 C 397.7 -1.61049 -1.09947 0
M  V30 4119 O 396.97 -0.872821 -1.75381 0
M  V30 4120 H 395.55 -0.737697 0.117525 0
M  V30 4121 H 398.212 -1.68359 0.981895 0
M  V30 4122 H 397.308 -3.09547 0.398353 0
M  V30 4123 N 397.609 -0.515225 -1.4894 0
M  V30 4124 C 398.856 0.024215 -2.02486 0
M  V30 4125 C 399.184 1.35671 -1.39368 0
M  V30 4126 O 398.439 1.88566 -0.523574 0
M  V30 4127 C 398.738 0.210595 -3.56779 0
M  V30 4128 C 398.404 -1.04569 -4.38607 0
M  V30 4129 C 397.066 -1.39002 -4.60686 0
M  V30 4130 C 399.418 -1.88008 -4.86109 0
M  V30 4131 C 396.746 -2.568 -5.27514 0
M  V30 4132 C 399.098 -3.04972 -5.54234 0
M  V30 4133 C 397.762 -3.39768 -5.74555 0
M  V30 4134 H 397.032 0.00886088 -0.740947 0
M  V30 4135 H 399.679 -0.678263 -1.79086 0
M  V30 4136 H 397.984 0.99572 -3.78936 0
M  V30 4137 H 399.681 0.642659 -3.95817 0
M  V30 4138 H 396.271 -0.767497 -4.21672 0
M  V30 4139 H 400.455 -1.62719 -4.68867 0
M  V30 4140 H 395.711 -2.8398 -5.41447 0
M  V30 4141 H 399.885 -3.69943 -5.90013 0
M  V30 4142 H 397.512 -4.31148 -6.26112 0
M  V30 4143 N 399.087 1.5561 -0.249682 0
M  V30 4144 C 400.312 2.03865 0.381305 0
M  V30 4145 C 400.737 1.12769 1.50548 0
M  V30 4146 O 400.095 0.121189 1.80895 0
M  V30 4147 C 400.143 3.50101 0.863816 0
M  V30 4148 O 399.247 3.62132 1.97318 0
M  V30 4149 H 398.588 0.658827 0.0827194 0
M  V30 4150 H 401.118 2.01105 -0.376552 0
M  V30 4151 H 401.128 3.90975 1.1663 0
M  V30 4152 H 399.803 4.1588 0.0411816 0
M  V30 4153 H 398.38 3.33155 1.67517 0
M  V30 4154 N 400.565 -0.0233959 1.57583 0
M  V30 4155 C 401.512 -1.02224 2.06927 0
M  V30 4156 C 402.482 -1.35575 0.959617 0
M  V30 4157 O 403.667 -1.45815 1.23055 0
M  V30 4158 C 400.807 -2.31636 2.5581 0
M  V30 4159 C 399.92 -2.04394 3.80588 0
M  V30 4160 C 399.055 -3.27717 4.18061 0
M  V30 4161 C 398.094 -2.96056 5.3574 0
M  V30 4162 N 397.231 -4.11847 5.68618 0
M  V30 4163 H 402.071 -0.594504 2.9201 0
M  V30 4164 H 399.608 -0.281921 1.44373 0
M  V30 4165 H 401.566 -3.07258 2.82221 0
M  V30 4166 H 400.196 -2.72122 1.73636 0
M  V30 4167 H 399.248 -1.19244 3.61227 0
M  V30 4168 H 400.56 -1.77042 4.66323 0
M  V30 4169 H 399.714 -4.11702 4.4563 0
M  V30 4170 H 398.453 -3.58188 3.30988 0
M  V30 4171 H 397.458 -2.10474 5.07918 0
M  V30 4172 H 398.683 -2.66857 6.24471 0
M  V30 4173 H 396.629 -4.42258 4.84504 0
M  V30 4174 H 396.546 -3.87938 6.48876 0
M  V30 4175 H 397.814 -4.96689 6.00766 0
M  V30 4176 N 402.043 -1.548 -0.295768 0
M  V30 4177 C 403.268 -1.78653 -1.05346 0
M  V30 4178 C 403.693 -0.546894 -1.79974 0
M  V30 4179 O 403.051 0.502763 -1.7419 0
M  V30 4180 C 403.099 -2.99679 -2.00561 0
M  V30 4181 O 402.203 -2.7317 -3.08953 0
M  V30 4182 H 401.544 -0.59116 -0.302367 0
M  V30 4183 H 404.074 -2.01895 -0.331598 0
M  V30 4184 H 404.084 -3.27793 -2.42932 0
M  V30 4185 H 402.759 -3.89562 -1.4565 0
M  V30 4186 H 401.336 -2.56089 -2.71059 0
M  V30 4187 N 403.521 0.559213 -1.47345 0
M  V30 4188 C 404.451 1.67622 -1.62558 0
M  V30 4189 C 405.432 1.63331 -0.475087 0
M  V30 4190 O 406.617 1.80983 -0.704182 0
M  V30 4191 C 403.747 3.0626 -1.63774 0
M  V30 4192 C 402.701 3.25397 -2.7803 0
M  V30 4193 C 402.027 4.64801 -2.64318 0
M  V30 4194 C 403.327 3.10965 -4.19641 0
M  V30 4195 H 405.021 1.55146 -2.56067 0
M  V30 4196 H 402.567 0.744961 -1.23233 0
M  V30 4197 H 404.52 3.84247 -1.73008 0
M  V30 4198 H 403.244 3.1969 -0.66825 0
M  V30 4199 H 401.903 2.49817 -2.68304 0
M  V30 4200 H 401.551 4.75028 -1.65401 0
M  V30 4201 H 401.251 4.78555 -3.40968 0
M  V30 4202 H 402.775 5.44926 -2.75478 0
M  V30 4203 H 404.189 3.78772 -4.30354 0
M  V30 4204 H 402.586 3.36229 -4.97062 0
M  V30 4205 H 403.656 2.07736 -4.38148 0
M  V30 4206 N 404.999 1.35443 0.805782 0
M  V30 4207 C 405.962 1.28301 1.89925 0
M  V30 4208 C 406.962 0.194285 1.59622 0
M  V30 4209 O 408.152 0.448036 1.6834 0
M  V30 4210 C 405.284 0.984997 3.2636 0
M  V30 4211 H 406.477 2.2553 1.97677 0
M  V30 4212 H 404.03 1.19979 1.00173 0
M  V30 4213 H 404.765 0.016603 3.24296 0
M  V30 4214 H 404.55 1.77269 3.4974 0
M  V30 4215 H 406.04 0.960651 4.064 0
M  V30 4216 N 406.477 -1.02803 1.19454 0
M  V30 4217 C 407.754 -1.73299 0.907013 0
M  V30 4218 C 408.134 -2.02772 -0.587086 0
M  V30 4219 O 407.482 -1.68304 -1.54551 0
M  V30 4220 C 407.692 -3.00912 1.76785 0
M  V30 4221 C 409.04 -3.74403 2.00268 0
M  V30 4222 O 410.064 -3.10841 1.73943 0
M  V30 4223 O 408.923 -4.88675 2.4466 0
M  V30 4224 H 406.017 -0.754727 0.338106 0
M  V30 4225 H 408.563 -1.08754 1.30271 0
M  V30 4226 H 407.335 -2.75366 2.7801 0
M  V30 4227 H 406.958 -3.73197 1.37149 0
M  V30 4228 N 407.956 -0.998596 -1.21925 0
M  V30 4229 C 408.903 -0.553621 -2.24062 0
M  V30 4230 C 409.873 0.416999 -1.6078 0
M  V30 4231 O 411.058 0.320482 -1.88089 0
M  V30 4232 C 408.198 0.119959 -3.44891 0
M  V30 4233 C 407.311 -0.893077 -4.22668 0
M  V30 4234 C 406.446 -0.192424 -5.30851 0
M  V30 4235 C 405.485 -1.19344 -6.00353 0
M  V30 4236 N 404.622 -0.520707 -7.00166 0
M  V30 4237 H 409.462 -1.4293 -2.61486 0
M  V30 4238 H 406.999 -0.715838 -1.28507 0
M  V30 4239 H 408.957 0.527459 -4.13852 0
M  V30 4240 H 407.587 0.959389 -3.08214 0
M  V30 4241 H 406.639 -1.41886 -3.52948 0
M  V30 4242 H 407.951 -1.65512 -4.70539 0
M  V30 4243 H 407.105 0.271515 -6.06092 0
M  V30 4244 H 405.844 0.602075 -4.83969 0
M  V30 4245 H 404.849 -1.66795 -5.23889 0
M  V30 4246 H 406.074 -1.98891 -6.49322 0
M  V30 4247 H 404.02 0.254252 -6.55507 0
M  V30 4248 H 403.937 -1.2211 -7.46073 0
M  V30 4249 H 405.205 -0.0797596 -7.79459 0
M  V30 4250 N 409.434 1.37368 -0.772513 0
M  V30 4251 C 410.364 2.32856 -0.173304 0
M  V30 4252 C 411.345 1.55818 0.682262 0
M  V30 4253 O 412.53 1.84052 0.619566 0
M  V30 4254 C 409.66 3.40048 0.706007 0
M  V30 4255 C 408.614 4.27973 -0.0483144 0
M  V30 4256 C 407.94 5.26184 0.950491 0
M  V30 4257 C 409.24 5.07665 -1.22776 0
M  V30 4258 H 410.934 2.83217 -0.971002 0
M  V30 4259 H 408.48 1.3617 -0.468377 0
M  V30 4260 H 410.433 4.05827 1.13501 0
M  V30 4261 H 409.157 2.88214 1.53623 0
M  V30 4262 H 407.816 3.63726 -0.458107 0
M  V30 4263 H 407.464 4.7063 1.77529 0
M  V30 4264 H 407.164 5.85872 0.450314 0
M  V30 4265 H 408.688 5.94838 1.37842 0
M  V30 4266 H 410.102 5.66578 -0.875366 0
M  V30 4267 H 408.499 5.76681 -1.66007 0
M  V30 4268 H 409.569 4.40294 -2.03149 0
M  V30 4269 N 410.912 0.523116 1.48665 0
M  V30 4270 C 412.142 -0.00961724 2.06598 0
M  V30 4271 C 412.55 -1.29333 1.38093 0
M  V30 4272 O 411.893 -1.77846 0.46007 0
M  V30 4273 C 411.955 -0.311135 3.58151 0
M  V30 4274 C 411.619 0.878092 4.48485 0
M  V30 4275 C 412.616 1.77464 4.88674 0
M  V30 4276 C 410.301 1.08315 4.90483 0
M  V30 4277 C 412.295 2.86021 5.69623 0
M  V30 4278 C 409.982 2.17187 5.71203 0
M  V30 4279 C 410.98 3.05873 6.10681 0
M  V30 4280 O 410.668 4.12862 6.89783 0
M  V30 4281 H 410.4 0.0272658 0.67545 0
M  V30 4282 H 412.954 0.726156 1.92136 0
M  V30 4283 H 411.184 -1.10079 3.70701 0
M  V30 4284 H 412.873 -0.785125 3.98234 0
M  V30 4285 H 413.639 1.62813 4.56855 0
M  V30 4286 H 409.518 0.402149 4.59243 0
M  V30 4287 H 413.062 3.55272 6.00356 0
M  V30 4288 H 408.959 2.31824 6.02435 0
M  V30 4289 H 409.727 4.10487 7.08126 0
M  V30 4290 N 412.39 -1.55475 0.257931 0
M  V30 4291 C 413.322 -2.19192 -0.669881 0
M  V30 4292 C 414.335 -1.17148 -1.1305 0
M  V30 4293 O 415.524 -1.43959 -1.05537 0
M  V30 4294 C 412.624 -2.79016 -1.92363 0
M  V30 4295 C 411.797 -4.06586 -1.61265 0
M  V30 4296 C 410.856 -4.50622 -2.7171 0
M  V30 4297 O 409.882 -5.16765 -2.38627 0
M  V30 4298 N 411.084 -4.19325 -4.01431 0
M  V30 4299 H 413.849 -2.99441 -0.124635 0
M  V30 4300 H 411.41 -1.6171 0.0783311 0
M  V30 4301 H 413.402 -3.05427 -2.65511 0
M  V30 4302 H 411.972 -2.0286 -2.37837 0
M  V30 4303 H 411.192 -3.87646 -0.715811 0
M  V30 4304 H 412.48 -4.89737 -1.37967 0
M  V30 4305 H 411.878 -3.66247 -4.31138 0
M  V30 4306 H 410.435 -4.50547 -4.7101 0
M  V30 4307 N 413.868 0.0150385 -1.57593 0
M  V30 4308 C 414.815 1.01126 -2.07466 0
M  V30 4309 C 415.785 1.35064 -0.966794 0
M  V30 4310 O 416.97 1.4516 -1.23827 0
M  V30 4311 C 414.11 2.30276 -2.57035 0
M  V30 4312 C 413.223 2.02373 -3.81666 0
M  V30 4313 C 412.358 3.25496 -4.19793 0
M  V30 4314 C 411.397 2.93211 -5.37303 0
M  V30 4315 N 410.534 4.08826 -5.70794 0
M  V30 4316 H 415.374 0.57901 -2.92321 0
M  V30 4317 H 412.911 0.27426 -1.44521 0
M  V30 4318 H 414.869 3.05757 -2.83846 0
M  V30 4319 H 413.499 2.71197 -1.75077 0
M  V30 4320 H 412.551 1.17327 -3.61854 0
M  V30 4321 H 413.863 1.74567 -4.67256 0
M  V30 4322 H 413.017 4.09333 -4.47807 0
M  V30 4323 H 411.756 3.56428 -3.32882 0
M  V30 4324 H 410.761 2.07777 -5.09027 0
M  V30 4325 H 411.986 2.63542 -6.25877 0
M  V30 4326 H 409.932 4.39682 -4.86842 0
M  V30 4327 H 409.849 3.84491 -6.50924 0
M  V30 4328 H 411.117 4.93496 -6.03392 0
M  V30 4329 N 415.346 1.54954 0.287554 0
M  V30 4330 C 416.293 1.86834 1.35505 0
M  V30 4331 C 417.263 0.718452 1.49758 0
M  V30 4332 O 418.448 0.968358 1.644 0
M  V30 4333 C 415.588 2.13303 2.71286 0
M  V30 4334 C 414.701 3.40883 2.65373 0
M  V30 4335 C 413.836 3.57125 3.93236 0
M  V30 4336 C 412.875 4.78449 3.81776 0
M  V30 4337 N 412.012 4.91426 5.01443 0
M  V30 4338 H 416.852 2.77889 1.07619 0
M  V30 4339 H 414.389 1.37593 0.520241 0
M  V30 4340 H 416.347 2.26646 3.50267 0
M  V30 4341 H 414.977 1.25499 2.97405 0
M  V30 4342 H 414.029 3.36088 1.78182 0
M  V30 4343 H 415.341 4.29993 2.52799 0
M  V30 4344 H 414.495 3.70207 4.80658 0
M  V30 4345 H 413.234 2.66173 4.0866 0
M  V30 4346 H 412.239 4.65386 2.92738 0
M  V30 4347 H 413.464 5.70822 3.67884 0
M  V30 4348 H 411.41 4.03401 5.17304 0
M  V30 4349 H 411.327 5.74559 4.91343 0
M  V30 4350 H 412.595 5.08879 5.90477 0
M  V30 4351 N 416.824 -0.551391 1.4764 0
M  V30 4352 C 418.101 -1.31229 1.45046 0
M  V30 4353 C 418.481 -2.10563 0.150527 0
M  V30 4354 O 417.829 -2.11374 -0.867956 0
M  V30 4355 C 418.039 -2.21189 2.69956 0
M  V30 4356 C 419.387 -2.82021 3.1741 0
M  V30 4357 O 420.411 -2.31488 2.70724 0
M  V30 4358 O 419.27 -3.73885 3.98588 0
M  V30 4359 H 416.364 -0.591193 0.578291 0
M  V30 4360 H 418.91 -0.569813 1.59847 0
M  V30 4361 H 417.682 -1.62207 3.56096 0
M  V30 4362 H 417.305 -3.02722 2.57769 0
M  V30 4363 N 418.302 -1.35869 -0.798587 0
M  V30 4364 C 419.551 -1.28921 -1.5512 0
M  V30 4365 C 419.864 0.13208 -1.95154 0
M  V30 4366 O 421.07 0.323879 -2.69561 0
M  V30 4367 C 419.526 -2.26141 -2.79979 0
M  V30 4368 C 419.134 -3.73658 -2.47151 0
M  V30 4369 C 420.878 -2.28152 -3.57976 0
M  V30 4370 C 418.785 -4.62679 -3.6835 0
M  V30 4371 H 417.715 -0.479031 -0.582276 0
M  V30 4372 H 420.366 -1.61179 -0.877125 0
M  V30 4373 H 418.748 -1.86865 -3.49138 0
M  V30 4374 H 419.922 -4.21616 -1.85947 0
M  V30 4375 H 418.237 -3.74333 -1.82383 0
M  V30 4376 H 420.834 -2.91875 -4.4801 0
M  V30 4377 H 421.177 -1.28748 -3.95891 0
M  V30 4378 H 421.71 -2.65998 -2.95787 0
M  V30 4379 H 418.449 -5.63111 -3.35538 0
M  V30 4380 H 417.969 -4.19442 -4.28752 0
M  V30 4381 H 419.648 -4.78498 -4.35487 0
M  V30 4382 N 419.78 1.02168 -1.19998 0
M  V30 4383 C 421.027 1.75685 -1.00702 0
M  V30 4384 C 421.355 1.88947 0.461426 0
M  V30 4385 O 420.61 1.40832 1.35885 0
M  V30 4386 C 420.909 3.18081 -1.62969 0
M  V30 4387 C 420.575 3.24809 -3.12746 0
M  V30 4388 C 419.237 3.26352 -3.53621 0
M  V30 4389 C 421.589 3.23379 -4.08749 0
M  V30 4390 C 418.917 3.2413 -4.89036 0
M  V30 4391 C 421.269 3.22698 -5.44104 0
M  V30 4392 C 419.933 3.22542 -5.84399 0
M  V30 4393 H 419.203 0.642877 -0.368496 0
M  V30 4394 H 421.85 1.19865 -1.49348 0
M  V30 4395 H 420.155 3.77027 -1.06573 0
M  V30 4396 H 421.852 3.73648 -1.45561 0
M  V30 4397 H 418.442 3.2434 -2.80181 0
M  V30 4398 H 422.626 3.21361 -3.78207 0
M  V30 4399 H 417.882 3.22338 -5.19527 0
M  V30 4400 H 422.056 3.20543 -6.18244 0
M  V30 4401 H 419.683 3.20575 -6.89301 0
M  V30 4402 N 421.258 1.00505 1.21394 0
M  V30 4403 C 422.188 0.585684 2.26035 0
M  V30 4404 C 423.169 -0.393525 1.65485 0
M  V30 4405 O 424.354 -0.281497 1.92149 0
M  V30 4406 C 421.484 -0.0884283 3.47187 0
M  V30 4407 C 420.438 0.810567 4.20254 0
M  V30 4408 C 419.764 0.00286382 5.347 0
M  V30 4409 C 421.064 2.1132 4.77641 0
M  V30 4410 H 422.758 1.46039 2.61368 0
M  V30 4411 H 420.304 0.703648 1.25638 0
M  V30 4412 H 422.257 -0.393286 4.19561 0
M  V30 4413 H 420.981 -0.997766 3.10986 0
M  V30 4414 H 419.64 1.09925 3.49731 0
M  V30 4415 H 419.288 -0.907765 4.94741 0
M  V30 4416 H 418.988 0.601444 5.84514 0
M  V30 4417 H 420.512 -0.295808 6.09883 0
M  V30 4418 H 421.926 1.87148 5.41893 0
M  V30 4419 H 420.323 2.66164 5.37845 0
M  V30 4420 H 421.393 2.78393 3.9702 0
M  V30 4421 N 422.737 -1.36956 0.779787 0
M  V30 4422 C 423.983 -1.99787 0.348281 0
M  V30 4423 C 424.316 -1.61756 -1.07465 0
M  V30 4424 O 423.591 -0.867639 -1.74075 0
M  V30 4425 C 423.874 -3.56597 0.50104 0
M  V30 4426 C 423.727 -4.04513 1.96697 0
M  V30 4427 C 425.046 -4.40008 -0.0898097 0
M  V30 4428 H 422.165 -0.725796 0.128022 0
M  V30 4429 H 424.807 -1.62514 0.984331 0
M  V30 4430 H 422.957 -3.88479 -0.0404347 0
M  V30 4431 H 424.629 -3.83161 2.56876 0
M  V30 4432 H 422.872 -3.56408 2.47297 0
M  V30 4433 H 423.543 -5.1352 2.02486 0
M  V30 4434 H 426.019 -4.14431 0.372293 0
M  V30 4435 H 424.895 -5.4888 0.0471605 0
M  V30 4436 H 425.156 -4.26035 -1.18096 0
M  V30 4437 N 424.215 -0.530993 -1.48385 0
M  V30 4438 C 425.463 0.00273189 -2.021 0
M  V30 4439 C 425.784 1.34672 -1.41027 0
M  V30 4440 O 425.054 1.8724 -0.576012 0
M  V30 4441 H 423.634 0.00399774 -0.746989 0
M  V30 4442 H 426.296 -0.695054 -1.82085 0
M  V30 4443 H 425.392 0.11031 -3.11905 0
M  V30 4444 N 425.693 1.55336 -0.266172 0
M  V30 4445 C 426.603 2.2583 0.635458 0
M  V30 4446 C 427.619 1.28106 1.17749 0
M  V30 4447 O 428.795 1.61024 1.20968 0
M  V30 4448 C 425.86 2.95879 1.80712 0
M  V30 4449 C 424.921 4.09059 1.30265 0
M  V30 4450 C 424.154 4.75759 2.41846 0
M  V30 4451 O 424.377 4.41622 3.61007 0
M  V30 4452 O 423.311 5.63888 2.1051 0
M  V30 4453 H 427.137 3.03631 0.0646693 0
M  V30 4454 H 424.722 1.49361 -0.0339177 0
M  V30 4455 H 426.604 3.39932 2.49047 0
M  V30 4456 H 425.279 2.21002 2.36516 0
M  V30 4457 H 424.186 3.69482 0.586019 0
M  V30 4458 H 425.519 4.85811 0.790458 0
M  V30 4459 N 427.171 -0.0066808 1.57599 0
M  V30 4460 C 428.417 -0.68835 1.91398 0
M  V30 4461 C 428.772 -1.7175 0.86716 0
M  V30 4462 O 428.065 -1.91215 -0.121475 0
M  V30 4463 C 428.259 -1.37939 3.29708 0
M  V30 4464 C 428.088 -0.418689 4.47747 0
M  V30 4465 C 426.858 -0.031526 5.0529 0
M  V30 4466 C 429.056 0.312301 5.13351 0
M  V30 4467 N 427.038 0.928088 6.06844 0
M  V30 4468 C 428.409 1.12682 6.09674 0
M  V30 4469 C 430.464 0.376853 4.96472 0
M  V30 4470 C 429.167 2 6.90936 0
M  V30 4471 C 431.193 1.23723 5.78314 0
M  V30 4472 C 430.555 2.03962 6.74225 0
M  V30 4473 H 426.654 -0.225292 0.748844 0
M  V30 4474 H 429.238 0.0520973 1.9463 0
M  V30 4475 H 427.409 -2.09017 3.27363 0
M  V30 4476 H 429.141 -2.01522 3.50957 0
M  V30 4477 H 425.896 -0.398485 4.71921 0
M  V30 4478 H 426.32 1.40307 6.62301 0
M  V30 4479 H 430.962 -0.22921 4.22178 0
M  V30 4480 H 428.68 2.61676 7.64559 0
M  V30 4481 H 432.266 1.291 5.67296 0
M  V30 4482 H 431.146 2.69461 7.36451 0
M  V30 4483 N 428.649 -1.55105 -0.279332 0
M  V30 4484 C 429.879 -1.7917 -1.02867 0
M  V30 4485 C 430.287 -0.56204 -1.80659 0
M  V30 4486 O 429.63 0.478266 -1.77365 0
M  V30 4487 C 429.692 -2.96061 -2.03932 0
M  V30 4488 C 429.356 -4.33341 -1.45137 0
M  V30 4489 C 430.353 -5.12565 -0.870266 0
M  V30 4490 C 428.038 -4.79987 -1.48048 0
M  V30 4491 C 430.032 -6.36565 -0.326097 0
M  V30 4492 C 427.719 -6.03944 -0.932443 0
M  V30 4493 C 428.717 -6.8207 -0.356247 0
M  V30 4494 O 428.405 -8.03691 0.183412 0
M  V30 4495 H 428.137 -0.600796 -0.309872 0
M  V30 4496 H 430.691 -2.02932 -0.317468 0
M  V30 4497 H 428.921 -2.67975 -2.78794 0
M  V30 4498 H 430.61 -3.07506 -2.64943 0
M  V30 4499 H 431.376 -4.77661 -0.840521 0
M  V30 4500 H 427.255 -4.1919 -1.91835 0
M  V30 4501 H 430.799 -6.97489 0.124286 0
M  V30 4502 H 426.696 -6.3833 -0.959407 0
M  V30 4503 H 427.464 -8.18468 0.0721681 0
M  V30 4504 N 430.127 0.543554 -1.4793 0
M  V30 4505 C 431.375 1.29752 -1.54948 0
M  V30 4506 C 431.696 1.93764 -0.219242 0
M  V30 4507 O 430.966 1.80639 0.75805 0
M  V30 4508 H 429.546 0.481874 -0.570795 0
M  V30 4509 H 432.208 0.633636 -1.84312 0
M  V30 4510 H 431.304 2.08392 -2.32334 0
M  V30 4511 N 431.605 1.3629 0.791371 0
M  V30 4512 C 432.882 1.20962 1.53712 0
M  V30 4513 C 433.262 -0.205021 2.10102 0
M  V30 4514 O 432.61 -1.21042 1.93807 0
M  V30 4515 C 432.82 2.29002 2.63361 0
M  V30 4516 C 434.168 2.65572 3.31295 0
M  V30 4517 O 435.192 2.2803 2.73643 0
M  V30 4518 O 434.051 3.3018 4.35481 0
M  V30 4519 H 431.145 0.47086 0.679867 0
M  V30 4520 H 433.691 1.48016 0.830021 0
M  V30 4521 H 432.463 3.2382 2.19674 0
M  V30 4522 H 432.086 2.03303 3.41692 0
M  V30 4523 N 433.083 -1.0153 1.20538 0
M  V30 4524 C 434.36 -1.72327 0.925343 0
M  V30 4525 C 434.74 -2.03383 -0.565547 0
M  V30 4526 O 434.088 -1.69934 -1.52757 0
M  V30 4527 C 434.298 -2.9902 1.79967 0
M  V30 4528 C 435.646 -3.72258 2.04228 0
M  V30 4529 O 436.67 -3.08979 1.77231 0
M  V30 4530 O 435.529 -4.86053 2.4983 0
M  V30 4531 H 432.623 -0.751099 0.346092 0
M  V30 4532 H 435.169 -1.07366 1.31417 0
M  V30 4533 H 433.941 -2.72402 2.80915 0
M  V30 4534 H 433.564 -3.71721 1.41099 0
M  V30 4535 N 434.561 -1.01147 -1.20859 0
M  V30 4536 C 435.972 -0.730205 -1.71828 0
M  V30 4537 C 436.323 0.751662 -1.8123 0
M  V30 4538 O 435.448 1.58686 -1.47132 0
M  V30 4539 C 436.043 -1.31885 -3.12077 0
M  V30 4540 C 434.602 -1.08656 -3.60376 0
M  V30 4541 C 433.749 -1.42769 -2.37723 0
M  V30 4542 H 436.7 -1.18158 -1.05945 0
M  V30 4543 H 436.721 -0.706793 -3.73878 0
M  V30 4544 H 436.233 -2.39737 -3.05201 0
M  V30 4545 H 434.334 -0.0254814 -3.72591 0
M  V30 4546 H 434.447 -1.76301 -4.45483 0
M  V30 4547 H 432.811 -0.846603 -2.40218 0
M  V30 4548 H 433.594 -2.51666 -2.33493 0
M  V30 4549 N 436.039 1.36541 -0.78704 0
M  V30 4550 C 437.287 1.98911 -0.357633 0
M  V30 4551 C 437.608 1.62778 1.07371 0
M  V30 4552 O 436.878 0.900612 1.73971 0
M  V30 4553 H 435.458 0.735734 -0.129246 0
M  V30 4554 H 438.12 1.66776 -1.00855 0
M  V30 4555 H 437.216 3.08874 -0.447549 0
M  V30 4556 N 437.518 0.538854 1.48102 0
M  V30 4557 C 438.746 0.0123136 2.06896 0
M  V30 4558 C 439.161 -1.27312 1.39417 0
M  V30 4559 O 438.518 -1.75949 0.484582 0
M  V30 4560 C 438.569 -0.206118 3.60912 0
M  V30 4561 O 438.29 1.0284 4.25859 0
M  V30 4562 C 439.791 -0.772033 4.36526 0
M  V30 4563 H 437.011 0.0375239 0.66995 0
M  V30 4564 H 439.555 0.747032 1.90367 0
M  V30 4565 H 437.71 -0.89091 3.77017 0
M  V30 4566 H 438.124 0.814654 5.18135 0
M  V30 4567 H 439.598 -0.874251 5.45033 0
M  V30 4568 H 440.075 -1.77904 4.01555 0
M  V30 4569 H 440.681 -0.123526 4.25121 0
M  V30 4570 N 438.996 -1.55193 0.274407 0
M  V30 4571 C 439.959 -2.212 -0.600279 0
M  V30 4572 C 440.959 -1.18963 -1.08187 0
M  V30 4573 O 442.149 -1.43873 -0.982158 0
M  V30 4574 C 439.281 -2.87739 -1.82809 0
M  V30 4575 H 440.474 -2.9989 -0.0239682 0
M  V30 4576 H 438.027 -1.5628 0.0250192 0
M  V30 4577 H 438.762 -2.13058 -2.44493 0
M  V30 4578 H 438.547 -3.62658 -1.49069 0
M  V30 4579 H 440.037 -3.38171 -2.45011 0
M  V30 4580 N 440.474 -0.00167713 -1.576 0
M  V30 4581 C 441.422 1.0074 -2.09652 0
M  V30 4582 C 442.416 1.35483 -1.01689 0
M  V30 4583 O 443.622 1.34028 -1.20152 0
M  V30 4584 H 439.997 0.342537 -0.669457 0
M  V30 4585 H 441.968 0.542841 -2.93421 0
M  V30 4586 C 440.717 2.2899 -2.61647 0
M  V30 4587 H 440.04 2.03124 -3.44355 0
M  V30 4588 H 441.48 2.9787 -3.01744 0
M  V30 4589 C 439.939 3.00085 -1.53136 0
M  V30 4590 O 440.469 3.91135 -0.91524 0
M  V30 4591 N 438.675 2.6194 -1.25841 0
M  V30 4592 H 438.222 1.8798 -1.76129 0
M  V30 4593 H 438.18 3.09822 -0.534576 0
M  V30 4594 N 441.952 1.55251 0.271103 0
M  V30 4595 C 442.902 1.84649 1.33749 0
M  V30 4596 C 443.886 0.705529 1.44607 0
M  V30 4597 O 445.078 0.966916 1.48256 0
M  V30 4598 C 442.207 2.12354 2.69742 0
M  V30 4599 C 441.293 3.32714 2.62988 0
M  V30 4600 N 441.684 4.52575 2.25853 0
M  V30 4601 C 439.982 3.35341 2.94045 0
M  V30 4602 C 440.683 5.34669 2.29136 0
M  V30 4603 N 439.659 4.73123 2.67685 0
M  V30 4604 H 443.461 2.74865 1.0405 0
M  V30 4605 H 440.975 1.55152 0.479738 0
M  V30 4606 H 442.972 2.31572 3.4667 0
M  V30 4607 H 441.632 1.23422 3.00328 0
M  V30 4608 H 442.643 4.78639 1.978 0
M  V30 4609 H 439.32 2.56608 3.2933 0
M  V30 4610 H 440.71 6.40509 2.02971 0
M  V30 4611 N 443.43 -0.535701 1.48216 0
M  V30 4612 C 444.36 -1.65014 1.65204 0
M  V30 4613 C 445.341 -1.62554 0.501011 0
M  V30 4614 O 446.526 -1.7984 0.732886 0
M  V30 4615 C 443.656 -3.03616 1.68626 0
M  V30 4616 C 442.61 -3.20932 2.83172 0
M  V30 4617 C 441.936 -4.60537 2.71679 0
M  V30 4618 C 443.236 -3.04249 4.24535 0
M  V30 4619 H 444.93 -1.51053 2.58502 0
M  V30 4620 H 442.476 -0.725262 1.24402 0
M  V30 4621 H 444.429 -3.81446 1.79099 0
M  V30 4622 H 443.153 -3.18587 0.719026 0
M  V30 4623 H 441.812 -2.45517 2.72244 0
M  V30 4624 H 441.46 -4.72336 1.72937 0
M  V30 4625 H 441.16 -4.73069 3.48538 0
M  V30 4626 H 442.684 -5.40475 2.84112 0
M  V30 4627 H 444.098 -3.71877 4.36326 0
M  V30 4628 H 442.495 -3.28278 5.02348 0
M  V30 4629 H 443.565 -2.00739 4.41397 0
M  V30 4630 N 444.908 -1.36708 -0.784132 0
M  V30 4631 C 445.818 -1.3363 -1.92822 0
M  V30 4632 C 446.834 -0.237686 -1.72369 0
M  V30 4633 O 448.01 -0.470962 -1.95816 0
M  V30 4634 C 445.075 -1.13011 -3.27764 0
M  V30 4635 C 444.136 -2.32397 -3.60957 0
M  V30 4636 C 443.369 -2.12752 -4.89461 0
M  V30 4637 O 443.592 -1.10541 -5.59586 0
M  V30 4638 O 442.526 -3.00653 -5.21432 0
M  V30 4639 H 446.352 -2.29964 -1.98369 0
M  V30 4640 H 443.937 -1.1731 -0.925136 0
M  V30 4641 H 445.819 -1.03451 -4.08504 0
M  V30 4642 H 444.494 -0.19743 -3.23097 0
M  V30 4643 H 443.401 -2.47527 -2.80502 0
M  V30 4644 H 444.734 -3.2419 -3.70354 0
M  V30 4645 N 446.386 1.0089 -1.21074 0
M  V30 4646 C 447.333 2.09588 -0.966512 0
M  V30 4647 C 448.303 1.65761 0.106089 0
M  V30 4648 O 449.488 1.90758 -0.0402287 0
M  V30 4649 C 446.628 3.40958 -0.533058 0
M  V30 4650 C 445.741 3.9822 -1.67467 0
M  V30 4651 C 444.876 5.17682 -1.19076 0
M  V30 4652 C 443.915 5.67043 -2.30496 0
M  V30 4653 N 443.052 6.77759 -1.83267 0
M  V30 4654 H 447.892 2.29815 -1.89708 0
M  V30 4655 H 445.429 1.12689 -0.945489 0
M  V30 4656 H 447.387 4.1637 -0.263019 0
M  V30 4657 H 446.017 3.20781 0.360505 0
M  V30 4658 H 445.069 3.1983 -2.05944 0
M  V30 4659 H 446.381 4.3085 -2.51336 0
M  V30 4660 H 445.535 6.00326 -0.877151 0
M  V30 4661 H 444.274 4.86635 -0.322066 0
M  V30 4662 H 443.279 4.82999 -2.62664 0
M  V30 4663 H 444.504 6.00121 -3.17855 0
M  V30 4664 H 442.45 6.48527 -0.987356 0
M  V30 4665 H 442.367 7.09624 -2.60711 0
M  V30 4666 H 443.635 7.63949 -1.54928 0
M  V30 4667 N 447.864 1.01787 1.20321 0
M  V30 4668 C 449.11 0.708985 1.90003 0
M  V30 4669 C 449.443 -0.759572 1.78729 0
M  V30 4670 O 448.718 -1.55198 1.17234 0
M  V30 4671 C 449.001 1.1469 3.41348 0
M  V30 4672 C 448.854 2.67586 3.61549 0
M  V30 4673 C 450.173 0.71915 4.34185 0
M  V30 4674 H 447.292 0.259034 0.689978 0
M  V30 4675 H 449.934 1.26584 1.41692 0
M  V30 4676 H 448.084 0.673128 3.82624 0
M  V30 4677 H 449.756 3.22826 3.29517 0
M  V30 4678 H 447.999 3.085 3.04976 0
M  V30 4679 H 448.67 2.93281 4.67643 0
M  V30 4680 H 451.146 1.12647 4.00562 0
M  V30 4681 H 450.022 1.05358 5.38694 0
M  V30 4682 H 450.283 -0.379111 4.40472 0
M  V30 4683 N 449.342 -1.36122 0.79427 0
M  V30 4684 C 450.758 -1.5232 0.476525 0
M  V30 4685 C 450.958 -1.74685 -1.00436 0
M  V30 4686 O 450.014 -1.78115 -1.78973 0
M  V30 4687 C 451.327 -2.70607 1.31119 0
M  V30 4688 C 452.875 -2.8448 1.30537 0
M  V30 4689 C 453.35 -4.05778 2.12387 0
M  V30 4690 N 454.841 -4.12933 2.09859 0
M  V30 4691 C 455.576 -5.05876 2.69957 0
M  V30 4692 N 455.072 -6.04232 3.38934 0
M  V30 4693 N 456.865 -4.98528 2.59665 0
M  V30 4694 H 449.016 -1.1986 1.75349 0
M  V30 4695 H 451.279 -0.585418 0.745647 0
M  V30 4696 H 450.985 -2.60619 2.36158 0
M  V30 4697 H 450.859 -3.64888 0.955843 0
M  V30 4698 H 453.246 -2.93927 0.262876 0
M  V30 4699 H 453.327 -1.91093 1.70051 0
M  V30 4700 H 452.971 -3.97092 3.1667 0
M  V30 4701 H 452.901 -4.98323 1.70242 0
M  V30 4702 H 455.392 -3.42515 1.59662 0
M  V30 4703 H 455.705 -6.71724 3.82109 0
M  V30 4704 H 454.05 -6.04443 3.43036 0
M  V30 4705 H 457.241 -4.20641 2.05375 0
M  V30 4706 H 457.414 -5.70773 3.06793 0
M  V30 4707 N 450.82 -0.546701 -1.47814 0
M  V30 4708 C 452.05 -0.0232519 -2.06587 0
M  V30 4709 C 452.458 1.2712 -1.40133 0
M  V30 4710 O 451.801 1.77091 -0.488305 0
M  V30 4711 C 451.863 0.254117 -3.58601 0
M  V30 4712 C 451.527 -0.949331 -4.47031 0
M  V30 4713 C 452.524 -1.85216 -4.85789 0
M  V30 4714 C 450.209 -1.16104 -4.88697 0
M  V30 4715 C 452.203 -2.95047 -5.65001 0
M  V30 4716 C 449.89 -2.26247 -5.67676 0
M  V30 4717 C 450.888 -3.1555 -6.05737 0
M  V30 4718 O 450.576 -4.23784 -6.83127 0
M  V30 4719 H 450.308 -0.0380082 -0.674931 0
M  V30 4720 H 452.862 -0.756631 -1.90956 0
M  V30 4721 H 451.092 1.04168 -3.72406 0
M  V30 4722 H 452.781 0.72167 -3.99433 0
M  V30 4723 H 453.547 -1.70061 -4.54207 0
M  V30 4724 H 449.426 -0.475159 -4.58545 0
M  V30 4725 H 452.97 -3.64778 -5.94628 0
M  V30 4726 H 448.867 -2.41379 -5.98671 0
M  V30 4727 H 449.635 -4.21701 -7.01506 0
M  V30 4728 N 452.299 1.55045 -0.282633 0
M  V30 4729 C 453.262 2.21515 0.588539 0
M  V30 4730 C 454.262 1.19535 1.07554 0
M  V30 4731 O 455.452 1.44391 0.974514 0
M  V30 4732 C 452.584 2.88704 1.8128 0
M  V30 4733 H 453.777 2.99899 0.00806397 0
M  V30 4734 H 451.33 1.56265 -0.0333067 0
M  V30 4735 H 452.065 2.14352 2.43359 0
M  V30 4736 H 451.85 3.63443 1.47144 0
M  V30 4737 H 453.34 3.39465 2.43214 0
M  V30 4738 N 453.777 0.010035 1.57597 0
M  V30 4739 C 454.725 -0.996272 2.10184 0
M  V30 4740 C 455.719 -1.34942 1.02406 0
M  V30 4741 O 456.925 -1.33389 1.20861 0
M  V30 4742 H 453.3 -0.338982 0.671264 0
M  V30 4743 H 455.271 -0.527272 2.93705 0
M  V30 4744 C 454.02 -2.27599 2.62857 0
M  V30 4745 H 453.343 -2.01295 3.45428 0
M  V30 4746 H 454.783 -2.96265 3.0332 0
M  V30 4747 C 453.242 -2.99269 1.54725 0
M  V30 4748 O 453.772 -3.90644 0.93597 0
M  V30 4749 N 451.978 -2.61269 1.27228 0
M  V30 4750 H 451.525 -1.87043 1.77123 0
M  V30 4751 H 451.483 -3.09534 0.550999 0
M  V30 4752 N 455.255 -1.55392 -0.262866 0
M  V30 4753 C 456.203 -1.8977 -1.345 0
M  V30 4754 C 457.197 -0.775063 -1.50629 0
M  V30 4755 O 458.403 -0.959519 -1.52293 0
M  V30 4756 H 454.778 -0.602467 -0.450041 0
M  V30 4757 H 456.749 -2.80147 -1.02762 0
M  V30 4758 C 455.498 -2.19501 -2.69657 0
M  V30 4759 H 454.821 -3.05378 -2.5804 0
M  V30 4760 H 456.261 -2.47469 -3.44289 0
M  V30 4761 C 454.72 -1.00597 -3.21531 0
M  V30 4762 O 455.25 -0.245768 -4.00947 0
M  V30 4763 N 453.456 -0.800911 -2.79345 0
M  V30 4764 H 453.003 -1.42079 -2.14875 0
M  V30 4765 H 452.961 -0.00697996 -3.14399 0
M  V30 4766 N 456.733 0.527833 -1.48498 0
M  V30 4767 C 457.958 1.313 -1.60546 0
M  V30 4768 C 458.383 1.86199 -0.26672 0
M  V30 4769 O 457.741 1.64513 0.761918 0
M  V30 4770 C 457.789 2.43818 -2.65678 0
M  V30 4771 O 456.893 3.46916 -2.22987 0
M  V30 4772 H 456.234 0.388784 -0.538277 0
M  V30 4773 H 458.764 0.634896 -1.945 0
M  V30 4774 H 458.774 2.89973 -2.87018 0
M  V30 4775 H 457.449 2.03222 -3.62869 0
M  V30 4776 H 456.026 3.06864 -2.11869 0
M  V30 4777 N 458.211 1.37122 0.776871 0
M  V30 4778 C 459.459 1.31787 1.53221 0
M  V30 4779 C 459.78 -0.0987589 1.9475 0
M  V30 4780 O 459.05 -1.0417 1.65908 0
M  V30 4781 H 457.63 0.484839 0.568278 0
M  V30 4782 H 460.292 1.71556 0.924917 0
M  V30 4783 H 459.388 1.95355 2.43398 0
M  V30 4784 N 459.689 -1.00246 1.21608 0
M  V30 4785 C 460.935 -1.74319 1.03638 0
M  V30 4786 C 461.268 -1.89408 -0.428749 0
M  V30 4787 O 460.543 -1.43026 -1.3181 0
M  V30 4788 C 460.826 -3.15431 1.73711 0
M  V30 4789 C 460.679 -3.08049 3.27759 0
M  V30 4790 C 461.998 -4.14407 1.48173 0
M  V30 4791 H 459.117 -0.632741 0.377899 0
M  V30 4792 H 461.759 -1.16853 1.49818 0
M  V30 4793 H 459.909 -3.64493 1.34452 0
M  V30 4794 H 461.581 -2.66681 3.76403 0
M  V30 4795 H 459.824 -2.45088 3.57931 0
M  V30 4796 H 460.495 -4.07862 3.71958 0
M  V30 4797 H 462.971 -3.74061 1.82258 0
M  V30 4798 H 461.847 -5.11279 1.99713 0
M  V30 4799 H 462.108 -4.40174 0.412273 0
M  V30 4800 N 461.167 -1.02423 -1.1978 0
M  V30 4801 C 462.115 -0.594474 -2.24875 0
M  V30 4802 C 463.109 0.370598 -1.65296 0
M  V30 4803 O 464.315 0.239684 -1.78397 0
M  V30 4804 H 460.69 -0.173961 -0.731602 0
M  V30 4805 H 462.661 -1.4916 -2.58445 0
M  V30 4806 C 461.41 0.0436512 -3.47673 0
M  V30 4807 H 460.733 -0.689963 -3.93801 0
M  V30 4808 H 462.173 0.307362 -4.22884 0
M  V30 4809 C 460.632 1.28881 -3.11274 0
M  V30 4810 O 461.162 2.38135 -3.23503 0
M  V30 4811 N 459.368 1.1758 -2.6575 0
M  V30 4812 H 458.915 0.286769 -2.55999 0
M  V30 4813 H 458.873 2.00988 -2.41767 0
M  V30 4814 N 462.645 1.35699 -0.801477 0
M  V30 4815 C 463.891 1.99208 -0.380022 0
M  V30 4816 C 464.224 1.63445 1.04878 0
M  V30 4817 O 463.499 0.895223 1.72673 0
M  V30 4818 C 463.782 3.55755 -0.557708 0
M  V30 4819 C 463.635 4.01332 -2.03107 0
M  V30 4820 C 464.954 4.40096 0.0197968 0
M  V30 4821 H 462.073 0.723667 -0.139552 0
M  V30 4822 H 464.715 1.60928 -1.01006 0
M  V30 4823 H 462.865 3.88494 -0.0213741 0
M  V30 4824 H 464.537 3.79026 -2.62939 0
M  V30 4825 H 462.78 3.52429 -2.52936 0
M  V30 4826 H 463.451 5.10234 -2.1063 0
M  V30 4827 H 465.927 4.13786 -0.438179 0
M  V30 4828 H 464.803 5.48735 -0.134477 0
M  V30 4829 H 465.064 4.2786 1.11303 0
M  V30 4830 N 464.123 0.554532 1.47522 0
M  V30 4831 C 465.053 -0.182974 2.32782 0
M  V30 4832 C 466.034 -0.911377 1.43624 0
M  V30 4833 O 467.219 -0.892366 1.72483 0
M  V30 4834 C 464.349 -1.21513 3.25349 0
M  V30 4835 C 463.303 -0.603355 4.23726 0
M  V30 4836 C 462.629 -1.73995 5.05598 0
M  V30 4837 C 463.929 0.441121 5.20434 0
M  V30 4838 H 465.623 0.52882 2.94693 0
M  V30 4839 H 463.169 0.255759 1.41711 0
M  V30 4840 H 465.122 -1.73922 3.83835 0
M  V30 4841 H 463.846 -1.95683 2.61487 0
M  V30 4842 H 462.505 -0.10059 3.66462 0
M  V30 4843 H 462.153 -2.47063 4.38143 0
M  V30 4844 H 461.853 -1.3364 5.72201 0
M  V30 4845 H 463.377 -2.26735 5.66942 0
M  V30 4846 H 464.791 0.00319931 5.733 0
M  V30 4847 H 463.188 0.763402 5.95224 0
M  V30 4848 H 464.258 1.33799 4.66075 0
M  V30 4849 N 465.601 -1.54893 0.290851 0
M  V30 4850 C 466.878 -1.91991 -0.373989 0
M  V30 4851 C 467.258 -1.21694 -1.72493 0
M  V30 4852 O 466.606 -0.34917 -2.25816 0
M  V30 4853 C 466.816 -3.45419 -0.498703 0
M  V30 4854 C 468.164 -4.1748 -0.774298 0
M  V30 4855 O 469.188 -3.51398 -0.582908 0
M  V30 4856 O 468.047 -5.3445 -1.14129 0
M  V30 4857 H 465.141 -0.800593 -0.207315 0
M  V30 4858 H 467.687 -1.66297 0.338164 0
M  V30 4859 H 466.459 -3.88688 0.451392 0
M  V30 4860 H 466.082 -3.77117 -1.25972 0
M  V30 4861 N 467.08 -0.0183926 -1.57589 0
M  V30 4862 C 468.327 0.662562 -1.91354 0
M  V30 4863 C 468.655 1.72747 -0.893788 0
M  V30 4864 O 467.91 1.9545 0.0988509 0
M  V30 4865 C 468.209 1.32676 -3.31861 0
M  V30 4866 C 467.875 0.393267 -4.49182 0
M  V30 4867 C 466.537 0.136302 -4.81007 0
M  V30 4868 C 468.889 -0.248366 -5.20608 0
M  V30 4869 C 466.217 -0.770282 -5.81621 0
M  V30 4870 C 468.569 -1.14294 -6.22189 0
M  V30 4871 C 467.233 -1.4089 -6.52462 0
M  V30 4872 H 466.503 0.242448 -0.700214 0
M  V30 4873 H 469.15 -0.0778629 -1.91342 0
M  V30 4874 H 467.455 2.14168 -3.28084 0
M  V30 4875 H 469.152 1.86001 -3.55253 0
M  V30 4876 H 465.742 0.603723 -4.24327 0
M  V30 4877 H 469.926 -0.062883 -4.9626 0
M  V30 4878 H 465.182 -0.984154 -6.03427 0
M  V30 4879 H 469.356 -1.64637 -6.76659 0
M  V30 4880 H 466.983 -2.11306 -7.30242 0
M  V30 4881 N 468.558 1.5553 0.254621 0
M  V30 4882 C 469.835 1.6774 1.00611 0
M  V30 4883 C 470.215 0.555993 2.03647 0
M  V30 4884 O 469.563 -0.441583 2.24193 0
M  V30 4885 C 469.773 3.07725 1.6464 0
M  V30 4886 C 471.121 3.66074 2.15116 0
M  V30 4887 O 472.145 3.10476 1.74595 0
M  V30 4888 O 471.004 4.63526 2.89493 0
M  V30 4889 H 468.098 0.681958 0.467828 0
M  V30 4890 H 470.644 1.67863 0.24902 0
M  V30 4891 H 469.416 3.80792 0.900734 0
M  V30 4892 H 469.039 3.1158 2.46989 0
M  V30 4893 N 470.036 -0.519951 1.48776 0
M  V30 4894 C 470.966 -1.63253 1.66945 0
M  V30 4895 C 471.947 -1.62014 0.518224 0
M  V30 4896 O 473.132 -1.79053 0.751919 0
M  V30 4897 C 470.262 -3.0181 1.71836 0
M  V30 4898 C 469.216 -3.17911 2.8656 0
M  V30 4899 C 468.542 -4.5763 2.76548 0
M  V30 4900 C 469.842 -2.99729 4.27738 0
M  V30 4901 H 471.536 -1.48302 2.6009 0
M  V30 4902 H 469.082 -0.712026 1.25165 0
M  V30 4903 H 471.035 -3.79525 1.83135 0
M  V30 4904 H 469.759 -3.17806 0.752775 0
M  V30 4905 H 468.418 -2.42616 2.74833 0
M  V30 4906 H 468.066 -4.70476 1.77937 0
M  V30 4907 H 467.766 -4.69346 3.53536 0
M  V30 4908 H 469.29 -5.37431 2.89828 0
M  V30 4909 H 470.704 -3.67228 4.40246 0
M  V30 4910 H 469.101 -3.22932 5.05801 0
M  V30 4911 H 470.171 -1.96047 4.43502 0
M  V30 4912 N 471.514 -1.37532 -0.769588 0
M  V30 4913 C 472.462 -1.33561 -1.90432 0
M  V30 4914 C 473.456 -0.224027 -1.67912 0
M  V30 4915 O 474.662 -0.392174 -1.75676 0
M  V30 4916 H 471.037 -0.416279 -0.626271 0
M  V30 4917 H 473.008 -2.29348 -1.90899 0
M  V30 4918 C 471.757 -1.16162 -3.27722 0
M  V30 4919 H 471.08 -2.00951 -3.45628 0
M  V30 4920 H 472.52 -1.17434 -4.07413 0
M  V30 4921 C 470.979 0.132583 -3.36639 0
M  V30 4922 O 471.509 1.11539 -3.85904 0
M  V30 4923 N 469.715 0.184013 -2.90017 0
M  V30 4924 H 469.262 -0.616415 -2.50116 0
M  V30 4925 H 469.22 1.04956 -2.96364 0
M  V30 4926 N 472.992 0.995999 -1.22138 0
M  V30 4927 C 474.22 1.77066 -1.07029 0
M  V30 4928 C 474.635 1.8495 0.379357 0
M  V30 4929 O 473.992 1.3174 1.26297 0
M  V30 4930 C 474.043 3.20533 -1.67155 0
M  V30 4931 O 473.764 3.13082 -3.06449 0
M  V30 4932 C 475.265 4.14461 -1.5728 0
M  V30 4933 H 472.485 0.556179 -0.375374 0
M  V30 4934 H 475.029 1.25238 -1.61666 0
M  V30 4935 H 473.184 3.6944 -1.16589 0
M  V30 4936 H 473.598 4.03283 -3.35355 0
M  V30 4937 H 475.072 5.1289 -2.04078 0
M  V30 4938 H 475.549 4.36005 -0.528795 0
M  V30 4939 H 476.155 3.71449 -2.07136 0
M  V30 4940 N 474.47 1.03057 1.19235 0
M  V30 4941 C 475.716 0.729098 1.89241 0
M  V30 4942 C 476.049 -0.740573 1.79525 0
M  V30 4943 O 475.324 -1.53946 1.18874 0
M  V30 4944 C 475.607 1.18304 3.40112 0
M  V30 4945 C 475.46 2.71406 3.5869 0
M  V30 4946 C 476.779 0.765161 4.33397 0
M  V30 4947 H 473.898 0.266338 0.687192 0
M  V30 4948 H 476.54 1.28079 1.40341 0
M  V30 4949 H 474.69 0.713672 3.81889 0
M  V30 4950 H 476.362 3.26303 3.26074 0
M  V30 4951 H 474.605 3.11717 3.01687 0
M  V30 4952 H 475.276 2.98225 4.64506 0
M  V30 4953 H 477.752 1.16889 3.99345 0
M  V30 4954 H 476.628 1.11065 5.37546 0
M  V30 4955 H 476.889 -0.332372 4.40849 0
M  V30 4956 N 475.948 -1.35272 0.808662 0
M  V30 4957 C 477.197 -1.97963 0.386483 0
M  V30 4958 C 477.51 -1.64866 -1.05255 0
M  V30 4959 O 478.716 -2.20937 -1.57794 0
M  V30 4960 C 477.172 -3.54162 0.640096 0
M  V30 4961 C 476.78 -3.96166 2.0918 0
M  V30 4962 C 478.524 -4.23553 0.283376 0
M  V30 4963 C 476.431 -5.4522 2.29106 0
M  V30 4964 H 475.361 -0.740742 0.140774 0
M  V30 4965 H 478.012 -1.5431 0.993012 0
M  V30 4966 H 476.394 -3.95983 -0.0364117 0
M  V30 4967 H 477.568 -3.65491 2.80629 0
M  V30 4968 H 475.883 -3.3967 2.40859 0
M  V30 4969 H 478.48 -5.33124 0.410273 0
M  V30 4970 H 478.823 -4.09105 -0.770659 0
M  V30 4971 H 479.356 -3.8716 0.913884 0
M  V30 4972 H 476.095 -5.64638 3.32962 0
M  V30 4973 H 475.615 -5.77457 1.62184 0
M  V30 4974 H 477.294 -6.1171 2.1076 0
M  V30 4975 N 477.426 -0.562348 -1.47226 0
M  V30 4976 C 478.842 -0.222492 -1.58042 0
M  V30 4977 C 479.042 1.27505 -1.56028 0
M  V30 4978 O 478.098 2.05555 -1.46641 0
M  V30 4979 C 479.411 -0.853694 -2.88327 0
M  V30 4980 C 480.959 -0.825397 -3.01921 0
M  V30 4981 C 481.434 -1.43576 -4.34914 0
M  V30 4982 N 482.925 -1.39918 -4.41562 0
M  V30 4983 C 483.66 -1.84103 -5.43041 0
M  V30 4984 N 483.156 -2.36167 -6.51304 0
M  V30 4985 N 484.949 -1.75142 -5.34118 0
M  V30 4986 H 477.1 -1.53525 -1.46778 0
M  V30 4987 H 479.363 -0.640527 -0.698877 0
M  V30 4988 H 479.069 -1.90635 -2.95552 0
M  V30 4989 H 478.943 -0.34977 -3.75575 0
M  V30 4990 H 481.33 0.218583 -2.94289 0
M  V30 4991 H 481.411 -1.36713 -2.16202 0
M  V30 4992 H 481.055 -2.47884 -4.43301 0
M  V30 4993 H 480.985 -0.869427 -5.19373 0
M  V30 4994 H 483.476 -1.0184 -3.63919 0
M  V30 4995 H 483.789 -2.67793 -7.24919 0
M  V30 4996 H 482.134 -2.40181 -6.52179 0
M  V30 4997 H 485.325 -1.34241 -4.48439 0
M  V30 4998 H 485.498 -2.09895 -6.13065 0
M  V30 4999 N 478.904 1.54736 -0.299062 0
M  V30 5000 C 479.852 2.24897 0.593658 0
M  V30 5001 C 480.846 1.25429 1.13859 0
M  V30 5002 O 482.052 1.43286 1.08945 0
M  V30 5003 H 478.427 0.72207 0.210046 0
M  V30 5004 H 480.398 2.98393 -0.0206421 0
M  V30 5005 C 479.147 3.00159 1.75499 0
M  V30 5006 H 478.47 3.76501 1.34489 0
M  V30 5007 H 479.91 3.52535 2.35574 0
M  V30 5008 C 478.369 2.07015 2.65794 0
M  V30 5009 O 478.899 1.63692 3.66835 0
M  V30 5010 N 477.105 1.73012 2.33485 0
M  V30 5011 H 476.652 2.08439 1.51364 0
M  V30 5012 H 476.61 1.10965 2.94167 0
M  V30 5013 N 480.382 0.0267497 1.57577 0
M  V30 5014 C 481.628 -0.653371 1.91987 0
M  V30 5015 C 481.961 -1.71915 0.903263 0
M  V30 5016 O 481.236 -1.94358 -0.0743387 0
M  V30 5017 C 481.519 -1.272 3.36886 0
M  V30 5018 C 481.372 -0.215938 4.49281 0
M  V30 5019 C 482.691 -2.19069 3.81703 0
M  V30 5020 H 479.81 -0.236047 0.698177 0
M  V30 5021 H 482.452 0.0835236 1.89816 0
M  V30 5022 H 480.602 -1.90005 3.38866 0
M  V30 5023 H 482.274 0.41449 4.59434 0
M  V30 5024 H 480.517 0.458855 4.31366 0
M  V30 5025 H 481.188 -0.688347 5.47691 0
M  V30 5026 H 483.664 -1.66253 3.81444 0
M  V30 5027 H 482.54 -2.59307 4.83788 0
M  V30 5028 H 482.801 -3.08087 3.17072 0
M  V30 5029 N 481.861 -1.55662 -0.24637 0
M  V30 5030 C 483.108 -1.77519 -0.974335 0
M  V30 5031 C 483.436 -0.591165 -1.85298 0
M  V30 5032 O 482.691 0.425497 -1.91018 0
M  V30 5033 C 482.99 -3.04885 -1.86494 0
M  V30 5034 C 482.656 -4.36209 -1.14161 0
M  V30 5035 C 481.318 -4.71896 -0.941701 0
M  V30 5036 C 483.67 -5.17391 -0.628957 0
M  V30 5037 C 480.998 -5.86299 -0.216852 0
M  V30 5038 C 483.35 -6.32546 0.0824273 0
M  V30 5039 C 482.014 -6.66853 0.293807 0
M  V30 5040 H 481.284 -0.649588 -0.356535 0
M  V30 5041 H 483.931 -1.89934 -0.244394 0
M  V30 5042 H 482.236 -2.87484 -2.66196 0
M  V30 5043 H 483.933 -3.18994 -2.42989 0
M  V30 5044 H 480.523 -4.08174 -1.30736 0
M  V30 5045 H 484.707 -4.90276 -0.770943 0
M  V30 5046 H 479.963 -6.11385 -0.0426124 0
M  V30 5047 H 484.137 -6.94693 0.487292 0
M  V30 5048 H 481.764 -7.55349 0.857428 0
M  V30 5049 N 483.339 0.512053 -1.4905 0
M  V30 5050 C 484.587 1.26436 -1.57665 0
M  V30 5051 C 484.908 1.93255 -0.260293 0
M  V30 5052 O 484.178 1.82206 0.719564 0
M  V30 5053 H 482.758 0.469658 -0.580888 0
M  V30 5054 H 485.42 0.594398 -1.85615 0
M  V30 5055 H 484.516 2.03417 -2.36702 0
M  V30 5056 N 484.817 1.37938 0.762283 0
M  V30 5057 C 486.045 1.36883 1.55147 0
M  V30 5058 C 486.46 -0.0435348 1.8875 0
M  V30 5059 O 485.817 -1.00786 1.52146 0
M  V30 5060 C 485.868 2.21624 2.85596 0
M  V30 5061 O 485.589 3.57358 2.5343 0
M  V30 5062 C 487.09 2.28653 3.7978 0
M  V30 5063 H 484.31 0.468521 0.480343 0
M  V30 5064 H 486.854 1.81404 0.944079 0
M  V30 5065 H 485.009 1.80588 3.42734 0
M  V30 5066 H 485.423 4.01883 3.37032 0
M  V30 5067 H 486.897 2.9225 4.68288 0
M  V30 5068 H 487.374 1.29767 4.19592 0
M  V30 5069 H 487.98 2.70043 3.28568 0
M  V30 5070 N 486.295 -0.989507 1.22664 0
M  V30 5071 C 487.542 -1.72953 1.05325 0
M  V30 5072 C 487.87 -1.90104 -0.411168 0
M  V30 5073 O 487.125 -1.44386 -1.32103 0
M  V30 5074 C 487.424 -3.13649 1.71345 0
M  V30 5075 C 487.09 -3.16403 3.21248 0
M  V30 5076 C 485.752 -3.16862 3.62149 0
M  V30 5077 C 488.104 -3.12428 4.17179 0
M  V30 5078 C 485.432 -3.11051 4.97458 0
M  V30 5079 C 487.784 -3.08159 5.52468 0
M  V30 5080 C 486.448 -3.06935 5.92746 0
M  V30 5081 H 485.718 -0.632881 0.385412 0
M  V30 5082 H 488.365 -1.15863 1.52473 0
M  V30 5083 H 486.67 -3.74069 1.16532 0
M  V30 5084 H 488.367 -3.69658 1.55416 0
M  V30 5085 H 484.957 -3.16798 2.88682 0
M  V30 5086 H 489.141 -3.11221 3.86595 0
M  V30 5087 H 484.397 -3.0845 5.27891 0
M  V30 5088 H 488.571 -3.04039 6.26525 0
M  V30 5089 H 486.198 -3.02186 6.97558 0
M  V30 5090 N 487.773 -1.03688 -1.18687 0
M  V30 5091 C 489.001 -0.757918 -1.92518 0
M  V30 5092 C 489.416 0.684398 -1.75959 0
M  V30 5093 O 488.773 1.46617 -1.08673 0
M  V30 5094 C 488.824 -1.10985 -3.44042 0
M  V30 5095 O 488.545 -2.49554 -3.60076 0
M  V30 5096 C 490.046 -0.854844 -4.3498 0
M  V30 5097 H 487.266 -0.276699 -0.611293 0
M  V30 5098 H 489.81 -1.38352 -1.50595 0
M  V30 5099 H 487.965 -0.529279 -3.83767 0
M  V30 5100 H 488.379 -2.6291 -4.53849 0
M  V30 5101 H 489.853 -1.15098 -5.39867 0
M  V30 5102 H 490.33 0.210507 -4.38695 0
M  V30 5103 H 490.936 -1.41853 -4.00946 0
M  V30 5104 N 489.251 1.34841 -0.815825 0
M  V30 5105 C 490.183 2.28409 -0.190265 0
M  V30 5106 C 491.196 1.50705 0.615771 0
M  V30 5107 O 492.385 1.72822 0.446616 0
M  V30 5108 C 489.485 3.30441 0.752446 0
M  V30 5109 C 488.658 4.37399 -0.00922152 0
M  V30 5110 C 487.717 5.19234 0.853351 0
M  V30 5111 O 486.743 5.68404 0.300919 0
M  V30 5112 N 487.945 5.38248 2.17416 0
M  V30 5113 H 490.71 2.82732 -0.994114 0
M  V30 5114 H 488.271 1.47289 -0.672129 0
M  V30 5115 H 490.263 3.82084 1.33394 0
M  V30 5116 H 488.833 2.76565 1.45707 0
M  V30 5117 H 488.053 3.86567 -0.771979 0
M  V30 5118 H 489.341 5.05992 -0.533807 0
M  V30 5119 H 488.739 4.99961 2.6468 0
M  V30 5120 H 487.296 5.93035 2.70467 0
M  V30 5121 N 490.729 0.570148 1.46925 0
M  V30 5122 C 491.957 0.0561966 2.06824 0
M  V30 5123 C 492.372 -1.24326 1.42086 0
M  V30 5124 O 491.729 -1.74882 0.521794 0
M  V30 5125 C 491.78 -0.129517 3.61268 0
M  V30 5126 O 491.501 1.1185 4.23581 0
M  V30 5127 C 493.002 -0.679266 4.38065 0
M  V30 5128 H 490.222 0.0517261 0.669003 0
M  V30 5129 H 492.766 0.787243 1.8874 0
M  V30 5130 H 490.921 -0.810739 3.78822 0
M  V30 5131 H 491.335 0.924375 5.1629 0
M  V30 5132 H 492.809 -0.758445 5.46765 0
M  V30 5133 H 493.286 -1.69346 4.05239 0
M  V30 5134 H 493.892 -0.0333237 4.25287 0
M  V30 5135 N 492.207 -1.54576 0.307264 0
M  V30 5136 C 493.14 -2.19946 -0.608195 0
M  V30 5137 C 494.118 -1.17096 -1.12815 0
M  V30 5138 O 495.302 -1.45766 -1.19518 0
M  V30 5139 C 492.429 -2.84826 -1.8328 0
M  V30 5140 C 491.475 -4.01256 -1.44554 0
M  V30 5141 S 492.308 -5.33197 -0.49612 0
M  V30 5142 C 493.464 -6.01563 -1.72838 0
M  V30 5143 H 493.697 -2.97253 -0.0528544 0
M  V30 5144 H 491.23 -1.54129 0.0913837 0
M  V30 5145 H 493.188 -3.22832 -2.53554 0
M  V30 5146 H 491.849 -2.07353 -2.35931 0
M  V30 5147 H 491.042 -4.45457 -2.35762 0
M  V30 5148 H 490.644 -3.6484 -0.822671 0
M  V30 5149 H 492.936 -6.22751 -2.6681 0
M  V30 5150 H 493.879 -6.9552 -1.32882 0
M  V30 5151 H 494.287 -5.31279 -1.90795 0
M  V30 5152 N 493.685 -0.035106 -1.57561 0
M  V30 5153 C 494.915 0.651312 -1.96065 0
M  V30 5154 C 495.323 1.6585 -0.910514 0
M  V30 5155 O 494.666 1.83336 0.11552 0
M  V30 5156 C 494.728 1.40897 -3.30739 0
M  V30 5157 C 494.392 0.559436 -4.53563 0
M  V30 5158 C 495.389 -0.16778 -5.19629 0
M  V30 5159 C 493.074 0.495079 -4.99854 0
M  V30 5160 C 495.068 -0.947963 -6.30311 0
M  V30 5161 C 492.755 -0.288804 -6.10417 0
M  V30 5162 C 493.753 -1.00903 -6.75505 0
M  V30 5163 O 493.441 -1.78005 -7.83945 0
M  V30 5164 H 493.173 0.184036 -0.650467 0
M  V30 5165 H 495.727 -0.0929677 -2.05189 0
M  V30 5166 H 493.957 2.19852 -3.18123 0
M  V30 5167 H 495.646 1.98407 -3.54104 0
M  V30 5168 H 496.412 -0.12743 -4.84833 0
M  V30 5169 H 492.291 1.04524 -4.48994 0
M  V30 5170 H 495.835 -1.51064 -6.81047 0
M  V30 5171 H 491.732 -0.33085 -6.44652 0
M  V30 5172 H 492.5 -1.70046 -8.00641 0
M  V30 5173 N 495.163 1.55791 0.238111 0
M  V30 5174 C 496.44 1.68798 0.98826 0
M  V30 5175 C 496.82 0.577562 2.03045 0
M  V30 5176 O 496.168 -0.41778 2.24648 0
M  V30 5177 C 496.378 3.09454 1.61367 0
M  V30 5178 C 497.726 3.68335 2.11221 0
M  V30 5179 O 498.75 3.1231 1.71292 0
M  V30 5180 O 497.609 4.6657 2.84561 0
M  V30 5181 H 494.703 0.686881 0.460568 0
M  V30 5182 H 497.249 1.68118 0.231202 0
M  V30 5183 H 496.021 3.81726 0.860295 0
M  V30 5184 H 495.644 3.14182 2.4367 0
M  V30 5185 N 496.642 -0.504142 1.49319 0
M  V30 5186 C 497.572 -1.61473 1.68667 0
M  V30 5187 C 498.553 -1.61455 0.535378 0
M  V30 5188 O 499.738 -1.78245 0.770868 0
M  V30 5189 C 496.868 -2.99971 1.75028 0
M  V30 5190 C 495.822 -3.14854 2.89916 0
M  V30 5191 C 495.148 -4.54671 2.81387 0
M  V30 5192 C 496.448 -2.95176 4.30893 0
M  V30 5193 H 498.142 -1.45535 2.61648 0
M  V30 5194 H 495.688 -0.698711 1.25913 0
M  V30 5195 H 497.641 -3.77562 1.8715 0
M  V30 5196 H 496.365 -3.1699 0.786441 0
M  V30 5197 H 495.024 -2.39687 2.77391 0
M  V30 5198 H 494.672 -4.68562 1.82917 0
M  V30 5199 H 494.372 -4.6557 3.58494 0
M  V30 5200 H 495.896 -5.34327 2.95512 0
M  V30 5201 H 497.31 -3.62538 4.44116 0
M  V30 5202 H 495.707 -3.17549 5.09198 0
M  V30 5203 H 496.777 -1.91332 4.45556 0
M  V30 5204 N 498.12 -1.38341 -0.754957 0
M  V30 5205 C 499.068 -1.35573 -1.89005 0
M  V30 5206 C 500.062 -0.241824 -1.67665 0
M  V30 5207 O 501.268 -0.410785 -1.7525 0
M  V30 5208 H 497.643 -0.422898 -0.621821 0
M  V30 5209 H 499.614 -2.31359 -1.88455 0
M  V30 5210 C 498.363 -1.19631 -3.26471 0
M  V30 5211 H 497.686 -2.04605 -3.43477 0
M  V30 5212 H 499.126 -1.21748 -4.06144 0
M  V30 5213 C 497.585 0.0968705 -3.36761 0
M  V30 5214 O 498.115 1.07439 -3.87066 0
M  V30 5215 N 496.321 0.153242 -2.90196 0
M  V30 5216 H 495.868 -0.642908 -2.49448 0
M  V30 5217 H 495.826 1.01807 -2.9746 0
M  V30 5218 N 499.598 0.982988 -1.23187 0
M  V30 5219 C 500.546 2.09616 -1.00817 0
M  V30 5220 C 501.54 1.6932 0.0519995 0
M  V30 5221 O 502.746 1.79715 -0.101284 0
M  V30 5222 H 499.121 0.685628 -0.308899 0
M  V30 5223 H 501.092 2.25652 -1.95253 0
M  V30 5224 C 499.841 3.42249 -0.613243 0
M  V30 5225 H 499.164 3.73705 -1.42073 0
M  V30 5226 H 500.604 4.21086 -0.496208 0
M  V30 5227 C 499.063 3.30002 0.678233 0
M  V30 5228 O 499.593 3.6263 1.72807 0
M  V30 5229 N 497.799 2.83164 0.653165 0
M  V30 5230 H 497.346 2.56811 -0.201492 0
M  V30 5231 H 497.304 2.75352 1.51752 0
M  V30 5232 N 501.076 1.04316 1.18135 0
M  V30 5233 C 502.009 0.580823 2.20685 0
M  V30 5234 C 502.987 -0.385943 1.57953 0
M  V30 5235 O 504.171 -0.299654 1.86103 0
M  V30 5236 C 501.298 -0.151162 3.38363 0
M  V30 5237 C 500.344 0.769247 4.19505 0
M  V30 5238 S 501.177 2.25352 4.85774 0
M  V30 5239 C 502.333 1.53246 6.0685 0
M  V30 5240 H 502.566 1.44968 2.5956 0
M  V30 5241 H 500.099 0.85434 1.28609 0
M  V30 5242 H 502.057 -0.567315 4.06561 0
M  V30 5243 H 500.718 -0.995936 2.97892 0
M  V30 5244 H 499.911 0.203335 5.0359 0
M  V30 5245 H 499.513 1.12436 3.56699 0
M  V30 5246 H 501.805 0.82689 6.72435 0
M  V30 5247 H 502.748 2.35044 6.67952 0
M  V30 5248 H 503.156 1.0237 5.5514 0
M  V30 5249 N 502.554 -1.34406 0.822964 0
M  V30 5250 C 503.8 -1.98578 0.411666 0
M  V30 5251 C 504.133 -1.65093 -1.02264 0
M  V30 5252 O 503.408 -0.92258 -1.71227 0
M  V30 5253 C 503.691 -3.54823 0.614235 0
M  V30 5254 C 503.544 -3.9805 2.09466 0
M  V30 5255 C 504.863 -4.40071 0.050221 0
M  V30 5256 H 501.982 -0.721355 0.151047 0
M  V30 5257 H 504.624 -1.59301 1.03554 0
M  V30 5258 H 502.774 -3.88411 0.0831774 0
M  V30 5259 H 504.446 -3.74795 2.68936 0
M  V30 5260 H 502.689 -3.4836 2.5851 0
M  V30 5261 H 503.36 -5.06819 2.18721 0
M  V30 5262 H 505.836 -4.13037 0.503953 0
M  V30 5263 H 504.712 -5.48452 0.221759 0
M  V30 5264 H 504.973 -4.29576 -1.04482 0
M  V30 5265 N 504.032 -0.577932 -1.46621 0
M  V30 5266 C 504.98 0.170882 -2.31971 0
M  V30 5267 C 505.974 0.889086 -1.44193 0
M  V30 5268 O 507.18 0.808017 -1.60845 0
M  V30 5269 H 503.555 0.0739763 -0.748353 0
M  V30 5270 H 505.526 -0.567856 -2.92947 0
M  V30 5271 C 504.275 1.17438 -3.27267 0
M  V30 5272 H 503.598 0.63116 -3.94787 0
M  V30 5273 H 505.038 1.66882 -3.89778 0
M  V30 5274 C 503.497 2.23292 -2.52274 0
M  V30 5275 O 504.027 3.30567 -2.28229 0
M  V30 5276 N 502.233 1.97772 -2.12919 0
M  V30 5277 H 501.78 1.10545 -2.32675 0
M  V30 5278 H 501.738 2.68809 -1.63062 0
M  V30 5279 N 505.51 1.54411 -0.315457 0
M  V30 5280 C 506.442 2.21527 0.588067 0
M  V30 5281 C 507.455 1.21263 1.08624 0
M  V30 5282 O 508.644 1.47777 1.00121 0
M  V30 5283 C 505.744 2.85963 1.81875 0
M  V30 5284 C 504.917 4.12291 1.46063 0
M  V30 5285 C 503.976 4.60396 2.54799 0
M  V30 5286 O 503.002 5.25265 2.19283 0
M  V30 5287 N 504.204 4.33935 3.85591 0
M  V30 5288 H 506.969 2.99697 0.013414 0
M  V30 5289 H 504.53 1.61308 -0.138295 0
M  V30 5290 H 506.522 3.15071 2.53993 0
M  V30 5291 H 505.092 2.11548 2.30144 0
M  V30 5292 H 504.312 3.90036 0.571445 0
M  V30 5293 H 505.6 4.9452 1.19695 0
M  V30 5294 H 504.998 3.81996 4.17248 0
M  V30 5295 H 503.555 4.67718 4.53964 0
M  V30 5296 N 506.988 0.0434614 1.5754 0
M  V30 5297 C 508.216 -0.641835 1.96693 0
M  V30 5298 C 508.631 -1.64832 0.920652 0
M  V30 5299 O 507.988 -1.82247 -0.095993 0
M  V30 5300 C 508.039 -1.33557 3.35924 0
M  V30 5301 O 507.76 -0.369403 4.3654 0
M  V30 5302 C 509.261 -2.11135 3.89791 0
M  V30 5303 H 506.481 -0.176013 0.647503 0
M  V30 5304 H 509.025 0.107478 2.04217 0
M  V30 5305 H 507.18 -2.03617 3.29574 0
M  V30 5306 H 507.594 -0.863674 5.1734 0
M  V30 5307 H 509.068 -2.55107 4.89514 0
M  V30 5308 H 509.545 -2.95634 3.24803 0
M  V30 5309 H 510.151 -1.46002 3.99454 0
M  V30 5310 N 508.466 -1.55915 -0.229846 0
M  V30 5311 C 509.714 -1.7819 -0.953565 0
M  V30 5312 C 510.035 -0.610504 -1.85197 0
M  V30 5313 O 509.305 0.372988 -1.92316 0
M  V30 5314 H 507.885 -0.657208 -0.355087 0
M  V30 5315 H 510.547 -1.9337 -0.243693 0
M  V30 5316 H 509.643 -2.70011 -1.56527 0
M  V30 5317 N 509.944 0.496216 -1.49584 0
M  V30 5318 C 510.892 1.61805 -1.67098 0
M  V30 5319 C 511.886 1.60667 -0.536877 0
M  V30 5320 O 513.092 1.65118 -0.716654 0
M  V30 5321 H 509.467 0.53646 -0.526986 0
M  V30 5322 H 511.438 1.44187 -2.61252 0
M  V30 5323 C 510.187 2.99912 -1.75921 0
M  V30 5324 H 509.51 3.01496 -2.62565 0
M  V30 5325 H 510.95 3.77931 -1.92209 0
M  V30 5326 C 509.409 3.33092 -0.505088 0
M  V30 5327 O 509.939 4.00019 0.367085 0
M  V30 5328 N 508.145 2.88278 -0.366599 0
M  V30 5329 H 507.692 2.33989 -1.07735 0
M  V30 5330 H 507.65 3.10846 0.47142 0
M  V30 5331 N 511.423 1.38739 0.74761 0
M  V30 5332 C 512.333 1.38696 1.89211 0
M  V30 5333 C 513.349 0.283303 1.71678 0
M  V30 5334 O 514.525 0.522713 1.94498 0
M  V30 5335 C 511.59 1.21662 3.24653 0
M  V30 5336 C 510.651 2.41886 3.54669 0
M  V30 5337 C 509.884 2.25655 4.83648 0
M  V30 5338 O 510.107 1.25339 5.56459 0
M  V30 5339 O 509.041 3.14372 5.13277 0
M  V30 5340 H 512.867 2.35143 1.92202 0
M  V30 5341 H 510.452 1.19721 0.893708 0
M  V30 5342 H 512.334 1.14246 4.05618 0
M  V30 5343 H 511.009 0.283024 3.2246 0
M  V30 5344 H 509.916 2.54877 2.73841 0
M  V30 5345 H 511.249 3.33895 3.61628 0
M  V30 5346 N 512.901 -0.976442 1.23707 0
M  V30 5347 C 514.131 -1.75087 1.09673 0
M  V30 5348 C 514.539 -1.85852 -0.354344 0
M  V30 5349 O 513.882 -1.33985 -1.25673 0
M  V30 5350 C 513.944 -3.19272 1.65245 0
M  V30 5351 C 513.608 -3.32004 3.14042 0
M  V30 5352 C 514.605 -3.18017 4.11292 0
M  V30 5353 C 512.29 -3.56525 3.53829 0
M  V30 5354 C 514.284 -3.28363 5.46312 0
M  V30 5355 C 511.971 -3.6651 4.88993 0
M  V30 5356 C 512.969 -3.52439 5.85043 0
M  V30 5357 O 512.657 -3.62063 7.1775 0
M  V30 5358 H 512.389 -0.556164 0.384262 0
M  V30 5359 H 514.943 -1.23518 1.64111 0
M  V30 5360 H 513.173 -3.72107 1.05231 0
M  V30 5361 H 514.862 -3.7849 1.46629 0
M  V30 5362 H 515.628 -2.98966 3.81896 0
M  V30 5363 H 511.507 -3.66547 2.79579 0
M  V30 5364 H 515.051 -3.17297 6.21263 0
M  V30 5365 H 510.948 -3.85072 5.18063 0
M  V30 5366 H 511.716 -3.78833 7.25553 0
M  V30 5367 N 514.379 -1.04941 -1.1758 0
M  V30 5368 C 515.326 -0.648155 -2.21512 0
M  V30 5369 C 516.296 0.348431 -1.62404 0
M  V30 5370 O 517.481 0.240419 -1.89279 0
M  V30 5371 C 514.621 -0.0264291 -3.4509 0
M  V30 5372 C 513.734 -1.07154 -4.185 0
M  V30 5373 C 512.869 -0.417403 -5.29558 0
M  V30 5374 C 511.908 -1.447 -5.94751 0
M  V30 5375 N 511.045 -0.817203 -6.97328 0
M  V30 5376 H 515.885 -1.53891 -2.55189 0
M  V30 5377 H 513.422 -0.769699 -1.25356 0
M  V30 5378 H 515.38 0.351456 -4.15717 0
M  V30 5379 H 514.01 0.827802 -3.12005 0
M  V30 5380 H 513.062 -1.56728 -3.46613 0
M  V30 5381 H 514.374 -1.8532 -4.63096 0
M  V30 5382 H 513.528 0.0142061 -6.06698 0
M  V30 5383 H 512.267 0.396265 -4.86087 0
M  V30 5384 H 511.272 -1.88865 -5.16343 0
M  V30 5385 H 512.497 -2.26252 -6.40302 0
M  V30 5386 H 510.443 -0.0239995 -6.55996 0
M  V30 5387 H 510.36 -1.53644 -7.40223 0
M  V30 5388 H 511.628 -0.410283 -7.7842 0
M  V30 5389 N 515.857 1.33968 -0.830081 0
M  V30 5390 C 517.087 2.01987 -0.434142 0
M  V30 5391 C 517.495 1.62639 0.96671 0
M  V30 5392 O 516.838 0.831151 1.63822 0
M  V30 5393 C 516.9 3.5648 -0.465018 0
M  V30 5394 C 516.564 4.19176 -1.82045 0
M  V30 5395 C 517.561 4.39181 -2.78237 0
M  V30 5396 C 515.246 4.55792 -2.11089 0
M  V30 5397 C 517.24 4.94937 -4.01642 0
M  V30 5398 C 514.927 5.11258 -3.34752 0
M  V30 5399 C 515.925 5.30775 -4.29845 0
M  V30 5400 O 515.613 5.85064 -5.51322 0
M  V30 5401 H 515.345 0.653847 -0.171639 0
M  V30 5402 H 517.899 1.72066 -1.12171 0
M  V30 5403 H 516.129 3.8569 0.279284 0
M  V30 5404 H 517.818 4.05804 -0.0881334 0
M  V30 5405 H 518.584 4.11249 -2.57097 0
M  V30 5406 H 514.463 4.39901 -1.3787 0
M  V30 5407 H 518.007 5.10086 -4.75876 0
M  V30 5408 H 513.904 5.38619 -3.55753 0
M  V30 5409 H 514.672 6.03489 -5.5294 0
M  V30 5410 N 517.335 0.585699 1.46312 0
M  V30 5411 C 518.282 -0.145835 2.30339 0
M  V30 5412 C 519.252 -0.881215 1.40797 0
M  V30 5413 O 520.437 -0.871293 1.69744 0
M  V30 5414 C 517.577 -1.15161 3.25318 0
M  V30 5415 C 516.69 -0.419367 4.2996 0
M  V30 5416 C 515.825 -1.41293 5.12064 0
M  V30 5417 C 514.864 -0.667261 6.08452 0
M  V30 5418 N 514.001 -1.60903 6.83414 0
M  V30 5419 H 518.841 0.576755 2.92365 0
M  V30 5420 H 516.378 0.296237 1.44086 0
M  V30 5421 H 518.336 -1.74763 3.78832 0
M  V30 5422 H 516.966 -1.84188 2.65094 0
M  V30 5423 H 516.018 0.291751 3.7928 0
M  V30 5424 H 517.33 0.163433 4.98532 0
M  V30 5425 H 516.484 -2.08167 5.6987 0
M  V30 5426 H 515.223 -2.02966 4.43459 0
M  V30 5427 H 514.228 0.0152356 5.49798 0
M  V30 5428 H 515.453 -0.0558817 6.79077 0
M  V30 5429 H 513.399 -2.21381 6.17516 0
M  V30 5430 H 513.316 -1.07911 7.48259 0
M  V30 5431 H 514.584 -2.26802 7.45775 0
M  V30 5432 N 518.813 -1.54241 0.323641 0
M  V30 5433 C 519.723 -2.28033 -0.551205 0
M  V30 5434 C 520.739 -1.32388 -1.12913 0
M  V30 5435 O 521.915 -1.65403 -1.14908 0
M  V30 5436 C 518.98 -3.02382 -1.69606 0
M  V30 5437 C 518.041 -4.13612 -1.14993 0
M  V30 5438 C 517.274 -4.84407 -2.24022 0
M  V30 5439 O 517.497 -4.54716 -3.44368 0
M  V30 5440 O 516.431 -5.71312 -1.89436 0
M  V30 5441 H 520.257 -3.03662 0.048066 0
M  V30 5442 H 517.842 -1.49133 0.0893289 0
M  V30 5443 H 519.724 -3.48941 -2.36259 0
M  V30 5444 H 518.399 -2.29628 -2.28151 0
M  V30 5445 H 517.306 -3.71402 -0.448484 0
M  V30 5446 H 518.639 -4.8841 -0.609608 0
M  V30 5447 N 520.291 -0.0518155 -1.57515 0
M  V30 5448 C 521.239 0.940195 -2.12751 0
M  V30 5449 C 522.233 1.3218 -1.05948 0
M  V30 5450 O 523.439 1.30138 -1.24355 0
M  V30 5451 H 519.814 0.321066 -0.680015 0
M  V30 5452 H 521.785 0.449217 -2.94999 0
M  V30 5453 C 520.534 2.2055 -2.68799 0
M  V30 5454 H 519.857 1.92066 -3.50643 0
M  V30 5455 H 521.297 2.88119 -3.11068 0
M  V30 5456 C 519.756 2.95061 -1.62605 0
M  V30 5457 O 520.286 3.88025 -1.03921 0
M  V30 5458 N 518.492 2.57804 -1.34111 0
M  V30 5459 H 518.039 1.82281 -1.8202 0
M  V30 5460 H 517.997 3.07964 -0.632872 0
M  V30 5461 N 521.769 1.56035 0.221574 0
M  V30 5462 C 522.699 1.95434 1.2778 0
M  V30 5463 C 523.68 0.822564 1.48889 0
M  V30 5464 O 524.865 1.08486 1.61072 0
M  V30 5465 C 521.995 2.27102 2.62759 0
M  V30 5466 C 520.949 3.4277 2.56306 0
M  V30 5467 C 520.275 3.60043 3.95314 0
M  V30 5468 C 521.575 4.77742 2.11093 0
M  V30 5469 H 523.269 2.83912 0.950504 0
M  V30 5470 H 520.815 1.36596 0.455791 0
M  V30 5471 H 522.768 2.53256 3.36807 0
M  V30 5472 H 521.492 1.35478 2.97176 0
M  V30 5473 H 520.151 3.16664 1.84715 0
M  V30 5474 H 519.799 2.65794 4.27039 0
M  V30 5475 H 519.499 4.37841 3.91879 0
M  V30 5476 H 521.023 3.88545 4.71025 0
M  V30 5477 H 522.437 5.03102 2.74885 0
M  V30 5478 H 520.834 5.58823 2.18716 0
M  V30 5479 H 521.904 4.731 1.06321 0
M  V30 5480 N 523.247 -0.488276 1.49845 0
M  V30 5481 C 524.496 -1.23826 1.59217 0
M  V30 5482 C 524.809 -1.93439 0.289966 0
M  V30 5483 O 526.015 -2.70229 0.262382 0
M  V30 5484 C 524.471 -2.24902 2.80976 0
M  V30 5485 C 524.079 -1.6117 4.18005 0
M  V30 5486 C 525.823 -3.00648 2.99685 0
M  V30 5487 C 523.73 -2.60431 5.3097 0
M  V30 5488 H 522.66 -0.465858 0.592868 0
M  V30 5489 H 525.311 -0.510645 1.76252 0
M  V30 5490 H 523.693 -3.0088 2.57463 0
M  V30 5491 H 524.867 -0.910968 4.51706 0
M  V30 5492 H 523.182 -0.97767 4.0476 0
M  V30 5493 H 525.779 -3.74903 3.81251 0
M  V30 5494 H 526.122 -3.5902 2.10738 0
M  V30 5495 H 526.655 -2.31784 3.23297 0
M  V30 5496 H 523.394 -2.06823 6.22017 0
M  V30 5497 H 522.914 -3.28707 5.01709 0
M  V30 5498 H 524.593 -3.22606 5.60834 0
M  V30 5499 N 524.725 -1.39134 -0.740242 0
M  V30 5500 C 525.953 -1.39334 -1.5295 0
M  V30 5501 C 526.368 0.0135008 -1.88795 0
M  V30 5502 O 525.725 0.983524 -1.5373 0
M  V30 5503 C 525.776 -2.2614 -2.82034 0
M  V30 5504 O 525.497 -3.61345 -2.47712 0
M  V30 5505 C 526.998 -2.34666 -3.76094 0
M  V30 5506 H 524.218 -0.476103 -0.472828 0
M  V30 5507 H 526.762 -1.82883 -0.9151 0
M  V30 5508 H 524.917 -1.86018 -3.39818 0
M  V30 5509 H 525.331 -4.07194 -3.30595 0
M  V30 5510 H 526.805 -2.99663 -4.63579 0
M  V30 5511 H 527.282 -1.36426 -4.17474 0
M  V30 5512 H 527.888 -2.75236 -3.2423 0
M  V30 5513 N 526.204 0.969867 -1.24223 0
M  V30 5514 C 527.451 1.71256 -1.08063 0
M  V30 5515 C 527.779 1.90734 0.380872 0
M  V30 5516 O 527.034 1.46469 1.29789 0
M  V30 5517 C 527.333 3.10883 -1.76314 0
M  V30 5518 C 526.999 3.11252 -3.26241 0
M  V30 5519 C 525.661 3.1106 -3.67144 0
M  V30 5520 C 528.013 3.05751 -4.22097 0
M  V30 5521 C 525.341 3.03097 -5.02344 0
M  V30 5522 C 527.693 2.9933 -5.57301 0
M  V30 5523 C 526.357 2.97466 -5.97554 0
M  V30 5524 H 525.627 0.62667 -0.395431 0
M  V30 5525 H 528.274 1.13422 -1.54297 0
M  V30 5526 H 526.579 3.72168 -1.22468 0
M  V30 5527 H 528.276 3.67138 -1.61277 0
M  V30 5528 H 524.866 3.12165 -2.93685 0
M  V30 5529 H 529.05 3.05031 -3.91497 0
M  V30 5530 H 524.306 3.00013 -5.32731 0
M  V30 5531 H 528.48 2.94033 -6.31283 0
M  V30 5532 H 526.107 2.91051 -7.02277 0
M  V30 5533 N 527.682 1.05563 1.17022 0
M  V30 5534 C 528.931 0.763036 1.8671 0
M  V30 5535 C 529.244 -0.712857 1.82147 0
M  V30 5536 O 530.45 -1.11955 2.47343 0
M  V30 5537 C 528.906 1.31474 3.35026 0
M  V30 5538 C 528.514 2.82034 3.48081 0
M  V30 5539 C 530.258 1.09935 4.10018 0
M  V30 5540 C 528.165 3.30486 4.90442 0
M  V30 5541 H 527.095 0.281747 0.699382 0
M  V30 5542 H 529.746 1.2734 1.32124 0
M  V30 5543 H 528.128 0.732171 3.89173 0
M  V30 5544 H 529.302 3.46178 3.04133 0
M  V30 5545 H 527.617 3.02156 2.86515 0
M  V30 5546 H 530.214 1.43632 5.15048 0
M  V30 5547 H 530.557 0.0373072 4.16283 0
M  V30 5548 H 531.09 1.64732 3.62089 0
M  V30 5549 H 527.829 4.36137 4.89352 0
M  V30 5550 H 527.349 2.71086 5.35044 0
M  V30 5551 H 529.028 3.25382 5.59227 0
M  V30 5552 N 529.16 -1.33526 0.837174 0
M  V30 5553 C 530.437 -1.92369 0.354065 0
M  V30 5554 C 530.817 -1.76348 -1.16038 0
M  V30 5555 O 530.165 -1.15083 -1.97403 0
M  V30 5556 C 530.375 -3.39728 0.799101 0
M  V30 5557 C 531.723 -4.16877 0.806139 0
M  V30 5558 O 532.747 -3.48373 0.742597 0
M  V30 5559 O 531.606 -5.39166 0.892345 0
M  V30 5560 H 528.7 -0.820952 0.0998378 0
M  V30 5561 H 531.246 -1.42409 0.922913 0
M  V30 5562 H 530.018 -3.45254 1.84162 0
M  V30 5563 H 529.641 -3.97062 0.206731 0
M  V30 5564 N 530.638 -0.59345 -1.46 0
M  V30 5565 C 531.586 0.146268 -2.3214 0
M  V30 5566 C 532.58 0.873743 -1.45128 0
M  V30 5567 O 533.786 0.790912 -1.61693 0
M  V30 5568 H 530.161 0.0660349 -0.749095 0
M  V30 5569 H 532.132 -0.598895 -2.92328 0
M  V30 5570 C 530.881 1.1396 -3.28494 0
M  V30 5571 H 530.204 0.589252 -3.95434 0
M  V30 5572 H 531.644 1.62738 -3.91526 0
M  V30 5573 C 530.103 2.20604 -2.54628 0
M  V30 5574 O 530.633 3.28128 -2.31722 0
M  V30 5575 N 528.839 1.95502 -2.15005 0
M  V30 5576 H 528.386 1.0807 -2.33834 0
M  V30 5577 H 528.344 2.67064 -1.65904 0
M  V30 5578 N 532.116 1.54067 -0.331816 0
M  V30 5579 C 533.066 2.21363 0.546101 0
M  V30 5580 C 534.05 1.19698 1.07523 0
M  V30 5581 O 535.242 1.45293 1.01088 0
M  V30 5582 C 532.371 2.98115 1.70242 0
M  V30 5583 C 531.457 4.07127 1.18779 0
M  V30 5584 N 531.848 5.04267 0.393465 0
M  V30 5585 C 530.146 4.21226 1.46576 0
M  V30 5586 C 530.847 5.81585 0.115572 0
M  V30 5587 N 529.823 5.39022 0.703987 0
M  V30 5588 H 533.625 2.93821 -0.0679751 0
M  V30 5589 H 531.139 1.61812 -0.138085 0
M  V30 5590 H 533.136 3.44818 2.34321 0
M  V30 5591 H 531.796 2.27181 2.31989 0
M  V30 5592 H 532.807 5.17888 0.0355757 0
M  V30 5593 H 529.484 3.61509 2.08848 0
M  V30 5594 H 530.874 6.6985 -0.524426 0
M  V30 5595 N 533.594 0.0601682 1.57485 0
M  V30 5596 C 534.871 -0.651956 1.84415 0
M  V30 5597 C 535.251 -1.88498 0.950361 0
M  V30 5598 O 534.599 -2.28496 0.0136719 0
M  V30 5599 C 534.809 -1.00069 3.34346 0
M  V30 5600 C 536.157 -1.37915 4.01578 0
M  V30 5601 O 537.181 -1.09277 3.39024 0
M  V30 5602 O 536.04 -1.91399 5.11887 0
M  V30 5603 H 533.134 -0.322668 0.761455 0
M  V30 5604 H 535.68 0.0902159 1.6946 0
M  V30 5605 H 534.452 -0.124463 3.91102 0
M  V30 5606 H 534.075 -1.80001 3.54521 0
M  V30 5607 N 535.072 -1.5615 -0.213296 0
M  V30 5608 C 536.005 -1.88115 -1.29182 0
M  V30 5609 C 536.983 -0.739348 -1.44819 0
M  V30 5610 O 538.167 -0.988541 -1.605 0
M  V30 5611 C 535.294 -2.09541 -2.66102 0
M  V30 5612 C 534.34 -3.32236 -2.67436 0
M  V30 5613 S 535.173 -4.87915 -2.20679 0
M  V30 5614 C 536.329 -5.12387 -3.59458 0
M  V30 5615 H 536.562 -2.793 -1.01876 0
M  V30 5616 H 534.095 -1.48692 -0.415934 0
M  V30 5617 H 536.053 -2.22568 -3.44925 0
M  V30 5618 H 534.714 -1.19138 -2.90628 0
M  V30 5619 H 533.907 -3.44297 -3.6807 0
M  V30 5620 H 533.509 -3.18108 -1.96681 0
M  V30 5621 H 535.801 -5.01791 -4.55205 0
M  V30 5622 H 536.744 -6.14236 -3.52306 0
M  V30 5623 H 537.152 -4.40089 -3.53528 0
M  V30 5624 N 536.55 0.480323 -1.50102 0
M  V30 5625 C 537.775 1.26126 -1.64642 0
M  V30 5626 C 538.2 1.85257 -0.325823 0
M  V30 5627 O 537.558 1.66854 0.709194 0
M  V30 5628 C 537.606 2.35243 -2.73301 0
M  V30 5629 O 536.71 3.39646 -2.33911 0
M  V30 5630 H 536.051 0.371463 -0.550374 0
M  V30 5631 H 538.581 0.572696 -1.96421 0
M  V30 5632 H 538.591 2.80695 -2.96098 0
M  V30 5633 H 537.266 1.91574 -3.6915 0
M  V30 5634 H 535.843 2.99969 -2.21525 0
M  V30 5635 N 538.028 1.39524 0.732853 0
M  V30 5636 C 539.444 1.21176 1.03868 0
M  V30 5637 C 539.644 0.0748448 2.01361 0
M  V30 5638 O 538.7 -0.57281 2.45917 0
M  V30 5639 C 540.013 2.54667 1.59892 0
M  V30 5640 C 541.561 2.6153 1.71962 0
M  V30 5641 C 542.036 3.95248 2.31394 0
M  V30 5642 N 543.527 3.96899 2.38801 0
M  V30 5643 C 544.262 4.97138 2.85729 0
M  V30 5644 N 543.758 6.07775 3.32537 0
M  V30 5645 N 545.551 4.84516 2.84957 0
M  V30 5646 H 537.702 2.12225 0.086304 0
M  V30 5647 H 539.965 0.942614 0.100907 0
M  V30 5648 H 539.671 3.38423 0.95721 0
M  V30 5649 H 539.545 2.74538 2.58668 0
M  V30 5650 H 541.932 1.78156 2.35254 0
M  V30 5651 H 542.013 2.45507 0.718327 0
M  V30 5652 H 541.657 4.79054 1.68729 0
M  V30 5653 H 541.587 4.08593 3.32204 0
M  V30 5654 H 544.078 3.16998 2.05719 0
M  V30 5655 H 544.391 6.8017 3.66862 0
M  V30 5656 H 542.736 6.11366 3.30541 0
M  V30 5657 H 545.927 3.97185 2.47713 0
M  V30 5658 H 546.1 5.62783 3.21215 0
M  V30 5659 N 539.506 -0.963266 1.24736 0
M  V30 5660 C 540.753 -1.7068 1.0897 0
M  V30 5661 C 541.081 -1.90934 -0.370751 0
M  V30 5662 O 540.336 -1.47155 -1.29011 0
M  V30 5663 C 540.635 -3.09944 1.7796 0
M  V30 5664 C 540.301 -3.09518 3.27887 0
M  V30 5665 C 538.963 -3.09109 3.68789 0
M  V30 5666 C 541.315 -3.03509 4.23712 0
M  V30 5667 C 538.643 -3.00429 5.03944 0
M  V30 5668 C 540.995 -2.96371 5.5888 0
M  V30 5669 C 539.659 -2.94293 5.99123 0
M  V30 5670 H 538.929 -0.624564 0.398749 0
M  V30 5671 H 541.576 -1.12603 1.54896 0
M  V30 5672 H 539.881 -3.71513 1.2444 0
M  V30 5673 H 541.578 -3.66278 1.63222 0
M  V30 5674 H 538.168 -3.10603 2.95337 0
M  V30 5675 H 542.352 -3.0295 3.93109 0
M  V30 5676 H 537.608 -2.97183 5.34314 0
M  V30 5677 H 541.782 -2.90681 6.32833 0
M  V30 5678 H 539.409 -2.87322 7.03811 0
M  V30 5679 N 540.985 -1.06182 -1.16461 0
M  V30 5680 C 541.915 -0.692861 -2.22984 0
M  V30 5681 C 542.896 0.314122 -1.67174 0
M  V30 5682 O 544.081 0.189499 -1.93273 0
M  V30 5683 C 541.211 -0.07732 -3.47214 0
M  V30 5684 C 540.165 -1.01015 -4.15909 0
M  V30 5685 C 539.491 -0.257973 -5.34077 0
M  V30 5686 C 540.791 -2.33868 -4.67015 0
M  V30 5687 H 542.485 -1.58343 -2.54102 0
M  V30 5688 H 540.031 -0.76279 -1.22137 0
M  V30 5689 H 541.984 0.19266 -4.20959 0
M  V30 5690 H 540.708 0.848254 -3.15392 0
M  V30 5691 H 539.367 -1.26486 -3.44088 0
M  V30 5692 H 539.015 0.670684 -4.98509 0
M  V30 5693 H 538.715 -0.879638 -5.80979 0
M  V30 5694 H 540.239 0.00448788 -6.106 0
M  V30 5695 H 541.653 -2.1279 -5.32347 0
M  V30 5696 H 540.05 -2.91522 -5.24533 0
M  V30 5697 H 541.12 -2.97019 -3.83286 0
M  V30 5698 N 542.463 1.3308 -0.844243 0
M  V30 5699 C 543.688 2.02341 -0.455282 0
M  V30 5700 C 544.113 1.6308 0.93737 0
M  V30 5701 O 543.471 0.826118 1.61385 0
M  V30 5702 C 543.519 3.55743 -0.58988 0
M  V30 5703 O 542.623 4.1063 0.38166 0
M  V30 5704 H 541.964 0.637898 -0.184343 0
M  V30 5705 H 544.494 1.6986 -1.14056 0
M  V30 5706 H 544.504 4.05243 -0.473522 0
M  V30 5707 H 543.179 3.83662 -1.60549 0
M  V30 5708 H 541.756 3.72236 0.22241 0
M  V30 5709 N 543.941 0.601185 1.45683 0
M  V30 5710 C 545.187 0.0940202 2.02582 0
M  V30 5711 C 545.52 -1.26972 1.46941 0
M  V30 5712 O 544.795 -1.83613 0.641612 0
M  V30 5713 C 545.078 0.0481715 3.60068 0
M  V30 5714 C 544.931 1.44212 4.26055 0
M  V30 5715 C 546.25 -0.642975 4.35378 0
M  V30 5716 H 543.369 0.0356404 0.736138 0
M  V30 5717 H 546.011 0.771929 1.73612 0
M  V30 5718 H 544.161 -0.529128 3.8488 0
M  V30 5719 H 545.833 2.06601 4.12449 0
M  V30 5720 H 544.076 2.00465 3.84703 0
M  V30 5721 H 544.747 1.36234 5.34925 0
M  V30 5722 H 547.223 -0.152351 4.15821 0
M  V30 5723 H 546.099 -0.644141 5.45107 0
M  V30 5724 H 546.36 -1.70785 4.0778 0
M  V30 5725 N 545.419 -1.53889 0.339982 0
M  V30 5726 C 546.367 -2.26391 -0.533822 0
M  V30 5727 C 547.361 -1.28404 -1.10493 0
M  V30 5728 O 548.567 -1.46124 -1.05108 0
M  V30 5729 H 544.942 -0.727385 -0.190828 0
M  V30 5730 H 546.913 -2.98233 0.0997484 0
M  V30 5731 C 545.662 -3.04707 -1.67479 0
M  V30 5732 H 544.985 -3.79934 -1.2446 0
M  V30 5733 H 546.425 -3.58657 -2.26144 0
M  V30 5734 C 544.884 -2.13989 -2.60212 0
M  V30 5735 O 545.414 -1.73361 -3.62366 0
M  V30 5736 N 543.62 -1.79141 -2.28816 0
M  V30 5737 H 543.167 -2.12378 -1.45785 0
M  V30 5738 H 543.125 -1.18725 -2.91121 0
M  V30 5739 N 546.897 -0.0685191 -1.57451 0
M  V30 5740 C 548.122 0.613919 -1.98106 0
M  V30 5741 C 548.547 1.62551 -0.946501 0
M  V30 5742 O 547.905 1.81085 0.0882824 0
M  V30 5743 C 547.953 1.26189 -3.378 0
M  V30 5744 O 547.057 2.37773 -3.36954 0
M  V30 5745 H 546.398 0.158163 -0.644888 0
M  V30 5746 H 548.928 -0.142063 -2.04106 0
M  V30 5747 H 548.938 1.60951 -3.74912 0
M  V30 5748 H 547.613 0.520625 -4.12629 0
M  V30 5749 H 546.19 2.04829 -3.11608 0
M  V30 5750 N 548.375 1.56261 0.205012 0
M  V30 5751 C 549.323 1.94631 1.27364 0
M  V30 5752 C 550.317 0.830434 1.47649 0
M  V30 5753 O 551.523 1.01538 1.48627 0
M  V30 5754 H 547.898 0.618755 0.427371 0
M  V30 5755 H 549.869 2.83768 0.922941 0
M  V30 5756 C 548.618 2.29358 2.61324 0
M  V30 5757 H 547.941 3.14744 2.46528 0
M  V30 5758 H 549.381 2.60076 3.34868 0
M  V30 5759 C 547.84 1.12461 3.17575 0
M  V30 5760 O 548.37 0.394407 3.99759 0
M  V30 5761 N 546.576 0.904036 2.7618 0
M  V30 5762 H 546.123 1.49956 2.09454 0
M  V30 5763 H 546.081 0.123662 3.14157 0
M  V30 5764 N 549.853 -0.472356 1.50355 0
M  V30 5765 C 550.8 -1.57051 1.69126 0
M  V30 5766 C 551.77 -1.5733 0.532574 0
M  V30 5767 O 552.955 -1.7488 0.762994 0
M  V30 5768 C 550.095 -2.95033 1.79024 0
M  V30 5769 C 549.208 -3.04552 3.06386 0
M  V30 5770 C 548.343 -4.33441 3.07087 0
M  V30 5771 C 547.382 -4.36697 4.28908 0
M  V30 5772 N 546.519 -5.57056 4.27356 0
M  V30 5773 H 551.359 -1.40351 2.62879 0
M  V30 5774 H 548.896 -0.682403 1.30314 0
M  V30 5775 H 550.854 -3.75048 1.82744 0
M  V30 5776 H 549.484 -3.10371 0.887109 0
M  V30 5777 H 548.536 -2.17419 3.12143 0
M  V30 5778 H 549.848 -3.02818 3.96362 0
M  V30 5779 H 549.002 -5.21801 3.09529 0
M  V30 5780 H 547.741 -4.37782 2.14939 0
M  V30 5781 H 546.746 -3.46734 4.2668 0
M  V30 5782 H 547.971 -4.34049 5.22282 0
M  V30 5783 H 545.917 -5.62184 3.3806 0
M  V30 5784 H 545.834 -5.57058 5.111 0
M  V30 5785 H 547.102 -6.47545 4.33942 0
M  V30 5786 N 551.331 -1.39911 -0.725443 0
M  V30 5787 C 552.294 -1.39156 -1.82121 0
M  V30 5788 C 553.294 -0.287018 -1.58218 0
M  V30 5789 O 554.484 -0.545421 -1.65441 0
M  V30 5790 C 551.616 -1.1736 -3.20062 0
M  V30 5791 H 552.809 -2.36672 -1.84191 0
M  V30 5792 H 550.362 -1.25615 -0.930079 0
M  V30 5793 H 551.097 -0.205648 -3.23647 0
M  V30 5794 H 550.882 -1.97358 -3.3881 0
M  V30 5795 H 552.372 -1.19596 -4.00108 0
M  V30 5796 N 552.809 0.956637 -1.25245 0
M  V30 5797 C 553.757 2.0743 -1.0524 0
M  V30 5798 C 554.751 1.69392 0.0160725 0
M  V30 5799 O 555.957 1.7946 -0.139382 0
M  V30 5800 H 552.332 0.678921 -0.323373 0
M  V30 5801 H 554.303 2.2146 -1.99995 0
M  V30 5802 C 553.052 3.40872 -0.685702 0
M  V30 5803 H 552.375 3.70607 -1.49968 0
M  V30 5804 H 553.815 4.19939 -0.585415 0
M  V30 5805 C 552.274 3.31367 0.608082 0
M  V30 5806 O 552.804 3.66214 1.65076 0
M  V30 5807 N 551.01 2.84486 0.592955 0
M  V30 5808 H 550.557 2.56326 -0.25592 0
M  V30 5809 H 550.515 2.78509 1.45877 0
M  V30 5810 N 554.287 1.06798 1.15896 0
M  V30 5811 C 555.217 0.704677 2.22613 0
M  V30 5812 C 556.198 -0.305252 1.67339 0
M  V30 5813 O 557.383 -0.179247 1.93371 0
M  V30 5814 C 554.513 0.0957325 3.47168 0
M  V30 5815 C 553.467 1.0322 4.15367 0
M  V30 5816 C 552.793 0.286293 5.33933 0
M  V30 5817 C 554.093 2.36341 4.65768 0
M  V30 5818 H 555.787 1.59688 2.53259 0
M  V30 5819 H 553.333 0.769257 1.21731 0
M  V30 5820 H 555.286 -0.170333 4.21056 0
M  V30 5821 H 554.01 -0.831516 3.15838 0
M  V30 5822 H 552.669 1.28309 3.43413 0
M  V30 5823 H 552.317 -0.644237 4.98857 0
M  V30 5824 H 552.017 0.910436 5.80504 0
M  V30 5825 H 553.541 0.0278938 6.10594 0
M  V30 5826 H 554.955 2.1561 5.31211 0
M  V30 5827 H 553.352 2.94299 5.2298 0
M  V30 5828 H 554.422 2.99047 3.81705 0
M  V30 5829 N 555.766 -1.3263 0.851289 0
M  V30 5830 C 556.716 -2.26451 0.265302 0
M  V30 5831 C 557.7 -1.49814 -0.586899 0
M  V30 5832 O 558.892 -1.71525 -0.436834 0
M  V30 5833 C 556.021 -3.38895 -0.548212 0
M  V30 5834 C 555.107 -4.2292 0.316189 0
M  V30 5835 N 555.498 -4.86014 1.40084 0
M  V30 5836 C 553.796 -4.45876 0.105356 0
M  V30 5837 C 554.497 -5.48667 1.93235 0
M  V30 5838 N 553.473 -5.29455 1.232 0
M  V30 5839 H 557.275 -2.72757 1.09457 0
M  V30 5840 H 554.789 -1.4668 0.697047 0
M  V30 5841 H 556.786 -4.05111 -0.984402 0
M  V30 5842 H 555.446 -2.94135 -1.37531 0
M  V30 5843 H 556.457 -4.86212 1.78377 0
M  V30 5844 H 553.134 -4.11804 -0.687299 0
M  V30 5845 H 554.524 -6.08865 2.84135 0
M  V30 5846 N 557.244 -0.608902 -1.45362 0
M  V30 5847 C 558.176 0.147318 -2.28726 0
M  V30 5848 C 559.189 0.830468 -1.40025 0
M  V30 5849 O 560.378 0.695636 -1.64387 0
M  V30 5850 C 557.478 1.22968 -3.15804 0
M  V30 5851 C 556.651 0.633391 -4.3279 0
M  V30 5852 C 555.71 1.60682 -5.01067 0
M  V30 5853 O 554.736 1.13261 -5.57818 0
M  V30 5854 N 555.938 2.94123 -5.00472 0
M  V30 5855 H 558.703 -0.568014 -2.94268 0
M  V30 5856 H 556.264 -0.448479 -1.55564 0
M  V30 5857 H 558.256 1.88072 -3.58345 0
M  V30 5858 H 556.826 1.84752 -2.52162 0
M  V30 5859 H 556.046 -0.195762 -3.93714 0
M  V30 5860 H 557.334 0.215255 -5.08344 0
M  V30 5861 H 556.732 3.3525 -4.55657 0
M  V30 5862 H 555.289 3.54646 -5.46872 0
M  V30 5863 N 558.722 1.53707 -0.348139 0
M  V30 5864 C 559.685 2.23812 0.494058 0
M  V30 5865 C 560.685 1.23989 1.02388 0
M  V30 5866 O 561.875 1.48395 0.912396 0
M  V30 5867 C 559.007 2.96133 1.68872 0
M  V30 5868 H 560.2 2.99663 -0.119141 0
M  V30 5869 H 557.753 1.55983 -0.0995539 0
M  V30 5870 H 558.488 2.24481 2.34049 0
M  V30 5871 H 558.273 3.69357 1.31596 0
M  V30 5872 H 559.763 3.49475 2.28597 0
M  V30 5873 N 560.2 0.0768682 1.57412 0
M  V30 5874 C 561.13 -0.886026 2.16037 0
M  V30 5875 C 562.111 -1.30691 1.08876 0
M  V30 5876 O 563.296 -1.37705 1.36934 0
M  V30 5877 C 560.426 -2.1518 2.72608 0
M  V30 5878 C 559.38 -1.87015 3.8498 0
M  V30 5879 C 558.706 -3.20266 4.28175 0
M  V30 5880 C 560.006 -1.17143 5.08994 0
M  V30 5881 H 561.7 -0.397642 2.96748 0
M  V30 5882 H 559.246 -0.189823 1.42743 0
M  V30 5883 H 561.199 -2.82962 3.12266 0
M  V30 5884 H 559.923 -2.66269 1.89125 0
M  V30 5885 H 558.582 -1.21636 3.45833 0
M  V30 5886 H 558.23 -3.69207 3.41607 0
M  V30 5887 H 557.93 -3.0221 5.03927 0
M  V30 5888 H 559.454 -3.89237 4.70454 0
M  V30 5889 H 560.868 -1.75003 5.45937 0
M  V30 5890 H 559.265 -1.09328 5.90057 0
M  V30 5891 H 560.335 -0.151295 4.84664 0
M  V30 5892 N 561.678 -1.56367 -0.196722 0
M  V30 5893 C 562.641 -1.93561 -1.22746 0
M  V30 5894 C 563.641 -0.816566 -1.38524 0
M  V30 5895 O 564.831 -1.084 -1.36363 0
M  V30 5896 C 561.963 -2.20823 -2.59712 0
M  V30 5897 H 563.156 -2.85774 -0.909586 0
M  V30 5898 H 560.709 -1.50032 -0.438174 0
M  V30 5899 H 561.444 -1.31243 -2.96557 0
M  V30 5900 H 561.229 -3.02368 -2.49632 0
M  V30 5901 H 562.719 -2.50608 -3.34044 0
M  V30 5902 N 563.156 0.464375 -1.50603 0
M  V30 5903 C 564.403 1.21596 -1.61928 0
M  V30 5904 C 564.731 1.91804 -0.322737 0
M  V30 5905 O 563.986 1.83065 0.691776 0
M  V30 5906 C 564.285 2.278 -2.75394 0
M  V30 5907 C 563.951 1.74797 -4.1564 0
M  V30 5908 C 562.613 1.60063 -4.53799 0
M  V30 5909 C 564.965 1.35548 -5.03266 0
M  V30 5910 C 562.293 1.04514 -5.77316 0
M  V30 5911 C 564.645 0.814381 -6.27336 0
M  V30 5912 C 563.309 0.653726 -6.64291 0
M  V30 5913 H 562.579 0.444951 -0.592536 0
M  V30 5914 H 565.226 0.510964 -1.84557 0
M  V30 5915 H 563.531 3.04233 -2.46879 0
M  V30 5916 H 565.228 2.85723 -2.81359 0
M  V30 5917 H 561.818 1.87234 -3.8554 0
M  V30 5918 H 566.002 1.45763 -4.74412 0
M  V30 5919 H 561.258 0.908186 -6.04617 0
M  V30 5920 H 565.432 0.501626 -6.94591 0
M  V30 5921 H 563.059 0.22114 -7.59878 0
M  V30 5922 N 564.634 1.40294 0.718013 0
M  V30 5923 C 565.883 1.37746 1.4734 0
M  V30 5924 C 566.196 -0.0180754 1.95592 0
M  V30 5925 O 567.402 -0.166166 2.70991 0
M  V30 5926 C 565.858 2.4208 2.66318 0
M  V30 5927 C 565.466 3.87432 2.24945 0
M  V30 5928 C 567.21 2.48635 3.44065 0
M  V30 5929 C 565.117 4.83368 3.40748 0
M  V30 5930 H 564.047 0.512165 0.553356 0
M  V30 5931 H 566.698 1.66019 0.781661 0
M  V30 5932 H 565.08 2.06903 3.3765 0
M  V30 5933 H 566.254 4.3174 1.6105 0
M  V30 5934 H 564.569 3.8433 1.60249 0
M  V30 5935 H 567.166 3.17499 4.30231 0
M  V30 5936 H 567.509 1.51611 3.87711 0
M  V30 5937 H 568.042 2.82791 2.79775 0
M  V30 5938 H 564.781 5.81716 3.02136 0
M  V30 5939 H 564.301 4.43726 4.03568 0
M  V30 5940 H 565.98 5.03074 4.06848 0
M  V30 5941 N 566.112 -0.949982 1.2575 0
M  V30 5942 C 567.042 -2.06483 1.09028 0
M  V30 5943 C 568.023 -1.701 -0.00201532 0
M  V30 5944 O 569.208 -1.93469 0.168383 0
M  V30 5945 C 566.338 -3.39899 0.71316 0
M  V30 5946 C 565.292 -3.90309 1.75621 0
M  V30 5947 C 564.618 -5.20274 1.23365 0
M  V30 5948 C 565.918 -4.16169 3.15596 0
M  V30 5949 H 567.612 -2.20731 2.02283 0
M  V30 5950 H 565.158 -1.06066 0.973964 0
M  V30 5951 H 567.111 -4.17346 0.58309 0
M  V30 5952 H 565.835 -3.25602 -0.255091 0
M  V30 5953 H 564.494 -3.15035 1.8748 0
M  V30 5954 H 564.142 -5.02351 0.255491 0
M  V30 5955 H 563.842 -5.54971 1.93082 0
M  V30 5956 H 565.366 -6.00314 1.11607 0
M  V30 5957 H 566.78 -4.84259 3.06864 0
M  V30 5958 H 565.177 -4.62131 3.82825 0
M  V30 5959 H 566.247 -3.22273 3.6231 0
M  V30 5960 N 567.59 -1.07411 -1.15328 0
M  V30 5961 C 568.818 -0.818782 -1.90009 0
M  V30 5962 C 569.233 0.628072 -1.78047 0
M  V30 5963 O 568.59 1.43085 -1.13282 0
M  V30 5964 C 568.641 -1.21874 -3.40337 0
M  V30 5965 O 568.362 -2.60883 -3.51954 0
M  V30 5966 C 569.863 -0.992796 -4.3204 0
M  V30 5967 H 567.083 -0.296007 -0.60218 0
M  V30 5968 H 569.627 -1.43073 -1.46117 0
M  V30 5969 H 567.782 -0.651103 -3.81889 0
M  V30 5970 H 568.196 -2.77216 -4.45255 0
M  V30 5971 H 569.67 -1.32215 -5.35932 0
M  V30 5972 H 570.147 0.0708331 -4.39143 0
M  V30 5973 H 570.753 -1.54537 -3.9623 0
M  V30 5974 N 569.068 1.32177 -0.85831 0
M  V30 5975 C 570.293 2.01847 -0.476718 0
M  V30 5976 C 570.718 1.64065 0.920021 0
M  V30 5977 O 570.076 0.843189 1.60499 0
M  V30 5978 C 570.124 3.55097 -0.627578 0
M  V30 5979 O 569.228 4.11012 0.338086 0
M  V30 5980 H 568.569 0.635907 -0.191099 0
M  V30 5981 H 571.099 1.68641 -1.15851 0
M  V30 5982 H 571.109 4.04718 -0.516476 0
M  V30 5983 H 569.784 3.81938 -1.64609 0
M  V30 5984 H 568.361 3.72451 0.182917 0
M  V30 5985 N 570.547 0.616602 1.45037 0
M  V30 5986 C 571.963 0.280994 1.57107 0
M  V30 5987 C 572.163 -1.21627 1.60653 0
M  V30 5988 O 571.219 -1.9997 1.54169 0
M  V30 5989 C 572.532 0.960116 2.8496 0
M  V30 5990 C 574.08 0.936884 2.98649 0
M  V30 5991 C 574.555 1.59619 4.29285 0
M  V30 5992 N 576.046 1.5621 4.36065 0
M  V30 5993 C 576.781 2.04131 5.35834 0
M  V30 5994 N 576.277 2.60177 6.4209 0
M  V30 5995 N 578.07 1.94845 5.27249 0
M  V30 5996 H 570.221 1.58867 1.40979 0
M  V30 5997 H 572.484 0.666024 0.674623 0
M  V30 5998 H 572.19 2.01473 2.88273 0
M  V30 5999 H 572.064 0.488921 3.74018 0
M  V30 6000 H 574.451 -0.109209 2.94898 0
M  V30 6001 H 574.532 1.44643 2.10979 0
M  V30 6002 H 574.176 2.64166 4.33796 0
M  V30 6003 H 574.106 1.06159 5.15789 0
M  V30 6004 H 576.597 1.15276 3.59889 0
M  V30 6005 H 576.91 2.94513 7.1448 0
M  V30 6006 H 575.255 2.64221 6.42816 0
M  V30 6007 H 578.446 1.50792 4.43147 0
M  V30 6008 H 578.619 2.32504 6.04852 0
M  V30 6009 N 572.025 -1.5352 0.356285 0
M  V30 6010 C 573.273 -2.00719 -0.235837 0
M  V30 6011 C 573.594 -1.24551 -1.5004 0
M  V30 6012 O 572.864 -0.356185 -1.92635 0
M  V30 6013 H 571.444 -0.741542 -0.0901366 0
M  V30 6014 H 574.106 -1.88887 0.480378 0
M  V30 6015 H 573.202 -3.08551 -0.469357 0
M  V30 6016 N 573.503 -0.0852151 -1.57369 0
M  V30 6017 C 574.731 0.58946 -1.98325 0
M  V30 6018 C 575.146 1.62333 -0.96403 0
M  V30 6019 O 574.503 1.82438 0.0476395 0
M  V30 6020 C 574.554 1.24604 -3.39347 0
M  V30 6021 O 574.275 0.253532 -4.37366 0
M  V30 6022 C 575.776 2.00726 -3.95252 0
M  V30 6023 H 572.996 0.158783 -0.651942 0
M  V30 6024 H 575.54 -0.161584 -2.03861 0
M  V30 6025 H 573.695 1.94808 -3.34856 0
M  V30 6026 H 574.109 0.726207 -5.19448 0
M  V30 6027 H 575.583 2.42039 -4.96106 0
M  V30 6028 H 576.06 2.86919 -3.32527 0
M  V30 6029 H 576.666 1.3536 -4.03185 0
M  V30 6030 N 574.981 1.5647 0.188427 0
M  V30 6031 C 576.392 1.70864 0.752494 0
M  V30 6032 C 576.743 0.692905 1.83557 0
M  V30 6033 O 575.868 -0.149307 2.15884 0
M  V30 6034 C 576.463 3.09789 1.37173 0
M  V30 6035 C 575.022 3.25925 1.88281 0
M  V30 6036 C 574.169 2.66817 0.755259 0
M  V30 6037 H 577.12 1.58657 -0.0367408 0
M  V30 6038 H 577.141 3.07489 2.24122 0
M  V30 6039 H 576.653 3.83693 0.583219 0
M  V30 6040 H 574.754 2.56948 2.6983 0
M  V30 6041 H 574.867 4.33498 2.04001 0
M  V30 6042 H 573.231 2.2617 1.17128 0
M  V30 6043 H 574.014 3.43294 -0.0211237 0
M  V30 6044 N 576.459 -0.456382 1.50847 0
M  V30 6045 C 577.684 -1.2349 1.66628 0
M  V30 6046 C 578.109 -1.84715 0.355254 0
M  V30 6047 O 577.467 -1.67961 -0.682559 0
M  V30 6048 C 577.515 -2.30865 2.77009 0
M  V30 6049 O 576.619 -3.35882 2.39285 0
M  V30 6050 H 575.96 -0.36266 0.556214 0
M  V30 6051 H 578.49 -0.541374 1.97308 0
M  V30 6052 H 578.5 -2.75949 3.00526 0
M  V30 6053 H 577.175 -1.85677 3.72152 0
M  V30 6054 H 575.752 -2.96406 2.26269 0
M  V30 6055 N 577.937 -1.40673 -0.710563 0
M  V30 6056 C 579.186 -1.38525 -1.46607 0
M  V30 6057 C 579.499 0.0077024 -1.95598 0
M  V30 6058 O 580.705 0.151792 -2.71075 0
M  V30 6059 C 579.161 -2.43489 -2.6503 0
M  V30 6060 C 578.769 -3.88619 -2.22888 0
M  V30 6061 C 580.513 -2.50456 -3.42742 0
M  V30 6062 C 578.42 -4.85168 -3.3818 0
M  V30 6063 H 577.35 -0.515092 -0.550632 0
M  V30 6064 H 580.001 -1.66431 -0.772846 0
M  V30 6065 H 578.383 -2.0869 -3.36548 0
M  V30 6066 H 579.557 -4.32588 -1.58758 0
M  V30 6067 H 577.872 -3.85174 -1.58208 0
M  V30 6068 H 580.469 -3.19776 -4.28541 0
M  V30 6069 H 580.812 -1.53665 -3.86902 0
M  V30 6070 H 581.345 -2.84271 -2.78271 0
M  V30 6071 H 578.084 -5.8331 -2.99047 0
M  V30 6072 H 577.604 -4.4586 -4.01209 0
M  V30 6073 H 579.283 -5.05225 -4.04174 0
M  V30 6074 N 579.415 0.9433 -1.26252 0
M  V30 6075 C 580.645 1.72117 -1.14277 0
M  V30 6076 C 581.053 1.86726 0.304944 0
M  V30 6077 O 580.396 1.3727 1.22076 0
M  V30 6078 C 580.458 3.14778 -1.73651 0
M  V30 6079 C 580.122 3.23561 -3.22734 0
M  V30 6080 C 581.119 3.07001 -4.19579 0
M  V30 6081 C 578.804 3.47019 -3.63157 0
M  V30 6082 C 580.798 3.13763 -5.54826 0
M  V30 6083 C 578.485 3.53416 -4.98538 0
M  V30 6084 C 579.483 3.36804 -5.94182 0
M  V30 6085 O 579.171 3.42906 -7.27098 0
M  V30 6086 H 578.903 0.545781 -0.398873 0
M  V30 6087 H 581.457 1.19123 -1.67328 0
M  V30 6088 H 579.687 3.69186 -1.1506 0
M  V30 6089 H 581.376 3.74469 -1.56613 0
M  V30 6090 H 582.142 2.88736 -3.89688 0
M  V30 6091 H 578.021 3.59006 -2.89199 0
M  V30 6092 H 581.565 3.00714 -6.29458 0
M  V30 6093 H 577.462 3.71201 -5.28091 0
M  V30 6094 H 578.23 3.59463 -7.35342 0
M  V30 6095 N 580.893 1.08022 1.14757 0
M  V30 6096 C 582.123 0.827646 1.89298 0
M  V30 6097 C 582.531 -0.623506 1.78631 0
M  V30 6098 O 581.874 -1.43991 1.14071 0
M  V30 6099 C 581.936 1.16553 3.40082 0
M  V30 6100 C 581.6 2.61866 3.74533 0
M  V30 6101 C 582.597 3.60116 3.74984 0
M  V30 6102 C 580.282 2.97619 4.04633 0
M  V30 6103 C 582.276 4.92151 4.05051 0
M  V30 6104 C 579.963 4.2985 4.34364 0
M  V30 6105 C 580.961 5.26926 4.34555 0
M  V30 6106 O 580.649 6.5678 4.63568 0
M  V30 6107 H 580.381 0.298396 0.606577 0
M  V30 6108 H 582.935 1.44187 1.46285 0
M  V30 6109 H 581.165 0.494296 3.83528 0
M  V30 6110 H 582.854 0.894407 3.95923 0
M  V30 6111 H 583.62 3.33837 3.51821 0
M  V30 6112 H 579.499 2.22702 4.03639 0
M  V30 6113 H 583.043 5.67915 4.05115 0
M  V30 6114 H 578.94 4.55879 4.56995 0
M  V30 6115 H 579.708 6.62035 4.81303 0
M  V30 6116 N 582.371 -1.3172 0.865308 0
M  V30 6117 C 583.619 -1.96487 0.472995 0
M  V30 6118 C 583.94 -1.68761 -0.976975 0
M  V30 6119 O 583.21 -1.00051 -1.68424 0
M  V30 6120 H 581.79 -0.726947 0.171922 0
M  V30 6121 H 584.452 -1.60612 1.10407 0
M  V30 6122 H 583.548 -3.0574 0.62687 0
M  V30 6123 N 583.85 -0.624285 -1.44708 0
M  V30 6124 C 585.077 -0.132919 -2.06473 0
M  V30 6125 C 585.493 1.18967 -1.46602 0
M  V30 6126 O 584.85 1.72824 -0.586341 0
M  V30 6127 C 584.901 -0.00465418 -3.615 0
M  V30 6128 O 584.622 -1.27494 -4.19138 0
M  V30 6129 C 586.123 0.516213 -4.40284 0
M  V30 6130 H 583.343 -0.0765201 -0.666623 0
M  V30 6131 H 585.887 -0.856751 -1.85688 0
M  V30 6132 H 584.042 0.669583 -3.8157 0
M  V30 6133 H 584.456 -1.11536 -5.12504 0
M  V30 6134 H 585.93 0.554994 -5.49203 0
M  V30 6135 H 586.407 1.5419 -4.11245 0
M  V30 6136 H 587.013 -0.124542 -4.25118 0
M  V30 6137 N 585.328 1.53329 -0.364422 0
M  V30 6138 C 586.238 2.29414 0.490552 0
M  V30 6139 C 587.254 1.35335 1.09363 0
M  V30 6140 O 588.43 1.68391 1.10483 0
M  V30 6141 C 585.495 3.06772 1.61529 0
M  V30 6142 C 584.556 4.16516 1.03986 0
M  V30 6143 C 583.789 4.90176 2.111 0
M  V30 6144 O 584.012 4.63687 3.32191 0
M  V30 6145 O 582.946 5.76134 1.74222 0
M  V30 6146 H 586.772 3.03428 -0.12856 0
M  V30 6147 H 584.357 1.48843 -0.128837 0
M  V30 6148 H 586.239 3.55082 2.26924 0
M  V30 6149 H 584.914 2.35596 2.21983 0
M  V30 6150 H 583.821 3.7246 0.349856 0
M  V30 6151 H 585.154 4.89855 0.4799 0
M  V30 6152 N 586.806 0.0935595 1.57322 0
M  V30 6153 C 587.738 -0.895923 2.10964 0
M  V30 6154 C 588.751 -1.24705 1.04654 0
M  V30 6155 O 589.94 -1.20044 1.32105 0
M  V30 6156 C 587.04 -2.20546 2.57318 0
M  V30 6157 C 586.213 -2.0299 3.87445 0
M  V30 6158 C 585.272 -3.17443 4.19662 0
M  V30 6159 O 584.298 -2.91474 4.88909 0
M  V30 6160 N 585.5 -4.43168 3.74943 0
M  V30 6161 H 588.265 -0.437788 2.96485 0
M  V30 6162 H 585.826 -0.0915863 1.61641 0
M  V30 6163 H 587.818 -2.9606 2.75917 0
M  V30 6164 H 586.388 -2.57789 1.76816 0
M  V30 6165 H 585.608 -1.11815 3.78009 0
M  V30 6166 H 586.896 -1.88535 4.7258 0
M  V30 6167 H 586.294 -4.67149 3.19043 0
M  V30 6168 H 584.851 -5.15637 3.987 0
M  V30 6169 N 588.284 -1.56567 -0.180126 0
M  V30 6170 C 589.514 -1.85349 -0.912647 0
M  V30 6171 C 589.922 -0.675795 -1.76719 0
M  V30 6172 O 589.265 0.3645 -1.80047 0
M  V30 6173 C 589.327 -3.08431 -1.84691 0
M  V30 6174 C 588.991 -4.41694 -1.17284 0
M  V30 6175 C 589.988 -5.17062 -0.542532 0
M  V30 6176 C 587.673 -4.8843 -1.17223 0
M  V30 6177 C 589.667 -6.37351 0.0793953 0
M  V30 6178 C 587.354 -6.08652 -0.54647 0
M  V30 6179 C 588.352 -6.82955 0.0782458 0
M  V30 6180 O 588.04 -8.00897 0.694158 0
M  V30 6181 H 587.772 -0.619286 -0.271036 0
M  V30 6182 H 590.326 -2.0454 -0.187768 0
M  V30 6183 H 588.556 -2.85163 -2.61188 0
M  V30 6184 H 590.245 -3.23733 -2.44851 0
M  V30 6185 H 591.011 -4.8204 -0.535045 0
M  V30 6186 H 586.89 -4.30542 -1.64788 0
M  V30 6187 H 590.434 -6.95287 0.567612 0
M  V30 6188 H 586.331 -6.4314 -0.55151 0
M  V30 6189 H 587.099 -8.16352 0.592537 0
M  V30 6190 N 589.762 0.448376 -1.51087 0
M  V30 6191 C 590.695 1.56298 -1.66272 0
M  V30 6192 C 591.673 1.54381 -0.510419 0
M  V30 6193 O 592.857 1.73671 -0.732854 0
M  V30 6194 C 589.984 2.94883 -1.66618 0
M  V30 6195 C 589.03 3.14868 -2.87681 0
M  V30 6196 S 589.863 2.9234 -4.48662 0
M  V30 6197 C 591.019 4.33227 -4.51735 0
M  V30 6198 H 591.252 1.43182 -2.6055 0
M  V30 6199 H 588.785 0.637309 -1.40633 0
M  V30 6200 H 590.743 3.74771 -1.67502 0
M  V30 6201 H 589.404 3.05371 -0.735358 0
M  V30 6202 H 588.597 4.16166 -2.84292 0
M  V30 6203 H 588.199 2.42788 -2.84482 0
M  V30 6204 H 590.491 5.26247 -4.26697 0
M  V30 6205 H 591.434 4.41653 -5.53487 0
M  V30 6206 H 591.842 4.16367 -3.81181 0
M  V30 6207 N 591.24 1.41047 0.703093 0
M  V30 6208 C 592.203 1.42036 1.79884 0
M  V30 6209 C 593.203 0.312153 1.57741 0
M  V30 6210 O 594.393 0.571672 1.64553 0
M  V30 6211 C 591.525 1.22437 3.18154 0
M  V30 6212 H 592.718 2.39572 1.80403 0
M  V30 6213 H 590.271 1.27079 0.909977 0
M  V30 6214 H 591.006 0.257112 3.23279 0
M  V30 6215 H 590.791 2.02723 3.35627 0
M  V30 6216 H 592.281 1.25946 3.98155 0
M  V30 6217 N 592.718 -0.936591 1.26751 0
M  V30 6218 C 593.966 -1.67998 1.12343 0
M  V30 6219 C 594.287 -1.92137 -0.332938 0
M  V30 6220 O 593.557 -1.52132 -1.23421 0
M  V30 6221 H 592.137 -0.622609 0.412756 0
M  V30 6222 H 594.799 -1.12509 1.59147 0
M  V30 6223 H 593.895 -2.65185 1.64571 0
M  V30 6224 N 594.196 -1.08629 -1.14182 0
M  V30 6225 C 595.444 -0.815731 -1.84906 0
M  V30 6226 C 595.765 0.660441 -1.83475 0
M  V30 6227 O 595.035 1.47888 -1.28476 0
M  V30 6228 H 593.615 -0.298773 -0.684648 0
M  V30 6229 H 596.277 -1.37274 -1.38354 0
M  V30 6230 H 595.373 -1.16193 -2.89665 0
M  V30 6231 N 595.674 1.31259 -0.872281 0
M  V30 6232 C 596.622 2.30404 -0.318897 0
M  V30 6233 C 597.616 1.5962 0.567267 0
M  V30 6234 O 598.822 1.74204 0.453111 0
M  V30 6235 H 595.197 0.747243 -0.0844474 0
M  V30 6236 H 597.168 2.74549 -1.16899 0
M  V30 6237 C 595.917 3.44608 0.462683 0
M  V30 6238 H 595.24 3.99248 -0.209936 0
M  V30 6239 H 596.68 4.1609 0.815187 0
M  V30 6240 C 595.139 2.93456 1.65485 0
M  V30 6241 O 595.669 2.92418 2.75417 0
M  V30 6242 N 593.875 2.49628 1.48776 0
M  V30 6243 H 593.422 2.50671 0.593452 0
M  V30 6244 H 593.38 2.15759 2.28682 0
M  V30 6245 N 597.152 0.631951 1.44375 0
M  V30 6246 C 598.429 0.067646 1.95483 0
M  V30 6247 C 598.809 -1.40683 1.57389 0
M  V30 6248 O 598.157 -2.12167 0.848375 0
M  V30 6249 C 598.367 0.291392 3.47781 0
M  V30 6250 C 599.715 0.185028 4.24197 0
M  V30 6251 O 600.739 0.222803 3.55503 0
M  V30 6252 O 599.598 0.0906642 5.46425 0
M  V30 6253 H 596.692 -0.0218379 0.826712 0
M  V30 6254 H 599.238 0.703711 1.54421 0
M  V30 6255 H 598.01 1.31449 3.68561 0
M  V30 6256 H 597.633 -0.378772 3.95792 0
M  V30 6257 N 598.631 -1.53133 0.372548 0
M  V30 6258 C 600.042 -1.86404 -0.105155 0
M  V30 6259 C 600.393 -1.29289 -1.47576 0
M  V30 6260 O 599.518 -0.617646 -2.07398 0
M  V30 6261 C 600.113 -3.38223 -0.197588 0
M  V30 6262 C 598.672 -3.71266 -0.619556 0
M  V30 6263 C 597.819 -2.76353 0.228919 0
M  V30 6264 H 600.77 -1.47282 0.591077 0
M  V30 6265 H 600.791 -3.66577 -1.01987 0
M  V30 6266 H 600.303 -3.79763 0.800099 0
M  V30 6267 H 598.404 -3.35287 -1.62522 0
M  V30 6268 H 598.517 -4.77515 -0.389332 0
M  V30 6269 H 596.881 -2.52888 -0.303271 0
M  V30 6270 H 597.664 -3.20728 1.22428 0
M  V30 6271 N 600.109 -0.101901 -1.5727 0
M  V30 6272 C 601.339 0.567568 -1.98651 0
M  V30 6273 C 601.747 1.61839 -0.980037 0
M  V30 6274 O 601.09 1.83661 0.0376564 0
M  V30 6275 C 601.152 1.26742 -3.36417 0
M  V30 6276 C 600.816 0.366561 -4.55528 0
M  V30 6277 C 601.813 -0.388022 -5.1845 0
M  V30 6278 C 599.498 0.282629 -5.01504 0
M  V30 6279 C 601.492 -1.21445 -6.25724 0
M  V30 6280 C 599.179 -0.547443 -6.08643 0
M  V30 6281 C 600.177 -1.29462 -6.70618 0
M  V30 6282 O 599.865 -2.11095 -7.7569 0
M  V30 6283 H 599.597 0.156282 -0.657687 0
M  V30 6284 H 602.151 -0.179912 -2.04611 0
M  V30 6285 H 600.381 2.06162 -3.27161 0
M  V30 6286 H 602.07 1.8321 -3.622 0
M  V30 6287 H 602.836 -0.332949 -4.83856 0
M  V30 6288 H 598.715 0.853868 -4.53023 0
M  V30 6289 H 602.259 -1.79814 -6.74027 0
M  V30 6290 H 598.156 -0.603971 -6.42668 0
M  V30 6291 H 598.924 -2.03851 -7.92709 0
M  V30 6292 N 601.587 1.56661 0.17182 0
M  V30 6293 C 602.535 1.97289 1.23207 0
M  V30 6294 C 603.529 0.861566 1.45854 0
M  V30 6295 O 604.735 1.04668 1.4644 0
M  V30 6296 H 601.11 0.627681 0.41415 0
M  V30 6297 H 603.081 2.85662 0.862542 0
M  V30 6298 C 601.83 2.34849 2.564 0
M  V30 6299 H 601.153 3.19903 2.39797 0
M  V30 6300 H 602.593 2.67121 3.29276 0
M  V30 6301 C 601.052 1.19172 3.15119 0
M  V30 6302 O 601.582 0.479113 3.98833 0
M  V30 6303 N 599.788 0.962415 2.74201 0
M  V30 6304 H 599.335 1.54365 2.06226 0
M  V30 6305 H 599.293 0.190272 3.13824 0
M  V30 6306 N 603.065 -0.440357 1.51323 0
M  V30 6307 C 604.481 -0.7766 1.39431 0
M  V30 6308 C 604.681 -1.95838 0.474296 0
M  V30 6309 O 603.737 -2.52398 -0.0716692 0
M  V30 6310 C 605.05 -1.05981 2.81405 0
M  V30 6311 C 606.598 -1.16442 2.90534 0
M  V30 6312 C 607.073 -1.48058 4.33408 0
M  V30 6313 N 608.564 -1.54988 4.36501 0
M  V30 6314 C 609.299 -1.81017 5.44078 0
M  V30 6315 N 608.795 -2.04858 6.61819 0
M  V30 6316 N 610.588 -1.82774 5.31554 0
M  V30 6317 H 602.739 0.338006 2.09693 0
M  V30 6318 H 605.002 0.0888072 0.943831 0
M  V30 6319 H 604.708 -0.264173 3.50706 0
M  V30 6320 H 604.582 -1.98822 3.20546 0
M  V30 6321 H 606.969 -1.95068 2.21432 0
M  V30 6322 H 607.05 -0.215088 2.54894 0
M  V30 6323 H 606.694 -0.699605 5.03059 0
M  V30 6324 H 606.624 -2.44192 4.66559 0
M  V30 6325 H 609.115 -1.38479 3.51613 0
M  V30 6326 H 609.428 -2.2408 7.396 0
M  V30 6327 H 607.773 -2.02187 6.6494 0
M  V30 6328 H 610.964 -1.63665 4.38556 0
M  V30 6329 H 611.137 -2.02722 6.15474 0
M  V30 6330 N 604.543 -1.41418 -0.695603 0
M  V30 6331 C 605.791 -1.40496 -1.45277 0
M  V30 6332 C 606.112 -0.0149538 -1.94994 0
M  V30 6333 O 605.382 0.9432 -1.71699 0
M  V30 6334 H 603.962 -0.517147 -0.539044 0
M  V30 6335 H 606.624 -1.76656 -0.823321 0
M  V30 6336 H 605.72 -2.09214 -2.31595 0
M  V30 6337 N 606.021 0.929856 -1.27246 0
M  V30 6338 C 606.954 2.03069 -1.04106 0
M  V30 6339 C 607.932 1.62556 0.0378417 0
M  V30 6340 O 609.116 1.88197 -0.106869 0
M  V30 6341 C 606.243 3.33718 -0.578778 0
M  V30 6342 C 605.289 3.93209 -1.65193 0
M  V30 6343 S 606.122 4.26068 -3.24386 0
M  V30 6344 C 607.278 5.598 -2.79954 0
M  V30 6345 H 607.511 2.22386 -1.97311 0
M  V30 6346 H 605.044 1.07269 -1.11053 0
M  V30 6347 H 607.002 4.09261 -0.31874 0
M  V30 6348 H 605.663 3.12328 0.333182 0
M  V30 6349 H 604.856 4.87482 -1.27973 0
M  V30 6350 H 604.458 3.24243 -1.86393 0
M  V30 6351 H 606.75 6.39004 -2.25123 0
M  V30 6352 H 607.693 6.01917 -3.72963 0
M  V30 6353 H 608.101 5.20219 -2.19164 0
M  V30 6354 N 607.499 1.09233 1.13605 0
M  V30 6355 C 608.432 0.6739 2.18023 0
M  V30 6356 C 609.41 -0.318603 1.59448 0
M  V30 6357 O 610.594 -0.220452 1.87206 0
M  V30 6358 C 607.721 -0.00751458 3.38699 0
M  V30 6359 C 606.767 0.946481 4.15865 0
M  V30 6360 S 607.6 2.45753 4.75779 0
M  V30 6361 C 608.756 1.78846 5.99804 0
M  V30 6362 H 608.989 1.55846 2.53178 0
M  V30 6363 H 606.522 0.908118 1.2487 0
M  V30 6364 H 608.48 -0.394368 4.08601 0
M  V30 6365 H 607.141 -0.868693 3.01849 0
M  V30 6366 H 606.334 0.416742 5.02274 0
M  V30 6367 H 605.936 1.27464 3.51609 0
M  V30 6368 H 608.228 1.11135 6.68323 0
M  V30 6369 H 609.171 2.63163 6.57382 0
M  V30 6370 H 609.579 1.25823 5.50299 0
M  V30 6371 N 608.977 -1.30795 0.87923 0
M  V30 6372 C 610.388 -1.78535 0.546093 0
M  V30 6373 C 610.739 -1.72354 -0.937467 0
M  V30 6374 O 609.864 -1.2969 -1.73233 0
M  V30 6375 C 610.459 -3.24181 0.9845 0
M  V30 6376 C 609.018 -3.69779 0.702871 0
M  V30 6377 C 608.165 -2.51377 1.17068 0
M  V30 6378 H 611.116 -1.17746 1.06403 0
M  V30 6379 H 611.137 -3.79227 0.311045 0
M  V30 6380 H 610.649 -3.28647 2.06429 0
M  V30 6381 H 608.75 -3.70806 -0.365166 0
M  V30 6382 H 608.863 -4.61507 1.28639 0
M  V30 6383 H 607.227 -2.47768 0.590172 0
M  V30 6384 H 608.01 -2.58584 2.25808 0
M  V30 6385 N 610.455 -0.639598 -1.44038 0
M  V30 6386 C 611.418 0.0506628 -2.29144 0
M  V30 6387 C 612.418 0.764001 -1.41491 0
M  V30 6388 O 613.608 0.607309 -1.63271 0
M  V30 6389 C 610.74 1.0824 -3.2326 0
M  V30 6390 H 611.933 -0.697987 -2.91664 0
M  V30 6391 H 609.486 -0.400146 -1.51091 0
M  V30 6392 H 610.221 1.86075 -2.65606 0
M  V30 6393 H 610.006 0.574725 -3.87865 0
M  V30 6394 H 611.496 1.56487 -3.87171 0
M  V30 6395 N 611.933 1.52934 -0.380664 0
M  V30 6396 C 613.18 2.01467 0.204278 0
M  V30 6397 C 613.508 1.26744 1.47533 0
M  V30 6398 O 612.763 0.353723 1.92477 0
M  V30 6399 C 613.062 3.5349 0.527199 0
M  V30 6400 C 612.728 4.46171 -0.651295 0
M  V30 6401 C 611.39 4.71227 -0.974619 0
M  V30 6402 C 613.742 5.00909 -1.44012 0
M  V30 6403 C 611.07 5.4827 -2.08847 0
M  V30 6404 C 613.422 5.7917 -2.5445 0
M  V30 6405 C 612.086 6.02507 -2.87301 0
M  V30 6406 H 611.356 0.73722 0.0747504 0
M  V30 6407 H 614.003 1.84411 -0.516234 0
M  V30 6408 H 612.308 3.68574 1.32892 0
M  V30 6409 H 614.005 3.88529 0.992283 0
M  V30 6410 H 610.595 4.26829 -0.389276 0
M  V30 6411 H 614.779 4.81485 -1.20357 0
M  V30 6412 H 610.035 5.64567 -2.34679 0
M  V30 6413 H 614.209 6.20588 -3.1598 0
M  V30 6414 H 611.836 6.61989 -3.7373 0
M  V30 6415 N 613.412 0.11024 1.57214 0
M  V30 6416 C 614.689 -0.592956 1.86396 0
M  V30 6417 C 615.069 -1.85379 1.00985 0
M  V30 6418 O 614.417 -2.28337 0.0863592 0
M  V30 6419 C 614.627 -0.893816 3.3736 0
M  V30 6420 C 615.975 -1.25069 4.05762 0
M  V30 6421 O 616.999 -0.984356 3.42329 0
M  V30 6422 O 615.858 -1.75017 5.17718 0
M  V30 6423 H 612.952 -0.29828 0.771335 0
M  V30 6424 H 615.498 0.144083 1.69087 0
M  V30 6425 H 614.27 2.6031e-05 3.913 0
M  V30 6426 H 613.893 -1.68631 3.60068 0
M  V30 6427 N 614.89 -1.56749 -0.16351 0
M  V30 6428 C 616.118 -1.86577 -0.894233 0
M  V30 6429 C 616.533 -0.696543 -1.75481 0
M  V30 6430 O 615.89 0.334161 -1.79415 0
M  V30 6431 C 615.941 -3.15508 -1.76456 0
M  V30 6432 O 615.662 -4.27926 -0.938685 0
M  V30 6433 C 617.163 -3.58737 -2.60428 0
M  V30 6434 H 614.383 -0.618829 -0.259405 0
M  V30 6435 H 616.927 -2.03863 -0.161259 0
M  V30 6436 H 615.082 -3.00025 -2.45079 0
M  V30 6437 H 615.496 -5.01546 -1.53465 0
M  V30 6438 H 616.97 -4.51832 -3.17099 0
M  V30 6439 H 617.447 -2.83229 -3.35675 0
M  V30 6440 H 618.053 -3.76858 -1.97125 0
M  V30 6441 N 616.368 0.432326 -1.51554 0
M  V30 6442 C 617.596 1.20364 -1.68286 0
M  V30 6443 C 618.011 1.84888 -0.38233 0
M  V30 6444 O 617.368 1.70924 0.639627 0
M  V30 6445 C 617.419 2.28398 -2.80208 0
M  V30 6446 O 617.14 1.66512 -4.05223 0
M  V30 6447 C 618.641 3.18584 -3.08251 0
M  V30 6448 H 615.861 0.36259 -0.564596 0
M  V30 6449 H 618.405 0.511647 -1.97996 0
M  V30 6450 H 616.56 2.93305 -2.53083 0
M  V30 6451 H 616.974 2.37951 -4.67418 0
M  V30 6452 H 618.448 3.90511 -3.90135 0
M  V30 6453 H 618.925 3.79628 -2.2086 0
M  V30 6454 H 619.531 2.59372 -3.37055 0
M  V30 6455 N 617.846 1.41785 0.688094 0
M  V30 6456 C 619.074 1.44915 1.47673 0
M  V30 6457 C 619.489 0.0565786 1.88715 0
M  V30 6458 O 618.846 -0.92579 1.57275 0
M  V30 6459 C 618.897 2.36452 2.73446 0
M  V30 6460 O 618.618 3.7029 2.34131 0
M  V30 6461 C 620.119 2.48463 3.67125 0
M  V30 6462 H 617.339 0.493324 0.454832 0
M  V30 6463 H 619.883 1.86153 0.846594 0
M  V30 6464 H 618.038 1.98502 3.3268 0
M  V30 6465 H 618.452 4.19183 3.15255 0
M  V30 6466 H 619.926 3.16662 4.52138 0
M  V30 6467 H 620.403 1.51826 4.12123 0
M  V30 6468 H 621.009 2.8708 3.13792 0
M  V30 6469 N 619.324 -0.923095 1.27737 0
M  V30 6470 C 620.552 -1.70525 1.17171 0
M  V30 6471 C 620.967 -1.86847 -0.270881 0
M  V30 6472 O 620.324 -1.38879 -1.18401 0
M  V30 6473 C 620.375 -3.10242 1.85559 0
M  V30 6474 O 620.096 -2.94683 3.24182 0
M  V30 6475 C 621.597 -4.04586 1.81176 0
M  V30 6476 H 618.817 -0.533347 0.407163 0
M  V30 6477 H 621.361 -1.15599 1.68692 0
M  V30 6478 H 619.516 -3.62014 1.3793 0
M  V30 6479 H 619.93 -3.83045 3.58297 0
M  V30 6480 H 621.404 -5.00119 2.33633 0
M  V30 6481 H 621.881 -4.3218 0.782099 0
M  V30 6482 H 622.487 -3.58741 2.2844 0
M  V30 6483 N 620.802 -1.09834 -1.13024 0
M  V30 6484 C 621.765 -0.745058 -2.16752 0
M  V30 6485 C 622.765 0.227435 -1.59183 0
M  V30 6486 O 623.955 0.0050786 -1.74199 0
M  V30 6487 C 621.087 -0.102543 -3.40746 0
M  V30 6488 H 622.28 -1.66375 -2.49518 0
M  V30 6489 H 619.833 -0.898061 -1.27924 0
M  V30 6490 H 620.568 0.827177 -3.13573 0
M  V30 6491 H 620.353 -0.80235 -3.83803 0
M  V30 6492 H 621.843 0.129082 -4.174 0
M  V30 6493 N 622.28 1.30327 -0.886154 0
M  V30 6494 C 623.527 1.96097 -0.505192 0
M  V30 6495 C 623.855 1.69952 0.945868 0
M  V30 6496 O 623.11 0.997653 1.68361 0
M  V30 6497 C 623.409 3.49906 -0.728042 0
M  V30 6498 C 623.075 3.96103 -2.15437 0
M  V30 6499 C 621.737 4.08428 -2.5444 0
M  V30 6500 C 624.089 4.20177 -3.08384 0
M  V30 6501 C 621.417 4.42189 -3.85598 0
M  V30 6502 C 623.769 4.55407 -4.39075 0
M  V30 6503 C 622.433 4.65941 -4.7797 0
M  V30 6504 H 621.703 0.71757 -0.184863 0
M  V30 6505 H 624.35 1.55171 -1.12223 0
M  V30 6506 H 622.655 3.9179 -0.027978 0
M  V30 6507 H 624.352 3.98869 -0.412862 0
M  V30 6508 H 620.942 3.87017 -1.84162 0
M  V30 6509 H 625.126 4.10134 -2.7947 0
M  V30 6510 H 620.382 4.48544 -4.15473 0
M  V30 6511 H 624.556 4.72986 -5.11133 0
M  V30 6512 H 622.183 4.91856 -5.79639 0
M  V30 6513 N 623.758 0.647228 1.43697 0
M  V30 6514 C 624.705 -0.0480092 2.3075 0
M  V30 6515 C 625.675 -0.820705 1.44408 0
M  V30 6516 O 626.86 -0.798515 1.73287 0
M  V30 6517 C 624 -1.01259 3.2991 0
M  V30 6518 C 623.113 -0.236629 4.31351 0
M  V30 6519 C 622.248 -1.19447 5.17596 0
M  V30 6520 C 621.287 -0.408595 6.10735 0
M  V30 6521 N 620.424 -1.31772 6.89623 0
M  V30 6522 H 625.264 0.700238 2.89656 0
M  V30 6523 H 622.801 0.357082 1.427 0
M  V30 6524 H 624.759 -1.58538 3.85903 0
M  V30 6525 H 623.389 -1.72778 2.72667 0
M  V30 6526 H 622.441 0.452353 3.77701 0
M  V30 6527 H 623.753 0.374731 4.9739 0
M  V30 6528 H 622.907 -1.83809 5.78186 0
M  V30 6529 H 621.646 -1.83975 4.51669 0
M  V30 6530 H 620.651 0.24841 5.49239 0
M  V30 6531 H 621.876 0.232188 6.78703 0
M  V30 6532 H 619.822 -1.94991 6.2635 0
M  V30 6533 H 619.739 -0.760779 7.52162 0
M  V30 6534 H 621.007 -1.94967 7.54724 0
M  V30 6535 N 625.236 -1.5273 0.388769 0
M  V30 6536 C 626.146 -2.30165 -0.453993 0
M  V30 6537 C 627.162 -1.37058 -1.07197 0
M  V30 6538 O 628.338 -1.70127 -1.0779 0
M  V30 6539 C 625.403 -3.09303 -1.56628 0
M  V30 6540 C 624.464 -4.18117 -0.973467 0
M  V30 6541 C 623.697 -4.93472 -2.03275 0
M  V30 6542 O 623.92 -4.68913 -3.24772 0
M  V30 6543 O 622.854 -5.78833 -1.65034 0
M  V30 6544 H 626.68 -3.03185 0.176816 0
M  V30 6545 H 624.265 -1.4862 0.152501 0
M  V30 6546 H 626.147 -3.58648 -2.21246 0
M  V30 6547 H 624.822 -2.39098 -2.18206 0
M  V30 6548 H 623.729 -3.7297 -0.290556 0
M  V30 6549 H 625.062 -4.90556 -0.401908 0
M  V30 6550 N 626.714 -0.118576 -1.57153 0
M  V30 6551 C 627.96 0.540326 -1.95469 0
M  V30 6552 C 628.293 1.66356 -1.00196 0
M  V30 6553 O 627.568 1.94461 -0.039104 0
M  V30 6554 C 627.851 1.07342 -3.43729 0
M  V30 6555 C 627.704 -0.0463732 -4.49776 0
M  V30 6556 C 629.023 1.96442 -3.93826 0
M  V30 6557 H 626.142 0.19494 -0.710751 0
M  V30 6558 H 628.784 -0.19405 -1.89006 0
M  V30 6559 H 626.934 1.69925 -3.49368 0
M  V30 6560 H 628.606 -0.681648 -4.56236 0
M  V30 6561 H 626.849 -0.709574 -4.27957 0
M  V30 6562 H 627.52 0.367856 -5.50773 0
M  V30 6563 H 629.996 1.43731 -3.90488 0
M  V30 6564 H 628.872 2.3066 -4.98084 0
M  V30 6565 H 629.133 2.89077 -3.34495 0
M  V30 6566 N 628.193 1.56834 0.155195 0
M  V30 6567 C 629.418 1.87412 0.888337 0
M  V30 6568 C 629.843 0.70671 1.74319 0
M  V30 6569 O 629.201 -0.343892 1.78009 0
M  V30 6570 C 629.249 3.1652 1.72765 0
M  V30 6571 O 628.353 2.99877 2.83103 0
M  V30 6572 H 627.694 0.615983 0.247914 0
M  V30 6573 H 630.224 2.04061 0.148478 0
M  V30 6574 H 630.234 3.48334 2.12433 0
M  V30 6575 H 628.909 4.01094 1.09985 0
M  V30 6576 H 627.486 2.79453 2.46902 0
M  V30 6577 N 629.671 -0.424282 1.51781 0
M  V30 6578 C 630.899 -1.1947 1.68921 0
M  V30 6579 C 631.314 -1.84683 0.39213 0
M  V30 6580 O 630.671 -1.71261 -0.630554 0
M  V30 6581 C 630.722 -2.26909 2.81416 0
M  V30 6582 O 630.443 -1.64361 4.061 0
M  V30 6583 C 631.944 -3.16945 3.09937 0
M  V30 6584 H 629.164 -0.359591 0.566511 0
M  V30 6585 H 631.708 -0.501139 1.98265 0
M  V30 6586 H 629.863 -2.91959 2.54635 0
M  V30 6587 H 630.277 -2.35468 4.68674 0
M  V30 6588 H 631.751 -3.88437 3.922 0
M  V30 6589 H 632.228 -3.78451 2.22871 0
M  V30 6590 H 632.834 -2.57581 3.38426 0
M  V30 6591 N 631.149 -1.42148 -0.680565 0
M  V30 6592 C 632.079 -1.4796 -1.80638 0
M  V30 6593 C 633.06 -0.336728 -1.66734 0
M  V30 6594 O 634.245 -0.550247 -1.86242 0
M  V30 6595 C 631.375 -1.37569 -3.18892 0
M  V30 6596 C 630.329 -2.49823 -3.47524 0
M  V30 6597 C 629.655 -2.24491 -4.85291 0
M  V30 6598 C 630.955 -3.92144 -3.44994 0
M  V30 6599 H 632.649 -2.42184 -1.76032 0
M  V30 6600 H 630.195 -1.16566 -0.845481 0
M  V30 6601 H 632.148 -1.40243 -3.97379 0
M  V30 6602 H 630.872 -0.398357 -3.24162 0
M  V30 6603 H 629.531 -2.46455 -2.71395 0
M  V30 6604 H 629.179 -1.25066 -4.87204 0
M  V30 6605 H 628.879 -2.99722 -5.05411 0
M  V30 6606 H 630.403 -2.28906 -5.66069 0
M  V30 6607 H 631.817 -3.97145 -4.13459 0
M  V30 6608 H 630.214 -4.67179 -3.76648 0
M  V30 6609 H 631.284 -4.19225 -2.43676 0
M  V30 6610 N 632.627 0.916307 -1.28225 0
M  V30 6611 C 633.59 1.99996 -1.11957 0
M  V30 6612 C 634.59 1.60688 -0.0600152 0
M  V30 6613 O 635.78 1.71499 -0.30558 0
M  V30 6614 C 632.912 3.33458 -0.708411 0
M  V30 6615 H 634.105 2.15858 -2.08196 0
M  V30 6616 H 631.658 1.09863 -1.11175 0
M  V30 6617 H 632.393 3.23297 0.254859 0
M  V30 6618 H 632.178 3.63349 -1.47377 0
M  V30 6619 H 633.668 4.13014 -0.617164 0
M  V30 6620 N 634.105 1.10431 1.1244 0
M  V30 6621 C 635.353 0.845045 1.83585 0
M  V30 6622 C 635.674 -0.631168 1.84503 0
M  V30 6623 O 634.944 -1.45825 1.30813 0
M  V30 6624 H 633.524 0.309628 0.679809 0
M  V30 6625 H 636.186 1.39458 1.36153 0
M  V30 6626 H 635.282 1.20786 2.8778 0
M  V30 6627 N 635.583 -1.29855 0.893053 0
M  V30 6628 C 636.513 -2.3035 0.382249 0
M  V30 6629 C 637.494 -1.61328 -0.539203 0
M  V30 6630 O 638.679 -1.88882 -0.451342 0
M  V30 6631 C 635.809 -3.45024 -0.396983 0
M  V30 6632 C 634.763 -4.258 0.433437 0
M  V30 6633 C 634.089 -5.32605 -0.472889 0
M  V30 6634 C 635.389 -4.94549 1.67984 0
M  V30 6635 H 637.083 -2.73325 1.22205 0
M  V30 6636 H 634.629 -1.314 0.589073 0
M  V30 6637 H 636.582 -4.14398 -0.765024 0
M  V30 6638 H 635.306 -3.00875 -1.2705 0
M  V30 6639 H 633.965 -3.58125 0.783723 0
M  V30 6640 H 633.613 -4.84702 -1.34435 0
M  V30 6641 H 633.313 -5.87547 0.0789958 0
M  V30 6642 H 634.837 -6.04832 -0.837269 0
M  V30 6643 H 636.251 -5.56395 1.38192 0
M  V30 6644 H 634.648 -5.59393 2.17254 0
M  V30 6645 H 635.718 -4.20215 2.41965 0
M  V30 6646 N 637.061 -0.65484 -1.43351 0
M  V30 6647 C 638.477 -0.32255 -1.56307 0
M  V30 6648 C 638.677 1.17324 -1.63821 0
M  V30 6649 O 637.733 1.95813 -1.59417 0
M  V30 6650 C 639.046 -1.03533 -2.82314 0
M  V30 6651 C 640.594 -1.01574 -2.9606 0
M  V30 6652 C 641.069 -1.70945 -4.24902 0
M  V30 6653 N 642.56 -1.67716 -4.3177 0
M  V30 6654 C 643.295 -2.18265 -5.30234 0
M  V30 6655 N 642.791 -2.7711 -6.34966 0
M  V30 6656 N 644.584 -2.08756 -5.21898 0
M  V30 6657 H 636.735 -1.62549 -1.36717 0
M  V30 6658 H 638.998 -0.683676 -0.656727 0
M  V30 6659 H 638.704 -2.09045 -2.8283 0
M  V30 6660 H 638.578 -0.587913 -3.7259 0
M  V30 6661 H 640.965 0.0309834 -2.95084 0
M  V30 6662 H 641.046 -1.50186 -2.07069 0
M  V30 6663 H 640.69 -2.75574 -4.26639 0
M  V30 6664 H 640.62 -1.19797 -5.12793 0
M  V30 6665 H 643.111 -1.24777 -3.56706 0
M  V30 6666 H 643.424 -3.13353 -7.06421 0
M  V30 6667 H 641.769 -2.81171 -6.35585 0
M  V30 6668 H 644.96 -1.62488 -4.38994 0
M  V30 6669 H 645.133 -2.48459 -5.98475 0
M  V30 6670 N 638.539 1.52521 -0.396863 0
M  V30 6671 C 639.955 1.5953 -0.0471659 0
M  V30 6672 C 640.155 1.41044 1.43906 0
M  V30 6673 O 639.211 1.23122 2.20448 0
M  V30 6674 C 640.524 2.95972 -0.531113 0
M  V30 6675 C 642.072 3.09172 -0.488024 0
M  V30 6676 C 642.547 4.48075 -0.948281 0
M  V30 6677 N 644.038 4.54281 -0.9046 0
M  V30 6678 C 644.773 5.60007 -1.23205 0
M  V30 6679 N 644.269 6.73343 -1.63036 0
M  V30 6680 N 646.062 5.50151 -1.15282 0
M  V30 6681 H 638.213 1.62786 -1.36435 0
M  V30 6682 H 640.476 0.76514 -0.559701 0
M  V30 6683 H 640.182 3.14741 -1.56942 0
M  V30 6684 H 640.056 3.77143 0.0657922 0
M  V30 6685 H 642.443 2.90095 0.541211 0
M  V30 6686 H 642.524 2.29937 -1.12083 0
M  V30 6687 H 642.168 4.67894 -1.97578 0
M  V30 6688 H 642.098 5.25788 -0.292412 0
M  V30 6689 H 644.589 3.72918 -0.6116 0
M  V30 6690 H 644.902 7.49992 -1.86365 0
M  V30 6691 H 643.247 6.74655 -1.66929 0
M  V30 6692 H 646.438 4.6049 -0.840602 0
M  V30 6693 H 646.611 6.32444 -1.41133 0
M  V30 6694 N 640.017 0.126909 1.57088 0
M  V30 6695 C 640.965 -0.837618 2.16995 0
M  V30 6696 C 641.959 -1.26974 1.12133 0
M  V30 6697 O 643.165 -1.24056 1.30423 0
M  V30 6698 H 639.54 -0.288256 0.694559 0
M  V30 6699 H 641.511 -0.307957 2.96807 0
M  V30 6700 C 640.26 -2.07474 2.79016 0
M  V30 6701 H 639.583 -1.75117 3.59408 0
M  V30 6702 H 641.023 -2.72949 3.24461 0
M  V30 6703 C 639.482 -2.86967 1.76498 0
M  V30 6704 O 640.012 -3.82625 1.22316 0
M  V30 6705 N 638.218 -2.51111 1.46258 0
M  V30 6706 H 637.765 -1.73389 1.90509 0
M  V30 6707 H 637.723 -3.04594 0.779085 0
M  V30 6708 N 641.495 -1.56914 -0.146875 0
M  V30 6709 C 642.443 -1.99224 -1.20053 0
M  V30 6710 C 643.437 -0.884661 -1.44465 0
M  V30 6711 O 644.643 -1.06984 -1.44756 0
M  V30 6712 H 641.018 -0.634191 -0.404112 0
M  V30 6713 H 642.989 -2.86998 -0.816987 0
M  V30 6714 C 641.738 -2.38899 -2.52632 0
M  V30 6715 H 641.061 -3.23677 -2.34677 0
M  V30 6716 H 642.501 -2.72326 -3.24984 0
M  V30 6717 C 640.96 -1.2417 -3.13183 0
M  V30 6718 O 641.49 -0.542503 -3.9802 0
M  V30 6719 N 639.696 -1.00592 -2.72635 0
M  V30 6720 H 639.243 -1.57627 -2.03744 0
M  V30 6721 H 639.201 -0.240174 -3.13481 0
M  V30 6722 N 642.974 0.416227 -1.52004 0
M  V30 6723 C 643.937 1.48926 -1.74223 0
M  V30 6724 C 644.937 1.48693 -0.612119 0
M  V30 6725 O 646.127 1.50343 -0.879921 0
M  V30 6726 C 643.259 2.88372 -1.81809 0
M  V30 6727 H 644.452 1.3052 -2.70008 0
M  V30 6728 H 642.005 0.646271 -1.42313 0
M  V30 6729 H 642.74 3.12157 -0.879135 0
M  V30 6730 H 642.525 2.89944 -2.6396 0
M  V30 6731 H 644.015 3.66173 -2.00766 0
M  V30 6732 N 644.452 1.42507 0.673017 0
M  V30 6733 C 645.415 1.4582 1.76831 0
M  V30 6734 C 646.415 0.345542 1.57043 0
M  V30 6735 O 647.605 0.606447 1.63303 0
M  V30 6736 C 644.737 1.29158 3.15485 0
M  V30 6737 H 645.93 2.43345 1.7528 0
M  V30 6738 H 643.483 1.28981 0.882817 0
M  V30 6739 H 644.218 0.325626 3.22661 0
M  V30 6740 H 644.003 2.09797 3.31252 0
M  V30 6741 H 645.493 1.34363 3.95394 0
M  V30 6742 N 645.93 -0.909495 1.28709 0
M  V30 6743 C 647.179 -1.65365 1.15487 0
M  V30 6744 C 647.492 -1.93364 -0.294941 0
M  V30 6745 O 648.698 -2.65905 -0.548338 0
M  V30 6746 C 647.154 -2.97923 2.01916 0
M  V30 6747 C 646.762 -2.77556 3.51663 0
M  V30 6748 C 648.506 -3.75814 1.97393 0
M  V30 6749 C 646.413 -4.0578 4.30229 0
M  V30 6750 H 645.343 -0.620323 0.42862 0
M  V30 6751 H 647.994 -1.00894 1.53273 0
M  V30 6752 H 646.376 -3.63552 1.5699 0
M  V30 6753 H 647.55 -2.2058 4.04575 0
M  V30 6754 H 645.865 -2.13072 3.57756 0
M  V30 6755 H 648.462 -4.70866 2.53357 0
M  V30 6756 H 648.805 -4.05277 0.951643 0
M  V30 6757 H 649.338 -3.1701 2.40311 0
M  V30 6758 H 646.077 -3.81488 5.33055 0
M  V30 6759 H 645.597 -4.62351 3.82089 0
M  V30 6760 H 647.276 -4.74004 4.40374 0
M  V30 6761 N 647.408 -1.11026 -1.11852 0
M  V30 6762 C 648.34 -0.72249 -2.17515 0
M  V30 6763 C 649.353 0.243782 -1.60964 0
M  V30 6764 O 650.542 0.0273252 -1.78479 0
M  V30 6765 C 647.642 -0.0463979 -3.38868 0
M  V30 6766 C 646.815 -1.0384 -4.24895 0
M  V30 6767 C 645.874 -0.392659 -5.24733 0
M  V30 6768 O 644.9 -1.0453 -5.5952 0
M  V30 6769 N 646.102 0.846296 -5.74298 0
M  V30 6770 H 648.867 -1.63161 -2.51393 0
M  V30 6771 H 646.428 -0.999899 -1.27333 0
M  V30 6772 H 648.42 0.397215 -4.02746 0
M  V30 6773 H 646.99 0.765231 -3.03089 0
M  V30 6774 H 646.21 -1.6601 -3.57539 0
M  V30 6775 H 647.498 -1.70968 -4.79215 0
M  V30 6776 H 646.896 1.39578 -5.4821 0
M  V30 6777 H 645.453 1.23296 -6.40032 0
M  V30 6778 N 648.886 1.2938 -0.899927 0
M  V30 6779 C 650.116 1.99402 -0.540601 0
M  V30 6780 C 650.524 1.67534 0.87914 0
M  V30 6781 O 649.867 0.916821 1.59186 0
M  V30 6782 C 649.929 3.53514 -0.653326 0
M  V30 6783 C 649.593 4.08937 -2.04009 0
M  V30 6784 C 650.59 4.23815 -3.01126 0
M  V30 6785 C 648.275 4.43962 -2.34953 0
M  V30 6786 C 650.269 4.72951 -4.27313 0
M  V30 6787 C 647.956 4.92795 -3.61382 0
M  V30 6788 C 648.954 5.07244 -4.57376 0
M  V30 6789 O 648.642 5.55017 -5.8156 0
M  V30 6790 H 648.374 0.64383 -0.206057 0
M  V30 6791 H 650.928 1.65878 -1.21134 0
M  V30 6792 H 649.158 3.86628 0.0744449 0
M  V30 6793 H 650.847 4.04767 -0.303118 0
M  V30 6794 H 651.613 3.97043 -2.78535 0
M  V30 6795 H 647.492 4.31974 -1.60994 0
M  V30 6796 H 651.036 4.84144 -5.02245 0
M  V30 6797 H 646.933 5.19004 -3.83804 0
M  V30 6798 H 647.701 5.73331 -5.84153 0
M  V30 6799 N 650.364 0.662433 1.43002 0
M  V30 6800 C 651.612 0.179237 2.01304 0
M  V30 6801 C 651.933 -1.21428 1.52579 0
M  V30 6802 O 651.203 -1.81294 0.742252 0
M  V30 6803 H 649.783 0.0632725 0.744316 0
M  V30 6804 H 652.445 0.856169 1.75088 0
M  V30 6805 H 651.541 0.170957 3.11631 0
M  V30 6806 N 651.842 -1.52309 0.404946 0
M  V30 6807 C 653.07 -2.06185 -0.171818 0
M  V30 6808 C 653.485 -1.27536 -1.39212 0
M  V30 6809 O 652.842 -0.326112 -1.79563 0
M  V30 6810 C 652.893 -3.57647 -0.526417 0
M  V30 6811 O 652.614 -4.3332 0.645417 0
M  V30 6812 C 654.115 -4.27925 -1.15736 0
M  V30 6813 H 651.335 -0.670632 -0.0222328 0
M  V30 6814 H 653.879 -1.96259 0.574692 0
M  V30 6815 H 652.034 -3.67595 -1.22282 0
M  V30 6816 H 652.448 -5.23328 0.35042 0
M  V30 6817 H 653.922 -5.35093 -1.35572 0
M  V30 6818 H 654.399 -3.84134 -2.12926 0
M  V30 6819 H 655.005 -4.22335 -0.501281 0
M  V30 6820 N 653.32 -0.135238 -1.57019 0
M  V30 6821 C 654.548 0.526066 -2.001 0
M  V30 6822 C 654.963 1.59184 -1.01519 0
M  V30 6823 O 654.32 1.82497 -0.0104258 0
M  V30 6824 C 654.371 1.13744 -3.43139 0
M  V30 6825 O 654.092 0.114259 -4.37951 0
M  V30 6826 C 655.593 1.8805 -4.01438 0
M  V30 6827 H 652.813 0.137962 -0.656664 0
M  V30 6828 H 655.357 -0.226359 -2.03243 0
M  V30 6829 H 653.512 1.84056 -3.40885 0
M  V30 6830 H 653.926 0.56058 -5.21496 0
M  V30 6831 H 655.4 2.26133 -5.03555 0
M  V30 6832 H 655.877 2.76194 -3.41487 0
M  V30 6833 H 656.483 1.22464 -4.07287 0
M  V30 6834 N 654.798 1.5699 0.138552 0
M  V30 6835 C 656.026 1.87976 0.864437 0
M  V30 6836 C 656.441 0.724372 1.74351 0
M  V30 6837 O 655.798 -0.305575 1.79924 0
M  V30 6838 C 655.849 3.18276 1.71414 0
M  V30 6839 O 655.57 4.29365 0.870487 0
M  V30 6840 C 657.071 3.62834 2.54688 0
M  V30 6841 H 654.291 0.622878 0.249528 0
M  V30 6842 H 656.835 2.04094 0.128805 0
M  V30 6843 H 654.99 3.03886 2.40274 0
M  V30 6844 H 655.404 5.03924 1.45466 0
M  V30 6845 H 656.878 4.5682 3.0987 0
M  V30 6846 H 657.355 2.88533 3.31127 0
M  V30 6847 H 657.961 3.79946 1.91105 0
M  V30 6848 N 656.276 -0.40816 1.52223 0
M  V30 6849 C 657.208 -1.51642 1.71864 0
M  V30 6850 C 658.221 -1.51378 0.599056 0
M  V30 6851 O 659.41 -1.55626 0.874239 0
M  V30 6852 C 656.51 -2.90534 1.74481 0
M  V30 6853 C 655.683 -3.14979 3.03491 0
M  V30 6854 C 654.742 -4.33749 2.97907 0
M  V30 6855 O 653.768 -4.30982 3.71811 0
M  V30 6856 N 654.97 -5.38912 2.15764 0
M  V30 6857 H 657.735 -1.35188 2.67478 0
M  V30 6858 H 655.296 -0.597468 1.50472 0
M  V30 6859 H 657.288 -3.68056 1.68275 0
M  V30 6860 H 655.858 -3.00441 0.863363 0
M  V30 6861 H 655.078 -2.25492 3.23337 0
M  V30 6862 H 656.366 -3.28156 3.88833 0
M  V30 6863 H 655.764 -5.44008 1.55152 0
M  V30 6864 H 654.321 -6.15174 2.15415 0
M  V30 6865 N 657.755 -1.42862 -0.66545 0
M  V30 6866 C 659.171 -1.25993 -0.979687 0
M  V30 6867 C 659.371 -0.170831 -2.00775 0
M  V30 6868 O 658.427 0.454827 -2.4837 0
M  V30 6869 C 659.74 -2.62005 -1.47559 0
M  V30 6870 C 661.288 -2.69437 -1.59288 0
M  V30 6871 C 661.763 -4.05838 -2.12272 0
M  V30 6872 N 663.254 -4.0784 -2.19592 0
M  V30 6873 C 663.989 -5.10205 -2.61684 0
M  V30 6874 N 663.485 -6.22949 -3.03161 0
M  V30 6875 N 665.278 -4.9756 -2.61516 0
M  V30 6876 H 657.429 -2.12395 0.0150493 0
M  V30 6877 H 659.692 -0.946355 -0.0558187 0
M  V30 6878 H 659.398 -3.42605 -0.794654 0
M  V30 6879 H 659.272 -2.86566 -2.45275 0
M  V30 6880 H 661.659 -1.89178 -2.26486 0
M  V30 6881 H 661.74 -2.48655 -0.600374 0
M  V30 6882 H 661.384 -4.86559 -1.4568 0
M  V30 6883 H 661.314 -4.23977 -3.12331 0
M  V30 6884 H 663.805 -3.26452 -1.90361 0
M  V30 6885 H 664.118 -6.96899 -3.33993 0
M  V30 6886 H 662.463 -6.2644 -3.00995 0
M  V30 6887 H 665.654 -4.08551 -2.28481 0
M  V30 6888 H 665.827 -5.77468 -2.93999 0
M  V30 6889 N 659.233 0.902656 -1.29189 0
M  V30 6890 C 660.479 1.6555 -1.18172 0
M  V30 6891 C 660.834 1.90569 0.264788 0
M  V30 6892 O 660.127 1.50292 1.1884 0
M  V30 6893 C 660.321 3.011 -1.92545 0
M  V30 6894 C 660.15 2.89312 -3.4428 0
M  V30 6895 C 658.92 2.90239 -4.1363 0
M  V30 6896 C 661.118 2.6656 -4.3983 0
M  V30 6897 N 659.1 2.69156 -5.5175 0
M  V30 6898 C 660.471 2.54429 -5.6539 0
M  V30 6899 C 662.526 2.51644 -4.29627 0
M  V30 6900 C 661.229 2.289 -6.81907 0
M  V30 6901 C 663.255 2.27498 -5.45892 0
M  V30 6902 C 662.617 2.16129 -6.70423 0
M  V30 6903 H 658.716 0.611519 -0.48741 0
M  V30 6904 H 661.3 1.06514 -1.62981 0
M  V30 6905 H 659.471 3.58202 -1.50154 0
M  V30 6906 H 661.203 3.65471 -1.73818 0
M  V30 6907 H 657.958 3.01412 -3.65305 0
M  V30 6908 H 658.382 2.61676 -6.24383 0
M  V30 6909 H 663.024 2.59178 -3.34045 0
M  V30 6910 H 660.742 2.20104 -7.77547 0
M  V30 6911 H 664.328 2.16805 -5.39895 0
M  V30 6912 H 663.208 1.97703 -7.5887 0
M  V30 6913 N 660.711 1.11618 1.11262 0
M  V30 6914 C 661.96 0.860934 1.82403 0
M  V30 6915 C 662.273 -0.615303 1.8567 0
M  V30 6916 O 663.479 -0.986861 2.52929 0
M  V30 6917 C 661.935 1.49048 3.27586 0
M  V30 6918 C 661.543 3.00089 3.32642 0
M  V30 6919 C 663.287 1.31515 4.03614 0
M  V30 6920 C 661.194 3.56019 4.72234 0
M  V30 6921 H 660.124 0.318423 0.683464 0
M  V30 6922 H 662.775 1.34165 1.25188 0
M  V30 6923 H 661.157 0.937434 3.84744 0
M  V30 6924 H 662.331 3.61813 2.85356 0
M  V30 6925 H 660.646 3.16919 2.70096 0
M  V30 6926 H 663.243 1.70732 5.0671 0
M  V30 6927 H 663.586 0.257917 4.155 0
M  V30 6928 H 664.119 1.83694 3.52848 0
M  V30 6929 H 660.858 4.61463 4.65545 0
M  V30 6930 H 660.378 2.99066 5.19923 0
M  V30 6931 H 662.057 3.54568 5.41193 0
M  V30 6932 N 662.189 -1.289 0.906776 0
M  V30 6933 C 663.137 -2.29477 0.379873 0
M  V30 6934 C 664.131 -1.61068 -0.524747 0
M  V30 6935 O 665.337 -1.75344 -0.406765 0
M  V30 6936 H 661.712 -0.744742 0.10423 0
M  V30 6937 H 663.683 -2.71353 1.24137 0
M  V30 6938 C 662.432 -3.45713 -0.371154 0
M  V30 6939 H 661.755 -3.98551 0.315716 0
M  V30 6940 H 663.195 -4.18105 -0.704581 0
M  V30 6941 C 661.654 -2.9774 -1.57646 0
M  V30 6942 O 662.184 -2.99618 -2.67567 0
M  V30 6943 N 660.39 -2.53485 -1.42105 0
M  V30 6944 H 659.937 -2.52156 -0.526783 0
M  V30 6945 H 659.895 -2.21747 -2.22881 0
M  V30 6946 N 663.667 -0.670007 -1.42649 0
M  V30 6947 C 664.615 0.0230106 -2.32589 0
M  V30 6948 C 665.609 0.795585 -1.49555 0
M  V30 6949 O 666.815 0.70409 -1.65658 0
M  V30 6950 H 663.19 0.0262342 -0.751542 0
M  V30 6951 H 665.161 -0.753009 -2.88743 0
M  V30 6952 C 663.91 0.963872 -3.34073 0
M  V30 6953 H 663.233 0.378813 -3.98001 0
M  V30 6954 H 664.673 1.41755 -3.99602 0
M  V30 6955 C 663.132 2.06797 -2.65964 0
M  V30 6956 O 663.662 3.15383 -2.48789 0
M  V30 6957 N 661.868 1.83831 -2.25066 0
M  V30 6958 H 661.415 0.955235 -2.39234 0
M  V30 6959 H 661.373 2.57895 -1.79827 0
M  V30 6960 N 665.145 1.52092 -0.413018 0
M  V30 6961 C 666.422 1.94356 0.22024 0
M  V30 6962 C 666.802 1.35017 1.62277 0
M  V30 6963 O 666.15 0.527511 2.22328 0
M  V30 6964 C 666.36 3.48289 0.222638 0
M  V30 6965 C 667.708 4.22313 0.440098 0
M  V30 6966 O 668.732 3.54919 0.301826 0
M  V30 6967 O 667.591 5.41829 0.712984 0
M  V30 6968 H 664.685 0.814536 0.14304 0
M  V30 6969 H 667.231 1.63083 -0.469242 0
M  V30 6970 H 666.003 3.83872 -0.758836 0
M  V30 6971 H 665.626 3.85934 0.956057 0
M  V30 6972 N 666.623 0.143563 1.56945 0
M  V30 6973 C 667.869 -0.50916 1.96304 0
M  V30 6974 C 668.202 -1.64741 1.0283 0
M  V30 6975 O 667.477 -1.94374 0.0700361 0
M  V30 6976 C 667.76 -1.0186 3.45393 0
M  V30 6977 C 667.613 0.117923 4.49645 0
M  V30 6978 C 668.932 -1.90151 3.96901 0
M  V30 6979 H 666.051 -0.183608 0.713763 0
M  V30 6980 H 668.693 0.224095 1.88674 0
M  V30 6981 H 666.843 -1.64345 3.52027 0
M  V30 6982 H 668.515 0.754145 4.55094 0
M  V30 6983 H 666.758 0.777568 4.26774 0
M  V30 6984 H 667.429 -0.280187 5.51288 0
M  V30 6985 H 669.905 -1.375 3.92725 0
M  V30 6986 H 668.781 -2.22707 5.0169 0
M  V30 6987 H 669.042 -2.83718 3.39052 0
M  V30 6988 N 668.101 -1.57061 -0.130224 0
M  V30 6989 C 669.331 -1.88159 -0.853217 0
M  V30 6990 C 669.739 -0.731675 -1.7448 0
M  V30 6991 O 669.082 0.307035 -1.81116 0
M  V30 6992 C 669.144 -3.1415 -1.74785 0
M  V30 6993 C 668.808 -4.45202 -1.03173 0
M  V30 6994 C 669.805 -5.18526 -0.377759 0
M  V30 6995 C 667.49 -4.91912 -1.01624 0
M  V30 6996 C 669.484 -6.36775 0.282123 0
M  V30 6997 C 667.171 -6.10082 -0.352555 0
M  V30 6998 C 668.169 -6.82361 0.295483 0
M  V30 6999 O 667.857 -7.98284 0.948606 0
M  V30 7000 H 667.589 -0.627596 -0.251197 0
M  V30 7001 H 670.143 -2.05034 -0.1226 0
M  V30 7002 H 668.373 -2.93328 -2.51983 0
M  V30 7003 H 670.062 -3.31359 -2.34427 0
M  V30 7004 H 670.828 -4.83498 -0.381417 0
M  V30 7005 H 666.707 -4.35566 -1.51007 0
M  V30 7006 H 670.251 -6.93129 0.788525 0
M  V30 7007 H 666.148 -6.44569 -0.346621 0
M  V30 7008 H 666.916 -8.14054 0.851954 0
M  V30 7009 N 669.579 0.400081 -1.52437 0
M  V30 7010 C 670.828 1.14332 -1.66166 0
M  V30 7011 C 671.141 1.91419 -0.402253 0
M  V30 7012 O 672.347 2.6824 -0.419487 0
M  V30 7013 C 670.803 2.08137 -2.9361 0
M  V30 7014 C 670.411 1.36524 -4.26691 0
M  V30 7015 C 672.155 2.82664 -3.16703 0
M  V30 7016 C 670.062 2.29031 -5.45251 0
M  V30 7017 H 668.992 0.430499 -0.61902 0
M  V30 7018 H 671.643 0.407017 -1.78929 0
M  V30 7019 H 670.025 2.85358 -2.74567 0
M  V30 7020 H 671.199 0.646061 -4.56249 0
M  V30 7021 H 669.514 0.74002 -4.09771 0
M  V30 7022 H 672.111 3.52037 -4.0246 0
M  V30 7023 H 672.454 3.46122 -2.31312 0
M  V30 7024 H 672.987 2.12541 -3.36261 0
M  V30 7025 H 669.726 1.70206 -6.33017 0
M  V30 7026 H 669.246 2.98896 -5.2002 0
M  V30 7027 H 670.925 2.89359 -5.78689 0
M  V30 7028 N 671.057 1.43213 0.657864 0
M  V30 7029 C 672.287 1.478 1.44356 0
M  V30 7030 C 672.695 0.0930206 1.88971 0
M  V30 7031 O 672.038 -0.906089 1.59799 0
M  V30 7032 C 672.1 2.35745 2.71412 0
M  V30 7033 C 671.764 3.83359 2.48767 0
M  V30 7034 C 672.761 4.74585 2.12285 0
M  V30 7035 C 670.446 4.27799 2.63235 0
M  V30 7036 C 672.44 6.08247 1.90562 0
M  V30 7037 C 670.127 5.61516 2.41128 0
M  V30 7038 C 671.125 6.51557 2.04847 0
M  V30 7039 O 670.813 7.82802 1.82967 0
M  V30 7040 H 670.545 0.504363 0.450104 0
M  V30 7041 H 673.099 1.88572 0.814241 0
M  V30 7042 H 671.329 1.89852 3.36887 0
M  V30 7043 H 673.018 2.31589 3.33348 0
M  V30 7044 H 673.784 4.41531 2.00687 0
M  V30 7045 H 669.663 3.57993 2.90451 0
M  V30 7046 H 673.207 6.78489 1.62168 0
M  V30 7047 H 669.104 5.94139 2.52327 0
M  V30 7048 H 669.872 7.94332 1.97429 0
M  V30 7049 N 672.536 -0.895792 1.29666 0
M  V30 7050 C 673.446 -2.03329 1.17024 0
M  V30 7051 C 674.462 -1.73753 0.0925962 0
M  V30 7052 O 675.638 -1.99071 0.305431 0
M  V30 7053 C 672.703 -3.36072 0.851841 0
M  V30 7054 C 671.764 -3.7914 2.01373 0
M  V30 7055 C 670.997 -5.05549 1.71043 0
M  V30 7056 O 671.22 -5.66874 0.633213 0
M  V30 7057 O 670.154 -5.44764 2.5596 0
M  V30 7058 H 673.98 -2.16918 2.12556 0
M  V30 7059 H 671.565 -1.02007 1.09156 0
M  V30 7060 H 673.447 -4.15729 0.689006 0
M  V30 7061 H 672.122 -3.23616 -0.0736634 0
M  V30 7062 H 671.029 -3.00233 2.23183 0
M  V30 7063 H 672.362 -3.96186 2.92058 0
M  V30 7064 N 674.014 -1.12206 -1.10668 0
M  V30 7065 C 675.43 -0.857619 -1.346 0
M  V30 7066 C 675.63 0.513542 -1.94846 0
M  V30 7067 O 674.686 1.26273 -2.18658 0
M  V30 7068 C 675.999 -1.97212 -2.26998 0
M  V30 7069 C 677.547 -2.00272 -2.40542 0
M  V30 7070 C 678.022 -3.10948 -3.36267 0
M  V30 7071 N 679.513 -3.10375 -3.43834 0
M  V30 7072 C 680.248 -3.92651 -4.17867 0
M  V30 7073 N 679.744 -4.84911 -4.94807 0
M  V30 7074 N 681.537 -3.80798 -4.1346 0
M  V30 7075 H 673.688 -2.00558 -0.699306 0
M  V30 7076 H 675.951 -0.872612 -0.370477 0
M  V30 7077 H 675.657 -2.96002 -1.89936 0
M  V30 7078 H 675.531 -1.87521 -3.27286 0
M  V30 7079 H 677.918 -1.02103 -2.76874 0
M  V30 7080 H 677.999 -2.14037 -1.40077 0
M  V30 7081 H 677.643 -4.09348 -3.00661 0
M  V30 7082 H 677.573 -2.94421 -4.36605 0
M  V30 7083 H 680.064 -2.43536 -2.88961 0
M  V30 7084 H 680.377 -5.44207 -5.48688 0
M  V30 7085 H 678.722 -4.88926 -4.93939 0
M  V30 7086 H 681.913 -3.08058 -3.52445 0
M  V30 7087 H 682.086 -4.4515 -4.70898 0
M  V30 7088 N 675.492 1.28418 -0.913599 0
M  V30 7089 C 676.439 2.27301 -0.400373 0
M  V30 7090 C 677.409 1.57582 0.52509 0
M  V30 7091 O 678.594 1.85482 0.447318 0
M  V30 7092 C 675.734 3.43284 0.35361 0
M  V30 7093 C 674.847 4.27752 -0.604341 0
M  V30 7094 C 673.982 5.30934 0.168075 0
M  V30 7095 C 673.021 6.07065 -0.783499 0
M  V30 7096 N 672.158 7.02086 -0.0446112 0
M  V30 7097 H 676.998 2.70579 -1.24865 0
M  V30 7098 H 674.535 1.33067 -0.627028 0
M  V30 7099 H 676.493 4.09322 0.806945 0
M  V30 7100 H 675.123 3.00997 1.16623 0
M  V30 7101 H 674.175 3.61759 -1.17621 0
M  V30 7102 H 675.487 4.80682 -1.33216 0
M  V30 7103 H 674.641 6.02855 0.681979 0
M  V30 7104 H 673.38 4.78771 0.928947 0
M  V30 7105 H 672.385 5.33995 -1.30878 0
M  V30 7106 H 673.61 6.61317 -1.54392 0
M  V30 7107 H 671.556 6.52273 0.698272 0
M  V30 7108 H 671.473 7.52637 -0.712258 0
M  V30 7109 H 672.741 7.78205 0.449102 0
M  V30 7110 N 676.97 0.677563 1.42291 0
M  V30 7111 C 678.217 0.200975 2.015 0
M  V30 7112 C 678.545 -1.19342 1.53583 0
M  V30 7113 O 677.8 -1.81579 0.7299 0
M  V30 7114 C 678.099 0.187229 3.56909 0
M  V30 7115 C 677.765 1.52667 4.24268 0
M  V30 7116 C 676.427 1.89341 4.42384 0
M  V30 7117 C 678.779 2.40869 4.62203 0
M  V30 7118 C 676.107 3.13836 4.95705 0
M  V30 7119 C 678.459 3.64679 5.16906 0
M  V30 7120 C 677.123 4.01519 5.33234 0
M  V30 7121 H 676.393 0.0735418 0.737342 0
M  V30 7122 H 679.04 0.873095 1.70439 0
M  V30 7123 H 677.345 -0.568407 3.87655 0
M  V30 7124 H 679.042 -0.198773 4.00507 0
M  V30 7125 H 675.632 1.23138 4.1053 0
M  V30 7126 H 679.816 2.1382 4.47878 0
M  V30 7127 H 675.072 3.42396 5.06532 0
M  V30 7128 H 679.246 4.33224 5.45243 0
M  V30 7129 H 676.873 4.98062 5.74316 0
M  V30 7130 N 678.448 -1.51871 0.421078 0
M  V30 7131 C 679.695 -2.01938 -0.15079 0
M  V30 7132 C 680.023 -1.30611 -1.44121 0
M  V30 7133 O 679.278 -0.404631 -1.91471 0
M  V30 7134 C 679.577 -3.54764 -0.433292 0
M  V30 7135 C 679.243 -4.44288 0.76936 0
M  V30 7136 C 677.905 -4.68477 1.09921 0
M  V30 7137 C 680.257 -4.96915 1.57242 0
M  V30 7138 C 677.585 -5.4254 2.2331 0
M  V30 7139 C 679.937 -5.7222 2.69716 0
M  V30 7140 C 678.601 -5.94678 3.03174 0
M  V30 7141 H 677.871 -0.738943 -0.0551781 0
M  V30 7142 H 680.518 -1.82977 0.564945 0
M  V30 7143 H 678.823 -3.71968 -1.23074 0
M  V30 7144 H 680.52 -3.91023 -0.888922 0
M  V30 7145 H 677.11 -4.25646 0.502305 0
M  V30 7146 H 681.294 -4.78125 1.3308 0
M  V30 7147 H 676.55 -5.58146 2.49565 0
M  V30 7148 H 680.724 -6.11992 3.32323 0
M  V30 7149 H 678.351 -6.51848 3.9115 0
M  V30 7150 N 679.926 -0.151884 -1.56866 0
M  V30 7151 C 680.874 0.80299 -2.183 0
M  V30 7152 C 681.868 1.25174 -1.14139 0
M  V30 7153 O 683.074 1.21966 -1.3238 0
M  V30 7154 H 679.449 0.277169 -0.699057 0
M  V30 7155 H 681.42 0.260699 -2.97259 0
M  V30 7156 C 680.169 2.03009 -2.82281 0
M  V30 7157 H 679.492 1.69377 -3.62148 0
M  V30 7158 H 680.932 2.67753 -3.28762 0
M  V30 7159 C 679.391 2.84123 -1.81041 0
M  V30 7160 O 679.921 3.8063 -1.28388 0
M  V30 7161 N 678.127 2.48753 -1.50234 0
M  V30 7162 H 677.674 1.70337 -1.93244 0
M  V30 7163 H 677.632 3.03316 -0.827445 0
M  V30 7164 N 681.404 1.57128 0.121893 0
M  V30 7165 C 682.681 1.75664 0.860327 0
M  V30 7166 C 683.061 0.726585 1.98202 0
M  V30 7167 O 682.409 -0.24999 2.27128 0
M  V30 7168 C 682.619 3.20571 1.37968 0
M  V30 7169 C 683.967 3.82988 1.83317 0
M  V30 7170 O 684.991 3.24156 1.47654 0
M  V30 7171 O 683.85 4.86393 2.49168 0
M  V30 7172 H 680.944 0.719153 0.408348 0
M  V30 7173 H 683.49 1.6937 0.105859 0
M  V30 7174 H 682.262 3.87056 0.57477 0
M  V30 7175 H 681.885 3.31392 2.19694 0
M  V30 7176 N 682.882 -0.391992 1.52647 0
M  V30 7177 C 684.128 -1.139 1.67793 0
M  V30 7178 C 684.461 -1.89711 0.41514 0
M  V30 7179 O 683.736 -1.85431 -0.586979 0
M  V30 7180 C 684.019 -2.11966 2.91105 0
M  V30 7181 C 683.872 -1.39939 4.27478 0
M  V30 7182 C 685.191 -3.1243 3.09961 0
M  V30 7183 H 682.31 -0.412707 0.610608 0
M  V30 7184 H 684.952 -0.422725 1.85238 0
M  V30 7185 H 683.102 -2.73048 2.76364 0
M  V30 7186 H 684.774 -0.818439 4.53982 0
M  V30 7187 H 683.017 -0.701246 4.28095 0
M  V30 7188 H 683.688 -2.1158 5.09841 0
M  V30 7189 H 686.164 -2.61435 3.23714 0
M  V30 7190 H 685.04 -3.78294 3.97725 0
M  V30 7191 H 685.301 -3.81127 2.24042 0
M  V30 7192 N 684.36 -1.4356 -0.65026 0
M  V30 7193 C 685.606 -1.45549 -1.41221 0
M  V30 7194 C 685.939 -0.0805472 -1.94033 0
M  V30 7195 O 685.214 0.899043 -1.72475 0
M  V30 7196 C 685.497 -2.50028 -2.59148 0
M  V30 7197 C 685.35 -3.96808 -2.1181 0
M  V30 7198 C 686.669 -2.51212 -3.61359 0
M  V30 7199 H 683.788 -0.529967 -0.512156 0
M  V30 7200 H 686.43 -1.75127 -0.736933 0
M  V30 7201 H 684.58 -2.24937 -3.16758 0
M  V30 7202 H 686.252 -4.32966 -1.59178 0
M  V30 7203 H 684.495 -4.09498 -1.43156 0
M  V30 7204 H 685.166 -4.6553 -2.96625 0
M  V30 7205 H 687.642 -2.73583 -3.13515 0
M  V30 7206 H 686.518 -3.26252 -4.41419 0
M  V30 7207 H 686.779 -1.54701 -4.1415 0
M  V30 7208 N 685.838 0.888903 -1.30139 0
M  V30 7209 C 686.768 2.01046 -1.18755 0
M  V30 7210 C 687.749 1.69916 -0.0791438 0
M  V30 7211 O 688.934 1.92445 -0.260498 0
M  V30 7212 C 686.064 3.36109 -0.874518 0
M  V30 7213 C 685.018 3.81486 -1.94043 0
M  V30 7214 C 684.344 5.13796 -1.48047 0
M  V30 7215 C 685.644 4.00637 -3.35093 0
M  V30 7216 H 687.338 2.10828 -2.12584 0
M  V30 7217 H 684.884 1.01298 -1.02346 0
M  V30 7218 H 686.837 4.14089 -0.781548 0
M  V30 7219 H 685.561 3.26449 0.0994519 0
M  V30 7220 H 684.22 3.05731 -2.02297 0
M  V30 7221 H 683.868 5.0056 -0.494878 0
M  V30 7222 H 683.568 5.45127 -2.19341 0
M  V30 7223 H 685.092 5.94305 -1.40121 0
M  V30 7224 H 686.506 4.69067 -3.2962 0
M  V30 7225 H 684.903 4.43339 -4.04438 0
M  V30 7226 H 685.973 3.0462 -3.77273 0
M  V30 7227 N 687.317 1.12792 1.10072 0
M  V30 7228 C 688.563 0.886857 1.82381 0
M  V30 7229 C 688.896 -0.58576 1.85155 0
M  V30 7230 O 688.171 -1.43317 1.31493 0
M  V30 7231 C 688.454 1.46703 3.28862 0
M  V30 7232 C 688.307 3.00829 3.34398 0
M  V30 7233 C 689.626 1.12971 4.25353 0
M  V30 7234 H 686.745 0.32362 0.662148 0
M  V30 7235 H 689.387 1.39513 1.28982 0
M  V30 7236 H 687.537 1.03476 3.74466 0
M  V30 7237 H 689.209 3.52764 2.97247 0
M  V30 7238 H 687.452 3.36164 2.74183 0
M  V30 7239 H 688.123 3.36519 4.3756 0
M  V30 7240 H 690.599 1.50313 3.88001 0
M  V30 7241 H 689.475 1.56223 5.26199 0
M  V30 7242 H 689.736 0.0424452 4.4208 0
M  V30 7243 N 688.795 -1.27931 0.920396 0
M  V30 7244 C 689.758 -2.25345 0.41858 0
M  V30 7245 C 690.758 -1.54116 -0.458798 0
M  V30 7246 O 691.948 -1.72235 -0.260912 0
M  V30 7247 C 689.08 -3.38556 -0.399104 0
M  V30 7248 H 690.273 -2.71251 1.27918 0
M  V30 7249 H 687.826 -1.39728 0.700406 0
M  V30 7250 H 688.561 -2.98021 -1.27882 0
M  V30 7251 H 688.346 -3.91426 0.229863 0
M  V30 7252 H 689.836 -4.10976 -0.740817 0
M  V30 7253 N 690.273 -0.685099 -1.4193 0
M  V30 7254 C 691.522 -0.208816 -2.00616 0
M  V30 7255 C 691.835 1.19506 -1.54847 0
M  V30 7256 O 693.041 1.76826 -2.06021 0
M  V30 7257 C 691.497 -0.322446 -3.58453 0
M  V30 7258 C 691.105 -1.73102 -4.13206 0
M  V30 7259 C 692.849 0.0945979 -4.24395 0
M  V30 7260 C 690.756 -1.79687 -5.63442 0
M  V30 7261 H 689.686 -0.0743092 -0.750329 0
M  V30 7262 H 692.337 -0.851778 -1.62533 0
M  V30 7263 H 690.719 0.388588 -3.94089 0
M  V30 7264 H 691.893 -2.46997 -3.8901 0
M  V30 7265 H 690.208 -2.09682 -3.59753 0
M  V30 7266 H 692.805 0.0656937 -5.3466 0
M  V30 7267 H 693.148 1.1316 -4.00625 0
M  V30 7268 H 693.681 -0.56579 -3.93756 0
M  V30 7269 H 690.42 -2.81404 -5.92024 0
M  V30 7270 H 689.94 -1.10162 -5.89597 0
M  V30 7271 H 691.619 -1.55498 -6.28036 0
M  V30 7272 N 691.751 1.51645 -0.429126 0
M  V30 7273 C 692.699 2.29119 0.400921 0
M  V30 7274 C 693.693 1.34628 1.02819 0
M  V30 7275 O 694.899 1.52004 0.964098 0
M  V30 7276 H 691.274 0.737273 0.148095 0
M  V30 7277 H 693.245 2.97144 -0.273457 0
M  V30 7278 C 691.994 3.13953 1.49429 0
M  V30 7279 H 691.317 3.86544 1.02097 0
M  V30 7280 H 692.757 3.71232 2.04849 0
M  V30 7281 C 691.216 2.28796 2.47293 0
M  V30 7282 O 691.746 1.94193 3.51642 0
M  V30 7283 N 689.952 1.92177 2.17982 0
M  V30 7284 H 689.499 2.20517 1.33154 0
M  V30 7285 H 689.457 1.35497 2.83704 0
M  V30 7286 N 693.229 0.160201 1.56784 0
M  V30 7287 C 694.645 -0.196089 1.58391 0
M  V30 7288 C 694.845 -1.63689 1.17508 0
M  V30 7289 O 693.901 -2.36613 0.881506 0
M  V30 7290 C 695.214 0.0746449 3.00607 0
M  V30 7291 C 696.762 0.0119762 3.12998 0
M  V30 7292 C 697.237 0.255551 4.57286 0
M  V30 7293 N 698.728 0.202938 4.62755 0
M  V30 7294 C 699.463 0.365731 5.72232 0
M  V30 7295 N 698.959 0.586972 6.90309 0
M  V30 7296 N 700.752 0.302411 5.61286 0
M  V30 7297 H 692.903 1.1008 1.81648 0
M  V30 7298 H 695.166 0.436779 0.841384 0
M  V30 7299 H 694.872 1.07231 3.34954 0
M  V30 7300 H 694.746 -0.638802 3.71751 0
M  V30 7301 H 697.133 -0.976254 2.78484 0
M  V30 7302 H 697.214 0.75796 2.44313 0
M  V30 7303 H 696.858 1.24094 4.92507 0
M  V30 7304 H 696.788 -0.510912 5.24116 0
M  V30 7305 H 699.279 0.0371328 3.77882 0
M  V30 7306 H 699.592 0.700941 7.69615 0
M  V30 7307 H 697.937 0.623453 6.92198 0
M  V30 7308 H 701.128 0.130238 4.67919 0
M  V30 7309 H 701.301 0.432712 6.46554 0
M  V30 7310 N 694.707 -1.5719 -0.113559 0
M  V30 7311 C 695.655 -2.01725 -1.158 0
M  V30 7312 C 696.649 -0.915105 -1.42556 0
M  V30 7313 O 697.855 -1.10031 -1.42454 0
M  V30 7314 H 694.23 -0.64262 -0.390569 0
M  V30 7315 H 696.201 -2.88666 -0.755926 0
M  V30 7316 C 694.95 -2.44203 -2.47507 0
M  V30 7317 H 694.273 -3.28582 -2.27758 0
M  V30 7318 H 695.713 -2.79158 -3.19135 0
M  V30 7319 C 694.172 -1.30785 -3.10478 0
M  V30 7320 O 694.702 -0.626807 -3.9678 0
M  V30 7321 N 692.908 -1.06352 -2.7044 0
M  V30 7322 H 692.455 -1.61913 -2.00355 0
M  V30 7323 H 692.413 -0.306614 -3.12901 0
M  V30 7324 N 696.185 0.383891 -1.52853 0
M  V30 7325 C 697.413 1.1495 -1.7203 0
M  V30 7326 C 697.828 1.83578 -0.440957 0
M  V30 7327 O 697.185 1.72872 0.584925 0
M  V30 7328 C 697.236 2.19368 -2.87333 0
M  V30 7329 O 696.957 1.53536 -4.10315 0
M  V30 7330 C 698.458 3.08616 -3.18231 0
M  V30 7331 H 695.678 0.344445 -0.575846 0
M  V30 7332 H 698.222 0.448397 -1.99524 0
M  V30 7333 H 696.377 2.85105 -2.62286 0
M  V30 7334 H 696.791 2.2296 -4.74752 0
M  V30 7335 H 698.265 3.77902 -4.02361 0
M  V30 7336 H 698.742 3.72409 -2.32826 0
M  V30 7337 H 699.348 2.48518 -3.45136 0
M  V30 7338 N 697.663 1.43903 0.642637 0
M  V30 7339 C 698.595 1.45857 1.768 0
M  V30 7340 C 699.608 0.353358 1.58919 0
M  V30 7341 O 700.797 0.618426 1.67445 0
M  V30 7342 C 697.897 1.26583 3.14372 0
M  V30 7343 C 697.07 2.50139 3.58817 0
M  V30 7344 C 696.129 2.25933 4.75227 0
M  V30 7345 O 695.155 2.99351 4.84125 0
M  V30 7346 N 696.357 1.28263 5.66153 0
M  V30 7347 H 699.122 2.42869 1.75598 0
M  V30 7348 H 696.683 1.39194 0.826832 0
M  V30 7349 H 698.675 1.08255 3.89953 0
M  V30 7350 H 697.245 0.37978 3.10284 0
M  V30 7351 H 696.465 2.83821 2.73568 0
M  V30 7352 H 697.753 3.32344 3.8526 0
M  V30 7353 H 697.151 0.676041 5.61646 0
M  V30 7354 H 695.708 1.15916 6.4141 0
M  V30 7355 N 699.141 -0.881989 1.30609 0
M  V30 7356 C 700.366 -1.67236 1.22665 0
M  V30 7357 C 700.791 -1.8696 -0.206777 0
M  V30 7358 O 700.149 -1.4027 -1.14865 0
M  V30 7359 C 700.197 -3.02446 1.96363 0
M  V30 7360 O 699.301 -3.91614 1.29276 0
M  V30 7361 H 698.642 -0.510902 0.424117 0
M  V30 7362 H 701.172 -1.10055 1.72479 0
M  V30 7363 H 701.182 -3.52468 2.055 0
M  V30 7364 H 699.857 -2.8741 3.00613 0
M  V30 7365 H 698.434 -3.50055 1.28514 0
M  V30 7366 N 700.619 -1.13374 -1.09472 0
M  V30 7367 C 701.844 -0.918711 -1.85942 0
M  V30 7368 C 702.269 0.527225 -1.8056 0
M  V30 7369 O 701.627 1.37408 -1.18274 0
M  V30 7370 C 701.675 -1.41056 -3.31867 0
M  V30 7371 O 700.779 -0.595496 -4.08078 0
M  V30 7372 H 700.12 -0.329297 -0.576593 0
M  V30 7373 H 702.65 -1.50829 -1.38245 0
M  V30 7374 H 702.66 -1.41398 -3.82715 0
M  V30 7375 H 701.335 -2.46335 -3.35099 0
M  V30 7376 H 699.912 -0.659911 -3.67014 0
M  V30 7377 N 702.098 1.27442 -0.927168 0
M  V30 7378 C 703.328 1.9821 -0.582775 0
M  V30 7379 C 703.736 1.69361 0.843406 0
M  V30 7380 O 703.079 0.950381 1.57205 0
M  V30 7381 C 703.141 3.52048 -0.728165 0
M  V30 7382 C 702.805 4.04518 -2.12637 0
M  V30 7383 C 703.802 4.17332 -3.10048 0
M  V30 7384 C 701.487 4.38879 -2.44317 0
M  V30 7385 C 703.481 4.6378 -4.37249 0
M  V30 7386 C 701.168 4.85018 -3.71753 0
M  V30 7387 C 702.166 4.97428 -4.68033 0
M  V30 7388 O 701.854 5.42556 -5.93202 0
M  V30 7389 H 701.586 0.639314 -0.219667 0
M  V30 7390 H 704.14 1.63272 -1.24626 0
M  V30 7391 H 702.37 3.86699 -0.00758143 0
M  V30 7392 H 704.059 4.04033 -0.388906 0
M  V30 7393 H 704.825 3.91046 -2.86894 0
M  V30 7394 H 700.704 4.28462 -1.70121 0
M  V30 7395 H 704.248 4.73382 -5.12402 0
M  V30 7396 H 700.145 5.10746 -3.94726 0
M  V30 7397 H 700.913 5.60811 -5.96182 0
M  V30 7398 N 703.576 0.692616 1.41565 0
M  V30 7399 C 704.801 0.229776 2.06123 0
M  V30 7400 C 705.226 -1.11119 1.5177 0
M  V30 7401 O 704.584 -1.69498 0.643444 0
M  V30 7402 C 704.632 0.19469 3.60074 0
M  V30 7403 O 703.736 -0.831366 4.03933 0
M  V30 7404 H 703.077 0.113002 0.654314 0
M  V30 7405 H 705.607 0.946645 1.81383 0
M  V30 7406 H 705.617 0.0245487 4.07993 0
M  V30 7407 H 704.292 1.17339 3.99004 0
M  V30 7408 H 702.869 -0.630819 3.67526 0
M  V30 7409 N 705.054 -1.51416 0.437162 0
M  V30 7410 C 706.303 -2.01275 -0.130865 0
M  V30 7411 C 706.616 -1.32593 -1.438 0
M  V30 7412 O 707.822 -1.7342 -2.08897 0
M  V30 7413 C 706.278 -3.5878 -0.283763 0
M  V30 7414 C 705.886 -4.36399 1.01293 0
M  V30 7415 C 707.63 -4.16786 -0.805569 0
M  V30 7416 C 705.537 -5.85608 0.825687 0
M  V30 7417 H 704.467 -0.752157 -0.0526818 0
M  V30 7418 H 707.118 -1.74524 0.566896 0
M  V30 7419 H 705.5 -3.81976 -1.04452 0
M  V30 7420 H 706.674 -4.24948 1.78201 0
M  V30 7421 H 704.989 -3.89843 1.46326 0
M  V30 7422 H 707.586 -5.25972 -0.962146 0
M  V30 7423 H 707.929 -3.75949 -1.78796 0
M  V30 7424 H 708.462 -3.97666 -0.103125 0
M  V30 7425 H 705.201 -6.30857 1.78045 0
M  V30 7426 H 704.721 -5.99723 0.0964029 0
M  V30 7427 H 706.4 -6.45226 0.478815 0
M  V30 7428 N 706.532 -0.168513 -1.56696 0
M  V30 7429 C 707.757 0.486688 -2.01609 0
M  V30 7430 C 708.182 1.56203 -1.04796 0
M  V30 7431 O 707.54 1.8128 -0.0270596 0
M  V30 7432 C 707.588 1.04451 -3.45141 0
M  V30 7433 O 706.692 2.15862 -3.51393 0
M  V30 7434 H 706.033 0.116831 -0.653641 0
M  V30 7435 H 708.563 -0.271579 -2.0279 0
M  V30 7436 H 708.573 1.36782 -3.84389 0
M  V30 7437 H 707.248 0.257155 -4.15104 0
M  V30 7438 H 705.825 1.84597 -3.24004 0
M  V30 7439 N 708.01 1.57248 0.105221 0
M  V30 7440 C 709.258 1.85204 0.808951 0
M  V30 7441 C 709.579 0.75574 1.7976 0
M  V30 7442 O 708.849 -0.218984 1.94672 0
M  V30 7443 H 707.429 0.683346 0.301739 0
M  V30 7444 H 710.091 1.94695 0.0892605 0
M  V30 7445 H 709.187 2.81595 1.34575 0
M  V30 7446 N 709.488 -0.375779 1.53054 0
M  V30 7447 C 710.418 -1.46598 1.81745 0
M  V30 7448 C 711.399 -1.56337 0.670286 0
M  V30 7449 O 712.584 -1.71071 0.919158 0
M  V30 7450 C 709.714 -2.84058 1.99821 0
M  V30 7451 C 708.668 -2.8915 3.15557 0
M  V30 7452 C 707.994 -4.29187 3.18908 0
M  V30 7453 C 709.294 -2.57595 4.54359 0
M  V30 7454 H 710.988 -1.22837 2.73041 0
M  V30 7455 H 708.534 -0.589485 1.31381 0
M  V30 7456 H 710.487 -3.60342 2.18475 0
M  V30 7457 H 709.211 -3.09184 1.05226 0
M  V30 7458 H 707.87 -2.15316 2.96706 0
M  V30 7459 H 707.518 -4.51374 2.2197 0
M  V30 7460 H 707.218 -4.33512 3.96662 0
M  V30 7461 H 708.742 -5.07359 3.39734 0
M  V30 7462 H 710.156 -3.23595 4.73243 0
M  V30 7463 H 708.553 -2.73252 5.34279 0
M  V30 7464 H 709.623 -1.52882 4.60169 0
M  V30 7465 N 710.966 -1.44241 -0.634997 0
M  V30 7466 C 711.898 -1.46793 -1.76024 0
M  V30 7467 C 712.911 -0.361781 -1.58729 0
M  V30 7468 O 714.1 -0.627297 -1.67114 0
M  V30 7469 C 711.2 -1.28248 -3.13697 0
M  V30 7470 C 710.373 -2.52038 -3.57485 0
M  V30 7471 C 709.432 -2.2845 -4.74022 0
M  V30 7472 O 708.458 -3.01915 -4.82531 0
M  V30 7473 N 709.66 -1.31264 -5.65464 0
M  V30 7474 H 712.425 -2.43797 -1.74307 0
M  V30 7475 H 709.986 -1.39631 -0.819438 0
M  V30 7476 H 711.978 -1.10321 -3.89373 0
M  V30 7477 H 710.548 -0.39623 -3.10079 0
M  V30 7478 H 709.768 -2.85268 -2.72059 0
M  V30 7479 H 711.056 -3.34382 -3.83492 0
M  V30 7480 H 710.454 -0.705817 -5.6128 0
M  V30 7481 H 709.011 -1.19316 -6.40786 0
M  V30 7482 N 712.444 0.87505 -1.31075 0
M  V30 7483 C 713.672 1.66058 -1.23419 0
M  V30 7484 C 714.087 1.87723 0.201347 0
M  V30 7485 O 713.444 1.43178 1.13165 0
M  V30 7486 C 713.495 3.03142 -1.96945 0
M  V30 7487 O 713.216 2.82448 -3.34895 0
M  V30 7488 C 714.717 3.97583 -1.96067 0
M  V30 7489 H 711.937 0.517868 -0.426677 0
M  V30 7490 H 714.481 1.09258 -1.72867 0
M  V30 7491 H 712.636 3.56645 -1.51271 0
M  V30 7492 H 713.05 3.69483 -3.72267 0
M  V30 7493 H 714.524 4.91104 -2.52034 0
M  V30 7494 H 715.001 4.2898 -0.941961 0
M  V30 7495 H 715.607 3.50015 -2.41597 0
M  V30 7496 N 713.922 1.13953 1.08869 0
M  V30 7497 C 714.885 0.824991 2.13838 0
M  V30 7498 C 715.885 -0.168198 1.59918 0
M  V30 7499 O 717.075 0.0595778 1.74098 0
M  V30 7500 C 714.207 0.228938 3.4013 0
M  V30 7501 H 715.4 1.75521 2.43171 0
M  V30 7502 H 712.953 0.94492 1.24503 0
M  V30 7503 H 713.688 -0.710227 3.16427 0
M  V30 7504 H 713.473 0.944243 3.80561 0
M  V30 7505 H 714.963 0.0259223 4.17592 0
M  V30 7506 N 715.4 -1.26948 0.933913 0
M  V30 7507 C 716.33 -2.29017 0.45534 0
M  V30 7508 C 717.311 -1.62961 -0.487605 0
M  V30 7509 O 718.496 -1.90223 -0.391022 0
M  V30 7510 C 715.626 -3.46112 -0.287015 0
M  V30 7511 C 714.58 -4.24205 0.568682 0
M  V30 7512 C 713.906 -5.3384 -0.303206 0
M  V30 7513 C 715.206 -4.88954 1.83633 0
M  V30 7514 H 716.9 -2.69298 1.30839 0
M  V30 7515 H 714.446 -1.29459 0.630579 0
M  V30 7516 H 716.399 -4.16622 -0.6328 0
M  V30 7517 H 715.123 -3.04765 -1.17414 0
M  V30 7518 H 713.782 -3.5545 0.897261 0
M  V30 7519 H 713.43 -4.88734 -1.18947 0
M  V30 7520 H 713.13 -5.86998 0.265879 0
M  V30 7521 H 714.654 -6.0719 -0.644423 0
M  V30 7522 H 716.068 -5.51717 1.55823 0
M  V30 7523 H 714.465 -5.52198 2.34941 0
M  V30 7524 H 715.535 -4.12305 2.55211 0
M  V30 7525 N 716.879 -0.700114 -1.41195 0
M  V30 7526 C 718.29 -0.307249 -1.84154 0
M  V30 7527 C 718.641 1.15539 -1.58572 0
M  V30 7528 O 717.766 1.88744 -1.05852 0
M  V30 7529 C 718.361 -0.550872 -3.34292 0
M  V30 7530 C 716.92 -0.211877 -3.75803 0
M  V30 7531 C 716.067 -0.830915 -2.64558 0
M  V30 7532 H 719.018 -0.900431 -1.30683 0
M  V30 7533 H 719.039 0.188954 -3.80031 0
M  V30 7534 H 718.551 -1.61548 -3.5288 0
M  V30 7535 H 716.652 0.848283 -3.62815 0
M  V30 7536 H 716.765 -0.67007 -4.74391 0
M  V30 7537 H 715.129 -0.260155 -2.53368 0
M  V30 7538 H 715.912 -1.89948 -2.85963 0
M  V30 7539 N 718.357 1.51182 -0.445186 0
M  V30 7540 C 719.305 2.29531 0.376597 0
M  V30 7541 C 720.299 1.35711 1.01385 0
M  V30 7542 O 721.505 1.53018 0.947922 0
M  V30 7543 H 717.88 0.738803 0.140267 0
M  V30 7544 H 719.851 2.96838 -0.304958 0
M  V30 7545 C 718.6 3.1552 1.4609 0
M  V30 7546 H 717.923 3.87605 0.979912 0
M  V30 7547 H 719.363 3.73384 2.009 0
M  V30 7548 C 717.822 2.31406 2.44852 0
M  V30 7549 O 718.352 1.97912 3.49562 0
M  V30 7550 N 716.558 1.94478 2.15932 0
M  V30 7551 H 716.105 2.21917 1.30808 0
M  V30 7552 H 716.063 1.38498 2.82251 0
M  V30 7553 N 719.835 0.176821 1.56605 0
M  V30 7554 C 721.083 -0.465793 1.96659 0
M  V30 7555 C 721.404 -1.63406 1.06412 0
M  V30 7556 O 720.674 -1.95457 0.131603 0
M  V30 7557 H 719.254 -0.175072 0.726195 0
M  V30 7558 H 721.916 0.25929 1.93168 0
M  V30 7559 H 721.012 -0.822138 3.01077 0
M  V30 7560 N 721.313 -1.57302 -0.09688 0
M  V30 7561 C 722.538 -1.9058 -0.818169 0
M  V30 7562 C 722.963 -0.770921 -1.71576 0
M  V30 7563 O 722.321 0.277588 -1.79162 0
M  V30 7564 C 722.369 -3.22714 -1.60898 0
M  V30 7565 O 721.473 -3.10178 -2.71779 0
M  V30 7566 H 720.814 -0.624759 -0.224882 0
M  V30 7567 H 723.344 -2.04471 -0.07264 0
M  V30 7568 H 723.354 -3.55978 -1.99358 0
M  V30 7569 H 722.029 -4.04899 -0.950227 0
M  V30 7570 H 720.606 -2.88424 -2.3636 0
M  V30 7571 N 722.791 0.367657 -1.53252 0
M  V30 7572 C 724.021 1.12955 -1.72988 0
M  V30 7573 C 724.429 1.8358 -0.457708 0
M  V30 7574 O 723.772 1.74336 0.579006 0
M  V30 7575 C 723.834 2.20545 -2.83902 0
M  V30 7576 C 723.498 1.69704 -4.24323 0
M  V30 7577 C 724.495 1.16223 -5.06743 0
M  V30 7578 C 722.18 1.7528 -4.70725 0
M  V30 7579 C 724.174 0.689935 -6.33655 0
M  V30 7580 C 721.861 1.27662 -5.97617 0
M  V30 7581 C 722.859 0.746083 -6.78913 0
M  V30 7582 O 722.547 0.276925 -8.03423 0
M  V30 7583 H 722.279 0.343753 -0.582074 0
M  V30 7584 H 724.833 0.433106 -2.00782 0
M  V30 7585 H 723.063 2.93676 -2.51577 0
M  V30 7586 H 724.752 2.82111 -2.91836 0
M  V30 7587 H 725.518 1.11256 -4.72067 0
M  V30 7588 H 721.397 2.15515 -4.07522 0
M  V30 7589 H 724.941 0.275164 -6.97057 0
M  V30 7590 H 720.838 1.32322 -6.31792 0
M  V30 7591 H 721.606 0.396445 -8.17539 0
M  V30 7592 N 724.269 1.44576 0.627338 0
M  V30 7593 C 725.232 1.51372 1.72102 0
M  V30 7594 C 726.232 0.395329 1.55865 0
M  V30 7595 O 727.422 0.658094 1.61291 0
M  V30 7596 C 724.554 1.39129 3.11217 0
M  V30 7597 H 725.747 2.48798 1.6745 0
M  V30 7598 H 723.3 1.31724 0.841336 0
M  V30 7599 H 724.035 0.428114 3.21462 0
M  V30 7600 H 723.82 2.20229 3.24409 0
M  V30 7601 H 725.31 1.46874 3.90919 0
M  V30 7602 N 725.747 -0.868086 1.31537 0
M  V30 7603 C 727.024 -1.60384 1.11965 0
M  V30 7604 C 727.404 -2.08584 -0.324949 0
M  V30 7605 O 726.752 -1.86561 -1.31937 0
M  V30 7606 C 726.962 -2.76038 2.13551 0
M  V30 7607 C 728.31 -3.45954 2.46173 0
M  V30 7608 O 729.334 -2.86247 2.11993 0
M  V30 7609 O 728.193 -4.53666 3.04711 0
M  V30 7610 H 725.287 -0.705705 0.431172 0
M  V30 7611 H 727.833 -0.913385 1.43022 0
M  V30 7612 H 726.605 -2.37849 3.10714 0
M  V30 7613 H 726.228 -3.52769 1.83411 0
M  V30 7614 N 727.225 -1.14528 -1.08264 0
M  V30 7615 C 728.455 -0.936604 -1.8415 0
M  V30 7616 C 728.863 0.518298 -1.81962 0
M  V30 7617 O 728.206 1.37096 -1.22272 0
M  V30 7618 C 728.268 -1.36182 -3.32708 0
M  V30 7619 C 727.932 -2.83257 -3.58629 0
M  V30 7620 C 728.929 -3.81366 -3.5335 0
M  V30 7621 C 726.614 -3.20704 -3.86593 0
M  V30 7622 C 728.608 -5.14929 -3.75668 0
M  V30 7623 C 726.295 -4.54443 -4.08564 0
M  V30 7624 C 727.293 -5.51365 -4.03095 0
M  V30 7625 O 726.981 -6.8269 -4.24488 0
M  V30 7626 H 726.713 -0.333254 -0.588148 0
M  V30 7627 H 729.267 -1.5247 -1.3763 0
M  V30 7628 H 727.497 -0.717063 -3.79994 0
M  V30 7629 H 729.186 -1.12372 -3.90035 0
M  V30 7630 H 729.952 -3.53781 -3.31759 0
M  V30 7631 H 725.831 -2.45857 -3.89969 0
M  V30 7632 H 729.375 -5.90568 -3.71315 0
M  V30 7633 H 725.272 -4.81747 -4.29639 0
M  V30 7634 H 726.04 -6.8897 -4.41886 0
M  V30 7635 N 728.703 1.26451 -0.940633 0
M  V30 7636 C 729.633 2.28773 -0.467479 0
M  V30 7637 C 730.614 1.63218 0.478955 0
M  V30 7638 O 731.799 1.90427 0.380929 0
M  V30 7639 C 728.929 3.46259 0.268656 0
M  V30 7640 C 727.883 4.23898 -0.591171 0
M  V30 7641 C 727.209 5.33993 0.274891 0
M  V30 7642 C 728.509 4.87974 -1.86223 0
M  V30 7643 H 730.203 2.68601 -1.32265 0
M  V30 7644 H 727.749 1.29123 -0.637436 0
M  V30 7645 H 729.702 4.16951 0.610696 0
M  V30 7646 H 728.426 3.05383 1.15796 0
M  V30 7647 H 727.085 3.54969 -0.916098 0
M  V30 7648 H 726.733 4.89358 1.16353 0
M  V30 7649 H 726.433 5.86849 -0.297006 0
M  V30 7650 H 727.957 6.07523 0.612213 0
M  V30 7651 H 729.371 5.50883 -1.58747 0
M  V30 7652 H 727.768 5.50945 -2.37866 0
M  V30 7653 H 728.838 4.10945 -2.57394 0
M  V30 7654 N 730.181 0.707592 1.40822 0
M  V30 7655 C 731.406 0.251626 2.05868 0
M  V30 7656 C 731.831 -1.09503 1.5294 0
M  V30 7657 O 731.189 -1.68806 0.661385 0
M  V30 7658 C 731.237 0.23287 3.59847 0
M  V30 7659 O 730.341 -0.788477 4.04792 0
M  V30 7660 H 729.682 0.119936 0.653078 0
M  V30 7661 H 732.212 0.96583 1.80369 0
M  V30 7662 H 732.222 0.0678204 4.07944 0
M  V30 7663 H 730.897 1.21565 3.97737 0
M  V30 7664 H 729.474 -0.591802 3.68174 0
M  V30 7665 N 731.66 -1.50943 0.453197 0
M  V30 7666 C 732.908 -2.01813 -0.107709 0
M  V30 7667 C 733.229 -1.33841 -1.41816 0
M  V30 7668 O 732.499 -0.477973 -1.8998 0
M  V30 7669 H 731.079 -0.745773 -0.0427948 0
M  V30 7670 H 733.741 -1.8545 0.599531 0
M  V30 7671 H 732.837 -3.10911 -0.27218 0
M  V30 7672 N 733.138 -0.185124 -1.56509 0
M  V30 7673 C 734.068 0.735098 -2.21627 0
M  V30 7674 C 735.049 1.2288 -1.1762 0
M  V30 7675 O 736.234 1.27945 -1.46095 0
M  V30 7676 C 733.364 1.95889 -2.86783 0
M  V30 7677 C 732.318 1.6005 -3.96948 0
M  V30 7678 C 731.644 2.90009 -4.4922 0
M  V30 7679 C 732.944 0.818008 -5.15855 0
M  V30 7680 H 734.638 0.192274 -2.98782 0
M  V30 7681 H 732.184 0.0910393 -1.43712 0
M  V30 7682 H 734.137 2.60779 -3.31017 0
M  V30 7683 H 732.861 2.52608 -2.07018 0
M  V30 7684 H 731.52 0.975237 -3.5339 0
M  V30 7685 H 731.168 3.44797 -3.6623 0
M  V30 7686 H 730.868 2.66778 -5.23549 0
M  V30 7687 H 732.392 3.55904 -4.9615 0
M  V30 7688 H 733.806 1.36979 -5.56695 0
M  V30 7689 H 732.203 0.684207 -5.96187 0
M  V30 7690 H 733.273 -0.182939 -4.84555 0
M  V30 7691 N 734.616 1.57351 0.0885366 0
M  V30 7692 C 735.546 2.05561 1.10757 0
M  V30 7693 C 736.527 0.945789 1.41382 0
M  V30 7694 O 737.712 1.21747 1.51299 0
M  V30 7695 C 734.842 2.48554 2.42566 0
M  V30 7696 C 733.796 3.63259 2.26334 0
M  V30 7697 C 733.122 3.9225 3.63378 0
M  V30 7698 C 734.422 4.93913 1.69844 0
M  V30 7699 H 736.116 2.90946 0.706468 0
M  V30 7700 H 733.662 1.39968 0.338385 0
M  V30 7701 H 735.615 2.8089 3.14132 0
M  V30 7702 H 734.339 1.60176 2.84625 0
M  V30 7703 H 732.998 3.31179 1.57213 0
M  V30 7704 H 732.646 3.0103 4.02976 0
M  V30 7705 H 732.346 4.69478 3.53362 0
M  V30 7706 H 733.87 4.27067 4.36401 0
M  V30 7707 H 735.284 5.24588 2.31258 0
M  V30 7708 H 733.681 5.75349 1.70569 0
M  V30 7709 H 734.751 4.80409 0.65843 0
M  V30 7710 N 736.094 -0.359525 1.53444 0
M  V30 7711 C 737.342 -1.09935 1.69584 0
M  V30 7712 C 737.663 -1.89656 0.453371 0
M  V30 7713 O 736.933 -1.8852 -0.53263 0
M  V30 7714 H 735.513 -0.408843 0.625185 0
M  V30 7715 H 738.175 -0.40467 1.90653 0
M  V30 7716 H 737.271 -1.78575 2.55964 0
M  V30 7717 N 737.572 -1.44907 -0.619662 0
M  V30 7718 C 738.82 -1.47999 -1.37625 0
M  V30 7719 C 739.141 -0.118295 -1.94641 0
M  V30 7720 O 738.411 0.85086 -1.76457 0
M  V30 7721 H 736.991 -0.544993 -0.510873 0
M  V30 7722 H 739.653 -1.80772 -0.728522 0
M  V30 7723 H 738.749 -2.21196 -2.20179 0
M  V30 7724 N 739.05 0.861098 -1.31996 0
M  V30 7725 C 739.998 1.99052 -1.20337 0
M  V30 7726 C 740.992 1.69045 -0.109623 0
M  V30 7727 O 742.198 1.77931 -0.272117 0
M  V30 7728 H 738.573 0.653064 -0.372843 0
M  V30 7729 H 740.544 2.06015 -2.15872 0
M  V30 7730 C 739.293 3.34846 -0.936663 0
M  V30 7731 H 738.616 3.58462 -1.77045 0
M  V30 7732 H 740.056 4.1444 -0.895302 0
M  V30 7733 C 738.515 3.34965 0.360607 0
M  V30 7734 O 739.045 3.7745 1.37456 0
M  V30 7735 N 737.251 2.88101 0.380296 0
M  V30 7736 H 736.798 2.53721 -0.445351 0
M  V30 7737 H 736.756 2.88563 1.24816 0
M  V30 7738 N 740.528 1.15101 1.07655 0
M  V30 7739 C 741.776 0.922149 1.79836 0
M  V30 7740 C 742.097 -0.552346 1.87014 0
M  V30 7741 O 741.367 -1.40145 1.3688 0
M  V30 7742 H 739.947 0.338182 0.666064 0
M  V30 7743 H 742.609 1.45107 1.30115 0
M  V30 7744 H 741.705 1.32883 2.82398 0
M  V30 7745 N 742.006 -1.2595 0.947325 0
M  V30 7746 C 743.255 -1.92759 0.593887 0
M  V30 7747 C 743.568 -1.75083 -0.872093 0
M  V30 7748 O 744.774 -2.36401 -1.33518 0
M  V30 7749 C 743.23 -3.45395 1.01144 0
M  V30 7750 C 742.838 -3.71795 2.49946 0
M  V30 7751 C 744.582 -4.18173 0.730185 0
M  V30 7752 C 742.489 -5.17901 2.85539 0
M  V30 7753 H 741.419 -0.721676 0.218403 0
M  V30 7754 H 744.07 -1.4293 1.15079 0
M  V30 7755 H 742.452 -3.94143 0.383007 0
M  V30 7756 H 743.626 -3.33728 3.17746 0
M  V30 7757 H 741.941 -3.12263 2.75465 0
M  V30 7758 H 744.538 -5.25784 0.972367 0
M  V30 7759 H 744.881 -4.14964 -0.333223 0
M  V30 7760 H 745.414 -3.75309 1.31862 0
M  V30 7761 H 742.153 -5.26216 3.90867 0
M  V30 7762 H 741.673 -5.57042 2.22406 0
M  V30 7763 H 743.352 -5.8596 2.74336 0
M  V30 7764 N 743.484 -0.715051 -1.40445 0
M  V30 7765 C 744.709 -0.26254 -2.05732 0
M  V30 7766 C 745.134 1.08691 -1.53519 0
M  V30 7767 O 744.492 1.68453 -0.670328 0
M  V30 7768 C 744.54 -0.25195 -3.59719 0
M  V30 7769 O 743.644 0.766998 -4.05205 0
M  V30 7770 H 742.985 -0.123398 -0.652433 0
M  V30 7771 H 745.515 -0.975382 -1.79854 0
M  V30 7772 H 745.525 -0.0894537 -4.07902 0
M  V30 7773 H 744.2 -1.23672 -3.97087 0
M  V30 7774 H 742.777 0.572269 -3.68483 0
M  V30 7775 N 744.962 1.50701 -0.461195 0
M  V30 7776 C 746.208 2.02566 0.0973411 0
M  V30 7777 C 746.541 1.3432 1.40257 0
M  V30 7778 O 745.816 0.465692 1.88843 0
M  V30 7779 C 746.099 3.58919 0.291423 0
M  V30 7780 C 745.952 4.37751 -1.03413 0
M  V30 7781 C 747.271 4.27379 1.05048 0
M  V30 7782 H 744.39 0.73622 0.0339026 0
M  V30 7783 H 747.032 1.80115 -0.604855 0
M  V30 7784 H 745.182 3.78179 0.889539 0
M  V30 7785 H 746.854 4.30085 -1.66806 0
M  V30 7786 H 745.097 4.01885 -1.63313 0
M  V30 7787 H 745.768 5.45384 -0.852085 0
M  V30 7788 H 748.244 4.12534 0.543603 0
M  V30 7789 H 747.12 5.36609 1.15506 0
M  V30 7790 H 747.381 3.89868 2.0846 0
M  V30 7791 N 746.441 0.193421 1.56409 0
M  V30 7792 C 747.666 -0.454552 2.02358 0
M  V30 7793 C 748.091 -1.54516 1.07268 0
M  V30 7794 O 747.449 -1.81214 0.0558962 0
M  V30 7795 C 747.497 -0.989469 3.46759 0
M  V30 7796 O 746.601 -2.10244 3.54783 0
M  V30 7797 H 745.942 -0.106417 0.655417 0
M  V30 7798 H 748.472 0.303807 2.02332 0
M  V30 7799 H 748.482 -1.30649 3.86516 0
M  V30 7800 H 747.157 -0.191083 4.15461 0
M  V30 7801 H 745.734 -1.79419 3.26899 0
M  V30 7802 N 747.919 -1.57396 -0.0801906 0
M  V30 7803 C 748.867 -2.04136 -1.11495 0
M  V30 7804 C 749.861 -0.945137 -1.40583 0
M  V30 7805 O 751.067 -1.13028 -1.40088 0
M  V30 7806 H 747.442 -0.65076 -0.37685 0
M  V30 7807 H 749.413 -2.90205 -0.694526 0
M  V30 7808 C 748.162 -2.49399 -2.42272 0
M  V30 7809 H 747.485 -3.33339 -2.20737 0
M  V30 7810 H 748.925 -2.85864 -3.13142 0
M  V30 7811 C 747.384 -1.37341 -3.07635 0
M  V30 7812 O 747.914 -0.710829 -3.95361 0
M  V30 7813 N 746.12 -1.12064 -2.68123 0
M  V30 7814 H 745.667 -1.66126 -1.96875 0
M  V30 7815 H 745.625 -0.372916 -3.12181 0
M  V30 7816 N 749.397 0.351382 -1.53633 0
M  V30 7817 C 750.645 1.09034 -1.70165 0
M  V30 7818 C 750.966 1.89413 -0.463422 0
M  V30 7819 O 750.236 1.888 0.522624 0
M  V30 7820 H 748.816 0.405522 -0.627344 0
M  V30 7821 H 751.478 0.394554 -1.90865 0
M  V30 7822 H 750.574 1.77215 -2.56907 0
M  V30 7823 N 750.875 1.45233 0.611969 0
M  V30 7824 C 752.1 1.52767 1.40274 0
M  V30 7825 C 752.525 0.159701 1.87421 0
M  V30 7826 O 751.883 -0.854837 1.59882 0
M  V30 7827 C 751.931 2.51286 2.58626 0
M  V30 7828 O 751.035 2.02764 3.59111 0
M  V30 7829 H 750.376 0.515141 0.418958 0
M  V30 7830 H 752.906 1.90547 0.745188 0
M  V30 7831 H 752.916 2.69949 3.05927 0
M  V30 7832 H 751.591 3.50641 2.23659 0
M  V30 7833 H 750.168 1.93957 3.18489 0
M  V30 7834 N 752.353 -0.854086 1.3245 0
M  V30 7835 C 753.599 -1.61069 1.23225 0
M  V30 7836 C 753.932 -1.93111 -0.205349 0
M  V30 7837 O 753.207 -1.57397 -1.14265 0
M  V30 7838 C 753.49 -2.93065 2.09249 0
M  V30 7839 C 753.343 -2.67801 3.6139 0
M  V30 7840 C 754.662 -3.94341 1.95406 0
M  V30 7841 H 751.781 -0.584449 0.448986 0
M  V30 7842 H 754.423 -0.986189 1.62402 0
M  V30 7843 H 752.573 -3.46364 1.75967 0
M  V30 7844 H 754.245 -2.21052 4.04887 0
M  V30 7845 H 752.488 -2.01756 3.84027 0
M  V30 7846 H 753.159 -3.6179 4.16907 0
M  V30 7847 H 755.635 -3.50301 2.24562 0
M  V30 7848 H 754.511 -4.84555 2.57872 0
M  V30 7849 H 754.772 -4.32382 0.921865 0
M  V30 7850 N 753.831 -1.1567 -1.07043 0
M  V30 7851 C 754.794 -0.858906 -2.12498 0
M  V30 7852 C 755.794 0.142735 -1.60165 0
M  V30 7853 O 756.984 -0.0872678 -1.73981 0
M  V30 7854 C 754.116 -0.283021 -3.39723 0
M  V30 7855 H 755.309 -1.79368 -2.40348 0
M  V30 7856 H 752.862 -0.964608 -1.22984 0
M  V30 7857 H 753.597 0.659796 -3.17517 0
M  V30 7858 H 753.382 -1.00467 -3.7901 0
M  V30 7859 H 754.872 -0.0923543 -4.17498 0
M  V30 7860 N 755.309 1.25446 -0.953992 0
M  V30 7861 C 756.534 1.97755 -0.625129 0
M  V30 7862 C 756.959 1.70437 0.795787 0
M  V30 7863 O 756.317 0.95992 1.53803 0
M  V30 7864 C 756.365 3.49463 -0.889251 0
M  V30 7865 O 755.469 4.12387 0.0322757 0
M  V30 7866 H 754.81 0.61998 -0.237742 0
M  V30 7867 H 757.34 1.59582 -1.28041 0
M  V30 7868 H 757.35 3.99772 -0.815263 0
M  V30 7869 H 756.025 3.68676 -1.92487 0
M  V30 7870 H 754.602 3.72782 -0.0938625 0
M  V30 7871 N 756.787 0.722489 1.40064 0
M  V30 7872 C 758.034 0.264979 2.00759 0
M  V30 7873 C 758.362 -1.14395 1.57302 0
M  V30 7874 O 757.617 -1.79165 0.787298 0
M  V30 7875 C 757.916 0.300682 3.56133 0
M  V30 7876 C 757.582 1.66087 4.19197 0
M  V30 7877 C 756.244 2.03319 4.36136 0
M  V30 7878 C 758.596 2.55452 4.54306 0
M  V30 7879 C 755.924 3.29448 4.8547 0
M  V30 7880 C 758.276 3.8094 5.05042 0
M  V30 7881 C 756.94 4.1828 5.2019 0
M  V30 7882 H 756.21 0.0969625 0.734629 0
M  V30 7883 H 758.857 0.926877 1.67575 0
M  V30 7884 H 757.162 -0.44479 3.89267 0
M  V30 7885 H 758.859 -0.0712542 4.00937 0
M  V30 7886 H 755.449 1.36137 4.06405 0
M  V30 7887 H 759.633 2.27961 4.40849 0
M  V30 7888 H 754.889 3.58338 4.95382 0
M  V30 7889 H 759.063 4.50351 5.31184 0
M  V30 7890 H 756.69 5.16081 5.58179 0
M  V30 7891 N 758.265 -1.50454 0.469181 0
M  V30 7892 C 759.493 -2.06729 -0.0842134 0
M  V30 7893 C 759.908 -1.33326 -1.33677 0
M  V30 7894 O 759.265 -0.401977 -1.78018 0
M  V30 7895 C 759.316 -3.59557 -0.374253 0
M  V30 7896 O 759.037 -4.30192 0.828622 0
M  V30 7897 C 760.538 -4.32449 -0.974824 0
M  V30 7898 H 757.758 -0.670971 0.006231 0
M  V30 7899 H 760.302 -1.93645 0.657415 0
M  V30 7900 H 758.457 -3.7245 -1.06581 0
M  V30 7901 H 758.871 -5.21371 0.572066 0
M  V30 7902 H 760.345 -5.40361 -1.12755 0
M  V30 7903 H 760.822 -3.92819 -1.96442 0
M  V30 7904 H 761.428 -4.24082 -0.321703 0
M  V30 7905 N 759.743 -0.201713 -1.56304 0
M  V30 7906 C 760.673 0.71155 -2.22394 0
M  V30 7907 C 761.654 1.21625 -1.18917 0
M  V30 7908 O 762.839 1.26388 -1.47444 0
M  V30 7909 C 759.969 1.92837 -2.88845 0
M  V30 7910 C 758.923 1.55831 -3.98623 0
M  V30 7911 C 758.249 2.85228 -4.52271 0
M  V30 7912 C 759.549 0.763249 -5.16693 0
M  V30 7913 H 761.243 0.160573 -2.98969 0
M  V30 7914 H 758.789 0.0757916 -1.438 0
M  V30 7915 H 760.742 2.57253 -3.33764 0
M  V30 7916 H 759.466 2.50398 -2.09686 0
M  V30 7917 H 758.125 0.9377 -3.54405 0
M  V30 7918 H 757.773 3.40893 -3.69866 0
M  V30 7919 H 757.473 2.6121 -5.26349 0
M  V30 7920 H 758.997 3.50622 -4.99897 0
M  V30 7921 H 760.411 1.31066 -5.58117 0
M  V30 7922 H 758.808 0.620935 -5.96879 0
M  V30 7923 H 759.878 -0.234322 -4.84334 0
M  V30 7924 N 761.222 1.57436 0.0718424 0
M  V30 7925 C 762.185 2.02703 1.06977 0
M  V30 7926 C 763.185 0.924062 1.31597 0
M  V30 7927 O 764.375 1.18894 1.27318 0
M  V30 7928 C 761.507 2.40763 2.41342 0
M  V30 7929 H 762.7 2.92098 0.679619 0
M  V30 7930 H 760.253 1.5304 0.317565 0
M  V30 7931 H 760.988 1.54394 2.8519 0
M  V30 7932 H 760.773 3.21249 2.24814 0
M  V30 7933 H 762.263 2.76361 3.13073 0
M  V30 7934 N 762.7 -0.34323 1.53817 0
M  V30 7935 C 764.111 -0.918823 1.62525 0
M  V30 7936 C 764.462 -1.89542 0.506765 0
M  V30 7937 O 763.587 -2.13326 -0.363441 0
M  V30 7938 C 764.182 -1.67326 2.94597 0
M  V30 7939 C 762.741 -2.19786 3.05567 0
M  V30 7940 C 761.888 -1.01708 2.57974 0
M  V30 7941 H 764.839 -0.121358 1.58235 0
M  V30 7942 H 764.86 -2.53615 2.83654 0
M  V30 7943 H 764.372 -0.962223 3.75983 0
M  V30 7944 H 762.473 -2.94065 2.28816 0
M  V30 7945 H 762.586 -2.46135 4.1104 0
M  V30 7946 H 760.95 -1.39058 2.13389 0
M  V30 7947 H 761.733 -0.320671 3.41799 0
M  V30 7948 N 764.178 -1.45556 -0.604258 0
M  V30 7949 C 765.426 -1.4945 -1.36048 0
M  V30 7950 C 765.747 -0.138933 -1.94504 0
M  V30 7951 O 765.017 0.832097 -1.7735 0
M  V30 7952 H 763.597 -0.550381 -0.505064 0
M  V30 7953 H 766.259 -1.81535 -0.709308 0
M  V30 7954 H 765.355 -2.23519 -2.17821 0
M  V30 7955 N 765.656 0.84705 -1.32902 0
M  V30 7956 C 766.619 1.9378 -1.224 0
M  V30 7957 C 767.619 1.60144 -0.145108 0
M  V30 7958 O 768.809 1.69638 -0.396058 0
M  V30 7959 C 765.941 3.29234 -0.884174 0
M  V30 7960 H 767.134 2.04518 -2.19345 0
M  V30 7961 H 764.687 1.03816 -1.16842 0
M  V30 7962 H 765.422 3.24193 0.0831277 0
M  V30 7963 H 765.207 3.55026 -1.6643 0
M  V30 7964 H 766.697 4.09162 -0.835226 0
M  V30 7965 N 767.134 1.16236 1.06428 0
M  V30 7966 C 768.38 0.944431 1.79467 0
M  V30 7967 C 768.713 -0.526558 1.86925 0
M  V30 7968 O 767.988 -1.39061 1.35986 0
M  V30 7969 C 768.271 1.57092 3.24028 0
M  V30 7970 C 768.124 3.11315 3.24658 0
M  V30 7971 C 769.443 1.26447 4.21544 0
M  V30 7972 H 766.562 0.344521 0.651517 0
M  V30 7973 H 769.204 1.43545 1.24478 0
M  V30 7974 H 767.354 1.15337 3.70985 0
M  V30 7975 H 769.026 3.62042 2.85873 0
M  V30 7976 H 767.269 3.44716 2.6335 0
M  V30 7977 H 767.94 3.50269 4.26633 0
M  V30 7978 H 770.416 1.62581 3.83023 0
M  V30 7979 H 769.292 1.72885 5.20963 0
M  V30 7980 H 769.553 0.183068 4.41721 0
M  V30 7981 N 768.612 -1.24939 0.960631 0
M  V30 7982 C 769.837 -1.9742 0.635608 0
M  V30 7983 C 770.262 -1.70857 -0.786737 0
M  V30 7984 O 769.62 -0.968063 -1.53291 0
M  V30 7985 C 769.668 -3.48987 0.907771 0
M  V30 7986 O 768.772 -4.12399 -0.0104053 0
M  V30 7987 H 768.113 -0.61871 0.241027 0
M  V30 7988 H 770.643 -1.58901 1.28886 0
M  V30 7989 H 770.653 -3.99334 0.836453 0
M  V30 7990 H 769.328 -3.6765 1.94439 0
M  V30 7991 H 767.905 -3.72727 0.113631 0
M  V30 7992 N 770.09 -0.729906 -1.39679 0
M  V30 7993 C 771.336 -0.27603 -2.00913 0
M  V30 7994 C 771.669 1.13227 -1.57776 0
M  V30 7995 O 770.944 1.7709 -0.804319 0
M  V30 7996 C 771.227 -0.372157 -3.58172 0
M  V30 7997 C 771.08 -1.81986 -4.11341 0
M  V30 7998 C 772.399 0.248378 -4.39399 0
M  V30 7999 H 769.518 -0.101773 -0.729939 0
M  V30 8000 H 772.16 -0.925104 -1.65957 0
M  V30 8001 H 770.31 0.180459 -3.88081 0
M  V30 8002 H 771.982 -2.42896 -3.92172 0
M  V30 8003 H 770.225 -2.34287 -3.65092 0
M  V30 8004 H 770.896 -1.83842 -5.20486 0
M  V30 8005 H 773.372 -0.222645 -4.15504 0
M  V30 8006 H 772.248 0.150746 -5.48693 0
M  V30 8007 H 772.509 1.33378 -4.21501 0
M  V30 8008 N 771.568 1.50203 -0.477153 0
M  V30 8009 C 772.814 2.03286 0.0679442 0
M  V30 8010 C 773.169 1.35227 1.36863 0
M  V30 8011 O 772.462 0.471029 1.8572 0
M  V30 8012 C 772.656 3.56127 0.301325 0
M  V30 8013 C 772.485 4.38999 -0.975188 0
M  V30 8014 C 771.255 4.81889 -1.52022 0
M  V30 8015 C 773.453 4.79013 -1.8722 0
M  V30 8016 N 771.435 5.49105 -2.74513 0
M  V30 8017 C 772.806 5.45701 -2.94296 0
M  V30 8018 C 774.861 4.60967 -1.88185 0
M  V30 8019 C 773.564 5.96255 -4.02333 0
M  V30 8020 C 775.59 5.12466 -2.95183 0
M  V30 8021 C 774.952 5.79134 -4.00977 0
M  V30 8022 H 771.051 0.78185 -0.015318 0
M  V30 8023 H 773.635 1.83646 -0.64671 0
M  V30 8024 H 771.806 3.75702 0.985021 0
M  V30 8025 H 773.538 3.95859 0.841304 0
M  V30 8026 H 770.293 4.61387 -1.06858 0
M  V30 8027 H 770.717 5.87315 -3.36734 0
M  V30 8028 H 775.359 4.0885 -1.07708 0
M  V30 8029 H 773.077 6.47406 -4.83623 0
M  V30 8030 H 776.663 5.00329 -2.96921 0
M  V30 8031 H 775.543 6.18265 -4.82409 0
M  V30 8032 N 773.046 0.209999 1.56195 0
M  V30 8033 C 773.978 -0.736967 2.17029 0
M  V30 8034 C 774.991 -1.16599 1.13616 0
M  V30 8035 O 776.18 -1.09914 1.40646 0
M  V30 8036 C 773.28 -2.00852 2.72969 0
M  V30 8037 C 772.453 -1.73691 4.01435 0
M  V30 8038 C 771.512 -2.85439 4.42053 0
M  V30 8039 O 770.538 -2.54405 5.09183 0
M  V30 8040 N 771.74 -4.14135 4.06783 0
M  V30 8041 H 774.505 -0.216656 2.98916 0
M  V30 8042 H 772.066 0.0285672 1.61875 0
M  V30 8043 H 774.058 -2.74778 2.97118 0
M  V30 8044 H 772.628 -2.43963 1.95451 0
M  V30 8045 H 771.848 -0.834676 3.85262 0
M  V30 8046 H 773.136 -1.52961 4.85263 0
M  V30 8047 H 772.534 -4.42196 3.52816 0
M  V30 8048 H 771.091 -4.84642 4.35851 0
M  V30 8049 N 774.524 -1.57472 -0.0634922 0
M  V30 8050 C 775.754 -1.91608 -0.772645 0
M  V30 8051 C 776.162 -0.805019 -1.71219 0
M  V30 8052 O 775.505 0.229941 -1.82255 0
M  V30 8053 C 775.567 -3.21281 -1.61304 0
M  V30 8054 C 775.231 -4.49177 -0.841973 0
M  V30 8055 C 776.228 -5.19661 -0.157494 0
M  V30 8056 C 773.913 -4.9578 -0.80669 0
M  V30 8057 C 775.907 -6.35006 0.551948 0
M  V30 8058 C 773.594 -6.11028 -0.0934812 0
M  V30 8059 C 774.592 -6.80493 0.58463 0
M  V30 8060 O 774.28 -7.93542 1.28633 0
M  V30 8061 H 774.012 -0.637685 -0.224352 0
M  V30 8062 H 776.566 -2.05369 -0.0355279 0
M  V30 8063 H 774.796 -3.03752 -2.39315 0
M  V30 8064 H 776.485 -3.41003 -2.20162 0
M  V30 8065 H 777.251 -4.84681 -0.176006 0
M  V30 8066 H 773.13 -4.41579 -1.32397 0
M  V30 8067 H 776.674 -6.89161 1.0818 0
M  V30 8068 H 772.571 -6.45459 -0.0729258 0
M  V30 8069 H 773.339 -8.09708 1.19646 0
M  V30 8070 N 776.003 0.335068 -1.53997 0
M  V30 8071 C 777.228 1.09859 -1.75914 0
M  V30 8072 C 777.653 1.81308 -0.500915 0
M  V30 8073 O 777.011 1.72854 0.54693 0
M  V30 8074 C 777.059 2.08122 -2.94478 0
M  V30 8075 O 776.163 3.15805 -2.65219 0
M  V30 8076 H 775.504 0.317313 -0.583274 0
M  V30 8077 H 778.034 0.382872 -2.00986 0
M  V30 8078 H 778.044 2.51195 -3.21504 0
M  V30 8079 H 776.719 1.55517 -3.8573 0
M  V30 8080 H 775.296 2.77489 -2.49107 0
M  V30 8081 N 777.481 1.45874 0.596531 0
M  V30 8082 C 778.709 1.54013 1.38158 0
M  V30 8083 C 779.124 0.17648 1.87973 0
M  V30 8084 O 778.481 -0.823895 1.62844 0
M  V30 8085 C 778.532 2.53363 2.57855 0
M  V30 8086 O 778.253 3.8443 2.10108 0
M  V30 8087 C 779.754 2.71308 3.50581 0
M  V30 8088 H 776.974 0.521251 0.422538 0
M  V30 8089 H 779.518 1.9116 0.726493 0
M  V30 8090 H 777.673 2.19257 3.19382 0
M  V30 8091 H 778.087 4.38384 2.87958 0
M  V30 8092 H 779.561 3.44776 4.31084 0
M  V30 8093 H 780.038 1.77728 4.01633 0
M  V30 8094 H 780.644 3.06455 2.94899 0
M  V30 8095 N 778.959 -0.83999 1.33349 0
M  V30 8096 C 780.184 -1.63249 1.27924 0
M  V30 8097 C 780.609 -1.87523 -0.147193 0
M  V30 8098 O 779.967 -1.43853 -1.10345 0
M  V30 8099 C 780.015 -2.96046 2.05886 0
M  V30 8100 O 779.119 -3.87303 1.4167 0
M  V30 8101 H 778.46 -0.49715 0.440157 0
M  V30 8102 H 780.99 -1.04512 1.75893 0
M  V30 8103 H 781 -3.45752 2.16609 0
M  V30 8104 H 779.675 -2.77701 3.09605 0
M  V30 8105 H 778.252 -3.45789 1.39585 0
M  V30 8106 N 780.437 -1.16799 -1.0581 0
M  V30 8107 C 781.4 -0.881396 -2.11575 0
M  V30 8108 C 782.4 0.12574 -1.60308 0
M  V30 8109 O 783.59 -0.105716 -1.73879 0
M  V30 8110 C 780.722 -0.319037 -3.39404 0
M  V30 8111 H 781.915 -1.81907 -2.38432 0
M  V30 8112 H 779.468 -0.977597 -1.21954 0
M  V30 8113 H 780.203 0.626082 -3.18199 0
M  V30 8114 H 779.988 -1.04481 -3.77923 0
M  V30 8115 H 781.478 -0.13663 -4.17376 0
M  V30 8116 N 781.915 1.24427 -0.967243 0
M  V30 8117 C 783.14 1.9708 -0.646069 0
M  V30 8118 C 783.565 1.71272 0.777665 0
M  V30 8119 O 782.923 0.976179 1.52776 0
M  V30 8120 C 782.971 3.48501 -0.926266 0
M  V30 8121 O 782.075 4.12398 -0.0114653 0
M  V30 8122 H 781.416 0.617423 -0.244304 0
M  V30 8123 H 783.946 1.58215 -1.29727 0
M  V30 8124 H 783.956 3.98885 -0.857619 0
M  V30 8125 H 782.631 3.66613 -1.96386 0
M  V30 8126 H 781.208 3.72661 -0.133396 0
M  V30 8127 N 783.393 0.737304 1.3929 0
M  V30 8128 C 784.356 0.10731 2.28949 0
M  V30 8129 C 785.356 -0.664716 1.46418 0
M  V30 8130 O 786.546 -0.493392 1.67067 0
M  V30 8131 C 783.678 -0.857145 3.29948 0
M  V30 8132 H 784.871 0.89725 2.86163 0
M  V30 8133 H 782.424 0.503279 1.47976 0
M  V30 8134 H 783.159 -1.67336 2.77794 0
M  V30 8135 H 782.944 -0.306167 3.90903 0
M  V30 8136 H 784.434 -1.29444 3.97031 0
M  V30 8137 N 784.871 -1.49948 0.485112 0
M  V30 8138 C 786.282 -1.8667 0.0334041 0
M  V30 8139 C 786.633 -1.3988 -1.37579 0
M  V30 8140 O 785.758 -0.769788 -2.02245 0
M  V30 8141 C 786.353 -3.38757 0.0538426 0
M  V30 8142 C 784.912 -3.74839 -0.342453 0
M  V30 8143 C 784.059 -2.73894 0.433281 0
M  V30 8144 H 787.01 -1.42492 0.698699 0
M  V30 8145 H 787.031 -3.73132 -0.745146 0
M  V30 8146 H 786.543 -3.72782 1.07959 0
M  V30 8147 H 784.644 -3.46419 -1.37203 0
M  V30 8148 H 784.757 -4.79088 -0.0340503 0
M  V30 8149 H 783.121 -2.54441 -0.114849 0
M  V30 8150 H 783.904 -3.10763 1.45881 0
M  V30 8151 N 786.349 -0.21828 -1.56081 0
M  V30 8152 C 787.281 0.725447 -2.17416 0
M  V30 8153 C 788.294 1.15995 -1.14233 0
M  V30 8154 O 789.483 1.09166 -1.41227 0
M  V30 8155 C 786.583 1.99401 -2.7403 0
M  V30 8156 C 785.756 1.7156 -4.02351 0
M  V30 8157 C 784.815 2.8309 -4.43561 0
M  V30 8158 O 783.841 2.51701 -5.10525 0
M  V30 8159 N 785.043 4.11972 -4.08973 0
M  V30 8160 H 787.808 0.200801 -2.99027 0
M  V30 8161 H 785.369 -0.0371514 -1.61857 0
M  V30 8162 H 787.361 2.73198 -2.98571 0
M  V30 8163 H 785.931 2.42923 -1.96742 0
M  V30 8164 H 785.151 0.814233 -3.85699 0
M  V30 8165 H 786.439 1.50385 -4.86068 0
M  V30 8166 H 785.837 4.40319 -3.55156 0
M  V30 8167 H 784.394 4.82323 -4.38415 0
M  V30 8168 N 787.827 1.57504 0.0551401 0
M  V30 8169 C 789.076 1.87237 0.750009 0
M  V30 8170 C 789.389 0.813268 1.77891 0
M  V30 8171 O 790.595 0.99898 2.52453 0
M  V30 8172 C 789.051 3.32187 1.38491 0
M  V30 8173 C 788.659 4.46267 0.393707 0
M  V30 8174 C 790.403 3.71101 2.06117 0
M  V30 8175 C 788.31 5.82265 1.03547 0
M  V30 8176 H 787.24 0.698524 0.283866 0
M  V30 8177 H 789.891 1.835 0.00365997 0
M  V30 8178 H 788.273 3.30588 2.18008 0
M  V30 8179 H 789.447 4.59289 -0.372865 0
M  V30 8180 H 787.762 4.16015 -0.17902 0
M  V30 8181 H 790.359 4.70012 2.54937 0
M  V30 8182 H 790.702 3.01751 2.86796 0
M  V30 8183 H 791.235 3.74762 1.33409 0
M  V30 8184 H 787.974 6.54949 0.268644 0
M  V30 8185 H 787.494 5.73012 1.7725 0
M  V30 8186 H 789.173 6.28148 1.55047 0
M  V30 8187 N 789.305 -0.326896 1.54172 0
M  V30 8188 C 790.553 -1.06313 1.71878 0
M  V30 8189 C 790.874 -1.88652 0.493498 0
M  V30 8190 O 790.144 -1.89608 -0.492522 0
M  V30 8191 H 788.724 -0.39549 0.633716 0
M  V30 8192 H 791.386 -0.364139 1.91468 0
M  V30 8193 H 790.482 -1.73105 2.59694 0
M  V30 8194 N 790.784 -1.46188 -0.588786 0
M  V30 8195 C 792.009 -1.5498 -1.37826 0
M  V30 8196 C 792.434 -0.189498 -1.87143 0
M  V30 8197 O 791.792 0.829293 -1.61222 0
M  V30 8198 C 791.84 -2.55369 -2.54596 0
M  V30 8199 O 790.944 -2.08452 -3.55839 0
M  V30 8200 H 790.285 -0.521741 -0.41071 0
M  V30 8201 H 792.815 -1.91708 -0.714779 0
M  V30 8202 H 792.825 -2.74782 -3.01594 0
M  V30 8203 H 791.5 -3.54155 -2.18052 0
M  V30 8204 H 790.077 -1.98999 -3.15363 0
M  V30 8205 N 792.262 0.832906 -1.33792 0
M  V30 8206 C 793.508 1.59089 -1.25772 0
M  V30 8207 C 793.841 1.93414 0.174601 0
M  V30 8208 O 793.116 1.59195 1.11746 0
M  V30 8209 C 793.399 2.89699 -2.13885 0
M  V30 8210 C 793.252 2.62017 -3.65605 0
M  V30 8211 C 794.571 3.91182 -2.01654 0
M  V30 8212 H 791.69 0.577232 -0.458227 0
M  V30 8213 H 794.332 0.960227 -1.6395 0
M  V30 8214 H 792.482 3.4352 -1.81456 0
M  V30 8215 H 794.154 2.14582 -4.08353 0
M  V30 8216 H 792.397 1.95621 -3.87189 0
M  V30 8217 H 793.068 3.55112 -4.2261 0
M  V30 8218 H 795.544 3.46684 -2.30107 0
M  V30 8219 H 794.42 4.80391 -2.65548 0
M  V30 8220 H 794.681 4.30861 -0.990536 0
M  V30 8221 N 793.74 1.17359 1.05189 0
M  V30 8222 C 794.703 0.892604 2.11105 0
M  V30 8223 C 795.703 -0.117236 1.60372 0
M  V30 8224 O 796.893 0.114936 1.7382 0
M  V30 8225 C 794.025 0.337032 3.3923 0
M  V30 8226 H 795.218 1.83169 2.37464 0
M  V30 8227 H 792.771 0.984051 1.21434 0
M  V30 8228 H 793.506 -0.609198 3.18527 0
M  V30 8229 H 793.291 1.06484 3.77364 0
M  V30 8230 H 794.781 0.158763 4.17298 0
M  V30 8231 N 795.218 -1.23913 0.973828 0
M  V30 8232 C 796.629 -1.73992 0.677021 0
M  V30 8233 C 796.98 -1.78833 -0.807036 0
M  V30 8234 O 796.105 -1.42183 -1.63135 0
M  V30 8235 C 796.7 -3.15985 1.22226 0
M  V30 8236 C 795.259 -3.63547 0.975228 0
M  V30 8237 C 794.406 -2.42001 1.35392 0
M  V30 8238 H 797.357 -1.09529 1.14844 0
M  V30 8239 H 797.378 -3.75875 0.591489 0
M  V30 8240 H 796.89 -3.12429 2.30238 0
M  V30 8241 H 794.991 -3.72493 -0.0891047 0
M  V30 8242 H 795.104 -4.50693 1.62518 0
M  V30 8243 H 793.468 -2.42708 0.772334 0
M  V30 8244 H 794.251 -2.41122 2.44367 0
M  V30 8245 N 796.696 -0.74468 -1.38897 0
M  V30 8246 C 797.644 -0.100312 -2.32384 0
M  V30 8247 C 798.638 0.715191 -1.53562 0
M  V30 8248 O 799.844 0.615288 -1.69157 0
M  V30 8249 H 796.219 -0.0136403 -0.751876 0
M  V30 8250 H 798.19 -0.905007 -2.84345 0
M  V30 8251 C 796.939 0.785432 -3.38713 0
M  V30 8252 H 796.262 0.167308 -3.9945 0
M  V30 8253 H 797.702 1.20374 -4.06554 0
M  V30 8254 C 796.161 1.92408 -2.76552 0
M  V30 8255 O 796.691 3.01752 -2.65157 0
M  V30 8256 N 794.897 1.71642 -2.34494 0
M  V30 8257 H 794.444 0.827079 -2.43961 0
M  V30 8258 H 794.402 2.48 -1.93244 0
M  V30 8259 N 798.174 1.49689 -0.493057 0
M  V30 8260 C 799.107 2.25712 0.336062 0
M  V30 8261 C 800.085 1.29953 0.977294 0
M  V30 8262 O 801.269 1.59225 1.00895 0
M  V30 8263 C 798.396 3.0501 1.47263 0
M  V30 8264 C 797.442 4.15863 0.946575 0
M  V30 8265 S 798.275 5.35272 -0.156323 0
M  V30 8266 C 799.431 6.18123 0.983601 0
M  V30 8267 H 799.664 2.95688 -0.309215 0
M  V30 8268 H 797.197 1.51872 -0.278238 0
M  V30 8269 H 799.155 3.51284 2.12391 0
M  V30 8270 H 797.816 2.34519 2.08949 0
M  V30 8271 H 797.009 4.70834 1.7981 0
M  V30 8272 H 796.611 3.72139 0.372647 0
M  V30 8273 H 798.903 6.50588 1.89056 0
M  V30 8274 H 799.846 7.06521 0.472687 0
M  V30 8275 H 800.254 5.50547 1.24735 0
M  V30 8276 N 799.652 0.226554 1.55963 0
M  V30 8277 C 800.9 -0.402991 1.98041 0
M  V30 8278 C 801.221 -1.59938 1.11557 0
M  V30 8279 O 800.491 -1.9494 0.193719 0
M  V30 8280 H 799.071 -0.15188 0.731397 0
M  V30 8281 H 801.733 0.320613 1.92245 0
M  V30 8282 H 800.829 -0.725937 3.0354 0
M  V30 8283 N 801.13 -1.57531 -0.0467866 0
M  V30 8284 C 802.379 -1.87632 -0.740069 0
M  V30 8285 C 802.692 -0.822691 -1.77457 0
M  V30 8286 O 803.898 -1.01235 -2.5192 0
M  V30 8287 C 802.354 -3.32917 -1.36727 0
M  V30 8288 C 801.962 -4.46469 -0.370035 0
M  V30 8289 C 803.706 -3.72189 -2.04146 0
M  V30 8290 C 801.613 -5.82806 -1.00457 0
M  V30 8291 H 800.543 -0.70002 -0.280158 0
M  V30 8292 H 803.194 -1.83499 0.00607151 0
M  V30 8293 H 801.576 -3.31739 -2.16252 0
M  V30 8294 H 802.75 -4.59085 0.397217 0
M  V30 8295 H 801.065 -4.15914 0.201079 0
M  V30 8296 H 803.662 -4.71357 -2.52441 0
M  V30 8297 H 804.005 -3.03268 -2.85192 0
M  V30 8298 H 804.538 -3.75465 -1.3142 0
M  V30 8299 H 801.277 -6.55083 -0.233907 0
M  V30 8300 H 800.797 -5.73944 -1.74209 0
M  V30 8301 H 802.476 -6.28961 -1.51713 0
M  V30 8302 N 802.608 0.318715 -1.54344 0
M  V30 8303 C 804.019 0.89285 -1.63967 0
M  V30 8304 C 804.37 1.88712 -0.536855 0
M  V30 8305 O 803.495 2.13877 0.329457 0
M  V30 8306 C 804.09 1.62618 -2.97222 0
M  V30 8307 C 802.649 2.14897 -3.09025 0
M  V30 8308 C 801.796 0.975909 -2.5956 0
M  V30 8309 H 804.747 0.0961687 -1.58408 0
M  V30 8310 H 804.768 2.4907 -2.87653 0
M  V30 8311 H 804.28 0.902286 -3.77466 0
M  V30 8312 H 802.381 2.90387 -2.33465 0
M  V30 8313 H 802.494 2.39565 -4.14904 0
M  V30 8314 H 800.858 1.35646 -2.15574 0
M  V30 8315 H 801.641 0.266253 -3.42266 0
M  V30 8316 N 804.086 1.46499 0.581025 0
M  V30 8317 C 805.334 1.51596 1.33653 0
M  V30 8318 C 805.655 0.169859 1.94259 0
M  V30 8319 O 804.925 -0.803776 1.78651 0
M  V30 8320 H 803.505 0.558346 0.496244 0
M  V30 8321 H 806.167 1.8264 0.680338 0
M  V30 8322 H 805.263 2.26956 2.14237 0
M  V30 8323 N 805.565 -0.825799 1.34232 0
M  V30 8324 C 806.513 -1.95792 1.25572 0
M  V30 8325 C 807.507 -1.68695 0.154404 0
M  V30 8326 O 808.713 -1.77147 0.319196 0
M  V30 8327 H 805.088 -0.642949 0.390027 0
M  V30 8328 H 807.059 -2.00219 2.21258 0
M  V30 8329 C 805.808 -3.32245 1.02511 0
M  V30 8330 H 805.131 -3.53642 1.86487 0
M  V30 8331 H 806.571 -4.1192 1.00487 0
M  V30 8332 C 805.03 -3.35803 -0.27167 0
M  V30 8333 O 805.56 -3.80962 -1.274 0
M  V30 8334 N 803.766 -2.89008 -0.303778 0
M  V30 8335 H 803.313 -2.52451 0.512464 0
M  V30 8336 H 803.271 -2.9177 -1.17121 0
M  V30 8337 N 807.043 -1.17915 -1.04565 0
M  V30 8338 C 808.289 -0.972863 -1.77942 0
M  V30 8339 C 808.622 0.496753 -1.87739 0
M  V30 8340 O 807.897 1.3688 -1.38181 0
M  V30 8341 C 808.18 -1.62227 -3.21488 0
M  V30 8342 C 808.033 -3.16441 -3.19664 0
M  V30 8343 C 809.352 -1.33137 -4.19479 0
M  V30 8344 H 806.471 -0.354843 -0.645953 0
M  V30 8345 H 809.113 -1.45508 -1.22178 0
M  V30 8346 H 807.263 -1.21224 -3.69103 0
M  V30 8347 H 808.935 -3.66544 -2.80077 0
M  V30 8348 H 807.178 -3.48863 -2.57832 0
M  V30 8349 H 807.849 -3.57012 -4.21006 0
M  V30 8350 H 810.325 -1.68654 -3.80388 0
M  V30 8351 H 809.201 -1.81151 -5.18146 0
M  V30 8352 H 809.462 -0.253319 -4.41374 0
M  V30 8353 N 808.521 1.23394 -0.980386 0
M  V30 8354 C 809.767 1.92094 -0.650223 0
M  V30 8355 C 810.1 1.76309 0.814173 0
M  V30 8356 O 809.375 1.12406 1.5873 0
M  V30 8357 C 809.658 3.44713 -1.04139 0
M  V30 8358 C 809.511 3.69606 -2.56342 0
M  V30 8359 C 810.83 4.36191 -0.585296 0
M  V30 8360 H 807.949 0.697618 -0.237695 0
M  V30 8361 H 810.591 1.45517 -1.22167 0
M  V30 8362 H 808.741 3.84513 -0.55515 0
M  V30 8363 H 810.413 3.39288 -3.1254 0
M  V30 8364 H 808.656 3.14318 -2.98976 0
M  V30 8365 H 809.327 4.76441 -2.78762 0
M  V30 8366 H 811.803 4.03836 -1.00276 0
M  V30 8367 H 810.679 5.41679 -0.887428 0
M  V30 8368 H 810.94 4.39097 0.51438 0
M  V30 8369 N 809.999 0.752036 1.385 0
M  V30 8370 C 811.227 0.318274 2.04437 0
M  V30 8371 C 811.642 -1.05285 1.56718 0
M  V30 8372 O 810.999 -1.66844 0.73956 0
M  V30 8373 C 811.05 0.330106 3.5999 0
M  V30 8374 O 810.771 1.64712 4.05957 0
M  V30 8375 C 812.272 -0.117713 4.43144 0
M  V30 8376 H 809.492 0.136228 0.657026 0
M  V30 8377 H 812.036 1.02045 1.7722 0
M  V30 8378 H 810.191 -0.323323 3.86048 0
M  V30 8379 H 810.605 1.57225 5.0038 0
M  V30 8380 H 812.079 -0.0582735 5.51969 0
M  V30 8381 H 812.556 -1.16538 4.23457 0
M  V30 8382 H 813.162 0.506784 4.2227 0
M  V30 8383 N 811.477 -1.49425 0.500989 0
M  V30 8384 C 812.726 -2.01649 -0.04538 0
M  V30 8385 C 813.039 -1.38572 -1.38047 0
M  V30 8386 O 814.245 -1.82124 -2.01353 0
M  V30 8387 C 812.701 -3.5966 -0.131337 0
M  V30 8388 C 812.309 -4.3171 1.19711 0
M  V30 8389 C 814.053 -4.19828 -0.628071 0
M  V30 8390 C 811.96 -5.81579 1.07332 0
M  V30 8391 H 810.89 -0.753715 -0.0207329 0
M  V30 8392 H 813.541 -1.71962 0.640407 0
M  V30 8393 H 811.923 -3.86063 -0.881574 0
M  V30 8394 H 813.097 -4.17008 1.96064 0
M  V30 8395 H 811.412 -3.83286 1.62729 0
M  V30 8396 H 814.009 -5.2958 -0.738198 0
M  V30 8397 H 814.352 -3.83194 -1.6269 0
M  V30 8398 H 814.885 -3.97746 0.0656314 0
M  V30 8399 H 811.624 -6.22738 2.04642 0
M  V30 8400 H 811.144 -5.98774 0.350679 0
M  V30 8401 H 812.823 -6.42614 0.752047 0
M  V30 8402 N 812.955 -0.234822 -1.55841 0
M  V30 8403 C 814.232 0.442961 -1.90518 0
M  V30 8404 C 814.612 1.76768 -1.15397 0
M  V30 8405 O 813.96 2.26928 -0.267534 0
M  V30 8406 C 814.17 0.622905 -3.43396 0
M  V30 8407 C 815.518 0.9243 -4.14417 0
M  V30 8408 O 816.542 0.709211 -3.49068 0
M  V30 8409 O 815.401 1.33323 -5.29988 0
M  V30 8410 H 812.495 0.236042 -0.792599 0
M  V30 8411 H 815.041 -0.277992 -1.67408 0
M  V30 8412 H 813.813 -0.310973 -3.90062 0
M  V30 8413 H 813.436 1.39485 -3.7233 0
M  V30 8414 N 814.433 1.57553 0.0384317 0
M  V30 8415 C 815.681 1.88468 0.729672 0
M  V30 8416 C 816.002 0.831302 1.76393 0
M  V30 8417 O 815.272 -0.13622 1.95426 0
M  V30 8418 H 813.852 0.695529 0.272485 0
M  V30 8419 H 816.514 1.94899 0.0066032 0
M  V30 8420 H 815.61 2.8705 1.22511 0
M  V30 8421 N 815.911 -0.310526 1.54511 0
M  V30 8422 C 816.858 -1.38264 1.84802 0
M  V30 8423 C 817.828 -1.50808 0.696141 0
M  V30 8424 O 819.013 -1.6582 0.943846 0
M  V30 8425 C 816.153 -2.74422 2.09252 0
M  V30 8426 C 815.266 -2.70405 3.36906 0
M  V30 8427 C 814.401 -3.98495 3.51248 0
M  V30 8428 C 813.44 -3.88836 4.72729 0
M  V30 8429 N 812.577 -5.08683 4.83928 0
M  V30 8430 H 817.417 -1.11732 2.76261 0
M  V30 8431 H 814.954 -0.540609 1.36806 0
M  V30 8432 H 816.912 -3.53593 2.21422 0
M  V30 8433 H 815.542 -2.99235 1.2107 0
M  V30 8434 H 814.594 -1.83151 3.33406 0
M  V30 8435 H 815.906 -2.59155 4.26193 0
M  V30 8436 H 815.06 -4.861 3.63031 0
M  V30 8437 H 813.799 -4.12567 2.60077 0
M  V30 8438 H 812.804 -2.99615 4.60989 0
M  V30 8439 H 814.029 -3.76318 5.65298 0
M  V30 8440 H 811.975 -5.23236 3.95677 0
M  V30 8441 H 811.892 -4.99819 5.67201 0
M  V30 8442 H 813.16 -5.97966 5.00057 0
M  V30 8443 N 817.389 -1.46805 -0.573248 0
M  V30 8444 C 818.637 -1.52302 -1.32847 0
M  V30 8445 C 818.958 -0.180159 -1.94166 0
M  V30 8446 O 818.228 0.794291 -1.79075 0
M  V30 8447 H 816.808 -0.56097 -0.493276 0
M  V30 8448 H 819.47 -1.82998 -0.670642 0
M  V30 8449 H 818.566 -2.28089 -2.13031 0
M  V30 8450 N 818.867 0.818669 -1.34668 0
M  V30 8451 C 820.114 1.57512 -1.27264 0
M  V30 8452 C 820.442 1.93871 0.156254 0
M  V30 8453 O 819.697 1.60582 1.11857 0
M  V30 8454 C 819.996 2.88245 -2.11304 0
M  V30 8455 C 819.662 2.71159 -3.60255 0
M  V30 8456 C 818.324 2.66207 -4.00858 0
M  V30 8457 C 820.676 2.54538 -4.54819 0
M  V30 8458 C 818.004 2.4256 -5.34211 0
M  V30 8459 C 820.356 2.32421 -5.88356 0
M  V30 8460 C 819.02 2.25884 -6.28118 0
M  V30 8461 H 818.29 0.576378 -0.465692 0
M  V30 8462 H 820.937 0.9469 -1.66451 0
M  V30 8463 H 819.242 3.55381 -1.64958 0
M  V30 8464 H 820.939 3.45869 -2.02919 0
M  V30 8465 H 817.529 2.75856 -3.28027 0
M  V30 8466 H 821.713 2.57384 -4.24343 0
M  V30 8467 H 816.969 2.35959 -5.64033 0
M  V30 8468 H 821.143 2.18548 -6.61218 0
M  V30 8469 H 818.77 2.07322 -7.31383 0
M  V30 8470 N 820.346 1.18468 1.03938 0
M  V30 8471 C 821.594 0.978895 1.76811 0
M  V30 8472 C 821.915 -0.49257 1.88676 0
M  V30 8473 O 821.185 -1.3572 1.41269 0
M  V30 8474 H 819.765 0.359201 0.654968 0
M  V30 8475 H 822.427 1.49173 1.25433 0
M  V30 8476 H 821.523 1.418 2.78027 0
M  V30 8477 N 821.824 -1.22873 0.986916 0
M  V30 8478 C 823.052 -1.95487 0.677663 0
M  V30 8479 C 823.467 -1.72978 -0.756572 0
M  V30 8480 O 822.824 -1.02517 -1.50985 0
M  V30 8481 C 822.875 -3.48337 0.966638 0
M  V30 8482 O 822.596 -3.70087 2.34451 0
M  V30 8483 C 824.097 -4.38142 0.674248 0
M  V30 8484 H 821.317 -0.622211 0.251185 0
M  V30 8485 H 823.861 -1.56187 1.32007 0
M  V30 8486 H 822.016 -3.85628 0.370137 0
M  V30 8487 H 822.43 -4.64332 2.43918 0
M  V30 8488 H 823.904 -5.44165 0.926759 0
M  V30 8489 H 824.381 -4.3745 -0.391728 0
M  V30 8490 H 824.987 -4.06469 1.25152 0
M  V30 8491 N 823.302 -0.75937 -1.38099 0
M  V30 8492 C 824.53 -0.329111 -2.04266 0
M  V30 8493 C 824.945 1.04453 -1.57274 0
M  V30 8494 O 824.302 1.66449 -0.748397 0
M  V30 8495 C 824.353 -0.349192 -3.5981 0
M  V30 8496 O 824.074 -1.66863 -4.05078 0
M  V30 8497 C 825.575 0.0942106 -4.432 0
M  V30 8498 H 822.795 -0.13971 -0.656294 0
M  V30 8499 H 825.339 -1.02984 -1.76677 0
M  V30 8500 H 823.494 0.302846 -3.86214 0
M  V30 8501 H 823.908 -1.59877 -4.9954 0
M  V30 8502 H 825.382 0.0290004 -5.51992 0
M  V30 8503 H 825.859 1.1429 -4.24069 0
M  V30 8504 H 826.465 -0.529171 -4.21995 0
M  V30 8505 N 824.78 1.49157 -0.508906 0
M  V30 8506 C 825.712 2.272 0.302115 0
M  V30 8507 C 826.725 1.3407 0.923529 0
M  V30 8508 O 827.914 1.5929 0.805532 0
M  V30 8509 C 825.014 3.06736 1.44105 0
M  V30 8510 C 824.187 4.27497 0.925477 0
M  V30 8511 C 823.246 4.89014 1.94297 0
M  V30 8512 O 822.272 5.48851 1.50834 0
M  V30 8513 N 823.474 4.7937 3.2739 0
M  V30 8514 H 826.239 2.97443 -0.367115 0
M  V30 8515 H 823.8 1.58248 -0.341933 0
M  V30 8516 H 825.792 3.44763 2.11944 0
M  V30 8517 H 824.362 2.3905 2.0143 0
M  V30 8518 H 823.582 3.94135 0.0717301 0
M  V30 8519 H 824.87 5.05714 0.55955 0
M  V30 8520 H 824.268 4.31869 3.65384 0
M  V30 8521 H 822.825 5.21559 3.90922 0
M  V30 8522 N 826.258 0.243083 1.55714 0
M  V30 8523 C 827.506 -0.381964 1.98458 0
M  V30 8524 C 827.827 -1.58745 1.13247 0
M  V30 8525 O 827.097 -1.94723 0.214384 0
M  V30 8526 H 825.677 -0.144114 0.732967 0
M  V30 8527 H 828.339 0.340985 1.91894 0
M  V30 8528 H 827.435 -0.693702 3.04293 0
M  V30 8529 N 827.736 -1.57571 -0.0300757 0
M  V30 8530 C 828.964 -1.93485 -0.732891 0
M  V30 8531 C 829.379 -0.842758 -1.68947 0
M  V30 8532 O 828.736 0.180904 -1.81601 0
M  V30 8533 C 828.787 -3.29328 -1.49082 0
M  V30 8534 O 828.508 -4.34341 -0.572639 0
M  V30 8535 C 830.009 -3.79517 -2.29088 0
M  V30 8536 H 827.229 -0.638588 -0.206026 0
M  V30 8537 H 829.773 -2.04496 0.0120966 0
M  V30 8538 H 827.928 -3.19716 -2.1877 0
M  V30 8539 H 828.342 -5.12748 -1.10406 0
M  V30 8540 H 829.816 -4.77081 -2.77665 0
M  V30 8541 H 830.293 -3.10659 -3.10464 0
M  V30 8542 H 830.899 -3.92208 -1.64477 0
M  V30 8543 N 829.214 0.302327 -1.54673 0
M  V30 8544 C 830.46 1.03924 -1.74149 0
M  V30 8545 C 830.793 1.86968 -0.525041 0
M  V30 8546 O 830.068 1.88538 0.477868 0
M  V30 8547 C 830.351 1.94633 -3.02969 0
M  V30 8548 C 830.204 1.14778 -4.34909 0
M  V30 8549 C 831.523 2.93826 -3.27649 0
M  V30 8550 H 828.642 0.376405 -0.633631 0
M  V30 8551 H 831.284 0.314007 -1.87387 0
M  V30 8552 H 829.434 2.56471 -2.91813 0
M  V30 8553 H 831.106 0.552363 -4.57981 0
M  V30 8554 H 829.349 0.450462 -4.31455 0
M  V30 8555 H 830.02 1.81495 -5.21309 0
M  V30 8556 H 832.496 2.42117 -3.38406 0
M  V30 8557 H 831.372 3.54462 -4.19104 0
M  V30 8558 H 831.633 3.67416 -2.45882 0
M  V30 8559 N 830.692 1.47107 0.565454 0
M  V30 8560 C 831.92 1.56909 1.3486 0
M  V30 8561 C 832.335 0.216312 1.87557 0
M  V30 8562 O 831.692 -0.789168 1.64555 0
M  V30 8563 C 831.743 2.58776 2.52423 0
M  V30 8564 O 831.464 3.888 2.01906 0
M  V30 8565 C 832.965 2.78683 3.44747 0
M  V30 8566 H 830.185 0.530096 0.411387 0
M  V30 8567 H 832.729 1.92658 0.685782 0
M  V30 8568 H 830.884 2.25983 3.1466 0
M  V30 8569 H 831.298 4.44393 2.78595 0
M  V30 8570 H 832.772 3.53842 4.23674 0
M  V30 8571 H 833.249 1.86208 3.97773 0
M  V30 8572 H 833.855 3.12641 2.88333 0
M  V30 8573 N 832.17 -0.811516 1.35101 0
M  V30 8574 C 833.417 -1.56835 1.28098 0
M  V30 8575 C 833.745 -1.93951 -0.14597 0
M  V30 8576 O 833 -1.61173 -1.11004 0
M  V30 8577 C 833.299 -2.87121 2.1283 0
M  V30 8578 C 832.965 -2.69245 3.61688 0
M  V30 8579 C 831.627 -2.64078 4.02264 0
M  V30 8580 C 833.979 -2.52122 4.56162 0
M  V30 8581 C 831.307 -2.39724 5.3549 0
M  V30 8582 C 833.659 -2.29298 5.89581 0
M  V30 8583 C 832.323 -2.2255 6.29307 0
M  V30 8584 H 831.593 -0.5739 0.468742 0
M  V30 8585 H 834.24 -0.93806 1.66951 0
M  V30 8586 H 832.545 -3.54502 1.66841 0
M  V30 8587 H 834.242 -3.44788 2.0475 0
M  V30 8588 H 830.832 -2.74112 3.29485 0
M  V30 8589 H 835.016 -2.5513 4.25702 0
M  V30 8590 H 830.272 -2.32965 5.65276 0
M  V30 8591 H 834.446 -2.15038 6.62368 0
M  V30 8592 H 832.073 -2.0344 7.32473 0
M  V30 8593 N 833.648 -1.19017 -1.03309 0
M  V30 8594 C 834.896 -0.988258 -1.76289 0
M  V30 8595 C 835.217 0.482557 -1.88935 0
M  V30 8596 O 834.487 1.34969 -1.41987 0
M  V30 8597 H 833.067 -0.36267 -0.653054 0
M  V30 8598 H 835.729 -1.49836 -1.2464 0
M  V30 8599 H 834.825 -1.43273 -2.77271 0
M  V30 8600 N 835.127 1.22348 -0.993418 0
M  V30 8601 C 836.375 1.90733 -0.668246 0
M  V30 8602 C 836.696 1.77732 0.802261 0
M  V30 8603 O 835.966 1.16486 1.57505 0
M  V30 8604 H 834.546 0.705966 -0.244174 0
M  V30 8605 H 837.208 1.48691 -1.26004 0
M  V30 8606 H 836.304 2.97883 -0.931239 0
M  V30 8607 N 836.605 0.766683 1.37694 0
M  V30 8608 C 837.851 0.329201 2.0011 0
M  V30 8609 C 838.184 -1.09004 1.60723 0
M  V30 8610 O 837.459 -1.74895 0.850989 0
M  V30 8611 C 837.742 0.466989 3.57059 0
M  V30 8612 C 837.595 1.92828 4.06371 0
M  V30 8613 C 838.914 -0.131792 4.39903 0
M  V30 8614 H 836.033 0.12109 0.726984 0
M  V30 8615 H 838.675 0.968779 1.63446 0
M  V30 8616 H 836.825 -0.0775023 3.88423 0
M  V30 8617 H 838.497 2.53208 3.85595 0
M  V30 8618 H 836.74 2.43884 3.58752 0
M  V30 8619 H 837.411 1.97577 5.15429 0
M  V30 8620 H 839.887 0.332731 4.14768 0
M  V30 8621 H 838.763 -0.005217 5.489 0
M  V30 8622 H 839.024 -1.22156 4.24889 0
M  V30 8623 N 838.083 -1.48885 0.516809 0
M  V30 8624 C 839.311 -2.06892 -0.0184017 0
M  V30 8625 C 839.726 -1.37511 -1.29368 0
M  V30 8626 O 839.083 -0.458409 -1.76649 0
M  V30 8627 C 839.134 -3.60566 -0.259673 0
M  V30 8628 O 838.855 -4.27338 0.965065 0
M  V30 8629 C 840.356 -4.35331 -0.836751 0
M  V30 8630 H 837.576 -0.670433 0.0275743 0
M  V30 8631 H 840.12 -1.91455 0.718689 0
M  V30 8632 H 838.275 -3.75653 -0.94678 0
M  V30 8633 H 838.689 -5.19287 0.737647 0
M  V30 8634 H 840.163 -5.43675 -0.955065 0
M  V30 8635 H 840.64 -3.9887 -1.83845 0
M  V30 8636 H 841.246 -4.2489 -0.186622 0
M  V30 8637 N 839.561 -0.251338 -1.55583 0
M  V30 8638 C 840.524 0.63305 -2.20284 0
M  V30 8639 C 841.524 1.09941 -1.17344 0
M  V30 8640 O 842.714 1.00341 -1.42399 0
M  V30 8641 C 839.846 1.8706 -2.84993 0
M  V30 8642 H 841.039 0.0684846 -2.99822 0
M  V30 8643 H 838.592 -0.00181653 -1.563 0
M  V30 8644 H 839.327 2.47629 -2.09405 0
M  V30 8645 H 839.112 1.54436 -3.60405 0
M  V30 8646 H 840.602 2.50004 -3.34496 0
M  V30 8647 N 841.039 1.57585 0.0217189 0
M  V30 8648 C 842.267 1.93871 0.722619 0
M  V30 8649 C 842.682 0.851706 1.68498 0
M  V30 8650 O 842.039 -0.17127 1.81695 0
M  V30 8651 C 842.09 3.30114 1.47333 0
M  V30 8652 O 841.811 4.34639 0.549597 0
M  V30 8653 C 843.312 3.80727 2.27072 0
M  V30 8654 H 840.532 0.639671 0.202637 0
M  V30 8655 H 843.076 2.04487 -0.0229414 0
M  V30 8656 H 841.231 3.20872 2.17071 0
M  V30 8657 H 841.645 5.13326 1.07686 0
M  V30 8658 H 843.119 4.78547 2.75131 0
M  V30 8659 H 843.596 3.12301 3.08812 0
M  V30 8660 H 844.202 3.93075 1.62395 0
M  V30 8661 N 842.517 -0.29412 1.54831 0
M  V30 8662 C 843.763 -1.02999 1.74697 0
M  V30 8663 C 844.096 -1.86687 0.534949 0
M  V30 8664 O 843.371 -1.88789 -0.467863 0
M  V30 8665 C 843.654 -1.93024 3.03996 0
M  V30 8666 C 843.507 -1.1247 4.35512 0
M  V30 8667 C 844.826 -2.92085 3.29203 0
M  V30 8668 H 841.945 -0.373039 0.635618 0
M  V30 8669 H 844.587 -0.304065 1.87551 0
M  V30 8670 H 842.737 -2.5492 2.93169 0
M  V30 8671 H 844.409 -0.528067 4.58268 0
M  V30 8672 H 842.652 -0.427574 4.31688 0
M  V30 8673 H 843.323 -1.78728 5.22265 0
M  V30 8674 H 845.799 -2.40319 3.39685 0
M  V30 8675 H 844.675 -3.52234 4.20978 0
M  V30 8676 H 844.936 -3.66107 2.47827 0
M  V30 8677 N 843.995 -1.47404 -0.557645 0
M  V30 8678 C 844.942 -1.59859 -1.66475 0
M  V30 8679 C 845.912 -0.441644 -1.60121 0
M  V30 8680 O 847.097 -0.661641 -1.78961 0
M  V30 8681 C 844.237 -1.61843 -3.04797 0
M  V30 8682 C 843.35 -2.8845 -3.2159 0
M  V30 8683 C 842.485 -2.81773 -4.50308 0
M  V30 8684 C 841.524 -4.03208 -4.60532 0
M  V30 8685 N 840.661 -3.94769 -5.80604 0
M  V30 8686 H 845.501 -2.54415 -1.55168 0
M  V30 8687 H 843.038 -1.26194 -0.755876 0
M  V30 8688 H 844.996 -1.60976 -3.84893 0
M  V30 8689 H 843.626 -0.707997 -3.1494 0
M  V30 8690 H 842.678 -2.99186 -2.34929 0
M  V30 8691 H 843.99 -3.78379 -3.25009 0
M  V30 8692 H 843.144 -2.79153 -5.38663 0
M  V30 8693 H 841.883 -1.89527 -4.49367 0
M  V30 8694 H 840.888 -4.06133 -3.70589 0
M  V30 8695 H 842.113 -4.9658 -4.63233 0
M  V30 8696 H 840.059 -3.05326 -5.80613 0
M  V30 8697 H 839.976 -4.78375 -5.854 0
M  V30 8698 H 841.244 -3.96165 -6.71322 0
M  V30 8699 N 845.473 0.80434 -1.35529 0
M  V30 8700 C 846.698 1.598 -1.32207 0
M  V30 8701 C 847.123 1.87848 0.0974226 0
M  V30 8702 O 846.481 1.46728 1.06492 0
M  V30 8703 C 846.529 2.90483 -2.13663 0
M  V30 8704 O 845.633 3.83411 -1.51888 0
M  V30 8705 H 844.974 0.485305 -0.453183 0
M  V30 8706 H 847.504 0.998119 -1.78602 0
M  V30 8707 H 847.514 3.39888 -2.257 0
M  V30 8708 H 846.189 2.69395 -3.16859 0
M  V30 8709 H 844.766 3.41967 -1.48704 0
M  V30 8710 N 846.951 1.19563 1.02676 0
M  V30 8711 C 848.197 1.01108 1.7649 0
M  V30 8712 C 848.552 -0.453152 1.86987 0
M  V30 8713 O 847.845 -1.33209 1.37717 0
M  V30 8714 C 848.039 1.61619 3.18769 0
M  V30 8715 C 847.868 3.13774 3.22142 0
M  V30 8716 C 846.638 3.82687 3.29968 0
M  V30 8717 C 848.836 4.11114 3.09014 0
M  V30 8718 N 846.818 5.2222 3.22737 0
M  V30 8719 C 848.189 5.37259 3.0944 0
M  V30 8720 C 850.244 4.02447 2.93157 0
M  V30 8721 C 848.947 6.55738 2.95636 0
M  V30 8722 C 850.973 5.20538 2.80703 0
M  V30 8723 C 850.335 6.45582 2.81785 0
M  V30 8724 H 846.434 0.424123 0.656996 0
M  V30 8725 H 849.018 1.5157 1.22207 0
M  V30 8726 H 847.189 1.13756 3.71368 0
M  V30 8727 H 848.921 1.36579 3.80957 0
M  V30 8728 H 845.676 3.3349 3.36275 0
M  V30 8729 H 846.1 5.95238 3.22523 0
M  V30 8730 H 850.742 3.0659 2.9114 0
M  V30 8731 H 848.46 7.51778 2.96403 0
M  V30 8732 H 852.046 5.15635 2.69466 0
M  V30 8733 H 850.926 7.35423 2.72254 0
M  V30 8734 N 848.429 -1.21819 0.999893 0
M  V30 8735 C 849.657 -1.94758 0.698359 0
M  V30 8736 C 850.072 -1.73771 -0.738183 0
M  V30 8737 O 849.429 -1.04113 -1.49889 0
M  V30 8738 C 849.48 -3.47292 1.00353 0
M  V30 8739 O 849.201 -3.67579 2.38363 0
M  V30 8740 C 850.702 -4.37403 0.72068 0
M  V30 8741 H 847.922 -0.619512 0.257771 0
M  V30 8742 H 850.466 -1.54778 1.33656 0
M  V30 8743 H 848.621 -3.85213 0.411018 0
M  V30 8744 H 849.035 -4.61719 2.48829 0
M  V30 8745 H 850.509 -5.43151 0.984422 0
M  V30 8746 H 850.986 -4.3784 -0.345309 0
M  V30 8747 H 851.592 -4.05119 1.29456 0
M  V30 8748 N 849.908 -0.773975 -1.37286 0
M  V30 8749 C 851.133 -0.349561 -2.04433 0
M  V30 8750 C 851.558 1.02082 -1.5799 0
M  V30 8751 O 850.916 1.65458 -0.741172 0
M  V30 8752 C 850.964 -0.404292 -3.58326 0
M  V30 8753 O 850.068 0.594447 -4.08093 0
M  V30 8754 H 849.409 -0.150959 -0.646612 0
M  V30 8755 H 851.939 -1.05079 -1.75555 0
M  V30 8756 H 851.949 -0.262378 -4.07155 0
M  V30 8757 H 850.624 -1.40403 -3.91484 0
M  V30 8758 H 849.201 0.415468 -3.70578 0
M  V30 8759 N 851.386 1.48609 -0.524698 0
M  V30 8760 C 852.334 2.31205 0.254398 0
M  V30 8761 C 853.328 1.40894 0.940491 0
M  V30 8762 O 854.534 1.57827 0.865478 0
M  V30 8763 H 850.909 0.745199 0.100907 0
M  V30 8764 H 852.88 2.94804 -0.461876 0
M  V30 8765 C 851.629 3.2282 1.2916 0
M  V30 8766 H 850.952 3.92255 0.773074 0
M  V30 8767 H 852.392 3.83508 1.80825 0
M  V30 8768 C 850.851 2.4406 2.32242 0
M  V30 8769 O 851.381 2.16163 3.3858 0
M  V30 8770 N 849.587 2.05651 2.05319 0
M  V30 8771 H 849.134 2.28539 1.18861 0
M  V30 8772 H 849.092 1.53265 2.74513 0
M  V30 8773 N 852.864 0.259585 1.55447 0
M  V30 8774 C 854.28 -0.094961 1.59317 0
M  V30 8775 C 854.48 -1.55884 1.2768 0
M  V30 8776 O 853.536 -2.30528 1.0302 0
M  V30 8777 C 854.849 0.265669 2.99524 0
M  V30 8778 C 856.397 0.211007 3.12288 0
M  V30 8779 C 856.872 0.545851 4.54736 0
M  V30 8780 N 858.363 0.496823 4.60528 0
M  V30 8781 C 859.098 0.728909 5.68748 0
M  V30 8782 N 858.594 1.02479 6.85179 0
M  V30 8783 N 860.387 0.658756 5.58226 0
M  V30 8784 H 852.538 1.2141 1.7428 0
M  V30 8785 H 854.801 0.489404 0.811904 0
M  V30 8786 H 854.507 1.28316 3.27457 0
M  V30 8787 H 854.381 -0.401089 3.75061 0
M  V30 8788 H 856.768 -0.797172 2.84129 0
M  V30 8789 H 856.849 0.911799 2.38998 0
M  V30 8790 H 856.493 1.55164 4.83618 0
M  V30 8791 H 856.423 -0.17656 5.26304 0
M  V30 8792 H 858.914 0.277376 3.76881 0
M  V30 8793 H 859.227 1.18897 7.63599 0
M  V30 8794 H 857.572 1.0624 6.86832 0
M  V30 8795 H 860.763 0.427553 4.66143 0
M  V30 8796 H 860.936 0.84302 6.42493 0
M  V30 8797 N 854.342 -1.57594 -0.0133615 0
M  V30 8798 C 855.591 -1.8916 -0.700103 0
M  V30 8799 C 855.904 -0.860147 -1.75673 0
M  V30 8800 O 857.11 -1.06556 -2.49716 0
M  V30 8801 C 855.566 -3.35742 -1.29635 0
M  V30 8802 C 855.174 -4.47154 -0.275249 0
M  V30 8803 C 856.918 -3.76436 -1.96205 0
M  V30 8804 C 854.825 -5.84805 -0.880726 0
M  V30 8805 H 853.755 -0.705805 -0.265247 0
M  V30 8806 H 856.406 -1.83445 0.044993 0
M  V30 8807 H 854.788 -3.36252 -2.09167 0
M  V30 8808 H 855.962 -4.58139 0.494506 0
M  V30 8809 H 854.277 -4.15394 0.289256 0
M  V30 8810 H 856.874 -4.76606 -2.42386 0
M  V30 8811 H 857.217 -3.09249 -2.78695 0
M  V30 8812 H 857.75 -3.78168 -1.23426 0
M  V30 8813 H 854.489 -6.55431 -0.0949013 0
M  V30 8814 H 854.009 -5.7751 -1.61995 0
M  V30 8815 H 855.688 -6.32038 -1.38338 0
M  V30 8816 N 855.82 0.285905 -1.54985 0
M  V30 8817 C 856.73 1.37534 -1.90057 0
M  V30 8818 C 857.746 1.54707 -0.796348 0
M  V30 8819 O 858.922 1.69082 -1.09423 0
M  V30 8820 C 855.987 2.7167 -2.15398 0
M  V30 8821 C 855.048 2.63354 -3.39033 0
M  V30 8822 C 854.281 3.91093 -3.63155 0
M  V30 8823 O 854.504 4.91169 -2.90015 0
M  V30 8824 O 853.438 3.92075 -4.56685 0
M  V30 8825 H 857.264 1.10791 -2.8277 0
M  V30 8826 H 854.849 0.483303 -1.41367 0
M  V30 8827 H 856.731 3.51006 -2.33179 0
M  V30 8828 H 855.406 2.98226 -1.25868 0
M  V30 8829 H 854.313 1.82438 -3.26599 0
M  V30 8830 H 855.646 2.41749 -4.2874 0
M  V30 8831 N 857.298 1.47698 0.54982 0
M  V30 8832 C 858.544 1.54931 1.30859 0
M  V30 8833 C 858.877 0.214021 1.93017 0
M  V30 8834 O 858.152 -0.778093 1.78258 0
M  V30 8835 C 858.435 2.67286 2.41309 0
M  V30 8836 C 858.288 4.10457 1.83971 0
M  V30 8837 C 859.607 2.75509 3.43195 0
M  V30 8838 H 856.726 0.56399 0.474431 0
M  V30 8839 H 859.368 1.79787 0.614541 0
M  V30 8840 H 857.518 2.46224 3.0051 0
M  V30 8841 H 859.19 4.42903 1.28974 0
M  V30 8842 H 857.433 4.18387 1.14606 0
M  V30 8843 H 858.104 4.84857 2.63851 0
M  V30 8844 H 860.58 2.94531 2.93923 0
M  V30 8845 H 859.456 3.55886 4.17895 0
M  V30 8846 H 859.717 1.82863 4.02509 0
M  V30 8847 N 858.776 -0.797141 1.35954 0
M  V30 8848 C 860.006 -1.5835 1.32698 0
M  V30 8849 C 860.414 -1.88959 -0.0955298 0
M  V30 8850 O 859.757 -1.49987 -1.06064 0
M  V30 8851 C 859.819 -2.93529 2.0756 0
M  V30 8852 C 859.483 -2.85688 3.56695 0
M  V30 8853 C 860.48 -2.58467 4.51099 0
M  V30 8854 C 858.165 -3.04508 3.99475 0
M  V30 8855 C 860.159 -2.50157 5.8626 0
M  V30 8856 C 857.846 -2.9582 5.34728 0
M  V30 8857 C 858.844 -2.68681 6.27933 0
M  V30 8858 O 858.532 -2.59973 7.60703 0
M  V30 8859 H 858.264 -0.49807 0.457059 0
M  V30 8860 H 860.818 -0.997889 1.79531 0
M  V30 8861 H 859.048 -3.54111 1.55378 0
M  V30 8862 H 860.737 -3.54744 1.9726 0
M  V30 8863 H 861.503 -2.43638 4.19363 0
M  V30 8864 H 857.382 -3.24641 3.27306 0
M  V30 8865 H 860.926 -2.28894 6.58979 0
M  V30 8866 H 856.823 -3.10211 5.66074 0
M  V30 8867 H 857.591 -2.75511 7.70737 0
M  V30 8868 N 860.254 -1.20106 -1.0204 0
M  V30 8869 C 861.5 -1.01039 -1.75838 0
M  V30 8870 C 861.833 0.456819 -1.88751 0
M  V30 8871 O 861.108 1.33919 -1.41053 0
M  V30 8872 C 861.391 -1.69009 -3.17975 0
M  V30 8873 C 861.244 -3.2315 -3.1288 0
M  V30 8874 C 862.563 -1.42005 -4.16561 0
M  V30 8875 H 859.682 -0.368465 -0.638281 0
M  V30 8876 H 862.324 -1.48066 -1.19064 0
M  V30 8877 H 860.474 -1.29026 -3.66449 0
M  V30 8878 H 862.146 -3.72402 -2.72239 0
M  V30 8879 H 860.389 -3.54253 -2.50374 0
M  V30 8880 H 861.06 -3.65862 -4.13339 0
M  V30 8881 H 863.536 -1.76685 -3.76725 0
M  V30 8882 H 862.412 -1.92101 -5.14187 0
M  V30 8883 H 862.673 -0.346884 -4.40737 0
M  V30 8884 N 861.732 1.21287 -1.00634 0
M  V30 8885 C 863.143 1.72136 -0.722914 0
M  V30 8886 C 863.494 1.8091 0.759338 0
M  V30 8887 O 862.619 1.46458 1.59308 0
M  V30 8888 C 863.214 3.12633 -1.30561 0
M  V30 8889 C 861.773 3.60833 -1.07127 0
M  V30 8890 C 860.92 2.38326 -1.4176 0
M  V30 8891 H 863.871 1.06445 -1.17708 0
M  V30 8892 H 863.892 3.74174 -0.690937 0
M  V30 8893 H 863.404 3.06215 -2.38441 0
M  V30 8894 H 861.505 3.72599 -0.00968671 0
M  V30 8895 H 861.618 4.46226 -1.74411 0
M  V30 8896 H 859.982 2.40575 -0.836412 0
M  V30 8897 H 860.765 2.34558 -2.50674 0
M  V30 8898 N 863.21 0.781244 1.36873 0
M  V30 8899 C 864.158 0.161889 2.32036 0
M  V30 8900 C 865.152 -0.674225 1.55405 0
M  V30 8901 O 866.358 -0.570223 1.70729 0
M  V30 8902 H 862.733 0.0335702 0.75125 0
M  V30 8903 H 864.704 0.980078 2.81846 0
M  V30 8904 C 863.453 -0.695352 3.40676 0
M  V30 8905 H 862.776 -0.0613425 3.99753 0
M  V30 8906 H 864.216 -1.09553 4.09602 0
M  V30 8907 C 862.675 -1.85008 2.81556 0
M  V30 8908 O 863.205 -2.94616 2.73065 0
M  V30 8909 N 861.411 -1.65364 2.38962 0
M  V30 8910 H 860.958 -0.762106 2.46068 0
M  V30 8911 H 860.916 -2.42789 1.99752 0
M  V30 8912 N 864.689 -1.48329 0.532571 0
M  V30 8913 C 865.622 -2.26524 -0.2761 0
M  V30 8914 C 866.6 -1.32498 -0.942496 0
M  V30 8915 O 867.784 -1.61844 -0.966376 0
M  V30 8916 C 864.911 -3.08808 -1.39124 0
M  V30 8917 C 863.957 -4.18227 -0.835984 0
M  V30 8918 S 864.79 -5.34669 0.298186 0
M  V30 8919 C 865.946 -6.20514 -0.81937 0
M  V30 8920 H 866.179 -2.94764 0.387502 0
M  V30 8921 H 863.712 -1.51081 0.318407 0
M  V30 8922 H 865.67 -3.56792 -2.03002 0
M  V30 8923 H 864.331 -2.39976 -2.02658 0
M  V30 8924 H 863.524 -4.75435 -1.67264 0
M  V30 8925 H 863.126 -3.72996 -0.27385 0
M  V30 8926 H 865.418 -6.55371 -1.7174 0
M  V30 8927 H 866.361 -7.07525 -0.285199 0
M  V30 8928 H 866.769 -5.5366 -1.10094 0
M  V30 8929 N 866.167 -0.267825 -1.55308 0
M  V30 8930 C 867.13 0.60965 -2.20943 0
M  V30 8931 C 868.13 1.0869 -1.18504 0
M  V30 8932 O 869.32 0.988248 -1.43455 0
M  V30 8933 C 866.452 1.84027 -2.86961 0
M  V30 8934 H 867.645 0.0366806 -2.99878 0
M  V30 8935 H 865.198 -0.0183941 -1.56289 0
M  V30 8936 H 865.933 2.45394 -2.1202 0
M  V30 8937 H 865.718 1.50605 -3.62023 0
M  V30 8938 H 867.208 2.46442 -3.37129 0
M  V30 8939 N 867.645 1.57599 0.00500368 0
M  V30 8940 C 868.608 2.07058 0.982832 0
M  V30 8941 C 869.608 0.979045 1.27559 0
M  V30 8942 O 870.798 1.24187 1.22161 0
M  V30 8943 C 867.93 2.50782 2.30914 0
M  V30 8944 H 869.123 2.94718 0.555119 0
M  V30 8945 H 866.676 1.54249 0.25237 0
M  V30 8946 H 867.411 1.66351 2.78385 0
M  V30 8947 H 867.196 3.30495 2.10987 0
M  V30 8948 H 868.686 2.89391 3.0107 0
M  V30 8949 N 869.123 -0.277682 1.55134 0
M  V30 8950 C 870.371 -1.00791 1.75173 0
M  V30 8951 C 870.692 -1.86987 0.553266 0
M  V30 8952 O 869.962 -1.91079 -0.43195 0
M  V30 8953 H 868.542 -0.375129 0.645978 0
M  V30 8954 H 871.204 -0.303041 1.9253 0
M  V30 8955 H 870.3 -1.64756 2.6507 0
M  V30 8956 N 870.601 -1.47988 -0.541979 0
M  V30 8957 C 871.531 -1.64503 -1.65713 0
M  V30 8958 C 872.512 -0.494116 -1.62765 0
M  V30 8959 O 873.697 -0.725256 -1.80149 0
M  V30 8960 C 870.827 -1.67337 -3.04328 0
M  V30 8961 C 869.781 -2.81809 -3.2213 0
M  V30 8962 C 869.107 -2.69724 -4.61685 0
M  V30 8963 C 870.407 -4.23241 -3.06046 0
M  V30 8964 H 872.101 -2.5786 -1.52147 0
M  V30 8965 H 869.647 -1.24094 -0.730529 0
M  V30 8966 H 871.6 -1.77481 -3.82202 0
M  V30 8967 H 870.324 -0.705514 -3.18889 0
M  V30 8968 H 868.983 -2.71201 -2.46669 0
M  V30 8969 H 868.631 -1.70934 -4.73065 0
M  V30 8970 H 868.331 -3.4653 -4.74543 0
M  V30 8971 H 869.855 -2.81818 -5.41674 0
M  V30 8972 H 871.269 -4.34746 -3.73723 0
M  V30 8973 H 869.666 -5.00952 -3.30405 0
M  V30 8974 H 870.736 -4.40543 -2.02609 0
M  V30 8975 N 872.079 0.78992 -1.36375 0
M  V30 8976 C 873.307 1.57873 -1.3373 0
M  V30 8977 C 873.722 1.88624 0.0815544 0
M  V30 8978 O 873.079 1.50085 1.03831 0
M  V30 8979 C 873.13 2.90003 -2.15825 0
M  V30 8980 O 872.851 2.60578 -3.5218 0
M  V30 8981 C 874.352 3.84309 -2.20955 0
M  V30 8982 H 871.572 0.489685 -0.458748 0
M  V30 8983 H 874.116 0.980436 -1.79465 0
M  V30 8984 H 872.271 3.46303 -1.73646 0
M  V30 8985 H 872.685 3.4506 -3.95011 0
M  V30 8986 H 874.159 4.74081 -2.82756 0
M  V30 8987 H 874.636 4.22121 -1.21287 0
M  V30 8988 H 875.242 3.33942 -2.63368 0
M  V30 8989 N 873.557 1.20646 1.01402 0
M  V30 8990 C 874.834 0.927176 1.72229 0
M  V30 8991 C 875.214 -0.563382 2.03443 0
M  V30 8992 O 874.562 -1.52576 1.70096 0
M  V30 8993 C 874.772 1.80285 2.98828 0
M  V30 8994 C 876.12 2.04624 3.72041 0
M  V30 8995 O 877.144 1.77559 3.0879 0
M  V30 8996 O 876.003 2.50347 4.85787 0
M  V30 8997 H 873.097 0.346891 0.75073 0
M  V30 8998 H 875.643 1.31532 1.07227 0
M  V30 8999 H 874.415 2.81204 2.72102 0
M  V30 9000 H 874.038 1.41495 3.71571 0
M  V30 9001 N 875.035 -1.20752 1.01276 0
M  V30 9002 C 876.281 -1.90302 0.700924 0
M  V30 9003 C 876.614 -1.78406 -0.767142 0
M  V30 9004 O 875.889 -1.16575 -1.55694 0
M  V30 9005 C 876.172 -3.41831 1.13242 0
M  V30 9006 C 876.025 -3.6268 2.66051 0
M  V30 9007 C 877.344 -4.34486 0.700738 0
M  V30 9008 H 874.463 -0.69107 0.256107 0
M  V30 9009 H 877.105 -1.42227 1.25982 0
M  V30 9010 H 875.255 -3.82906 0.656902 0
M  V30 9011 H 876.927 -3.30882 3.21426 0
M  V30 9012 H 875.17 -3.06281 3.07204 0
M  V30 9013 H 875.841 -4.68882 2.91296 0
M  V30 9014 H 878.317 -4.01036 1.10948 0
M  V30 9015 H 877.193 -5.39136 1.03073 0
M  V30 9016 H 877.454 -4.40307 -0.39778 0
M  V30 9017 N 876.513 -0.788492 -1.36457 0
M  V30 9018 C 877.46 -0.18435 -2.30063 0
M  V30 9019 C 878.43 0.67128 -1.51931 0
M  V30 9020 O 879.615 0.620152 -1.8044 0
M  V30 9021 C 876.755 0.675596 -3.38422 0
M  V30 9022 C 875.868 -0.198475 -4.31544 0
M  V30 9023 C 875.003 0.667757 -5.26986 0
M  V30 9024 C 874.042 -0.207825 -6.11747 0
M  V30 9025 N 873.179 0.617335 -6.99381 0
M  V30 9026 H 878.019 -0.988056 -2.81143 0
M  V30 9027 H 875.556 -0.498815 -1.38384 0
M  V30 9028 H 877.514 1.18916 -3.99894 0
M  V30 9029 H 876.144 1.44474 -2.88664 0
M  V30 9030 H 875.196 -0.829995 -3.71235 0
M  V30 9031 H 876.508 -0.873163 -4.91098 0
M  V30 9032 H 875.662 1.24716 -5.93743 0
M  V30 9033 H 874.401 1.37607 -4.67884 0
M  V30 9034 H 873.406 -0.799638 -5.43954 0
M  V30 9035 H 874.631 -0.913729 -6.72925 0
M  V30 9036 H 872.577 1.30996 -6.42788 0
M  V30 9037 H 872.494 0.000307255 -7.56 0
M  V30 9038 H 873.762 1.1806 -7.70508 0
M  V30 9039 N 877.991 1.48044 -0.54043 0
M  V30 9040 C 879.237 2.02797 -0.0101718 0
M  V30 9041 C 879.57 1.41565 1.32939 0
M  V30 9042 O 878.845 0.565139 1.86109 0
M  V30 9043 C 879.128 3.59959 0.100758 0
M  V30 9044 C 878.981 4.31654 -1.26471 0
M  V30 9045 C 880.3 4.32347 0.822455 0
M  V30 9046 H 877.419 0.736982 -0.00517052 0
M  V30 9047 H 880.061 1.76656 -0.69948 0
M  V30 9048 H 878.211 3.82363 0.687824 0
M  V30 9049 H 879.883 4.20639 -1.89369 0
M  V30 9050 H 878.126 3.92663 -1.84386 0
M  V30 9051 H 878.797 5.401 -1.13998 0
M  V30 9052 H 881.273 4.14835 0.324164 0
M  V30 9053 H 880.149 5.41978 0.868993 0
M  V30 9054 H 880.41 4.00369 1.87501 0
M  V30 9055 N 879.47 0.276058 1.55163 0
M  V30 9056 C 880.698 -0.343772 2.04024 0
M  V30 9057 C 881.113 -1.49397 1.15438 0
M  V30 9058 O 880.47 -1.81662 0.174692 0
M  V30 9059 C 880.521 -0.823885 3.51986 0
M  V30 9060 O 880.242 0.280507 4.37201 0
M  V30 9061 C 881.743 -1.51143 4.16738 0
M  V30 9062 H 878.963 -0.07828 0.666418 0
M  V30 9063 H 881.507 0.408427 2.0038 0
M  V30 9064 H 879.662 -1.52617 3.56071 0
M  V30 9065 H 880.076 -0.0887831 5.24425 0
M  V30 9066 H 881.55 -1.79878 5.2187 0
M  V30 9067 H 882.027 -2.44327 3.64967 0
M  V30 9068 H 882.633 -0.852975 4.16659 0
M  V30 9069 N 880.948 -1.576 0.00335426 0
M  V30 9070 C 881.911 -2.07576 -0.971838 0
M  V30 9071 C 882.911 -0.985796 -1.27038 0
M  V30 9072 O 884.101 -1.24833 -1.21501 0
M  V30 9073 C 881.233 -2.52003 -2.29581 0
M  V30 9074 H 882.426 -2.95008 -0.539481 0
M  V30 9075 H 879.979 -1.54381 -0.244186 0
M  V30 9076 H 880.714 -1.67825 -2.77498 0
M  V30 9077 H 880.499 -3.31609 -2.09231 0
M  V30 9078 H 881.989 -2.90983 -2.99531 0
M  V30 9079 N 882.426 0.269451 -1.5528 0
M  V30 9080 C 883.674 0.998604 -1.75705 0
M  V30 9081 C 883.995 1.86691 -0.563175 0
M  V30 9082 O 883.265 1.91305 0.421811 0
M  V30 9083 H 881.845 0.371698 -0.647958 0
M  V30 9084 H 884.507 0.292826 -1.92688 0
M  V30 9085 H 883.603 1.63348 -2.6594 0
M  V30 9086 N 883.904 1.48273 0.534124 0
M  V30 9087 C 885.152 1.55771 1.28762 0
M  V30 9088 C 885.473 0.231575 1.9362 0
M  V30 9089 O 884.743 -0.746533 1.81118 0
M  V30 9090 H 883.323 0.573851 0.47823 0
M  V30 9091 H 885.985 1.84712 0.621888 0
M  V30 9092 H 885.081 2.33657 2.06908 0
M  V30 9093 N 885.382 -0.782676 1.36792 0
M  V30 9094 C 886.628 -1.54311 1.3159 0
M  V30 9095 C 886.961 -1.93928 -0.102696 0
M  V30 9096 O 886.236 -1.63233 -1.05761 0
M  V30 9097 C 886.519 -2.81561 2.24489 0
M  V30 9098 C 886.372 -2.48268 3.75078 0
M  V30 9099 C 887.691 -3.83428 2.16034 0
M  V30 9100 H 884.81 -0.559828 0.479335 0
M  V30 9101 H 887.452 -0.898717 1.67401 0
M  V30 9102 H 885.602 -3.36549 1.9408 0
M  V30 9103 H 887.274 -1.99279 4.16036 0
M  V30 9104 H 885.517 -1.81116 3.94182 0
M  V30 9105 H 886.188 -3.39183 4.35499 0
M  V30 9106 H 888.664 -3.37905 2.42815 0
M  V30 9107 H 887.54 -4.70204 2.83194 0
M  V30 9108 H 887.801 -4.26887 1.14976 0
M  V30 9109 N 886.86 -1.21182 -1.00761 0
M  V30 9110 C 888.085 -1.05411 -1.78615 0
M  V30 9111 C 888.51 0.391837 -1.83973 0
M  V30 9112 O 887.868 1.28256 -1.28141 0
M  V30 9113 C 887.916 -1.65285 -3.20489 0
M  V30 9114 O 887.02 -0.896558 -4.02536 0
M  V30 9115 H 886.361 -0.37116 -0.550578 0
M  V30 9116 H 888.891 -1.60669 -1.26676 0
M  V30 9117 H 888.901 -1.69397 -3.71172 0
M  V30 9118 H 887.576 -2.70514 -3.15904 0
M  V30 9119 H 886.153 -0.930335 -3.61108 0
M  V30 9120 N 888.338 1.20213 -1.01915 0
M  V30 9121 C 889.563 1.94163 -0.729076 0
M  V30 9122 C 889.988 1.74416 0.704323 0
M  V30 9123 O 889.346 1.0401 1.48498 0
M  V30 9124 C 889.394 3.44258 -1.07324 0
M  V30 9125 O 888.498 4.11979 -0.186367 0
M  V30 9126 H 887.839 0.606506 -0.270272 0
M  V30 9127 H 890.369 1.52571 -1.3632 0
M  V30 9128 H 890.379 3.94888 -1.02603 0
M  V30 9129 H 889.054 3.57954 -2.11759 0
M  V30 9130 H 887.631 3.7176 -0.291334 0
M  V30 9131 N 889.816 0.795718 1.36037 0
M  V30 9132 C 890.764 0.18649 2.31851 0
M  V30 9133 C 891.758 -0.657704 1.56111 0
M  V30 9134 O 892.964 -0.552083 1.71324 0
M  V30 9135 H 889.339 0.0415363 0.750852 0
M  V30 9136 H 891.31 1.00992 2.8079 0
M  V30 9137 C 890.059 -0.65918 3.41394 0
M  V30 9138 H 889.382 -0.01894 3.99796 0
M  V30 9139 H 890.822 -1.05202 4.10741 0
M  V30 9140 C 889.281 -1.82011 2.83502 0
M  V30 9141 O 889.811 -2.91703 2.76174 0
M  V30 9142 N 888.017 -1.62821 2.40703 0
M  V30 9143 H 887.564 -0.735965 2.46863 0
M  V30 9144 H 887.522 -2.40657 2.02316 0
M  V30 9145 N 891.294 -1.47756 0.548274 0
M  V30 9146 C 892.224 -2.32702 -0.19284 0
M  V30 9147 C 893.205 -1.43237 -0.917457 0
M  V30 9148 O 894.39 -1.72103 -0.89967 0
M  V30 9149 C 891.52 -3.24831 -1.22891 0
M  V30 9150 C 890.474 -4.23466 -0.621312 0
M  V30 9151 C 889.8 -5.04856 -1.76137 0
M  V30 9152 C 891.1 -5.20616 0.419055 0
M  V30 9153 H 892.794 -2.94914 0.516323 0
M  V30 9154 H 890.34 -1.41818 0.24975 0
M  V30 9155 H 892.293 -3.83094 -1.75547 0
M  V30 9156 H 891.017 -2.60656 -1.9679 0
M  V30 9157 H 889.676 -3.66416 -0.116123 0
M  V30 9158 H 889.324 -4.37091 -2.48918 0
M  V30 9159 H 889.024 -5.71629 -1.36065 0
M  V30 9160 H 890.548 -5.65976 -2.29136 0
M  V30 9161 H 891.962 -5.73296 -0.0211034 0
M  V30 9162 H 890.359 -5.95543 0.738163 0
M  V30 9163 H 891.429 -4.66638 1.31822 0
M  V30 9164 N 892.772 -0.284283 -1.55015 0
M  V30 9165 C 894.002 0.332465 -2.03907 0
M  V30 9166 C 894.41 1.49331 -1.16177 0
M  V30 9167 O 893.753 1.82851 -0.176395 0
M  V30 9168 C 893.815 0.867193 -3.48884 0
M  V30 9169 C 893.479 -0.166198 -4.56698 0
M  V30 9170 C 894.476 -0.988898 -5.10408 0
M  V30 9171 C 892.161 -0.303081 -5.01385 0
M  V30 9172 C 894.155 -1.93458 -6.07333 0
M  V30 9173 C 891.842 -1.25223 -5.98133 0
M  V30 9174 C 892.84 -2.06647 -6.50988 0
M  V30 9175 O 892.528 -2.99955 -7.45843 0
M  V30 9176 H 892.26 0.0786597 -0.671408 0
M  V30 9177 H 894.814 -0.416871 -2.01125 0
M  V30 9178 H 893.044 1.66676 -3.48935 0
M  V30 9179 H 894.733 1.39802 -3.81065 0
M  V30 9180 H 895.499 -0.89393 -4.76691 0
M  V30 9181 H 891.378 0.320711 -4.59883 0
M  V30 9182 H 894.922 -2.57053 -6.48513 0
M  V30 9183 H 890.819 -1.34798 -6.31268 0
M  V30 9184 H 891.587 -2.94742 -7.6359 0
M  V30 9185 N 894.251 1.57596 -0.0117121 0
M  V30 9186 C 895.476 1.95764 0.684938 0
M  V30 9187 C 895.901 0.887285 1.65858 0
M  V30 9188 O 895.259 -0.153508 1.80649 0
M  V30 9189 C 895.307 3.33031 1.38285 0
M  V30 9190 O 894.411 3.28163 2.49765 0
M  V30 9191 H 893.752 0.638767 0.181309 0
M  V30 9192 H 896.282 2.04486 -0.0683883 0
M  V30 9193 H 896.292 3.68866 1.74362 0
M  V30 9194 H 894.967 4.10483 0.669043 0
M  V30 9195 H 893.544 3.04021 2.15929 0
M  V30 9196 N 895.729 -0.261212 1.5542 0
M  V30 9197 C 896.959 -1.00769 1.80358 0
M  V30 9198 C 897.367 -1.79991 0.583085 0
M  V30 9199 O 896.71 -1.77911 -0.457534 0
M  V30 9200 C 896.772 -2.00463 2.9842 0
M  V30 9201 C 896.436 -1.4007 4.35005 0
M  V30 9202 C 897.433 -0.810388 5.13545 0
M  V30 9203 C 895.118 -1.42436 4.81682 0
M  V30 9204 C 897.112 -0.251784 6.36903 0
M  V30 9205 C 894.799 -0.861897 6.04991 0
M  V30 9206 C 895.797 -0.276622 6.8244 0
M  V30 9207 O 895.485 0.277194 8.03422 0
M  V30 9208 H 895.217 -0.302839 0.604371 0
M  V30 9209 H 897.771 -0.293763 2.03288 0
M  V30 9210 H 896.001 -2.75648 2.71211 0
M  V30 9211 H 897.69 -2.61336 3.10577 0
M  V30 9212 H 898.456 -0.784719 4.7861 0
M  V30 9213 H 894.335 -1.8693 4.214 0
M  V30 9214 H 897.879 0.205678 6.97297 0
M  V30 9215 H 893.776 -0.884846 6.39407 0
M  V30 9216 H 894.544 0.167682 8.18328 0
M  V30 9217 N 897.207 -1.48554 -0.526253 0
M  V30 9218 C 898.155 -1.63804 -1.65139 0
M  V30 9219 C 899.149 -0.504398 -1.61716 0
M  V30 9220 O 900.355 -0.683241 -1.66529 0
M  V30 9221 H 896.73 -0.516071 -0.546969 0
M  V30 9222 H 898.701 -2.58294 -1.49421 0
M  V30 9223 C 897.45 -1.69843 -3.03395 0
M  V30 9224 H 896.773 -2.56438 -3.06724 0
M  V30 9225 H 898.213 -1.84555 -3.81727 0
M  V30 9226 C 896.672 -0.437875 -3.34042 0
M  V30 9227 O 897.202 0.447604 -3.99198 0
M  V30 9228 N 895.408 -0.308444 -2.88958 0
M  V30 9229 H 894.955 -1.02998 -2.36112 0
M  V30 9230 H 894.913 0.533952 -3.09833 0
M  V30 9231 N 898.685 0.775411 -1.37205 0
M  V30 9232 C 899.934 1.52909 -1.31536 0
M  V30 9233 C 900.247 1.9535 0.0989374 0
M  V30 9234 O 901.453 2.70072 0.278079 0
M  V30 9235 C 899.909 2.761 -2.30861 0
M  V30 9236 C 899.517 2.40773 -3.77799 0
M  V30 9237 C 901.261 3.54052 -2.34195 0
M  V30 9238 C 899.168 3.60444 -4.68865 0
M  V30 9239 H 898.098 0.574061 -0.488845 0
M  V30 9240 H 900.749 0.849642 -1.62645 0
M  V30 9241 H 899.131 3.45916 -1.92764 0
M  V30 9242 H 900.305 1.78764 -4.24712 0
M  V30 9243 H 898.62 1.76004 -3.77375 0
M  V30 9244 H 901.217 4.42992 -2.99437 0
M  V30 9245 H 901.56 3.93649 -1.35449 0
M  V30 9246 H 902.093 2.91229 -2.7098 0
M  V30 9247 H 898.832 3.25932 -5.68725 0
M  V30 9248 H 898.352 4.21571 -4.26659 0
M  V30 9249 H 900.031 4.27302 -4.85821 0
M  V30 9250 N 900.163 1.21714 1.00117 0
M  V30 9251 C 901.093 1.00397 2.10815 0
M  V30 9252 C 902.074 -0.0723502 1.69946 0
M  V30 9253 O 903.259 0.0882398 1.93999 0
M  V30 9254 C 900.389 0.572001 3.42557 0
M  V30 9255 C 899.343 1.59331 3.97237 0
M  V30 9256 C 898.669 1.01746 5.2493 0
M  V30 9257 C 899.969 2.98117 4.28863 0
M  V30 9258 H 901.663 1.92983 2.28906 0
M  V30 9259 H 899.209 0.929273 1.10002 0
M  V30 9260 H 901.162 0.410018 4.19401 0
M  V30 9261 H 899.886 -0.38951 3.24269 0
M  V30 9262 H 898.545 1.74293 3.22518 0
M  V30 9263 H 898.193 0.0475491 5.02978 0
M  V30 9264 H 897.893 1.69969 5.62481 0
M  V30 9265 H 899.417 0.866881 6.04415 0
M  V30 9266 H 900.831 2.86578 4.96534 0
M  V30 9267 H 899.228 3.63389 4.77565 0
M  V30 9268 H 900.298 3.48674 3.36979 0
M  V30 9269 N 901.641 -1.19671 1.02551 0
M  V30 9270 C 902.866 -1.93774 0.739363 0
M  V30 9271 C 903.291 -1.74787 -0.695064 0
M  V30 9272 O 902.649 -1.04796 -1.47944 0
M  V30 9273 C 902.697 -3.43684 1.09149 0
M  V30 9274 O 901.801 -4.11874 0.208213 0
M  V30 9275 H 901.142 -0.605064 0.273484 0
M  V30 9276 H 903.672 -1.51846 1.37128 0
M  V30 9277 H 903.682 -3.94339 1.04695 0
M  V30 9278 H 902.357 -3.56826 2.13654 0
M  V30 9279 H 900.934 -3.716 0.311045 0
M  V30 9280 N 903.119 -0.802921 -1.35613 0
M  V30 9281 C 904.367 -0.380822 -1.9848 0
M  V30 9282 C 904.688 1.05464 -1.6402 0
M  V30 9283 O 903.958 1.72908 -0.920854 0
M  V30 9284 H 902.538 -0.137824 -0.734176 0
M  V30 9285 H 905.2 -1.02795 -1.65587 0
M  V30 9286 H 904.296 -0.483565 -3.08331 0
M  V30 9287 N 904.597 1.47463 -0.556102 0
M  V30 9288 C 905.825 2.06868 -0.0364585 0
M  V30 9289 C 906.24 1.40893 1.25677 0
M  V30 9290 O 905.597 0.505083 1.75371 0
M  V30 9291 C 905.648 3.61128 0.163984 0
M  V30 9292 O 905.369 4.24629 -1.07803 0
M  V30 9293 C 906.87 4.37397 0.721036 0
M  V30 9294 H 904.09 0.669466 -0.0453399 0
M  V30 9295 H 906.634 1.89482 -0.769198 0
M  V30 9296 H 904.789 3.78031 0.84685 0
M  V30 9297 H 905.203 5.17149 -0.875067 0
M  V30 9298 H 906.677 5.46016 0.810584 0
M  V30 9299 H 907.154 4.03604 1.73206 0
M  V30 9300 H 907.76 4.25236 0.073904 0
M  V30 9301 N 906.075 0.2925 1.54862 0
M  V30 9302 C 907.007 -0.620889 2.2063 0
M  V30 9303 C 908.02 -1.10412 1.19637 0
M  V30 9304 O 909.209 -1.02304 1.46274 0
M  V30 9305 C 906.309 -1.861 2.83232 0
M  V30 9306 C 905.482 -1.52168 4.10078 0
M  V30 9307 C 904.541 -2.61605 4.56562 0
M  V30 9308 O 903.567 -2.27056 5.21952 0
M  V30 9309 N 904.769 -3.9199 4.28163 0
M  V30 9310 H 907.534 -0.0579028 2.99644 0
M  V30 9311 H 905.095 0.114333 1.61496 0
M  V30 9312 H 907.087 -2.58642 3.11266 0
M  V30 9313 H 905.657 -2.33259 2.08108 0
M  V30 9314 H 904.877 -0.629283 3.89145 0
M  V30 9315 H 906.165 -1.27023 4.92689 0
M  V30 9316 H 905.563 -4.22872 3.7576 0
M  V30 9317 H 904.12 -4.60857 4.60928 0
M  V30 9318 N 907.553 -1.57587 0.0200696 0
M  V30 9319 C 908.781 -1.95718 -0.670964 0
M  V30 9320 C 909.196 -0.896081 -1.6618 0
M  V30 9321 O 908.553 0.123037 -1.82085 0
M  V30 9322 C 908.604 -3.33904 -1.38529 0
M  V30 9323 O 908.325 -4.35943 -0.434167 0
M  V30 9324 C 909.826 -3.86614 -2.16898 0
M  V30 9325 H 907.046 -0.644819 -0.185606 0
M  V30 9326 H 909.59 -2.04354 0.0771495 0
M  V30 9327 H 907.745 -3.26515 -2.08487 0
M  V30 9328 H 908.159 -5.16001 -0.940378 0
M  V30 9329 H 909.633 -4.85673 -2.62346 0
M  V30 9330 H 910.11 -3.20379 -3.00423 0
M  V30 9331 H 910.716 -3.97243 -1.51916 0
M  V30 9332 N 909.032 0.252966 -1.55557 0
M  V30 9333 C 910.257 1.0038 -1.8149 0
M  V30 9334 C 910.682 1.78397 -0.596318 0
M  V30 9335 O 910.04 1.7551 0.454535 0
M  V30 9336 C 910.088 1.9222 -3.05096 0
M  V30 9337 O 909.192 3.01302 -2.81587 0
M  V30 9338 H 908.533 0.285949 -0.599274 0
M  V30 9339 H 911.063 0.275795 -2.02733 0
M  V30 9340 H 911.073 2.338 -3.34368 0
M  V30 9341 H 909.748 1.34852 -3.93431 0
M  V30 9342 H 908.325 2.63894 -2.63466 0
M  V30 9343 N 910.51 1.48831 0.518367 0
M  V30 9344 C 911.756 1.57672 1.27543 0
M  V30 9345 C 912.089 0.254915 1.9252 0
M  V30 9346 O 911.364 -0.740107 1.79868 0
M  V30 9347 C 911.647 2.72345 2.35585 0
M  V30 9348 C 911.5 4.14267 1.75224 0
M  V30 9349 C 912.819 2.82726 3.37274 0
M  V30 9350 H 909.938 0.573926 0.462361 0
M  V30 9351 H 912.58 1.8105 0.576267 0
M  V30 9352 H 910.73 2.52543 2.95219 0
M  V30 9353 H 912.402 4.45539 1.19551 0
M  V30 9354 H 910.645 4.20724 1.05706 0
M  V30 9355 H 911.316 4.90345 2.53507 0
M  V30 9356 H 913.792 3.00699 2.8761 0
M  V30 9357 H 912.668 3.6467 4.10252 0
M  V30 9358 H 912.929 1.9136 3.9854 0
M  V30 9359 N 911.988 -0.768124 1.37614 0
M  V30 9360 C 913.234 -1.52907 1.33219 0
M  V30 9361 C 913.567 -1.94026 -0.0821218 0
M  V30 9362 O 912.842 -1.64345 -1.04023 0
M  V30 9363 C 913.125 -2.79164 2.27463 0
M  V30 9364 C 912.978 -2.44276 3.7769 0
M  V30 9365 C 914.297 -3.81115 2.20089 0
M  V30 9366 H 911.416 -0.554712 0.485246 0
M  V30 9367 H 914.058 -0.880911 1.68345 0
M  V30 9368 H 912.208 -3.34472 1.97639 0
M  V30 9369 H 913.88 -1.94855 4.18126 0
M  V30 9370 H 912.123 -1.76925 3.96081 0
M  V30 9371 H 912.794 -3.34544 4.39072 0
M  V30 9372 H 915.27 -3.35311 2.46386 0
M  V30 9373 H 914.146 -4.67174 2.88166 0
M  V30 9374 H 914.407 -4.25644 1.19498 0
M  V30 9375 N 913.466 -1.22244 -0.994698 0
M  V30 9376 C 914.713 -1.04591 -1.73398 0
M  V30 9377 C 915.041 0.419223 -1.89928 0
M  V30 9378 O 914.296 1.32714 -1.43824 0
M  V30 9379 C 914.595 -1.70014 -3.14372 0
M  V30 9380 C 914.261 -3.19903 -3.17762 0
M  V30 9381 C 912.923 -3.60803 -3.18394 0
M  V30 9382 C 915.275 -4.15851 -3.14194 0
M  V30 9383 C 912.603 -4.96135 -3.13157 0
M  V30 9384 C 914.955 -5.51157 -3.10498 0
M  V30 9385 C 913.619 -5.91439 -3.09445 0
M  V30 9386 H 912.889 -0.382725 -0.63451 0
M  V30 9387 H 915.536 -1.51981 -1.16508 0
M  V30 9388 H 913.841 -1.14945 -3.7456 0
M  V30 9389 H 915.538 -1.53848 -3.70313 0
M  V30 9390 H 912.128 -2.87336 -3.18019 0
M  V30 9391 H 916.312 -3.85272 -3.12857 0
M  V30 9392 H 911.568 -5.26578 -3.10685 0
M  V30 9393 H 915.742 -6.2523 -3.06692 0
M  V30 9394 H 913.369 -6.96271 -3.05141 0
M  V30 9395 N 914.944 1.19125 -1.03184 0
M  V30 9396 C 916.172 1.92838 -0.74975 0
M  V30 9397 C 916.587 1.75667 0.691851 0
M  V30 9398 O 915.944 1.0805 1.47076 0
M  V30 9399 C 915.995 3.44509 -1.09525 0
M  V30 9400 O 915.716 3.6113 -2.48025 0
M  V30 9401 C 917.217 4.35338 -0.836397 0
M  V30 9402 H 914.437 0.61246 -0.274105 0
M  V30 9403 H 916.981 1.5118 -1.37712 0
M  V30 9404 H 915.136 3.83988 -0.513006 0
M  V30 9405 H 915.55 4.54959 -2.60984 0
M  V30 9406 H 917.024 5.4035 -1.12808 0
M  V30 9407 H 917.501 4.38602 0.229102 0
M  V30 9408 H 918.107 4.01544 -1.40152 0
M  V30 9409 N 916.422 0.810101 1.35185 0
M  V30 9410 C 917.668 0.392698 1.98962 0
M  V30 9411 C 918.001 -1.03835 1.64109 0
M  V30 9412 O 917.276 -1.721 0.9062 0
M  V30 9413 C 917.559 0.580349 3.55393 0
M  V30 9414 C 917.412 2.05658 4.00031 0
M  V30 9415 C 918.731 0.00822618 4.40099 0
M  V30 9416 H 915.85 0.144157 0.722764 0
M  V30 9417 H 918.492 1.02029 1.60281 0
M  V30 9418 H 916.642 0.0461106 3.88473 0
M  V30 9419 H 918.314 2.65348 3.77344 0
M  V30 9420 H 916.557 2.55174 3.50811 0
M  V30 9421 H 917.228 2.13875 5.08883 0
M  V30 9422 H 919.704 0.464517 4.13499 0
M  V30 9423 H 918.58 0.169414 5.48638 0
M  V30 9424 H 918.841 -1.08576 4.2856 0
M  V30 9425 N 917.9 -1.47166 0.563914 0
M  V30 9426 C 918.847 -2.30097 -0.180013 0
M  V30 9427 C 919.817 -1.39473 -0.902019 0
M  V30 9428 O 921.002 -1.68432 -0.896396 0
M  V30 9429 C 918.142 -3.23573 -1.19978 0
M  V30 9430 C 917.255 -4.2929 -0.483149 0
M  V30 9431 C 916.39 -5.0991 -1.48879 0
M  V30 9432 C 915.429 -6.07395 -0.757513 0
M  V30 9433 N 914.566 -6.8095 -1.71031 0
M  V30 9434 H 919.406 -2.93189 0.53329 0
M  V30 9435 H 916.943 -1.4451 0.274814 0
M  V30 9436 H 918.901 -3.76196 -1.80368 0
M  V30 9437 H 917.531 -2.6233 -1.88103 0
M  V30 9438 H 916.583 -3.79671 0.235414 0
M  V30 9439 H 917.895 -4.9872 0.0894075 0
M  V30 9440 H 917.049 -5.66717 -2.16603 0
M  V30 9441 H 915.788 -4.40397 -2.09527 0
M  V30 9442 H 914.793 -5.4976 -0.0663841 0
M  V30 9443 H 916.018 -6.78919 -0.156685 0
M  V30 9444 H 913.964 -6.14162 -2.30524 0
M  V30 9445 H 913.881 -7.46574 -1.19007 0
M  V30 9446 H 915.149 -7.42326 -2.37849 0
M  V30 9447 N 919.378 -0.300708 -1.54705 0
M  V30 9448 C 920.603 0.314073 -2.05008 0
M  V30 9449 C 921.028 1.46759 -1.17657 0
M  V30 9450 O 920.386 1.80398 -0.180598 0
M  V30 9451 C 920.434 0.748243 -3.52752 0
M  V30 9452 O 919.538 1.85305 -3.68424 0
M  V30 9453 H 918.879 0.0610139 -0.661191 0
M  V30 9454 H 921.409 -0.442467 -1.99758 0
M  V30 9455 H 921.419 1.03713 -3.94598 0
M  V30 9456 H 920.094 -0.095573 -4.1579 0
M  V30 9457 H 918.671 1.56473 -3.38483 0
M  V30 9458 N 920.856 1.57574 -0.0284266 0
M  V30 9459 C 921.819 2.09096 0.938691 0
M  V30 9460 C 922.819 1.00588 1.25454 0
M  V30 9461 O 924.009 1.2675 1.19499 0
M  V30 9462 C 921.141 2.55624 2.25542 0
M  V30 9463 H 922.334 2.95829 0.49248 0
M  V30 9464 H 919.887 1.5475 0.219594 0
M  V30 9465 H 920.622 1.72218 2.74793 0
M  V30 9466 H 920.407 3.34896 2.03929 0
M  V30 9467 H 921.897 2.95712 2.94863 0
M  V30 9468 N 922.334 -0.244713 1.55689 0
M  V30 9469 C 923.745 -0.813603 1.6804 0
M  V30 9470 C 924.096 -1.85936 0.626281 0
M  V30 9471 O 923.221 -2.15206 -0.227038 0
M  V30 9472 C 923.816 -1.48252 3.04642 0
M  V30 9473 C 922.375 -1.99908 3.18926 0
M  V30 9474 C 921.522 -0.850958 2.6392 0
M  V30 9475 H 924.473 -0.0204805 1.58687 0
M  V30 9476 H 924.494 -2.35062 2.99209 0
M  V30 9477 H 924.006 -0.721164 3.81341 0
M  V30 9478 H 922.107 -2.78918 2.47054 0
M  V30 9479 H 922.22 -2.19497 4.25862 0
M  V30 9480 H 920.584 -1.25206 2.21801 0
M  V30 9481 H 921.367 -0.10265 3.43146 0
M  V30 9482 N 923.813 -1.49104 -0.510467 0
M  V30 9483 C 925.224 -1.51423 -1.09215 0
M  V30 9484 C 925.575 -0.295035 -1.93969 0
M  V30 9485 O 924.7 0.596064 -2.08029 0
M  V30 9486 C 925.295 -2.74387 -1.98739 0
M  V30 9487 C 923.854 -2.79515 -2.52088 0
M  V30 9488 C 923.001 -2.4521 -1.29488 0
M  V30 9489 H 925.952 -1.55938 -0.294807 0
M  V30 9490 H 925.973 -2.54012 -2.83298 0
M  V30 9491 H 925.485 -3.63105 -1.37026 0
M  V30 9492 H 923.586 -1.95054 -3.17466 0
M  V30 9493 H 923.699 -3.81447 -2.89887 0
M  V30 9494 H 922.063 -1.96785 -1.61703 0
M  V30 9495 H 922.846 -3.36192 -0.694978 0
M  V30 9496 N 925.291 0.760815 -1.38019 0
M  V30 9497 C 926.519 1.55001 -1.37048 0
M  V30 9498 C 926.934 1.88754 0.0415261 0
M  V30 9499 O 926.291 1.52254 1.00624 0
M  V30 9500 C 926.342 2.8536 -2.21928 0
M  V30 9501 O 926.063 2.53049 -3.57628 0
M  V30 9502 C 927.564 3.79536 -2.29057 0
M  V30 9503 H 924.784 0.479844 -0.469032 0
M  V30 9504 H 927.328 0.942148 -1.81504 0
M  V30 9505 H 925.483 3.42542 -1.80953 0
M  V30 9506 H 925.897 3.36604 -4.02241 0
M  V30 9507 H 927.371 4.67977 -2.92749 0
M  V30 9508 H 927.848 4.19453 -1.30213 0
M  V30 9509 H 928.454 3.28281 -2.70392 0
M  V30 9510 N 926.769 1.22769 0.988202 0
M  V30 9511 C 927.717 0.999271 2.10041 0
M  V30 9512 C 928.711 -0.0591767 1.69297 0
M  V30 9513 O 929.917 0.0936653 1.79756 0
M  V30 9514 H 926.292 0.30599 0.686931 0
M  V30 9515 H 928.263 1.94294 2.26478 0
M  V30 9516 C 927.012 0.59873 3.42506 0
M  V30 9517 H 926.335 1.40487 3.74304 0
M  V30 9518 H 927.775 0.478353 4.21293 0
M  V30 9519 C 926.234 -0.692216 3.29712 0
M  V30 9520 O 926.764 -1.74342 3.61895 0
M  V30 9521 N 924.97 -0.665163 2.82885 0
M  V30 9522 H 924.517 0.190604 2.56894 0
M  V30 9523 H 924.475 -1.52917 2.74706 0
M  V30 9524 N 928.247 -1.18576 1.03814 0
M  V30 9525 C 929.177 -2.24334 0.647795 0
M  V30 9526 C 930.158 -1.66508 -0.34774 0
M  V30 9527 O 931.343 -1.92852 -0.228401 0
M  V30 9528 C 928.473 -3.47299 0.00734922 0
M  V30 9529 C 927.427 -4.17859 0.926152 0
M  V30 9530 C 926.753 -5.34489 0.150317 0
M  V30 9531 C 928.053 -4.71632 2.24411 0
M  V30 9532 H 929.747 -2.57241 1.53191 0
M  V30 9533 H 927.293 -1.23649 0.738028 0
M  V30 9534 H 929.246 -4.20486 -0.277434 0
M  V30 9535 H 927.97 -3.13619 -0.911626 0
M  V30 9536 H 926.629 -3.46567 1.19528 0
M  V30 9537 H 926.277 -4.97056 -0.770985 0
M  V30 9538 H 925.977 -5.82633 0.762407 0
M  V30 9539 H 927.501 -6.10467 -0.127508 0
M  V30 9540 H 928.915 -5.36526 2.02021 0
M  V30 9541 H 927.312 -5.303 2.80894 0
M  V30 9542 H 928.382 -3.89192 2.89236 0
M  V30 9543 N 929.725 -0.817259 -1.34754 0
M  V30 9544 C 930.973 -0.401852 -1.98065 0
M  V30 9545 C 931.294 1.03718 -1.65129 0
M  V30 9546 O 930.564 1.71921 -0.939141 0
M  V30 9547 H 929.144 -0.145603 -0.732672 0
M  V30 9548 H 931.806 -1.04545 -1.64488 0
M  V30 9549 H 930.902 -0.516241 -3.07801 0
M  V30 9550 N 931.203 1.46865 -0.571711 0
M  V30 9551 C 932.48 1.95596 0.0132445 0
M  V30 9552 C 932.86 1.51438 1.47071 0
M  V30 9553 O 932.208 0.759917 2.15494 0
M  V30 9554 C 932.418 3.48689 -0.147335 0
M  V30 9555 C 933.766 4.24599 -0.00946329 0
M  V30 9556 O 934.79 3.5612 -0.0756112 0
M  V30 9557 O 933.649 5.46332 0.135361 0
M  V30 9558 H 930.743 0.825102 0.0560039 0
M  V30 9559 H 933.289 1.57199 -0.639256 0
M  V30 9560 H 932.061 3.73681 -1.16096 0
M  V30 9561 H 931.684 3.93887 0.542109 0
M  V30 9562 N 932.681 0.308908 1.54543 0
M  V30 9563 C 933.628 -0.563659 2.23811 0
M  V30 9564 C 934.598 -1.12332 1.22355 0
M  V30 9565 O 935.783 -1.16638 1.50997 0
M  V30 9566 C 932.923 -1.72585 2.98845 0
M  V30 9567 C 932.036 -1.19682 4.1509 0
M  V30 9568 C 931.171 -2.32351 4.77688 0
M  V30 9569 C 930.21 -1.76623 5.86064 0
M  V30 9570 N 929.347 -2.82896 6.42584 0
M  V30 9571 H 934.187 0.0336288 2.97981 0
M  V30 9572 H 931.724 0.0283666 1.47073 0
M  V30 9573 H 933.682 -2.40951 3.40586 0
M  V30 9574 H 932.312 -2.29464 2.27037 0
M  V30 9575 H 931.364 -0.405173 3.78236 0
M  V30 9576 H 932.676 -0.748923 4.93146 0
M  V30 9577 H 931.83 -3.0865 5.22322 0
M  V30 9578 H 930.569 -2.80472 3.98982 0
M  V30 9579 H 929.574 -0.988171 5.40847 0
M  V30 9580 H 930.799 -1.29398 6.66658 0
M  V30 9581 H 928.745 -3.30336 5.66758 0
M  V30 9582 H 928.662 -2.42626 7.16009 0
M  V30 9583 H 929.93 -3.59068 6.91875 0
M  V30 9584 N 934.159 -1.57557 0.0367827 0
M  V30 9585 C 935.408 -1.91291 -0.639569 0
M  V30 9586 C 935.721 -0.915601 -1.72847 0
M  V30 9587 O 936.927 -1.14447 -2.46199 0
M  V30 9588 C 935.383 -3.39697 -1.18888 0
M  V30 9589 C 934.991 -4.47803 -0.132851 0
M  V30 9590 C 936.735 -3.82487 -1.8413 0
M  V30 9591 C 934.642 -5.87311 -0.694229 0
M  V30 9592 H 933.572 -0.713886 -0.242658 0
M  V30 9593 H 936.223 -1.83209 0.103332 0
M  V30 9594 H 934.605 -3.42736 -1.98363 0
M  V30 9595 H 935.779 -4.56334 0.640009 0
M  V30 9596 H 934.094 -4.14264 0.421264 0
M  V30 9597 H 936.691 -4.84076 -2.27101 0
M  V30 9598 H 937.034 -3.17959 -2.68716 0
M  V30 9599 H 937.567 -3.81903 -1.11332 0
M  V30 9600 H 934.306 -6.55401 0.113667 0
M  V30 9601 H 933.826 -5.82371 -1.4354 0
M  V30 9602 H 935.505 -6.36119 -1.1816 0
M  V30 9603 N 935.637 0.236453 -1.55816 0
M  V30 9604 C 936.867 0.978873 -1.81939 0
M  V30 9605 C 937.275 1.79041 -0.611647 0
M  V30 9606 O 936.618 1.78616 0.429172 0
M  V30 9607 C 936.68 1.9569 -3.01572 0
M  V30 9608 C 936.344 1.33131 -4.37178 0
M  V30 9609 C 937.341 0.728585 -5.1477 0
M  V30 9610 C 935.026 1.34755 -4.83887 0
M  V30 9611 C 937.02 0.150427 -6.37222 0
M  V30 9612 C 934.707 0.765539 -6.06286 0
M  V30 9613 C 935.705 0.168017 -6.82793 0
M  V30 9614 O 935.393 -0.404976 -8.02879 0
M  V30 9615 H 935.125 0.293186 -0.609113 0
M  V30 9616 H 937.679 0.261384 -2.0373 0
M  V30 9617 H 935.909 2.71298 -2.75562 0
M  V30 9618 H 937.598 2.56362 -3.14695 0
M  V30 9619 H 938.364 0.708477 -4.79797 0
M  V30 9620 H 934.243 1.80202 -4.24321 0
M  V30 9621 H 937.787 -0.316586 -6.96881 0
M  V30 9622 H 933.684 0.78301 -6.40733 0
M  V30 9623 H 934.452 -0.29785 -8.17958 0
M  V30 9624 N 937.115 1.49373 0.502552 0
M  V30 9625 C 938.045 1.68839 1.61294 0
M  V30 9626 C 939.026 0.537096 1.61398 0
M  V30 9627 O 940.211 0.772764 1.78163 0
M  V30 9628 C 937.341 1.75347 2.99784 0
M  V30 9629 C 936.295 2.90251 3.14545 0
M  V30 9630 C 935.621 2.8187 4.54371 0
M  V30 9631 C 936.921 4.31207 2.94717 0
M  V30 9632 H 938.615 2.61803 1.45257 0
M  V30 9633 H 936.161 1.25987 0.697371 0
M  V30 9634 H 938.114 1.87552 3.77362 0
M  V30 9635 H 936.838 0.789814 3.16906 0
M  V30 9636 H 935.497 2.77646 2.39392 0
M  V30 9637 H 935.145 1.83416 4.68367 0
M  V30 9638 H 934.845 3.5899 4.65188 0
M  V30 9639 H 936.369 2.96081 5.34012 0
M  V30 9640 H 937.783 4.44501 3.62065 0
M  V30 9641 H 936.18 5.09536 3.17007 0
M  V30 9642 H 937.25 4.45759 1.90857 0
M  V30 9643 N 938.594 -0.753485 1.38421 0
M  V30 9644 C 939.822 -1.54272 1.37868 0
M  V30 9645 C 940.237 -1.88774 -0.0315155 0
M  V30 9646 O 939.594 -1.52785 -0.998148 0
M  V30 9647 C 939.645 -2.84179 2.23438 0
M  V30 9648 O 939.366 -2.51149 3.58965 0
M  V30 9649 C 940.867 -3.78316 2.31067 0
M  V30 9650 H 938.087 -0.47735 0.47157 0
M  V30 9651 H 940.631 -0.932509 1.82001 0
M  V30 9652 H 938.786 -3.41577 1.82767 0
M  V30 9653 H 939.2 -3.34466 4.04021 0
M  V30 9654 H 940.674 -4.66418 2.95226 0
M  V30 9655 H 941.151 -4.18757 1.32436 0
M  V30 9656 H 941.757 -3.26842 2.72129 0
M  V30 9657 N 940.072 -1.23292 -0.981677 0
M  V30 9658 C 941.32 -1.06214 -1.71939 0
M  V30 9659 C 941.641 0.401989 -1.90812 0
M  V30 9660 O 940.911 1.28825 -1.47584 0
M  V30 9661 H 939.491 -0.390042 -0.637084 0
M  V30 9662 H 942.153 -1.54988 -1.18173 0
M  V30 9663 H 941.249 -1.54904 -2.70945 0
M  V30 9664 N 941.55 1.18024 -1.04442 0
M  V30 9665 C 942.498 2.23834 -0.632557 0
M  V30 9666 C 943.492 1.65902 0.342488 0
M  V30 9667 O 944.698 1.78778 0.20937 0
M  V30 9668 H 941.073 0.728544 -0.186353 0
M  V30 9669 H 943.044 2.55876 -1.53526 0
M  V30 9670 C 941.793 3.47697 -0.0153661 0
M  V30 9671 H 941.116 3.92574 -0.756704 0
M  V30 9672 H 942.556 4.23345 0.235541 0
M  V30 9673 C 941.015 3.13416 1.23579 0
M  V30 9674 O 941.545 3.27499 2.3261 0
M  V30 9675 N 939.751 2.67708 1.13053 0
M  V30 9676 H 939.298 2.56449 0.243277 0
M  V30 9677 H 939.256 2.45143 1.96855 0
M  V30 9678 N 943.028 0.824394 1.34319 0
M  V30 9679 C 944.277 0.40956 1.97498 0
M  V30 9680 C 944.59 -1.03323 1.66083 0
M  V30 9681 O 945.796 -1.55205 2.22764 0
M  V30 9682 C 944.252 0.681384 3.53391 0
M  V30 9683 C 943.86 2.1379 3.93698 0
M  V30 9684 C 945.604 0.332788 4.23194 0
M  V30 9685 C 943.511 2.35453 5.42509 0
M  V30 9686 H 942.441 0.149409 0.739049 0
M  V30 9687 H 945.092 1.01095 1.5314 0
M  V30 9688 H 943.474 0.00980375 3.95999 0
M  V30 9689 H 944.648 2.84876 3.62191 0
M  V30 9690 H 942.963 2.44807 3.36836 0
M  V30 9691 H 945.56 0.472463 5.32609 0
M  V30 9692 H 945.903 -0.722862 4.09976 0
M  V30 9693 H 946.436 0.959005 3.86067 0
M  V30 9694 H 943.175 3.39529 5.60714 0
M  V30 9695 H 942.695 1.68912 5.75525 0
M  V30 9696 H 944.374 2.17885 6.09209 0
M  V30 9697 N 944.506 -1.46559 0.579492 0
M  V30 9698 C 945.917 -1.8608 0.152052 0
M  V30 9699 C 946.268 -1.48346 -1.28405 0
M  V30 9700 O 945.393 -0.89685 -1.9694 0
M  V30 9701 C 945.988 -3.37729 0.269171 0
M  V30 9702 C 944.547 -3.76258 -0.103376 0
M  V30 9703 C 943.694 -2.70584 0.60659 0
M  V30 9704 H 946.645 -1.3776 0.787904 0
M  V30 9705 H 946.666 -3.77116 -0.506339 0
M  V30 9706 H 946.178 -3.65162 1.31448 0
M  V30 9707 H 944.279 -3.54443 -1.14895 0
M  V30 9708 H 944.392 -4.78335 0.270701 0
M  V30 9709 H 942.756 -2.54656 0.0471984 0
M  V30 9710 H 943.539 -3.00856 1.65349 0
M  V30 9711 N 945.984 -0.3171 -1.54377 0
M  V30 9712 C 946.894 0.560867 -2.27797 0
M  V30 9713 C 947.91 1.13473 -1.31908 0
M  V30 9714 O 949.086 1.15608 -1.64914 0
M  V30 9715 C 946.151 1.70886 -3.0166 0
M  V30 9716 C 945.212 1.16745 -4.13121 0
M  V30 9717 C 944.445 2.26073 -4.83453 0
M  V30 9718 O 944.668 3.46292 -4.53252 0
M  V30 9719 O 943.602 1.91856 -5.70504 0
M  V30 9720 H 947.428 -0.035193 -3.0368 0
M  V30 9721 H 945.013 -0.0830062 -1.49169 0
M  V30 9722 H 946.895 2.37736 -3.47936 0
M  V30 9723 H 945.57 2.29122 -2.28658 0
M  V30 9724 H 944.477 0.464224 -3.71209 0
M  V30 9725 H 945.81 0.630307 -4.88147 0
M  V30 9726 N 947.462 1.57535 -0.0451378 0
M  V30 9727 C 948.392 2.14208 0.929372 0
M  V30 9728 C 949.373 1.06221 1.32858 0
M  V30 9729 O 950.558 1.34132 1.40436 0
M  V30 9730 C 947.688 2.68217 2.20629 0
M  V30 9731 C 946.642 3.81134 1.94734 0
M  V30 9732 C 945.968 4.21636 3.28828 0
M  V30 9733 C 947.268 5.06531 1.27374 0
M  V30 9734 H 948.962 2.95886 0.457348 0
M  V30 9735 H 946.508 1.42332 0.218544 0
M  V30 9736 H 948.461 3.06502 2.89196 0
M  V30 9737 H 947.185 1.83722 2.70026 0
M  V30 9738 H 945.844 3.43312 1.28579 0
M  V30 9739 H 945.492 3.34099 3.76014 0
M  V30 9740 H 945.192 4.97736 3.12302 0
M  V30 9741 H 946.716 4.62516 3.98637 0
M  V30 9742 H 948.13 5.423 1.85967 0
M  V30 9743 H 946.527 5.87735 1.21194 0
M  V30 9744 H 947.597 4.84261 0.248913 0
M  V30 9745 N 948.94 -0.228186 1.55939 0
M  V30 9746 C 950.188 -0.951668 1.78291 0
M  V30 9747 C 950.509 -1.85132 0.612474 0
M  V30 9748 O 949.779 -1.92356 -0.370942 0
M  V30 9749 H 948.359 -0.354388 0.657585 0
M  V30 9750 H 951.021 -0.241635 1.93396 0
M  V30 9751 H 950.117 -1.56239 2.70177 0
M  V30 9752 N 950.418 -1.49637 -0.494624 0
M  V30 9753 C 951.366 -1.6727 -1.61627 0
M  V30 9754 C 952.36 -0.538587 -1.6061 0
M  V30 9755 O 953.566 -0.718411 -1.65042 0
M  V30 9756 H 949.941 -0.527557 -0.535899 0
M  V30 9757 H 951.912 -2.61405 -1.43909 0
M  V30 9758 C 950.661 -1.7624 -2.99725 0
M  V30 9759 H 949.984 -2.62886 -3.01216 0
M  V30 9760 H 951.424 -1.92611 -3.77726 0
M  V30 9761 C 949.883 -0.508632 -3.33038 0
M  V30 9762 O 950.413 0.362828 -4.00058 0
M  V30 9763 N 948.619 -0.369667 -2.88239 0
M  V30 9764 H 948.166 -1.07984 -2.33875 0
M  V30 9765 H 948.124 0.468112 -3.10896 0
M  V30 9766 N 951.896 0.746133 -1.38819 0
M  V30 9767 C 953.142 1.50669 -1.3664 0
M  V30 9768 C 953.497 1.92356 0.0411513 0
M  V30 9769 O 952.79 1.63104 1.00537 0
M  V30 9770 C 952.984 2.76639 -2.26286 0
M  V30 9771 C 952.813 2.47268 -3.75618 0
M  V30 9772 C 951.583 2.40116 -4.44603 0
M  V30 9773 C 953.781 2.13548 -4.67869 0
M  V30 9774 N 951.763 2.03098 -5.79331 0
M  V30 9775 C 953.134 1.86883 -5.91164 0
M  V30 9776 C 955.189 1.99922 -4.56 0
M  V30 9777 C 953.892 1.47965 -7.03917 0
M  V30 9778 C 955.918 1.62406 -5.68664 0
M  V30 9779 C 955.28 1.36618 -6.91025 0
M  V30 9780 H 951.379 0.550624 -0.555282 0
M  V30 9781 H 953.963 0.868179 -1.74272 0
M  V30 9782 H 952.134 3.38287 -1.9083 0
M  V30 9783 H 953.866 3.42753 -2.1518 0
M  V30 9784 H 950.621 2.56839 -3.97908 0
M  V30 9785 H 951.045 1.87214 -6.506 0
M  V30 9786 H 955.687 2.18531 -3.61945 0
M  V30 9787 H 953.405 1.28096 -7.97883 0
M  V30 9788 H 956.991 1.52483 -5.61462 0
M  V30 9789 H 955.871 1.08021 -7.76725 0
M  V30 9790 N 953.375 1.23811 0.975125 0
M  V30 9791 C 954.6 1.10109 1.75757 0
M  V30 9792 C 955.025 -0.342922 1.84948 0
M  V30 9793 O 954.383 -1.24814 1.31496 0
M  V30 9794 C 954.431 1.73724 3.15994 0
M  V30 9795 O 953.535 1.00297 4.00018 0
M  V30 9796 H 952.876 0.385627 0.540544 0
M  V30 9797 H 955.406 1.63971 1.22372 0
M  V30 9798 H 955.416 1.79178 3.6655 0
M  V30 9799 H 954.091 2.78794 3.0862 0
M  V30 9800 H 952.668 1.02575 3.58515 0
M  V30 9801 N 954.853 -1.17469 1.05066 0
M  V30 9802 C 956.081 -1.9162 0.780334 0
M  V30 9803 C 956.496 -1.76745 -0.663817 0
M  V30 9804 O 955.853 -1.10377 -1.45338 0
M  V30 9805 C 955.904 -3.42723 1.14992 0
M  V30 9806 O 955.625 -3.57139 2.53739 0
M  V30 9807 C 957.126 -4.33952 0.905549 0
M  V30 9808 H 954.346 -0.608022 0.283814 0
M  V30 9809 H 956.89 -1.4897 1.401 0
M  V30 9810 H 955.045 -3.83124 0.57403 0
M  V30 9811 H 955.459 -4.5075 2.68189 0
M  V30 9812 H 956.933 -5.38487 1.21391 0
M  V30 9813 H 957.41 -4.38911 -0.159295 0
M  V30 9814 H 958.016 -3.99263 1.46522 0
M  V30 9815 N 956.331 -0.831506 -1.3388 0
M  V30 9816 C 957.608 -0.345907 -1.92517 0
M  V30 9817 C 957.988 1.16784 -1.75854 0
M  V30 9818 O 957.336 1.97889 -1.14245 0
M  V30 9819 C 957.546 -0.784692 -3.40064 0
M  V30 9820 C 958.894 -0.78846 -4.17215 0
M  V30 9821 O 959.918 -0.727823 -3.48685 0
M  V30 9822 O 958.777 -0.869481 -5.39539 0
M  V30 9823 H 955.871 -0.0963568 -0.821367 0
M  V30 9824 H 958.417 -0.916868 -1.42799 0
M  V30 9825 H 957.189 -1.82697 -3.46031 0
M  V30 9826 H 956.812 -0.189897 -3.97146 0
M  V30 9827 N 957.809 1.4625 -0.587256 0
M  V30 9828 C 959.037 2.06744 -0.08033 0
M  V30 9829 C 959.452 1.43527 1.2266 0
M  V30 9830 O 958.809 0.542168 1.74261 0
M  V30 9831 C 958.86 3.61394 0.0873469 0
M  V30 9832 O 958.581 4.22247 -1.16785 0
M  V30 9833 C 960.082 4.38828 0.628095 0
M  V30 9834 H 957.302 0.668354 -0.0595301 0
M  V30 9835 H 959.846 1.87808 -0.809217 0
M  V30 9836 H 958.001 3.79742 0.766473 0
M  V30 9837 H 958.415 5.15176 -0.984565 0
M  V30 9838 H 959.889 5.47613 0.694583 0
M  V30 9839 H 960.366 4.07188 1.64606 0
M  V30 9840 H 960.972 4.25297 -0.0163115 0
M  V30 9841 N 959.287 0.325282 1.54207 0
M  V30 9842 C 960.512 -0.281418 2.05482 0
M  V30 9843 C 960.937 -1.44869 1.19977 0
M  V30 9844 O 960.295 -1.80088 0.209275 0
M  V30 9845 C 960.343 -0.692029 3.53897 0
M  V30 9846 O 959.447 -1.7942 3.71325 0
M  V30 9847 H 958.788 -0.0504872 0.662078 0
M  V30 9848 H 961.318 0.474191 1.99029 0
M  V30 9849 H 961.328 -0.974219 3.96198 0
M  V30 9850 H 960.003 0.161709 4.15586 0
M  V30 9851 H 958.58 -1.51069 3.40929 0
M  V30 9852 N 960.765 -1.57509 0.0534917 0
M  V30 9853 C 962.013 -1.92402 -0.618548 0
M  V30 9854 C 962.334 -0.93273 -1.71246 0
M  V30 9855 O 961.604 0.0220495 -1.95888 0
M  V30 9856 H 960.184 -0.710233 -0.23147 0
M  V30 9857 H 962.846 -1.94606 0.10704 0
M  V30 9858 H 961.942 -2.93704 -1.05566 0
M  V30 9859 N 962.243 0.219913 -1.56058 0
M  V30 9860 C 963.206 1.25606 -1.91718 0
M  V30 9861 C 964.206 1.39721 -0.795912 0
M  V30 9862 O 965.396 1.37958 -1.06364 0
M  V30 9863 C 962.528 2.62961 -2.16943 0
M  V30 9864 H 963.721 0.951909 -2.84392 0
M  V30 9865 H 961.274 0.460398 -1.49365 0
M  V30 9866 H 962.009 2.98472 -1.26826 0
M  V30 9867 H 961.794 2.54093 -2.98629 0
M  V30 9868 H 963.284 3.37727 -2.45622 0
M  V30 9869 N 963.721 1.49897 0.486681 0
M  V30 9870 C 964.967 1.60342 1.2417 0
M  V30 9871 C 965.3 0.295694 1.91936 0
M  V30 9872 O 964.575 -0.701788 1.81398 0
M  V30 9873 C 964.858 2.77281 2.29755 0
M  V30 9874 C 964.711 4.1789 1.66397 0
M  V30 9875 C 966.03 2.89817 3.31201 0
M  V30 9876 H 963.149 0.583605 0.450083 0
M  V30 9877 H 965.791 1.82232 0.537734 0
M  V30 9878 H 963.941 2.58748 2.89796 0
M  V30 9879 H 965.613 4.47975 1.10073 0
M  V30 9880 H 963.856 4.22872 0.967579 0
M  V30 9881 H 964.527 4.95612 2.43049 0
M  V30 9882 H 967.003 3.06732 2.81167 0
M  V30 9883 H 965.879 3.7329 4.02425 0
M  V30 9884 H 966.14 1.9977 3.94391 0
M  V30 9885 N 965.199 -0.738761 1.39212 0
M  V30 9886 C 966.147 -1.8741 1.3777 0
M  V30 9887 C 967.141 -1.67371 0.261375 0
M  V30 9888 O 968.347 -1.74759 0.431209 0
M  V30 9889 H 964.722 -0.616843 0.430126 0
M  V30 9890 H 966.693 -1.85742 2.33543 0
M  V30 9891 C 965.442 -3.25053 1.23433 0
M  V30 9892 H 964.765 -3.41066 2.086 0
M  V30 9893 H 966.205 -4.04696 1.2648 0
M  V30 9894 C 964.664 -3.36851 -0.0575624 0
M  V30 9895 O 965.194 -3.88293 -1.02915 0
M  V30 9896 N 963.4 -2.90355 -0.119364 0
M  V30 9897 H 962.947 -2.48681 0.671976 0
M  V30 9898 H 962.905 -2.98628 -0.983286 0
M  V30 9899 N 966.677 -1.24326 -0.968545 0
M  V30 9900 C 967.625 -1.03256 -2.08425 0
M  V30 9901 C 968.619 0.0322356 -1.69369 0
M  V30 9902 O 969.825 -0.122251 -1.79584 0
M  V30 9903 H 966.2 -0.31688 -0.681976 0
M  V30 9904 H 968.171 -1.97873 -2.23358 0
M  V30 9905 C 966.92 -0.653144 -3.4151 0
M  V30 9906 H 966.243 -1.46424 -3.72021 0
M  V30 9907 H 967.683 -0.545316 -4.20479 0
M  V30 9908 C 966.142 0.639674 -3.30771 0
M  V30 9909 O 966.672 1.68563 -3.64622 0
M  V30 9910 N 964.878 0.620074 -2.83907 0
M  V30 9911 H 964.425 -0.231449 -2.56558 0
M  V30 9912 H 964.383 1.48528 -2.77104 0
M  V30 9913 N 968.156 1.1691 -1.05688 0
M  V30 9914 C 969.119 2.19297 -0.666433 0
M  V30 9915 C 970.119 1.5826 0.284674 0
M  V30 9916 O 971.309 1.74068 0.0678757 0
M  V30 9917 C 968.441 3.40894 0.0203656 0
M  V30 9918 H 969.634 2.55354 -1.57272 0
M  V30 9919 H 967.187 1.31078 -0.851359 0
M  V30 9920 H 967.922 3.10388 0.939686 0
M  V30 9921 H 967.707 3.86446 -0.663464 0
M  V30 9922 H 969.197 4.16664 0.279475 0
M  V30 9923 N 969.634 0.838594 1.33437 0
M  V30 9924 C 970.566 0.229006 2.28053 0
M  V30 9925 C 971.579 -0.590103 1.51729 0
M  V30 9926 O 972.768 -0.417218 1.73556 0
M  V30 9927 C 969.868 -0.696251 3.31671 0
M  V30 9928 C 969.041 0.0834606 4.3732 0
M  V30 9929 C 968.1 -0.765097 5.20608 0
M  V30 9930 O 967.126 -0.2044 5.68833 0
M  V30 9931 N 968.328 -2.08249 5.4186 0
M  V30 9932 H 971.093 1.04196 2.81004 0
M  V30 9933 H 968.654 0.697031 1.46127 0
M  V30 9934 H 970.646 -1.26889 3.84293 0
M  V30 9935 H 969.216 -1.40992 2.78998 0
M  V30 9936 H 968.436 0.837481 3.85201 0
M  V30 9937 H 969.724 0.619613 5.05013 0
M  V30 9938 H 969.122 -2.56156 5.04381 0
M  V30 9939 H 967.679 -2.60362 5.97541 0
M  V30 9940 N 971.112 -1.45937 0.595003 0
M  V30 9941 C 972.36 -2.01921 0.0851368 0
M  V30 9942 C 972.681 -1.46748 -1.28413 0
M  V30 9943 O 971.951 -0.656873 -1.84559 0
M  V30 9944 H 970.531 -0.746457 0.0284826 0
M  V30 9945 H 973.193 -1.78891 0.773561 0
M  V30 9946 H 972.289 -3.1209 0.0254002 0
M  V30 9947 N 972.59 -0.333456 -1.54032 0
M  V30 9948 C 974.001 0.15256 -1.86076 0
M  V30 9949 C 974.352 1.50819 -1.25492 0
M  V30 9950 O 973.477 2.08903 -0.564665 0
M  V30 9951 C 974.072 0.283599 -3.37611 0
M  V30 9952 C 972.631 0.713841 -3.69569 0
M  V30 9953 C 971.778 -0.158515 -2.76847 0
M  V30 9954 H 974.729 -0.553404 -1.48738 0
M  V30 9955 H 974.75 1.11284 -3.63863 0
M  V30 9956 H 974.262 -0.703193 -3.81676 0
M  V30 9957 H 972.363 1.71002 -3.31042 0
M  V30 9958 H 972.476 0.510731 -4.7637 0
M  V30 9959 H 970.84 0.367531 -2.52034 0
M  V30 9960 H 971.623 -1.14226 -3.2374 0
M  V30 9961 N 974.068 1.57479 -0.061844 0
M  V30 9962 C 974.998 2.15181 0.9066 0
M  V30 9963 C 975.979 1.07624 1.31724 0
M  V30 9964 O 977.164 1.35614 1.39006 0
M  V30 9965 C 974.294 2.70542 2.17771 0
M  V30 9966 C 973.248 3.83178 1.9068 0
M  V30 9967 C 972.574 4.25099 3.24337 0
M  V30 9968 C 973.874 5.07853 1.21994 0
M  V30 9969 H 975.568 2.96355 0.42594 0
M  V30 9970 H 973.114 1.42556 0.203435 0
M  V30 9971 H 975.067 3.09552 2.85929 0
M  V30 9972 H 973.791 1.86575 2.68062 0
M  V30 9973 H 972.45 3.44656 1.24931 0
M  V30 9974 H 972.098 3.38069 3.72449 0
M  V30 9975 H 971.798 5.01021 3.07005 0
M  V30 9976 H 973.322 4.66718 3.93709 0
M  V30 9977 H 974.736 5.44242 1.80204 0
M  V30 9978 H 973.133 5.88987 1.14954 0
M  V30 9979 H 974.203 4.84497 0.197536 0
M  V30 9980 N 975.546 -0.211634 1.56173 0
M  V30 9981 C 976.476 -1.26533 1.96244 0
M  V30 9982 C 977.457 -1.48362 0.832028 0
M  V30 9983 O 978.642 -1.60378 1.0951 0
M  V30 9984 C 975.772 -2.61307 2.2877 0
M  V30 9985 C 974.726 -2.54119 3.44395 0
M  V30 9986 C 974.052 -3.93014 3.62552 0
M  V30 9987 C 975.352 -2.08046 4.79076 0
M  V30 9988 H 977.046 -0.932407 2.84511 0
M  V30 9989 H 974.592 -0.447084 1.36884 0
M  V30 9990 H 976.545 -3.35188 2.55396 0
M  V30 9991 H 975.269 -2.96307 1.37367 0
M  V30 9992 H 973.928 -1.82694 3.17834 0
M  V30 9993 H 973.576 -4.25338 2.68508 0
M  V30 9994 H 973.276 -3.89083 4.40327 0
M  V30 9995 H 974.8 -4.68542 3.91537 0
M  V30 9996 H 976.214 -2.71676 5.04842 0
M  V30 9997 H 974.611 -2.15154 5.60204 0
M  V30 9998 H 975.681 -1.03306 4.73768 0
M  V30 9999 N 977.024 -1.50153 -0.478725 0
M  V30 10000 C 977.987 -1.67916 -1.56003 0
M  V30 10001 C 978.987 -0.550111 -1.51097 0
M  V30 10002 O 980.177 -0.817001 -1.53853 0
M  V30 10003 C 977.309 -1.6973 -2.95643 0
M  V30 10004 H 978.502 -2.6438 -1.41573 0
M  V30 10005 H 976.055 -1.39519 -0.704565 0
M  V30 10006 H 976.79 -0.749306 -3.15525 0
M  V30 10007 H 976.575 -2.51745 -3.00611 0
M  V30 10008 H 978.065 -1.85453 -3.74162 0
M  V30 10009 N 978.502 0.731368 -1.39602 0
M  V30 10010 C 979.913 1.30981 -1.33045 0
M  V30 10011 C 980.264 1.962 0.00349918 0
M  V30 10012 O 979.389 1.96539 0.905615 0
M  V30 10013 C 979.984 2.3817 -2.40958 0
M  V30 10014 C 978.543 2.91678 -2.3791 0
M  V30 10015 C 977.69 1.65286 -2.22656 0
M  V30 10016 H 980.641 0.528615 -1.49637 0
M  V30 10017 H 980.662 3.18645 -2.07955 0
M  V30 10018 H 980.174 1.90673 -3.38032 0
M  V30 10019 H 978.275 3.43446 -1.44485 0
M  V30 10020 H 978.388 3.44545 -3.32904 0
M  V30 10021 H 976.752 1.89759 -1.69893 0
M  V30 10022 H 977.535 1.19836 -3.21705 0
M  V30 10023 N 979.98 1.24838 0.961938 0
M  V30 10024 C 980.928 1.0436 2.07874 0
M  V30 10025 C 981.922 -0.0232531 1.69384 0
M  V30 10026 O 983.128 0.131773 1.79517 0
M  V30 10027 H 979.503 0.320492 0.680286 0
M  V30 10028 H 981.474 1.99055 2.22306 0
M  V30 10029 C 980.223 0.671246 3.41159 0
M  V30 10030 H 979.546 1.48395 3.7124 0
M  V30 10031 H 980.986 0.567608 4.20184 0
M  V30 10032 C 979.445 -0.622124 3.31106 0
M  V30 10033 O 979.975 -1.66627 3.65511 0
M  V30 10034 N 978.181 -0.605009 2.84232 0
M  V30 10035 H 977.728 0.245052 2.56432 0
M  V30 10036 H 977.686 -1.47056 2.77888 0
M  V30 10037 N 981.458 -1.16348 1.06306 0
M  V30 10038 C 982.688 -1.90505 0.799453 0
M  V30 10039 C 983.096 -1.77686 -0.649955 0
M  V30 10040 O 982.439 -1.11921 -1.45669 0
M  V30 10041 C 982.501 -3.41775 1.11492 0
M  V30 10042 C 982.165 -3.7838 2.56277 0
M  V30 10043 C 983.162 -3.80288 3.54509 0
M  V30 10044 C 980.847 -4.09007 2.9158 0
M  V30 10045 C 982.841 -4.12312 4.86084 0
M  V30 10046 C 980.528 -4.40697 4.23354 0
M  V30 10047 C 981.526 -4.4233 5.20416 0
M  V30 10048 O 981.214 -4.73267 6.49826 0
M  V30 10049 H 980.946 -0.61094 0.289359 0
M  V30 10050 H 983.5 -1.48409 1.41999 0
M  V30 10051 H 981.73 -3.84219 0.437306 0
M  V30 10052 H 983.419 -3.97207 0.835533 0
M  V30 10053 H 984.185 -3.56738 3.28577 0
M  V30 10054 H 980.064 -4.06901 2.16686 0
M  V30 10055 H 983.608 -4.13501 5.61838 0
M  V30 10056 H 979.505 -4.63713 4.49044 0
M  V30 10057 H 980.273 -4.91078 6.54817 0
M  V30 10058 N 982.937 -0.845659 -1.3299 0
M  V30 10059 C 984.348 -0.50048 -1.79867 0
M  V30 10060 C 984.699 0.981027 -1.69913 0
M  V30 10061 O 983.824 1.76477 -1.25239 0
M  V30 10062 C 984.419 -0.901679 -3.26581 0
M  V30 10063 C 982.978 -0.608536 -3.71448 0
M  V30 10064 C 982.125 -1.10632 -2.54275 0
M  V30 10065 H 985.076 -1.03372 -1.20416 0
M  V30 10066 H 985.097 -0.214433 -3.79895 0
M  V30 10067 H 984.609 -1.97998 -3.33794 0
M  V30 10068 H 982.71 0.459416 -3.69757 0
M  V30 10069 H 982.823 -1.16853 -4.64631 0
M  V30 10070 H 981.187 -0.526925 -2.4919 0
M  V30 10071 H 981.97 -2.19154 -2.64247 0
M  V30 10072 N 984.415 1.45619 -0.602734 0
M  V30 10073 C 985.692 1.9558 -0.0282472 0
M  V30 10074 C 986.072 1.54523 1.43826 0
M  V30 10075 O 985.42 0.805456 2.13833 0
M  V30 10076 C 985.63 3.48298 -0.221263 0
M  V30 10077 C 986.978 4.24483 -0.0995249 0
M  V30 10078 O 988.002 3.55879 -0.151132 0
M  V30 10079 O 986.861 5.46497 0.0194454 0
M  V30 10080 H 983.955 0.826104 0.0384897 0
M  V30 10081 H 986.501 1.55808 -0.672456 0
M  V30 10082 H 985.273 3.71134 -1.23997 0
M  V30 10083 H 984.896 3.94948 0.458437 0
M  V30 10084 N 985.893 0.34162 1.53853 0
M  V30 10085 C 987.139 -0.248546 2.01876 0
M  V30 10086 C 987.494 -1.48352 1.22513 0
M  V30 10087 O 986.787 -1.89174 0.303919 0
M  V30 10088 C 986.981 -0.616989 3.52034 0
M  V30 10089 C 986.81 0.580727 4.45935 0
M  V30 10090 C 985.58 1.08544 4.93504 0
M  V30 10091 C 987.778 1.43858 4.93771 0
M  V30 10092 N 985.76 2.24568 5.71351 0
M  V30 10093 C 987.131 2.44575 5.69722 0
M  V30 10094 C 989.186 1.46425 4.75882 0
M  V30 10095 C 987.889 3.47687 6.29688 0
M  V30 10096 C 989.915 2.48416 5.36697 0
M  V30 10097 C 989.277 3.4786 6.12514 0
M  V30 10098 H 985.376 -0.0543067 0.780112 0
M  V30 10099 H 987.96 0.480749 1.88671 0
M  V30 10100 H 986.131 -1.31539 3.65448 0
M  V30 10101 H 987.863 -1.19018 3.86803 0
M  V30 10102 H 984.618 0.653832 4.69065 0
M  V30 10103 H 985.042 2.83143 6.14946 0
M  V30 10104 H 989.684 0.709044 4.16812 0
M  V30 10105 H 987.402 4.24103 6.87868 0
M  V30 10106 H 990.988 2.51227 5.24763 0
M  V30 10107 H 989.868 4.25486 6.58734 0
M  V30 10108 N 987.371 -1.57444 0.0701946 0
M  V30 10109 C 988.618 -1.93429 -0.59929 0
M  V30 10110 C 988.946 -0.9501 -1.69715 0
M  V30 10111 O 988.201 0.0345377 -1.9567 0
M  V30 10112 C 988.5 -3.36044 -1.21694 0
M  V30 10113 C 988.166 -4.50232 -0.245374 0
M  V30 10114 C 986.828 -4.81195 0.0219161 0
M  V30 10115 C 989.18 -5.1951 0.419396 0
M  V30 10116 C 986.508 -5.78775 0.96109 0
M  V30 10117 C 988.86 -6.18095 1.34688 0
M  V30 10118 C 987.524 -6.47477 1.62265 0
M  V30 10119 H 986.794 -0.707807 -0.219296 0
M  V30 10120 H 989.441 -1.90982 0.14073 0
M  V30 10121 H 987.746 -3.34948 -2.03265 0
M  V30 10122 H 989.443 -3.61176 -1.74221 0
M  V30 10123 H 986.033 -4.26082 -0.463887 0
M  V30 10124 H 990.217 -4.95785 0.226009 0
M  V30 10125 H 985.473 -5.99865 1.18202 0
M  V30 10126 H 989.647 -6.7088 1.86795 0
M  V30 10127 H 987.274 -7.229 2.352 0
M  V30 10128 N 988.849 0.203349 -1.56283 0
M  V30 10129 C 990.079 0.940061 -1.83974 0
M  V30 10130 C 990.487 1.77703 -0.649486 0
M  V30 10131 O 989.83 1.79487 0.391189 0
M  V30 10132 C 989.892 1.89249 -3.05655 0
M  V30 10133 C 989.556 1.23828 -4.39904 0
M  V30 10134 C 990.553 0.619231 -5.16199 0
M  V30 10135 C 988.238 1.2446 -4.86636 0
M  V30 10136 C 990.232 0.0152287 -6.37398 0
M  V30 10137 C 987.919 0.636764 -6.07773 0
M  V30 10138 C 988.917 0.0231481 -6.82996 0
M  V30 10139 O 988.605 -0.575187 -8.0184 0
M  V30 10140 H 988.337 0.280199 -0.615194 0
M  V30 10141 H 990.891 0.218111 -2.04239 0
M  V30 10142 H 989.121 2.65392 -2.81254 0
M  V30 10143 H 990.81 2.4963 -3.20062 0
M  V30 10144 H 991.576 0.606545 -4.81192 0
M  V30 10145 H 987.455 1.71161 -4.28048 0
M  V30 10146 H 990.999 -0.464333 -6.96053 0
M  V30 10147 H 986.896 0.646924 -6.4225 0
M  V30 10148 H 987.664 -0.471284 -8.17142 0
M  V30 10149 N 990.327 1.50405 0.470755 0
M  V30 10150 C 991.573 1.6165 1.22462 0
M  V30 10151 C 991.906 0.316034 1.91611 0
M  V30 10152 O 991.181 -0.682509 1.82132 0
M  V30 10153 C 991.464 2.79702 2.26801 0
M  V30 10154 C 991.317 4.19631 1.61955 0
M  V30 10155 C 992.636 2.93313 3.28109 0
M  V30 10156 H 989.755 0.588345 0.443868 0
M  V30 10157 H 992.397 1.82792 0.518376 0
M  V30 10158 H 990.547 2.61807 2.87036 0
M  V30 10159 H 992.219 4.49117 1.05316 0
M  V30 10160 H 990.462 4.23874 0.922674 0
M  V30 10161 H 991.133 4.98162 2.37779 0
M  V30 10162 H 993.609 3.09697 2.77897 0
M  V30 10163 H 992.485 3.77537 3.98443 0
M  V30 10164 H 992.746 2.03942 3.9225 0
M  V30 10165 N 991.805 -0.723954 1.39988 0
M  V30 10166 C 993.052 -1.48371 1.37812 0
M  V30 10167 C 993.38 -1.94487 -0.0223285 0
M  V30 10168 O 992.635 -1.67906 -1.00529 0
M  V30 10169 C 992.934 -2.73004 2.30659 0
M  V30 10170 C 992.6 -2.45698 3.78078 0
M  V30 10171 C 991.262 -2.37961 4.18244 0
M  V30 10172 C 993.614 -2.22601 4.71273 0
M  V30 10173 C 990.942 -2.05183 5.49652 0
M  V30 10174 C 993.294 -1.91339 6.0297 0
M  V30 10175 C 991.958 -1.82078 6.42187 0
M  V30 10176 H 991.228 -0.542929 0.504291 0
M  V30 10177 H 993.875 -0.829986 1.72579 0
M  V30 10178 H 992.18 -3.43174 1.89048 0
M  V30 10179 H 993.877 -3.31068 2.26263 0
M  V30 10180 H 990.467 -2.52603 3.46251 0
M  V30 10181 H 994.651 -2.2754 4.41066 0
M  V30 10182 H 989.907 -1.96544 5.78948 0
M  V30 10183 H 994.081 -1.72479 6.74703 0
M  V30 10184 H 991.708 -1.56446 7.43928 0
M  V30 10185 N 993.283 -1.25346 -0.955304 0
M  V30 10186 C 994.508 -1.12892 -1.73983 0
M  V30 10187 C 994.933 0.313455 -1.8547 0
M  V30 10188 O 994.291 1.22706 -1.33465 0
M  V30 10189 C 994.339 -1.78729 -3.1319 0
M  V30 10190 O 993.443 -1.06648 -3.98372 0
M  V30 10191 H 992.784 -0.394178 -0.534341 0
M  V30 10192 H 995.314 -1.65897 -1.19747 0
M  V30 10193 H 995.324 -1.84987 -3.63653 0
M  V30 10194 H 993.999 -2.83669 -3.04146 0
M  V30 10195 H 992.576 -1.08266 -3.56837 0
M  V30 10196 N 994.761 1.15782 -1.06922 0
M  V30 10197 C 996.007 1.86741 -0.790922 0
M  V30 10198 C 996.34 1.81863 0.681149 0
M  V30 10199 O 995.615 1.23871 1.49954 0
M  V30 10200 C 995.898 3.36038 -1.29422 0
M  V30 10201 C 995.751 3.49573 -2.83052 0
M  V30 10202 C 997.07 4.30647 -0.907239 0
M  V30 10203 H 994.189 0.678064 -0.288787 0
M  V30 10204 H 996.831 1.36054 -1.32624 0
M  V30 10205 H 994.981 3.79336 -0.838843 0
M  V30 10206 H 996.653 3.1517 -3.36847 0
M  V30 10207 H 994.896 2.91275 -3.21467 0
M  V30 10208 H 995.567 4.5445 -3.13335 0
M  V30 10209 H 998.043 3.95286 -1.29956 0
M  V30 10210 H 996.919 5.33604 -1.28679 0
M  V30 10211 H 997.18 4.41703 0.187251 0
M  V30 10212 N 996.239 0.8527 1.3254 0
M  V30 10213 C 997.65 0.510012 1.79599 0
M  V30 10214 C 998.001 -0.972002 1.70431 0
M  V30 10215 O 997.126 -1.7581 1.26173 0
M  V30 10216 C 997.721 0.918986 3.26098 0
M  V30 10217 C 996.28 0.628227 3.7112 0
M  V30 10218 C 995.427 1.11979 2.53685 0
M  V30 10219 H 998.378 1.04009 1.19866 0
M  V30 10220 H 998.399 0.234577 3.79776 0
M  V30 10221 H 997.911 1.99765 3.32739 0
M  V30 10222 H 996.012 -0.4398 3.69995 0
M  V30 10223 H 996.125 1.19315 4.64005 0
M  V30 10224 H 994.489 0.540133 2.48907 0
M  V30 10225 H 995.272 2.20552 2.63081 0
M  V30 10226 N 997.718 -1.45297 0.610449 0
M  V30 10227 C 998.681 -2.28995 -0.0968194 0
M  V30 10228 C 999.681 -1.39923 -0.792353 0
M  V30 10229 O 1000.87 -1.62014 -0.64008 0
M  V30 10230 C 998.003 -3.21013 -1.14731 0
M  V30 10231 H 999.196 -2.93012 0.639082 0
M  V30 10232 H 996.749 -1.51867 0.369624 0
M  V30 10233 H 997.484 -2.61803 -1.91388 0
M  V30 10234 H 997.269 -3.86628 -0.652753 0
M  V30 10235 H 998.759 -3.8394 -1.64256 0
M  V30 10236 N 999.196 -0.349774 -1.5367 0
M  V30 10237 C 1000.44 0.244343 -2.00617 0
M  V30 10238 C 1000.76 1.50567 -1.23914 0
M  V30 10239 O 1000.03 1.92784 -0.348016 0
M  V30 10240 H 998.615 0.0932792 -0.741153 0
M  V30 10241 H 1001.28 -0.472367 -1.89089 0
M  V30 10242 H 1000.37 0.482433 -3.08349 0
M  V30 10243 N 1000.67 1.57404 -0.0785433 0
M  V30 10244 C 1001.62 2.13104 0.88631 0
M  V30 10245 C 1002.59 1.04527 1.29086 0
M  V30 10246 O 1003.78 1.32226 1.37553 0
M  V30 10247 C 1000.92 2.70252 2.14611 0
M  V30 10248 C 1000.03 3.93007 1.79358 0
M  V30 10249 C 999.164 4.38376 3 0
M  V30 10250 C 998.203 5.53761 2.60796 0
M  V30 10251 N 997.34 5.94058 3.74219 0
M  V30 10252 H 1002.18 2.95243 0.404452 0
M  V30 10253 H 999.717 1.45894 0.187982 0
M  V30 10254 H 1001.67 3.01497 2.88367 0
M  V30 10255 H 1000.3 1.90868 2.60326 0
M  V30 10256 H 999.357 3.68181 0.956384 0
M  V30 10257 H 1000.67 4.76795 1.4652 0
M  V30 10258 H 999.823 4.71317 3.82027 0
M  V30 10259 H 998.562 3.53455 3.36037 0
M  V30 10260 H 997.567 5.20464 1.77192 0
M  V30 10261 H 998.792 6.40419 2.25922 0
M  V30 10262 H 996.738 5.12085 4.10005 0
M  V30 10263 H 996.655 6.72602 3.45171 0
M  V30 10264 H 997.923 6.31624 4.56805 0
M  V30 10265 N 1002.15 -0.195058 1.56388 0
M  V30 10266 C 1003.38 -0.931642 1.84738 0
M  V30 10267 C 1003.79 -1.76849 0.661046 0
M  V30 10268 O 1003.15 -1.78705 -0.370241 0
M  V30 10269 C 1003.2 -1.82777 3.11889 0
M  V30 10270 O 1002.92 -1.02471 4.25948 0
M  V30 10271 C 1004.42 -2.67603 3.53417 0
M  V30 10272 H 1001.64 -0.271821 0.613477 0
M  V30 10273 H 1004.19 -0.202299 2.03497 0
M  V30 10274 H 1002.34 -2.51074 2.95027 0
M  V30 10275 H 1002.76 -1.63539 4.98353 0
M  V30 10276 H 1004.23 -3.26138 4.45352 0
M  V30 10277 H 1004.71 -3.41314 2.76408 0
M  V30 10278 H 1005.31 -2.04678 3.7281 0
M  V30 10279 N 1003.63 -1.50653 -0.462772 0
M  V30 10280 C 1004.88 -1.61296 -1.21105 0
M  V30 10281 C 1005.19 -0.322757 -1.92919 0
M  V30 10282 O 1006.4 -0.308211 -2.69745 0
M  V30 10283 C 1004.85 -2.84752 -2.201 0
M  V30 10284 C 1004.46 -4.20681 -1.54051 0
M  V30 10285 C 1006.21 -3.04744 -2.95518 0
M  V30 10286 C 1004.11 -5.35314 -2.51381 0
M  V30 10287 H 1003.04 -0.60069 -0.455728 0
M  V30 10288 H 1005.69 -1.77093 -0.480656 0
M  V30 10289 H 1004.08 -2.62532 -2.96467 0
M  V30 10290 H 1005.25 -4.53187 -0.834168 0
M  V30 10291 H 1003.56 -4.06361 -0.908828 0
M  V30 10292 H 1006.16 -3.87559 -3.68378 0
M  V30 10293 H 1006.5 -2.16802 -3.55391 0
M  V30 10294 H 1007.04 -3.27185 -2.26263 0
M  V30 10295 H 1003.78 -6.25437 -1.96235 0
M  V30 10296 H 1003.3 -5.07216 -3.20144 0
M  V30 10297 H 1004.98 -5.66229 -3.1304 0
M  V30 10298 N 1005.11 0.71652 -1.4037 0
M  V30 10299 C 1006.04 1.84138 -1.36477 0
M  V30 10300 C 1007.05 1.6054 -0.27033 0
M  V30 10301 O 1008.24 1.70431 -0.530612 0
M  V30 10302 C 1005.34 3.20523 -1.10082 0
M  V30 10303 C 1004.52 3.71326 -2.31162 0
M  V30 10304 C 1003.57 4.86322 -2.00942 0
M  V30 10305 O 1002.6 4.99022 -2.73799 0
M  V30 10306 N 1003.8 5.72051 -0.986812 0
M  V30 10307 H 1006.57 1.87977 -2.3342 0
M  V30 10308 H 1004.13 0.89802 -1.34712 0
M  V30 10309 H 1006.12 3.95049 -0.878526 0
M  V30 10310 H 1004.69 3.11838 -0.21809 0
M  V30 10311 H 1003.91 2.87941 -2.69227 0
M  V30 10312 H 1005.2 4.02003 -3.11883 0
M  V30 10313 H 1004.6 5.64399 -0.383381 0
M  V30 10314 H 1003.15 6.46565 -0.824419 0
M  V30 10315 N 1006.59 1.25851 0.948643 0
M  V30 10316 C 1007.83 1.10954 1.69397 0
M  V30 10317 C 1008.16 -0.348443 1.91353 0
M  V30 10318 O 1007.42 -1.27285 1.48651 0
M  V30 10319 C 1007.72 1.81565 3.07846 0
M  V30 10320 C 1007.38 3.31477 3.0567 0
M  V30 10321 C 1006.04 3.72371 3.04784 0
M  V30 10322 C 1008.4 4.27225 2.98543 0
M  V30 10323 C 1005.72 5.07416 2.94527 0
M  V30 10324 C 1008.08 5.62301 2.89828 0
M  V30 10325 C 1006.74 6.02516 2.87281 0
M  V30 10326 H 1006.01 0.406011 0.619868 0
M  V30 10327 H 1008.66 1.562 1.10787 0
M  V30 10328 H 1006.96 1.28767 3.70035 0
M  V30 10329 H 1008.66 1.67486 3.64348 0
M  V30 10330 H 1005.25 2.98941 3.07135 0
M  V30 10331 H 1009.43 3.96618 2.98342 0
M  V30 10332 H 1004.69 5.37746 2.90928 0
M  V30 10333 H 1008.86 6.36182 2.83276 0
M  V30 10334 H 1006.49 7.07116 2.79089 0
M  V30 10335 N 1008.06 -1.15214 1.07534 0
M  V30 10336 C 1009.01 -2.20013 0.697337 0
M  V30 10337 C 1009.98 -1.6314 -0.312168 0
M  V30 10338 O 1011.17 -1.89768 -0.198196 0
M  V30 10339 C 1008.31 -3.44945 0.103293 0
M  V30 10340 C 1007.42 -4.16009 1.1645 0
M  V30 10341 C 1006.55 -5.28496 0.535261 0
M  V30 10342 C 1005.59 -5.9138 1.57912 0
M  V30 10343 N 1004.73 -6.95335 0.972332 0
M  V30 10344 H 1009.57 -2.51698 1.59538 0
M  V30 10345 H 1007.11 -1.2361 0.797431 0
M  V30 10346 H 1009.07 -4.16397 -0.258766 0
M  V30 10347 H 1007.7 -3.13772 -0.758096 0
M  V30 10348 H 1006.75 -3.43035 1.64411 0
M  V30 10349 H 1008.06 -4.58853 1.9559 0
M  V30 10350 H 1007.21 -6.06579 0.120942 0
M  V30 10351 H 1005.95 -4.8685 -0.287889 0
M  V30 10352 H 1004.96 -5.12008 2.0032 0
M  V30 10353 H 1006.18 -6.35103 2.40459 0
M  V30 10354 H 1004.13 -6.55779 0.170119 0
M  V30 10355 H 1004.05 -7.36616 1.70095 0
M  V30 10356 H 1005.31 -7.77312 0.583577 0
M  V30 10357 N 1009.54 -0.859717 -1.32086 0
M  V30 10358 C 1010.79 -0.465581 -1.97075 0
M  V30 10359 C 1011.12 0.979917 -1.68012 0
M  V30 10360 O 1010.37 1.70337 -0.96353 0
M  V30 10361 C 1010.67 -0.657397 -3.51302 0
M  V30 10362 C 1010.34 -2.07413 -4.00363 0
M  V30 10363 C 1009 -2.4616 -4.13472 0
M  V30 10364 C 1011.35 -2.99855 -4.26305 0
M  V30 10365 C 1008.68 -3.76611 -4.49868 0
M  V30 10366 C 1011.03 -4.2981 -4.64161 0
M  V30 10367 C 1009.7 -4.68485 -4.75476 0
M  V30 10368 H 1008.97 -0.170368 -0.721149 0
M  V30 10369 H 1011.61 -1.09074 -1.57401 0
M  V30 10370 H 1009.92 0.0509638 -3.91767 0
M  V30 10371 H 1011.61 -0.332416 -3.9962 0
M  V30 10372 H 1008.2 -1.76327 -3.90649 0
M  V30 10373 H 1012.39 -2.7115 -4.15682 0
M  V30 10374 H 1007.64 -4.06352 -4.56824 0
M  V30 10375 H 1011.82 -5.015 -4.83188 0
M  V30 10376 H 1009.45 -5.69612 -5.03435 0
M  V30 10377 N 1011.02 1.44971 -0.618145 0
M  V30 10378 C 1012.27 2.02159 -0.117482 0
M  V30 10379 C 1012.6 1.48517 1.2559 0
M  V30 10380 O 1011.85 0.654192 1.84442 0
M  V30 10381 C 1012.15 3.57378 -0.0394861 0
M  V30 10382 C 1011.82 4.30218 -1.34993 0
M  V30 10383 C 1010.48 4.49835 -1.70886 0
M  V30 10384 C 1012.83 4.71768 -2.21551 0
M  V30 10385 C 1010.16 5.08258 -2.9307 0
M  V30 10386 C 1012.51 5.31543 -3.42993 0
M  V30 10387 C 1011.17 5.49381 -3.79126 0
M  V30 10388 H 1010.44 0.739752 -0.0429897 0
M  V30 10389 H 1013.09 1.73903 -0.801871 0
M  V30 10390 H 1011.4 3.84973 0.728217 0
M  V30 10391 H 1013.09 3.99343 0.364213 0
M  V30 10392 H 1009.68 4.15271 -1.06057 0
M  V30 10393 H 1013.87 4.56336 -1.95117 0
M  V30 10394 H 1009.12 5.20257 -3.21158 0
M  V30 10395 H 1013.3 5.62691 -4.10308 0
M  V30 10396 H 1010.92 5.94419 -4.73888 0
M  V30 10397 N 1012.5 0.357919 1.53482 0
M  V30 10398 C 1013.75 -0.235241 2.00324 0
M  V30 10399 C 1014.06 -1.50494 1.24944 0
M  V30 10400 O 1015.27 -2.17623 1.62335 0
M  V30 10401 C 1013.72 -0.469748 3.56821 0
M  V30 10402 C 1013.33 0.784877 4.41071 0
M  V30 10403 C 1015.07 -1.02098 4.12039 0
M  V30 10404 C 1012.98 0.520377 5.89106 0
M  V30 10405 H 1011.91 -0.0916816 0.748405 0
M  V30 10406 H 1014.56 0.475474 1.77233 0
M  V30 10407 H 1012.94 -1.24153 3.76035 0
M  V30 10408 H 1014.12 1.55886 4.33631 0
M  V30 10409 H 1012.43 1.25878 3.96918 0
M  V30 10410 H 1015.03 -1.23406 5.20264 0
M  V30 10411 H 1015.37 -1.98084 3.66154 0
M  V30 10412 H 1015.91 -0.309554 3.96594 0
M  V30 10413 H 1012.65 1.45035 6.39254 0
M  V30 10414 H 1012.17 -0.215254 5.99414 0
M  V30 10415 H 1013.84 0.143006 6.46842 0
M  V30 10416 N 1013.98 -1.5736 0.0868897 0
M  V30 10417 C 1014.92 -2.13571 -0.874996 0
M  V30 10418 C 1015.89 -1.0521 -1.2853 0
M  V30 10419 O 1017.08 -1.32954 -1.3685 0
M  V30 10420 C 1014.22 -2.71386 -2.13175 0
M  V30 10421 C 1013.33 -3.93953 -1.77272 0
M  V30 10422 C 1012.47 -4.3996 -2.97671 0
M  V30 10423 C 1011.51 -5.55137 -2.57856 0
M  V30 10424 N 1010.64 -5.96034 -3.71064 0
M  V30 10425 H 1015.48 -2.95453 -0.388789 0
M  V30 10426 H 1013.02 -1.45992 -0.180242 0
M  V30 10427 H 1014.98 -3.03022 -2.86764 0
M  V30 10428 H 1013.61 -1.92245 -2.5931 0
M  V30 10429 H 1012.66 -3.68683 -0.936845 0
M  V30 10430 H 1013.97 -4.77565 -1.43989 0
M  V30 10431 H 1013.13 -4.73337 -3.79522 0
M  V30 10432 H 1011.86 -3.55232 -3.34158 0
M  V30 10433 H 1010.87 -5.21397 -1.7443 0
M  V30 10434 H 1012.09 -6.41608 -2.22522 0
M  V30 10435 H 1010.04 -5.14253 -4.07284 0
M  V30 10436 H 1009.96 -6.74423 -3.41599 0
M  V30 10437 H 1011.23 -6.34038 -4.53449 0
M  V30 10438 N 1015.45 0.186762 -1.56489 0
M  V30 10439 C 1016.87 0.537933 -1.50261 0
M  V30 10440 C 1017.07 1.85435 -0.788414 0
M  V30 10441 O 1016.13 2.50168 -0.342377 0
M  V30 10442 C 1017.44 0.584965 -2.94955 0
M  V30 10443 C 1018.99 0.673228 -3.05674 0
M  V30 10444 C 1019.46 0.751294 -4.51796 0
M  V30 10445 N 1020.95 0.814599 -4.55981 0
M  V30 10446 C 1021.69 0.895313 -5.66367 0
M  V30 10447 N 1021.18 0.937814 -6.86423 0
M  V30 10448 N 1022.98 0.933145 -5.543 0
M  V30 10449 H 1015.13 -0.676636 -2.01334 0
M  V30 10450 H 1017.39 -0.242079 -0.916571 0
M  V30 10451 H 1017.1 -0.313361 -3.50301 0
M  V30 10452 H 1016.97 1.4368 -3.48763 0
M  V30 10453 H 1019.36 1.56198 -2.50372 0
M  V30 10454 H 1019.44 -0.204976 -2.54977 0
M  V30 10455 H 1019.08 -0.133143 -5.07725 0
M  V30 10456 H 1019.01 1.64542 -5.00233 0
M  V30 10457 H 1021.5 0.790662 -3.69536 0
M  V30 10458 H 1021.82 1.00015 -7.66301 0
M  V30 10459 H 1020.16 0.906351 -6.89065 0
M  V30 10460 H 1023.35 0.896836 -4.59428 0
M  V30 10461 H 1023.53 0.992588 -6.40353 0
M  V30 10462 N 1016.93 1.50896 0.454776 0
M  V30 10463 C 1017.9 1.70377 1.53312 0
M  V30 10464 C 1018.9 0.57408 1.50203 0
M  V30 10465 O 1020.09 0.841374 1.52534 0
M  V30 10466 C 1017.22 1.74411 2.92905 0
M  V30 10467 H 1018.41 2.66599 1.37349 0
M  V30 10468 H 1015.96 1.40622 0.68228 0
M  V30 10469 H 1016.7 0.799408 3.14293 0
M  V30 10470 H 1016.48 2.56496 2.96568 0
M  V30 10471 H 1017.97 1.91382 3.71164 0
M  V30 10472 N 1018.41 -0.709066 1.40748 0
M  V30 10473 C 1019.69 -1.4626 1.29874 0
M  V30 10474 C 1020.07 -2.10949 -0.0799322 0
M  V30 10475 O 1019.42 -2.00651 -1.09323 0
M  V30 10476 C 1019.63 -2.49302 2.44232 0
M  V30 10477 C 1020.97 -3.14945 2.84771 0
M  V30 10478 O 1022 -2.59623 2.43873 0
M  V30 10479 O 1020.86 -4.15111 3.5545 0
M  V30 10480 H 1017.95 -0.650716 0.51039 0
M  V30 10481 H 1020.5 -0.740687 1.52682 0
M  V30 10482 H 1019.27 -2.00063 3.36289 0
M  V30 10483 H 1018.89 -3.29021 2.23229 0
M  V30 10484 N 1019.89 -1.26353 -0.941956 0
M  V30 10485 C 1021.14 -1.1163 -1.68473 0
M  V30 10486 C 1021.46 0.34108 -1.91994 0
M  V30 10487 O 1020.73 1.24065 -1.51607 0
M  V30 10488 H 1019.31 -0.410113 -0.624353 0
M  V30 10489 H 1021.97 -1.58669 -1.13182 0
M  V30 10490 H 1021.07 -1.63445 -2.6588 0
M  V30 10491 N 1021.37 1.14642 -1.08144 0
M  V30 10492 C 1022.6 1.89484 -0.830864 0
M  V30 10493 C 1023.01 1.78443 0.616722 0
M  V30 10494 O 1022.37 1.14191 1.42361 0
M  V30 10495 C 1022.42 3.39554 -1.24039 0
M  V30 10496 O 1022.14 3.50286 -2.63119 0
M  V30 10497 C 1023.64 4.31399 -1.02029 0
M  V30 10498 H 1020.86 0.600283 -0.299835 0
M  V30 10499 H 1023.4 1.45204 -1.44001 0
M  V30 10500 H 1021.56 3.81467 -0.675407 0
M  V30 10501 H 1021.97 4.43481 -2.80045 0
M  V30 10502 H 1023.45 5.35079 -1.35625 0
M  V30 10503 H 1023.92 4.39179 0.0428697 0
M  V30 10504 H 1024.53 3.95238 -1.57057 0
M  V30 10505 N 1022.85 0.866709 1.31628 0
M  V30 10506 C 1024.09 0.472185 1.96095 0
M  V30 10507 C 1024.41 -0.979873 1.69286 0
M  V30 10508 O 1025.61 -1.48039 2.27589 0
M  V30 10509 C 1024.07 0.793468 3.51044 0
M  V30 10510 C 1023.68 2.26206 3.86697 0
M  V30 10511 C 1025.42 0.467255 4.21921 0
M  V30 10512 C 1023.33 2.52593 5.34743 0
M  V30 10513 H 1022.26 0.172846 0.733921 0
M  V30 10514 H 1024.91 1.05916 1.49847 0
M  V30 10515 H 1023.29 0.135783 3.95767 0
M  V30 10516 H 1024.47 2.96254 3.52945 0
M  V30 10517 H 1022.78 2.55399 3.28877 0
M  V30 10518 H 1025.38 0.641669 5.30836 0
M  V30 10519 H 1025.72 -0.592065 4.12068 0
M  V30 10520 H 1026.25 1.08134 3.82821 0
M  V30 10521 H 1022.99 3.57196 5.49628 0
M  V30 10522 H 1022.51 1.87136 5.6986 0
M  V30 10523 H 1024.19 2.37156 6.01968 0
M  V30 10524 N 1024.32 -1.44642 0.625825 0
M  V30 10525 C 1025.26 -2.28882 -0.120614 0
M  V30 10526 C 1026.27 -1.40985 -0.81407 0
M  V30 10527 O 1027.46 -1.65188 -0.676404 0
M  V30 10528 C 1024.56 -3.17217 -1.19274 0
M  V30 10529 C 1023.73 -4.33499 -0.582839 0
M  V30 10530 C 1022.79 -5.02908 -1.54823 0
M  V30 10531 O 1021.82 -5.59102 -1.06743 0
M  V30 10532 N 1023.02 -5.0387 -2.88262 0
M  V30 10533 H 1025.78 -2.93585 0.602318 0
M  V30 10534 H 1023.34 -1.5503 0.466604 0
M  V30 10535 H 1025.34 -3.60515 -1.83878 0
M  V30 10536 H 1023.91 -2.54301 -1.81797 0
M  V30 10537 H 1023.13 -3.93458 0.241696 0
M  V30 10538 H 1024.41 -5.08561 -0.155914 0
M  V30 10539 H 1023.81 -4.59539 -3.2991 0
M  V30 10540 H 1022.37 -5.50974 -3.4824 0
M  V30 10541 N 1025.8 -0.366053 -1.5329 0
M  V30 10542 C 1027.05 0.216398 -2.02246 0
M  V30 10543 C 1027.4 1.46384 -1.24858 0
M  V30 10544 O 1026.7 1.88667 -0.333977 0
M  V30 10545 C 1026.89 0.560906 -3.52971 0
M  V30 10546 C 1026.72 -0.651598 -4.44954 0
M  V30 10547 C 1025.49 -1.16381 -4.91715 0
M  V30 10548 C 1027.69 -1.51695 -4.91419 0
M  V30 10549 N 1025.67 -2.33629 -5.67706 0
M  V30 10550 C 1027.04 -2.53608 -5.65759 0
M  V30 10551 C 1029.09 -1.53977 -4.73493 0
M  V30 10552 C 1027.8 -3.57661 -6.24076 0
M  V30 10553 C 1029.82 -2.56923 -5.32677 0
M  V30 10554 C 1029.19 -3.5756 -6.06902 0
M  V30 10555 H 1025.28 0.0418889 -0.780877 0
M  V30 10556 H 1027.87 -0.510704 -1.87883 0
M  V30 10557 H 1026.04 1.25708 -3.67494 0
M  V30 10558 H 1027.77 1.12849 -3.88648 0
M  V30 10559 H 1024.53 -0.728374 -4.67965 0
M  V30 10560 H 1024.95 -2.92891 -6.10364 0
M  V30 10561 H 1029.59 -0.775265 -4.15631 0
M  V30 10562 H 1027.31 -4.34993 -6.81034 0
M  V30 10563 H 1030.9 -2.59544 -5.207 0
M  V30 10564 H 1029.78 -4.35912 -6.51882 0
M  V30 10565 N 1027.28 1.57312 -0.0952337 0
M  V30 10566 C 1028.19 2.17556 0.877877 0
M  V30 10567 C 1029.21 1.14505 1.31014 0
M  V30 10568 O 1030.38 1.46876 1.37802 0
M  V30 10569 C 1027.45 2.74413 2.11892 0
M  V30 10570 C 1026.51 3.92419 1.74085 0
M  V30 10571 C 1025.74 4.46556 2.92273 0
M  V30 10572 O 1025.96 3.99631 4.07002 0
M  V30 10573 O 1024.9 5.37576 2.70732 0
M  V30 10574 H 1028.72 3.01116 0.395312 0
M  V30 10575 H 1026.31 1.48841 0.129123 0
M  V30 10576 H 1028.19 3.10754 2.84622 0
M  V30 10577 H 1026.87 1.93899 2.59201 0
M  V30 10578 H 1025.77 3.6089 0.985346 0
M  V30 10579 H 1027.11 4.74298 1.31539 0
M  V30 10580 N 1028.76 -0.17846 1.56586 0
M  V30 10581 C 1029.71 -1.24042 1.96765 0
M  V30 10582 C 1030.7 -1.46218 0.855375 0
M  V30 10583 O 1031.91 -1.46882 1.04046 0
M  V30 10584 H 1028.28 -0.416807 0.62592 0
M  V30 10585 H 1030.25 -0.874644 2.85294 0
M  V30 10586 C 1029 -2.57394 2.3376 0
M  V30 10587 H 1028.32 -2.41151 3.18883 0
M  V30 10588 H 1029.76 -3.30405 2.65723 0
M  V30 10589 C 1028.22 -3.15621 1.17835 0
M  V30 10590 O 1028.75 -3.99032 0.462202 0
M  V30 10591 N 1026.96 -2.74606 0.950783 0
M  V30 10592 H 1026.51 -2.06878 1.5349 0
M  V30 10593 H 1026.46 -3.13902 0.176967 0
M  V30 10594 N 1030.24 -1.51135 -0.446768 0
M  V30 10595 C 1031.48 -1.63013 -1.19461 0
M  V30 10596 C 1031.8 -0.344067 -1.91941 0
M  V30 10597 O 1031.07 0.639666 -1.85162 0
M  V30 10598 H 1029.65 -0.600757 -0.443959 0
M  V30 10599 H 1032.32 -1.88024 -0.513137 0
M  V30 10600 H 1031.41 -2.45322 -1.92933 0
M  V30 10601 N 1031.71 0.701592 -1.41122 0
M  V30 10602 C 1032.94 1.49553 -1.43696 0
M  V30 10603 C 1033.36 1.88053 -0.0421865 0
M  V30 10604 O 1032.72 1.54223 0.953144 0
M  V30 10605 C 1032.77 2.73834 -2.34622 0
M  V30 10606 O 1031.87 3.71088 -1.7991 0
M  V30 10607 H 1031.21 0.450352 -0.487933 0
M  V30 10608 H 1033.74 0.862886 -1.85514 0
M  V30 10609 H 1033.75 3.22209 -2.5029 0
M  V30 10610 H 1032.43 2.45149 -3.35969 0
M  V30 10611 H 1031.01 3.29994 -1.73661 0
M  V30 10612 N 1033.19 1.2685 0.935242 0
M  V30 10613 C 1034.14 1.08746 2.05614 0
M  V30 10614 C 1035.13 0.012681 1.69395 0
M  V30 10615 O 1036.34 0.169822 1.79197 0
M  V30 10616 H 1032.71 0.33485 0.673335 0
M  V30 10617 H 1034.69 2.03725 2.18033 0
M  V30 10618 C 1033.43 0.74346 3.39659 0
M  V30 10619 H 1032.76 1.56236 3.68008 0
M  V30 10620 H 1034.2 0.656607 4.18885 0
M  V30 10621 C 1032.66 -0.551751 3.32351 0
M  V30 10622 O 1033.19 -1.58836 3.68963 0
M  V30 10623 N 1031.39 -0.544583 2.85452 0
M  V30 10624 H 1030.94 0.29939 2.55854 0
M  V30 10625 H 1030.9 -1.41129 2.80945 0
M  V30 10626 N 1034.67 -1.14067 1.0875 0
M  V30 10627 C 1035.62 -2.17302 0.690195 0
M  V30 10628 C 1036.6 -1.58229 -0.291948 0
M  V30 10629 O 1037.8 -1.76698 -0.103411 0
M  V30 10630 C 1034.93 -3.4314 0.104835 0
M  V30 10631 C 1034.01 -4.09235 1.11298 0
M  V30 10632 N 1034.4 -4.50601 2.29765 0
M  V30 10633 C 1032.7 -4.35775 0.949535 0
M  V30 10634 C 1033.4 -5.02029 2.93839 0
M  V30 10635 N 1032.38 -4.96457 2.21431 0
M  V30 10636 H 1036.18 -2.47031 1.59226 0
M  V30 10637 H 1033.69 -1.30788 0.962722 0
M  V30 10638 H 1035.69 -4.16431 -0.197777 0
M  V30 10639 H 1034.35 -3.14888 -0.792172 0
M  V30 10640 H 1035.36 -4.43529 2.67399 0
M  V30 10641 H 1032.04 -4.17364 0.106627 0
M  V30 10642 H 1033.43 -5.43885 3.94511 0
M  V30 10643 N 1036.15 -0.873678 -1.31166 0
M  V30 10644 C 1037.39 -0.487178 -1.96861 0
M  V30 10645 C 1037.73 0.95887 -1.68877 0
M  V30 10646 O 1037 1.6758 -0.987279 0
M  V30 10647 C 1037.29 -0.74925 -3.52219 0
M  V30 10648 C 1037.14 -2.2451 -3.89763 0
M  V30 10649 C 1038.46 -0.218194 -4.39559 0
M  V30 10650 H 1035.58 -0.178477 -0.715063 0
M  V30 10651 H 1038.22 -1.0956 -1.55231 0
M  V30 10652 H 1036.37 -0.231403 -3.8781 0
M  V30 10653 H 1038.04 -2.83049 -3.64254 0
M  V30 10654 H 1036.28 -2.71621 -3.38237 0
M  V30 10655 H 1036.95 -2.37911 -4.98099 0
M  V30 10656 H 1039.43 -0.661274 -4.10812 0
M  V30 10657 H 1038.31 -0.430983 -5.47205 0
M  V30 10658 H 1038.57 0.880056 -4.33252 0
M  V30 10659 N 1037.63 1.44308 -0.633487 0
M  V30 10660 C 1038.59 2.2912 0.060376 0
M  V30 10661 C 1039.59 1.41166 0.769992 0
M  V30 10662 O 1040.78 1.63012 0.614224 0
M  V30 10663 C 1037.91 3.22798 1.0961 0
M  V30 10664 H 1039.1 2.91958 -0.685617 0
M  V30 10665 H 1036.66 1.51259 -0.393738 0
M  V30 10666 H 1037.39 2.64815 1.87199 0
M  V30 10667 H 1037.18 3.87618 0.591161 0
M  V30 10668 H 1038.67 3.86504 1.58127 0
M  V30 10669 N 1039.1 0.374177 1.53094 0
M  V30 10670 C 1040.33 -0.213325 2.05797 0
M  V30 10671 C 1040.75 -1.41753 1.24706 0
M  V30 10672 O 1040.1 -1.80183 0.289868 0
M  V30 10673 C 1040.16 -0.598367 3.56513 0
M  V30 10674 O 1039.88 0.557983 4.34532 0
M  V30 10675 C 1041.38 -1.24334 4.25507 0
M  V30 10676 H 1038.6 -0.0357398 0.670048 0
M  V30 10677 H 1041.14 0.535035 1.97377 0
M  V30 10678 H 1039.3 -1.29663 3.65056 0
M  V30 10679 H 1039.71 0.244911 5.23928 0
M  V30 10680 H 1041.18 -1.46325 5.32253 0
M  V30 10681 H 1041.66 -2.20622 3.79766 0
M  V30 10682 H 1042.27 -0.586269 4.2124 0
M  V30 10683 N 1040.58 -1.57259 0.103575 0
M  V30 10684 C 1041.81 -1.99 -0.566275 0
M  V30 10685 C 1042.23 -0.982909 -1.61197 0
M  V30 10686 O 1041.58 0.026345 -1.82481 0
M  V30 10687 C 1041.63 -3.40778 -1.20635 0
M  V30 10688 O 1041.35 -4.37632 -0.202472 0
M  V30 10689 C 1042.86 -3.97567 -1.961 0
M  V30 10690 H 1040.08 -0.653751 -0.151164 0
M  V30 10691 H 1042.62 -2.03658 0.185365 0
M  V30 10692 H 1040.77 -3.37107 -1.90886 0
M  V30 10693 H 1041.19 -5.2026 -0.665535 0
M  V30 10694 H 1042.66 -4.98897 -2.36233 0
M  V30 10695 H 1043.14 -3.35853 -2.83018 0
M  V30 10696 H 1043.75 -4.04737 -1.30645 0
M  V30 10697 N 1042.06 0.170153 -1.56679 0
M  V30 10698 C 1043.47 0.732502 -1.7173 0
M  V30 10699 C 1043.82 1.82736 -0.71428 0
M  V30 10700 O 1042.95 2.16044 0.124102 0
M  V30 10701 C 1043.54 1.33548 -3.11368 0
M  V30 10702 C 1042.1 1.84464 -3.281 0
M  V30 10703 C 1041.25 0.724069 -2.6768 0
M  V30 10704 H 1044.2 -0.0552543 -1.58604 0
M  V30 10705 H 1044.22 2.20519 -3.10083 0
M  V30 10706 H 1043.73 0.5384 -3.84347 0
M  V30 10707 H 1041.83 2.66813 -2.6008 0
M  V30 10708 H 1041.95 1.98928 -4.35849 0
M  V30 10709 H 1040.31 1.14481 -2.27522 0
M  V30 10710 H 1041.09 -0.0611861 -3.43245 0
M  V30 10711 N 1043.54 1.5137 0.438746 0
M  V30 10712 C 1044.77 1.67774 1.21077 0
M  V30 10713 C 1045.18 0.374489 1.85049 0
M  V30 10714 O 1044.54 -0.646867 1.70651 0
M  V30 10715 C 1044.59 2.79238 2.29584 0
M  V30 10716 O 1044.31 4.04513 1.68228 0
M  V30 10717 C 1045.81 3.06898 3.19888 0
M  V30 10718 H 1043.03 0.563054 0.364981 0
M  V30 10719 H 1045.58 1.97777 0.520035 0
M  V30 10720 H 1043.73 2.51837 2.94375 0
M  V30 10721 H 1044.14 4.66405 2.3993 0
M  V30 10722 H 1045.62 3.88476 3.92162 0
M  V30 10723 H 1046.1 2.19249 3.80561 0
M  V30 10724 H 1046.7 3.35952 2.60799 0
M  V30 10725 N 1045.02 -0.694098 1.41492 0
M  V30 10726 C 1046.26 -1.45127 1.4065 0
M  V30 10727 C 1046.59 -1.94993 0.0170289 0
M  V30 10728 O 1045.86 -1.71799 -0.941372 0
M  V30 10729 H 1044.44 -0.538493 0.51772 0
M  V30 10730 H 1047.1 -0.821441 1.76744 0
M  V30 10731 H 1046.19 -2.31372 2.0946 0
M  V30 10732 N 1046.49 -1.27344 -0.928501 0
M  V30 10733 C 1047.46 -1.10043 -2.01055 0
M  V30 10734 C 1048.46 -0.0446793 -1.60738 0
M  V30 10735 O 1049.65 -0.289202 -1.71783 0
M  V30 10736 C 1046.78 -0.676559 -3.34119 0
M  V30 10737 H 1047.97 -2.06126 -2.17835 0
M  V30 10738 H 1045.53 -1.10121 -1.10919 0
M  V30 10739 H 1046.26 0.285697 -3.23039 0
M  V30 10740 H 1046.05 -1.43903 -3.64739 0
M  V30 10741 H 1047.54 -0.577725 -4.13584 0
M  V30 10742 N 1047.97 1.13488 -1.09353 0
M  V30 10743 C 1049.2 1.88592 -0.850915 0
M  V30 10744 C 1049.62 1.79087 0.597761 0
M  V30 10745 O 1048.97 1.15695 1.41142 0
M  V30 10746 C 1049.02 3.38219 -1.27633 0
M  V30 10747 O 1048.74 3.47476 -2.66819 0
M  V30 10748 C 1050.25 4.30293 -1.06598 0
M  V30 10749 H 1047.47 0.597069 -0.306185 0
M  V30 10750 H 1050.01 1.43668 -1.45533 0
M  V30 10751 H 1048.16 3.80729 -0.715828 0
M  V30 10752 H 1048.58 4.40485 -2.84733 0
M  V30 10753 H 1050.05 5.33611 -1.41293 0
M  V30 10754 H 1050.53 4.392 -0.0037135 0
M  V30 10755 H 1051.14 3.9355 -1.6124 0
M  V30 10756 N 1049.45 0.880621 1.30701 0
M  V30 10757 C 1050.7 0.495894 1.95922 0
M  V30 10758 C 1051.02 -0.957214 1.69889 0
M  V30 10759 O 1050.29 -1.67245 1.0201 0
M  V30 10760 H 1048.87 0.180394 0.724891 0
M  V30 10761 H 1051.53 1.12274 1.59313 0
M  V30 10762 H 1050.63 0.662508 3.04987 0
M  V30 10763 N 1050.93 -1.4397 0.641131 0
M  V30 10764 C 1051.88 -2.32495 -0.0698668 0
M  V30 10765 C 1052.87 -1.47922 -0.825555 0
M  V30 10766 O 1054.08 -1.64206 -0.737323 0
M  V30 10767 H 1050.45 -0.750861 -0.0413706 0
M  V30 10768 H 1052.42 -2.90201 0.694682 0
M  V30 10769 C 1051.17 -3.32063 -1.03098 0
M  V30 10770 H 1050.5 -3.97157 -0.458923 0
M  V30 10771 H 1051.94 -3.96664 -1.49778 0
M  V30 10772 C 1050.39 -2.61743 -2.12113 0
M  V30 10773 O 1050.92 -2.42385 -3.20332 0
M  V30 10774 N 1049.13 -2.21316 -1.88328 0
M  V30 10775 H 1048.68 -2.37261 -1.00324 0
M  V30 10776 H 1048.64 -1.74594 -2.61465 0
M  V30 10777 N 1052.41 -0.382291 -1.52893 0
M  V30 10778 C 1053.66 0.203342 -2.00672 0
M  V30 10779 C 1053.97 1.48487 -1.27322 0
M  V30 10780 O 1055.18 2.15013 -1.65776 0
M  V30 10781 C 1053.63 0.412922 -3.57523 0
M  V30 10782 C 1053.24 -0.854949 -4.39767 0
M  V30 10783 C 1054.98 0.955301 -4.13611 0
M  V30 10784 C 1052.89 -0.614033 -5.88204 0
M  V30 10785 H 1051.82 0.0797635 -0.749769 0
M  V30 10786 H 1054.47 -0.50361 -1.76454 0
M  V30 10787 H 1052.85 1.18155 -3.77962 0
M  V30 10788 H 1054.03 -1.62765 -4.31096 0
M  V30 10789 H 1052.34 -1.32176 -3.94865 0
M  V30 10790 H 1054.94 1.15114 -5.22162 0
M  V30 10791 H 1055.28 1.92233 -3.69259 0
M  V30 10792 H 1055.82 0.24642 -3.97036 0
M  V30 10793 H 1052.55 -1.55187 -6.36865 0
M  V30 10794 H 1052.07 0.119865 -5.9968 0
M  V30 10795 H 1053.75 -0.245895 -6.46533 0
M  V30 10796 N 1053.89 1.57202 -0.111913 0
M  V30 10797 C 1055.11 1.99297 0.555713 0
M  V30 10798 C 1055.53 0.991444 1.60673 0
M  V30 10799 O 1054.89 -0.0166672 1.82492 0
M  V30 10800 C 1054.94 3.41413 1.18826 0
M  V30 10801 O 1054.66 4.37733 0.179261 0
M  V30 10802 C 1056.16 3.98602 1.93989 0
M  V30 10803 H 1053.38 0.654543 0.147695 0
M  V30 10804 H 1055.92 2.03557 -0.196163 0
M  V30 10805 H 1054.08 3.38115 1.89096 0
M  V30 10806 H 1054.49 5.20606 0.637935 0
M  V30 10807 H 1055.97 5.00143 2.33584 0
M  V30 10808 H 1056.44 3.37349 2.81233 0
M  V30 10809 H 1057.05 4.05424 1.28497 0
M  V30 10810 N 1055.36 -0.161842 1.56767 0
M  V30 10811 C 1056.61 -0.878224 1.82798 0
M  V30 10812 C 1056.94 -1.81481 0.691242 0
M  V30 10813 O 1056.22 -1.92075 -0.30618 0
M  V30 10814 C 1056.5 -1.66565 3.19262 0
M  V30 10815 C 1056.35 -0.751551 4.43477 0
M  V30 10816 C 1057.67 -2.63134 3.52773 0
M  V30 10817 H 1054.79 -0.317828 0.664947 0
M  V30 10818 H 1057.43 -0.14402 1.89453 0
M  V30 10819 H 1055.58 -2.29157 3.13719 0
M  V30 10820 H 1057.26 -0.137783 4.61094 0
M  V30 10821 H 1055.5 -0.0601785 4.33758 0
M  V30 10822 H 1056.17 -1.33823 5.35533 0
M  V30 10823 H 1058.65 -2.10666 3.5883 0
M  V30 10824 H 1057.52 -3.15289 4.49315 0
M  V30 10825 H 1057.78 -3.43786 2.77963 0
M  V30 10826 N 1056.84 -1.516 -0.430713 0
M  V30 10827 C 1058.07 -1.68414 -1.20185 0
M  V30 10828 C 1058.48 -0.384297 -1.84847 0
M  V30 10829 O 1057.84 0.637808 -1.70992 0
M  V30 10830 C 1057.89 -2.80451 -2.28099 0
M  V30 10831 O 1057.61 -4.05399 -1.66081 0
M  V30 10832 C 1059.11 -3.0859 -3.18256 0
M  V30 10833 H 1056.33 -0.564982 -0.361989 0
M  V30 10834 H 1058.88 -1.9805 -0.50954 0
M  V30 10835 H 1057.03 -2.53395 -2.93036 0
M  V30 10836 H 1057.45 -4.67671 -2.37453 0
M  V30 10837 H 1058.92 -3.9055 -3.90096 0
M  V30 10838 H 1059.4 -2.21264 -3.79393 0
M  V30 10839 H 1060 -3.37331 -2.59014 0
M  V30 10840 N 1058.32 0.686584 -1.41858 0
M  V30 10841 C 1059.57 1.44738 -1.42908 0
M  V30 10842 C 1059.92 1.92357 -0.0404705 0
M  V30 10843 O 1059.21 1.67221 0.935287 0
M  V30 10844 C 1059.41 2.66793 -2.37816 0
M  V30 10845 C 1059.24 2.31114 -3.85767 0
M  V30 10846 C 1058.01 2.21043 -4.54388 0
M  V30 10847 C 1060.2 1.93512 -4.76505 0
M  V30 10848 N 1058.19 1.78344 -5.87424 0
M  V30 10849 C 1059.56 1.61642 -5.98558 0
M  V30 10850 C 1061.61 1.80401 -4.64069 0
M  V30 10851 C 1060.32 1.17977 -7.09559 0
M  V30 10852 C 1062.34 1.38141 -5.7504 0
M  V30 10853 C 1061.7 1.07186 -6.96197 0
M  V30 10854 H 1057.8 0.526577 -0.578136 0
M  V30 10855 H 1060.39 0.793483 -1.77797 0
M  V30 10856 H 1058.56 3.29889 -2.05007 0
M  V30 10857 H 1060.29 3.33318 -2.29524 0
M  V30 10858 H 1057.04 2.39731 -4.08443 0
M  V30 10859 H 1057.47 1.59451 -6.57955 0
M  V30 10860 H 1062.11 2.02983 -3.70888 0
M  V30 10861 H 1059.83 0.941397 -8.02598 0
M  V30 10862 H 1063.41 1.28533 -5.67425 0
M  V30 10863 H 1062.29 0.749804 -7.80607 0
M  V30 10864 N 1059.8 1.27835 0.921735 0
M  V30 10865 C 1060.73 1.06874 2.02758 0
M  V30 10866 C 1061.74 0.0229418 1.62784 0
M  V30 10867 O 1062.93 0.265145 1.7652 0
M  V30 10868 C 1060.03 0.60037 3.3354 0
M  V30 10869 C 1059.2 1.71979 4.02172 0
M  V30 10870 C 1058.26 1.24615 5.11231 0
M  V30 10871 O 1057.29 1.94692 5.34868 0
M  V30 10872 N 1058.49 0.105021 5.80405 0
M  V30 10873 H 1061.26 2.02105 2.213 0
M  V30 10874 H 1058.82 1.19481 1.09251 0
M  V30 10875 H 1060.81 0.267281 4.03816 0
M  V30 10876 H 1059.38 -0.258872 3.11526 0
M  V30 10877 H 1058.6 2.22287 3.25549 0
M  V30 10878 H 1059.89 2.47092 4.44773 0
M  V30 10879 H 1059.29 -0.479745 5.63662 0
M  V30 10880 H 1057.84 -0.168846 6.51581 0
M  V30 10881 N 1061.28 -1.12907 1.09954 0
M  V30 10882 C 1062.22 -2.20561 0.73863 0
M  V30 10883 C 1063.22 -1.67347 -0.262944 0
M  V30 10884 O 1064.42 -1.79574 -0.123834 0
M  V30 10885 H 1060.8 -0.718823 0.220901 0
M  V30 10886 H 1062.77 -2.4826 1.65559 0
M  V30 10887 C 1061.52 -3.47227 0.181239 0
M  V30 10888 H 1060.84 -3.88516 0.943144 0
M  V30 10889 H 1062.28 -4.23987 -0.0332888 0
M  V30 10890 C 1060.74 -3.18956 -1.08485 0
M  V30 10891 O 1061.27 -3.38224 -2.1672 0
M  V30 10892 N 1059.48 -2.72797 -1.00151 0
M  V30 10893 H 1059.02 -2.57317 -0.120645 0
M  V30 10894 H 1058.98 -2.54256 -1.84935 0
M  V30 10895 O 1062.79 -1.02045 -1.25176 0
M  V30 10896 H 1063.48 -0.682256 -1.81287 0
M  V30 END ATOM
M  V30 BEGIN BOND
M  V30 END BOND
M  V30 END CTAB
M  END
$$$$
