drugbank_target|P84887 Aralkylamine dehydrogenase light chain (DB08649; DB08652; DB08653; DB08767)
 OpenBabel12092120513D

  0  0  0     0  0            999 V3000
M  V30 BEGIN CTAB
M  V30 COUNTS 2668 2702 0 0 0
M  V30 BEGIN ATOM
M  V30 1 H -0.908 1.98254 -0.117106 0
M  V30 2 N 0 1.576 0 0
M  V30 3 C 0.933 2.03868 1.02534 0
M  V30 4 C 1.911 0.928543 1.3348 0
M  V30 5 O 3.095 1.19667 1.45644 0
M  V30 6 C 0.222 2.43627 2.35294 0
M  V30 7 C -0.732 3.65373 2.2001 0
M  V30 8 S 0.101 5.13292 1.52614 0
M  V30 9 C 1.257 5.56322 2.86805 0
M  V30 10 H 1.49 2.90518 0.631377 0
M  V30 11 H -0.977 1.52953 0.210867 0
M  V30 12 H 0.981 2.67203 3.11629 0
M  V30 13 H -0.358 1.57376 2.7183 0
M  V30 14 H -1.165 3.90944 3.18086 0
M  V30 15 H -1.563 3.418 1.51819 0
M  V30 16 H 0.729 5.58782 3.83104 0
M  V30 17 H 1.672 6.56266 2.65933 0
M  V30 18 H 2.08 4.83886 2.90714 0
M  V30 19 N 1.4781 -0.272755 1.55222 0
M  V30 20 C 2.8941 -0.619959 1.47067 0
M  V30 21 C 3.0941 -1.895 0.684978 0
M  V30 22 O 2.1501 -2.51675 0.203931 0
M  V30 23 C 3.4631 -0.746693 2.91282 0
M  V30 24 C 5.0111 -0.840731 3.01497 0
M  V30 25 C 5.4861 -0.99924 4.46967 0
M  V30 26 N 6.9771 -1.06476 4.50796 0
M  V30 27 C 7.7121 -1.20621 5.6057 0
M  V30 28 N 7.2081 -1.31483 6.80209 0
M  V30 29 N 9.0011 -1.23733 5.48312 0
M  V30 30 H 1.1521 0.564606 2.04758 0
M  V30 31 H 3.4151 0.191177 0.928523 0
M  V30 32 H 3.1211 0.119753 3.51496 0
M  V30 33 H 2.9951 -1.6269 3.40311 0
M  V30 34 H 5.3821 -1.69764 2.41379 0
M  V30 35 H 5.4631 0.0640874 2.5572 0
M  V30 36 H 5.1071 -0.146984 5.07687 0
M  V30 37 H 5.0371 -1.91871 4.90401 0
M  V30 38 H 7.5281 -0.993196 3.64615 0
M  V30 39 H 7.8411 -1.42111 7.59621 0
M  V30 40 H 6.1861 -1.28487 6.8302 0
M  V30 41 H 9.3771 -1.14877 4.53785 0
M  V30 42 H 9.5501 -1.34412 6.33906 0
M  V30 43 N 2.9562 -1.48159 -0.537278 0
M  V30 44 C 4.2022 -1.57015 -1.29297 0
M  V30 45 C 4.5572 -0.237791 -1.90925 0
M  V30 46 O 3.8502 0.758621 -1.75942 0
M  V30 47 C 4.0442 -2.63956 -2.40961 0
M  V30 48 C 3.8732 -4.07461 -1.90278 0
M  V30 49 C 2.6432 -4.74685 -1.73213 0
M  V30 50 C 4.8412 -4.93858 -1.43556 0
M  V30 51 N 2.8232 -6.02633 -1.17078 0
M  V30 52 C 4.1942 -6.11993 -0.993204 0
M  V30 53 C 6.2492 -4.80141 -1.31792 0
M  V30 54 C 4.9522 -7.17923 -0.444872 0
M  V30 55 C 6.9782 -5.86186 -0.783585 0
M  V30 56 C 6.3402 -7.03524 -0.351261 0
M  V30 57 H 2.4392 -0.629154 -0.464423 0
M  V30 58 H 5.0232 -1.85006 -0.606705 0
M  V30 59 H 3.1942 -2.378 -3.07093 0
M  V30 60 H 4.9262 -2.62539 -3.07986 0
M  V30 61 H 1.6812 -4.30902 -1.9652 0
M  V30 62 H 2.1052 -6.7085 -0.910421 0
M  V30 63 H 6.7472 -3.89772 -1.63823 0
M  V30 64 H 4.4652 -8.08022 -0.11222 0
M  V30 65 H 8.0512 -5.77624 -0.695835 0
M  V30 66 H 6.9312 -7.8418 0.055777 0
M  V30 67 N 4.4343 0.785586 -1.36625 0
M  V30 68 C 5.3643 1.91259 -1.33949 0
M  V30 69 C 6.3453 1.68795 -0.210325 0
M  V30 70 O 7.5303 1.89854 -0.408561 0
M  V30 71 C 4.6603 3.28339 -1.13186 0
M  V30 72 C 3.6143 3.65335 -2.22967 0
M  V30 73 C 2.9403 5.00806 -1.87342 0
M  V30 74 C 4.2403 3.7352 -3.65075 0
M  V30 75 H 5.9343 1.93755 -2.28253 0
M  V30 76 H 3.4803 0.930788 -1.09874 0
M  V30 77 H 5.4333 4.06804 -1.09948 0
M  V30 78 H 4.1573 3.2624 -0.153332 0
M  V30 79 H 2.8163 2.89169 -2.25337 0
M  V30 80 H 2.4643 4.95233 -0.880545 0
M  V30 81 H 2.1643 5.26529 -2.60846 0
M  V30 82 H 3.6883 5.81687 -1.85667 0
M  V30 83 H 5.1023 4.42168 -3.64911 0
M  V30 84 H 3.4993 4.10731 -4.37516 0
M  V30 85 H 4.5693 2.74527 -3.99703 0
M  V30 86 N 5.9124 1.20967 1.01018 0
M  V30 87 C 7.1894 0.93264 1.71934 0
M  V30 88 C 7.5694 -0.55692 2.03621 0
M  V30 89 O 6.9174 -1.52035 1.7058 0
M  V30 90 C 7.1274 1.81233 2.98254 0
M  V30 91 C 8.4754 2.05804 3.71389 0
M  V30 92 O 9.4994 1.78539 3.08225 0
M  V30 93 O 8.3584 2.51888 4.84989 0
M  V30 94 H 5.4524 0.349272 0.749625 0
M  V30 95 H 7.9984 1.31871 1.06808 0
M  V30 96 H 6.7704 2.82067 2.71208 0
M  V30 97 H 6.3934 1.42674 3.7112 0
M  V30 98 N 7.3905 -1.2043 1.01659 0
M  V30 99 C 8.3375 -2.23215 0.586822 0
M  V30 100 C 9.3075 -1.61382 -0.393085 0
M  V30 101 O 10.4925 -1.88544 -0.292525 0
M  V30 102 C 7.6325 -3.45032 -0.0687464 0
M  V30 103 C 6.7455 -4.21296 0.955724 0
M  V30 104 C 5.8805 -5.30507 0.271208 0
M  V30 105 C 4.9195 -5.98515 1.28244 0
M  V30 106 N 4.0565 -6.99316 0.62459 0
M  V30 107 H 8.8965 -2.59336 1.46796 0
M  V30 108 H 6.4335 -1.27431 0.734836 0
M  V30 109 H 8.3915 -4.1459 -0.465965 0
M  V30 110 H 7.0215 -3.09604 -0.913529 0
M  V30 111 H 6.0735 -3.50803 1.4711 0
M  V30 112 H 7.3855 -4.6803 1.72479 0
M  V30 113 H 6.5395 -6.06428 -0.18151 0
M  V30 114 H 5.2785 -4.8481 -0.530163 0
M  V30 115 H 4.2835 -5.21355 1.74554 0
M  V30 116 H 5.5085 -6.46298 2.08509 0
M  V30 117 H 3.4545 -6.55812 -0.156914 0
M  V30 118 H 3.3715 -7.44178 1.33172 0
M  V30 119 H 4.6395 -7.79255 0.195462 0
M  V30 120 N 8.8686 -0.792821 -1.36206 0
M  V30 121 C 10.1156 -0.366786 -1.99151 0
M  V30 122 C 10.4436 1.06243 -1.62919 0
M  V30 123 O 9.6986 1.74927 -0.877442 0
M  V30 124 C 9.9976 -0.481501 -3.54142 0
M  V30 125 C 9.6636 -1.87202 -4.10203 0
M  V30 126 C 8.3256 -2.25248 -4.25226 0
M  V30 127 C 10.6776 -2.78237 -4.40719 0
M  V30 128 C 8.0056 -3.53723 -4.68078 0
M  V30 129 C 10.3576 -4.06144 -4.85005 0
M  V30 130 C 9.0216 -4.44207 -4.98234 0
M  V30 131 H 8.2916 -0.134217 -0.728743 0
M  V30 132 H 10.9386 -1.01094 -1.62641 0
M  V30 133 H 9.2436 0.246146 -3.91026 0
M  V30 134 H 10.9406 -0.132844 -4.0078 0
M  V30 135 H 7.5306 -1.56639 -3.98951 0
M  V30 136 H 11.7146 -2.50097 -4.28679 0
M  V30 137 H 6.9706 -3.8308 -4.76508 0
M  V30 138 H 11.1446 -4.76796 -5.07581 0
M  V30 139 H 8.7716 -5.43814 -5.31197 0
M  V30 140 N 10.3467 1.47872 -0.545128 0
M  V30 141 C 11.5947 2.02093 -0.016553 0
M  V30 142 C 11.9157 1.42305 1.3332 0
M  V30 143 O 11.1857 0.593853 1.86682 0
M  V30 144 H 9.7657 0.746993 -0.00313038 0
M  V30 145 H 12.4277 1.81414 -0.712397 0
M  V30 146 H 11.5237 3.11996 0.0805422 0
M  V30 147 N 11.8248 0.280983 1.55075 0
M  V30 148 C 12.7348 -0.61388 2.26426 0
M  V30 149 C 13.7508 -1.16521 1.29224 0
M  V30 150 O 14.9268 -1.19426 1.62171 0
M  V30 151 C 11.9918 -1.7788 2.9759 0
M  V30 152 C 11.0528 -1.26355 4.10284 0
M  V30 153 C 10.2858 -2.37295 4.78045 0
M  V30 154 O 10.5088 -3.56777 4.45047 0
M  V30 155 O 9.4428 -2.05119 5.65871 0
M  V30 156 H 13.2688 -0.0356932 3.03679 0
M  V30 157 H 10.8538 0.0481686 1.49322 0
M  V30 158 H 12.7358 -2.45791 3.42293 0
M  V30 159 H 11.4108 -2.34397 2.23249 0
M  V30 160 H 10.3178 -0.550735 3.70024 0
M  V30 161 H 11.6508 -0.744065 4.86543 0
M  V30 162 N 13.3029 -1.57598 0.00835791 0
M  V30 163 C 14.5279 -1.95617 -0.689103 0
M  V30 164 C 14.9529 -0.883753 -1.66046 0
M  V30 165 O 14.3109 0.157352 -1.80616 0
M  V30 166 C 14.3589 -3.32736 -1.38994 0
M  V30 167 O 13.4629 -3.27631 -2.50463 0
M  V30 168 H 12.8039 -0.638379 -0.182668 0
M  V30 169 H 15.3339 -2.045 0.064036 0
M  V30 170 H 15.3439 -3.68494 -1.75147 0
M  V30 171 H 14.0189 -4.1034 -0.677778 0
M  V30 172 H 12.5959 -3.03561 -2.16576 0
M  V30 173 N 14.781 0.264519 -1.55364 0
M  V30 174 C 15.711 1.33121 -1.91836 0
M  V30 175 C 16.692 1.51101 -0.781192 0
M  V30 176 O 17.877 1.64003 -1.04003 0
M  V30 177 C 15.007 2.68921 -2.19769 0
M  V30 178 C 13.961 2.65661 -3.35571 0
M  V30 179 C 13.287 4.05093 -3.49004 0
M  V30 180 C 14.587 2.24187 -4.71739 0
M  V30 181 H 16.281 1.02844 -2.81182 0
M  V30 182 H 13.827 0.493286 -1.35287 0
M  V30 183 H 15.78 3.43663 -2.43872 0
M  V30 184 H 14.504 3.00799 -1.27231 0
M  V30 185 H 13.163 1.93377 -3.1145 0
M  V30 186 H 12.811 4.34206 -2.53917 0
M  V30 187 H 12.511 4.03804 -4.26868 0
M  V30 188 H 14.035 4.81561 -3.75408 0
M  V30 189 H 15.449 2.88654 -4.9533 0
M  V30 190 H 13.846 2.34044 -5.52579 0
M  V30 191 H 14.916 1.19327 -4.69988 0
M  V30 192 N 16.2591 1.48442 0.529413 0
M  V30 193 C 17.4841 1.60406 1.31471 0
M  V30 194 C 17.9091 0.264738 1.86228 0
M  V30 195 O 17.2671 -0.763668 1.64432 0
M  V30 196 C 17.3151 2.65419 2.44101 0
M  V30 197 O 16.4191 2.22618 3.47153 0
M  V30 198 H 15.7601 0.537863 0.389357 0
M  V30 199 H 18.2901 1.94432 0.636965 0
M  V30 200 H 18.3001 2.86709 2.90279 0
M  V30 201 H 16.9751 3.62652 2.03608 0
M  V30 202 H 15.5521 2.11543 3.0709 0
M  V30 203 N 17.7372 -0.778329 1.37039 0
M  V30 204 C 19.1532 -1.07796 1.17695 0
M  V30 205 C 19.3532 -2.01498 0.00860115 0
M  V30 206 O 18.4092 -2.43901 -0.653352 0
M  V30 207 C 19.7222 -1.68178 2.49272 0
M  V30 208 C 21.2702 -1.80467 2.55735 0
M  V30 209 C 21.7452 -2.44263 3.87427 0
M  V30 210 N 23.2362 -2.51721 3.88833 0
M  V30 211 C 23.9712 -3.01919 4.87476 0
M  V30 212 N 23.4672 -3.5234 5.96513 0
M  V30 213 N 25.2602 -3.00733 4.74885 0
M  V30 214 H 17.4112 -0.156032 2.11826 0
M  V30 215 H 19.6742 -0.131844 0.938787 0
M  V30 216 H 19.3802 -1.06796 3.35093 0
M  V30 217 H 19.2542 -2.67554 2.65885 0
M  V30 218 H 21.6412 -2.40984 1.70325 0
M  V30 219 H 21.7222 -0.798656 2.43013 0
M  V30 220 H 21.3662 -1.84388 4.73248 0
M  V30 221 H 21.2962 -3.45458 3.9745 0
M  V30 222 H 23.7872 -2.1603 3.10063 0
M  V30 223 H 24.1002 -3.89027 6.67741 0
M  V30 224 H 22.4452 -3.50462 6.00168 0
M  V30 225 H 25.6362 -2.60638 3.88826 0
M  V30 226 H 25.8092 -3.39545 5.51918 0
M  V30 227 N 19.2153 -1.21501 -1.00376 0
M  V30 228 C 20.4403 -1.05977 -1.78279 0
M  V30 229 C 20.8653 0.385994 -1.84097 0
M  V30 230 O 20.2233 1.27849 -1.28547 0
M  V30 231 C 20.2713 -1.66302 -3.19963 0
M  V30 232 O 19.3753 -0.909333 -4.0225 0
M  V30 233 H 18.7163 -0.372906 -0.549397 0
M  V30 234 H 21.2463 -1.6107 -1.26165 0
M  V30 235 H 21.2563 -1.70574 -3.70632 0
M  V30 236 H 19.9313 -2.71515 -3.15043 0
M  V30 237 H 18.5083 -0.941795 -3.60811 0
M  V30 238 N 20.6934 1.19889 -1.02296 0
M  V30 239 C 21.9394 1.89701 -0.717033 0
M  V30 240 C 22.2724 1.7905 0.751989 0
M  V30 241 O 21.5474 1.17891 1.547 0
M  V30 242 C 21.8304 3.40858 -1.16136 0
M  V30 243 C 21.6834 3.60411 -2.69117 0
M  V30 244 C 23.0024 4.33876 -0.737549 0
M  V30 245 H 20.1214 0.688874 -0.261957 0
M  V30 246 H 22.7634 1.41154 -1.27183 0
M  V30 247 H 20.9134 3.82335 -0.689342 0
M  V30 248 H 22.5854 3.28145 -3.2422 0
M  V30 249 H 20.8284 3.03665 -3.0979 0
M  V30 250 H 21.4994 4.66396 -2.95261 0
M  V30 251 H 23.9754 4.00081 -1.14344 0
M  V30 252 H 22.8514 5.38242 -1.0764 0
M  V30 253 H 23.1124 4.40628 0.360436 0
M  V30 254 N 22.1715 0.800033 1.35784 0
M  V30 255 C 23.1345 0.211565 2.28221 0
M  V30 256 C 24.1345 -0.59728 1.49296 0
M  V30 257 O 25.3245 -0.416721 1.69142 0
M  V30 258 C 22.4565 -0.705846 3.33513 0
M  V30 259 H 23.6495 1.02677 2.81776 0
M  V30 260 H 21.2025 0.570211 1.45528 0
M  V30 261 H 21.9375 -1.54498 2.85133 0
M  V30 262 H 21.7225 -0.127655 3.91892 0
M  V30 263 H 23.2125 -1.11211 4.02519 0
M  V30 264 N 23.6496 -1.47581 0.552962 0
M  V30 265 C 24.5996 -2.26961 -0.217423 0
M  V30 266 C 25.5836 -1.34099 -0.889168 0
M  V30 267 O 26.7756 -1.58483 -0.788176 0
M  V30 268 C 23.9046 -3.19756 -1.24944 0
M  V30 269 C 22.9906 -4.20097 -0.581327 0
M  V30 270 N 23.3816 -5.04614 0.346171 0
M  V30 271 C 21.6796 -4.38099 -0.835767 0
M  V30 272 C 22.3806 -5.77052 0.733854 0
M  V30 273 N 21.3566 -5.43526 0.0896567 0
M  V30 274 H 25.1586 -2.89688 0.495761 0
M  V30 275 H 22.6726 -1.58068 0.372597 0
M  V30 276 H 24.6696 -3.75305 -1.81527 0
M  V30 277 H 23.3296 -2.58585 -1.96376 0
M  V30 278 H 24.3406 -5.12869 0.720098 0
M  V30 279 H 21.0176 -3.88102 -1.53892 0
M  V30 280 H 22.4076 -6.5504 1.49574 0
M  V30 281 N 25.1277 -0.289203 -1.54924 0
M  V30 282 C 26.0747 0.592115 -2.23075 0
M  V30 283 C 27.0447 1.13881 -1.20915 0
M  V30 284 O 28.2297 1.18551 -1.495 0
M  V30 285 C 25.3697 1.76376 -2.96623 0
M  V30 286 C 24.4827 1.24959 -4.13533 0
M  V30 287 C 23.6177 2.38416 -4.74691 0
M  V30 288 C 22.6567 1.84072 -5.83767 0
M  V30 289 N 21.7937 2.91057 -6.38929 0
M  V30 290 H 26.6337 0.00432038 -2.98 0
M  V30 291 H 24.1707 -0.00963529 -1.47097 0
M  V30 292 H 26.1287 2.45268 -3.3749 0
M  V30 293 H 24.7587 2.32337 -2.24097 0
M  V30 294 H 23.8107 0.453307 -3.77689 0
M  V30 295 H 25.1227 0.811662 -4.92152 0
M  V30 296 H 24.2767 3.15276 -5.18349 0
M  V30 297 H 23.0157 2.8553 -3.95378 0
M  V30 298 H 22.0207 1.05697 -5.39545 0
M  V30 299 H 23.2457 1.37877 -6.64956 0
M  V30 300 H 21.1917 3.37526 -5.62505 0
M  V30 301 H 21.1087 2.51724 -7.12861 0
M  V30 302 H 22.3767 3.6785 -6.87246 0
M  V30 303 N 26.6058 1.57591 -0.0167156 0
M  V30 304 C 27.8338 1.95575 0.675128 0
M  V30 305 C 28.2488 0.892542 1.6637 0
M  V30 306 O 27.6058 -0.126912 1.82058 0
M  V30 307 C 27.6568 3.33608 1.39239 0
M  V30 308 O 27.3778 4.3585 0.443444 0
M  V30 309 C 28.8788 3.86151 2.17721 0
M  V30 310 H 26.0988 0.644423 0.186978 0
M  V30 311 H 28.6428 2.0437 -0.0728 0
M  V30 312 H 26.7978 3.2607 2.09182 0
M  V30 313 H 27.2118 5.158 0.951358 0
M  V30 314 H 28.6858 4.85114 2.63379 0
M  V30 315 H 29.1628 3.19738 3.01105 0
M  V30 316 H 29.7688 3.96918 1.52761 0
M  V30 317 N 28.0839 -0.256276 1.55502 0
M  V30 318 C 29.3089 -1.00766 1.81276 0
M  V30 319 C 29.7339 -1.78524 0.59252 0
M  V30 320 O 29.0919 -1.75413 -0.45827 0
M  V30 321 C 29.1399 -1.92869 3.04687 0
M  V30 322 O 28.2439 -3.019 2.80945 0
M  V30 323 H 27.5849 -0.287224 0.598664 0
M  V30 324 H 30.1149 -0.280109 2.02674 0
M  V30 325 H 30.1249 -2.34511 3.33869 0
M  V30 326 H 28.7999 -1.35689 3.93143 0
M  V30 327 H 27.3769 -2.64454 2.62904 0
M  V30 328 N 29.562 -1.4872 -0.521534 0
M  V30 329 C 30.978 -1.35028 -0.850855 0
M  V30 330 C 31.178 -0.367712 -1.98116 0
M  V30 331 O 30.234 0.208037 -2.51642 0
M  V30 332 C 31.547 -2.75263 -1.21041 0
M  V30 333 C 33.095 -2.83813 -1.31981 0
M  V30 334 C 33.57 -4.24769 -1.71276 0
M  V30 335 N 35.061 -4.27482 -1.78363 0
M  V30 336 C 35.796 -5.33494 -2.1017 0
M  V30 337 N 35.292 -6.49775 -2.40343 0
M  V30 338 N 37.085 -5.20894 -2.11248 0
M  V30 339 H 29.236 -2.11214 0.22413 0
M  V30 340 H 31.499 -0.947252 0.0376439 0
M  V30 341 H 31.205 -3.48765 -0.453415 0
M  V30 342 H 31.079 -3.09327 -2.15863 0
M  V30 343 H 33.466 -2.10561 -2.06756 0
M  V30 344 H 33.547 -2.53358 -0.352596 0
M  V30 345 H 33.191 -4.9854 -0.970588 0
M  V30 346 H 33.121 -4.52673 -2.69062 0
M  V30 347 H 35.612 -3.43611 -1.57288 0
M  V30 348 H 35.925 -7.26402 -2.63743 0
M  V30 349 H 34.27 -6.53035 -2.37844 0
M  V30 350 H 37.461 -4.29065 -1.87139 0
M  V30 351 H 37.634 -6.03612 -2.35704 0
M  V30 352 N 31.0401 0.771051 -1.3745 0
M  V30 353 C 32.4561 1.07171 -1.18265 0
M  V30 354 C 32.6561 2.01491 -0.019287 0
M  V30 355 O 31.7121 2.44244 0.640408 0
M  V30 356 C 33.0251 1.66854 -2.50161 0
M  V30 357 C 34.5731 1.79109 -2.56689 0
M  V30 358 C 35.0481 2.42205 -3.88717 0
M  V30 359 N 36.5391 2.49655 -3.90162 0
M  V30 360 C 37.2741 2.9933 -4.8907 0
M  V30 361 N 36.7701 3.49172 -5.98374 0
M  V30 362 N 38.5631 2.9821 -4.76474 0
M  V30 363 H 30.7141 0.144796 -2.11906 0
M  V30 364 H 32.9771 0.126863 -0.939473 0
M  V30 365 H 32.6831 1.05017 -3.35655 0
M  V30 366 H 32.5571 2.6614 -2.673 0
M  V30 367 H 34.9441 2.40077 -1.71601 0
M  V30 368 H 35.0251 0.785757 -2.43433 0
M  V30 369 H 34.6691 1.81875 -4.74219 0
M  V30 370 H 34.5991 3.43345 -3.99276 0
M  V30 371 H 37.0901 2.14383 -3.11205 0
M  V30 372 H 37.4031 3.8548 -6.69795 0
M  V30 373 H 35.7481 3.47275 -6.02018 0
M  V30 374 H 38.9391 2.58572 -3.90203 0
M  V30 375 H 39.1121 3.36613 -5.53711 0
M  V30 376 N 32.5182 1.22032 0.997298 0
M  V30 377 C 33.7432 1.06921 1.77715 0
M  V30 378 C 34.1682 -0.376226 1.84299 0
M  V30 379 O 33.5262 -1.27165 1.29223 0
M  V30 380 C 33.5742 1.67996 3.19076 0
M  V30 381 O 32.6782 0.930653 4.01762 0
M  V30 382 H 32.0192 0.375814 0.547412 0
M  V30 383 H 34.5492 1.61737 1.25309 0
M  V30 384 H 34.5592 1.72538 3.69723 0
M  V30 385 H 33.2342 2.73182 3.13599 0
M  V30 386 H 31.8112 0.960917 3.60307 0
M  V30 387 N 33.9963 -1.19345 1.0293 0
M  V30 388 C 35.2423 -1.89318 0.727083 0
M  V30 389 C 35.5753 -1.79446 -0.742483 0
M  V30 390 O 34.8503 -1.1871 -1.54072 0
M  V30 391 C 35.1333 -3.40238 1.17942 0
M  V30 392 C 34.9863 -3.58979 2.71024 0
M  V30 393 C 36.3053 -4.33479 0.760548 0
M  V30 394 H 33.4243 -0.687475 0.265606 0
M  V30 395 H 36.0663 -1.40477 1.2793 0
M  V30 396 H 34.2163 -3.81964 0.709608 0
M  V30 397 H 35.8883 -3.26421 3.25955 0
M  V30 398 H 34.1313 -3.02018 3.11396 0
M  V30 399 H 34.8023 -4.64823 2.9773 0
M  V30 400 H 37.2783 -3.99469 1.16464 0
M  V30 401 H 36.1543 -5.37664 1.10493 0
M  V30 402 H 36.4153 -4.40813 -0.337063 0
M  V30 403 N 35.4744 -0.807222 -1.35358 0
M  V30 404 C 36.4044 -0.232509 -2.3234 0
M  V30 405 C 37.3854 0.642386 -1.57504 0
M  V30 406 O 38.5704 0.572526 -1.85569 0
M  V30 407 C 35.7004 0.619238 -3.41735 0
M  V30 408 C 34.6544 -0.157215 -4.27711 0
M  V30 409 C 33.9804 0.816273 -5.28433 0
M  V30 410 C 35.2804 -1.35656 -5.04376 0
M  V30 411 H 36.9744 -1.04276 -2.80654 0
M  V30 412 H 34.5204 -0.50288 -1.34934 0
M  V30 413 H 36.4734 1.03137 -4.08584 0
M  V30 414 H 35.1974 1.46239 -2.92031 0
M  V30 415 H 33.8564 -0.550525 -3.62443 0
M  V30 416 H 33.5044 1.65494 -4.74996 0
M  V30 417 H 33.2044 0.301067 -5.86828 0
M  V30 418 H 34.7284 1.22659 -5.98153 0
M  V30 419 H 36.1424 -1.01927 -5.64166 0
M  V30 420 H 34.5394 -1.8063 -5.7227 0
M  V30 421 H 35.6094 -2.14288 -4.34981 0
M  V30 422 N 36.9525 1.47285 -0.560781 0
M  V30 423 C 38.3685 1.58065 -0.22081 0
M  V30 424 C 38.5685 1.55892 1.27671 0
M  V30 425 O 37.6245 1.46422 2.0571 0
M  V30 426 C 38.9375 2.88418 -0.850625 0
M  V30 427 C 40.4855 3.02009 -0.822184 0
M  V30 428 C 40.9605 4.35066 -1.43113 0
M  V30 429 N 42.4515 4.41711 -1.39448 0
M  V30 430 C 43.1865 5.43237 -1.83525 0
M  V30 431 N 42.6825 6.51555 -2.35474 0
M  V30 432 N 44.4755 5.34304 -1.74574 0
M  V30 433 H 36.6265 1.46941 -1.53369 0
M  V30 434 H 38.8895 0.699558 -0.639783 0
M  V30 435 H 38.5955 2.95755 -1.9032 0
M  V30 436 H 38.4695 3.75612 -0.345773 0
M  V30 437 H 40.8565 2.94266 0.221714 0
M  V30 438 H 40.9375 2.16347 -1.36483 0
M  V30 439 H 40.5815 4.43565 -2.47412 0
M  V30 440 H 40.5115 5.19465 -0.863899 0
M  V30 441 H 43.0025 3.64027 -1.01452 0
M  V30 442 H 43.3155 7.25203 -2.67021 0
M  V30 443 H 41.6605 6.52435 -2.39487 0
M  V30 444 H 44.8515 4.48581 -1.33763 0
M  V30 445 H 45.0245 6.13288 -2.09242 0
M  V30 446 N 38.4306 0.297415 1.54768 0
M  V30 447 C 39.6556 -0.318435 2.04941 0
M  V30 448 C 40.0806 -1.4701 1.17345 0
M  V30 449 O 39.4386 -1.80436 0.176758 0
M  V30 450 C 39.4866 -0.755749 3.52592 0
M  V30 451 O 38.5906 -1.86088 3.68028 0
M  V30 452 H 37.9316 -0.062421 0.661059 0
M  V30 453 H 40.4616 0.438215 1.99852 0
M  V30 454 H 40.4716 -1.04552 3.94376 0
M  V30 455 H 39.1466 0.0867233 4.1581 0
M  V30 456 H 37.7236 -1.57193 3.38149 0
M  V30 457 N 39.9087 -1.5758 0.0250728 0
M  V30 458 C 41.1547 -1.91917 -0.655413 0
M  V30 459 C 41.4877 -0.901433 -1.72011 0
M  V30 460 O 40.7627 0.0764069 -1.9435 0
M  V30 461 C 41.0457 -3.36751 -1.27558 0
M  V30 462 C 40.8987 -4.49258 -0.220719 0
M  V30 463 C 42.2177 -3.81469 -2.19475 0
M  V30 464 H 39.3367 -0.697925 -0.23679 0
M  V30 465 H 41.9787 -1.89825 0.0815036 0
M  V30 466 H 40.1287 -3.38664 -1.90365 0
M  V30 467 H 41.8007 -4.59478 0.409601 0
M  V30 468 H 40.0437 -4.31415 0.454264 0
M  V30 469 H 40.7147 -5.47618 -0.694175 0
M  V30 470 H 43.1907 -3.81266 -1.66659 0
M  V30 471 H 42.0667 -4.83512 -2.59822 0
M  V30 472 H 42.3277 -3.16744 -3.08424 0
M  V30 473 N 41.3868 0.248026 -1.55636 0
M  V30 474 C 42.6348 0.974295 -1.77065 0
M  V30 475 C 42.9558 1.85897 -0.588849 0
M  V30 476 O 42.2258 1.91868 0.395407 0
M  V30 477 H 40.8058 0.362733 -0.653019 0
M  V30 478 H 43.4678 0.266244 -1.93073 0
M  V30 479 H 42.5638 1.59667 -2.68166 0
M  V30 480 N 42.8649 1.48995 0.513639 0
M  V30 481 C 43.8119 1.6473 1.61656 0
M  V30 482 C 44.7819 0.488984 1.58739 0
M  V30 483 O 45.9669 0.714478 1.76918 0
M  V30 484 C 43.1069 1.7082 2.99858 0
M  V30 485 C 42.2199 2.9787 3.12885 0
M  V30 486 C 41.3549 2.95017 4.41744 0
M  V30 487 C 40.3939 4.16702 4.48359 0
M  V30 488 N 39.5309 4.11832 5.68629 0
M  V30 489 H 44.3709 2.58909 1.47547 0
M  V30 490 H 41.9079 1.28382 0.71808 0
M  V30 491 H 43.8659 1.72331 3.79944 0
M  V30 492 H 42.4959 0.801181 3.12699 0
M  V30 493 H 41.5479 3.06029 2.25944 0
M  V30 494 H 42.8599 3.8786 3.13633 0
M  V30 495 H 42.0139 2.95021 5.30139 0
M  V30 496 H 40.7529 2.02784 4.43542 0
M  V30 497 H 39.7579 4.16955 3.58369 0
M  V30 498 H 40.9829 5.10113 4.48287 0
M  V30 499 H 38.9289 3.22428 5.71293 0
M  V30 500 H 38.8459 4.95543 5.7094 0
M  V30 501 H 40.1139 4.1592 6.59266 0
M  V30 502 N 44.343 -0.763751 1.37857 0
M  V30 503 C 45.273 -1.89103 1.36975 0
M  V30 504 C 46.254 -1.68439 0.237152 0
M  V30 505 O 47.439 -1.8918 0.438713 0
M  V30 506 C 44.569 -3.26496 1.18395 0
M  V30 507 C 43.523 -3.61741 2.28751 0
M  V30 508 C 42.849 -4.97762 1.95286 0
M  V30 509 C 44.149 -3.67665 3.70972 0
M  V30 510 H 45.843 -1.90099 2.31307 0
M  V30 511 H 43.389 -0.91319 1.11341 0
M  V30 512 H 45.342 -4.05003 1.16406 0
M  V30 513 H 44.066 -3.25955 0.205215 0
M  V30 514 H 42.725 -2.85547 2.29909 0
M  V30 515 H 42.373 -4.93769 0.959221 0
M  V30 516 H 42.073 -5.22313 2.69189 0
M  V30 517 H 43.597 -5.7866 1.94898 0
M  V30 518 H 45.011 -4.36307 3.719 0
M  V30 519 H 43.408 -4.03718 4.43995 0
M  V30 520 H 44.478 -2.68134 4.0402 0
M  V30 521 N 45.8211 -1.22559 -0.990812 0
M  V30 522 C 46.7541 -0.940773 -2.07905 0
M  V30 523 C 47.7321 0.117082 -1.62178 0
M  V30 524 O 48.9161 -0.0149506 -1.88494 0
M  V30 525 C 46.0431 -0.415321 -3.36144 0
M  V30 526 C 45.0891 -1.45818 -4.00799 0
M  V30 527 S 45.9221 -3.03219 -4.41382 0
M  V30 528 C 47.0781 -2.52317 -5.72789 0
M  V30 529 H 47.3111 -1.8623 -2.31745 0
M  V30 530 H 44.8441 -1.05688 -1.12558 0
M  V30 531 H 46.8021 -0.118747 -4.10328 0
M  V30 532 H 45.4631 0.485121 -3.10331 0
M  V30 533 H 44.6561 -1.04044 -4.93144 0
M  V30 534 H 44.2581 -1.70356 -3.32949 0
M  V30 535 H 46.5501 -1.93688 -6.49224 0
M  V30 536 H 47.4931 -3.43161 -6.19392 0
M  V30 537 H 47.9011 -1.93529 -5.30289 0
M  V30 538 N 47.2992 1.18797 -1.03562 0
M  V30 539 C 48.5452 1.8893 -0.737113 0
M  V30 540 C 48.8782 1.79837 0.732956 0
M  V30 541 O 48.1532 1.19525 1.5344 0
M  V30 542 C 48.4362 3.39607 -1.19745 0
M  V30 543 C 48.2892 3.57537 -2.72924 0
M  V30 544 C 49.6082 4.33069 -0.783526 0
M  V30 545 H 46.7272 0.686057 -0.269249 0
M  V30 546 H 49.3692 1.39797 -1.28673 0
M  V30 547 H 47.5192 3.81583 -0.729855 0
M  V30 548 H 49.1912 3.24688 -3.27682 0
M  V30 549 H 47.4342 3.00363 -3.12993 0
M  V30 550 H 48.1052 4.63238 -3.00191 0
M  V30 551 H 50.5812 3.98846 -1.18581 0
M  V30 552 H 49.4572 5.3707 -1.13343 0
M  V30 553 H 49.7182 4.40986 0.313681 0
M  V30 554 N 48.7773 0.814389 1.34928 0
M  V30 555 C 50.0253 0.397636 1.9815 0
M  V30 556 C 50.3463 -1.04069 1.64908 0
M  V30 557 O 49.6163 -1.72121 0.93548 0
M  V30 558 H 48.1963 0.144043 0.732981 0
M  V30 559 H 50.8583 1.04195 1.6471 0
M  V30 560 H 49.9543 0.509688 3.0791 0
M  V30 561 N 50.2554 -1.46986 0.568584 0
M  V30 562 C 51.4804 -2.07335 0.0520528 0
M  V30 563 C 51.9054 -1.41675 -1.23733 0
M  V30 564 O 51.2634 -0.495623 -1.74394 0
M  V30 565 C 51.3114 -3.60417 -0.11501 0
M  V30 566 O 50.4154 -3.95309 -1.17492 0
M  V30 567 H 49.7564 -0.661597 0.0564385 0
M  V30 568 H 52.2864 -1.88837 0.787507 0
M  V30 569 H 52.2964 -4.06698 -0.325644 0
M  V30 570 H 50.9714 -4.07601 0.826675 0
M  V30 571 H 49.5484 -3.60757 -0.943869 0
M  V30 572 N 51.7335 -0.305618 -1.54608 0
M  V30 573 C 52.6965 0.555591 -2.22364 0
M  V30 574 C 53.6965 1.05768 -1.21119 0
M  V30 575 O 54.8865 0.952972 -1.45822 0
M  V30 576 C 52.0185 1.76974 -2.91364 0
M  V30 577 H 53.2115 -0.0364572 -2.99878 0
M  V30 578 H 50.7645 -0.0565007 -1.56198 0
M  V30 579 H 51.4995 2.40151 -2.17941 0
M  V30 580 H 51.2845 1.41732 -3.65588 0
M  V30 581 H 52.7745 2.38148 -3.43038 0
M  V30 582 N 53.2116 1.57565 -0.0334293 0
M  V30 583 C 54.4586 1.91978 0.644272 0
M  V30 584 C 54.7866 0.910231 1.71887 0
M  V30 585 O 54.0416 -0.0801961 1.95536 0
M  V30 586 C 54.3406 3.33112 1.29504 0
M  V30 587 C 54.0066 4.49537 0.350388 0
M  V30 588 C 52.6686 4.81115 0.0903974 0
M  V30 589 C 55.0206 5.20347 -0.298032 0
M  V30 590 C 52.3486 5.8086 -0.825746 0
M  V30 591 C 54.7006 6.2107 -1.20226 0
M  V30 592 C 53.3646 6.51088 -1.4711 0
M  V30 593 H 52.6346 0.702496 0.235756 0
M  V30 594 H 55.2816 1.91259 -0.0961176 0
M  V30 595 H 53.5866 3.30113 2.11028 0
M  V30 596 H 55.2836 3.57011 1.82603 0
M  V30 597 H 51.8736 4.24883 0.563205 0
M  V30 598 H 56.0576 4.96178 -0.110234 0
M  V30 599 H 51.3136 6.02461 -1.04169 0
M  V30 600 H 55.4876 6.75057 -1.71086 0
M  V30 601 H 53.1146 7.28193 -2.18264 0
M  V30 602 N 54.6897 -0.239769 1.55765 0
M  V30 603 C 55.9357 -0.968234 1.78194 0
M  V30 604 C 56.2687 -1.84701 0.599938 0
M  V30 605 O 55.5437 -1.9031 -0.401524 0
M  V30 606 C 55.8267 -1.8227 3.10564 0
M  V30 607 C 55.6797 -0.971633 4.3918 0
M  V30 608 C 56.9987 -2.80388 3.39221 0
M  V30 609 H 54.1177 -0.350572 0.648281 0
M  V30 610 H 56.7597 -0.238259 1.885 0
M  V30 611 H 54.9097 -2.44507 3.01908 0
M  V30 612 H 56.5817 -0.367408 4.59835 0
M  V30 613 H 54.8247 -0.276276 4.32919 0
M  V30 614 H 55.4957 -1.60346 5.28198 0
M  V30 615 H 57.9717 -2.28287 3.47885 0
M  V30 616 H 56.8477 -3.3729 4.33044 0
M  V30 617 H 57.1087 -3.57212 2.60484 0
M  V30 618 N 56.1678 -1.49265 -0.50573 0
M  V30 619 C 57.0978 -1.68495 -1.61653 0
M  V30 620 C 58.0788 -0.53366 -1.61512 0
M  V30 621 O 59.2638 -0.76897 -1.78327 0
M  V30 622 C 56.3938 -1.74709 -3.00157 0
M  V30 623 C 55.3478 -2.89581 -3.15162 0
M  V30 624 C 54.6738 -2.80903 -4.5497 0
M  V30 625 C 55.9738 -4.30578 -2.95634 0
M  V30 626 H 57.6678 -2.61493 -1.45814 0
M  V30 627 H 55.2138 -1.25838 -0.70005 0
M  V30 628 H 57.1668 -1.86748 -3.77761 0
M  V30 629 H 55.8908 -0.783067 -3.17074 0
M  V30 630 H 54.5498 -2.77136 -2.39982 0
M  V30 631 H 54.1978 -1.82419 -4.68756 0
M  V30 632 H 53.8978 -3.57999 -4.65951 0
M  V30 633 H 55.4218 -2.94944 -5.34641 0
M  V30 634 H 56.8358 -4.4373 -3.63011 0
M  V30 635 H 55.2328 -5.0886 -3.18091 0
M  V30 636 H 56.3028 -4.45352 -1.91806 0
M  V30 637 N 57.6459 0.756429 -1.3826 0
M  V30 638 C 59.0569 1.33359 -1.30661 0
M  V30 639 C 59.4079 1.96161 0.0388875 0
M  V30 640 O 58.5329 1.94874 0.940918 0
M  V30 641 C 59.1279 2.42477 -2.36622 0
M  V30 642 C 57.6869 2.95922 -2.3261 0
M  V30 643 C 56.8339 1.69275 -2.19639 0
M  V30 644 H 59.7849 0.55552 -1.4866 0
M  V30 645 H 59.8059 3.22345 -2.02174 0
M  V30 646 H 59.3179 1.96739 -3.34538 0
M  V30 647 H 57.4189 3.45996 -1.38267 0
M  V30 648 H 57.5319 3.50494 -3.26636 0
M  V30 649 H 55.8959 1.92793 -1.66442 0
M  V30 650 H 56.6789 1.25619 -3.19491 0
M  V30 651 N 59.124 1.23083 0.984299 0
M  V30 652 C 60.37 1.06214 1.72761 0
M  V30 653 C 60.703 -0.400584 1.90024 0
M  V30 654 O 59.978 -1.29672 1.44967 0
M  V30 655 C 60.261 1.78375 3.12817 0
M  V30 656 C 60.114 3.32296 3.03149 0
M  V30 657 C 61.433 1.54309 4.12161 0
M  V30 658 H 58.552 0.387251 0.627061 0
M  V30 659 H 61.194 1.51536 1.14616 0
M  V30 660 H 59.344 1.39848 3.62457 0
M  V30 661 H 61.016 3.8032 2.61064 0
M  V30 662 H 59.259 3.6153 2.39747 0
M  V30 663 H 59.93 3.77972 4.02295 0
M  V30 664 H 62.406 1.87791 3.71314 0
M  V30 665 H 61.282 2.07281 5.08258 0
M  V30 666 H 61.543 0.477572 4.39513 0
M  V30 667 N 60.6021 -1.18246 1.0419 0
M  V30 668 C 61.5321 -2.24127 0.654914 0
M  V30 669 C 62.5131 -1.66617 -0.342451 0
M  V30 670 O 63.6981 -1.92924 -0.222277 0
M  V30 671 C 60.8281 -3.47295 0.0183757 0
M  V30 672 C 59.7821 -4.17563 0.939414 0
M  V30 673 C 59.1081 -5.34438 0.167286 0
M  V30 674 C 60.4081 -4.70917 2.25908 0
M  V30 675 H 62.1021 -2.56753 1.54007 0
M  V30 676 H 59.6481 -1.23414 0.74195 0
M  V30 677 H 61.6011 -4.20572 -0.264082 0
M  V30 678 H 60.3251 -3.13907 -0.901664 0
M  V30 679 H 58.9841 -3.46186 1.20628 0
M  V30 680 H 58.6321 -4.97298 -0.7552 0
M  V30 681 H 58.3321 -5.82388 0.780901 0
M  V30 682 H 59.8561 -6.10504 -0.108125 0
M  V30 683 H 61.2701 -5.35882 2.03724 0
M  V30 684 H 59.6671 -5.29406 2.82577 0
M  V30 685 H 60.7371 -3.88272 2.9047 0
M  V30 686 N 62.0802 -0.821533 -1.34494 0
M  V30 687 C 63.4912 -0.467956 -1.8074 0
M  V30 688 C 63.8422 1.01151 -1.68116 0
M  V30 689 O 62.9672 1.78707 -1.22036 0
M  V30 690 C 63.5622 -0.842627 -3.28154 0
M  V30 691 C 62.1212 -0.541439 -3.72485 0
M  V30 692 C 61.2682 -1.06028 -2.56229 0
M  V30 693 H 64.2192 -1.01183 -1.22261 0
M  V30 694 H 64.2402 -0.145876 -3.8022 0
M  V30 695 H 63.7522 -1.91945 -3.37311 0
M  V30 696 H 61.8532 0.526034 -3.68868 0
M  V30 697 H 61.9662 -1.08453 -4.66663 0
M  V30 698 H 60.3302 -0.481892 -2.501 0
M  V30 699 H 61.1132 -2.14352 -2.68157 0
M  V30 700 N 63.5583 1.46682 -0.576371 0
M  V30 701 C 64.8043 2.02712 -0.0596221 0
M  V30 702 C 65.1373 1.44765 1.29448 0
M  V30 703 O 64.4123 0.610355 1.84675 0
M  V30 704 C 64.6953 3.60098 0.0129503 0
M  V30 705 C 64.5483 4.28441 -1.3696 0
M  V30 706 C 65.8673 4.34224 0.71678 0
M  V30 707 H 62.9863 0.736637 -0.0231407 0
M  V30 708 H 65.6283 1.74898 -0.742351 0
M  V30 709 H 63.7783 3.83926 0.594378 0
M  V30 710 H 65.4503 4.15896 -1.9957 0
M  V30 711 H 63.6933 3.8805 -1.93907 0
M  V30 712 H 64.3643 5.3716 -1.27135 0
M  V30 713 H 66.8403 4.15503 0.222908 0
M  V30 714 H 65.7163 5.43936 0.73657 0
M  V30 715 H 65.9773 4.04823 1.77682 0
M  V30 716 N 65.0364 0.313813 1.54444 0
M  V30 717 C 65.9994 -0.54379 2.22656 0
M  V30 718 C 66.9994 -1.05124 1.21678 0
M  V30 719 O 68.1894 -0.945225 1.46325 0
M  V30 720 C 65.3214 -1.75427 2.92298 0
M  V30 721 H 66.5144 0.0523599 2.99854 0
M  V30 722 H 64.0674 0.0647834 1.56166 0
M  V30 723 H 64.8024 -2.38991 2.19211 0
M  V30 724 H 64.5874 -1.39791 3.66334 0
M  V30 725 H 66.0774 -2.36325 3.44297 0
M  V30 726 N 66.5145 -1.57545 0.0417849 0
M  V30 727 C 67.9305 -1.56467 -0.314704 0
M  V30 728 C 68.1305 -1.04859 -1.72066 0
M  V30 729 O 67.1865 -0.700983 -2.42575 0
M  V30 730 C 68.4995 -3.00317 -0.15174 0
M  V30 731 C 70.0475 -3.12201 -0.223553 0
M  V30 732 C 70.5225 -4.57913 -0.0892295 0
M  V30 733 N 72.0135 -4.6297 -0.145808 0
M  V30 734 C 72.7485 -5.73362 -0.0658459 0
M  V30 735 N 72.2445 -6.92769 0.0659282 0
M  V30 736 N 74.0375 -5.6197 -0.12075 0
M  V30 737 H 66.1885 -1.89416 0.961014 0
M  V30 738 H 68.4515 -0.871862 0.372237 0
M  V30 739 H 68.1575 -3.42073 0.817254 0
M  V30 740 H 68.0315 -3.65892 -0.916692 0
M  V30 741 H 70.4185 -2.70349 -1.18301 0
M  V30 742 H 70.4995 -2.49323 0.571994 0
M  V30 743 H 70.1435 -5.00448 0.866867 0
M  V30 744 H 70.0735 -5.18786 -0.903802 0
M  V30 745 H 72.5645 -3.7709 -0.247286 0
M  V30 746 H 72.8775 -7.72707 0.119905 0
M  V30 747 H 71.2225 -6.94927 0.100885 0
M  V30 748 H 74.4135 -4.67572 -0.222187 0
M  V30 749 H 74.5865 -6.47977 -0.0549735 0
M  V30 750 N 67.9926 0.231505 -1.5589 0
M  V30 751 C 68.9556 1.27028 -1.90779 0
M  V30 752 C 69.9556 1.40308 -0.785507 0
M  V30 753 O 71.1456 1.38744 -1.05336 0
M  V30 754 C 68.2776 2.64566 -2.14983 0
M  V30 755 H 69.4706 0.973017 -2.83677 0
M  V30 756 H 67.0236 0.471486 -1.49019 0
M  V30 757 H 67.7586 2.99406 -1.24604 0
M  V30 758 H 67.5436 2.56305 -2.96732 0
M  V30 759 H 69.0336 3.39543 -2.43105 0
M  V30 760 N 69.4707 1.49531 0.497807 0
M  V30 761 C 70.4337 1.65916 1.58128 0
M  V30 762 C 71.4337 0.530825 1.51786 0
M  V30 763 O 72.6237 0.797342 1.54881 0
M  V30 764 C 69.7557 1.65951 2.9778 0
M  V30 765 H 70.9487 2.62556 1.44929 0
M  V30 766 H 68.5017 1.38611 0.722275 0
M  V30 767 H 69.2367 0.709065 3.16453 0
M  V30 768 H 69.0217 2.47897 3.03792 0
M  V30 769 H 70.5117 1.80673 3.76493 0
M  V30 770 N 70.9488 -0.749086 1.3866 0
M  V30 771 C 72.1968 -1.50535 1.34847 0
M  V30 772 C 72.5178 -1.94909 -0.0595016 0
M  V30 773 O 71.7878 -1.67973 -1.00806 0
M  V30 774 H 70.3678 -0.558395 0.49619 0
M  V30 775 H 73.0298 -0.890165 1.73384 0
M  V30 776 H 72.1258 -2.39413 2.00219 0
M  V30 777 N 72.4269 -1.23603 -0.977757 0
M  V30 778 C 73.6749 -1.06759 -1.71601 0
M  V30 779 C 73.9959 0.395929 -1.90938 0
M  V30 780 O 73.2659 1.28356 -1.47992 0
M  V30 781 H 71.8459 -0.392062 -0.635843 0
M  V30 782 H 74.5079 -1.55362 -1.1768 0
M  V30 783 H 73.6039 -1.55763 -2.70452 0
M  V30 784 N 73.905 1.17692 -1.04816 0
M  V30 785 C 75.153 1.87488 -0.754497 0
M  V30 786 C 75.474 1.81205 0.720407 0
M  V30 787 O 74.744 1.23544 1.52032 0
M  V30 788 H 73.324 0.694101 -0.276102 0
M  V30 789 H 75.986 1.42793 -1.32651 0
M  V30 790 H 75.082 2.93328 -1.06606 0
M  V30 791 N 75.3831 0.828654 1.34056 0
M  V30 792 C 76.6311 0.41863 1.97717 0
M  V30 793 C 76.9521 -1.02314 1.66002 0
M  V30 794 O 76.2221 -1.71119 0.953683 0
M  V30 795 H 74.8021 0.151809 0.731412 0
M  V30 796 H 77.4641 1.05936 1.63596 0
M  V30 797 H 76.5601 0.542318 3.07352 0
M  V30 798 N 76.8612 -1.46375 0.584142 0
M  V30 799 C 78.0862 -2.07268 0.0740405 0
M  V30 800 C 78.5112 -1.42979 -1.22223 0
M  V30 801 O 77.8692 -0.514092 -1.73859 0
M  V30 802 C 77.9172 -3.60518 -0.0767769 0
M  V30 803 O 77.0212 -3.96533 -1.13292 0
M  V30 804 H 76.3622 -0.660961 0.0634524 0
M  V30 805 H 78.8922 -1.87991 0.807492 0
M  V30 806 H 78.9022 -4.07021 -0.282489 0
M  V30 807 H 77.5772 -4.06702 0.86986 0
M  V30 808 H 76.1542 -3.61738 -0.905553 0
M  V30 809 N 78.3393 -0.321999 -1.54275 0
M  V30 810 C 79.5643 0.285791 -2.05422 0
M  V30 811 C 79.9893 1.45124 -1.19669 0
M  V30 812 O 79.3473 1.80132 -0.205441 0
M  V30 813 C 79.3953 0.69956 -3.53749 0
M  V30 814 O 78.4993 1.8021 -3.70942 0
M  V30 815 H 77.8403 0.0518962 -0.661969 0
M  V30 816 H 80.3703 -0.469954 -1.9913 0
M  V30 817 H 80.3803 0.982649 -3.9599 0
M  V30 818 H 79.0553 -0.152864 -4.15619 0
M  V30 819 H 77.6323 1.51794 -3.40607 0
M  V30 820 N 79.8174 1.5752 -0.0501392 0
M  V30 821 C 81.0424 1.97376 0.636997 0
M  V30 822 C 81.4674 0.927466 1.63645 0
M  V30 823 O 80.8254 -0.10941 1.8097 0
M  V30 824 C 80.8734 3.36304 1.30123 0
M  V30 825 O 79.9774 3.34156 2.41689 0
M  V30 826 H 79.3184 0.642998 0.165679 0
M  V30 827 H 81.8484 2.04258 -0.118233 0
M  V30 828 H 81.8584 3.73008 1.65315 0
M  V30 829 H 80.5334 4.11993 0.568746 0
M  V30 830 H 79.1104 3.09196 2.08451 0
M  V30 831 N 81.2955 -0.223234 1.56011 0
M  V30 832 C 82.5435 -0.946003 1.78592 0
M  V30 833 C 82.8645 -1.84936 0.618349 0
M  V30 834 O 82.1345 -1.92473 -0.364833 0
M  V30 835 H 80.7145 -0.352298 0.658707 0
M  V30 836 H 83.3765 -0.235494 1.93472 0
M  V30 837 H 82.4725 -1.55381 2.70672 0
M  V30 838 N 82.7736 -1.49793 -0.48987 0
M  V30 839 C 83.7366 -1.66752 -1.57246 0
M  V30 840 C 84.7366 -0.538867 -1.51502 0
M  V30 841 O 85.9266 -0.805545 -1.54456 0
M  V30 842 C 83.0586 -1.67528 -2.96896 0
M  V30 843 H 84.2516 -2.63321 -1.43534 0
M  V30 844 H 81.8046 -1.38992 -0.714914 0
M  V30 845 H 82.5396 -0.725837 -3.16073 0
M  V30 846 H 82.3246 -2.49504 -3.02473 0
M  V30 847 H 83.8146 -1.82667 -3.7553 0
M  V30 848 N 84.2517 0.741722 -1.39055 0
M  V30 849 C 85.5287 1.49252 -1.26425 0
M  V30 850 C 85.9087 2.10705 0.129144 0
M  V30 851 O 85.2567 1.98045 1.13976 0
M  V30 852 C 85.4667 2.54934 -2.38347 0
M  V30 853 C 86.8147 3.21506 -2.77343 0
M  V30 854 O 87.8387 2.65245 -2.37747 0
M  V30 855 O 86.6977 4.23294 -3.45665 0
M  V30 856 H 83.7917 0.662451 -0.495064 0
M  V30 857 H 86.3377 0.776121 -1.50912 0
M  V30 858 H 85.1097 2.07857 -3.31529 0
M  V30 859 H 84.7327 3.34141 -2.15489 0
M  V30 860 N 85.7298 1.2412 0.971189 0
M  V30 861 C 86.6798 0.997551 2.05019 0
M  V30 862 C 87.6638 -0.0597747 1.60789 0
M  V30 863 O 88.8558 0.153516 1.76333 0
M  V30 864 C 85.9848 0.600557 3.38006 0
M  V30 865 C 85.0708 1.69377 3.88809 0
M  V30 866 N 85.4618 2.92586 4.12586 0
M  V30 867 C 83.7598 1.57048 4.17435 0
M  V30 868 C 84.4608 3.63431 4.54195 0
M  V30 869 N 83.4368 2.90979 4.59165 0
M  V30 870 H 87.2388 1.93316 2.21374 0
M  V30 871 H 84.7528 1.14194 1.1547 0
M  V30 872 H 86.7498 0.40725 4.14906 0
M  V30 873 H 85.4098 -0.327903 3.2304 0
M  V30 874 H 86.4208 3.288 4.00139 0
M  V30 875 H 83.0978 0.709798 4.11422 0
M  V30 876 H 84.4878 4.69102 4.81033 0
M  V30 877 N 87.2079 -1.17134 1.05439 0
M  V30 878 C 88.4569 -1.86791 0.761049 0
M  V30 879 C 88.7699 -1.82072 -0.714795 0
M  V30 880 O 89.9759 -2.47223 -1.12218 0
M  V30 881 C 88.4319 -3.35166 1.31117 0
M  V30 882 C 88.0399 -3.48381 2.81664 0
M  V30 883 C 89.7839 -4.10134 1.09499 0
M  V30 884 C 87.6909 -4.90793 3.29964 0
M  V30 885 H 86.6209 -0.699681 0.281002 0
M  V30 886 H 89.2719 -1.3226 1.27199 0
M  V30 887 H 87.6539 -3.8925 0.72803 0
M  V30 888 H 88.8279 -3.04502 3.45855 0
M  V30 889 H 87.1429 -2.86836 3.01851 0
M  V30 890 H 89.7399 -5.152 1.43084 0
M  V30 891 H 90.0829 -4.16287 0.0328772 0
M  V30 892 H 90.6159 -3.62264 1.64346 0
M  V30 893 H 87.3549 -4.89816 4.35616 0
M  V30 894 H 86.8749 -5.35333 2.70516 0
M  V30 895 H 88.5539 -5.59573 3.24787 0
M  V30 896 N 88.686 -0.835752 -1.33615 0
M  V30 897 C 89.911 -0.442389 -2.02627 0
M  V30 898 C 90.336 0.947735 -1.62479 0
M  V30 899 O 89.694 1.61907 -0.815826 0
M  V30 900 C 89.742 -0.567216 -3.56111 0
M  V30 901 O 88.846 0.407799 -4.10379 0
M  V30 902 H 88.187 -0.180278 -0.639059 0
M  V30 903 H 90.717 -1.12972 -1.70583 0
M  V30 904 H 90.727 -0.447708 -4.05536 0
M  V30 905 H 89.402 -1.58103 -3.84677 0
M  V30 906 H 87.979 0.246107 -3.72087 0
M  V30 907 N 90.1641 1.46063 -0.591896 0
M  V30 908 C 91.0941 2.33172 0.123673 0
M  V30 909 C 92.0751 1.45897 0.87453 0
M  V30 910 O 93.2601 1.74698 0.848181 0
M  V30 911 C 90.3901 3.28336 1.13194 0
M  V30 912 C 89.3441 4.25124 0.495324 0
M  V30 913 C 88.6701 5.09863 1.61071 0
M  V30 914 C 89.9701 5.19143 -0.573425 0
M  V30 915 H 91.6641 2.93252 -0.603646 0
M  V30 916 H 89.2101 1.41014 -0.291741 0
M  V30 917 H 91.1631 3.88137 1.64097 0
M  V30 918 H 89.8871 2.66383 1.88965 0
M  V30 919 H 88.5461 3.66599 0.00729452 0
M  V30 920 H 88.1941 4.44288 2.35832 0
M  V30 921 H 87.8941 5.75417 1.19035 0
M  V30 922 H 89.4181 5.72529 2.12233 0
M  V30 923 H 90.8321 5.73106 -0.1491 0
M  V30 924 H 89.2291 5.93089 -0.914636 0
M  V30 925 H 90.2991 4.62519 -1.45617 0
M  V30 926 N 91.6422 0.330177 1.54103 0
M  V30 927 C 92.5902 -0.548226 2.26047 0
M  V30 928 C 93.5842 -1.11309 1.27698 0
M  V30 929 O 94.7902 -1.06036 1.45452 0
M  V30 930 H 91.1652 -0.195456 0.726155 0
M  V30 931 H 93.1362 0.0807567 2.98291 0
M  V30 932 C 91.8852 -1.69415 3.03634 0
M  V30 933 H 91.2082 -1.26876 3.79134 0
M  V30 934 H 92.6482 -2.28423 3.5721 0
M  V30 935 C 91.1072 -2.61569 2.12328 0
M  V30 936 O 91.6372 -3.63462 1.7105 0
M  V30 937 N 89.8432 -2.29952 1.77681 0
M  V30 938 H 89.3902 -1.47134 2.11446 0
M  V30 939 H 89.3482 -2.91871 1.16869 0
M  V30 940 N 93.1203 -1.57491 0.0584922 0
M  V30 941 C 94.5313 -1.80526 -0.476138 0
M  V30 942 C 94.8823 -0.971334 -1.70469 0
M  V30 943 O 94.0073 -0.190012 -2.15564 0
M  V30 944 C 94.6023 -3.27424 -0.870587 0
M  V30 945 C 93.1613 -3.51351 -1.35015 0
M  V30 946 C 92.3083 -2.75343 -0.32887 0
M  V30 947 H 95.2593 -1.56133 0.284312 0
M  V30 948 H 95.2803 -3.38745 -1.73299 0
M  V30 949 H 94.7923 -3.88093 0.0237627 0
M  V30 950 H 92.8933 -2.95971 -2.26345 0
M  V30 951 H 93.0063 -4.60059 -1.33726 0
M  V30 952 H 91.3703 -2.417 -0.803321 0
M  V30 953 H 92.1533 -3.38743 0.557521 0
M  V30 954 N 94.5984 0.214957 -1.56127 0
M  V30 955 C 95.8754 0.963093 -1.70247 0
M  V30 956 C 96.2554 2.02166 -0.60764 0
M  V30 957 O 95.6034 2.25244 0.384385 0
M  V30 958 C 95.8134 1.56756 -3.11815 0
M  V30 959 C 97.1614 2.0573 -3.7143 0
M  V30 960 O 98.1854 1.66637 -3.14818 0
M  V30 961 O 97.0444 2.77603 -4.70743 0
M  V30 962 H 94.1384 0.450321 -0.693643 0
M  V30 963 H 96.6844 0.206219 -1.68442 0
M  V30 964 H 95.4564 0.803533 -3.82961 0
M  V30 965 H 95.0794 2.3898 -3.17765 0
M  V30 966 N 96.0765 1.50051 0.48192 0
M  V30 967 C 97.0065 1.71046 1.58951 0
M  V30 968 C 97.9875 0.559288 1.60642 0
M  V30 969 O 99.1725 0.797243 1.77081 0
M  V30 970 C 96.3025 1.79462 2.97339 0
M  V30 971 C 95.2565 2.94558 3.10515 0
M  V30 972 C 94.5825 2.88105 4.50444 0
M  V30 973 C 95.8825 4.35227 2.88747 0
M  V30 974 H 97.5765 2.6378 1.41635 0
M  V30 975 H 95.1225 1.26936 0.679942 0
M  V30 976 H 97.0755 1.92734 3.74742 0
M  V30 977 H 95.7995 0.833412 3.15788 0
M  V30 978 H 94.4585 2.80918 2.35543 0
M  V30 979 H 94.1065 1.89853 4.65795 0
M  V30 980 H 93.8065 3.65366 4.60197 0
M  V30 981 H 95.3305 3.03412 5.29881 0
M  V30 982 H 96.7445 4.49449 3.55905 0
M  V30 983 H 95.1415 5.13856 3.09955 0
M  V30 984 H 96.2115 4.48347 1.84696 0
M  V30 985 N 97.5546 -0.734337 1.39446 0
M  V30 986 C 98.5176 -1.83004 1.37994 0
M  V30 987 C 99.5176 -1.58397 0.276938 0
M  V30 988 O 100.708 -1.65785 0.534875 0
M  V30 989 C 97.8396 -3.20802 1.1532 0
M  V30 990 H 99.0326 -1.85694 2.35494 0
M  V30 991 H 96.5856 -0.938059 1.25021 0
M  V30 992 H 97.3206 -3.23772 0.185036 0
M  V30 993 H 97.1056 -3.4006 1.95197 0
M  V30 994 H 98.5956 -4.00862 1.17046 0
M  V30 995 N 99.0327 -1.24633 -0.964593 0
M  V30 996 C 99.9807 -1.03917 -2.08096 0
M  V30 997 C 100.975 0.0268581 -1.69379 0
M  V30 998 O 102.181 -0.127952 -1.79545 0
M  V30 999 H 98.5557 -0.319044 -0.680966 0
M  V30 1000 H 100.527 -1.98581 -2.22729 0
M  V30 1001 C 99.2757 -0.663983 -3.41301 0
M  V30 1002 H 98.5987 -1.47605 -3.71555 0
M  V30 1003 H 100.039 -0.558663 -4.20303 0
M  V30 1004 C 98.4977 0.629169 -3.30973 0
M  V30 1005 O 99.0277 1.67404 -3.65156 0
M  V30 1006 N 97.2337 0.611057 -2.84103 0
M  V30 1007 H 96.7807 -0.239593 -2.56483 0
M  V30 1008 H 96.7387 1.47647 -2.77575 0
M  V30 1009 N 100.511 1.16574 -1.06058 0
M  V30 1010 C 101.421 2.2452 -0.680282 0
M  V30 1011 C 102.437 1.71348 0.302604 0
M  V30 1012 O 103.613 2.00822 0.152513 0
M  V30 1013 C 100.678 3.46629 -0.0700315 0
M  V30 1014 C 99.7388 4.14849 -1.10448 0
M  V30 1015 C 98.9718 5.31129 -0.523256 0
M  V30 1016 O 99.1948 5.66514 0.664709 0
M  V30 1017 O 98.1288 5.88526 -1.26179 0
M  V30 1018 H 101.955 2.59355 -1.58015 0
M  V30 1019 H 99.5398 1.24043 -0.832694 0
M  V30 1020 H 101.422 4.20543 0.268667 0
M  V30 1021 H 100.097 3.13573 0.803353 0
M  V30 1022 H 99.0038 3.42916 -1.49532 0
M  V30 1023 H 100.337 4.51954 -1.94931 0
M  V30 1024 N 101.989 0.842826 1.3317 0
M  V30 1025 C 103.266 0.362216 1.92217 0
M  V30 1026 C 103.646 -1.15289 1.76838 0
M  V30 1027 O 102.994 -1.96914 1.15919 0
M  V30 1028 C 103.204 0.813495 3.39387 0
M  V30 1029 C 104.552 0.823804 4.16532 0
M  V30 1030 O 105.576 0.757358 3.48055 0
M  V30 1031 O 104.435 0.915193 5.38782 0
M  V30 1032 H 101.529 0.103317 0.820521 0
M  V30 1033 H 104.075 0.928942 1.42017 0
M  V30 1034 H 102.847 1.85624 3.4447 0
M  V30 1035 H 102.47 0.223561 3.96971 0
M  V30 1036 N 103.467 -1.45747 0.599634 0
M  V30 1037 C 104.377 -2.34262 -0.125888 0
M  V30 1038 C 105.393 -1.50768 -0.868625 0
M  V30 1039 O 106.569 -1.83592 -0.828003 0
M  V30 1040 C 103.634 -3.28252 -1.11587 0
M  V30 1041 C 102.695 -4.27651 -0.375956 0
M  V30 1042 C 101.928 -5.1715 -1.31877 0
M  V30 1043 O 102.151 -5.09916 -2.55621 0
M  V30 1044 O 101.085 -5.96286 -0.820157 0
M  V30 1045 H 104.911 -2.97688 0.601315 0
M  V30 1046 H 102.496 -1.44999 0.359934 0
M  V30 1047 H 104.378 -3.86191 -1.68626 0
M  V30 1048 H 103.053 -2.67401 -1.82424 0
M  V30 1049 H 101.96 -3.7335 0.236698 0
M  V30 1050 H 103.293 -4.91334 0.29177 0
M  V30 1051 N 104.945 -0.338344 -1.53925 0
M  V30 1052 C 106.191 0.260143 -2.01125 0
M  V30 1053 C 106.524 1.50617 -1.22589 0
M  V30 1054 O 105.799 1.91979 -0.312113 0
M  V30 1055 C 106.082 0.579499 -3.55407 0
M  V30 1056 C 105.935 -0.678264 -4.44657 0
M  V30 1057 C 107.254 1.39122 -4.17532 0
M  V30 1058 H 104.373 0.0930772 -0.731099 0
M  V30 1059 H 107.015 -0.457852 -1.84401 0
M  V30 1060 H 105.165 1.19118 -3.69788 0
M  V30 1061 H 106.837 -1.31631 -4.42121 0
M  V30 1062 H 105.08 -1.3042 -4.13731 0
M  V30 1063 H 105.751 -0.410143 -5.50474 0
M  V30 1064 H 108.227 0.874035 -4.06817 0
M  V30 1065 H 107.103 1.58342 -5.25565 0
M  V30 1066 H 107.364 2.39178 -3.71815 0
M  V30 1067 N 106.423 1.57458 -0.0668435 0
M  V30 1068 C 107.371 2.13639 0.919851 0
M  V30 1069 C 108.365 1.07204 1.31163 0
M  V30 1070 O 109.571 1.25591 1.28945 0
M  V30 1071 H 105.946 0.683048 0.314562 0
M  V30 1072 H 107.917 2.95415 0.421047 0
M  V30 1073 C 106.666 2.70892 2.17975 0
M  V30 1074 H 105.989 3.5246 1.88711 0
M  V30 1075 H 107.429 3.13803 2.85138 0
M  V30 1076 C 105.888 1.65414 2.93496 0
M  V30 1077 O 106.418 1.07619 3.87015 0
M  V30 1078 N 104.624 1.36564 2.56512 0
M  V30 1079 H 104.171 1.83751 1.80536 0
M  V30 1080 H 104.129 0.66223 3.07347 0
M  V30 1081 N 107.901 -0.206675 1.56239 0
M  V30 1082 C 109.126 -0.949474 1.8439 0
M  V30 1083 C 109.551 -1.76549 0.649016 0
M  V30 1084 O 108.909 -1.76782 -0.402231 0
M  V30 1085 C 108.957 -1.83078 3.10668 0
M  V30 1086 O 108.061 -2.9281 2.90407 0
M  V30 1087 H 107.402 -0.268033 0.607499 0
M  V30 1088 H 109.932 -0.215488 2.03462 0
M  V30 1089 H 109.942 -2.2377 3.41161 0
M  V30 1090 H 108.617 -1.23112 3.97261 0
M  V30 1091 H 107.194 -2.55956 2.71184 0
M  V30 1092 N 109.379 -1.50304 -0.473955 0
M  V30 1093 C 110.619 -1.62786 -1.23612 0
M  V30 1094 C 110.983 -0.319786 -1.89318 0
M  V30 1095 O 112.184 -0.320012 -2.66888 0
M  V30 1096 C 110.455 -2.77351 -2.25414 0
M  V30 1097 S 112.014 -3.09948 -3.10608 0
M  V30 1098 H 108.832 -0.573895 -0.419721 0
M  V30 1099 H 111.434 -1.88076 -0.533623 0
M  V30 1100 H 110.138 -3.70879 -1.75719 0
M  V30 1101 H 109.669 -2.54137 -3.00296 0
M  V30 1102 H 111.684 -2.53553 -4.26527 0
M  V30 1103 N 110.857 0.726932 -1.39834 0
M  V30 1104 C 112.134 1.47902 -1.28001 0
M  V30 1105 C 112.514 2.1083 0.106789 0
M  V30 1106 O 111.862 1.99242 1.11869 0
M  V30 1107 C 112.072 2.52392 -2.41038 0
M  V30 1108 C 113.42 3.18546 -2.80737 0
M  V30 1109 O 114.444 2.62708 -2.40547 0
M  V30 1110 O 113.303 4.19604 -3.50135 0
M  V30 1111 H 110.397 0.657163 -0.502062 0
M  V30 1112 H 112.943 0.760071 -1.51727 0
M  V30 1113 H 111.715 2.04329 -3.33715 0
M  V30 1114 H 111.338 3.31837 -2.19021 0
M  V30 1115 N 112.336 1.25143 0.95797 0
M  V30 1116 C 113.566 1.12261 1.73439 0
M  V30 1117 C 113.974 -0.326715 1.86358 0
M  V30 1118 O 113.317 -1.2367 1.35836 0
M  V30 1119 C 113.379 1.69966 3.16784 0
M  V30 1120 C 113.043 3.18936 3.27305 0
M  V30 1121 C 114.04 4.15968 3.11877 0
M  V30 1122 C 111.725 3.59083 3.51234 0
M  V30 1123 C 113.719 5.51126 3.20217 0
M  V30 1124 C 111.406 4.9438 3.5921 0
M  V30 1125 C 112.404 5.90211 3.43716 0
M  V30 1126 O 112.092 7.23046 3.51368 0
M  V30 1127 H 111.824 0.392476 0.550399 0
M  V30 1128 H 114.378 1.65927 1.21068 0
M  V30 1129 H 112.608 1.10744 3.70503 0
M  V30 1130 H 114.297 1.52232 3.76272 0
M  V30 1131 H 115.063 3.86292 2.93264 0
M  V30 1132 H 110.942 2.84989 3.62356 0
M  V30 1133 H 114.486 6.25905 3.0804 0
M  V30 1134 H 110.383 5.23723 3.77339 0
M  V30 1135 H 111.151 7.31097 3.6802 0
M  V30 1136 N 113.814 -1.1601 1.06675 0
M  V30 1137 C 115.06 -1.87145 0.796766 0
M  V30 1138 C 115.415 -1.8037 -0.669658 0
M  V30 1139 O 114.708 -1.21116 -1.48463 0
M  V30 1140 C 114.902 -3.35547 1.23057 0
M  V30 1141 C 114.731 -3.56769 2.73762 0
M  V30 1142 C 113.501 -3.72635 3.41279 0
M  V30 1143 C 115.699 -3.55166 3.7197 0
M  V30 1144 N 113.681 -3.81845 4.80695 0
M  V30 1145 C 115.052 -3.70406 4.97191 0
M  V30 1146 C 117.107 -3.384 3.65226 0
M  V30 1147 C 115.81 -3.70615 6.16471 0
M  V30 1148 C 117.836 -3.39904 4.83962 0
M  V30 1149 C 117.198 -3.55667 6.08013 0
M  V30 1150 H 113.297 -0.702267 0.344014 0
M  V30 1151 H 115.881 -1.39165 1.36166 0
M  V30 1152 H 114.052 -3.82159 0.693456 0
M  V30 1153 H 115.784 -3.94363 0.908844 0
M  V30 1154 H 112.539 -3.73121 2.91681 0
M  V30 1155 H 112.963 -3.90209 5.53232 0
M  V30 1156 H 117.605 -3.25138 2.70269 0
M  V30 1157 H 115.323 -3.82658 7.11757 0
M  V30 1158 H 118.909 -3.28169 4.80413 0
M  V30 1159 H 117.789 -3.56755 6.98352 0
M  V30 1160 N 115.292 -0.849877 -1.32721 0
M  V30 1161 C 116.708 -0.539102 -1.50219 0
M  V30 1162 C 116.908 0.931271 -1.78689 0
M  V30 1163 O 115.964 1.71455 -1.85363 0
M  V30 1164 C 117.277 -1.42196 -2.64954 0
M  V30 1165 C 118.825 -1.42189 -2.78839 0
M  V30 1166 C 119.3 -2.28985 -3.96648 0
M  V30 1167 N 120.791 -2.26754 -4.03902 0
M  V30 1168 C 121.526 -2.90644 -4.94281 0
M  V30 1169 N 121.022 -3.63629 -5.897 0
M  V30 1170 N 122.815 -2.80057 -4.87365 0
M  V30 1171 H 114.966 -1.80156 -1.12506 0
M  V30 1172 H 117.229 -0.769217 -0.554085 0
M  V30 1173 H 116.935 -2.46733 -2.50631 0
M  V30 1174 H 116.809 -1.10591 -3.60624 0
M  V30 1175 H 119.196 -0.38419 -2.92588 0
M  V30 1176 H 119.277 -1.77807 -1.83898 0
M  V30 1177 H 118.921 -3.32819 -3.83658 0
M  V30 1178 H 118.851 -1.90702 -4.90857 0
M  V30 1179 H 121.342 -1.73688 -3.3562 0
M  V30 1180 H 121.655 -4.09558 -6.55349 0
M  V30 1181 H 120 -3.67737 -5.89741 0
M  V30 1182 H 123.191 -2.22593 -4.11789 0
M  V30 1183 H 123.364 -3.30132 -5.57599 0
M  V30 1184 N 116.77 1.45427 -0.607355 0
M  V30 1185 C 117.72 2.27612 0.133038 0
M  V30 1186 C 118.704 1.37307 0.838785 0
M  V30 1187 O 119.896 1.61299 0.728813 0
M  V30 1188 C 117.025 3.24173 1.12991 0
M  V30 1189 C 116.111 4.21965 0.425011 0
M  V30 1190 N 116.502 5.02982 -0.533217 0
M  V30 1191 C 114.8 4.40899 0.672593 0
M  V30 1192 C 115.501 5.73931 -0.947518 0
M  V30 1193 N 114.477 5.42819 -0.291321 0
M  V30 1194 H 118.279 2.87649 -0.602935 0
M  V30 1195 H 115.793 1.56576 -0.431006 0
M  V30 1196 H 117.79 3.81783 1.67473 0
M  V30 1197 H 116.45 2.65696 1.86644 0
M  V30 1198 H 117.461 5.09843 -0.90995 0
M  V30 1199 H 114.138 3.93547 1.39382 0
M  V30 1200 H 115.528 6.49037 -1.73782 0
M  V30 1201 N 118.248 0.346503 1.53744 0
M  V30 1202 C 119.488 -0.249413 2.02873 0
M  V30 1203 C 119.852 -1.47532 1.22876 0
M  V30 1204 O 121.053 -2.1456 1.61918 0
M  V30 1205 C 119.324 -0.552909 3.53097 0
M  V30 1206 S 120.883 -1.12521 4.24128 0
M  V30 1207 H 117.701 -0.074042 0.707134 0
M  V30 1208 H 120.303 0.48495 1.8939 0
M  V30 1209 H 119.007 0.347083 4.0893 0
M  V30 1210 H 118.538 -1.31686 3.70705 0
M  V30 1211 H 120.553 -2.41075 4.33702 0
M  V30 1212 N 119.726 -1.57421 0.075193 0
M  V30 1213 C 120.689 -2.11791 -0.876203 0
M  V30 1214 C 121.689 -1.04268 -1.22412 0
M  V30 1215 O 122.879 -1.30242 -1.15684 0
M  V30 1216 C 120.011 -2.62207 -2.17854 0
M  V30 1217 H 121.204 -2.9716 -0.40444 0
M  V30 1218 H 118.757 -1.55333 -0.173557 0
M  V30 1219 H 119.492 -1.803 -2.6956 0
M  V30 1220 H 119.277 -3.40802 -1.93897 0
M  V30 1221 H 120.767 -3.04335 -2.85955 0
M  V30 1222 N 121.204 0.198386 -1.56346 0
M  V30 1223 C 122.45 0.920648 -1.80698 0
M  V30 1224 C 122.783 1.83045 -0.648697 0
M  V30 1225 O 122.058 1.91308 0.350925 0
M  V30 1226 C 122.341 1.73971 -3.15287 0
M  V30 1227 C 122.194 0.85485 -4.41602 0
M  V30 1228 C 123.513 2.71296 -3.46535 0
M  V30 1229 H 120.632 0.333261 -0.657348 0
M  V30 1230 H 123.274 0.188198 -1.89066 0
M  V30 1231 H 121.424 2.36416 -3.08285 0
M  V30 1232 H 123.096 0.245362 -4.60647 0
M  V30 1233 H 121.339 0.161398 -4.335 0
M  V30 1234 H 122.01 1.46286 -5.32264 0
M  V30 1235 H 124.486 2.18983 -3.53816 0
M  V30 1236 H 123.362 3.2569 -4.41834 0
M  V30 1237 H 123.623 3.5018 -2.69864 0
M  V30 1238 N 122.682 1.50554 0.465978 0
M  V30 1239 C 123.959 1.5232 1.22712 0
M  V30 1240 C 124.339 0.270807 2.09356 0
M  V30 1241 O 123.687 -0.745541 2.15995 0
M  V30 1242 C 123.897 2.82175 2.05374 0
M  V30 1243 C 125.245 3.33033 2.6339 0
M  V30 1244 O 126.269 2.83531 2.15612 0
M  V30 1245 O 125.128 4.19336 3.50456 0
M  V30 1246 H 122.222 0.611183 0.557122 0
M  V30 1247 H 124.768 1.62847 0.477381 0
M  V30 1248 H 123.54 3.64797 1.41558 0
M  V30 1249 H 123.163 2.74675 2.87471 0
M  V30 1250 N 124.16 -0.719506 1.40217 0
M  V30 1251 C 125.408 -1.47641 1.3801 0
M  V30 1252 C 125.729 -1.94992 -0.018145 0
M  V30 1253 O 124.999 -1.70073 -0.972207 0
M  V30 1254 H 123.579 -0.547744 0.507923 0
M  V30 1255 H 126.241 -0.853187 1.75233 0
M  V30 1256 H 125.337 -2.35112 2.05253 0
M  V30 1257 N 125.638 -1.25649 -0.95132 0
M  V30 1258 C 126.885 -1.10594 -1.69633 0
M  V30 1259 C 127.213 0.352515 -1.91279 0
M  V30 1260 O 126.468 1.27601 -1.4838 0
M  V30 1261 C 126.767 -1.80909 -3.08231 0
M  V30 1262 C 126.433 -3.30825 -3.06375 0
M  V30 1263 C 125.095 -3.71722 -3.05576 0
M  V30 1264 C 127.447 -4.26589 -2.99452 0
M  V30 1265 C 124.775 -5.06788 -2.95606 0
M  V30 1266 C 127.127 -5.61683 -2.91024 0
M  V30 1267 C 125.791 -6.01904 -2.88562 0
M  V30 1268 H 125.061 -0.404691 -0.620731 0
M  V30 1269 H 127.708 -1.55964 -1.11119 0
M  V30 1270 H 126.013 -1.27979 -3.70309 0
M  V30 1271 H 127.71 -1.6671 -3.64704 0
M  V30 1272 H 124.3 -2.98287 -3.07771 0
M  V30 1273 H 128.484 -3.95982 -2.99185 0
M  V30 1274 H 123.74 -5.37126 -2.92071 0
M  V30 1275 H 127.914 -6.35578 -2.84629 0
M  V30 1276 H 125.541 -7.06521 -2.80593 0
M  V30 1277 N 127.117 1.15442 -1.07289 0
M  V30 1278 C 128.047 2.22312 -0.714107 0
M  V30 1279 C 129.028 1.67467 0.298155 0
M  V30 1280 O 130.213 1.93445 0.171048 0
M  V30 1281 C 127.343 3.47124 -0.110448 0
M  V30 1282 C 126.297 4.14926 -1.04979 0
M  V30 1283 C 125.623 5.33807 -0.308924 0
M  V30 1284 C 126.923 4.64762 -2.38314 0
M  V30 1285 H 128.617 2.5258 -1.6076 0
M  V30 1286 H 126.163 1.21404 -0.77441 0
M  V30 1287 H 128.116 4.21124 0.152482 0
M  V30 1288 H 126.84 3.16187 0.81812 0
M  V30 1289 H 125.499 3.42866 -1.29764 0
M  V30 1290 H 125.147 4.99126 0.623084 0
M  V30 1291 H 124.847 5.80113 -0.935036 0
M  V30 1292 H 126.371 6.10576 -0.0537771 0
M  V30 1293 H 127.785 5.30292 -2.1786 0
M  V30 1294 H 126.182 5.21728 -2.96514 0
M  V30 1295 H 127.252 3.80434 -3.00663 0
M  V30 1296 N 128.595 0.856903 1.32268 0
M  V30 1297 C 129.835 0.467705 1.98977 0
M  V30 1298 C 130.199 -0.959231 1.66321 0
M  V30 1299 O 131.4 -1.4531 2.26138 0
M  V30 1300 C 129.671 0.70256 3.50427 0
M  V30 1301 S 131.23 0.411269 4.36868 0
M  V30 1302 H 128.048 0.175121 0.689096 0
M  V30 1303 H 130.65 1.1101 1.60925 0
M  V30 1304 H 129.354 1.74012 3.71683 0
M  V30 1305 H 128.885 0.0466707 3.93372 0
M  V30 1306 H 130.9 -0.761799 4.90317 0
M  V30 1307 N 130.073 -1.45103 0.615059 0
M  V30 1308 C 131.298 -2.07064 0.117988 0
M  V30 1309 C 131.723 -1.4554 -1.19163 0
M  V30 1310 O 131.081 -0.550855 -1.72729 0
M  V30 1311 C 131.129 -3.606 -0.000288387 0
M  V30 1312 O 130.233 -3.98847 -1.04856 0
M  V30 1313 H 129.574 -0.659467 0.0774581 0
M  V30 1314 H 132.104 -1.86236 0.847186 0
M  V30 1315 H 132.114 -4.07529 -0.196091 0
M  V30 1316 H 130.789 -4.04765 0.955932 0
M  V30 1317 H 129.366 -3.63577 -0.828619 0
M  V30 1318 N 131.551 -0.354651 -1.53558 0
M  V30 1319 C 132.791 0.238651 -2.03002 0
M  V30 1320 C 133.155 1.46878 -1.23656 0
M  V30 1321 O 134.356 2.13699 -1.63053 0
M  V30 1322 C 132.627 0.534175 -3.53386 0
M  V30 1323 S 134.186 1.10271 -4.24719 0
M  V30 1324 H 131.004 0.0702908 -0.707517 0
M  V30 1325 H 133.606 -0.494987 -1.8913 0
M  V30 1326 H 132.31 -0.368765 -4.0874 0
M  V30 1327 H 131.841 1.29718 -3.71398 0
M  V30 1328 H 133.856 2.38772 -4.34974 0
M  V30 1329 N 133.029 1.57378 -0.0835403 0
M  V30 1330 C 134.269 1.95808 0.586381 0
M  V30 1331 C 134.633 0.963706 1.66062 0
M  V30 1332 O 135.834 1.23608 2.38693 0
M  V30 1333 C 134.105 3.38808 1.13771 0
M  V30 1334 S 135.664 3.99225 1.82112 0
M  V30 1335 H 132.482 0.684675 0.191679 0
M  V30 1336 H 135.084 1.94843 -0.160194 0
M  V30 1337 H 133.788 4.08954 0.344197 0
M  V30 1338 H 133.319 3.43344 1.92038 0
M  V30 1339 H 135.334 3.87087 3.10449 0
M  V30 1340 N 134.507 -0.190092 1.56449 0
M  V30 1341 C 135.755 -0.907908 1.80559 0
M  V30 1342 C 136.076 -1.83583 0.657438 0
M  V30 1343 O 135.346 -1.93203 -0.323924 0
M  V30 1344 H 133.926 -0.338247 0.666032 0
M  V30 1345 H 136.588 -0.194403 1.93928 0
M  V30 1346 H 135.684 -1.49604 2.73907 0
M  V30 1347 N 135.985 -1.50799 -0.457987 0
M  V30 1348 C 137.233 -1.62121 -1.2067 0
M  V30 1349 C 137.554 -0.329793 -1.92191 0
M  V30 1350 O 136.824 0.653409 -1.84682 0
M  V30 1351 H 135.404 -0.597441 -0.448411 0
M  V30 1352 H 138.066 -1.87637 -0.527096 0
M  V30 1353 H 137.162 -2.43882 -1.94751 0
M  V30 1354 N 137.463 0.71206 -1.40597 0
M  V30 1355 C 138.691 1.50111 -1.42388 0
M  V30 1356 C 139.106 1.88784 -0.0245395 0
M  V30 1357 O 138.463 1.55681 0.952351 0
M  V30 1358 C 138.514 2.7742 -2.31776 0
M  V30 1359 O 138.235 2.40382 -3.66262 0
M  V30 1360 C 139.736 3.7129 -2.42196 0
M  V30 1361 H 136.956 0.46314 -0.485533 0
M  V30 1362 H 139.5 0.878068 -1.8469 0
M  V30 1363 H 137.655 3.36001 -1.92827 0
M  V30 1364 H 138.069 3.22324 -4.13772 0
M  V30 1365 H 139.543 4.57448 -3.08943 0
M  V30 1366 H 140.02 4.14641 -1.44809 0
M  V30 1367 H 140.626 3.18619 -2.81712 0
M  V30 1368 N 138.941 1.26152 0.944643 0
M  V30 1369 C 140.169 1.14259 1.72489 0
M  V30 1370 C 140.584 -0.302555 1.8636 0
M  V30 1371 O 139.941 -1.20741 1.36849 0
M  V30 1372 C 139.992 1.80266 3.13347 0
M  V30 1373 O 139.713 3.19133 3.00143 0
M  V30 1374 C 141.214 1.74283 4.07603 0
M  V30 1375 H 138.434 0.398051 0.540181 0
M  V30 1376 H 140.978 1.66706 1.18446 0
M  V30 1377 H 139.133 1.31766 3.64303 0
M  V30 1378 H 139.547 3.51744 3.89071 0
M  V30 1379 H 141.021 2.25111 5.04013 0
M  V30 1380 H 141.498 0.708631 4.33446 0
M  V30 1381 H 142.104 2.22319 3.62567 0
M  V30 1382 N 140.419 -1.14872 1.07899 0
M  V30 1383 C 141.647 -1.89661 0.82683 0
M  V30 1384 C 142.062 -1.78312 -0.620519 0
M  V30 1385 O 141.419 -1.13888 -1.42604 0
M  V30 1386 C 141.47 -3.39817 1.23316 0
M  V30 1387 O 141.191 -3.50845 2.62372 0
M  V30 1388 C 142.692 -4.31615 1.0111 0
M  V30 1389 H 139.912 -0.60092 0.298557 0
M  V30 1390 H 142.456 -1.4551 1.43691 0
M  V30 1391 H 140.611 -3.8161 0.667286 0
M  V30 1392 H 141.025 -4.44076 2.79101 0
M  V30 1393 H 142.499 -5.35367 1.34486 0
M  V30 1394 H 142.976 -4.39169 -0.0522168 0
M  V30 1395 H 143.582 -3.95572 1.56215 0
M  V30 1396 N 141.898 -0.863906 -1.31812 0
M  V30 1397 C 143.126 -0.486111 -2.01108 0
M  V30 1398 C 143.541 0.919755 -1.64882 0
M  V30 1399 O 142.898 1.60162 -0.874893 0
M  V30 1400 C 142.949 -0.626435 -3.56031 0
M  V30 1401 O 142.67 -1.97693 -3.90959 0
M  V30 1402 C 144.171 -0.248857 -4.42601 0
M  V30 1403 H 141.391 -0.190052 -0.643523 0
M  V30 1404 H 143.935 -1.1634 -1.68182 0
M  V30 1405 H 142.09 0.00322717 -3.874 0
M  V30 1406 H 142.504 -1.98034 -4.85678 0
M  V30 1407 H 143.978 -0.398016 -5.50563 0
M  V30 1408 H 144.455 0.811489 -4.31638 0
M  V30 1409 H 145.061 -0.853971 -4.16638 0
M  V30 1410 N 143.376 1.44774 -0.622745 0
M  V30 1411 C 144.616 2.04004 -0.127102 0
M  V30 1412 C 144.98 1.47862 1.22478 0
M  V30 1413 O 146.181 1.98541 1.81204 0
M  V30 1414 C 144.452 3.57247 -0.104429 0
M  V30 1415 S 146.011 4.37574 0.327814 0
M  V30 1416 H 142.829 0.708713 -0.0569776 0
M  V30 1417 H 145.431 1.77275 -0.824253 0
M  V30 1418 H 144.135 3.95616 -1.09159 0
M  V30 1419 H 143.666 3.88575 0.614236 0
M  V30 1420 H 145.681 4.70575 1.57395 0
M  V30 1421 N 144.854 0.36279 1.53368 0
M  V30 1422 C 146.265 -0.117022 1.86333 0
M  V30 1423 C 146.616 -1.48397 1.28347 0
M  V30 1424 O 145.741 -2.07787 0.604428 0
M  V30 1425 C 146.336 -0.21912 3.38091 0
M  V30 1426 C 144.895 -0.643184 3.70864 0
M  V30 1427 C 144.042 0.211318 2.76494 0
M  V30 1428 H 146.993 0.581687 1.47655 0
M  V30 1429 H 147.014 -1.04319 3.6592 0
M  V30 1430 H 146.526 0.775902 3.80265 0
M  V30 1431 H 144.627 -1.64654 3.34245 0
M  V30 1432 H 144.74 -0.41973 4.77258 0
M  V30 1433 H 143.104 -0.319367 2.5269 0
M  V30 1434 H 143.887 1.20383 3.21501 0
M  V30 1435 N 146.332 -1.57332 0.0918853 0
M  V30 1436 C 147.743 -1.81496 -0.437739 0
M  V30 1437 C 148.094 -1.00727 -1.6837 0
M  V30 1438 O 147.219 -0.235694 -2.15113 0
M  V30 1439 C 147.814 -3.29197 -0.800939 0
M  V30 1440 C 146.373 -3.54136 -1.27532 0
M  V30 1441 C 145.52 -2.75979 -0.270392 0
M  V30 1442 H 148.471 -1.55494 0.317366 0
M  V30 1443 H 148.492 -3.42344 -1.66074 0
M  V30 1444 H 148.004 -3.87955 0.106078 0
M  V30 1445 H 146.105 -3.00705 -2.20016 0
M  V30 1446 H 146.218 -4.62792 -1.23938 0
M  V30 1447 H 144.582 -2.43349 -0.751872 0
M  V30 1448 H 145.365 -3.37484 0.629248 0
M  V30 1449 N 147.81 0.181792 -1.56548 0
M  V30 1450 C 149.058 0.89832 -1.81038 0
M  V30 1451 C 149.379 1.83232 -0.667164 0
M  V30 1452 O 148.649 1.93372 0.313673 0
M  V30 1453 H 147.229 0.33471 -0.667816 0
M  V30 1454 H 149.891 0.184116 -1.94028 0
M  V30 1455 H 148.987 1.4815 -2.74696 0
M  V30 1456 N 149.288 1.51039 0.449983 0
M  V30 1457 C 150.513 1.6715 1.22783 0
M  V30 1458 C 150.938 0.363081 1.84563 0
M  V30 1459 O 150.296 -0.675433 1.68249 0
M  V30 1460 C 150.344 2.77985 2.29689 0
M  V30 1461 O 149.448 2.40707 3.34864 0
M  V30 1462 H 148.789 0.557746 0.360299 0
M  V30 1463 H 151.319 1.97535 0.533005 0
M  V30 1464 H 151.329 3.01693 2.74673 0
M  V30 1465 H 150.004 3.72935 1.84098 0
M  V30 1466 H 148.581 2.27523 2.95445 0
M  V30 1467 N 150.766 -0.704594 1.40972 0
M  V30 1468 C 151.994 -1.49354 1.43182 0
M  V30 1469 C 152.409 -1.88768 0.0345508 0
M  V30 1470 O 151.766 -1.56184 -0.944081 0
M  V30 1471 C 151.817 -2.76187 2.33244 0
M  V30 1472 O 151.538 -2.38436 3.67532 0
M  V30 1473 C 153.039 -3.7 2.44162 0
M  V30 1474 H 150.259 -0.460559 0.487982 0
M  V30 1475 H 152.803 -0.868261 1.85153 0
M  V30 1476 H 150.958 -3.34974 1.94606 0
M  V30 1477 H 151.372 -3.20126 4.15475 0
M  V30 1478 H 152.846 -4.55803 3.11364 0
M  V30 1479 H 153.323 -4.13867 1.47006 0
M  V30 1480 H 153.929 -3.17121 2.83398 0
M  V30 1481 N 152.244 -1.26651 -0.937939 0
M  V30 1482 C 153.655 -1.1125 -1.49934 0
M  V30 1483 C 154.006 0.306077 -1.93798 0
M  V30 1484 O 153.131 1.19792 -1.80219 0
M  V30 1485 C 153.726 -2.01339 -2.72485 0
M  V30 1486 C 152.285 -1.90074 -3.24883 0
M  V30 1487 C 151.432 -1.94498 -1.97651 0
M  V30 1488 H 154.383 -1.39693 -0.753091 0
M  V30 1489 H 154.404 -1.56319 -3.46907 0
M  V30 1490 H 153.916 -3.04577 -2.40529 0
M  V30 1491 H 152.017 -0.897827 -3.61621 0
M  V30 1492 H 152.13 -2.75778 -3.9177 0
M  V30 1493 H 150.494 -1.38591 -2.13693 0
M  V30 1494 H 151.277 -2.99372 -1.68022 0
M  V30 1495 N 153.722 1.14298 -1.08507 0
M  V30 1496 C 154.947 1.8976 -0.837001 0
M  V30 1497 C 155.372 1.78097 0.605228 0
M  V30 1498 O 154.73 1.12188 1.4242 0
M  V30 1499 C 154.778 3.37685 -1.26495 0
M  V30 1500 O 153.882 4.10281 -0.417514 0
M  V30 1501 H 153.223 0.590365 -0.303917 0
M  V30 1502 H 155.753 1.44672 -1.44676 0
M  V30 1503 H 155.763 3.88501 -1.24625 0
M  V30 1504 H 154.438 3.45492 -2.31534 0
M  V30 1505 H 153.015 3.69536 -0.499722 0
M  V30 1506 N 155.201 0.870884 1.31352 0
M  V30 1507 C 156.612 0.534714 1.78879 0
M  V30 1508 C 156.963 -0.948423 1.71754 0
M  V30 1509 O 156.088 -1.74055 1.28584 0
M  V30 1510 C 156.683 0.963839 3.24801 0
M  V30 1511 C 155.242 0.679311 3.70219 0
M  V30 1512 C 154.389 1.15465 2.52117 0
M  V30 1513 H 157.34 1.05651 1.18421 0
M  V30 1514 H 157.361 0.286892 3.79417 0
M  V30 1515 H 156.873 2.04332 3.29955 0
M  V30 1516 H 154.974 -0.388769 3.70566 0
M  V30 1517 H 155.087 1.25698 4.62317 0
M  V30 1518 H 153.451 0.574383 2.48139 0
M  V30 1519 H 154.234 2.24157 2.60016 0
M  V30 1520 N 156.679 -1.44442 0.630414 0
M  V30 1521 C 157.928 -2.01267 0.132073 0
M  V30 1522 C 158.241 -1.50172 -1.25331 0
M  V30 1523 O 159.447 -1.9912 -1.84562 0
M  V30 1524 C 157.903 -3.59422 0.185362 0
M  V30 1525 C 157.511 -4.19514 1.57201 0
M  V30 1526 C 159.255 -4.23724 -0.256553 0
M  V30 1527 C 157.162 -5.69891 1.58045 0
M  V30 1528 H 156.092 -0.752619 0.0456092 0
M  V30 1529 H 158.743 -1.65666 0.789106 0
M  V30 1530 H 157.125 -3.92318 -0.538759 0
M  V30 1531 H 158.299 -3.98156 2.31966 0
M  V30 1532 H 156.614 -3.67496 1.95795 0
M  V30 1533 H 159.211 -5.34019 -0.269767 0
M  V30 1534 H 159.554 -3.96013 -1.28372 0
M  V30 1535 H 160.087 -3.95629 0.41505 0
M  V30 1536 H 156.826 -6.02336 2.58597 0
M  V30 1537 H 156.346 -5.93373 0.875725 0
M  V30 1538 H 158.025 -6.33515 1.31408 0
M  V30 1539 N 158.157 -0.370918 -1.53173 0
M  V30 1540 C 159.382 0.220293 -2.06227 0
M  V30 1541 C 159.807 1.41243 -1.24225 0
M  V30 1542 O 159.165 1.79387 -0.262645 0
M  V30 1543 C 159.213 0.586663 -3.55796 0
M  V30 1544 O 158.317 1.68317 -3.76488 0
M  V30 1545 H 157.658 0.0308099 -0.663285 0
M  V30 1546 H 160.188 -0.533068 -1.97534 0
M  V30 1547 H 160.198 0.85617 -3.98916 0
M  V30 1548 H 158.873 -0.285013 -4.14922 0
M  V30 1549 H 157.45 1.40881 -3.45264 0
M  V30 1550 N 159.635 1.57281 -0.100228 0
M  V30 1551 C 160.881 1.95626 0.556946 0
M  V30 1552 C 161.236 0.981655 1.65473 0
M  V30 1553 O 160.529 0.00849847 1.91598 0
M  V30 1554 C 160.723 3.38305 1.15259 0
M  V30 1555 C 160.552 4.49555 0.114035 0
M  V30 1556 C 159.322 5.0434 -0.311266 0
M  V30 1557 C 161.52 5.10051 -0.659768 0
M  V30 1558 N 159.502 5.99152 -1.33755 0
M  V30 1559 C 160.873 6.00628 -1.53774 0
M  V30 1560 C 162.928 4.92772 -0.712723 0
M  V30 1561 C 161.631 6.7578 -2.46403 0
M  V30 1562 C 163.657 5.6859 -1.62663 0
M  V30 1563 C 163.019 6.58838 -2.49222 0
M  V30 1564 H 159.118 0.7624 0.173982 0
M  V30 1565 H 161.702 1.93829 -0.183988 0
M  V30 1566 H 159.873 3.40786 1.86332 0
M  V30 1567 H 161.605 3.63817 1.77254 0
M  V30 1568 H 158.36 4.73537 0.0774812 0
M  V30 1569 H 158.784 6.5126 -1.84905 0
M  V30 1570 H 163.426 4.22761 -0.0576648 0
M  V30 1571 H 161.144 7.4505 -3.12931 0
M  V30 1572 H 164.73 5.57233 -1.67281 0
M  V30 1573 H 163.61 7.16479 -3.18791 0
M  V30 1574 N 161.113 -0.173488 1.56642 0
M  V30 1575 C 162.362 -0.888758 1.81063 0
M  V30 1576 C 162.675 -1.83506 0.67712 0
M  V30 1577 O 163.881 -2.59254 0.806206 0
M  V30 1578 C 162.337 -1.63091 3.20826 0
M  V30 1579 C 161.945 -0.728357 4.4204 0
M  V30 1580 C 163.689 -2.33454 3.54541 0
M  V30 1581 C 161.596 -1.47062 5.72823 0
M  V30 1582 H 160.526 -0.335618 0.675186 0
M  V30 1583 H 163.177 -0.141712 1.82952 0
M  V30 1584 H 161.559 -2.42263 3.13248 0
M  V30 1585 H 162.733 0.0262449 4.60793 0
M  V30 1586 H 161.048 -0.134492 4.16183 0
M  V30 1587 H 163.645 -2.89578 4.49498 0
M  V30 1588 H 163.988 -3.08687 2.79317 0
M  V30 1589 H 164.521 -1.61227 3.63663 0
M  V30 1590 H 161.26 -0.760658 6.51072 0
M  V30 1591 H 160.78 -2.1986 5.58052 0
M  V30 1592 H 162.459 -2.01868 6.14702 0
M  V30 1593 N 162.591 -1.51276 -0.441967 0
M  V30 1594 C 163.839 -1.63392 -1.18943 0
M  V30 1595 C 164.16 -0.350159 -1.9183 0
M  V30 1596 O 163.43 0.633784 -1.85364 0
M  V30 1597 H 162.01 -0.602164 -0.442049 0
M  V30 1598 H 164.672 -1.88186 -0.507165 0
M  V30 1599 H 163.768 -2.45934 -1.92154 0
M  V30 1600 N 164.069 0.697108 -1.41344 0
M  V30 1601 C 165.297 1.48593 -1.43972 0
M  V30 1602 C 165.712 1.88747 -0.0445612 0
M  V30 1603 O 165.069 1.56682 0.935785 0
M  V30 1604 C 165.12 2.74946 -2.34706 0
M  V30 1605 O 164.841 2.36484 -3.68791 0
M  V30 1606 C 166.342 3.687 -2.46121 0
M  V30 1607 H 163.562 0.457964 -0.490418 0
M  V30 1608 H 166.106 0.858429 -1.8561 0
M  V30 1609 H 164.261 3.33937 -1.9638 0
M  V30 1610 H 164.675 3.17918 -4.17167 0
M  V30 1611 H 166.149 4.54145 -3.13777 0
M  V30 1612 H 166.626 4.13081 -1.49199 0
M  V30 1613 H 167.232 3.15613 -2.85076 0
M  V30 1614 N 165.547 1.27147 0.931209 0
M  V30 1615 C 166.787 1.14511 1.69312 0
M  V30 1616 C 167.151 -0.304638 1.89568 0
M  V30 1617 O 168.352 -0.553343 2.63043 0
M  V30 1618 C 166.623 1.90349 3.02493 0
M  V30 1619 S 168.182 1.93884 3.93642 0
M  V30 1620 H 165 0.408858 0.581684 0
M  V30 1621 H 167.602 1.61006 1.10893 0
M  V30 1622 H 166.306 2.94877 2.85439 0
M  V30 1623 H 165.837 1.44333 3.65966 0
M  V30 1624 H 167.852 1.03273 4.85334 0
M  V30 1625 N 167.025 -1.13721 1.09112 0
M  V30 1626 C 167.975 -2.17082 0.697091 0
M  V30 1627 C 168.959 -1.58321 -0.286923 0
M  V30 1628 O 170.151 -1.7673 -0.0978008 0
M  V30 1629 C 167.28 -3.43105 0.115729 0
M  V30 1630 C 166.366 -4.0888 1.12596 0
M  V30 1631 N 166.757 -4.4987 2.31195 0
M  V30 1632 C 165.055 -4.35471 0.963366 0
M  V30 1633 C 165.756 -5.01094 2.95431 0
M  V30 1634 N 164.732 -4.95751 2.23006 0
M  V30 1635 H 168.534 -2.46524 1.6001 0
M  V30 1636 H 166.048 -1.30481 0.966869 0
M  V30 1637 H 168.045 -4.16491 -0.184555 0
M  V30 1638 H 166.705 -3.15138 -0.78217 0
M  V30 1639 H 167.716 -4.42678 2.68806 0
M  V30 1640 H 164.393 -4.17328 0.119878 0
M  V30 1641 H 165.783 -5.4263 3.96236 0
M  V30 1642 N 168.503 -0.877838 -1.30888 0
M  V30 1643 C 169.451 -0.328662 -2.30266 0
M  V30 1644 C 170.445 0.560496 -1.59859 0
M  V30 1645 O 171.651 0.445722 -1.74394 0
M  V30 1646 H 168.026 -0.0876142 -0.746879 0
M  V30 1647 H 169.997 -1.18061 -2.74051 0
M  V30 1648 C 168.746 0.448071 -3.44801 0
M  V30 1649 H 168.069 -0.226859 -3.99156 0
M  V30 1650 H 169.509 0.797541 -4.16432 0
M  V30 1651 C 167.968 1.64239 -2.94155 0
M  V30 1652 O 168.498 2.74175 -2.93583 0
M  V30 1653 N 166.704 1.47716 -2.50256 0
M  V30 1654 H 166.251 0.582821 -2.5092 0
M  V30 1655 H 166.209 2.27765 -2.16727 0
M  V30 1656 N 169.982 1.44106 -0.638065 0
M  V30 1657 C 171.393 1.85316 -0.226894 0
M  V30 1658 C 171.744 1.53399 1.22324 0
M  V30 1659 O 170.869 0.975463 1.93167 0
M  V30 1660 C 171.464 3.3637 -0.405013 0
M  V30 1661 C 170.023 3.76369 -0.0482902 0
M  V30 1662 C 169.17 2.67921 -0.715108 0
M  V30 1663 H 172.121 1.34474 -0.842764 0
M  V30 1664 H 172.142 3.7885 0.354 0
M  V30 1665 H 171.654 3.59569 -1.46053 0
M  V30 1666 H 169.755 3.58784 1.00522 0
M  V30 1667 H 169.868 4.76856 -0.463187 0
M  V30 1668 H 168.232 2.54259 -0.149753 0
M  V30 1669 H 169.015 2.93951 -1.77335 0
M  V30 1670 N 171.46 0.379036 1.52974 0
M  V30 1671 C 172.41 -0.477772 2.22938 0
M  V30 1672 C 173.394 -1.03792 1.22948 0
M  V30 1673 O 174.586 -0.965725 1.48333 0
M  V30 1674 C 171.715 -1.60994 3.03209 0
M  V30 1675 C 170.801 -1.06203 4.10587 0
M  V30 1676 N 171.192 -0.238214 5.05239 0
M  V30 1677 C 169.49 -1.33554 4.25534 0
M  V30 1678 C 170.191 0.0633235 5.81666 0
M  V30 1679 N 169.167 -0.537901 5.40932 0
M  V30 1680 H 172.969 0.158295 2.93473 0
M  V30 1681 H 170.483 0.187778 1.61311 0
M  V30 1682 H 172.48 -2.23607 3.5186 0
M  V30 1683 H 171.14 -2.24893 2.34207 0
M  V30 1684 H 172.151 0.123695 5.17752 0
M  V30 1685 H 168.828 -1.97632 3.6776 0
M  V30 1686 H 170.218 0.730161 6.67921 0
M  V30 1687 N 172.938 -1.57226 0.108567 0
M  V30 1688 C 174.215 -1.86333 -0.594939 0
M  V30 1689 C 174.595 -1.00788 -1.85486 0
M  V30 1690 O 173.943 -0.0839293 -2.28346 0
M  V30 1691 C 174.153 -3.37265 -0.897405 0
M  V30 1692 C 175.501 -4.05629 -1.25501 0
M  V30 1693 O 176.525 -3.42224 -0.987998 0
M  V30 1694 O 175.384 -5.17531 -1.75567 0
M  V30 1695 H 172.478 -0.771018 -0.2991 0
M  V30 1696 H 175.024 -1.69102 0.142283 0
M  V30 1697 H 173.796 -3.913 -0.00413806 0
M  V30 1698 H 173.419 -3.59889 -1.69014 0
M  V30 1699 N 174.416 0.165178 -1.56732 0
M  V30 1700 C 175.664 0.879068 -1.8198 0
M  V30 1701 C 175.985 1.82514 -0.686561 0
M  V30 1702 O 175.255 1.93694 0.293146 0
M  V30 1703 H 173.835 0.327608 -0.671329 0
M  V30 1704 H 176.497 0.163526 -1.94213 0
M  V30 1705 H 175.593 1.45228 -2.76252 0
M  V30 1706 N 175.894 1.51508 0.433938 0
M  V30 1707 C 176.841 1.73068 1.52696 0
M  V30 1708 C 177.811 0.572441 1.55924 0
M  V30 1709 O 178.996 0.807253 1.72882 0
M  V30 1710 C 176.136 1.86474 2.90381 0
M  V30 1711 C 175.249 3.14037 2.96656 0
M  V30 1712 C 174.384 3.18019 4.25485 0
M  V30 1713 C 173.423 4.39882 4.2564 0
M  V30 1714 N 172.56 4.41394 5.45999 0
M  V30 1715 H 177.4 2.66366 1.33615 0
M  V30 1716 H 174.937 1.32008 0.649018 0
M  V30 1717 H 176.895 1.92229 3.70275 0
M  V30 1718 H 175.525 0.965809 3.08013 0
M  V30 1719 H 174.577 3.17575 2.09404 0
M  V30 1720 H 175.889 4.0394 2.92633 0
M  V30 1721 H 175.043 3.22708 5.13755 0
M  V30 1722 H 173.782 2.2601 4.3217 0
M  V30 1723 H 172.787 4.35366 3.35763 0
M  V30 1724 H 174.012 5.33159 4.20617 0
M  V30 1725 H 171.958 3.52258 5.53399 0
M  V30 1726 H 171.875 5.25111 5.4387 0
M  V30 1727 H 173.143 4.50281 6.36292 0
M  V30 1728 N 177.372 -0.689602 1.41712 0
M  V30 1729 C 178.649 -1.44457 1.31877 0
M  V30 1730 C 179.029 -2.11039 -0.0508537 0
M  V30 1731 O 178.377 -2.02138 -1.06547 0
M  V30 1732 C 178.587 -2.45913 2.47645 0
M  V30 1733 C 179.935 -3.10991 2.89084 0
M  V30 1734 O 180.959 -2.56238 2.47428 0
M  V30 1735 O 179.818 -4.10174 3.61137 0
M  V30 1736 H 176.912 -0.64362 0.519309 0
M  V30 1737 H 179.458 -0.719576 1.53689 0
M  V30 1738 H 178.23 -1.95409 3.39015 0
M  V30 1739 H 177.853 -3.25913 2.27742 0
M  V30 1740 N 178.85 -1.27639 -0.924453 0
M  V30 1741 C 180.08 -1.16819 -1.70402 0
M  V30 1742 C 180.488 0.277191 -1.87158 0
M  V30 1743 O 179.831 1.20025 -1.39067 0
M  V30 1744 C 179.893 -1.78305 -3.12166 0
M  V30 1745 C 179.557 -3.27502 -3.18734 0
M  V30 1746 C 180.554 -4.2409 -3.00738 0
M  V30 1747 C 178.239 -3.68269 -3.4159 0
M  V30 1748 C 180.233 -5.59422 -3.05492 0
M  V30 1749 C 177.92 -5.0373 -3.45977 0
M  V30 1750 C 178.918 -5.99116 -3.27946 0
M  V30 1751 O 178.606 -7.32108 -3.32074 0
M  V30 1752 H 178.338 -0.406931 -0.539799 0
M  V30 1753 H 180.892 -1.69078 -1.16626 0
M  V30 1754 H 179.122 -1.20528 -3.67437 0
M  V30 1755 H 180.811 -1.62154 -3.72103 0
M  V30 1756 H 181.577 -3.93931 -2.82919 0
M  V30 1757 H 177.456 -2.94496 -3.54673 0
M  V30 1758 H 181 -6.33852 -2.91337 0
M  V30 1759 H 176.897 -5.33543 -3.63321 0
M  V30 1760 H 177.665 -7.40598 -3.48507 0
M  V30 1761 N 180.328 1.1314 -1.09713 0
M  V30 1762 C 181.258 2.20748 -0.761102 0
M  V30 1763 C 182.239 1.68061 0.262566 0
M  V30 1764 O 183.424 1.93765 0.129977 0
M  V30 1765 C 180.554 3.46812 -0.184054 0
M  V30 1766 C 179.508 4.12606 -1.13757 0
M  V30 1767 C 178.834 5.33031 -0.422083 0
M  V30 1768 C 180.134 4.59603 -2.48118 0
M  V30 1769 H 181.828 2.49113 -1.66082 0
M  V30 1770 H 179.374 1.19734 -0.799987 0
M  V30 1771 H 181.327 4.21353 0.0631215 0
M  V30 1772 H 180.051 3.17851 0.750868 0
M  V30 1773 H 178.71 3.40036 -1.37007 0
M  V30 1774 H 178.358 5.00335 0.517072 0
M  V30 1775 H 178.058 5.77999 -1.05788 0
M  V30 1776 H 179.582 6.10325 -0.183277 0
M  V30 1777 H 180.996 5.25552 -2.29059 0
M  V30 1778 H 179.393 5.15321 -3.07514 0
M  V30 1779 H 180.463 3.73971 -3.08665 0
M  V30 1780 N 181.806 0.884767 1.30421 0
M  V30 1781 C 183.055 0.499164 1.95426 0
M  V30 1782 C 183.368 -0.95645 1.70621 0
M  V30 1783 O 184.574 -1.44889 2.29607 0
M  V30 1784 C 183.03 0.84177 3.49917 0
M  V30 1785 C 182.638 2.31514 3.83543 0
M  V30 1786 C 184.382 0.525355 4.21237 0
M  V30 1787 C 182.289 2.59939 5.31212 0
M  V30 1788 H 181.219 0.182944 0.73147 0
M  V30 1789 H 183.87 1.07971 1.48373 0
M  V30 1790 H 182.252 0.190311 3.95542 0
M  V30 1791 H 183.426 3.0109 3.48829 0
M  V30 1792 H 181.741 2.59907 3.25326 0
M  V30 1793 H 184.338 0.714762 5.29901 0
M  V30 1794 H 184.681 -0.535222 4.12845 0
M  V30 1795 H 185.214 1.134 3.81294 0
M  V30 1796 H 181.953 3.64736 5.44654 0
M  V30 1797 H 181.473 1.94972 5.67227 0
M  V30 1798 H 183.152 2.45429 5.98643 0
M  V30 1799 N 183.284 -1.43765 0.645699 0
M  V30 1800 C 184.509 -2.06767 0.161883 0
M  V30 1801 C 184.934 -1.48034 -1.16049 0
M  V30 1802 O 184.292 -0.587369 -1.71522 0
M  V30 1803 C 184.34 -3.60519 0.0762003 0
M  V30 1804 O 183.444 -4.00982 -0.963721 0
M  V30 1805 H 182.785 -0.657675 0.091429 0
M  V30 1806 H 185.315 -1.84397 0.886499 0
M  V30 1807 H 185.325 -4.07853 -0.109604 0
M  V30 1808 H 184 -4.02646 1.04157 0
M  V30 1809 H 182.577 -3.65253 -0.751312 0
M  V30 1810 N 184.763 -0.387143 -1.52771 0
M  V30 1811 C 185.993 0.195585 -2.05672 0
M  V30 1812 C 186.401 1.41241 -1.25887 0
M  V30 1813 O 185.744 1.81265 -0.298081 0
M  V30 1814 C 185.806 0.632327 -3.53895 0
M  V30 1815 C 185.47 -0.470739 -4.54569 0
M  V30 1816 C 186.467 -1.32746 -5.02667 0
M  V30 1817 C 184.152 -0.637151 -4.98243 0
M  V30 1818 C 186.146 -2.33574 -5.93061 0
M  V30 1819 C 183.833 -1.64877 -5.88438 0
M  V30 1820 C 184.831 -2.49649 -6.35739 0
M  V30 1821 O 184.519 -3.49082 -7.24153 0
M  V30 1822 H 184.251 0.033658 -0.675162 0
M  V30 1823 H 186.805 -0.550221 -1.97893 0
M  V30 1824 H 185.035 1.43008 -3.59285 0
M  V30 1825 H 186.724 1.14048 -3.89548 0
M  V30 1826 H 187.49 -1.21019 -4.69659 0
M  V30 1827 H 183.369 0.0129567 -4.60998 0
M  V30 1828 H 186.913 -2.99777 -6.29904 0
M  V30 1829 H 182.81 -1.76643 -6.2086 0
M  V30 1830 H 183.578 -3.45065 -7.42208 0
M  V30 1831 N 186.241 1.57166 -0.116904 0
M  V30 1832 C 187.191 2.11756 0.845178 0
M  V30 1833 C 188.175 1.03783 1.22955 0
M  V30 1834 O 189.367 1.3002 1.20099 0
M  V30 1835 C 186.496 2.71886 2.09602 0
M  V30 1836 C 185.582 3.86937 1.7361 0
M  V30 1837 N 185.973 4.94073 1.08284 0
M  V30 1838 C 184.271 3.97082 2.03082 0
M  V30 1839 C 184.972 5.74477 0.913855 0
M  V30 1840 N 183.948 5.2423 1.43818 0
M  V30 1841 H 187.75 2.91967 0.336523 0
M  V30 1842 H 185.264 1.62174 0.0856332 0
M  V30 1843 H 187.261 3.09338 2.79492 0
M  V30 1844 H 185.921 1.93138 2.61013 0
M  V30 1845 H 186.932 5.12483 0.747067 0
M  V30 1846 H 183.609 3.29372 2.56554 0
M  V30 1847 H 184.999 6.70701 0.40125 0
M  V30 1848 N 187.719 -0.156864 1.56817 0
M  V30 1849 C 188.996 -0.899244 1.73704 0
M  V30 1850 C 189.376 -1.99771 0.682254 0
M  V30 1851 O 188.724 -2.26515 -0.300522 0
M  V30 1852 C 188.934 -1.45075 3.17418 0
M  V30 1853 C 190.282 -1.91802 3.7881 0
M  V30 1854 O 191.306 -1.54838 3.20786 0
M  V30 1855 O 190.165 -2.5994 4.80722 0
M  V30 1856 H 187.259 -0.424267 0.709878 0
M  V30 1857 H 189.805 -0.143561 1.69092 0
M  V30 1858 H 188.577 -0.660846 3.85679 0
M  V30 1859 H 188.2 -2.27021 3.26416 0
M  V30 1860 N 189.197 -1.51736 -0.425897 0
M  V30 1861 C 190.437 -1.66636 -1.18371 0
M  V30 1862 C 190.801 -0.379854 -1.88205 0
M  V30 1863 O 192.002 -0.404758 -2.65735 0
M  V30 1864 C 190.273 -2.84382 -2.16476 0
M  V30 1865 S 191.832 -3.19673 -3.0059 0
M  V30 1866 H 188.65 -0.586957 -0.40125 0
M  V30 1867 H 191.252 -1.89679 -0.473518 0
M  V30 1868 H 189.956 -3.76281 -1.63831 0
M  V30 1869 H 189.487 -2.63562 -2.92059 0
M  V30 1870 H 191.502 -2.66994 -4.18245 0
M  V30 1871 N 190.675 0.682077 -1.42076 0
M  V30 1872 C 191.915 1.45424 -1.43636 0
M  V30 1873 C 192.279 1.91939 -0.0484001 0
M  V30 1874 O 193.48 2.6873 0.0612514 0
M  V30 1875 C 191.751 2.62427 -2.42625 0
M  V30 1876 S 193.31 3.51379 -2.62827 0
M  V30 1877 H 190.128 0.496779 -0.508657 0
M  V30 1878 H 192.73 0.794645 -1.78621 0
M  V30 1879 H 191.434 2.26481 -3.42249 0
M  V30 1880 H 190.965 3.33266 -2.09039 0
M  V30 1881 H 192.98 4.58141 -1.9058 0
M  V30 1882 N 192.153 1.28127 0.917671 0
M  V30 1883 C 193.401 1.14825 1.66312 0
M  V30 1884 C 193.722 -0.304379 1.9261 0
M  V30 1885 O 192.992 -1.21149 1.53947 0
M  V30 1886 H 191.572 0.421953 0.616413 0
M  V30 1887 H 194.234 1.608 1.10134 0
M  V30 1888 H 193.33 1.68489 2.62712 0
M  V30 1889 N 193.631 -1.12557 1.10312 0
M  V30 1890 C 194.578 -2.18247 0.750781 0
M  V30 1891 C 195.548 -1.63853 -0.272293 0
M  V30 1892 O 196.733 -1.90195 -0.151862 0
M  V30 1893 C 193.873 -3.44591 0.187379 0
M  V30 1894 C 192.986 -4.13046 1.2656 0
M  V30 1895 C 192.121 -5.27034 0.663978 0
M  V30 1896 C 191.16 -5.87353 1.72287 0
M  V30 1897 N 190.297 -6.92757 1.1416 0
M  V30 1898 H 195.137 -2.47732 1.65628 0
M  V30 1899 H 192.674 -1.21629 0.827337 0
M  V30 1900 H 194.632 -4.16904 -0.157148 0
M  V30 1901 H 193.262 -3.15527 -0.681355 0
M  V30 1902 H 192.314 -3.38924 1.72727 0
M  V30 1903 H 193.626 -4.53947 2.06721 0
M  V30 1904 H 192.78 -6.06104 0.268824 0
M  V30 1905 H 191.519 -4.87407 -0.169082 0
M  V30 1906 H 190.524 -5.06971 2.12746 0
M  V30 1907 H 191.749 -6.29051 2.55875 0
M  V30 1908 H 189.695 -6.5517 0.329984 0
M  V30 1909 H 189.612 -7.3225 1.88007 0
M  V30 1910 H 190.88 -7.75658 0.772956 0
M  V30 1911 N 195.109 -0.891671 -1.2995 0
M  V30 1912 C 196.337 -0.52866 -2.00032 0
M  V30 1913 C 196.752 0.884574 -1.66795 0
M  V30 1914 O 196.109 1.5827 -0.908669 0
M  V30 1915 C 196.16 -0.701814 -3.54622 0
M  V30 1916 O 195.881 -2.05942 -3.86678 0
M  V30 1917 C 197.382 -0.342683 -4.41973 0
M  V30 1918 H 194.602 -0.203659 -0.639347 0
M  V30 1919 H 197.146 -1.19881 -1.65677 0
M  V30 1920 H 195.301 -0.0789468 -3.8732 0
M  V30 1921 H 195.715 -2.08291 -4.81368 0
M  V30 1922 H 197.189 -0.514709 -5.49595 0
M  V30 1923 H 197.666 0.71975 -4.33262 0
M  V30 1924 H 198.272 -0.942154 -4.14733 0
M  V30 1925 N 196.587 1.43421 -0.653314 0
M  V30 1926 C 197.55 2.29182 0.0287951 0
M  V30 1927 C 198.55 1.42213 0.750465 0
M  V30 1928 O 199.74 1.63843 0.591701 0
M  V30 1929 C 196.872 3.24278 1.05151 0
M  V30 1930 H 198.065 2.90985 -0.725786 0
M  V30 1931 H 195.618 1.50702 -0.414545 0
M  V30 1932 H 196.353 2.6737 1.83532 0
M  V30 1933 H 196.138 3.88396 0.537687 0
M  V30 1934 H 197.628 3.88647 1.52786 0
M  V30 1935 N 198.065 0.39524 1.52563 0
M  V30 1936 C 199.305 -0.184744 2.03563 0
M  V30 1937 C 199.669 -1.43548 1.27507 0
M  V30 1938 O 200.87 -2.093 1.68662 0
M  V30 1939 C 199.141 -0.440294 3.54678 0
M  V30 1940 S 200.7 -0.989712 4.27493 0
M  V30 1941 H 197.518 -0.0515075 0.709132 0
M  V30 1942 H 200.12 0.544957 1.87751 0
M  V30 1943 H 198.824 0.477005 4.07618 0
M  V30 1944 H 198.355 -1.19825 3.74707 0
M  V30 1945 H 200.37 -2.27155 4.41152 0
M  V30 1946 N 199.544 -1.57102 0.125237 0
M  V30 1947 C 200.792 -1.95021 -0.530198 0
M  V30 1948 C 201.113 -1.00982 -1.66816 0
M  V30 1949 O 200.383 -0.0672693 -1.95784 0
M  V30 1950 H 198.963 -0.720046 -0.198853 0
M  V30 1951 H 201.625 -1.93916 0.19564 0
M  V30 1952 H 200.721 -2.98211 -0.920681 0
M  V30 1953 N 201.022 0.148545 -1.56898 0
M  V30 1954 C 202.438 0.501131 -1.51528 0
M  V30 1955 C 202.638 1.83458 -0.833399 0
M  V30 1956 O 201.694 2.49259 -0.40328 0
M  V30 1957 C 203.007 0.512864 -2.96294 0
M  V30 1958 C 204.555 0.598487 -3.07225 0
M  V30 1959 C 205.03 0.640897 -4.53494 0
M  V30 1960 N 206.521 0.703163 -4.57832 0
M  V30 1961 C 207.256 0.756935 -5.68382 0
M  V30 1962 N 206.752 0.770147 -6.88506 0
M  V30 1963 N 208.545 0.797698 -5.56411 0
M  V30 1964 H 200.696 -0.725532 -1.99624 0
M  V30 1965 H 202.959 -0.264358 -0.910395 0
M  V30 1966 H 202.665 -0.398691 -3.49433 0
M  V30 1967 H 202.539 1.35133 -3.52163 0
M  V30 1968 H 204.926 1.50046 -2.54106 0
M  V30 1969 H 205.007 -0.267093 -2.54402 0
M  V30 1970 H 204.651 -0.256915 -5.0725 0
M  V30 1971 H 204.581 1.52295 -5.04097 0
M  V30 1972 H 207.072 0.700314 -3.71354 0
M  V30 1973 H 207.385 0.812983 -7.68512 0
M  V30 1974 H 205.73 0.738049 -6.9107 0
M  V30 1975 H 208.921 0.784535 -4.61479 0
M  V30 1976 H 209.094 0.83614 -6.42583 0
M  V30 1977 N 202.5 1.5196 0.417844 0
M  V30 1978 C 203.74 1.67262 1.17486 0
M  V30 1979 C 204.104 0.38983 1.88001 0
M  V30 1980 O 205.305 0.418845 2.65517 0
M  V30 1981 C 203.576 2.85526 2.14965 0
M  V30 1982 S 205.135 3.21263 2.98891 0
M  V30 1983 H 201.953 0.589077 0.398132 0
M  V30 1984 H 204.555 1.89927 0.463452 0
M  V30 1985 H 203.259 3.77145 1.61833 0
M  V30 1986 H 202.79 2.65107 2.90657 0
M  V30 1987 H 204.805 2.69208 4.16823 0
M  V30 1988 N 203.978 -0.674533 1.42435 0
M  V30 1989 C 204.91 -1.80005 1.41883 0
M  V30 1990 C 205.923 -1.59667 0.31787 0
M  V30 1991 O 207.112 -1.68781 0.580973 0
M  V30 1992 C 204.212 -3.17114 1.19549 0
M  V30 1993 C 203.385 -3.64299 2.42084 0
M  V30 1994 C 202.444 -4.80142 2.15291 0
M  V30 1995 O 201.47 -4.90673 2.88493 0
M  V30 1996 N 202.672 -5.68869 1.1562 0
M  V30 1997 H 205.437 -1.80964 2.38898 0
M  V30 1998 H 202.998 -0.857633 1.37318 0
M  V30 1999 H 204.99 -3.92267 0.995417 0
M  V30 2000 H 203.56 -3.11053 0.310569 0
M  V30 2001 H 202.78 -2.79822 2.77657 0
M  V30 2002 H 204.068 -3.92567 3.23679 0
M  V30 2003 H 203.466 -5.63012 0.550765 0
M  V30 2004 H 202.023 -6.43833 1.016 0
M  V30 2005 N 205.456 -1.28612 -0.910864 0
M  V30 2006 C 206.696 -1.1719 -1.67469 0
M  V30 2007 C 207.06 0.274441 -1.90028 0
M  V30 2008 O 208.261 0.511425 -2.6389 0
M  V30 2009 C 206.532 -1.95137 -2.99427 0
M  V30 2010 S 208.091 -2.00122 -3.90508 0
M  V30 2011 H 204.909 -0.41806 -0.575106 0
M  V30 2012 H 207.511 -1.6275 -1.08317 0
M  V30 2013 H 206.215 -2.99381 -2.80712 0
M  V30 2014 H 205.746 -1.50137 -3.63624 0
M  V30 2015 H 207.761 -1.10981 -4.8363 0
M  V30 2016 N 206.934 1.1197 -1.10907 0
M  V30 2017 C 207.882 2.19927 -0.757303 0
M  V30 2018 C 208.876 1.67564 0.248747 0
M  V30 2019 O 210.082 1.79672 0.108605 0
M  V30 2020 H 206.457 0.716925 -0.226987 0
M  V30 2021 H 208.428 2.46847 -1.67658 0
M  V30 2022 C 207.177 3.47061 -0.210671 0
M  V30 2023 H 206.5 3.87703 -0.976049 0
M  V30 2024 H 207.94 4.24 -0.0026584 0
M  V30 2025 C 206.399 3.19864 1.05777 0
M  V30 2026 O 206.929 3.40049 2.13845 0
M  V30 2027 N 205.135 2.73636 0.978349 0
M  V30 2028 H 204.682 2.5741 0.0988246 0
M  V30 2029 H 204.64 2.55815 1.82773 0
M  V30 2030 N 208.412 0.89855 1.29475 0
M  V30 2031 C 209.64 0.539261 1.99749 0
M  V30 2032 C 210.055 -0.875716 1.67262 0
M  V30 2033 O 209.412 -1.57786 0.917049 0
M  V30 2034 C 209.463 0.72061 3.54245 0
M  V30 2035 O 209.184 2.07989 3.8558 0
M  V30 2036 C 210.685 0.366118 4.41786 0
M  V30 2037 H 207.905 0.207047 0.638258 0
M  V30 2038 H 210.449 1.20758 1.65039 0
M  V30 2039 H 208.604 0.0994862 3.87272 0
M  V30 2040 H 209.018 2.10841 4.80257 0
M  V30 2041 H 210.492 0.543848 5.49314 0
M  V30 2042 H 210.969 -0.696763 4.33638 0
M  V30 2043 H 211.575 0.964135 4.14228 0
M  V30 2044 N 209.89 -1.43072 0.660911 0
M  V30 2045 C 210.822 -2.29108 -0.0647641 0
M  V30 2046 C 211.835 -1.42928 -0.779448 0
M  V30 2047 O 213.024 -1.66788 -0.635921 0
M  V30 2048 C 210.124 -3.20032 -1.11503 0
M  V30 2049 C 209.297 -4.34792 -0.476955 0
M  V30 2050 C 208.356 -5.06534 -1.42513 0
M  V30 2051 O 207.382 -5.61538 -0.930771 0
M  V30 2052 N 208.584 -5.1075 -2.75889 0
M  V30 2053 H 211.349 -2.92029 0.673731 0
M  V30 2054 H 208.91 -1.53846 0.50427 0
M  V30 2055 H 210.902 -3.64892 -1.75032 0
M  V30 2056 H 209.472 -2.58658 -1.75541 0
M  V30 2057 H 208.692 -3.92752 0.337572 0
M  V30 2058 H 209.98 -5.0879 -0.0318525 0
M  V30 2059 H 209.378 -4.67447 -3.18606 0
M  V30 2060 H 207.935 -5.59302 -3.347 0
M  V30 2061 N 211.368 -0.403325 -1.52352 0
M  V30 2062 C 212.596 0.174012 -2.06167 0
M  V30 2063 C 213.011 1.39347 -1.27388 0
M  V30 2064 O 212.368 1.79597 -0.324201 0
M  V30 2065 C 212.419 0.530223 -3.5759 0
M  V30 2066 O 212.14 -0.640806 -4.33388 0
M  V30 2067 C 213.641 1.16192 -4.27802 0
M  V30 2068 H 210.861 0.0229464 -0.670608 0
M  V30 2069 H 213.405 -0.572604 -1.9632 0
M  V30 2070 H 211.56 1.22673 -3.67464 0
M  V30 2071 H 211.974 -0.344851 -5.23365 0
M  V30 2072 H 213.448 1.36141 -5.34948 0
M  V30 2073 H 213.925 2.13335 -3.83907 0
M  V30 2074 H 214.531 0.505775 -4.22282 0
M  V30 2075 N 212.846 1.57033 -0.133567 0
M  V30 2076 C 214.262 1.58035 0.222944 0
M  V30 2077 C 214.462 1.14713 1.6566 0
M  V30 2078 O 213.518 0.841218 2.38075 0
M  V30 2079 C 214.831 3.00691 -0.0236116 0
M  V30 2080 C 216.379 3.12973 0.0411512 0
M  V30 2081 C 216.854 4.57654 -0.177899 0
M  V30 2082 N 218.345 4.63033 -0.124365 0
M  V30 2083 C 219.08 5.72771 -0.268553 0
M  V30 2084 N 218.576 6.91206 -0.46972 0
M  V30 2085 N 220.369 5.61718 -0.2071 0
M  V30 2086 H 212.52 1.8349 -1.06981 0
M  V30 2087 H 214.783 0.848677 -0.422436 0
M  V30 2088 H 214.489 3.36726 -1.0153 0
M  V30 2089 H 214.363 3.70614 0.701808 0
M  V30 2090 H 216.75 2.76787 1.02338 0
M  V30 2091 H 216.831 2.45564 -0.716383 0
M  V30 2092 H 216.475 4.94542 -1.15717 0
M  V30 2093 H 216.405 5.23173 0.599797 0
M  V30 2094 H 218.896 3.7789 0.027011 0
M  V30 2095 H 219.209 7.70693 -0.570212 0
M  V30 2096 H 217.554 6.93156 -0.505876 0
M  V30 2097 H 220.745 4.68072 -0.0507986 0
M  V30 2098 H 220.918 6.47195 -0.322909 0
M  V30 2099 N 214.325 -0.140222 1.56975 0
M  V30 2100 C 215.235 -1.19223 2.02047 0
M  V30 2101 C 216.251 -1.46612 0.937062 0
M  V30 2102 O 217.427 -1.58148 1.24704 0
M  V30 2103 C 214.492 -2.50414 2.39778 0
M  V30 2104 C 213.553 -2.30612 3.621 0
M  V30 2105 C 212.786 -3.55547 3.98023 0
M  V30 2106 O 213.009 -4.62004 3.34528 0
M  V30 2107 O 211.943 -3.47808 4.91237 0
M  V30 2108 H 215.769 -0.839559 2.91865 0
M  V30 2109 H 213.354 -0.349453 1.45256 0
M  V30 2110 H 215.236 -3.27747 2.64877 0
M  V30 2111 H 213.911 -2.85198 1.53114 0
M  V30 2112 H 212.818 -1.51207 3.4218 0
M  V30 2113 H 214.151 -2.00741 4.49404 0
M  V30 2114 N 215.803 -1.52179 -0.40978 0
M  V30 2115 C 217.219 -1.40968 -0.74835 0
M  V30 2116 C 217.419 -0.513657 -1.94843 0
M  V30 2117 O 216.475 0.0208026 -2.52491 0
M  V30 2118 C 217.788 -2.83483 -1.0029 0
M  V30 2119 C 219.336 -2.92821 -1.10565 0
M  V30 2120 C 219.811 -4.36303 -1.39296 0
M  V30 2121 N 221.302 -4.39535 -1.46162 0
M  V30 2122 C 222.037 -5.47614 -1.70018 0
M  V30 2123 N 221.533 -6.65812 -1.91483 0
M  V30 2124 N 223.326 -5.35129 -1.72027 0
M  V30 2125 H 215.477 -2.0897 0.380186 0
M  V30 2126 H 217.74 -0.94185 0.107805 0
M  V30 2127 H 217.446 -3.51168 -0.193461 0
M  V30 2128 H 217.32 -3.24487 -1.92323 0
M  V30 2129 H 219.707 -2.25318 -1.90568 0
M  V30 2130 H 219.788 -2.55276 -0.16369 0
M  V30 2131 H 219.432 -5.04366 -0.598109 0
M  V30 2132 H 219.362 -4.71385 -2.34743 0
M  V30 2133 H 221.853 -3.54332 -1.31367 0
M  V30 2134 H 222.166 -7.43964 -2.09134 0
M  V30 2135 H 220.511 -6.68879 -1.88749 0
M  V30 2136 H 223.702 -4.41764 -1.54796 0
M  V30 2137 H 223.875 -6.19433 -1.9028 0
M  V30 2138 N 217.281 0.66697 -1.42791 0
M  V30 2139 C 218.692 1.2478 -1.38877 0
M  V30 2140 C 219.043 1.96012 -0.0859426 0
M  V30 2141 O 218.168 2.00463 0.815081 0
M  V30 2142 C 218.763 2.26938 -2.51564 0
M  V30 2143 C 217.322 2.80529 -2.50959 0
M  V30 2144 C 216.469 1.54965 -2.29959 0
M  V30 2145 H 219.42 0.459853 -1.51892 0
M  V30 2146 H 219.441 3.08834 -2.22265 0
M  V30 2147 H 218.953 1.75065 -3.46372 0
M  V30 2148 H 217.054 3.36502 -1.59991 0
M  V30 2149 H 217.167 3.29012 -3.48265 0
M  V30 2150 H 215.531 1.81817 -1.78366 0
M  V30 2151 H 216.314 1.05047 -3.26833 0
M  V30 2152 N 218.759 1.29093 0.90403 0
M  V30 2153 C 220.007 1.16583 1.65085 0
M  V30 2154 C 220.328 -0.283933 1.92922 0
M  V30 2155 O 219.598 -1.19509 1.55224 0
M  V30 2156 H 218.178 0.428467 0.611903 0
M  V30 2157 H 220.84 1.61959 1.08422 0
M  V30 2158 H 219.936 1.71266 2.6091 0
M  V30 2159 N 220.237 -1.11381 1.11499 0
M  V30 2160 C 221.467 -1.86663 0.885464 0
M  V30 2161 C 221.875 -1.80464 -0.568281 0
M  V30 2162 O 221.218 -1.18445 -1.40415 0
M  V30 2163 C 221.28 -3.36337 1.26956 0
M  V30 2164 C 220.944 -3.66304 2.73259 0
M  V30 2165 C 221.941 -3.63733 3.71476 0
M  V30 2166 C 219.626 -3.9529 3.09921 0
M  V30 2167 C 221.62 -3.89725 5.04374 0
M  V30 2168 C 219.307 -4.20941 4.43004 0
M  V30 2169 C 220.305 -4.18147 5.40039 0
M  V30 2170 O 219.993 -4.43153 6.70724 0
M  V30 2171 H 219.725 -0.597114 0.316908 0
M  V30 2172 H 222.279 -1.41782 1.48617 0
M  V30 2173 H 220.509 -3.81826 0.611999 0
M  V30 2174 H 222.198 -3.92986 1.01573 0
M  V30 2175 H 222.964 -3.41389 3.44498 0
M  V30 2176 H 218.843 -3.966 2.35009 0
M  V30 2177 H 222.387 -3.8746 5.80104 0
M  V30 2178 H 218.284 -4.42761 4.69716 0
M  V30 2179 H 219.052 -4.60717 6.76522 0
M  V30 2180 N 221.715 -0.905404 -1.28997 0
M  V30 2181 C 222.625 -0.392246 -2.31298 0
M  V30 2182 C 223.641 0.515889 -1.66176 0
M  V30 2183 O 224.817 0.404093 -1.97304 0
M  V30 2184 C 221.882 0.36686 -3.44754 0
M  V30 2185 C 220.943 -0.573485 -4.25452 0
M  V30 2186 C 220.176 0.149488 -5.33491 0
M  V30 2187 O 220.399 1.37255 -5.5364 0
M  V30 2188 O 219.333 -0.510919 -5.99728 0
M  V30 2189 H 223.159 -1.2411 -2.77183 0
M  V30 2190 H 220.744 -0.669926 -1.33538 0
M  V30 2191 H 222.626 0.795907 -4.13816 0
M  V30 2192 H 221.301 1.19169 -3.00966 0
M  V30 2193 H 220.208 -1.05176 -3.59011 0
M  V30 2194 H 221.541 -1.36489 -4.72897 0
M  V30 2195 N 223.193 1.4272 -0.668489 0
M  V30 2196 C 224.44 2.01624 -0.18814 0
M  V30 2197 C 224.768 1.5282 1.20317 0
M  V30 2198 O 224.023 0.718323 1.8204 0
M  V30 2199 C 224.322 3.57021 -0.164499 0
M  V30 2200 C 223.988 4.25232 -1.49962 0
M  V30 2201 C 222.65 4.4358 -1.8652 0
M  V30 2202 C 225.002 4.63727 -2.37921 0
M  V30 2203 C 222.33 4.97694 -3.10674 0
M  V30 2204 C 224.682 5.19218 -3.6138 0
M  V30 2205 C 223.346 5.3578 -3.98115 0
M  V30 2206 H 222.616 0.737795 -0.0688454 0
M  V30 2207 H 225.263 1.70991 -0.862225 0
M  V30 2208 H 223.568 3.87285 0.593079 0
M  V30 2209 H 225.265 4.00372 0.224271 0
M  V30 2210 H 221.855 4.11306 -1.20522 0
M  V30 2211 H 226.039 4.4923 -2.10964 0
M  V30 2212 H 221.295 5.08702 -3.39164 0
M  V30 2213 H 225.469 5.4799 -4.29743 0
M  V30 2214 H 223.096 5.77475 -4.94395 0
M  V30 2215 N 224.671 0.411399 1.52136 0
M  V30 2216 C 225.918 -0.163645 2.01838 0
M  V30 2217 C 226.246 -1.4495 1.29691 0
M  V30 2218 O 225.501 -1.91725 0.392431 0
M  V30 2219 C 225.8 -0.455872 3.54481 0
M  V30 2220 C 225.466 0.741055 4.44769 0
M  V30 2221 C 224.128 1.06936 4.69167 0
M  V30 2222 C 226.48 1.54075 4.97906 0
M  V30 2223 C 223.808 2.19851 5.43951 0
M  V30 2224 C 226.16 2.66067 5.73926 0
M  V30 2225 C 224.824 2.99381 5.96596 0
M  V30 2226 H 224.094 -0.0598821 0.738576 0
M  V30 2227 H 226.741 0.553283 1.83333 0
M  V30 2228 H 225.046 -1.2544 3.71177 0
M  V30 2229 H 226.743 -0.913802 3.90449 0
M  V30 2230 H 223.333 0.475192 4.25958 0
M  V30 2231 H 227.517 1.30033 4.78963 0
M  V30 2232 H 222.773 2.46006 5.59724 0
M  V30 2233 H 226.947 3.28419 6.14096 0
M  V30 2234 H 224.574 3.86992 6.54325 0
M  V30 2235 N 226.149 -1.5696 0.141893 0
M  V30 2236 C 227.079 -2.19516 -0.795936 0
M  V30 2237 C 228.06 -1.14187 -1.26077 0
M  V30 2238 O 229.245 -1.42511 -1.31925 0
M  V30 2239 C 226.375 -2.81272 -2.03723 0
M  V30 2240 C 225.329 -3.92384 -1.70936 0
M  V30 2241 C 224.655 -4.41052 -3.02287 0
M  V30 2242 C 225.955 -5.13403 -0.959954 0
M  V30 2243 H 227.649 -2.98138 -0.274596 0
M  V30 2244 H 225.195 -1.43406 -0.130636 0
M  V30 2245 H 227.148 -3.237 -2.69808 0
M  V30 2246 H 225.872 -1.99973 -2.58221 0
M  V30 2247 H 224.531 -3.50566 -1.07232 0
M  V30 2248 H 224.179 -3.56582 -3.54765 0
M  V30 2249 H 223.879 -5.15993 -2.81114 0
M  V30 2250 H 225.403 -4.86146 -3.69451 0
M  V30 2251 H 226.817 -5.52706 -1.52279 0
M  V30 2252 H 225.214 -5.94073 -0.848357 0
M  V30 2253 H 226.284 -4.84875 0.0492434 0
M  V30 2254 N 227.627 0.131896 -1.57047 0
M  V30 2255 C 228.577 1.1679 -1.95816 0
M  V30 2256 C 229.561 1.37756 -0.831393 0
M  V30 2257 O 230.753 1.39065 -1.09499 0
M  V30 2258 C 227.882 2.49778 -2.35512 0
M  V30 2259 C 226.968 2.32342 -3.54793 0
M  V30 2260 N 227.359 1.8469 -4.70875 0
M  V30 2261 C 225.657 2.63043 -3.60173 0
M  V30 2262 C 226.358 1.80656 -5.52936 0
M  V30 2263 N 225.334 2.24528 -4.95064 0
M  V30 2264 H 229.136 0.791818 -2.83033 0
M  V30 2265 H 226.65 0.339791 -1.58805 0
M  V30 2266 H 228.647 3.24692 -2.61498 0
M  V30 2267 H 227.307 2.88156 -1.49654 0
M  V30 2268 H 228.318 1.54429 -4.9434 0
M  V30 2269 H 224.995 3.05193 -2.84892 0
M  V30 2270 H 226.385 1.45178 -6.56028 0
M  V30 2271 N 229.106 1.52395 0.401703 0
M  V30 2272 C 230.054 1.7689 1.51039 0
M  V30 2273 C 231.048 0.636298 1.56996 0
M  V30 2274 O 232.254 0.818507 1.60314 0
M  V30 2275 H 228.629 0.559502 0.502456 0
M  V30 2276 H 230.6 2.69757 1.27568 0
M  V30 2277 C 229.349 1.94331 2.88324 0
M  V30 2278 H 228.672 2.80905 2.84486 0
M  V30 2279 H 230.112 2.15466 3.65172 0
M  V30 2280 C 228.571 0.712396 3.29282 0
M  V30 2281 O 229.101 -0.116218 4.01532 0
M  V30 2282 N 227.307 0.546154 2.85422 0
M  V30 2283 H 226.854 1.22156 2.26794 0
M  V30 2284 H 226.812 -0.276113 3.13185 0
M  V30 2285 N 230.584 -0.659388 1.43143 0
M  V30 2286 C 231.861 -1.41627 1.34912 0
M  V30 2287 C 232.241 -2.11099 -0.00607785 0
M  V30 2288 O 231.589 -2.04353 -1.02236 0
M  V30 2289 C 231.799 -2.40604 2.52805 0
M  V30 2290 C 233.147 -3.04789 2.95616 0
M  V30 2291 O 234.171 -2.50932 2.52807 0
M  V30 2292 O 233.03 -4.02421 3.69756 0
M  V30 2293 H 230.124 -0.63246 0.532844 0
M  V30 2294 H 232.67 -0.686814 1.5518 0
M  V30 2295 H 231.442 -1.88174 3.43083 0
M  V30 2296 H 231.065 -3.21009 2.34604 0
M  V30 2297 N 232.062 -1.29571 -0.897171 0
M  V30 2298 C 233.308 -1.17863 -1.65034 0
M  V30 2299 C 233.641 0.268729 -1.92332 0
M  V30 2300 O 232.916 1.19378 -1.53555 0
M  V30 2301 C 233.199 -1.995 -2.99786 0
M  V30 2302 C 233.052 -3.5239 -2.79538 0
M  V30 2303 C 234.371 -1.82335 -4.00552 0
M  V30 2304 H 231.49 -0.429528 -0.598895 0
M  V30 2305 H 234.132 -1.59072 -1.03905 0
M  V30 2306 H 232.282 -1.64485 -3.51962 0
M  V30 2307 H 233.954 -3.97401 -2.34244 0
M  V30 2308 H 232.197 -3.77187 -2.14273 0
M  V30 2309 H 232.868 -4.04787 -3.75302 0
M  V30 2310 H 235.344 -2.12924 -3.57495 0
M  V30 2311 H 234.22 -2.41801 -4.92771 0
M  V30 2312 H 234.481 -0.779209 -4.35179 0
M  V30 2313 N 233.54 1.10788 -1.12088 0
M  V30 2314 C 234.488 2.19111 -0.780587 0
M  V30 2315 C 235.482 1.67818 0.230961 0
M  V30 2316 O 236.688 1.79777 0.0895427 0
M  V30 2317 H 233.063 0.714477 -0.234578 0
M  V30 2318 H 235.034 2.45055 -1.70266 0
M  V30 2319 C 233.783 3.46818 -0.24747 0
M  V30 2320 H 233.106 3.86646 -1.01712 0
M  V30 2321 H 234.546 4.23973 -0.0476291 0
M  V30 2322 C 233.005 3.20968 1.02378 0
M  V30 2323 O 233.535 3.42298 2.10226 0
M  V30 2324 N 231.741 2.74658 0.949271 0
M  V30 2325 H 231.288 2.57501 0.0715173 0
M  V30 2326 H 231.246 2.57739 1.80049 0
M  V30 2327 N 235.018 0.912232 1.28515 0
M  V30 2328 C 236.264 0.554851 1.95686 0
M  V30 2329 C 236.619 -0.89138 1.70506 0
M  V30 2330 O 235.912 -1.62529 1.01464 0
M  V30 2331 C 236.106 0.798392 3.48368 0
M  V30 2332 C 235.935 2.26674 3.88393 0
M  V30 2333 C 234.705 2.91657 4.12631 0
M  V30 2334 C 236.903 3.24303 3.99164 0
M  V30 2335 N 234.885 4.28805 4.39317 0
M  V30 2336 C 236.256 4.4661 4.30046 0
M  V30 2337 C 238.311 3.19723 3.81683 0
M  V30 2338 C 237.014 5.64915 4.45268 0
M  V30 2339 C 239.04 4.37325 3.98121 0
M  V30 2340 C 238.402 5.58406 4.29375 0
M  V30 2341 H 234.501 0.252876 0.739985 0
M  V30 2342 H 237.085 1.17565 1.55199 0
M  V30 2343 H 235.256 0.20688 3.87849 0
M  V30 2344 H 236.988 0.405193 4.02666 0
M  V30 2345 H 233.743 2.42393 4.06869 0
M  V30 2346 H 234.167 4.99712 4.56746 0
M  V30 2347 H 238.809 2.27191 3.56573 0
M  V30 2348 H 236.527 6.57927 4.6921 0
M  V30 2349 H 240.113 4.35282 3.86033 0
M  V30 2350 H 238.993 6.47889 4.41825 0
M  V30 2351 N 236.496 -1.42363 0.676048 0
M  V30 2352 C 237.736 -2.03392 0.20273 0
M  V30 2353 C 238.1 -1.52306 -1.16906 0
M  V30 2354 O 239.301 -2.05129 -1.73711 0
M  V30 2355 C 237.572 -3.56614 0.236947 0
M  V30 2356 S 239.131 -4.38489 -0.165186 0
M  V30 2357 H 235.949 -0.70611 0.0832418 0
M  V30 2358 H 238.551 -1.74093 0.88948 0
M  V30 2359 H 237.255 -3.91293 1.23767 0
M  V30 2360 H 236.786 -3.90587 -0.469596 0
M  V30 2361 H 238.801 -4.76093 -1.39822 0
M  V30 2362 N 237.974 -0.419461 -1.51915 0
M  V30 2363 C 238.907 0.445751 -2.23804 0
M  V30 2364 C 239.885 1.03951 -1.25031 0
M  V30 2365 O 241.069 1.08541 -1.54114 0
M  V30 2366 C 238.196 1.61964 -2.97465 0
M  V30 2367 C 237.242 1.14828 -4.10751 0
M  V30 2368 S 238.075 0.104938 -5.35397 0
M  V30 2369 C 239.231 1.28391 -6.1259 0
M  V30 2370 H 239.464 -0.164627 -2.96844 0
M  V30 2371 H 236.997 -0.203833 -1.53049 0
M  V30 2372 H 238.955 2.29271 -3.40507 0
M  V30 2373 H 237.616 2.20139 -2.24048 0
M  V30 2374 H 236.809 2.02561 -4.61503 0
M  V30 2375 H 236.411 0.553712 -3.69878 0
M  V30 2376 H 238.703 2.20563 -6.40592 0
M  V30 2377 H 239.646 0.816724 -7.03374 0
M  V30 2378 H 240.054 1.51439 -5.43807 0
M  V30 2379 N 239.452 1.56882 -0.150215 0
M  V30 2380 C 240.415 2.1573 0.774157 0
M  V30 2381 C 241.415 1.0999 1.17298 0
M  V30 2382 O 242.605 1.35613 1.09338 0
M  V30 2383 C 239.737 2.72302 2.05096 0
M  V30 2384 H 240.93 2.98752 0.262201 0
M  V30 2385 H 238.483 1.55985 0.099248 0
M  V30 2386 H 239.218 1.92956 2.6065 0
M  V30 2387 H 239.003 3.49665 1.77416 0
M  V30 2388 H 240.493 3.17632 2.71109 0
M  V30 2389 N 240.93 -0.123565 1.57115 0
M  V30 2390 C 241.878 -1.17082 2.00984 0
M  V30 2391 C 242.872 -1.43136 0.906009 0
M  V30 2392 O 244.078 -1.43152 1.09121 0
M  V30 2393 H 240.453 -0.394653 0.64012 0
M  V30 2394 H 242.424 -0.774292 2.88179 0
M  V30 2395 C 241.173 -2.49057 2.42623 0
M  V30 2396 H 240.496 -2.29846 3.27125 0
M  V30 2397 H 241.936 -3.20906 2.7712 0
M  V30 2398 C 240.395 -3.11305 1.28805 0
M  V30 2399 O 240.925 -3.97171 0.60153 0
M  V30 2400 N 239.131 -2.71111 1.04628 0
M  V30 2401 H 238.678 -2.01382 1.60634 0
M  V30 2402 H 238.636 -3.1309 0.286685 0
M  V30 2403 N 242.408 -1.52605 -0.393616 0
M  V30 2404 C 243.318 -1.79971 -1.50492 0
M  V30 2405 C 244.334 -0.686181 -1.59899 0
M  V30 2406 O 245.51 -0.973274 -1.76322 0
M  V30 2407 C 242.575 -1.95867 -2.86072 0
M  V30 2408 C 241.636 -3.19781 -2.86424 0
M  V30 2409 C 240.869 -3.34909 -4.15538 0
M  V30 2410 O 241.092 -2.54948 -5.10253 0
M  V30 2411 O 240.026 -4.28141 -4.23059 0
M  V30 2412 H 243.852 -2.74328 -1.30299 0
M  V30 2413 H 241.437 -1.3764 -0.581005 0
M  V30 2414 H 243.319 -2.08056 -3.66457 0
M  V30 2415 H 241.994 -1.04699 -3.063 0
M  V30 2416 H 240.901 -3.13038 -2.04837 0
M  V30 2417 H 242.234 -4.1078 -2.71147 0
M  V30 2418 N 243.887 0.651787 -1.4349 0
M  V30 2419 C 244.835 1.78586 -1.49029 0
M  V30 2420 C 245.829 1.65448 -0.363767 0
M  V30 2421 O 247.035 1.71777 -0.537821 0
M  V30 2422 H 243.41 0.589236 -0.467231 0
M  V30 2423 H 245.381 1.71035 -2.44519 0
M  V30 2424 C 244.13 3.16851 -1.43181 0
M  V30 2425 H 243.453 3.27598 -2.29171 0
M  V30 2426 H 244.893 3.96156 -1.51118 0
M  V30 2427 C 243.352 3.36568 -0.149616 0
M  V30 2428 O 243.882 3.93885 0.788509 0
M  V30 2429 N 242.088 2.90539 -0.0593484 0
M  V30 2430 H 241.635 2.4408 -0.823575 0
M  V30 2431 H 241.593 3.04108 0.797853 0
M  V30 2432 N 245.365 1.30045 0.890287 0
M  V30 2433 C 246.59 1.21598 1.68014 0
M  V30 2434 C 247.015 -0.218678 1.86825 0
M  V30 2435 O 246.373 -1.15756 1.39536 0
M  V30 2436 C 246.421 1.94434 3.03691 0
M  V30 2437 O 245.525 1.2678 3.92429 0
M  V30 2438 H 244.866 0.420856 0.513592 0
M  V30 2439 H 247.396 1.71775 1.11151 0
M  V30 2440 H 247.406 2.03251 3.5377 0
M  V30 2441 H 246.081 2.98777 2.89318 0
M  V30 2442 H 244.658 1.26282 3.50866 0
M  V30 2443 N 246.843 -1.10192 1.12674 0
M  V30 2444 C 248.071 -1.85983 0.906527 0
M  V30 2445 C 248.486 -1.80783 -0.544333 0
M  V30 2446 O 247.843 -1.19834 -1.37645 0
M  V30 2447 C 247.894 -3.34281 1.37618 0
M  V30 2448 O 247.615 -3.39401 2.77017 0
M  V30 2449 C 249.116 -4.26938 1.19325 0
M  V30 2450 H 246.336 -0.587716 0.323775 0
M  V30 2451 H 248.88 -1.39284 1.49734 0
M  V30 2452 H 247.035 -3.78436 0.828539 0
M  V30 2453 H 247.449 -4.31838 2.97684 0
M  V30 2454 H 248.923 -5.29181 1.57071 0
M  V30 2455 H 249.4 -4.38995 0.134097 0
M  V30 2456 H 250.006 -3.8859 1.72852 0
M  V30 2457 N 248.321 -0.919034 -1.28029 0
M  V30 2458 C 249.568 -0.554934 -1.94748 0
M  V30 2459 C 249.896 0.90231 -1.72304 0
M  V30 2460 O 249.151 1.65767 -1.04018 0
M  V30 2461 C 249.45 -0.816855 -3.4794 0
M  V30 2462 C 249.116 -2.25448 -3.90492 0
M  V30 2463 C 247.778 -2.64752 -4.01821 0
M  V30 2464 C 250.13 -3.18977 -4.12193 0
M  V30 2465 C 247.458 -3.96727 -4.32232 0
M  V30 2466 C 249.81 -4.50523 -4.44086 0
M  V30 2467 C 248.474 -4.89673 -4.53626 0
M  V30 2468 H 247.744 -0.203065 -0.712633 0
M  V30 2469 H 250.391 -1.16136 -1.52265 0
M  V30 2470 H 248.696 -0.127677 -3.91592 0
M  V30 2471 H 250.393 -0.514238 -3.97689 0
M  V30 2472 H 246.983 -1.93952 -3.82205 0
M  V30 2473 H 251.167 -2.89817 -4.02889 0
M  V30 2474 H 246.423 -4.26754 -4.37825 0
M  V30 2475 H 250.597 -5.23005 -4.59825 0
M  V30 2476 H 248.224 -5.91969 -4.76946 0
M  V30 2477 N 249.799 1.42003 -0.683588 0
M  V30 2478 C 250.749 2.27997 0.0121992 0
M  V30 2479 C 251.733 1.4156 0.764822 0
M  V30 2480 O 252.925 1.64935 0.642287 0
M  V30 2481 C 250.054 3.29706 0.956482 0
M  V30 2482 C 249.14 4.23625 0.200739 0
M  V30 2483 N 249.531 4.99448 -0.799087 0
M  V30 2484 C 247.829 4.43845 0.437937 0
M  V30 2485 C 248.53 5.68102 -1.25041 0
M  V30 2486 N 247.506 5.40511 -0.578648 0
M  V30 2487 H 251.308 2.84048 -0.754564 0
M  V30 2488 H 248.822 1.54071 -0.513398 0
M  V30 2489 H 250.819 3.90124 1.47 0
M  V30 2490 H 249.479 2.75216 1.72297 0
M  V30 2491 H 250.49 5.04303 -1.17893 0
M  V30 2492 H 247.167 4.00382 1.18325 0
M  V30 2493 H 248.557 6.38913 -2.07942 0
M  V30 2494 N 251.277 0.427512 1.51691 0
M  V30 2495 C 252.517 -0.141524 2.03909 0
M  V30 2496 C 252.881 -1.40811 1.30523 0
M  V30 2497 O 254.082 -2.05676 1.73063 0
M  V30 2498 C 252.353 -0.364962 3.55532 0
M  V30 2499 S 253.912 -0.898812 4.29496 0
M  V30 2500 H 250.73 -0.0364542 0.710065 0
M  V30 2501 H 253.332 0.584659 1.86553 0
M  V30 2502 H 252.036 0.56336 4.06515 0
M  V30 2503 H 251.567 -1.1185 3.77164 0
M  V30 2504 H 253.582 -2.17747 4.45871 0
M  V30 2505 N 252.755 -1.56801 0.158532 0
M  V30 2506 C 253.983 -2.00859 -0.496303 0
M  V30 2507 C 254.398 -1.03871 -1.57659 0
M  V30 2508 O 253.755 -0.0375165 -1.82461 0
M  V30 2509 C 253.806 -3.4479 -1.08638 0
M  V30 2510 O 253.527 -4.38072 -0.0492322 0
M  V30 2511 C 255.028 -4.04185 -1.8207 0
M  V30 2512 H 252.248 -0.65864 -0.128199 0
M  V30 2513 H 254.792 -2.02885 0.256506 0
M  V30 2514 H 252.947 -3.43579 -1.78975 0
M  V30 2515 H 253.361 -5.2227 -0.483102 0
M  V30 2516 H 254.835 -5.06857 -2.18633 0
M  V30 2517 H 255.312 -3.45549 -2.71095 0
M  V30 2518 H 255.918 -4.0906 -1.16405 0
M  V30 2519 N 254.233 0.115231 -1.57178 0
M  V30 2520 C 255.461 0.836437 -1.89239 0
M  V30 2521 C 255.876 1.73256 -0.750175 0
M  V30 2522 O 255.233 1.80357 0.278832 0
M  V30 2523 C 255.284 1.66671 -3.20785 0
M  V30 2524 O 255.005 0.806652 -4.3061 0
M  V30 2525 C 256.506 2.49274 -3.66575 0
M  V30 2526 H 253.726 0.240253 -0.626514 0
M  V30 2527 H 256.27 0.0984932 -2.04263 0
M  V30 2528 H 254.425 2.35737 -3.0742 0
M  V30 2529 H 254.839 1.37969 -5.06028 0
M  V30 2530 H 256.313 3.03055 -4.6137 0
M  V30 2531 H 256.79 3.26807 -2.93417 0
M  V30 2532 H 257.396 1.85443 -3.82741 0
M  V30 2533 N 255.711 1.52812 0.385517 0
M  V30 2534 C 256.936 1.72207 1.15583 0
M  V30 2535 C 257.361 0.441034 1.82857 0
M  V30 2536 O 256.719 -0.603465 1.70962 0
M  V30 2537 C 256.767 2.87476 2.17692 0
M  V30 2538 O 255.871 2.54693 3.24354 0
M  V30 2539 H 255.212 0.572526 0.336319 0
M  V30 2540 H 257.742 1.99618 0.448744 0
M  V30 2541 H 257.752 3.13072 2.6163 0
M  V30 2542 H 256.427 3.80408 1.68115 0
M  V30 2543 H 255.004 2.3985 2.85529 0
M  V30 2544 N 257.189 -0.644168 1.43834 0
M  V30 2545 C 258.435 -1.40603 1.46146 0
M  V30 2546 C 258.768 -1.93997 0.0887717 0
M  V30 2547 O 258.043 -1.72854 -0.891724 0
M  V30 2548 C 258.326 -2.58086 2.51124 0
M  V30 2549 C 258.179 -2.10126 3.97702 0
M  V30 2550 C 259.498 -3.60291 2.52742 0
M  V30 2551 H 256.617 -0.509905 0.532134 0
M  V30 2552 H 259.259 -0.729502 1.75437 0
M  V30 2553 H 257.409 -3.15801 2.26278 0
M  V30 2554 H 259.081 -1.57342 4.33637 0
M  V30 2555 H 257.324 -1.41419 4.10101 0
M  V30 2556 H 257.995 -2.94649 4.66783 0
M  V30 2557 H 260.471 -3.12352 2.7491 0
M  V30 2558 H 259.347 -4.40032 3.28121 0
M  V30 2559 H 259.608 -4.1349 1.56455 0
M  V30 2560 N 258.668 -1.30515 -0.883378 0
M  V30 2561 C 259.598 -1.19607 -2.00541 0
M  V30 2562 C 260.579 -0.086346 -1.69881 0
M  V30 2563 O 261.764 -0.268654 -1.92333 0
M  V30 2564 C 258.894 -0.888758 -3.35736 0
M  V30 2565 C 257.848 -1.95659 -3.8066 0
M  V30 2566 C 257.174 -1.50224 -5.13164 0
M  V30 2567 C 258.474 -3.36788 -3.99213 0
M  V30 2568 H 260.168 -2.13476 -2.09925 0
M  V30 2569 H 257.714 -1.02775 -1.00863 0
M  V30 2570 H 259.667 -0.799094 -4.13754 0
M  V30 2571 H 258.391 0.0856125 -3.26488 0
M  V30 2572 H 257.05 -2.03591 -3.04871 0
M  V30 2573 H 256.698 -0.516092 -5.00345 0
M  V30 2574 H 256.398 -2.2165 -5.44192 0
M  V30 2575 H 257.922 -1.42639 -5.93706 0
M  V30 2576 H 259.336 -3.31605 -4.67665 0
M  V30 2577 H 257.733 -4.06314 -4.41621 0
M  V30 2578 H 258.803 -3.78561 -3.03017 0
M  V30 2579 N 260.146 1.09593 -1.13257 0
M  V30 2580 C 261.392 1.82003 -0.89458 0
M  V30 2581 C 261.725 1.85402 0.577906 0
M  V30 2582 O 261 1.32099 1.42759 0
M  V30 2583 C 261.283 3.28237 -1.48096 0
M  V30 2584 C 261.136 3.3312 -3.02244 0
M  V30 2585 C 262.455 4.24871 -1.14774 0
M  V30 2586 H 259.574 0.66077 -0.326424 0
M  V30 2587 H 262.216 1.28389 -1.40058 0
M  V30 2588 H 260.366 3.74024 -1.05062 0
M  V30 2589 H 262.038 2.95748 -3.54021 0
M  V30 2590 H 260.281 2.72756 -3.37323 0
M  V30 2591 H 260.952 4.3613 -3.38371 0
M  V30 2592 H 263.428 3.87361 -1.51957 0
M  V30 2593 H 262.304 5.25532 -1.58452 0
M  V30 2594 H 262.565 4.42058 -0.0611849 0
M  V30 2595 N 261.624 0.925811 1.2754 0
M  V30 2596 C 262.872 0.564138 1.94067 0
M  V30 2597 C 263.193 -0.897188 1.73134 0
M  V30 2598 O 262.463 -1.63573 1.07799 0
M  V30 2599 H 261.043 0.205645 0.718136 0
M  V30 2600 H 263.705 1.1778 1.55287 0
M  V30 2601 H 262.801 0.76881 3.02483 0
M  V30 2602 N 263.102 -1.41638 0.69111 0
M  V30 2603 C 264.032 -2.3347 0.037248 0
M  V30 2604 C 265.013 -1.51575 -0.771947 0
M  V30 2605 O 266.198 -1.80126 -0.72582 0
M  V30 2606 C 263.328 -3.35354 -0.903064 0
M  V30 2607 C 262.282 -4.27526 -0.201288 0
M  V30 2608 C 261.608 -5.19747 -1.25565 0
M  V30 2609 C 262.908 -5.13959 0.929689 0
M  V30 2610 H 264.602 -2.88397 0.804227 0
M  V30 2611 H 262.148 -1.38669 0.388189 0
M  V30 2612 H 264.101 -3.98519 -1.36969 0
M  V30 2613 H 262.825 -2.78767 -1.70166 0
M  V30 2614 H 261.484 -3.65779 0.245265 0
M  V30 2615 H 261.132 -4.59479 -2.04666 0
M  V30 2616 H 260.832 -5.8225 -0.791128 0
M  V30 2617 H 262.356 -5.85789 -1.72288 0
M  V30 2618 H 263.77 -5.70718 0.543546 0
M  V30 2619 H 262.167 -5.85379 1.32103 0
M  V30 2620 H 263.237 -4.51389 1.77133 0
M  V30 2621 N 264.58 -0.43555 -1.51462 0
M  V30 2622 C 265.543 0.365137 -2.26273 0
M  V30 2623 C 266.543 0.951227 -1.29647 0
M  V30 2624 O 267.733 0.825958 -1.53374 0
M  V30 2625 C 264.865 1.51645 -3.05314 0
M  V30 2626 H 266.058 -0.290474 -2.9849 0
M  V30 2627 H 263.611 -0.188676 -1.55157 0
M  V30 2628 H 264.346 2.20816 -2.3751 0
M  V30 2629 H 264.131 1.10238 -3.76284 0
M  V30 2630 H 265.621 2.08218 -3.61987 0
M  V30 2631 N 266.058 1.56714 -0.166846 0
M  V30 2632 C 267.005 2.17746 0.765193 0
M  V30 2633 C 267.975 1.11614 1.23011 0
M  V30 2634 O 269.16 1.39745 1.29908 0
M  V30 2635 C 266.3 2.81882 1.9909 0
M  V30 2636 C 265.413 4.02462 1.56997 0
M  V30 2637 C 264.548 4.54537 2.749 0
M  V30 2638 C 263.587 5.67538 2.29275 0
M  V30 2639 N 262.724 6.14142 3.40255 0
M  V30 2640 H 267.564 2.97048 0.237952 0
M  V30 2641 H 265.101 1.4672 0.105725 0
M  V30 2642 H 267.059 3.17221 2.70974 0
M  V30 2643 H 265.689 2.05191 2.49192 0
M  V30 2644 H 264.741 3.72973 0.748037 0
M  V30 2645 H 266.053 4.84273 1.19503 0
M  V30 2646 H 265.207 4.92035 3.54946 0
M  V30 2647 H 263.946 3.71774 3.1565 0
M  V30 2648 H 262.951 5.29597 1.47674 0
M  V30 2649 H 264.176 6.52099 1.89588 0
M  V30 2650 H 262.122 5.3431 3.8059 0
M  V30 2651 H 262.039 6.9093 3.06841 0
M  V30 2652 H 263.307 6.56289 4.206 0
M  V30 2653 N 267.536 -0.106894 1.57237 0
M  V30 2654 C 268.484 -1.14944 2.02215 0
M  V30 2655 C 269.478 -1.42167 0.92114 0
M  V30 2656 O 270.684 -1.41987 1.10634 0
M  V30 2657 H 267.059 -0.387841 0.64427 0
M  V30 2658 H 269.03 -0.743683 2.88984 0
M  V30 2659 C 267.779 -2.4647 2.4525 0
M  V30 2660 H 267.102 -2.26363 3.29545 0
M  V30 2661 H 268.542 -3.17948 2.80508 0
M  V30 2662 C 267.001 -3.09921 1.321 0
M  V30 2663 O 267.531 -3.9651 0.643622 0
M  V30 2664 N 265.737 -2.69986 1.07497 0
M  V30 2665 H 265.284 -1.99667 1.62761 0
M  V30 2666 H 265.242 -3.12769 0.319876 0
M  V30 2667 O 269.053 -1.59537 -0.25105 0
M  V30 2668 H 269.744 -1.71804 -0.894607 0
M  V30 END ATOM
M  V30 BEGIN BOND
M  V30 END BOND
M  V30 END CTAB
M  END
$$$$
