drugbank_target|P9WQB3 2-isopropylmalate synthase (DB04074)
 OpenBabel12092119593D

  0  0  0     0  0            999 V3000
M  V30 BEGIN CTAB
M  V30 COUNTS 9722 9832 0 0 0
M  V30 BEGIN ATOM
M  V30 1 H -0.908 1.98254 -0.117106 0
M  V30 2 N 0 1.576 0 0
M  V30 3 C 0.933 2.03868 1.02534 0
M  V30 4 C 1.911 0.928543 1.3348 0
M  V30 5 O 3.095 1.19667 1.45644 0
M  V30 6 C 0.222 2.43627 2.35294 0
M  V30 7 C -0.732 3.65373 2.2001 0
M  V30 8 S 0.101 5.13292 1.52614 0
M  V30 9 C 1.257 5.56322 2.86805 0
M  V30 10 H 1.49 2.90518 0.631377 0
M  V30 11 H -0.977 1.52953 0.210867 0
M  V30 12 H 0.981 2.67203 3.11629 0
M  V30 13 H -0.358 1.57376 2.7183 0
M  V30 14 H -1.165 3.90944 3.18086 0
M  V30 15 H -1.563 3.418 1.51819 0
M  V30 16 H 0.729 5.58782 3.83104 0
M  V30 17 H 1.672 6.56266 2.65933 0
M  V30 18 H 2.08 4.83886 2.90714 0
M  V30 19 N 1.4781 -0.272755 1.55222 0
M  V30 20 C 2.7061 -1.02255 1.79865 0
M  V30 21 C 3.1211 -1.79924 0.572088 0
M  V30 22 O 2.4781 -1.76638 -0.458842 0
M  V30 23 C 2.5291 -1.98094 3.02392 0
M  V30 24 O 2.2501 -1.23572 4.20311 0
M  V30 25 C 3.7511 -2.84884 3.39641 0
M  V30 26 H 0.9711 -0.302057 0.599168 0
M  V30 27 H 3.5151 -0.303465 2.02236 0
M  V30 28 H 1.6701 -2.65465 2.82147 0
M  V30 29 H 2.0841 -1.88172 4.89583 0
M  V30 30 H 3.5581 -3.47927 4.28545 0
M  V30 31 H 4.0351 -3.54665 2.59055 0
M  V30 32 H 4.6411 -2.23003 3.62146 0
M  V30 33 N 2.9562 -1.48159 -0.537278 0
M  V30 34 C 4.1842 -1.59454 -1.31841 0
M  V30 35 C 4.5992 -0.252065 -1.8711 0
M  V30 36 O 3.9562 0.757621 -1.66031 0
M  V30 37 C 4.0072 -2.63546 -2.47439 0
M  V30 38 O 3.7282 -3.92583 -1.94449 0
M  V30 39 C 5.2292 -2.85212 -3.39366 0
M  V30 40 H 2.4492 -0.53785 -0.401196 0
M  V30 41 H 4.9932 -1.93932 -0.648891 0
M  V30 42 H 3.1482 -2.31946 -3.1029 0
M  V30 43 H 3.5622 -4.49629 -2.70063 0
M  V30 44 H 5.0362 -3.61863 -4.16844 0
M  V30 45 H 5.5132 -1.93765 -3.94147 0
M  V30 46 H 6.1192 -3.18086 -2.82314 0
M  V30 47 N 4.4343 0.785586 -1.36625 0
M  V30 48 C 5.6593 1.57963 -1.34397 0
M  V30 49 C 6.0843 1.87964 0.071526 0
M  V30 50 O 5.4423 1.48182 1.0446 0
M  V30 51 C 5.4903 2.87511 -2.17646 0
M  V30 52 O 4.5943 3.81281 -1.57158 0
M  V30 53 H 3.9353 0.479014 -0.459828 0
M  V30 54 H 6.4653 0.973411 -1.79961 0
M  V30 55 H 6.4753 3.36745 -2.30362 0
M  V30 56 H 5.1503 2.65002 -3.20541 0
M  V30 57 H 3.7273 3.39885 -1.53403 0
M  V30 58 N 5.9124 1.20967 1.01018 0
M  V30 59 C 6.8224 0.980157 2.13143 0
M  V30 60 C 7.8384 -0.0660665 1.73875 0
M  V30 61 O 9.0144 0.122821 2.01025 0
M  V30 62 C 6.0794 0.54216 3.42435 0
M  V30 63 C 5.1404 1.65999 3.95908 0
M  V30 64 C 4.3734 1.2428 5.19028 0
M  V30 65 O 4.5964 0.114196 5.70286 0
M  V30 66 O 3.5304 2.05271 5.65816 0
M  V30 67 H 7.3564 1.91913 2.35379 0
M  V30 68 H 4.9414 0.994099 1.11526 0
M  V30 69 H 6.8234 0.30744 4.20277 0
M  V30 70 H 5.4984 -0.36815 3.216 0
M  V30 71 H 4.4054 1.94906 3.19316 0
M  V30 72 H 5.7384 2.54753 4.21143 0
M  V30 73 N 7.3905 -1.2043 1.01659 0
M  V30 74 C 8.6155 -1.94318 0.724942 0
M  V30 75 C 9.0405 -1.74266 -0.708034 0
M  V30 76 O 8.3985 -1.03694 -1.48719 0
M  V30 77 C 8.4465 -3.44486 1.06591 0
M  V30 78 O 7.5505 -4.12017 0.177599 0
M  V30 79 H 6.8915 -0.60708 0.26898 0
M  V30 80 H 9.4215 -1.52861 1.35995 0
M  V30 81 H 9.4315 -3.95106 1.01762 0
M  V30 82 H 8.1065 -3.58404 2.10997 0
M  V30 83 H 6.6835 -3.71821 0.283421 0
M  V30 84 N 8.8686 -0.792821 -1.36206 0
M  V30 85 C 10.2796 -0.429513 -1.81692 0
M  V30 86 C 10.6306 1.04695 -1.65932 0
M  V30 87 O 9.7556 1.81256 -1.18218 0
M  V30 88 C 10.3506 -0.772831 -3.29868 0
M  V30 89 C 8.9096 -0.462307 -3.7355 0
M  V30 90 C 8.0566 -1.00569 -2.5842 0
M  V30 91 H 11.0076 -0.985672 -1.24379 0
M  V30 92 H 11.0286 -0.0651928 -3.80444 0
M  V30 93 H 10.5406 -1.84747 -3.41307 0
M  V30 94 H 8.6416 0.604158 -3.67669 0
M  V30 95 H 8.7546 -0.985299 -4.68859 0
M  V30 96 H 7.1186 -0.428734 -2.51066 0
M  V30 97 H 7.9016 -2.08616 -2.72643 0
M  V30 98 N 10.3467 1.47872 -0.545128 0
M  V30 99 C 11.6237 1.9554 0.0485222 0
M  V30 100 C 12.0037 1.4876 1.49779 0
M  V30 101 O 11.3517 0.720925 2.16829 0
M  V30 102 C 11.5617 3.48898 -0.084417 0
M  V30 103 C 12.9097 4.24547 0.0671239 0
M  V30 104 O 13.9337 3.56198 -0.0113649 0
M  V30 105 O 12.7927 5.45999 0.233882 0
M  V30 106 H 9.8867 0.823957 0.0708773 0
M  V30 107 H 12.4327 1.58327 -0.610798 0
M  V30 108 H 11.2047 3.75714 -1.09337 0
M  V30 109 H 10.8277 3.92845 0.613066 0
M  V30 110 N 11.8248 0.280983 1.55075 0
M  V30 111 C 12.7878 -0.590896 2.21452 0
M  V30 112 C 13.7878 -1.07682 1.19421 0
M  V30 113 O 14.9778 -0.97605 1.44288 0
M  V30 114 C 12.1098 -1.81587 2.88511 0
M  V30 115 H 13.3028 -0.0112554 2.99898 0
M  V30 116 H 10.8558 0.0316438 1.56268 0
M  V30 117 H 11.5908 -2.43587 2.14093 0
M  V30 118 H 11.3758 -1.4753 3.63287 0
M  V30 119 H 12.8658 -2.43575 3.39206 0
M  V30 120 N 13.3029 -1.57598 0.00835791 0
M  V30 121 C 14.5329 -1.94931 -0.684496 0
M  V30 122 C 14.9409 -0.882233 -1.67372 0
M  V30 123 O 14.2839 0.146621 -1.83114 0
M  V30 124 C 14.3459 -3.283 -1.4649 0
M  V30 125 C 14.0099 -4.52548 -0.63634 0
M  V30 126 C 15.0069 -5.19839 0.0795586 0
M  V30 127 C 12.6919 -4.98942 -0.579849 0
M  V30 128 C 14.6859 -6.3183 0.840843 0
M  V30 129 C 12.3729 -6.10819 0.185155 0
M  V30 130 C 13.3709 -6.77121 0.894227 0
M  V30 131 O 13.0589 -7.86853 1.64673 0
M  V30 132 H 12.7909 -0.647249 -0.19505 0
M  V30 133 H 15.3449 -2.05318 0.0581272 0
M  V30 134 H 13.5749 -3.14345 -2.2522 0
M  V30 135 H 15.2639 -3.50685 -2.04389 0
M  V30 136 H 16.0299 -4.84979 0.0451202 0
M  V30 137 H 11.9089 -4.47155 -1.1213 0
M  V30 138 H 15.4529 -6.83513 1.39483 0
M  V30 139 H 11.3499 -6.4512 0.221384 0
M  V30 140 H 12.1179 -8.03412 1.56432 0
M  V30 141 N 14.781 0.264519 -1.55364 0
M  V30 142 C 16.009 1.013 -1.80405 0
M  V30 143 C 16.424 1.79618 -0.581622 0
M  V30 144 O 15.781 1.76879 0.449468 0
M  V30 145 C 15.832 1.96487 -3.03439 0
M  V30 146 O 15.553 1.21341 -4.20961 0
M  V30 147 C 17.054 2.83079 -3.41147 0
M  V30 148 H 14.274 0.298875 -0.600762 0
M  V30 149 H 16.818 0.292736 -2.02394 0
M  V30 150 H 14.973 2.63965 -2.83551 0
M  V30 151 H 15.387 1.85573 -4.90574 0
M  V30 152 H 16.861 3.4565 -4.30384 0
M  V30 153 H 17.338 3.53286 -2.60932 0
M  V30 154 H 17.944 2.2108 -3.63323 0
M  V30 155 N 16.2591 1.48442 0.529413 0
M  V30 156 C 17.1691 1.6569 1.66084 0
M  V30 157 C 18.1851 0.539432 1.65427 0
M  V30 158 O 19.3611 0.810572 1.84368 0
M  V30 159 C 16.4261 1.69315 3.02545 0
M  V30 160 C 15.4871 2.92694 3.14052 0
M  V30 161 C 14.7201 2.96137 4.44003 0
M  V30 162 O 14.9431 2.07973 5.31134 0
M  V30 163 O 13.8771 3.88312 4.59888 0
M  V30 164 H 17.7031 2.61483 1.54469 0
M  V30 165 H 15.2881 1.3185 0.702567 0
M  V30 166 H 17.1701 1.74217 3.83701 0
M  V30 167 H 15.8451 0.766966 3.14483 0
M  V30 168 H 14.7521 2.93324 2.32189 0
M  V30 169 H 16.0851 3.84699 3.0703 0
M  V30 170 N 17.7372 -0.778329 1.37039 0
M  V30 171 C 18.9622 -1.57248 1.35233 0
M  V30 172 C 19.3872 -1.87999 -0.0615568 0
M  V30 173 O 18.7452 -1.48734 -1.03672 0
M  V30 174 C 18.7932 -2.86353 2.19167 0
M  V30 175 O 17.8972 -3.80442 1.59178 0
M  V30 176 H 17.2382 -0.476569 0.462362 0
M  V30 177 H 19.7682 -0.963853 1.80474 0
M  V30 178 H 19.7782 -3.35519 2.32145 0
M  V30 179 H 18.4532 -2.63299 3.21942 0
M  V30 180 H 17.0302 -3.39067 1.55203 0
M  V30 181 N 19.2153 -1.21501 -1.00376 0
M  V30 182 C 20.4623 -1.03299 -1.74171 0
M  V30 183 C 20.7903 0.433326 -1.89612 0
M  V30 184 O 20.0453 1.33779 -1.42834 0
M  V30 185 C 20.3443 -1.67673 -3.15627 0
M  V30 186 C 20.0103 -3.17533 -3.2013 0
M  V30 187 C 18.6723 -3.58427 -3.21067 0
M  V30 188 C 21.0243 -4.13504 -3.17275 0
M  V30 189 C 18.3523 -4.93794 -3.16835 0
M  V30 190 C 20.7043 -5.48834 -3.14585 0
M  V30 191 C 19.3683 -5.89123 -3.13831 0
M  V30 192 H 18.6383 -0.377999 -0.637336 0
M  V30 193 H 21.2853 -1.51111 -1.17634 0
M  V30 194 H 19.5903 -1.12158 -3.75404 0
M  V30 195 H 21.2873 -1.51091 -3.71446 0
M  V30 196 H 17.8773 -2.84965 -3.20145 0
M  V30 197 H 22.0613 -3.82936 -3.15711 0
M  V30 198 H 17.3173 -5.24255 -3.1459 0
M  V30 199 H 21.4913 -6.22934 -3.1133 0
M  V30 200 H 19.1183 -6.93984 -3.10307 0
M  V30 201 N 20.6934 1.19889 -1.02296 0
M  V30 202 C 21.9414 1.89046 -0.714558 0
M  V30 203 C 22.2624 1.79636 0.758681 0
M  V30 204 O 21.5324 1.20292 1.54618 0
M  V30 205 H 20.1124 0.699802 -0.261317 0
M  V30 206 H 22.7744 1.45574 -1.29592 0
M  V30 207 H 21.8704 2.95524 -1.0036 0
M  V30 208 N 22.1715 0.800033 1.35784 0
M  V30 209 C 23.1345 0.211565 2.28221 0
M  V30 210 C 24.1345 -0.59728 1.49296 0
M  V30 211 O 25.3245 -0.416721 1.69142 0
M  V30 212 C 22.4565 -0.705846 3.33513 0
M  V30 213 H 23.6495 1.02677 2.81776 0
M  V30 214 H 21.2025 0.570211 1.45528 0
M  V30 215 H 21.9375 -1.54498 2.85133 0
M  V30 216 H 21.7225 -0.127655 3.91892 0
M  V30 217 H 23.2125 -1.11211 4.02519 0
M  V30 218 N 23.6496 -1.47581 0.552962 0
M  V30 219 C 24.5996 -2.26961 -0.217423 0
M  V30 220 C 25.5836 -1.34099 -0.889168 0
M  V30 221 O 26.7756 -1.58483 -0.788176 0
M  V30 222 C 23.9046 -3.19756 -1.24944 0
M  V30 223 C 22.9906 -4.20097 -0.581327 0
M  V30 224 N 23.3816 -5.04614 0.346171 0
M  V30 225 C 21.6796 -4.38099 -0.835767 0
M  V30 226 C 22.3806 -5.77052 0.733854 0
M  V30 227 N 21.3566 -5.43526 0.0896567 0
M  V30 228 H 25.1586 -2.89688 0.495761 0
M  V30 229 H 22.6726 -1.58068 0.372597 0
M  V30 230 H 24.6696 -3.75305 -1.81527 0
M  V30 231 H 23.3296 -2.58585 -1.96376 0
M  V30 232 H 24.3406 -5.12869 0.720098 0
M  V30 233 H 21.0176 -3.88102 -1.53892 0
M  V30 234 H 22.4076 -6.5504 1.49574 0
M  V30 235 N 25.1277 -0.289203 -1.54924 0
M  V30 236 C 26.3557 0.326463 -2.04308 0
M  V30 237 C 26.7707 1.48413 -1.16701 0
M  V30 238 O 26.1277 1.81507 -0.190087 0
M  V30 239 C 26.1787 0.794014 -3.52672 0
M  V30 240 O 25.8997 -0.317564 -4.36948 0
M  V30 241 C 27.4007 1.47605 -4.18004 0
M  V30 242 H 24.6207 0.0726272 -0.667058 0
M  V30 243 H 27.1647 -0.425401 -2.00026 0
M  V30 244 H 25.3197 1.49593 -3.57352 0
M  V30 245 H 25.7337 0.0443186 -5.24481 0
M  V30 246 H 27.2077 1.75447 -5.23376 0
M  V30 247 H 27.6847 2.41224 -3.67025 0
M  V30 248 H 28.2907 0.81762 -4.17367 0
M  V30 249 N 26.6058 1.57591 -0.0167156 0
M  V30 250 C 27.8548 1.90461 0.663877 0
M  V30 251 C 28.1678 0.893515 1.73999 0
M  V30 252 O 29.3738 1.11302 2.47637 0
M  V30 253 C 27.8298 3.38155 1.23204 0
M  V30 254 C 27.4378 4.47597 0.189866 0
M  V30 255 C 29.1818 3.80111 1.88986 0
M  V30 256 C 27.0888 5.86379 0.768964 0
M  V30 257 H 26.0188 0.710738 0.251729 0
M  V30 258 H 28.6698 1.83326 -0.0799926 0
M  V30 259 H 27.0518 3.40182 2.02712 0
M  V30 260 H 28.2258 4.57112 -0.581846 0
M  V30 261 H 26.5408 4.14766 -0.368475 0
M  V30 262 H 29.1378 4.81145 2.33247 0
M  V30 263 H 29.4808 3.14511 2.72743 0
M  V30 264 H 30.0138 3.80454 1.16187 0
M  V30 265 H 26.7528 6.55493 -0.0301957 0
M  V30 266 H 26.2728 5.80496 1.50945 0
M  V30 267 H 27.9518 6.34563 1.26251 0
M  V30 268 N 28.0839 -0.256276 1.55502 0
M  V30 269 C 29.3299 -0.987079 1.77157 0
M  V30 270 C 29.6629 -1.85327 0.580315 0
M  V30 271 O 28.9379 -1.89874 -0.421686 0
M  V30 272 C 29.2209 -1.85553 3.08613 0
M  V30 273 C 29.0739 -1.01816 4.38125 0
M  V30 274 C 30.3929 -2.8397 3.36228 0
M  V30 275 H 27.5119 -0.357428 0.644526 0
M  V30 276 H 30.1539 -0.258239 1.88237 0
M  V30 277 H 28.3039 -2.47695 2.99298 0
M  V30 278 H 29.9759 -0.416159 4.59419 0
M  V30 279 H 28.2189 -0.322178 4.32602 0
M  V30 280 H 28.8899 -1.65939 5.26468 0
M  V30 281 H 31.3659 -2.31964 3.45445 0
M  V30 282 H 30.2419 -3.41864 4.29442 0
M  V30 283 H 30.5029 -3.59955 2.56681 0
M  V30 284 N 29.562 -1.4872 -0.521534 0
M  V30 285 C 30.509 -1.63871 -1.62527 0
M  V30 286 C 31.479 -0.480559 -1.58996 0
M  V30 287 O 32.664 -0.705085 -1.77294 0
M  V30 288 C 29.804 -1.69227 -3.00759 0
M  V30 289 C 28.917 -2.96207 -3.14461 0
M  V30 290 C 28.052 -2.92671 -4.43303 0
M  V30 291 C 27.091 -4.14318 -4.50563 0
M  V30 292 N 26.228 -4.0881 -5.70805 0
M  V30 293 H 31.068 -2.58123 -1.48918 0
M  V30 294 H 28.605 -1.28 -0.724878 0
M  V30 295 H 30.563 -1.70314 -3.80853 0
M  V30 296 H 29.193 -0.784586 -3.1312 0
M  V30 297 H 28.245 -3.04826 -2.27564 0
M  V30 298 H 29.557 -3.86192 -3.15686 0
M  V30 299 H 28.711 -2.92206 -5.31696 0
M  V30 300 H 27.45 -2.00429 -4.44612 0
M  V30 301 H 26.455 -4.15049 -3.60575 0
M  V30 302 H 27.68 -5.07729 -4.50986 0
M  V30 303 H 25.626 -3.19394 -5.72995 0
M  V30 304 H 25.543 -4.92509 -5.7356 0
M  V30 305 H 26.811 -4.12418 -6.61462 0
M  V30 306 N 31.0401 0.771051 -1.3745 0
M  V30 307 C 32.4511 1.34737 -1.29239 0
M  V30 308 C 32.8021 1.96109 0.0596908 0
M  V30 309 O 31.9271 1.93865 0.961534 0
M  V30 310 C 32.5221 2.44973 -2.34037 0
M  V30 311 C 31.0811 2.98372 -2.29458 0
M  V30 312 C 30.2281 1.71595 -2.17831 0
M  V30 313 H 33.1791 0.571256 -1.48062 0
M  V30 314 H 33.2001 3.24471 -1.98744 0
M  V30 315 H 32.7121 2.00276 -3.32432 0
M  V30 316 H 30.8131 3.47443 -1.34589 0
M  V30 317 H 30.9261 3.53939 -3.229 0
M  V30 318 H 29.2901 1.94547 -1.64388 0
M  V30 319 H 30.0731 1.29001 -3.18141 0
M  V30 320 N 32.5182 1.22032 0.997298 0
M  V30 321 C 33.4812 0.987909 2.06816 0
M  V30 322 C 34.4812 -0.0440084 1.6074 0
M  V30 323 O 35.6712 0.194053 1.73116 0
M  V30 324 C 32.8032 0.49132 3.37341 0
M  V30 325 H 33.9962 1.93803 2.28868 0
M  V30 326 H 31.5492 1.03838 1.16822 0
M  V30 327 H 32.2842 -0.463364 3.20973 0
M  V30 328 H 32.0692 1.23575 3.72118 0
M  V30 329 H 33.5592 0.348824 4.16141 0
M  V30 330 N 33.9963 -1.19345 1.0293 0
M  V30 331 C 35.2443 -1.88665 0.724574 0
M  V30 332 C 35.5653 -1.80036 -0.749144 0
M  V30 333 O 34.8353 -1.2111 -1.53978 0
M  V30 334 H 33.4153 -0.698406 0.265025 0
M  V30 335 H 36.0773 -1.44885 1.30362 0
M  V30 336 H 35.1733 -2.94987 1.01926 0
M  V30 337 N 35.4744 -0.807222 -1.35358 0
M  V30 338 C 36.8854 -0.44876 -1.81226 0
M  V30 339 C 37.2364 1.02929 -1.67033 0
M  V30 340 O 36.3614 1.79991 -1.20133 0
M  V30 341 C 36.9564 -0.807774 -3.2903 0
M  V30 342 C 35.5154 -0.501901 -3.73039 0
M  V30 343 C 34.6624 -1.03304 -2.57339 0
M  V30 344 H 37.6134 -0.998808 -1.23327 0
M  V30 345 H 37.6344 -0.10554 -3.80354 0
M  V30 346 H 37.1464 -1.88357 -3.39328 0
M  V30 347 H 35.2474 0.565128 -3.68289 0
M  V30 348 H 35.3604 -1.03497 -4.67787 0
M  V30 349 H 33.7244 -0.455339 -2.50597 0
M  V30 350 H 34.5074 -2.11496 -2.70415 0
M  V30 351 N 36.9525 1.47285 -0.560781 0
M  V30 352 C 38.3635 1.86258 -0.128343 0
M  V30 353 C 38.7145 1.46699 1.30284 0
M  V30 354 O 37.8395 0.871698 1.98067 0
M  V30 355 C 38.4345 3.38044 -0.22614 0
M  V30 356 C 36.9935 3.76096 0.151283 0
M  V30 357 C 36.1405 2.71335 -0.572084 0
M  V30 358 H 39.0915 1.38752 -0.770297 0
M  V30 359 H 39.1125 3.76441 0.554322 0
M  V30 360 H 38.6245 3.66806 -1.26788 0
M  V30 361 H 36.7255 3.52951 1.19399 0
M  V30 362 H 36.8385 4.78641 -0.209765 0
M  V30 363 H 35.2025 2.54696 -0.0147653 0
M  V30 364 H 35.9855 3.02938 -1.61504 0
M  V30 365 N 38.4306 0.297415 1.54768 0
M  V30 366 C 39.8466 -0.0560823 1.59501 0
M  V30 367 C 40.0466 -1.52725 1.31444 0
M  V30 368 O 39.1026 -2.27947 1.08611 0
M  V30 369 C 40.4156 0.338631 2.98787 0
M  V30 370 C 41.9636 0.287097 3.11681 0
M  V30 371 C 42.4386 0.656579 4.53269 0
M  V30 372 N 43.9296 0.608977 4.59179 0
M  V30 373 C 44.6646 0.867385 5.66802 0
M  V30 374 N 44.1606 1.19157 6.82476 0
M  V30 375 N 45.9536 0.794687 5.56454 0
M  V30 376 H 38.1046 1.25624 1.71267 0
M  V30 377 H 40.3676 0.509057 0.799728 0
M  V30 378 H 40.0736 1.36263 3.2423 0
M  V30 379 H 39.9476 -0.309508 3.75928 0
M  V30 380 H 42.3346 -0.727649 2.85988 0
M  V30 381 H 42.4156 0.969809 2.36703 0
M  V30 382 H 42.0596 1.66912 4.7969 0
M  V30 383 H 41.9896 -0.0481649 5.26578 0
M  V30 384 H 44.4806 0.369198 3.76092 0
M  V30 385 H 44.7936 1.37482 7.60473 0
M  V30 386 H 43.1386 1.22958 6.84037 0
M  V30 387 H 46.3296 0.541098 4.64962 0
M  V30 388 H 46.5026 0.999445 6.40246 0
M  V30 389 N 39.9087 -1.5758 0.0250728 0
M  V30 390 C 41.1547 -1.91917 -0.655413 0
M  V30 391 C 41.4877 -0.901433 -1.72011 0
M  V30 392 O 40.7627 0.0764069 -1.9435 0
M  V30 393 C 41.0457 -3.36751 -1.27558 0
M  V30 394 C 40.8987 -4.49258 -0.220719 0
M  V30 395 C 42.2177 -3.81469 -2.19475 0
M  V30 396 H 39.3367 -0.697925 -0.23679 0
M  V30 397 H 41.9787 -1.89825 0.0815036 0
M  V30 398 H 40.1287 -3.38664 -1.90365 0
M  V30 399 H 41.8007 -4.59478 0.409601 0
M  V30 400 H 40.0437 -4.31415 0.454264 0
M  V30 401 H 40.7147 -5.47618 -0.694175 0
M  V30 402 H 43.1907 -3.81266 -1.66659 0
M  V30 403 H 42.0667 -4.83512 -2.59822 0
M  V30 404 H 42.3277 -3.16744 -3.08424 0
M  V30 405 N 41.3868 0.248026 -1.55636 0
M  V30 406 C 42.6348 0.974295 -1.77065 0
M  V30 407 C 42.9558 1.85897 -0.588849 0
M  V30 408 O 42.2258 1.91868 0.395407 0
M  V30 409 H 40.8058 0.362733 -0.653019 0
M  V30 410 H 43.4678 0.266244 -1.93073 0
M  V30 411 H 42.5638 1.59667 -2.68166 0
M  V30 412 N 42.8649 1.48995 0.513639 0
M  V30 413 C 43.7969 1.60836 1.63293 0
M  V30 414 C 44.8099 0.491701 1.55197 0
M  V30 415 O 45.9989 0.763238 1.6136 0
M  V30 416 C 43.0989 1.53731 3.02027 0
M  V30 417 C 42.2719 2.80715 3.35437 0
M  V30 418 C 41.3309 2.66837 4.53525 0
M  V30 419 O 40.3569 3.40753 4.55934 0
M  V30 420 N 41.5589 1.77539 5.52684 0
M  V30 421 H 44.3239 2.57366 1.53566 0
M  V30 422 H 41.8849 1.45925 0.701259 0
M  V30 423 H 43.8769 1.42118 3.78926 0
M  V30 424 H 42.4469 0.651092 3.05744 0
M  V30 425 H 41.6669 3.06772 2.47557 0
M  V30 426 H 42.9549 3.64927 3.54551 0
M  V30 427 H 42.3529 1.16719 5.53528 0
M  V30 428 H 40.9099 1.71856 6.28736 0
M  V30 429 N 44.343 -0.763751 1.37857 0
M  V30 430 C 45.754 -1.3405 1.29952 0
M  V30 431 C 46.105 -1.96138 -0.0492898 0
M  V30 432 O 45.23 -1.94372 -0.951239 0
M  V30 433 C 45.825 -2.43729 2.35333 0
M  V30 434 C 44.384 -2.97151 2.31037 0
M  V30 435 C 43.531 -1.70438 2.18738 0
M  V30 436 H 46.482 -0.563396 1.48363 0
M  V30 437 H 46.503 -3.23412 2.00462 0
M  V30 438 H 46.015 -1.9851 3.33489 0
M  V30 439 H 44.116 -3.46724 1.3643 0
M  V30 440 H 44.229 -3.52221 3.24772 0
M  V30 441 H 42.593 -1.93673 1.65418 0
M  V30 442 H 43.376 -1.27312 3.18821 0
M  V30 443 N 45.8211 -1.22559 -0.990812 0
M  V30 444 C 47.0461 -1.07862 -1.77145 0
M  V30 445 C 47.4711 0.366447 -1.84496 0
M  V30 446 O 46.8291 1.26478 -1.29896 0
M  V30 447 C 46.8771 -1.69686 -3.18181 0
M  V30 448 O 45.9811 -0.951946 -4.01263 0
M  V30 449 H 45.3221 -0.378712 -0.545411 0
M  V30 450 H 47.8521 -1.62399 -1.2445 0
M  V30 451 H 47.8621 -1.74496 -3.68802 0
M  V30 452 H 46.5371 -2.74841 -3.12146 0
M  V30 453 H 45.1141 -0.980011 -3.59792 0
M  V30 454 N 47.2992 1.18797 -1.03562 0
M  V30 455 C 48.5452 1.89192 -0.746867 0
M  V30 456 C 48.9002 1.78531 0.717245 0
M  V30 457 O 48.1932 1.17137 1.51622 0
M  V30 458 C 48.3872 3.38692 -1.14117 0
M  V30 459 C 48.2162 3.63902 -2.64207 0
M  V30 460 C 46.9862 3.81553 -3.31279 0
M  V30 461 C 49.1842 3.64903 -3.62423 0
M  V30 462 N 47.1662 3.94455 -4.70402 0
M  V30 463 C 48.5372 3.83458 -4.87196 0
M  V30 464 C 50.5922 3.47965 -3.56125 0
M  V30 465 C 49.2952 3.86829 -6.06429 0
M  V30 466 C 51.3212 3.52616 -4.7478 0
M  V30 467 C 50.6832 3.71663 -5.9837 0
M  V30 468 H 46.7822 0.711141 -0.325273 0
M  V30 469 H 49.3662 1.42727 -1.32428 0
M  V30 470 H 47.5372 3.83864 -0.591889 0
M  V30 471 H 49.2692 3.96634 -0.803966 0
M  V30 472 H 46.0242 3.80723 -2.81686 0
M  V30 473 H 46.4482 4.0474 -5.42692 0
M  V30 474 H 51.0902 3.32189 -2.61553 0
M  V30 475 H 48.8082 4.01395 -7.01362 0
M  V30 476 H 52.3942 3.40791 -4.71543 0
M  V30 477 H 51.2742 3.75145 -6.88648 0
M  V30 478 N 48.7773 0.814389 1.34928 0
M  V30 479 C 49.7253 0.218424 2.31572 0
M  V30 480 C 50.7193 -0.636128 1.57002 0
M  V30 481 O 51.9253 -0.52842 1.72069 0
M  V30 482 H 48.3003 0.0518799 0.750208 0
M  V30 483 H 50.2713 1.04852 2.79372 0
M  V30 484 C 49.0203 -0.61207 3.4227 0
M  V30 485 H 48.3433 0.0361578 3.99784 0
M  V30 486 H 49.7833 -0.995317 4.12152 0
M  V30 487 C 48.2423 -1.78087 2.85984 0
M  V30 488 O 48.7723 -2.8787 2.80168 0
M  V30 489 N 46.9783 -1.59488 2.42924 0
M  V30 490 H 46.5253 -0.701874 2.47854 0
M  V30 491 H 46.4833 -2.37846 2.05613 0
M  V30 492 N 50.2554 -1.46986 0.568584 0
M  V30 493 C 51.6664 -1.86188 0.138219 0
M  V30 494 C 52.0174 -1.47388 -1.29504 0
M  V30 495 O 51.1424 -0.88219 -1.97602 0
M  V30 496 C 51.7374 -3.3792 0.244065 0
M  V30 497 C 50.2964 -3.76171 -0.131335 0
M  V30 498 C 49.4434 -2.71027 0.586465 0
M  V30 499 H 52.3944 -1.38342 0.777645 0
M  V30 500 H 52.4154 -3.76729 -0.534351 0
M  V30 501 H 51.9274 -3.66128 1.28731 0
M  V30 502 H 50.0284 -3.5358 -1.17526 0
M  V30 503 H 50.1414 -4.78523 0.235146 0
M  V30 504 H 48.5054 -2.54684 0.0282722 0
M  V30 505 H 49.2884 -3.02077 1.63109 0
M  V30 506 N 51.7335 -0.305618 -1.54608 0
M  V30 507 C 52.6655 0.602161 -2.21149 0
M  V30 508 C 53.6785 1.09394 -1.20569 0
M  V30 509 O 54.8675 1.0106 -1.47136 0
M  V30 510 C 51.9675 1.83692 -2.84799 0
M  V30 511 C 51.1405 1.48686 -4.11353 0
M  V30 512 C 50.1995 2.57725 -4.58764 0
M  V30 513 O 49.2255 2.22623 -5.23858 0
M  V30 514 N 50.4275 3.88346 -4.31471 0
M  V30 515 H 53.1925 0.0324966 -2.99682 0
M  V30 516 H 50.7535 -0.128021 -1.61393 0
M  V30 517 H 52.7455 2.55994 -3.13448 0
M  V30 518 H 51.3155 2.31486 -2.10078 0
M  V30 519 H 50.5355 0.596269 -3.89664 0
M  V30 520 H 51.8235 1.22842 -4.93748 0
M  V30 521 H 51.2215 4.19671 -3.79331 0
M  V30 522 H 49.7785 4.56932 -4.64818 0
M  V30 523 N 53.2116 1.57565 -0.0334293 0
M  V30 524 C 54.6276 1.56297 0.322997 0
M  V30 525 C 54.8276 1.03945 1.7262 0
M  V30 526 O 53.8836 0.688109 2.42943 0
M  V30 527 C 55.1966 3.00232 0.167664 0
M  V30 528 C 56.7446 3.12078 0.240107 0
M  V30 529 C 57.2196 4.57859 0.113513 0
M  V30 530 N 58.7106 4.62887 0.170359 0
M  V30 531 C 59.4456 5.73319 0.0962517 0
M  V30 532 N 58.9416 6.92794 -0.0291881 0
M  V30 533 N 60.7346 5.61898 0.150551 0
M  V30 534 H 52.8856 1.89923 -0.950956 0
M  V30 535 H 55.1486 0.873824 -0.367608 0
M  V30 536 H 54.8546 3.42501 -0.799102 0
M  V30 537 H 54.7286 3.654 0.936083 0
M  V30 538 H 57.1156 2.69718 1.19733 0
M  V30 539 H 57.1966 2.49623 -0.558763 0
M  V30 540 H 56.8406 5.009 -0.840314 0
M  V30 541 H 56.7706 5.18299 0.931302 0
M  V30 542 H 59.2616 3.76954 0.26728 0
M  V30 543 H 59.5746 7.7276 -0.0789252 0
M  V30 544 H 57.9196 6.94971 -0.0640299 0
M  V30 545 H 61.1106 4.67448 0.246981 0
M  V30 546 H 61.2836 6.47938 0.0893365 0
M  V30 547 N 54.6897 -0.239769 1.55765 0
M  V30 548 C 55.6527 -1.28038 1.90103 0
M  V30 549 C 56.6527 -1.40723 0.778055 0
M  V30 550 O 57.8427 -1.39301 1.04599 0
M  V30 551 C 54.9747 -2.65702 2.13577 0
M  V30 552 H 56.1677 -0.988048 2.83157 0
M  V30 553 H 53.7207 -0.479382 1.48767 0
M  V30 554 H 54.4557 -3.00063 1.23015 0
M  V30 555 H 54.2407 -2.57875 2.95369 0
M  V30 556 H 55.7307 -3.40828 2.41301 0
M  V30 557 N 56.1678 -1.49265 -0.50573 0
M  V30 558 C 57.3928 -1.62478 -1.28902 0
M  V30 559 C 57.8178 -0.294332 -1.85783 0
M  V30 560 O 57.1758 0.737412 -1.65626 0
M  V30 561 C 57.2238 -2.69268 -2.39848 0
M  V30 562 O 56.3278 -2.28113 -3.43567 0
M  V30 563 H 55.6688 -0.54399 -0.380751 0
M  V30 564 H 58.1988 -1.95421 -0.605952 0
M  V30 565 H 58.2088 -2.91291 -2.85681 0
M  V30 566 H 56.8838 -3.65846 -1.97812 0
M  V30 567 H 55.4608 -2.16401 -3.03685 0
M  V30 568 N 57.6459 0.756429 -1.3826 0
M  V30 569 C 58.8709 1.55077 -1.37717 0
M  V30 570 C 59.2959 1.88073 0.03164 0
M  V30 571 O 58.6539 1.50364 1.01293 0
M  V30 572 C 58.7019 2.8283 -2.23695 0
M  V30 573 O 57.8059 3.77862 -1.6521 0
M  V30 574 H 57.1469 0.469152 -0.469885 0
M  V30 575 H 59.6769 0.935019 -1.81985 0
M  V30 576 H 59.6869 3.31783 -2.37453 0
M  V30 577 H 58.3619 2.58144 -3.2609 0
M  V30 578 H 56.9389 3.36555 -1.60578 0
M  V30 579 N 59.124 1.23083 0.984299 0
M  V30 580 C 60.057 0.951786 2.07404 0
M  V30 581 C 61.035 -0.10848 1.62238 0
M  V30 582 O 62.219 0.0249467 1.88483 0
M  V30 583 C 59.346 0.433142 3.35919 0
M  V30 584 C 58.392 1.47941 4.0002 0
M  V30 585 S 59.225 3.05556 4.39768 0
M  V30 586 C 60.381 2.55351 5.71442 0
M  V30 587 H 60.614 1.87456 2.30754 0
M  V30 588 H 58.147 1.06284 1.11996 0
M  V30 589 H 60.105 0.140506 4.10259 0
M  V30 590 H 58.766 -0.468656 3.10584 0
M  V30 591 H 57.959 1.06658 4.92585 0
M  V30 592 H 57.561 1.7212 3.3204 0
M  V30 593 H 59.853 1.97128 6.48187 0
M  V30 594 H 60.796 3.46441 6.17563 0
M  V30 595 H 61.204 1.96339 5.29255 0
M  V30 596 N 60.6021 -1.18246 1.0419 0
M  V30 597 C 62.0131 -1.69914 0.773698 0
M  V30 598 C 62.3641 -1.83085 -0.705297 0
M  V30 599 O 61.4891 -1.51123 -1.5489 0
M  V30 600 C 62.0841 -3.08619 1.39784 0
M  V30 601 C 60.6431 -3.57494 1.17792 0
M  V30 602 C 59.7901 -2.34013 1.48773 0
M  V30 603 H 62.7411 -1.02904 1.20816 0
M  V30 604 H 62.7621 -3.71958 0.801714 0
M  V30 605 H 62.2741 -2.99001 2.47426 0
M  V30 606 H 60.3751 -3.72406 0.120295 0
M  V30 607 H 60.4881 -4.40852 1.87581 0
M  V30 608 H 58.8521 -2.37986 0.907463 0
M  V30 609 H 59.6351 -2.27013 2.57527 0
M  V30 610 N 62.0802 -0.821533 -1.34494 0
M  V30 611 C 63.3262 -0.409552 -1.98622 0
M  V30 612 C 63.6592 1.0244 -1.64984 0
M  V30 613 O 62.9342 1.71325 -0.920758 0
M  V30 614 C 63.2172 -0.610458 -3.54888 0
M  V30 615 C 63.0702 -2.09043 -3.98273 0
M  V30 616 C 64.3892 -0.0455379 -4.40076 0
M  V30 617 H 61.5082 -0.15028 -0.721516 0
M  V30 618 H 64.1502 -1.03384 -1.59411 0
M  V30 619 H 62.3002 -0.079044 -3.8842 0
M  V30 620 H 63.9722 -2.68537 -3.75081 0
M  V30 621 H 62.2152 -2.58139 -3.48635 0
M  V30 622 H 62.8862 -2.18182 -5.07051 0
M  V30 623 H 65.3622 -0.499557 -4.1309 0
M  V30 624 H 64.2382 -0.215922 -5.48475 0
M  V30 625 H 64.4992 1.04939 -4.29465 0
M  V30 626 N 63.5583 1.46682 -0.576371 0
M  V30 627 C 64.5063 2.31953 0.17335 0
M  V30 628 C 65.5003 1.44098 0.89062 0
M  V30 629 O 66.7063 1.60759 0.809728 0
M  V30 630 H 63.0813 0.748273 0.0747727 0
M  V30 631 H 65.0523 2.93007 -0.564738 0
M  V30 632 C 63.8013 3.27142 1.17786 0
M  V30 633 H 63.1243 3.94719 0.635361 0
M  V30 634 H 64.5643 3.896 1.67296 0
M  V30 635 C 63.0233 2.52036 2.23561 0
M  V30 636 O 63.5533 2.27877 3.3081 0
M  V30 637 N 61.7593 2.12709 1.97998 0
M  V30 638 H 61.3063 2.32557 1.10792 0
M  V30 639 H 61.2643 1.62776 2.68982 0
M  V30 640 N 65.0364 0.313813 1.54444 0
M  V30 641 C 66.4524 -0.0391619 1.59552 0
M  V30 642 C 66.6524 -1.51322 1.33056 0
M  V30 643 O 65.7084 -2.26782 1.11022 0
M  V30 644 C 67.0214 0.370302 2.98411 0
M  V30 645 C 68.5694 0.320139 3.11358 0
M  V30 646 C 69.0444 0.704617 4.52547 0
M  V30 647 N 70.5354 0.657645 4.58508 0
M  V30 648 C 71.2704 0.927453 5.6585 0
M  V30 649 N 70.7664 1.26389 6.81174 0
M  V30 650 N 72.5594 0.853662 5.5558 0
M  V30 651 H 64.7104 1.27433 1.69925 0
M  V30 652 H 66.9734 0.517511 0.794284 0
M  V30 653 H 66.6794 1.39694 3.22767 0
M  V30 654 H 66.5534 -0.269619 3.76235 0
M  V30 655 H 68.9404 -0.697275 2.86744 0
M  V30 656 H 69.0214 0.99486 2.35661 0
M  V30 657 H 68.6654 1.7199 4.77893 0
M  V30 658 H 68.5954 0.00768843 5.26599 0
M  V30 659 H 71.0864 0.409067 3.75679 0
M  V30 660 H 71.3994 1.4554 7.58972 0
M  V30 661 H 69.7444 1.30206 6.82694 0
M  V30 662 H 72.9354 0.590383 4.64362 0
M  V30 663 H 73.1084 1.0673 6.3915 0
M  V30 664 N 66.5145 -1.57545 0.0417849 0
M  V30 665 C 67.7445 -1.96339 -0.642995 0
M  V30 666 C 68.1525 -0.917536 -1.65463 0
M  V30 667 O 67.4955 0.107747 -1.83384 0
M  V30 668 C 67.5575 -3.31333 -1.39494 0
M  V30 669 C 67.2215 -4.53796 -0.540204 0
M  V30 670 C 68.2185 -5.19553 0.189806 0
M  V30 671 C 65.9035 -5.0006 -0.473886 0
M  V30 672 C 67.8975 -6.29904 0.974674 0
M  V30 673 C 65.5845 -6.10289 0.314677 0
M  V30 674 C 66.5825 -6.75072 1.03765 0
M  V30 675 O 66.2705 -7.83183 1.81327 0
M  V30 676 H 66.0025 -0.651241 -0.181277 0
M  V30 677 H 68.5565 -2.05148 0.101665 0
M  V30 678 H 66.7865 -3.19052 -2.18502 0
M  V30 679 H 68.4755 -3.54942 -1.96904 0
M  V30 680 H 69.2415 -4.84774 0.147981 0
M  V30 681 H 65.1205 -4.49433 -1.0262 0
M  V30 682 H 68.6645 -6.80401 1.5395 0
M  V30 683 H 64.5615 -6.44506 0.358174 0
M  V30 684 H 65.3295 -7.99913 1.73438 0
M  V30 685 N 67.9926 0.231505 -1.5589 0
M  V30 686 C 69.4086 0.580748 -1.48659 0
M  V30 687 C 69.6086 1.87617 -0.73498 0
M  V30 688 O 68.6646 2.51046 -0.270586 0
M  V30 689 C 69.9776 0.669202 -2.93159 0
M  V30 690 C 71.5256 0.760499 -3.03621 0
M  V30 691 C 72.0006 0.880383 -4.49459 0
M  V30 692 N 73.4916 0.944861 -4.53461 0
M  V30 693 C 74.2266 1.05716 -5.63571 0
M  V30 694 N 73.7226 1.13403 -6.83456 0
M  V30 695 N 75.5156 1.09152 -5.514 0
M  V30 696 H 67.6666 -0.618695 -2.03189 0
M  V30 697 H 69.9296 -0.215728 -0.923128 0
M  V30 698 H 69.6356 -0.212904 -3.51055 0
M  V30 699 H 69.5096 1.5361 -3.44505 0
M  V30 700 H 71.8966 1.63305 -2.45796 0
M  V30 701 H 71.9776 -0.131864 -2.5546 0
M  V30 702 H 71.6216 0.0123284 -5.07899 0
M  V30 703 H 71.5516 1.78802 -4.95316 0
M  V30 704 H 74.0426 0.896176 -3.6712 0
M  V30 705 H 74.3556 1.21921 -7.63122 0
M  V30 706 H 72.7006 1.10333 -6.86186 0
M  V30 707 H 75.8916 1.02805 -4.56671 0
M  V30 708 H 76.0646 1.17558 -6.37247 0
M  V30 709 N 69.4707 1.49531 0.497807 0
M  V30 710 C 70.8817 1.52344 1.07927 0
M  V30 711 C 71.2327 0.311469 1.93712 0
M  V30 712 O 70.3577 -0.578405 2.08527 0
M  V30 713 C 70.9527 2.76062 1.96405 0
M  V30 714 C 69.5117 2.81643 2.49709 0
M  V30 715 C 68.6587 2.46299 1.27404 0
M  V30 716 H 71.6097 1.56182 0.281576 0
M  V30 717 H 71.6307 2.56405 2.81135 0
M  V30 718 H 71.1427 3.64254 1.33943 0
M  V30 719 H 69.2437 1.97739 3.15801 0
M  V30 720 H 69.3567 3.83891 2.86643 0
M  V30 721 H 67.7207 1.98148 1.60029 0
M  V30 722 H 68.5037 3.36769 0.66645 0
M  V30 723 N 70.9488 -0.749086 1.3866 0
M  V30 724 C 72.1958 -1.50833 1.35114 0
M  V30 725 C 72.5238 -1.94415 -0.0574049 0
M  V30 726 O 71.7788 -1.66065 -1.03541 0
M  V30 727 C 72.0778 -2.7712 2.25697 0
M  V30 728 C 71.7438 -2.52477 3.73585 0
M  V30 729 C 70.4058 -2.45466 4.13884 0
M  V30 730 C 72.7578 -2.31066 4.67181 0
M  V30 731 C 70.0858 -2.15064 5.45861 0
M  V30 732 C 72.4378 -2.02183 5.9942 0
M  V30 733 C 71.1018 -1.93631 6.38798 0
M  V30 734 H 70.3718 -0.551936 0.494416 0
M  V30 735 H 73.0188 -0.860979 1.71054 0
M  V30 736 H 71.3238 -3.46528 1.82827 0
M  V30 737 H 73.0208 -3.35096 2.20254 0
M  V30 738 H 69.6108 -2.58807 3.41638 0
M  V30 739 H 73.7948 -2.35459 4.3689 0
M  V30 740 H 69.0508 -2.06954 5.75308 0
M  V30 741 H 73.2248 -1.8462 6.71482 0
M  V30 742 H 70.8518 -1.69839 7.40985 0
M  V30 743 N 72.4269 -1.23603 -0.977757 0
M  V30 744 C 73.3899 -1.02069 -2.05218 0
M  V30 745 C 74.3899 0.0184305 -1.60789 0
M  V30 746 O 75.5799 -0.221569 -1.72785 0
M  V30 747 C 72.7119 -0.544926 -3.36517 0
M  V30 748 H 73.9049 -1.9742 -2.25755 0
M  V30 749 H 71.4579 -1.05684 -1.15155 0
M  V30 750 H 72.1929 0.412241 -3.21669 0
M  V30 751 H 71.9779 -1.2948 -3.70105 0
M  V30 752 H 73.4679 -0.414985 -4.15533 0
M  V30 753 N 73.905 1.17692 -1.04816 0
M  V30 754 C 74.815 2.25229 -0.65643 0
M  V30 755 C 75.831 1.71018 0.320761 0
M  V30 756 O 77.007 2.00649 0.173805 0
M  V30 757 C 74.072 3.46684 -0.0332629 0
M  V30 758 C 73.133 4.15997 -1.06042 0
M  V30 759 C 72.366 5.31654 -0.466893 0
M  V30 760 O 72.589 5.65777 0.724758 0
M  V30 761 O 71.523 5.89831 -1.1993 0
M  V30 762 H 75.349 2.61016 -1.55255 0
M  V30 763 H 72.934 1.24919 -0.81949 0
M  V30 764 H 74.816 4.20234 0.313256 0
M  V30 765 H 73.491 3.12703 0.836566 0
M  V30 766 H 72.398 3.44482 -1.45886 0
M  V30 767 H 73.731 4.53996 -1.90127 0
M  V30 768 N 75.3831 0.828654 1.34056 0
M  V30 769 C 76.2931 0.256725 2.33191 0
M  V30 770 C 77.3091 -0.611898 1.62886 0
M  V30 771 O 78.4851 -0.51844 1.94613 0
M  V30 772 C 75.5501 -0.567238 3.42028 0
M  V30 773 C 74.6111 0.324458 4.28072 0
M  V30 774 C 73.8441 -0.460274 5.31712 0
M  V30 775 O 74.0671 -1.693 5.44696 0
M  V30 776 O 73.0011 0.160391 6.01686 0
M  V30 777 H 76.8271 1.07739 2.83947 0
M  V30 778 H 74.4121 0.59093 1.37217 0
M  V30 779 H 76.2941 -1.03582 4.08471 0
M  V30 780 H 74.9691 -1.36513 2.93506 0
M  V30 781 H 73.8761 0.840659 3.64532 0
M  V30 782 H 75.2091 1.08685 4.8005 0
M  V30 783 N 76.8612 -1.46375 0.584142 0
M  V30 784 C 78.1072 -2.02678 0.0703716 0
M  V30 785 C 78.4402 -1.4545 -1.28678 0
M  V30 786 O 77.7152 -0.62014 -1.84349 0
M  V30 787 C 77.9982 -3.60099 0.00614674 0
M  V30 788 C 77.8512 -4.27709 1.3923 0
M  V30 789 C 79.1702 -4.34598 -0.693742 0
M  V30 790 H 76.2892 -0.736504 0.027047 0
M  V30 791 H 78.9312 -1.74501 0.751615 0
M  V30 792 H 77.0812 -3.84236 -0.574009 0
M  V30 793 H 78.7532 -4.14832 2.01773 0
M  V30 794 H 76.9962 -3.87016 1.95962 0
M  V30 795 H 77.6672 -5.36478 1.29982 0
M  V30 796 H 80.1432 -4.15615 -0.200869 0
M  V30 797 H 79.0192 -5.44318 -0.707714 0
M  V30 798 H 79.2802 -4.05759 -1.75533 0
M  V30 799 N 78.3393 -0.321999 -1.54275 0
M  V30 800 C 79.2493 0.553631 -2.27974 0
M  V30 801 C 80.2653 1.13054 -1.32268 0
M  V30 802 O 81.4413 1.15084 -1.6528 0
M  V30 803 C 78.5063 1.69927 -3.02201 0
M  V30 804 C 77.5673 1.15433 -4.1349 0
M  V30 805 C 76.8003 2.24537 -4.84168 0
M  V30 806 O 77.0233 3.44852 -4.5435 0
M  V30 807 O 75.9573 1.90044 -5.7111 0
M  V30 808 H 79.7833 -0.0448345 -3.03667 0
M  V30 809 H 77.3683 -0.0877418 -1.49142 0
M  V30 810 H 79.2503 2.3663 -3.48689 0
M  V30 811 H 77.9253 2.28395 -2.29385 0
M  V30 812 H 76.8323 0.452436 -3.71354 0
M  V30 813 H 78.1653 0.614805 -4.88345 0
M  V30 814 N 79.8174 1.5752 -0.0501392 0
M  V30 815 C 81.2284 1.80271 0.485705 0
M  V30 816 C 81.5794 0.96228 1.70981 0
M  V30 817 O 80.7044 0.178578 2.15662 0
M  V30 818 C 81.2994 3.26957 0.887938 0
M  V30 819 C 79.8584 3.5063 1.36877 0
M  V30 820 C 79.0054 2.75165 0.343468 0
M  V30 821 H 81.9564 1.56281 -0.276028 0
M  V30 822 H 81.9774 3.37821 1.75093 0
M  V30 823 H 81.4894 3.881 -0.0031809 0
M  V30 824 H 79.5904 2.94766 2.27911 0
M  V30 825 H 79.7034 4.59343 1.36164 0
M  V30 826 H 78.0674 2.4127 0.816128 0
M  V30 827 H 78.8504 3.39034 -0.539548 0
M  V30 828 N 81.2955 -0.223234 1.56011 0
M  V30 829 C 82.5445 -0.945912 1.78144 0
M  V30 830 C 82.8575 -1.85567 0.618396 0
M  V30 831 O 84.0635 -2.61688 0.723318 0
M  V30 832 C 82.5195 -1.73216 3.15475 0
M  V30 833 C 82.1275 -0.868619 4.39499 0
M  V30 834 C 83.8715 -2.44615 3.46935 0
M  V30 835 C 81.7785 -1.65212 5.67855 0
M  V30 836 H 80.7085 -0.356929 0.664167 0
M  V30 837 H 83.3595 -0.199845 1.82409 0
M  V30 838 H 81.7415 -2.52107 3.05382 0
M  V30 839 H 82.9155 -0.120366 4.60643 0
M  V30 840 H 81.2305 -0.26683 4.15544 0
M  V30 841 H 83.8275 -3.03732 4.40058 0
M  V30 842 H 84.1705 -3.17417 2.69355 0
M  V30 843 H 84.7035 -1.72715 3.58349 0
M  V30 844 H 81.4425 -0.967407 6.48322 0
M  V30 845 H 80.9625 -2.37503 5.50774 0
M  V30 846 H 82.6415 -2.21322 6.07968 0
M  V30 847 N 82.7736 -1.49793 -0.48987 0
M  V30 848 C 84.1896 -1.36803 -0.822022 0
M  V30 849 C 84.3896 -0.409652 -1.97292 0
M  V30 850 O 83.4456 0.154614 -2.52026 0
M  V30 851 C 84.7586 -2.77768 -1.15175 0
M  V30 852 C 86.3066 -2.86549 -1.25931 0
M  V30 853 C 86.7816 -4.28306 -1.62228 0
M  V30 854 N 88.2726 -4.31169 -1.69256 0
M  V30 855 C 89.0076 -5.37832 -1.98807 0
M  V30 856 N 88.5036 -6.54726 -2.26507 0
M  V30 857 N 90.2966 -5.25258 -2.00152 0
M  V30 858 H 82.4476 -2.10691 0.268881 0
M  V30 859 H 84.7106 -0.946241 0.057728 0
M  V30 860 H 84.4166 -3.49648 -0.379335 0
M  V30 861 H 84.2906 -3.13836 -2.09253 0
M  V30 862 H 86.6776 -2.14899 -2.02243 0
M  V30 863 H 86.7586 -2.54049 -0.298776 0
M  V30 864 H 86.4026 -5.00486 -0.864622 0
M  V30 865 H 86.3326 -4.58279 -2.594 0
M  V30 866 H 88.8236 -3.4687 -1.49965 0
M  V30 867 H 89.1366 -7.31833 -2.48276 0
M  V30 868 H 87.4816 -6.57933 -2.23939 0
M  V30 869 H 90.6726 -4.32938 -1.77996 0
M  V30 870 H 90.8456 -6.08476 -2.22848 0
M  V30 871 N 84.2517 0.741722 -1.39055 0
M  V30 872 C 85.1817 1.869 -1.39966 0
M  V30 873 C 86.1627 1.6804 -0.26392 0
M  V30 874 O 87.3477 1.88458 -0.468755 0
M  V30 875 C 84.4777 3.24572 -1.23574 0
M  V30 876 C 83.4317 3.58056 -2.34477 0
M  V30 877 C 82.7577 4.94593 -2.0318 0
M  V30 878 C 84.0577 3.61716 -3.76774 0
M  V30 879 H 85.7517 1.86395 -2.34302 0
M  V30 880 H 83.2977 0.895361 -1.1278 0
M  V30 881 H 85.2507 4.031 -1.22834 0
M  V30 882 H 83.9747 3.25587 -0.257045 0
M  V30 883 H 82.6337 2.81854 -2.34423 0
M  V30 884 H 82.2817 4.92181 -1.03765 0
M  V30 885 H 81.9817 5.17964 -2.77465 0
M  V30 886 H 83.5057 5.75486 -2.04079 0
M  V30 887 H 84.9197 4.30335 -3.78794 0
M  V30 888 H 83.3167 3.96603 -4.50362 0
M  V30 889 H 84.3867 2.61672 -4.08235 0
M  V30 890 N 85.7298 1.2412 0.971189 0
M  V30 891 C 87.1458 1.00584 1.23916 0
M  V30 892 C 87.3458 -0.287481 1.99439 0
M  V30 893 O 86.4018 -1.00454 2.31658 0
M  V30 894 C 87.7148 2.21864 2.0297 0
M  V30 895 C 89.2628 2.26452 2.16076 0
M  V30 896 C 89.7378 3.47343 2.98524 0
M  V30 897 N 91.2288 3.47639 3.06107 0
M  V30 898 C 91.9638 4.37837 3.70251 0
M  V30 899 N 91.4598 5.38286 4.36142 0
M  V30 900 N 93.2528 4.25558 3.67228 0
M  V30 901 H 85.4038 2.07236 0.465499 0
M  V30 902 H 87.6668 0.909236 0.268315 0
M  V30 903 H 87.3728 3.15771 1.54861 0
M  V30 904 H 87.2468 2.23698 3.03709 0
M  V30 905 H 89.6338 1.33078 2.6339 0
M  V30 906 H 89.7148 2.28645 1.14696 0
M  V30 907 H 89.3588 4.41029 2.51905 0
M  V30 908 H 89.2888 3.42393 4.00093 0
M  V30 909 H 91.7798 2.74966 2.59233 0
M  V30 910 H 92.0928 6.03352 4.82894 0
M  V30 911 H 90.4378 5.42176 4.34822 0
M  V30 912 H 93.6288 3.46322 3.14927 0
M  V30 913 H 93.8018 4.96054 4.16935 0
M  V30 914 N 87.2079 -1.17134 1.05439 0
M  V30 915 C 88.1559 -2.23289 0.651511 0
M  V30 916 C 89.1499 -1.66186 -0.328411 0
M  V30 917 O 90.3559 -1.78949 -0.194206 0
M  V30 918 H 86.7309 -0.726938 0.192523 0
M  V30 919 H 88.7019 -2.54565 1.55689 0
M  V30 920 C 87.4509 -3.47671 0.0448436 0
M  V30 921 H 86.7739 -3.91918 0.78996 0
M  V30 922 H 88.2139 -4.2353 -0.19964 0
M  V30 923 C 86.6729 -3.14453 -1.20918 0
M  V30 924 O 87.2029 -3.29459 -2.29825 0
M  V30 925 N 85.4089 -2.68657 -1.10779 0
M  V30 926 H 84.9559 -2.56646 -0.221526 0
M  V30 927 H 84.9139 -2.46804 -1.9477 0
M  V30 928 N 88.686 -0.835752 -1.33615 0
M  V30 929 C 90.102 -0.523139 -1.50783 0
M  V30 930 C 90.302 0.950171 -1.77691 0
M  V30 931 O 89.358 1.73411 -1.83534 0
M  V30 932 C 90.671 -1.39378 -2.66448 0
M  V30 933 C 92.219 -1.39223 -2.80332 0
M  V30 934 C 92.694 -2.24765 -3.99055 0
M  V30 935 N 94.185 -2.22458 -4.06284 0
M  V30 936 C 94.92 -2.85386 -4.97336 0
M  V30 937 N 94.416 -3.57354 -5.93523 0
M  V30 938 N 96.209 -2.74872 -4.90308 0
M  V30 939 H 88.36 -1.78952 -1.14411 0
M  V30 940 H 90.623 -0.763297 -0.562212 0
M  V30 941 H 90.329 -2.44061 -2.53234 0
M  V30 942 H 90.203 -1.0676 -3.61776 0
M  V30 943 H 92.59 -0.353136 -2.92979 0
M  V30 944 H 92.671 -1.75846 -1.85773 0
M  V30 945 H 92.315 -3.28732 -3.87167 0
M  V30 946 H 92.245 -1.85485 -4.92852 0
M  V30 947 H 94.736 -1.70119 -3.37443 0
M  V30 948 H 95.049 -4.02584 -6.59656 0
M  V30 949 H 93.394 -3.61461 -5.93608 0
M  V30 950 H 96.585 -2.18213 -4.14126 0
M  V30 951 H 96.758 -3.24199 -5.61069 0
M  V30 952 N 90.1641 1.46063 -0.591896 0
M  V30 953 C 91.3921 2.06717 -0.0868936 0
M  V30 954 C 91.8071 1.43916 1.22203 0
M  V30 955 O 91.1641 0.547698 1.74088 0
M  V30 956 C 91.2151 3.6142 0.0758725 0
M  V30 957 O 90.9361 4.21874 -1.18126 0
M  V30 958 C 92.4371 4.39025 0.61416 0
M  V30 959 H 89.6571 0.668162 -0.0616518 0
M  V30 960 H 92.2011 1.8755 -0.815175 0
M  V30 961 H 90.3561 3.79983 0.754413 0
M  V30 962 H 90.7701 5.14861 -1.00092 0
M  V30 963 H 92.2441 5.4783 0.677193 0
M  V30 964 H 92.7211 4.07708 1.63312 0
M  V30 965 H 93.3271 4.2529 -0.0298142 0
M  V30 966 N 91.6422 0.330177 1.54103 0
M  V30 967 C 92.8882 -0.263542 2.01685 0
M  V30 968 C 93.2432 -1.49258 1.21408 0
M  V30 969 O 92.5362 -1.89395 0.289852 0
M  V30 970 C 92.7302 -0.643134 3.51566 0
M  V30 971 C 92.5592 0.547571 4.46354 0
M  V30 972 C 91.3292 1.04873 4.94297 0
M  V30 973 C 93.5272 1.40184 4.94826 0
M  V30 974 N 91.5092 2.20316 5.73005 0
M  V30 975 C 92.8802 2.40335 5.71524 0
M  V30 976 C 94.9352 1.42884 4.76958 0
M  V30 977 C 93.6382 3.42998 6.32254 0
M  V30 978 C 95.6642 2.44421 5.38528 0
M  V30 979 C 95.0262 3.43298 6.15082 0
M  V30 980 H 91.1252 -0.0601026 0.779687 0
M  V30 981 H 93.7092 0.466714 1.89023 0
M  V30 982 H 91.8802 -1.34251 3.6446 0
M  V30 983 H 93.6122 -1.21889 3.85908 0
M  V30 984 H 90.3672 0.618956 4.69538 0
M  V30 985 H 90.7912 2.78565 6.17034 0
M  V30 986 H 95.4332 0.678049 4.17328 0
M  V30 987 H 93.1512 4.1898 6.91 0
M  V30 988 H 96.7372 2.4732 5.26616 0
M  V30 989 H 95.6172 4.20579 6.61878 0
M  V30 990 N 93.1203 -1.57491 0.0584922 0
M  V30 991 C 94.5313 -1.80526 -0.476138 0
M  V30 992 C 94.8823 -0.971334 -1.70469 0
M  V30 993 O 94.0073 -0.190012 -2.15564 0
M  V30 994 C 94.6023 -3.27424 -0.870587 0
M  V30 995 C 93.1613 -3.51351 -1.35015 0
M  V30 996 C 92.3083 -2.75343 -0.32887 0
M  V30 997 H 95.2593 -1.56133 0.284312 0
M  V30 998 H 95.2803 -3.38745 -1.73299 0
M  V30 999 H 94.7923 -3.88093 0.0237627 0
M  V30 1000 H 92.8933 -2.95971 -2.26345 0
M  V30 1001 H 93.0063 -4.60059 -1.33726 0
M  V30 1002 H 91.3703 -2.417 -0.803321 0
M  V30 1003 H 92.1533 -3.38743 0.557521 0
M  V30 1004 N 94.5984 0.214957 -1.56127 0
M  V30 1005 C 95.8754 0.963093 -1.70247 0
M  V30 1006 C 96.2554 2.02166 -0.60764 0
M  V30 1007 O 95.6034 2.25244 0.384385 0
M  V30 1008 C 95.8134 1.56756 -3.11815 0
M  V30 1009 C 97.1614 2.0573 -3.7143 0
M  V30 1010 O 98.1854 1.66637 -3.14818 0
M  V30 1011 O 97.0444 2.77603 -4.70743 0
M  V30 1012 H 94.1384 0.450321 -0.693643 0
M  V30 1013 H 96.6844 0.206219 -1.68442 0
M  V30 1014 H 95.4564 0.803533 -3.82961 0
M  V30 1015 H 95.0794 2.3898 -3.17765 0
M  V30 1016 N 96.0765 1.50051 0.48192 0
M  V30 1017 C 97.4925 1.37237 0.814756 0
M  V30 1018 C 97.6925 0.420109 1.97072 0
M  V30 1019 O 96.7485 -0.141246 2.52105 0
M  V30 1020 C 98.0615 2.78375 1.13701 0
M  V30 1021 C 99.6095 2.87213 1.2441 0
M  V30 1022 C 100.084 4.29161 1.59954 0
M  V30 1023 N 101.575 4.32061 1.66967 0
M  V30 1024 C 102.31 5.38879 1.95952 0
M  V30 1025 N 101.806 6.55918 2.23031 0
M  V30 1026 N 103.599 5.26312 1.97363 0
M  V30 1027 H 95.7505 2.10546 -0.28005 0
M  V30 1028 H 98.0135 0.945921 -0.0627454 0
M  V30 1029 H 97.7195 3.49845 0.360787 0
M  V30 1030 H 97.5935 3.14941 2.07586 0
M  V30 1031 H 99.9805 2.15969 2.01101 0
M  V30 1032 H 100.061 2.54204 0.285299 0
M  V30 1033 H 99.7055 5.00938 0.838067 0
M  V30 1034 H 99.6355 4.59648 2.56966 0
M  V30 1035 H 102.126 3.47661 1.48123 0
M  V30 1036 H 102.439 7.33139 2.44391 0
M  V30 1037 H 100.784 6.59112 2.20447 0
M  V30 1038 H 103.975 4.33876 1.75697 0
M  V30 1039 H 104.148 6.09649 2.19618 0
M  V30 1040 N 97.5546 -0.734337 1.39446 0
M  V30 1041 C 98.8006 -1.49613 1.36908 0
M  V30 1042 C 99.1336 -1.94169 -0.0347829 0
M  V30 1043 O 98.4086 -1.66833 -0.999847 0
M  V30 1044 C 98.6916 -2.73534 2.34203 0
M  V30 1045 C 98.5446 -2.34993 3.83534 0
M  V30 1046 C 99.8636 -3.75635 2.29317 0
M  V30 1047 H 96.9826 -0.542714 0.498629 0
M  V30 1048 H 99.6246 -0.839597 1.70443 0
M  V30 1049 H 97.7746 -3.29553 2.05736 0
M  V30 1050 H 99.4466 -1.84601 4.22753 0
M  V30 1051 H 97.6896 -1.67213 4.00278 0
M  V30 1052 H 98.3606 -3.23738 4.47099 0
M  V30 1053 H 100.837 -3.29203 2.54489 0
M  V30 1054 H 99.7126 -4.60008 2.99472 0
M  V30 1055 H 99.9736 -4.22603 1.29842 0
M  V30 1056 N 99.0327 -1.24633 -0.964593 0
M  V30 1057 C 100.282 -1.08188 -1.7023 0
M  V30 1058 C 100.595 0.37873 -1.91898 0
M  V30 1059 O 101.801 0.663427 -2.6327 0
M  V30 1060 C 100.257 -1.88773 -3.06419 0
M  V30 1061 C 99.8647 -3.39263 -2.92582 0
M  V30 1062 C 101.609 -1.80867 -3.84041 0
M  V30 1063 C 99.5157 -4.1218 -4.24101 0
M  V30 1064 H 98.4457 -0.401245 -0.638372 0
M  V30 1065 H 101.097 -1.48742 -1.07462 0
M  V30 1066 H 99.4787 -1.41035 -3.70034 0
M  V30 1067 H 100.653 -3.94603 -2.37961 0
M  V30 1068 H 98.9677 -3.48154 -2.28424 0
M  V30 1069 H 101.565 -2.32646 -4.81435 0
M  V30 1070 H 101.908 -0.774543 -4.09031 0
M  V30 1071 H 102.441 -2.26301 -3.27159 0
M  V30 1072 H 99.1797 -5.15965 -4.04303 0
M  V30 1073 H 98.6997 -3.61626 -4.78526 0
M  V30 1074 H 100.379 -4.19349 -4.92702 0
M  V30 1075 N 100.511 1.16574 -1.06058 0
M  V30 1076 C 101.788 1.83048 -0.689416 0
M  V30 1077 C 102.168 1.94122 0.829443 0
M  V30 1078 O 101.516 1.48249 1.7388 0
M  V30 1079 C 101.726 3.20186 -1.38859 0
M  V30 1080 C 103.074 3.95989 -1.53226 0
M  V30 1081 O 104.098 3.29696 -1.3483 0
M  V30 1082 O 102.957 5.14813 -1.83384 0
M  V30 1083 H 100.051 0.790258 -0.243764 0
M  V30 1084 H 102.597 1.23797 -1.16071 0
M  V30 1085 H 101.369 3.07146 -2.4244 0
M  V30 1086 H 100.992 3.87112 -0.907216 0
M  V30 1087 N 101.989 0.842826 1.3317 0
M  V30 1088 C 103.405 0.531128 1.50503 0
M  V30 1089 C 103.605 -0.940734 1.78192 0
M  V30 1090 O 102.661 -1.72436 1.84451 0
M  V30 1091 C 103.974 1.40789 2.65705 0
M  V30 1092 C 105.522 1.40708 2.79589 0
M  V30 1093 C 105.997 2.26878 3.97857 0
M  V30 1094 N 107.488 2.24609 4.05099 0
M  V30 1095 C 108.223 2.88019 4.95815 0
M  V30 1096 N 107.719 3.60496 5.9162 0
M  V30 1097 N 109.512 2.77469 4.88843 0
M  V30 1098 H 101.663 1.79557 1.1346 0
M  V30 1099 H 103.926 0.766267 0.558156 0
M  V30 1100 H 103.632 2.454 2.51936 0
M  V30 1101 H 103.506 1.08677 3.61205 0
M  V30 1102 H 105.893 0.368668 2.92788 0
M  V30 1103 H 105.974 1.76829 1.84838 0
M  V30 1104 H 105.618 3.3078 3.85418 0
M  V30 1105 H 105.548 1.88096 4.91861 0
M  V30 1106 H 108.039 1.71906 3.36536 0
M  V30 1107 H 108.352 4.06076 6.57512 0
M  V30 1108 H 106.697 3.64604 5.91683 0
M  V30 1109 H 109.888 2.20406 4.12963 0
M  V30 1110 H 110.061 3.2717 5.59342 0
M  V30 1111 N 103.467 -1.45747 0.599634 0
M  V30 1112 C 104.43 -2.28917 -0.113835 0
M  V30 1113 C 105.43 -1.3933 -0.802729 0
M  V30 1114 O 106.62 -1.61534 -0.652103 0
M  V30 1115 C 103.752 -3.20152 -1.17114 0
M  V30 1116 H 104.945 -2.93478 0.617289 0
M  V30 1117 H 102.498 -1.52137 0.358327 0
M  V30 1118 H 103.233 -2.60374 -1.93329 0
M  V30 1119 H 103.018 -3.86133 -0.681468 0
M  V30 1120 H 104.508 -3.82708 -1.67105 0
M  V30 1121 N 104.945 -0.338344 -1.53925 0
M  V30 1122 C 106.356 0.146651 -1.86123 0
M  V30 1123 C 106.707 1.5042 -1.2597 0
M  V30 1124 O 105.832 2.08723 -0.571294 0
M  V30 1125 C 106.427 0.272879 -3.37699 0
M  V30 1126 C 104.986 0.702103 -3.69794 0
M  V30 1127 C 104.133 -0.167304 -2.76795 0
M  V30 1128 H 107.084 -0.558123 -1.48562 0
M  V30 1129 H 107.105 1.10128 -3.64214 0
M  V30 1130 H 106.617 -0.715307 -3.81451 0
M  V30 1131 H 104.718 1.6995 -3.31584 0
M  V30 1132 H 104.831 0.495604 -4.7653 0
M  V30 1133 H 103.195 0.359527 -2.5215 0
M  V30 1134 H 103.978 -1.15253 -3.23375 0
M  V30 1135 N 106.423 1.57458 -0.0668435 0
M  V30 1136 C 107.353 2.15468 0.899764 0
M  V30 1137 C 108.334 1.08042 1.31381 0
M  V30 1138 O 109.519 1.36054 1.38574 0
M  V30 1139 C 106.649 2.71232 2.16911 0
M  V30 1140 C 105.603 3.83781 1.89463 0
M  V30 1141 C 104.929 4.26127 3.22986 0
M  V30 1142 C 106.229 5.08238 1.20381 0
M  V30 1143 H 107.923 2.96488 0.416529 0
M  V30 1144 H 105.469 1.4262 0.198908 0
M  V30 1145 H 107.422 3.10458 2.84945 0
M  V30 1146 H 106.146 1.87426 2.67468 0
M  V30 1147 H 104.805 3.45051 1.23836 0
M  V30 1148 H 104.453 3.39249 3.71374 0
M  V30 1149 H 104.153 5.01993 3.05413 0
M  V30 1150 H 105.677 4.67966 3.92225 0
M  V30 1151 H 107.091 5.44811 1.78475 0
M  V30 1152 H 105.488 5.89349 1.13083 0
M  V30 1153 H 106.558 4.84558 0.182153 0
M  V30 1154 N 107.901 -0.206675 1.56239 0
M  V30 1155 C 109.147 -0.925733 1.81113 0
M  V30 1156 C 109.502 -1.81368 0.642135 0
M  V30 1157 O 108.795 -1.88126 -0.363211 0
M  V30 1158 C 108.989 -1.78675 3.09532 0
M  V30 1159 C 108.818 -0.98365 4.3881 0
M  V30 1160 C 107.588 -0.672661 5.00803 0
M  V30 1161 C 109.786 -0.341847 5.13163 0
M  V30 1162 N 107.768 0.150283 6.13716 0
M  V30 1163 C 109.139 0.343815 6.19046 0
M  V30 1164 C 111.194 -0.256392 4.97239 0
M  V30 1165 C 109.897 1.10678 7.10734 0
M  V30 1166 C 111.923 0.493142 5.8934 0
M  V30 1167 C 111.285 1.16729 6.94661 0
M  V30 1168 H 107.384 -0.318524 0.714189 0
M  V30 1169 H 109.968 -0.195378 1.93717 0
M  V30 1170 H 108.139 -2.4888 2.98183 0
M  V30 1171 H 109.871 -2.44441 3.22538 0
M  V30 1172 H 106.626 -0.994294 4.63045 0
M  V30 1173 H 107.05 0.551026 6.74754 0
M  V30 1174 H 111.692 -0.763249 4.15854 0
M  V30 1175 H 109.41 1.6251 7.91591 0
M  V30 1176 H 112.996 0.560465 5.79094 0
M  V30 1177 H 111.876 1.738 7.64698 0
M  V30 1178 N 109.379 -1.50304 -0.473955 0
M  V30 1179 C 110.619 -1.62786 -1.23612 0
M  V30 1180 C 110.983 -0.319786 -1.89318 0
M  V30 1181 O 112.184 -0.320012 -2.66888 0
M  V30 1182 C 110.455 -2.77351 -2.25414 0
M  V30 1183 S 112.014 -3.09948 -3.10608 0
M  V30 1184 H 108.832 -0.573895 -0.419721 0
M  V30 1185 H 111.434 -1.88076 -0.533623 0
M  V30 1186 H 110.138 -3.70879 -1.75719 0
M  V30 1187 H 109.669 -2.54137 -3.00296 0
M  V30 1188 H 111.684 -2.53553 -4.26527 0
M  V30 1189 N 110.857 0.726932 -1.39834 0
M  V30 1190 C 111.82 1.82269 -1.38962 0
M  V30 1191 C 112.82 1.58248 -0.285334 0
M  V30 1192 O 114.01 1.65499 -0.54366 0
M  V30 1193 C 111.142 3.20186 -1.17019 0
M  V30 1194 H 112.335 1.84443 -2.36476 0
M  V30 1195 H 109.888 0.931416 -1.25516 0
M  V30 1196 H 110.623 3.23669 -0.202204 0
M  V30 1197 H 110.408 3.3902 -1.96998 0
M  V30 1198 H 111.898 4.00235 -1.1917 0
M  V30 1199 N 112.336 1.25143 0.95797 0
M  V30 1200 C 113.582 1.09855 1.70469 0
M  V30 1201 C 113.915 -0.360187 1.90831 0
M  V30 1202 O 113.19 -1.26568 1.47685 0
M  V30 1203 C 113.473 1.8497 3.08963 0
M  V30 1204 C 113.326 3.38652 2.96032 0
M  V30 1205 C 114.645 1.63016 4.08795 0
M  V30 1206 H 111.764 0.400465 0.618706 0
M  V30 1207 H 114.406 1.53933 1.11376 0
M  V30 1208 H 112.556 1.47505 3.59409 0
M  V30 1209 H 114.228 3.85772 2.52938 0
M  V30 1210 H 112.471 3.66534 2.32025 0
M  V30 1211 H 113.142 3.8642 3.94187 0
M  V30 1212 H 115.618 1.95625 3.67247 0
M  V30 1213 H 114.494 2.18015 5.03747 0
M  V30 1214 H 114.755 0.570692 4.38401 0
M  V30 1215 N 113.814 -1.1601 1.06675 0
M  V30 1216 C 115.091 -1.82679 0.699114 0
M  V30 1217 C 115.471 -1.94559 -0.819137 0
M  V30 1218 O 114.819 -1.49169 -1.73092 0
M  V30 1219 C 115.029 -3.19445 1.40555 0
M  V30 1220 C 116.377 -3.95171 1.55323 0
M  V30 1221 O 117.401 -3.28976 1.36577 0
M  V30 1222 O 116.26 -5.13833 1.86112 0
M  V30 1223 H 113.354 -0.788954 0.247951 0
M  V30 1224 H 115.9 -1.23179 1.16726 0
M  V30 1225 H 114.672 -3.05856 2.44065 0
M  V30 1226 H 114.295 -3.86625 0.927733 0
M  V30 1227 N 115.292 -0.849877 -1.32721 0
M  V30 1228 C 116.222 -0.306308 -2.31482 0
M  V30 1229 C 117.203 0.591952 -1.59468 0
M  V30 1230 O 118.388 0.513199 -1.87296 0
M  V30 1231 C 115.518 0.510204 -3.43532 0
M  V30 1232 C 114.472 -0.293209 -4.26994 0
M  V30 1233 C 113.798 0.647743 -5.30762 0
M  V30 1234 C 115.098 -1.51634 -4.99804 0
M  V30 1235 H 116.792 -1.13153 -2.77195 0
M  V30 1236 H 114.338 -0.545553 -1.33266 0
M  V30 1237 H 116.291 0.900856 -4.11658 0
M  V30 1238 H 115.015 1.36874 -2.96535 0
M  V30 1239 H 113.674 -0.665555 -3.60508 0
M  V30 1240 H 113.322 1.50299 -4.8002 0
M  V30 1241 H 113.022 0.11422 -5.87489 0
M  V30 1242 H 114.546 1.03567 -6.01753 0
M  V30 1243 H 115.96 -1.19824 -5.60638 0
M  V30 1244 H 114.357 -1.98745 -5.66234 0
M  V30 1245 H 115.427 -2.28018 -4.27943 0
M  V30 1246 N 116.77 1.45427 -0.607355 0
M  V30 1247 C 118.186 1.57283 -0.270985 0
M  V30 1248 C 118.386 1.59875 1.22647 0
M  V30 1249 O 117.442 1.52893 2.00948 0
M  V30 1250 C 118.755 2.85566 -0.941952 0
M  V30 1251 C 120.303 2.9924 -0.917849 0
M  V30 1252 C 120.778 4.30293 -1.56882 0
M  V30 1253 N 122.269 4.37051 -1.5343 0
M  V30 1254 C 123.004 5.37123 -2.00715 0
M  V30 1255 N 122.5 6.43734 -2.56084 0
M  V30 1256 N 124.293 5.28479 -1.91484 0
M  V30 1257 H 116.444 1.41988 -1.57966 0
M  V30 1258 H 118.707 0.67885 -0.661715 0
M  V30 1259 H 118.413 2.8955 -1.99633 0
M  V30 1260 H 118.287 3.74322 -0.465096 0
M  V30 1261 H 120.674 2.94822 0.127984 0
M  V30 1262 H 120.755 2.11895 -1.43297 0
M  V30 1263 H 120.399 4.35469 -2.61398 0
M  V30 1264 H 120.329 5.16454 -1.02873 0
M  V30 1265 H 122.82 3.60615 -1.12982 0
M  V30 1266 H 123.133 7.16341 -2.89958 0
M  V30 1267 H 121.478 6.44485 -2.60122 0
M  V30 1268 H 124.669 4.44098 -1.47967 0
M  V30 1269 H 124.842 6.0632 -2.28648 0
M  V30 1270 N 118.248 0.346503 1.53744 0
M  V30 1271 C 119.525 -0.304532 1.93215 0
M  V30 1272 C 119.905 -1.67993 1.27834 0
M  V30 1273 O 119.253 -2.24411 0.430352 0
M  V30 1274 C 119.463 -0.373852 3.46992 0
M  V30 1275 C 120.811 -0.62329 4.2 0
M  V30 1276 O 121.835 -0.455847 3.53271 0
M  V30 1277 O 120.694 -0.947879 5.38217 0
M  V30 1278 H 117.788 -0.178318 0.807547 0
M  V30 1279 H 120.334 0.397895 1.64969 0
M  V30 1280 H 119.106 0.591224 3.86808 0
M  V30 1281 H 118.729 -1.12294 3.81413 0
M  V30 1282 N 119.726 -1.57421 0.075193 0
M  V30 1283 C 120.974 -1.93236 -0.591974 0
M  V30 1284 C 121.295 -0.956241 -1.69944 0
M  V30 1285 O 120.565 -0.00494792 -1.95899 0
M  V30 1286 H 119.145 -0.713355 -0.22166 0
M  V30 1287 H 121.807 -1.9444 0.133848 0
M  V30 1288 H 120.903 -2.95131 -1.01509 0
M  V30 1289 N 121.204 0.198386 -1.56346 0
M  V30 1290 C 122.152 1.26538 -1.95169 0
M  V30 1291 C 123.146 1.47295 -0.836685 0
M  V30 1292 O 124.352 1.48195 -1.02167 0
M  V30 1293 H 120.727 0.424744 -0.620561 0
M  V30 1294 H 122.698 0.910904 -2.84157 0
M  V30 1295 C 121.447 2.6035 -2.30463 0
M  V30 1296 H 120.77 2.45192 -3.15786 0
M  V30 1297 H 122.21 3.33762 -2.61494 0
M  V30 1298 C 120.669 3.17096 -1.13806 0
M  V30 1299 O 121.199 3.99588 -0.41135 0
M  V30 1300 N 119.405 2.75795 -0.915736 0
M  V30 1301 H 118.952 2.08816 -1.50843 0
M  V30 1302 H 118.91 3.14101 -0.136979 0
M  V30 1303 N 122.682 1.50554 0.465978 0
M  V30 1304 C 123.614 1.65949 1.58093 0
M  V30 1305 C 124.627 0.540827 1.53554 0
M  V30 1306 O 125.816 0.814187 1.5885 0
M  V30 1307 C 122.916 1.63261 2.96983 0
M  V30 1308 C 122.089 2.91245 3.26336 0
M  V30 1309 C 121.148 2.8113 4.44806 0
M  V30 1310 O 120.174 3.55086 4.44862 0
M  V30 1311 N 121.376 1.95032 5.46756 0
M  V30 1312 H 124.141 2.62122 1.45301 0
M  V30 1313 H 121.702 1.48082 0.65448 0
M  V30 1314 H 123.694 1.54101 3.74212 0
M  V30 1315 H 122.264 0.748032 3.03518 0
M  V30 1316 H 121.484 3.14493 2.37672 0
M  V30 1317 H 122.772 3.76022 3.42761 0
M  V30 1318 H 122.17 1.3427 5.49534 0
M  V30 1319 H 120.727 1.91772 6.2295 0
M  V30 1320 N 124.16 -0.719506 1.40217 0
M  V30 1321 C 125.123 -1.8153 1.39927 0
M  V30 1322 C 126.123 -1.58095 0.293723 0
M  V30 1323 O 127.313 -1.65209 0.552429 0
M  V30 1324 C 124.445 -3.19561 1.18716 0
M  V30 1325 H 125.638 -1.83186 2.37451 0
M  V30 1326 H 123.191 -0.924746 1.26008 0
M  V30 1327 H 123.926 -3.23557 0.219366 0
M  V30 1328 H 123.711 -3.3797 1.98793 0
M  V30 1329 H 125.201 -3.99598 1.21291 0
M  V30 1330 N 125.638 -1.25649 -0.95132 0
M  V30 1331 C 126.568 -1.08808 -2.06599 0
M  V30 1332 C 127.549 0.00382547 -1.701 0
M  V30 1333 O 128.734 -0.166325 -1.93486 0
M  V30 1334 C 125.864 -0.709542 -3.39975 0
M  V30 1335 C 124.818 -1.75206 -3.90496 0
M  V30 1336 C 124.144 -1.22811 -5.20405 0
M  V30 1337 C 125.444 -3.15153 -4.16504 0
M  V30 1338 H 127.138 -2.02048 -2.20946 0
M  V30 1339 H 124.684 -0.972835 -1.06169 0
M  V30 1340 H 126.637 -0.578649 -4.17408 0
M  V30 1341 H 125.361 0.258556 -3.25575 0
M  V30 1342 H 124.02 -1.87145 -3.15234 0
M  V30 1343 H 123.668 -0.250145 -5.02378 0
M  V30 1344 H 123.368 -1.92492 -5.55176 0
M  V30 1345 H 124.892 -1.10968 -6.00432 0
M  V30 1346 H 126.306 -3.06349 -4.84586 0
M  V30 1347 H 124.703 -3.82333 -4.62538 0
M  V30 1348 H 125.773 -3.61966 -3.22658 0
M  V30 1349 N 127.117 1.15442 -1.07289 0
M  V30 1350 C 128.366 1.85557 -0.790669 0
M  V30 1351 C 128.679 1.83186 0.685739 0
M  V30 1352 O 129.885 2.48977 1.0827 0
M  V30 1353 C 128.341 3.33038 -1.36433 0
M  V30 1354 C 127.949 3.43856 -2.8717 0
M  V30 1355 C 129.693 4.0834 -1.1601 0
M  V30 1356 C 127.6 4.85482 -3.3773 0
M  V30 1357 H 126.53 0.695122 -0.292098 0
M  V30 1358 H 129.181 1.30219 -1.29287 0
M  V30 1359 H 127.563 3.88043 -0.789864 0
M  V30 1360 H 128.737 2.98961 -3.50655 0
M  V30 1361 H 127.052 2.81998 -3.06376 0
M  V30 1362 H 129.649 5.12859 -1.51262 0
M  V30 1363 H 129.992 4.16182 -0.0991007 0
M  V30 1364 H 130.525 3.59603 -1.70089 0
M  V30 1365 H 127.264 4.82823 -4.43353 0
M  V30 1366 H 126.784 5.30961 -2.78999 0
M  V30 1367 H 128.463 5.54335 -3.33648 0
M  V30 1368 N 128.595 0.856903 1.32268 0
M  V30 1369 C 129.872 0.382583 1.91822 0
M  V30 1370 C 130.252 -1.13407 1.78051 0
M  V30 1371 O 129.6 -1.95673 1.18001 0
M  V30 1372 C 129.81 0.849446 3.38505 0
M  V30 1373 C 131.158 0.867936 4.15634 0
M  V30 1374 O 132.182 0.794232 3.47232 0
M  V30 1375 O 131.041 0.972286 5.37781 0
M  V30 1376 H 128.135 0.112014 0.819379 0
M  V30 1377 H 130.681 0.943952 1.41024 0
M  V30 1378 H 129.453 1.89267 3.42482 0
M  V30 1379 H 129.076 0.265652 3.96712 0
M  V30 1380 N 130.073 -1.45103 0.615059 0
M  V30 1381 C 131.484 -1.85654 0.197383 0
M  V30 1382 C 131.835 -1.51433 -1.24749 0
M  V30 1383 O 130.96 -0.944608 -1.94695 0
M  V30 1384 C 131.555 -3.36972 0.351448 0
M  V30 1385 C 130.114 -3.76398 -0.011593 0
M  V30 1386 C 129.261 -2.69024 0.672394 0
M  V30 1387 H 132.212 -1.35797 0.821263 0
M  V30 1388 H 132.233 -3.78239 -0.414227 0
M  V30 1389 H 131.745 -3.61847 1.40314 0
M  V30 1390 H 129.846 -3.5714 -1.06217 0
M  V30 1391 H 129.959 -4.77532 0.387265 0
M  V30 1392 H 128.323 -2.54465 0.109284 0
M  V30 1393 H 129.106 -2.96735 1.72636 0
M  V30 1394 N 131.551 -0.354651 -1.53558 0
M  V30 1395 C 132.484 0.540273 -2.21712 0
M  V30 1396 C 133.462 1.09161 -1.2051 0
M  V30 1397 O 134.646 1.14979 -1.49372 0
M  V30 1398 C 131.773 1.74435 -2.90328 0
M  V30 1399 C 130.819 1.32146 -4.05512 0
M  V30 1400 S 131.652 0.331924 -5.3447 0
M  V30 1401 C 132.808 1.54258 -6.06593 0
M  V30 1402 H 133.041 -0.0385776 -2.97275 0
M  V30 1403 H 130.574 -0.138736 -1.53775 0
M  V30 1404 H 132.532 2.43507 -3.30476 0
M  V30 1405 H 131.193 2.29444 -2.1451 0
M  V30 1406 H 130.386 2.21952 -4.52497 0
M  V30 1407 H 129.988 0.710091 -3.67197 0
M  V30 1408 H 132.28 2.47534 -6.30661 0
M  V30 1409 H 133.223 1.11431 -6.99277 0
M  V30 1410 H 133.631 1.74367 -5.36895 0
M  V30 1411 N 133.029 1.57378 -0.0835403 0
M  V30 1412 C 134.254 1.98682 0.594987 0
M  V30 1413 C 134.679 0.961969 1.61641 0
M  V30 1414 O 134.037 -0.0709989 1.81161 0
M  V30 1415 C 134.085 3.38988 1.2296 0
M  V30 1416 O 133.189 3.39208 2.34546 0
M  V30 1417 H 132.53 0.646368 0.152002 0
M  V30 1418 H 135.06 2.03961 -0.161533 0
M  V30 1419 H 135.07 3.76431 1.57366 0
M  V30 1420 H 133.745 4.13107 0.481228 0
M  V30 1421 H 132.322 3.13548 2.01846 0
M  V30 1422 N 134.507 -0.190092 1.56449 0
M  V30 1423 C 135.918 -0.754312 1.70784 0
M  V30 1424 C 136.269 -1.83631 0.690951 0
M  V30 1425 O 135.394 -2.15868 -0.151604 0
M  V30 1426 C 135.989 -1.37503 3.09642 0
M  V30 1427 C 134.548 -1.88628 3.25725 0
M  V30 1428 C 133.695 -0.758098 2.66736 0
M  V30 1429 H 136.646 0.0350524 1.58661 0
M  V30 1430 H 136.667 -2.2445 3.0725 0
M  V30 1431 H 136.179 -0.587302 3.83631 0
M  V30 1432 H 134.28 -2.70103 2.56661 0
M  V30 1433 H 134.393 -2.04462 4.3328 0
M  V30 1434 H 132.757 -1.17369 2.26046 0
M  V30 1435 H 133.54 0.0174705 3.43296 0
M  V30 1436 N 135.985 -1.50799 -0.457987 0
M  V30 1437 C 136.948 -1.7005 -1.53674 0
M  V30 1438 C 137.948 -0.570881 -1.50325 0
M  V30 1439 O 139.138 -0.838126 -1.52712 0
M  V30 1440 C 136.27 -1.73788 -2.93276 0
M  V30 1441 H 137.463 -2.66306 -1.37917 0
M  V30 1442 H 135.016 -1.40477 -0.685271 0
M  V30 1443 H 135.751 -0.792717 -3.14462 0
M  V30 1444 H 135.536 -2.55864 -2.97113 0
M  V30 1445 H 137.026 -1.90591 -3.71571 0
M  V30 1446 N 137.463 0.71206 -1.40597 0
M  V30 1447 C 138.879 1.02058 -1.22704 0
M  V30 1448 C 139.079 2.01228 -0.104729 0
M  V30 1449 O 138.135 2.4674 0.53624 0
M  V30 1450 C 139.448 1.56094 -2.57012 0
M  V30 1451 C 140.996 1.6806 -2.64054 0
M  V30 1452 C 141.471 2.25501 -3.9864 0
M  V30 1453 N 142.962 2.32882 -4.004 0
M  V30 1454 C 143.697 2.78317 -5.01325 0
M  V30 1455 N 143.193 3.23478 -6.12645 0
M  V30 1456 N 144.986 2.77733 -4.88693 0
M  V30 1457 H 137.137 0.0547896 -2.12329 0
M  V30 1458 H 139.4 0.0869027 -0.944008 0
M  V30 1459 H 139.106 0.906865 -3.39807 0
M  V30 1460 H 138.98 2.54564 -2.78347 0
M  V30 1461 H 141.367 2.32583 -1.81629 0
M  V30 1462 H 141.448 0.681802 -2.46546 0
M  V30 1463 H 141.092 1.61598 -4.81506 0
M  V30 1464 H 141.022 3.26102 -4.13479 0
M  V30 1465 H 143.513 2.00991 -3.20017 0
M  V30 1466 H 143.826 3.56725 -6.85542 0
M  V30 1467 H 142.171 3.21429 -6.16205 0
M  V30 1468 H 145.362 2.4179 -4.00818 0
M  V30 1469 H 145.535 3.12826 -5.67489 0
M  V30 1470 N 138.941 1.26152 0.944643 0
M  V30 1471 C 139.888 1.07408 2.04285 0
M  V30 1472 C 140.858 -0.0198413 1.66088 0
M  V30 1473 O 142.043 0.139264 1.90291 0
M  V30 1474 C 139.183 0.70945 3.37729 0
M  V30 1475 C 138.296 1.87926 3.88983 0
M  V30 1476 C 137.431 1.45807 5.10797 0
M  V30 1477 C 136.47 2.5964 5.54305 0
M  V30 1478 N 135.607 2.18226 6.67324 0
M  V30 1479 H 140.447 2.01389 2.1965 0
M  V30 1480 H 137.984 1.00275 1.07626 0
M  V30 1481 H 139.942 0.478948 4.14442 0
M  V30 1482 H 138.572 -0.193389 3.2222 0
M  V30 1483 H 137.624 2.22279 3.08701 0
M  V30 1484 H 138.936 2.73377 4.17213 0
M  V30 1485 H 138.09 1.18781 5.94959 0
M  V30 1486 H 136.829 0.574414 4.84305 0
M  V30 1487 H 135.834 2.87399 4.68702 0
M  V30 1488 H 137.059 3.48599 5.828 0
M  V30 1489 H 135.005 1.3229 6.42523 0
M  V30 1490 H 134.922 2.97221 6.95123 0
M  V30 1491 H 136.19 1.94403 7.54869 0
M  V30 1492 N 140.419 -1.14872 1.07899 0
M  V30 1493 C 141.835 -1.37776 0.805606 0
M  V30 1494 C 142.035 -1.92743 -0.587555 0
M  V30 1495 O 141.091 -2.13678 -1.34528 0
M  V30 1496 C 142.404 -2.34361 1.88402 0
M  V30 1497 C 143.952 -2.48012 1.90942 0
M  V30 1498 C 144.427 -3.47893 2.97883 0
M  V30 1499 N 145.918 -3.55433 2.97021 0
M  V30 1500 C 146.653 -4.32553 3.76412 0
M  V30 1501 N 146.149 -5.12959 4.65666 0
M  V30 1502 N 147.942 -4.27697 3.64735 0
M  V30 1503 H 140.093 -0.775365 1.97742 0
M  V30 1504 H 142.356 -0.403521 0.857831 0
M  V30 1505 H 142.062 -2.01098 2.88535 0
M  V30 1506 H 141.936 -3.34206 1.74889 0
M  V30 1507 H 144.323 -2.8057 0.914579 0
M  V30 1508 H 144.404 -1.48147 2.08534 0
M  V30 1509 H 144.048 -3.16069 3.97571 0
M  V30 1510 H 143.978 -4.47527 2.77538 0
M  V30 1511 H 146.469 -2.98048 2.32326 0
M  V30 1512 H 146.782 -5.69065 5.22862 0
M  V30 1513 H 145.127 -5.12245 4.69712 0
M  V30 1514 H 148.318 -3.63949 2.94378 0
M  V30 1515 H 148.491 -4.8755 4.26848 0
M  V30 1516 N 141.898 -0.863906 -1.31812 0
M  V30 1517 C 143.314 -0.555004 -1.49639 0
M  V30 1518 C 143.514 0.912266 -1.79666 0
M  V30 1519 O 142.57 1.69479 -1.87171 0
M  V30 1520 C 143.883 -1.44998 -2.63431 0
M  V30 1521 C 145.431 -1.45138 -2.77316 0
M  V30 1522 C 145.906 -2.33179 -3.94197 0
M  V30 1523 N 147.397 -2.31025 -4.01474 0
M  V30 1524 C 148.132 -2.95871 -4.9117 0
M  V30 1525 N 147.628 -3.69863 -5.8581 0
M  V30 1526 N 149.421 -2.85211 -4.84367 0
M  V30 1527 H 141.572 -1.81339 -1.10589 0
M  V30 1528 H 143.835 -0.77505 -0.545895 0
M  V30 1529 H 143.541 -2.49377 -2.48 0
M  V30 1530 H 143.415 -1.14409 -3.59431 0
M  V30 1531 H 145.802 -0.415201 -2.92164 0
M  V30 1532 H 145.883 -1.79747 -1.82001 0
M  V30 1533 H 145.527 -3.3687 -3.80107 0
M  V30 1534 H 145.457 -1.95897 -4.88807 0
M  V30 1535 H 147.948 -1.77238 -3.33759 0
M  V30 1536 H 148.261 -4.16486 -6.50968 0
M  V30 1537 H 146.606 -3.73971 -5.85808 0
M  V30 1538 H 149.797 -2.26948 -4.09405 0
M  V30 1539 H 149.97 -3.36027 -5.54066 0
M  V30 1540 N 143.376 1.44774 -0.622745 0
M  V30 1541 C 144.309 2.27792 0.136329 0
M  V30 1542 C 145.287 1.38041 0.859264 0
M  V30 1543 O 146.471 1.67478 0.86506 0
M  V30 1544 C 143.598 3.16776 1.19878 0
M  V30 1545 C 142.644 4.22575 0.57731 0
M  V30 1546 S 143.477 5.31825 -0.626294 0
M  V30 1547 C 144.633 6.24377 0.436378 0
M  V30 1548 H 144.866 2.91824 -0.567967 0
M  V30 1549 H 142.399 1.48838 -0.410677 0
M  V30 1550 H 144.357 3.68596 1.80686 0
M  V30 1551 H 143.018 2.5198 1.87523 0
M  V30 1552 H 142.211 4.84818 1.37721 0
M  V30 1553 H 141.813 3.73974 0.0440439 0
M  V30 1554 H 144.105 6.64689 1.31128 0
M  V30 1555 H 145.048 7.07941 -0.150271 0
M  V30 1556 H 145.456 5.59381 0.758513 0
M  V30 1557 N 144.854 0.36279 1.53368 0
M  V30 1558 C 146.101 -0.227776 2.01215 0
M  V30 1559 C 146.429 -1.49003 1.25014 0
M  V30 1560 O 145.684 -1.92876 0.331236 0
M  V30 1561 C 145.983 -0.568417 3.52851 0
M  V30 1562 C 145.649 0.59918 4.46901 0
M  V30 1563 C 144.311 0.919559 4.72332 0
M  V30 1564 C 146.663 1.38156 5.02556 0
M  V30 1565 C 143.991 2.02434 5.5067 0
M  V30 1566 C 146.343 2.47674 5.821 0
M  V30 1567 C 145.007 2.8025 6.05819 0
M  V30 1568 H 144.277 -0.083349 0.736297 0
M  V30 1569 H 146.924 0.494677 1.85001 0
M  V30 1570 H 145.229 -1.37185 3.66998 0
M  V30 1571 H 146.926 -1.03756 3.87344 0
M  V30 1572 H 143.516 0.339437 4.27254 0
M  V30 1573 H 147.7 1.14729 4.82857 0
M  V30 1574 H 142.956 2.28075 5.67267 0
M  V30 1575 H 147.13 3.08716 6.24234 0
M  V30 1576 H 144.757 3.65979 6.66306 0
M  V30 1577 N 146.332 -1.57332 0.0918853 0
M  V30 1578 C 147.609 -1.85691 -0.614668 0
M  V30 1579 C 147.989 -0.988146 -1.86545 0
M  V30 1580 O 147.337 -0.0597055 -2.28422 0
M  V30 1581 C 147.547 -3.36294 -0.933126 0
M  V30 1582 C 148.895 -4.04275 -1.29796 0
M  V30 1583 O 149.919 -3.41157 -1.02424 0
M  V30 1584 O 148.778 -5.1564 -1.81047 0
M  V30 1585 H 145.872 -0.767802 -0.307261 0
M  V30 1586 H 148.418 -1.69244 0.12434 0
M  V30 1587 H 147.19 -3.91273 -0.0456404 0
M  V30 1588 H 146.813 -3.58076 -1.72822 0
M  V30 1589 N 147.81 0.181792 -1.56548 0
M  V30 1590 C 148.74 1.22765 -1.98623 0
M  V30 1591 C 149.721 1.46747 -0.860189 0
M  V30 1592 O 150.906 1.58259 -1.12551 0
M  V30 1593 C 148.036 2.56894 -2.33715 0
M  V30 1594 C 146.99 2.475 -3.49182 0
M  V30 1595 C 146.316 3.86023 -3.69986 0
M  V30 1596 C 147.616 1.98866 -4.82959 0
M  V30 1597 H 149.31 0.877942 -2.86239 0
M  V30 1598 H 146.856 0.42088 -1.37712 0
M  V30 1599 H 148.809 3.30253 -2.61746 0
M  V30 1600 H 147.533 2.93632 -1.42997 0
M  V30 1601 H 146.192 1.76596 -3.21262 0
M  V30 1602 H 145.84 4.20136 -2.76576 0
M  V30 1603 H 145.54 3.80609 -4.47672 0
M  V30 1604 H 147.064 4.60984 -4.00407 0
M  V30 1605 H 148.478 2.61992 -5.09934 0
M  V30 1606 H 146.875 2.04424 -5.64208 0
M  V30 1607 H 147.945 0.942465 -4.75653 0
M  V30 1608 N 149.288 1.51039 0.449983 0
M  V30 1609 C 150.218 1.74379 1.55288 0
M  V30 1610 C 151.199 0.593236 1.5942 0
M  V30 1611 O 152.384 0.834625 1.7535 0
M  V30 1612 C 149.514 1.85728 2.93466 0
M  V30 1613 C 148.468 3.01078 3.04197 0
M  V30 1614 C 147.794 2.97595 4.44231 0
M  V30 1615 C 149.094 4.41254 2.7945 0
M  V30 1616 H 150.788 2.66725 1.36008 0
M  V30 1617 H 148.334 1.2835 0.652864 0
M  V30 1618 H 150.287 2.0064 3.70569 0
M  V30 1619 H 149.011 0.900207 3.13949 0
M  V30 1620 H 147.67 2.85851 2.29531 0
M  V30 1621 H 147.318 1.99691 4.61663 0
M  V30 1622 H 147.018 3.75046 4.52343 0
M  V30 1623 H 148.542 3.14583 5.23326 0
M  V30 1624 H 149.956 4.56897 3.46292 0
M  V30 1625 H 148.353 5.20315 2.98985 0
M  V30 1626 H 149.423 4.52164 1.75144 0
M  V30 1627 N 150.766 -0.704594 1.40972 0
M  V30 1628 C 152.012 -1.46675 1.40051 0
M  V30 1629 C 152.345 -1.94199 0.00641102 0
M  V30 1630 O 151.62 -1.68916 -0.964235 0
M  V30 1631 C 151.903 -2.68505 2.39952 0
M  V30 1632 C 151.756 -2.26805 3.88432 0
M  V30 1633 C 153.075 -3.70686 2.37233 0
M  V30 1634 H 150.194 -0.532015 0.510028 0
M  V30 1635 H 152.836 -0.803255 1.72185 0
M  V30 1636 H 150.986 -3.25114 2.1268 0
M  V30 1637 H 152.658 -1.75592 4.26574 0
M  V30 1638 H 150.901 -1.58685 4.03734 0
M  V30 1639 H 151.572 -3.14181 4.53866 0
M  V30 1640 H 154.048 -3.23731 2.61415 0
M  V30 1641 H 152.924 -4.53553 3.09162 0
M  V30 1642 H 153.185 -4.19754 1.38777 0
M  V30 1643 N 152.244 -1.26651 -0.937939 0
M  V30 1644 C 153.66 -1.03834 -1.21205 0
M  V30 1645 C 153.86 0.234502 -2.00131 0
M  V30 1646 O 152.916 0.942767 -2.3424 0
M  V30 1647 C 154.229 -2.27167 -1.97017 0
M  V30 1648 C 155.777 -2.32101 -2.09996 0
M  V30 1649 C 156.252 -3.55136 -2.8921 0
M  V30 1650 N 157.743 -3.55632 -2.96783 0
M  V30 1651 C 158.478 -4.475 -3.58512 0
M  V30 1652 N 157.974 -5.4966 -4.21717 0
M  V30 1653 N 159.767 -4.35145 -3.55816 0
M  V30 1654 H 151.918 -2.08398 -0.410391 0
M  V30 1655 H 154.181 -0.916031 -0.244114 0
M  V30 1656 H 153.887 -3.19765 -1.46434 0
M  V30 1657 H 153.761 -2.31672 -2.97671 0
M  V30 1658 H 156.148 -1.40015 -2.59769 0
M  V30 1659 H 156.229 -2.31605 -1.08594 0
M  V30 1660 H 155.873 -4.47553 -2.40123 0
M  V30 1661 H 155.803 -3.5288 -3.90875 0
M  V30 1662 H 158.294 -2.81743 -2.51852 0
M  V30 1663 H 158.607 -6.15943 -4.66727 0
M  V30 1664 H 156.952 -5.53514 -4.20294 0
M  V30 1665 H 160.143 -3.5455 -3.05634 0
M  V30 1666 H 160.316 -5.06934 -4.03636 0
M  V30 1667 N 153.722 1.14298 -1.08507 0
M  V30 1668 C 154.655 2.18447 -0.660004 0
M  V30 1669 C 155.633 1.59242 0.328749 0
M  V30 1670 O 156.817 1.87062 0.232367 0
M  V30 1671 C 153.944 3.38688 0.0290807 0
M  V30 1672 C 152.99 4.1646 -0.919982 0
M  V30 1673 S 153.823 4.77334 -2.42718 0
M  V30 1674 C 154.979 6.00931 -1.75024 0
M  V30 1675 H 155.212 2.54166 -1.54231 0
M  V30 1676 H 152.745 1.25446 -0.900149 0
M  V30 1677 H 154.703 4.08342 0.420378 0
M  V30 1678 H 153.364 3.01289 0.887895 0
M  V30 1679 H 152.557 5.02529 -0.384751 0
M  V30 1680 H 152.159 3.52414 -1.25223 0
M  V30 1681 H 154.451 6.69017 -1.06877 0
M  V30 1682 H 155.394 6.59044 -2.58971 0
M  V30 1683 H 155.802 5.51089 -1.22317 0
M  V30 1684 N 155.201 0.870884 1.31352 0
M  V30 1685 C 156.449 0.48132 1.96285 0
M  V30 1686 C 156.77 -0.969813 1.69173 0
M  V30 1687 O 156.04 -1.67998 1.00764 0
M  V30 1688 H 154.62 0.175002 0.726212 0
M  V30 1689 H 157.282 1.11087 1.60143 0
M  V30 1690 H 156.378 0.639825 3.05471 0
M  V30 1691 N 156.679 -1.44442 0.630414 0
M  V30 1692 C 157.909 -2.06115 0.141465 0
M  V30 1693 C 158.317 -1.47179 -1.1889 0
M  V30 1694 O 157.66 -0.588873 -1.74006 0
M  V30 1695 C 157.722 -3.59467 -0.0484355 0
M  V30 1696 C 157.386 -4.40864 1.20366 0
M  V30 1697 C 158.383 -4.74391 2.12719 0
M  V30 1698 C 156.068 -4.8125 1.43887 0
M  V30 1699 C 158.062 -5.47186 3.26904 0
M  V30 1700 C 155.749 -5.53795 2.5837 0
M  V30 1701 C 156.747 -5.86682 3.49705 0
M  V30 1702 O 156.435 -6.57749 4.62191 0
M  V30 1703 H 156.167 -0.671648 0.0765792 0
M  V30 1704 H 158.721 -1.86312 0.864695 0
M  V30 1705 H 156.951 -3.77758 -0.826803 0
M  V30 1706 H 158.64 -4.02909 -0.491849 0
M  V30 1707 H 159.406 -4.43728 1.95781 0
M  V30 1708 H 155.285 -4.55073 0.736853 0
M  V30 1709 H 158.829 -5.72773 3.98217 0
M  V30 1710 H 154.726 -5.83872 2.75251 0
M  V30 1711 H 155.494 -6.76217 4.61164 0
M  V30 1712 N 158.157 -0.370918 -1.53173 0
M  V30 1713 C 159.104 0.473035 -2.259 0
M  V30 1714 C 160.074 1.07311 -1.26781 0
M  V30 1715 O 161.259 1.1046 -1.55574 0
M  V30 1716 C 158.399 1.60405 -3.05556 0
M  V30 1717 C 157.512 1.02863 -4.19575 0
M  V30 1718 C 156.647 2.12918 -4.86661 0
M  V30 1719 C 155.686 1.52869 -5.92704 0
M  V30 1720 N 154.823 2.56779 -6.53459 0
M  V30 1721 H 159.663 -0.153649 -2.97604 0
M  V30 1722 H 157.2 -0.0875946 -1.46839 0
M  V30 1723 H 159.158 2.27034 -3.50016 0
M  V30 1724 H 157.788 2.20131 -2.36097 0
M  V30 1725 H 156.84 0.252465 -3.79561 0
M  V30 1726 H 158.152 0.549642 -4.95762 0
M  V30 1727 H 157.306 2.87356 -5.34333 0
M  V30 1728 H 156.045 2.6417 -4.09958 0
M  V30 1729 H 155.05 0.769479 -5.44389 0
M  V30 1730 H 156.275 1.02435 -6.7133 0
M  V30 1731 H 154.221 3.07235 -5.79606 0
M  V30 1732 H 154.138 2.13583 -7.25202 0
M  V30 1733 H 155.406 3.30903 -7.05779 0
M  V30 1734 N 159.635 1.57281 -0.100228 0
M  V30 1735 C 160.545 2.17833 0.870965 0
M  V30 1736 C 161.561 1.14921 1.30649 0
M  V30 1737 O 162.737 1.47313 1.37335 0
M  V30 1738 C 159.802 2.75085 2.1102 0
M  V30 1739 C 158.863 3.9297 1.72838 0
M  V30 1740 C 158.096 4.47482 2.90854 0
M  V30 1741 O 158.319 4.00922 4.05731 0
M  V30 1742 O 157.253 5.38433 2.69023 0
M  V30 1743 H 161.079 3.0124 0.38575 0
M  V30 1744 H 158.664 1.48881 0.124397 0
M  V30 1745 H 160.546 3.11656 2.83634 0
M  V30 1746 H 159.221 1.94721 2.58584 0
M  V30 1747 H 158.128 3.61201 0.973883 0
M  V30 1748 H 159.461 4.74713 1.30033 0
M  V30 1749 N 161.113 -0.173488 1.56642 0
M  V30 1750 C 162.362 -0.888758 1.81063 0
M  V30 1751 C 162.675 -1.83506 0.67712 0
M  V30 1752 O 163.881 -2.59254 0.806206 0
M  V30 1753 C 162.337 -1.63091 3.20826 0
M  V30 1754 C 161.945 -0.728357 4.4204 0
M  V30 1755 C 163.689 -2.33454 3.54541 0
M  V30 1756 C 161.596 -1.47062 5.72823 0
M  V30 1757 H 160.526 -0.335618 0.675186 0
M  V30 1758 H 163.177 -0.141712 1.82952 0
M  V30 1759 H 161.559 -2.42263 3.13248 0
M  V30 1760 H 162.733 0.0262449 4.60793 0
M  V30 1761 H 161.048 -0.134492 4.16183 0
M  V30 1762 H 163.645 -2.89578 4.49498 0
M  V30 1763 H 163.988 -3.08687 2.79317 0
M  V30 1764 H 164.521 -1.61227 3.63663 0
M  V30 1765 H 161.26 -0.760658 6.51072 0
M  V30 1766 H 160.78 -2.1986 5.58052 0
M  V30 1767 H 162.459 -2.01868 6.14702 0
M  V30 1768 N 162.591 -1.51276 -0.441967 0
M  V30 1769 C 163.501 -1.75092 -1.56141 0
M  V30 1770 C 164.517 -0.634963 -1.62001 0
M  V30 1771 O 165.693 -0.916686 -1.79329 0
M  V30 1772 C 162.758 -1.86666 -2.92158 0
M  V30 1773 C 161.819 -3.10506 -2.96453 0
M  V30 1774 C 161.052 -3.21519 -4.25982 0
M  V30 1775 O 161.275 -2.38586 -5.18105 0
M  V30 1776 O 160.209 -4.14465 -4.36466 0
M  V30 1777 H 164.035 -2.70044 -1.38961 0
M  V30 1778 H 161.62 -1.35722 -0.624499 0
M  V30 1779 H 163.502 -1.96292 -3.72891 0
M  V30 1780 H 162.177 -0.949014 -3.09476 0
M  V30 1781 H 161.084 -3.06363 -2.14692 0
M  V30 1782 H 162.417 -4.01945 -2.84079 0
M  V30 1783 N 164.069 0.697108 -1.41344 0
M  V30 1784 C 165.315 1.4593 -1.40827 0
M  V30 1785 C 165.648 1.94193 -0.0167098 0
M  V30 1786 O 164.923 1.69425 0.955263 0
M  V30 1787 C 165.206 2.67229 -2.41373 0
M  V30 1788 C 165.059 2.24741 -3.8963 0
M  V30 1789 C 166.378 3.69423 -2.39196 0
M  V30 1790 H 163.497 0.529303 -0.512842 0
M  V30 1791 H 166.139 0.794112 -1.72609 0
M  V30 1792 H 164.289 3.23982 -2.14401 0
M  V30 1793 H 165.961 1.73327 -4.27499 0
M  V30 1794 H 164.204 1.56542 -4.0457 0
M  V30 1795 H 164.875 3.1177 -4.55525 0
M  V30 1796 H 167.351 3.2234 -2.63128 0
M  V30 1797 H 166.227 4.51907 -3.11563 0
M  V30 1798 H 166.488 4.19012 -1.41001 0
M  V30 1799 N 165.547 1.27147 0.931209 0
M  V30 1800 C 166.795 1.13055 1.6752 0
M  V30 1801 C 167.116 -0.324791 1.92276 0
M  V30 1802 O 166.386 -1.22775 1.52654 0
M  V30 1803 H 164.966 0.415391 0.620854 0
M  V30 1804 H 167.628 1.59623 1.11833 0
M  V30 1805 H 166.724 1.65694 2.64485 0
M  V30 1806 N 167.025 -1.13721 1.09112 0
M  V30 1807 C 168.272 -1.84924 0.825192 0
M  V30 1808 C 168.6 -1.83347 -0.649151 0
M  V30 1809 O 167.855 -1.26449 -1.49362 0
M  V30 1810 C 168.154 -3.32861 1.30146 0
M  V30 1811 C 167.82 -3.54621 2.78486 0
M  V30 1812 C 166.482 -3.60268 3.18999 0
M  V30 1813 C 168.834 -3.62855 3.74146 0
M  V30 1814 C 166.162 -3.71679 4.53951 0
M  V30 1815 C 168.514 -3.75793 5.08883 0
M  V30 1816 C 167.178 -3.79692 5.4899 0
M  V30 1817 H 166.448 -0.676684 0.301959 0
M  V30 1818 H 169.095 -1.3428 1.36533 0
M  V30 1819 H 167.4 -3.85835 0.681064 0
M  V30 1820 H 169.097 -3.86395 1.07236 0
M  V30 1821 H 165.687 -3.50879 2.46134 0
M  V30 1822 H 169.871 -3.57775 3.43963 0
M  V30 1823 H 165.127 -3.72963 4.84467 0
M  V30 1824 H 169.301 -3.81107 5.82864 0
M  V30 1825 H 166.928 -3.88287 6.53558 0
M  V30 1826 N 168.503 -0.877838 -1.30888 0
M  V30 1827 C 169.914 -0.544193 -1.78593 0
M  V30 1828 C 170.265 0.939301 -1.72254 0
M  V30 1829 O 169.39 1.7337 -1.29505 0
M  V30 1830 C 169.985 -0.98105 -3.24285 0
M  V30 1831 C 168.544 -0.698935 -3.69854 0
M  V30 1832 C 167.691 -1.168 -2.51502 0
M  V30 1833 H 170.642 -1.06278 -1.17859 0
M  V30 1834 H 170.663 -0.307009 -3.79259 0
M  V30 1835 H 170.175 -2.06079 -3.28866 0
M  V30 1836 H 168.276 0.369112 -3.70767 0
M  V30 1837 H 168.389 -1.28148 -4.61644 0
M  V30 1838 H 166.753 -0.587535 -2.47831 0
M  V30 1839 H 167.536 -2.25533 -2.58824 0
M  V30 1840 N 169.982 1.44106 -0.638065 0
M  V30 1841 C 171.207 2.0685 -0.150916 0
M  V30 1842 C 171.632 1.47417 1.16833 0
M  V30 1843 O 170.99 0.578264 1.71831 0
M  V30 1844 C 171.038 3.60555 -0.05708 0
M  V30 1845 O 170.142 4.00465 0.984972 0
M  V30 1846 H 169.483 0.658151 -0.0879399 0
M  V30 1847 H 172.013 1.84865 -0.876707 0
M  V30 1848 H 172.023 4.07789 0.131232 0
M  V30 1849 H 170.698 4.03193 -1.02021 0
M  V30 1850 H 169.275 3.64849 0.770672 0
M  V30 1851 N 171.46 0.379036 1.52974 0
M  V30 1852 C 172.423 -0.448865 2.24762 0
M  V30 1853 C 173.423 -0.998689 1.26027 0
M  V30 1854 O 174.613 -0.882313 1.50203 0
M  V30 1855 C 171.745 -1.62872 2.99476 0
M  V30 1856 H 172.938 0.179491 2.99362 0
M  V30 1857 H 170.491 0.13096 1.5575 0
M  V30 1858 H 171.226 -2.29479 2.29151 0
M  V30 1859 H 171.011 -1.24128 3.71934 0
M  V30 1860 H 172.501 -2.2151 3.5401 0
M  V30 1861 N 172.938 -1.57226 0.108567 0
M  V30 1862 C 174.163 -1.99604 -0.563303 0
M  V30 1863 C 174.588 -0.987563 -1.6009 0
M  V30 1864 O 173.946 0.0421687 -1.81251 0
M  V30 1865 C 173.994 -3.40902 -1.17552 0
M  V30 1866 O 173.098 -3.42896 -2.2912 0
M  V30 1867 H 172.439 -0.648704 -0.1417 0
M  V30 1868 H 174.969 -2.03679 0.193961 0
M  V30 1869 H 174.979 -3.78886 -1.51357 0
M  V30 1870 H 173.654 -4.1382 -0.415445 0
M  V30 1871 H 172.231 -3.1672 -1.96832 0
M  V30 1872 N 174.416 0.165178 -1.56732 0
M  V30 1873 C 175.348 1.22911 -1.93457 0
M  V30 1874 C 176.361 1.40152 -0.828333 0
M  V30 1875 O 177.55 1.40046 -1.10677 0
M  V30 1876 C 174.65 2.59686 -2.17753 0
M  V30 1877 C 173.823 2.63663 -3.48999 0
M  V30 1878 C 172.882 3.81845 -3.62051 0
M  V30 1879 O 171.908 3.67559 -4.34613 0
M  V30 1880 N 173.11 4.98557 -2.97357 0
M  V30 1881 H 175.875 0.917118 -2.85323 0
M  V30 1882 H 173.436 0.354895 -1.57962 0
M  V30 1883 H 175.428 3.37225 -2.23743 0
M  V30 1884 H 173.998 2.83251 -1.32242 0
M  V30 1885 H 173.218 1.72173 -3.54612 0
M  V30 1886 H 174.506 2.63336 -4.35352 0
M  V30 1887 H 173.904 5.13065 -2.38287 0
M  V30 1888 H 172.461 5.73936 -3.08934 0
M  V30 1889 N 175.894 1.51508 0.433938 0
M  V30 1890 C 177.122 1.68157 1.20543 0
M  V30 1891 C 177.537 0.380362 1.84929 0
M  V30 1892 O 176.894 -0.641446 1.70856 0
M  V30 1893 C 176.945 2.79965 2.28696 0
M  V30 1894 O 176.666 4.05045 1.66943 0
M  V30 1895 C 178.167 3.07912 3.18912 0
M  V30 1896 H 175.387 0.56421 0.363191 0
M  V30 1897 H 177.931 1.97941 0.513754 0
M  V30 1898 H 176.086 2.5277 2.93574 0
M  V30 1899 H 176.5 4.67165 2.38448 0
M  V30 1900 H 177.974 3.89719 3.90926 0
M  V30 1901 H 178.451 2.20456 3.79863 0
M  V30 1902 H 179.057 3.36779 2.59731 0
M  V30 1903 N 177.372 -0.689602 1.41712 0
M  V30 1904 C 178.649 -1.44457 1.31877 0
M  V30 1905 C 179.029 -2.11039 -0.0508537 0
M  V30 1906 O 178.377 -2.02138 -1.06547 0
M  V30 1907 C 178.587 -2.45913 2.47645 0
M  V30 1908 C 179.935 -3.10991 2.89084 0
M  V30 1909 O 180.959 -2.56238 2.47428 0
M  V30 1910 O 179.818 -4.10174 3.61137 0
M  V30 1911 H 176.912 -0.64362 0.519309 0
M  V30 1912 H 179.458 -0.719576 1.53689 0
M  V30 1913 H 178.23 -1.95409 3.39015 0
M  V30 1914 H 177.853 -3.25913 2.27742 0
M  V30 1915 N 178.85 -1.27639 -0.924453 0
M  V30 1916 C 180.097 -1.14167 -1.67249 0
M  V30 1917 C 180.425 0.311863 -1.91984 0
M  V30 1918 O 179.68 1.24425 -1.51053 0
M  V30 1919 C 179.979 -1.87407 -3.04325 0
M  V30 1920 C 179.645 -3.37249 -2.99289 0
M  V30 1921 C 178.307 -3.7812 -2.97622 0
M  V30 1922 C 180.659 -4.32845 -2.90336 0
M  V30 1923 C 177.987 -5.12944 -2.8479 0
M  V30 1924 C 180.339 -5.6773 -2.79045 0
M  V30 1925 C 179.003 -6.07889 -2.7573 0
M  V30 1926 H 178.273 -0.417766 -0.612007 0
M  V30 1927 H 180.92 -1.58286 -1.07786 0
M  V30 1928 H 179.225 -1.35805 -3.67511 0
M  V30 1929 H 180.922 -1.74408 -3.61086 0
M  V30 1930 H 177.512 -3.04748 -3.01374 0
M  V30 1931 H 181.696 -4.02239 -2.90719 0
M  V30 1932 H 176.952 -5.432 -2.80612 0
M  V30 1933 H 181.126 -6.41472 -2.71083 0
M  V30 1934 H 178.753 -7.12314 -2.65544 0
M  V30 1935 N 180.328 1.1314 -1.09713 0
M  V30 1936 C 181.605 1.80762 -0.747302 0
M  V30 1937 C 181.985 1.96663 0.767265 0
M  V30 1938 O 181.333 1.53706 1.69076 0
M  V30 1939 C 181.543 3.15606 -1.48975 0
M  V30 1940 C 182.891 3.90914 -1.65746 0
M  V30 1941 O 183.915 3.25239 -1.45251 0
M  V30 1942 O 182.774 5.08718 -1.9967 0
M  V30 1943 H 179.868 0.782103 -0.268782 0
M  V30 1944 H 182.414 1.20041 -1.19951 0
M  V30 1945 H 181.186 2.99278 -2.52088 0
M  V30 1946 H 180.809 3.84029 -1.02991 0
M  V30 1947 N 181.806 0.884767 1.30421 0
M  V30 1948 C 183.053 0.503105 1.96151 0
M  V30 1949 C 183.381 -0.947676 1.69851 0
M  V30 1950 O 182.636 -1.68467 0.995861 0
M  V30 1951 C 182.935 0.724318 3.49983 0
M  V30 1952 C 182.601 2.15015 3.96332 0
M  V30 1953 C 181.263 2.54005 4.08699 0
M  V30 1954 C 183.615 3.07936 4.20505 0
M  V30 1955 C 180.943 3.85128 4.42599 0
M  V30 1956 C 183.295 4.3859 4.55874 0
M  V30 1957 C 181.959 4.77474 4.66449 0
M  V30 1958 H 181.229 0.184099 0.717766 0
M  V30 1959 H 183.876 1.12058 1.55291 0
M  V30 1960 H 182.181 0.0238086 3.91793 0
M  V30 1961 H 183.878 0.408617 3.98913 0
M  V30 1962 H 180.468 1.8375 3.87213 0
M  V30 1963 H 184.652 2.79033 4.10431 0
M  V30 1964 H 179.908 4.14996 4.48986 0
M  V30 1965 H 184.082 5.10629 4.7353 0
M  V30 1966 H 181.709 5.79115 4.92473 0
M  V30 1967 N 183.284 -1.43765 0.645699 0
M  V30 1968 C 184.53 -2.02197 0.156271 0
M  V30 1969 C 184.863 -1.50776 -1.22393 0
M  V30 1970 O 184.138 -0.697771 -1.81553 0
M  V30 1971 C 184.421 -3.59749 0.158872 0
M  V30 1972 C 184.274 -4.21419 1.57245 0
M  V30 1973 C 185.593 -4.37149 -0.50879 0
M  V30 1974 H 182.712 -0.734694 0.0582602 0
M  V30 1975 H 185.354 -1.71157 0.824951 0
M  V30 1976 H 183.504 -3.86325 -0.410525 0
M  V30 1977 H 185.176 -4.059 2.19186 0
M  V30 1978 H 183.419 -3.78356 2.122 0
M  V30 1979 H 184.09 -5.30482 1.52619 0
M  V30 1980 H 186.566 -4.16093 -0.024412 0
M  V30 1981 H 185.442 -5.4683 -0.476213 0
M  V30 1982 H 185.703 -4.12839 -1.58165 0
M  V30 1983 N 184.763 -0.387143 -1.52771 0
M  V30 1984 C 186.179 -0.037007 -1.59557 0
M  V30 1985 C 186.379 1.44801 -1.40124 0
M  V30 1986 O 185.435 2.21227 -1.21716 0
M  V30 1987 C 186.748 -0.512256 -2.96305 0
M  V30 1988 C 188.296 -0.468328 -3.09476 0
M  V30 1989 C 188.771 -0.919731 -4.4867 0
M  V30 1990 N 190.262 -0.875656 -4.54848 0
M  V30 1991 C 190.997 -1.19637 -5.6078 0
M  V30 1992 N 190.493 -1.58745 -6.74368 0
M  V30 1993 N 192.286 -1.11776 -5.50874 0
M  V30 1994 H 184.437 -1.35395 -1.63652 0
M  V30 1995 H 186.7 -0.554818 -0.768688 0
M  V30 1996 H 186.406 -1.54935 -3.15734 0
M  V30 1997 H 186.28 0.089805 -3.77093 0
M  V30 1998 H 188.667 0.559671 -2.89744 0
M  V30 1999 H 188.748 -1.10616 -2.30646 0
M  V30 2000 H 188.392 -1.94595 -4.69143 0
M  V30 2001 H 188.322 -0.258927 -5.25963 0
M  V30 2002 H 190.813 -0.587843 -3.733 0
M  V30 2003 H 191.126 -1.81586 -7.51163 0
M  V30 2004 H 189.471 -1.6263 -6.75705 0
M  V30 2005 H 192.662 -0.811264 -4.61016 0
M  V30 2006 H 192.835 -1.37103 -6.3333 0
M  V30 2007 N 186.241 1.57166 -0.116904 0
M  V30 2008 C 187.151 2.18745 0.847812 0
M  V30 2009 C 188.167 1.163 1.29423 0
M  V30 2010 O 189.343 1.48761 1.35765 0
M  V30 2011 C 186.408 2.77307 2.0809 0
M  V30 2012 C 185.469 3.94781 1.68661 0
M  V30 2013 C 184.702 4.50541 2.86091 0
M  V30 2014 O 184.925 4.05202 4.01456 0
M  V30 2015 O 183.859 5.41256 2.63298 0
M  V30 2016 H 187.685 3.01632 0.353778 0
M  V30 2017 H 185.27 1.49005 0.108599 0
M  V30 2018 H 187.152 3.14647 2.80313 0
M  V30 2019 H 185.827 1.97452 2.56504 0
M  V30 2020 H 184.734 3.62214 0.935518 0
M  V30 2021 H 186.067 4.76065 1.24991 0
M  V30 2022 N 187.719 -0.156864 1.56817 0
M  V30 2023 C 188.968 -0.869504 1.81996 0
M  V30 2024 C 189.281 -1.82777 0.696545 0
M  V30 2025 O 190.487 -2.58384 0.833658 0
M  V30 2026 C 188.943 -1.59679 3.22538 0
M  V30 2027 C 188.551 -0.681431 4.42787 0
M  V30 2028 C 190.295 -2.2968 3.56997 0
M  V30 2029 C 188.202 -1.40978 5.74351 0
M  V30 2030 H 187.132 -0.328438 0.678708 0
M  V30 2031 H 189.783 -0.1223 1.83092 0
M  V30 2032 H 188.165 -2.38927 3.158 0
M  V30 2033 H 189.339 0.0751166 4.60739 0
M  V30 2034 H 187.654 -0.0903431 4.16302 0
M  V30 2035 H 190.251 -2.84794 4.52544 0
M  V30 2036 H 190.594 -3.05707 2.82576 0
M  V30 2037 H 191.127 -1.57361 3.65352 0
M  V30 2038 H 187.866 -0.691561 6.51842 0
M  V30 2039 H 187.386 -2.13929 5.60352 0
M  V30 2040 H 189.065 -1.95337 6.16808 0
M  V30 2041 N 189.197 -1.51736 -0.425897 0
M  V30 2042 C 190.446 -1.64201 -1.17136 0
M  V30 2043 C 190.759 -0.369705 -1.92074 0
M  V30 2044 O 191.965 -0.373898 -2.68913 0
M  V30 2045 C 190.421 -2.90035 -2.13091 0
M  V30 2046 C 190.029 -4.24312 -1.43747 0
M  V30 2047 C 191.773 -3.1186 -2.87999 0
M  V30 2048 C 189.68 -5.41285 -2.38253 0
M  V30 2049 H 188.61 -0.611624 -0.440944 0
M  V30 2050 H 191.261 -1.78212 -0.437328 0
M  V30 2051 H 189.643 -2.69684 -2.89977 0
M  V30 2052 H 190.817 -4.55086 -0.723408 0
M  V30 2053 H 189.132 -4.08456 -0.809465 0
M  V30 2054 H 191.729 -3.96427 -3.58817 0
M  V30 2055 H 192.072 -2.25403 -3.49999 0
M  V30 2056 H 192.605 -3.32605 -2.18217 0
M  V30 2057 H 189.344 -6.30037 -1.80925 0
M  V30 2058 H 188.864 -5.14872 -3.0768 0
M  V30 2059 H 190.543 -5.73694 -2.99139 0
M  V30 2060 N 190.675 0.682077 -1.42076 0
M  V30 2061 C 191.585 1.82535 -1.47371 0
M  V30 2062 C 192.601 1.7017 -0.363079 0
M  V30 2063 O 193.777 1.91848 -0.612875 0
M  V30 2064 C 190.842 3.18624 -1.36674 0
M  V30 2065 C 189.903 3.42999 -2.58167 0
M  V30 2066 C 189.136 4.72595 -2.4797 0
M  V30 2067 O 189.359 5.50006 -1.5116 0
M  V30 2068 O 188.293 4.98054 -3.37974 0
M  V30 2069 H 192.119 1.81023 -2.43853 0
M  V30 2070 H 189.704 0.836887 -1.2376 0
M  V30 2071 H 191.586 3.99847 -1.33043 0
M  V30 2072 H 190.261 3.20789 -0.433138 0
M  V30 2073 H 189.168 2.61653 -2.67373 0
M  V30 2074 H 190.501 3.45659 -3.50401 0
M  V30 2075 N 192.153 1.28127 0.917671 0
M  V30 2076 C 193.085 1.07517 2.02417 0
M  V30 2077 C 194.098 0.0281099 1.62776 0
M  V30 2078 O 195.287 0.270748 1.76435 0
M  V30 2079 C 192.387 0.610957 3.33347 0
M  V30 2080 C 191.56 1.73255 4.01624 0
M  V30 2081 C 190.619 1.26238 5.10833 0
M  V30 2082 O 189.645 1.96389 5.34247 0
M  V30 2083 N 190.847 0.123448 5.80369 0
M  V30 2084 H 193.612 2.02806 2.20658 0
M  V30 2085 H 191.173 1.19827 1.08871 0
M  V30 2086 H 193.165 0.280101 4.0373 0
M  V30 2087 H 191.735 -0.24898 3.11607 0
M  V30 2088 H 190.955 2.23319 3.24842 0
M  V30 2089 H 192.243 2.48503 4.43986 0
M  V30 2090 H 191.641 -0.461847 5.63812 0
M  V30 2091 H 190.198 -0.148158 6.51632 0
M  V30 2092 N 193.631 -1.12557 1.10312 0
M  V30 2093 C 194.879 -1.83675 0.843091 0
M  V30 2094 C 195.2 -1.84435 -0.633131 0
M  V30 2095 O 194.47 -1.30657 -1.45964 0
M  V30 2096 H 193.05 -0.680138 0.308904 0
M  V30 2097 H 195.712 -1.36301 1.39313 0
M  V30 2098 H 194.808 -2.87908 1.2048 0
M  V30 2099 N 195.109 -0.891671 -1.2995 0
M  V30 2100 C 196.072 -0.36828 -2.26222 0
M  V30 2101 C 197.072 0.493014 -1.53056 0
M  V30 2102 O 198.262 0.299213 -1.71611 0
M  V30 2103 C 195.394 0.47442 -3.37583 0
M  V30 2104 H 196.587 -1.21844 -2.74033 0
M  V30 2105 H 194.14 -0.669107 -1.41254 0
M  V30 2106 H 194.875 1.34489 -2.95099 0
M  V30 2107 H 194.66 -0.142615 -3.91841 0
M  V30 2108 H 196.15 0.83218 -4.09224 0
M  V30 2109 N 196.587 1.43421 -0.653314 0
M  V30 2110 C 197.836 2.01032 -0.164076 0
M  V30 2111 C 198.149 1.52147 1.22926 0
M  V30 2112 O 199.355 2.02031 1.81371 0
M  V30 2113 C 197.811 3.59082 -0.24252 0
M  V30 2114 C 197.419 4.1696 -1.63855 0
M  V30 2115 C 199.163 4.24079 0.18911 0
M  V30 2116 C 197.07 5.67304 -1.67092 0
M  V30 2117 H 196 0.751798 -0.0575769 0
M  V30 2118 H 198.651 1.6439 -0.815362 0
M  V30 2119 H 197.033 3.93125 0.476276 0
M  V30 2120 H 198.207 3.94416 -2.38271 0
M  V30 2121 H 196.522 3.64335 -2.01616 0
M  V30 2122 H 199.119 5.34381 0.184775 0
M  V30 2123 H 199.462 3.98005 1.22056 0
M  V30 2124 H 199.995 3.94918 -0.477938 0
M  V30 2125 H 196.734 5.98145 -2.68146 0
M  V30 2126 H 196.254 5.91904 -0.970014 0
M  V30 2127 H 197.933 6.31344 -1.4147 0
M  V30 2128 N 198.065 0.39524 1.52563 0
M  V30 2129 C 199.476 -0.0774719 1.86539 0
M  V30 2130 C 199.827 -1.45641 1.31466 0
M  V30 2131 O 198.952 -2.06459 0.648367 0
M  V30 2132 C 199.547 -0.147356 3.38479 0
M  V30 2133 C 198.106 -0.564373 3.72145 0
M  V30 2134 C 197.253 0.269919 2.75983 0
M  V30 2135 H 200.204 0.612876 1.46388 0
M  V30 2136 H 200.225 -0.965343 3.68051 0
M  V30 2137 H 199.737 0.856387 3.78534 0
M  V30 2138 H 197.838 -1.57527 3.37663 0
M  V30 2139 H 197.951 -0.318402 4.78041 0
M  V30 2140 H 196.315 -0.265696 2.5331 0
M  V30 2141 H 197.098 1.27175 3.18875 0
M  V30 2142 N 199.544 -1.57102 0.125237 0
M  V30 2143 C 200.821 -1.86953 -0.575142 0
M  V30 2144 C 201.201 -1.02749 -1.84407 0
M  V30 2145 O 200.549 -0.108144 -2.28244 0
M  V30 2146 C 200.759 -3.38198 -0.861583 0
M  V30 2147 C 202.107 -4.06937 -1.21192 0
M  V30 2148 O 203.131 -3.43252 -0.951645 0
M  V30 2149 O 201.99 -5.19364 -1.70068 0
M  V30 2150 H 199.084 -0.774147 -0.290906 0
M  V30 2151 H 201.63 -1.68942 0.160211 0
M  V30 2152 H 200.402 -3.91282 0.0373647 0
M  V30 2153 H 200.025 -3.61661 -1.65188 0
M  V30 2154 N 201.022 0.148545 -1.56898 0
M  V30 2155 C 202.299 0.890019 -1.74178 0
M  V30 2156 C 202.679 1.99407 -0.692839 0
M  V30 2157 O 202.027 2.26671 0.288505 0
M  V30 2158 C 202.237 1.43389 -3.18183 0
M  V30 2159 C 203.585 1.89791 -3.79822 0
M  V30 2160 O 204.609 1.53134 -3.21603 0
M  V30 2161 O 203.468 2.57387 -4.82093 0
M  V30 2162 H 200.562 0.420496 -0.712118 0
M  V30 2163 H 203.108 0.134591 -1.69165 0
M  V30 2164 H 201.88 0.640383 -3.86024 0
M  V30 2165 H 201.503 2.25287 -3.27615 0
M  V30 2166 N 202.5 1.5196 0.417844 0
M  V30 2167 C 203.746 1.65836 1.16732 0
M  V30 2168 C 204.079 0.382881 1.90388 0
M  V30 2169 O 203.354 -0.618368 1.84408 0
M  V30 2170 C 203.637 2.87466 2.16876 0
M  V30 2171 C 203.49 4.25041 1.47174 0
M  V30 2172 C 204.809 3.04613 3.17646 0
M  V30 2173 H 201.928 0.603515 0.423011 0
M  V30 2174 H 204.57 1.84494 0.454105 0
M  V30 2175 H 202.72 2.71689 2.777 0
M  V30 2176 H 204.392 4.52527 0.895376 0
M  V30 2177 H 202.635 4.26843 0.773806 0
M  V30 2178 H 203.306 5.06176 2.20204 0
M  V30 2179 H 205.782 3.1923 2.66892 0
M  V30 2180 H 204.658 3.91247 3.8499 0
M  V30 2181 H 204.919 2.17541 3.84874 0
M  V30 2182 N 203.978 -0.674533 1.42435 0
M  V30 2183 C 205.206 -1.46283 1.46317 0
M  V30 2184 C 205.621 -1.88653 0.0745836 0
M  V30 2185 O 204.978 -1.58151 -0.91074 0
M  V30 2186 C 205.029 -2.71178 2.3905 0
M  V30 2187 O 204.75 -2.30586 3.72507 0
M  V30 2188 C 206.251 -3.64738 2.51955 0
M  V30 2189 H 203.471 -0.450104 0.497642 0
M  V30 2190 H 206.015 -0.828792 1.86953 0
M  V30 2191 H 204.17 -3.3077 2.01667 0
M  V30 2192 H 204.584 -3.11241 4.22172 0
M  V30 2193 H 206.058 -4.49096 3.20962 0
M  V30 2194 H 206.535 -4.10656 1.55752 0
M  V30 2195 H 207.141 -3.11038 2.90061 0
M  V30 2196 N 205.456 -1.28612 -0.910864 0
M  V30 2197 C 206.705 -1.15311 -1.65488 0
M  V30 2198 C 207.018 0.296999 -1.93332 0
M  V30 2199 O 208.224 0.551168 -2.65847 0
M  V30 2200 C 206.68 -2.01599 -2.98137 0
M  V30 2201 C 206.288 -3.51367 -2.7793 0
M  V30 2202 C 208.032 -1.96993 -3.76024 0
M  V30 2203 C 205.939 -4.29797 -4.06237 0
M  V30 2204 H 204.869 -0.42796 -0.620779 0
M  V30 2205 H 207.52 -1.53166 -1.01057 0
M  V30 2206 H 205.902 -1.56603 -3.63719 0
M  V30 2207 H 207.076 -4.0434 -2.21011 0
M  V30 2208 H 205.391 -3.57529 -2.13452 0
M  V30 2209 H 207.988 -2.52856 -4.71135 0
M  V30 2210 H 208.331 -0.94733 -4.05378 0
M  V30 2211 H 208.864 -2.39973 -3.17266 0
M  V30 2212 H 205.603 -5.32648 -3.82055 0
M  V30 2213 H 205.123 -3.81596 -4.62757 0
M  V30 2214 H 206.802 -4.39869 -4.74473 0
M  V30 2215 N 206.934 1.1197 -1.10907 0
M  V30 2216 C 207.866 2.17592 -0.720175 0
M  V30 2217 C 208.879 1.60938 0.245495 0
M  V30 2218 O 210.068 1.78476 0.0292245 0
M  V30 2219 C 207.168 3.38873 -0.0427917 0
M  V30 2220 C 206.341 4.25006 -1.03388 0
M  V30 2221 C 205.4 5.24774 -0.387075 0
M  V30 2222 O 204.426 5.59631 -1.03934 0
M  V30 2223 N 205.628 5.74208 0.852407 0
M  V30 2224 H 208.393 2.51567 -1.62893 0
M  V30 2225 H 205.954 1.27439 -0.998543 0
M  V30 2226 H 207.946 4.02703 0.401501 0
M  V30 2227 H 206.516 3.03007 0.768456 0
M  V30 2228 H 205.736 3.57716 -1.65629 0
M  V30 2229 H 207.024 4.79397 -1.70458 0
M  V30 2230 H 206.422 5.48062 1.40161 0
M  V30 2231 H 204.979 6.39901 1.23977 0
M  V30 2232 N 208.412 0.89855 1.29475 0
M  V30 2233 C 209.658 0.524658 1.95896 0
M  V30 2234 C 209.991 -0.926468 1.70676 0
M  V30 2235 O 209.266 -1.65665 1.01908 0
M  V30 2236 C 209.549 0.81633 3.50725 0
M  V30 2237 C 209.402 2.31907 3.85408 0
M  V30 2238 C 210.721 0.302038 4.39062 0
M  V30 2239 H 207.84 0.19209 0.711527 0
M  V30 2240 H 210.482 1.12502 1.53112 0
M  V30 2241 H 208.632 0.305369 3.87298 0
M  V30 2242 H 210.304 2.89949 3.58786 0
M  V30 2243 H 208.547 2.78027 3.32992 0
M  V30 2244 H 209.218 2.47373 4.93468 0
M  V30 2245 H 211.694 0.739551 4.09475 0
M  V30 2246 H 210.57 0.535331 5.46283 0
M  V30 2247 H 210.831 -0.797216 4.34853 0
M  V30 2248 N 209.89 -1.43072 0.660911 0
M  V30 2249 C 210.82 -2.33497 -0.0122829 0
M  V30 2250 C 211.801 -1.49903 -0.803925 0
M  V30 2251 O 212.986 -1.78546 -0.763864 0
M  V30 2252 C 210.116 -3.33363 -0.973994 0
M  V30 2253 C 209.07 -4.27003 -0.291928 0
M  V30 2254 C 208.396 -5.16967 -1.36562 0
M  V30 2255 C 209.696 -5.15816 0.820462 0
M  V30 2256 H 211.39 -2.90038 0.742873 0
M  V30 2257 H 208.936 -1.39461 0.358688 0
M  V30 2258 H 210.889 -3.95524 -1.45392 0
M  V30 2259 H 209.613 -2.75095 -1.7604 0
M  V30 2260 H 208.272 -3.66217 0.167623 0
M  V30 2261 H 207.92 -4.55034 -2.14366 0
M  V30 2262 H 207.62 -5.80441 -0.914454 0
M  V30 2263 H 209.144 -5.82003 -1.84675 0
M  V30 2264 H 210.558 -5.71742 0.422366 0
M  V30 2265 H 208.955 -5.8805 1.19656 0
M  V30 2266 H 210.025 -4.55045 1.67518 0
M  V30 2267 N 211.368 -0.403325 -1.52352 0
M  V30 2268 C 212.596 0.174012 -2.06167 0
M  V30 2269 C 213.011 1.39347 -1.27388 0
M  V30 2270 O 212.368 1.79597 -0.324201 0
M  V30 2271 C 212.419 0.530223 -3.5759 0
M  V30 2272 O 212.14 -0.640806 -4.33388 0
M  V30 2273 C 213.641 1.16192 -4.27802 0
M  V30 2274 H 210.861 0.0229464 -0.670608 0
M  V30 2275 H 213.405 -0.572604 -1.9632 0
M  V30 2276 H 211.56 1.22673 -3.67464 0
M  V30 2277 H 211.974 -0.344851 -5.23365 0
M  V30 2278 H 213.448 1.36141 -5.34948 0
M  V30 2279 H 213.925 2.13335 -3.83907 0
M  V30 2280 H 214.531 0.505775 -4.22282 0
M  V30 2281 N 212.846 1.57033 -0.133567 0
M  V30 2282 C 213.778 2.13176 0.841944 0
M  V30 2283 C 214.791 1.07794 1.22001 0
M  V30 2284 O 215.98 1.35117 1.16643 0
M  V30 2285 C 213.08 2.62847 2.13926 0
M  V30 2286 C 212.253 3.92486 1.93064 0
M  V30 2287 C 211.312 4.27605 3.0666 0
M  V30 2288 O 210.338 4.96168 2.78937 0
M  V30 2289 N 211.54 3.861 4.33483 0
M  V30 2290 H 214.305 2.97503 0.362192 0
M  V30 2291 H 211.866 1.61821 0.05042 0
M  V30 2292 H 213.858 2.83363 2.88942 0
M  V30 2293 H 212.428 1.83319 2.53205 0
M  V30 2294 H 211.648 3.80732 1.02159 0
M  V30 2295 H 212.936 4.77225 1.76447 0
M  V30 2296 H 212.334 3.30828 4.58878 0
M  V30 2297 H 210.891 4.11694 5.05323 0
M  V30 2298 N 214.325 -0.140222 1.56975 0
M  V30 2299 C 215.565 -0.857823 1.85528 0
M  V30 2300 C 215.929 -1.78039 0.718768 0
M  V30 2301 O 217.13 -2.53795 0.885521 0
M  V30 2302 C 215.401 -1.60615 3.19277 0
M  V30 2303 S 216.96 -2.36824 3.69405 0
M  V30 2304 H 213.778 -0.286727 0.650622 0
M  V30 2305 H 216.38 -0.117408 1.95147 0
M  V30 2306 H 215.084 -0.919994 3.99955 0
M  V30 2307 H 214.615 -2.38735 3.12681 0
M  V30 2308 H 216.63 -3.62148 3.3921 0
M  V30 2309 N 215.803 -1.52179 -0.40978 0
M  V30 2310 C 217.219 -1.40968 -0.74835 0
M  V30 2311 C 217.419 -0.513657 -1.94843 0
M  V30 2312 O 216.475 0.0208026 -2.52491 0
M  V30 2313 C 217.788 -2.83483 -1.0029 0
M  V30 2314 C 219.336 -2.92821 -1.10565 0
M  V30 2315 C 219.811 -4.36303 -1.39296 0
M  V30 2316 N 221.302 -4.39535 -1.46162 0
M  V30 2317 C 222.037 -5.47614 -1.70018 0
M  V30 2318 N 221.533 -6.65812 -1.91483 0
M  V30 2319 N 223.326 -5.35129 -1.72027 0
M  V30 2320 H 215.477 -2.0897 0.380186 0
M  V30 2321 H 217.74 -0.94185 0.107805 0
M  V30 2322 H 217.446 -3.51168 -0.193461 0
M  V30 2323 H 217.32 -3.24487 -1.92323 0
M  V30 2324 H 219.707 -2.25318 -1.90568 0
M  V30 2325 H 219.788 -2.55276 -0.16369 0
M  V30 2326 H 219.432 -5.04366 -0.598109 0
M  V30 2327 H 219.362 -4.71385 -2.34743 0
M  V30 2328 H 221.853 -3.54332 -1.31367 0
M  V30 2329 H 222.166 -7.43964 -2.09134 0
M  V30 2330 H 220.511 -6.68879 -1.88749 0
M  V30 2331 H 223.702 -4.41764 -1.54796 0
M  V30 2332 H 223.875 -6.19433 -1.9028 0
M  V30 2333 N 217.281 0.66697 -1.42791 0
M  V30 2334 C 218.692 1.2478 -1.38877 0
M  V30 2335 C 219.043 1.96012 -0.0859426 0
M  V30 2336 O 218.168 2.00463 0.815081 0
M  V30 2337 C 218.763 2.26938 -2.51564 0
M  V30 2338 C 217.322 2.80529 -2.50959 0
M  V30 2339 C 216.469 1.54965 -2.29959 0
M  V30 2340 H 219.42 0.459853 -1.51892 0
M  V30 2341 H 219.441 3.08834 -2.22265 0
M  V30 2342 H 218.953 1.75065 -3.46372 0
M  V30 2343 H 217.054 3.36502 -1.59991 0
M  V30 2344 H 217.167 3.29012 -3.48265 0
M  V30 2345 H 215.531 1.81817 -1.78366 0
M  V30 2346 H 216.314 1.05047 -3.26833 0
M  V30 2347 N 218.759 1.29093 0.90403 0
M  V30 2348 C 219.669 1.15727 2.0407 0
M  V30 2349 C 220.685 0.0815308 1.73809 0
M  V30 2350 O 221.861 0.292749 1.99261 0
M  V30 2351 C 218.926 0.830424 3.36608 0
M  V30 2352 C 217.987 1.98955 3.80415 0
M  V30 2353 C 217.22 1.6782 5.06628 0
M  V30 2354 O 217.443 0.597105 5.67266 0
M  V30 2355 O 216.377 2.52486 5.46383 0
M  V30 2356 H 220.203 2.11171 2.18267 0
M  V30 2357 H 217.788 1.08504 1.027 0
M  V30 2358 H 219.67 0.662521 4.16159 0
M  V30 2359 H 218.345 -0.0942678 3.23563 0
M  V30 2360 H 217.252 2.21267 3.01648 0
M  V30 2361 H 218.585 2.89529 3.98037 0
M  V30 2362 N 220.237 -1.11381 1.11499 0
M  V30 2363 C 221.167 -2.19509 0.796125 0
M  V30 2364 C 222.148 -1.68458 -0.235796 0
M  V30 2365 O 223.333 -1.93947 -0.0991344 0
M  V30 2366 C 220.463 -3.46475 0.239205 0
M  V30 2367 C 219.417 -4.10744 1.20307 0
M  V30 2368 C 218.743 -5.32293 0.50683 0
M  V30 2369 C 220.043 -4.55597 2.55399 0
M  V30 2370 H 221.737 -2.46439 1.70024 0
M  V30 2371 H 219.283 -1.18446 0.818935 0
M  V30 2372 H 221.236 -4.214 0.00392006 0
M  V30 2373 H 219.96 -3.19006 -0.700206 0
M  V30 2374 H 218.619 -3.37813 1.42399 0
M  V30 2375 H 218.267 -5.01095 -0.437408 0
M  V30 2376 H 217.967 -5.76243 1.1497 0
M  V30 2377 H 219.491 -6.09956 0.280351 0
M  V30 2378 H 220.905 -5.21841 2.37391 0
M  V30 2379 H 219.302 -5.10363 3.15673 0
M  V30 2380 H 220.372 -3.69013 3.14575 0
M  V30 2381 N 221.715 -0.905404 -1.28997 0
M  V30 2382 C 222.964 -0.530191 -1.94607 0
M  V30 2383 C 223.277 0.929185 -1.72121 0
M  V30 2384 O 224.483 1.41218 -2.31883 0
M  V30 2385 C 222.939 -0.897333 -3.48534 0
M  V30 2386 C 222.547 -2.37587 -3.79811 0
M  V30 2387 C 224.291 -0.592304 -4.20347 0
M  V30 2388 C 222.198 -2.68357 -5.27009 0
M  V30 2389 H 221.128 -0.194558 -0.728466 0
M  V30 2390 H 223.779 -1.10318 -1.46636 0
M  V30 2391 H 222.161 -0.253214 -3.9519 0
M  V30 2392 H 223.335 -3.06602 -3.43994 0
M  V30 2393 H 221.65 -2.6505 -3.2115 0
M  V30 2394 H 224.247 -0.798975 -5.28697 0
M  V30 2395 H 224.59 0.469474 -4.13644 0
M  V30 2396 H 225.123 -1.19452 -3.79442 0
M  V30 2397 H 221.862 -3.73355 -5.38782 0
M  V30 2398 H 221.382 -2.03971 -5.64053 0
M  V30 2399 H 223.061 -2.54922 -5.94663 0
M  V30 2400 N 223.193 1.4272 -0.668489 0
M  V30 2401 C 224.103 2.34596 0.0139753 0
M  V30 2402 C 225.119 1.5474 0.795703 0
M  V30 2403 O 226.295 1.87334 0.739466 0
M  V30 2404 C 223.36 3.33202 0.957982 0
M  V30 2405 C 222.421 4.28957 0.17149 0
M  V30 2406 C 221.654 5.22853 1.07053 0
M  V30 2407 O 221.877 5.21531 2.31001 0
M  V30 2408 O 220.811 5.9952 0.534727 0
M  V30 2409 H 224.637 2.9448 -0.742661 0
M  V30 2410 H 222.222 1.43117 -0.428705 0
M  V30 2411 H 224.104 3.93796 1.50008 0
M  V30 2412 H 222.779 2.758 1.69458 0
M  V30 2413 H 221.686 3.71796 -0.414558 0
M  V30 2414 H 223.019 4.89383 -0.52586 0
M  V30 2415 N 224.671 0.411399 1.52136 0
M  V30 2416 C 226.087 0.0623865 1.59478 0
M  V30 2417 C 226.287 -1.42554 1.4241 0
M  V30 2418 O 225.343 -2.19263 1.2522 0
M  V30 2419 C 226.656 0.559331 2.95452 0
M  V30 2420 C 228.204 0.517503 3.08692 0
M  V30 2421 C 228.679 0.990994 4.4715 0
M  V30 2422 N 230.17 0.947908 4.53397 0
M  V30 2423 C 230.905 1.28544 5.58806 0
M  V30 2424 N 230.401 1.69454 6.71757 0
M  V30 2425 N 232.194 1.20526 5.49026 0
M  V30 2426 H 224.345 1.37982 1.61477 0
M  V30 2427 H 226.608 0.566977 0.759764 0
M  V30 2428 H 226.314 1.59938 3.1323 0
M  V30 2429 H 226.188 -0.0298014 3.77188 0
M  V30 2430 H 228.575 -0.513505 2.90598 0
M  V30 2431 H 228.656 1.14272 2.28857 0
M  V30 2432 H 228.3 2.02034 4.65988 0
M  V30 2433 H 228.23 0.34257 5.25485 0
M  V30 2434 H 230.721 0.647157 3.72317 0
M  V30 2435 H 231.034 1.93513 7.48179 0
M  V30 2436 H 229.379 1.73359 6.73032 0
M  V30 2437 H 232.57 0.884505 4.59667 0
M  V30 2438 H 232.743 1.47161 6.31069 0
M  V30 2439 N 226.149 -1.5696 0.141893 0
M  V30 2440 C 227.377 -2.00322 -0.517579 0
M  V30 2441 C 227.792 -1.02193 -1.58752 0
M  V30 2442 O 227.149 -0.0181619 -1.82491 0
M  V30 2443 C 227.2 -3.43618 -1.12289 0
M  V30 2444 O 226.921 -4.37995 -0.0956929 0
M  V30 2445 C 228.422 -4.02231 -1.86347 0
M  V30 2446 H 225.642 -0.657243 -0.135177 0
M  V30 2447 H 228.186 -2.03146 0.234973 0
M  V30 2448 H 226.341 -3.41662 -1.82609 0
M  V30 2449 H 226.755 -5.21729 -0.538469 0
M  V30 2450 H 228.229 -5.04509 -2.23997 0
M  V30 2451 H 228.706 -3.42655 -2.74744 0
M  V30 2452 H 229.312 -4.07802 -1.20737 0
M  V30 2453 N 227.627 0.131896 -1.57047 0
M  V30 2454 C 228.874 0.841932 -1.84168 0
M  V30 2455 C 229.202 1.8048 -0.725066 0
M  V30 2456 O 228.457 1.93618 0.284692 0
M  V30 2457 C 228.756 1.63703 -3.17704 0
M  V30 2458 C 228.422 0.81961 -4.43388 0
M  V30 2459 C 227.084 0.594148 -4.77518 0
M  V30 2460 C 229.436 0.248977 -5.20605 0
M  V30 2461 C 226.764 -0.212409 -5.86315 0
M  V30 2462 C 229.116 -0.544701 -6.30251 0
M  V30 2463 C 227.78 -0.780599 -6.6292 0
M  V30 2464 H 227.05 0.308085 -0.673917 0
M  V30 2465 H 229.697 0.104867 -1.91213 0
M  V30 2466 H 228.002 2.44464 -3.06177 0
M  V30 2467 H 229.699 2.19015 -3.35907 0
M  V30 2468 H 226.289 1.00542 -4.16641 0
M  V30 2469 H 230.473 0.410408 -4.946 0
M  V30 2470 H 225.729 -0.404524 -6.1006 0
M  V30 2471 H 229.903 -0.993922 -6.89271 0
M  V30 2472 H 227.53 -1.40742 -7.47058 0
M  V30 2473 N 229.106 1.52395 0.401703 0
M  V30 2474 C 230.038 1.72505 1.50912 0
M  V30 2475 C 231.051 0.605468 1.51122 0
M  V30 2476 O 232.24 0.880828 1.55254 0
M  V30 2477 C 229.34 1.75711 2.89791 0
M  V30 2478 C 228.513 3.04824 3.1369 0
M  V30 2479 C 227.572 2.99743 4.32482 0
M  V30 2480 O 226.598 3.73635 4.29402 0
M  V30 2481 N 227.8 2.18047 5.37992 0
M  V30 2482 H 230.565 2.68049 1.34052 0
M  V30 2483 H 228.126 1.50724 0.591084 0
M  V30 2484 H 230.118 1.69834 3.6734 0
M  V30 2485 H 228.688 0.876092 3.00072 0
M  V30 2486 H 227.908 3.2429 2.24119 0
M  V30 2487 H 229.196 3.90221 3.26504 0
M  V30 2488 H 228.594 1.57456 5.43345 0
M  V30 2489 H 227.151 2.18021 6.14256 0
M  V30 2490 N 230.584 -0.659388 1.43143 0
M  V30 2491 C 231.547 -1.75432 1.47501 0
M  V30 2492 C 232.547 -1.56707 0.360512 0
M  V30 2493 O 233.737 -1.62717 0.622002 0
M  V30 2494 C 230.869 -3.14239 1.32162 0
M  V30 2495 H 232.062 -1.7295 2.45006 0
M  V30 2496 H 229.615 -0.870469 1.29817 0
M  V30 2497 H 230.35 -3.22336 0.356401 0
M  V30 2498 H 230.135 -3.29235 2.12948 0
M  V30 2499 H 231.625 -3.94094 1.3813 0
M  V30 2500 N 232.062 -1.29571 -0.897171 0
M  V30 2501 C 233.302 -1.18959 -1.66217 0
M  V30 2502 C 233.666 0.254271 -1.90309 0
M  V30 2503 O 234.867 0.483407 -2.64417 0
M  V30 2504 C 233.138 -1.98302 -2.9734 0
M  V30 2505 S 234.697 -2.04253 -3.88364 0
M  V30 2506 H 231.515 -0.424137 -0.570639 0
M  V30 2507 H 234.117 -1.6389 -1.06585 0
M  V30 2508 H 232.821 -3.02342 -2.77521 0
M  V30 2509 H 232.352 -1.53986 -3.62011 0
M  V30 2510 H 234.367 -1.16105 -4.82425 0
M  V30 2511 N 233.54 1.10788 -1.12088 0
M  V30 2512 C 234.765 1.87002 -0.896949 0
M  V30 2513 C 235.19 1.79933 0.548261 0
M  V30 2514 O 234.548 1.16662 1.38779 0
M  V30 2515 C 234.596 3.3349 -1.37174 0
M  V30 2516 O 233.7 4.08745 -0.547831 0
M  V30 2517 H 233.041 0.580397 -0.322545 0
M  V30 2518 H 235.571 1.39996 -1.49206 0
M  V30 2519 H 235.581 3.84339 -1.36922 0
M  V30 2520 H 234.256 3.37951 -2.42408 0
M  V30 2521 H 232.833 3.6776 -0.617034 0
M  V30 2522 N 235.018 0.912232 1.28515 0
M  V30 2523 C 236.266 0.543523 1.94654 0
M  V30 2524 C 236.587 -0.9155 1.72173 0
M  V30 2525 O 235.857 -1.64708 1.06058 0
M  V30 2526 H 234.437 0.198017 0.720277 0
M  V30 2527 H 237.099 1.16126 1.56527 0
M  V30 2528 H 236.195 0.736684 3.03281 0
M  V30 2529 N 236.496 -1.42363 0.676048 0
M  V30 2530 C 237.459 -2.29199 0.00766941 0
M  V30 2531 C 238.459 -1.43389 -0.727745 0
M  V30 2532 O 239.649 -1.64764 -0.56556 0
M  V30 2533 C 236.781 -3.2591 -0.999785 0
M  V30 2534 H 237.974 -2.89794 0.771988 0
M  V30 2535 H 235.527 -1.50024 0.438468 0
M  V30 2536 H 236.262 -2.70256 -1.79255 0
M  V30 2537 H 236.047 -3.89202 -0.475829 0
M  V30 2538 H 237.537 -3.91028 -1.46583 0
M  V30 2539 N 237.974 -0.419461 -1.51915 0
M  V30 2540 C 239.385 0.0477853 -1.86639 0
M  V30 2541 C 239.736 1.43531 -1.33766 0
M  V30 2542 O 238.861 2.05401 -0.68113 0
M  V30 2543 C 239.456 0.0934885 -3.38671 0
M  V30 2544 C 238.015 0.505097 -3.72996 0
M  V30 2545 C 237.162 -0.313792 -2.75519 0
M  V30 2546 H 240.113 -0.636088 -1.45395 0
M  V30 2547 H 240.134 0.906667 -3.6954 0
M  V30 2548 H 239.646 -0.916501 -3.77123 0
M  V30 2549 H 237.747 1.52135 -3.40126 0
M  V30 2550 H 237.86 0.242309 -4.78487 0
M  V30 2551 H 236.224 0.225363 -2.53701 0
M  V30 2552 H 237.007 -1.32232 -3.16812 0
M  V30 2553 N 239.452 1.56882 -0.150215 0
M  V30 2554 C 240.868 1.58263 0.20617 0
M  V30 2555 C 241.068 1.16464 1.64434 0
M  V30 2556 O 240.124 0.866422 2.3717 0
M  V30 2557 C 241.437 3.00649 -0.0555025 0
M  V30 2558 C 242.985 3.12999 0.00795388 0
M  V30 2559 C 243.46 4.5744 -0.226429 0
M  V30 2560 N 244.951 4.62875 -0.173469 0
M  V30 2561 C 245.686 5.72454 -0.329288 0
M  V30 2562 N 245.182 6.90669 -0.543005 0
M  V30 2563 N 246.975 5.61467 -0.266666 0
M  V30 2564 H 239.126 1.82345 -1.08922 0
M  V30 2565 H 241.389 0.844149 -0.431413 0
M  V30 2566 H 241.095 3.3563 -1.05096 0
M  V30 2567 H 240.969 3.71337 0.66246 0
M  V30 2568 H 243.356 2.77857 0.993966 0
M  V30 2569 H 243.437 2.4479 -0.742388 0
M  V30 2570 H 243.081 4.93287 -1.20956 0
M  V30 2571 H 243.011 5.2378 0.544274 0
M  V30 2572 H 245.502 3.77898 -0.0130709 0
M  V30 2573 H 245.815 7.70045 -0.651922 0
M  V30 2574 H 244.16 6.92581 -0.579366 0
M  V30 2575 H 247.351 4.67992 -0.100441 0
M  V30 2576 H 247.524 6.46816 -0.391535 0
M  V30 2577 N 240.93 -0.123565 1.57115 0
M  V30 2578 C 241.893 -1.13583 1.99076 0
M  V30 2579 C 242.893 -1.34564 0.880296 0
M  V30 2580 O 244.083 -1.31158 1.14644 0
M  V30 2581 C 241.215 -2.49128 2.32698 0
M  V30 2582 H 242.408 -0.775287 2.89706 0
M  V30 2583 H 239.961 -0.36771 1.51913 0
M  V30 2584 H 240.696 -2.90111 1.44934 0
M  V30 2585 H 240.481 -2.35255 3.13684 0
M  V30 2586 H 241.971 -3.2199 2.65918 0
M  V30 2587 N 242.408 -1.52605 -0.393616 0
M  V30 2588 C 243.657 -1.66649 -1.13627 0
M  V30 2589 C 243.97 -0.410364 -1.91247 0
M  V30 2590 O 245.176 -0.430854 -2.68059 0
M  V30 2591 C 243.632 -2.9449 -2.06891 0
M  V30 2592 C 243.24 -4.27266 -1.34714 0
M  V30 2593 C 244.984 -3.17899 -2.81319 0
M  V30 2594 C 242.891 -5.46217 -2.26717 0
M  V30 2595 H 241.821 -0.62084 -0.427871 0
M  V30 2596 H 244.472 -1.791 -0.399428 0
M  V30 2597 H 242.854 -2.75774 -2.84191 0
M  V30 2598 H 244.028 -4.56518 -0.626714 0
M  V30 2599 H 242.343 -4.10081 -0.722643 0
M  V30 2600 H 244.94 -4.03949 -3.50328 0
M  V30 2601 H 245.283 -2.32777 -3.45139 0
M  V30 2602 H 245.816 -3.37159 -2.11113 0
M  V30 2603 H 242.555 -6.33733 -1.67521 0
M  V30 2604 H 242.075 -5.21283 -2.96689 0
M  V30 2605 H 243.754 -5.7991 -2.86903 0
M  V30 2606 N 243.887 0.651787 -1.4349 0
M  V30 2607 C 245.133 1.41376 -1.45398 0
M  V30 2608 C 245.466 1.94041 -0.0784823 0
M  V30 2609 O 244.741 1.72379 0.900878 0
M  V30 2610 C 245.024 2.59414 -2.49752 0
M  V30 2611 C 244.877 2.12232 -3.96582 0
M  V30 2612 C 246.196 3.61626 -2.50827 0
M  V30 2613 H 243.315 0.512719 -0.529422 0
M  V30 2614 H 245.957 0.738796 -1.75048 0
M  V30 2615 H 244.107 3.16997 -2.246 0
M  V30 2616 H 245.779 1.59639 -4.32797 0
M  V30 2617 H 244.022 1.43592 -4.09346 0
M  V30 2618 H 244.693 2.9712 -4.65214 0
M  V30 2619 H 247.169 3.13805 -2.7325 0
M  V30 2620 H 246.045 4.41766 -3.25783 0
M  V30 2621 H 246.306 4.14314 -1.5426 0
M  V30 2622 N 245.365 1.30045 0.890287 0
M  V30 2623 C 246.315 1.12592 1.9826 0
M  V30 2624 C 247.299 0.0426021 1.60844 0
M  V30 2625 O 248.491 0.265346 1.75 0
M  V30 2626 C 245.62 0.814301 3.33503 0
M  V30 2627 C 244.706 1.93761 3.7725 0
M  V30 2628 N 245.097 3.18232 3.93143 0
M  V30 2629 C 243.395 1.83277 4.06602 0
M  V30 2630 C 244.096 3.9158 4.30163 0
M  V30 2631 N 243.072 3.19591 4.3973 0
M  V30 2632 H 246.874 2.07003 2.08631 0
M  V30 2633 H 244.388 1.21307 1.07974 0
M  V30 2634 H 246.385 0.67029 4.11476 0
M  V30 2635 H 245.045 -0.121797 3.24471 0
M  V30 2636 H 246.056 3.53581 3.78419 0
M  V30 2637 H 242.733 0.97001 4.06075 0
M  V30 2638 H 244.123 4.98744 4.50226 0
M  V30 2639 N 246.843 -1.10192 1.12674 0
M  V30 2640 C 248.09 -1.82205 0.883606 0
M  V30 2641 C 248.418 -1.8532 -0.590492 0
M  V30 2642 O 247.673 -1.31137 -1.45264 0
M  V30 2643 C 247.972 -3.28552 1.4067 0
M  V30 2644 C 247.638 -3.45582 2.89627 0
M  V30 2645 C 246.3 -3.49937 3.30299 0
M  V30 2646 C 248.652 -3.50768 3.85501 0
M  V30 2647 C 245.98 -3.57049 4.65546 0
M  V30 2648 C 248.332 -3.59414 5.20581 0
M  V30 2649 C 246.996 -3.62034 5.60792 0
M  V30 2650 H 246.266 -0.666735 0.323334 0
M  V30 2651 H 248.913 -1.29868 1.40736 0
M  V30 2652 H 247.218 -3.83473 0.80347 0
M  V30 2653 H 248.915 -3.82788 1.19475 0
M  V30 2654 H 245.505 -3.42871 2.57172 0
M  V30 2655 H 249.689 -3.46651 3.55171 0
M  V30 2656 H 244.945 -3.57361 4.96088 0
M  V30 2657 H 249.119 -3.62371 5.94693 0
M  V30 2658 H 246.746 -3.67298 6.6558 0
M  V30 2659 N 248.321 -0.919034 -1.28029 0
M  V30 2660 C 249.551 -0.570143 -1.98577 0
M  V30 2661 C 249.959 0.854172 -1.68821 0
M  V30 2662 O 249.302 1.57807 -0.940351 0
M  V30 2663 C 249.364 -0.705734 -3.52505 0
M  V30 2664 C 249.028 -2.10057 -4.05863 0
M  V30 2665 C 250.025 -3.07385 -4.19298 0
M  V30 2666 C 247.71 -2.41517 -4.40426 0
M  V30 2667 C 249.704 -4.34287 -4.66555 0
M  V30 2668 C 247.391 -3.68657 -4.87376 0
M  V30 2669 C 248.389 -4.64856 -5.00398 0
M  V30 2670 O 248.077 -5.89735 -5.46322 0
M  V30 2671 H 247.809 -0.215592 -0.6407 0
M  V30 2672 H 250.363 -1.23583 -1.64062 0
M  V30 2673 H 248.593 0.0170414 -3.86696 0
M  V30 2674 H 250.282 -0.363172 -4.04272 0
M  V30 2675 H 251.048 -2.84398 -3.92865 0
M  V30 2676 H 246.927 -1.67389 -4.29537 0
M  V30 2677 H 250.471 -5.09377 -4.76635 0
M  V30 2678 H 246.368 -3.91466 -5.13249 0
M  V30 2679 H 247.136 -5.92599 -5.64596 0
M  V30 2680 N 249.799 1.42003 -0.683588 0
M  V30 2681 C 250.747 2.326 0.000815408 0
M  V30 2682 C 251.741 1.50308 0.781278 0
M  V30 2683 O 252.947 1.66322 0.688251 0
M  V30 2684 H 249.322 0.751758 0.0190616 0
M  V30 2685 H 251.293 2.88011 -0.780528 0
M  V30 2686 C 250.042 3.34978 0.93195 0
M  V30 2687 H 249.365 3.98345 0.340817 0
M  V30 2688 H 250.805 4.00936 1.37936 0
M  V30 2689 C 249.264 2.67925 2.04249 0
M  V30 2690 O 249.794 2.51788 3.12995 0
M  V30 2691 N 248 2.2681 1.81675 0
M  V30 2692 H 247.547 2.40135 0.932363 0
M  V30 2693 H 247.505 1.8228 2.56167 0
M  V30 2694 N 251.277 0.427512 1.51691 0
M  V30 2695 C 252.502 -0.143601 2.06902 0
M  V30 2696 C 252.927 -1.36536 1.29382 0
M  V30 2697 O 252.285 -1.78289 0.329043 0
M  V30 2698 C 252.333 -0.454207 3.57728 0
M  V30 2699 O 251.437 -1.54228 3.82475 0
M  V30 2700 H 250.778 -0.00617128 0.663971 0
M  V30 2701 H 253.308 0.606014 1.95419 0
M  V30 2702 H 253.318 -0.707525 4.01818 0
M  V30 2703 H 251.993 0.438812 4.13579 0
M  V30 2704 H 250.57 -1.2797 3.50254 0
M  V30 2705 N 252.755 -1.56801 0.158532 0
M  V30 2706 C 253.983 -2.00859 -0.496303 0
M  V30 2707 C 254.398 -1.03871 -1.57659 0
M  V30 2708 O 253.755 -0.0375165 -1.82461 0
M  V30 2709 C 253.806 -3.4479 -1.08638 0
M  V30 2710 O 253.527 -4.38072 -0.0492322 0
M  V30 2711 C 255.028 -4.04185 -1.8207 0
M  V30 2712 H 252.248 -0.65864 -0.128199 0
M  V30 2713 H 254.792 -2.02885 0.256506 0
M  V30 2714 H 252.947 -3.43579 -1.78975 0
M  V30 2715 H 253.361 -5.2227 -0.483102 0
M  V30 2716 H 254.835 -5.06857 -2.18633 0
M  V30 2717 H 255.312 -3.45549 -2.71095 0
M  V30 2718 H 255.918 -4.0906 -1.16405 0
M  V30 2719 N 254.233 0.115231 -1.57178 0
M  V30 2720 C 255.458 0.840354 -1.89612 0
M  V30 2721 C 255.883 1.72464 -0.750845 0
M  V30 2722 O 255.241 1.78826 0.298478 0
M  V30 2723 C 255.289 1.64654 -3.20814 0
M  V30 2724 O 254.393 2.7538 -3.06985 0
M  V30 2725 H 253.734 0.232158 -0.622092 0
M  V30 2726 H 256.264 0.0964977 -2.04372 0
M  V30 2727 H 256.274 2.03499 -3.53627 0
M  V30 2728 H 254.949 0.997416 -4.03763 0
M  V30 2729 H 253.526 2.3971 -2.85646 0
M  V30 2730 N 255.711 1.52812 0.385517 0
M  V30 2731 C 256.96 1.67249 1.12741 0
M  V30 2732 C 257.273 0.4205 1.91027 0
M  V30 2733 O 258.479 0.445064 2.67827 0
M  V30 2734 C 256.935 2.95583 2.05326 0
M  V30 2735 C 256.543 4.27974 1.32447 0
M  V30 2736 C 258.287 3.19386 2.7963 0
M  V30 2737 C 256.194 5.47412 2.23818 0
M  V30 2738 H 255.124 0.6231 0.424573 0
M  V30 2739 H 257.775 1.79309 0.389924 0
M  V30 2740 H 256.157 2.77277 2.82725 0
M  V30 2741 H 257.331 4.56844 0.602495 0
M  V30 2742 H 255.646 4.10459 0.700885 0
M  V30 2743 H 258.243 4.05801 3.48181 0
M  V30 2744 H 258.586 2.34604 3.43899 0
M  V30 2745 H 259.119 3.38274 2.09322 0
M  V30 2746 H 255.858 6.34612 1.64157 0
M  V30 2747 H 255.378 5.22849 2.93921 0
M  V30 2748 H 257.057 5.81423 2.83824 0
M  V30 2749 N 257.189 -0.644168 1.43834 0
M  V30 2750 C 258.119 -1.76814 1.52509 0
M  V30 2751 C 259.1 -1.65823 0.379052 0
M  V30 2752 O 260.285 -1.84781 0.597466 0
M  V30 2753 C 257.415 -3.15288 1.4564 0
M  V30 2754 C 256.369 -3.41053 2.58586 0
M  V30 2755 C 255.695 -4.79421 2.36769 0
M  V30 2756 C 256.995 -3.34902 4.00797 0
M  V30 2757 H 258.689 -1.69812 2.46586 0
M  V30 2758 H 256.235 -0.815542 1.1868 0
M  V30 2759 H 258.188 -3.93681 1.50311 0
M  V30 2760 H 256.912 -3.23043 0.480725 0
M  V30 2761 H 255.571 -2.65035 2.53282 0
M  V30 2762 H 255.219 -4.83863 1.37424 0
M  V30 2763 H 254.919 -4.9762 3.12487 0
M  V30 2764 H 256.443 -5.6006 2.43238 0
M  V30 2765 H 257.857 -4.03218 4.07539 0
M  V30 2766 H 256.254 -3.64637 4.76613 0
M  V30 2767 H 257.324 -2.32928 4.25291 0
M  V30 2768 N 258.668 -1.30515 -0.883378 0
M  V30 2769 C 259.6 -1.12846 -1.99496 0
M  V30 2770 C 260.613 -0.0712571 -1.62644 0
M  V30 2771 O 261.802 -0.317432 -1.75655 0
M  V30 2772 C 258.902 -0.699123 -3.3161 0
M  V30 2773 C 258.075 -1.83842 -3.96889 0
M  V30 2774 C 257.134 -1.39737 -5.07307 0
M  V30 2775 O 256.16 -2.10485 -5.28852 0
M  V30 2776 N 257.362 -0.277279 -5.79837 0
M  V30 2777 H 260.127 -2.08585 -2.15203 0
M  V30 2778 H 257.688 -1.22672 -1.05656 0
M  V30 2779 H 259.68 -0.387044 -4.02845 0
M  V30 2780 H 258.25 0.166276 -3.12157 0
M  V30 2781 H 257.47 -2.31853 -3.18807 0
M  V30 2782 H 258.758 -2.60187 -4.37241 0
M  V30 2783 H 258.156 0.3122 -5.64838 0
M  V30 2784 H 256.713 -0.0246623 -6.51795 0
M  V30 2785 N 260.146 1.09593 -1.13257 0
M  V30 2786 C 261.562 1.33775 -0.870423 0
M  V30 2787 C 261.762 1.95327 0.494926 0
M  V30 2788 O 260.818 2.19853 1.2418 0
M  V30 2789 C 262.131 2.25106 -1.99369 0
M  V30 2790 C 263.679 2.3862 -2.02558 0
M  V30 2791 C 264.154 3.33285 -3.14142 0
M  V30 2792 N 265.645 3.40857 -3.13641 0
M  V30 2793 C 266.38 4.14101 -3.96621 0
M  V30 2794 N 265.876 4.90157 -4.8961 0
M  V30 2795 N 267.669 4.09808 -3.84726 0
M  V30 2796 H 259.82 0.680136 -2.01216 0
M  V30 2797 H 262.083 0.362133 -0.876107 0
M  V30 2798 H 261.789 1.87103 -2.97801 0
M  V30 2799 H 261.663 3.25481 -1.90635 0
M  V30 2800 H 264.05 2.75887 -1.0474 0
M  V30 2801 H 264.131 1.38028 -2.15364 0
M  V30 2802 H 263.775 2.96741 -4.12198 0
M  V30 2803 H 263.705 4.33776 -2.98574 0
M  V30 2804 H 266.196 2.86624 -2.46282 0
M  V30 2805 H 266.509 5.4347 -5.49418 0
M  V30 2806 H 264.854 4.89251 -4.93617 0
M  V30 2807 H 268.045 3.4949 -3.11408 0
M  V30 2808 H 268.218 4.66629 -4.49623 0
M  V30 2809 N 261.624 0.925811 1.2754 0
M  V30 2810 C 263.04 0.625767 1.46821 0
M  V30 2811 C 263.24 -0.825506 1.83814 0
M  V30 2812 O 262.296 -1.60356 1.95044 0
M  V30 2813 C 263.609 1.57402 2.56213 0
M  V30 2814 C 265.157 1.58204 2.70075 0
M  V30 2815 C 265.632 2.51721 3.82623 0
M  V30 2816 N 267.123 2.49917 3.89994 0
M  V30 2817 C 267.858 3.18968 4.76494 0
M  V30 2818 N 267.354 3.97391 5.67496 0
M  V30 2819 N 269.147 3.07996 4.70208 0
M  V30 2820 H 261.298 1.86409 1.01811 0
M  V30 2821 H 263.561 0.800213 0.508295 0
M  V30 2822 H 263.267 2.60925 2.35819 0
M  V30 2823 H 263.141 1.31428 3.53563 0
M  V30 2824 H 265.528 0.554124 2.89851 0
M  V30 2825 H 265.609 1.88226 1.73218 0
M  V30 2826 H 265.253 3.54622 3.63601 0
M  V30 2827 H 265.183 2.18996 4.78903 0
M  V30 2828 H 267.674 1.9296 3.24923 0
M  V30 2829 H 267.987 4.4707 6.30356 0
M  V30 2830 H 266.332 4.01495 5.67298 0
M  V30 2831 H 269.523 2.46223 3.9811 0
M  V30 2832 H 269.696 3.6208 5.37403 0
M  V30 2833 N 263.102 -1.41638 0.69111 0
M  V30 2834 C 264.348 -2.01598 0.220519 0
M  V30 2835 C 264.681 -1.54594 -1.17535 0
M  V30 2836 O 263.956 -0.755177 -1.79241 0
M  V30 2837 C 264.239 -3.59062 0.273243 0
M  V30 2838 C 264.092 -4.16203 1.70573 0
M  V30 2839 C 265.411 -4.38546 -0.369457 0
M  V30 2840 H 262.53 -0.732468 0.0816045 0
M  V30 2841 H 265.172 -1.68445 0.878986 0
M  V30 2842 H 263.322 -3.87435 -0.287411 0
M  V30 2843 H 264.994 -3.98722 2.31989 0
M  V30 2844 H 263.237 -3.71414 2.2413 0
M  V30 2845 H 263.908 -5.25358 1.69419 0
M  V30 2846 H 266.384 -4.1596 0.107977 0
M  V30 2847 H 265.26 -5.48069 -0.302002 0
M  V30 2848 H 265.521 -4.17662 -1.44951 0
M  V30 2849 N 264.58 -0.43555 -1.51462 0
M  V30 2850 C 265.826 0.131709 -2.02372 0
M  V30 2851 C 266.159 1.42516 -1.3192 0
M  V30 2852 O 265.434 1.89606 -0.433573 0
M  V30 2853 C 265.717 0.352301 -3.58373 0
M  V30 2854 C 265.57 -0.959676 -4.39443 0
M  V30 2855 C 266.889 1.12286 -4.25535 0
M  V30 2856 H 264.008 0.0463936 -0.735538 0
M  V30 2857 H 266.65 -0.574197 -1.81116 0
M  V30 2858 H 264.8 0.9536 -3.76615 0
M  V30 2859 H 266.472 -1.59482 -4.32855 0
M  V30 2860 H 264.715 -1.56468 -4.04599 0
M  V30 2861 H 265.386 -0.759394 -5.46752 0
M  V30 2862 H 267.862 0.613545 -4.11552 0
M  V30 2863 H 266.738 1.24598 -5.34571 0
M  V30 2864 H 266.999 2.15048 -3.86273 0
M  V30 2865 N 266.058 1.56714 -0.166846 0
M  V30 2866 C 267.305 1.96747 0.479252 0
M  V30 2867 C 267.633 1.05263 1.63554 0
M  V30 2868 O 266.888 0.0858098 1.95512 0
M  V30 2869 C 267.187 3.42889 1.00806 0
M  V30 2870 C 266.853 4.50889 -0.0318574 0
M  V30 2871 C 265.515 4.8015 -0.317675 0
M  V30 2872 C 267.867 5.15949 -0.737956 0
M  V30 2873 C 265.195 5.71772 -1.31506 0
M  V30 2874 C 267.547 6.08647 -1.72429 0
M  V30 2875 C 266.211 6.36277 -2.0176 0
M  V30 2876 H 265.481 0.719949 0.175371 0
M  V30 2877 H 268.128 1.89756 -0.257864 0
M  V30 2878 H 266.433 3.4681 1.82291 0
M  V30 2879 H 268.13 3.71203 1.51689 0
M  V30 2880 H 264.72 4.28128 0.201088 0
M  V30 2881 H 268.904 4.93458 -0.530351 0
M  V30 2882 H 264.16 5.91465 -1.54853 0
M  V30 2883 H 268.334 6.58129 -2.27682 0
M  V30 2884 H 265.961 7.07075 -2.79194 0
M  V30 2885 N 267.536 -0.106894 1.57237 0
M  V30 2886 C 268.952 -0.46078 1.52804 0
M  V30 2887 C 269.152 -1.81184 0.881746 0
M  V30 2888 O 268.208 -2.48102 0.469224 0
M  V30 2889 C 269.521 -0.434127 2.9755 0
M  V30 2890 C 271.069 -0.516821 3.08704 0
M  V30 2891 C 271.544 -0.520436 4.55033 0
M  V30 2892 N 273.035 -0.58153 4.59535 0
M  V30 2893 C 273.77 -0.605973 5.70189 0
M  V30 2894 N 273.266 -0.587331 6.90306 0
M  V30 2895 N 275.059 -0.649895 5.5833 0
M  V30 2896 H 267.21 0.778203 1.9763 0
M  V30 2897 H 269.473 0.288403 0.903066 0
M  V30 2898 H 269.179 0.491197 3.48253 0
M  V30 2899 H 269.053 -1.25748 3.55622 0
M  V30 2900 H 271.44 -1.43256 2.57995 0
M  V30 2901 H 271.521 0.334449 2.53604 0
M  V30 2902 H 271.165 0.391313 5.0639 0
M  V30 2903 H 271.095 -1.38876 5.07958 0
M  V30 2904 H 273.586 -0.60161 3.73081 0
M  V30 2905 H 273.899 -0.60894 7.70397 0
M  V30 2906 H 272.244 -0.554564 6.92784 0
M  V30 2907 H 275.435 -0.661907 4.63397 0
M  V30 2908 H 275.608 -0.665476 6.44574 0
M  V30 2909 N 269.014 -1.53014 -0.377408 0
M  V30 2910 C 269.977 -1.77957 -1.44444 0
M  V30 2911 C 270.977 -0.649763 -1.47087 0
M  V30 2912 O 272.167 -0.917897 -1.48055 0
M  V30 2913 C 269.299 -1.89089 -2.83651 0
M  V30 2914 H 270.492 -2.73243 -1.23606 0
M  V30 2915 H 268.045 -1.43912 -0.609844 0
M  V30 2916 H 268.78 -0.958293 -3.09818 0
M  V30 2917 H 268.565 -2.71254 -2.83132 0
M  V30 2918 H 270.055 -2.1002 -3.60945 0
M  V30 2919 N 270.492 0.636531 -1.44174 0
M  V30 2920 C 271.44 1.76995 -1.50915 0
M  V30 2921 C 272.434 1.65053 -0.381295 0
M  V30 2922 O 273.64 1.71197 -0.55601 0
M  V30 2923 H 270.015 0.584247 -0.473455 0
M  V30 2924 H 271.986 1.68432 -2.4632 0
M  V30 2925 C 270.735 3.15314 -1.46534 0
M  V30 2926 H 270.058 3.25149 -2.32633 0
M  V30 2927 H 271.498 3.9453 -1.55312 0
M  V30 2928 C 269.957 3.3639 -0.185305 0
M  V30 2929 O 270.487 3.94699 0.746688 0
M  V30 2930 N 268.693 2.9046 -0.0901606 0
M  V30 2931 H 268.24 2.43193 -0.849416 0
M  V30 2932 H 268.198 3.04937 0.765553 0
M  V30 2933 N 271.97 1.30982 0.876444 0
M  V30 2934 C 273.386 1.09498 1.16113 0
M  V30 2935 C 273.586 -0.13875 2.01022 0
M  V30 2936 O 272.642 -0.829935 2.38471 0
M  V30 2937 C 273.955 2.36308 1.85954 0
M  V30 2938 C 275.503 2.41856 1.98683 0
M  V30 2939 C 275.978 3.6853 2.71937 0
M  V30 2940 N 277.469 3.69387 2.79477 0
M  V30 2941 C 278.204 4.64096 3.36753 0
M  V30 2942 N 277.7 5.69155 3.95012 0
M  V30 2943 N 279.493 4.51626 3.3465 0
M  V30 2944 H 271.644 2.10118 0.310494 0
M  V30 2945 H 273.907 0.926634 0.200131 0
M  V30 2946 H 273.613 3.26388 1.31011 0
M  V30 2947 H 273.487 2.4561 2.86278 0
M  V30 2948 H 275.874 1.52249 2.52793 0
M  V30 2949 H 275.955 2.36523 0.9742 0
M  V30 2950 H 275.599 4.58499 2.18496 0
M  V30 2951 H 275.529 3.71127 3.73593 0
M  V30 2952 H 278.02 2.93438 2.38123 0
M  V30 2953 H 278.333 6.3751 4.36808 0
M  V30 2954 H 276.678 5.72937 3.93406 0
M  V30 2955 H 279.869 3.68728 2.8837 0
M  V30 2956 H 280.042 5.25614 3.7899 0
M  V30 2957 N 273.449 -1.08991 1.13837 0
M  V30 2958 C 274.412 -2.13925 0.822715 0
M  V30 2959 C 275.412 -1.599 -0.1699 0
M  V30 2960 O 276.602 -1.74104 0.0577251 0
M  V30 2961 C 273.734 -3.40155 0.225318 0
M  V30 2962 H 274.927 -2.43358 1.75262 0
M  V30 2963 H 272.48 -1.24603 0.943594 0
M  V30 2964 H 273.215 -3.16352 -0.713594 0
M  V30 2965 H 273 -3.80661 0.940193 0
M  V30 2966 H 274.49 -4.17594 0.0214784 0
M  V30 2967 N 274.927 -0.932562 -1.27047 0
M  V30 2968 C 275.837 -0.441219 -2.30414 0
M  V30 2969 C 276.853 0.480525 -1.67233 0
M  V30 2970 O 278.029 0.362151 -1.98117 0
M  V30 2971 C 275.094 0.293651 -3.45454 0
M  V30 2972 C 274.155 -0.663601 -4.2414 0
M  V30 2973 C 273.388 0.0362932 -5.33688 0
M  V30 2974 O 273.611 1.2548 -5.56427 0
M  V30 2975 O 272.545 -0.638015 -5.98509 0
M  V30 2976 H 276.371 -1.29962 -2.74488 0
M  V30 2977 H 273.956 -0.6981 -1.32087 0
M  V30 2978 H 275.838 0.707951 -4.15411 0
M  V30 2979 H 274.513 1.12758 -3.03426 0
M  V30 2980 H 273.42 -1.12768 -3.56699 0
M  V30 2981 H 274.753 -1.46489 -4.69896 0
M  V30 2982 N 276.405 1.4127 -0.698611 0
M  V30 2983 C 277.651 2.01478 -0.231207 0
M  V30 2984 C 277.984 1.55215 1.16713 0
M  V30 2985 O 277.259 0.764672 1.78838 0
M  V30 2986 C 277.542 3.58912 -0.292281 0
M  V30 2987 C 277.395 4.15293 -1.72778 0
M  V30 2988 C 278.714 4.38736 0.346194 0
M  V30 2989 H 275.833 0.732025 -0.0854878 0
M  V30 2990 H 278.475 1.67977 -0.887906 0
M  V30 2991 H 276.625 3.87582 0.26686 0
M  V30 2992 H 278.297 3.97486 -2.341 0
M  V30 2993 H 276.54 3.7022 -2.26096 0
M  V30 2994 H 277.211 5.24452 -1.72202 0
M  V30 2995 H 279.687 4.15897 -0.130035 0
M  V30 2996 H 278.563 5.48221 0.272932 0
M  V30 2997 H 278.824 4.18425 1.42734 0
M  V30 2998 N 277.883 0.443576 1.51229 0
M  V30 2999 C 278.815 -0.400608 2.25672 0
M  V30 3000 C 279.828 -0.980945 1.29928 0
M  V30 3001 O 281.017 -0.874024 1.55638 0
M  V30 3002 C 278.117 -1.57304 3.00181 0
M  V30 3003 C 277.29 -1.11046 4.23069 0
M  V30 3004 C 276.349 -2.15374 4.80105 0
M  V30 3005 O 275.375 -1.74554 5.41774 0
M  V30 3006 N 276.577 -3.47922 4.64683 0
M  V30 3007 H 279.342 0.23745 2.98758 0
M  V30 3008 H 276.903 0.272809 1.59585 0
M  V30 3009 H 278.895 -2.26733 3.35223 0
M  V30 3010 H 277.465 -2.11632 2.30066 0
M  V30 3011 H 276.685 -0.243019 3.9345 0
M  V30 3012 H 277.973 -0.778888 5.02803 0
M  V30 3013 H 277.371 -3.83815 4.15575 0
M  V30 3014 H 275.928 -4.13228 5.0407 0
M  V30 3015 N 279.361 -1.56624 0.175154 0
M  V30 3016 C 280.324 -2.16934 -0.739738 0
M  V30 3017 C 281.324 -1.11842 -1.15533 0
M  V30 3018 O 282.514 -1.37335 -1.07167 0
M  V30 3019 C 279.646 -2.75531 -2.00738 0
M  V30 3020 H 280.839 -2.99131 -0.214639 0
M  V30 3021 H 278.392 -1.56123 -0.0744197 0
M  V30 3022 H 279.127 -1.97078 -2.57548 0
M  V30 3023 H 278.912 -3.52444 -1.71831 0
M  V30 3024 H 280.402 -3.21904 -2.66021 0
M  V30 3025 N 280.839 0.0985539 -1.57292 0
M  V30 3026 C 282.088 0.801358 -1.85098 0
M  V30 3027 C 282.401 1.80066 -0.763902 0
M  V30 3028 O 283.607 2.55112 -0.928981 0
M  V30 3029 C 282.063 1.47599 -3.28242 0
M  V30 3030 C 281.671 0.516624 -4.45011 0
M  V30 3031 C 283.415 2.16272 -3.65276 0
M  V30 3032 C 281.322 1.19564 -5.79188 0
M  V30 3033 H 280.252 0.303022 -0.69043 0
M  V30 3034 H 282.903 0.0542623 -1.8342 0
M  V30 3035 H 281.285 2.27042 -3.2445 0
M  V30 3036 H 282.459 -0.246065 -4.60143 0
M  V30 3037 H 280.774 -0.064227 -4.1635 0
M  V30 3038 H 283.371 2.67802 -4.62803 0
M  V30 3039 H 283.714 2.95009 -2.93727 0
M  V30 3040 H 284.247 1.43693 -3.70941 0
M  V30 3041 H 280.986 0.449157 -6.53959 0
M  V30 3042 H 280.506 1.92984 -5.67906 0
M  V30 3043 H 282.185 1.7231 -6.23633 0
M  V30 3044 N 282.317 1.53212 0.369288 0
M  V30 3045 C 283.28 1.7872 1.43498 0
M  V30 3046 C 284.28 0.657554 1.46741 0
M  V30 3047 O 285.47 0.925736 1.47566 0
M  V30 3048 C 282.602 1.90591 2.82645 0
M  V30 3049 H 283.795 2.73894 1.22156 0
M  V30 3050 H 281.348 1.44233 0.602203 0
M  V30 3051 H 282.083 0.974709 3.09306 0
M  V30 3052 H 281.868 2.72751 2.8169 0
M  V30 3053 H 283.358 2.11931 3.59826 0
M  V30 3054 N 283.795 -0.628877 1.44509 0
M  V30 3055 C 285.023 -1.41554 1.50897 0
M  V30 3056 C 285.438 -1.8832 0.134564 0
M  V30 3057 O 284.795 -1.60969 -0.859965 0
M  V30 3058 C 284.846 -2.63435 2.47556 0
M  V30 3059 O 284.567 -2.18619 3.79654 0
M  V30 3060 C 286.068 -3.56537 2.63431 0
M  V30 3061 H 283.288 -0.434044 0.511709 0
M  V30 3062 H 285.832 -0.768895 1.89495 0
M  V30 3063 H 283.987 -3.24187 2.12089 0
M  V30 3064 H 284.401 -2.97652 4.31861 0
M  V30 3065 H 285.875 -4.38657 3.35088 0
M  V30 3066 H 286.352 -4.05493 1.68738 0
M  V30 3067 H 286.958 -3.01653 2.9981 0
M  V30 3068 N 285.273 -1.31445 -0.869486 0
M  V30 3069 C 286.55 -1.11795 -1.60503 0
M  V30 3070 C 286.93 0.327168 -2.08549 0
M  V30 3071 O 286.278 1.32135 -1.8642 0
M  V30 3072 C 286.488 -2.13258 -2.76265 0
M  V30 3073 C 287.836 -2.45805 -3.46215 0
M  V30 3074 O 288.86 -2.11688 -2.86473 0
M  V30 3075 O 287.719 -3.04228 -4.5399 0
M  V30 3076 H 284.813 -0.430421 -0.706163 0
M  V30 3077 H 287.359 -1.42925 -0.914907 0
M  V30 3078 H 286.131 -3.10461 -2.3818 0
M  V30 3079 H 285.754 -1.83035 -3.52964 0
M  V30 3080 N 286.751 1.08385 -1.14413 0
M  V30 3081 C 287.999 1.80419 -0.910679 0
M  V30 3082 C 288.32 1.86658 0.564243 0
M  V30 3083 O 287.59 1.35985 1.41014 0
M  V30 3084 H 286.17 0.668204 -0.333934 0
M  V30 3085 H 288.832 1.31037 -1.44275 0
M  V30 3086 H 287.928 2.83238 -1.31082 0
M  V30 3087 N 288.23 0.939286 1.26551 0
M  V30 3088 C 289.193 0.451987 2.24699 0
M  V30 3089 C 290.193 -0.435869 1.5478 0
M  V30 3090 O 291.383 -0.235314 1.72603 0
M  V30 3091 C 288.515 -0.348801 3.39111 0
M  V30 3092 H 289.708 1.3193 2.69322 0
M  V30 3093 H 287.261 0.721072 1.38673 0
M  V30 3094 H 287.996 -1.23444 2.99887 0
M  V30 3095 H 287.781 0.287945 3.91041 0
M  V30 3096 H 289.271 -0.679726 4.12031 0
M  V30 3097 N 289.708 -1.40897 0.706093 0
M  V30 3098 C 291.124 -1.55042 0.37869 0
M  V30 3099 C 291.324 -1.67944 -1.11342 0
M  V30 3100 O 290.38 -1.66372 -1.89938 0
M  V30 3101 C 291.693 -2.78398 1.13643 0
M  V30 3102 C 293.241 -2.92206 1.12181 0
M  V30 3103 C 293.716 -4.18463 1.86152 0
M  V30 3104 N 295.207 -4.25443 1.83173 0
M  V30 3105 C 295.942 -5.2202 2.37239 0
M  V30 3106 N 295.438 -6.24563 2.99821 0
M  V30 3107 N 297.231 -5.14033 2.27435 0
M  V30 3108 H 289.382 -1.30769 1.67372 0
M  V30 3109 H 291.645 -0.631653 0.706907 0
M  V30 3110 H 291.351 -2.7511 2.19106 0
M  V30 3111 H 291.225 -3.70228 0.721853 0
M  V30 3112 H 293.612 -2.95004 0.0754171 0
M  V30 3113 H 293.693 -2.01521 1.57554 0
M  V30 3114 H 293.337 -4.16427 2.90776 0
M  V30 3115 H 293.267 -5.08141 1.38206 0
M  V30 3116 H 295.758 -3.51976 1.37556 0
M  V30 3117 H 296.071 -6.94665 3.38616 0
M  V30 3118 H 294.416 -6.25035 3.03902 0
M  V30 3119 H 297.607 -4.3285 1.78208 0
M  V30 3120 H 297.78 -5.89129 2.69873 0
M  V30 3121 N 291.186 -0.45159 -1.50991 0
M  V30 3122 C 292.133 0.352625 -2.2809 0
M  V30 3123 C 293.103 1.0044 -1.32291 0
M  V30 3124 O 294.288 1.02058 -1.6121 0
M  V30 3125 C 291.428 1.43983 -3.13629 0
M  V30 3126 C 290.541 0.804772 -4.24438 0
M  V30 3127 C 289.676 1.86822 -4.97263 0
M  V30 3128 C 288.715 1.21236 -5.99973 0
M  V30 3129 N 287.852 2.2178 -6.66152 0
M  V30 3130 H 292.692 -0.311186 -2.96371 0
M  V30 3131 H 290.229 -0.165308 -1.46168 0
M  V30 3132 H 292.187 2.08161 -3.61559 0
M  V30 3133 H 290.817 2.07307 -2.47434 0
M  V30 3134 H 289.869 0.0509129 -3.80366 0
M  V30 3135 H 291.181 0.286076 -4.97979 0
M  V30 3136 H 290.335 2.58628 -5.48813 0
M  V30 3137 H 289.074 2.42068 -4.23385 0
M  V30 3138 H 288.079 0.479828 -5.47702 0
M  V30 3139 H 289.304 0.667051 -6.75816 0
M  V30 3140 H 287.25 2.76079 -5.95077 0
M  V30 3141 H 287.167 1.74841 -7.35504 0
M  V30 3142 H 288.435 2.93026 -7.22327 0
M  V30 3143 N 292.664 1.56529 -0.183458 0
M  V30 3144 C 293.904 1.99141 0.460667 0
M  V30 3145 C 294.268 1.06736 1.59597 0
M  V30 3146 O 295.469 1.38538 2.30349 0
M  V30 3147 C 293.74 3.45358 0.919939 0
M  V30 3148 S 295.299 4.09999 1.56354 0
M  V30 3149 H 292.117 0.695479 0.147748 0
M  V30 3150 H 294.719 1.93429 -0.283782 0
M  V30 3151 H 293.423 4.10315 0.0834208 0
M  V30 3152 H 292.954 3.54862 1.69814 0
M  V30 3153 H 294.969 4.06046 2.85203 0
M  V30 3154 N 294.142 -0.090211 1.57342 0
M  V30 3155 C 295.388 -0.793982 1.86611 0
M  V30 3156 C 295.721 -1.78142 0.773252 0
M  V30 3157 O 294.996 -1.93271 -0.218304 0
M  V30 3158 C 295.279 -1.51839 3.26523 0
M  V30 3159 C 295.132 -0.548609 4.46442 0
M  V30 3160 C 296.451 -2.46779 3.64401 0
M  V30 3161 H 293.57 -0.287186 0.678744 0
M  V30 3162 H 296.212 -0.0575076 1.89913 0
M  V30 3163 H 294.362 -2.14617 3.23839 0
M  V30 3164 H 296.034 0.0725513 4.61243 0
M  V30 3165 H 294.277 0.137614 4.33582 0
M  V30 3166 H 294.948 -1.09271 5.41076 0
M  V30 3167 H 297.424 -1.94089 3.68061 0
M  V30 3168 H 296.3 -2.94479 4.63221 0
M  V30 3169 H 296.561 -3.30758 2.93346 0
M  V30 3170 N 295.62 -1.53406 -0.361157 0
M  V30 3171 C 296.53 -1.83122 -1.4664 0
M  V30 3172 C 297.546 -0.719943 -1.58407 0
M  V30 3173 O 298.722 -1.01046 -1.74218 0
M  V30 3174 C 295.787 -2.01891 -2.81853 0
M  V30 3175 C 294.848 -3.25784 -2.79577 0
M  V30 3176 C 294.081 -3.43648 -4.0834 0
M  V30 3177 O 294.304 -2.65714 -5.0473 0
M  V30 3178 O 293.238 -4.37018 -4.13883 0
M  V30 3179 H 297.064 -2.7703 -1.24451 0
M  V30 3180 H 294.649 -1.38841 -0.551678 0
M  V30 3181 H 296.531 -2.15782 -3.61962 0
M  V30 3182 H 295.206 -1.11173 -3.0401 0
M  V30 3183 H 294.113 -3.17312 -1.98151 0
M  V30 3184 H 295.446 -4.16439 -2.62373 0
M  V30 3185 N 297.098 0.621204 -1.44841 0
M  V30 3186 C 298.03 1.74615 -1.48466 0
M  V30 3187 C 299.043 1.58377 -0.37691 0
M  V30 3188 O 300.232 1.66508 -0.643215 0
M  V30 3189 C 297.332 3.12459 -1.31236 0
M  V30 3190 C 296.505 3.55064 -2.55438 0
M  V30 3191 C 295.564 4.71821 -2.32963 0
M  V30 3192 O 294.59 4.79628 -3.06505 0
M  V30 3193 N 295.792 5.64186 -1.36654 0
M  V30 3194 H 298.557 1.71973 -2.45449 0
M  V30 3195 H 296.118 0.806077 -1.40407 0
M  V30 3196 H 298.11 3.88302 -1.14032 0
M  V30 3197 H 296.68 3.09686 -0.4258 0
M  V30 3198 H 295.9 2.69324 -2.87851 0
M  V30 3199 H 297.188 3.80284 -3.38026 0
M  V30 3200 H 296.586 5.6058 -0.759344 0
M  V30 3201 H 295.143 6.39618 -1.25425 0
M  V30 3202 N 298.576 1.31904 0.862503 0
M  V30 3203 C 299.539 1.20131 1.95195 0
M  V30 3204 C 300.539 0.126409 1.60302 0
M  V30 3205 O 301.729 0.376234 1.70089 0
M  V30 3206 C 298.861 0.845691 3.30244 0
M  V30 3207 H 300.054 2.16943 2.07064 0
M  V30 3208 H 297.607 1.15622 1.05172 0
M  V30 3209 H 298.342 -0.120957 3.24074 0
M  V30 3210 H 298.127 1.62276 3.56944 0
M  V30 3211 H 299.617 0.787418 4.10109 0
M  V30 3212 N 300.054 -1.07777 1.14986 0
M  V30 3213 C 301.017 -2.13041 0.845358 0
M  V30 3214 C 302.017 -1.60071 -0.152931 0
M  V30 3215 O 303.207 -1.74033 0.0761879 0
M  V30 3216 C 300.339 -3.39896 0.261383 0
M  V30 3217 H 301.532 -2.41485 1.77834 0
M  V30 3218 H 299.085 -1.23595 0.956757 0
M  V30 3219 H 299.82 -3.17091 -0.68 0
M  V30 3220 H 299.605 -3.79642 0.980514 0
M  V30 3221 H 301.095 -4.17548 0.0657687 0
M  V30 3222 N 301.532 -0.945985 -1.26051 0
M  V30 3223 C 302.479 -0.45809 -2.26208 0
M  V30 3224 C 303.449 0.484816 -1.58867 0
M  V30 3225 O 304.634 0.399969 -1.86561 0
M  V30 3226 C 301.774 0.266131 -3.44072 0
M  V30 3227 C 300.887 -0.713005 -4.26075 0
M  V30 3228 C 300.022 0.0329013 -5.3119 0
M  V30 3229 C 299.061 -0.93774 -6.04874 0
M  V30 3230 N 298.198 -0.223274 -7.01745 0
M  V30 3231 H 303.038 -1.3171 -2.67313 0
M  V30 3232 H 300.575 -0.66069 -1.31428 0
M  V30 3233 H 302.533 0.702514 -4.11243 0
M  V30 3234 H 301.163 1.08925 -3.03867 0
M  V30 3235 H 300.215 -1.26789 -3.58648 0
M  V30 3236 H 301.527 -1.45406 -4.77136 0
M  V30 3237 H 300.681 0.528335 -6.04395 0
M  V30 3238 H 299.42 0.806801 -4.8098 0
M  V30 3239 H 298.425 -1.44425 -5.30492 0
M  V30 3240 H 299.65 -1.71172 -6.57173 0
M  V30 3241 H 297.596 0.532046 -6.53839 0
M  V30 3242 H 297.513 -0.90357 -7.50581 0
M  V30 3243 H 298.781 0.250907 -7.79096 0
M  V30 3244 N 303.011 1.40521 -0.713556 0
M  V30 3245 C 304.241 2.0494 -0.261395 0
M  V30 3246 C 304.649 1.53861 1.10107 0
M  V30 3247 O 303.992 0.689321 1.70276 0
M  V30 3248 C 304.054 3.59138 -0.161227 0
M  V30 3249 C 303.718 4.33096 -1.45865 0
M  V30 3250 C 304.715 4.61182 -2.40016 0
M  V30 3251 C 302.4 4.72043 -1.71701 0
M  V30 3252 C 304.394 5.27196 -3.58251 0
M  V30 3253 C 302.081 5.37789 -2.90218 0
M  V30 3254 C 303.079 5.65295 -3.83315 0
M  V30 3255 O 302.767 6.29683 -4.99754 0
M  V30 3256 H 302.499 0.666041 -0.115608 0
M  V30 3257 H 305.053 1.80954 -0.971849 0
M  V30 3258 H 303.283 3.81936 0.605153 0
M  V30 3259 H 304.972 4.05091 0.256105 0
M  V30 3260 H 305.738 4.31559 -2.21318 0
M  V30 3261 H 301.617 4.50003 -1.00092 0
M  V30 3262 H 305.161 5.48582 -4.30934 0
M  V30 3263 H 301.058 5.66831 -3.08825 0
M  V30 3264 H 301.826 6.4818 -4.99805 0
M  V30 3265 N 304.489 0.459591 1.5075 0
M  V30 3266 C 305.9 0.00171547 1.867 0
M  V30 3267 C 306.251 -1.39934 1.37525 0
M  V30 3268 O 305.376 -2.03523 0.735349 0
M  V30 3269 C 305.971 -0.00366298 3.388 0
M  V30 3270 C 304.53 -0.406026 3.74204 0
M  V30 3271 C 303.677 0.38673 2.7459 0
M  V30 3272 H 306.628 0.674413 1.43657 0
M  V30 3273 H 306.649 -0.808371 3.71814 0
M  V30 3274 H 306.161 1.01617 3.74561 0
M  V30 3275 H 304.262 -1.43063 3.4404 0
M  V30 3276 H 304.375 -0.115362 4.78961 0
M  V30 3277 H 302.739 -0.158019 2.54209 0
M  V30 3278 H 303.522 1.40585 3.13194 0
M  V30 3279 N 305.967 -1.56429 0.191757 0
M  V30 3280 C 307.215 -1.97095 -0.447006 0
M  V30 3281 C 307.536 -1.07967 -1.62383 0
M  V30 3282 O 306.806 -0.150248 -1.95323 0
M  V30 3283 H 305.386 -0.727832 -0.168135 0
M  V30 3284 H 308.048 -1.92911 0.27771 0
M  V30 3285 H 307.144 -3.01848 -0.793371 0
M  V30 3286 N 307.445 0.0818655 -1.57387 0
M  V30 3287 C 308.673 0.796108 -1.9097 0
M  V30 3288 C 309.088 1.71626 -0.786757 0
M  V30 3289 O 308.445 1.80908 0.240513 0
M  V30 3290 C 308.496 1.59829 -3.24248 0
M  V30 3291 O 308.217 0.715131 -4.32224 0
M  V30 3292 C 309.718 2.41442 -3.7178 0
M  V30 3293 H 306.938 0.22691 -0.631469 0
M  V30 3294 H 309.482 0.0551439 -2.04426 0
M  V30 3295 H 307.637 2.29163 -3.12351 0
M  V30 3296 H 308.051 1.27205 -5.08841 0
M  V30 3297 H 309.525 2.932 -4.67694 0
M  V30 3298 H 310.002 3.2051 -3.00283 0
M  V30 3299 H 310.608 1.77283 -3.86589 0
M  V30 3300 N 308.923 1.53595 0.353017 0
M  V30 3301 C 309.855 1.77219 1.45348 0
M  V30 3302 C 310.868 0.65324 1.49119 0
M  V30 3303 O 312.057 0.929775 1.52373 0
M  V30 3304 C 309.157 1.84841 2.84055 0
M  V30 3305 C 308.33 3.14649 3.03833 0
M  V30 3306 C 307.389 3.13351 4.22727 0
M  V30 3307 O 306.415 3.87107 4.17297 0
M  V30 3308 N 307.617 2.35052 5.30783 0
M  V30 3309 H 310.382 2.72178 1.25457 0
M  V30 3310 H 307.943 1.52528 0.542833 0
M  V30 3311 H 309.935 1.81435 3.61751 0
M  V30 3312 H 308.505 0.971114 2.97133 0
M  V30 3313 H 307.725 3.31256 2.13689 0
M  V30 3314 H 309.013 4.00411 3.13925 0
M  V30 3315 H 308.411 1.74663 5.38061 0
M  V30 3316 H 306.968 2.37453 6.07009 0
M  V30 3317 N 310.401 -0.613514 1.45168 0
M  V30 3318 C 311.647 -1.37279 1.50087 0
M  V30 3319 C 312.002 -1.91902 0.138294 0
M  V30 3320 O 311.295 -1.71764 -0.84899 0
M  V30 3321 C 311.489 -2.54347 2.51083 0
M  V30 3322 C 311.318 -2.11186 3.97027 0
M  V30 3323 C 310.088 -1.97636 4.65046 0
M  V30 3324 C 312.286 -1.69016 4.85735 0
M  V30 3325 N 310.268 -1.48224 5.95737 0
M  V30 3326 C 311.639 -1.30976 6.06008 0
M  V30 3327 C 313.694 -1.56555 4.72647 0
M  V30 3328 C 312.397 -0.817197 7.14643 0
M  V30 3329 C 314.423 -1.08702 5.81324 0
M  V30 3330 C 313.785 -0.716233 7.00749 0
M  V30 3331 H 309.884 -0.496478 0.60418 0
M  V30 3332 H 312.468 -0.701988 1.81605 0
M  V30 3333 H 310.639 -3.19031 2.21527 0
M  V30 3334 H 312.371 -3.21208 2.46187 0
M  V30 3335 H 309.126 -2.18638 4.20112 0
M  V30 3336 H 309.55 -1.25767 6.65216 0
M  V30 3337 H 314.192 -1.83849 3.80736 0
M  V30 3338 H 311.91 -0.531797 8.06348 0
M  V30 3339 H 315.496 -0.994943 5.7323 0
M  V30 3340 H 314.376 -0.351642 7.83411 0
M  V30 3341 N 311.879 -1.3236 -0.855495 0
M  V30 3342 C 313.295 -1.11332 -1.14356 0
M  V30 3343 C 313.495 0.106751 -2.01217 0
M  V30 3344 O 312.551 0.791891 -2.39761 0
M  V30 3345 C 313.864 -2.39237 -1.82171 0
M  V30 3346 C 315.412 -2.44986 -1.9481 0
M  V30 3347 C 315.887 -3.7281 -2.66039 0
M  V30 3348 N 317.378 -3.73787 -2.73565 0
M  V30 3349 C 318.113 -4.69394 -3.29327 0
M  V30 3350 N 317.609 -5.75367 -3.85907 0
M  V30 3351 N 319.402 -4.56893 -3.27423 0
M  V30 3352 H 311.553 -2.10586 -0.277027 0
M  V30 3353 H 313.816 -0.929701 -0.185364 0
M  V30 3354 H 313.522 -3.28431 -1.25802 0
M  V30 3355 H 313.396 -2.50134 -2.82335 0
M  V30 3356 H 315.783 -1.56252 -2.50338 0
M  V30 3357 H 315.864 -2.38043 -0.936448 0
M  V30 3358 H 315.508 -4.61918 -2.11174 0
M  V30 3359 H 315.438 -3.77024 -3.67642 0
M  V30 3360 H 317.929 -2.97189 -2.33424 0
M  V30 3361 H 318.242 -6.44378 -4.26611 0
M  V30 3362 H 316.587 -5.79123 -3.84242 0
M  V30 3363 H 319.778 -3.73269 -2.82467 0
M  V30 3364 H 319.951 -5.31577 -3.7058 0
M  V30 3365 N 313.357 1.07166 -1.15556 0
M  V30 3366 C 314.604 1.79798 -0.931604 0
M  V30 3367 C 314.932 1.8682 0.54115 0
M  V30 3368 O 314.187 1.34942 1.41736 0
M  V30 3369 C 314.486 3.24707 -1.49332 0
M  V30 3370 C 314.152 3.37781 -2.98688 0
M  V30 3371 C 312.814 3.41057 -3.39461 0
M  V30 3372 C 315.166 3.40424 -3.94665 0
M  V30 3373 C 312.494 3.4458 -4.74849 0
M  V30 3374 C 314.846 3.45485 -5.29927 0
M  V30 3375 C 313.51 3.47039 -5.70193 0
M  V30 3376 H 312.78 0.657928 -0.340898 0
M  V30 3377 H 315.427 1.26091 -1.44129 0
M  V30 3378 H 313.732 3.81208 -0.904859 0
M  V30 3379 H 315.429 3.79486 -1.29582 0
M  V30 3380 H 312.019 3.35932 -2.66172 0
M  V30 3381 H 316.203 3.37113 -3.64237 0
M  V30 3382 H 311.459 3.44083 -5.05388 0
M  V30 3383 H 315.633 3.46476 -6.04092 0
M  V30 3384 H 313.26 3.49522 -6.75084 0
M  V30 3385 N 314.835 0.952656 1.25548 0
M  V30 3386 C 315.745 0.47782 2.29682 0
M  V30 3387 C 316.761 -0.453859 1.67977 0
M  V30 3388 O 317.937 -0.330587 1.98668 0
M  V30 3389 C 315.002 -0.238655 3.45878 0
M  V30 3390 C 314.063 0.730994 4.23031 0
M  V30 3391 C 313.296 0.0486165 5.33678 0
M  V30 3392 O 313.519 -1.16612 5.58353 0
M  V30 3393 O 312.453 0.733152 5.97418 0
M  V30 3394 H 316.279 1.34312 2.72386 0
M  V30 3395 H 313.864 0.719026 1.30959 0
M  V30 3396 H 315.746 -0.641774 4.16484 0
M  V30 3397 H 314.421 -1.07916 3.05181 0
M  V30 3398 H 313.328 1.18428 3.5486 0
M  V30 3399 H 314.661 1.53946 4.67506 0
M  V30 3400 N 316.313 -1.40141 0.720998 0
M  V30 3401 C 317.543 -2.04798 0.27226 0
M  V30 3402 C 317.951 -1.54442 -1.09289 0
M  V30 3403 O 317.294 -0.698342 -1.69908 0
M  V30 3404 C 317.356 -3.59048 0.18027 0
M  V30 3405 C 317.02 -4.32317 1.48159 0
M  V30 3406 C 318.017 -4.59902 2.42458 0
M  V30 3407 C 315.702 -4.71125 1.74202 0
M  V30 3408 C 317.696 -5.25288 3.61042 0
M  V30 3409 C 315.383 -5.36242 2.93066 0
M  V30 3410 C 316.381 -5.63254 3.86308 0
M  V30 3411 O 316.069 -6.27024 5.03086 0
M  V30 3412 H 315.801 -0.665419 0.119139 0
M  V30 3413 H 318.355 -1.80436 0.981432 0
M  V30 3414 H 316.585 -3.82251 -0.58489 0
M  V30 3415 H 318.274 -4.05221 -0.234618 0
M  V30 3416 H 319.04 -4.30379 2.23604 0
M  V30 3417 H 314.919 -4.49466 1.02477 0
M  V30 3418 H 318.463 -5.46289 4.33837 0
M  V30 3419 H 314.36 -5.65185 3.11826 0
M  V30 3420 H 315.128 -6.4552 5.03235 0
M  V30 3421 N 317.792 -0.46758 -1.50504 0
M  V30 3422 C 319.017 0.0886943 -2.0721 0
M  V30 3423 C 319.442 1.33057 -1.32956 0
M  V30 3424 O 318.8 1.77354 -0.376197 0
M  V30 3425 C 318.848 0.359202 -3.58806 0
M  V30 3426 O 317.952 1.44034 -3.8643 0
M  V30 3427 H 317.293 -0.0114349 -0.663902 0
M  V30 3428 H 319.823 -0.657613 -1.93744 0
M  V30 3429 H 319.833 0.600742 -4.03553 0
M  V30 3430 H 318.508 -0.548311 -4.1227 0
M  V30 3431 H 317.085 1.18638 -3.53524 0
M  V30 3432 N 319.27 1.56325 -0.20005 0
M  V30 3433 C 320.681 1.8408 0.31167 0
M  V30 3434 C 321.032 1.12087 1.61031 0
M  V30 3435 O 320.157 0.38332 2.12978 0
M  V30 3436 C 320.752 3.33932 0.57226 0
M  V30 3437 C 319.311 3.6208 1.02834 0
M  V30 3438 C 318.458 2.77186 0.079634 0
M  V30 3439 H 321.409 1.52939 -0.423729 0
M  V30 3440 H 321.43 3.52971 1.42096 0
M  V30 3441 H 320.942 3.86303 -0.37308 0
M  V30 3442 H 319.043 3.15147 1.98778 0
M  V30 3443 H 319.156 4.7023 0.917624 0
M  V30 3444 H 317.52 2.47951 0.582448 0
M  V30 3445 H 318.303 3.32347 -0.860238 0
M  V30 3446 N 320.748 -0.0735177 1.57428 0
M  V30 3447 C 321.658 -1.10547 2.06922 0
M  V30 3448 C 322.674 -1.42506 0.998402 0
M  V30 3449 O 323.85 -1.52717 1.31299 0
M  V30 3450 C 320.915 -2.40019 2.50184 0
M  V30 3451 C 319.976 -2.15046 3.71556 0
M  V30 3452 C 319.209 -3.38345 4.12745 0
M  V30 3453 O 319.432 -4.47399 3.53822 0
M  V30 3454 O 318.366 -3.2666 5.05546 0
M  V30 3455 H 322.192 -0.715013 2.95163 0
M  V30 3456 H 319.777 -0.287531 1.46607 0
M  V30 3457 H 321.659 -3.16218 2.78539 0
M  V30 3458 H 320.334 -2.78447 1.65072 0
M  V30 3459 H 319.241 -1.36558 3.48285 0
M  V30 3460 H 320.574 -1.81499 4.57514 0
M  V30 3461 N 322.226 -1.5378 -0.344866 0
M  V30 3462 C 323.451 -1.75211 -1.10977 0
M  V30 3463 C 323.876 -0.48936 -1.81623 0
M  V30 3464 O 323.234 0.557925 -1.72502 0
M  V30 3465 C 323.282 -2.93147 -2.09993 0
M  V30 3466 O 322.386 -2.63203 -3.17487 0
M  V30 3467 H 321.727 -0.581241 -0.321021 0
M  V30 3468 H 324.257 -2.00738 -0.395661 0
M  V30 3469 H 324.267 -3.19898 -2.53237 0
M  V30 3470 H 322.942 -3.84731 -1.5797 0
M  V30 3471 H 321.519 -2.47336 -2.79069 0
M  V30 3472 N 323.704 0.605807 -1.45491 0
M  V30 3473 C 324.934 1.38934 -1.52908 0
M  V30 3474 C 325.342 1.88513 -0.161086 0
M  V30 3475 O 324.685 1.62962 0.847891 0
M  V30 3476 C 324.747 2.62737 -2.45376 0
M  V30 3477 C 324.411 2.34785 -3.92078 0
M  V30 3478 C 325.408 1.95038 -4.8193 0
M  V30 3479 C 323.093 2.47642 -4.37011 0
M  V30 3480 C 325.087 1.68511 -6.14722 0
M  V30 3481 C 322.774 2.20728 -5.69844 0
M  V30 3482 C 323.772 1.81225 -6.58519 0
M  V30 3483 O 323.46 1.54627 -7.88889 0
M  V30 3484 H 323.192 0.431629 -0.520262 0
M  V30 3485 H 325.746 0.74573 -1.91384 0
M  V30 3486 H 323.976 3.29824 -2.01874 0
M  V30 3487 H 325.665 3.24783 -2.43456 0
M  V30 3488 H 326.431 1.84639 -4.48479 0
M  V30 3489 H 322.31 2.77356 -3.68232 0
M  V30 3490 H 325.854 1.37602 -6.83894 0
M  V30 3491 H 321.751 2.30744 -6.02849 0
M  V30 3492 H 322.519 1.68665 -8.00933 0
M  V30 3493 N 325.182 1.32811 0.848464 0
M  V30 3494 C 326.41 1.26739 1.63538 0
M  V30 3495 C 326.825 -0.163484 1.88091 0
M  V30 3496 O 326.182 -1.10258 1.45429 0
M  V30 3497 C 326.233 2.03013 2.99112 0
M  V30 3498 O 325.954 3.40518 2.75643 0
M  V30 3499 C 327.455 2.04038 3.93552 0
M  V30 3500 H 324.675 0.437024 0.509167 0
M  V30 3501 H 327.219 1.75033 1.05753 0
M  V30 3502 H 325.374 1.58426 3.53525 0
M  V30 3503 H 325.788 3.79635 3.61908 0
M  V30 3504 H 327.262 2.61877 4.85926 0
M  V30 3505 H 327.739 1.0282 4.26995 0
M  V30 3506 H 328.345 2.486 3.45077 0
M  V30 3507 N 326.66 -1.06551 1.16123 0
M  V30 3508 C 327.908 -1.78947 0.939267 0
M  V30 3509 C 328.229 -1.87532 -0.534476 0
M  V30 3510 O 327.499 -1.38211 -1.38833 0
M  V30 3511 H 326.079 -0.662807 0.344523 0
M  V30 3512 H 328.741 -1.28725 1.46342 0
M  V30 3513 H 327.837 -2.81117 1.35572 0
M  V30 3514 N 328.138 -0.959301 -1.25041 0
M  V30 3515 C 329.366 -0.633949 -1.96948 0
M  V30 3516 C 329.781 0.794916 -1.7125 0
M  V30 3517 O 329.138 1.53231 -0.991287 0
M  V30 3518 C 329.189 -0.888805 -3.50403 0
M  V30 3519 O 328.91 -2.26149 -3.75218 0
M  V30 3520 C 330.411 -0.576482 -4.39536 0
M  V30 3521 H 327.631 -0.237263 -0.627652 0
M  V30 3522 H 330.175 -1.28495 -1.59089 0
M  V30 3523 H 328.33 -0.284145 -3.86357 0
M  V30 3524 H 328.744 -2.33514 -4.6965 0
M  V30 3525 H 330.218 -0.805314 -5.46094 0
M  V30 3526 H 330.695 0.489075 -4.36468 0
M  V30 3527 H 331.301 -1.16067 -4.09156 0
M  V30 3528 N 329.616 1.39756 -0.72842 0
M  V30 3529 C 330.526 2.34444 -0.0855374 0
M  V30 3530 C 331.542 1.57976 0.729356 0
M  V30 3531 O 332.718 1.90301 0.659346 0
M  V30 3532 C 329.783 3.36965 0.815798 0
M  V30 3533 C 328.844 4.29299 -0.0105996 0
M  V30 3534 C 328.077 5.26923 0.84781 0
M  V30 3535 O 328.3 5.30859 2.08673 0
M  V30 3536 O 327.234 6.01249 0.279969 0
M  V30 3537 H 331.06 2.91065 -0.866892 0
M  V30 3538 H 328.645 1.4117 -0.48902 0
M  V30 3539 H 330.527 3.99804 1.33171 0
M  V30 3540 H 329.202 2.82739 1.57608 0
M  V30 3541 H 328.109 3.69703 -0.571877 0
M  V30 3542 H 329.442 4.86712 -0.73295 0
M  V30 3543 N 331.094 0.475555 1.50254 0
M  V30 3544 C 332.024 -0.30611 2.31485 0
M  V30 3545 C 333.005 -0.986228 1.38591 0
M  V30 3546 O 334.19 -0.982541 1.67511 0
M  V30 3547 C 331.32 -1.38588 3.1845 0
M  V30 3548 C 330.274 -0.827115 4.19932 0
M  V30 3549 C 329.6 -2.00551 4.95665 0
M  V30 3550 C 330.9 0.16463 5.2204 0
M  V30 3551 H 332.594 0.371866 2.97082 0
M  V30 3552 H 330.14 0.180282 1.42867 0
M  V30 3553 H 332.093 -1.94023 3.74076 0
M  V30 3554 H 330.817 -2.09269 2.50747 0
M  V30 3555 H 329.476 -0.294702 3.65414 0
M  V30 3556 H 329.124 -2.6994 4.2443 0
M  V30 3557 H 328.824 -1.63784 5.64313 0
M  V30 3558 H 330.348 -2.56468 5.54127 0
M  V30 3559 H 331.762 -0.300699 5.72511 0
M  V30 3560 H 330.159 0.446813 5.98434 0
M  V30 3561 H 331.229 1.08905 4.72512 0
M  V30 3562 N 332.573 -1.56217 0.208337 0
M  V30 3563 C 333.483 -2.23316 -0.718836 0
M  V30 3564 C 334.499 -1.23648 -1.22422 0
M  V30 3565 O 335.675 -1.56423 -1.26861 0
M  V30 3566 C 332.74 -2.88968 -1.91568 0
M  V30 3567 C 331.801 -4.03943 -1.45357 0
M  V30 3568 C 331.034 -4.66455 -2.59337 0
M  V30 3569 O 331.257 -4.27919 -3.77149 0
M  V30 3570 O 330.191 -5.55686 -2.31293 0
M  V30 3571 H 334.017 -3.03182 -0.177315 0
M  V30 3572 H 331.602 -1.49384 -0.0215402 0
M  V30 3573 H 333.484 -3.30455 -2.61491 0
M  V30 3574 H 332.159 -2.12071 -2.44556 0
M  V30 3575 H 331.066 -3.67052 -0.722746 0
M  V30 3576 H 332.399 -4.82543 -0.970219 0
M  V30 3577 N 334.051 0.0651679 -1.57465 0
M  V30 3578 C 335.281 0.774683 -1.91526 0
M  V30 3579 C 335.689 1.71305 -0.803196 0
M  V30 3580 O 335.032 1.82231 0.231881 0
M  V30 3581 C 335.094 1.61645 -3.21109 0
M  V30 3582 C 334.758 0.846753 -4.49087 0
M  V30 3583 C 335.755 0.163024 -5.19644 0
M  V30 3584 C 333.44 0.811966 -4.95694 0
M  V30 3585 C 335.434 -0.54519 -6.35064 0
M  V30 3586 C 333.121 0.0999836 -6.11018 0
M  V30 3587 C 334.119 -0.577388 -6.80555 0
M  V30 3588 O 333.807 -1.27789 -7.93678 0
M  V30 3589 H 333.539 0.225031 -0.637446 0
M  V30 3590 H 336.093 0.0377134 -2.05365 0
M  V30 3591 H 334.323 2.39638 -3.03497 0
M  V30 3592 H 336.012 2.20525 -3.40769 0
M  V30 3593 H 336.778 0.181163 -4.84662 0
M  V30 3594 H 332.657 1.32867 -4.41438 0
M  V30 3595 H 336.201 -1.07446 -6.89276 0
M  V30 3596 H 332.098 0.0797945 -6.45451 0
M  V30 3597 H 332.866 -1.18784 -8.09835 0
M  V30 3598 N 335.529 1.53961 0.336706 0
M  V30 3599 C 336.492 1.81724 1.39675 0
M  V30 3600 C 337.492 0.688532 1.45313 0
M  V30 3601 O 338.682 0.956829 1.45569 0
M  V30 3602 C 335.814 1.96543 2.78538 0
M  V30 3603 H 337.007 2.76424 1.16318 0
M  V30 3604 H 334.56 1.45478 0.571474 0
M  V30 3605 H 335.295 1.0401 3.07168 0
M  V30 3606 H 335.08 2.78665 2.75841 0
M  V30 3607 H 336.57 2.19516 3.5525 0
M  V30 3608 N 337.007 -0.598083 1.45811 0
M  V30 3609 C 337.954 -1.7082 1.55207 0
M  V30 3610 C 338.924 -1.61278 0.39732 0
M  V30 3611 O 340.109 -1.80717 0.612038 0
M  V30 3612 C 337.249 -3.09144 1.53376 0
M  V30 3613 C 336.362 -3.29423 2.79472 0
M  V30 3614 C 335.497 -4.57907 2.69248 0
M  V30 3615 C 334.536 -4.71476 3.90354 0
M  V30 3616 N 333.673 -5.9127 3.78608 0
M  V30 3617 H 338.513 -1.62125 2.50039 0
M  V30 3618 H 336.05 -0.790389 1.24062 0
M  V30 3619 H 338.008 -3.89186 1.50301 0
M  V30 3620 H 336.638 -3.16773 0.620876 0
M  V30 3621 H 335.69 -2.43091 2.92594 0
M  V30 3622 H 337.002 -3.3532 3.69272 0
M  V30 3623 H 336.156 -5.46157 2.64192 0
M  V30 3624 H 334.895 -4.54423 1.77063 0
M  V30 3625 H 333.9 -3.81648 3.95759 0
M  V30 3626 H 335.125 -4.76751 4.83617 0
M  V30 3627 H 333.071 -5.88813 2.89199 0
M  V30 3628 H 332.988 -5.98369 4.6205 0
M  V30 3629 H 334.256 -6.81992 3.77501 0
M  V30 3630 N 338.485 -1.33259 -0.841409 0
M  V30 3631 C 339.417 -1.19136 -1.95804 0
M  V30 3632 C 340.43 -0.122965 -1.62335 0
M  V30 3633 O 341.619 -0.373154 -1.74556 0
M  V30 3634 C 338.719 -0.804268 -3.29218 0
M  V30 3635 C 337.892 -1.96376 -3.90839 0
M  V30 3636 C 336.951 -1.55806 -5.02604 0
M  V30 3637 O 335.977 -2.27203 -5.21888 0
M  V30 3638 N 337.179 -0.461609 -5.78662 0
M  V30 3639 H 339.944 -2.15326 -2.08458 0
M  V30 3640 H 337.505 -1.25971 -1.017 0
M  V30 3641 H 339.497 -0.51501 -4.0141 0
M  V30 3642 H 338.067 0.0668809 -3.12528 0
M  V30 3643 H 337.287 -2.41879 -3.11269 0
M  V30 3644 H 338.575 -2.73966 -4.28742 0
M  V30 3645 H 337.973 0.132343 -5.65545 0
M  V30 3646 H 336.53 -0.232013 -6.51387 0
M  V30 3647 N 339.963 1.05934 -1.16686 0
M  V30 3648 C 341.209 1.79065 -0.95203 0
M  V30 3649 C 341.542 1.87147 0.518629 0
M  V30 3650 O 340.817 1.36574 1.38484 0
M  V30 3651 C 341.1 3.23359 -1.58464 0
M  V30 3652 C 340.953 3.23336 -3.12689 0
M  V30 3653 C 342.272 4.21004 -1.28232 0
M  V30 3654 H 339.391 0.65005 -0.34728 0
M  V30 3655 H 342.033 1.23868 -1.44072 0
M  V30 3656 H 340.183 3.70493 -1.16908 0
M  V30 3657 H 341.855 2.84336 -3.6325 0
M  V30 3658 H 340.098 2.61886 -3.4583 0
M  V30 3659 H 340.769 4.25144 -3.52075 0
M  V30 3660 H 343.245 3.8233 -1.64203 0
M  V30 3661 H 342.121 5.20225 -1.75092 0
M  V30 3662 H 342.382 4.41639 -0.201791 0
M  V30 3663 N 341.441 0.965919 1.2453 0
M  V30 3664 C 342.681 0.634656 1.94297 0
M  V30 3665 C 343.045 -0.814822 1.73852 0
M  V30 3666 O 344.246 -1.25622 2.3764 0
M  V30 3667 C 342.517 0.99702 3.43212 0
M  V30 3668 S 344.076 0.780038 4.31811 0
M  V30 3669 H 340.894 0.232893 0.671775 0
M  V30 3670 H 343.496 1.24249 1.50938 0
M  V30 3671 H 342.2 2.04886 3.55598 0
M  V30 3672 H 341.731 0.379888 3.91562 0
M  V30 3673 H 343.746 -0.343512 4.9501 0
M  V30 3674 N 342.919 -1.39368 0.735821 0
M  V30 3675 C 344.196 -1.94465 0.210395 0
M  V30 3676 C 344.576 -1.67254 -1.28799 0
M  V30 3677 O 343.924 -1.00123 -2.05396 0
M  V30 3678 C 344.134 -3.4472 0.544897 0
M  V30 3679 C 345.482 -4.21708 0.494689 0
M  V30 3680 O 346.506 -3.52922 0.482136 0
M  V30 3681 O 345.365 -5.44299 0.489947 0
M  V30 3682 H 342.459 -0.826096 0.0386666 0
M  V30 3683 H 345.005 -1.48863 0.814735 0
M  V30 3684 H 343.777 -3.57963 1.58045 0
M  V30 3685 H 343.4 -3.97502 -0.08837 0
M  V30 3686 N 344.397 -0.483516 -1.5 0
M  V30 3687 C 345.36 0.292965 -2.2732 0
M  V30 3688 C 346.36 0.909499 -1.32608 0
M  V30 3689 O 347.55 0.776745 -1.55924 0
M  V30 3690 C 344.682 1.41854 -3.09984 0
M  V30 3691 H 345.875 -0.385289 -2.97415 0
M  V30 3692 H 343.428 -0.237942 -1.54478 0
M  V30 3693 H 344.163 2.13148 -2.44414 0
M  V30 3694 H 343.948 0.982114 -3.79601 0
M  V30 3695 H 345.438 1.96597 -3.68429 0
M  V30 3696 N 345.875 1.56104 -0.216619 0
M  V30 3697 C 347.121 1.98466 0.417033 0
M  V30 3698 C 347.454 1.10403 1.59765 0
M  V30 3699 O 346.729 0.160632 1.93836 0
M  V30 3700 C 347.012 3.49769 0.85637 0
M  V30 3701 C 346.865 4.48606 -0.327546 0
M  V30 3702 C 348.184 4.05339 1.7143 0
M  V30 3703 H 345.303 0.721551 0.150112 0
M  V30 3704 H 347.945 1.87423 -0.311864 0
M  V30 3705 H 346.095 3.5931 1.47745 0
M  V30 3706 H 347.767 4.5108 -0.965618 0
M  V30 3707 H 346.01 4.22682 -0.975805 0
M  V30 3708 H 346.681 5.51995 0.0227149 0
M  V30 3709 H 349.157 3.98712 1.19031 0
M  V30 3710 H 348.033 5.11533 1.99061 0
M  V30 3711 H 348.294 3.51918 2.67593 0
M  V30 3712 N 347.353 -0.0568162 1.57498 0
M  V30 3713 C 348.601 -0.751617 1.87604 0
M  V30 3714 C 348.922 -1.77351 0.81066 0
M  V30 3715 O 348.192 -1.95254 -0.159018 0
M  V30 3716 H 346.772 -0.280583 0.692302 0
M  V30 3717 H 349.434 -0.0293483 1.94878 0
M  V30 3718 H 348.53 -1.25852 2.856 0
M  V30 3719 N 348.832 -1.54138 -0.328536 0
M  V30 3720 C 349.742 -1.86192 -1.42723 0
M  V30 3721 C 350.758 -0.753382 -1.56844 0
M  V30 3722 O 351.934 -1.04718 -1.72035 0
M  V30 3723 C 348.999 -2.07824 -2.77507 0
M  V30 3724 C 348.06 -3.31641 -2.72603 0
M  V30 3725 C 347.293 -3.52232 -4.00959 0
M  V30 3726 O 347.516 -2.7636 -4.9898 0
M  V30 3727 O 346.45 -4.45699 -4.0452 0
M  V30 3728 H 350.276 -2.79608 -1.18547 0
M  V30 3729 H 347.861 -1.3998 -0.522104 0
M  V30 3730 H 349.743 -2.23411 -3.57303 0
M  V30 3731 H 348.418 -1.17596 -3.01584 0
M  V30 3732 H 347.325 -3.21444 -1.91376 0
M  V30 3733 H 348.658 -4.2191 -2.53481 0
M  V30 3734 N 350.31 0.590341 -1.46126 0
M  V30 3735 C 351.556 1.35082 -1.51264 0
M  V30 3736 C 351.889 1.93534 -0.160711 0
M  V30 3737 O 351.164 1.76045 0.826956 0
M  V30 3738 C 351.447 2.48588 -2.6053 0
M  V30 3739 C 351.3 1.95221 -4.05227 0
M  V30 3740 C 352.619 3.50662 -2.6594 0
M  V30 3741 H 349.738 0.489803 -0.550692 0
M  V30 3742 H 352.38 0.663887 -1.78024 0
M  V30 3743 H 350.53 3.07186 -2.37843 0
M  V30 3744 H 352.202 1.41139 -4.39178 0
M  V30 3745 H 350.445 1.26101 -4.15068 0
M  V30 3746 H 351.116 2.77121 -4.77397 0
M  V30 3747 H 353.592 3.01934 -2.86313 0
M  V30 3748 H 352.468 4.27551 -3.44226 0
M  V30 3749 H 352.729 4.07399 -1.71694 0
M  V30 3750 N 351.788 1.33704 0.83433 0
M  V30 3751 C 353.037 1.24763 1.58484 0
M  V30 3752 C 353.35 -0.183775 1.94735 0
M  V30 3753 O 354.556 -0.395234 2.68608 0
M  V30 3754 C 353.012 2.18638 2.85876 0
M  V30 3755 C 352.62 3.66974 2.56971 0
M  V30 3756 C 354.364 2.18581 3.63899 0
M  V30 3757 C 352.271 4.5275 3.80488 0
M  V30 3758 H 351.201 0.463425 0.594772 0
M  V30 3759 H 353.852 1.58797 0.919551 0
M  V30 3760 H 352.234 1.77542 3.5397 0
M  V30 3761 H 353.408 4.16538 1.9706 0
M  V30 3762 H 351.723 3.69366 1.92244 0
M  V30 3763 H 354.32 2.79894 4.55591 0
M  V30 3764 H 354.663 1.18207 3.99165 0
M  V30 3765 H 355.196 2.58062 3.02735 0
M  V30 3766 H 351.935 5.54017 3.5035 0
M  V30 3767 H 351.455 4.07927 4.39722 0
M  V30 3768 H 353.134 4.66784 4.4802 0
M  V30 3769 N 353.266 -1.05314 1.17247 0
M  V30 3770 C 354.229 -2.112 0.890357 0
M  V30 3771 C 355.229 -1.60359 -0.118943 0
M  V30 3772 O 356.419 -1.73833 0.113086 0
M  V30 3773 C 353.551 -3.39266 0.333422 0
M  V30 3774 H 354.744 -2.37659 1.82916 0
M  V30 3775 H 352.297 -1.21538 0.982758 0
M  V30 3776 H 353.032 -3.18462 -0.612587 0
M  V30 3777 H 352.817 -3.77477 1.06082 0
M  V30 3778 H 354.307 -4.17315 0.154322 0
M  V30 3779 N 354.744 -0.972509 -1.24016 0
M  V30 3780 C 356.155 -0.67517 -1.74064 0
M  V30 3781 C 356.506 0.808939 -1.78747 0
M  V30 3782 O 355.631 1.63286 -1.42009 0
M  V30 3783 C 356.226 -1.21889 -3.16115 0
M  V30 3784 C 354.785 -0.971358 -3.6365 0
M  V30 3785 C 353.932 -1.35134 -2.42145 0
M  V30 3786 H 356.883 -1.14727 -1.09651 0
M  V30 3787 H 356.904 -0.587489 -3.75937 0
M  V30 3788 H 356.416 -2.29906 -3.12674 0
M  V30 3789 H 354.517 0.0930686 -3.72484 0
M  V30 3790 H 354.63 -1.62039 -4.50866 0
M  V30 3791 H 352.994 -0.769751 -2.4279 0
M  V30 3792 H 353.777 -2.4411 -2.41381 0
M  V30 3793 N 356.222 1.38976 -0.743202 0
M  V30 3794 C 357.45 2.04636 -0.30525 0
M  V30 3795 C 357.865 1.56044 1.06281 0
M  V30 3796 O 357.222 0.728921 1.67311 0
M  V30 3797 C 357.273 3.60193 -0.307177 0
M  V30 3798 O 356.994 4.06998 -1.62124 0
M  V30 3799 C 358.495 4.4306 0.145928 0
M  V30 3800 H 355.715 0.65788 -0.132041 0
M  V30 3801 H 358.259 1.77866 -1.00915 0
M  V30 3802 H 356.414 3.85835 0.347898 0
M  V30 3803 H 356.828 5.01371 -1.54036 0
M  V30 3804 H 358.302 5.51921 0.0934183 0
M  V30 3805 H 358.779 4.22706 1.19231 0
M  V30 3806 H 359.385 4.22584 -0.479886 0
M  V30 3807 N 357.7 0.491464 1.49741 0
M  V30 3808 C 359.111 0.0413169 1.86654 0
M  V30 3809 C 359.462 -1.36985 1.40462 0
M  V30 3810 O 358.587 -2.01917 0.778354 0
M  V30 3811 C 359.182 0.0682023 3.38731 0
M  V30 3812 C 357.741 -0.32656 3.74981 0
M  V30 3813 C 356.888 0.444888 2.73708 0
M  V30 3814 H 359.839 0.704733 1.42194 0
M  V30 3815 H 359.86 -0.729322 3.73445 0
M  V30 3816 H 359.372 1.09539 3.72321 0
M  V30 3817 H 357.473 -1.35734 3.46997 0
M  V30 3818 H 357.586 -0.013741 4.79098 0
M  V30 3819 H 355.95 -0.104062 2.54487 0
M  V30 3820 H 356.733 1.47197 3.10142 0
M  V30 3821 N 359.178 -1.55987 0.224894 0
M  V30 3822 C 360.088 -2.24066 -0.69511 0
M  V30 3823 C 361.104 -1.24939 -1.21104 0
M  V30 3824 O 362.28 -1.5776 -1.25195 0
M  V30 3825 C 359.345 -2.90983 -1.88493 0
M  V30 3826 C 358.406 -4.05462 -1.41064 0
M  V30 3827 C 357.639 -4.69179 -2.54375 0
M  V30 3828 O 357.862 -4.31895 -3.72589 0
M  V30 3829 O 356.796 -5.58108 -2.25386 0
M  V30 3830 H 360.622 -3.03353 -0.145149 0
M  V30 3831 H 358.207 -1.49399 -0.00569476 0
M  V30 3832 H 360.089 -3.33209 -2.57972 0
M  V30 3833 H 358.764 -2.14653 -2.42293 0
M  V30 3834 H 357.671 -3.67798 -0.683774 0
M  V30 3835 H 359.004 -4.83545 -0.918985 0
M  V30 3836 N 360.656 0.0484629 -1.57525 0
M  V30 3837 C 362.072 0.40375 -1.54409 0
M  V30 3838 C 362.272 1.77786 -0.948384 0
M  V30 3839 O 361.328 2.46189 -0.560983 0
M  V30 3840 C 362.641 0.323394 -2.98956 0
M  V30 3841 C 364.189 0.401892 -3.10409 0
M  V30 3842 C 364.664 0.351195 -4.56652 0
M  V30 3843 N 366.155 0.410576 -4.61377 0
M  V30 3844 C 366.89 0.393933 -5.72045 0
M  V30 3845 N 366.386 0.330724 -6.9201 0
M  V30 3846 N 368.179 0.442227 -5.60358 0
M  V30 3847 H 360.33 -0.851016 -1.94606 0
M  V30 3848 H 362.593 -0.321721 -0.89174 0
M  V30 3849 H 362.299 -0.62011 -3.4619 0
M  V30 3850 H 362.173 1.12463 -3.60044 0
M  V30 3851 H 364.56 1.33582 -2.63134 0
M  V30 3852 H 364.641 -0.428342 -2.52188 0
M  V30 3853 H 364.285 -0.578987 -5.04589 0
M  V30 3854 H 364.215 1.19928 -5.12762 0
M  V30 3855 H 366.706 0.462729 -3.75056 0
M  V30 3856 H 367.019 0.322592 -7.72126 0
M  V30 3857 H 365.364 0.29706 -6.94365 0
M  V30 3858 H 368.555 0.489464 -4.65534 0
M  V30 3859 H 368.728 0.425788 -6.466 0
M  V30 3860 N 362.134 1.5431 0.320358 0
M  V30 3861 C 363.545 1.63872 0.894594 0
M  V30 3862 C 363.896 0.534847 1.88769 0
M  V30 3863 O 363.021 -0.331732 2.13842 0
M  V30 3864 C 363.616 2.97049 1.62934 0
M  V30 3865 C 362.175 3.08796 2.15226 0
M  V30 3866 C 361.322 2.59456 0.978671 0
M  V30 3867 H 364.273 1.58398 0.0978544 0
M  V30 3868 H 364.294 2.87388 2.49376 0
M  V30 3869 H 363.806 3.7737 0.906302 0
M  V30 3870 H 361.907 2.33156 2.90636 0
M  V30 3871 H 362.02 4.14649 2.40006 0
M  V30 3872 H 360.384 2.1543 1.35875 0
M  V30 3873 H 361.167 3.42237 0.269895 0
M  V30 3874 N 363.613 -0.582584 1.46437 0
M  V30 3875 C 364.862 -1.337 1.5102 0
M  V30 3876 C 365.175 -1.94891 0.166359 0
M  V30 3877 O 366.381 -2.71351 0.0899954 0
M  V30 3878 C 364.837 -2.42315 2.66104 0
M  V30 3879 C 364.445 -1.87427 4.06909 0
M  V30 3880 C 366.189 -3.19099 2.79958 0
M  V30 3881 C 364.096 -2.93672 5.13333 0
M  V30 3882 H 363.026 -0.502619 0.562041 0
M  V30 3883 H 365.677 -0.621701 1.72647 0
M  V30 3884 H 364.059 -3.16645 2.37807 0
M  V30 3885 H 365.233 -1.19639 4.44998 0
M  V30 3886 H 363.548 -1.2331 3.97723 0
M  V30 3887 H 366.145 -3.9839 3.56636 0
M  V30 3888 H 366.488 -3.71695 1.87479 0
M  V30 3889 H 367.021 -2.51875 3.07902 0
M  V30 3890 H 363.76 -2.45962 6.07604 0
M  V30 3891 H 363.28 -3.59948 4.79789 0
M  V30 3892 H 364.959 -3.5762 5.39182 0
M  V30 3893 N 365.091 -1.34144 -0.827227 0
M  V30 3894 C 366.34 -1.25602 -1.5782 0
M  V30 3895 C 366.653 0.173445 -1.94829 0
M  V30 3896 O 367.859 0.380984 -2.68814 0
M  V30 3897 C 366.315 -2.20151 -2.84713 0
M  V30 3898 C 365.923 -3.68331 -2.55021 0
M  V30 3899 C 367.667 -2.20508 -3.62735 0
M  V30 3900 C 365.574 -4.54762 -3.78082 0
M  V30 3901 H 364.504 -0.466573 -0.592306 0
M  V30 3902 H 367.155 -1.59283 -0.911116 0
M  V30 3903 H 365.537 -1.79417 -3.53023 0
M  V30 3904 H 366.711 -4.17577 -1.94849 0
M  V30 3905 H 365.026 -3.7038 -1.90283 0
M  V30 3906 H 367.623 -2.82306 -4.54101 0
M  V30 3907 H 367.966 -1.20322 -3.98533 0
M  V30 3908 H 368.499 -2.59664 -3.01362 0
M  V30 3909 H 365.238 -5.55867 -3.47407 0
M  V30 3910 H 364.758 -4.10254 -4.37552 0
M  V30 3911 H 366.437 -4.69153 -4.45538 0
M  V30 3912 N 366.569 1.04691 -1.17803 0
M  V30 3913 C 367.816 1.77782 -0.969532 0
M  V30 3914 C 368.144 1.87926 0.501401 0
M  V30 3915 O 367.399 1.37918 1.38842 0
M  V30 3916 C 367.698 3.21467 -1.56186 0
M  V30 3917 C 367.364 3.3137 -3.05786 0
M  V30 3918 C 366.026 3.3378 -3.46619 0
M  V30 3919 C 368.378 3.31976 -4.01797 0
M  V30 3920 C 365.706 3.34431 -4.82051 0
M  V30 3921 C 368.058 3.34167 -5.37136 0
M  V30 3922 C 366.722 3.34866 -5.77426 0
M  V30 3923 H 365.992 0.650549 -0.354777 0
M  V30 3924 H 368.639 1.23006 -1.46772 0
M  V30 3925 H 366.944 3.79203 -0.985515 0
M  V30 3926 H 368.641 3.76652 -1.37602 0
M  V30 3927 H 365.231 3.3021 -2.73238 0
M  V30 3928 H 369.415 3.29311 -3.71306 0
M  V30 3929 H 364.671 3.33285 -5.12573 0
M  V30 3930 H 368.845 3.33585 -6.11305 0
M  V30 3931 H 366.472 3.35124 -6.82346 0
M  V30 3932 N 368.047 0.979072 1.23499 0
M  V30 3933 C 368.995 0.510604 2.26926 0
M  V30 3934 C 369.989 -0.431691 1.63807 0
M  V30 3935 O 371.195 -0.30573 1.77385 0
M  V30 3936 H 367.57 0.146688 0.737554 0
M  V30 3937 H 369.541 1.39466 2.63803 0
M  V30 3938 C 368.29 -0.172658 3.47271 0
M  V30 3939 H 367.613 0.543331 3.96091 0
M  V30 3940 H 369.053 -0.464101 4.21452 0
M  V30 3941 C 367.512 -1.40345 3.06276 0
M  V30 3942 O 368.042 -2.49978 3.14442 0
M  V30 3943 N 366.248 -1.27362 2.61203 0
M  V30 3944 H 365.795 -0.381584 2.54758 0
M  V30 3945 H 365.753 -2.09822 2.34141 0
M  V30 3946 N 369.525 -1.3858 0.750561 0
M  V30 3947 C 370.455 -2.33102 0.136237 0
M  V30 3948 C 371.436 -1.54713 -0.706965 0
M  V30 3949 O 372.621 -1.83043 -0.648769 0
M  V30 3950 C 369.751 -3.38882 -0.760017 0
M  V30 3951 C 368.705 -4.27995 -0.0197785 0
M  V30 3952 C 368.031 -5.24605 -1.03408 0
M  V30 3953 C 369.331 -5.09554 1.14684 0
M  V30 3954 H 371.025 -2.84726 0.925822 0
M  V30 3955 H 368.571 -1.36898 0.446654 0
M  V30 3956 H 370.524 -4.0397 -1.19943 0
M  V30 3957 H 369.248 -2.85734 -1.58189 0
M  V30 3958 H 367.907 -3.64409 0.400184 0
M  V30 3959 H 367.555 -4.67746 -1.84994 0
M  V30 3960 H 367.255 -5.85081 -0.543464 0
M  V30 3961 H 368.779 -5.9257 -1.47288 0
M  V30 3962 H 370.193 -5.67899 0.785118 0
M  V30 3963 H 368.59 -5.7925 1.56812 0
M  V30 3964 H 369.66 -4.4347 1.96118 0
M  V30 3965 N 371.003 -0.499398 -1.49478 0
M  V30 3966 C 372.414 -0.051215 -1.8663 0
M  V30 3967 C 372.765 1.36238 -1.41186 0
M  V30 3968 O 371.89 2.01502 -0.789051 0
M  V30 3969 C 372.485 -0.0861651 -3.3869 0
M  V30 3970 C 371.044 0.30667 -3.75149 0
M  V30 3971 C 370.191 -0.459397 -2.73468 0
M  V30 3972 H 373.142 -0.712264 -1.41818 0
M  V30 3973 H 373.163 0.709507 -3.73826 0
M  V30 3974 H 372.675 -1.11512 -3.71735 0
M  V30 3975 H 370.776 1.33892 -3.47712 0
M  V30 3976 H 370.889 -0.0116669 -4.79099 0
M  V30 3977 H 369.253 0.0905645 -2.54539 0
M  V30 3978 H 370.036 -1.4884 -3.09357 0
M  V30 3979 N 372.481 1.55866 -0.233164 0
M  V30 3980 C 373.444 2.1953 0.658715 0
M  V30 3981 C 374.444 1.16053 1.11303 0
M  V30 3982 O 375.634 1.41218 1.01996 0
M  V30 3983 C 372.766 2.82791 1.90373 0
M  V30 3984 H 373.959 2.99721 0.10347 0
M  V30 3985 H 371.512 1.56291 0.0164245 0
M  V30 3986 H 372.247 2.06501 2.50056 0
M  V30 3987 H 372.032 3.58578 1.58632 0
M  V30 3988 H 373.522 3.31556 2.53891 0
M  V30 3989 N 373.959 -0.0401083 1.57549 0
M  V30 3990 C 375.187 -0.745196 1.93014 0
M  V30 3991 C 375.602 -1.6948 0.831984 0
M  V30 3992 O 374.959 -1.81482 -0.192463 0
M  V30 3993 C 375.01 -1.51176 3.28372 0
M  V30 3994 O 374.731 -0.600284 4.33968 0
M  V30 3995 C 376.232 -2.315 3.78051 0
M  V30 3996 H 373.452 -0.210088 0.637263 0
M  V30 3997 H 375.996 -0.000924689 2.045 0
M  V30 3998 H 374.151 -2.20801 3.18317 0
M  V30 3999 H 374.565 -1.13669 5.12035 0
M  V30 4000 H 376.039 -2.80697 4.75303 0
M  V30 4001 H 376.516 -3.12436 3.08675 0
M  V30 4002 H 377.122 -1.66971 3.91153 0
M  V30 4003 N 375.437 -1.54477 -0.31217 0
M  V30 4004 C 376.683 -1.73483 -1.0503 0
M  V30 4005 C 377.016 -0.513125 -1.87298 0
M  V30 4006 O 376.291 0.489864 -1.8823 0
M  V30 4007 C 376.574 -3.01723 -1.96558 0
M  V30 4008 C 376.427 -4.3417 -1.17545 0
M  V30 4009 C 377.746 -3.25772 -2.95907 0
M  V30 4010 H 374.865 -0.631222 -0.380432 0
M  V30 4011 H 377.507 -1.87184 -0.325932 0
M  V30 4012 H 375.657 -2.90174 -2.58324 0
M  V30 4013 H 377.329 -4.5762 -0.581513 0
M  V30 4014 H 375.572 -4.31159 -0.477925 0
M  V30 4015 H 376.243 -5.20143 -1.84811 0
M  V30 4016 H 378.719 -3.36857 -2.44267 0
M  V30 4017 H 377.595 -4.16838 -3.57123 0
M  V30 4018 H 377.856 -2.43537 -3.68974 0
M  V30 4019 N 376.915 0.57481 -1.46744 0
M  V30 4020 C 377.825 1.711 -1.60505 0
M  V30 4021 C 378.841 1.67008 -0.488307 0
M  V30 4022 O 380.017 1.86774 -0.753495 0
M  V30 4023 C 377.082 3.07608 -1.59932 0
M  V30 4024 C 376.143 3.22904 -2.82898 0
M  V30 4025 C 375.376 4.529 -2.82343 0
M  V30 4026 O 375.599 5.37278 -1.91542 0
M  V30 4027 O 374.533 4.71611 -3.73987 0
M  V30 4028 H 378.359 1.62436 -2.56609 0
M  V30 4029 H 375.944 0.742779 -1.29627 0
M  V30 4030 H 377.826 3.88877 -1.62336 0
M  V30 4031 H 376.501 3.16692 -0.669898 0
M  V30 4032 H 375.408 2.41099 -2.86046 0
M  V30 4033 H 376.741 3.18715 -3.75076 0
M  V30 4034 N 378.394 1.34581 0.820102 0
M  V30 4035 C 379.327 1.20735 1.93644 0
M  V30 4036 C 380.305 0.0983343 1.62302 0
M  V30 4037 O 381.489 0.263997 1.86642 0
M  V30 4038 C 378.616 0.856037 3.27704 0
M  V30 4039 C 377.662 1.97521 3.78005 0
M  V30 4040 S 378.495 3.58906 3.97425 0
M  V30 4041 C 379.651 3.25822 5.34407 0
M  V30 4042 H 379.884 2.15231 2.05093 0
M  V30 4043 H 377.417 1.1964 0.97599 0
M  V30 4044 H 379.375 0.660133 4.05157 0
M  V30 4045 H 378.036 -0.0706253 3.14021 0
M  V30 4046 H 377.229 1.68321 4.75062 0
M  V30 4047 H 376.831 2.12875 3.07507 0
M  V30 4048 H 379.123 2.77812 6.17922 0
M  V30 4049 H 380.066 4.22029 5.68592 0
M  V30 4050 H 380.474 2.61932 5.00052 0
M  V30 4051 N 379.872 -1.04064 1.18357 0
M  V30 4052 C 381.1 -1.80916 1.00384 0
M  V30 4053 C 381.515 -1.83414 -0.447738 0
M  V30 4054 O 380.872 -1.26962 -1.31099 0
M  V30 4055 C 380.923 -3.26516 1.55144 0
M  V30 4056 O 380.644 -3.2424 2.94618 0
M  V30 4057 C 382.145 -4.20013 1.41789 0
M  V30 4058 H 379.365 -0.569728 0.354474 0
M  V30 4059 H 381.909 -1.31151 1.56906 0
M  V30 4060 H 380.064 -3.73512 1.02798 0
M  V30 4061 H 380.478 -4.15452 3.20156 0
M  V30 4062 H 381.952 -5.20111 1.84901 0
M  V30 4063 H 382.429 -4.37667 0.36661 0
M  V30 4064 H 383.035 -3.78881 1.93207 0
M  V30 4065 N 381.35 -0.985608 -1.22978 0
M  V30 4066 C 382.578 -0.675582 -1.95559 0
M  V30 4067 C 382.993 0.758413 -1.72897 0
M  V30 4068 O 382.35 1.51094 -1.02357 0
M  V30 4069 C 382.401 -0.96293 -3.48439 0
M  V30 4070 O 382.122 -2.34057 -3.70336 0
M  V30 4071 C 383.623 -0.669585 -4.38214 0
M  V30 4072 H 380.843 -0.250523 -0.622478 0
M  V30 4073 H 383.387 -1.3184 -1.56328 0
M  V30 4074 H 381.542 -0.366033 -3.85667 0
M  V30 4075 H 381.956 -2.43424 -4.64591 0
M  V30 4076 H 383.43 -0.920967 -5.44263 0
M  V30 4077 H 383.907 0.396383 -4.37408 0
M  V30 4078 H 384.513 -1.2472 -4.06602 0
M  V30 4079 N 382.828 1.3818 -0.7579 0
M  V30 4080 C 384.239 1.82726 -0.383134 0
M  V30 4081 C 384.59 1.63214 1.08884 0
M  V30 4082 O 383.715 1.13566 1.84205 0
M  V30 4083 C 384.31 3.31728 -0.688631 0
M  V30 4084 C 382.869 3.74606 -0.367091 0
M  V30 4085 C 382.016 2.60896 -0.939599 0
M  V30 4086 H 384.967 1.26847 -0.953699 0
M  V30 4087 H 384.988 3.80487 0.0316492 0
M  V30 4088 H 384.5 3.45898 -1.76001 0
M  V30 4089 H 382.601 3.66013 0.697532 0
M  V30 4090 H 382.714 4.71215 -0.865658 0
M  V30 4091 H 381.078 2.52075 -0.3647 0
M  V30 4092 H 381.861 2.77864 -2.0161 0
M  V30 4093 N 384.306 0.507319 1.49211 0
M  V30 4094 C 385.254 -0.281364 2.30892 0
M  V30 4095 C 386.248 -0.95687 1.39787 0
M  V30 4096 O 387.454 -0.883838 1.56807 0
M  V30 4097 H 383.829 -0.109597 0.743971 0
M  V30 4098 H 385.8 0.42744 2.95323 0
M  V30 4099 C 384.549 -1.32918 3.21291 0
M  V30 4100 H 383.872 -0.818799 3.91326 0
M  V30 4101 H 385.312 -1.85288 3.81372 0
M  V30 4102 C 383.771 -2.35074 2.41333 0
M  V30 4103 O 384.301 -3.4108 2.12197 0
M  V30 4104 N 382.507 -2.07705 2.03241 0
M  V30 4105 H 382.054 -1.2152 2.27136 0
M  V30 4106 H 382.012 -2.76283 1.50051 0
M  V30 4107 N 385.784 -1.5574 0.241426 0
M  V30 4108 C 387.03 -1.99104 -0.385406 0
M  V30 4109 C 387.363 -1.1293 -1.57988 0
M  V30 4110 O 386.638 -0.191449 -1.93555 0
M  V30 4111 C 386.921 -3.51087 -0.800616 0
M  V30 4112 C 386.774 -4.48028 0.398874 0
M  V30 4113 C 388.093 -4.08015 -1.64959 0
M  V30 4114 H 385.212 -0.723848 -0.138614 0
M  V30 4115 H 387.854 -1.86903 0.341642 0
M  V30 4116 H 386.004 -3.61615 -1.4201 0
M  V30 4117 H 387.676 -4.49487 1.03726 0
M  V30 4118 H 385.919 -4.21077 1.04293 0
M  V30 4119 H 386.59 -5.51962 0.0651056 0
M  V30 4120 H 389.066 -4.00555 -1.12672 0
M  V30 4121 H 387.942 -5.14635 -1.90898 0
M  V30 4122 H 388.203 -3.56131 -2.61961 0
M  V30 4123 N 387.262 0.0317525 -1.57568 0
M  V30 4124 C 388.492 0.733884 -1.93126 0
M  V30 4125 C 388.9 1.69563 -0.839352 0
M  V30 4126 O 388.243 1.82681 0.193175 0
M  V30 4127 C 388.305 1.54798 -3.24465 0
M  V30 4128 C 387.969 0.751304 -4.50782 0
M  V30 4129 C 388.966 0.0527632 -5.19873 0
M  V30 4130 C 386.651 0.706639 -4.97305 0
M  V30 4131 C 388.645 -0.679774 -6.33765 0
M  V30 4132 C 386.332 -0.0296449 -6.11093 0
M  V30 4133 C 387.33 -0.721614 -6.79177 0
M  V30 4134 O 387.018 -1.44595 -7.90789 0
M  V30 4135 H 386.75 0.211459 -0.642076 0
M  V30 4136 H 389.304 -0.00585615 -2.05399 0
M  V30 4137 H 387.534 2.33147 -3.08512 0
M  V30 4138 H 389.223 2.13247 -3.4537 0
M  V30 4139 H 389.989 0.0783188 -4.84937 0
M  V30 4140 H 385.868 1.23474 -4.44157 0
M  V30 4141 H 389.412 -1.22042 -6.86842 0
M  V30 4142 H 385.309 -0.0571331 -6.45475 0
M  V30 4143 H 386.077 -1.35935 -8.07133 0
M  V30 4144 N 388.74 1.54641 0.303973 0
M  V30 4145 C 389.703 1.84646 1.35789 0
M  V30 4146 C 390.703 0.7192 1.4382 0
M  V30 4147 O 391.893 0.987491 1.43507 0
M  V30 4148 C 389.025 2.02407 2.74307 0
M  V30 4149 H 390.218 2.78829 1.10429 0
M  V30 4150 H 387.771 1.46658 0.540487 0
M  V30 4151 H 388.506 1.10502 3.04893 0
M  V30 4152 H 388.291 2.84453 2.69868 0
M  V30 4153 H 389.781 2.27002 3.50514 0
M  V30 4154 N 390.218 -0.567019 1.47046 0
M  V30 4155 C 391.495 -1.3276 1.43646 0
M  V30 4156 C 391.875 -2.1071 0.128186 0
M  V30 4157 O 391.223 -2.10441 -0.890326 0
M  V30 4158 C 391.433 -2.2404 2.67595 0
M  V30 4159 C 392.781 -2.85372 3.14401 0
M  V30 4160 O 393.805 -2.34346 2.68254 0
M  V30 4161 O 392.664 -3.78091 3.946 0
M  V30 4162 H 389.758 -0.597293 0.571988 0
M  V30 4163 H 392.304 -0.586735 1.59234 0
M  V30 4164 H 391.076 -1.65975 3.54356 0
M  V30 4165 H 390.699 -3.05439 2.54544 0
M  V30 4166 N 391.696 -1.35014 -0.812953 0
M  V30 4167 C 392.921 -1.31187 -1.60639 0
M  V30 4168 C 393.346 0.109382 -1.87782 0
M  V30 4169 O 392.704 1.07424 -1.46047 0
M  V30 4170 C 392.752 -2.11809 -2.91838 0
M  V30 4171 O 391.856 -1.49444 -3.8437 0
M  V30 4172 H 391.197 -0.450084 -0.488181 0
M  V30 4173 H 393.727 -1.77963 -1.00947 0
M  V30 4174 H 393.737 -2.23531 -3.41318 0
M  V30 4175 H 392.412 -3.15137 -2.71407 0
M  V30 4176 H 390.989 -1.46524 -3.42907 0
M  V30 4177 N 393.175 1.03435 -1.18907 0
M  V30 4178 C 394.424 1.76143 -0.982669 0
M  V30 4179 C 394.737 1.89416 0.487953 0
M  V30 4180 O 395.943 2.59041 0.813036 0
M  V30 4181 C 394.399 3.16722 -1.70924 0
M  V30 4182 C 394.007 3.11522 -3.21959 0
M  V30 4183 C 395.751 3.93764 -1.58588 0
M  V30 4184 C 393.658 4.46999 -3.87228 0
M  V30 4185 H 392.588 0.660292 -0.364047 0
M  V30 4186 H 395.239 1.158 -1.42347 0
M  V30 4187 H 393.621 3.775 -1.19623 0
M  V30 4188 H 394.795 2.60158 -3.80335 0
M  V30 4189 H 393.11 2.47978 -3.34508 0
M  V30 4190 H 395.707 4.93963 -2.04707 0
M  V30 4191 H 396.05 4.12794 -0.539142 0
M  V30 4192 H 396.583 3.39576 -2.07203 0
M  V30 4193 H 393.322 4.33174 -4.91976 0
M  V30 4194 H 392.842 4.98441 -3.33642 0
M  V30 4195 H 394.521 5.15898 -3.90459 0
M  V30 4196 N 394.653 0.992116 1.22453 0
M  V30 4197 C 395.563 0.55065 2.28046 0
M  V30 4198 C 396.579 -0.400189 1.69335 0
M  V30 4199 O 397.755 -0.267215 1.99619 0
M  V30 4200 C 394.82 -0.128496 3.46462 0
M  V30 4201 C 393.881 0.865208 4.20491 0
M  V30 4202 C 393.114 0.218377 5.33253 0
M  V30 4203 O 393.337 -0.987894 5.6178 0
M  V30 4204 O 392.271 0.922845 5.94783 0
M  V30 4205 H 396.097 1.4291 2.67975 0
M  V30 4206 H 393.682 0.760326 1.28606 0
M  V30 4207 H 395.564 -0.508947 4.18315 0
M  V30 4208 H 394.239 -0.981526 3.0846 0
M  V30 4209 H 393.146 1.29658 3.50913 0
M  V30 4210 H 394.479 1.68741 4.62371 0
M  V30 4211 N 396.131 -1.37776 0.765217 0
M  V30 4212 C 397.377 -2.00604 0.336066 0
M  V30 4213 C 397.732 -1.59657 -1.07366 0
M  V30 4214 O 397.025 -0.829565 -1.7271 0
M  V30 4215 C 397.219 -3.5504 0.410053 0
M  V30 4216 C 397.048 -4.10985 1.82542 0
M  V30 4217 C 395.818 -4.42229 2.44461 0
M  V30 4218 C 398.016 -4.32438 2.78392 0
M  V30 4219 N 395.998 -4.8385 3.77839 0
M  V30 4220 C 397.369 -4.76596 3.96556 0
M  V30 4221 C 399.424 -4.14559 2.75764 0
M  V30 4222 C 398.127 -5.04748 5.12466 0
M  V30 4223 C 400.153 -4.43843 3.90842 0
M  V30 4224 C 399.515 -4.88235 5.07746 0
M  V30 4225 H 395.614 -0.763325 0.169881 0
M  V30 4226 H 398.198 -1.67197 0.997656 0
M  V30 4227 H 396.369 -3.87769 -0.221325 0
M  V30 4228 H 398.101 -4.0468 -0.0405285 0
M  V30 4229 H 394.856 -4.31079 1.96131 0
M  V30 4230 H 395.28 -5.08979 4.46396 0
M  V30 4231 H 399.922 -3.79415 1.86558 0
M  V30 4232 H 397.64 -5.38783 6.02277 0
M  V30 4233 H 401.226 -4.31603 3.90141 0
M  V30 4234 H 400.106 -5.10461 5.95315 0
M  V30 4235 N 397.609 -0.515225 -1.4894 0
M  V30 4236 C 398.542 0.302518 -2.26186 0
M  V30 4237 C 399.52 0.957895 -1.31389 0
M  V30 4238 O 400.704 0.985198 -1.60705 0
M  V30 4239 C 397.831 1.42719 -3.07163 0
M  V30 4240 C 396.877 0.884736 -4.17223 0
M  V30 4241 S 397.71 -0.235767 -5.34981 0
M  V30 4242 C 398.866 0.891731 -6.19515 0
M  V30 4243 H 399.099 -0.353076 -2.95196 0
M  V30 4244 H 396.632 -0.300753 -1.51443 0
M  V30 4245 H 398.59 2.07152 -3.54398 0
M  V30 4246 H 397.251 2.05445 -2.37595 0
M  V30 4247 H 396.444 1.72801 -4.73451 0
M  V30 4248 H 396.046 0.317362 -3.72651 0
M  V30 4249 H 398.338 1.79377 -6.53322 0
M  V30 4250 H 399.281 0.367751 -7.07144 0
M  V30 4251 H 399.689 1.16548 -5.52338 0
M  V30 4252 N 399.087 1.5561 -0.249682 0
M  V30 4253 C 400.312 2.03865 0.381305 0
M  V30 4254 C 400.737 1.12769 1.50548 0
M  V30 4255 O 400.095 0.121189 1.80895 0
M  V30 4256 C 400.143 3.50101 0.863816 0
M  V30 4257 O 399.247 3.62132 1.97318 0
M  V30 4258 H 398.588 0.658827 0.0827194 0
M  V30 4259 H 401.118 2.01105 -0.376552 0
M  V30 4260 H 401.128 3.90975 1.1663 0
M  V30 4261 H 399.803 4.1588 0.0411816 0
M  V30 4262 H 398.38 3.33155 1.67517 0
M  V30 4263 N 400.565 -0.0233959 1.57583 0
M  V30 4264 C 401.981 -0.379134 1.55031 0
M  V30 4265 C 402.181 -1.76255 0.976548 0
M  V30 4266 O 401.237 -2.45266 0.600078 0
M  V30 4267 C 402.55 -0.275792 2.99433 0
M  V30 4268 C 404.098 -0.352458 3.11009 0
M  V30 4269 C 404.573 -0.278501 4.57152 0
M  V30 4270 N 406.064 -0.337123 4.61972 0
M  V30 4271 C 406.799 -0.302876 5.726 0
M  V30 4272 N 406.295 -0.220589 6.92449 0
M  V30 4273 N 408.088 -0.353023 5.6099 0
M  V30 4274 H 400.239 0.881869 1.93227 0
M  V30 4275 H 402.502 0.335867 0.886509 0
M  V30 4276 H 402.208 0.675108 3.4516 0
M  V30 4277 H 402.082 -1.06721 3.61788 0
M  V30 4278 H 404.469 -1.29379 2.65226 0
M  V30 4279 H 404.55 0.468409 2.51475 0
M  V30 4280 H 404.194 0.659189 5.03604 0
M  V30 4281 H 404.124 -1.11755 5.14605 0
M  V30 4282 H 406.615 -0.403002 3.75745 0
M  V30 4283 H 406.928 -0.199713 7.72542 0
M  V30 4284 H 405.273 -0.186555 6.9475 0
M  V30 4285 H 408.464 -0.415339 4.66254 0
M  V30 4286 H 408.637 -0.322866 6.47195 0
M  V30 4287 N 402.043 -1.548 -0.295768 0
M  V30 4288 C 402.991 -1.86874 -1.38495 0
M  V30 4289 C 403.985 -0.742938 -1.52239 0
M  V30 4290 O 405.191 -0.926999 -1.54294 0
M  V30 4291 H 401.566 -0.592786 -0.462719 0
M  V30 4292 H 403.537 -2.77904 -1.08682 0
M  V30 4293 C 402.286 -2.13732 -2.74252 0
M  V30 4294 H 401.609 -2.99835 -2.64459 0
M  V30 4295 H 403.049 -2.4011 -3.49461 0
M  V30 4296 C 401.508 -0.937539 -3.23592 0
M  V30 4297 O 402.038 -0.160665 -4.01379 0
M  V30 4298 N 400.244 -0.741478 -2.80981 0
M  V30 4299 H 399.791 -1.37489 -2.1784 0
M  V30 4300 H 399.749 0.0597103 -3.14343 0
M  V30 4301 N 403.521 0.559213 -1.47345 0
M  V30 4302 C 404.451 1.67622 -1.62558 0
M  V30 4303 C 405.432 1.63331 -0.475087 0
M  V30 4304 O 406.617 1.80983 -0.704182 0
M  V30 4305 C 403.747 3.0626 -1.63774 0
M  V30 4306 C 402.701 3.25397 -2.7803 0
M  V30 4307 C 402.027 4.64801 -2.64318 0
M  V30 4308 C 403.327 3.10965 -4.19641 0
M  V30 4309 H 405.021 1.55146 -2.56067 0
M  V30 4310 H 402.567 0.744961 -1.23233 0
M  V30 4311 H 404.52 3.84247 -1.73008 0
M  V30 4312 H 403.244 3.1969 -0.66825 0
M  V30 4313 H 401.903 2.49817 -2.68304 0
M  V30 4314 H 401.551 4.75028 -1.65401 0
M  V30 4315 H 401.251 4.78555 -3.40968 0
M  V30 4316 H 402.775 5.44926 -2.75478 0
M  V30 4317 H 404.189 3.78772 -4.30354 0
M  V30 4318 H 402.586 3.36229 -4.97062 0
M  V30 4319 H 403.656 2.07736 -4.38148 0
M  V30 4320 N 404.999 1.35443 0.805782 0
M  V30 4321 C 405.962 1.28301 1.89925 0
M  V30 4322 C 406.962 0.194285 1.59622 0
M  V30 4323 O 408.152 0.448036 1.6834 0
M  V30 4324 C 405.284 0.984997 3.2636 0
M  V30 4325 H 406.477 2.2553 1.97677 0
M  V30 4326 H 404.03 1.19979 1.00173 0
M  V30 4327 H 404.765 0.016603 3.24296 0
M  V30 4328 H 404.55 1.77269 3.4974 0
M  V30 4329 H 406.04 0.960651 4.064 0
M  V30 4330 N 406.477 -1.02803 1.19454 0
M  V30 4331 C 407.425 -2.13213 0.929673 0
M  V30 4332 C 408.419 -1.69011 -0.114806 0
M  V30 4333 O 409.625 -1.79967 0.0345147 0
M  V30 4334 H 406 -0.69662 0.28324 0
M  V30 4335 H 407.971 -2.32744 1.86743 0
M  V30 4336 C 406.72 -3.4429 0.485797 0
M  V30 4337 H 406.043 -3.7872 1.28105 0
M  V30 4338 H 407.483 -4.22638 0.339582 0
M  V30 4339 C 405.942 -3.27258 -0.800244 0
M  V30 4340 O 406.472 -3.55967 -1.86146 0
M  V30 4341 N 404.678 -2.80545 -0.75781 0
M  V30 4342 H 404.225 -2.57382 0.106039 0
M  V30 4343 H 404.183 -2.6953 -1.61867 0
M  V30 4344 N 407.956 -0.998596 -1.21925 0
M  V30 4345 C 409.372 -0.710303 -1.42923 0
M  V30 4346 C 409.572 0.716933 -1.88314 0
M  V30 4347 O 408.628 1.48712 -2.04062 0
M  V30 4348 C 409.941 -1.72072 -2.466 0
M  V30 4349 C 411.489 -1.73681 -2.60392 0
M  V30 4350 C 411.964 -2.73601 -3.67296 0
M  V30 4351 N 413.455 -2.7223 -3.7476 0
M  V30 4352 C 414.19 -3.46206 -4.57087 0
M  V30 4353 N 413.686 -4.29802 -5.43362 0
M  V30 4354 N 415.479 -3.34886 -4.51451 0
M  V30 4355 H 407.63 -1.92028 -0.9077 0
M  V30 4356 H 409.893 -0.828487 -0.460775 0
M  V30 4357 H 409.599 -2.74231 -2.20206 0
M  V30 4358 H 409.473 -1.51818 -3.45299 0
M  V30 4359 H 411.86 -0.722173 -2.86127 0
M  V30 4360 H 411.941 -1.98005 -1.61949 0
M  V30 4361 H 411.585 -3.75217 -3.42307 0
M  V30 4362 H 411.515 -2.46545 -4.65321 0
M  V30 4363 H 414.006 -2.11576 -3.1312 0
M  V30 4364 H 414.319 -4.83061 -6.03218 0
M  V30 4365 H 412.664 -4.33887 -5.42925 0
M  V30 4366 H 415.855 -2.69015 -3.83078 0
M  V30 4367 H 416.028 -3.92796 -5.15379 0
M  V30 4368 N 409.434 1.37368 -0.772513 0
M  V30 4369 C 410.344 2.34053 -0.160081 0
M  V30 4370 C 411.36 1.60216 0.678728 0
M  V30 4371 O 412.536 1.92303 0.59847 0
M  V30 4372 C 409.601 3.3939 0.708182 0
M  V30 4373 C 408.662 4.29048 -0.147172 0
M  V30 4374 C 407.895 5.29354 0.679744 0
M  V30 4375 O 408.118 5.3723 1.91678 0
M  V30 4376 O 407.052 6.01835 0.0885444 0
M  V30 4377 H 410.878 2.88159 -0.959053 0
M  V30 4378 H 408.463 1.39543 -0.533685 0
M  V30 4379 H 410.345 4.03839 1.20384 0
M  V30 4380 H 409.02 2.8761 1.48533 0
M  V30 4381 H 407.927 3.67697 -0.689205 0
M  V30 4382 H 409.26 4.84134 -0.887423 0
M  V30 4383 N 410.912 0.523116 1.48665 0
M  V30 4384 C 412.137 -0.0117284 2.07397 0
M  V30 4385 C 412.562 -1.28031 1.37803 0
M  V30 4386 O 411.92 -1.75836 0.441762 0
M  V30 4387 C 411.968 -0.225786 3.59892 0
M  V30 4388 O 411.072 -1.29592 3.91509 0
M  V30 4389 H 410.413 0.0360673 0.66302 0
M  V30 4390 H 412.943 0.729066 1.9117 0
M  V30 4391 H 412.953 -0.450552 4.05505 0
M  V30 4392 H 411.628 0.700944 4.09951 0
M  V30 4393 H 410.205 -1.05436 3.57684 0
M  V30 4394 N 412.39 -1.55475 0.257931 0
M  V30 4395 C 413.636 -1.99502 -0.364266 0
M  V30 4396 C 413.969 -1.146 -1.56782 0
M  V30 4397 O 413.244 -0.211968 -1.93342 0
M  V30 4398 C 413.527 -3.51917 -0.763333 0
M  V30 4399 C 413.38 -4.4758 0.446371 0
M  V30 4400 C 414.699 -4.09742 -1.60623 0
M  V30 4401 H 411.818 -0.725277 -0.130929 0
M  V30 4402 H 414.46 -1.8653 0.361446 0
M  V30 4403 H 412.61 -3.63101 -1.38166 0
M  V30 4404 H 414.282 -4.48362 1.08487 0
M  V30 4405 H 412.525 -4.19947 1.08753 0
M  V30 4406 H 413.196 -5.51862 0.123645 0
M  V30 4407 H 415.672 -4.01727 -1.08418 0
M  V30 4408 H 414.548 -5.16631 -1.85429 0
M  V30 4409 H 414.809 -3.58889 -2.58169 0
M  V30 4410 N 413.868 0.0150385 -1.57593 0
M  V30 4411 C 415.117 0.702115 -1.89085 0
M  V30 4412 C 415.43 1.75764 -0.858277 0
M  V30 4413 O 416.636 2.49829 -1.0629 0
M  V30 4414 C 415.092 1.29992 -3.35604 0
M  V30 4415 C 414.7 0.280007 -4.47124 0
M  V30 4416 C 416.444 1.96606 -3.76227 0
M  V30 4417 C 414.351 0.886949 -5.84711 0
M  V30 4418 H 413.281 0.265997 -0.705522 0
M  V30 4419 H 415.932 -0.0430408 -1.8345 0
M  V30 4420 H 414.314 2.09525 -3.36029 0
M  V30 4421 H 415.488 -0.489631 -4.58191 0
M  V30 4422 H 413.803 -0.284835 -4.15425 0
M  V30 4423 H 416.4 2.42893 -4.76347 0
M  V30 4424 H 416.743 2.79024 -3.08952 0
M  V30 4425 H 417.276 1.23828 -3.78036 0
M  V30 4426 H 414.015 0.101876 -6.55421 0
M  V30 4427 H 413.535 1.6261 -5.77337 0
M  V30 4428 H 415.214 1.39011 -6.3189 0
M  V30 4429 N 415.346 1.54954 0.287554 0
M  V30 4430 C 416.276 1.89839 1.35954 0
M  V30 4431 C 417.257 0.758675 1.52244 0
M  V30 4432 O 418.442 1.01557 1.65529 0
M  V30 4433 C 415.572 2.15753 2.72154 0
M  V30 4434 C 414.526 3.3159 2.70614 0
M  V30 4435 C 413.852 3.42952 4.10229 0
M  V30 4436 C 415.152 4.68359 2.31165 0
M  V30 4437 H 416.846 2.79625 1.07007 0
M  V30 4438 H 414.392 1.3454 0.513316 0
M  V30 4439 H 416.345 2.38743 3.47246 0
M  V30 4440 H 415.069 1.22752 3.02654 0
M  V30 4441 H 413.728 3.08545 1.97979 0
M  V30 4442 H 413.376 2.47443 4.37928 0
M  V30 4443 H 413.076 4.20826 4.10097 0
M  V30 4444 H 414.6 3.68218 4.87081 0
M  V30 4445 H 416.014 4.9099 2.95976 0
M  V30 4446 H 414.411 5.49044 2.42221 0
M  V30 4447 H 415.481 4.68165 1.26291 0
M  V30 4448 N 416.824 -0.551391 1.4764 0
M  V30 4449 C 418.049 -1.33837 1.58437 0
M  V30 4450 C 418.474 -1.866 0.237063 0
M  V30 4451 O 417.832 -1.6328 -0.787994 0
M  V30 4452 C 417.88 -2.48014 2.61766 0
M  V30 4453 O 416.984 -3.50419 2.1744 0
M  V30 4454 H 416.325 -0.397299 0.532024 0
M  V30 4455 H 418.855 -0.665759 1.93465 0
M  V30 4456 H 418.865 -2.94503 2.82369 0
M  V30 4457 H 417.54 -2.08969 3.5959 0
M  V30 4458 H 416.117 -3.10196 2.06961 0
M  V30 4459 N 418.302 -1.35869 -0.798587 0
M  V30 4460 C 419.232 -1.32118 -1.92528 0
M  V30 4461 C 420.213 -0.194209 -1.68988 0
M  V30 4462 O 421.398 -0.390426 -1.90235 0
M  V30 4463 C 418.528 -1.10047 -3.29404 0
M  V30 4464 C 417.482 -2.19471 -3.67446 0
M  V30 4465 C 416.808 -1.82555 -5.02571 0
M  V30 4466 C 418.108 -3.61495 -3.76987 0
M  V30 4467 H 419.802 -2.26394 -1.95924 0
M  V30 4468 H 417.348 -1.08981 -0.94123 0
M  V30 4469 H 419.301 -1.06061 -4.07835 0
M  V30 4470 H 418.025 -0.122195 -3.26371 0
M  V30 4471 H 416.684 -2.22568 -2.91306 0
M  V30 4472 H 416.332 -0.833249 -4.9605 0
M  V30 4473 H 416.032 -2.5581 -5.28995 0
M  V30 4474 H 417.556 -1.80108 -5.83432 0
M  V30 4475 H 418.97 -3.60676 -4.4563 0
M  V30 4476 H 417.367 -4.33577 -4.14887 0
M  V30 4477 H 418.437 -3.97065 -2.78329 0
M  V30 4478 N 419.78 1.02168 -1.19998 0
M  V30 4479 C 420.73 2.08969 -0.911921 0
M  V30 4480 C 421.714 1.60404 0.12621 0
M  V30 4481 O 422.906 1.76817 -0.0804706 0
M  V30 4482 C 420.035 3.402 -0.460277 0
M  V30 4483 C 419.121 3.9548 -1.53155 0
M  V30 4484 N 419.512 4.24332 -2.75275 0
M  V30 4485 C 417.81 4.23572 -1.39653 0
M  V30 4486 C 418.511 4.68834 -3.44339 0
M  V30 4487 N 417.487 4.70804 -2.71744 0
M  V30 4488 H 421.289 2.29178 -1.83997 0
M  V30 4489 H 418.803 1.20094 -1.09322 0
M  V30 4490 H 420.8 4.16235 -0.235337 0
M  V30 4491 H 419.46 3.21408 0.4612 0
M  V30 4492 H 420.471 4.13393 -3.11973 0
M  V30 4493 H 417.148 4.14005 -0.539067 0
M  V30 4494 H 418.538 5.00019 -4.4881 0
M  V30 4495 N 421.258 1.00505 1.21394 0
M  V30 4496 C 422.669 0.721082 1.72213 0
M  V30 4497 C 423.02 -0.761263 1.80829 0
M  V30 4498 O 422.145 -1.59464 1.46288 0
M  V30 4499 C 422.74 1.30228 3.12772 0
M  V30 4500 C 421.299 1.06743 3.60947 0
M  V30 4501 C 420.446 1.41507 2.38477 0
M  V30 4502 H 423.397 1.17594 1.06571 0
M  V30 4503 H 423.418 0.686955 3.74247 0
M  V30 4504 H 422.93 2.38115 3.06468 0
M  V30 4505 H 421.031 0.00572162 3.726 0
M  V30 4506 H 421.144 1.73936 4.46411 0
M  V30 4507 H 419.508 0.833852 2.40664 0
M  V30 4508 H 420.291 2.50424 2.34824 0
M  V30 4509 N 422.737 -1.36956 0.779787 0
M  V30 4510 C 423.687 -2.27539 0.144892 0
M  V30 4511 C 424.671 -1.46493 -0.665488 0
M  V30 4512 O 425.863 -1.68968 -0.527141 0
M  V30 4513 C 422.992 -3.35512 -0.727082 0
M  V30 4514 C 422.078 -4.24001 0.0915642 0
M  V30 4515 N 422.469 -4.92757 1.14125 0
M  V30 4516 C 420.767 -4.45807 -0.131141 0
M  V30 4517 C 421.468 -5.58138 1.6388 0
M  V30 4518 N 420.444 -5.35241 0.94962 0
M  V30 4519 H 424.246 -2.78176 0.948446 0
M  V30 4520 H 421.76 -1.50169 0.618315 0
M  V30 4521 H 423.757 -3.99324 -1.19776 0
M  V30 4522 H 422.417 -2.86431 -1.52929 0
M  V30 4523 H 423.428 -4.94984 1.52353 0
M  V30 4524 H 420.105 -4.07582 -0.904621 0
M  V30 4525 H 421.495 -6.23071 2.51461 0
M  V30 4526 N 424.215 -0.530993 -1.48385 0
M  V30 4527 C 425.163 0.244595 -2.3131 0
M  V30 4528 C 426.157 0.93451 -1.41291 0
M  V30 4529 O 427.363 0.85878 -1.58193 0
M  V30 4530 H 423.738 0.0977472 -0.74562 0
M  V30 4531 H 425.709 -0.474369 -2.94605 0
M  V30 4532 C 424.458 1.2779 -3.23365 0
M  V30 4533 H 423.781 0.756439 -3.92579 0
M  V30 4534 H 425.221 1.79198 -3.84271 0
M  V30 4535 C 423.68 2.31205 -2.45042 0
M  V30 4536 O 424.21 3.37661 -2.17596 0
M  V30 4537 N 422.416 2.04446 -2.0652 0
M  V30 4538 H 421.963 1.17891 -2.2904 0
M  V30 4539 H 421.921 2.73861 -1.54427 0
M  V30 4540 N 425.693 1.55336 -0.266172 0
M  V30 4541 C 426.97 1.91372 0.404486 0
M  V30 4542 C 427.35 1.18935 1.74407 0
M  V30 4543 O 426.698 0.3132 2.26343 0
M  V30 4544 C 426.908 3.44581 0.553593 0
M  V30 4545 C 428.256 4.16196 0.840618 0
M  V30 4546 O 429.28 3.50426 0.638739 0
M  V30 4547 O 428.139 5.32567 1.22618 0
M  V30 4548 H 425.233 0.797194 0.220025 0
M  V30 4549 H 427.779 1.66813 -0.311664 0
M  V30 4550 H 426.551 3.89357 -0.389498 0
M  V30 4551 H 426.174 3.75065 1.31955 0
M  V30 4552 N 427.171 -0.0066808 1.57599 0
M  V30 4553 C 428.587 -0.36267 1.55425 0
M  V30 4554 C 428.787 -1.75209 0.995187 0
M  V30 4555 O 427.843 -2.44616 0.626058 0
M  V30 4556 C 429.156 -0.244017 2.99708 0
M  V30 4557 C 430.704 -0.319451 3.11366 0
M  V30 4558 C 431.179 -0.229998 4.57422 0
M  V30 4559 N 432.67 -0.288105 4.62303 0
M  V30 4560 C 433.405 -0.242127 5.72889 0
M  V30 4561 N 432.901 -0.147133 6.92644 0
M  V30 4562 N 434.694 -0.293502 5.61333 0
M  V30 4563 H 426.845 0.902314 1.92281 0
M  V30 4564 H 429.108 0.34525 0.882896 0
M  V30 4565 H 428.814 0.711678 3.44424 0
M  V30 4566 H 428.688 -1.02877 3.629 0
M  V30 4567 H 431.075 -1.26559 2.66584 0
M  V30 4568 H 431.156 0.495055 2.50964 0
M  V30 4569 H 430.8 0.712566 5.02877 0
M  V30 4570 H 430.73 -1.0629 5.15761 0
M  V30 4571 H 433.221 -0.363126 3.76151 0
M  V30 4572 H 433.534 -0.117763 7.7271 0
M  V30 4573 H 431.879 -0.112857 6.94908 0
M  V30 4574 H 435.07 -0.365864 4.66668 0
M  V30 4575 H 435.243 -0.254204 6.47501 0
M  V30 4576 N 428.649 -1.55105 -0.279332 0
M  V30 4577 C 429.897 -1.75066 -1.00977 0
M  V30 4578 C 430.218 -0.551276 -1.87045 0
M  V30 4579 O 429.488 0.433984 -1.91032 0
M  V30 4580 H 428.068 -0.645578 -0.375816 0
M  V30 4581 H 430.73 -1.92497 -0.305089 0
M  V30 4582 H 429.826 -2.64894 -1.65038 0
M  V30 4583 N 430.127 0.543554 -1.4793 0
M  V30 4584 C 431.355 1.32516 -1.58894 0
M  V30 4585 C 431.77 1.87215 -0.244131 0
M  V30 4586 O 431.127 1.65709 0.764652 0
M  V30 4587 C 431.178 2.48554 -2.62494 0
M  V30 4588 O 430.899 1.96112 -3.91755 0
M  V30 4589 C 432.4 3.40572 -2.8377 0
M  V30 4590 H 429.62 0.403472 -0.536145 0
M  V30 4591 H 432.164 0.657106 -1.93655 0
M  V30 4592 H 430.319 3.1127 -2.30629 0
M  V30 4593 H 430.733 2.71967 -4.4848 0
M  V30 4594 H 432.207 4.18375 -3.60093 0
M  V30 4595 H 432.684 3.94965 -1.92092 0
M  V30 4596 H 433.29 2.8366 -3.16887 0
M  V30 4597 N 431.605 1.3629 0.791371 0
M  V30 4598 C 432.568 1.30309 1.88553 0
M  V30 4599 C 433.568 0.211204 1.59407 0
M  V30 4600 O 434.758 0.465865 1.67855 0
M  V30 4601 C 431.89 1.01956 3.25297 0
M  V30 4602 H 433.083 2.27614 1.95273 0
M  V30 4603 H 430.636 1.21035 0.988953 0
M  V30 4604 H 431.371 0.050998 3.2426 0
M  V30 4605 H 431.156 1.80968 3.4784 0
M  V30 4606 H 432.646 1.0037 4.05359 0
M  V30 4607 N 433.083 -1.0153 1.20538 0
M  V30 4608 C 434.329 -1.75408 1.01783 0
M  V30 4609 C 434.662 -1.88943 -0.448814 0
M  V30 4610 O 433.937 -1.4162 -1.33319 0
M  V30 4611 C 434.22 -3.17255 1.70356 0
M  V30 4612 C 434.073 -3.11508 3.24473 0
M  V30 4613 C 435.392 -4.15955 1.43769 0
M  V30 4614 H 432.511 -0.636713 0.371167 0
M  V30 4615 H 435.153 -1.18436 1.4857 0
M  V30 4616 H 433.303 -3.65898 1.30578 0
M  V30 4617 H 434.975 -2.70658 3.73553 0
M  V30 4618 H 433.218 -2.4887 3.55311 0
M  V30 4619 H 433.889 -4.11784 3.67611 0
M  V30 4620 H 436.365 -3.75973 1.7828 0
M  V30 4621 H 435.241 -5.13368 1.94279 0
M  V30 4622 H 435.502 -4.40586 0.365564 0
M  V30 4623 N 434.561 -1.01147 -1.20859 0
M  V30 4624 C 435.524 -0.582224 -2.21682 0
M  V30 4625 C 436.524 0.344887 -1.57058 0
M  V30 4626 O 437.714 0.134281 -1.73682 0
M  V30 4627 C 434.846 0.150496 -3.40568 0
M  V30 4628 H 436.039 -1.47408 -2.61172 0
M  V30 4629 H 433.592 -0.800695 -1.34233 0
M  V30 4630 H 434.327 1.0575 -3.06574 0
M  V30 4631 H 434.112 -0.515444 -3.88697 0
M  V30 4632 H 435.602 0.438344 -4.15293 0
M  V30 4633 N 436.039 1.36541 -0.78704 0
M  V30 4634 C 437.002 2.28413 -0.189778 0
M  V30 4635 C 438.002 1.48719 0.611499 0
M  V30 4636 O 439.192 1.68737 0.432842 0
M  V30 4637 C 436.324 3.32824 0.737638 0
M  V30 4638 H 437.517 2.82743 -0.999831 0
M  V30 4639 H 435.07 1.46065 -0.556298 0
M  V30 4640 H 435.805 2.83646 1.57212 0
M  V30 4641 H 435.59 3.91752 0.165044 0
M  V30 4642 H 437.08 4.0144 1.15047 0
M  V30 4643 N 437.518 0.538854 1.48102 0
M  V30 4644 C 438.481 -0.208395 2.28251 0
M  V30 4645 C 439.481 -0.859656 1.35892 0
M  V30 4646 O 440.671 -0.71834 1.58699 0
M  V30 4647 C 437.803 -1.30252 3.15035 0
M  V30 4648 H 438.996 0.495407 2.9578 0
M  V30 4649 H 436.549 0.295112 1.53489 0
M  V30 4650 H 437.284 -2.0393 2.52157 0
M  V30 4651 H 437.069 -0.840551 3.82985 0
M  V30 4652 H 438.559 -1.82787 3.75471 0
M  V30 4653 N 438.996 -1.55193 0.274407 0
M  V30 4654 C 439.906 -2.26164 -0.623473 0
M  V30 4655 C 440.922 -1.28729 -1.17068 0
M  V30 4656 O 442.098 -1.61663 -1.20112 0
M  V30 4657 C 439.163 -2.96833 -1.7914 0
M  V30 4658 C 438.224 -4.09745 -1.28093 0
M  V30 4659 C 437.457 -4.77034 -2.3932 0
M  V30 4660 O 437.68 -4.4353 -3.5866 0
M  V30 4661 O 436.614 -5.64996 -2.07516 0
M  V30 4662 H 440.44 -3.03661 -0.0485661 0
M  V30 4663 H 438.025 -1.49341 0.0418382 0
M  V30 4664 H 439.907 -3.41248 -2.4724 0
M  V30 4665 H 438.582 -2.22253 -2.35341 0
M  V30 4666 H 437.489 -3.69787 -0.566416 0
M  V30 4667 H 438.822 -4.86224 -0.764683 0
M  V30 4668 N 440.474 -0.00167713 -1.576 0
M  V30 4669 C 441.404 0.988091 -2.11563 0
M  V30 4670 C 442.385 1.35736 -1.02517 0
M  V30 4671 O 443.57 1.44082 -1.30208 0
M  V30 4672 C 440.7 2.27941 -2.62031 0
M  V30 4673 C 439.654 2.0517 -3.75619 0
M  V30 4674 C 438.98 3.4033 -4.12407 0
M  V30 4675 C 440.28 1.41294 -5.02825 0
M  V30 4676 H 441.974 0.538771 -2.94513 0
M  V30 4677 H 439.52 0.257712 -1.41675 0
M  V30 4678 H 441.473 2.97539 -2.9841 0
M  V30 4679 H 440.197 2.74989 -1.76205 0
M  V30 4680 H 438.856 1.37998 -3.39635 0
M  V30 4681 H 438.504 3.85085 -3.23603 0
M  V30 4682 H 438.204 3.25909 -4.88935 0
M  V30 4683 H 439.728 4.1124 -4.51347 0
M  V30 4684 H 441.142 2.00851 -5.36965 0
M  V30 4685 H 439.539 1.37356 -5.84169 0
M  V30 4686 H 440.609 0.382362 -4.8339 0
M  V30 4687 N 441.952 1.55251 0.271103 0
M  V30 4688 C 443.2 1.75599 1.00047 0
M  V30 4689 C 443.521 0.561188 1.8675 0
M  V30 4690 O 442.791 -0.423846 1.9126 0
M  V30 4691 H 441.371 0.647562 0.372387 0
M  V30 4692 H 444.033 1.92656 0.294876 0
M  V30 4693 H 443.129 2.65766 1.6363 0
M  V30 4694 N 443.43 -0.535701 1.48216 0
M  V30 4695 C 444.677 -1.29183 1.55942 0
M  V30 4696 C 445.005 -1.93125 0.230857 0
M  V30 4697 O 444.26 -1.79556 -0.778331 0
M  V30 4698 C 444.559 -2.4068 2.64212 0
M  V30 4699 C 444.225 -1.94428 4.06827 0
M  V30 4700 C 442.887 -1.81532 4.45645 0
M  V30 4701 C 445.239 -1.59405 4.96225 0
M  V30 4702 C 442.567 -1.31939 5.71672 0
M  V30 4703 C 444.919 -1.11276 6.22736 0
M  V30 4704 C 443.583 -0.969924 6.60416 0
M  V30 4705 H 442.853 -0.472715 0.570632 0
M  V30 4706 H 445.5 -0.598437 1.81909 0
M  V30 4707 H 443.805 -3.15666 2.32083 0
M  V30 4708 H 445.502 -2.98822 2.67407 0
M  V30 4709 H 442.092 -2.05415 3.76168 0
M  V30 4710 H 446.276 -1.68231 4.66917 0
M  V30 4711 H 441.532 -1.19562 5.99596 0
M  V30 4712 H 445.706 -0.832453 6.91407 0
M  V30 4713 H 443.333 -0.583436 7.57958 0
M  V30 4714 N 444.908 -1.36708 -0.784132 0
M  V30 4715 C 445.871 -1.31307 -1.87859 0
M  V30 4716 C 446.871 -0.219654 -1.59293 0
M  V30 4717 O 448.061 -0.47476 -1.67606 0
M  V30 4718 C 445.193 -1.03679 -3.24751 0
M  V30 4719 H 446.386 -2.28647 -1.94064 0
M  V30 4720 H 443.939 -1.21558 -0.98252 0
M  V30 4721 H 444.674 -0.0681936 -3.24228 0
M  V30 4722 H 444.459 -1.82811 -3.46876 0
M  V30 4723 H 445.949 -1.02518 -4.04821 0
M  V30 4724 N 446.386 1.0089 -1.21074 0
M  V30 4725 C 447.349 2.0775 -0.968129 0
M  V30 4726 C 448.349 1.6069 0.0593445 0
M  V30 4727 O 449.539 1.73293 -0.177525 0
M  V30 4728 C 446.671 3.37794 -0.459108 0
M  V30 4729 H 447.864 2.30707 -1.9161 0
M  V30 4730 H 445.417 1.17807 -1.02719 0
M  V30 4731 H 446.152 3.20516 0.49397 0
M  V30 4732 H 445.937 3.7328 -1.20019 0
M  V30 4733 H 447.427 4.16454 -0.309099 0
M  V30 4734 N 447.864 1.01787 1.20321 0
M  V30 4735 C 449.112 0.706538 1.89347 0
M  V30 4736 C 449.433 -0.766289 1.79313 0
M  V30 4737 O 448.703 -1.55126 1.19635 0
M  V30 4738 H 447.283 0.258348 0.700903 0
M  V30 4739 H 449.945 1.28974 1.46122 0
M  V30 4740 H 449.041 0.991066 2.95946 0
M  V30 4741 N 449.342 -1.36122 0.79427 0
M  V30 4742 C 450.305 -2.28309 0.201889 0
M  V30 4743 C 451.305 -1.49041 -0.603603 0
M  V30 4744 O 452.495 -1.68964 -0.423888 0
M  V30 4745 C 449.627 -3.3321 -0.719978 0
M  V30 4746 H 450.82 -2.82208 1.01481 0
M  V30 4747 H 448.373 -1.45768 0.564037 0
M  V30 4748 H 449.108 -2.84475 -1.55706 0
M  V30 4749 H 448.893 -3.91835 -0.144266 0
M  V30 4750 H 450.383 -4.02044 -1.12916 0
M  V30 4751 N 450.82 -0.546701 -1.47814 0
M  V30 4752 C 452.097 0.0464413 -1.95545 0
M  V30 4753 C 452.477 1.4962 -1.48919 0
M  V30 4754 O 451.825 2.16752 -0.723232 0
M  V30 4755 C 452.035 -0.0881298 -3.48889 0
M  V30 4756 C 453.383 0.0626059 -4.24554 0
M  V30 4757 O 454.407 -0.0151555 -3.56197 0
M  V30 4758 O 453.266 0.228071 -5.46024 0
M  V30 4759 H 450.36 0.0700004 -0.824032 0
M  V30 4760 H 452.906 -0.612482 -1.58262 0
M  V30 4761 H 451.678 -1.09737 -3.75597 0
M  V30 4762 H 451.301 0.608886 -3.9291 0
M  V30 4763 N 452.299 1.55045 -0.282633 0
M  V30 4764 C 453.715 1.59441 0.0712997 0
M  V30 4765 C 453.915 1.2998 1.53972 0
M  V30 4766 O 452.971 1.06431 2.28973 0
M  V30 4767 C 454.284 2.99097 -0.310104 0
M  V30 4768 C 455.832 3.1194 -0.257343 0
M  V30 4769 C 456.307 4.53875 -0.613297 0
M  V30 4770 N 457.798 4.5974 -0.565134 0
M  V30 4771 C 458.533 5.67603 -0.81326 0
M  V30 4772 N 458.029 6.83582 -1.1264 0
M  V30 4773 N 459.822 5.57187 -0.741553 0
M  V30 4774 H 451.973 1.72458 -1.23984 0
M  V30 4775 H 454.236 0.804549 -0.501403 0
M  V30 4776 H 453.942 3.25516 -1.33163 0
M  V30 4777 H 453.816 3.75616 0.345366 0
M  V30 4778 H 456.203 2.85281 0.754905 0
M  V30 4779 H 456.284 2.37618 -0.947178 0
M  V30 4780 H 455.928 4.81261 -1.62327 0
M  V30 4781 H 455.858 5.26508 0.09841 0
M  V30 4782 H 458.349 3.76427 -0.333294 0
M  V30 4783 H 458.662 7.6175 -1.30219 0
M  V30 4784 H 457.007 6.85179 -1.16425 0
M  V30 4785 H 460.198 4.65457 -0.496705 0
M  V30 4786 H 460.371 6.41171 -0.938306 0
M  V30 4787 N 453.777 0.010035 1.57597 0
M  V30 4788 C 455.026 -0.671945 1.90178 0
M  V30 4789 C 455.339 -1.74376 0.886131 0
M  V30 4790 O 456.545 -2.48107 1.10252 0
M  V30 4791 C 455.001 -1.24636 3.3763 0
M  V30 4792 C 454.609 -0.208838 4.47513 0
M  V30 4793 C 456.353 -1.90595 3.79307 0
M  V30 4794 C 454.26 -0.793814 5.86048 0
M  V30 4795 H 453.19 -0.25474 0.709665 0
M  V30 4796 H 455.841 0.0722206 1.83358 0
M  V30 4797 H 454.223 -2.04152 3.3932 0
M  V30 4798 H 455.397 0.562463 4.57354 0
M  V30 4799 H 453.712 0.350889 4.14919 0
M  V30 4800 H 456.309 -2.35284 4.80151 0
M  V30 4801 H 456.652 -2.74074 3.13352 0
M  V30 4802 H 457.185 -1.17798 3.79958 0
M  V30 4803 H 453.924 0.00240855 6.555 0
M  V30 4804 H 453.444 -1.53404 5.79851 0
M  V30 4805 H 455.123 -1.2894 6.34022 0
M  V30 4806 N 455.255 -1.55392 -0.262866 0
M  V30 4807 C 456.165 -1.92077 -1.34698 0
M  V30 4808 C 457.181 -0.819227 -1.53508 0
M  V30 4809 O 458.357 -1.11921 -1.67439 0
M  V30 4810 C 455.422 -2.19407 -2.68443 0
M  V30 4811 C 454.483 -3.42905 -2.58292 0
M  V30 4812 C 453.716 -3.68921 -3.85659 0
M  V30 4813 O 453.939 -2.97275 -4.8681 0
M  V30 4814 O 452.873 -4.62455 -3.85252 0
M  V30 4815 H 456.699 -2.84384 -1.06581 0
M  V30 4816 H 454.284 -1.42069 -0.462264 0
M  V30 4817 H 456.166 -2.38365 -3.47506 0
M  V30 4818 H 454.841 -1.30282 -2.96325 0
M  V30 4819 H 453.748 -3.29272 -1.7757 0
M  V30 4820 H 455.081 -4.32282 -2.35358 0
M  V30 4821 N 456.733 0.527833 -1.48498 0
M  V30 4822 C 457.981 1.28101 -1.56316 0
M  V30 4823 C 458.302 1.9352 -0.239781 0
M  V30 4824 O 457.572 1.81433 0.738849 0
M  V30 4825 H 456.152 0.475793 -0.575873 0
M  V30 4826 H 458.814 0.614052 -1.84974 0
M  V30 4827 H 457.91 2.05916 -2.34532 0
M  V30 4828 N 458.211 1.37122 0.776871 0
M  V30 4829 C 459.451 1.33441 1.54831 0
M  V30 4830 C 459.815 -0.0818963 1.91825 0
M  V30 4831 O 461.016 -0.24338 2.67696 0
M  V30 4832 C 459.287 2.24267 2.78279 0
M  V30 4833 S 460.846 2.38389 3.68397 0
M  V30 4834 H 457.664 0.473791 0.530135 0
M  V30 4835 H 460.266 1.7282 0.913968 0
M  V30 4836 H 458.97 3.261 2.49173 0
M  V30 4837 H 458.501 1.85953 3.46677 0
M  V30 4838 H 460.516 1.59068 4.70013 0
M  V30 4839 N 459.689 -1.00246 1.21608 0
M  V30 4840 C 460.619 -2.10921 1.00172 0
M  V30 4841 C 461.6 -1.69938 -0.0741587 0
M  V30 4842 O 462.785 -1.94009 0.0861753 0
M  V30 4843 C 459.915 -3.42618 0.568355 0
M  V30 4844 C 458.869 -3.97407 1.58909 0
M  V30 4845 C 458.195 -5.25038 1.01187 0
M  V30 4846 C 459.495 -4.2918 2.97661 0
M  V30 4847 H 461.189 -2.29112 1.92739 0
M  V30 4848 H 458.735 -1.10101 0.928102 0
M  V30 4849 H 460.688 -4.19444 0.405555 0
M  V30 4850 H 459.412 -3.24227 -0.392961 0
M  V30 4851 H 458.071 -3.22703 1.73949 0
M  V30 4852 H 457.719 -5.02982 0.0421965 0
M  V30 4853 H 457.419 -5.62661 1.6937 0
M  V30 4854 H 458.943 -6.04507 0.860448 0
M  V30 4855 H 460.357 -4.96839 2.86049 0
M  V30 4856 H 458.754 -4.77952 3.6288 0
M  V30 4857 H 459.824 -3.3735 3.48315 0
M  V30 4858 N 461.167 -1.02423 -1.1978 0
M  V30 4859 C 462.414 -0.717988 -1.89344 0
M  V30 4860 C 462.742 0.753036 -1.79331 0
M  V30 4861 O 461.997 1.56355 -1.17692 0
M  V30 4862 C 462.296 -1.1088 -3.39765 0
M  V30 4863 C 461.962 -2.57731 -3.6998 0
M  V30 4864 C 460.624 -2.97854 -3.77937 0
M  V30 4865 C 462.976 -3.52763 -3.83677 0
M  V30 4866 C 460.304 -4.31931 -3.97054 0
M  V30 4867 C 462.656 -4.86538 -4.04306 0
M  V30 4868 C 461.32 -5.26356 -4.10494 0
M  V30 4869 H 460.59 -0.26273 -0.692859 0
M  V30 4870 H 463.237 -1.28623 -1.41875 0
M  V30 4871 H 461.542 -0.459094 -3.89101 0
M  V30 4872 H 463.239 -0.849432 -3.919 0
M  V30 4873 H 459.829 -2.25646 -3.64393 0
M  V30 4874 H 464.013 -3.2292 -3.76877 0
M  V30 4875 H 459.269 -4.62324 -4.00083 0
M  V30 4876 H 463.443 -5.60093 -4.13846 0
M  V30 4877 H 461.07 -6.3026 -4.2506 0
M  V30 4878 N 462.645 1.35699 -0.801477 0
M  V30 4879 C 463.893 1.9852 -0.37871 0
M  V30 4880 C 464.214 1.63907 1.05638 0
M  V30 4881 O 463.484 0.919013 1.73006 0
M  V30 4882 H 462.064 0.734322 -0.137042 0
M  V30 4883 H 464.726 1.65697 -1.02619 0
M  V30 4884 H 463.822 3.08382 -0.480284 0
M  V30 4885 N 464.123 0.554532 1.47522 0
M  V30 4886 C 465.071 -0.207765 2.3167 0
M  V30 4887 C 466.065 -0.911914 1.4276 0
M  V30 4888 O 467.271 -0.833504 1.59539 0
M  V30 4889 H 463.646 -0.0858726 0.747081 0
M  V30 4890 H 465.617 0.521178 2.93813 0
M  V30 4891 C 464.366 -1.2263 3.25357 0
M  V30 4892 H 463.689 -0.693887 3.93732 0
M  V30 4893 H 465.129 -1.73062 3.87073 0
M  V30 4894 C 463.588 -2.27278 2.4869 0
M  V30 4895 O 464.118 -3.34156 2.22941 0
M  V30 4896 N 462.324 -2.01134 2.09746 0
M  V30 4897 H 461.871 -1.14232 2.30887 0
M  V30 4898 H 461.829 -2.71369 1.58765 0
M  V30 4899 N 465.601 -1.54893 0.290851 0
M  V30 4900 C 466.849 -1.99538 -0.320756 0
M  V30 4901 C 467.17 -1.18075 -1.55188 0
M  V30 4902 O 466.44 -0.274162 -1.93972 0
M  V30 4903 H 465.02 -0.737052 -0.121507 0
M  V30 4904 H 467.682 -1.90755 0.399832 0
M  V30 4905 H 466.778 -3.06282 -0.599802 0
M  V30 4906 N 467.08 -0.0183926 -1.57589 0
M  V30 4907 C 467.99 0.982943 -2.13015 0
M  V30 4908 C 469.006 1.36443 -1.07979 0
M  V30 4909 O 470.182 1.44802 -1.3998 0
M  V30 4910 C 467.247 2.25024 -2.63752 0
M  V30 4911 C 466.308 1.93018 -3.83461 0
M  V30 4912 C 465.541 3.13706 -4.31769 0
M  V30 4913 O 465.764 4.2601 -3.79305 0
M  V30 4914 O 464.698 2.96629 -5.23732 0
M  V30 4915 H 468.524 0.541709 -2.9883 0
M  V30 4916 H 466.109 0.201565 -1.48034 0
M  V30 4917 H 467.991 2.99441 -2.96502 0
M  V30 4918 H 466.666 2.68349 -1.81026 0
M  V30 4919 H 465.573 1.16019 -3.55655 0
M  V30 4920 H 466.906 1.54516 -4.67317 0
M  V30 4921 N 468.558 1.5553 0.254621 0
M  V30 4922 C 469.974 1.4778 0.602753 0
M  V30 4923 C 470.174 0.707047 1.88688 0
M  V30 4924 O 469.23 0.233288 2.5142 0
M  V30 4925 C 470.543 2.92133 0.712648 0
M  V30 4926 C 472.091 3.02458 0.805488 0
M  V30 4927 C 472.566 4.48102 0.947009 0
M  V30 4928 N 474.057 4.52008 1.01207 0
M  V30 4929 C 474.792 5.61939 1.1407 0
M  V30 4930 N 474.288 6.81697 1.23536 0
M  V30 4931 N 476.081 5.49719 1.17325 0
M  V30 4932 H 468.232 2.04085 -0.588463 0
M  V30 4933 H 470.495 0.926229 -0.202001 0
M  V30 4934 H 470.201 3.51332 -0.160766 0
M  V30 4935 H 470.075 3.42187 1.58707 0
M  V30 4936 H 472.462 2.43344 1.66936 0
M  V30 4937 H 472.543 2.55627 -0.0939266 0
M  V30 4938 H 472.187 5.07824 0.087725 0
M  V30 4939 H 472.117 4.92607 1.86135 0
M  V30 4940 H 474.608 3.65749 0.950577 0
M  V30 4941 H 474.921 7.61228 1.33236 0
M  V30 4942 H 473.266 6.84473 1.20508 0
M  V30 4943 H 476.457 4.55095 1.09573 0
M  V30 4944 H 476.63 6.35432 1.27005 0
M  V30 4945 N 470.036 -0.519951 1.48776 0
M  V30 4946 C 471.264 -1.29971 1.60982 0
M  V30 4947 C 471.679 -1.86803 0.273885 0
M  V30 4948 O 471.036 -1.66904 -0.738193 0
M  V30 4949 C 471.087 -2.44346 2.66415 0
M  V30 4950 O 470.808 -1.89855 3.94825 0
M  V30 4951 C 472.309 -3.36014 2.89153 0
M  V30 4952 H 469.529 -0.394891 0.542496 0
M  V30 4953 H 472.073 -0.626214 1.94676 0
M  V30 4954 H 470.228 -3.07562 2.35552 0
M  V30 4955 H 470.642 -2.64798 4.5275 0
M  V30 4956 H 472.116 -4.12593 3.66703 0
M  V30 4957 H 472.593 -3.91859 1.98351 0
M  V30 4958 H 473.199 -2.78582 3.21359 0
M  V30 4959 N 471.514 -1.37532 -0.769588 0
M  V30 4960 C 472.762 -1.32597 -1.5252 0
M  V30 4961 C 473.083 0.0884294 -1.94799 0
M  V30 4962 O 472.353 1.03289 -1.66458 0
M  V30 4963 H 470.933 -0.487846 -0.565699 0
M  V30 4964 H 473.595 -1.72044 -0.915806 0
M  V30 4965 H 472.691 -1.96643 -2.42359 0
M  V30 4966 N 472.992 0.995999 -1.22138 0
M  V30 4967 C 473.94 2.10673 -0.985876 0
M  V30 4968 C 474.934 1.69255 0.0699553 0
M  V30 4969 O 476.14 1.79812 -0.0822176 0
M  V30 4970 H 472.515 0.688865 -0.30161 0
M  V30 4971 H 474.486 2.27711 -1.92848 0
M  V30 4972 C 473.235 3.42881 -0.576909 0
M  V30 4973 H 472.558 3.75191 -1.38101 0
M  V30 4974 H 473.998 4.21589 -0.451518 0
M  V30 4975 C 472.457 3.29265 0.713196 0
M  V30 4976 O 472.987 3.60777 1.76643 0
M  V30 4977 N 471.193 2.82456 0.683162 0
M  V30 4978 H 470.74 2.5701 -0.174242 0
M  V30 4979 H 470.698 2.73727 1.54663 0
M  V30 4980 N 474.47 1.03057 1.19235 0
M  V30 4981 C 475.716 0.729098 1.89241 0
M  V30 4982 C 476.049 -0.740573 1.79525 0
M  V30 4983 O 475.324 -1.53946 1.18874 0
M  V30 4984 C 475.607 1.18304 3.40112 0
M  V30 4985 C 475.46 2.71406 3.5869 0
M  V30 4986 C 476.779 0.765161 4.33397 0
M  V30 4987 H 473.898 0.266338 0.687192 0
M  V30 4988 H 476.54 1.28079 1.40341 0
M  V30 4989 H 474.69 0.713672 3.81889 0
M  V30 4990 H 476.362 3.26303 3.26074 0
M  V30 4991 H 474.605 3.11717 3.01687 0
M  V30 4992 H 475.276 2.98225 4.64506 0
M  V30 4993 H 477.752 1.16889 3.99345 0
M  V30 4994 H 476.628 1.11065 5.37546 0
M  V30 4995 H 476.889 -0.332372 4.40849 0
M  V30 4996 N 475.948 -1.35272 0.808662 0
M  V30 4997 C 477.188 -2.00534 0.395668 0
M  V30 4998 C 477.552 -1.62755 -1.01857 0
M  V30 4999 O 478.753 -2.20752 -1.53368 0
M  V30 5000 C 477.024 -3.52732 0.575771 0
M  V30 5001 S 478.583 -4.38067 0.253507 0
M  V30 5002 H 475.401 -0.694962 0.150165 0
M  V30 5003 H 478.003 -1.64823 1.05137 0
M  V30 5004 H 476.707 -3.77714 1.60499 0
M  V30 5005 H 476.238 -3.93285 -0.0951739 0
M  V30 5006 H 478.253 -4.87252 -0.938068 0
M  V30 5007 N 477.426 -0.562348 -1.47226 0
M  V30 5008 C 478.356 0.170627 -2.32876 0
M  V30 5009 C 479.337 0.903748 -1.44106 0
M  V30 5010 O 480.522 0.883206 -1.72954 0
M  V30 5011 C 477.652 1.19786 -3.25989 0
M  V30 5012 C 476.606 0.580875 -4.2404 0
M  V30 5013 C 475.932 1.71311 -5.06514 0
M  V30 5014 C 477.232 -0.468714 -5.20193 0
M  V30 5015 H 478.926 -0.544441 -2.94408 0
M  V30 5016 H 476.472 -0.263271 -1.41573 0
M  V30 5017 H 478.425 1.71884 -3.84752 0
M  V30 5018 H 477.149 1.94294 -2.62521 0
M  V30 5019 H 475.808 0.0811538 -3.6651 0
M  V30 5020 H 475.456 2.44736 -4.39447 0
M  V30 5021 H 475.156 1.30604 -5.72902 0
M  V30 5022 H 476.68 2.23725 -5.68137 0
M  V30 5023 H 478.094 -0.0336028 -5.7329 0
M  V30 5024 H 476.491 -0.794957 -5.94811 0
M  V30 5025 H 477.561 -1.36269 -4.65359 0
M  V30 5026 N 478.904 1.54736 -0.299062 0
M  V30 5027 C 480.15 2.00397 0.311244 0
M  V30 5028 C 480.483 1.18716 1.53688 0
M  V30 5029 O 479.758 0.263154 1.92712 0
M  V30 5030 C 480.041 3.53817 0.669761 0
M  V30 5031 C 479.894 4.46239 -0.564882 0
M  V30 5032 C 481.213 4.13856 1.49702 0
M  V30 5033 H 478.332 0.728493 0.111653 0
M  V30 5034 H 480.974 1.85506 -0.410774 0
M  V30 5035 H 479.124 3.66637 1.28491 0
M  V30 5036 H 480.796 4.45328 -1.20337 0
M  V30 5037 H 479.039 4.16916 -1.19849 0
M  V30 5038 H 479.71 5.5134 -0.269918 0
M  V30 5039 H 482.186 4.04461 0.977284 0
M  V30 5040 H 481.062 5.21365 1.71666 0
M  V30 5041 H 481.323 3.65608 2.48563 0
M  V30 5042 N 480.382 0.0267497 1.57577 0
M  V30 5043 C 481.61 -0.662661 1.96001 0
M  V30 5044 C 482.025 -1.65799 0.903117 0
M  V30 5045 O 481.382 -1.82135 -0.115317 0
M  V30 5046 C 481.433 -1.37112 3.34488 0
M  V30 5047 O 481.154 -0.415683 4.36123 0
M  V30 5048 C 482.655 -2.15257 3.8753 0
M  V30 5049 H 479.875 -0.18287 0.6456 0
M  V30 5050 H 482.419 0.0858116 2.0432 0
M  V30 5051 H 480.574 -2.07101 3.27395 0
M  V30 5052 H 480.988 -0.918496 5.16395 0
M  V30 5053 H 482.462 -2.60285 4.86781 0
M  V30 5054 H 482.939 -2.99063 3.21649 0
M  V30 5055 H 483.545 -1.50231 3.97883 0
M  V30 5056 N 481.861 -1.55662 -0.24637 0
M  V30 5057 C 482.791 -1.93377 -1.30873 0
M  V30 5058 C 483.772 -0.798773 -1.50179 0
M  V30 5059 O 484.957 -1.0591 -1.62778 0
M  V30 5060 C 482.087 -2.22893 -2.66338 0
M  V30 5061 C 481.041 -3.38649 -2.61727 0
M  V30 5062 C 480.367 -3.53708 -4.00992 0
M  V30 5063 C 481.667 -4.74323 -2.18666 0
M  V30 5064 H 483.361 -2.82363 -0.995552 0
M  V30 5065 H 480.907 -1.35854 -0.477464 0
M  V30 5066 H 482.86 -2.47866 -3.40794 0
M  V30 5067 H 481.584 -1.30733 -2.99293 0
M  V30 5068 H 480.243 -3.13685 -1.89729 0
M  V30 5069 H 479.891 -2.58967 -4.31214 0
M  V30 5070 H 479.591 -4.31551 -3.98795 0
M  V30 5071 H 481.115 -3.81003 -4.77147 0
M  V30 5072 H 482.529 -4.98665 -2.82854 0
M  V30 5073 H 480.926 -5.55273 -2.27579 0
M  V30 5074 H 481.996 -4.71349 -1.13834 0
M  V30 5075 N 483.339 0.512053 -1.4905 0
M  V30 5076 C 484.587 1.26436 -1.57665 0
M  V30 5077 C 484.908 1.93255 -0.260293 0
M  V30 5078 O 484.178 1.82206 0.719564 0
M  V30 5079 H 482.758 0.469658 -0.580888 0
M  V30 5080 H 485.42 0.594398 -1.85615 0
M  V30 5081 H 484.516 2.03417 -2.36702 0
M  V30 5082 N 484.817 1.37938 0.762283 0
M  V30 5083 C 485.747 1.37176 1.88958 0
M  V30 5084 C 486.728 0.238945 1.68413 0
M  V30 5085 O 487.913 0.440726 1.89133 0
M  V30 5086 C 485.043 1.18742 3.2637 0
M  V30 5087 C 483.997 2.29136 3.61498 0
M  V30 5088 C 483.323 1.95816 4.97554 0
M  V30 5089 C 484.623 3.71363 3.6727 0
M  V30 5090 H 486.317 2.31509 1.89853 0
M  V30 5091 H 483.863 1.11438 0.912005 0
M  V30 5092 H 485.816 1.16837 4.04879 0
M  V30 5093 H 484.54 0.208683 3.25933 0
M  V30 5094 H 483.199 2.30213 2.85303 0
M  V30 5095 H 482.847 0.964475 4.93667 0
M  V30 5096 H 482.547 2.69745 5.22026 0
M  V30 5097 H 484.071 1.95513 5.78452 0
M  V30 5098 H 485.485 3.72364 4.35911 0
M  V30 5099 H 483.882 4.44425 4.03245 0
M  V30 5100 H 484.952 4.04305 2.67704 0
M  V30 5101 N 486.295 -0.989507 1.22664 0
M  V30 5102 C 487.243 -2.10148 0.997035 0
M  V30 5103 C 488.237 -1.6929 -0.0609783 0
M  V30 5104 O 489.443 -1.79766 0.0917523 0
M  V30 5105 H 485.818 -0.687256 0.305259 0
M  V30 5106 H 487.789 -2.26685 1.94053 0
M  V30 5107 C 486.538 -3.4257 0.595085 0
M  V30 5108 H 485.861 -3.74453 1.40089 0
M  V30 5109 H 487.301 -4.21344 0.473869 0
M  V30 5110 C 485.76 -3.29638 -0.695725 0
M  V30 5111 O 486.29 -3.61709 -1.74727 0
M  V30 5112 N 484.496 -2.82814 -0.668173 0
M  V30 5113 H 484.043 -2.56914 0.18787 0
M  V30 5114 H 484.001 -2.74544 -1.5321 0
M  V30 5115 N 487.773 -1.03688 -1.18687 0
M  V30 5116 C 488.703 -0.645407 -2.24403 0
M  V30 5117 C 489.684 0.349511 -1.66471 0
M  V30 5118 O 490.869 0.230453 -1.92828 0
M  V30 5119 C 487.999 -0.00365337 -3.473 0
M  V30 5120 C 486.953 -0.921705 -4.17958 0
M  V30 5121 C 486.279 -0.144629 -5.34504 0
M  V30 5122 C 487.579 -2.23909 -4.71871 0
M  V30 5123 H 489.273 -1.52917 -2.57404 0
M  V30 5124 H 486.819 -0.736711 -1.23728 0
M  V30 5125 H 488.772 0.281908 -4.20456 0
M  V30 5126 H 487.496 0.914963 -3.13522 0
M  V30 5127 H 486.155 -1.19159 -3.46694 0
M  V30 5128 H 485.803 0.776274 -4.96974 0
M  V30 5129 H 485.503 -0.756206 -5.82714 0
M  V30 5130 H 487.027 0.134004 -6.10453 0
M  V30 5131 H 488.441 -2.0145 -5.36741 0
M  V30 5132 H 486.838 -2.8033 -5.30599 0
M  V30 5133 H 487.908 -2.88822 -3.895 0
M  V30 5134 N 489.251 1.34841 -0.815825 0
M  V30 5135 C 490.498 1.98499 -0.400535 0
M  V30 5136 C 490.826 1.64699 1.03463 0
M  V30 5137 O 490.081 0.907006 1.73412 0
M  V30 5138 C 490.38 3.53273 -0.541541 0
M  V30 5139 C 490.046 4.06966 -1.94138 0
M  V30 5140 C 488.708 4.21341 -2.32433 0
M  V30 5141 C 491.06 4.35933 -2.85677 0
M  V30 5142 C 488.388 4.62007 -3.61617 0
M  V30 5143 C 490.74 4.78042 -4.14317 0
M  V30 5144 C 489.404 4.90622 -4.52599 0
M  V30 5145 H 488.674 0.72636 -0.146566 0
M  V30 5146 H 491.321 1.60902 -1.0384 0
M  V30 5147 H 489.626 3.91387 0.179741 0
M  V30 5148 H 491.323 4.00497 -0.20085 0
M  V30 5149 H 487.913 3.96235 -1.63388 0
M  V30 5150 H 492.097 4.24372 -2.57337 0
M  V30 5151 H 487.353 4.69937 -3.91113 0
M  V30 5152 H 491.527 4.99415 -4.85342 0
M  V30 5153 H 489.154 5.2189 -5.52752 0
M  V30 5154 N 490.729 0.570148 1.46925 0
M  V30 5155 C 491.954 0.0542592 2.07329 0
M  V30 5156 C 492.379 -1.23582 1.41806 0
M  V30 5157 O 491.737 -1.74341 0.497479 0
M  V30 5158 C 491.785 -0.111175 3.60429 0
M  V30 5159 O 490.889 -1.17071 3.95434 0
M  V30 5160 H 490.23 0.0571425 0.661537 0
M  V30 5161 H 492.76 0.789516 1.88753 0
M  V30 5162 H 492.77 -0.321315 4.06733 0
M  V30 5163 H 491.445 0.831012 4.07513 0
M  V30 5164 H 490.022 -0.940029 3.60857 0
M  V30 5165 N 492.207 -1.54576 0.307264 0
M  V30 5166 C 493.623 -1.59534 -0.0459251 0
M  V30 5167 C 493.823 -1.32414 -1.51884 0
M  V30 5168 O 492.879 -1.1006 -2.27251 0
M  V30 5169 C 494.192 -2.98566 0.357649 0
M  V30 5170 C 495.74 -3.11491 0.306937 0
M  V30 5171 C 496.215 -4.52842 0.685427 0
M  V30 5172 N 497.706 -4.58782 0.638203 0
M  V30 5173 C 498.441 -5.66238 0.903458 0
M  V30 5174 N 497.937 -6.81703 1.23501 0
M  V30 5175 N 499.73 -5.55937 0.830102 0
M  V30 5176 H 491.881 -1.70464 1.26712 0
M  V30 5177 H 494.144 -0.79647 0.514139 0
M  V30 5178 H 493.85 -3.23356 1.38325 0
M  V30 5179 H 493.724 -3.76117 -0.285565 0
M  V30 5180 H 496.111 -2.86446 -0.709424 0
M  V30 5181 H 496.192 -2.36081 0.984861 0
M  V30 5182 H 495.836 -4.78618 1.69963 0
M  V30 5183 H 495.766 -5.26598 -0.0146346 0
M  V30 5184 H 498.257 -3.75849 0.393138 0
M  V30 5185 H 498.57 -7.59582 1.42322 0
M  V30 5186 H 496.915 -6.8324 1.27311 0
M  V30 5187 H 500.106 -4.64608 0.570693 0
M  V30 5188 H 500.279 -6.39597 1.04019 0
M  V30 5189 N 493.685 -0.035106 -1.57561 0
M  V30 5190 C 494.933 0.64096 -1.91667 0
M  V30 5191 C 495.254 1.72323 -0.912681 0
M  V30 5192 O 494.524 1.95849 0.0449089 0
M  V30 5193 H 493.104 0.239743 -0.707483 0
M  V30 5194 H 495.766 -0.084321 -1.94718 0
M  V30 5195 H 494.862 1.08987 -2.92452 0
M  V30 5196 N 495.163 1.55791 0.238111 0
M  V30 5197 C 496.409 1.78297 0.966337 0
M  V30 5198 C 496.742 0.601903 1.84637 0
M  V30 5199 O 496.017 -0.399499 1.90353 0
M  V30 5200 C 496.3 3.10758 1.81939 0
M  V30 5201 C 496.153 4.39283 0.966958 0
M  V30 5202 C 497.472 3.39519 2.80027 0
M  V30 5203 H 494.591 0.648654 0.349882 0
M  V30 5204 H 497.233 1.88525 0.236253 0
M  V30 5205 H 495.383 3.02168 2.44185 0
M  V30 5206 H 497.055 4.59873 0.362514 0
M  V30 5207 H 495.298 4.32948 0.271669 0
M  V30 5208 H 495.969 5.28368 1.59784 0
M  V30 5209 H 498.445 3.48128 2.27917 0
M  V30 5210 H 497.321 4.33402 3.36829 0
M  V30 5211 H 497.582 2.60864 3.56934 0
M  V30 5212 N 496.642 -0.504142 1.49319 0
M  V30 5213 C 497.919 -1.26548 1.49147 0
M  V30 5214 C 498.299 -2.09977 0.21744 0
M  V30 5215 O 497.647 -2.14028 -0.800269 0
M  V30 5216 C 497.857 -2.12489 2.76857 0
M  V30 5217 C 499.205 -2.7178 3.26222 0
M  V30 5218 O 500.229 -2.22758 2.77952 0
M  V30 5219 O 499.088 -3.61015 4.10281 0
M  V30 5220 H 496.182 -0.572495 0.596806 0
M  V30 5221 H 498.728 -0.51867 1.61579 0
M  V30 5222 H 497.5 -1.50796 3.61077 0
M  V30 5223 H 497.123 -2.94368 2.6727 0
M  V30 5224 N 498.12 -1.38341 -0.754957 0
M  V30 5225 C 499.531 -1.30803 -1.3322 0
M  V30 5226 C 499.882 0.0368 -1.96165 0
M  V30 5227 O 499.007 0.938844 -1.94974 0
M  V30 5228 C 499.602 -2.3688 -2.42225 0
M  V30 5229 C 498.161 -2.32925 -2.95674 0
M  V30 5230 C 497.308 -2.19819 -1.69042 0
M  V30 5231 H 500.259 -1.48719 -0.553937 0
M  V30 5232 H 500.28 -2.02517 -3.22129 0
M  V30 5233 H 499.792 -3.34747 -1.96383 0
M  V30 5234 H 497.893 -1.38635 -3.45848 0
M  V30 5235 H 498.006 -3.27008 -3.50146 0
M  V30 5236 H 496.37 -1.66648 -1.92615 0
M  V30 5237 H 497.153 -3.19625 -1.25279 0
M  V30 5238 N 499.598 0.982988 -1.23187 0
M  V30 5239 C 500.53 2.07729 -0.968572 0
M  V30 5240 C 501.543 1.62702 0.0564821 0
M  V30 5241 O 502.732 1.77603 -0.178733 0
M  V30 5242 C 499.832 3.36071 -0.436974 0
M  V30 5243 C 499.005 4.10081 -1.52159 0
M  V30 5244 C 498.064 5.16701 -0.99532 0
M  V30 5245 O 497.09 5.43727 -1.68373 0
M  V30 5246 N 498.292 5.80226 0.178192 0
M  V30 5247 H 501.057 2.30894 -1.9107 0
M  V30 5248 H 498.618 1.14949 -1.1401 0
M  V30 5249 H 500.61 4.04639 -0.0700051 0
M  V30 5250 H 499.18 3.09893 0.410509 0
M  V30 5251 H 498.4 3.36004 -2.06144 0
M  V30 5252 H 499.688 4.56295 -2.25105 0
M  V30 5253 H 499.086 5.60651 0.754096 0
M  V30 5254 H 497.643 6.49982 0.486449 0
M  V30 5255 N 501.076 1.04316 1.18135 0
M  V30 5256 C 502.325 0.74319 1.87509 0
M  V30 5257 C 502.638 -0.732136 1.81381 0
M  V30 5258 O 503.844 -1.14572 2.46141 0
M  V30 5259 C 502.3 1.27913 3.36402 0
M  V30 5260 C 501.908 2.78326 3.51053 0
M  V30 5261 C 503.652 1.0558 4.11161 0
M  V30 5262 C 501.559 3.25266 4.93919 0
M  V30 5263 H 500.489 0.274313 0.702331 0
M  V30 5264 H 503.14 1.25931 1.33467 0
M  V30 5265 H 501.522 0.690853 3.89927 0
M  V30 5266 H 502.696 3.42933 3.07788 0
M  V30 5267 H 501.011 2.991 2.89704 0
M  V30 5268 H 503.608 1.38161 5.16542 0
M  V30 5269 H 503.951 -0.00684729 4.16299 0
M  V30 5270 H 504.484 1.60882 3.63816 0
M  V30 5271 H 501.223 4.30922 4.9395 0
M  V30 5272 H 500.743 2.65396 5.3789 0
M  V30 5273 H 502.422 3.19433 5.62647 0
M  V30 5274 N 502.554 -1.34406 0.822964 0
M  V30 5275 C 503.831 -1.92733 0.333641 0
M  V30 5276 C 504.211 -1.75107 -1.17901 0
M  V30 5277 O 503.559 -1.12983 -1.98613 0
M  V30 5278 C 503.769 -3.40557 0.763023 0
M  V30 5279 C 505.117 -4.17709 0.761879 0
M  V30 5280 O 506.141 -3.49141 0.705606 0
M  V30 5281 O 505 -5.40082 0.835109 0
M  V30 5282 H 502.094 -0.821964 0.0911249 0
M  V30 5283 H 504.64 -1.4338 0.907757 0
M  V30 5284 H 503.412 -3.47187 1.8049 0
M  V30 5285 H 503.035 -3.97259 0.164605 0
M  V30 5286 N 504.032 -0.577932 -1.46621 0
M  V30 5287 C 505.279 -0.0616879 -2.02406 0
M  V30 5288 C 505.607 1.29638 -1.44997 0
M  V30 5289 O 504.862 1.86176 -0.60308 0
M  V30 5290 C 505.161 0.0590832 -3.57351 0
M  V30 5291 C 504.827 -1.23077 -4.33777 0
M  V30 5292 C 503.489 -1.58416 -4.54376 0
M  V30 5293 C 505.841 -2.08457 -4.77698 0
M  V30 5294 C 503.169 -2.78943 -5.16147 0
M  V30 5295 C 505.521 -3.28204 -5.408 0
M  V30 5296 C 504.185 -3.63832 -5.59627 0
M  V30 5297 H 503.455 -0.0225732 -0.740656 0
M  V30 5298 H 506.102 -0.753609 -1.76048 0
M  V30 5299 H 504.407 0.834104 -3.82818 0
M  V30 5300 H 506.104 0.474202 -3.98186 0
M  V30 5301 H 502.694 -0.945652 -4.18038 0
M  V30 5302 H 506.878 -1.82459 -4.61544 0
M  V30 5303 H 502.134 -3.06689 -5.28916 0
M  V30 5304 H 506.308 -3.94634 -5.73792 0
M  V30 5305 H 503.935 -4.57315 -6.07262 0
M  V30 5306 N 505.51 1.54411 -0.315457 0
M  V30 5307 C 506.735 2.05299 0.294496 0
M  V30 5308 C 507.16 1.19052 1.4563 0
M  V30 5309 O 506.518 0.197804 1.80218 0
M  V30 5310 C 506.566 3.5345 0.714549 0
M  V30 5311 O 505.67 3.70175 1.81781 0
M  V30 5312 H 505.011 0.661743 0.0547019 0
M  V30 5313 H 507.541 1.99327 -0.461508 0
M  V30 5314 H 507.551 3.9557 0.999426 0
M  V30 5315 H 506.226 4.1568 -0.135244 0
M  V30 5316 H 504.803 3.3996 1.53236 0
M  V30 5317 N 506.988 0.0434614 1.5754 0
M  V30 5318 C 507.936 -0.951465 2.1225 0
M  V30 5319 C 508.93 -1.3274 1.05245 0
M  V30 5320 O 510.136 -1.30795 1.23663 0
M  V30 5321 H 506.511 -0.324667 0.678303 0
M  V30 5322 H 508.482 -0.464855 2.94757 0
M  V30 5323 C 507.231 -2.21972 2.67626 0
M  V30 5324 H 506.554 -1.93923 3.4962 0
M  V30 5325 H 507.994 -2.89765 3.09536 0
M  V30 5326 C 506.453 -2.95919 1.61038 0
M  V30 5327 O 506.983 -3.8857 1.01862 0
M  V30 5328 N 505.189 -2.58511 1.32741 0
M  V30 5329 H 504.736 -1.83244 1.81051 0
M  V30 5330 H 504.694 -3.08296 0.616531 0
M  V30 5331 N 508.466 -1.55915 -0.229846 0
M  V30 5332 C 509.715 -1.77742 -0.953455 0
M  V30 5333 C 510.028 -0.610524 -1.85828 0
M  V30 5334 O 511.234 -0.712219 -2.61992 0
M  V30 5335 C 509.69 -3.14738 -1.74551 0
M  V30 5336 C 509.298 -4.39126 -0.887242 0
M  V30 5337 C 511.042 -3.45895 -2.46084 0
M  V30 5338 C 508.949 -5.67149 -1.67617 0
M  V30 5339 H 507.879 -0.662648 -0.359741 0
M  V30 5340 H 510.53 -1.82322 -0.207576 0
M  V30 5341 H 508.912 -3.04311 -2.53399 0
M  V30 5342 H 510.086 -4.60588 -0.139892 0
M  V30 5343 H 508.401 -4.15427 -0.284443 0
M  V30 5344 H 510.998 -4.38767 -3.05594 0
M  V30 5345 H 511.341 -2.68007 -3.18556 0
M  V30 5346 H 511.874 -3.57614 -1.74233 0
M  V30 5347 H 508.613 -6.47906 -0.994881 0
M  V30 5348 H 508.133 -5.49763 -2.39836 0
M  V30 5349 H 509.812 -6.07025 -2.23898 0
M  V30 5350 N 509.944 0.496216 -1.49584 0
M  V30 5351 C 511.221 1.25755 -1.49816 0
M  V30 5352 C 511.601 2.09859 -0.228572 0
M  V30 5353 O 510.949 2.14449 0.788908 0
M  V30 5354 C 511.159 2.11017 -2.7798 0
M  V30 5355 C 512.507 2.70047 -3.27658 0
M  V30 5356 O 513.531 2.21281 -2.79129 0
M  V30 5357 O 512.39 3.58834 -4.1219 0
M  V30 5358 H 509.484 0.569322 -0.599834 0
M  V30 5359 H 512.03 0.510094 -1.61852 0
M  V30 5360 H 510.802 1.48879 -3.61871 0
M  V30 5361 H 510.425 2.92947 -2.68827 0
M  V30 5362 N 511.423 1.38739 0.74761 0
M  V30 5363 C 512.333 1.38696 1.89211 0
M  V30 5364 C 513.349 0.283303 1.71678 0
M  V30 5365 O 514.525 0.522713 1.94498 0
M  V30 5366 C 511.59 1.21662 3.24653 0
M  V30 5367 C 510.651 2.41886 3.54669 0
M  V30 5368 C 509.884 2.25655 4.83648 0
M  V30 5369 O 510.107 1.25339 5.56459 0
M  V30 5370 O 509.041 3.14372 5.13277 0
M  V30 5371 H 512.867 2.35143 1.92202 0
M  V30 5372 H 510.452 1.19721 0.893708 0
M  V30 5373 H 512.334 1.14246 4.05618 0
M  V30 5374 H 511.009 0.283024 3.2246 0
M  V30 5375 H 509.916 2.54877 2.73841 0
M  V30 5376 H 511.249 3.33895 3.61628 0
M  V30 5377 N 512.901 -0.976442 1.23707 0
M  V30 5378 C 514.15 -1.71254 1.06559 0
M  V30 5379 C 514.463 -1.91528 -0.397024 0
M  V30 5380 O 515.669 -2.62625 -0.688518 0
M  V30 5381 C 514.125 -3.08207 1.8584 0
M  V30 5382 C 513.733 -2.95806 3.36456 0
M  V30 5383 C 515.477 -3.85749 1.77194 0
M  V30 5384 C 513.384 -4.28015 4.08114 0
M  V30 5385 H 512.314 -0.642171 0.395136 0
M  V30 5386 H 514.965 -1.08877 1.4771 0
M  V30 5387 H 513.347 -3.71363 1.37498 0
M  V30 5388 H 514.521 -2.41716 3.92314 0
M  V30 5389 H 512.836 -2.31736 3.45959 0
M  V30 5390 H 515.433 -4.83633 2.28041 0
M  V30 5391 H 515.776 -4.09752 0.735477 0
M  V30 5392 H 516.309 -3.29303 2.23169 0
M  V30 5393 H 513.048 -4.09208 5.12083 0
M  V30 5394 H 512.568 -4.81955 3.57043 0
M  V30 5395 H 514.247 -4.96681 4.14629 0
M  V30 5396 N 514.379 -1.04941 -1.1758 0
M  V30 5397 C 515.795 -0.770282 -1.39781 0
M  V30 5398 C 515.995 0.636417 -1.91186 0
M  V30 5399 O 515.051 1.39923 -2.10185 0
M  V30 5400 C 516.364 -1.82376 -2.3908 0
M  V30 5401 C 517.912 -1.84569 -2.52791 0
M  V30 5402 C 518.387 -2.88933 -3.55361 0
M  V30 5403 N 519.878 -2.8788 -3.62877 0
M  V30 5404 C 520.613 -3.65282 -4.41992 0
M  V30 5405 N 520.109 -4.52461 -5.24643 0
M  V30 5406 N 521.902 -3.53732 -4.36841 0
M  V30 5407 H 514.053 -1.95705 -0.825438 0
M  V30 5408 H 516.316 -0.847284 -0.425222 0
M  V30 5409 H 516.022 -2.83323 -2.08376 0
M  V30 5410 H 515.896 -1.66327 -3.38549 0
M  V30 5411 H 518.283 -0.842879 -2.82807 0
M  V30 5412 H 518.364 -2.04696 -1.53406 0
M  V30 5413 H 518.008 -3.89398 -3.26085 0
M  V30 5414 H 517.938 -2.66059 -4.54445 0
M  V30 5415 H 520.429 -2.24666 -3.03864 0
M  V30 5416 H 520.742 -5.08211 -5.82187 0
M  V30 5417 H 519.087 -4.56524 -5.24033 0
M  V30 5418 H 522.278 -2.85021 -3.71323 0
M  V30 5419 H 522.451 -4.14302 -4.98255 0
M  V30 5420 N 515.857 1.33968 -0.830081 0
M  V30 5421 C 517.273 1.51003 -0.516742 0
M  V30 5422 C 517.473 1.77286 0.957694 0
M  V30 5423 O 516.529 1.82797 1.74188 0
M  V30 5424 C 517.842 2.67036 -1.38247 0
M  V30 5425 C 519.39 2.80919 -1.38034 0
M  V30 5426 C 519.865 4.00004 -2.23071 0
M  V30 5427 N 521.356 4.07224 -2.20733 0
M  V30 5428 C 522.091 4.98541 -2.83275 0
M  V30 5429 N 521.587 5.95033 -3.54835 0
M  V30 5430 N 523.38 4.91469 -2.72791 0
M  V30 5431 H 515.531 1.15168 -1.78466 0
M  V30 5432 H 517.794 0.565443 -0.760906 0
M  V30 5433 H 517.5 2.54266 -2.42985 0
M  V30 5434 H 517.374 3.62226 -1.05225 0
M  V30 5435 H 519.761 2.93127 -0.340713 0
M  V30 5436 H 519.842 1.86517 -1.75057 0
M  V30 5437 H 519.486 3.88557 -3.27087 0
M  V30 5438 H 519.416 4.93634 -1.83394 0
M  V30 5439 H 521.907 3.38162 -1.68687 0
M  V30 5440 H 522.22 6.61357 -3.99784 0
M  V30 5441 H 520.565 5.95135 -3.58942 0
M  V30 5442 H 523.756 4.15048 -2.16456 0
M  V30 5443 H 523.929 5.62439 -3.21818 0
M  V30 5444 N 517.335 0.585699 1.46312 0
M  V30 5445 C 518.563 0.0781299 2.06752 0
M  V30 5446 C 518.978 -1.22812 1.43396 0
M  V30 5447 O 518.335 -1.74318 0.540314 0
M  V30 5448 C 518.386 -0.0911927 3.61385 0
M  V30 5449 O 518.107 1.16336 4.22371 0
M  V30 5450 C 519.608 -0.632765 4.38761 0
M  V30 5451 H 516.828 0.0588188 0.668417 0
M  V30 5452 H 519.372 0.807218 1.87894 0
M  V30 5453 H 517.527 -0.770514 3.7966 0
M  V30 5454 H 517.941 0.979082 5.15281 0
M  V30 5455 H 519.415 -0.70041 5.47538 0
M  V30 5456 H 519.892 -1.65039 4.07012 0
M  V30 5457 H 520.498 0.0117856 4.25298 0
M  V30 5458 N 518.813 -1.54241 0.323641 0
M  V30 5459 C 520.059 -2.00867 -0.279323 0
M  V30 5460 C 520.392 -1.21146 -1.5178 0
M  V30 5461 O 519.667 -0.29378 -1.92269 0
M  V30 5462 C 519.95 -3.54837 -0.613387 0
M  V30 5463 C 519.803 -4.45284 0.635803 0
M  V30 5464 C 521.122 -4.16186 -1.43099 0
M  V30 5465 H 518.241 -0.730177 -0.100049 0
M  V30 5466 H 520.883 -1.84829 0.440235 0
M  V30 5467 H 519.033 -3.68634 -1.22641 0
M  V30 5468 H 520.705 -4.43357 1.27406 0
M  V30 5469 H 518.948 -4.14956 1.26466 0
M  V30 5470 H 519.619 -5.5084 0.357597 0
M  V30 5471 H 522.095 -4.05964 -0.912814 0
M  V30 5472 H 520.971 -5.24031 -1.6335 0
M  V30 5473 H 521.232 -3.69516 -2.42715 0
M  V30 5474 N 520.291 -0.0518155 -1.57515 0
M  V30 5475 C 521.201 0.937539 -2.15052 0
M  V30 5476 C 522.217 1.34121 -1.10849 0
M  V30 5477 O 523.393 1.418 -1.4302 0
M  V30 5478 C 520.458 2.19379 -2.68466 0
M  V30 5479 C 519.519 1.84841 -3.87469 0
M  V30 5480 C 518.752 3.04477 -4.38326 0
M  V30 5481 O 518.975 4.17868 -3.88256 0
M  V30 5482 O 517.909 2.85453 -5.29906 0
M  V30 5483 H 521.735 0.478201 -2.99912 0
M  V30 5484 H 519.32 0.17012 -1.48428 0
M  V30 5485 H 521.202 2.93084 -3.02787 0
M  V30 5486 H 519.877 2.64449 -1.86677 0
M  V30 5487 H 518.784 1.08449 -3.58036 0
M  V30 5488 H 520.117 1.44569 -4.7049 0
M  V30 5489 N 521.769 1.56035 0.221574 0
M  V30 5490 C 522.999 1.82864 0.961468 0
M  V30 5491 C 523.407 0.628703 1.78449 0
M  V30 5492 O 522.75 -0.412109 1.79018 0
M  V30 5493 C 522.812 3.03425 1.92804 0
M  V30 5494 C 522.476 4.38429 1.28954 0
M  V30 5495 C 523.473 5.15441 0.679431 0
M  V30 5496 C 521.158 4.85151 1.30131 0
M  V30 5497 C 523.152 6.37337 0.0896148 0
M  V30 5498 C 520.839 6.06989 0.707651 0
M  V30 5499 C 521.837 6.82923 0.102855 0
M  V30 5500 O 521.525 8.02456 -0.48157 0
M  V30 5501 H 521.257 0.611883 0.28736 0
M  V30 5502 H 523.811 2.0397 0.241932 0
M  V30 5503 H 522.041 2.78138 2.68656 0
M  V30 5504 H 523.73 3.17127 2.53348 0
M  V30 5505 H 524.496 4.80452 0.662661 0
M  V30 5506 H 520.375 4.26021 1.76145 0
M  V30 5507 H 523.919 6.96547 -0.383069 0
M  V30 5508 H 519.816 6.41451 0.721834 0
M  V30 5509 H 520.584 8.17636 -0.375887 0
M  V30 5510 N 523.247 -0.488276 1.49845 0
M  V30 5511 C 524.487 -1.2516 1.61599 0
M  V30 5512 C 524.851 -1.89615 0.301706 0
M  V30 5513 O 526.052 -2.67182 0.29453 0
M  V30 5514 C 524.323 -2.2805 2.75187 0
M  V30 5515 S 525.882 -3.13552 3.0697 0
M  V30 5516 H 522.7 -0.425178 0.569864 0
M  V30 5517 H 525.302 -0.551545 1.87559 0
M  V30 5518 H 524.006 -1.7925 3.69185 0
M  V30 5519 H 523.537 -3.02708 2.5126 0
M  V30 5520 H 525.552 -4.28927 2.49471 0
M  V30 5521 N 524.725 -1.39134 -0.740242 0
M  V30 5522 C 525.673 -1.3757 -1.87556 0
M  V30 5523 C 526.667 -0.259593 -1.67399 0
M  V30 5524 O 527.873 -0.429349 -1.74804 0
M  V30 5525 H 524.248 -0.42947 -0.6173 0
M  V30 5526 H 526.219 -2.33345 -1.85991 0
M  V30 5527 C 524.968 -1.23087 -3.25184 0
M  V30 5528 H 524.291 -2.08237 -3.41288 0
M  V30 5529 H 525.731 -1.26049 -4.0483 0
M  V30 5530 C 524.19 0.0611471 -3.36845 0
M  V30 5531 O 524.72 1.03328 -3.88183 0
M  V30 5532 N 522.926 0.122454 -2.90342 0
M  V30 5533 H 522.473 -0.669329 -2.48752 0
M  V30 5534 H 522.431 0.986463 -2.98523 0
M  V30 5535 N 526.204 0.969867 -1.24223 0
M  V30 5536 C 527.136 2.0669 -0.99055 0
M  V30 5537 C 528.149 1.62753 0.0392222 0
M  V30 5538 O 529.338 1.77403 -0.197561 0
M  V30 5539 C 526.438 3.35589 -0.472594 0
M  V30 5540 C 525.611 4.08444 -1.56499 0
M  V30 5541 C 524.67 5.15616 -1.05007 0
M  V30 5542 O 523.696 5.41911 -1.7413 0
M  V30 5543 N 524.898 5.80383 0.116641 0
M  V30 5544 H 527.663 2.28855 -1.93508 0
M  V30 5545 H 525.224 1.13733 -1.15223 0
M  V30 5546 H 527.216 4.04542 -0.112919 0
M  V30 5547 H 525.786 3.10311 0.377617 0
M  V30 5548 H 525.006 3.33798 -2.09696 0
M  V30 5549 H 526.294 4.53882 -2.29932 0
M  V30 5550 H 525.692 5.6142 0.694589 0
M  V30 5551 H 524.249 6.50462 0.417483 0
M  V30 5552 N 527.682 1.05563 1.17022 0
M  V30 5553 C 528.612 0.681026 2.23348 0
M  V30 5554 C 529.593 -0.322983 1.67005 0
M  V30 5555 O 530.778 -0.199746 1.9317 0
M  V30 5556 C 527.908 0.0589053 3.4725 0
M  V30 5557 C 526.862 0.988082 4.16438 0
M  V30 5558 C 526.188 0.229646 5.34207 0
M  V30 5559 C 527.488 2.31388 4.68249 0
M  V30 5560 H 529.182 1.56993 2.54938 0
M  V30 5561 H 526.728 0.756302 1.2254 0
M  V30 5562 H 528.681 -0.214982 4.20851 0
M  V30 5563 H 527.405 -0.864968 3.14938 0
M  V30 5564 H 526.064 1.24659 3.44754 0
M  V30 5565 H 525.712 -0.697111 4.98146 0
M  V30 5566 H 525.412 0.848815 5.81437 0
M  V30 5567 H 526.936 -0.0368694 6.10589 0
M  V30 5568 H 528.35 2.09964 5.33468 0
M  V30 5569 H 526.747 2.88736 5.26072 0
M  V30 5570 H 527.817 2.94982 3.84855 0
M  V30 5571 N 529.16 -1.33526 0.837174 0
M  V30 5572 C 530.571 -1.80182 0.489017 0
M  V30 5573 C 530.922 -1.69285 -0.991826 0
M  V30 5574 O 530.047 -1.24113 -1.77271 0
M  V30 5575 C 530.642 -3.27149 0.880866 0
M  V30 5576 C 529.201 -3.71828 0.584872 0
M  V30 5577 C 528.348 -2.54974 1.09011 0
M  V30 5578 H 531.299 -1.21071 1.02603 0
M  V30 5579 H 531.32 -3.80024 0.190239 0
M  V30 5580 H 530.832 -3.35048 1.95869 0
M  V30 5581 H 528.933 -3.69457 -0.48295 0
M  V30 5582 H 529.046 -4.65366 1.13892 0
M  V30 5583 H 527.41 -2.4952 0.511047 0
M  V30 5584 H 528.193 -2.65637 2.17467 0
M  V30 5585 N 530.638 -0.59345 -1.46 0
M  V30 5586 C 531.884 -0.0832754 -2.02629 0
M  V30 5587 C 532.217 1.27749 -1.46266 0
M  V30 5588 O 531.492 1.8395 -0.631866 0
M  V30 5589 C 531.775 -0.0290756 -3.60088 0
M  V30 5590 C 531.628 -1.41951 -4.26814 0
M  V30 5591 C 532.947 0.666055 -4.35031 0
M  V30 5592 H 530.066 -0.031736 -0.736316 0
M  V30 5593 H 532.708 -0.762711 -1.74019 0
M  V30 5594 H 530.858 0.549532 -3.84594 0
M  V30 5595 H 532.53 -2.04411 -4.13538 0
M  V30 5596 H 530.773 -1.98422 -3.8576 0
M  V30 5597 H 531.444 -1.33395 -5.3564 0
M  V30 5598 H 533.92 0.174401 -4.15734 0
M  V30 5599 H 532.796 0.673041 -5.44758 0
M  V30 5600 H 533.057 1.72946 -4.06869 0
M  V30 5601 N 532.116 1.54067 -0.331816 0
M  V30 5602 C 533.066 2.21363 0.546101 0
M  V30 5603 C 534.05 1.19698 1.07523 0
M  V30 5604 O 535.242 1.45293 1.01088 0
M  V30 5605 C 532.371 2.98115 1.70242 0
M  V30 5606 C 531.457 4.07127 1.18779 0
M  V30 5607 N 531.848 5.04267 0.393465 0
M  V30 5608 C 530.146 4.21226 1.46576 0
M  V30 5609 C 530.847 5.81585 0.115572 0
M  V30 5610 N 529.823 5.39022 0.703987 0
M  V30 5611 H 533.625 2.93821 -0.0679751 0
M  V30 5612 H 531.139 1.61812 -0.138085 0
M  V30 5613 H 533.136 3.44818 2.34321 0
M  V30 5614 H 531.796 2.27181 2.31989 0
M  V30 5615 H 532.807 5.17888 0.0355757 0
M  V30 5616 H 529.484 3.61509 2.08848 0
M  V30 5617 H 530.874 6.6985 -0.524426 0
M  V30 5618 N 533.594 0.0601682 1.57485 0
M  V30 5619 C 534.504 -0.926121 2.15546 0
M  V30 5620 C 535.52 -1.33532 1.11558 0
M  V30 5621 O 536.696 -1.4104 1.4377 0
M  V30 5622 C 533.761 -2.17952 2.69625 0
M  V30 5623 C 532.822 -1.82783 3.88444 0
M  V30 5624 C 532.055 -3.02148 4.39935 0
M  V30 5625 O 532.278 -4.15803 3.90466 0
M  V30 5626 O 531.212 -2.82639 5.31412 0
M  V30 5627 H 535.038 -0.462289 3.00161 0
M  V30 5628 H 532.623 -0.162246 1.48516 0
M  V30 5629 H 534.505 -2.91474 3.04337 0
M  V30 5630 H 533.18 -2.63456 1.88077 0
M  V30 5631 H 532.087 -1.06549 3.58606 0
M  V30 5632 H 533.42 -1.42072 4.7125 0
M  V30 5633 N 535.072 -1.5615 -0.213296 0
M  V30 5634 C 536.488 -1.49327 -0.56336 0
M  V30 5635 C 536.688 -0.756826 -1.86747 0
M  V30 5636 O 535.744 -0.299866 -2.50713 0
M  V30 5637 C 537.057 -2.9392 -0.634944 0
M  V30 5638 C 538.605 -3.04487 -0.725013 0
M  V30 5639 C 539.08 -4.50456 -0.82787 0
M  V30 5640 N 540.571 -4.54533 -0.891876 0
M  V30 5641 C 541.306 -5.64766 -0.991315 0
M  V30 5642 N 540.802 -6.84733 -1.05419 0
M  V30 5643 N 542.595 -5.52637 -1.02709 0
M  V30 5644 H 534.746 -2.02453 0.642366 0
M  V30 5645 H 537.009 -0.920548 0.226487 0
M  V30 5646 H 536.715 -3.50783 0.253859 0
M  V30 5647 H 536.589 -3.46274 -1.49579 0
M  V30 5648 H 538.976 -2.47685 -1.60425 0
M  V30 5649 H 539.057 -2.55289 0.161669 0
M  V30 5650 H 538.701 -5.07878 0.0469464 0
M  V30 5651 H 538.631 -4.97369 -1.73009 0
M  V30 5652 H 541.122 -3.68141 -0.85327 0
M  V30 5653 H 541.435 -7.64493 -1.13007 0
M  V30 5654 H 539.78 -6.87427 -1.02318 0
M  V30 5655 H 542.971 -4.5784 -0.974687 0
M  V30 5656 H 543.144 -6.38576 -1.10113 0
M  V30 5657 N 536.55 0.480323 -1.50102 0
M  V30 5658 C 537.5 1.57685 -1.6468 0
M  V30 5659 C 538.484 1.52878 -0.5017 0
M  V30 5660 O 539.676 1.60058 -0.755668 0
M  V30 5661 C 536.805 2.96185 -1.73578 0
M  V30 5662 C 535.891 3.0591 -2.93734 0
M  V30 5663 N 536.282 2.85471 -4.1754 0
M  V30 5664 C 534.58 3.37036 -2.92101 0
M  V30 5665 C 535.281 2.99921 -4.9842 0
M  V30 5666 N 534.257 3.29715 -4.32191 0
M  V30 5667 H 538.059 1.40568 -2.58104 0
M  V30 5668 H 535.573 0.686874 -1.47159 0
M  V30 5669 H 537.57 3.75015 -1.82124 0
M  V30 5670 H 536.23 3.14356 -0.813057 0
M  V30 5671 H 537.241 2.61235 -4.47188 0
M  V30 5672 H 533.918 3.61253 -2.09291 0
M  V30 5673 H 535.308 2.88436 -6.06839 0
M  V30 5674 N 538.028 1.39524 0.732853 0
M  V30 5675 C 539.439 1.32905 1.31122 0
M  V30 5676 C 539.79 -0.00558708 1.96199 0
M  V30 5677 O 538.915 -0.907706 1.96443 0
M  V30 5678 C 539.51 2.40704 2.38426 0
M  V30 5679 C 538.069 2.37599 2.91931 0
M  V30 5680 C 537.216 2.2248 1.65523 0
M  V30 5681 H 540.167 1.49581 0.530207 0
M  V30 5682 H 540.188 2.07616 3.18867 0
M  V30 5683 H 539.7 3.37829 1.91033 0
M  V30 5684 H 537.801 1.44119 3.43599 0
M  V30 5685 H 537.914 3.32538 3.44899 0
M  V30 5686 H 536.278 1.69691 1.8994 0
M  V30 5687 H 537.061 3.21577 1.20178 0
M  V30 5688 N 539.506 -0.963266 1.24736 0
M  V30 5689 C 540.736 -1.73913 1.11524 0
M  V30 5690 C 541.144 -1.86218 -0.334612 0
M  V30 5691 O 540.487 -1.3531 -1.24245 0
M  V30 5692 C 540.549 -3.17501 1.68622 0
M  V30 5693 C 540.213 -3.28655 3.17546 0
M  V30 5694 C 541.21 -3.13637 4.14642 0
M  V30 5695 C 538.895 -3.52753 3.5759 0
M  V30 5696 C 540.889 -3.2255 5.49764 0
M  V30 5697 C 538.576 -3.61303 4.92852 0
M  V30 5698 C 539.574 -3.46214 5.88748 0
M  V30 5699 O 539.262 -3.5443 7.2155 0
M  V30 5700 H 538.994 -0.552057 0.390139 0
M  V30 5701 H 541.548 -1.2177 1.65412 0
M  V30 5702 H 539.778 -3.70969 1.09172 0
M  V30 5703 H 541.467 -3.76914 1.50635 0
M  V30 5704 H 542.233 -2.94899 3.85045 0
M  V30 5705 H 538.112 -3.63561 2.83451 0
M  V30 5706 H 541.656 -3.1069 6.24594 0
M  V30 5707 H 537.553 -3.79556 5.22118 0
M  V30 5708 H 538.321 -3.71116 7.29531 0
M  V30 5709 N 540.985 -1.06182 -1.16461 0
M  V30 5710 C 542.233 -0.776326 -1.86595 0
M  V30 5711 C 542.554 0.69921 -1.82033 0
M  V30 5712 O 541.824 1.50579 -1.2531 0
M  V30 5713 H 540.404 -0.284184 -0.690832 0
M  V30 5714 H 543.066 -1.34308 -1.41235 0
M  V30 5715 H 542.162 -1.10022 -2.92064 0
M  V30 5716 N 542.463 1.3308 -0.844243 0
M  V30 5717 C 543.711 1.97215 -0.441676 0
M  V30 5718 C 544.032 1.67185 1.0037 0
M  V30 5719 O 543.302 0.973588 1.69994 0
M  V30 5720 H 541.882 0.72959 -0.160335 0
M  V30 5721 H 544.544 1.62348 -1.07838 0
M  V30 5722 H 543.64 3.06698 -0.57815 0
M  V30 5723 N 543.941 0.601185 1.45683 0
M  V30 5724 C 545.218 0.0261659 1.95582 0
M  V30 5725 C 545.598 -1.4399 1.5437 0
M  V30 5726 O 544.946 -2.13919 0.80318 0
M  V30 5727 C 545.156 0.217557 3.48321 0
M  V30 5728 C 546.504 0.0950076 4.24494 0
M  V30 5729 O 547.528 0.147345 3.55895 0
M  V30 5730 O 546.387 -0.025261 5.46494 0
M  V30 5731 H 543.481 -0.0393688 0.826062 0
M  V30 5732 H 546.027 0.670798 1.55879 0
M  V30 5733 H 544.799 1.23601 3.71266 0
M  V30 5734 H 544.422 -0.46264 3.94899 0
M  V30 5735 N 545.419 -1.53889 0.339982 0
M  V30 5736 C 546.349 -2.27843 -0.510856 0
M  V30 5737 C 547.33 -1.29267 -1.10563 0
M  V30 5738 O 548.515 -1.58104 -1.12768 0
M  V30 5739 C 545.645 -3.04857 -1.66372 0
M  V30 5740 C 544.599 -4.10907 -1.19746 0
M  V30 5741 C 543.925 -4.75855 -2.43857 0
M  V30 5742 C 545.225 -5.21435 -0.300501 0
M  V30 5743 H 546.919 -2.99212 0.106067 0
M  V30 5744 H 544.465 -1.43904 0.0524533 0
M  V30 5745 H 546.418 -3.5533 -2.26537 0
M  V30 5746 H 545.142 -2.31133 -2.30749 0
M  V30 5747 H 543.801 -3.61342 -0.618654 0
M  V30 5748 H 543.449 -3.9873 -3.06633 0
M  V30 5749 H 543.149 -5.47502 -2.13343 0
M  V30 5750 H 544.673 -5.2911 -3.04754 0
M  V30 5751 H 546.087 -5.67565 -0.80889 0
M  V30 5752 H 544.484 -6.00036 -0.0874076 0
M  V30 5753 H 545.554 -4.80328 0.664321 0
M  V30 5754 N 546.897 -0.0685191 -1.57451 0
M  V30 5755 C 548.143 0.602239 -1.93652 0
M  V30 5756 C 548.476 1.6946 -0.948526 0
M  V30 5757 O 547.751 1.94487 0.022782 0
M  V30 5758 C 548.034 1.18223 -3.4014 0
M  V30 5759 C 547.887 0.0967431 -4.49696 0
M  V30 5760 C 549.206 2.08872 -3.87377 0
M  V30 5761 H 546.325 0.217453 -0.70419 0
M  V30 5762 H 548.967 -0.133821 -1.89528 0
M  V30 5763 H 547.117 1.80953 -3.43785 0
M  V30 5764 H 548.789 -0.536155 -4.58174 0
M  V30 5765 H 547.032 -0.573063 -4.29998 0
M  V30 5766 H 547.703 0.542894 -5.49324 0
M  V30 5767 H 550.179 1.56081 -3.85717 0
M  V30 5768 H 549.055 2.46389 -4.90493 0
M  V30 5769 H 549.316 2.99572 -3.25129 0
M  V30 5770 N 548.375 1.56261 0.205012 0
M  V30 5771 C 549.605 1.83874 0.942018 0
M  V30 5772 C 550.013 0.647595 1.77772 0
M  V30 5773 O 549.356 -0.393098 1.79445 0
M  V30 5774 C 549.418 3.05453 1.89575 0
M  V30 5775 C 549.082 4.39772 1.24296 0
M  V30 5776 C 550.079 5.16133 0.624724 0
M  V30 5777 C 547.764 4.86504 1.24978 0
M  V30 5778 C 549.758 6.37396 0.0220117 0
M  V30 5779 C 547.445 6.07705 0.643232 0
M  V30 5780 C 548.443 6.82993 0.0304164 0
M  V30 5781 O 548.131 8.019 -0.566654 0
M  V30 5782 H 547.863 0.614896 0.280854 0
M  V30 5783 H 550.417 2.04215 0.220285 0
M  V30 5784 H 548.647 2.80972 2.65691 0
M  V30 5785 H 550.336 3.19797 2.4997 0
M  V30 5786 H 551.102 4.81127 0.611666 0
M  V30 5787 H 546.981 4.27865 1.71616 0
M  V30 5788 H 550.525 6.96102 -0.456926 0
M  V30 5789 H 546.422 6.42181 0.653759 0
M  V30 5790 H 547.19 8.17192 -0.462588 0
M  V30 5791 N 549.853 -0.472356 1.50355 0
M  V30 5792 C 551.081 -1.24784 1.65035 0
M  V30 5793 C 551.496 -1.85837 0.333176 0
M  V30 5794 O 550.853 -1.69168 -0.68472 0
M  V30 5795 C 550.904 -2.35747 2.74054 0
M  V30 5796 O 550.625 -1.77197 4.00665 0
M  V30 5797 C 552.126 -3.26645 2.99696 0
M  V30 5798 H 549.346 -0.377432 0.554785 0
M  V30 5799 H 551.89 -0.563962 1.9657 0
M  V30 5800 H 550.045 -2.99912 2.45217 0
M  V30 5801 H 550.459 -2.5026 4.60945 0
M  V30 5802 H 551.933 -4.00718 3.79644 0
M  V30 5803 H 552.41 -3.8535 2.10718 0
M  V30 5804 H 553.016 -2.68218 3.3006 0
M  V30 5805 N 551.331 -1.39911 -0.725443 0
M  V30 5806 C 552.294 -1.39156 -1.82121 0
M  V30 5807 C 553.294 -0.287018 -1.58218 0
M  V30 5808 O 554.484 -0.545421 -1.65441 0
M  V30 5809 C 551.616 -1.1736 -3.20062 0
M  V30 5810 H 552.809 -2.36672 -1.84191 0
M  V30 5811 H 550.362 -1.25615 -0.930079 0
M  V30 5812 H 551.097 -0.205648 -3.23647 0
M  V30 5813 H 550.882 -1.97358 -3.3881 0
M  V30 5814 H 552.372 -1.19596 -4.00108 0
M  V30 5815 N 552.809 0.956637 -1.25245 0
M  V30 5816 C 554.056 1.701 -1.09874 0
M  V30 5817 C 554.384 1.91128 0.36062 0
M  V30 5818 O 553.639 1.47837 1.28229 0
M  V30 5819 C 553.938 3.08996 -1.79601 0
M  V30 5820 C 553.604 3.07774 -3.29523 0
M  V30 5821 C 552.266 3.07149 -3.70423 0
M  V30 5822 C 554.618 3.01257 -4.25316 0
M  V30 5823 C 551.946 2.97752 -5.0553 0
M  V30 5824 C 554.298 2.93403 -5.60444 0
M  V30 5825 C 552.962 2.91111 -6.00675 0
M  V30 5826 H 552.232 0.62244 -0.402056 0
M  V30 5827 H 554.879 1.1178 -1.55491 0
M  V30 5828 H 553.184 3.70848 -1.26408 0
M  V30 5829 H 554.881 3.65407 -1.65162 0
M  V30 5830 H 551.471 3.09032 -2.9698 0
M  V30 5831 H 555.655 3.00861 -3.9471 0
M  V30 5832 H 550.911 2.94346 -5.35883 0
M  V30 5833 H 555.085 2.87321 -6.34366 0
M  V30 5834 H 552.712 2.83586 -7.05325 0
M  V30 5835 N 554.287 1.06798 1.15896 0
M  V30 5836 C 555.512 0.808739 1.90982 0
M  V30 5837 C 555.937 -0.6316 1.77179 0
M  V30 5838 O 555.295 -1.4407 1.10061 0
M  V30 5839 C 555.343 1.21468 3.39526 0
M  V30 5840 O 554.447 0.356562 4.10856 0
M  V30 5841 H 553.788 0.29512 0.594811 0
M  V30 5842 H 556.318 1.42513 1.46804 0
M  V30 5843 H 556.328 1.18844 3.90308 0
M  V30 5844 H 555.003 2.26379 3.48891 0
M  V30 5845 H 553.58 0.444808 3.70238 0
M  V30 5846 N 555.766 -1.3263 0.851289 0
M  V30 5847 C 557.014 -1.96978 0.452128 0
M  V30 5848 C 557.335 -1.67715 -0.99482 0
M  V30 5849 O 556.605 -0.98259 -1.69476 0
M  V30 5850 H 555.185 -0.72873 0.164202 0
M  V30 5851 H 557.847 -1.61774 1.08698 0
M  V30 5852 H 556.943 -3.06387 0.594407 0
M  V30 5853 N 557.244 -0.608902 -1.45362 0
M  V30 5854 C 558.469 -0.10921 -2.07112 0
M  V30 5855 C 558.894 1.19779 -1.45033 0
M  V30 5856 O 558.252 1.72961 -0.543527 0
M  V30 5857 C 558.3 0.0155745 -3.60597 0
M  V30 5858 O 557.404 1.06546 -3.98399 0
M  V30 5859 H 556.745 -0.0746619 -0.659789 0
M  V30 5860 H 559.275 -0.839283 -1.86594 0
M  V30 5861 H 559.285 0.213364 -4.07442 0
M  V30 5862 H 557.96 -0.938765 -4.05167 0
M  V30 5863 H 556.537 0.844024 -3.63223 0
M  V30 5864 N 558.722 1.53707 -0.348139 0
M  V30 5865 C 559.672 2.2193 0.522592 0
M  V30 5866 C 560.656 1.20831 1.06248 0
M  V30 5867 O 561.848 1.46357 0.995415 0
M  V30 5868 C 558.977 2.99904 1.6707 0
M  V30 5869 C 558.063 4.08364 1.14454 0
M  V30 5870 N 558.454 5.04656 0.339958 0
M  V30 5871 C 556.752 4.22757 1.421 0
M  V30 5872 C 557.453 5.81675 0.0538806 0
M  V30 5873 N 556.429 5.39739 0.646776 0
M  V30 5874 H 560.231 2.93733 -0.099135 0
M  V30 5875 H 557.745 1.61656 -0.15524 0
M  V30 5876 H 559.742 3.47284 2.30651 0
M  V30 5877 H 558.402 2.29629 2.29566 0
M  V30 5878 H 559.413 5.17896 -0.0193552 0
M  V30 5879 H 556.09 3.63704 2.05002 0
M  V30 5880 H 557.48 6.69256 -0.595443 0
M  V30 5881 N 560.2 0.0768682 1.57412 0
M  V30 5882 C 561.132 -0.918248 2.10002 0
M  V30 5883 C 562.145 -1.25808 1.03325 0
M  V30 5884 O 563.334 -1.21438 1.30824 0
M  V30 5885 C 560.434 -2.23263 2.54964 0
M  V30 5886 C 559.607 -2.07088 3.8527 0
M  V30 5887 C 558.666 -3.21876 4.16272 0
M  V30 5888 O 557.692 -2.96643 4.8579 0
M  V30 5889 N 558.894 -4.4712 3.70221 0
M  V30 5890 H 561.659 -0.469209 2.96004 0
M  V30 5891 H 559.22 -0.108725 1.61535 0
M  V30 5892 H 561.212 -2.9897 2.72762 0
M  V30 5893 H 559.782 -2.59649 1.74072 0
M  V30 5894 H 559.002 -1.15818 3.76802 0
M  V30 5895 H 560.29 -1.93537 4.70554 0
M  V30 5896 H 559.688 -4.70506 3.1407 0
M  V30 5897 H 558.245 -5.19837 3.93209 0
M  V30 5898 N 561.678 -1.56367 -0.196722 0
M  V30 5899 C 562.955 -1.71359 -0.943159 0
M  V30 5900 C 563.335 -0.631192 -2.01443 0
M  V30 5901 O 562.683 0.358071 -2.25677 0
M  V30 5902 C 562.893 -3.13623 -1.53106 0
M  V30 5903 C 564.241 -3.73806 -2.01381 0
M  V30 5904 O 565.265 -3.16742 -1.62951 0
M  V30 5905 O 564.124 -4.73951 -2.7209 0
M  V30 5906 H 561.218 -0.698851 -0.442195 0
M  V30 5907 H 563.764 -1.68672 -0.186547 0
M  V30 5908 H 562.536 -3.83873 -0.758785 0
M  V30 5909 H 562.159 -3.20532 -2.35255 0
M  V30 5910 N 563.156 0.464375 -1.50603 0
M  V30 5911 C 564.119 1.54393 -1.69397 0
M  V30 5912 C 565.119 1.50566 -0.564504 0
M  V30 5913 O 566.309 1.53066 -0.831645 0
M  V30 5914 C 563.441 2.9401 -1.72543 0
M  V30 5915 H 564.634 1.39044 -2.65719 0
M  V30 5916 H 562.187 0.69122 -1.40185 0
M  V30 5917 H 562.922 3.14795 -0.77938 0
M  V30 5918 H 562.707 2.98195 -2.54602 0
M  V30 5919 H 564.197 3.72375 -1.89015 0
M  V30 5920 N 564.634 1.40294 0.718013 0
M  V30 5921 C 565.883 1.37746 1.4734 0
M  V30 5922 C 566.196 -0.0180754 1.95592 0
M  V30 5923 O 567.402 -0.166166 2.70991 0
M  V30 5924 C 565.858 2.4208 2.66318 0
M  V30 5925 C 565.466 3.87432 2.24945 0
M  V30 5926 C 567.21 2.48635 3.44065 0
M  V30 5927 C 565.117 4.83368 3.40748 0
M  V30 5928 H 564.047 0.512165 0.553356 0
M  V30 5929 H 566.698 1.66019 0.781661 0
M  V30 5930 H 565.08 2.06903 3.3765 0
M  V30 5931 H 566.254 4.3174 1.6105 0
M  V30 5932 H 564.569 3.8433 1.60249 0
M  V30 5933 H 567.166 3.17499 4.30231 0
M  V30 5934 H 567.509 1.51611 3.87711 0
M  V30 5935 H 568.042 2.82791 2.79775 0
M  V30 5936 H 564.781 5.81716 3.02136 0
M  V30 5937 H 564.301 4.43726 4.03568 0
M  V30 5938 H 565.98 5.03074 4.06848 0
M  V30 5939 N 566.112 -0.949982 1.2575 0
M  V30 5940 C 567.06 -2.06869 1.06339 0
M  V30 5941 C 568.054 -1.69399 -0.00708901 0
M  V30 5942 O 569.26 -1.79383 0.148897 0
M  V30 5943 H 565.635 -0.677197 0.326969 0
M  V30 5944 H 567.606 -2.20396 2.01167 0
M  V30 5945 C 566.355 -3.40503 0.703769 0
M  V30 5946 H 565.678 -3.69807 1.51931 0
M  V30 5947 H 567.118 -4.19623 0.607677 0
M  V30 5948 C 565.577 -3.31685 -0.5905 0
M  V30 5949 O 566.107 -3.67085 -1.63131 0
M  V30 5950 N 564.313 -2.84797 -0.577859 0
M  V30 5951 H 563.86 -2.56186 0.26951 0
M  V30 5952 H 563.818 -2.79279 -1.44398 0
M  V30 5953 N 567.59 -1.07411 -1.15328 0
M  V30 5954 C 568.537 -0.694995 -2.20087 0
M  V30 5955 C 569.507 0.313904 -1.63107 0
M  V30 5956 O 570.692 0.200216 -1.89747 0
M  V30 5957 C 567.832 -0.0996218 -3.44956 0
M  V30 5958 C 566.945 -1.16007 -4.16133 0
M  V30 5959 C 566.08 -0.529636 -5.28553 0
M  V30 5960 C 565.119 -1.57283 -5.91548 0
M  V30 5961 N 564.256 -0.964932 -6.95438 0
M  V30 5962 H 569.096 -1.5927 -2.51867 0
M  V30 5963 H 566.633 -0.796115 -1.23695 0
M  V30 5964 H 568.591 0.263197 -4.16369 0
M  V30 5965 H 567.221 0.761435 -3.13691 0
M  V30 5966 H 566.273 -1.64045 -3.4321 0
M  V30 5967 H 567.585 -1.95101 -4.59061 0
M  V30 5968 H 566.739 -0.114487 -6.06592 0
M  V30 5969 H 565.478 0.29307 -4.86819 0
M  V30 5970 H 564.483 -1.99775 -5.12221 0
M  V30 5971 H 565.708 -2.39783 -6.35359 0
M  V30 5972 H 563.654 -0.16314 -6.55797 0
M  V30 5973 H 563.571 -1.69311 -7.36797 0
M  V30 5974 H 564.839 -0.575305 -7.77374 0
M  V30 5975 N 569.068 1.32177 -0.85831 0
M  V30 5976 C 570.316 1.96735 -0.462568 0
M  V30 5977 C 570.637 1.6824 0.985911 0
M  V30 5978 O 569.907 0.991564 1.68952 0
M  V30 5979 H 568.487 0.727849 -0.168064 0
M  V30 5980 H 571.149 1.61195 -1.09554 0
M  V30 5981 H 570.245 3.06068 -0.610647 0
M  V30 5982 N 570.547 0.616602 1.45037 0
M  V30 5983 C 571.477 -0.0840787 2.33349 0
M  V30 5984 C 572.458 -0.849641 1.4736 0
M  V30 5985 O 573.643 -0.818407 1.76113 0
M  V30 5986 C 570.773 -1.07604 3.3021 0
M  V30 5987 C 569.727 -0.423096 4.25904 0
M  V30 5988 C 569.053 -1.52394 5.12523 0
M  V30 5989 C 570.353 0.661457 5.18095 0
M  V30 5990 H 572.047 0.653333 2.92185 0
M  V30 5991 H 569.593 0.315634 1.40498 0
M  V30 5992 H 571.546 -1.57485 3.90866 0
M  V30 5993 H 570.27 -1.84416 2.69552 0
M  V30 5994 H 568.929 0.05493 3.66559 0
M  V30 5995 H 568.577 -2.28257 4.48227 0
M  V30 5996 H 568.277 -1.09251 5.77354 0
M  V30 5997 H 569.801 -2.02485 5.76049 0
M  V30 5998 H 571.215 0.246353 5.7277 0
M  V30 5999 H 569.612 1.01517 5.91451 0
M  V30 6000 H 570.682 1.53446 4.59981 0
M  V30 6001 N 572.025 -1.5352 0.356285 0
M  V30 6002 C 573.302 -1.93405 -0.292223 0
M  V30 6003 C 573.682 -1.28901 -1.67176 0
M  V30 6004 O 573.03 -0.444632 -2.24132 0
M  V30 6005 C 573.24 -3.47223 -0.35175 0
M  V30 6006 C 574.588 -4.20389 -0.596534 0
M  V30 6007 O 575.612 -3.53554 -0.433344 0
M  V30 6008 O 574.471 -5.3881 -0.913589 0
M  V30 6009 H 571.565 -0.808666 -0.173172 0
M  V30 6010 H 574.111 -1.64713 0.408391 0
M  V30 6011 H 572.883 -3.86423 0.615841 0
M  V30 6012 H 572.506 -3.8212 -1.09864 0
M  V30 6013 N 573.503 -0.0852151 -1.57369 0
M  V30 6014 C 574.466 0.8627 -2.12344 0
M  V30 6015 C 575.466 1.21746 -1.05046 0
M  V30 6016 O 576.656 1.14852 -1.30976 0
M  V30 6017 C 573.788 2.1618 -2.63589 0
M  V30 6018 H 574.981 0.385511 -2.97412 0
M  V30 6019 H 572.534 0.163663 -1.55441 0
M  V30 6020 H 573.269 2.68406 -1.82013 0
M  V30 6021 H 573.054 1.91723 -3.4203 0
M  V30 6022 H 574.544 2.84011 -3.06149 0
M  V30 6023 N 574.981 1.5647 0.188427 0
M  V30 6024 C 575.914 1.90146 1.26173 0
M  V30 6025 C 576.892 0.762294 1.43624 0
M  V30 6026 O 578.076 1.01395 1.58907 0
M  V30 6027 C 575.203 2.13748 2.62735 0
M  V30 6028 C 574.249 3.36448 2.62116 0
M  V30 6029 S 575.082 4.91364 2.12889 0
M  V30 6030 C 576.238 5.18041 3.51261 0
M  V30 6031 H 576.471 2.80886 0.974192 0
M  V30 6032 H 574.004 1.49335 0.392226 0
M  V30 6033 H 575.962 2.28028 3.41341 0
M  V30 6034 H 574.623 1.23747 2.88696 0
M  V30 6035 H 573.816 3.50109 3.62546 0
M  V30 6036 H 573.418 3.21196 1.91596 0
M  V30 6037 H 575.71 5.0897 4.47164 0
M  V30 6038 H 576.653 6.19764 3.42489 0
M  V30 6039 H 577.061 4.45657 3.46482 0
M  V30 6040 N 576.459 -0.456382 1.50847 0
M  V30 6041 C 577.406 -1.55249 1.70782 0
M  V30 6042 C 578.376 -1.56757 0.549231 0
M  V30 6043 O 579.561 -1.74061 0.7815 0
M  V30 6044 C 576.701 -2.93118 1.82143 0
M  V30 6045 C 575.814 -3.01285 3.09598 0
M  V30 6046 C 574.949 -4.30159 3.11667 0
M  V30 6047 C 573.988 -4.32124 4.33515 0
M  V30 6048 N 573.125 -5.52492 4.3324 0
M  V30 6049 H 577.965 -1.37555 2.64353 0
M  V30 6050 H 575.502 -0.668543 1.3103 0
M  V30 6051 H 577.46 -3.73088 1.86711 0
M  V30 6052 H 576.09 -3.09413 0.919978 0
M  V30 6053 H 575.142 -2.14096 3.14431 0
M  V30 6054 H 576.454 -2.98597 3.99551 0
M  V30 6055 H 575.608 -5.18489 3.15046 0
M  V30 6056 H 574.347 -4.35477 2.1957 0
M  V30 6057 H 573.352 -3.42189 4.30333 0
M  V30 6058 H 574.577 -4.28485 5.26856 0
M  V30 6059 H 572.523 -5.58567 3.44004 0
M  V30 6060 H 572.44 -5.51605 5.16979 0
M  V30 6061 H 573.708 -6.42906 4.40786 0
M  V30 6062 N 577.937 -1.40673 -0.710563 0
M  V30 6063 C 578.867 -1.44095 -1.83736 0
M  V30 6064 C 579.848 -0.301286 -1.67411 0
M  V30 6065 O 581.033 -0.510618 -1.87367 0
M  V30 6066 C 578.163 -1.30773 -3.21738 0
M  V30 6067 C 577.117 -2.42395 -3.52745 0
M  V30 6068 C 576.443 -2.14147 -4.89944 0
M  V30 6069 C 577.743 -3.84738 -3.53234 0
M  V30 6070 H 579.437 -2.38396 -1.81129 0
M  V30 6071 H 576.983 -1.14746 -0.870017 0
M  V30 6072 H 578.936 -1.31783 -4.00264 0
M  V30 6073 H 577.66 -0.329507 -3.24934 0
M  V30 6074 H 576.319 -2.40643 -2.76562 0
M  V30 6075 H 575.967 -1.14703 -4.89747 0
M  V30 6076 H 575.667 -2.88934 -5.11655 0
M  V30 6077 H 577.191 -2.16848 -5.70797 0
M  V30 6078 H 578.605 -3.88286 -4.2179 0
M  V30 6079 H 577.002 -4.59085 -3.86473 0
M  V30 6080 H 578.072 -4.13962 -2.52514 0
M  V30 6081 N 579.415 0.9433 -1.26252 0
M  V30 6082 C 580.692 1.66639 -1.02424 0
M  V30 6083 C 581.072 2.06335 0.446006 0
M  V30 6084 O 580.42 1.78551 1.42589 0
M  V30 6085 C 580.63 2.88019 -1.97094 0
M  V30 6086 C 581.978 3.59718 -2.25584 0
M  V30 6087 O 583.002 2.9812 -1.94943 0
M  V30 6088 O 581.861 4.7066 -2.77743 0
M  V30 6089 H 578.955 0.729643 -0.389294 0
M  V30 6090 H 581.501 0.995218 -1.37454 0
M  V30 6091 H 580.273 2.5556 -2.96319 0
M  V30 6092 H 579.896 3.62863 -1.62532 0
M  V30 6093 N 580.893 1.08022 1.14757 0
M  V30 6094 C 581.856 0.71048 2.1791 0
M  V30 6095 C 582.856 -0.252731 1.58801 0
M  V30 6096 O 584.046 -0.0327915 1.74169 0
M  V30 6097 C 581.178 0.0483203 3.40866 0
M  V30 6098 H 582.371 1.62384 2.52134 0
M  V30 6099 H 579.924 0.877595 1.29337 0
M  V30 6100 H 580.659 -0.876959 3.12218 0
M  V30 6101 H 580.444 0.741189 3.85031 0
M  V30 6102 H 581.934 -0.195471 4.17142 0
M  V30 6103 N 582.371 -1.3172 0.865308 0
M  V30 6104 C 583.648 -1.91574 0.394789 0
M  V30 6105 C 584.028 -1.78769 -1.12271 0
M  V30 6106 O 583.376 -1.19245 -1.94918 0
M  V30 6107 C 583.586 -3.37957 0.870982 0
M  V30 6108 C 584.934 -4.15073 0.894384 0
M  V30 6109 O 585.958 -3.4672 0.816325 0
M  V30 6110 O 584.817 -5.37151 1.00651 0
M  V30 6111 H 581.911 -0.818649 0.117229 0
M  V30 6112 H 584.457 -1.4042 0.952913 0
M  V30 6113 H 583.229 -3.41269 1.91444 0
M  V30 6114 H 582.852 -3.96534 0.290907 0
M  V30 6115 N 583.85 -0.624285 -1.44708 0
M  V30 6116 C 584.812 0.0749638 -2.29077 0
M  V30 6117 C 585.812 0.778965 -1.40673 0
M  V30 6118 O 587.003 0.624591 -1.62618 0
M  V30 6119 C 584.135 1.11663 -3.22094 0
M  V30 6120 H 585.327 -0.667013 -2.92388 0
M  V30 6121 H 582.88 -0.384098 -1.51507 0
M  V30 6122 H 583.615 1.88881 -2.63618 0
M  V30 6123 H 583.401 0.61583 -3.87234 0
M  V30 6124 H 584.891 1.60585 -3.8549 0
M  V30 6125 N 585.328 1.53329 -0.364422 0
M  V30 6126 C 586.291 2.24323 0.470292 0
M  V30 6127 C 587.291 1.25068 1.01067 0
M  V30 6128 O 588.481 1.49354 0.896605 0
M  V30 6129 C 585.613 2.97908 1.65722 0
M  V30 6130 H 586.806 2.9952 -0.150917 0
M  V30 6131 H 584.359 1.55868 -0.116092 0
M  V30 6132 H 585.094 2.2695 2.31655 0
M  V30 6133 H 584.879 3.70732 1.27671 0
M  V30 6134 H 586.369 3.5188 2.24878 0
M  V30 6135 N 586.806 0.0935595 1.57322 0
M  V30 6136 C 588.083 -0.612692 1.85756 0
M  V30 6137 C 588.463 -1.86439 0.99013 0
M  V30 6138 O 587.811 -2.28416 0.0621362 0
M  V30 6139 C 588.021 -0.929547 3.36393 0
M  V30 6140 C 589.369 -1.29366 4.04413 0
M  V30 6141 O 590.393 -1.02061 3.41265 0
M  V30 6142 O 589.252 -1.80498 5.15832 0
M  V30 6143 H 586.346 -0.306444 0.768128 0
M  V30 6144 H 588.892 0.126141 1.69231 0
M  V30 6145 H 587.664 -0.0414766 3.91278 0
M  V30 6146 H 587.287 -1.72441 3.5826 0
M  V30 6147 N 588.284 -1.56567 -0.180126 0
M  V30 6148 C 589.524 -1.83285 -0.904761 0
M  V30 6149 C 589.888 -0.673226 -1.7981 0
M  V30 6150 O 591.089 -0.820645 -2.55967 0
M  V30 6151 C 589.36 -3.15086 -1.68688 0
M  V30 6152 S 590.919 -3.63258 -2.46149 0
M  V30 6153 H 587.737 -0.643114 -0.303193 0
M  V30 6154 H 590.339 -1.94785 -0.167034 0
M  V30 6155 H 589.043 -3.97484 -1.02148 0
M  V30 6156 H 588.574 -3.06504 -2.46615 0
M  V30 6157 H 590.589 -3.29884 -3.70663 0
M  V30 6158 N 589.762 0.448376 -1.51087 0
M  V30 6159 C 591.039 1.20926 -1.53741 0
M  V30 6160 C 591.419 2.09025 -0.295222 0
M  V30 6161 O 590.767 2.16851 0.720283 0
M  V30 6162 C 590.977 2.02067 -2.84552 0
M  V30 6163 C 592.325 2.59486 -3.36084 0
M  V30 6164 O 593.349 2.12289 -2.86028 0
M  V30 6165 O 592.208 3.45539 -4.23397 0
M  V30 6166 H 589.302 0.549951 -0.617643 0
M  V30 6167 H 591.848 0.458344 -1.63393 0
M  V30 6168 H 590.62 1.37291 -3.66425 0
M  V30 6169 H 590.243 2.84246 -2.78011 0
M  V30 6170 N 591.24 1.41047 0.703093 0
M  V30 6171 C 592.486 1.40207 1.46526 0
M  V30 6172 C 592.819 0.00847763 1.94198 0
M  V30 6173 O 592.094 -0.962437 1.69019 0
M  V30 6174 C 592.377 2.40238 2.6825 0
M  V30 6175 C 592.23 3.88674 2.26391 0
M  V30 6176 C 593.549 2.37627 3.70434 0
M  V30 6177 H 590.668 0.510594 0.531472 0
M  V30 6178 H 593.31 1.72271 0.801422 0
M  V30 6179 H 591.46 2.13026 3.24888 0
M  V30 6180 H 593.132 4.2676 1.75138 0
M  V30 6181 H 591.375 4.03903 1.58255 0
M  V30 6182 H 592.046 4.542 3.13698 0
M  V30 6183 H 594.522 2.61759 3.23452 0
M  V30 6184 H 593.398 3.09645 4.53223 0
M  V30 6185 H 593.659 1.39223 4.19606 0
M  V30 6186 N 592.718 -0.936591 1.26751 0
M  V30 6187 C 593.995 -1.66094 1.03306 0
M  V30 6188 C 594.375 -2.06568 -0.435058 0
M  V30 6189 O 593.723 -1.79305 -1.41641 0
M  V30 6190 C 593.933 -2.86969 1.98619 0
M  V30 6191 C 595.281 -3.58516 2.27489 0
M  V30 6192 O 596.305 -2.97082 1.96522 0
M  V30 6193 O 595.164 -4.69181 2.80235 0
M  V30 6194 H 592.258 -0.727568 0.393158 0
M  V30 6195 H 594.804 -0.987914 1.3798 0
M  V30 6196 H 593.576 -2.53985 2.9767 0
M  V30 6197 H 593.199 -3.61996 1.64454 0
M  V30 6198 N 594.196 -1.08629 -1.14182 0
M  V30 6199 C 595.473 -0.73002 -1.81466 0
M  V30 6200 C 595.853 0.785996 -1.95922 0
M  V30 6201 O 595.201 1.70535 -1.52086 0
M  V30 6202 C 595.411 -1.45957 -3.17014 0
M  V30 6203 C 596.759 -1.62008 -3.92477 0
M  V30 6204 O 597.783 -1.42141 -3.26611 0
M  V30 6205 O 596.642 -1.94806 -5.106 0
M  V30 6206 H 593.736 -0.261307 -0.784632 0
M  V30 6207 H 596.282 -1.188 -1.2118 0
M  V30 6208 H 595.054 -2.49221 -3.01669 0
M  V30 6209 H 594.677 -0.993222 -3.84995 0
M  V30 6210 N 595.674 1.31259 -0.872281 0
M  V30 6211 C 596.607 2.26544 -0.274394 0
M  V30 6212 C 597.585 1.51213 0.597776 0
M  V30 6213 O 598.769 1.80277 0.550687 0
M  V30 6214 C 595.896 3.33139 0.611256 0
M  V30 6215 C 594.942 4.26077 -0.189876 0
M  V30 6216 S 595.775 5.11971 -1.56989 0
M  V30 6217 C 596.931 6.2208 -0.690427 0
M  V30 6218 H 597.164 2.76908 -1.0821 0
M  V30 6219 H 594.697 1.3906 -0.670939 0
M  V30 6220 H 596.655 3.95024 1.11654 0
M  V30 6221 H 595.316 2.81525 1.39294 0
M  V30 6222 H 594.509 5.01657 0.485433 0
M  V30 6223 H 594.111 3.68701 -0.627339 0
M  V30 6224 H 596.403 6.77429 0.098001 0
M  V30 6225 H 597.346 6.93768 -1.41742 0
M  V30 6226 H 597.754 5.63915 -0.256953 0
M  V30 6227 N 597.152 0.631951 1.44375 0
M  V30 6228 C 598.082 -0.0593243 2.33425 0
M  V30 6229 C 599.063 -0.833964 1.48253 0
M  V30 6230 O 600.248 -0.799682 1.76971 0
M  V30 6231 C 597.378 -1.04096 3.31333 0
M  V30 6232 C 596.332 -0.377899 4.26328 0
M  V30 6233 C 595.658 -1.4695 5.14111 0
M  V30 6234 C 596.958 0.716371 5.17364 0
M  V30 6235 H 598.652 0.684287 2.91475 0
M  V30 6236 H 596.198 0.330518 1.40156 0
M  V30 6237 H 598.151 -1.53331 3.92514 0
M  V30 6238 H 596.875 -1.81547 2.71493 0
M  V30 6239 H 595.534 0.0938054 3.6648 0
M  V30 6240 H 595.182 -2.2349 4.50623 0
M  V30 6241 H 594.882 -1.03121 5.78481 0
M  V30 6242 H 596.406 -1.96363 5.78164 0
M  V30 6243 H 597.82 0.307089 5.72477 0
M  V30 6244 H 596.217 1.07784 5.90341 0
M  V30 6245 H 597.287 1.58316 4.58327 0
M  V30 6246 N 598.631 -1.53133 0.372548 0
M  V30 6247 C 599.877 -2.02336 -0.207823 0
M  V30 6248 C 600.232 -1.25477 -1.45853 0
M  V30 6249 O 599.525 -0.341971 -1.88524 0
M  V30 6250 C 599.719 -3.53206 -0.545938 0
M  V30 6251 C 599.548 -4.44674 0.670454 0
M  V30 6252 C 598.318 -4.91217 1.18465 0
M  V30 6253 C 600.516 -4.90772 1.53777 0
M  V30 6254 N 598.498 -5.66711 2.36034 0
M  V30 6255 C 599.869 -5.64678 2.56004 0
M  V30 6256 C 601.924 -4.72836 1.55983 0
M  V30 6257 C 600.627 -6.22555 3.60303 0
M  V30 6258 C 602.653 -5.31583 2.59179 0
M  V30 6259 C 602.015 -6.05381 3.6013 0
M  V30 6260 H 598.114 -0.781048 -0.0385783 0
M  V30 6261 H 600.698 -1.87665 0.518664 0
M  V30 6262 H 598.869 -3.68024 -1.24149 0
M  V30 6263 H 600.601 -3.89123 -1.112 0
M  V30 6264 H 597.356 -4.67652 0.748205 0
M  V30 6265 H 597.78 -6.09117 2.95475 0
M  V30 6266 H 602.422 -4.15299 0.792877 0
M  V30 6267 H 600.14 -6.79183 4.37876 0
M  V30 6268 H 603.726 -5.19595 2.61749 0
M  V30 6269 H 602.606 -6.50028 4.38672 0
M  V30 6270 N 600.109 -0.101901 -1.5727 0
M  V30 6271 C 601.041 0.884723 -2.11436 0
M  V30 6272 C 602.054 1.24149 -1.05314 0
M  V30 6273 O 603.243 1.19341 -1.3274 0
M  V30 6274 C 600.343 2.19179 -2.58484 0
M  V30 6275 C 599.516 2.00933 -3.88516 0
M  V30 6276 C 598.575 3.15213 -4.2134 0
M  V30 6277 O 597.601 2.88877 -4.90448 0
M  V30 6278 N 598.803 4.41174 -3.77288 0
M  V30 6279 H 601.568 0.422058 -2.96713 0
M  V30 6280 H 599.129 0.0830128 -1.61687 0
M  V30 6281 H 601.121 2.94593 -2.77484 0
M  V30 6282 H 599.691 2.56847 -1.7818 0
M  V30 6283 H 598.911 1.09809 -3.78597 0
M  V30 6284 H 600.199 1.86026 -4.73573 0
M  V30 6285 H 599.597 4.6545 -3.21516 0
M  V30 6286 H 598.154 5.13515 -4.01429 0
M  V30 6287 N 601.587 1.56661 0.17182 0
M  V30 6288 C 602.833 1.82235 0.889845 0
M  V30 6289 C 603.166 0.679673 1.81918 0
M  V30 6290 O 602.441 -0.318404 1.91876 0
M  V30 6291 C 602.724 3.18195 1.68595 0
M  V30 6292 C 602.577 4.42989 0.779773 0
M  V30 6293 C 603.896 3.5109 2.65375 0
M  V30 6294 H 601.015 0.66291 0.322056 0
M  V30 6295 H 603.657 1.89358 0.15608 0
M  V30 6296 H 601.807 3.12253 2.3115 0
M  V30 6297 H 603.479 4.60997 0.16714 0
M  V30 6298 H 601.722 4.33711 0.0877964 0
M  V30 6299 H 602.393 5.3467 1.3723 0
M  V30 6300 H 604.869 3.57482 2.12946 0
M  V30 6301 H 603.745 4.47298 3.18144 0
M  V30 6302 H 604.006 2.75768 3.45549 0
M  V30 6303 N 603.065 -0.440357 1.51323 0
M  V30 6304 C 604.476 -1.02032 1.56353 0
M  V30 6305 C 604.827 -1.92382 0.385197 0
M  V30 6306 O 603.952 -2.10583 -0.498373 0
M  V30 6307 C 604.547 -1.85723 2.83359 0
M  V30 6308 C 603.106 -2.38774 2.90971 0
M  V30 6309 C 602.253 -1.17908 2.50984 0
M  V30 6310 H 605.204 -0.221744 1.57143 0
M  V30 6311 H 605.225 -2.71141 2.66951 0
M  V30 6312 H 604.737 -1.19939 3.69102 0
M  V30 6313 H 602.838 -3.08021 2.09651 0
M  V30 6314 H 602.951 -2.71778 3.94555 0
M  V30 6315 H 601.315 -1.52347 2.04114 0
M  V30 6316 H 602.098 -0.537393 3.39068 0
M  V30 6317 N 604.543 -1.41418 -0.695603 0
M  V30 6318 C 605.773 -1.43921 -1.48224 0
M  V30 6319 C 606.181 -0.0428855 -1.89151 0
M  V30 6320 O 605.524 0.948138 -1.5734 0
M  V30 6321 C 605.586 -2.28466 -2.77567 0
M  V30 6322 C 605.25 -3.76629 -2.58844 0
M  V30 6323 C 606.247 -4.6879 -2.24793 0
M  V30 6324 C 603.932 -4.2067 -2.74485 0
M  V30 6325 C 605.926 -6.02981 -2.06622 0
M  V30 6326 C 603.613 -5.54926 -2.55931 0
M  V30 6327 C 604.611 -6.45897 -2.2205 0
M  V30 6328 O 604.299 -7.77675 -2.03657 0
M  V30 6329 H 604.031 -0.492252 -0.463318 0
M  V30 6330 H 606.585 -1.86347 -0.863952 0
M  V30 6331 H 604.815 -1.80853 -3.41802 0
M  V30 6332 H 606.504 -2.2267 -3.39371 0
M  V30 6333 H 607.27 -4.36055 -2.12323 0
M  V30 6334 H 603.149 -3.50167 -2.9984 0
M  V30 6335 H 606.693 -6.73951 -1.80099 0
M  V30 6336 H 602.59 -5.8724 -2.67991 0
M  V30 6337 H 603.358 -7.88819 -2.1842 0
M  V30 6338 N 606.021 0.929856 -1.27246 0
M  V30 6339 C 606.951 2.04722 -1.12299 0
M  V30 6340 C 607.932 1.70082 -0.0250464 0
M  V30 6341 O 609.117 1.93176 -0.199141 0
M  V30 6342 C 606.247 3.38721 -0.767145 0
M  V30 6343 C 605.201 3.87466 -1.81808 0
M  V30 6344 C 604.527 5.18246 -1.31626 0
M  V30 6345 C 605.827 4.11095 -3.22177 0
M  V30 6346 H 607.521 2.17485 -2.05769 0
M  V30 6347 H 605.067 1.04503 -0.990715 0
M  V30 6348 H 607.02 4.16366 -0.649413 0
M  V30 6349 H 605.744 3.25967 0.203259 0
M  V30 6350 H 604.403 3.12012 -1.92468 0
M  V30 6351 H 604.051 5.01881 -0.335378 0
M  V30 6352 H 603.751 5.51829 -2.01887 0
M  V30 6353 H 605.275 5.98462 -1.21143 0
M  V30 6354 H 606.689 4.79316 -3.1453 0
M  V30 6355 H 605.086 4.55982 -3.90129 0
M  V30 6356 H 606.156 3.16468 -3.67391 0
M  V30 6357 N 607.499 1.09233 1.13605 0
M  V30 6358 C 608.91 0.846839 1.6639 0
M  V30 6359 C 609.261 -0.625031 1.85978 0
M  V30 6360 O 608.386 -1.48173 1.57714 0
M  V30 6361 C 608.981 1.5307 3.0225 0
M  V30 6362 C 607.54 1.33223 3.52035 0
M  V30 6363 C 606.687 1.58806 2.27323 0
M  V30 6364 H 609.638 1.25175 0.975541 0
M  V30 6365 H 609.659 0.96267 3.68121 0
M  V30 6366 H 609.171 2.60192 2.87961 0
M  V30 6367 H 607.272 0.282091 3.71531 0
M  V30 6368 H 607.385 2.0657 4.32279 0
M  V30 6369 H 605.749 1.01007 2.33815 0
M  V30 6370 H 606.532 2.67153 2.15602 0
M  V30 6371 N 608.977 -1.30795 0.87923 0
M  V30 6372 C 610.226 -1.95636 0.490875 0
M  V30 6373 C 610.539 -1.70214 -0.963674 0
M  V30 6374 O 611.745 -2.28991 -1.45861 0
M  V30 6375 C 610.201 -3.50271 0.826929 0
M  V30 6376 C 609.809 -3.84521 2.29886 0
M  V30 6377 C 611.553 -4.21456 0.507494 0
M  V30 6378 C 609.46 -5.32309 2.57685 0
M  V30 6379 H 608.39 -0.732238 0.179841 0
M  V30 6380 H 611.041 -1.48829 1.07341 0
M  V30 6381 H 609.423 -3.9562 0.173542 0
M  V30 6382 H 610.597 -3.50102 2.99609 0
M  V30 6383 H 608.912 -3.26425 2.58526 0
M  V30 6384 H 611.509 -5.30199 0.692293 0
M  V30 6385 H 611.852 -4.12614 -0.552718 0
M  V30 6386 H 612.385 -3.81772 1.11782 0
M  V30 6387 H 609.124 -5.46195 3.62424 0
M  V30 6388 H 608.644 -5.68048 1.92566 0
M  V30 6389 H 610.323 -5.99678 2.42889 0
M  V30 6390 N 610.455 -0.639598 -1.44038 0
M  V30 6391 C 611.732 -0.078012 -1.95444 0
M  V30 6392 C 612.112 1.39847 -1.58133 0
M  V30 6393 O 611.46 2.11714 -0.859614 0
M  V30 6394 C 611.67 -0.309832 -3.47622 0
M  V30 6395 C 613.018 -0.207521 -4.24093 0
M  V30 6396 O 614.042 -0.241653 -3.55379 0
M  V30 6397 O 612.901 -0.119641 -5.46369 0
M  V30 6398 H 609.995 0.0174534 -0.826816 0
M  V30 6399 H 612.541 -0.711891 -1.54046 0
M  V30 6400 H 611.313 -1.33401 -3.67858 0
M  V30 6401 H 610.936 0.357777 -3.95987 0
M  V30 6402 N 611.933 1.52934 -0.380664 0
M  V30 6403 C 613.344 1.86457 0.0952684 0
M  V30 6404 C 613.695 1.3007 1.46889 0
M  V30 6405 O 612.82 0.628636 2.07068 0
M  V30 6406 C 613.415 3.38323 0.179648 0
M  V30 6407 C 611.974 3.71589 0.599858 0
M  V30 6408 C 611.121 2.76228 -0.243572 0
M  V30 6409 H 614.072 1.46966 -0.59888 0
M  V30 6410 H 614.093 3.67113 1.00042 0
M  V30 6411 H 613.605 3.79333 -0.820228 0
M  V30 6412 H 611.706 3.36144 1.60742 0
M  V30 6413 H 611.819 4.77715 0.364003 0
M  V30 6414 H 610.183 2.53045 0.289855 0
M  V30 6415 H 610.966 3.20074 -1.24127 0
M  V30 6416 N 613.412 0.11024 1.57214 0
M  V30 6417 C 614.828 -0.24638 1.57687 0
M  V30 6418 C 615.028 -1.67344 1.12241 0
M  V30 6419 O 614.084 -2.39298 0.805783 0
M  V30 6420 C 615.397 -0.0210288 3.00693 0
M  V30 6421 C 616.945 -0.0876077 3.12877 0
M  V30 6422 C 617.42 0.10994 4.57868 0
M  V30 6423 N 618.911 0.0556135 4.63167 0
M  V30 6424 C 619.646 0.183495 5.73106 0
M  V30 6425 N 619.142 0.367058 6.91827 0
M  V30 6426 N 620.935 0.123689 5.61964 0
M  V30 6427 H 613.086 1.04246 1.85058 0
M  V30 6428 H 615.349 0.40979 0.854854 0
M  V30 6429 H 615.055 0.965203 3.38196 0
M  V30 6430 H 614.929 -0.756748 3.69531 0
M  V30 6431 H 617.316 -1.06436 2.75237 0
M  V30 6432 H 617.397 0.67985 2.466 0
M  V30 6433 H 617.041 1.08362 4.96206 0
M  V30 6434 H 616.971 -0.677397 5.22225 0
M  V30 6435 H 619.462 -0.0831062 3.77809 0
M  V30 6436 H 619.775 0.455739 7.71455 0
M  V30 6437 H 618.12 0.40292 6.93831 0
M  V30 6438 H 621.311 -0.0186928 4.68096 0
M  V30 6439 H 621.484 0.226797 6.47603 0
M  V30 6440 N 614.89 -1.56749 -0.16351 0
M  V30 6441 C 616.167 -1.73321 -0.906599 0
M  V30 6442 C 616.547 -0.673779 -2.00059 0
M  V30 6443 O 615.895 0.310121 -2.26386 0
M  V30 6444 C 616.105 -3.168 -1.46419 0
M  V30 6445 C 617.453 -3.77993 -1.93407 0
M  V30 6446 O 618.477 -3.20127 -1.56196 0
M  V30 6447 O 617.336 -4.79615 -2.61976 0
M  V30 6448 H 614.43 -0.708073 -0.427272 0
M  V30 6449 H 616.976 -1.69029 -0.150727 0
M  V30 6450 H 615.748 -3.85396 -0.677189 0
M  V30 6451 H 615.371 -3.2545 -2.28403 0
M  V30 6452 N 616.368 0.432326 -1.51554 0
M  V30 6453 C 617.614 1.18309 -1.64714 0
M  V30 6454 C 617.947 1.90745 -0.364696 0
M  V30 6455 O 617.222 1.8381 0.635936 0
M  V30 6456 C 617.505 2.1961 -2.85383 0
M  V30 6457 C 617.358 1.51223 -4.23617 0
M  V30 6458 C 618.677 3.20538 -3.01569 0
M  V30 6459 H 615.796 0.428751 -0.599451 0
M  V30 6460 H 618.438 0.471689 -1.84052 0
M  V30 6461 H 616.588 2.8028 -2.69027 0
M  V30 6462 H 618.26 0.938516 -4.51652 0
M  V30 6463 H 616.503 0.814501 -4.26085 0
M  V30 6464 H 617.174 2.25024 -5.04052 0
M  V30 6465 H 619.65 2.69926 -3.16669 0
M  V30 6466 H 618.526 3.88706 -3.87555 0
M  V30 6467 H 618.787 3.86933 -2.13859 0
M  V30 6468 N 617.846 1.41785 0.688094 0
M  V30 6469 C 619.094 1.41264 1.4453 0
M  V30 6470 C 619.415 0.0252946 1.94984 0
M  V30 6471 O 618.685 -0.934081 1.72197 0
M  V30 6472 H 617.265 0.519998 0.536294 0
M  V30 6473 H 619.927 1.7709 0.813941 0
M  V30 6474 H 619.023 2.10439 2.30482 0
M  V30 6475 N 619.324 -0.923095 1.27737 0
M  V30 6476 C 620.74 -1.19985 1.05241 0
M  V30 6477 C 620.94 -2.00391 -0.21113 0
M  V30 6478 O 619.996 -2.35324 -0.915366 0
M  V30 6479 C 621.309 -1.94352 2.29451 0
M  V30 6480 C 622.857 -2.07273 2.34536 0
M  V30 6481 C 623.332 -2.85046 3.58487 0
M  V30 6482 N 624.823 -2.92612 3.59072 0
M  V30 6483 C 625.558 -3.53266 4.51654 0
M  V30 6484 N 625.054 -4.15274 5.54545 0
M  V30 6485 N 626.847 -3.50714 4.39268 0
M  V30 6486 H 618.998 -0.386042 2.08862 0
M  V30 6487 H 621.261 -0.233407 0.918817 0
M  V30 6488 H 620.967 -1.42692 3.21453 0
M  V30 6489 H 620.841 -2.94947 2.3513 0
M  V30 6490 H 623.228 -2.58117 1.43037 0
M  V30 6491 H 623.309 -1.05884 2.32857 0
M  V30 6492 H 622.953 -2.34884 4.50324 0
M  V30 6493 H 622.883 -3.8673 3.57418 0
M  V30 6494 H 625.374 -2.48547 2.84663 0
M  V30 6495 H 625.687 -4.59507 6.21348 0
M  V30 6496 H 624.032 -4.13806 5.58382 0
M  V30 6497 H 627.223 -3.01475 3.58093 0
M  V30 6498 H 627.396 -3.97693 5.1161 0
M  V30 6499 N 620.802 -1.09834 -1.13024 0
M  V30 6500 C 622.03 -0.858902 -1.8823 0
M  V30 6501 C 622.445 0.590164 -1.79339 0
M  V30 6502 O 621.802 1.4065 -1.16292 0
M  V30 6503 C 621.853 -1.29066 -3.37675 0
M  V30 6504 O 621.574 -2.6829 -3.46341 0
M  V30 6505 C 623.075 -1.08421 -4.29837 0
M  V30 6506 H 620.295 -0.308713 -0.595766 0
M  V30 6507 H 622.839 -1.4614 -1.4305 0
M  V30 6508 H 620.994 -0.731961 -3.80422 0
M  V30 6509 H 621.408 -2.86598 -4.39274 0
M  V30 6510 H 622.882 -1.43553 -5.33007 0
M  V30 6511 H 623.359 -0.0223315 -4.39194 0
M  V30 6512 H 623.965 -1.62907 -3.92863 0
M  V30 6513 N 622.28 1.30327 -0.886154 0
M  V30 6514 C 623.51 1.99964 -0.519421 0
M  V30 6515 C 623.918 1.66593 0.89686 0
M  V30 6516 O 623.261 0.899886 1.60149 0
M  V30 6517 C 623.323 3.54187 -0.615795 0
M  V30 6518 C 622.987 4.11078 -1.9966 0
M  V30 6519 C 623.984 4.26985 -2.96614 0
M  V30 6520 C 621.669 4.46429 -2.30231 0
M  V30 6521 C 623.663 4.77456 -4.22273 0
M  V30 6522 C 621.35 4.966 -3.56135 0
M  V30 6523 C 622.348 5.12066 -4.5197 0
M  V30 6524 O 622.036 5.61154 -5.7564 0
M  V30 6525 H 621.768 0.645979 -0.199217 0
M  V30 6526 H 624.322 1.67154 -1.19368 0
M  V30 6527 H 622.552 3.86528 0.115448 0
M  V30 6528 H 624.241 4.05065 -0.26017 0
M  V30 6529 H 625.007 3.99975 -2.74308 0
M  V30 6530 H 620.886 4.33658 -1.56404 0
M  V30 6531 H 624.43 4.89444 -4.97082 0
M  V30 6532 H 620.327 5.23045 -3.78277 0
M  V30 6533 H 621.095 5.79494 -5.78039 0
M  V30 6534 N 623.758 0.647228 1.43697 0
M  V30 6535 C 624.668 -0.0487997 2.34549 0
M  V30 6536 C 625.684 -0.818586 1.53542 0
M  V30 6537 O 626.86 -0.767195 1.86215 0
M  V30 6538 C 623.925 -1.00734 3.31743 0
M  V30 6539 C 622.986 -0.23515 4.28655 0
M  V30 6540 C 622.219 -1.14803 5.21206 0
M  V30 6541 O 622.442 -2.38717 5.18045 0
M  V30 6542 O 621.376 -0.623667 5.9866 0
M  V30 6543 H 625.202 0.698863 2.9555 0
M  V30 6544 H 622.787 0.407412 1.43738 0
M  V30 6545 H 624.669 -1.55837 3.91526 0
M  V30 6546 H 623.344 -1.73534 2.73254 0
M  V30 6547 H 622.251 0.359319 3.7237 0
M  V30 6548 H 623.584 0.453152 4.9011 0
M  V30 6549 N 625.236 -1.5273 0.388769 0
M  V30 6550 C 626.199 -2.25043 -0.434544 0
M  V30 6551 C 627.199 -1.26661 -0.990644 0
M  V30 6552 O 628.389 -1.50762 -0.872731 0
M  V30 6553 C 625.521 -3.00507 -1.60961 0
M  V30 6554 H 626.714 -2.99242 0.198549 0
M  V30 6555 H 624.267 -1.55664 0.140875 0
M  V30 6556 H 625.002 -2.30607 -2.28015 0
M  V30 6557 H 624.787 -3.72716 -1.21757 0
M  V30 6558 H 626.277 -3.55413 -2.19251 0
M  V30 6559 N 626.714 -0.118576 -1.57153 0
M  V30 6560 C 627.96 0.540326 -1.95469 0
M  V30 6561 C 628.293 1.66356 -1.00196 0
M  V30 6562 O 627.568 1.94461 -0.039104 0
M  V30 6563 C 627.851 1.07342 -3.43729 0
M  V30 6564 C 627.704 -0.0463732 -4.49776 0
M  V30 6565 C 629.023 1.96442 -3.93826 0
M  V30 6566 H 626.142 0.19494 -0.710751 0
M  V30 6567 H 628.784 -0.19405 -1.89006 0
M  V30 6568 H 626.934 1.69925 -3.49368 0
M  V30 6569 H 628.606 -0.681648 -4.56236 0
M  V30 6570 H 626.849 -0.709574 -4.27957 0
M  V30 6571 H 627.52 0.367856 -5.50773 0
M  V30 6572 H 629.996 1.43731 -3.90488 0
M  V30 6573 H 628.872 2.3066 -4.98084 0
M  V30 6574 H 629.133 2.89077 -3.34495 0
M  V30 6575 N 628.193 1.56834 0.155195 0
M  V30 6576 C 629.442 1.82088 0.867567 0
M  V30 6577 C 629.755 0.69849 1.82703 0
M  V30 6578 O 630.961 0.836407 2.58295 0
M  V30 6579 C 629.417 3.22707 1.59336 0
M  V30 6580 C 629.025 4.42859 0.676719 0
M  V30 6581 C 630.769 3.57242 2.293 0
M  V30 6582 C 628.676 5.74501 1.40367 0
M  V30 6583 H 627.606 0.679057 0.327715 0
M  V30 6584 H 630.257 1.83105 0.120351 0
M  V30 6585 H 628.639 3.16054 2.38591 0
M  V30 6586 H 629.813 4.60731 -0.0800196 0
M  V30 6587 H 628.128 4.16311 0.0859129 0
M  V30 6588 H 630.725 4.52847 2.84312 0
M  V30 6589 H 631.068 2.82901 3.05406 0
M  V30 6590 H 631.601 3.6552 1.56972 0
M  V30 6591 H 628.34 6.51915 0.684623 0
M  V30 6592 H 627.86 5.60579 2.13332 0
M  V30 6593 H 629.539 6.17016 1.94681 0
M  V30 6594 N 629.671 -0.424282 1.51781 0
M  V30 6595 C 631.087 -0.761768 1.40247 0
M  V30 6596 C 631.287 -1.95324 0.495041 0
M  V30 6597 O 630.343 -2.5246 -0.0448949 0
M  V30 6598 C 631.656 -1.0299 2.82513 0
M  V30 6599 C 633.204 -1.13354 2.91753 0
M  V30 6600 C 633.679 -1.43453 4.34954 0
M  V30 6601 N 635.17 -1.5035 4.3812 0
M  V30 6602 C 635.905 -1.75236 5.45967 0
M  V30 6603 N 635.401 -1.97827 6.63955 0
M  V30 6604 N 637.194 -1.77126 5.33463 0
M  V30 6605 H 629.345 0.360228 2.09323 0
M  V30 6606 H 631.608 0.0988128 0.942836 0
M  V30 6607 H 631.314 -0.226961 3.50967 0
M  V30 6608 H 631.188 -1.95411 3.22637 0
M  V30 6609 H 633.575 -1.92709 2.23489 0
M  V30 6610 H 633.656 -0.188041 2.55108 0
M  V30 6611 H 633.3 -0.646209 5.03772 0
M  V30 6612 H 633.23 -2.3923 4.69123 0
M  V30 6613 H 635.721 -1.34742 3.53062 0
M  V30 6614 H 636.034 -2.16223 7.41935 0
M  V30 6615 H 634.379 -1.95123 6.67047 0
M  V30 6616 H 637.57 -1.59005 4.40267 0
M  V30 6617 H 637.743 -1.96182 6.17589 0
M  V30 6618 N 631.149 -1.42148 -0.680565 0
M  V30 6619 C 632.395 -1.42521 -1.44277 0
M  V30 6620 C 632.728 -0.0393718 -1.9416 0
M  V30 6621 O 632.003 0.935425 -1.70529 0
M  V30 6622 C 632.286 -2.44475 -2.64394 0
M  V30 6623 C 632.139 -3.92226 -2.20179 0
M  V30 6624 C 633.458 -2.43491 -3.66606 0
M  V30 6625 H 630.577 -0.518985 -0.523282 0
M  V30 6626 H 633.219 -1.73524 -0.773914 0
M  V30 6627 H 631.369 -2.18168 -3.21458 0
M  V30 6628 H 633.041 -4.29493 -1.68327 0
M  V30 6629 H 631.284 -4.0637 -1.5181 0
M  V30 6630 H 631.955 -4.59133 -3.06433 0
M  V30 6631 H 634.431 -2.66872 -3.19247 0
M  V30 6632 H 633.307 -3.16816 -4.4824 0
M  V30 6633 H 633.568 -1.45881 -4.17338 0
M  V30 6634 N 632.627 0.916307 -1.28225 0
M  V30 6635 C 633.575 2.03977 -1.11786 0
M  V30 6636 C 634.569 1.69358 -0.0378265 0
M  V30 6637 O 635.775 1.78925 -0.196405 0
M  V30 6638 H 632.15 0.66829 -0.344809 0
M  V30 6639 H 634.121 2.14985 -2.06939 0
M  V30 6640 C 632.87 3.38518 -0.7938 0
M  V30 6641 H 632.193 3.65649 -1.61682 0
M  V30 6642 H 633.633 4.17864 -0.718719 0
M  V30 6643 C 632.092 3.33134 0.502353 0
M  V30 6644 O 632.622 3.71281 1.53341 0
M  V30 6645 N 630.828 2.86229 0.502147 0
M  V30 6646 H 630.375 2.55382 -0.337338 0
M  V30 6647 H 630.333 2.83009 1.36942 0
M  V30 6648 N 634.105 1.10431 1.1244 0
M  V30 6649 C 635.33 0.869089 1.88313 0
M  V30 6650 C 635.755 -0.574912 1.79099 0
M  V30 6651 O 635.113 -1.40496 1.14589 0
M  V30 6652 C 635.161 1.32208 3.3549 0
M  V30 6653 O 634.265 0.487092 4.09513 0
M  V30 6654 H 633.606 0.313894 0.585121 0
M  V30 6655 H 636.136 1.47111 1.42195 0
M  V30 6656 H 636.146 1.31201 3.86329 0
M  V30 6657 H 634.821 2.37364 3.41513 0
M  V30 6658 H 633.398 0.562372 3.68635 0
M  V30 6659 N 635.583 -1.29855 0.893053 0
M  V30 6660 C 636.515 -2.26911 0.32311 0
M  V30 6661 C 637.528 -1.54039 -0.526858 0
M  V30 6662 O 638.717 -1.75132 -0.345095 0
M  V30 6663 C 635.817 -3.34266 -0.558509 0
M  V30 6664 C 634.99 -4.36601 0.264222 0
M  V30 6665 C 634.049 -5.23326 -0.549171 0
M  V30 6666 O 633.075 -5.69192 0.0309883 0
M  V30 6667 N 634.277 -5.50008 -1.85664 0
M  V30 6668 H 637.042 -2.76455 1.15726 0
M  V30 6669 H 634.603 -1.4312 0.756859 0
M  V30 6670 H 636.595 -3.89211 -1.1089 0
M  V30 6671 H 635.165 -2.8459 -1.29334 0
M  V30 6672 H 634.385 -3.81409 0.996046 0
M  V30 6673 H 635.673 -5.02019 0.827906 0
M  V30 6674 H 635.071 -5.14542 -2.35081 0
M  V30 6675 H 633.628 -6.07796 -2.35431 0
M  V30 6676 N 637.061 -0.65484 -1.43351 0
M  V30 6677 C 638.286 -0.175046 -2.0666 0
M  V30 6678 C 638.711 1.15104 -1.4877 0
M  V30 6679 O 638.069 1.71144 -0.598279 0
M  V30 6680 C 638.117 -0.0991544 -3.60464 0
M  V30 6681 O 637.221 0.938169 -4.01587 0
M  V30 6682 H 636.562 -0.0956148 -0.65708 0
M  V30 6683 H 639.092 -0.898222 -1.83829 0
M  V30 6684 H 639.102 0.083632 -4.07914 0
M  V30 6685 H 637.777 -1.06719 -4.01975 0
M  V30 6686 H 636.354 0.72804 -3.65724 0
M  V30 6687 N 638.539 1.52521 -0.396863 0
M  V30 6688 C 639.787 2.01274 0.182536 0
M  V30 6689 C 640.108 1.28485 1.46685 0
M  V30 6690 O 639.378 0.407134 1.91623 0
M  V30 6691 H 637.958 0.743671 0.0704442 0
M  V30 6692 H 640.62 1.87547 -0.530289 0
M  V30 6693 H 639.716 3.09687 0.387385 0
M  V30 6694 N 640.017 0.126909 1.57088 0
M  V30 6695 C 640.964 -0.82036 2.15728 0
M  V30 6696 C 641.934 -1.25811 1.08447 0
M  V30 6697 O 643.119 -1.33422 1.36393 0
M  V30 6698 C 640.259 -2.06199 2.76724 0
M  V30 6699 C 639.372 -1.67188 3.98337 0
M  V30 6700 C 638.507 -2.86378 4.47393 0
M  V30 6701 C 637.546 -2.43644 5.61519 0
M  V30 6702 N 636.683 -3.55775 6.05284 0
M  V30 6703 H 641.523 -0.313472 2.96347 0
M  V30 6704 H 639.06 -0.14303 1.46403 0
M  V30 6705 H 641.018 -2.78959 3.10222 0
M  V30 6706 H 639.648 -2.54333 1.98782 0
M  V30 6707 H 638.7 -0.842714 3.70948 0
M  V30 6708 H 640.012 -1.31789 4.81075 0
M  V30 6709 H 639.166 -3.67353 4.82842 0
M  V30 6710 H 637.905 -3.25009 3.63621 0
M  V30 6711 H 636.91 -1.61104 5.25667 0
M  V30 6712 H 638.135 -2.06122 6.47063 0
M  V30 6713 H 636.081 -3.94065 5.24451 0
M  V30 6714 H 635.998 -3.24325 6.82898 0
M  V30 6715 H 637.266 -4.37166 6.45373 0
M  V30 6716 N 641.495 -1.56914 -0.146875 0
M  V30 6717 C 642.743 -1.82994 -0.85777 0
M  V30 6718 C 643.064 -0.707814 -1.817 0
M  V30 6719 O 642.334 0.270521 -1.94023 0
M  V30 6720 H 640.914 -0.675106 -0.319751 0
M  V30 6721 H 643.576 -1.9439 -0.140849 0
M  V30 6722 H 642.672 -2.77928 -1.41994 0
M  V30 6723 N 642.974 0.416227 -1.52004 0
M  V30 6724 C 644.222 1.16153 -1.65387 0
M  V30 6725 C 644.543 1.91208 -0.382669 0
M  V30 6726 O 643.813 1.86413 0.602231 0
M  V30 6727 H 642.393 0.431765 -0.60958 0
M  V30 6728 H 645.055 0.475151 -1.89019 0
M  V30 6729 H 644.151 1.87952 -2.4916 0
M  V30 6730 N 644.452 1.42507 0.673017 0
M  V30 6731 C 645.698 1.43284 1.43519 0
M  V30 6732 C 646.031 0.049668 1.94136 0
M  V30 6733 O 645.306 -0.926369 1.71022 0
M  V30 6734 C 645.589 2.45874 2.63093 0
M  V30 6735 C 645.442 3.93388 2.18096 0
M  V30 6736 C 646.761 2.45431 3.6531 0
M  V30 6737 H 643.88 0.521752 0.520522 0
M  V30 6738 H 646.522 1.73932 0.764701 0
M  V30 6739 H 644.672 2.19869 3.20296 0
M  V30 6740 H 646.344 4.30379 1.66046 0
M  V30 6741 H 644.587 4.07169 1.49652 0
M  V30 6742 H 645.258 4.60752 3.03993 0
M  V30 6743 H 647.734 2.68561 3.17827 0
M  V30 6744 H 646.61 3.19189 4.46553 0
M  V30 6745 H 646.871 1.48092 4.16559 0
M  V30 6746 N 645.93 -0.909495 1.28709 0
M  V30 6747 C 646.893 -1.99399 1.13016 0
M  V30 6748 C 647.893 -1.60654 0.068536 0
M  V30 6749 O 649.083 -1.71334 0.314671 0
M  V30 6750 C 646.215 -3.33078 0.726085 0
M  V30 6751 H 647.408 -2.14751 2.09338 0
M  V30 6752 H 644.961 -1.09272 1.11756 0
M  V30 6753 H 645.696 -3.23428 -0.23771 0
M  V30 6754 H 645.481 -3.62562 1.49302 0
M  V30 6755 H 646.971 -4.12681 0.639058 0
M  V30 6756 N 647.408 -1.11026 -1.11852 0
M  V30 6757 C 648.638 -0.877544 -1.87037 0
M  V30 6758 C 649.046 0.575925 -1.80221 0
M  V30 6759 O 648.389 1.40916 -1.17849 0
M  V30 6760 C 648.451 -1.25529 -3.36872 0
M  V30 6761 C 648.115 -2.71704 -3.67459 0
M  V30 6762 C 649.112 -3.69931 -3.65304 0
M  V30 6763 C 646.797 -3.08243 -3.966 0
M  V30 6764 C 648.791 -5.02717 -3.9186 0
M  V30 6765 C 646.478 -4.41215 -4.22815 0
M  V30 6766 C 647.476 -5.38262 -4.20432 0
M  V30 6767 O 647.164 -6.68839 -4.45992 0
M  V30 6768 H 646.896 -0.314374 -0.598452 0
M  V30 6769 H 649.45 -1.48015 -1.42411 0
M  V30 6770 H 647.68 -0.595808 -3.82082 0
M  V30 6771 H 649.369 -0.999064 -3.93413 0
M  V30 6772 H 650.135 -3.43047 -3.42846 0
M  V30 6773 H 646.014 -2.33326 -3.97593 0
M  V30 6774 H 649.558 -5.78456 -3.89916 0
M  V30 6775 H 645.455 -4.67835 -4.44748 0
M  V30 6776 H 646.223 -6.74563 -4.63581 0
M  V30 6777 N 648.886 1.2938 -0.899927 0
M  V30 6778 C 650.135 1.9483 -0.521937 0
M  V30 6779 C 650.448 1.71725 0.936473 0
M  V30 6780 O 651.654 2.31282 1.42199 0
M  V30 6781 C 650.11 3.48911 -0.88255 0
M  V30 6782 C 649.718 3.80815 -2.35974 0
M  V30 6783 C 651.462 4.20595 -0.57448 0
M  V30 6784 C 649.369 5.28142 -2.66121 0
M  V30 6785 H 648.299 0.729285 -0.191468 0
M  V30 6786 H 650.95 1.47103 -1.09695 0
M  V30 6787 H 649.332 3.95293 -0.236459 0
M  V30 6788 H 650.506 3.45291 -3.05141 0
M  V30 6789 H 648.821 3.22271 -2.63686 0
M  V30 6790 H 651.418 5.29031 -0.776556 0
M  V30 6791 H 651.761 4.13442 0.487005 0
M  V30 6792 H 652.294 3.79945 -1.17842 0
M  V30 6793 H 649.033 5.4036 -3.71068 0
M  V30 6794 H 648.553 5.64913 -2.01578 0
M  V30 6795 H 650.232 5.95738 -2.52399 0
M  V30 6796 N 650.364 0.662433 1.43002 0
M  V30 6797 C 651.297 -0.073459 2.28082 0
M  V30 6798 C 652.275 -0.820869 1.40358 0
M  V30 6799 O 653.459 -0.818545 1.698 0
M  V30 6800 C 650.586 -1.11097 3.19961 0
M  V30 6801 C 649.632 -0.460557 4.24006 0
M  V30 6802 S 650.465 0.772717 5.29896 0
M  V30 6803 C 651.621 -0.264028 6.25343 0
M  V30 6804 H 651.854 0.648227 2.90147 0
M  V30 6805 H 649.387 0.451566 1.47649 0
M  V30 6806 H 651.345 -1.70452 3.73439 0
M  V30 6807 H 650.006 -1.80503 2.57056 0
M  V30 6808 H 649.199 -1.24299 4.88432 0
M  V30 6809 H 648.801 0.0591038 3.73953 0
M  V30 6810 H 651.093 -1.12748 6.68052 0
M  V30 6811 H 652.036 0.345443 7.07257 0
M  V30 6812 H 652.444 -0.603964 5.6126 0
M  V30 6813 N 651.842 -1.52309 0.404946 0
M  V30 6814 C 652.789 -2.26898 -0.422597 0
M  V30 6815 C 653.759 -1.2914 -1.04461 0
M  V30 6816 O 654.944 -1.57996 -1.06967 0
M  V30 6817 C 652.084 -3.09053 -1.53559 0
M  V30 6818 C 651.197 -4.21762 -0.934908 0
M  V30 6819 C 650.332 -4.91283 -2.02025 0
M  V30 6820 C 649.371 -5.95962 -1.39628 0
M  V30 6821 N 648.508 -6.59017 -2.42159 0
M  V30 6822 H 653.348 -2.97188 0.219903 0
M  V30 6823 H 650.885 -1.46607 0.120282 0
M  V30 6824 H 652.843 -3.54987 -2.19181 0
M  V30 6825 H 651.473 -2.40942 -2.14818 0
M  V30 6826 H 650.525 -3.80029 -0.167854 0
M  V30 6827 H 651.837 -4.96864 -0.439073 0
M  V30 6828 H 650.991 -5.40601 -2.75383 0
M  V30 6829 H 649.73 -4.15741 -2.54973 0
M  V30 6830 H 648.735 -5.45968 -0.648023 0
M  V30 6831 H 649.96 -6.73445 -0.874553 0
M  V30 6832 H 647.906 -5.86306 -2.94247 0
M  V30 6833 H 647.823 -7.2978 -1.97376 0
M  V30 6834 H 649.091 -7.12974 -3.15099 0
M  V30 6835 N 653.32 -0.135238 -1.57019 0
M  V30 6836 C 654.548 0.526066 -2.001 0
M  V30 6837 C 654.963 1.59184 -1.01519 0
M  V30 6838 O 654.32 1.82497 -0.0104258 0
M  V30 6839 C 654.371 1.13744 -3.43139 0
M  V30 6840 O 654.092 0.114259 -4.37951 0
M  V30 6841 C 655.593 1.8805 -4.01438 0
M  V30 6842 H 652.813 0.137962 -0.656664 0
M  V30 6843 H 655.357 -0.226359 -2.03243 0
M  V30 6844 H 653.512 1.84056 -3.40885 0
M  V30 6845 H 653.926 0.56058 -5.21496 0
M  V30 6846 H 655.4 2.26133 -5.03555 0
M  V30 6847 H 655.877 2.76194 -3.41487 0
M  V30 6848 H 656.483 1.22464 -4.07287 0
M  V30 6849 N 654.798 1.5699 0.138552 0
M  V30 6850 C 656.075 1.74741 0.87891 0
M  V30 6851 C 656.455 0.705522 1.98961 0
M  V30 6852 O 655.803 -0.274066 2.2685 0
M  V30 6853 C 656.013 3.1909 1.4136 0
M  V30 6854 C 657.361 3.81023 1.87368 0
M  V30 6855 O 658.385 3.22571 1.51084 0
M  V30 6856 O 657.244 4.83722 2.54312 0
M  V30 6857 H 654.338 0.714781 0.415953 0
M  V30 6858 H 656.884 1.69248 0.123817 0
M  V30 6859 H 655.656 3.86424 0.61579 0
M  V30 6860 H 655.279 3.29043 2.23196 0
M  V30 6861 N 656.276 -0.40816 1.52223 0
M  V30 6862 C 657.226 -1.49648 1.72016 0
M  V30 6863 C 658.21 -1.50311 0.574069 0
M  V30 6864 O 659.402 -1.56271 0.831173 0
M  V30 6865 C 656.531 -2.87566 1.87512 0
M  V30 6866 C 655.617 -2.91547 3.07995 0
M  V30 6867 N 656.008 -2.65225 4.30685 0
M  V30 6868 C 654.306 -3.22715 3.07849 0
M  V30 6869 C 655.007 -2.75799 5.12162 0
M  V30 6870 N 653.983 -3.08719 4.4743 0
M  V30 6871 H 657.785 -1.28093 2.64517 0
M  V30 6872 H 655.299 -0.61588 1.50269 0
M  V30 6873 H 657.296 -3.65899 1.99809 0
M  V30 6874 H 655.956 -3.10118 0.962114 0
M  V30 6875 H 656.967 -2.39601 4.59142 0
M  V30 6876 H 653.644 -3.50856 2.26289 0
M  V30 6877 H 655.034 -2.59155 6.1991 0
M  V30 6878 N 657.755 -1.42862 -0.66545 0
M  V30 6879 C 659.003 -1.43546 -1.42264 0
M  V30 6880 C 659.324 -0.0563116 -1.94919 0
M  V30 6881 O 658.594 0.906568 -1.73661 0
M  V30 6882 H 657.174 -0.528464 -0.527953 0
M  V30 6883 H 659.836 -1.78363 -0.785665 0
M  V30 6884 H 658.932 -2.14079 -2.27105 0
M  V30 6885 N 659.233 0.902656 -1.29189 0
M  V30 6886 C 660.163 2.02294 -1.16616 0
M  V30 6887 C 661.144 1.6999 -0.0611175 0
M  V30 6888 O 662.329 1.9271 -0.240072 0
M  V30 6889 C 659.459 3.37018 -0.83882 0
M  V30 6890 C 658.413 3.83522 -1.89986 0
M  V30 6891 C 657.739 5.15337 -1.42589 0
M  V30 6892 C 659.039 4.04169 -3.30824 0
M  V30 6893 H 660.733 2.13071 -2.10336 0
M  V30 6894 H 658.279 1.02378 -1.01266 0
M  V30 6895 H 660.232 4.14895 -0.737584 0
M  V30 6896 H 658.956 3.26325 0.134071 0
M  V30 6897 H 657.615 3.07859 -1.99043 0
M  V30 6898 H 657.263 5.01056 -0.441759 0
M  V30 6899 H 656.963 5.47423 -2.13547 0
M  V30 6900 H 658.487 5.95758 -1.3381 0
M  V30 6901 H 659.901 4.72537 -3.24626 0
M  V30 6902 H 658.298 4.47604 -3.99713 0
M  V30 6903 H 659.368 3.08604 -3.74021 0
M  V30 6904 N 660.711 1.11618 1.11262 0
M  V30 6905 C 661.936 0.889013 1.8738 0
M  V30 6906 C 662.361 -0.555884 1.79698 0
M  V30 6907 O 661.719 -1.39272 1.16073 0
M  V30 6908 C 661.767 1.35759 3.34069 0
M  V30 6909 O 660.871 0.530499 4.08974 0
M  V30 6910 H 660.212 0.320082 0.581759 0
M  V30 6911 H 662.742 1.48611 1.40627 0
M  V30 6912 H 662.752 1.35291 3.84916 0
M  V30 6913 H 661.427 2.40973 3.38976 0
M  V30 6914 H 660.004 0.601439 3.68018 0
M  V30 6915 N 662.189 -1.289 0.906776 0
M  V30 6916 C 663.119 -2.29932 0.406659 0
M  V30 6917 C 664.1 -1.6189 -0.522061 0
M  V30 6918 O 665.285 -1.8935 -0.431283 0
M  V30 6919 C 662.415 -3.45425 -0.360366 0
M  V30 6920 C 661.369 -4.25316 0.478574 0
M  V30 6921 C 660.695 -5.33076 -0.416373 0
M  V30 6922 C 661.995 -4.92739 1.7322 0
M  V30 6923 H 663.689 -2.72013 1.25097 0
M  V30 6924 H 661.235 -1.30768 0.602977 0
M  V30 6925 H 663.188 -4.15186 -0.721029 0
M  V30 6926 H 661.912 -3.02206 -1.23852 0
M  V30 6927 H 660.571 -3.57273 0.821662 0
M  V30 6928 H 660.219 -4.86101 -1.29287 0
M  V30 6929 H 659.919 -5.8743 0.141309 0
M  V30 6930 H 661.443 -6.05686 -0.773072 0
M  V30 6931 H 662.857 -5.54898 1.44086 0
M  V30 6932 H 661.254 -5.57057 2.23175 0
M  V30 6933 H 662.324 -4.17625 2.46408 0
M  V30 6934 N 663.667 -0.670007 -1.42649 0
M  V30 6935 C 665.078 -0.268118 -1.84765 0
M  V30 6936 C 665.429 1.18877 -1.56086 0
M  V30 6937 O 664.554 1.90947 -1.01825 0
M  V30 6938 C 665.149 -0.47984 -3.35385 0
M  V30 6939 C 663.708 -0.132116 -3.76168 0
M  V30 6940 C 662.855 -0.774611 -2.66261 0
M  V30 6941 H 665.806 -0.872509 -1.32563 0
M  V30 6942 H 665.827 0.269522 -3.79544 0
M  V30 6943 H 665.339 -1.54026 -3.56227 0
M  V30 6944 H 663.44 0.92505 -3.60934 0
M  V30 6945 H 663.553 -0.569294 -4.75706 0
M  V30 6946 H 661.917 -0.206353 -2.53863 0
M  V30 6947 H 662.7 -1.83839 -2.89928 0
M  V30 6948 N 665.145 1.52092 -0.413018 0
M  V30 6949 C 666.561 1.59471 -0.0640836 0
M  V30 6950 C 666.761 1.42562 1.42402 0
M  V30 6951 O 665.817 1.25453 2.19129 0
M  V30 6952 C 667.13 2.95392 -0.562474 0
M  V30 6953 C 668.678 3.08637 -0.520788 0
M  V30 6954 C 669.153 4.47044 -0.995752 0
M  V30 6955 N 670.644 4.53296 -0.952732 0
M  V30 6956 C 671.379 5.58669 -1.29138 0
M  V30 6957 N 670.875 6.71576 -1.70168 0
M  V30 6958 N 672.668 5.48898 -1.2111 0
M  V30 6959 H 664.819 1.6133 -1.38153 0
M  V30 6960 H 667.082 0.75916 -0.567785 0
M  V30 6961 H 666.788 3.13059 -1.60271 0
M  V30 6962 H 666.662 3.77191 0.0257875 0
M  V30 6963 H 669.049 2.90652 0.510412 0
M  V30 6964 H 669.13 2.28735 -1.14515 0
M  V30 6965 H 668.774 4.65773 -2.0253 0
M  V30 6966 H 668.704 5.25448 -0.348162 0
M  V30 6967 H 671.195 3.72248 -0.651119 0
M  V30 6968 H 671.508 7.47973 -1.9431 0
M  V30 6969 H 669.853 6.72847 -1.74075 0
M  V30 6970 H 673.044 4.59573 -0.889396 0
M  V30 6971 H 673.217 6.30912 -1.47833 0
M  V30 6972 N 666.623 0.143563 1.56945 0
M  V30 6973 C 668.039 -0.212877 1.58174 0
M  V30 6974 C 668.239 -1.64926 1.15766 0
M  V30 6975 O 667.295 -2.37535 0.856361 0
M  V30 6976 C 668.608 0.0427573 3.0067 0
M  V30 6977 C 670.156 -0.0212221 3.12993 0
M  V30 6978 C 670.631 0.207036 4.57532 0
M  V30 6979 N 672.122 0.153845 4.62944 0
M  V30 6980 C 672.857 0.305018 5.72588 0
M  V30 6981 N 672.353 0.513722 6.90893 0
M  V30 6982 N 674.146 0.242862 5.61575 0
M  V30 6983 H 666.297 1.08148 1.82805 0
M  V30 6984 H 668.56 0.427831 0.84597 0
M  V30 6985 H 668.266 1.03672 3.36073 0
M  V30 6986 H 668.14 -0.678195 3.71053 0
M  V30 6987 H 670.527 -1.00574 2.77433 0
M  V30 6988 H 670.608 0.732004 2.45103 0
M  V30 6989 H 670.252 1.18863 4.93795 0
M  V30 6990 H 670.182 -0.566473 5.23544 0
M  V30 6991 H 672.673 -0.00294866 3.779 0
M  V30 6992 H 672.986 0.619273 7.70315 0
M  V30 6993 H 671.331 0.550001 6.9282 0
M  V30 6994 H 674.522 0.0806015 4.68031 0
M  V30 6995 H 674.695 0.364112 6.46976 0
M  V30 6996 N 668.101 -1.57061 -0.130224 0
M  V30 6997 C 669.031 -2.02552 -1.16168 0
M  V30 6998 C 670.012 -0.907971 -1.4384 0
M  V30 6999 O 671.197 -1.17693 -1.54473 0
M  V30 7000 C 668.327 -2.42035 -2.49071 0
M  V30 7001 C 667.281 -3.5713 -2.35886 0
M  V30 7002 C 666.607 -3.82478 -3.7365 0
M  V30 7003 C 667.907 -4.89236 -1.8288 0
M  V30 7004 H 669.601 -2.8897 -0.783359 0
M  V30 7005 H 667.147 -1.39021 -0.375376 0
M  V30 7006 H 669.1 -2.72462 -3.21469 0
M  V30 7007 H 667.824 -1.52573 -2.88771 0
M  V30 7008 H 666.483 -3.26895 -1.65938 0
M  V30 7009 H 666.131 -2.9024 -4.10816 0
M  V30 7010 H 665.831 -4.59944 -3.65685 0
M  V30 7011 H 667.355 -4.15347 -4.47571 0
M  V30 7012 H 668.769 -5.18272 -2.45085 0
M  V30 7013 H 667.166 -5.70624 -1.85763 0
M  V30 7014 H 668.236 -4.78494 -0.785571 0
M  V30 7015 N 669.579 0.400081 -1.52437 0
M  V30 7016 C 670.511 1.50729 -1.72666 0
M  V30 7017 C 671.524 1.51058 -0.607075 0
M  V30 7018 O 672.713 1.5516 -0.88248 0
M  V30 7019 C 669.813 2.89604 -1.76019 0
M  V30 7020 C 668.986 3.13365 -3.05157 0
M  V30 7021 C 668.045 4.32163 -3.00203 0
M  V30 7022 O 667.071 4.29004 -3.74092 0
M  V30 7023 N 668.273 5.3776 -2.18619 0
M  V30 7024 H 671.038 1.33767 -2.68191 0
M  V30 7025 H 668.599 0.58948 -1.50787 0
M  V30 7026 H 670.591 3.67159 -1.70225 0
M  V30 7027 H 669.161 2.99979 -0.879284 0
M  V30 7028 H 668.381 2.23774 -3.24529 0
M  V30 7029 H 669.669 3.26089 -3.90568 0
M  V30 7030 H 669.067 5.43177 -1.58035 0
M  V30 7031 H 667.624 6.14023 -2.18674 0
M  V30 7032 N 671.057 1.43213 0.657864 0
M  V30 7033 C 672.306 1.43871 1.41365 0
M  V30 7034 C 672.619 0.064898 1.95492 0
M  V30 7035 O 673.825 -0.0510796 2.71452 0
M  V30 7036 C 672.281 2.53158 2.55811 0
M  V30 7037 C 671.889 3.96624 2.08311 0
M  V30 7038 C 673.633 2.63004 3.3321 0
M  V30 7039 C 671.54 4.97385 3.1994 0
M  V30 7040 H 670.47 0.535174 0.531136 0
M  V30 7041 H 673.121 1.69185 0.710543 0
M  V30 7042 H 671.503 2.21037 3.2857 0
M  V30 7043 H 672.677 4.38182 1.42593 0
M  V30 7044 H 670.992 3.90781 1.43804 0
M  V30 7045 H 673.589 3.3546 4.16378 0
M  V30 7046 H 673.932 1.67918 3.80932 0
M  V30 7047 H 674.465 2.94403 2.67529 0
M  V30 7048 H 671.204 5.94007 2.77192 0
M  V30 7049 H 670.724 4.60444 3.84385 0
M  V30 7050 H 672.403 5.19877 3.85145 0
M  V30 7051 N 672.536 -0.895792 1.29666 0
M  V30 7052 C 673.446 -2.03329 1.17024 0
M  V30 7053 C 674.462 -1.73753 0.0925962 0
M  V30 7054 O 675.638 -1.99071 0.305431 0
M  V30 7055 C 672.703 -3.36072 0.851841 0
M  V30 7056 C 671.764 -3.7914 2.01373 0
M  V30 7057 C 670.997 -5.05549 1.71043 0
M  V30 7058 O 671.22 -5.66874 0.633213 0
M  V30 7059 O 670.154 -5.44764 2.5596 0
M  V30 7060 H 673.98 -2.16918 2.12556 0
M  V30 7061 H 671.565 -1.02007 1.09156 0
M  V30 7062 H 673.447 -4.15729 0.689006 0
M  V30 7063 H 672.122 -3.23616 -0.0736634 0
M  V30 7064 H 671.029 -3.00233 2.23183 0
M  V30 7065 H 672.362 -3.96186 2.92058 0
M  V30 7066 N 674.014 -1.12206 -1.10668 0
M  V30 7067 C 675.261 -0.875875 -1.82578 0
M  V30 7068 C 675.589 0.598342 -1.85068 0
M  V30 7069 O 674.844 1.45818 -1.3052 0
M  V30 7070 C 675.143 -1.39276 -3.29146 0
M  V30 7071 C 674.809 -2.8816 -3.46806 0
M  V30 7072 C 673.471 -3.28813 -3.51334 0
M  V30 7073 C 675.823 -3.8401 -3.52399 0
M  V30 7074 C 673.151 -4.64028 -3.59019 0
M  V30 7075 C 675.503 -5.19053 -3.61617 0
M  V30 7076 C 674.167 -5.59252 -3.64408 0
M  V30 7077 H 673.437 -0.320505 -0.6681 0
M  V30 7078 H 676.084 -1.40184 -1.30464 0
M  V30 7079 H 674.389 -0.787207 -3.8381 0
M  V30 7080 H 676.086 -1.17851 -3.83291 0
M  V30 7081 H 672.676 -2.55716 -3.43958 0
M  V30 7082 H 676.86 -3.53698 -3.48154 0
M  V30 7083 H 672.116 -4.94568 -3.59461 0
M  V30 7084 H 676.29 -5.93152 -3.64889 0
M  V30 7085 H 673.917 -6.64017 -3.70116 0
M  V30 7086 N 675.492 1.28418 -0.913599 0
M  V30 7087 C 676.717 1.99643 -0.561899 0
M  V30 7088 C 677.142 1.67819 0.849608 0
M  V30 7089 O 676.5 0.910503 1.56779 0
M  V30 7090 C 676.548 3.52116 -0.777622 0
M  V30 7091 O 675.652 4.12076 0.163457 0
M  V30 7092 H 674.993 0.627229 -0.217898 0
M  V30 7093 H 677.523 1.63575 -1.229 0
M  V30 7094 H 677.533 4.02163 -0.687666 0
M  V30 7095 H 676.208 3.74613 -1.8066 0
M  V30 7096 H 674.785 3.72892 0.0247827 0
M  V30 7097 N 676.97 0.677563 1.42291 0
M  V30 7098 C 677.902 -0.0380218 2.29168 0
M  V30 7099 C 678.915 -0.762714 1.43828 0
M  V30 7100 O 680.104 -0.616413 1.67519 0
M  V30 7101 C 677.204 -1.07761 3.21311 0
M  V30 7102 C 676.377 -0.42618 4.35319 0
M  V30 7103 C 675.436 -1.36592 5.08162 0
M  V30 7104 O 674.462 -0.865174 5.62586 0
M  V30 7105 N 675.664 -2.69909 5.13935 0
M  V30 7106 H 678.429 0.707766 2.91223 0
M  V30 7107 H 675.99 0.52219 1.53247 0
M  V30 7108 H 677.982 -1.70761 3.6691 0
M  V30 7109 H 676.552 -1.72511 2.60689 0
M  V30 7110 H 675.772 0.383385 3.92331 0
M  V30 7111 H 677.06 0.0275277 5.08793 0
M  V30 7112 H 676.458 -3.13129 4.71134 0
M  V30 7113 H 675.015 -3.2815 5.6317 0
M  V30 7114 N 678.448 -1.51871 0.421078 0
M  V30 7115 C 679.694 -2.02237 -0.151014 0
M  V30 7116 C 680.027 -1.30554 -1.43768 0
M  V30 7117 O 679.302 -0.41546 -1.90011 0
M  V30 7118 C 679.585 -3.5802 -0.386482 0
M  V30 7119 C 679.438 -4.40339 0.9177 0
M  V30 7120 C 680.757 -4.24444 -1.16342 0
M  V30 7121 H 677.876 -0.735062 -0.0534102 0
M  V30 7122 H 680.518 -1.81656 0.556888 0
M  V30 7123 H 678.668 -3.75688 -0.989494 0
M  V30 7124 H 680.34 -4.34357 1.55344 0
M  V30 7125 H 678.583 -4.06073 1.526 0
M  V30 7126 H 679.254 -5.47451 0.707187 0
M  V30 7127 H 681.73 -4.10948 -0.652788 0
M  V30 7128 H 680.606 -5.33358 -1.29693 0
M  V30 7129 H 680.867 -3.84204 -2.18724 0
M  V30 7130 N 679.926 -0.151884 -1.56866 0
M  V30 7131 C 681.175 0.497992 -1.95456 0
M  V30 7132 C 681.488 1.6569 -1.03953 0
M  V30 7133 O 682.694 2.37173 -1.32142 0
M  V30 7134 C 681.15 0.93732 -3.4748 0
M  V30 7135 C 680.758 -0.194921 -4.47576 0
M  V30 7136 C 682.502 1.55671 -3.94926 0
M  V30 7137 C 680.409 0.26295 -5.90815 0
M  V30 7138 H 679.339 0.189811 -0.729717 0
M  V30 7139 H 681.99 -0.237011 -1.81963 0
M  V30 7140 H 680.372 1.72773 -3.56322 0
M  V30 7141 H 681.546 -0.971951 -4.50433 0
M  V30 7142 H 679.861 -0.72303 -4.10075 0
M  V30 7143 H 682.458 1.91099 -4.99385 0
M  V30 7144 H 682.801 2.44748 -3.36755 0
M  V30 7145 H 683.334 0.831109 -3.89021 0
M  V30 7146 H 680.073 -0.592568 -6.52816 0
M  V30 7147 H 679.593 1.00575 -5.91308 0
M  V30 7148 H 681.272 0.713333 -6.43056 0
M  V30 7149 N 681.404 1.57128 0.121893 0
M  V30 7150 C 682.336 1.96773 1.17529 0
M  V30 7151 C 683.349 0.866668 1.37814 0
M  V30 7152 O 684.538 1.14497 1.3694 0
M  V30 7153 C 681.638 2.24832 2.53582 0
M  V30 7154 C 680.811 3.56138 2.53939 0
M  V30 7155 C 679.87 3.72443 3.71716 0
M  V30 7156 O 678.896 4.44584 3.55434 0
M  V30 7157 N 680.098 3.10993 4.90167 0
M  V30 7158 H 682.863 2.87743 0.838086 0
M  V30 7159 H 680.424 1.58881 0.311199 0
M  V30 7160 H 682.416 2.32958 3.30927 0
M  V30 7161 H 680.986 1.40002 2.79496 0
M  V30 7162 H 680.206 3.59226 1.62329 0
M  V30 7163 H 681.494 4.42448 2.51231 0
M  V30 7164 H 680.892 2.52345 5.06299 0
M  V30 7165 H 679.449 3.24644 5.65198 0
M  V30 7166 N 682.882 -0.391992 1.52647 0
M  V30 7167 C 683.829 -1.47866 1.77213 0
M  V30 7168 C 684.799 -1.54286 0.615223 0
M  V30 7169 O 685.984 -1.7059 0.854622 0
M  V30 7170 C 683.124 -2.85129 1.94411 0
M  V30 7171 C 682.237 -2.87883 3.22098 0
M  V30 7172 C 681.372 -4.16553 3.29631 0
M  V30 7173 C 680.411 -4.13348 4.51453 0
M  V30 7174 N 679.548 -5.33619 4.56284 0
M  V30 7175 H 684.388 -1.26219 2.6995 0
M  V30 7176 H 681.925 -0.612367 1.33748 0
M  V30 7177 H 683.883 -3.64833 2.02367 0
M  V30 7178 H 682.513 -3.05232 1.05038 0
M  V30 7179 H 681.565 -2.00567 3.23229 0
M  V30 7180 H 682.877 -2.81382 4.11856 0
M  V30 7181 H 682.031 -5.0466 3.36753 0
M  V30 7182 H 680.77 -4.25773 2.37842 0
M  V30 7183 H 679.775 -3.23629 4.44459 0
M  V30 7184 H 681 -4.05754 5.44555 0
M  V30 7185 H 678.946 -5.43474 3.67385 0
M  V30 7186 H 678.863 -5.29182 5.3991 0
M  V30 7187 H 680.131 -6.23632 4.67657 0
M  V30 7188 N 684.36 -1.4356 -0.65026 0
M  V30 7189 C 685.609 -1.44619 -1.406 0
M  V30 7190 C 685.922 -0.0752645 -1.95455 0
M  V30 7191 O 687.128 0.0366832 -2.71475 0
M  V30 7192 C 685.584 -2.54511 -2.54465 0
M  V30 7193 C 685.192 -3.97723 -2.06204 0
M  V30 7194 C 686.936 -2.64768 -3.31811 0
M  V30 7195 C 684.843 -4.99075 -3.17298 0
M  V30 7196 H 683.773 -0.537983 -0.52829 0
M  V30 7197 H 686.424 -1.69559 -0.701561 0
M  V30 7198 H 684.806 -2.22777 -3.27393 0
M  V30 7199 H 685.98 -4.38932 -1.40267 0
M  V30 7200 H 684.295 -3.91538 -1.41729 0
M  V30 7201 H 686.892 -3.37664 -4.14593 0
M  V30 7202 H 687.235 -1.69936 -3.80036 0
M  V30 7203 H 687.768 -2.95817 -2.65964 0
M  V30 7204 H 684.507 -5.95469 -2.74038 0
M  V30 7205 H 684.027 -4.62476 -3.81937 0
M  V30 7206 H 685.706 -5.21913 -3.82382 0
M  V30 7207 N 685.838 0.888903 -1.30139 0
M  V30 7208 C 686.801 1.97576 -1.16174 0
M  V30 7209 C 687.801 1.60525 -0.094086 0
M  V30 7210 O 688.991 1.70812 -0.341889 0
M  V30 7211 C 686.123 3.3188 -0.778983 0
M  V30 7212 H 687.316 2.11393 -2.12728 0
M  V30 7213 H 684.869 1.0748 -1.1348 0
M  V30 7214 H 685.604 3.23765 0.186225 0
M  V30 7215 H 685.389 3.60141 -1.55051 0
M  V30 7216 H 686.879 4.11612 -0.704631 0
M  V30 7217 N 687.317 1.12792 1.10072 0
M  V30 7218 C 688.227 0.812369 2.20086 0
M  V30 7219 C 689.243 -0.200349 1.72843 0
M  V30 7220 O 690.419 -0.0330262 2.01373 0
M  V30 7221 C 687.484 0.275685 3.45602 0
M  V30 7222 C 686.545 1.34881 4.07561 0
M  V30 7223 C 685.778 0.837639 5.27086 0
M  V30 7224 O 686.001 -0.327224 5.69461 0
M  V30 7225 O 684.935 1.60894 5.79997 0
M  V30 7226 H 688.761 1.73133 2.49517 0
M  V30 7227 H 686.346 0.904863 1.18881 0
M  V30 7228 H 688.228 -0.0185375 4.21396 0
M  V30 7229 H 686.903 -0.615783 3.17789 0
M  V30 7230 H 685.81 1.69625 3.33434 0
M  V30 7231 H 687.143 2.21418 4.39585 0
M  V30 7232 N 688.795 -1.27931 0.920396 0
M  V30 7233 C 690.043 -1.94304 0.555906 0
M  V30 7234 C 690.364 -1.72753 -0.904519 0
M  V30 7235 O 689.634 -1.07104 -1.64029 0
M  V30 7236 H 688.214 -0.719001 0.202599 0
M  V30 7237 H 690.876 -1.55785 1.1712 0
M  V30 7238 H 689.972 -3.02806 0.755981 0
M  V30 7239 N 690.273 -0.685099 -1.4193 0
M  V30 7240 C 691.501 -0.220372 -2.05723 0
M  V30 7241 C 691.916 1.12642 -1.51516 0
M  V30 7242 O 691.273 1.70182 -0.659114 0
M  V30 7243 C 691.324 -0.157974 -3.61155 0
M  V30 7244 O 691.045 -1.45156 -4.13354 0
M  V30 7245 C 692.546 0.329009 -4.42077 0
M  V30 7246 H 689.766 -0.104725 -0.662777 0
M  V30 7247 H 692.31 -0.934736 -1.81887 0
M  V30 7248 H 690.465 0.507144 -3.84066 0
M  V30 7249 H 690.879 -1.33172 -5.07312 0
M  V30 7250 H 692.353 0.321559 -5.51063 0
M  V30 7251 H 692.83 1.36608 -4.17414 0
M  V30 7252 H 693.436 -0.304737 -4.24207 0
M  V30 7253 N 691.751 1.51645 -0.429126 0
M  V30 7254 C 692.714 2.26116 0.374726 0
M  V30 7255 C 693.714 1.29242 0.956714 0
M  V30 7256 O 694.904 1.53022 0.832452 0
M  V30 7257 C 692.036 3.04669 1.52937 0
M  V30 7258 H 693.229 2.9861 -0.277818 0
M  V30 7259 H 690.782 1.55236 -0.182097 0
M  V30 7260 H 691.517 2.36571 2.21821 0
M  V30 7261 H 691.302 3.75814 1.11833 0
M  V30 7262 H 692.792 3.61102 2.09751 0
M  V30 7263 N 693.229 0.160201 1.56784 0
M  V30 7264 C 694.477 -0.486625 1.96154 0
M  V30 7265 C 694.798 -1.64525 1.04673 0
M  V30 7266 O 694.068 -1.95586 0.110864 0
M  V30 7267 H 692.648 -0.182764 0.724297 0
M  V30 7268 H 695.31 0.238787 1.93432 0
M  V30 7269 H 694.406 -0.854025 3.00188 0
M  V30 7270 N 694.707 -1.5719 -0.113559 0
M  V30 7271 C 695.617 -2.04041 -1.15777 0
M  V30 7272 C 696.633 -0.961812 -1.45001 0
M  V30 7273 O 697.809 -1.2737 -1.56009 0
M  V30 7274 C 694.874 -2.43994 -2.46308 0
M  V30 7275 C 693.935 -3.65962 -2.24433 0
M  V30 7276 C 693.168 -4.04 -3.4874 0
M  V30 7277 O 693.391 -3.42321 -4.56259 0
M  V30 7278 O 692.325 -4.97069 -3.3942 0
M  V30 7279 H 696.151 -2.93248 -0.789899 0
M  V30 7280 H 693.736 -1.45828 -0.324748 0
M  V30 7281 H 695.618 -2.70401 -3.23204 0
M  V30 7282 H 694.293 -1.57932 -2.82558 0
M  V30 7283 H 693.2 -3.44697 -1.45377 0
M  V30 7284 H 694.533 -4.52746 -1.93084 0
M  V30 7285 N 696.185 0.383891 -1.52853 0
M  V30 7286 C 697.433 1.12619 -1.67814 0
M  V30 7287 C 697.754 1.90354 -0.423141 0
M  V30 7288 O 697.024 1.87649 0.562554 0
M  V30 7289 H 695.604 0.418738 -0.618601 0
M  V30 7290 H 698.266 0.43495 -1.89985 0
M  V30 7291 H 697.362 1.82624 -2.5309 0
M  V30 7292 N 697.663 1.43903 0.642637 0
M  V30 7293 C 698.911 1.45791 1.39962 0
M  V30 7294 C 699.232 0.0873144 1.94804 0
M  V30 7295 O 698.502 -0.878825 1.75081 0
M  V30 7296 H 697.082 0.536797 0.519479 0
M  V30 7297 H 699.744 1.7959 0.757189 0
M  V30 7298 H 698.84 2.17665 2.2367 0
M  V30 7299 N 699.141 -0.881989 1.30609 0
M  V30 7300 C 700.051 -2.02076 1.19174 0
M  V30 7301 C 701.067 -1.73645 0.11102 0
M  V30 7302 O 702.243 -1.98735 0.326528 0
M  V30 7303 C 699.308 -3.3515 0.887438 0
M  V30 7304 C 698.369 -3.76983 2.05383 0
M  V30 7305 C 697.602 -5.03707 1.76395 0
M  V30 7306 O 697.825 -5.66171 0.693302 0
M  V30 7307 O 696.759 -5.42019 2.61723 0
M  V30 7308 H 700.585 -2.14652 2.14845 0
M  V30 7309 H 698.17 -1.00843 1.10232 0
M  V30 7310 H 700.052 -4.14975 0.73306 0
M  V30 7311 H 698.727 -3.23676 -0.0393354 0
M  V30 7312 H 697.634 -2.97849 2.26355 0
M  V30 7313 H 698.967 -3.93066 2.96243 0
M  V30 7314 N 700.619 -1.13374 -1.09472 0
M  V30 7315 C 701.865 -0.896516 -1.81908 0
M  V30 7316 C 702.198 0.575933 -1.85463 0
M  V30 7317 O 701.473 1.42618 -1.32251 0
M  V30 7318 C 701.756 -1.48445 -3.28079 0
M  V30 7319 C 701.609 -3.02598 -3.32798 0
M  V30 7320 C 702.928 -1.15226 -4.24748 0
M  V30 7321 H 700.047 -0.327127 -0.660422 0
M  V30 7322 H 702.689 -1.40195 -1.2824 0
M  V30 7323 H 700.839 -1.0546 -3.73912 0
M  V30 7324 H 702.511 -3.54335 -2.95372 0
M  V30 7325 H 700.754 -3.37613 -2.72397 0
M  V30 7326 H 701.425 -3.38835 -4.3577 0
M  V30 7327 H 703.901 -1.52369 -3.87199 0
M  V30 7328 H 702.777 -1.59012 -5.25363 0
M  V30 7329 H 703.038 -0.0658891 -4.42051 0
M  V30 7330 N 702.098 1.27442 -0.927168 0
M  V30 7331 C 703.323 1.99036 -0.583042 0
M  V30 7332 C 703.748 1.68711 0.83176 0
M  V30 7333 O 703.106 0.927081 1.55804 0
M  V30 7334 C 703.154 3.51271 -0.814925 0
M  V30 7335 O 702.258 4.12226 0.119742 0
M  V30 7336 H 701.599 0.624883 -0.224538 0
M  V30 7337 H 704.129 1.62263 -1.24628 0
M  V30 7338 H 704.139 4.01411 -0.730282 0
M  V30 7339 H 702.814 3.72676 -1.84623 0
M  V30 7340 H 701.391 3.72897 -0.0147688 0
M  V30 7341 N 703.576 0.692616 1.41565 0
M  V30 7342 C 704.987 0.297478 1.84315 0
M  V30 7343 C 705.338 -1.16379 1.57957 0
M  V30 7344 O 704.463 -1.89303 1.0485 0
M  V30 7345 C 705.058 0.533136 3.34579 0
M  V30 7346 C 703.617 0.191944 3.7591 0
M  V30 7347 C 702.764 0.816873 2.64995 0
M  V30 7348 H 705.715 0.893488 1.31158 0
M  V30 7349 H 705.736 -0.209105 3.79925 0
M  V30 7350 H 705.248 1.59674 3.53731 0
M  V30 7351 H 703.349 -0.867512 3.6236 0
M  V30 7352 H 703.462 0.644902 4.7474 0
M  V30 7353 H 701.826 0.246715 2.53502 0
M  V30 7354 H 702.609 1.88429 2.86966 0
M  V30 7355 N 705.054 -1.51416 0.437162 0
M  V30 7356 C 706.001 -2.27743 -0.374374 0
M  V30 7357 C 706.971 -1.31327 -1.01698 0
M  V30 7358 O 708.156 -1.60229 -1.03592 0
M  V30 7359 C 705.296 -3.12241 -1.46969 0
M  V30 7360 C 704.409 -4.23651 -0.845236 0
M  V30 7361 C 703.544 -4.95458 -1.91559 0
M  V30 7362 C 702.583 -5.98789 -1.26956 0
M  V30 7363 N 701.72 -6.64005 -2.28126 0
M  V30 7364 H 706.56 -2.96654 0.282892 0
M  V30 7365 H 704.097 -1.46319 0.151352 0
M  V30 7366 H 706.055 -3.59556 -2.11602 0
M  V30 7367 H 704.685 -2.45445 -2.09659 0
M  V30 7368 H 703.737 -3.803 -0.0872059 0
M  V30 7369 H 705.049 -4.97683 -0.333582 0
M  V30 7370 H 704.203 -5.46321 -2.63854 0
M  V30 7371 H 702.942 -4.21055 -2.46097 0
M  V30 7372 H 701.947 -5.47219 -0.53207 0
M  V30 7373 H 703.172 -6.75149 -0.731509 0
M  V30 7374 H 701.118 -5.92415 -2.81745 0
M  V30 7375 H 701.035 -7.33802 -1.81852 0
M  V30 7376 H 702.303 -7.19498 -2.99905 0
M  V30 7377 N 706.532 -0.168513 -1.56696 0
M  V30 7378 C 707.442 0.775435 -2.21414 0
M  V30 7379 C 708.458 1.25529 -1.20492 0
M  V30 7380 O 709.634 1.30801 -1.53144 0
M  V30 7381 C 706.699 1.9886 -2.83999 0
M  V30 7382 C 705.76 1.5559 -4.00113 0
M  V30 7383 C 704.993 2.71124 -4.59704 0
M  V30 7384 O 705.216 3.87917 -4.18182 0
M  V30 7385 O 704.15 2.4536 -5.4962 0
M  V30 7386 H 707.976 0.254416 -3.02632 0
M  V30 7387 H 705.561 0.0595507 -1.49281 0
M  V30 7388 H 707.443 2.69816 -3.23693 0
M  V30 7389 H 706.118 2.49874 -2.05779 0
M  V30 7390 H 705.025 0.815924 -3.65094 0
M  V30 7391 H 706.358 1.09271 -4.79917 0
M  V30 7392 N 708.01 1.57248 0.105221 0
M  V30 7393 C 708.943 1.96567 1.15916 0
M  V30 7394 C 709.921 0.837355 1.39381 0
M  V30 7395 O 711.105 1.09676 1.53308 0
M  V30 7396 C 708.232 2.27375 2.51035 0
M  V30 7397 C 707.278 3.49869 2.43913 0
M  V30 7398 S 708.111 5.01958 1.86543 0
M  V30 7399 C 709.267 5.35932 3.23307 0
M  V30 7400 H 709.5 2.85655 0.823931 0
M  V30 7401 H 707.033 1.51204 0.312515 0
M  V30 7402 H 708.991 2.45801 3.28774 0
M  V30 7403 H 707.652 1.38876 2.81731 0
M  V30 7404 H 706.845 3.68835 3.43477 0
M  V30 7405 H 706.447 3.30901 1.743 0
M  V30 7406 H 708.739 5.31958 4.19556 0
M  V30 7407 H 709.682 6.37047 3.09155 0
M  V30 7408 H 710.09 4.63397 3.22372 0
M  V30 7409 N 709.488 -0.375779 1.53054 0
M  V30 7410 C 710.734 -1.11767 1.6994 0
M  V30 7411 C 711.089 -1.87288 0.440574 0
M  V30 7412 O 710.382 -1.83045 -0.566146 0
M  V30 7413 C 710.576 -2.11356 2.88207 0
M  V30 7414 C 710.405 -1.45619 4.25471 0
M  V30 7415 C 709.175 -1.21464 4.90484 0
M  V30 7416 C 711.373 -0.899276 5.06377 0
M  V30 7417 N 709.355 -0.519705 6.11696 0
M  V30 7418 C 710.726 -0.333138 6.19104 0
M  V30 7419 C 712.781 -0.79697 4.9148 0
M  V30 7420 C 711.484 0.325316 7.18564 0
M  V30 7421 C 713.51 -0.152315 5.91204 0
M  V30 7422 C 712.872 0.402994 7.03246 0
M  V30 7423 H 708.971 -0.394489 0.675206 0
M  V30 7424 H 711.555 -0.40541 1.90432 0
M  V30 7425 H 709.726 -2.79905 2.69272 0
M  V30 7426 H 711.458 -2.78148 2.93966 0
M  V30 7427 H 708.213 -1.49319 4.49445 0
M  V30 7428 H 708.637 -0.187896 6.76739 0
M  V30 7429 H 713.279 -1.21208 4.05054 0
M  V30 7430 H 710.997 0.752399 8.0459 0
M  V30 7431 H 714.583 -0.074223 5.81753 0
M  V30 7432 H 713.463 0.89394 7.79088 0
M  V30 7433 N 710.966 -1.44241 -0.634997 0
M  V30 7434 C 712.243 -1.37296 -1.39317 0
M  V30 7435 C 712.623 -0.0297532 -2.11079 0
M  V30 7436 O 711.971 0.987524 -2.06059 0
M  V30 7437 C 712.181 -2.56853 -2.36279 0
M  V30 7438 C 713.529 -3.00747 -2.99728 0
M  V30 7439 O 714.553 -2.5703 -2.46605 0
M  V30 7440 O 713.412 -3.76533 -3.96087 0
M  V30 7441 H 710.506 -0.543503 -0.623325 0
M  V30 7442 H 713.052 -1.56324 -0.660376 0
M  V30 7443 H 711.824 -3.46228 -1.82324 0
M  V30 7444 H 711.447 -2.40019 -3.16981 0
M  V30 7445 N 712.444 0.87505 -1.31075 0
M  V30 7446 C 713.407 1.96333 -1.18263 0
M  V30 7447 C 714.407 1.60416 -0.111106 0
M  V30 7448 O 715.597 1.7044 -0.359987 0
M  V30 7449 C 712.729 3.31036 -0.81414 0
M  V30 7450 H 713.922 2.09125 -2.14958 0
M  V30 7451 H 711.475 1.06271 -1.14614 0
M  V30 7452 H 712.21 3.23944 0.151875 0
M  V30 7453 H 711.995 3.58476 -1.58862 0
M  V30 7454 H 713.485 4.10842 -0.748249 0
M  V30 7455 N 713.922 1.13953 1.08869 0
M  V30 7456 C 715.169 0.90481 1.81161 0
M  V30 7457 C 715.497 -0.568824 1.85996 0
M  V30 7458 O 714.752 -1.43723 1.32823 0
M  V30 7459 C 715.051 1.44495 3.26888 0
M  V30 7460 C 714.717 2.93641 3.42178 0
M  V30 7461 C 713.379 3.34361 3.46059 0
M  V30 7462 C 715.731 3.89568 3.46246 0
M  V30 7463 C 713.059 4.69681 3.51592 0
M  V30 7464 C 715.411 5.2474 3.53314 0
M  V30 7465 C 714.075 5.64979 3.55465 0
M  V30 7466 H 713.345 0.331094 0.662916 0
M  V30 7467 H 715.992 1.42242 1.28217 0
M  V30 7468 H 714.297 0.848169 3.82509 0
M  V30 7469 H 715.994 1.23934 3.81368 0
M  V30 7470 H 712.584 2.61156 3.39846 0
M  V30 7471 H 716.768 3.59192 3.42483 0
M  V30 7472 H 712.024 5.00224 3.51547 0
M  V30 7473 H 716.198 5.98882 3.55406 0
M  V30 7474 H 713.825 6.69821 3.59505 0
M  V30 7475 N 715.4 -1.26948 0.933913 0
M  V30 7476 C 716.363 -2.24889 0.442457 0
M  V30 7477 C 717.363 -1.54594 -0.442426 0
M  V30 7478 O 718.553 -1.72502 -0.242629 0
M  V30 7479 C 715.685 -3.3896 -0.363173 0
M  V30 7480 H 716.878 -2.69879 1.30787 0
M  V30 7481 H 714.431 -1.38978 0.715187 0
M  V30 7482 H 715.166 -2.99361 -1.24714 0
M  V30 7483 H 714.951 -3.9116 0.271366 0
M  V30 7484 H 716.441 -4.11739 -0.697186 0
M  V30 7485 N 716.879 -0.700114 -1.41195 0
M  V30 7486 C 717.789 -0.0382854 -2.34569 0
M  V30 7487 C 718.805 0.761036 -1.56474 0
M  V30 7488 O 719.981 0.697553 -1.88934 0
M  V30 7489 C 717.046 0.883522 -3.35253 0
M  V30 7490 C 716.107 0.0758957 -4.29233 0
M  V30 7491 C 715.34 0.9538 -5.25108 0
M  V30 7492 O 715.563 2.19326 -5.26547 0
M  V30 7493 O 714.497 0.401049 -6.00562 0
M  V30 7494 H 718.323 -0.808073 -2.92752 0
M  V30 7495 H 715.908 -0.460479 -1.42127 0
M  V30 7496 H 717.79 1.41199 -3.9704 0
M  V30 7497 H 716.465 1.63272 -2.79506 0
M  V30 7498 H 715.372 -0.497274 -3.7078 0
M  V30 7499 H 716.705 -0.634741 -4.8809 0
M  V30 7500 N 718.357 1.51182 -0.445186 0
M  V30 7501 C 719.267 2.31692 0.368255 0
M  V30 7502 C 720.283 1.40942 1.02036 0
M  V30 7503 O 721.459 1.74011 1.01401 0
M  V30 7504 C 718.524 3.14903 1.45041 0
M  V30 7505 C 717.585 4.21442 0.817615 0
M  V30 7506 C 716.818 5.00677 1.8482 0
M  V30 7507 O 717.041 4.80644 3.07145 0
M  V30 7508 O 715.975 5.84559 1.43438 0
M  V30 7509 H 719.801 3.0232 -0.289219 0
M  V30 7510 H 717.386 1.47951 -0.207555 0
M  V30 7511 H 719.268 3.66612 2.07783 0
M  V30 7512 H 717.943 2.47031 2.09182 0
M  V30 7513 H 716.85 3.73791 0.151931 0
M  V30 7514 H 718.183 4.9171 0.219564 0
M  V30 7515 N 719.835 0.176821 1.56605 0
M  V30 7516 C 721.065 -0.472142 2.01133 0
M  V30 7517 C 721.473 -1.56979 1.05614 0
M  V30 7518 O 720.816 -1.83632 0.0500137 0
M  V30 7519 C 720.878 -1.10547 3.42081 0
M  V30 7520 C 720.542 -0.148806 4.56758 0
M  V30 7521 C 721.539 0.634939 5.16008 0
M  V30 7522 C 719.224 -0.0430325 5.02282 0
M  V30 7523 C 721.218 1.5116 6.19217 0
M  V30 7524 C 718.905 0.83721 6.05338 0
M  V30 7525 C 719.903 1.61311 6.63677 0
M  V30 7526 O 719.591 2.47863 7.64735 0
M  V30 7527 H 719.323 -0.124725 0.664394 0
M  V30 7528 H 721.877 0.277329 2.03519 0
M  V30 7529 H 720.107 -1.90318 3.36625 0
M  V30 7530 H 721.796 -1.6572 3.70529 0
M  V30 7531 H 722.562 0.563424 4.81716 0
M  V30 7532 H 718.441 -0.636753 4.56581 0
M  V30 7533 H 721.985 2.11767 6.64681 0
M  V30 7534 H 717.882 0.909908 6.39055 0
M  V30 7535 H 718.65 2.4144 7.8208 0
M  V30 7536 N 721.313 -1.57302 -0.09688 0
M  V30 7537 C 722.243 -2.0497 -1.11846 0
M  V30 7538 C 723.224 -0.938278 -1.41882 0
M  V30 7539 O 724.409 -1.20943 -1.51942 0
M  V30 7540 C 721.539 -2.47264 -2.43881 0
M  V30 7541 C 720.493 -3.62053 -2.28257 0
M  V30 7542 C 719.819 -3.90318 -3.65453 0
M  V30 7543 C 721.119 -4.93005 -1.72461 0
M  V30 7544 H 722.813 -2.90567 -0.721888 0
M  V30 7545 H 720.359 -1.39786 -0.345803 0
M  V30 7546 H 722.312 -2.7922 -3.15617 0
M  V30 7547 H 721.036 -1.58664 -2.8547 0
M  V30 7548 H 719.695 -3.30341 -1.58967 0
M  V30 7549 H 719.343 -2.98889 -4.04567 0
M  V30 7550 H 719.043 -4.67597 -3.55846 0
M  V30 7551 H 720.567 -4.24747 -4.3866 0
M  V30 7552 H 721.981 -5.23354 -2.34036 0
M  V30 7553 H 720.378 -5.74436 -1.73618 0
M  V30 7554 H 721.448 -4.80053 -0.683898 0
M  V30 7555 N 722.791 0.367657 -1.53252 0
M  V30 7556 C 723.754 1.43308 -1.78873 0
M  V30 7557 C 724.754 1.46671 -0.659115 0
M  V30 7558 O 725.944 1.47468 -0.927306 0
M  V30 7559 C 723.076 2.82442 -1.90892 0
M  V30 7560 H 724.269 1.21864 -2.74024 0
M  V30 7561 H 721.822 0.600668 -1.44297 0
M  V30 7562 H 722.557 3.09202 -0.978 0
M  V30 7563 H 722.342 2.81399 -2.73051 0
M  V30 7564 H 723.832 3.59601 -2.12314 0
M  V30 7565 N 724.269 1.44576 0.627338 0
M  V30 7566 C 725.68 1.42266 1.20902 0
M  V30 7567 C 726.031 0.139964 1.957 0
M  V30 7568 O 725.156 -0.759489 2.02634 0
M  V30 7569 C 725.751 2.57727 2.19914 0
M  V30 7570 C 724.31 2.58599 2.73502 0
M  V30 7571 C 723.457 2.34145 1.48564 0
M  V30 7572 H 726.408 1.53102 0.417791 0
M  V30 7573 H 726.429 2.30697 3.02588 0
M  V30 7574 H 725.941 3.51068 1.65447 0
M  V30 7575 H 724.042 1.6921 3.31962 0
M  V30 7576 H 724.155 3.57205 3.19282 0
M  V30 7577 H 722.519 1.83313 1.76829 0
M  V30 7578 H 723.302 3.29606 0.959935 0
M  V30 7579 N 725.747 -0.868086 1.31537 0
M  V30 7580 C 726.993 -1.62367 1.2151 0
M  V30 7581 C 727.326 -1.92883 -0.225819 0
M  V30 7582 O 726.601 -1.56176 -1.15927 0
M  V30 7583 C 726.884 -2.95268 2.06129 0
M  V30 7584 C 726.737 -2.71619 3.58529 0
M  V30 7585 C 728.056 -3.96391 1.91212 0
M  V30 7586 H 725.175 -0.589178 0.442762 0
M  V30 7587 H 727.817 -1.00336 1.61347 0
M  V30 7588 H 725.967 -3.4821 1.72284 0
M  V30 7589 H 727.639 -2.25334 4.0252 0
M  V30 7590 H 725.882 -2.05817 3.81866 0
M  V30 7591 H 726.553 -3.66192 4.13047 0
M  V30 7592 H 729.029 -3.52663 2.20834 0
M  V30 7593 H 727.905 -4.87263 2.52718 0
M  V30 7594 H 728.166 -4.33335 0.875953 0
M  V30 7595 N 727.225 -1.14528 -1.08264 0
M  V30 7596 C 728.641 -0.885976 -1.3275 0
M  V30 7597 C 728.841 0.472096 -1.95892 0
M  V30 7598 O 727.897 1.21606 -2.21288 0
M  V30 7599 C 729.21 -2.01982 -2.22764 0
M  V30 7600 C 730.758 -2.05329 -2.36239 0
M  V30 7601 C 731.233 -3.1801 -3.29596 0
M  V30 7602 N 732.724 -3.17598 -3.37173 0
M  V30 7603 C 733.459 -4.01426 -4.09444 0
M  V30 7604 N 732.955 -4.95297 -4.8441 0
M  V30 7605 N 734.748 -3.89482 -4.0529 0
M  V30 7606 H 726.899 -2.01996 -0.656607 0
M  V30 7607 H 729.162 -0.880274 -0.351884 0
M  V30 7608 H 728.868 -2.99964 -1.83615 0
M  V30 7609 H 728.742 -1.94421 -3.23234 0
M  V30 7610 H 731.129 -1.07953 -2.74646 0
M  V30 7611 H 731.21 -2.1696 -1.35506 0
M  V30 7612 H 730.854 -4.15633 -2.9191 0
M  V30 7613 H 730.784 -3.03616 -4.30261 0
M  V30 7614 H 733.275 -2.4961 -2.83731 0
M  V30 7615 H 733.588 -5.55723 -5.37021 0
M  V30 7616 H 731.933 -4.99293 -4.83457 0
M  V30 7617 H 735.124 -3.15465 -3.45832 0
M  V30 7618 H 735.297 -4.55039 -4.6135 0
M  V30 7619 N 728.703 1.26451 -0.940633 0
M  V30 7620 C 730.114 1.75726 -0.630653 0
M  V30 7621 C 730.465 1.76631 0.854167 0
M  V30 7622 O 729.59 1.37807 1.66848 0
M  V30 7623 C 730.185 3.19114 -1.13805 0
M  V30 7624 C 728.744 3.66005 -0.878497 0
M  V30 7625 C 727.891 2.45505 -1.28928 0
M  V30 7626 H 730.842 1.12535 -1.119 0
M  V30 7627 H 730.863 3.77311 -0.491625 0
M  V30 7628 H 730.375 3.18424 -2.21874 0
M  V30 7629 H 728.476 3.72126 0.187833 0
M  V30 7630 H 728.589 4.54844 -1.50512 0
M  V30 7631 H 726.953 2.4467 -0.707713 0
M  V30 7632 H 727.736 2.47516 -2.37888 0
M  V30 7633 N 730.181 0.707592 1.40822 0
M  V30 7634 C 731.111 0.0644925 2.33411 0
M  V30 7635 C 732.092 -0.754205 1.52466 0
M  V30 7636 O 733.277 -0.704749 1.80961 0
M  V30 7637 C 730.407 -0.863865 3.36385 0
M  V30 7638 C 729.361 -0.15138 4.27732 0
M  V30 7639 C 728.687 -1.19491 5.21177 0
M  V30 7640 C 729.987 0.989607 5.12839 0
M  V30 7641 H 731.681 0.837829 2.87438 0
M  V30 7642 H 729.227 0.404346 1.38207 0
M  V30 7643 H 731.18 -1.32309 4.0009 0
M  V30 7644 H 729.904 -1.66901 2.80734 0
M  V30 7645 H 728.563 0.287937 3.65467 0
M  V30 7646 H 728.211 -1.9929 4.61836 0
M  V30 7647 H 727.911 -0.723123 5.83134 0
M  V30 7648 H 729.435 -1.6544 5.8776 0
M  V30 7649 H 730.849 0.610114 5.70044 0
M  V30 7650 H 729.246 1.38926 5.83798 0
M  V30 7651 H 730.316 1.82389 4.49291 0
M  V30 7652 N 731.66 -1.50943 0.453197 0
M  V30 7653 C 732.57 -2.31884 -0.355963 0
M  V30 7654 C 733.586 -1.41481 -1.01287 0
M  V30 7655 O 734.762 -1.74546 -1.00477 0
M  V30 7656 C 731.827 -3.15668 -1.43369 0
M  V30 7657 C 730.888 -4.2187 -0.795253 0
M  V30 7658 C 730.121 -5.0165 -1.82162 0
M  V30 7659 O 730.344 -4.82266 -3.04592 0
M  V30 7660 O 729.278 -5.85311 -1.40336 0
M  V30 7661 H 733.104 -3.02162 0.305248 0
M  V30 7662 H 730.689 -1.47839 0.215398 0
M  V30 7663 H 732.571 -3.67709 -2.05836 0
M  V30 7664 H 731.246 -2.48137 -2.07869 0
M  V30 7665 H 730.153 -3.73867 -0.132106 0
M  V30 7666 H 731.486 -4.9182 -0.193484 0
M  V30 7667 N 733.138 -0.185124 -1.56509 0
M  V30 7668 C 734.554 0.170865 -1.58683 0
M  V30 7669 C 734.754 1.61799 -1.20098 0
M  V30 7670 O 733.81 2.35181 -0.919038 0
M  V30 7671 C 735.123 -0.122459 -3.00451 0
M  V30 7672 C 736.671 -0.0617699 -3.12939 0
M  V30 7673 C 737.146 -0.328269 -4.56822 0
M  V30 7674 N 738.637 -0.276533 -4.62374 0
M  V30 7675 C 739.372 -0.456722 -5.71578 0
M  V30 7676 N 738.868 -0.69672 -6.89288 0
M  V30 7677 N 740.661 -0.391669 -5.60734 0
M  V30 7678 H 732.812 -1.12956 -1.79874 0
M  V30 7679 H 735.075 -0.45011 -0.834329 0
M  V30 7680 H 734.781 -1.12546 -3.33206 0
M  V30 7681 H 734.655 0.579578 -3.72721 0
M  V30 7682 H 737.042 0.931826 -2.80002 0
M  V30 7683 H 737.123 -0.796732 -2.43076 0
M  V30 7684 H 736.767 -1.31914 -4.9047 0
M  V30 7685 H 736.697 0.427465 -5.24862 0
M  V30 7686 H 739.188 -0.0972458 -3.77775 0
M  V30 7687 H 739.501 -0.823291 -7.68402 0
M  V30 7688 H 737.846 -0.733497 -6.91119 0
M  V30 7689 H 741.037 -0.204663 -4.67652 0
M  V30 7690 H 741.21 -0.535518 -6.45783 0
M  V30 7691 N 734.616 1.57351 0.0885366 0
M  V30 7692 C 735.865 1.85604 0.789556 0
M  V30 7693 C 736.178 0.775352 1.79576 0
M  V30 7694 O 737.384 0.945206 2.54515 0
M  V30 7695 C 735.84 3.29175 1.45506 0
M  V30 7696 C 735.448 4.45331 0.488278 0
M  V30 7697 C 737.192 3.66646 2.13942 0
M  V30 7698 C 735.099 5.79937 1.15874 0
M  V30 7699 H 734.029 0.692346 0.298619 0
M  V30 7700 H 736.68 1.83451 0.0425821 0
M  V30 7701 H 735.062 3.25889 2.24972 0
M  V30 7702 H 736.236 4.59977 -0.275359 0
M  V30 7703 H 734.551 4.16301 -0.0907363 0
M  V30 7704 H 737.148 4.64498 2.6485 0
M  V30 7705 H 737.491 2.956 2.93132 0
M  V30 7706 H 738.024 3.71848 1.41328 0
M  V30 7707 H 734.763 6.54232 0.407508 0
M  V30 7708 H 734.283 5.69123 1.89364 0
M  V30 7709 H 735.962 6.24718 1.68336 0
M  V30 7710 N 736.094 -0.359525 1.53444 0
M  V30 7711 C 737.51 -0.701599 1.43352 0
M  V30 7712 C 737.71 -1.93049 0.577439 0
M  V30 7713 O 736.766 -2.52423 0.0622224 0
M  V30 7714 C 738.079 -0.90915 2.86627 0
M  V30 7715 C 739.627 -1.00878 2.96298 0
M  V30 7716 C 740.102 -1.24876 4.40647 0
M  V30 7717 N 741.593 -1.31632 4.44103 0
M  V30 7718 C 742.328 -1.51922 5.52908 0
M  V30 7719 N 741.824 -1.69489 6.71748 0
M  V30 7720 N 743.617 -1.54341 5.40496 0
M  V30 7721 H 735.768 0.448685 2.07607 0
M  V30 7722 H 738.031 0.138713 0.937797 0
M  V30 7723 H 737.737 -0.0778997 3.51614 0
M  V30 7724 H 737.611 -1.81551 3.30634 0
M  V30 7725 H 739.998 -1.83057 2.31461 0
M  V30 7726 H 740.079 -0.0796721 2.55676 0
M  V30 7727 H 739.723 -0.431961 5.0606 0
M  V30 7728 H 739.653 -2.19118 4.78848 0
M  V30 7729 H 742.144 -1.19646 3.5846 0
M  V30 7730 H 742.457 -1.84561 7.50438 0
M  V30 7731 H 740.802 -1.66655 6.74723 0
M  V30 7732 H 743.993 -1.40188 4.46615 0
M  V30 7733 H 744.166 -1.69812 6.25354 0
M  V30 7734 N 737.572 -1.44907 -0.619662 0
M  V30 7735 C 738.504 -1.48652 -1.74457 0
M  V30 7736 C 739.517 -0.378596 -1.58337 0
M  V30 7737 O 740.706 -0.644987 -1.6644 0
M  V30 7738 C 737.806 -1.31568 -3.12319 0
M  V30 7739 C 736.979 -2.55816 -3.54792 0
M  V30 7740 C 736.038 -2.33465 -4.71573 0
M  V30 7741 O 735.064 -3.07015 -4.79302 0
M  V30 7742 N 736.266 -1.37254 -5.6404 0
M  V30 7743 H 739.031 -2.45632 -1.71712 0
M  V30 7744 H 736.592 -1.40492 -0.804582 0
M  V30 7745 H 738.584 -1.14445 -3.88181 0
M  V30 7746 H 737.154 -0.429095 -3.09641 0
M  V30 7747 H 736.374 -2.88137 -2.69018 0
M  V30 7748 H 737.662 -3.38431 -3.79924 0
M  V30 7749 H 737.06 -0.765309 -5.60499 0
M  V30 7750 H 735.617 -1.26106 -6.39485 0
M  V30 7751 N 739.05 0.861098 -1.31996 0
M  V30 7752 C 740 1.95703 -1.1698 0
M  V30 7753 C 740.984 1.60709 -0.0784201 0
M  V30 7754 O 742.176 1.74365 -0.304262 0
M  V30 7755 C 739.305 3.31606 -0.888388 0
M  V30 7756 C 738.391 3.7284 -2.02117 0
M  V30 7757 N 738.782 3.85957 -3.26911 0
M  V30 7758 C 737.08 4.02419 -1.92289 0
M  V30 7759 C 737.781 4.21333 -4.01065 0
M  V30 7760 N 736.757 4.32502 -3.29307 0
M  V30 7761 H 740.559 2.03968 -2.11599 0
M  V30 7762 H 738.073 1.05245 -1.23682 0
M  V30 7763 H 740.07 4.09881 -0.761782 0
M  V30 7764 H 738.73 3.24662 0.0494898 0
M  V30 7765 H 739.741 3.70449 -3.61923 0
M  V30 7766 H 736.418 4.03814 -1.06022 0
M  V30 7767 H 737.808 4.39005 -5.08649 0
M  V30 7768 N 740.528 1.15101 1.07655 0
M  V30 7769 C 741.774 0.925343 1.80458 0
M  V30 7770 C 742.107 -0.546354 1.86356 0
M  V30 7771 O 741.382 -1.40496 1.34503 0
M  V30 7772 C 741.665 1.53646 3.25676 0
M  V30 7773 C 741.518 3.07854 3.27942 0
M  V30 7774 C 742.837 1.21968 4.22861 0
M  V30 7775 H 739.956 0.337592 0.655134 0
M  V30 7776 H 742.598 1.42217 1.25993 0
M  V30 7777 H 740.748 1.11395 3.72187 0
M  V30 7778 H 742.42 3.58989 2.89697 0
M  V30 7779 H 740.663 3.41904 2.66991 0
M  V30 7780 H 741.334 3.45725 4.30324 0
M  V30 7781 H 743.81 1.5851 3.84726 0
M  V30 7782 H 742.686 1.67349 5.22767 0
M  V30 7783 H 742.947 0.136207 4.4189 0
M  V30 7784 N 742.006 -1.2595 0.947325 0
M  V30 7785 C 743.283 -1.88676 0.515824 0
M  V30 7786 C 743.663 -1.85547 -1.00675 0
M  V30 7787 O 743.011 -1.31399 -1.8694 0
M  V30 7788 C 743.221 -3.31734 1.08415 0
M  V30 7789 C 744.569 -4.08545 1.15654 0
M  V30 7790 O 745.593 -3.40826 1.03517 0
M  V30 7791 O 744.452 -5.29663 1.34608 0
M  V30 7792 H 741.546 -0.809537 0.169055 0
M  V30 7793 H 744.092 -1.34075 1.04029 0
M  V30 7794 H 742.864 -3.28404 2.1276 0
M  V30 7795 H 742.487 -3.93882 0.542499 0
M  V30 7796 N 743.484 -0.715051 -1.40445 0
M  V30 7797 C 744.447 -0.0708726 -2.2909 0
M  V30 7798 C 745.447 0.687926 -1.45342 0
M  V30 7799 O 746.637 0.519908 -1.66261 0
M  V30 7800 C 743.769 0.909528 -3.28543 0
M  V30 7801 H 744.962 -0.851611 -2.87555 0
M  V30 7802 H 742.515 -0.479674 -1.48758 0
M  V30 7803 H 743.25 1.71734 -2.75096 0
M  V30 7804 H 743.035 0.368318 -3.90366 0
M  V30 7805 H 744.525 1.35744 -3.94922 0
M  V30 7806 N 744.962 1.50701 -0.461195 0
M  V30 7807 C 745.925 2.2686 0.326679 0
M  V30 7808 C 746.925 1.31243 0.929085 0
M  V30 7809 O 748.115 1.54754 0.799807 0
M  V30 7810 C 745.247 3.07844 1.46441 0
M  V30 7811 H 746.44 2.97954 -0.341095 0
M  V30 7812 H 743.993 1.54814 -0.214984 0
M  V30 7813 H 744.728 2.41223 2.16753 0
M  V30 7814 H 744.513 3.78101 1.03836 0
M  V30 7815 H 746.003 3.65469 2.02044 0
M  V30 7816 N 746.441 0.193421 1.56409 0
M  V30 7817 C 747.718 -0.493318 1.89277 0
M  V30 7818 C 748.098 -1.79765 1.10669 0
M  V30 7819 O 747.446 -2.27558 0.207274 0
M  V30 7820 C 747.656 -0.713732 3.41624 0
M  V30 7821 C 749.004 -1.03385 4.11821 0
M  V30 7822 O 750.028 -0.801511 3.47065 0
M  V30 7823 O 748.887 -1.47327 5.26267 0
M  V30 7824 H 745.981 -0.256973 0.786062 0
M  V30 7825 H 748.527 0.23351 1.68086 0
M  V30 7826 H 747.299 0.207446 3.9075 0
M  V30 7827 H 746.922 -1.49308 3.68501 0
M  V30 7828 N 747.919 -1.57396 -0.0801906 0
M  V30 7829 C 749.196 -1.77883 -0.813451 0
M  V30 7830 C 749.576 -0.778879 -1.96206 0
M  V30 7831 O 748.924 0.189683 -2.27711 0
M  V30 7832 C 749.134 -3.24116 -1.2942 0
M  V30 7833 C 750.482 -3.87714 -1.73098 0
M  V30 7834 O 751.506 -3.27956 -1.39007 0
M  V30 7835 O 750.365 -4.92828 -2.36184 0
M  V30 7836 H 747.459 -0.729727 -0.389138 0
M  V30 7837 H 750.005 -1.69591 -0.0609166 0
M  V30 7838 H 748.777 -3.88443 -0.471947 0
M  V30 7839 H 748.4 -3.371 -2.1083 0
M  V30 7840 N 749.397 0.351382 -1.53633 0
M  V30 7841 C 750.674 1.10903 -1.6112 0
M  V30 7842 C 751.054 2.06725 -0.427556 0
M  V30 7843 O 750.402 2.20992 0.580916 0
M  V30 7844 C 750.612 1.83561 -2.96827 0
M  V30 7845 C 751.96 2.37587 -3.51906 0
M  V30 7846 O 752.984 1.93669 -2.9895 0
M  V30 7847 O 751.843 3.17913 -4.44515 0
M  V30 7848 H 748.937 0.509558 -0.651368 0
M  V30 7849 H 751.483 0.353504 -1.65977 0
M  V30 7850 H 750.255 1.1371 -3.74414 0
M  V30 7851 H 749.878 2.6599 -2.95525 0
M  V30 7852 N 750.875 1.45233 0.611969 0
M  V30 7853 C 752.123 1.48727 1.36838 0
M  V30 7854 C 752.444 0.128616 1.94575 0
M  V30 7855 O 751.714 -0.84149 1.76906 0
M  V30 7856 H 750.294 0.547695 0.507976 0
M  V30 7857 H 752.956 1.81156 0.718925 0
M  V30 7858 H 752.052 2.2236 2.19003 0
M  V30 7859 N 752.353 -0.854086 1.3245 0
M  V30 7860 C 753.601 -1.60513 1.228 0
M  V30 7861 C 753.922 -1.93865 -0.210073 0
M  V30 7862 O 753.192 -1.59673 -1.13496 0
M  V30 7863 H 751.772 -0.595099 0.451516 0
M  V30 7864 H 754.434 -1.0216 1.6598 0
M  V30 7865 H 753.53 -2.54182 1.81102 0
M  V30 7866 N 753.831 -1.1567 -1.07043 0
M  V30 7867 C 755.059 -0.957471 -1.83412 0
M  V30 7868 C 755.474 0.494271 -1.82215 0
M  V30 7869 O 754.831 1.34288 -1.23584 0
M  V30 7870 C 754.882 -1.46784 -3.30359 0
M  V30 7871 O 754.603 -2.86271 -3.31633 0
M  V30 7872 C 756.104 -1.31054 -4.23485 0
M  V30 7873 H 753.324 -0.33986 -0.578564 0
M  V30 7874 H 755.868 -1.53518 -1.35102 0
M  V30 7875 H 754.023 -0.932586 -3.76007 0
M  V30 7876 H 754.437 -3.0948 -4.23465 0
M  V30 7877 H 755.911 -1.71605 -5.24648 0
M  V30 7878 H 756.388 -0.255107 -4.38458 0
M  V30 7879 H 756.994 -1.83503 -3.83676 0
M  V30 7880 N 755.309 1.25446 -0.953992 0
M  V30 7881 C 756.537 1.97215 -0.625595 0
M  V30 7882 C 756.952 1.70911 0.802168 0
M  V30 7883 O 756.309 0.984782 1.5365 0
M  V30 7884 C 756.36 3.50777 -0.873943 0
M  V30 7885 O 756.081 3.76173 -2.24556 0
M  V30 7886 C 757.582 4.39776 -0.557845 0
M  V30 7887 H 754.802 0.628652 -0.2346 0
M  V30 7888 H 757.346 1.59632 -1.27819 0
M  V30 7889 H 755.501 3.86474 -0.267765 0
M  V30 7890 H 755.915 4.70636 -2.31522 0
M  V30 7891 H 757.389 5.46431 -0.782157 0
M  V30 7892 H 757.866 4.36257 0.507573 0
M  V30 7893 H 758.472 4.09644 -1.14332 0
M  V30 7894 N 756.787 0.722489 1.40064 0
M  V30 7895 C 758.012 0.273446 2.05589 0
M  V30 7896 C 758.437 -1.07875 1.54093 0
M  V30 7897 O 757.795 -1.68095 0.679252 0
M  V30 7898 C 757.843 0.271023 3.5958 0
M  V30 7899 O 756.947 -0.745499 4.05606 0
M  V30 7900 H 756.288 0.126856 0.65177 0
M  V30 7901 H 758.818 0.984906 1.79334 0
M  V30 7902 H 758.828 0.111084 4.07849 0
M  V30 7903 H 757.503 1.25776 3.96425 0
M  V30 7904 H 756.08 -0.552719 3.68781 0
M  V30 7905 N 758.265 -1.50454 0.469181 0
M  V30 7906 C 759.514 -2.01507 -0.0881425 0
M  V30 7907 C 759.827 -1.35613 -1.40956 0
M  V30 7908 O 761.033 -1.77812 -2.05171 0
M  V30 7909 C 759.489 -3.59301 -0.207596 0
M  V30 7910 C 759.097 -4.34152 1.10527 0
M  V30 7911 C 760.841 -4.18401 -0.716981 0
M  V30 7912 C 758.748 -5.83725 0.949717 0
M  V30 7913 H 757.678 -0.753106 -0.0367156 0
M  V30 7914 H 760.329 -1.73282 0.603788 0
M  V30 7915 H 758.711 -3.84106 -0.963265 0
M  V30 7916 H 759.885 -4.21073 1.87175 0
M  V30 7917 H 758.2 -3.86652 1.54562 0
M  V30 7918 H 760.797 -5.27895 -0.850363 0
M  V30 7919 H 761.14 -3.79657 -1.70782 0
M  V30 7920 H 761.673 -3.97796 -0.0187511 0
M  V30 7921 H 758.412 -6.26938 1.91387 0
M  V30 7922 H 757.932 -5.99383 0.223591 0
M  V30 7923 H 759.611 -6.44065 0.61557 0
M  V30 7924 N 759.743 -0.201713 -1.56304 0
M  V30 7925 C 760.971 0.440723 -2.02152 0
M  V30 7926 C 761.386 1.54735 -1.08179 0
M  V30 7927 O 760.743 1.82289 -0.0878196 0
M  V30 7928 C 760.794 0.990884 -3.47655 0
M  V30 7929 O 760.515 -0.0715937 -4.38041 0
M  V30 7930 C 762.016 1.70854 -4.09052 0
M  V30 7931 H 759.236 0.109987 -0.661924 0
M  V30 7932 H 761.78 -0.312358 -2.021 0
M  V30 7933 H 759.935 1.69432 -3.48384 0
M  V30 7934 H 760.349 0.338892 -5.23404 0
M  V30 7935 H 761.823 2.04572 -5.12693 0
M  V30 7936 H 762.3 2.61462 -3.52894 0
M  V30 7937 H 762.906 1.0508 -4.12114 0
M  V30 7938 N 761.222 1.57436 0.0718424 0
M  V30 7939 C 762.185 2.02703 1.06977 0
M  V30 7940 C 763.185 0.924062 1.31597 0
M  V30 7941 O 764.375 1.18894 1.27318 0
M  V30 7942 C 761.507 2.40763 2.41342 0
M  V30 7943 H 762.7 2.92098 0.679619 0
M  V30 7944 H 760.253 1.5304 0.317565 0
M  V30 7945 H 760.988 1.54394 2.8519 0
M  V30 7946 H 760.773 3.21249 2.24814 0
M  V30 7947 H 762.263 2.76361 3.13073 0
M  V30 7948 N 762.7 -0.34323 1.53817 0
M  V30 7949 C 763.928 -1.10348 1.75017 0
M  V30 7950 C 764.343 -1.82345 0.489475 0
M  V30 7951 O 763.7 -1.74362 -0.538886 0
M  V30 7952 C 763.751 -2.11672 2.93048 0
M  V30 7953 O 763.472 -1.42603 4.14241 0
M  V30 7954 C 764.973 -3.0007 3.26301 0
M  V30 7955 H 762.193 -0.329056 0.584776 0
M  V30 7956 H 764.737 -0.395339 2.00642 0
M  V30 7957 H 762.892 -2.78051 2.69753 0
M  V30 7958 H 763.306 -2.10294 4.80496 0
M  V30 7959 H 764.78 -3.67101 4.12239 0
M  V30 7960 H 765.257 -3.66105 2.42618 0
M  V30 7961 H 765.863 -2.3928 3.51604 0
M  V30 7962 N 764.178 -1.45556 -0.604258 0
M  V30 7963 C 765.424 -1.49968 -1.36519 0
M  V30 7964 C 765.757 -0.142236 -1.93678 0
M  V30 7965 O 765.032 0.843717 -1.75247 0
M  V30 7966 C 765.315 -2.58146 -2.51063 0
M  V30 7967 C 765.168 -4.03346 -1.99078 0
M  V30 7968 C 766.487 -2.62581 -3.53184 0
M  V30 7969 H 763.606 -0.545993 -0.495036 0
M  V30 7970 H 766.248 -1.77382 -0.680845 0
M  V30 7971 H 764.398 -2.34901 -3.09441 0
M  V30 7972 H 766.07 -4.37811 -1.45323 0
M  V30 7973 H 764.313 -4.13845 -1.30055 0
M  V30 7974 H 764.984 -4.74731 -2.81664 0
M  V30 7975 H 767.46 -2.83419 -3.04652 0
M  V30 7976 H 766.336 -3.40131 -4.30816 0
M  V30 7977 H 766.597 -1.67798 -4.09019 0
M  V30 7978 N 765.656 0.84705 -1.32902 0
M  V30 7979 C 766.603 1.95624 -1.22473 0
M  V30 7980 C 767.573 1.65767 -0.105178 0
M  V30 7981 O 768.758 1.88704 -0.282042 0
M  V30 7982 C 765.898 3.31434 -0.961542 0
M  V30 7983 C 765.011 3.73741 -2.1666 0
M  V30 7984 C 764.146 4.98379 -1.83825 0
M  V30 7985 C 763.185 5.33199 -3.00609 0
M  V30 7986 N 762.322 6.49014 -2.67816 0
M  V30 7987 H 767.162 2.03875 -2.17345 0
M  V30 7988 H 764.699 0.997764 -1.08088 0
M  V30 7989 H 766.657 4.09663 -0.789411 0
M  V30 7990 H 765.287 3.22762 -0.0495938 0
M  V30 7991 H 764.339 2.91102 -2.44875 0
M  V30 7992 H 765.651 3.95462 -3.03993 0
M  V30 7993 H 764.805 5.84336 -1.63208 0
M  V30 7994 H 763.544 4.78611 -0.937172 0
M  V30 7995 H 762.549 4.4575 -3.21849 0
M  V30 7996 H 763.774 5.5492 -3.9146 0
M  V30 7997 H 761.72 6.30748 -1.80258 0
M  V30 7998 H 761.637 6.7079 -3.48679 0
M  V30 7999 H 762.905 7.38103 -2.50647 0
M  V30 8000 N 767.134 1.16236 1.06428 0
M  V30 8001 C 768.383 0.937523 1.78587 0
M  V30 8002 C 768.696 -0.536 1.88113 0
M  V30 8003 O 769.902 -0.878697 2.56887 0
M  V30 8004 C 768.358 1.62808 3.2097 0
M  V30 8005 C 767.966 3.13927 3.19615 0
M  V30 8006 C 769.71 1.48515 3.97673 0
M  V30 8007 C 767.617 3.75727 4.56709 0
M  V30 8008 H 766.547 0.347125 0.669343 0
M  V30 8009 H 769.198 1.39353 1.19385 0
M  V30 8010 H 767.58 1.09977 3.80422 0
M  V30 8011 H 768.754 3.7359 2.69753 0
M  V30 8012 H 767.069 3.28089 2.56411 0
M  V30 8013 H 769.666 1.92069 4.99013 0
M  V30 8014 H 770.009 0.433913 4.14032 0
M  V30 8015 H 770.542 1.98494 3.44739 0
M  V30 8016 H 767.281 4.80793 4.45554 0
M  V30 8017 H 766.801 3.20849 5.0677 0
M  V30 8018 H 768.48 3.77203 5.25668 0
M  V30 8019 N 768.612 -1.24939 0.960631 0
M  V30 8020 C 769.56 -2.27659 0.47686 0
M  V30 8021 C 770.554 -1.63148 -0.455961 0
M  V30 8022 O 771.76 -1.76911 -0.332029 0
M  V30 8023 H 768.135 -0.739651 0.135723 0
M  V30 8024 H 770.106 -2.65844 1.35534 0
M  V30 8025 C 768.855 -3.46976 -0.224191 0
M  V30 8026 H 768.178 -3.96854 0.484471 0
M  V30 8027 H 769.618 -4.20717 -0.526615 0
M  V30 8028 C 768.077 -3.04159 -1.44876 0
M  V30 8029 O 768.607 -3.10697 -2.54618 0
M  V30 8030 N 766.813 -2.59284 -1.31226 0
M  V30 8031 H 766.36 -2.54164 -0.419361 0
M  V30 8032 H 766.318 -2.31 -2.13275 0
M  V30 8033 N 770.09 -0.729906 -1.39679 0
M  V30 8034 C 771.338 -0.275077 -2.00219 0
M  V30 8035 C 771.659 1.1401 -1.58199 0
M  V30 8036 O 770.929 1.77546 -0.827904 0
M  V30 8037 H 769.509 -0.0987127 -0.740449 0
M  V30 8038 H 772.171 -0.93873 -1.70804 0
M  V30 8039 H 771.267 -0.319446 -3.10461 0
M  V30 8040 N 771.568 1.50203 -0.477153 0
M  V30 8041 C 772.814 2.02658 0.0758507 0
M  V30 8042 C 773.147 1.358 1.38824 0
M  V30 8043 O 772.422 0.485696 1.88338 0
M  V30 8044 C 772.705 3.59208 0.253339 0
M  V30 8045 C 772.558 4.36629 -1.0805 0
M  V30 8046 C 773.877 4.28469 1.00509 0
M  V30 8047 H 770.996 0.736538 0.0260921 0
M  V30 8048 H 773.638 1.79464 -0.623925 0
M  V30 8049 H 771.788 3.79101 0.849378 0
M  V30 8050 H 773.46 4.28292 -1.71358 0
M  V30 8051 H 771.703 4.0013 -1.67566 0
M  V30 8052 H 772.374 5.44449 -0.909883 0
M  V30 8053 H 774.85 4.13087 0.499818 0
M  V30 8054 H 773.726 5.37804 1.09808 0
M  V30 8055 H 773.987 3.92057 2.04314 0
M  V30 8056 N 773.046 0.209999 1.56195 0
M  V30 8057 C 773.956 -0.716459 2.23392 0
M  V30 8058 C 774.972 -1.22291 1.23778 0
M  V30 8059 O 776.148 -1.26694 1.56558 0
M  V30 8060 C 773.213 -1.91261 2.89172 0
M  V30 8061 C 772.274 -1.44927 4.04097 0
M  V30 8062 C 771.507 -2.5884 4.66731 0
M  V30 8063 O 771.73 -3.76693 4.2832 0
M  V30 8064 O 770.664 -2.30701 5.55932 0
M  V30 8065 H 774.49 -0.174089 3.03201 0
M  V30 8066 H 772.075 -0.0199505 1.49387 0
M  V30 8067 H 773.957 -2.6114 3.30733 0
M  V30 8068 H 772.632 -2.4433 2.12331 0
M  V30 8069 H 771.539 -0.718839 3.67129 0
M  V30 8070 H 772.872 -0.965084 4.82646 0
M  V30 8071 N 774.524 -1.57472 -0.0634922 0
M  V30 8072 C 775.752 -1.91887 -0.773767 0
M  V30 8073 C 776.167 -0.806733 -1.70696 0
M  V30 8074 O 775.524 0.219383 -1.81177 0
M  V30 8075 C 775.575 -3.26092 -1.56034 0
M  V30 8076 O 775.296 -4.33029 -0.66464 0
M  V30 8077 C 776.797 -3.74573 -2.37087 0
M  V30 8078 H 774.017 -0.634074 -0.219525 0
M  V30 8079 H 776.561 -2.04476 -0.0312828 0
M  V30 8080 H 774.716 -3.15004 -2.25502 0
M  V30 8081 H 775.13 -5.10291 -1.21258 0
M  V30 8082 H 776.604 -4.71084 -2.87722 0
M  V30 8083 H 777.081 -3.04003 -3.16984 0
M  V30 8084 H 777.687 -3.88631 -1.72759 0
M  V30 8085 N 776.003 0.335068 -1.53997 0
M  V30 8086 C 776.913 1.43511 -1.85585 0
M  V30 8087 C 777.929 1.57162 -0.746726 0
M  V30 8088 O 779.105 1.72477 -1.03988 0
M  V30 8089 C 776.17 2.78386 -2.06646 0
M  V30 8090 C 775.231 2.74007 -3.30483 0
M  V30 8091 C 774.464 4.02449 -3.50529 0
M  V30 8092 O 774.687 5.00147 -2.74242 0
M  V30 8093 O 773.621 4.06405 -4.4398 0
M  V30 8094 H 777.447 1.19731 -2.79102 0
M  V30 8095 H 775.032 0.528033 -1.39758 0
M  V30 8096 H 776.914 3.58247 -2.21894 0
M  V30 8097 H 775.589 3.0208 -1.16317 0
M  V30 8098 H 774.496 1.92736 -3.2063 0
M  V30 8099 H 775.829 2.55267 -4.20832 0
M  V30 8100 N 777.481 1.45874 0.596531 0
M  V30 8101 C 778.73 1.49737 1.35135 0
M  V30 8102 C 779.043 0.147755 1.95041 0
M  V30 8103 O 780.249 0.0640984 2.71424 0
M  V30 8104 C 778.705 2.6378 2.44843 0
M  V30 8105 C 778.313 4.05102 1.91301 0
M  V30 8106 C 780.057 2.769 3.21755 0
M  V30 8107 C 777.964 5.10508 2.98557 0
M  V30 8108 H 776.894 0.557219 0.507959 0
M  V30 8109 H 779.545 1.72046 0.638147 0
M  V30 8110 H 777.927 2.34774 3.189 0
M  V30 8111 H 779.101 4.43836 1.2388 0
M  V30 8112 H 777.416 3.96528 1.271 0
M  V30 8113 H 780.013 3.52819 4.01775 0
M  V30 8114 H 780.356 1.83924 3.73467 0
M  V30 8115 H 780.889 3.05485 2.54802 0
M  V30 8116 H 777.628 6.0523 2.51749 0
M  V30 8117 H 777.148 4.76332 3.6451 0
M  V30 8118 H 778.827 5.35745 3.62748 0
M  V30 8119 N 778.959 -0.83999 1.33349 0
M  V30 8120 C 780.184 -1.63249 1.27924 0
M  V30 8121 C 780.609 -1.87523 -0.147193 0
M  V30 8122 O 779.967 -1.43853 -1.10345 0
M  V30 8123 C 780.015 -2.96046 2.05886 0
M  V30 8124 O 779.119 -3.87303 1.4167 0
M  V30 8125 H 778.46 -0.49715 0.440157 0
M  V30 8126 H 780.99 -1.04512 1.75893 0
M  V30 8127 H 781 -3.45752 2.16609 0
M  V30 8128 H 779.675 -2.77701 3.09605 0
M  V30 8129 H 778.252 -3.45789 1.39585 0
M  V30 8130 N 780.437 -1.16799 -1.0581 0
M  V30 8131 C 781.685 -0.950642 -1.78346 0
M  V30 8132 C 782.006 0.522524 -1.87869 0
M  V30 8133 O 781.276 1.3795 -1.39092 0
M  V30 8134 H 779.856 -0.348736 -0.6606 0
M  V30 8135 H 782.518 -1.47158 -1.27791 0
M  V30 8136 H 781.614 -1.37359 -2.80248 0
M  V30 8137 N 781.915 1.24427 -0.967243 0
M  V30 8138 C 783.14 1.9708 -0.646069 0
M  V30 8139 C 783.565 1.71272 0.777665 0
M  V30 8140 O 782.923 0.976179 1.52776 0
M  V30 8141 C 782.971 3.48501 -0.926266 0
M  V30 8142 O 782.075 4.12398 -0.0114653 0
M  V30 8143 H 781.416 0.617423 -0.244304 0
M  V30 8144 H 783.946 1.58215 -1.29727 0
M  V30 8145 H 783.956 3.98885 -0.857619 0
M  V30 8146 H 782.631 3.66613 -1.96386 0
M  V30 8147 H 781.208 3.72661 -0.133396 0
M  V30 8148 N 783.393 0.737304 1.3929 0
M  V30 8149 C 784.641 0.285691 2.00071 0
M  V30 8150 C 784.962 -1.13169 1.58801 0
M  V30 8151 O 784.232 -1.77104 0.837308 0
M  V30 8152 H 782.812 0.102638 0.739915 0
M  V30 8153 H 785.474 0.947775 1.70303 0
M  V30 8154 H 784.57 0.335906 3.10287 0
M  V30 8155 N 784.871 -1.49948 0.485112 0
M  V30 8156 C 785.819 -2.30449 -0.315609 0
M  V30 8157 C 786.813 -1.38351 -0.977516 0
M  V30 8158 O 788.019 -1.55477 -0.907019 0
M  V30 8159 H 784.394 -0.742262 -0.120629 0
M  V30 8160 H 786.365 -2.95925 0.383552 0
M  V30 8161 C 785.114 -3.19283 -1.37673 0
M  V30 8162 H 784.437 -3.90067 -0.876801 0
M  V30 8163 H 785.877 -3.78579 -1.90929 0
M  V30 8164 C 784.336 -2.37817 -2.38631 0
M  V30 8165 O 784.866 -2.0711 -3.44192 0
M  V30 8166 N 783.072 -2.00135 -2.107 0
M  V30 8167 H 782.619 -2.25307 -1.24878 0
M  V30 8168 H 782.577 -1.45933 -2.7848 0
M  V30 8169 N 786.349 -0.21828 -1.56081 0
M  V30 8170 C 787.597 0.413488 -1.97825 0
M  V30 8171 C 787.918 1.60527 -1.10707 0
M  V30 8172 O 787.188 1.9504 -0.183378 0
M  V30 8173 H 785.768 0.155757 -0.730581 0
M  V30 8174 H 788.43 -0.310413 -1.92412 0
M  V30 8175 H 787.526 0.742024 -3.03151 0
M  V30 8176 N 787.827 1.57504 0.0551401 0
M  V30 8177 C 789.238 1.76626 0.604979 0
M  V30 8178 C 789.589 0.845978 1.77024 0
M  V30 8179 O 788.714 0.0341936 2.16373 0
M  V30 8180 C 789.309 3.203 1.10425 0
M  V30 8181 C 787.868 3.4071 1.59981 0
M  V30 8182 C 787.015 2.72258 0.526414 0
M  V30 8183 H 789.966 1.57775 -0.171072 0
M  V30 8184 H 789.987 3.25377 1.97256 0
M  V30 8185 H 789.499 3.87255 0.255939 0
M  V30 8186 H 787.6 2.78892 2.47083 0
M  V30 8187 H 787.713 4.49227 1.66528 0
M  V30 8188 H 786.077 2.35283 0.97539 0
M  V30 8189 H 786.86 3.41879 -0.311991 0
M  V30 8190 N 789.305 -0.326896 1.54172 0
M  V30 8191 C 790.235 -1.40741 1.86317 0
M  V30 8192 C 791.216 -1.54125 0.719684 0
M  V30 8193 O 792.401 -1.6806 0.973117 0
M  V30 8194 C 789.531 -2.77557 2.08757 0
M  V30 8195 C 788.485 -2.78965 3.24596 0
M  V30 8196 C 787.811 -4.18824 3.32401 0
M  V30 8197 C 789.111 -2.4301 4.62324 0
M  V30 8198 H 790.805 -1.14088 2.76811 0
M  V30 8199 H 788.351 -0.547389 1.3319 0
M  V30 8200 H 790.304 -3.53209 2.29829 0
M  V30 8201 H 789.028 -3.0568 1.15009 0
M  V30 8202 H 787.687 -2.05767 3.03406 0
M  V30 8203 H 787.335 -4.44083 2.36218 0
M  V30 8204 H 787.035 -4.20673 4.10253 0
M  V30 8205 H 788.559 -4.96294 3.55703 0
M  V30 8206 H 789.973 -3.08375 4.83299 0
M  V30 8207 H 788.37 -2.56116 5.42701 0
M  V30 8208 H 789.44 -1.38165 4.64799 0
M  V30 8209 N 790.784 -1.46188 -0.588786 0
M  V30 8210 C 791.747 -1.55882 -1.68029 0
M  V30 8211 C 792.747 -0.436515 -1.54762 0
M  V30 8212 O 793.937 -0.700626 -1.59489 0
M  V30 8213 C 791.069 -1.47332 -3.07418 0
M  V30 8214 H 792.262 -2.5315 -1.60795 0
M  V30 8215 H 789.815 -1.33908 -0.806116 0
M  V30 8216 H 790.55 -0.513193 -3.20214 0
M  V30 8217 H 790.335 -2.28753 -3.18456 0
M  V30 8218 H 791.825 -1.57187 -3.86887 0
M  V30 8219 N 792.262 0.832906 -1.33792 0
M  V30 8220 C 793.225 1.92471 -1.24449 0
M  V30 8221 C 794.225 1.59981 -0.162085 0
M  V30 8222 O 795.415 1.69208 -0.414029 0
M  V30 8223 C 792.547 3.28278 -0.919044 0
M  V30 8224 H 793.74 2.0218 -2.21502 0
M  V30 8225 H 791.293 1.0257 -1.17936 0
M  V30 8226 H 792.028 3.24263 0.048738 0
M  V30 8227 H 791.813 3.53241 -1.70187 0
M  V30 8228 H 793.303 4.08253 -0.878576 0
M  V30 8229 N 793.74 1.17359 1.05189 0
M  V30 8230 C 794.987 0.961987 1.78191 0
M  V30 8231 C 795.315 -0.509363 1.87712 0
M  V30 8232 O 794.57 -1.39425 1.37329 0
M  V30 8233 C 794.869 1.54821 3.22126 0
M  V30 8234 C 794.535 3.04378 3.32663 0
M  V30 8235 C 793.197 3.45201 3.35246 0
M  V30 8236 C 795.549 4.00387 3.33677 0
M  V30 8237 C 792.877 4.80629 3.36471 0
M  V30 8238 C 795.229 5.35715 3.36441 0
M  V30 8239 C 793.893 5.76002 3.37311 0
M  V30 8240 H 793.163 0.352016 0.652047 0
M  V30 8241 H 795.81 1.46249 1.23627 0
M  V30 8242 H 794.115 0.969432 3.79617 0
M  V30 8243 H 795.812 1.36004 3.77232 0
M  V30 8244 H 792.402 2.71836 3.31366 0
M  V30 8245 H 796.586 3.69906 3.30882 0
M  V30 8246 H 791.842 5.11155 3.35455 0
M  V30 8247 H 796.016 6.09886 3.36173 0
M  V30 8248 H 793.643 6.80919 3.38013 0
M  V30 8249 N 795.218 -1.23913 0.973828 0
M  V30 8250 C 796.464 -1.92436 0.640026 0
M  V30 8251 C 796.797 -1.75875 -0.823512 0
M  V30 8252 O 796.072 -1.11563 -1.59323 0
M  V30 8253 C 796.355 -3.4526 1.0231 0
M  V30 8254 C 796.208 -3.70961 2.54378 0
M  V30 8255 C 797.527 -4.36495 0.562155 0
M  V30 8256 H 794.646 -0.698868 0.233992 0
M  V30 8257 H 797.288 -1.46163 1.21393 0
M  V30 8258 H 795.438 -3.84802 0.534751 0
M  V30 8259 H 797.11 -3.40941 3.10737 0
M  V30 8260 H 795.353 -3.15899 2.97305 0
M  V30 8261 H 796.024 -4.77912 2.76232 0
M  V30 8262 H 798.5 -4.04363 0.981333 0
M  V30 8263 H 797.376 -5.42142 0.858689 0
M  V30 8264 H 797.637 -4.38818 -0.537659 0
M  V30 8265 N 796.696 -0.74468 -1.38897 0
M  V30 8266 C 797.646 -0.0869375 -2.27834 0
M  V30 8267 C 798.63 0.702553 -1.44751 0
M  V30 8268 O 799.822 0.569972 -1.67572 0
M  V30 8269 C 796.951 0.812232 -3.33553 0
M  V30 8270 C 796.037 0.0163713 -4.24097 0
M  V30 8271 N 796.428 -1.01547 -4.95502 0
M  V30 8272 C 794.726 0.244554 -4.45329 0
M  V30 8273 C 795.427 -1.49622 -5.62128 0
M  V30 8274 N 794.403 -0.813097 -5.37485 0
M  V30 8275 H 798.205 -0.877345 -2.80499 0
M  V30 8276 H 795.719 -0.579898 -1.51694 0
M  V30 8277 H 797.716 1.299 -3.96146 0
M  V30 8278 H 796.376 1.60169 -2.82446 0
M  V30 8279 H 797.387 -1.39707 -4.98701 0
M  V30 8280 H 794.064 1.00806 -4.05147 0
M  V30 8281 H 795.454 -2.35523 -6.29268 0
M  V30 8282 N 798.174 1.49689 -0.493057 0
M  V30 8283 C 799.137 2.27502 0.278485 0
M  V30 8284 C 800.137 1.33184 0.901037 0
M  V30 8285 O 801.327 1.56415 0.766801 0
M  V30 8286 C 798.459 3.10881 1.39878 0
M  V30 8287 H 799.652 2.97163 -0.404219 0
M  V30 8288 H 797.205 1.54324 -0.247774 0
M  V30 8289 H 797.94 2.45767 2.11587 0
M  V30 8290 H 797.725 3.80219 0.957924 0
M  V30 8291 H 799.215 3.69673 1.94247 0
M  V30 8292 N 799.652 0.226554 1.55963 0
M  V30 8293 C 800.582 -0.676079 2.23498 0
M  V30 8294 C 801.563 -1.19718 1.20837 0
M  V30 8295 O 802.748 -1.24027 1.49436 0
M  V30 8296 C 799.878 -1.88217 2.91876 0
M  V30 8297 C 798.832 -1.4947 4.01052 0
M  V30 8298 C 798.158 -2.77997 4.56751 0
M  V30 8299 C 799.458 -0.680951 5.17842 0
M  V30 8300 H 801.152 -0.112989 2.99187 0
M  V30 8301 H 798.698 -0.0529046 1.43903 0
M  V30 8302 H 800.651 -2.51911 3.37815 0
M  V30 8303 H 799.375 -2.47031 2.13643 0
M  V30 8304 H 798.034 -0.881199 3.55852 0
M  V30 8305 H 797.682 -3.34966 3.75243 0
M  V30 8306 H 797.382 -2.52803 5.30438 0
M  V30 8307 H 798.906 -3.42625 5.05411 0
M  V30 8308 H 800.32 -1.22171 5.60131 0
M  V30 8309 H 798.717 -0.525898 5.97791 0
M  V30 8310 H 799.787 0.311346 4.83899 0
M  V30 8311 N 801.13 -1.57531 -0.0467866 0
M  V30 8312 C 802.093 -2.04379 -1.03738 0
M  V30 8313 C 803.093 -0.944881 -1.3011 0
M  V30 8314 O 804.283 -1.20904 -1.25411 0
M  V30 8315 C 801.415 -2.44572 -2.37482 0
M  V30 8316 H 802.608 -2.93142 -0.633063 0
M  V30 8317 H 800.161 -1.53526 -0.293177 0
M  V30 8318 H 800.896 -1.58911 -2.82697 0
M  V30 8319 H 800.681 -3.24785 -2.19675 0
M  V30 8320 H 802.171 -2.81307 -3.08636 0
M  V30 8321 N 802.608 0.318715 -1.54344 0
M  V30 8322 C 803.885 1.07461 -1.63437 0
M  V30 8323 C 804.265 2.05771 -0.47131 0
M  V30 8324 O 803.613 2.22175 0.53391 0
M  V30 8325 C 803.823 1.77224 -3.00654 0
M  V30 8326 C 805.171 2.30069 -3.56866 0
M  V30 8327 O 806.195 1.87284 -3.0299 0
M  V30 8328 O 805.054 3.08412 -4.51159 0
M  V30 8329 H 802.148 0.495627 -0.66203 0
M  V30 8330 H 804.694 0.318218 -1.6669 0
M  V30 8331 H 803.466 1.05742 -3.76742 0
M  V30 8332 H 803.089 2.59662 -3.01101 0
M  V30 8333 N 804.086 1.46499 0.581025 0
M  V30 8334 C 805.332 1.52121 1.34116 0
M  V30 8335 C 805.665 0.173031 1.93428 0
M  V30 8336 O 804.94 -0.815729 1.76568 0
M  V30 8337 C 805.223 2.62108 2.46924 0
M  V30 8338 C 805.076 4.06462 1.92636 0
M  V30 8339 C 806.395 2.68167 3.48962 0
M  V30 8340 H 803.514 0.5538 0.486287 0
M  V30 8341 H 806.156 1.78443 0.652538 0
M  V30 8342 H 804.306 2.39794 3.05665 0
M  V30 8343 H 805.978 4.40068 1.3834 0
M  V30 8344 H 804.221 4.15862 1.23455 0
M  V30 8345 H 804.892 4.79152 2.74076 0
M  V30 8346 H 807.368 2.8823 3.00104 0
M  V30 8347 H 806.244 3.46942 4.2535 0
M  V30 8348 H 806.505 1.74284 4.06297 0
M  V30 8349 N 805.565 -0.825799 1.34232 0
M  V30 8350 C 806.813 -1.57873 1.26177 0
M  V30 8351 C 807.134 -1.94267 -0.168904 0
M  V30 8352 O 806.404 -1.62045 -1.10084 0
M  V30 8353 H 804.984 -0.585388 0.464037 0
M  V30 8354 H 807.646 -0.986163 1.6811 0
M  V30 8355 H 806.742 -2.50283 1.86453 0
M  V30 8356 N 807.043 -1.17915 -1.04565 0
M  V30 8357 C 808.29 -0.971424 -1.77678 0
M  V30 8358 C 808.618 0.499401 -1.87979 0
M  V30 8359 O 807.873 1.38695 -1.38066 0
M  V30 8360 C 808.172 -1.56528 -3.213 0
M  V30 8361 C 807.838 -3.06138 -3.31044 0
M  V30 8362 C 806.5 -3.46974 -3.33411 0
M  V30 8363 C 808.852 -4.02151 -3.31548 0
M  V30 8364 C 806.18 -4.82406 -3.33918 0
M  V30 8365 C 808.532 -5.37492 -3.33595 0
M  V30 8366 C 807.196 -5.77782 -3.34251 0
M  V30 8367 H 806.466 -0.355469 -0.650171 0
M  V30 8368 H 809.113 -1.46902 -1.22849 0
M  V30 8369 H 807.418 -0.98955 -3.79098 0
M  V30 8370 H 809.115 -1.38003 -3.76505 0
M  V30 8371 H 805.705 -2.73589 -3.29919 0
M  V30 8372 H 809.889 -3.71656 -3.28916 0
M  V30 8373 H 805.145 -5.12927 -3.3274 0
M  V30 8374 H 809.319 -6.1166 -3.32934 0
M  V30 8375 H 806.946 -6.82702 -3.34397 0
M  V30 8376 N 808.521 1.23394 -0.980386 0
M  V30 8377 C 809.798 1.87242 -0.565667 0
M  V30 8378 C 810.178 1.88151 0.957197 0
M  V30 8379 O 809.526 1.36309 1.8339 0
M  V30 8380 C 809.736 3.28743 -1.17172 0
M  V30 8381 C 811.084 4.05335 -1.26446 0
M  V30 8382 O 812.108 3.37962 -1.12517 0
M  V30 8383 O 810.967 5.25908 -1.48604 0
M  V30 8384 H 808.061 0.80477 -0.190459 0
M  V30 8385 H 810.607 1.3127 -1.07547 0
M  V30 8386 H 809.379 3.22647 -2.21392 0
M  V30 8387 H 809.002 3.92305 -0.646739 0
M  V30 8388 N 809.999 0.752036 1.385 0
M  V30 8389 C 811.245 0.307958 2.00448 0
M  V30 8390 C 811.578 -1.10702 1.59558 0
M  V30 8391 O 810.853 -1.75788 0.832391 0
M  V30 8392 C 811.136 0.429092 3.57534 0
M  V30 8393 C 810.989 1.88507 4.08393 0
M  V30 8394 C 812.308 -0.178442 4.39738 0
M  V30 8395 H 809.427 0.113373 0.728228 0
M  V30 8396 H 812.069 0.951389 1.64465 0
M  V30 8397 H 810.219 -0.118695 3.88319 0
M  V30 8398 H 811.891 2.49104 3.88259 0
M  V30 8399 H 810.134 2.40066 3.61318 0
M  V30 8400 H 810.805 1.92099 5.17496 0
M  V30 8401 H 813.281 0.28872 4.15097 0
M  V30 8402 H 812.157 -0.0634349 5.48863 0
M  V30 8403 H 812.418 -1.26655 4.23569 0
M  V30 8404 N 811.477 -1.49425 0.500989 0
M  V30 8405 C 812.44 -2.27646 -0.266416 0
M  V30 8406 C 813.44 -1.3366 -0.893961 0
M  V30 8407 O 814.63 -1.5682 -0.758495 0
M  V30 8408 C 811.762 -3.11618 -1.38227 0
M  V30 8409 H 812.955 -2.96945 0.419973 0
M  V30 8410 H 810.508 -1.5419 0.255954 0
M  V30 8411 H 811.243 -2.46885 -2.10281 0
M  V30 8412 H 811.028 -3.80721 -0.937746 0
M  V30 8413 H 812.518 -3.70698 -1.92283 0
M  V30 8414 N 812.955 -0.234822 -1.55841 0
M  V30 8415 C 814.201 0.393843 -1.98939 0
M  V30 8416 C 814.534 1.58466 -1.1226 0
M  V30 8417 O 813.809 1.93635 -0.183242 0
M  V30 8418 C 814.092 0.815492 -3.50745 0
M  V30 8419 C 813.945 -0.379878 -4.48193 0
M  V30 8420 C 815.264 1.66687 -4.07312 0
M  V30 8421 H 812.383 0.141681 -0.723253 0
M  V30 8422 H 815.025 -0.333716 -1.87046 0
M  V30 8423 H 813.175 1.43541 -3.6101 0
M  V30 8424 H 814.847 -1.0182 -4.49923 0
M  V30 8425 H 813.09 -1.02507 -4.21515 0
M  V30 8426 H 813.761 -0.0417069 -5.51984 0
M  V30 8427 H 816.237 1.14369 -4.00074 0
M  V30 8428 H 815.113 1.93078 -5.13821 0
M  V30 8429 H 815.374 2.63468 -3.55017 0
M  V30 8430 N 814.433 1.57553 0.0384317 0
M  V30 8431 C 815.363 2.0898 1.04161 0
M  V30 8432 C 816.344 0.99029 1.38301 0
M  V30 8433 O 817.529 1.26499 1.47349 0
M  V30 8434 C 814.659 2.56145 2.34536 0
M  V30 8435 C 813.613 3.70275 2.14663 0
M  V30 8436 C 812.939 4.03612 3.50715 0
M  V30 8437 C 814.239 4.99067 1.54045 0
M  V30 8438 H 815.933 2.93046 0.613548 0
M  V30 8439 H 813.479 1.40973 0.293684 0
M  V30 8440 H 815.432 2.90741 3.05037 0
M  V30 8441 H 814.156 1.6915 2.79385 0
M  V30 8442 H 812.815 3.36013 1.46597 0
M  V30 8443 H 812.463 3.13698 3.93195 0
M  V30 8444 H 812.163 4.80482 3.38247 0
M  V30 8445 H 813.687 4.40735 4.22593 0
M  V30 8446 H 815.101 5.3168 2.14451 0
M  V30 8447 H 813.498 5.80484 1.52178 0
M  V30 8448 H 814.568 4.8226 0.505259 0
M  V30 8449 N 815.911 -0.310526 1.54511 0
M  V30 8450 C 817.188 -1.06593 1.64004 0
M  V30 8451 C 817.568 -2.05519 0.482216 0
M  V30 8452 O 816.916 -2.22455 -0.52212 0
M  V30 8453 C 817.126 -1.75627 3.01589 0
M  V30 8454 C 818.474 -2.28173 3.58081 0
M  V30 8455 O 819.498 -1.85674 3.03979 0
M  V30 8456 O 818.357 -3.06015 4.52788 0
M  V30 8457 H 815.451 -0.492109 0.664649 0
M  V30 8458 H 817.997 -0.309374 1.66856 0
M  V30 8459 H 816.769 -1.03743 3.77297 0
M  V30 8460 H 816.392 -2.58061 3.02473 0
M  V30 8461 N 817.389 -1.46805 -0.573248 0
M  V30 8462 C 818.619 -1.55965 -1.35494 0
M  V30 8463 C 819.027 -0.203038 -1.88107 0
M  V30 8464 O 818.37 0.81138 -1.6481 0
M  V30 8465 C 818.432 -2.51168 -2.57206 0
M  V30 8466 C 818.096 -3.97211 -2.25993 0
M  V30 8467 C 819.093 -4.86155 -1.84254 0
M  V30 8468 C 816.778 -4.42419 -2.37846 0
M  V30 8469 C 818.772 -6.18323 -1.54776 0
M  V30 8470 C 816.459 -5.74619 -2.0798 0
M  V30 8471 C 817.457 -6.62392 -1.66511 0
M  V30 8472 O 817.145 -7.92137 -1.37016 0
M  V30 8473 H 816.877 -0.529748 -0.419932 0
M  V30 8474 H 819.431 -1.92998 -0.702914 0
M  V30 8475 H 817.661 -2.09171 -3.25245 0
M  V30 8476 H 819.35 -2.50631 -3.19279 0
M  V30 8477 H 820.116 -4.52481 -1.74603 0
M  V30 8478 H 815.995 -3.74319 -2.69085 0
M  V30 8479 H 819.539 -6.8679 -1.22334 0
M  V30 8480 H 815.436 -6.0784 -2.17258 0
M  V30 8481 H 816.204 -8.04492 -1.50782 0
M  V30 8482 N 818.867 0.818669 -1.34668 0
M  V30 8483 C 820.097 1.60441 -1.30162 0
M  V30 8484 C 820.505 1.88783 0.125579 0
M  V30 8485 O 819.848 1.48281 1.08437 0
M  V30 8486 C 819.91 2.96794 -2.02864 0
M  V30 8487 C 819.574 2.91327 -3.52105 0
M  V30 8488 C 820.571 2.65611 -4.4693 0
M  V30 8489 C 818.256 3.10825 -3.9458 0
M  V30 8490 C 820.25 2.59452 -5.82206 0
M  V30 8491 C 817.937 3.0429 -5.29954 0
M  V30 8492 C 818.935 2.78637 -6.23579 0
M  V30 8493 O 818.623 2.72042 -7.56471 0
M  V30 8494 H 818.355 0.505278 -0.449077 0
M  V30 8495 H 820.909 1.02632 -1.77921 0
M  V30 8496 H 819.139 3.56538 -1.49725 0
M  V30 8497 H 820.828 3.57837 -1.91592 0
M  V30 8498 H 821.594 2.50278 -4.15434 0
M  V30 8499 H 817.473 3.29807 -3.221 0
M  V30 8500 H 821.017 2.39349 -6.55254 0
M  V30 8501 H 816.914 3.19177 -5.61067 0
M  V30 8502 H 817.682 2.87738 -7.66257 0
M  V30 8503 N 820.346 1.18468 1.03938 0
M  V30 8504 C 821.256 0.927889 2.1547 0
M  V30 8505 C 822.272 -0.108447 1.73662 0
M  V30 8506 O 823.448 0.0737636 2.01265 0
M  V30 8507 C 820.513 0.458494 3.43655 0
M  V30 8508 C 819.574 1.56295 3.99838 0
M  V30 8509 C 818.807 1.11586 5.21904 0
M  V30 8510 O 819.03 -0.0249057 5.70395 0
M  V30 8511 O 817.964 1.91412 5.70653 0
M  V30 8512 H 821.79 1.86116 2.39989 0
M  V30 8513 H 819.375 0.966607 1.13917 0
M  V30 8514 H 821.257 0.204861 4.20902 0
M  V30 8515 H 819.932 -0.446464 3.20606 0
M  V30 8516 H 818.839 1.87061 3.23974 0
M  V30 8517 H 820.172 2.44408 4.2723 0
M  V30 8518 N 821.824 -1.22873 0.986916 0
M  V30 8519 C 822.774 -2.2237 0.503547 0
M  V30 8520 C 823.758 -1.55186 -0.424998 0
M  V30 8521 O 824.95 -1.75186 -0.252791 0
M  V30 8522 C 822.079 -3.42794 -0.186355 0
M  V30 8523 C 821.165 -4.17196 0.762143 0
M  V30 8524 N 821.556 -4.68453 1.9075 0
M  V30 8525 C 819.854 -4.42255 0.576797 0
M  V30 8526 C 820.555 -5.25126 2.50235 0
M  V30 8527 N 819.531 -5.13437 1.7856 0
M  V30 8528 H 823.333 -2.59636 1.37718 0
M  V30 8529 H 820.847 -1.38476 0.848415 0
M  V30 8530 H 822.844 -4.13256 -0.549993 0
M  V30 8531 H 821.504 -3.07042 -1.05619 0
M  V30 8532 H 822.515 -4.64595 2.28848 0
M  V30 8533 H 819.192 -4.16766 -0.247474 0
M  V30 8534 H 820.582 -5.75363 3.46997 0
M  V30 8535 N 823.302 -0.75937 -1.38099 0
M  V30 8536 C 824.265 -0.14372 -2.28749 0
M  V30 8537 C 825.265 0.641338 -1.47457 0
M  V30 8538 O 826.455 0.466751 -1.67831 0
M  V30 8539 C 823.587 0.804545 -3.3127 0
M  V30 8540 H 824.78 -0.942663 -2.847 0
M  V30 8541 H 822.333 -0.526757 -1.47156 0
M  V30 8542 H 823.068 1.62895 -2.80421 0
M  V30 8543 H 822.853 0.243939 -3.9134 0
M  V30 8544 H 824.343 1.23111 -3.99041 0
M  V30 8545 N 824.78 1.49157 -0.508906 0
M  V30 8546 C 825.713 2.26056 0.312103 0
M  V30 8547 C 826.691 1.30982 0.963456 0
M  V30 8548 O 827.875 1.60286 0.992002 0
M  V30 8549 C 825.002 3.06555 1.4402 0
M  V30 8550 C 824.048 4.16844 0.902414 0
M  V30 8551 S 824.881 5.35076 -0.213087 0
M  V30 8552 C 826.037 6.19132 0.917985 0
M  V30 8553 H 826.27 2.95343 -0.340559 0
M  V30 8554 H 823.803 1.51569 -0.294331 0
M  V30 8555 H 825.761 3.53517 2.08653 0
M  V30 8556 H 824.422 2.36722 2.0645 0
M  V30 8557 H 823.615 4.72714 1.74806 0
M  V30 8558 H 823.217 3.72513 0.333156 0
M  V30 8559 H 825.509 6.52556 1.82145 0
M  V30 8560 H 826.452 7.06982 0.397724 0
M  V30 8561 H 826.86 5.51839 1.18889 0
M  V30 8562 N 826.258 0.243083 1.55714 0
M  V30 8563 C 827.483 -0.389944 2.03701 0
M  V30 8564 C 827.908 -1.51025 1.12129 0
M  V30 8565 O 827.266 -1.80944 0.11352 0
M  V30 8566 C 827.314 -0.878649 3.49731 0
M  V30 8567 O 826.418 -1.98851 3.61292 0
M  V30 8568 H 825.759 -0.0855115 0.658471 0
M  V30 8569 H 828.289 0.368023 2.01263 0
M  V30 8570 H 828.299 -1.18287 3.90477 0
M  V30 8571 H 826.974 -0.0588107 4.15858 0
M  V30 8572 H 825.551 -1.68928 3.32442 0
M  V30 8573 N 827.736 -1.57571 -0.0300757 0
M  V30 8574 C 828.699 -2.05468 -1.01565 0
M  V30 8575 C 829.699 -0.958628 -1.29101 0
M  V30 8576 O 830.889 -1.22228 -1.24121 0
M  V30 8577 C 828.021 -2.47077 -2.34874 0
M  V30 8578 H 829.214 -2.93797 -0.601936 0
M  V30 8579 H 826.767 -1.53828 -0.276878 0
M  V30 8580 H 827.502 -1.61901 -2.80996 0
M  V30 8581 H 827.287 -3.27097 -2.16218 0
M  V30 8582 H 828.777 -2.84564 -3.05635 0
M  V30 8583 N 829.214 0.302327 -1.54673 0
M  V30 8584 C 830.462 1.03565 -1.73547 0
M  V30 8585 C 830.783 1.87843 -0.523448 0
M  V30 8586 O 830.053 1.90367 0.462295 0
M  V30 8587 H 828.633 0.385358 -0.639928 0
M  V30 8588 H 831.295 0.333632 -1.92023 0
M  V30 8589 H 830.391 1.68952 -2.62415 0
M  V30 8590 N 830.692 1.47107 0.565454 0
M  V30 8591 C 831.969 1.43787 1.32607 0
M  V30 8592 C 832.349 0.130428 2.10697 0
M  V30 8593 O 831.697 -0.888086 2.10536 0
M  V30 8594 C 831.907 2.67833 2.23755 0
M  V30 8595 C 833.255 3.14704 2.85037 0
M  V30 8596 O 834.279 2.68503 2.34061 0
M  V30 8597 O 833.138 3.95002 3.77671 0
M  V30 8598 H 830.232 0.572623 0.596684 0
M  V30 8599 H 832.778 1.59296 0.58504 0
M  V30 8600 H 831.55 3.54532 1.65597 0
M  V30 8601 H 831.173 2.54869 3.05168 0
M  V30 8602 N 832.17 -0.811516 1.35101 0
M  V30 8603 C 833.447 -1.55491 1.18667 0
M  V30 8604 C 833.827 -2.09775 -0.236189 0
M  V30 8605 O 833.175 -1.91989 -1.23905 0
M  V30 8606 C 833.385 -2.66732 2.25067 0
M  V30 8607 C 834.733 -3.35201 2.60625 0
M  V30 8608 O 835.757 -2.76998 2.23943 0
M  V30 8609 O 834.616 -4.40334 3.23679 0
M  V30 8610 H 831.71 -0.686783 0.460716 0
M  V30 8611 H 834.256 -0.851903 1.46768 0
M  V30 8612 H 833.028 -2.24457 3.20523 0
M  V30 8613 H 832.651 -3.44673 1.98208 0
M  V30 8614 N 833.648 -1.19017 -1.03309 0
M  V30 8615 C 834.611 -0.926076 -2.09658 0
M  V30 8616 C 835.611 0.0917077 -1.60538 0
M  V30 8617 O 836.801 -0.142574 -1.73616 0
M  V30 8618 C 833.933 -0.390958 -3.38651 0
M  V30 8619 H 835.126 -1.86923 -2.3452 0
M  V30 8620 H 832.679 -1.00325 -1.19853 0
M  V30 8621 H 833.414 0.558446 -3.19456 0
M  V30 8622 H 833.199 -1.12474 -3.75622 0
M  V30 8623 H 834.689 -0.225131 -4.16993 0
M  V30 8624 N 835.127 1.22348 -0.993418 0
M  V30 8625 C 836.059 2.23626 -0.502404 0
M  V30 8626 C 837.072 1.57739 0.402784 0
M  V30 8627 O 838.261 1.77321 0.204835 0
M  V30 8628 C 835.361 3.37647 0.291118 0
M  V30 8629 C 834.534 4.33121 -0.610332 0
M  V30 8630 C 833.593 5.26035 0.131572 0
M  V30 8631 O 832.619 5.67145 -0.483199 0
M  V30 8632 N 833.821 5.63023 1.41371 0
M  V30 8633 H 836.586 2.66385 -1.37329 0
M  V30 8634 H 834.147 1.36653 -0.868196 0
M  V30 8635 H 836.139 3.96792 0.796107 0
M  V30 8636 H 834.709 2.93967 1.0631 0
M  V30 8637 H 833.929 3.72287 -1.29598 0
M  V30 8638 H 835.217 4.93853 -1.22422 0
M  V30 8639 H 834.615 5.31596 1.93449 0
M  V30 8640 H 833.172 6.24582 1.86388 0
M  V30 8641 N 836.605 0.766683 1.37694 0
M  V30 8642 C 837.568 0.155849 2.2867 0
M  V30 8643 C 838.568 -0.633509 1.47795 0
M  V30 8644 O 839.758 -0.457844 1.68076 0
M  V30 8645 C 836.89 -0.786965 3.31692 0
M  V30 8646 H 838.083 0.957748 2.84196 0
M  V30 8647 H 835.636 0.534554 1.46875 0
M  V30 8648 H 836.371 -1.61406 2.8128 0
M  V30 8649 H 836.156 -0.223182 3.91464 0
M  V30 8650 H 837.646 -1.20994 3.99688 0
M  V30 8651 N 838.083 -1.48885 0.516809 0
M  V30 8652 C 839.046 -2.27916 -0.242256 0
M  V30 8653 C 840.046 -1.34601 -0.879735 0
M  V30 8654 O 841.236 -1.57616 -0.74182 0
M  V30 8655 C 838.368 -3.13067 -1.34914 0
M  V30 8656 H 839.561 -2.96483 0.451444 0
M  V30 8657 H 837.114 -1.5391 0.272294 0
M  V30 8658 H 837.849 -2.49102 -2.07651 0
M  V30 8659 H 837.634 -3.81695 -0.897313 0
M  V30 8660 H 839.124 -3.72716 -1.88341 0
M  V30 8661 N 839.561 -0.251338 -1.55583 0
M  V30 8662 C 840.524 0.63305 -2.20284 0
M  V30 8663 C 841.524 1.09941 -1.17344 0
M  V30 8664 O 842.714 1.00341 -1.42399 0
M  V30 8665 C 839.846 1.8706 -2.84993 0
M  V30 8666 H 841.039 0.0684846 -2.99822 0
M  V30 8667 H 838.592 -0.00181653 -1.563 0
M  V30 8668 H 839.327 2.47629 -2.09405 0
M  V30 8669 H 839.112 1.54436 -3.60405 0
M  V30 8670 H 840.602 2.50004 -3.34496 0
M  V30 8671 N 841.039 1.57585 0.0217189 0
M  V30 8672 C 842.269 1.9359 0.721572 0
M  V30 8673 C 842.677 0.850132 1.69025 0
M  V30 8674 O 842.02 -0.181539 1.82801 0
M  V30 8675 C 842.082 3.25445 1.52729 0
M  V30 8676 C 841.746 4.51251 0.722586 0
M  V30 8677 C 842.743 5.19896 0.0196598 0
M  V30 8678 C 840.428 4.97745 0.674959 0
M  V30 8679 C 842.422 6.33319 -0.720114 0
M  V30 8680 C 840.109 6.11062 -0.068555 0
M  V30 8681 C 841.107 6.78704 -0.764845 0
M  V30 8682 O 840.795 7.89852 -1.49627 0
M  V30 8683 H 840.527 0.643409 0.207366 0
M  V30 8684 H 843.081 2.05391 -0.0189346 0
M  V30 8685 H 841.311 3.0999 2.31178 0
M  V30 8686 H 843 3.46721 2.11044 0
M  V30 8687 H 843.766 4.84977 0.0474394 0
M  V30 8688 H 839.645 4.44934 1.20643 0
M  V30 8689 H 843.189 6.86051 -1.26413 0
M  V30 8690 H 839.086 6.45425 -0.0982318 0
M  V30 8691 H 839.854 8.06251 -1.41071 0
M  V30 8692 N 842.517 -0.29412 1.54831 0
M  V30 8693 C 843.763 -1.02999 1.74697 0
M  V30 8694 C 844.096 -1.86687 0.534949 0
M  V30 8695 O 843.371 -1.88789 -0.467863 0
M  V30 8696 C 843.654 -1.93024 3.03996 0
M  V30 8697 C 843.507 -1.1247 4.35512 0
M  V30 8698 C 844.826 -2.92085 3.29203 0
M  V30 8699 H 841.945 -0.373039 0.635618 0
M  V30 8700 H 844.587 -0.304065 1.87551 0
M  V30 8701 H 842.737 -2.5492 2.93169 0
M  V30 8702 H 844.409 -0.528067 4.58268 0
M  V30 8703 H 842.652 -0.427574 4.31688 0
M  V30 8704 H 843.323 -1.78728 5.22265 0
M  V30 8705 H 845.799 -2.40319 3.39685 0
M  V30 8706 H 844.675 -3.52234 4.20978 0
M  V30 8707 H 844.936 -3.66107 2.47827 0
M  V30 8708 N 843.995 -1.47404 -0.557645 0
M  V30 8709 C 844.905 -1.62491 -1.69216 0
M  V30 8710 C 845.921 -0.507764 -1.66426 0
M  V30 8711 O 847.097 -0.775241 -1.85882 0
M  V30 8712 C 844.162 -1.63511 -3.05721 0
M  V30 8713 C 843.223 -2.86648 -3.1958 0
M  V30 8714 C 842.456 -2.87609 -4.49574 0
M  V30 8715 O 842.679 -1.97799 -5.35006 0
M  V30 8716 O 841.613 -3.79465 -4.67215 0
M  V30 8717 H 845.439 -2.58487 -1.59431 0
M  V30 8718 H 843.024 -1.30485 -0.7276 0
M  V30 8719 H 844.906 -1.66863 -3.86956 0
M  V30 8720 H 843.581 -0.706812 -3.15889 0
M  V30 8721 H 842.488 -2.8884 -2.37744 0
M  V30 8722 H 843.821 -3.7877 -3.14316 0
M  V30 8723 N 845.473 0.80434 -1.35529 0
M  V30 8724 C 846.436 1.89788 -1.28503 0
M  V30 8725 C 847.436 1.59601 -0.195983 0
M  V30 8726 O 848.626 1.68292 -0.449827 0
M  V30 8727 C 845.758 3.26255 -0.98847 0
M  V30 8728 H 846.951 1.97436 -2.25741 0
M  V30 8729 H 844.504 1.00046 -1.20086 0
M  V30 8730 H 845.239 3.24294 -0.0200541 0
M  V30 8731 H 845.024 3.49551 -1.77641 0
M  V30 8732 H 846.514 4.06298 -0.964975 0
M  V30 8733 N 846.951 1.19563 1.02676 0
M  V30 8734 C 848.176 1.02556 1.80269 0
M  V30 8735 C 848.601 -0.421056 1.83327 0
M  V30 8736 O 847.959 -1.30279 1.26084 0
M  V30 8737 C 848.007 1.60165 3.23078 0
M  V30 8738 O 847.111 0.832404 4.03912 0
M  V30 8739 H 846.452 0.362354 0.556413 0
M  V30 8740 H 848.982 1.58633 1.29216 0
M  V30 8741 H 848.992 1.6347 3.7382 0
M  V30 8742 H 847.667 2.65454 3.20167 0
M  V30 8743 H 846.244 0.872768 3.62543 0
M  V30 8744 N 848.429 -1.21819 0.999893 0
M  V30 8745 C 849.675 -1.91035 0.680701 0
M  V30 8746 C 850.008 -1.77582 -0.786021 0
M  V30 8747 O 849.283 -1.14917 -1.56921 0
M  V30 8748 C 849.566 -3.43013 1.0961 0
M  V30 8749 C 849.419 -3.65481 2.6219 0
M  V30 8750 C 850.738 -4.35204 0.654616 0
M  V30 8751 H 847.857 -0.693748 0.248763 0
M  V30 8752 H 850.499 -1.43555 1.24466 0
M  V30 8753 H 848.649 -3.83581 0.616253 0
M  V30 8754 H 850.321 -3.34273 3.17899 0
M  V30 8755 H 848.564 -3.09522 3.03938 0
M  V30 8756 H 849.235 -4.71945 2.86307 0
M  V30 8757 H 851.711 -4.0219 1.06688 0
M  V30 8758 H 850.587 -5.40198 0.973492 0
M  V30 8759 H 850.848 -4.3986 -0.444458 0
M  V30 8760 N 849.908 -0.773975 -1.37286 0
M  V30 8761 C 851.136 -0.350758 -2.03905 0
M  V30 8762 C 851.551 1.02779 -1.58373 0
M  V30 8763 O 850.908 1.65646 -0.766009 0
M  V30 8764 C 850.959 -0.387335 -3.59419 0
M  V30 8765 O 850.68 -1.7115 -4.03286 0
M  V30 8766 C 852.181 0.047198 -4.43275 0
M  V30 8767 H 849.401 -0.146663 -0.654775 0
M  V30 8768 H 851.945 -1.04852 -1.75574 0
M  V30 8769 H 850.1 0.261865 -3.86514 0
M  V30 8770 H 850.514 -1.65166 -4.97816 0
M  V30 8771 H 851.988 -0.0295474 -5.51992 0
M  V30 8772 H 852.465 1.09786 -4.25257 0
M  V30 8773 H 853.071 -0.573899 -4.2141 0
M  V30 8774 N 851.386 1.48609 -0.524698 0
M  V30 8775 C 852.635 2.01696 0.0132937 0
M  V30 8776 C 852.948 1.40751 1.35825 0
M  V30 8777 O 854.154 1.85304 1.9843 0
M  V30 8778 C 852.61 3.59824 0.0741012 0
M  V30 8779 C 852.218 4.2975 -1.26564 0
M  V30 8780 C 853.962 4.20774 0.5612 0
M  V30 8781 C 851.869 5.79798 -1.16571 0
M  V30 8782 H 850.799 0.753949 0.00873931 0
M  V30 8783 H 853.45 1.70922 -0.667684 0
M  V30 8784 H 851.832 3.87416 0.820043 0
M  V30 8785 H 853.006 4.13836 -2.02674 0
M  V30 8786 H 851.321 3.80649 -1.68806 0
M  V30 8787 H 853.918 5.30687 0.653853 0
M  V30 8788 H 854.261 3.85734 1.56573 0
M  V30 8789 H 854.794 3.97591 -0.128901 0
M  V30 8790 H 851.533 6.19403 -2.14523 0
M  V30 8791 H 851.053 5.9814 -0.445894 0
M  V30 8792 H 852.732 6.41337 -0.854186 0
M  V30 8793 N 852.864 0.259585 1.55447 0
M  V30 8794 C 853.827 -0.621359 2.20617 0
M  V30 8795 C 854.827 -1.09317 1.17925 0
M  V30 8796 O 856.017 -0.995842 1.42929 0
M  V30 8797 C 853.149 -1.85546 2.85982 0
M  V30 8798 H 854.342 -0.0525833 2.99854 0
M  V30 8799 H 851.895 0.0101055 1.56297 0
M  V30 8800 H 852.63 -2.46515 2.10715 0
M  V30 8801 H 852.415 -1.52523 3.61219 0
M  V30 8802 H 853.905 -2.48227 3.35817 0
M  V30 8803 N 854.342 -1.57594 -0.0133615 0
M  V30 8804 C 855.567 -1.94649 -0.715996 0
M  V30 8805 C 855.992 -0.860786 -1.67249 0
M  V30 8806 O 855.35 0.182228 -1.80382 0
M  V30 8807 C 855.398 -3.30789 -1.43566 0
M  V30 8808 O 854.502 -3.24148 -2.54955 0
M  V30 8809 H 853.843 -0.635801 -0.191449 0
M  V30 8810 H 856.373 -2.04569 0.0358478 0
M  V30 8811 H 856.383 -3.66045 -1.80208 0
M  V30 8812 H 855.058 -4.09367 -0.734263 0
M  V30 8813 H 853.635 -3.00548 -2.20739 0
M  V30 8814 N 855.82 0.285905 -1.54985 0
M  V30 8815 C 857.231 0.857869 -1.65824 0
M  V30 8816 C 857.582 1.87531 -0.576763 0
M  V30 8817 O 856.707 2.14528 0.284016 0
M  V30 8818 C 857.302 1.56277 -3.00604 0
M  V30 8819 C 855.861 2.08294 -3.13513 0
M  V30 8820 C 855.008 0.920633 -2.61571 0
M  V30 8821 H 857.959 0.0625463 -1.58577 0
M  V30 8822 H 857.98 2.42912 -2.92872 0
M  V30 8823 H 857.492 0.822017 -3.79295 0
M  V30 8824 H 855.593 2.8537 -2.39572 0
M  V30 8825 H 855.706 2.3071 -4.19892 0
M  V30 8826 H 854.07 1.31043 -2.18403 0
M  V30 8827 H 854.853 0.193594 -3.42754 0
M  V30 8828 N 857.298 1.47698 0.54982 0
M  V30 8829 C 858.261 1.60282 1.63837 0
M  V30 8830 C 859.261 0.477394 1.5355 0
M  V30 8831 O 860.451 0.742665 1.57576 0
M  V30 8832 C 857.583 1.55431 3.03404 0
M  V30 8833 H 858.776 2.57325 1.54026 0
M  V30 8834 H 856.329 1.35999 0.770329 0
M  V30 8835 H 857.064 0.597912 3.1874 0
M  V30 8836 H 856.849 2.37116 3.12279 0
M  V30 8837 H 858.339 1.6739 3.82584 0
M  V30 8838 N 858.776 -0.797141 1.35954 0
M  V30 8839 C 859.708 -1.91782 1.25509 0
M  V30 8840 C 860.721 -1.61843 0.176271 0
M  V30 8841 O 861.91 -1.73235 0.430343 0
M  V30 8842 C 859.01 -3.26396 0.912073 0
M  V30 8843 C 858.183 -3.84171 2.0912 0
M  V30 8844 C 857.242 -4.9721 1.72246 0
M  V30 8845 O 856.268 -5.14136 2.44239 0
M  V30 8846 N 857.47 -5.76831 0.651611 0
M  V30 8847 H 860.235 -2.01266 2.22063 0
M  V30 8848 H 857.796 -0.975033 1.29247 0
M  V30 8849 H 859.788 -3.99499 0.646707 0
M  V30 8850 H 858.358 -3.12579 0.0359079 0
M  V30 8851 H 857.578 -3.03148 2.51982 0
M  V30 8852 H 858.866 -4.19503 2.87914 0
M  V30 8853 H 858.264 -5.65675 0.0536678 0
M  V30 8854 H 856.821 -6.50272 0.44605 0
M  V30 8855 N 860.254 -1.20106 -1.0204 0
M  V30 8856 C 861.665 -1.00992 -1.57027 0
M  V30 8857 C 862.016 0.434782 -1.91322 0
M  V30 8858 O 861.141 1.31557 -1.71819 0
M  V30 8859 C 861.736 -1.82697 -2.85319 0
M  V30 8860 C 860.295 -1.67959 -3.36848 0
M  V30 8861 C 859.442 -1.80868 -2.10195 0
M  V30 8862 H 862.393 -1.34354 -0.844676 0
M  V30 8863 H 862.414 -1.32809 -3.5657 0
M  V30 8864 H 861.926 -2.87839 -2.60328 0
M  V30 8865 H 860.027 -0.654389 -3.66809 0
M  V30 8866 H 860.14 -2.49006 -4.09308 0
M  V30 8867 H 858.504 -1.24015 -2.22469 0
M  V30 8868 H 859.287 -2.87486 -1.87635 0
M  V30 8869 N 861.732 1.21287 -1.00634 0
M  V30 8870 C 862.98 1.90013 -0.688438 0
M  V30 8871 C 863.301 1.78573 0.783365 0
M  V30 8872 O 862.571 1.1815 1.56261 0
M  V30 8873 H 861.151 0.703336 -0.251648 0
M  V30 8874 H 863.813 1.47346 -1.27574 0
M  V30 8875 H 862.909 2.96879 -0.962781 0
M  V30 8876 N 863.21 0.781244 1.36873 0
M  V30 8877 C 864.12 0.174981 2.33947 0
M  V30 8878 C 865.136 -0.668512 1.60645 0
M  V30 8879 O 866.312 -0.586213 1.9268 0
M  V30 8880 C 863.377 -0.686557 3.39834 0
M  V30 8881 C 862.438 0.174489 4.28945 0
M  V30 8882 C 861.671 -0.646024 5.29776 0
M  V30 8883 O 861.894 -1.88254 5.38439 0
M  V30 8884 O 860.828 -0.0502214 6.01879 0
M  V30 8885 H 864.654 0.977382 2.87543 0
M  V30 8886 H 862.239 0.542559 1.392 0
M  V30 8887 H 864.121 -1.1781 4.04597 0
M  V30 8888 H 862.796 -1.46699 2.8855 0
M  V30 8889 H 861.703 0.712604 3.6725 0
M  V30 8890 H 863.036 0.918232 4.83559 0
M  V30 8891 N 864.689 -1.48329 0.532571 0
M  V30 8892 C 865.652 -2.2816 -0.218069 0
M  V30 8893 C 866.652 -1.35526 -0.865409 0
M  V30 8894 O 867.842 -1.58394 -0.725061 0
M  V30 8895 C 864.974 -3.1448 -1.31586 0
M  V30 8896 H 866.167 -2.95987 0.482865 0
M  V30 8897 H 863.72 -1.53612 0.288603 0
M  V30 8898 H 864.455 -2.5129 -2.04997 0
M  V30 8899 H 864.24 -3.82625 -0.856779 0
M  V30 8900 H 865.73 -3.74693 -1.84377 0
M  V30 8901 N 866.167 -0.267825 -1.55308 0
M  V30 8902 C 867.415 0.350343 -1.9904 0
M  V30 8903 C 867.736 1.56924 -1.15758 0
M  V30 8904 O 867.006 1.94358 -0.245336 0
M  V30 8905 H 865.586 0.132435 -0.735167 0
M  V30 8906 H 868.248 -0.371471 -1.91327 0
M  V30 8907 H 867.344 0.645203 -3.05358 0
M  V30 8908 N 867.645 1.57599 0.00500368 0
M  V30 8909 C 869.061 1.55463 0.361015 0
M  V30 8910 C 869.261 0.997051 1.75103 0
M  V30 8911 O 868.317 0.628661 2.44549 0
M  V30 8912 C 869.63 2.99734 0.240828 0
M  V30 8913 C 871.178 3.11399 0.316138 0
M  V30 8914 C 871.653 4.57446 0.22513 0
M  V30 8915 N 873.144 4.62334 0.283186 0
M  V30 8916 C 873.879 5.72914 0.23603 0
M  V30 8917 N 873.375 6.92659 0.139762 0
M  V30 8918 N 875.168 5.61364 0.287529 0
M  V30 8919 H 867.319 1.92185 -0.904359 0
M  V30 8920 H 869.582 0.882529 -0.34619 0
M  V30 8921 H 869.288 3.44348 -0.715343 0
M  V30 8922 H 869.162 3.63009 1.02491 0
M  V30 8923 H 871.549 2.66718 1.26275 0
M  V30 8924 H 871.63 2.50911 -0.497725 0
M  V30 8925 H 871.274 5.02801 -0.717917 0
M  V30 8926 H 871.204 5.15874 1.05742 0
M  V30 8927 H 873.695 3.7619 0.359123 0
M  V30 8928 H 874.008 7.72722 0.10954 0
M  V30 8929 H 872.353 6.9492 0.105462 0
M  V30 8930 H 875.544 4.66707 0.360897 0
M  V30 8931 H 875.717 6.47528 0.247313 0
M  V30 8932 N 869.123 -0.277682 1.55134 0
M  V30 8933 C 870.073 -1.34531 1.8408 0
M  V30 8934 C 871.057 -1.44904 0.699393 0
M  V30 8935 O 872.249 -1.48664 0.960623 0
M  V30 8936 C 869.378 -2.7064 2.11208 0
M  V30 8937 C 868.464 -2.64396 3.31596 0
M  V30 8938 N 868.855 -2.2777 4.51613 0
M  V30 8939 C 867.153 -2.95464 3.34091 0
M  V30 8940 C 867.854 -2.31401 5.33693 0
M  V30 8941 N 866.83 -2.69688 4.71984 0
M  V30 8942 H 870.632 -1.05214 2.74421 0
M  V30 8943 H 868.146 -0.486311 1.54948 0
M  V30 8944 H 870.143 -3.47649 2.301 0
M  V30 8945 H 868.803 -3.00849 1.22148 0
M  V30 8946 H 869.814 -1.99827 4.77797 0
M  V30 8947 H 866.491 -3.30415 2.5521 0
M  V30 8948 H 867.881 -2.05685 6.39643 0
M  V30 8949 N 870.601 -1.47988 -0.541979 0
M  V30 8950 C 871.564 -1.61148 -1.62984 0
M  V30 8951 C 872.564 -0.48553 -1.53295 0
M  V30 8952 O 873.754 -0.751012 -1.5718 0
M  V30 8953 C 870.886 -1.57038 -3.02576 0
M  V30 8954 H 872.079 -2.58138 -1.52659 0
M  V30 8955 H 869.632 -1.36405 -0.763106 0
M  V30 8956 H 870.367 -0.614807 -3.18419 0
M  V30 8957 H 870.152 -2.38769 -3.11018 0
M  V30 8958 H 871.642 -1.69416 -3.81691 0
M  V30 8959 N 872.079 0.78992 -1.36375 0
M  V30 8960 C 873.304 1.58389 -1.33895 0
M  V30 8961 C 873.729 1.8794 0.0774934 0
M  V30 8962 O 873.087 1.4785 1.0493 0
M  V30 8963 C 873.135 2.88201 -2.16732 0
M  V30 8964 O 872.239 3.81778 -1.55946 0
M  V30 8965 H 871.58 0.480471 -0.458305 0
M  V30 8966 H 874.11 0.979119 -1.79651 0
M  V30 8967 H 874.12 3.37475 -2.29292 0
M  V30 8968 H 872.795 2.66019 -3.19698 0
M  V30 8969 H 871.372 3.40371 -1.52323 0
M  V30 8970 N 873.557 1.20646 1.01402 0
M  V30 8971 C 874.834 0.927176 1.72229 0
M  V30 8972 C 875.214 -0.563382 2.03443 0
M  V30 8973 O 874.562 -1.52576 1.70096 0
M  V30 8974 C 874.772 1.80285 2.98828 0
M  V30 8975 C 876.12 2.04624 3.72041 0
M  V30 8976 O 877.144 1.77559 3.0879 0
M  V30 8977 O 876.003 2.50347 4.85787 0
M  V30 8978 H 873.097 0.346891 0.75073 0
M  V30 8979 H 875.643 1.31532 1.07227 0
M  V30 8980 H 874.415 2.81204 2.72102 0
M  V30 8981 H 874.038 1.41495 3.71571 0
M  V30 8982 N 875.035 -1.20752 1.01276 0
M  V30 8983 C 876.446 -1.7175 0.732033 0
M  V30 8984 C 876.797 -1.8131 -0.749733 0
M  V30 8985 O 875.922 -1.47301 -1.58529 0
M  V30 8986 C 876.517 -3.11936 1.32217 0
M  V30 8987 C 875.076 -3.6026 1.09039 0
M  V30 8988 C 874.223 -2.37571 1.43022 0
M  V30 8989 H 877.174 -1.0582 1.1827 0
M  V30 8990 H 877.195 -3.73802 0.710771 0
M  V30 8991 H 876.707 -3.04946 2.40061 0
M  V30 8992 H 874.808 -3.72588 0.0294464 0
M  V30 8993 H 874.921 -4.45295 1.76775 0
M  V30 8994 H 873.285 -2.40128 0.849159 0
M  V30 8995 H 874.068 -2.33225 2.51915 0
M  V30 8996 N 876.513 -0.788492 -1.36457 0
M  V30 8997 C 877.759 -0.360995 -1.99561 0
M  V30 8998 C 878.092 1.06433 -1.62437 0
M  V30 8999 O 877.367 1.7352 -0.878705 0
M  V30 9000 C 877.65 -0.523735 -3.56271 0
M  V30 9001 C 877.503 -1.99268 -4.03252 0
M  V30 9002 C 878.822 0.0617908 -4.40057 0
M  V30 9003 H 875.941 -0.13264 -0.724966 0
M  V30 9004 H 878.583 -0.994659 -1.61884 0
M  V30 9005 H 876.733 0.0156979 -3.88497 0
M  V30 9006 H 878.405 -2.59311 -3.81518 0
M  V30 9007 H 876.648 -2.49561 -3.54826 0
M  V30 9008 H 877.319 -2.05752 -5.12221 0
M  V30 9009 H 879.795 -0.398674 -4.14186 0
M  V30 9010 H 878.671 -0.0821089 -5.48839 0
M  V30 9011 H 878.932 1.15381 -4.26778 0
M  V30 9012 N 877.991 1.48044 -0.54043 0
M  V30 9013 C 879.219 2.06895 -0.0145153 0
M  V30 9014 C 879.634 1.39552 1.27164 0
M  V30 9015 O 878.991 0.486454 1.75897 0
M  V30 9016 C 879.042 3.60934 0.202278 0
M  V30 9017 O 878.763 4.25749 -1.03293 0
M  V30 9018 C 880.264 4.36607 0.767387 0
M  V30 9019 H 877.484 0.66991 -0.0382368 0
M  V30 9020 H 880.028 1.90288 -0.749057 0
M  V30 9021 H 878.183 3.77111 0.886897 0
M  V30 9022 H 878.597 5.18048 -0.820167 0
M  V30 9023 H 880.071 5.45126 0.86845 0
M  V30 9024 H 880.548 4.01745 1.77477 0
M  V30 9025 H 881.154 4.25133 0.119002 0
M  V30 9026 N 879.47 0.276058 1.55163 0
M  V30 9027 C 880.719 -0.341098 1.98795 0
M  V30 9028 C 881.032 -1.56905 1.16791 0
M  V30 9029 O 882.238 -2.25922 1.50571 0
M  V30 9030 C 880.694 -0.658231 3.5383 0
M  V30 9031 C 880.302 0.549972 4.44611 0
M  V30 9032 C 882.046 -1.23796 4.06048 0
M  V30 9033 C 879.953 0.207373 5.91036 0
M  V30 9034 H 878.883 -0.131224 0.742493 0
M  V30 9035 H 881.534 0.380858 1.79504 0
M  V30 9036 H 879.916 -1.43911 3.68925 0
M  V30 9037 H 881.09 1.32681 4.41285 0
M  V30 9038 H 879.405 1.04661 4.03032 0
M  V30 9039 H 882.002 -1.50811 5.12991 0
M  V30 9040 H 882.345 -2.17214 3.55139 0
M  V30 9041 H 882.878 -0.519345 3.94395 0
M  V30 9042 H 879.617 1.10946 6.46043 0
M  V30 9043 H 879.137 -0.532687 5.9743 0
M  V30 9044 H 880.816 -0.200072 6.46691 0
M  V30 9045 N 880.948 -1.576 0.00335426 0
M  V30 9046 C 881.911 -2.07576 -0.971838 0
M  V30 9047 C 882.911 -0.985796 -1.27038 0
M  V30 9048 O 884.101 -1.24833 -1.21501 0
M  V30 9049 C 881.233 -2.52003 -2.29581 0
M  V30 9050 H 882.426 -2.95008 -0.539481 0
M  V30 9051 H 879.979 -1.54381 -0.244186 0
M  V30 9052 H 880.714 -1.67825 -2.77498 0
M  V30 9053 H 880.499 -3.31609 -2.09231 0
M  V30 9054 H 881.989 -2.90983 -2.99531 0
M  V30 9055 N 882.426 0.269451 -1.5528 0
M  V30 9056 C 883.651 1.02299 -1.80415 0
M  V30 9057 C 884.076 1.7902 -0.577363 0
M  V30 9058 O 883.434 1.75018 0.473125 0
M  V30 9059 C 883.482 1.95445 -3.0304 0
M  V30 9060 O 882.586 3.04271 -2.78375 0
M  V30 9061 H 881.927 0.292289 -0.596207 0
M  V30 9062 H 884.457 0.297282 -2.02429 0
M  V30 9063 H 884.467 2.37333 -3.31869 0
M  V30 9064 H 883.142 1.39017 -3.91978 0
M  V30 9065 H 881.719 2.66673 -2.60653 0
M  V30 9066 N 883.904 1.48273 0.534124 0
M  V30 9067 C 885.315 1.49667 1.1161 0
M  V30 9068 C 885.666 0.264139 1.94414 0
M  V30 9069 O 884.791 -0.629084 2.07054 0
M  V30 9070 C 885.386 2.71191 2.03079 0
M  V30 9071 C 883.945 2.7547 2.56502 0
M  V30 9072 C 883.092 2.43119 1.33373 0
M  V30 9073 H 886.043 1.55449 0.319578 0
M  V30 9074 H 886.064 2.49473 2.87304 0
M  V30 9075 H 885.576 3.60879 1.42785 0
M  V30 9076 H 883.677 1.89979 3.20529 0
M  V30 9077 H 883.79 3.76787 2.95919 0
M  V30 9078 H 882.154 1.94187 1.64813 0
M  V30 9079 H 882.937 3.35044 0.748375 0
M  V30 9080 N 885.382 -0.782676 1.36792 0
M  V30 9081 C 886.345 -1.8772 1.31507 0
M  V30 9082 C 887.345 -1.59269 0.221349 0
M  V30 9083 O 888.535 -1.67555 0.476544 0
M  V30 9084 C 885.667 -3.24641 1.04025 0
M  V30 9085 H 886.86 -1.9382 2.28853 0
M  V30 9086 H 884.413 -0.981226 1.21662 0
M  V30 9087 H 885.148 -3.24221 0.0716439 0
M  V30 9088 H 884.933 -3.46681 1.8318 0
M  V30 9089 H 886.423 -4.04711 1.02949 0
M  V30 9090 N 886.86 -1.21182 -1.00761 0
M  V30 9091 C 887.792 -0.926523 -2.09638 0
M  V30 9092 C 888.805 0.0892511 -1.62555 0
M  V30 9093 O 889.994 -0.142915 -1.77927 0
M  V30 9094 C 887.094 -0.369175 -3.36883 0
M  V30 9095 C 886.267 -1.43866 -4.13063 0
M  V30 9096 C 885.326 -0.891015 -5.18601 0
M  V30 9097 O 884.352 -1.57384 -5.47009 0
M  V30 9098 N 885.554 0.295057 -5.7975 0
M  V30 9099 H 888.319 -1.8638 -2.34697 0
M  V30 9100 H 885.88 -1.11671 -1.17223 0
M  V30 9101 H 887.872 0.011534 -4.04698 0
M  V30 9102 H 886.442 0.472861 -3.09003 0
M  V30 9103 H 885.662 -1.99332 -3.40089 0
M  V30 9104 H 886.95 -2.15866 -4.60738 0
M  V30 9105 H 886.348 0.8669 -5.59018 0
M  V30 9106 H 884.905 0.617306 -6.4887 0
M  V30 9107 N 888.338 1.20213 -1.01915 0
M  V30 9108 C 889.749 1.7136 -0.741131 0
M  V30 9109 C 890.1 1.81705 0.740107 0
M  V30 9110 O 889.225 1.48139 1.57746 0
M  V30 9111 C 889.82 3.11231 -1.33869 0
M  V30 9112 C 888.379 3.59677 -1.10948 0
M  V30 9113 C 887.526 2.36809 -1.4428 0
M  V30 9114 H 890.477 1.05191 -1.1883 0
M  V30 9115 H 890.498 3.7342 -0.730585 0
M  V30 9116 H 890.01 3.03669 -2.41675 0
M  V30 9117 H 888.111 3.72568 -0.0492052 0
M  V30 9118 H 888.224 4.44351 -1.79134 0
M  V30 9119 H 886.588 2.39674 -0.861881 0
M  V30 9120 H 887.371 2.31886 -2.53148 0
M  V30 9121 N 889.816 0.795718 1.36037 0
M  V30 9122 C 891.064 0.370291 1.98679 0
M  V30 9123 C 891.385 -1.06332 1.63458 0
M  V30 9124 O 890.655 -1.73394 0.911671 0
M  V30 9125 H 889.235 0.133928 0.734896 0
M  V30 9126 H 891.897 1.01915 1.6613 0
M  V30 9127 H 890.993 0.467207 3.08583 0
M  V30 9128 N 891.294 -1.47756 0.548274 0
M  V30 9129 C 892.204 -2.33678 -0.207773 0
M  V30 9130 C 893.22 -1.47636 -0.920843 0
M  V30 9131 O 894.396 -1.80583 -0.89173 0
M  V30 9132 C 891.461 -3.24147 -1.23003 0
M  V30 9133 C 890.522 -4.26073 -0.52535 0
M  V30 9134 C 889.755 -5.12219 -1.4989 0
M  V30 9135 O 889.978 -5.0066 -2.73305 0
M  V30 9136 O 888.912 -5.93051 -1.02828 0
M  V30 9137 H 892.738 -2.99609 0.496794 0
M  V30 9138 H 890.323 -1.4617 0.308982 0
M  V30 9139 H 892.205 -3.80055 -1.82034 0
M  V30 9140 H 890.88 -2.60855 -1.91668 0
M  V30 9141 H 889.787 -3.7395 0.105927 0
M  V30 9142 H 891.12 -4.92054 0.119686 0
M  V30 9143 N 892.772 -0.284283 -1.55015 0
M  V30 9144 C 893.735 0.586182 -2.21577 0
M  V30 9145 C 894.735 1.07427 -1.1965 0
M  V30 9146 O 895.925 0.972977 -1.44495 0
M  V30 9147 C 893.057 1.80973 -2.88897 0
M  V30 9148 H 894.25 0.00487253 -2.999 0
M  V30 9149 H 891.803 -0.0349696 -1.56261 0
M  V30 9150 H 892.538 2.43131 -2.14611 0
M  V30 9151 H 892.323 1.46757 -3.636 0
M  V30 9152 H 893.813 2.42853 -3.39724 0
M  V30 9153 N 894.251 1.57596 -0.0117121 0
M  V30 9154 C 895.499 1.90694 0.669342 0
M  V30 9155 C 895.82 0.886999 1.73659 0
M  V30 9156 O 895.09 -0.0739779 1.9576 0
M  V30 9157 H 893.67 0.703846 0.250219 0
M  V30 9158 H 896.332 1.94821 -0.0554057 0
M  V30 9159 H 895.428 2.90802 1.13316 0
M  V30 9160 N 895.729 -0.261212 1.5542 0
M  V30 9161 C 897.145 -0.609012 1.47524 0
M  V30 9162 C 897.345 -1.88986 0.699042 0
M  V30 9163 O 896.401 -2.51517 0.222628 0
M  V30 9164 C 897.714 -0.725025 2.91828 0
M  V30 9165 C 899.262 -0.818302 3.02114 0
M  V30 9166 C 899.737 -0.965996 4.47697 0
M  V30 9167 N 901.228 -1.03123 4.51575 0
M  V30 9168 C 901.963 -1.16451 5.6145 0
M  V30 9169 N 901.459 -1.26425 6.81167 0
M  V30 9170 N 903.252 -1.19655 5.49217 0
M  V30 9171 H 895.403 0.579807 2.04333 0
M  V30 9172 H 897.666 0.198072 0.927077 0
M  V30 9173 H 897.372 0.145871 3.51397 0
M  V30 9174 H 897.246 -1.60156 3.41511 0
M  V30 9175 H 899.633 -1.67966 2.42634 0
M  V30 9176 H 899.714 0.0830895 2.55665 0
M  V30 9177 H 899.358 -0.109251 5.07782 0
M  V30 9178 H 899.288 -1.88221 4.91813 0
M  V30 9179 H 901.779 -0.966072 3.65343 0
M  V30 9180 H 902.092 -1.36462 7.60656 0
M  V30 9181 H 900.437 -1.23408 6.83956 0
M  V30 9182 H 903.628 -1.11501 4.54626 0
M  V30 9183 H 903.801 -1.29698 6.34888 0
M  V30 9184 N 897.207 -1.48554 -0.526253 0
M  V30 9185 C 898.157 -1.59753 -1.62674 0
M  V30 9186 C 899.141 -0.454452 -1.54349 0
M  V30 9187 O 900.333 -0.706091 -1.62306 0
M  V30 9188 C 897.462 -1.64388 -3.01383 0
M  V30 9189 C 896.548 -2.84188 -3.14798 0
M  V30 9190 N 896.939 -4.08564 -2.98176 0
M  V30 9191 C 895.237 -2.81599 -3.45859 0
M  V30 9192 C 895.938 -4.88961 -3.15106 0
M  V30 9193 N 894.914 -4.21848 -3.42849 0
M  V30 9194 H 898.716 -2.5366 -1.48438 0
M  V30 9195 H 896.23 -1.44977 -0.731801 0
M  V30 9196 H 898.227 -1.70505 -3.80439 0
M  V30 9197 H 896.887 -0.716006 -3.16707 0
M  V30 9198 H 897.898 -4.38943 -2.74862 0
M  V30 9199 H 894.575 -1.98083 -3.67518 0
M  V30 9200 H 895.965 -5.97683 -3.0696 0
M  V30 9201 N 898.685 0.775411 -1.37205 0
M  V30 9202 C 899.648 1.8702 -1.325 0
M  V30 9203 C 900.648 1.5915 -0.229793 0
M  V30 9204 O 901.838 1.673 -0.485423 0
M  V30 9205 C 898.97 3.24085 -1.05745 0
M  V30 9206 H 900.163 1.92604 -2.29878 0
M  V30 9207 H 897.716 0.97476 -1.22181 0
M  V30 9208 H 898.451 3.24178 -0.0888371 0
M  V30 9209 H 898.236 3.45705 -1.85016 0
M  V30 9210 H 899.726 4.0416 -1.05094 0
M  V30 9211 N 900.163 1.21714 1.00117 0
M  V30 9212 C 901.388 1.06357 1.78054 0
M  V30 9213 C 901.813 -0.382075 1.84179 0
M  V30 9214 O 901.171 -1.27575 1.28819 0
M  V30 9215 C 901.219 1.66982 3.19608 0
M  V30 9216 O 900.323 0.917892 4.02055 0
M  V30 9217 H 899.664 0.374074 0.548602 0
M  V30 9218 H 902.194 1.61338 1.25822 0
M  V30 9219 H 902.204 1.71363 3.70268 0
M  V30 9220 H 900.879 2.72185 3.14465 0
M  V30 9221 H 899.456 0.949473 3.6061 0
M  V30 9222 N 901.641 -1.19671 1.02551 0
M  V30 9223 C 902.918 -1.85014 0.634771 0
M  V30 9224 C 903.298 -1.91574 -0.886706 0
M  V30 9225 O 902.646 -1.43022 -1.78205 0
M  V30 9226 C 902.856 -3.24167 1.29292 0
M  V30 9227 C 904.204 -4.00363 1.41402 0
M  V30 9228 O 905.228 -3.33553 1.24983 0
M  V30 9229 O 904.087 -5.2003 1.6802 0
M  V30 9230 H 901.181 -0.797147 0.220196 0
M  V30 9231 H 903.727 -1.27188 1.12345 0
M  V30 9232 H 902.499 -3.14208 2.33215 0
M  V30 9233 H 902.122 -3.89634 0.791895 0
M  V30 9234 N 903.119 -0.802921 -1.35613 0
M  V30 9235 C 904.53 -0.443004 -1.81368 0
M  V30 9236 C 904.881 1.03459 -1.66706 0
M  V30 9237 O 904.006 1.80372 -1.19561 0
M  V30 9238 C 904.601 -0.797324 -3.29284 0
M  V30 9239 C 903.16 -0.490055 -3.73196 0
M  V30 9240 C 902.307 -1.02487 -2.57666 0
M  V30 9241 H 905.258 -0.994888 -1.23643 0
M  V30 9242 H 905.279 -0.0934638 -3.80385 0
M  V30 9243 H 904.791 -1.87278 -3.39924 0
M  V30 9244 H 902.892 0.576818 -3.68108 0
M  V30 9245 H 903.005 -1.02012 -4.68114 0
M  V30 9246 H 901.369 -0.44738 -2.5074 0
M  V30 9247 H 902.152 -2.10636 -2.71085 0
M  V30 9248 N 904.597 1.47463 -0.556102 0
M  V30 9249 C 905.843 2.02775 -0.0316806 0
M  V30 9250 C 906.176 1.42967 1.3143 0
M  V30 9251 O 905.451 0.584847 1.85499 0
M  V30 9252 C 905.734 3.60046 0.0625742 0
M  V30 9253 C 905.587 4.30288 -1.31043 0
M  V30 9254 C 906.906 4.33195 0.776553 0
M  V30 9255 H 904.025 0.736886 -0.0129869 0
M  V30 9256 H 906.667 1.75904 -0.718177 0
M  V30 9257 H 904.817 3.83071 0.647231 0
M  V30 9258 H 906.489 4.18607 -1.9382 0
M  V30 9259 H 904.732 3.90685 -1.8854 0
M  V30 9260 H 905.403 5.38861 -1.1972 0
M  V30 9261 H 907.879 4.15156 0.280147 0
M  V30 9262 H 906.755 5.42869 0.81146 0
M  V30 9263 H 907.016 4.02336 1.83244 0
M  V30 9264 N 906.075 0.2925 1.54862 0
M  V30 9265 C 907.303 -0.322113 2.04377 0
M  V30 9266 C 907.718 -1.48164 1.17016 0
M  V30 9267 O 907.075 -1.81466 0.19395 0
M  V30 9268 C 907.126 -0.786506 3.5284 0
M  V30 9269 O 906.847 0.326863 4.36879 0
M  V30 9270 C 908.348 -1.46715 4.18318 0
M  V30 9271 H 905.568 -0.0712074 0.667211 0
M  V30 9272 H 908.112 0.429657 1.99935 0
M  V30 9273 H 906.267 -1.48832 3.5767 0
M  V30 9274 H 906.681 -0.0331558 5.2449 0
M  V30 9275 H 908.155 -1.74333 5.23748 0
M  V30 9276 H 908.632 -2.40443 3.67538 0
M  V30 9277 H 909.238 -0.808735 4.1754 0
M  V30 9278 N 907.553 -1.57587 0.0200696 0
M  V30 9279 C 908.778 -1.96124 -0.674547 0
M  V30 9280 C 909.203 -0.896068 -1.65385 0
M  V30 9281 O 908.561 0.143925 -1.80728 0
M  V30 9282 C 908.609 -3.3376 -1.36517 0
M  V30 9283 O 907.713 -3.29483 -2.48022 0
M  V30 9284 H 907.054 -0.639719 -0.177919 0
M  V30 9285 H 909.584 -2.04447 0.0792317 0
M  V30 9286 H 909.594 -3.69785 -1.72403 0
M  V30 9287 H 908.269 -4.10832 -0.647265 0
M  V30 9288 H 906.846 -3.05162 -2.14314 0
M  V30 9289 N 909.032 0.252966 -1.55557 0
M  V30 9290 C 909.979 1.3131 -1.89806 0
M  V30 9291 C 910.949 1.48121 -0.751633 0
M  V30 9292 O 912.134 1.62202 -1.00474 0
M  V30 9293 C 909.274 2.66467 -2.19293 0
M  V30 9294 C 908.387 2.57714 -3.46709 0
M  V30 9295 C 907.522 3.85184 -3.65796 0
M  V30 9296 C 906.561 3.71023 -4.86835 0
M  V30 9297 N 905.698 4.90371 -5.02474 0
M  V30 9298 H 910.538 1.01402 -2.80217 0
M  V30 9299 H 908.075 0.489462 -1.38718 0
M  V30 9300 H 910.033 3.45132 -2.34392 0
M  V30 9301 H 908.663 2.94536 -1.32093 0
M  V30 9302 H 907.715 1.70651 -3.39974 0
M  V30 9303 H 909.027 2.43158 -4.35517 0
M  V30 9304 H 908.181 4.72292 -3.80822 0
M  V30 9305 H 906.92 4.0263 -2.7521 0
M  V30 9306 H 905.925 2.82299 -4.71792 0
M  V30 9307 H 907.15 3.55078 -5.78875 0
M  V30 9308 H 905.096 5.0819 -4.14824 0
M  V30 9309 H 905.013 4.78423 -5.85361 0
M  V30 9310 H 906.281 5.78995 -5.21905 0
M  V30 9311 N 910.51 1.48831 0.518367 0
M  V30 9312 C 911.738 1.6112 1.298 0
M  V30 9313 C 912.153 0.275872 1.86774 0
M  V30 9314 O 911.51 -0.736416 1.66983 0
M  V30 9315 C 911.561 2.66675 2.44063 0
M  V30 9316 O 911.282 3.95027 1.89434 0
M  V30 9317 C 912.783 2.8951 3.35706 0
M  V30 9318 H 910.003 0.542916 0.394314 0
M  V30 9319 H 912.547 1.94743 0.624142 0
M  V30 9320 H 910.702 2.35879 3.07311 0
M  V30 9321 H 911.116 4.53031 2.64316 0
M  V30 9322 H 912.59 3.67142 4.12202 0
M  V30 9323 H 913.067 1.98768 3.91648 0
M  V30 9324 H 913.673 3.21656 2.7824 0
M  V30 9325 N 911.988 -0.768124 1.37614 0
M  V30 9326 C 913.234 -1.52907 1.33219 0
M  V30 9327 C 913.567 -1.94026 -0.0821218 0
M  V30 9328 O 912.842 -1.64345 -1.04023 0
M  V30 9329 C 913.125 -2.79164 2.27463 0
M  V30 9330 C 912.978 -2.44276 3.7769 0
M  V30 9331 C 914.297 -3.81115 2.20089 0
M  V30 9332 H 911.416 -0.554712 0.485246 0
M  V30 9333 H 914.058 -0.880911 1.68345 0
M  V30 9334 H 912.208 -3.34472 1.97639 0
M  V30 9335 H 913.88 -1.94855 4.18126 0
M  V30 9336 H 912.123 -1.76925 3.96081 0
M  V30 9337 H 912.794 -3.34544 4.39072 0
M  V30 9338 H 915.27 -3.35311 2.46386 0
M  V30 9339 H 914.146 -4.67174 2.88166 0
M  V30 9340 H 914.407 -4.25644 1.19498 0
M  V30 9341 N 913.466 -1.22244 -0.994698 0
M  V30 9342 C 914.712 -1.05752 -1.73747 0
M  V30 9343 C 915.067 0.403416 -1.88123 0
M  V30 9344 O 914.36 1.29511 -1.412 0
M  V30 9345 C 914.554 -1.70014 -3.14372 0
M  V30 9346 C 914.383 -3.22205 -3.1371 0
M  V30 9347 C 913.153 -3.91301 -3.19705 0
M  V30 9348 C 915.351 -4.19163 -2.98005 0
M  V30 9349 N 913.333 -5.30594 -3.08778 0
M  V30 9350 C 914.704 -5.45274 -2.95087 0
M  V30 9351 C 916.759 -4.10078 -2.82383 0
M  V30 9352 C 915.462 -6.63345 -2.78146 0
M  V30 9353 C 917.488 -5.27797 -2.66803 0
M  V30 9354 C 916.85 -6.52826 -2.6457 0
M  V30 9355 H 912.949 -0.441393 -0.64552 0
M  V30 9356 H 915.533 -1.54757 -1.18146 0
M  V30 9357 H 913.704 -1.23562 -3.68221 0
M  V30 9358 H 915.436 -1.46631 -3.77202 0
M  V30 9359 H 912.191 -3.42289 -3.27315 0
M  V30 9360 H 912.615 -6.0358 -3.06628 0
M  V30 9361 H 917.257 -3.14201 -2.82909 0
M  V30 9362 H 914.975 -7.59373 -2.76367 0
M  V30 9363 H 918.561 -5.22598 -2.557 0
M  V30 9364 H 917.441 -7.42383 -2.5266 0
M  V30 9365 N 914.944 1.19125 -1.03184 0
M  V30 9366 C 916.192 1.8851 -0.728587 0
M  V30 9367 C 916.513 1.80195 0.74531 0
M  V30 9368 O 915.783 1.21437 1.5372 0
M  V30 9369 H 914.363 0.69784 -0.266511 0
M  V30 9370 H 917.025 1.44607 -1.3067 0
M  V30 9371 H 916.121 2.9477 -1.02554 0
M  V30 9372 N 916.422 0.810101 1.35185 0
M  V30 9373 C 917.668 0.392698 1.98962 0
M  V30 9374 C 918.001 -1.03835 1.64109 0
M  V30 9375 O 917.276 -1.721 0.9062 0
M  V30 9376 C 917.559 0.580349 3.55393 0
M  V30 9377 C 917.412 2.05658 4.00031 0
M  V30 9378 C 918.731 0.00822618 4.40099 0
M  V30 9379 H 915.85 0.144157 0.722764 0
M  V30 9380 H 918.492 1.02029 1.60281 0
M  V30 9381 H 916.642 0.0461106 3.88473 0
M  V30 9382 H 918.314 2.65348 3.77344 0
M  V30 9383 H 916.557 2.55174 3.50811 0
M  V30 9384 H 917.228 2.13875 5.08883 0
M  V30 9385 H 919.704 0.464517 4.13499 0
M  V30 9386 H 918.58 0.169414 5.48638 0
M  V30 9387 H 918.841 -1.08576 4.2856 0
M  V30 9388 N 917.9 -1.47166 0.563914 0
M  V30 9389 C 919.148 -2.02056 0.0422873 0
M  V30 9390 C 919.469 -1.43992 -1.31497 0
M  V30 9391 O 918.739 -0.617578 -1.85911 0
M  V30 9392 H 917.319 -0.746893 0.0126427 0
M  V30 9393 H 919.981 -1.80492 0.735441 0
M  V30 9394 H 919.077 -3.12073 -0.0408044 0
M  V30 9395 N 919.378 -0.300708 -1.54705 0
M  V30 9396 C 920.627 0.309428 -1.99312 0
M  V30 9397 C 920.94 1.55027 -1.19272 0
M  V30 9398 O 922.146 2.23498 -1.54146 0
M  V30 9399 C 920.602 0.601856 -3.54832 0
M  V30 9400 C 920.21 -0.620636 -4.4368 0
M  V30 9401 C 921.954 1.1732 -4.07966 0
M  V30 9402 C 919.861 -0.301376 -5.90632 0
M  V30 9403 H 918.791 0.119395 -0.744487 0
M  V30 9404 H 921.442 -0.409368 -1.78875 0
M  V30 9405 H 919.824 1.38024 -3.71168 0
M  V30 9406 H 920.998 -1.39685 -4.39118 0
M  V30 9407 H 919.313 -1.1106 -4.01316 0
M  V30 9408 H 921.91 1.42631 -5.15326 0
M  V30 9409 H 922.253 2.11537 -3.5855 0
M  V30 9410 H 922.786 0.456534 -3.95172 0
M  V30 9411 H 919.525 -1.21209 -6.44196 0
M  V30 9412 H 919.045 0.437574 -5.98202 0
M  V30 9413 H 920.724 0.097164 -6.46927 0
M  V30 9414 N 920.856 1.57574 -0.0284266 0
M  V30 9415 C 921.819 2.09096 0.938691 0
M  V30 9416 C 922.819 1.00588 1.25454 0
M  V30 9417 O 924.009 1.2675 1.19499 0
M  V30 9418 C 921.141 2.55624 2.25542 0
M  V30 9419 H 922.334 2.95829 0.49248 0
M  V30 9420 H 919.887 1.5475 0.219594 0
M  V30 9421 H 920.622 1.72218 2.74793 0
M  V30 9422 H 920.407 3.34896 2.03929 0
M  V30 9423 H 921.897 2.95712 2.94863 0
M  V30 9424 N 922.334 -0.244713 1.55689 0
M  V30 9425 C 923.745 -0.813603 1.6804 0
M  V30 9426 C 924.096 -1.85936 0.626281 0
M  V30 9427 O 923.221 -2.15206 -0.227038 0
M  V30 9428 C 923.816 -1.48252 3.04642 0
M  V30 9429 C 922.375 -1.99908 3.18926 0
M  V30 9430 C 921.522 -0.850958 2.6392 0
M  V30 9431 H 924.473 -0.0204805 1.58687 0
M  V30 9432 H 924.494 -2.35062 2.99209 0
M  V30 9433 H 924.006 -0.721164 3.81341 0
M  V30 9434 H 922.107 -2.78918 2.47054 0
M  V30 9435 H 922.22 -2.19497 4.25862 0
M  V30 9436 H 920.584 -1.25206 2.21801 0
M  V30 9437 H 921.367 -0.10265 3.43146 0
M  V30 9438 N 923.813 -1.49104 -0.510467 0
M  V30 9439 C 925.038 -1.62068 -1.29417 0
M  V30 9440 C 925.463 -0.288432 -1.85875 0
M  V30 9441 O 924.821 0.742667 -1.65391 0
M  V30 9442 C 924.869 -2.68506 -2.40701 0
M  V30 9443 O 923.973 -2.27021 -3.4429 0
M  V30 9444 H 923.314 -0.542778 -0.382476 0
M  V30 9445 H 925.844 -1.95228 -0.612154 0
M  V30 9446 H 925.854 -2.90383 -2.86604 0
M  V30 9447 H 924.529 -3.65216 -1.98973 0
M  V30 9448 H 923.106 -2.15436 -3.04371 0
M  V30 9449 N 925.291 0.760815 -1.38019 0
M  V30 9450 C 926.54 1.51506 -1.3315 0
M  V30 9451 C 926.853 1.95444 0.0782124 0
M  V30 9452 O 928.059 2.70352 0.249418 0
M  V30 9453 C 926.515 2.73636 -2.33776 0
M  V30 9454 C 926.123 2.36753 -3.80332 0
M  V30 9455 C 927.867 3.51548 -2.37937 0
M  V30 9456 C 925.774 3.55451 -4.72661 0
M  V30 9457 H 924.704 0.568844 -0.494907 0
M  V30 9458 H 927.355 0.832343 -1.63537 0
M  V30 9459 H 925.737 3.43852 -1.96422 0
M  V30 9460 H 926.911 1.7425 -4.26584 0
M  V30 9461 H 925.226 1.71991 -3.7922 0
M  V30 9462 H 927.823 4.39791 -3.04119 0
M  V30 9463 H 928.166 3.9219 -1.39617 0
M  V30 9464 H 928.699 2.88339 -2.74054 0
M  V30 9465 H 925.438 3.19882 -5.7215 0
M  V30 9466 H 924.958 4.17022 -4.31107 0
M  V30 9467 H 926.637 4.22125 -4.90326 0
M  V30 9468 N 926.769 1.22769 0.988202 0
M  V30 9469 C 927.997 1.08155 1.76381 0
M  V30 9470 C 928.412 -0.367573 1.85187 0
M  V30 9471 O 927.769 -1.25455 1.32541 0
M  V30 9472 C 927.82 1.69193 3.19462 0
M  V30 9473 O 927.541 3.08437 3.11125 0
M  V30 9474 C 929.042 1.59915 4.13451 0
M  V30 9475 H 926.262 0.378908 0.553778 0
M  V30 9476 H 928.806 1.6246 1.24206 0
M  V30 9477 H 926.961 1.18939 3.6869 0
M  V30 9478 H 927.375 3.37916 4.0114 0
M  V30 9479 H 928.849 2.07339 5.1158 0
M  V30 9480 H 929.326 0.556546 4.3566 0
M  V30 9481 H 929.932 2.09497 3.70123 0
M  V30 9482 N 928.247 -1.18576 1.03814 0
M  V30 9483 C 929.475 -1.92437 0.759966 0
M  V30 9484 C 929.89 -1.76031 -0.682526 0
M  V30 9485 O 929.247 -1.08829 -1.46501 0
M  V30 9486 C 929.298 -3.43923 1.11351 0
M  V30 9487 O 929.019 -3.5981 2.49937 0
M  V30 9488 C 930.52 -4.34888 0.859472 0
M  V30 9489 H 927.74 -0.610998 0.277349 0
M  V30 9490 H 930.284 -1.50448 1.38512 0
M  V30 9491 H 928.439 -3.83711 0.533362 0
M  V30 9492 H 928.853 -4.53569 2.63393 0
M  V30 9493 H 930.327 -5.39744 1.15672 0
M  V30 9494 H 930.804 -4.38717 -0.205839 0
M  V30 9495 H 931.41 -4.00795 1.42279 0
M  V30 9496 N 929.725 -0.817259 -1.34754 0
M  V30 9497 C 930.688 -0.240611 -2.27934 0
M  V30 9498 C 931.688 0.578219 -1.50044 0
M  V30 9499 O 932.878 0.395148 -1.69659 0
M  V30 9500 C 930.01 0.663318 -3.34384 0
M  V30 9501 H 931.203 -1.06257 -2.80445 0
M  V30 9502 H 928.756 -0.588697 -1.4479 0
M  V30 9503 H 929.491 1.50855 -2.87077 0
M  V30 9504 H 929.276 0.0777388 -3.92023 0
M  V30 9505 H 930.766 1.06076 -4.03903 0
M  V30 9506 N 931.203 1.46865 -0.571711 0
M  V30 9507 C 932.428 2.07323 -0.0564655 0
M  V30 9508 C 932.853 1.41938 1.23431 0
M  V30 9509 O 932.211 0.499334 1.74288 0
M  V30 9510 C 932.259 3.6044 0.107339 0
M  V30 9511 O 931.363 3.95558 1.1665 0
M  V30 9512 H 930.704 0.661475 -0.0578465 0
M  V30 9513 H 933.234 1.88669 -0.791524 0
M  V30 9514 H 933.244 4.06767 0.316987 0
M  V30 9515 H 931.919 4.07425 -0.835348 0
M  V30 9516 H 930.496 3.60957 0.936189 0
M  V30 9517 N 932.681 0.308908 1.54543 0
M  V30 9518 C 933.611 -0.556657 2.26768 0
M  V30 9519 C 934.592 -1.13145 1.27013 0
M  V30 9520 O 935.777 -1.15931 1.558 0
M  V30 9521 C 932.907 -1.72481 3.01443 0
M  V30 9522 C 931.861 -1.28001 4.08411 0
M  V30 9523 C 931.187 -2.53395 4.70845 0
M  V30 9524 C 932.487 -0.405497 5.20724 0
M  V30 9525 H 934.181 0.0457618 2.99365 0
M  V30 9526 H 931.727 0.0234495 1.43981 0
M  V30 9527 H 933.68 -2.3365 3.50693 0
M  V30 9528 H 932.404 -2.35359 2.26437 0
M  V30 9529 H 931.063 -0.69133 3.60022 0
M  V30 9530 H 930.711 -3.14604 3.92471 0
M  V30 9531 H 930.411 -2.2433 5.43093 0
M  V30 9532 H 931.935 -3.15352 5.22863 0
M  V30 9533 H 933.349 -0.923076 5.6582 0
M  V30 9534 H 931.746 -0.208282 5.99738 0
M  V30 9535 H 932.816 0.567412 4.81569 0
M  V30 9536 N 934.159 -1.57557 0.0367827 0
M  V30 9537 C 935.575 -1.56366 -0.31967 0
M  V30 9538 C 935.775 -1.04313 -1.72398 0
M  V30 9539 O 934.831 -0.693278 -2.42796 0
M  V30 9540 C 936.144 -3.00267 -0.161274 0
M  V30 9541 C 937.692 -3.12128 -0.233464 0
M  V30 9542 C 938.167 -4.57882 -0.103767 0
M  V30 9543 N 939.658 -4.62922 -0.160506 0
M  V30 9544 C 940.393 -5.73338 -0.0840493 0
M  V30 9545 N 939.889 -6.92786 0.043933 0
M  V30 9546 N 941.682 -5.61929 -0.138592 0
M  V30 9547 H 933.833 -1.8972 0.954996 0
M  V30 9548 H 936.096 -0.87304 0.369467 0
M  V30 9549 H 935.802 -3.42331 0.80639 0
M  V30 9550 H 935.676 -3.65599 -0.928304 0
M  V30 9551 H 938.063 -2.69972 -1.19159 0
M  V30 9552 H 938.144 -2.49503 0.564075 0
M  V30 9553 H 937.788 -5.0072 0.850973 0
M  V30 9554 H 937.718 -5.18496 -0.920268 0
M  V30 9555 H 940.209 -3.7701 -0.259257 0
M  V30 9556 H 940.522 -7.72741 0.095372 0
M  V30 9557 H 938.867 -6.94955 0.0788211 0
M  V30 9558 H 942.058 -4.67499 -0.237031 0
M  V30 9559 H 942.231 -6.47956 -0.075546 0
M  V30 9560 N 935.637 0.236453 -1.55816 0
M  V30 9561 C 936.6 1.27633 -1.90375 0
M  V30 9562 C 937.6 1.40557 -0.781048 0
M  V30 9563 O 938.79 1.39078 -1.04895 0
M  V30 9564 C 935.922 2.65247 -2.14142 0
M  V30 9565 H 937.115 0.982019 -2.83366 0
M  V30 9566 H 934.668 0.476215 -1.48869 0
M  V30 9567 H 935.403 2.99801 -1.23653 0
M  V30 9568 H 935.188 2.57246 -2.95917 0
M  V30 9569 H 936.678 3.40313 -2.42026 0
M  V30 9570 N 937.115 1.49373 0.502552 0
M  V30 9571 C 938.361 1.59016 1.25864 0
M  V30 9572 C 938.694 0.27532 1.92238 0
M  V30 9573 O 937.969 -0.720988 1.80643 0
M  V30 9574 C 938.252 2.74828 2.32683 0
M  V30 9575 C 938.105 4.16102 1.7082 0
M  V30 9576 C 939.424 2.86288 3.34256 0
M  V30 9577 H 936.543 0.578798 0.456248 0
M  V30 9578 H 939.185 1.81651 0.557032 0
M  V30 9579 H 937.335 2.5566 2.92524 0
M  V30 9580 H 939.007 4.46782 1.14818 0
M  V30 9581 H 937.25 4.21822 1.01238 0
M  V30 9582 H 937.921 4.93006 2.48292 0
M  V30 9583 H 940.397 3.03733 2.84404 0
M  V30 9584 H 939.273 3.69001 4.06362 0
M  V30 9585 H 939.534 1.95576 3.96488 0
M  V30 9586 N 938.594 -0.753485 1.38421 0
M  V30 9587 C 939.84 -1.51485 1.34834 0
M  V30 9588 C 940.173 -1.94102 -0.0615381 0
M  V30 9589 O 939.448 -1.65439 -1.02274 0
M  V30 9590 C 939.731 -2.76736 2.30411 0
M  V30 9591 C 939.584 -2.40256 3.80259 0
M  V30 9592 C 940.903 -3.7876 2.24119 0
M  V30 9593 H 938.022 -0.549534 0.491102 0
M  V30 9594 H 940.664 -0.863006 1.6927 0
M  V30 9595 H 938.814 -3.32357 2.01175 0
M  V30 9596 H 940.486 -1.90409 4.20169 0
M  V30 9597 H 938.729 -1.72714 3.97935 0
M  V30 9598 H 939.4 -3.29869 4.42595 0
M  V30 9599 H 941.876 -3.32679 2.49928 0
M  V30 9600 H 940.752 -4.64092 2.93104 0
M  V30 9601 H 941.013 -4.24352 1.24006 0
M  V30 9602 N 940.072 -1.23292 -0.981677 0
M  V30 9603 C 941.297 -1.09176 -1.76339 0
M  V30 9604 C 941.722 0.352726 -1.84763 0
M  V30 9605 O 941.08 1.25509 -1.30832 0
M  V30 9606 C 941.128 -1.72046 -3.16911 0
M  V30 9607 O 940.232 -0.98174 -4.00544 0
M  V30 9608 H 939.573 -0.382755 -0.542581 0
M  V30 9609 H 942.103 -1.63319 -1.23239 0
M  V30 9610 H 942.113 -1.77232 -3.67495 0
M  V30 9611 H 940.788 -2.77154 -3.10095 0
M  V30 9612 H 939.365 -1.00672 -3.59054 0
M  V30 9613 N 941.55 1.18024 -1.04442 0
M  V30 9614 C 942.513 2.19992 -0.643136 0
M  V30 9615 C 943.513 1.57949 0.301444 0
M  V30 9616 O 944.703 1.73986 0.0863341 0
M  V30 9617 C 941.835 3.40853 0.0565208 0
M  V30 9618 H 943.028 2.57008 -1.54554 0
M  V30 9619 H 940.581 1.31974 -0.837408 0
M  V30 9620 H 941.316 3.09373 0.972553 0
M  V30 9621 H 941.101 3.87128 -0.622439 0
M  V30 9622 H 942.591 4.16344 0.323652 0
M  V30 9623 N 943.028 0.824394 1.34319 0
M  V30 9624 C 944.274 0.413779 1.98534 0
M  V30 9625 C 944.607 -1.02089 1.65201 0
M  V30 9626 O 943.882 -1.71129 0.924402 0
M  V30 9627 C 944.165 0.61801 3.54757 0
M  V30 9628 C 944.018 2.0989 3.97827 0
M  V30 9629 C 945.337 0.0549041 4.40066 0
M  V30 9630 H 942.456 0.151815 0.721194 0
M  V30 9631 H 945.098 1.03723 1.5919 0
M  V30 9632 H 943.248 0.0873107 3.88402 0
M  V30 9633 H 944.92 2.69335 3.74508 0
M  V30 9634 H 943.163 2.58881 3.48085 0
M  V30 9635 H 943.834 2.1926 5.06586 0
M  V30 9636 H 946.31 0.508348 4.12983 0
M  V30 9637 H 945.186 0.227595 5.48428 0
M  V30 9638 H 945.447 -1.04025 4.29687 0
M  V30 9639 N 944.506 -1.46559 0.579492 0
M  V30 9640 C 945.454 -2.3199 -0.168413 0
M  V30 9641 C 946.448 -1.44288 -0.887551 0
M  V30 9642 O 947.654 -1.60931 -0.806305 0
M  V30 9643 H 944.029 -0.748431 -0.0731799 0
M  V30 9644 H 946 -2.92886 0.570973 0
M  V30 9645 C 944.749 -3.27392 -1.1709 0
M  V30 9646 H 944.072 -3.94853 -0.626958 0
M  V30 9647 H 945.512 -3.89955 -1.66467 0
M  V30 9648 C 943.971 -2.52511 -2.23024 0
M  V30 9649 O 944.501 -2.2858 -3.30324 0
M  V30 9650 N 942.707 -2.1313 -1.97545 0
M  V30 9651 H 942.254 -2.32793 -1.10297 0
M  V30 9652 H 942.212 -1.63348 -2.68635 0
M  V30 9653 N 945.984 -0.3171 -1.54377 0
M  V30 9654 C 947.4 0.035766 -1.5956 0
M  V30 9655 C 947.6 1.51038 -1.33378 0
M  V30 9656 O 946.656 2.26546 -1.11505 0
M  V30 9657 C 947.969 -0.376652 -2.98332 0
M  V30 9658 C 949.517 -0.326765 -3.1129 0
M  V30 9659 C 949.992 -0.714247 -4.52396 0
M  V30 9660 N 951.483 -0.667402 -4.58367 0
M  V30 9661 C 952.218 -0.939494 -5.65651 0
M  V30 9662 N 951.714 -1.27839 -6.80903 0
M  V30 9663 N 953.507 -0.865484 -5.55397 0
M  V30 9664 H 945.658 -1.27794 -1.69654 0
M  V30 9665 H 947.921 -0.5192 -0.79318 0
M  V30 9666 H 947.627 -1.40381 -3.22469 0
M  V30 9667 H 947.501 0.261611 -3.76292 0
M  V30 9668 H 949.888 0.69117 -2.86892 0
M  V30 9669 H 949.969 -0.999873 -2.35449 0
M  V30 9670 H 949.613 -1.73007 -4.77526 0
M  V30 9671 H 949.543 -0.0188962 -5.26597 0
M  V30 9672 H 952.034 -0.417062 -3.75592 0
M  V30 9673 H 952.347 -1.47155 -7.5866 0
M  V30 9674 H 950.692 -1.31658 -6.82416 0
M  V30 9675 H 953.883 -0.600265 -4.64235 0
M  V30 9676 H 954.056 -1.0809 -6.38921 0
M  V30 9677 N 947.462 1.57535 -0.0451378 0
M  V30 9678 C 948.425 2.1008 0.916461 0
M  V30 9679 C 949.425 1.01913 1.2438 0
M  V30 9680 O 950.615 1.2801 1.18148 0
M  V30 9681 C 947.747 2.58001 2.22818 0
M  V30 9682 H 948.94 2.96334 0.461076 0
M  V30 9683 H 946.493 1.54974 0.203169 0
M  V30 9684 H 947.228 1.75123 2.72951 0
M  V30 9685 H 947.013 3.3704 2.00366 0
M  V30 9686 H 948.503 2.98822 2.9171 0
M  V30 9687 N 948.94 -0.228186 1.55939 0
M  V30 9688 C 949.903 -1.26621 1.91049 0
M  V30 9689 C 950.903 -1.40141 0.788491 0
M  V30 9690 O 952.093 -1.3852 1.05631 0
M  V30 9691 C 949.225 -2.64108 2.15545 0
M  V30 9692 H 950.418 -0.966978 2.83883 0
M  V30 9693 H 947.971 -0.468313 1.49119 0
M  V30 9694 H 948.706 -2.99141 1.25241 0
M  V30 9695 H 948.491 -2.55673 2.97277 0
M  V30 9696 H 949.981 -3.39025 2.43827 0
M  V30 9697 N 950.418 -1.49637 -0.494624 0
M  V30 9698 C 951.834 -1.36541 -0.826361 0
M  V30 9699 C 952.034 -0.403386 -1.97421 0
M  V30 9700 O 951.09 0.162614 -2.51976 0
M  V30 9701 C 952.403 -2.77401 -1.16057 0
M  V30 9702 C 953.951 -2.86148 -1.26841 0
M  V30 9703 C 954.426 -4.27789 -1.63587 0
M  V30 9704 N 955.917 -4.3063 -1.70624 0
M  V30 9705 C 956.652 -5.37198 -2.00514 0
M  V30 9706 N 956.148 -6.54004 -2.28584 0
M  V30 9707 N 957.941 -5.2462 -2.01818 0
M  V30 9708 H 950.092 -2.10776 0.26219 0
M  V30 9709 H 952.355 -0.946419 0.0547235 0
M  V30 9710 H 952.061 -3.49526 -0.390434 0
M  V30 9711 H 951.935 -3.1317 -2.10249 0
M  V30 9712 H 954.322 -2.14256 -2.02925 0
M  V30 9713 H 954.403 -2.53953 -0.30684 0
M  V30 9714 H 954.047 -5.00209 -0.880507 0
M  V30 9715 H 953.977 -4.57453 -2.60854 0
M  V30 9716 H 956.468 -3.46393 -1.51065 0
M  V30 9717 H 956.781 -7.31041 -2.50598 0
M  V30 9718 H 955.126 -6.57219 -2.26027 0
M  V30 9719 H 958.317 -4.32371 -1.79369 0
M  V30 9720 H 958.49 -6.07765 -2.24778 0
M  V30 9721 O 951.935 0.63997 -1.48279 0
M  V30 9722 H 952.626 1.29381 -1.44153 0
M  V30 END ATOM
M  V30 BEGIN BOND
M  V30 END BOND
M  V30 END CTAB
M  END
$$$$
