drugbank_target|Q9NYP7 Elongation of very long chain fatty acids protein 5 (DB00132)
 OpenBabel12092121133D

  0  0  0     0  0            999 V3000
M  V30 BEGIN CTAB
M  V30 COUNTS 4976 5062 0 0 0
M  V30 BEGIN ATOM
M  V30 1 H -0.908 1.98254 -0.117106 0
M  V30 2 N 0 1.576 0 0
M  V30 3 C 0.933 2.03868 1.02534 0
M  V30 4 C 1.911 0.928543 1.3348 0
M  V30 5 O 3.095 1.19667 1.45644 0
M  V30 6 C 0.222 2.43627 2.35294 0
M  V30 7 C -0.732 3.65373 2.2001 0
M  V30 8 S 0.101 5.13292 1.52614 0
M  V30 9 C 1.257 5.56322 2.86805 0
M  V30 10 H 1.49 2.90518 0.631377 0
M  V30 11 H -0.977 1.52953 0.210867 0
M  V30 12 H 0.981 2.67203 3.11629 0
M  V30 13 H -0.358 1.57376 2.7183 0
M  V30 14 H -1.165 3.90944 3.18086 0
M  V30 15 H -1.563 3.418 1.51819 0
M  V30 16 H 0.729 5.58782 3.83104 0
M  V30 17 H 1.672 6.56266 2.65933 0
M  V30 18 H 2.08 4.83886 2.90714 0
M  V30 19 N 1.4781 -0.272755 1.55222 0
M  V30 20 C 2.3881 -1.35918 1.91216 0
M  V30 21 C 3.4041 -1.54026 0.809436 0
M  V30 22 O 4.5801 -1.68148 1.10852 0
M  V30 23 C 1.6451 -2.69834 2.17693 0
M  V30 24 C 0.7061 -2.6047 3.41253 0
M  V30 25 C -0.0609 -3.88 3.66458 0
M  V30 26 O 0.1621 -4.88693 2.94169 0
M  V30 27 O -0.9039 -3.88189 4.59992 0
M  V30 28 H 2.9221 -1.0839 2.83699 0
M  V30 29 H 0.5071 -0.471301 1.41771 0
M  V30 30 H 2.3891 -3.49017 2.36147 0
M  V30 31 H 1.0641 -2.97148 1.28392 0
M  V30 32 H -0.0289 -1.79663 3.28134 0
M  V30 33 H 1.3041 -2.38106 4.30774 0
M  V30 34 N 2.9562 -1.48159 -0.537278 0
M  V30 35 C 3.9062 -1.5854 -1.63857 0
M  V30 36 C 4.8902 -0.442969 -1.54682 0
M  V30 37 O 6.0822 -0.69401 -1.62827 0
M  V30 38 C 3.2112 -1.62144 -3.02596 0
M  V30 39 C 2.2972 -2.81841 -3.16901 0
M  V30 40 N 2.6882 -4.06337 -3.01204 0
M  V30 41 C 0.9862 -2.79021 -3.47942 0
M  V30 42 C 1.6872 -4.86606 -3.18731 0
M  V30 43 N 0.6632 -4.19288 -3.45974 0
M  V30 44 H 4.4652 -2.5255 -1.50319 0
M  V30 45 H 1.9792 -1.4443 -0.742555 0
M  V30 46 H 3.9762 -1.67674 -3.81695 0
M  V30 47 H 2.6362 -0.69245 -3.17231 0
M  V30 48 H 3.6472 -4.36888 -2.78117 0
M  V30 49 H 0.3242 -1.95347 -3.6898 0
M  V30 50 H 1.7142 -5.95385 -3.11394 0
M  V30 51 N 4.4343 0.785586 -1.36625 0
M  V30 52 C 5.6813 1.54362 -1.31067 0
M  V30 53 C 6.0093 1.94195 0.10893 0
M  V30 54 O 5.2643 1.63262 1.07908 0
M  V30 55 C 5.5633 2.83007 -2.1827 0
M  V30 56 C 5.2293 2.62294 -3.6676 0
M  V30 57 C 3.8913 2.56353 -4.0723 0
M  V30 58 C 6.2433 2.43371 -4.6089 0
M  V30 59 C 3.5713 2.29461 -5.39967 0
M  V30 60 C 5.9233 2.18005 -5.93849 0
M  V30 61 C 4.5873 2.105 -6.3344 0
M  V30 62 H 3.8573 0.564851 -0.479609 0
M  V30 63 H 6.5043 0.906028 -1.68711 0
M  V30 64 H 4.8093 3.51253 -1.73576 0
M  V30 65 H 6.5063 3.40817 -2.11292 0
M  V30 66 H 3.0963 2.67774 -3.34656 0
M  V30 67 H 7.2803 2.46959 -4.30494 0
M  V30 68 H 2.5363 2.22135 -5.69619 0
M  V30 69 H 6.7103 2.02359 -6.66351 0
M  V30 70 H 4.3373 1.89425 -7.36222 0
M  V30 71 N 5.9124 1.20967 1.01018 0
M  V30 72 C 7.1894 0.93264 1.71934 0
M  V30 73 C 7.5694 -0.55692 2.03621 0
M  V30 74 O 6.9174 -1.52035 1.7058 0
M  V30 75 C 7.1274 1.81233 2.98254 0
M  V30 76 C 8.4754 2.05804 3.71389 0
M  V30 77 O 9.4994 1.78539 3.08225 0
M  V30 78 O 8.3584 2.51888 4.84989 0
M  V30 79 H 5.4524 0.349272 0.749625 0
M  V30 80 H 7.9984 1.31871 1.06808 0
M  V30 81 H 6.7704 2.82067 2.71208 0
M  V30 82 H 6.3934 1.42674 3.7112 0
M  V30 83 N 7.3905 -1.2043 1.01659 0
M  V30 84 C 8.3535 -2.21433 0.591616 0
M  V30 85 C 9.3535 -1.57203 -0.338226 0
M  V30 86 O 10.5435 -1.73737 -0.126918 0
M  V30 87 C 7.6755 -3.40628 -0.136058 0
M  V30 88 H 8.8685 -2.60545 1.48514 0
M  V30 89 H 6.4215 -1.33893 0.806379 0
M  V30 90 H 7.1565 -3.07019 -1.04449 0
M  V30 91 H 6.9415 -3.88475 0.531917 0
M  V30 92 H 8.4315 -4.15475 -0.420735 0
M  V30 93 N 8.8686 -0.792821 -1.36206 0
M  V30 94 C 10.0936 -0.377701 -2.03932 0
M  V30 95 C 10.5186 0.998947 -1.59382 0
M  V30 96 O 9.8766 1.64421 -0.763903 0
M  V30 97 C 9.9246 -0.453635 -3.57735 0
M  V30 98 O 9.0286 0.538151 -4.08874 0
M  V30 99 H 8.3696 -0.159855 -0.644471 0
M  V30 100 H 10.8996 -1.07488 -1.7409 0
M  V30 101 H 10.9096 -0.318464 -4.06755 0
M  V30 102 H 9.5846 -1.45784 -3.89512 0
M  V30 103 H 8.1616 0.364359 -3.71116 0
M  V30 104 N 10.3467 1.47872 -0.545128 0
M  V30 105 C 11.2767 2.32661 0.197793 0
M  V30 106 C 12.2577 1.43041 0.920504 0
M  V30 107 O 13.4427 1.71912 0.90333 0
M  V30 108 C 10.5727 3.24569 1.23582 0
M  V30 109 C 9.5267 4.23333 0.630323 0
M  V30 110 C 8.8527 5.0448 1.77211 0
M  V30 111 C 10.1527 5.20704 -0.407974 0
M  V30 112 H 11.8467 2.95024 -0.510045 0
M  V30 113 H 9.3927 1.4187 -0.246731 0
M  V30 114 H 11.3457 3.8272 1.76362 0
M  V30 115 H 10.0697 2.60236 1.97344 0
M  V30 116 H 8.7287 3.6639 0.123922 0
M  V30 117 H 8.3767 4.36561 2.49847 0
M  V30 118 H 8.0767 5.71339 1.37281 0
M  V30 119 H 9.6007 5.65487 2.3034 0
M  V30 120 H 11.0147 5.7329 0.033305 0
M  V30 121 H 9.4117 5.95699 -0.725486 0
M  V30 122 H 10.4817 4.66917 -1.30828 0
M  V30 123 N 11.8248 0.280983 1.55075 0
M  V30 124 C 13.0498 -0.340154 2.04592 0
M  V30 125 C 13.4748 -1.48246 1.15779 0
M  V30 126 O 12.8328 -1.80614 0.15761 0
M  V30 127 C 12.8808 -0.793104 3.5177 0
M  V30 128 O 11.9848 -1.89981 3.66034 0
M  V30 129 H 11.3258 -0.0694289 0.66036 0
M  V30 130 H 13.8558 0.416993 2.00306 0
M  V30 131 H 13.8658 -1.08729 3.93245 0
M  V30 132 H 12.5408 0.0426163 4.15878 0
M  V30 133 H 11.1178 -1.60771 3.36463 0
M  V30 134 N 13.3029 -1.57598 0.00835791 0
M  V30 135 C 14.5309 -1.95214 -0.68549 0
M  V30 136 C 14.9459 -0.883706 -1.66841 0
M  V30 137 O 14.3029 0.136565 -1.81988 0
M  V30 138 C 14.3539 -3.32865 -1.41007 0
M  V30 139 O 14.0749 -4.35609 -0.466552 0
M  V30 140 C 15.5759 -3.84991 -2.19765 0
M  V30 141 H 12.7959 -0.643422 -0.190392 0
M  V30 142 H 15.3399 -2.04406 0.0619607 0
M  V30 143 H 13.4949 -3.24956 -2.10908 0
M  V30 144 H 13.9089 -5.15288 -0.978699 0
M  V30 145 H 15.3829 -4.8371 -2.65948 0
M  V30 146 H 15.8599 -3.18137 -3.02796 0
M  V30 147 H 16.4659 -3.96103 -1.54864 0
M  V30 148 N 14.781 0.264519 -1.55364 0
M  V30 149 C 16.011 1.01153 -1.80143 0
M  V30 150 C 16.419 1.80115 -0.579253 0
M  V30 151 O 15.762 1.77813 0.46132 0
M  V30 152 C 15.824 2.01098 -2.97993 0
M  V30 153 C 15.488 1.40995 -4.34706 0
M  V30 154 C 16.485 0.821316 -5.13372 0
M  V30 155 C 14.17 1.43461 -4.81378 0
M  V30 156 C 16.164 0.265339 -6.36847 0
M  V30 157 C 13.851 0.874771 -6.04807 0
M  V30 158 C 14.849 0.291146 -6.82379 0
M  V30 159 O 14.537 -0.260093 -8.03479 0
M  V30 160 H 14.269 0.304125 -0.603725 0
M  V30 161 H 16.823 0.298089 -2.03225 0
M  V30 162 H 15.053 2.76224 -2.70623 0
M  V30 163 H 16.742 2.61997 -3.1002 0
M  V30 164 H 17.508 0.794903 -4.78442 0
M  V30 165 H 13.387 1.87826 -4.21002 0
M  V30 166 H 16.931 -0.190837 -6.97339 0
M  V30 167 H 12.828 0.898452 -6.39217 0
M  V30 168 H 13.596 -0.150265 -8.18362 0
M  V30 169 N 16.2591 1.48442 0.529413 0
M  V30 170 C 17.5061 1.56488 1.28521 0
M  V30 171 C 17.8341 0.239042 1.93025 0
M  V30 172 O 17.0891 -0.770713 1.79885 0
M  V30 173 C 17.3881 2.6523 2.39558 0
M  V30 174 C 17.0541 4.07648 1.92702 0
M  V30 175 C 15.7161 4.46411 1.79641 0
M  V30 176 C 18.0681 4.96896 1.573 0
M  V30 177 C 15.3961 5.72226 1.29514 0
M  V30 178 C 17.7481 6.23202 1.08636 0
M  V30 179 C 16.4121 6.60821 0.941919 0
M  V30 180 H 15.6821 0.572631 0.470292 0
M  V30 181 H 18.3291 1.82161 0.59072 0
M  V30 182 H 16.6341 2.33419 3.14679 0
M  V30 183 H 18.3311 2.68671 2.97686 0
M  V30 184 H 14.9211 3.77036 2.03819 0
M  V30 185 H 19.1051 4.67626 1.66251 0
M  V30 186 H 14.3611 6.00097 1.17019 0
M  V30 187 H 18.5351 6.91753 0.803136 0
M  V30 188 H 16.1621 7.58198 0.5513 0
M  V30 189 N 17.7372 -0.778329 1.37039 0
M  V30 190 C 18.6842 -1.89139 1.32269 0
M  V30 191 C 19.6542 -1.65017 0.189387 0
M  V30 192 O 20.8392 -1.87024 0.377693 0
M  V30 193 C 17.9792 -3.26112 1.12894 0
M  V30 194 C 17.0922 -3.62233 2.35396 0
M  V30 195 C 16.2272 -4.8838 2.08946 0
M  V30 196 C 15.2662 -5.17212 3.2735 0
M  V30 197 N 14.4032 -6.34546 3.00492 0
M  V30 198 H 19.2432 -1.92552 2.27437 0
M  V30 199 H 16.7802 -0.941473 1.13025 0
M  V30 200 H 18.7382 -4.05116 0.996835 0
M  V30 201 H 17.3682 -3.22091 0.213758 0
M  V30 202 H 16.4202 -2.78265 2.5937 0
M  V30 203 H 17.7322 -3.79481 3.23721 0
M  V30 204 H 16.8862 -5.75274 1.92729 0
M  V30 205 H 15.6252 -4.73222 1.17949 0
M  V30 206 H 14.6302 -4.28796 3.44113 0
M  V30 207 H 15.8552 -5.34283 4.19188 0
M  V30 208 H 13.8012 -6.20759 2.12118 0
M  V30 209 H 13.7182 -6.52179 3.82358 0
M  V30 210 H 14.9862 -7.24394 2.87879 0
M  V30 211 N 19.2153 -1.21501 -1.00376 0
M  V30 212 C 20.1783 -0.976927 -2.07337 0
M  V30 213 C 21.1783 0.0525322 -1.60714 0
M  V30 214 O 22.3683 -0.184869 -1.73216 0
M  V30 215 C 19.5003 -0.473423 -3.37597 0
M  V30 216 H 20.6933 -1.92587 -2.29892 0
M  V30 217 H 18.2463 -1.03217 -1.17371 0
M  V30 218 H 18.9813 0.480379 -3.20722 0
M  V30 219 H 18.7663 -1.216 -3.72768 0
M  V30 220 H 20.2563 -0.32675 -4.1632 0
M  V30 221 N 20.6934 1.19889 -1.02296 0
M  V30 222 C 21.6234 2.25141 -0.619174 0
M  V30 223 C 22.6044 1.66051 0.368915 0
M  V30 224 O 23.7894 1.92546 0.252941 0
M  V30 225 C 20.9194 3.4728 0.0368783 0
M  V30 226 C 19.8734 4.19005 -0.872865 0
M  V30 227 C 19.1994 5.34637 -0.0822402 0
M  V30 228 C 20.4994 4.74452 -2.18387 0
M  V30 229 H 22.1934 2.59171 -1.49903 0
M  V30 230 H 19.7394 1.24579 -0.722222 0
M  V30 231 H 21.6924 4.20098 0.330958 0
M  V30 232 H 20.4164 3.12433 0.95149 0
M  V30 233 H 19.0754 3.48061 -1.15105 0
M  V30 234 H 18.7234 4.96034 0.83422 0
M  V30 235 H 18.4234 5.83557 -0.688149 0
M  V30 236 H 19.9474 6.10255 0.205238 0
M  V30 237 H 21.3614 5.39055 -1.95172 0
M  V30 238 H 19.7584 5.33834 -2.74119 0
M  V30 239 H 20.8284 3.92844 -2.84257 0
M  V30 240 N 22.1715 0.800033 1.35784 0
M  V30 241 C 23.1015 0.220184 2.3246 0
M  V30 242 C 24.0825 -0.65073 1.57161 0
M  V30 243 O 25.2675 -0.582359 1.85263 0
M  V30 244 C 22.3975 -0.637353 3.41402 0
M  V30 245 C 21.3515 0.134531 4.27789 0
M  V30 246 C 20.6775 -0.844285 5.27992 0
M  V30 247 C 21.9775 1.32979 5.05088 0
M  V30 248 H 23.6715 1.02787 2.81203 0
M  V30 249 H 21.2175 0.495717 1.35199 0
M  V30 250 H 23.1705 -1.05302 4.08031 0
M  V30 251 H 21.8945 -1.47785 2.91251 0
M  V30 252 H 20.5535 0.531296 3.6273 0
M  V30 253 H 20.2015 -1.68011 4.74111 0
M  V30 254 H 19.9015 -0.332184 5.8666 0
M  V30 255 H 21.4255 -1.2583 5.97494 0
M  V30 256 H 22.8395 0.98934 5.64699 0
M  V30 257 H 21.2365 1.77593 5.7322 0
M  V30 258 H 22.3065 2.11978 4.36111 0
M  V30 259 N 23.6496 -1.47581 0.552962 0
M  V30 260 C 24.8976 -2.02082 0.0272703 0
M  V30 261 C 25.2186 -1.4301 -1.32563 0
M  V30 262 O 24.4886 -0.603745 -1.86365 0
M  V30 263 H 23.0686 -0.746966 0.00709182 0
M  V30 264 H 25.7306 -1.81033 0.722008 0
M  V30 265 H 24.8266 -3.12034 -0.0639951 0
M  V30 266 N 25.1277 -0.289203 -1.54924 0
M  V30 267 C 26.5387 0.205791 -1.85562 0
M  V30 268 C 26.8897 1.54351 -1.2112 0
M  V30 269 O 26.0147 2.10435 -0.504601 0
M  V30 270 C 26.6097 0.380177 -3.3666 0
M  V30 271 C 25.1687 0.819395 -3.67373 0
M  V30 272 C 24.3157 -0.079159 -2.77187 0
M  V30 273 H 27.2667 -0.510577 -1.50262 0
M  V30 274 H 27.2877 1.21659 -3.60526 0
M  V30 275 H 26.7997 -0.593589 -3.83534 0
M  V30 276 H 24.9007 1.80413 -3.26009 0
M  V30 277 H 25.0137 0.646957 -4.74712 0
M  V30 278 H 23.3777 0.439565 -2.50878 0
M  V30 279 H 24.1607 -1.04906 -3.26878 0
M  V30 280 N 26.6058 1.57591 -0.0167156 0
M  V30 281 C 28.0218 1.55946 0.339557 0
M  V30 282 C 28.2218 1.02109 1.73713 0
M  V30 283 O 27.2778 0.662303 2.43659 0
M  V30 284 C 28.5908 3.00037 0.199499 0
M  V30 285 C 30.1388 3.11805 0.273193 0
M  V30 286 C 30.6138 4.57713 0.162068 0
M  V30 287 N 32.1048 4.6268 0.219444 0
M  V30 288 C 32.8398 5.73185 0.157054 0
M  V30 289 N 32.3358 6.92786 0.0442936 0
M  V30 290 N 34.1288 5.61707 0.21014 0
M  V30 291 H 26.2798 1.90921 -0.930758 0
M  V30 292 H 28.5428 0.877674 -0.358319 0
M  V30 293 H 28.2488 3.4333 -0.76273 0
M  V30 294 H 28.1228 3.64387 0.974786 0
M  V30 295 H 30.5098 2.68433 1.22587 0
M  V30 296 H 30.5908 2.50201 -0.532256 0
M  V30 297 H 30.2348 5.01763 -0.78714 0
M  V30 298 H 30.1648 5.17283 0.986222 0
M  V30 299 H 32.6558 3.76649 0.307246 0
M  V30 300 H 32.9688 7.728 0.00304069 0
M  V30 301 H 31.3138 6.94999 0.00968457 0
M  V30 302 H 34.5048 4.6716 0.296546 0
M  V30 303 H 34.6778 6.47807 0.158054 0
M  V30 304 N 28.0839 -0.256276 1.55502 0
M  V30 305 C 29.3609 -1.00789 1.67633 0
M  V30 306 C 29.7409 -2.03706 0.553826 0
M  V30 307 O 29.0889 -2.24145 -0.443969 0
M  V30 308 C 29.2989 -1.64968 3.07549 0
M  V30 309 C 30.6469 -2.15505 3.65845 0
M  V30 310 O 31.6709 -1.74925 3.1029 0
M  V30 311 O 30.5299 -2.89986 4.63217 0
M  V30 312 H 27.6239 -0.468553 0.681459 0
M  V30 313 H 30.1699 -0.250806 1.67836 0
M  V30 314 H 28.9419 -0.904785 3.80696 0
M  V30 315 H 28.5649 -2.47321 3.11317 0
M  V30 316 N 29.562 -1.4872 -0.521534 0
M  V30 317 C 30.79 -1.60843 -1.30142 0
M  V30 318 C 31.205 -0.271897 -1.86832 0
M  V30 319 O 30.562 0.739969 -1.66825 0
M  V30 320 C 30.613 -2.66155 -2.4463 0
M  V30 321 O 30.334 -3.94623 -1.90275 0
M  V30 322 C 31.835 -2.88795 -3.36322 0
M  V30 323 H 29.055 -0.542075 -0.395468 0
M  V30 324 H 31.599 -1.94609 -0.628285 0
M  V30 325 H 29.754 -2.35224 -3.07812 0
M  V30 326 H 30.168 -4.52468 -2.65279 0
M  V30 327 H 31.642 -3.66264 -4.12983 0
M  V30 328 H 32.119 -1.97934 -3.9207 0
M  V30 329 H 32.725 -3.21063 -2.78924 0
M  V30 330 N 31.0401 0.771051 -1.3745 0
M  V30 331 C 32.4561 1.07171 -1.18265 0
M  V30 332 C 32.6561 2.01491 -0.019287 0
M  V30 333 O 31.7121 2.44244 0.640408 0
M  V30 334 C 33.0251 1.66854 -2.50161 0
M  V30 335 C 34.5731 1.79109 -2.56689 0
M  V30 336 C 35.0481 2.42205 -3.88717 0
M  V30 337 N 36.5391 2.49655 -3.90162 0
M  V30 338 C 37.2741 2.9933 -4.8907 0
M  V30 339 N 36.7701 3.49172 -5.98374 0
M  V30 340 N 38.5631 2.9821 -4.76474 0
M  V30 341 H 30.7141 0.144796 -2.11906 0
M  V30 342 H 32.9771 0.126863 -0.939473 0
M  V30 343 H 32.6831 1.05017 -3.35655 0
M  V30 344 H 32.5571 2.6614 -2.673 0
M  V30 345 H 34.9441 2.40077 -1.71601 0
M  V30 346 H 35.0251 0.785757 -2.43433 0
M  V30 347 H 34.6691 1.81875 -4.74219 0
M  V30 348 H 34.5991 3.43345 -3.99276 0
M  V30 349 H 37.0901 2.14383 -3.11205 0
M  V30 350 H 37.4031 3.8548 -6.69795 0
M  V30 351 H 35.7481 3.47275 -6.02018 0
M  V30 352 H 38.9391 2.58572 -3.90203 0
M  V30 353 H 39.1121 3.36613 -5.53711 0
M  V30 354 N 32.5182 1.22032 0.997298 0
M  V30 355 C 33.7642 1.04376 1.73878 0
M  V30 356 C 34.0972 -0.420716 1.89588 0
M  V30 357 O 33.3722 -1.31202 1.43583 0
M  V30 358 C 33.6552 1.75047 3.14691 0
M  V30 359 C 33.5082 3.29062 3.06656 0
M  V30 360 C 34.8272 1.49928 4.13775 0
M  V30 361 H 31.9462 0.380578 0.631133 0
M  V30 362 H 34.5882 1.50312 1.16217 0
M  V30 363 H 32.7382 1.35996 3.63919 0
M  V30 364 H 34.4102 3.7753 2.65083 0
M  V30 365 H 32.6532 3.58967 2.43568 0
M  V30 366 H 33.3242 3.73683 4.06282 0
M  V30 367 H 35.8002 1.83842 3.73285 0
M  V30 368 H 34.6762 2.01878 5.10428 0
M  V30 369 H 34.9372 0.430929 4.39995 0
M  V30 370 N 33.9963 -1.19345 1.0293 0
M  V30 371 C 34.9433 -2.2258 0.610464 0
M  V30 372 C 35.9133 -1.6179 -0.375946 0
M  V30 373 O 37.0983 -1.88844 -0.272511 0
M  V30 374 C 34.2383 -3.45085 -0.0321473 0
M  V30 375 C 33.3513 -4.20258 1.00035 0
M  V30 376 C 32.4863 -5.3019 0.32746 0
M  V30 377 C 31.5253 -5.97121 1.34584 0
M  V30 378 N 30.6623 -6.98615 0.698726 0
M  V30 379 H 35.5023 -2.57764 1.49538 0
M  V30 380 H 33.0393 -1.26644 0.748311 0
M  V30 381 H 34.9973 -4.15061 -0.421966 0
M  V30 382 H 33.6273 -3.10555 -0.88064 0
M  V30 383 H 32.6793 -3.49223 1.50823 0
M  V30 384 H 33.9913 -4.66175 1.77433 0
M  V30 385 H 33.1453 -6.06587 -0.11718 0
M  V30 386 H 31.8843 -4.85345 -0.478713 0
M  V30 387 H 30.8893 -5.19474 1.80074 0
M  V30 388 H 32.1143 -6.4405 2.15352 0
M  V30 389 H 30.0603 -6.55942 -0.0873471 0
M  V30 390 H 29.9773 -7.42724 1.41058 0
M  V30 391 H 31.2453 -7.79004 0.278102 0
M  V30 392 N 35.4744 -0.807222 -1.35358 0
M  V30 393 C 36.7224 -0.387122 -1.98358 0
M  V30 394 C 37.0434 1.04942 -1.64354 0
M  V30 395 O 36.3134 1.72615 -0.926339 0
M  V30 396 H 34.8934 -0.140154 -0.733734 0
M  V30 397 H 37.5554 -1.0332 -1.6526 0
M  V30 398 H 36.6514 -0.493352 -3.08176 0
M  V30 399 N 36.9525 1.47285 -0.560781 0
M  V30 400 C 38.1985 2.03347 -0.0463654 0
M  V30 401 C 38.5535 1.42702 1.2905 0
M  V30 402 O 37.8465 0.574619 1.8278 0
M  V30 403 C 38.0405 3.57258 0.100784 0
M  V30 404 C 37.8695 4.32827 -1.22027 0
M  V30 405 C 36.6395 4.72588 -1.78854 0
M  V30 406 C 38.8375 4.67739 -2.13834 0
M  V30 407 N 36.8195 5.32816 -3.04927 0
M  V30 408 C 38.1905 5.28307 -3.24487 0
M  V30 409 C 40.2455 4.49667 -2.13784 0
M  V30 410 C 38.9485 5.72711 -4.35194 0
M  V30 411 C 40.9745 4.95073 -3.23506 0
M  V30 412 C 40.3365 5.55693 -4.32879 0
M  V30 413 H 36.4355 0.779755 -0.0592166 0
M  V30 414 H 39.0195 1.79723 -0.748857 0
M  V30 415 H 37.1905 3.80642 0.772404 0
M  V30 416 H 38.9225 3.9996 0.617589 0
M  V30 417 H 35.6775 4.54656 -1.32609 0
M  V30 418 H 36.1015 5.67471 -3.69197 0
M  V30 419 H 40.7435 4.02154 -1.30507 0
M  V30 420 H 38.4615 6.19214 -5.1923 0
M  V30 421 H 42.0475 4.82859 -3.24559 0
M  V30 422 H 40.9275 5.90188 -5.1638 0
M  V30 423 N 38.4306 0.297415 1.54768 0
M  V30 424 C 39.6776 -0.312913 2.00068 0
M  V30 425 C 40.0056 -1.54171 1.18582 0
M  V30 426 O 39.2606 -1.94108 0.249133 0
M  V30 427 C 39.5596 -0.717561 3.50123 0
M  V30 428 C 39.2256 0.409095 4.4904 0
M  V30 429 C 37.8876 0.718399 4.75807 0
M  V30 430 C 40.2396 1.16717 5.07963 0
M  V30 431 C 37.5676 1.78896 5.5876 0
M  V30 432 C 39.9196 2.22762 5.92081 0
M  V30 433 C 38.5836 2.54303 6.1716 0
M  V30 434 H 37.8536 -0.114503 0.7321 0
M  V30 435 H 40.5006 0.415767 1.86932 0
M  V30 436 H 38.8056 -1.52627 3.60849 0
M  V30 437 H 40.5026 -1.20091 3.82595 0
M  V30 438 H 37.0926 0.157918 4.28309 0
M  V30 439 H 41.2766 0.941466 4.87289 0
M  V30 440 H 36.5326 2.0381 5.7643 0
M  V30 441 H 40.7066 2.81962 6.36765 0
M  V30 442 H 38.3336 3.3739 6.81229 0
M  V30 443 N 39.9087 -1.5758 0.0250728 0
M  V30 444 C 40.8387 -2.13007 -0.956575 0
M  V30 445 C 41.8197 -1.0452 -1.342 0
M  V30 446 O 43.0047 -1.32332 -1.42133 0
M  V30 447 C 40.1347 -2.65386 -2.24026 0
M  V30 448 C 39.0887 -3.78623 -1.99571 0
M  V30 449 C 38.4147 -4.17414 -3.3417 0
M  V30 450 C 39.7147 -5.04867 -1.33814 0
M  V30 451 H 41.4087 -2.9528 -0.494991 0
M  V30 452 H 38.9547 -1.42042 -0.236651 0
M  V30 453 H 40.9077 -3.02794 -2.93076 0
M  V30 454 H 39.6317 -1.80268 -2.72343 0
M  V30 455 H 38.2907 -3.41646 -1.32941 0
M  V30 456 H 37.9387 -3.29284 -3.80238 0
M  V30 457 H 37.6387 -4.93719 -3.18615 0
M  V30 458 H 39.1627 -4.57402 -4.04495 0
M  V30 459 H 40.5767 -5.39888 -1.92857 0
M  V30 460 H 38.9737 -5.86144 -1.28669 0
M  V30 461 H 40.0437 -4.83904 -0.310561 0
M  V30 462 N 41.3868 0.248026 -1.55636 0
M  V30 463 C 42.3168 1.31079 -1.93237 0
M  V30 464 C 43.2978 1.50264 -0.797174 0
M  V30 465 O 44.4828 1.62891 -1.05737 0
M  V30 466 C 41.6128 2.66575 -2.22609 0
M  V30 467 C 40.5668 2.62087 -3.3837 0
M  V30 468 C 39.8928 4.01369 -3.53281 0
M  V30 469 C 41.1928 2.19171 -4.7409 0
M  V30 470 H 42.8868 0.998556 -2.82257 0
M  V30 471 H 40.4328 0.47891 -1.35803 0
M  V30 472 H 42.3858 3.41057 -2.47503 0
M  V30 473 H 41.1098 2.99432 -1.30414 0
M  V30 474 H 39.7688 1.90063 -3.13483 0
M  V30 475 H 39.4168 4.31489 -2.58508 0
M  V30 476 H 39.1168 3.99254 -4.31127 0
M  V30 477 H 40.6408 4.77552 -3.80495 0
M  V30 478 H 42.0548 2.83384 -4.98363 0
M  V30 479 H 40.4518 2.2817 -5.5503 0
M  V30 480 H 41.5218 1.14336 -4.71227 0
M  V30 481 N 42.8649 1.48995 0.513639 0
M  V30 482 C 44.1419 1.48338 1.27495 0
M  V30 483 C 44.5219 0.204065 2.10111 0
M  V30 484 O 43.8699 -0.813881 2.13514 0
M  V30 485 C 44.0799 2.75498 2.14247 0
M  V30 486 C 45.4279 3.24484 2.73852 0
M  V30 487 O 46.4519 2.76528 2.24523 0
M  V30 488 O 45.3109 4.07974 3.6362 0
M  V30 489 H 42.4049 0.593149 0.576284 0
M  V30 490 H 44.9509 1.61246 0.528948 0
M  V30 491 H 43.7229 3.60109 1.53092 0
M  V30 492 H 43.3459 2.6539 2.96064 0
M  V30 493 N 44.343 -0.763751 1.37857 0
M  V30 494 C 45.291 -1.89864 1.34367 0
M  V30 495 C 46.285 -1.67816 0.231143 0
M  V30 496 O 47.491 -1.75508 0.399617 0
M  V30 497 H 43.866 -0.624501 0.41893 0
M  V30 498 H 45.837 -1.89925 2.30155 0
M  V30 499 C 44.586 -3.27227 1.1755 0
M  V30 500 H 43.909 -3.44773 2.02414 0
M  V30 501 H 45.349 -4.06911 1.1916 0
M  V30 502 C 43.808 -3.36692 -0.118311 0
M  V30 503 O 44.338 -3.86374 -1.09902 0
M  V30 504 N 42.544 -2.90092 -0.171717 0
M  V30 505 H 42.091 -2.49853 0.627012 0
M  V30 506 H 42.049 -2.96806 -1.03699 0
M  V30 507 N 45.8211 -1.22559 -0.990812 0
M  V30 508 C 47.0511 -1.07623 -1.76355 0
M  V30 509 C 47.4591 0.37601 -1.85426 0
M  V30 510 O 46.8021 1.27228 -1.32509 0
M  V30 511 C 46.8641 -1.61507 -3.21179 0
M  V30 512 C 46.5281 -3.10146 -3.35646 0
M  V30 513 C 47.5251 -4.07553 -3.22796 0
M  V30 514 C 45.2101 -3.49644 -3.60631 0
M  V30 515 C 47.2041 -5.42442 -3.34716 0
M  V30 516 C 44.8911 -4.84682 -3.72192 0
M  V30 517 C 45.8891 -5.8089 -3.59243 0
M  V30 518 O 45.5771 -7.13476 -3.70415 0
M  V30 519 H 45.3091 -0.377745 -0.560611 0
M  V30 520 H 47.8631 -1.62658 -1.25425 0
M  V30 521 H 46.0931 -1.00881 -3.73309 0
M  V30 522 H 47.7821 -1.42202 -3.80175 0
M  V30 523 H 48.5481 -3.78381 -3.03403 0
M  V30 524 H 44.4271 -2.75282 -3.69785 0
M  V30 525 H 47.9711 -6.17518 -3.24526 0
M  V30 526 H 43.8681 -5.13534 -3.91092 0
M  V30 527 H 44.6361 -7.21083 -3.87275 0
M  V30 528 N 47.2992 1.18797 -1.03562 0
M  V30 529 C 48.5482 1.87978 -0.731235 0
M  V30 530 C 48.8612 1.80911 0.743671 0
M  V30 531 O 50.0672 2.45407 1.16137 0
M  V30 532 C 48.5232 3.3721 -1.25768 0
M  V30 533 C 48.1312 3.52818 -2.76085 0
M  V30 534 C 49.8752 4.11825 -1.0296 0
M  V30 535 C 47.7822 4.9598 -3.22114 0
M  V30 536 H 46.7122 0.704063 -0.269835 0
M  V30 537 H 49.3632 1.34266 -1.25079 0
M  V30 538 H 47.7452 3.90359 -0.666011 0
M  V30 539 H 48.9192 3.09965 -3.40966 0
M  V30 540 H 47.2342 2.91602 -2.97249 0
M  V30 541 H 49.8312 5.17411 -1.34869 0
M  V30 542 H 50.1742 4.16287 0.0333546 0
M  V30 543 H 50.7072 3.64833 -1.58562 0
M  V30 544 H 47.4462 4.96684 -4.27768 0
M  V30 545 H 46.9662 5.39569 -2.61965 0
M  V30 546 H 48.6452 5.6467 -3.15844 0
M  V30 547 N 48.7773 0.814389 1.34928 0
M  V30 548 C 50.1883 0.458364 1.80986 0
M  V30 549 C 50.5393 -1.02042 1.67577 0
M  V30 550 O 49.6643 -1.79352 1.21086 0
M  V30 551 C 50.2593 0.825212 3.28597 0
M  V30 552 C 48.8183 0.521677 3.72767 0
M  V30 553 C 47.9653 1.04668 2.56788 0
M  V30 554 H 50.9163 1.00533 1.22795 0
M  V30 555 H 50.9373 0.12571 3.80292 0
M  V30 556 H 50.4493 1.90154 3.38324 0
M  V30 557 H 48.5503 -0.545589 3.68584 0
M  V30 558 H 48.6633 1.05977 4.67232 0
M  V30 559 H 47.0273 0.468622 2.50352 0
M  V30 560 H 47.8103 2.12927 2.6929 0
M  V30 561 N 50.2554 -1.46986 0.568584 0
M  V30 562 C 51.4834 -2.0683 0.0539956 0
M  V30 563 C 51.8984 -1.41953 -1.24478 0
M  V30 564 O 51.2554 -0.519933 -1.74937 0
M  V30 565 C 51.3064 -3.61254 -0.133362 0
M  V30 566 O 51.0274 -4.237 1.11399 0
M  V30 567 C 52.5284 -4.37992 -0.683927 0
M  V30 568 H 49.7484 -0.669058 0.0510141 0
M  V30 569 H 52.2924 -1.88824 0.785234 0
M  V30 570 H 50.4474 -3.78735 -0.81477 0
M  V30 571 H 50.8614 -5.16388 0.91888 0
M  V30 572 H 52.3354 -5.46684 -0.764263 0
M  V30 573 H 52.8124 -4.05058 -1.69778 0
M  V30 574 H 53.4184 -4.25283 -0.0378494 0
M  V30 575 N 51.7335 -0.305618 -1.54608 0
M  V30 576 C 52.9805 0.302298 -2.00231 0
M  V30 577 C 53.3085 1.5354 -1.19398 0
M  V30 578 O 52.5635 1.93973 -0.259423 0
M  V30 579 C 52.8625 0.698983 -3.50498 0
M  V30 580 C 52.5285 -0.432903 -4.48817 0
M  V30 581 C 51.1905 -0.743622 -4.75419 0
M  V30 582 C 53.5425 -1.19409 -5.07337 0
M  V30 583 C 50.8705 -1.81857 -5.57804 0
M  V30 584 C 53.2225 -2.25899 -5.90891 0
M  V30 585 C 51.8865 -2.57572 -6.15803 0
M  V30 586 H 51.1565 0.110619 -0.732697 0
M  V30 587 H 53.8035 -0.425674 -1.86709 0
M  V30 588 H 52.1085 1.50711 -3.61654 0
M  V30 589 H 53.8055 1.1806 -3.83227 0
M  V30 590 H 50.3955 -0.18063 -4.28219 0
M  V30 591 H 54.5795 -0.967295 -4.86782 0
M  V30 592 H 49.8355 -2.06864 -5.75341 0
M  V30 593 H 54.0095 -2.85335 -6.35261 0
M  V30 594 H 51.6365 -3.40998 -6.7943 0
M  V30 595 N 53.2116 1.57565 -0.0334293 0
M  V30 596 C 54.4606 1.91155 0.643639 0
M  V30 597 C 54.7736 0.91192 1.73042 0
M  V30 598 O 55.9796 1.13923 2.46442 0
M  V30 599 C 54.4356 3.39443 1.1961 0
M  V30 600 C 54.0436 4.47774 0.142381 0
M  V30 601 C 55.7876 3.82094 1.84944 0
M  V30 602 C 53.6946 5.87162 0.706727 0
M  V30 603 H 52.6246 0.713368 0.244176 0
M  V30 604 H 55.2756 1.8323 -0.0994323 0
M  V30 605 H 53.6576 3.42313 1.99092 0
M  V30 606 H 54.8316 4.56469 -0.630296 0
M  V30 607 H 53.1466 4.14352 -0.412446 0
M  V30 608 H 55.7436 4.83591 2.2813 0
M  V30 609 H 56.0866 3.17386 2.69392 0
M  V30 610 H 56.6196 3.81665 1.12145 0
M  V30 611 H 53.3586 6.55424 -0.0997178 0
M  V30 612 H 52.8786 5.82064 1.44779 0
M  V30 613 H 54.5576 6.35866 1.19514 0
M  V30 614 N 54.6897 -0.239769 1.55765 0
M  V30 615 C 55.9297 -0.974076 1.79697 0
M  V30 616 C 56.2937 -1.82249 0.604088 0
M  V30 617 O 57.4947 -2.58913 0.722324 0
M  V30 618 C 55.7657 -1.80595 3.08416 0
M  V30 619 S 57.3247 -2.59838 3.53596 0
M  V30 620 H 54.1427 -0.327524 0.63107 0
M  V30 621 H 56.7447 -0.241277 1.94005 0
M  V30 622 H 55.4487 -1.17249 3.93295 0
M  V30 623 H 54.9797 -2.58137 2.96865 0
M  V30 624 H 56.9947 -3.82987 3.15492 0
M  V30 625 N 56.1678 -1.49265 -0.50573 0
M  V30 626 C 57.3928 -1.62478 -1.28902 0
M  V30 627 C 57.8178 -0.294332 -1.85783 0
M  V30 628 O 57.1758 0.737412 -1.65626 0
M  V30 629 C 57.2238 -2.69268 -2.39848 0
M  V30 630 O 56.3278 -2.28113 -3.43567 0
M  V30 631 H 55.6688 -0.54399 -0.380751 0
M  V30 632 H 58.1988 -1.95421 -0.605952 0
M  V30 633 H 58.2088 -2.91291 -2.85681 0
M  V30 634 H 56.8838 -3.65846 -1.97812 0
M  V30 635 H 55.4608 -2.16401 -3.03685 0
M  V30 636 N 57.6459 0.756429 -1.3826 0
M  V30 637 C 58.8919 1.51772 -1.34511 0
M  V30 638 C 59.2249 1.94089 0.0656691 0
M  V30 639 O 58.4999 1.65221 1.02626 0
M  V30 640 C 58.7829 2.77226 -2.29821 0
M  V30 641 C 58.6359 2.41065 -3.79747 0
M  V30 642 C 59.9549 3.79236 -2.23312 0
M  V30 643 H 57.0739 0.550578 -0.489931 0
M  V30 644 H 59.7159 0.866607 -1.69086 0
M  V30 645 H 57.8659 3.32784 -2.00467 0
M  V30 646 H 59.5379 1.91303 -4.19763 0
M  V30 647 H 57.7809 1.7356 -3.97567 0
M  V30 648 H 58.4519 3.3081 -4.41892 0
M  V30 649 H 60.9279 3.3321 -2.49219 0
M  V30 650 H 59.8039 4.64714 -2.92116 0
M  V30 651 H 60.0649 4.24615 -1.23102 0
M  V30 652 N 59.124 1.23083 0.984299 0
M  V30 653 C 60.373 1.05466 1.71929 0
M  V30 654 C 60.686 -0.409211 1.91272 0
M  V30 655 O 61.892 -0.705226 2.62181 0
M  V30 656 C 60.348 1.83874 3.09384 0
M  V30 657 C 59.956 3.34566 2.97943 0
M  V30 658 C 61.7 1.74734 3.8687 0
M  V30 659 C 59.607 4.05381 4.30605 0
M  V30 660 H 58.537 0.391039 0.644674 0
M  V30 661 H 61.188 1.47013 1.09815 0
M  V30 662 H 59.57 1.35131 3.72231 0
M  V30 663 H 60.744 3.90767 2.44209 0
M  V30 664 H 59.059 3.44476 2.33934 0
M  V30 665 H 61.656 2.24957 4.85076 0
M  V30 666 H 61.999 0.709372 4.10212 0
M  V30 667 H 62.532 2.21067 3.30717 0
M  V30 668 H 59.271 5.09467 4.1246 0
M  V30 669 H 58.791 3.53967 4.84218 0
M  V30 670 H 60.47 4.11458 4.99311 0
M  V30 671 N 60.6021 -1.18246 1.0419 0
M  V30 672 C 61.8321 -1.91916 0.764961 0
M  V30 673 C 62.2401 -1.76485 -0.681898 0
M  V30 674 O 61.5831 -1.09275 -1.47664 0
M  V30 675 C 61.6451 -3.4373 1.05309 0
M  V30 676 C 61.3091 -3.8294 2.4941 0
M  V30 677 C 62.3061 -3.86621 3.47592 0
M  V30 678 C 59.9911 -4.142 2.84155 0
M  V30 679 C 61.9851 -4.21013 4.78568 0
M  V30 680 C 59.6721 -4.48262 4.15337 0
M  V30 681 C 60.6701 -4.51645 5.12353 0
M  V30 682 O 60.3581 -4.84911 6.41183 0
M  V30 683 H 60.0901 -0.61606 0.278292 0
M  V30 684 H 62.6441 -1.50947 1.39299 0
M  V30 685 H 60.8741 -3.84946 0.367933 0
M  V30 686 H 62.5631 -3.9865 0.763752 0
M  V30 687 H 63.3291 -3.62607 3.22089 0
M  V30 688 H 59.2081 -4.10743 2.09311 0
M  V30 689 H 62.7521 -4.23568 5.54289 0
M  V30 690 H 58.6491 -4.71737 4.40607 0
M  V30 691 H 59.4171 -5.02809 6.45852 0
M  V30 692 N 62.0802 -0.821533 -1.34494 0
M  V30 693 C 63.0102 -0.257138 -2.3208 0
M  V30 694 C 63.9912 0.625645 -1.58176 0
M  V30 695 O 65.1762 0.552811 -1.86166 0
M  V30 696 C 62.3062 0.582958 -3.42372 0
M  V30 697 C 61.2602 -0.202571 -4.2752 0
M  V30 698 C 60.5862 0.760179 -5.29269 0
M  V30 699 C 61.8862 -1.40998 -5.02908 0
M  V30 700 H 63.5802 -1.07247 -2.79532 0
M  V30 701 H 61.1262 -0.517163 -1.34393 0
M  V30 702 H 63.0792 0.987972 -4.09655 0
M  V30 703 H 61.8032 1.43133 -2.93565 0
M  V30 704 H 60.4622 -0.588936 -3.61838 0
M  V30 705 H 60.1102 1.60447 -4.76724 0
M  V30 706 H 59.8102 0.238809 -5.87115 0
M  V30 707 H 61.3342 1.16308 -5.9942 0
M  V30 708 H 62.7482 -1.07905 -5.63054 0
M  V30 709 H 61.1452 -1.86689 -5.70322 0
M  V30 710 H 62.2152 -2.1889 -4.32684 0
M  V30 711 N 63.5583 1.46682 -0.576371 0
M  V30 712 C 64.4883 2.33028 0.148397 0
M  V30 713 C 65.4693 1.44961 0.889956 0
M  V30 714 O 66.6543 1.73789 0.866662 0
M  V30 715 C 63.7843 3.27117 1.1667 0
M  V30 716 C 62.7383 4.24575 0.540386 0
M  V30 717 C 62.0643 5.08126 1.6647 0
M  V30 718 C 63.3643 5.19722 -0.518331 0
M  V30 719 H 65.0583 2.93875 -0.572509 0
M  V30 720 H 62.6043 1.41315 -0.276768 0
M  V30 721 H 64.5573 3.86374 1.68204 0
M  V30 722 H 63.2813 2.64364 1.9178 0
M  V30 723 H 61.9403 3.66571 0.0461769 0
M  V30 724 H 61.5883 4.41762 2.40531 0
M  V30 725 H 61.2883 5.74122 1.25131 0
M  V30 726 H 62.8123 5.70246 2.18293 0
M  V30 727 H 64.2263 5.73232 -0.0883058 0
M  V30 728 H 62.6233 5.94026 -0.851679 0
M  V30 729 H 63.6933 4.64037 -1.40703 0
M  V30 730 N 65.0364 0.313813 1.54444 0
M  V30 731 C 66.2854 -0.292519 1.99568 0
M  V30 732 C 66.5984 -1.54011 1.20582 0
M  V30 733 O 67.8044 -2.22183 1.56035 0
M  V30 734 C 66.2604 -0.571752 3.55329 0
M  V30 735 C 65.8684 0.658229 4.43138 0
M  V30 736 C 67.6124 -1.13857 4.08946 0
M  V30 737 C 65.5194 0.351439 5.90355 0
M  V30 738 H 64.4494 -0.113079 0.745472 0
M  V30 739 H 67.1004 0.424518 1.78522 0
M  V30 740 H 65.4824 -1.34872 3.72325 0
M  V30 741 H 66.6564 1.43403 4.37918 0
M  V30 742 H 64.9714 1.14458 4.0036 0
M  V30 743 H 67.5684 -1.38257 5.16516 0
M  V30 744 H 67.9114 -2.08489 3.6033 0
M  V30 745 H 68.4444 -0.423015 3.95544 0
M  V30 746 H 65.1834 1.26667 6.43145 0
M  V30 747 H 64.7034 -0.386842 5.98551 0
M  V30 748 H 66.3824 -0.0423134 6.46986 0
M  V30 749 N 66.5145 -1.57545 0.0417849 0
M  V30 750 C 67.7605 -1.92601 -0.635021 0
M  V30 751 C 68.0935 -0.919627 -1.71045 0
M  V30 752 O 67.3685 0.0557892 -1.9442 0
M  V30 753 C 67.6515 -3.38085 -1.23979 0
M  V30 754 C 67.5045 -4.49467 -0.173057 0
M  V30 755 C 68.8235 -3.83776 -2.15416 0
M  V30 756 H 65.9425 -0.700397 -0.229374 0
M  V30 757 H 68.5845 -1.89728 0.101633 0
M  V30 758 H 66.7345 -3.40664 -1.86762 0
M  V30 759 H 68.4065 -4.59018 0.458312 0
M  V30 760 H 66.6495 -4.30909 0.499996 0
M  V30 761 H 67.3205 -5.48323 -0.636054 0
M  V30 762 H 69.7965 -3.83013 -1.62605 0
M  V30 763 H 68.6725 -4.8624 -2.54679 0
M  V30 764 H 68.9335 -3.19998 -3.05047 0
M  V30 765 N 67.9926 0.231505 -1.5589 0
M  V30 766 C 69.2386 0.954429 -1.79617 0
M  V30 767 C 69.5936 1.82367 -0.613199 0
M  V30 768 O 68.8866 1.87524 0.393094 0
M  V30 769 C 69.0806 1.83577 -3.0665 0
M  V30 770 C 68.9096 1.05334 -4.3719 0
M  V30 771 C 67.6796 0.75225 -4.99669 0
M  V30 772 C 69.8776 0.423444 -5.12554 0
M  V30 773 N 67.8596 -0.052627 -6.13877 0
M  V30 774 C 69.2306 -0.245287 -6.19515 0
M  V30 775 C 71.2856 0.335466 -4.96769 0
M  V30 776 C 69.9886 -0.993566 -7.12405 0
M  V30 777 C 72.0146 -0.399321 -5.9005 0
M  V30 778 C 71.3766 -1.05663 -6.9643 0
M  V30 779 H 67.4756 0.329846 -0.709031 0
M  V30 780 H 70.0596 0.226172 -1.93382 0
M  V30 781 H 68.2306 2.53592 -2.94186 0
M  V30 782 H 69.9626 2.49541 -3.18608 0
M  V30 783 H 66.7176 1.06783 -4.61405 0
M  V30 784 H 67.1416 -0.443609 -6.75545 0
M  V30 785 H 71.7836 0.829311 -4.14587 0
M  V30 786 H 69.5016 -1.49896 -7.94076 0
M  V30 787 H 73.0876 -0.468265 -5.79913 0
M  V30 788 H 71.9676 -1.61612 -7.67366 0
M  V30 789 N 69.4707 1.49531 0.497807 0
M  V30 790 C 70.4007 1.6935 1.60757 0
M  V30 791 C 71.3817 0.542218 1.61227 0
M  V30 792 O 72.5667 0.778417 1.77917 0
M  V30 793 C 69.6967 1.76298 2.99226 0
M  V30 794 C 68.6507 2.91248 3.13622 0
M  V30 795 C 67.9767 2.83312 4.53474 0
M  V30 796 C 69.2767 4.3214 2.93346 0
M  V30 797 H 70.9707 2.62263 1.44425 0
M  V30 798 H 68.5167 1.26208 0.693367 0
M  V30 799 H 70.4697 1.88749 3.76765 0
M  V30 800 H 69.1937 0.799871 3.16654 0
M  V30 801 H 67.8527 2.78404 2.38509 0
M  V30 802 H 67.5007 1.84902 4.67782 0
M  V30 803 H 67.2007 3.60465 4.64046 0
M  V30 804 H 68.7247 2.97775 5.33069 0
M  V30 805 H 70.1387 4.45649 3.60652 0
M  V30 806 H 68.5357 5.1054 3.15387 0
M  V30 807 H 69.6057 4.46363 1.89441 0
M  V30 808 N 70.9488 -0.749086 1.3866 0
M  V30 809 C 72.1968 -1.50535 1.34847 0
M  V30 810 C 72.5178 -1.94909 -0.0595016 0
M  V30 811 O 71.7878 -1.67973 -1.00806 0
M  V30 812 H 70.3678 -0.558395 0.49619 0
M  V30 813 H 73.0298 -0.890165 1.73384 0
M  V30 814 H 72.1258 -2.39413 2.00219 0
M  V30 815 N 72.4269 -1.23603 -0.977757 0
M  V30 816 C 73.8379 -1.06424 -1.53398 0
M  V30 817 C 74.1889 0.367578 -1.92726 0
M  V30 818 O 73.3139 1.25465 -1.76316 0
M  V30 819 C 73.9089 -1.92568 -2.78753 0
M  V30 820 C 72.4679 -1.79642 -3.30765 0
M  V30 821 C 71.6149 -1.88111 -2.03739 0
M  V30 822 H 74.5659 -1.37227 -0.797152 0
M  V30 823 H 74.5869 -1.45203 -3.51705 0
M  V30 824 H 74.0989 -2.96771 -2.50098 0
M  V30 825 H 72.1999 -0.782325 -3.64294 0
M  V30 826 H 72.3129 -2.63174 -4.00345 0
M  V30 827 H 70.6769 -1.31723 -2.17994 0
M  V30 828 H 71.4599 -2.93875 -1.77461 0
M  V30 829 N 73.905 1.17692 -1.04816 0
M  V30 830 C 74.852 2.21581 -0.645797 0
M  V30 831 C 75.822 1.62367 0.350159 0
M  V30 832 O 77.007 1.89254 0.242433 0
M  V30 833 C 74.147 3.45092 -0.0227568 0
M  V30 834 C 73.26 4.18613 -1.06709 0
M  V30 835 C 72.395 5.29602 -0.411767 0
M  V30 836 C 71.434 5.94904 -1.44067 0
M  V30 837 N 70.571 6.97414 -0.809781 0
M  V30 838 H 75.411 2.55353 -1.5362 0
M  V30 839 H 72.948 1.25438 -0.768364 0
M  V30 840 H 74.906 4.15679 0.35588 0
M  V30 841 H 73.536 3.11917 0.831122 0
M  V30 842 H 72.588 3.46779 -1.5636 0
M  V30 843 H 73.9 4.63293 -1.84827 0
M  V30 844 H 73.054 6.06696 0.0206623 0
M  V30 845 H 71.793 4.86045 0.401438 0
M  V30 846 H 70.798 5.16544 -1.88316 0
M  V30 847 H 72.023 6.40542 -2.25571 0
M  V30 848 H 69.969 6.55998 -0.0170186 0
M  V30 849 H 69.886 7.40386 -1.52856 0
M  V30 850 H 71.154 7.78463 -0.401999 0
M  V30 851 N 75.3831 0.828654 1.34056 0
M  V30 852 C 76.6131 0.431993 2.02033 0
M  V30 853 C 77.0211 -0.96844 1.62536 0
M  V30 854 O 76.3641 -1.6391 0.829408 0
M  V30 855 C 76.4261 0.461224 3.56529 0
M  V30 856 C 76.0901 1.81599 4.1937 0
M  V30 857 C 77.0871 2.7777 4.39477 0
M  V30 858 C 74.7721 2.10604 4.56017 0
M  V30 859 C 76.7661 4.01115 4.95364 0
M  V30 860 C 74.4531 3.34207 5.11614 0
M  V30 861 C 75.4511 4.2928 5.31232 0
M  V30 862 O 75.1391 5.50699 5.8565 0
M  V30 863 H 74.8711 0.170943 0.654029 0
M  V30 864 H 77.4251 1.11988 1.72185 0
M  V30 865 H 75.6551 -0.283388 3.8566 0
M  V30 866 H 77.3441 0.0838149 4.05813 0
M  V30 867 H 78.1101 2.56659 4.11523 0
M  V30 868 H 73.9891 1.37402 4.40047 0
M  V30 869 H 77.5331 4.75333 5.10592 0
M  V30 870 H 73.4301 3.55179 5.38997 0
M  V30 871 H 74.1981 5.52298 6.04077 0
M  V30 872 N 76.8612 -1.46375 0.584142 0
M  V30 873 C 77.7942 -2.27351 -0.196676 0
M  V30 874 C 78.7722 -1.35715 -0.895561 0
M  V30 875 O 79.9562 -1.65126 -0.90916 0
M  V30 876 C 77.0832 -3.13486 -1.28235 0
M  V30 877 C 76.1292 -4.20896 -0.689145 0
M  V30 878 S 76.9622 -5.33299 0.48507 0
M  V30 879 C 78.1182 -6.23 -0.601767 0
M  V30 880 H 78.3512 -2.93228 0.490395 0
M  V30 881 H 75.8842 -1.49875 0.371071 0
M  V30 882 H 77.8422 -3.63676 -1.90395 0
M  V30 883 H 76.5032 -2.4692 -1.94138 0
M  V30 884 H 75.6962 -4.80997 -1.50527 0
M  V30 885 H 75.2982 -3.73726 -0.143181 0
M  V30 886 H 77.5902 -6.60979 -1.48705 0
M  V30 887 H 78.5332 -7.0809 -0.0374799 0
M  V30 888 H 78.9412 -5.57173 -0.906557 0
M  V30 889 N 78.3393 -0.321999 -1.54275 0
M  V30 890 C 79.7553 0.0306999 -1.5957 0
M  V30 891 C 79.9553 1.50614 -1.33857 0
M  V30 892 O 79.0113 2.2619 -1.12223 0
M  V30 893 C 80.3243 -0.386122 -2.98211 0
M  V30 894 C 81.8723 -0.336647 -3.11184 0
M  V30 895 C 82.3473 -0.728607 -4.52167 0
M  V30 896 N 83.8383 -0.681952 -4.58152 0
M  V30 897 C 84.5733 -0.957449 -5.6535 0
M  V30 898 N 84.0693 -1.3 -6.80494 0
M  V30 899 N 85.8623 -0.883113 -5.55119 0
M  V30 900 H 78.0133 -1.28332 -1.69247 0
M  V30 901 H 80.2763 -0.521716 -0.791528 0
M  V30 902 H 79.9823 -1.41404 -3.22022 0
M  V30 903 H 79.8563 0.249662 -3.76373 0
M  V30 904 H 82.2433 0.682058 -2.8711 0
M  V30 905 H 82.3243 -1.00734 -2.3513 0
M  V30 906 H 81.9683 -1.74522 -4.76974 0
M  V30 907 H 81.8983 -0.0356152 -5.26588 0
M  V30 908 H 84.3893 -0.428985 -3.75457 0
M  V30 909 H 84.7023 -1.49563 -7.58189 0
M  V30 910 H 83.0473 -1.33824 -6.81994 0
M  V30 911 H 86.2383 -0.615001 -4.64042 0
M  V30 912 H 86.4113 -1.10118 -6.38575 0
M  V30 913 N 79.8174 1.5752 -0.0501392 0
M  V30 914 C 80.7654 2.12651 0.942459 0
M  V30 915 C 81.7594 1.05807 1.32292 0
M  V30 916 O 82.9654 1.24217 1.3027 0
M  V30 917 H 79.3404 0.679673 0.321789 0
M  V30 918 H 81.3114 2.94951 0.452356 0
M  V30 919 C 80.0604 2.68565 2.20836 0
M  V30 920 H 79.3834 3.50439 1.92439 0
M  V30 921 H 80.8234 3.10761 2.8845 0
M  V30 922 C 79.2824 1.62291 2.95234 0
M  V30 923 O 79.8124 1.03508 3.88135 0
M  V30 924 N 78.0184 1.33836 2.57946 0
M  V30 925 H 77.5654 1.81826 1.82475 0
M  V30 926 H 77.5234 0.629595 3.08032 0
M  V30 927 N 81.2955 -0.223234 1.56011 0
M  V30 928 C 82.2425 -1.27664 1.92277 0
M  V30 929 C 83.2125 -1.46659 0.779763 0
M  V30 930 O 84.3975 -1.60256 1.03551 0
M  V30 931 C 81.5375 -2.62234 2.24338 0
M  V30 932 C 80.6505 -2.51051 3.51564 0
M  V30 933 C 79.7855 -3.78133 3.7308 0
M  V30 934 C 78.8245 -3.61665 4.93827 0
M  V30 935 N 77.9615 -4.80693 5.11741 0
M  V30 936 H 82.8015 -0.960358 2.82101 0
M  V30 937 H 80.3385 -0.462901 1.39627 0
M  V30 938 H 82.2965 -3.40596 2.40936 0
M  V30 939 H 80.9265 -2.91961 1.3769 0
M  V30 940 H 79.9785 -1.64132 3.43169 0
M  V30 941 H 81.2905 -2.34803 4.40079 0
M  V30 942 H 80.4445 -4.64938 3.89766 0
M  V30 943 H 79.1835 -3.97304 2.82844 0
M  V30 944 H 78.1885 -2.73244 4.77093 0
M  V30 945 H 79.4135 -3.43966 5.85546 0
M  V30 946 H 77.3595 -5.00181 4.24446 0
M  V30 947 H 77.2765 -4.67165 5.94384 0
M  V30 948 H 78.5445 -5.6893 5.3286 0
M  V30 949 N 82.7736 -1.49793 -0.48987 0
M  V30 950 C 83.7056 -1.63413 -1.60713 0
M  V30 951 C 84.7186 -0.516329 -1.54395 0
M  V30 952 O 85.9076 -0.788812 -1.60125 0
M  V30 953 C 83.0076 -1.58516 -2.99543 0
M  V30 954 C 82.1806 -2.86016 -3.30928 0
M  V30 955 C 81.2396 -2.74018 -4.49222 0
M  V30 956 O 80.2656 -3.47964 -4.50455 0
M  V30 957 N 81.4676 -1.86309 -5.4979 0
M  V30 958 H 84.2326 -2.59777 -1.49452 0
M  V30 959 H 81.7936 -1.47022 -0.677955 0
M  V30 960 H 83.7856 -1.48128 -3.76617 0
M  V30 961 H 82.3556 -0.69965 -3.0467 0
M  V30 962 H 81.5756 -3.10672 -2.42645 0
M  V30 963 H 82.8636 -3.70521 -3.487 0
M  V30 964 H 82.2616 -1.2551 -5.51601 0
M  V30 965 H 80.8186 -1.81837 -6.25922 0
M  V30 966 N 84.2517 0.741722 -1.39055 0
M  V30 967 C 85.6627 1.31966 -1.32068 0
M  V30 968 C 86.0137 1.96192 0.0180797 0
M  V30 969 O 85.1387 1.95861 0.920196 0
M  V30 970 C 85.7337 2.39954 -2.39181 0
M  V30 971 C 84.2927 2.93438 -2.35735 0
M  V30 972 C 83.4397 1.66936 -2.21422 0
M  V30 973 H 86.3907 0.539721 -1.4924 0
M  V30 974 H 86.4117 3.20182 -2.05581 0
M  V30 975 H 85.9237 1.9318 -3.36605 0
M  V30 976 H 84.0247 3.4451 -1.41929 0
M  V30 977 H 84.1377 3.4701 -3.30335 0
M  V30 978 H 82.5017 1.91016 -1.68478 0
M  V30 979 H 83.2847 1.22224 -3.20806 0
M  V30 980 N 85.7298 1.2412 0.971189 0
M  V30 981 C 86.9768 1.07881 1.71371 0
M  V30 982 C 87.3048 -0.382901 1.90694 0
M  V30 983 O 86.5598 -1.29945 1.46331 0
M  V30 984 C 86.8588 1.75983 3.11071 0
M  V30 985 C 86.5248 3.25909 3.11599 0
M  V30 986 C 85.1868 3.66813 3.11451 0
M  V30 987 C 87.5388 4.21771 3.062 0
M  V30 988 C 84.8668 5.02021 3.03631 0
M  V30 989 C 87.2188 5.56982 2.99923 0
M  V30 990 C 85.8828 5.97237 2.98102 0
M  V30 991 H 85.1528 0.394764 0.62709 0
M  V30 992 H 87.7998 1.54176 1.13587 0
M  V30 993 H 86.1048 1.22072 3.72298 0
M  V30 994 H 87.8018 1.60887 3.6731 0
M  V30 995 H 84.3918 2.93353 3.12477 0
M  V30 996 H 88.5758 3.91172 3.05447 0
M  V30 997 H 83.8318 5.32411 3.0058 0
M  V30 998 H 88.0058 6.30969 2.94704 0
M  V30 999 H 85.6328 7.01967 2.91798 0
M  V30 1000 N 87.2079 -1.17134 1.05439 0
M  V30 1001 C 88.4329 -1.91913 0.786396 0
M  V30 1002 C 88.8579 -1.7643 -0.652234 0
M  V30 1003 O 88.2159 -1.08372 -1.45345 0
M  V30 1004 C 88.2639 -3.40921 1.17497 0
M  V30 1005 O 87.3679 -4.11244 0.308589 0
M  V30 1006 H 86.7089 -0.598215 0.288158 0
M  V30 1007 H 89.2389 -1.48457 1.4079 0
M  V30 1008 H 89.2489 -3.91668 1.14281 0
M  V30 1009 H 87.9239 -3.5151 2.22292 0
M  V30 1010 H 86.5009 -3.70731 0.40157 0
M  V30 1011 N 88.686 -0.835752 -1.33615 0
M  V30 1012 C 89.926 -0.43599 -1.99696 0
M  V30 1013 C 90.29 0.98557 -1.64774 0
M  V30 1014 O 91.491 1.48889 -2.23798 0
M  V30 1015 C 89.762 -0.646721 -3.515 0
M  V30 1016 S 91.321 -0.341715 -4.37467 0
M  V30 1017 H 88.139 -0.164136 -0.691795 0
M  V30 1018 H 90.741 -1.08436 -1.62671 0
M  V30 1019 H 89.445 -1.68077 -3.74404 0
M  V30 1020 H 88.976 0.0159173 -3.93397 0
M  V30 1021 H 90.991 0.839708 -4.89043 0
M  V30 1022 N 90.1641 1.46063 -0.591896 0
M  V30 1023 C 91.5801 1.57561 -0.254288 0
M  V30 1024 C 91.7801 1.58565 1.24336 0
M  V30 1025 O 90.8361 1.50753 2.02558 0
M  V30 1026 C 92.1491 2.86549 -0.911611 0
M  V30 1027 C 93.6971 3.00197 -0.886059 0
M  V30 1028 C 94.1721 4.31933 -1.5231 0
M  V30 1029 N 95.6631 4.38654 -1.48786 0
M  V30 1030 C 96.3981 5.39222 -1.95006 0
M  V30 1031 N 95.8941 6.46414 -2.49241 0
M  V30 1032 N 97.6871 5.3048 -1.85868 0
M  V30 1033 H 89.8381 1.43655 -1.56451 0
M  V30 1034 H 92.1011 0.68583 -0.654478 0
M  V30 1035 H 91.8071 2.91651 -1.96551 0
M  V30 1036 H 91.6811 3.74794 -0.425368 0
M  V30 1037 H 94.0681 2.9467 0.159246 0
M  V30 1038 H 94.1491 2.13403 -1.41041 0
M  V30 1039 H 93.7931 4.38217 -2.56765 0
M  V30 1040 H 93.7231 5.17516 -0.973891 0
M  V30 1041 H 96.2141 3.61793 -1.09151 0
M  V30 1042 H 96.5271 7.19376 -2.82344 0
M  V30 1043 H 94.8721 6.47208 -2.53272 0
M  V30 1044 H 98.0631 4.45643 -1.43248 0
M  V30 1045 H 98.2361 6.08711 -2.22204 0
M  V30 1046 N 91.6422 0.330177 1.54103 0
M  V30 1047 C 92.8902 -0.269871 2.0029 0
M  V30 1048 C 93.2112 -1.52133 1.21986 0
M  V30 1049 O 92.4812 -1.93212 0.323438 0
M  V30 1050 H 91.0612 -0.10271 0.739905 0
M  V30 1051 H 93.7232 0.448249 1.89675 0
M  V30 1052 H 92.8192 -0.52166 3.07709 0
M  V30 1053 N 93.1203 -1.57491 0.0584922 0
M  V30 1054 C 94.3693 -1.92155 -0.613146 0
M  V30 1055 C 94.6823 -0.939334 -1.71569 0
M  V30 1056 O 95.8883 -1.17829 -2.44599 0
M  V30 1057 C 94.3443 -3.41303 -1.14195 0
M  V30 1058 C 93.9523 -4.47944 -0.0711265 0
M  V30 1059 C 95.6963 -3.84988 -1.78841 0
M  V30 1060 C 93.6033 -5.88212 -0.613225 0
M  V30 1061 H 92.5333 -0.717162 -0.232796 0
M  V30 1062 H 95.1843 -1.83049 0.12857 0
M  V30 1063 H 93.5663 -3.45437 -1.93621 0
M  V30 1064 H 94.7403 -4.55408 0.702836 0
M  V30 1065 H 93.0553 -4.13644 0.478313 0
M  V30 1066 H 95.6523 -4.87159 -2.20408 0
M  V30 1067 H 95.9953 -3.21632 -2.64308 0
M  V30 1068 H 96.5283 -3.83401 -1.06059 0
M  V30 1069 H 93.2673 -6.55183 0.203978 0
M  V30 1070 H 92.7873 -5.84294 -1.35501 0
M  V30 1071 H 94.4663 -6.37687 -1.09383 0
M  V30 1072 N 94.5984 0.214957 -1.56127 0
M  V30 1073 C 95.5284 1.2695 -1.95974 0
M  V30 1074 C 96.5094 1.48539 -0.828868 0
M  V30 1075 O 97.6944 1.60611 -1.09168 0
M  V30 1076 C 94.8244 2.61794 -2.28214 0
M  V30 1077 C 93.7784 2.54851 -3.43853 0
M  V30 1078 C 93.1044 3.93785 -3.61715 0
M  V30 1079 C 94.4044 2.09065 -4.78632 0
M  V30 1080 H 96.0984 0.93846 -2.84312 0
M  V30 1081 H 93.6444 0.449996 -1.36788 0
M  V30 1082 H 95.5974 3.35731 -2.54682 0
M  V30 1083 H 94.3214 2.96599 -1.36736 0
M  V30 1084 H 92.9804 1.8337 -3.17444 0
M  V30 1085 H 92.6284 4.25908 -2.67602 0
M  V30 1086 H 92.3284 3.90019 -4.39498 0
M  V30 1087 H 93.8524 4.69374 -3.90539 0
M  V30 1088 H 95.2664 2.7275 -5.04262 0
M  V30 1089 H 93.6634 2.16346 -5.59745 0
M  V30 1090 H 94.7334 1.04315 -4.73547 0
M  V30 1091 N 96.0765 1.50051 0.48192 0
M  V30 1092 C 97.3225 1.60736 1.2366 0
M  V30 1093 C 97.6555 0.301786 1.91841 0
M  V30 1094 O 96.9305 -0.696025 1.8162 0
M  V30 1095 C 97.2135 2.78009 2.28874 0
M  V30 1096 C 97.0665 4.18416 1.65069 0
M  V30 1097 C 98.3855 2.90867 3.30279 0
M  V30 1098 H 95.5045 0.585031 0.448228 0
M  V30 1099 H 98.1465 1.82402 0.531946 0
M  V30 1100 H 96.2965 2.59667 2.88973 0
M  V30 1101 H 97.9685 4.48322 1.0865 0
M  V30 1102 H 96.2115 4.23177 0.954148 0
M  V30 1103 H 96.8825 4.96381 2.41474 0
M  V30 1104 H 99.3585 3.07623 2.80191 0
M  V30 1105 H 98.2345 3.74566 4.01238 0
M  V30 1106 H 98.4955 2.01021 3.93755 0
M  V30 1107 N 97.5546 -0.734337 1.39446 0
M  V30 1108 C 98.8006 -1.49613 1.36908 0
M  V30 1109 C 99.1336 -1.94169 -0.0347829 0
M  V30 1110 O 98.4086 -1.66833 -0.999847 0
M  V30 1111 C 98.6916 -2.73534 2.34203 0
M  V30 1112 C 98.5446 -2.34993 3.83534 0
M  V30 1113 C 99.8636 -3.75635 2.29317 0
M  V30 1114 H 96.9826 -0.542714 0.498629 0
M  V30 1115 H 99.6246 -0.839597 1.70443 0
M  V30 1116 H 97.7746 -3.29553 2.05736 0
M  V30 1117 H 99.4466 -1.84601 4.22753 0
M  V30 1118 H 97.6896 -1.67213 4.00278 0
M  V30 1119 H 98.3606 -3.23738 4.47099 0
M  V30 1120 H 100.837 -3.29203 2.54489 0
M  V30 1121 H 99.7126 -4.60008 2.99472 0
M  V30 1122 H 99.9736 -4.22603 1.29842 0
M  V30 1123 N 99.0327 -1.24633 -0.964593 0
M  V30 1124 C 100.263 -1.11339 -1.74032 0
M  V30 1125 C 100.671 0.336593 -1.86182 0
M  V30 1126 O 100.014 1.24389 -1.35178 0
M  V30 1127 C 100.076 -1.68284 -3.1768 0
M  V30 1128 C 99.7397 -3.17196 -3.28992 0
M  V30 1129 C 100.737 -4.14308 -3.14078 0
M  V30 1130 C 98.4217 -3.57215 -3.53133 0
M  V30 1131 C 100.416 -5.4942 -3.23135 0
M  V30 1132 C 98.1027 -4.92468 -3.61827 0
M  V30 1133 C 99.1007 -5.8838 -3.46841 0
M  V30 1134 O 98.7887 -7.21173 -3.55197 0
M  V30 1135 H 98.5207 -0.389551 -0.552472 0
M  V30 1136 H 101.075 -1.65282 -1.21946 0
M  V30 1137 H 99.3047 -1.08777 -3.71085 0
M  V30 1138 H 100.994 -1.50234 -3.77074 0
M  V30 1139 H 101.76 -3.84731 -2.95308 0
M  V30 1140 H 97.6387 -2.83063 -3.63863 0
M  V30 1141 H 101.183 -6.24263 -3.11355 0
M  V30 1142 H 97.0797 -5.21714 -3.80111 0
M  V30 1143 H 97.8477 -7.29135 -3.71892 0
M  V30 1144 N 100.511 1.16574 -1.06058 0
M  V30 1145 C 101.459 2.22941 -0.663343 0
M  V30 1146 C 102.453 1.66358 0.319593 0
M  V30 1147 O 103.659 1.7905 0.184713 0
M  V30 1148 H 100.034 0.725907 -0.196376 0
M  V30 1149 H 102.005 2.53736 -1.57037 0
M  V30 1150 C 100.754 3.47642 -0.0632808 0
M  V30 1151 H 100.077 3.91493 -0.810733 0
M  V30 1152 H 101.517 4.2363 0.177177 0
M  V30 1153 C 99.9758 3.1509 1.19248 0
M  V30 1154 O 100.506 3.30673 2.28075 0
M  V30 1155 N 98.7118 2.6924 1.09353 0
M  V30 1156 H 98.2588 2.5676 0.207912 0
M  V30 1157 H 98.2168 2.47833 1.93458 0
M  V30 1158 N 101.989 0.842826 1.3317 0
M  V30 1159 C 102.919 0.294028 2.31641 0
M  V30 1160 C 103.9 -0.600401 1.59151 0
M  V30 1161 O 105.085 -0.523124 1.87022 0
M  V30 1162 C 102.215 -0.528416 3.43257 0
M  V30 1163 C 101.169 0.27056 4.27144 0
M  V30 1164 C 100.495 -0.675881 5.30411 0
M  V30 1165 C 101.795 1.48981 5.00602 0
M  V30 1166 H 103.489 1.11681 2.77791 0
M  V30 1167 H 101.035 0.538478 1.33553 0
M  V30 1168 H 102.988 -0.922674 4.11175 0
M  V30 1169 H 101.712 -1.38445 2.95805 0
M  V30 1170 H 100.371 0.646427 3.60856 0
M  V30 1171 H 100.019 -1.52842 4.79216 0
M  V30 1172 H 99.7189 -0.145374 5.8742 0
M  V30 1173 H 101.243 -1.06757 6.01195 0
M  V30 1174 H 102.657 1.16849 5.61266 0
M  V30 1175 H 101.054 1.95739 5.6728 0
M  V30 1176 H 102.124 2.25746 4.29147 0
M  V30 1177 N 103.467 -1.45747 0.599634 0
M  V30 1178 C 104.715 -2.01893 0.0915472 0
M  V30 1179 C 105.036 -1.47155 -1.27946 0
M  V30 1180 O 104.306 -0.66273 -1.84349 0
M  V30 1181 H 102.886 -0.746363 0.0308524 0
M  V30 1182 H 105.548 -1.78645 0.779237 0
M  V30 1183 H 104.644 -3.1208 0.0353086 0
M  V30 1184 N 104.945 -0.338344 -1.53925 0
M  V30 1185 C 105.875 0.51328 -2.27789 0
M  V30 1186 C 106.856 1.107 -1.29149 0
M  V30 1187 O 108.041 1.12937 -1.57984 0
M  V30 1188 C 105.171 1.66697 -3.04679 0
M  V30 1189 C 104.125 1.20183 -4.1078 0
M  V30 1190 C 103.451 2.44363 -4.75595 0
M  V30 1191 C 104.751 0.30605 -5.21403 0
M  V30 1192 H 106.445 -0.102883 -2.99223 0
M  V30 1193 H 103.991 -0.0509219 -1.4391 0
M  V30 1194 H 105.944 2.26915 -3.55088 0
M  V30 1195 H 104.668 2.30995 -2.30887 0
M  V30 1196 H 103.327 0.622499 -3.61276 0
M  V30 1197 H 102.975 3.07057 -3.98403 0
M  V30 1198 H 102.675 2.13925 -5.47275 0
M  V30 1199 H 104.199 3.05317 -5.28786 0
M  V30 1200 H 105.613 0.814929 -5.67478 0
M  V30 1201 H 104.01 0.0937929 -6.00027 0
M  V30 1202 H 105.08 -0.65921 -4.80398 0
M  V30 1203 N 106.423 1.57458 -0.0668435 0
M  V30 1204 C 107.651 1.97624 0.612565 0
M  V30 1205 C 108.066 0.94502 1.63447 0
M  V30 1206 O 107.423 -0.0689276 1.8237 0
M  V30 1207 C 107.474 3.37869 1.28555 0
M  V30 1208 O 107.195 4.3704 0.304557 0
M  V30 1209 C 108.696 3.92882 2.05325 0
M  V30 1210 H 105.916 0.650045 0.166381 0
M  V30 1211 H 108.46 2.04035 -0.137782 0
M  V30 1212 H 106.615 3.3256 1.98702 0
M  V30 1213 H 107.029 5.18565 0.786779 0
M  V30 1214 H 108.503 4.93247 2.47812 0
M  V30 1215 H 108.98 3.29156 2.9078 0
M  V30 1216 H 109.586 4.01577 1.40056 0
M  V30 1217 N 107.901 -0.206675 1.56239 0
M  V30 1218 C 108.831 -1.25909 1.96645 0
M  V30 1219 C 109.812 -1.48097 0.836734 0
M  V30 1220 O 110.997 -1.6003 1.10019 0
M  V30 1221 C 108.127 -2.6058 2.29599 0
M  V30 1222 C 107.081 -2.53024 3.452 0
M  V30 1223 C 106.407 -3.91861 3.63798 0
M  V30 1224 C 107.707 -2.06524 4.79734 0
M  V30 1225 H 109.401 -0.923369 2.84806 0
M  V30 1226 H 106.947 -0.442735 1.37025 0
M  V30 1227 H 108.9 -3.34375 2.56459 0
M  V30 1228 H 107.624 -2.95869 1.38307 0
M  V30 1229 H 106.283 -1.81684 3.18412 0
M  V30 1230 H 105.931 -4.24483 2.69857 0
M  V30 1231 H 105.631 -3.87683 4.4156 0
M  V30 1232 H 107.155 -4.67296 3.93022 0
M  V30 1233 H 108.569 -2.70072 5.05702 0
M  V30 1234 H 106.966 -2.13374 5.60885 0
M  V30 1235 H 108.036 -1.01802 4.74093 0
M  V30 1236 N 109.379 -1.50304 -0.473955 0
M  V30 1237 C 110.309 -1.71886 -1.58042 0
M  V30 1238 C 111.29 -0.567799 -1.60344 0
M  V30 1239 O 112.475 -0.806623 -1.76656 0
M  V30 1240 C 109.605 -1.81036 -2.96384 0
M  V30 1241 C 108.559 -2.962 -3.08949 0
M  V30 1242 C 107.885 -2.9049 -4.48909 0
M  V30 1243 C 109.185 -4.36752 -2.86434 0
M  V30 1244 H 110.879 -2.64527 -1.40234 0
M  V30 1245 H 108.425 -1.27295 -0.673201 0
M  V30 1246 H 110.378 -1.94719 -3.73714 0
M  V30 1247 H 109.102 -0.850147 -3.15341 0
M  V30 1248 H 107.761 -2.82164 -2.3405 0
M  V30 1249 H 107.409 -1.92321 -4.64781 0
M  V30 1250 H 107.109 -3.67802 -4.58253 0
M  V30 1251 H 108.633 -3.06218 -5.28264 0
M  V30 1252 H 110.047 -4.5133 -3.53517 0
M  V30 1253 H 108.444 -5.15493 -3.07225 0
M  V30 1254 H 109.514 -4.49321 -1.82316 0
M  V30 1255 N 110.857 0.726932 -1.39834 0
M  V30 1256 C 112.082 1.52121 -1.40976 0
M  V30 1257 C 112.507 1.88098 -0.00826029 0
M  V30 1258 O 111.865 1.52479 0.980807 0
M  V30 1259 C 111.913 2.78021 -2.29644 0
M  V30 1260 O 111.017 3.74272 -1.73188 0
M  V30 1261 H 110.358 0.45908 -0.479731 0
M  V30 1262 H 112.888 0.896207 -1.83927 0
M  V30 1263 H 112.898 3.26671 -2.44438 0
M  V30 1264 H 111.573 2.51169 -3.31492 0
M  V30 1265 H 110.15 3.33073 -1.6768 0
M  V30 1266 N 112.336 1.25143 0.95797 0
M  V30 1267 C 113.266 1.07711 2.07173 0
M  V30 1268 C 114.247 -0.0128462 1.70095 0
M  V30 1269 O 115.432 0.156061 1.93572 0
M  V30 1270 C 112.562 0.691503 3.40346 0
M  V30 1271 C 111.516 1.73132 3.9142 0
M  V30 1272 C 110.842 1.20049 5.21049 0
M  V30 1273 C 112.142 3.1294 4.1817 0
M  V30 1274 H 113.836 2.00873 2.22014 0
M  V30 1275 H 111.382 0.967191 1.06684 0
M  V30 1276 H 113.335 0.556505 4.17709 0
M  V30 1277 H 112.059 -0.275819 3.25433 0
M  V30 1278 H 110.718 1.8547 3.16222 0
M  V30 1279 H 110.366 0.223499 5.02503 0
M  V30 1280 H 110.066 1.89545 5.56189 0
M  V30 1281 H 111.59 1.07782 6.01012 0
M  V30 1282 H 113.004 3.03775 4.86203 0
M  V30 1283 H 111.401 3.79875 4.64559 0
M  V30 1284 H 112.471 3.6025 3.24573 0
M  V30 1285 N 113.814 -1.1601 1.06675 0
M  V30 1286 C 115.044 -1.90251 0.805497 0
M  V30 1287 C 115.452 -1.77891 -0.64431 0
M  V30 1288 O 114.795 -1.12383 -1.45313 0
M  V30 1289 C 114.857 -3.41419 1.12576 0
M  V30 1290 C 114.521 -3.77564 2.57477 0
M  V30 1291 C 115.518 -3.79161 3.55715 0
M  V30 1292 C 113.203 -4.08079 2.92877 0
M  V30 1293 C 115.197 -4.10767 4.8739 0
M  V30 1294 C 112.884 -4.39351 4.24751 0
M  V30 1295 C 113.882 -4.40675 5.21818 0
M  V30 1296 O 113.57 -4.71202 6.51325 0
M  V30 1297 H 113.302 -0.610018 0.291297 0
M  V30 1298 H 115.856 -1.47958 1.4247 0
M  V30 1299 H 114.086 -3.84079 0.449503 0
M  V30 1300 H 115.775 -3.9694 0.84814 0
M  V30 1301 H 116.541 -3.55693 3.29708 0
M  V30 1302 H 112.42 -4.06211 2.17976 0
M  V30 1303 H 115.964 -4.11715 5.63148 0
M  V30 1304 H 111.861 -4.62285 4.50514 0
M  V30 1305 H 112.629 -4.88996 6.56373 0
M  V30 1306 N 115.292 -0.849877 -1.32721 0
M  V30 1307 C 116.225 -0.235903 -2.26977 0
M  V30 1308 C 117.203 0.623355 -1.50177 0
M  V30 1309 O 118.387 0.581207 -1.79316 0
M  V30 1310 C 115.514 0.667712 -3.32053 0
M  V30 1311 C 114.56 -0.11753 -4.26338 0
M  V30 1312 S 115.393 -1.48277 -5.14562 0
M  V30 1313 C 116.549 -0.584741 -6.23163 0
M  V30 1314 H 116.782 -1.03495 -2.78704 0
M  V30 1315 H 114.315 -0.64724 -1.40179 0
M  V30 1316 H 116.273 1.18343 -3.93072 0
M  V30 1317 H 114.934 1.44052 -2.7912 0
M  V30 1318 H 114.127 0.57051 -5.00761 0
M  V30 1319 H 113.729 -0.564668 -3.69713 0
M  V30 1320 H 116.021 0.212968 -6.77165 0
M  V30 1321 H 116.964 -1.29947 -6.96074 0
M  V30 1322 H 117.372 -0.161202 -5.6427 0
M  V30 1323 N 116.77 1.45427 -0.607355 0
M  V30 1324 C 118.017 2.02241 -0.102455 0
M  V30 1325 C 118.345 1.4758 1.26691 0
M  V30 1326 O 117.6 0.640468 1.84923 0
M  V30 1327 C 117.899 3.57398 -0.0129263 0
M  V30 1328 C 117.565 4.3121 -1.31792 0
M  V30 1329 C 116.227 4.51092 -1.67539 0
M  V30 1330 C 118.579 4.73401 -2.18039 0
M  V30 1331 C 115.907 5.10422 -2.89285 0
M  V30 1332 C 118.259 5.34078 -3.39034 0
M  V30 1333 C 116.923 5.52184 -3.75033 0
M  V30 1334 H 116.193 0.740051 -0.037491 0
M  V30 1335 H 118.84 1.74494 -0.788926 0
M  V30 1336 H 117.145 3.84421 0.756806 0
M  V30 1337 H 118.842 3.99061 0.393881 0
M  V30 1338 H 115.432 4.16047 -1.02968 0
M  V30 1339 H 119.616 4.57774 -1.91721 0
M  V30 1340 H 114.872 5.22629 -3.17283 0
M  V30 1341 H 119.046 5.65724 -4.06115 0
M  V30 1342 H 116.673 5.97925 -4.69457 0
M  V30 1343 N 118.248 0.346503 1.53744 0
M  V30 1344 C 119.488 -0.249413 2.02873 0
M  V30 1345 C 119.852 -1.47532 1.22876 0
M  V30 1346 O 121.053 -2.1456 1.61918 0
M  V30 1347 C 119.324 -0.552909 3.53097 0
M  V30 1348 S 120.883 -1.12521 4.24128 0
M  V30 1349 H 117.701 -0.074042 0.707134 0
M  V30 1350 H 120.303 0.48495 1.8939 0
M  V30 1351 H 119.007 0.347083 4.0893 0
M  V30 1352 H 118.538 -1.31686 3.70705 0
M  V30 1353 H 120.553 -2.41075 4.33702 0
M  V30 1354 N 119.726 -1.57421 0.075193 0
M  V30 1355 C 120.636 -2.1642 -0.905511 0
M  V30 1356 C 121.652 -1.12828 -1.32461 0
M  V30 1357 O 122.828 -1.45109 -1.39661 0
M  V30 1358 C 119.893 -2.71693 -2.15369 0
M  V30 1359 C 118.954 -3.90171 -1.79068 0
M  V30 1360 C 118.187 -4.42798 -2.97936 0
M  V30 1361 O 118.41 -3.94416 -4.12058 0
M  V30 1362 O 117.344 -5.34085 -2.77555 0
M  V30 1363 H 121.17 -3.00588 -0.433626 0
M  V30 1364 H 118.755 -1.48664 -0.148067 0
M  V30 1365 H 120.637 -3.07104 -2.88557 0
M  V30 1366 H 119.312 -1.90582 -2.61649 0
M  V30 1367 H 118.219 -3.59606 -1.03122 0
M  V30 1368 H 119.552 -4.72584 -1.37569 0
M  V30 1369 N 121.204 0.198386 -1.56346 0
M  V30 1370 C 122.134 1.24865 -1.9731 0
M  V30 1371 C 123.115 1.47651 -0.844576 0
M  V30 1372 O 124.3 1.59444 -1.10866 0
M  V30 1373 C 121.43 2.59358 -2.30977 0
M  V30 1374 C 120.384 2.5119 -3.46537 0
M  V30 1375 C 119.71 3.89926 -3.65871 0
M  V30 1376 C 121.01 2.03977 -4.80823 0
M  V30 1377 H 122.704 0.908252 -2.85291 0
M  V30 1378 H 120.25 0.435462 -1.37258 0
M  V30 1379 H 122.203 3.33011 -2.58228 0
M  V30 1380 H 120.927 2.95132 -1.39874 0
M  V30 1381 H 119.586 1.79993 -3.19371 0
M  V30 1382 H 119.234 4.23046 -2.72105 0
M  V30 1383 H 118.934 3.85336 -4.4361 0
M  V30 1384 H 120.458 4.65205 -3.95495 0
M  V30 1385 H 121.872 2.67386 -5.07127 0
M  V30 1386 H 120.269 2.10397 -5.62008 0
M  V30 1387 H 121.339 0.992861 -4.74626 0
M  V30 1388 N 122.682 1.50554 0.465978 0
M  V30 1389 C 123.928 1.62038 1.21949 0
M  V30 1390 C 124.261 0.322116 1.9151 0
M  V30 1391 O 123.536 -0.676723 1.82348 0
M  V30 1392 C 123.819 2.80421 2.25912 0
M  V30 1393 C 123.672 4.20144 1.60622 0
M  V30 1394 C 124.991 2.94354 3.27176 0
M  V30 1395 H 122.11 0.589752 0.441998 0
M  V30 1396 H 124.752 1.82956 0.51257 0
M  V30 1397 H 122.902 2.62717 2.86203 0
M  V30 1398 H 124.574 4.49449 1.03889 0
M  V30 1399 H 122.817 4.24165 0.909211 0
M  V30 1400 H 123.488 4.98914 2.36196 0
M  V30 1401 H 125.964 3.10578 2.76913 0
M  V30 1402 H 124.84 3.788 3.97242 0
M  V30 1403 H 125.101 2.05186 3.916 0
M  V30 1404 N 124.16 -0.719506 1.40217 0
M  V30 1405 C 125.388 -1.50864 1.41589 0
M  V30 1406 C 125.803 -1.88794 0.0145275 0
M  V30 1407 O 125.16 -1.55174 -0.960594 0
M  V30 1408 C 125.211 -2.78646 2.30302 0
M  V30 1409 O 124.932 -2.42321 3.64983 0
M  V30 1410 C 126.433 -3.72569 2.40224 0
M  V30 1411 H 123.653 -0.465709 0.48307 0
M  V30 1412 H 126.197 -0.88785 1.84221 0
M  V30 1413 H 124.352 -3.37019 1.91042 0
M  V30 1414 H 124.766 -3.24514 4.12057 0
M  V30 1415 H 126.24 -4.5908 3.06512 0
M  V30 1416 H 126.717 -4.15403 1.42608 0
M  V30 1417 H 127.323 -3.20109 2.80019 0
M  V30 1418 N 125.638 -1.25649 -0.95132 0
M  V30 1419 C 126.886 -1.10375 -1.69298 0
M  V30 1420 C 127.207 0.355339 -1.91735 0
M  V30 1421 O 126.477 1.25188 -1.50681 0
M  V30 1422 H 125.057 -0.405461 -0.627384 0
M  V30 1423 H 127.719 -1.57823 -1.14358 0
M  V30 1424 H 126.815 -1.61465 -2.67087 0
M  V30 1425 N 127.117 1.15442 -1.07289 0
M  V30 1426 C 128.363 1.86489 -0.796846 0
M  V30 1427 C 128.696 1.82078 0.675371 0
M  V30 1428 O 127.971 1.24346 1.4956 0
M  V30 1429 C 128.254 3.35626 -1.30489 0
M  V30 1430 C 128.107 3.48673 -2.84161 0
M  V30 1431 C 129.426 4.30357 -0.920907 0
M  V30 1432 H 126.545 0.677144 -0.290939 0
M  V30 1433 H 129.187 1.35633 -1.33056 0
M  V30 1434 H 127.337 3.79068 -0.850883 0
M  V30 1435 H 129.009 3.14099 -3.37846 0
M  V30 1436 H 127.252 2.90253 -3.22391 0
M  V30 1437 H 127.923 4.53453 -3.14777 0
M  V30 1438 H 130.399 3.94871 -1.3121 0
M  V30 1439 H 129.275 5.33193 -1.30372 0
M  V30 1440 H 129.536 4.4176 0.173226 0
M  V30 1441 N 128.595 0.856903 1.32268 0
M  V30 1442 C 129.841 0.471355 1.97863 0
M  V30 1443 C 130.196 -0.962896 1.66572 0
M  V30 1444 O 129.489 -1.66686 0.944797 0
M  V30 1445 C 129.683 0.649919 3.51441 0
M  V30 1446 C 129.512 2.09997 3.97657 0
M  V30 1447 C 128.282 2.73893 4.2463 0
M  V30 1448 C 130.48 3.07081 4.1256 0
M  V30 1449 N 128.462 4.09786 4.57109 0
M  V30 1450 C 129.833 4.27968 4.48602 0
M  V30 1451 C 131.888 3.03247 3.949 0
M  V30 1452 C 130.591 5.45521 4.68827 0
M  V30 1453 C 132.617 4.20046 4.16311 0
M  V30 1454 C 131.979 5.39692 4.52672 0
M  V30 1455 H 128.078 0.221263 0.750044 0
M  V30 1456 H 130.662 1.10876 1.60045 0
M  V30 1457 H 128.833 0.0421938 3.88377 0
M  V30 1458 H 130.565 0.234044 4.04023 0
M  V30 1459 H 127.32 2.24918 4.16784 0
M  V30 1460 H 127.744 4.7989 4.7753 0
M  V30 1461 H 132.386 2.11863 3.65888 0
M  V30 1462 H 130.104 6.37434 4.96693 0
M  V30 1463 H 133.69 4.18517 4.04147 0
M  V30 1464 H 132.57 6.28566 4.68907 0
M  V30 1465 N 130.073 -1.45103 0.615059 0
M  V30 1466 C 130.983 -2.34382 -0.101034 0
M  V30 1467 C 131.999 -1.51681 -0.852585 0
M  V30 1468 O 133.175 -1.8446 -0.808484 0
M  V30 1469 C 130.24 -3.29417 -1.08099 0
M  V30 1470 C 129.301 -4.28025 -0.330577 0
M  V30 1471 C 128.534 -5.1852 -1.26385 0
M  V30 1472 O 128.757 -5.12598 -2.50198 0
M  V30 1473 O 127.691 -5.97122 -0.756866 0
M  V30 1474 H 131.517 -2.97033 0.632855 0
M  V30 1475 H 129.102 -1.4461 0.375293 0
M  V30 1476 H 130.984 -3.87958 -1.6452 0
M  V30 1477 H 129.659 -2.69321 -1.79577 0
M  V30 1478 H 128.566 -3.73078 0.276283 0
M  V30 1479 H 129.899 -4.90997 0.343866 0
M  V30 1480 N 131.551 -0.354651 -1.53558 0
M  V30 1481 C 132.799 0.237972 -2.00694 0
M  V30 1482 C 133.12 1.50173 -1.24391 0
M  V30 1483 O 132.39 1.92673 -0.354135 0
M  V30 1484 H 130.97 0.0909256 -0.741446 0
M  V30 1485 H 133.632 -0.478368 -1.88938 0
M  V30 1486 H 132.728 0.47264 -3.085 0
M  V30 1487 N 133.029 1.57378 -0.0835403 0
M  V30 1488 C 133.976 2.13384 0.879539 0
M  V30 1489 C 134.946 1.04936 1.28754 0
M  V30 1490 O 136.131 1.32662 1.37133 0
M  V30 1491 C 133.271 2.70932 2.13752 0
M  V30 1492 C 132.384 3.93575 1.7811 0
M  V30 1493 C 131.519 4.39326 2.98607 0
M  V30 1494 C 130.558 5.54587 2.59037 0
M  V30 1495 N 129.695 5.95243 3.72331 0
M  V30 1496 H 134.535 2.9537 0.395076 0
M  V30 1497 H 132.072 1.45953 0.183349 0
M  V30 1498 H 134.03 3.02411 2.87408 0
M  V30 1499 H 132.66 1.91693 2.59718 0
M  V30 1500 H 131.712 3.68483 0.94469 0
M  V30 1501 H 133.024 4.77258 1.45005 0
M  V30 1502 H 132.178 4.72528 3.80529 0
M  V30 1503 H 130.917 3.5452 3.34913 0
M  V30 1504 H 129.922 5.21024 1.75539 0
M  V30 1505 H 131.147 6.41133 2.23887 0
M  V30 1506 H 129.093 5.13385 4.08378 0
M  V30 1507 H 129.01 6.73694 3.43034 0
M  V30 1508 H 130.278 6.33072 4.54797 0
M  V30 1509 N 134.507 -0.190092 1.56449 0
M  V30 1510 C 135.737 -0.92443 1.84764 0
M  V30 1511 C 136.145 -1.77146 0.664529 0
M  V30 1512 O 135.488 -1.79812 -0.375957 0
M  V30 1513 C 135.55 -1.86651 3.07248 0
M  V30 1514 C 135.214 -1.20094 4.40938 0
M  V30 1515 C 136.211 -0.575445 5.16706 0
M  V30 1516 C 133.896 -1.2033 4.87674 0
M  V30 1517 C 135.89 0.0388111 6.37388 0
M  V30 1518 C 133.577 -0.585214 6.08291 0
M  V30 1519 C 134.575 0.0347578 6.82991 0
M  V30 1520 O 134.263 0.643147 8.01323 0
M  V30 1521 H 133.995 -0.274974 0.617548 0
M  V30 1522 H 136.549 -0.200788 2.04416 0
M  V30 1523 H 134.779 -2.62998 2.83494 0
M  V30 1524 H 136.468 -2.46907 3.22167 0
M  V30 1525 H 137.234 -0.565728 4.81689 0
M  V30 1526 H 133.113 -1.67526 4.29484 0
M  V30 1527 H 136.657 0.523329 6.95634 0
M  V30 1528 H 132.554 -0.592451 6.42775 0
M  V30 1529 H 133.322 0.540545 8.16713 0
M  V30 1530 N 135.985 -1.50799 -0.457987 0
M  V30 1531 C 136.933 -1.71162 -1.575 0
M  V30 1532 C 137.927 -0.577592 -1.59249 0
M  V30 1533 O 139.133 -0.758443 -1.63241 0
M  V30 1534 H 135.508 -0.540468 -0.522875 0
M  V30 1535 H 137.479 -2.64837 -1.37492 0
M  V30 1536 C 136.228 -1.83496 -2.95338 0
M  V30 1537 H 135.551 -2.70153 -2.94716 0
M  V30 1538 H 136.991 -2.01765 -3.72917 0
M  V30 1539 C 135.45 -0.589694 -3.31699 0
M  V30 1540 O 135.98 0.265163 -4.00824 0
M  V30 1541 N 134.186 -0.439845 -2.87252 0
M  V30 1542 H 133.733 -1.13655 -2.31172 0
M  V30 1543 H 133.691 0.392159 -3.11945 0
M  V30 1544 N 137.463 0.71206 -1.40597 0
M  V30 1545 C 138.71 1.47197 -1.39065 0
M  V30 1546 C 139.038 1.94499 0.00583891 0
M  V30 1547 O 138.293 1.68752 0.99102 0
M  V30 1548 C 138.592 2.71039 -2.32965 0
M  V30 1549 C 138.258 2.42484 -3.80148 0
M  V30 1550 C 136.92 2.34406 -4.20247 0
M  V30 1551 C 139.272 2.18598 -4.73143 0
M  V30 1552 C 136.6 2.00516 -5.51371 0
M  V30 1553 C 138.952 1.8622 -6.0457 0
M  V30 1554 C 137.616 1.76626 -6.43708 0
M  V30 1555 H 136.886 0.538634 -0.508876 0
M  V30 1556 H 139.533 0.815325 -1.73276 0
M  V30 1557 H 137.838 3.41558 -1.91951 0
M  V30 1558 H 139.535 3.29138 -2.29061 0
M  V30 1559 H 136.125 2.49659 -3.4838 0
M  V30 1560 H 140.309 2.23793 -4.42979 0
M  V30 1561 H 135.565 1.91628 -5.80593 0
M  V30 1562 H 139.739 1.66752 -6.76141 0
M  V30 1563 H 137.366 1.50133 -7.45228 0
M  V30 1564 N 138.941 1.26152 0.944643 0
M  V30 1565 C 140.188 1.11492 1.69044 0
M  V30 1566 C 140.516 -0.342366 1.91463 0
M  V30 1567 O 139.771 -1.26812 1.49054 0
M  V30 1568 C 140.07 1.82541 3.07268 0
M  V30 1569 C 139.736 3.32445 3.04616 0
M  V30 1570 C 138.398 3.73337 3.036 0
M  V30 1571 C 140.75 4.28171 2.97185 0
M  V30 1572 C 138.078 5.08348 2.92915 0
M  V30 1573 C 140.43 5.63218 2.88041 0
M  V30 1574 C 139.094 6.03426 2.85366 0
M  V30 1575 H 138.364 0.407977 0.618576 0
M  V30 1576 H 141.011 1.56551 1.10291 0
M  V30 1577 H 139.316 1.29941 3.69625 0
M  V30 1578 H 141.013 1.68642 3.63815 0
M  V30 1579 H 137.603 2.99915 3.06185 0
M  V30 1580 H 141.787 3.97563 2.97081 0
M  V30 1581 H 137.043 5.38667 2.89219 0
M  V30 1582 H 141.217 6.37078 2.81254 0
M  V30 1583 H 138.844 7.07999 2.76842 0
M  V30 1584 N 140.419 -1.14872 1.07899 0
M  V30 1585 C 141.659 -1.8745 0.814965 0
M  V30 1586 C 142.023 -1.80758 -0.64733 0
M  V30 1587 O 143.224 -2.48422 -1.02664 0
M  V30 1588 C 141.495 -3.32286 1.31607 0
M  V30 1589 S 143.054 -4.22537 1.18357 0
M  V30 1590 H 139.872 -0.646833 0.295174 0
M  V30 1591 H 142.474 -1.38555 1.37923 0
M  V30 1592 H 141.178 -3.34703 2.37491 0
M  V30 1593 H 140.709 -3.86238 0.747261 0
M  V30 1594 H 142.724 -4.96044 0.124586 0
M  V30 1595 N 141.898 -0.863906 -1.31812 0
M  V30 1596 C 142.83 -0.272485 -2.27575 0
M  V30 1597 C 143.843 0.56104 -1.52827 0
M  V30 1598 O 145.032 0.384021 -1.7432 0
M  V30 1599 C 142.132 0.63283 -3.32939 0
M  V30 1600 C 141.305 -0.166902 -4.37081 0
M  V30 1601 C 140.364 0.665608 -5.21973 0
M  V30 1602 O 139.39 0.0958091 -5.69119 0
M  V30 1603 N 140.592 1.9787 -5.45736 0
M  V30 1604 H 143.357 -1.0954 -2.78964 0
M  V30 1605 H 140.918 -0.724791 -1.4477 0
M  V30 1606 H 142.91 1.19532 -3.86645 0
M  V30 1607 H 141.48 1.35642 -2.81638 0
M  V30 1608 H 140.7 -0.910838 -3.83533 0
M  V30 1609 H 141.988 -0.715874 -5.03739 0
M  V30 1610 H 141.386 2.46484 -5.09178 0
M  V30 1611 H 139.943 2.48911 -6.024 0
M  V30 1612 N 143.376 1.44774 -0.622745 0
M  V30 1613 C 144.624 2.01721 -0.123655 0
M  V30 1614 C 144.945 1.49172 1.25589 0
M  V30 1615 O 144.215 0.691974 1.83272 0
M  V30 1616 H 142.795 0.745777 -0.0427225 0
M  V30 1617 H 145.457 1.77382 -0.807559 0
M  V30 1618 H 144.553 3.11984 -0.0849534 0
M  V30 1619 N 144.854 0.36279 1.53368 0
M  V30 1620 C 146.082 -0.228613 2.05633 0
M  V30 1621 C 146.497 -1.42676 1.23649 0
M  V30 1622 O 145.854 -1.80394 0.27647 0
M  V30 1623 C 145.905 -0.624845 3.56059 0
M  V30 1624 O 145.626 0.525675 4.34935 0
M  V30 1625 C 147.127 -1.27493 4.24571 0
M  V30 1626 H 144.347 -0.0407183 0.669763 0
M  V30 1627 H 146.891 0.520352 1.97769 0
M  V30 1628 H 145.046 -1.32373 3.64083 0
M  V30 1629 H 145.46 0.205969 5.24095 0
M  V30 1630 H 146.934 -1.50277 5.31151 0
M  V30 1631 H 147.411 -2.23439 3.78116 0
M  V30 1632 H 148.017 -0.617558 4.20792 0
M  V30 1633 N 146.332 -1.57332 0.0918853 0
M  V30 1634 C 147.748 -1.57389 -0.264766 0
M  V30 1635 C 147.948 -1.10281 -1.68643 0
M  V30 1636 O 147.004 -0.777801 -2.40222 0
M  V30 1637 C 148.317 -3.00648 -0.0561195 0
M  V30 1638 C 149.865 -3.12754 -0.124116 0
M  V30 1639 C 150.34 -4.57965 0.0564972 0
M  V30 1640 N 151.831 -4.632 0.00155611 0
M  V30 1641 C 152.566 -5.73281 0.116598 0
M  V30 1642 N 152.062 -6.92208 0.286294 0
M  V30 1643 N 153.855 -5.6207 0.0580973 0
M  V30 1644 H 146.006 -1.86262 1.02079 0
M  V30 1645 H 148.269 -0.859579 0.399786 0
M  V30 1646 H 147.975 -3.393 0.925669 0
M  V30 1647 H 147.849 -3.68623 -0.799823 0
M  V30 1648 H 150.236 -2.73976 -1.09641 0
M  V30 1649 H 150.317 -2.47377 0.651024 0
M  V30 1650 H 149.961 -4.97436 1.02564 0
M  V30 1651 H 149.891 -5.21399 -0.738297 0
M  V30 1652 H 152.382 -3.77686 -0.127192 0
M  V30 1653 H 152.695 -7.71934 0.365676 0
M  V30 1654 H 151.04 -6.94254 0.32192 0
M  V30 1655 H 154.231 -4.68043 -0.0733204 0
M  V30 1656 H 154.404 -6.47824 0.151203 0
M  V30 1657 N 147.81 0.181792 -1.56548 0
M  V30 1658 C 149.038 0.915947 -1.85521 0
M  V30 1659 C 149.453 1.76282 -0.676016 0
M  V30 1660 O 148.81 1.79012 0.355077 0
M  V30 1661 C 148.861 1.80126 -3.13427 0
M  V30 1662 O 148.582 0.988562 -4.26801 0
M  V30 1663 C 150.083 2.64597 -3.55673 0
M  V30 1664 H 147.303 0.26661 -0.61576 0
M  V30 1665 H 149.847 0.185039 -2.03661 0
M  V30 1666 H 148.002 2.48563 -2.97145 0
M  V30 1667 H 148.416 1.59308 -4.99721 0
M  V30 1668 H 149.89 3.2235 -4.48101 0
M  V30 1669 H 150.367 3.38958 -2.79292 0
M  V30 1670 H 150.973 2.0151 -3.74532 0
M  V30 1671 N 149.288 1.51039 0.449983 0
M  V30 1672 C 150.251 1.70863 1.5277 0
M  V30 1673 C 151.251 0.578846 1.5002 0
M  V30 1674 O 152.441 0.846213 1.52266 0
M  V30 1675 C 149.573 1.75341 2.9235 0
M  V30 1676 H 150.766 2.67034 1.36502 0
M  V30 1677 H 148.319 1.40838 0.677812 0
M  V30 1678 H 149.054 0.809383 3.14037 0
M  V30 1679 H 148.839 2.57436 2.95752 0
M  V30 1680 H 150.329 1.92559 3.70555 0
M  V30 1681 N 150.766 -0.704594 1.40972 0
M  V30 1682 C 152.014 -1.46169 1.39568 0
M  V30 1683 C 152.335 -1.95 0.00253745 0
M  V30 1684 O 151.605 -1.71095 -0.954114 0
M  V30 1685 H 150.185 -0.542326 0.513704 0
M  V30 1686 H 152.847 -0.834553 1.76128 0
M  V30 1687 H 151.943 -2.32922 2.07735 0
M  V30 1688 N 152.244 -1.26651 -0.937939 0
M  V30 1689 C 153.154 -1.10276 -2.07066 0
M  V30 1690 C 154.17 -0.0354197 -1.73964 0
M  V30 1691 O 155.346 -0.239816 -1.99967 0
M  V30 1692 C 152.411 -0.740887 -3.38691 0
M  V30 1693 C 151.472 -1.88799 -3.85556 0
M  V30 1694 C 150.705 -1.54329 -5.10899 0
M  V30 1695 O 150.928 -0.446494 -5.6865 0
M  V30 1696 O 149.862 -2.37911 -5.52885 0
M  V30 1697 H 153.688 -2.05309 -2.23789 0
M  V30 1698 H 151.273 -1.05743 -1.0554 0
M  V30 1699 H 153.155 -0.55195 -4.1777 0
M  V30 1700 H 151.83 0.180022 -3.23199 0
M  V30 1701 H 150.737 -2.13191 -3.07409 0
M  V30 1702 H 152.07 -2.78874 -4.05574 0
M  V30 1703 N 153.722 1.14298 -1.08507 0
M  V30 1704 C 154.947 1.8976 -0.837001 0
M  V30 1705 C 155.372 1.78097 0.605228 0
M  V30 1706 O 154.73 1.12188 1.4242 0
M  V30 1707 C 154.778 3.37685 -1.26495 0
M  V30 1708 O 153.882 4.10281 -0.417514 0
M  V30 1709 H 153.223 0.590365 -0.303917 0
M  V30 1710 H 155.753 1.44672 -1.44676 0
M  V30 1711 H 155.763 3.88501 -1.24625 0
M  V30 1712 H 154.438 3.45492 -2.31534 0
M  V30 1713 H 153.015 3.69536 -0.499722 0
M  V30 1714 N 155.201 0.870884 1.31352 0
M  V30 1715 C 156.478 0.402907 1.91405 0
M  V30 1716 C 156.858 -1.11512 1.79244 0
M  V30 1717 O 156.206 -1.94411 1.2007 0
M  V30 1718 C 156.416 0.885301 3.37585 0
M  V30 1719 C 157.764 0.911971 4.14691 0
M  V30 1720 O 158.788 0.831016 3.46371 0
M  V30 1721 O 157.647 1.02927 5.3672 0
M  V30 1722 H 154.741 0.120698 0.818145 0
M  V30 1723 H 157.287 0.958857 1.40014 0
M  V30 1724 H 156.059 1.92889 3.40455 0
M  V30 1725 H 155.682 0.307714 3.96407 0
M  V30 1726 N 156.679 -1.44442 0.630414 0
M  V30 1727 C 157.612 -2.27862 -0.124247 0
M  V30 1728 C 158.59 -1.38495 -0.851931 0
M  V30 1729 O 159.774 -1.67935 -0.856166 0
M  V30 1730 C 156.901 -3.17407 -1.18197 0
M  V30 1731 C 155.947 -4.22875 -0.554892 0
M  V30 1732 S 156.78 -5.31485 0.654489 0
M  V30 1733 C 157.936 -6.246 -0.40326 0
M  V30 1734 H 158.169 -2.91519 0.583435 0
M  V30 1735 H 155.702 -1.48618 0.418565 0
M  V30 1736 H 157.66 -3.69549 -1.78728 0
M  V30 1737 H 156.321 -2.52971 -1.86184 0
M  V30 1738 H 155.514 -4.85542 -1.35148 0
M  V30 1739 H 155.116 -3.73992 -0.0242105 0
M  V30 1740 H 157.408 -6.65375 -1.27602 0
M  V30 1741 H 158.351 -7.07851 0.187813 0
M  V30 1742 H 158.759 -5.59775 -0.728837 0
M  V30 1743 N 158.157 -0.370918 -1.53173 0
M  V30 1744 C 159.104 0.473035 -2.259 0
M  V30 1745 C 160.074 1.07311 -1.26781 0
M  V30 1746 O 161.259 1.1046 -1.55574 0
M  V30 1747 C 158.399 1.60405 -3.05556 0
M  V30 1748 C 157.512 1.02863 -4.19575 0
M  V30 1749 C 156.647 2.12918 -4.86661 0
M  V30 1750 C 155.686 1.52869 -5.92704 0
M  V30 1751 N 154.823 2.56779 -6.53459 0
M  V30 1752 H 159.663 -0.153649 -2.97604 0
M  V30 1753 H 157.2 -0.0875946 -1.46839 0
M  V30 1754 H 159.158 2.27034 -3.50016 0
M  V30 1755 H 157.788 2.20131 -2.36097 0
M  V30 1756 H 156.84 0.252465 -3.79561 0
M  V30 1757 H 158.152 0.549642 -4.95762 0
M  V30 1758 H 157.306 2.87356 -5.34333 0
M  V30 1759 H 156.045 2.6417 -4.09958 0
M  V30 1760 H 155.05 0.769479 -5.44389 0
M  V30 1761 H 156.275 1.02435 -6.7133 0
M  V30 1762 H 154.221 3.07235 -5.79606 0
M  V30 1763 H 154.138 2.13583 -7.25202 0
M  V30 1764 H 155.406 3.30903 -7.05779 0
M  V30 1765 N 159.635 1.57281 -0.100228 0
M  V30 1766 C 160.884 1.93713 0.561984 0
M  V30 1767 C 161.197 0.984492 1.69018 0
M  V30 1768 O 162.403 1.24273 2.41389 0
M  V30 1769 C 160.859 3.4421 1.05106 0
M  V30 1770 C 160.467 4.47975 -0.0476628 0
M  V30 1771 C 162.211 3.89595 1.68571 0
M  V30 1772 C 160.118 5.89631 0.457055 0
M  V30 1773 H 159.048 0.723082 0.2137 0
M  V30 1774 H 161.699 1.82644 -0.177057 0
M  V30 1775 H 160.081 3.50449 1.84395 0
M  V30 1776 H 161.255 4.53385 -0.823333 0
M  V30 1777 H 159.57 4.1223 -0.587816 0
M  V30 1778 H 162.167 4.92832 2.07414 0
M  V30 1779 H 162.51 3.28526 2.55688 0
M  V30 1780 H 163.043 3.86078 0.958562 0
M  V30 1781 H 159.782 6.54411 -0.377616 0
M  V30 1782 H 159.302 5.87681 1.19962 0
M  V30 1783 H 160.981 6.40363 0.92437 0
M  V30 1784 N 161.113 -0.173488 1.56642 0
M  V30 1785 C 162.362 -0.888758 1.81063 0
M  V30 1786 C 162.675 -1.83506 0.67712 0
M  V30 1787 O 163.881 -2.59254 0.806206 0
M  V30 1788 C 162.337 -1.63091 3.20826 0
M  V30 1789 C 161.945 -0.728357 4.4204 0
M  V30 1790 C 163.689 -2.33454 3.54541 0
M  V30 1791 C 161.596 -1.47062 5.72823 0
M  V30 1792 H 160.526 -0.335618 0.675186 0
M  V30 1793 H 163.177 -0.141712 1.82952 0
M  V30 1794 H 161.559 -2.42263 3.13248 0
M  V30 1795 H 162.733 0.0262449 4.60793 0
M  V30 1796 H 161.048 -0.134492 4.16183 0
M  V30 1797 H 163.645 -2.89578 4.49498 0
M  V30 1798 H 163.988 -3.08687 2.79317 0
M  V30 1799 H 164.521 -1.61227 3.63663 0
M  V30 1800 H 161.26 -0.760658 6.51072 0
M  V30 1801 H 160.78 -2.1986 5.58052 0
M  V30 1802 H 162.459 -2.01868 6.14702 0
M  V30 1803 N 162.591 -1.51276 -0.441967 0
M  V30 1804 C 164.007 -1.39349 -0.778083 0
M  V30 1805 C 164.207 -0.472212 -1.95889 0
M  V30 1806 O 163.263 0.0743551 -2.5239 0
M  V30 1807 C 164.576 -2.81292 -1.0628 0
M  V30 1808 C 166.124 -2.9041 -1.16751 0
M  V30 1809 C 166.599 -4.33251 -1.48519 0
M  V30 1810 N 168.09 -4.36336 -1.55453 0
M  V30 1811 C 168.825 -5.43885 -1.81596 0
M  V30 1812 N 168.321 -6.61601 -2.05562 0
M  V30 1813 N 170.114 -5.3136 -1.8334 0
M  V30 1814 H 162.265 -2.09729 0.335774 0
M  V30 1815 H 164.528 -0.943925 0.0878028 0
M  V30 1816 H 164.234 -3.50678 -0.267905 0
M  V30 1817 H 164.108 -3.20334 -1.99163 0
M  V30 1818 H 166.495 -2.21225 -1.95304 0
M  V30 1819 H 166.576 -2.54871 -0.217801 0
M  V30 1820 H 166.22 -5.02984 -0.704958 0
M  V30 1821 H 166.15 -4.66299 -2.44689 0
M  V30 1822 H 168.641 -3.51466 -1.38853 0
M  V30 1823 H 168.954 -7.39361 -2.24867 0
M  V30 1824 H 167.299 -6.64725 -2.02894 0
M  V30 1825 H 170.49 -4.38382 -1.64132 0
M  V30 1826 H 170.663 -6.15258 -2.03377 0
M  V30 1827 N 164.069 0.697108 -1.41344 0
M  V30 1828 C 165.315 1.4593 -1.40827 0
M  V30 1829 C 165.648 1.94193 -0.0167098 0
M  V30 1830 O 164.923 1.69425 0.955263 0
M  V30 1831 C 165.206 2.67229 -2.41373 0
M  V30 1832 C 165.059 2.24741 -3.8963 0
M  V30 1833 C 166.378 3.69423 -2.39196 0
M  V30 1834 H 163.497 0.529303 -0.512842 0
M  V30 1835 H 166.139 0.794112 -1.72609 0
M  V30 1836 H 164.289 3.23982 -2.14401 0
M  V30 1837 H 165.961 1.73327 -4.27499 0
M  V30 1838 H 164.204 1.56542 -4.0457 0
M  V30 1839 H 164.875 3.1177 -4.55525 0
M  V30 1840 H 167.351 3.2234 -2.63128 0
M  V30 1841 H 166.227 4.51907 -3.11563 0
M  V30 1842 H 166.488 4.19012 -1.41001 0
M  V30 1843 N 165.547 1.27147 0.931209 0
M  V30 1844 C 166.477 1.12081 2.04842 0
M  V30 1845 C 167.458 0.0232364 1.70084 0
M  V30 1846 O 168.643 0.197085 1.93197 0
M  V30 1847 C 165.773 0.76354 3.38803 0
M  V30 1848 C 164.727 1.81396 3.87659 0
M  V30 1849 C 164.053 1.31075 5.18385 0
M  V30 1850 C 165.353 3.21739 4.11438 0
M  V30 1851 H 167.047 2.05537 2.17703 0
M  V30 1852 H 164.593 0.989603 1.04608 0
M  V30 1853 H 166.546 0.644982 4.16435 0
M  V30 1854 H 165.27 -0.206727 3.25945 0
M  V30 1855 H 163.929 1.92136 3.12217 0
M  V30 1856 H 163.577 0.330037 5.01916 0
M  V30 1857 H 163.277 2.013 5.52044 0
M  V30 1858 H 164.801 1.20506 5.98591 0
M  V30 1859 H 166.215 3.14019 4.79651 0
M  V30 1860 H 164.612 3.89644 4.56397 0
M  V30 1861 H 165.682 3.67054 3.16859 0
M  V30 1862 N 167.025 -1.13721 1.09112 0
M  V30 1863 C 168.271 -1.85413 0.836283 0
M  V30 1864 C 168.626 -1.8175 -0.631249 0
M  V30 1865 O 167.919 -1.24238 -1.45861 0
M  V30 1866 C 168.113 -3.32861 1.30146 0
M  V30 1867 C 167.942 -3.50882 2.81268 0
M  V30 1868 C 166.712 -3.65312 3.49106 0
M  V30 1869 C 168.91 -3.47196 3.7942 0
M  V30 1870 N 166.892 -3.71563 4.88686 0
M  V30 1871 C 168.263 -3.59777 5.04936 0
M  V30 1872 C 170.318 -3.30577 3.72321 0
M  V30 1873 C 169.021 -3.57455 6.24194 0
M  V30 1874 C 171.047 -3.29562 4.91063 0
M  V30 1875 C 170.409 -3.42691 6.15421 0
M  V30 1876 H 166.508 -0.694812 0.358832 0
M  V30 1877 H 169.092 -1.36246 1.39087 0
M  V30 1878 H 167.263 -3.80602 0.774361 0
M  V30 1879 H 168.995 -3.92346 0.99229 0
M  V30 1880 H 165.75 -3.6685 2.9953 0
M  V30 1881 H 166.174 -3.78387 5.61384 0
M  V30 1882 H 170.816 -3.19332 2.77105 0
M  V30 1883 H 168.534 -3.67475 7.19714 0
M  V30 1884 H 172.12 -3.17905 4.87266 0
M  V30 1885 H 171 -3.41862 7.05762 0
M  V30 1886 N 168.503 -0.877838 -1.30888 0
M  V30 1887 C 169.749 -0.502773 -1.97088 0
M  V30 1888 C 170.104 0.936274 -1.68082 0
M  V30 1889 O 169.397 1.65162 -0.971196 0
M  V30 1890 C 169.591 -0.705748 -3.50363 0
M  V30 1891 C 169.42 -2.16297 -3.94266 0
M  V30 1892 C 168.19 -2.80614 -4.20219 0
M  V30 1893 C 170.388 -3.13606 -4.07622 0
M  V30 1894 N 168.37 -4.17007 -4.50532 0
M  V30 1895 C 169.741 -4.35051 -4.41736 0
M  V30 1896 C 171.796 -3.09491 -3.90026 0
M  V30 1897 C 170.499 -5.52911 -4.60089 0
M  V30 1898 C 172.525 -4.26616 -4.09576 0
M  V30 1899 C 171.887 -5.46825 -4.44029 0
M  V30 1900 H 167.986 -0.233168 -0.746429 0
M  V30 1901 H 170.57 -1.13408 -1.58261 0
M  V30 1902 H 168.741 -0.103976 -3.88261 0
M  V30 1903 H 170.473 -0.298291 -4.03599 0
M  V30 1904 H 167.228 -2.3152 -4.13153 0
M  V30 1905 H 167.652 -4.87426 -4.69834 0
M  V30 1906 H 172.294 -2.17657 -3.62471 0
M  V30 1907 H 170.012 -6.45255 -4.86489 0
M  V30 1908 H 173.598 -4.24894 -3.97438 0
M  V30 1909 H 172.478 -6.35947 -4.58848 0
M  V30 1910 N 169.982 1.44106 -0.638065 0
M  V30 1911 C 171.212 2.06037 -0.152394 0
M  V30 1912 C 171.62 1.47808 1.18108 0
M  V30 1913 O 170.963 0.598092 1.73691 0
M  V30 1914 C 171.025 3.59488 0.0293714 0
M  V30 1915 C 170.689 4.4022 -1.22702 0
M  V30 1916 C 171.686 4.73256 -2.15232 0
M  V30 1917 C 169.371 4.8048 -1.46437 0
M  V30 1918 C 171.365 5.45444 -3.29802 0
M  V30 1919 C 169.052 5.52417 -2.61303 0
M  V30 1920 C 170.05 5.84819 -3.52811 0
M  V30 1921 O 169.738 6.55289 -4.65673 0
M  V30 1922 H 169.47 0.671233 -0.0801401 0
M  V30 1923 H 172.024 1.85851 -0.874563 0
M  V30 1924 H 170.254 3.78191 0.806758 0
M  V30 1925 H 171.943 4.03164 0.470475 0
M  V30 1926 H 172.709 4.42684 -1.98131 0
M  V30 1927 H 168.588 4.54676 -0.760977 0
M  V30 1928 H 172.132 5.70653 -4.01249 0
M  V30 1929 H 168.029 5.82404 -2.78344 0
M  V30 1930 H 168.797 6.73762 -4.64744 0
M  V30 1931 N 171.46 0.379036 1.52974 0
M  V30 1932 C 172.69 -0.20649 2.05566 0
M  V30 1933 C 173.098 -1.41906 1.25137 0
M  V30 1934 O 172.441 -1.81421 0.288464 0
M  V30 1935 C 172.503 -0.651086 3.53555 0
M  V30 1936 C 172.167 0.446626 4.54812 0
M  V30 1937 C 173.164 1.30079 5.03364 0
M  V30 1938 C 170.849 0.610719 4.98573 0
M  V30 1939 C 172.843 2.30426 5.94292 0
M  V30 1940 C 170.53 1.61754 5.89304 0
M  V30 1941 C 171.528 2.46274 6.37054 0
M  V30 1942 O 171.216 3.45237 7.25994 0
M  V30 1943 H 170.948 -0.0372381 0.674974 0
M  V30 1944 H 173.502 0.539718 1.98182 0
M  V30 1945 H 171.732 -1.44911 3.58522 0
M  V30 1946 H 173.421 -1.16112 3.88938 0
M  V30 1947 H 174.187 1.18527 4.70294 0
M  V30 1948 H 170.066 -0.0374044 4.60985 0
M  V30 1949 H 173.61 2.96432 6.31485 0
M  V30 1950 H 169.507 1.73348 6.21788 0
M  V30 1951 H 170.275 3.41124 7.44027 0
M  V30 1952 N 172.938 -1.57226 0.108567 0
M  V30 1953 C 174.185 -1.94833 -0.551943 0
M  V30 1954 C 174.513 -0.991204 -1.67348 0
M  V30 1955 O 173.768 -0.0131878 -1.95696 0
M  V30 1956 C 174.067 -3.38911 -1.13463 0
M  V30 1957 C 173.733 -4.50696 -0.135509 0
M  V30 1958 C 172.395 -4.80998 0.139252 0
M  V30 1959 C 174.747 -5.18333 0.545957 0
M  V30 1960 C 172.075 -5.76259 1.10194 0
M  V30 1961 C 174.427 -6.14627 1.49721 0
M  V30 1962 C 173.091 -6.43327 1.78006 0
M  V30 1963 H 172.361 -0.712944 -0.20197 0
M  V30 1964 H 175.008 -1.90582 0.18726 0
M  V30 1965 H 173.313 -3.39805 -1.95037 0
M  V30 1966 H 175.01 -3.65317 -1.65362 0
M  V30 1967 H 171.6 -4.27087 -0.359846 0
M  V30 1968 H 175.784 -4.95087 0.346842 0
M  V30 1969 H 171.04 -5.96804 1.32795 0
M  V30 1970 H 175.214 -6.66126 2.03099 0
M  V30 1971 H 172.841 -7.1695 2.52759 0
M  V30 1972 N 174.416 0.165178 -1.56732 0
M  V30 1973 C 175.641 0.900253 -1.86843 0
M  V30 1974 C 176.066 1.74766 -0.695596 0
M  V30 1975 O 175.424 1.77786 0.35522 0
M  V30 1976 C 175.472 1.74777 -3.15413 0
M  V30 1977 O 174.576 2.85007 -2.98068 0
M  V30 1978 H 173.917 0.251832 -0.614391 0
M  V30 1979 H 176.447 0.161468 -2.03962 0
M  V30 1980 H 176.457 2.14646 -3.46974 0
M  V30 1981 H 175.132 1.12537 -4.00385 0
M  V30 1982 H 173.709 2.48676 -2.77875 0
M  V30 1983 N 175.894 1.51508 0.433938 0
M  V30 1984 C 176.841 1.73068 1.52696 0
M  V30 1985 C 177.811 0.572441 1.55924 0
M  V30 1986 O 178.996 0.807253 1.72882 0
M  V30 1987 C 176.136 1.86474 2.90381 0
M  V30 1988 C 175.249 3.14037 2.96656 0
M  V30 1989 C 174.384 3.18019 4.25485 0
M  V30 1990 C 173.423 4.39882 4.2564 0
M  V30 1991 N 172.56 4.41394 5.45999 0
M  V30 1992 H 177.4 2.66366 1.33615 0
M  V30 1993 H 174.937 1.32008 0.649018 0
M  V30 1994 H 176.895 1.92229 3.70275 0
M  V30 1995 H 175.525 0.965809 3.08013 0
M  V30 1996 H 174.577 3.17575 2.09404 0
M  V30 1997 H 175.889 4.0394 2.92633 0
M  V30 1998 H 175.043 3.22708 5.13755 0
M  V30 1999 H 173.782 2.2601 4.3217 0
M  V30 2000 H 172.787 4.35366 3.35763 0
M  V30 2001 H 174.012 5.33159 4.20617 0
M  V30 2002 H 171.958 3.52258 5.53399 0
M  V30 2003 H 171.875 5.25111 5.4387 0
M  V30 2004 H 173.143 4.50281 6.36292 0
M  V30 2005 N 177.372 -0.689602 1.41712 0
M  V30 2006 C 178.302 -1.81577 1.46806 0
M  V30 2007 C 179.283 -1.66945 0.326105 0
M  V30 2008 O 180.468 -1.86588 0.538377 0
M  V30 2009 C 177.598 -3.19762 1.35535 0
M  V30 2010 C 176.552 -3.49107 2.47605 0
M  V30 2011 C 175.878 -4.86711 2.21397 0
M  V30 2012 C 177.178 -3.47483 3.89939 0
M  V30 2013 H 178.872 -1.7757 2.41058 0
M  V30 2014 H 176.418 -0.852887 1.16025 0
M  V30 2015 H 178.371 -3.98263 1.3771 0
M  V30 2016 H 177.095 -3.24409 0.377708 0
M  V30 2017 H 175.754 -2.72959 2.44722 0
M  V30 2018 H 175.402 -4.8799 1.21961 0
M  V30 2019 H 175.102 -5.0731 2.96497 0
M  V30 2020 H 176.626 -5.67515 2.25297 0
M  V30 2021 H 178.04 -4.1598 3.94505 0
M  V30 2022 H 176.437 -3.79615 4.64771 0
M  V30 2023 H 177.507 -2.46341 4.17665 0
M  V30 2024 N 178.85 -1.27639 -0.924453 0
M  V30 2025 C 180.099 -1.13549 -1.66702 0
M  V30 2026 C 180.412 0.317487 -1.93006 0
M  V30 2027 O 181.618 0.579333 -2.65247 0
M  V30 2028 C 180.074 -1.98426 -3.00259 0
M  V30 2029 C 179.682 -3.484 -2.81641 0
M  V30 2030 C 181.426 -1.92993 -3.78092 0
M  V30 2031 C 179.333 -4.25464 -4.10773 0
M  V30 2032 H 178.263 -0.421351 -0.625283 0
M  V30 2033 H 180.914 -1.52085 -1.02676 0
M  V30 2034 H 179.296 -1.52736 -3.6536 0
M  V30 2035 H 180.47 -4.01973 -2.25287 0
M  V30 2036 H 178.785 -3.55245 -2.17232 0
M  V30 2037 H 181.382 -2.47844 -4.7379 0
M  V30 2038 H 181.725 -0.904281 -4.0636 0
M  V30 2039 H 182.258 -2.36595 -3.19793 0
M  V30 2040 H 178.997 -5.28566 -3.87683 0
M  V30 2041 H 178.517 -3.76667 -4.66779 0
M  V30 2042 H 180.196 -4.34812 -4.79111 0
M  V30 2043 N 180.328 1.1314 -1.09713 0
M  V30 2044 C 181.238 2.22242 -0.751367 0
M  V30 2045 C 182.254 1.72224 0.247938 0
M  V30 2046 O 183.43 2.01205 0.0885463 0
M  V30 2047 C 180.495 3.46231 -0.180274 0
M  V30 2048 C 179.556 4.11125 -1.2359 0
M  V30 2049 C 178.789 5.29195 -0.691966 0
M  V30 2050 O 179.012 5.68342 0.48414 0
M  V30 2051 O 177.946 5.84214 -1.44838 0
M  V30 2052 H 181.772 2.54197 -1.66186 0
M  V30 2053 H 179.357 1.21331 -0.871735 0
M  V30 2054 H 181.239 4.21185 0.134739 0
M  V30 2055 H 179.914 3.1597 0.703185 0
M  V30 2056 H 178.821 3.37985 -1.60366 0
M  V30 2057 H 180.154 4.45524 -2.09211 0
M  V30 2058 N 181.806 0.884767 1.30421 0
M  V30 2059 C 183.053 0.503105 1.96151 0
M  V30 2060 C 183.381 -0.947676 1.69851 0
M  V30 2061 O 182.636 -1.68467 0.995861 0
M  V30 2062 C 182.935 0.724318 3.49983 0
M  V30 2063 C 182.601 2.15015 3.96332 0
M  V30 2064 C 181.263 2.54005 4.08699 0
M  V30 2065 C 183.615 3.07936 4.20505 0
M  V30 2066 C 180.943 3.85128 4.42599 0
M  V30 2067 C 183.295 4.3859 4.55874 0
M  V30 2068 C 181.959 4.77474 4.66449 0
M  V30 2069 H 181.229 0.184099 0.717766 0
M  V30 2070 H 183.876 1.12058 1.55291 0
M  V30 2071 H 182.181 0.0238086 3.91793 0
M  V30 2072 H 183.878 0.408617 3.98913 0
M  V30 2073 H 180.468 1.8375 3.87213 0
M  V30 2074 H 184.652 2.79033 4.10431 0
M  V30 2075 H 179.908 4.14996 4.48986 0
M  V30 2076 H 184.082 5.10629 4.7353 0
M  V30 2077 H 181.709 5.79115 4.92473 0
M  V30 2078 N 183.284 -1.43765 0.645699 0
M  V30 2079 C 184.217 -2.2798 -0.100072 0
M  V30 2080 C 185.195 -1.39391 -0.837194 0
M  V30 2081 O 186.379 -1.68833 -0.838306 0
M  V30 2082 C 183.506 -3.18643 -1.14823 0
M  V30 2083 C 182.552 -4.2344 -0.510009 0
M  V30 2084 S 183.385 -5.30761 0.710824 0
M  V30 2085 C 184.541 -6.24992 -0.33699 0
M  V30 2086 H 184.774 -2.90884 0.614322 0
M  V30 2087 H 182.307 -1.48166 0.434304 0
M  V30 2088 H 184.265 -3.71424 -1.74799 0
M  V30 2089 H 182.926 -2.54932 -1.8349 0
M  V30 2090 H 182.119 -4.86948 -1.29991 0
M  V30 2091 H 181.721 -3.73997 0.0154577 0
M  V30 2092 H 184.013 -6.66691 -1.20537 0
M  V30 2093 H 184.956 -7.07612 0.262879 0
M  V30 2094 H 185.364 -5.60517 -0.669425 0
M  V30 2095 N 184.763 -0.387143 -1.52771 0
M  V30 2096 C 186.04 0.253197 -1.93954 0
M  V30 2097 C 186.42 1.64545 -1.32243 0
M  V30 2098 O 185.768 2.23191 -0.489699 0
M  V30 2099 C 185.978 0.281722 -3.47861 0
M  V30 2100 C 187.326 0.511715 -4.21505 0
M  V30 2101 O 188.35 0.362023 -3.54356 0
M  V30 2102 O 187.209 0.804847 -5.40541 0
M  V30 2103 H 184.303 0.156845 -0.811991 0
M  V30 2104 H 186.849 -0.441494 -1.63856 0
M  V30 2105 H 185.621 -0.693571 -3.85104 0
M  V30 2106 H 185.244 1.02142 -3.84256 0
M  V30 2107 N 186.241 1.57166 -0.116904 0
M  V30 2108 C 187.469 1.99473 0.549383 0
M  V30 2109 C 187.884 0.996541 1.60357 0
M  V30 2110 O 187.241 -0.0108731 1.82497 0
M  V30 2111 C 187.292 3.41788 1.17741 0
M  V30 2112 O 187.013 4.37788 0.165362 0
M  V30 2113 C 188.514 3.99216 1.92722 0
M  V30 2114 H 185.734 0.655009 0.145616 0
M  V30 2115 H 188.278 2.03494 -0.202625 0
M  V30 2116 H 186.433 3.38713 1.88021 0
M  V30 2117 H 186.847 5.20806 0.621403 0
M  V30 2118 H 188.321 5.00882 2.31995 0
M  V30 2119 H 188.798 3.3824 2.80161 0
M  V30 2120 H 189.404 4.0583 1.27209 0
M  V30 2121 N 187.719 -0.156864 1.56817 0
M  V30 2122 C 188.966 -0.871125 1.82805 0
M  V30 2123 C 189.294 -1.81611 0.696262 0
M  V30 2124 O 188.549 -1.93141 -0.315459 0
M  V30 2125 C 188.848 -1.68737 3.1506 0
M  V30 2126 C 188.514 -0.890045 4.42028 0
M  V30 2127 C 187.176 -0.670042 4.76512 0
M  V30 2128 C 189.528 -0.331769 5.20143 0
M  V30 2129 C 186.856 0.119104 5.86579 0
M  V30 2130 C 189.208 0.444365 6.31037 0
M  V30 2131 C 187.872 0.675035 6.64078 0
M  V30 2132 H 187.142 -0.318767 0.668931 0
M  V30 2133 H 189.789 -0.135274 1.91022 0
M  V30 2134 H 188.094 -2.49304 3.0225 0
M  V30 2135 H 189.791 -2.24331 3.3238 0
M  V30 2136 H 186.381 -1.07157 4.14988 0
M  V30 2137 H 190.565 -0.489043 4.93885 0
M  V30 2138 H 185.821 0.307417 6.10627 0
M  V30 2139 H 189.995 0.884139 6.90765 0
M  V30 2140 H 187.622 1.28839 7.49203 0
M  V30 2141 N 189.197 -1.51736 -0.425897 0
M  V30 2142 C 190.444 -1.6497 -1.17436 0
M  V30 2143 C 190.772 -0.371445 -1.9092 0
M  V30 2144 O 190.027 0.644963 -1.84767 0
M  V30 2145 C 190.326 -2.81103 -2.20717 0
M  V30 2146 C 189.992 -4.19954 -1.64162 0
M  V30 2147 C 188.654 -4.57725 -1.48462 0
M  V30 2148 C 191.006 -5.06552 -1.22696 0
M  V30 2149 C 188.334 -5.79789 -0.897873 0
M  V30 2150 C 190.686 -6.29205 -0.654464 0
M  V30 2151 C 189.35 -6.6574 -0.484456 0
M  V30 2152 H 188.62 -0.603668 -0.429727 0
M  V30 2153 H 191.267 -1.85798 -0.463829 0
M  V30 2154 H 189.572 -2.54542 -2.97852 0
M  V30 2155 H 191.269 -2.8854 -2.78471 0
M  V30 2156 H 187.859 -3.90181 -1.77361 0
M  V30 2157 H 192.043 -4.77968 -1.33642 0
M  V30 2158 H 187.299 -6.06733 -0.75402 0
M  V30 2159 H 191.473 -6.95643 -0.324694 0
M  V30 2160 H 189.1 -7.60195 -0.0276833 0
M  V30 2161 N 190.675 0.682077 -1.42076 0
M  V30 2162 C 191.922 1.44215 -1.42156 0
M  V30 2163 C 192.25 1.94468 -0.0354186 0
M  V30 2164 O 191.505 1.70816 0.955002 0
M  V30 2165 C 191.804 2.66036 -2.38662 0
M  V30 2166 C 191.47 2.34366 -3.85206 0
M  V30 2167 C 190.132 2.25439 -4.25124 0
M  V30 2168 C 192.484 2.08513 -4.77673 0
M  V30 2169 C 189.812 1.88775 -5.55501 0
M  V30 2170 C 192.164 1.73354 -6.08384 0
M  V30 2171 C 190.828 1.62933 -6.47309 0
M  V30 2172 H 190.098 0.527718 -0.520187 0
M  V30 2173 H 192.745 0.778387 -1.74967 0
M  V30 2174 H 191.05 3.3741 -1.99152 0
M  V30 2175 H 192.747 3.24205 -2.35991 0
M  V30 2176 H 189.337 2.42213 -3.53597 0
M  V30 2177 H 193.521 2.14346 -4.47626 0
M  V30 2178 H 188.777 1.7927 -5.84527 0
M  V30 2179 H 192.951 1.52373 -6.79526 0
M  V30 2180 H 190.578 1.34292 -7.48244 0
M  V30 2181 N 192.153 1.28127 0.917671 0
M  V30 2182 C 193.402 1.14432 1.66097 0
M  V30 2183 C 193.715 -0.307247 1.93172 0
M  V30 2184 O 194.921 -0.565259 2.65551 0
M  V30 2185 C 193.377 2.00015 2.99202 0
M  V30 2186 C 192.985 3.49889 2.79789 0
M  V30 2187 C 194.729 1.94996 3.77064 0
M  V30 2188 C 192.636 4.27636 4.08511 0
M  V30 2189 H 191.566 0.424662 0.62304 0
M  V30 2190 H 194.217 1.52628 1.01868 0
M  V30 2191 H 192.599 1.54672 3.64544 0
M  V30 2192 H 193.773 4.03162 2.23152 0
M  V30 2193 H 192.088 3.56392 2.15345 0
M  V30 2194 H 194.685 2.50354 4.72469 0
M  V30 2195 H 195.028 0.925819 4.05875 0
M  V30 2196 H 195.561 2.38287 3.18534 0
M  V30 2197 H 192.3 5.30615 3.84874 0
M  V30 2198 H 191.82 3.79137 4.64774 0
M  V30 2199 H 193.499 4.37346 4.76799 0
M  V30 2200 N 193.631 -1.12557 1.10312 0
M  V30 2201 C 194.561 -2.20341 0.772798 0
M  V30 2202 C 195.542 -1.68198 -0.25365 0
M  V30 2203 O 196.727 -1.93831 -0.119699 0
M  V30 2204 C 193.857 -3.46709 0.202443 0
M  V30 2205 C 192.811 -4.11996 1.15943 0
M  V30 2206 C 192.137 -5.328 0.450345 0
M  V30 2207 C 193.437 -4.5828 2.50552 0
M  V30 2208 H 195.131 -2.48229 1.674 0
M  V30 2209 H 192.677 -1.19308 0.806326 0
M  V30 2210 H 194.63 -4.2138 -0.0407752 0
M  V30 2211 H 193.354 -3.18245 -0.734001 0
M  V30 2212 H 192.013 -3.39305 1.38808 0
M  V30 2213 H 191.661 -5.00602 -0.490531 0
M  V30 2214 H 191.361 -5.7743 1.08851 0
M  V30 2215 H 192.885 -6.10219 0.215642 0
M  V30 2216 H 194.299 -5.2433 2.31843 0
M  V30 2217 H 192.696 -5.13683 3.10242 0
M  V30 2218 H 193.766 -3.72329 3.10643 0
M  V30 2219 N 195.109 -0.891671 -1.2995 0
M  V30 2220 C 196.525 -0.58662 -1.48428 0
M  V30 2221 C 196.725 0.873951 -1.81561 0
M  V30 2222 O 195.781 1.65471 -1.90724 0
M  V30 2223 C 197.094 -1.50553 -2.60296 0
M  V30 2224 C 198.642 -1.50988 -2.74175 0
M  V30 2225 C 199.117 -2.41488 -3.89163 0
M  V30 2226 N 200.608 -2.39489 -3.96483 0
M  V30 2227 C 201.343 -3.06223 -4.84784 0
M  V30 2228 N 200.839 -3.82206 -5.77833 0
M  V30 2229 N 202.632 -2.95421 -4.78208 0
M  V30 2230 H 194.783 -1.83644 -1.06718 0
M  V30 2231 H 197.046 -0.786455 -0.529332 0
M  V30 2232 H 196.752 -2.54581 -2.42654 0
M  V30 2233 H 196.626 -1.22008 -3.56923 0
M  V30 2234 H 199.013 -0.47708 -2.91218 0
M  V30 2235 H 199.094 -1.83567 -1.78148 0
M  V30 2236 H 198.738 -3.44857 -3.72876 0
M  V30 2237 H 198.668 -2.06222 -4.84541 0
M  V30 2238 H 201.159 -1.84278 -3.29924 0
M  V30 2239 H 201.472 -4.302 -6.41988 0
M  V30 2240 H 199.817 -3.86313 -5.77743 0
M  V30 2241 H 203.008 -2.35581 -4.04499 0
M  V30 2242 H 203.181 -3.47704 -5.46814 0
M  V30 2243 N 196.587 1.43421 -0.653314 0
M  V30 2244 C 197.534 2.30768 0.0382271 0
M  V30 2245 C 198.504 1.44755 0.814576 0
M  V30 2246 O 199.689 1.73624 0.791162 0
M  V30 2247 C 196.829 3.30336 0.998599 0
M  V30 2248 C 195.942 4.31448 0.218342 0
M  V30 2249 C 195.077 5.18098 1.17252 0
M  V30 2250 C 194.116 6.10902 0.382702 0
M  V30 2251 N 193.253 6.90176 1.28848 0
M  V30 2252 H 198.093 2.89357 -0.712511 0
M  V30 2253 H 195.63 1.42548 -0.363128 0
M  V30 2254 H 197.588 3.86572 1.56901 0
M  V30 2255 H 196.218 2.73397 1.71621 0
M  V30 2256 H 195.27 3.77506 -0.46836 0
M  V30 2257 H 196.582 4.97227 -0.395812 0
M  V30 2258 H 195.736 5.7896 1.81356 0
M  V30 2259 H 194.475 4.52444 1.82058 0
M  V30 2260 H 193.48 5.49128 -0.27169 0
M  V30 2261 H 194.705 6.78598 -0.260957 0
M  V30 2262 H 192.651 6.27171 1.92334 0
M  V30 2263 H 192.568 7.52478 0.728887 0
M  V30 2264 H 193.836 7.55543 1.91766 0
M  V30 2265 N 198.065 0.39524 1.52563 0
M  V30 2266 C 199.013 -0.451859 2.28169 0
M  V30 2267 C 200.007 -1.05792 1.32304 0
M  V30 2268 O 201.213 -0.997718 1.49818 0
M  V30 2269 H 197.588 -0.164481 0.733792 0
M  V30 2270 H 199.559 0.207199 2.9768 0
M  V30 2271 C 198.308 -1.56385 3.10546 0
M  V30 2272 H 197.631 -1.10682 3.84174 0
M  V30 2273 H 199.071 -2.13067 3.66577 0
M  V30 2274 C 197.53 -2.52328 2.23231 0
M  V30 2275 O 198.06 -3.5588 1.86312 0
M  V30 2276 N 196.266 -2.22209 1.87274 0
M  V30 2277 H 195.813 -1.38033 2.17496 0
M  V30 2278 H 195.771 -2.86652 1.29143 0
M  V30 2279 N 199.544 -1.57102 0.125237 0
M  V30 2280 C 200.492 -2.16905 -0.839927 0
M  V30 2281 C 201.486 -1.11998 -1.27094 0
M  V30 2282 O 202.692 -1.3029 -1.24195 0
M  V30 2283 H 199.067 -0.694252 -0.288995 0
M  V30 2284 H 201.038 -2.96774 -0.311115 0
M  V30 2285 C 199.787 -2.78795 -2.07771 0
M  V30 2286 H 199.11 -3.59221 -1.755 0
M  V30 2287 H 200.55 -3.2417 -2.73295 0
M  V30 2288 C 199.009 -1.76193 -2.87155 0
M  V30 2289 O 199.539 -1.21909 -3.82755 0
M  V30 2290 N 197.745 -1.45991 -2.51267 0
M  V30 2291 H 197.292 -1.90325 -1.73592 0
M  V30 2292 H 197.25 -0.775844 -3.04677 0
M  V30 2293 N 201.022 0.148545 -1.56898 0
M  V30 2294 C 201.972 1.1886 -1.94567 0
M  V30 2295 C 202.956 1.3863 -0.816735 0
M  V30 2296 O 204.148 1.40218 -1.08018 0
M  V30 2297 C 201.277 2.52262 -2.32849 0
M  V30 2298 C 200.363 2.36092 -3.52309 0
M  V30 2299 N 200.754 1.89674 -4.6889 0
M  V30 2300 C 199.052 2.66848 -3.57363 0
M  V30 2301 C 199.753 1.86511 -5.50989 0
M  V30 2302 N 198.729 2.29766 -4.92655 0
M  V30 2303 H 202.531 0.821793 -2.82177 0
M  V30 2304 H 200.045 0.356615 -1.58436 0
M  V30 2305 H 202.042 3.27447 -2.58039 0
M  V30 2306 H 200.702 2.89727 -1.46589 0
M  V30 2307 H 201.713 1.59663 -4.92674 0
M  V30 2308 H 198.39 3.08198 -2.81639 0
M  V30 2309 H 199.78 1.52128 -6.54452 0
M  V30 2310 N 202.5 1.5196 0.417844 0
M  V30 2311 C 203.432 1.70895 1.52733 0
M  V30 2312 C 204.445 0.589405 1.51756 0
M  V30 2313 O 205.634 0.864312 1.56179 0
M  V30 2314 C 202.734 1.72627 2.91639 0
M  V30 2315 C 201.907 3.01479 3.16905 0
M  V30 2316 C 200.966 2.95139 4.35637 0
M  V30 2317 O 199.992 3.69059 4.3334 0
M  V30 2318 N 201.194 2.12328 5.40275 0
M  V30 2319 H 203.959 2.66612 1.36888 0
M  V30 2320 H 201.52 1.50089 0.607037 0
M  V30 2321 H 203.512 1.65928 3.6912 0
M  V30 2322 H 202.082 0.844216 3.00985 0
M  V30 2323 H 201.302 3.21895 2.27546 0
M  V30 2324 H 202.59 3.86736 3.30625 0
M  V30 2325 H 201.988 1.51685 5.44985 0
M  V30 2326 H 200.545 2.11494 6.16534 0
M  V30 2327 N 203.978 -0.674533 1.42435 0
M  V30 2328 C 205.227 -1.43034 1.42212 0
M  V30 2329 C 205.54 -1.95555 0.0420788 0
M  V30 2330 O 206.746 -2.71374 -0.0827558 0
M  V30 2331 C 205.202 -2.58748 2.50155 0
M  V30 2332 C 204.81 -2.12925 3.94166 0
M  V30 2333 C 206.554 -3.36257 2.59098 0
M  V30 2334 C 204.461 -3.25723 4.93618 0
M  V30 2335 H 203.391 -0.537345 0.528939 0
M  V30 2336 H 206.042 -0.73024 1.68344 0
M  V30 2337 H 204.424 -3.31128 2.17188 0
M  V30 2338 H 205.598 -1.47697 4.36488 0
M  V30 2339 H 203.913 -1.48354 3.89076 0
M  V30 2340 H 206.51 -4.20264 3.30578 0
M  V30 2341 H 206.853 -3.82866 1.63461 0
M  V30 2342 H 207.386 -2.70947 2.9126 0
M  V30 2343 H 204.125 -2.84105 5.90732 0
M  V30 2344 H 203.645 -3.89732 4.55926 0
M  V30 2345 H 205.324 -3.91186 5.15347 0
M  V30 2346 N 205.456 -1.28612 -0.910864 0
M  V30 2347 C 206.684 -1.18792 -1.69399 0
M  V30 2348 C 207.099 0.253039 -1.87097 0
M  V30 2349 O 206.456 1.17071 -1.40003 0
M  V30 2350 C 206.507 -1.88511 -3.08457 0
M  V30 2351 O 206.228 -3.26979 -2.91576 0
M  V30 2352 C 207.729 -1.85029 -4.02839 0
M  V30 2353 H 204.949 -0.412233 -0.529438 0
M  V30 2354 H 207.493 -1.69788 -1.13984 0
M  V30 2355 H 205.648 -1.41379 -3.60681 0
M  V30 2356 H 206.062 -3.61936 -3.79608 0
M  V30 2357 H 207.536 -2.38395 -4.97867 0
M  V30 2358 H 208.013 -0.823303 -4.31414 0
M  V30 2359 H 208.619 -2.31853 -3.56545 0
M  V30 2360 N 206.934 1.1197 -1.10907 0
M  V30 2361 C 208.18 1.8386 -0.855773 0
M  V30 2362 C 208.513 1.84134 0.617103 0
M  V30 2363 O 207.788 1.29041 1.45529 0
M  V30 2364 C 208.071 3.31305 -1.411 0
M  V30 2365 C 207.924 3.39456 -2.9511 0
M  V30 2366 C 209.243 4.2721 -1.05736 0
M  V30 2367 H 206.362 0.667545 -0.312334 0
M  V30 2368 H 209.004 1.31331 -1.37303 0
M  V30 2369 H 207.154 3.76169 -0.97105 0
M  V30 2370 H 208.826 3.03191 -3.47668 0
M  V30 2371 H 207.069 2.79849 -3.31462 0
M  V30 2372 H 207.74 4.43209 -3.29044 0
M  V30 2373 H 210.216 3.90497 -1.43706 0
M  V30 2374 H 209.092 5.28775 -1.47269 0
M  V30 2375 H 209.353 4.42088 0.0325958 0
M  V30 2376 N 208.412 0.89855 1.29475 0
M  V30 2377 C 209.342 0.39201 2.30186 0
M  V30 2378 C 210.323 -0.532359 1.61555 0
M  V30 2379 O 211.508 -0.443331 1.89072 0
M  V30 2380 C 208.638 -0.382353 3.45189 0
M  V30 2381 C 207.592 0.451483 4.25612 0
M  V30 2382 C 206.918 -0.450307 5.328 0
M  V30 2383 C 208.218 1.70079 4.93832 0
M  V30 2384 H 209.912 1.23362 2.72804 0
M  V30 2385 H 207.458 0.594638 1.31149 0
M  V30 2386 H 209.411 -0.747451 4.14718 0
M  V30 2387 H 208.135 -1.25774 3.01411 0
M  V30 2388 H 206.794 0.798897 3.57789 0
M  V30 2389 H 206.442 -1.32379 4.85268 0
M  V30 2390 H 206.142 0.103902 5.87508 0
M  V30 2391 H 207.666 -0.811623 6.05182 0
M  V30 2392 H 209.08 1.40549 5.55805 0
M  V30 2393 H 207.477 2.19623 5.58467 0
M  V30 2394 H 208.547 2.43744 4.19186 0
M  V30 2395 N 209.89 -1.43072 0.660911 0
M  V30 2396 C 210.84 -2.27948 -0.04847 0
M  V30 2397 C 211.824 -1.40325 -0.787246 0
M  V30 2398 O 213.016 -1.63893 -0.668446 0
M  V30 2399 C 210.145 -3.28143 -1.00881 0
M  V30 2400 C 209.231 -4.23252 -0.268108 0
M  V30 2401 N 209.622 -5.00656 0.719528 0
M  V30 2402 C 207.92 -4.43092 -0.508493 0
M  V30 2403 C 208.621 -5.70019 1.15988 0
M  V30 2404 N 207.597 -5.41364 0.492584 0
M  V30 2405 H 211.399 -2.85213 0.709279 0
M  V30 2406 H 208.913 -1.54869 0.488822 0
M  V30 2407 H 210.91 -3.87736 -1.53188 0
M  V30 2408 H 209.57 -2.7244 -1.76654 0
M  V30 2409 H 210.581 -5.06115 1.09855 0
M  V30 2410 H 207.258 -3.98449 -1.24679 0
M  V30 2411 H 208.648 -6.4214 1.97751 0
M  V30 2412 N 211.368 -0.403325 -1.52352 0
M  V30 2413 C 212.614 0.174605 -2.02047 0
M  V30 2414 C 212.947 1.45282 -1.28867 0
M  V30 2415 O 212.222 1.90483 -0.393257 0
M  V30 2416 C 212.505 0.428238 -3.57545 0
M  V30 2417 C 212.358 -0.866248 -4.4138 0
M  V30 2418 C 213.677 1.21287 -4.23057 0
M  V30 2419 H 210.796 0.0619851 -0.734389 0
M  V30 2420 H 213.438 -0.53565 -1.82293 0
M  V30 2421 H 211.588 1.03327 -3.74507 0
M  V30 2422 H 213.26 -1.50265 -4.3614 0
M  V30 2423 H 211.503 -1.47851 -4.07827 0
M  V30 2424 H 212.174 -0.643249 -5.48239 0
M  V30 2425 H 214.65 0.700703 -4.10158 0
M  V30 2426 H 213.526 1.35909 -5.31808 0
M  V30 2427 H 213.787 2.23193 -3.81625 0
M  V30 2428 N 212.846 1.57033 -0.133567 0
M  V30 2429 C 214.076 1.99754 0.527429 0
M  V30 2430 C 214.484 1.01245 1.59832 0
M  V30 2431 O 213.827 -0.000645496 1.837 0
M  V30 2432 C 213.889 3.38903 1.19939 0
M  V30 2433 C 213.553 4.56174 0.274709 0
M  V30 2434 C 214.55 5.17563 -0.492398 0
M  V30 2435 C 212.235 5.01972 0.18153 0
M  V30 2436 C 214.229 6.2315 -1.34027 0
M  V30 2437 C 211.916 6.07416 -0.669958 0
M  V30 2438 C 212.914 6.67874 -1.42947 0
M  V30 2439 O 212.602 7.71279 -2.2668 0
M  V30 2440 H 212.334 0.660702 0.142999 0
M  V30 2441 H 214.888 2.04207 -0.221099 0
M  V30 2442 H 213.118 3.31248 1.99528 0
M  V30 2443 H 214.807 3.65818 1.75875 0
M  V30 2444 H 215.573 4.83087 -0.430367 0
M  V30 2445 H 211.452 4.54652 0.762422 0
M  V30 2446 H 214.996 6.70268 -1.93357 0
M  V30 2447 H 210.893 6.41321 -0.73333 0
M  V30 2448 H 211.661 7.88441 -2.1978 0
M  V30 2449 N 214.325 -0.140222 1.56975 0
M  V30 2450 C 215.275 -1.17827 1.95194 0
M  V30 2451 C 216.259 -1.38195 0.824075 0
M  V30 2452 O 217.451 -1.39643 1.0876 0
M  V30 2453 C 214.58 -2.51024 2.34184 0
M  V30 2454 C 213.666 -2.3422 3.53556 0
M  V30 2455 N 214.057 -1.87185 4.69889 0
M  V30 2456 C 212.355 -2.64949 3.58773 0
M  V30 2457 C 213.056 -1.83586 5.5197 0
M  V30 2458 N 212.032 -2.2715 4.93866 0
M  V30 2459 H 215.834 -0.806817 2.82609 0
M  V30 2460 H 213.348 -0.348208 1.58623 0
M  V30 2461 H 215.345 -3.26074 2.59772 0
M  V30 2462 H 214.005 -2.88945 1.48124 0
M  V30 2463 H 215.016 -1.57048 4.93514 0
M  V30 2464 H 211.693 -3.067 2.8327 0
M  V30 2465 H 213.083 -1.48655 6.55249 0
M  V30 2466 N 215.803 -1.52179 -0.40978 0
M  V30 2467 C 216.753 -1.71857 -1.49831 0
M  V30 2468 C 217.737 -0.572469 -1.50372 0
M  V30 2469 O 218.929 -0.829509 -1.56359 0
M  V30 2470 C 216.058 -1.87206 -2.87765 0
M  V30 2471 C 215.144 -3.07685 -2.91875 0
M  V30 2472 N 215.535 -4.30403 -2.65683 0
M  V30 2473 C 213.833 -3.07505 -3.23043 0
M  V30 2474 C 214.534 -5.11868 -2.76344 0
M  V30 2475 N 213.51 -4.47101 -3.09195 0
M  V30 2476 H 217.312 -2.64381 -1.28375 0
M  V30 2477 H 214.826 -1.50203 -0.617479 0
M  V30 2478 H 216.823 -1.99419 -3.66111 0
M  V30 2479 H 215.483 -0.958814 -3.10221 0
M  V30 2480 H 216.494 -4.58887 -2.4009 0
M  V30 2481 H 213.171 -2.25915 -3.51096 0
M  V30 2482 H 214.561 -6.19634 -2.59814 0
M  V30 2483 N 217.281 0.66697 -1.42791 0
M  V30 2484 C 218.244 1.76211 -1.46568 0
M  V30 2485 C 219.244 1.56896 -0.352196 0
M  V30 2486 O 220.434 1.63044 -0.613364 0
M  V30 2487 C 217.566 3.14935 -1.30494 0
M  V30 2488 H 218.759 1.74247 -2.44086 0
M  V30 2489 H 216.312 0.877342 -1.29354 0
M  V30 2490 H 217.047 3.2252 -0.339301 0
M  V30 2491 H 216.832 3.30359 -2.11199 0
M  V30 2492 H 218.322 3.94821 -1.36038 0
M  V30 2493 N 218.759 1.29093 0.90403 0
M  V30 2494 C 219.984 1.19809 1.69294 0
M  V30 2495 C 220.409 -0.238481 1.86582 0
M  V30 2496 O 219.767 -1.1723 1.383 0
M  V30 2497 C 219.815 1.91202 3.05736 0
M  V30 2498 O 218.919 1.22611 3.93752 0
M  V30 2499 H 218.26 0.415385 0.518027 0
M  V30 2500 H 220.79 1.70586 1.12967 0
M  V30 2501 H 220.8 1.99487 3.55906 0
M  V30 2502 H 219.475 2.95692 2.92471 0
M  V30 2503 H 218.052 1.22554 3.52186 0
M  V30 2504 N 220.237 -1.11381 1.11499 0
M  V30 2505 C 221.17 -2.16621 0.71769 0
M  V30 2506 C 222.148 -1.60058 -0.286413 0
M  V30 2507 O 223.332 -1.87613 -0.182689 0
M  V30 2508 C 220.459 -3.38646 0.0607265 0
M  V30 2509 C 219.505 -4.13874 1.03008 0
M  V30 2510 S 220.338 -4.70731 2.55289 0
M  V30 2511 C 221.494 -5.96079 1.90895 0
M  V30 2512 H 221.727 -2.49987 1.60915 0
M  V30 2513 H 219.26 -1.23015 0.933092 0
M  V30 2514 H 221.218 -4.09313 -0.311965 0
M  V30 2515 H 219.879 -3.03537 -0.807702 0
M  V30 2516 H 219.072 -5.01333 0.517853 0
M  V30 2517 H 218.674 -3.4897 1.34522 0
M  V30 2518 H 220.966 -6.65948 1.24577 0
M  V30 2519 H 221.909 -6.51946 2.76354 0
M  V30 2520 H 222.317 -5.47652 1.36885 0
M  V30 2521 N 221.715 -0.905404 -1.28997 0
M  V30 2522 C 222.645 -0.404212 -2.29975 0
M  V30 2523 C 223.626 0.523784 -1.61835 0
M  V30 2524 O 224.811 0.433298 -1.89304 0
M  V30 2525 C 221.941 0.364042 -3.45387 0
M  V30 2526 C 220.895 -0.474048 -4.25367 0
M  V30 2527 C 220.221 0.422045 -5.33032 0
M  V30 2528 C 221.521 -1.72696 -4.92923 0
M  V30 2529 H 223.215 -1.24807 -2.72146 0
M  V30 2530 H 220.761 -0.601585 -1.30832 0
M  V30 2531 H 222.714 0.725447 -4.15109 0
M  V30 2532 H 221.438 1.24174 -3.02074 0
M  V30 2533 H 220.097 -0.81786 -3.57361 0
M  V30 2534 H 219.745 1.29804 -4.85963 0
M  V30 2535 H 219.445 -0.135057 -5.87445 0
M  V30 2536 H 220.969 0.779517 -6.05604 0
M  V30 2537 H 222.383 -1.43495 -5.55051 0
M  V30 2538 H 220.78 -2.22582 -5.57295 0
M  V30 2539 H 221.85 -2.45964 -4.17887 0
M  V30 2540 N 223.193 1.4272 -0.668489 0
M  V30 2541 C 224.141 2.32586 0.0254857 0
M  V30 2542 C 225.135 1.49471 0.797176 0
M  V30 2543 O 226.341 1.65583 0.705853 0
M  V30 2544 H 222.716 0.751514 0.0270339 0
M  V30 2545 H 224.687 2.88823 -0.749936 0
M  V30 2546 C 223.436 3.3397 0.967427 0
M  V30 2547 H 222.759 3.97961 0.383048 0
M  V30 2548 H 224.199 3.9945 1.42181 0
M  V30 2549 C 222.658 2.65744 2.0708 0
M  V30 2550 O 223.188 2.48454 3.15648 0
M  V30 2551 N 221.394 2.2487 1.8407 0
M  V30 2552 H 220.941 2.39132 0.95778 0
M  V30 2553 H 220.899 1.79552 2.58086 0
M  V30 2554 N 224.671 0.411399 1.52136 0
M  V30 2555 C 225.92 -0.165009 2.01024 0
M  V30 2556 C 226.233 -1.4603 1.30133 0
M  V30 2557 O 227.439 -2.1181 1.69849 0
M  V30 2558 C 225.895 -0.344618 3.58246 0
M  V30 2559 C 225.503 0.938716 4.38055 0
M  V30 2560 C 227.247 -0.876195 4.15359 0
M  V30 2561 C 225.154 0.726172 5.86925 0
M  V30 2562 H 224.084 -0.0654407 0.751155 0
M  V30 2563 H 226.735 0.537192 1.75461 0
M  V30 2564 H 225.117 -1.10921 3.80148 0
M  V30 2565 H 226.291 1.70963 4.27912 0
M  V30 2566 H 224.606 1.39688 3.92271 0
M  V30 2567 H 227.203 -1.05128 5.24263 0
M  V30 2568 H 227.546 -1.85152 3.7286 0
M  V30 2569 H 228.079 -0.170607 3.97434 0
M  V30 2570 H 224.818 1.67312 6.33788 0
M  V30 2571 H 224.338 -0.00540283 5.998 0
M  V30 2572 H 226.017 0.369231 6.45946 0
M  V30 2573 N 226.149 -1.5696 0.141893 0
M  V30 2574 C 227.395 -1.97034 -0.504884 0
M  V30 2575 C 227.75 -1.02518 -1.62812 0
M  V30 2576 O 227.043 -0.0592943 -1.91508 0
M  V30 2577 C 227.237 -3.41242 -1.06249 0
M  V30 2578 C 227.066 -4.497 0.00519653 0
M  V30 2579 C 225.836 -5.03338 0.444873 0
M  V30 2580 C 228.034 -5.08122 0.794767 0
M  V30 2581 N 226.016 -5.95395 1.49593 0
M  V30 2582 C 227.387 -5.96339 1.69645 0
M  V30 2583 C 229.442 -4.9071 0.843122 0
M  V30 2584 C 228.145 -6.69009 2.64233 0
M  V30 2585 C 230.171 -5.64077 1.77681 0
M  V30 2586 C 229.533 -6.51999 2.66603 0
M  V30 2587 H 225.632 -0.766745 -0.153707 0
M  V30 2588 H 228.216 -1.93273 0.235313 0
M  V30 2589 H 226.387 -3.45606 -1.77231 0
M  V30 2590 H 228.119 -3.68389 -1.67546 0
M  V30 2591 H 224.874 -4.73576 0.0480959 0
M  V30 2592 H 225.298 -6.46128 2.02107 0
M  V30 2593 H 229.94 -4.22459 0.169732 0
M  V30 2594 H 227.658 -7.36492 3.32575 0
M  V30 2595 H 231.244 -5.52602 1.81996 0
M  V30 2596 H 230.124 -7.07775 3.37675 0
M  V30 2597 N 227.627 0.131896 -1.57047 0
M  V30 2598 C 228.873 0.838268 -1.85323 0
M  V30 2599 C 229.228 1.78098 -0.727937 0
M  V30 2600 O 228.521 1.89645 0.27304 0
M  V30 2601 C 228.715 1.63703 -3.17704 0
M  V30 2602 C 228.544 0.773167 -4.43004 0
M  V30 2603 C 227.314 0.432956 -5.03442 0
M  V30 2604 C 229.512 0.0966216 -5.14209 0
M  V30 2605 N 227.494 -0.442924 -6.123 0
M  V30 2606 C 228.865 -0.638778 -6.16701 0
M  V30 2607 C 230.92 0.018861 -4.97896 0
M  V30 2608 C 229.623 -1.44462 -7.04644 0
M  V30 2609 C 231.649 -0.773762 -5.86316 0
M  V30 2610 C 231.011 -1.4974 -6.883 0
M  V30 2611 H 227.11 0.284086 -0.728573 0
M  V30 2612 H 229.694 0.102731 -1.94429 0
M  V30 2613 H 227.865 2.3437 -3.09718 0
M  V30 2614 H 229.597 2.28774 -3.33833 0
M  V30 2615 H 226.352 0.772237 -4.67262 0
M  V30 2616 H 226.776 -0.872332 -6.71356 0
M  V30 2617 H 231.418 0.56397 -4.19022 0
M  V30 2618 H 229.136 -2.00093 -7.82936 0
M  V30 2619 H 232.722 -0.83612 -5.75761 0
M  V30 2620 H 231.602 -2.10087 -7.55535 0
M  V30 2621 N 229.106 1.52395 0.401703 0
M  V30 2622 C 230.353 1.66817 1.14796 0
M  V30 2623 C 230.681 0.401772 1.90305 0
M  V30 2624 O 229.936 -0.615487 1.85769 0
M  V30 2625 C 230.235 2.84578 2.16217 0
M  V30 2626 C 229.901 4.22513 1.5746 0
M  V30 2627 C 228.563 4.60029 1.41161 0
M  V30 2628 C 230.915 5.0844 1.14622 0
M  V30 2629 C 228.243 5.81144 0.80552 0
M  V30 2630 C 230.595 6.30167 0.55428 0
M  V30 2631 C 229.259 6.66426 0.378482 0
M  V30 2632 H 228.529 0.610428 0.420069 0
M  V30 2633 H 231.176 1.86512 0.434212 0
M  V30 2634 H 229.481 2.59248 2.93764 0
M  V30 2635 H 231.178 2.92933 2.73845 0
M  V30 2636 H 227.768 3.92953 1.71132 0
M  V30 2637 H 231.952 4.80034 1.26021 0
M  V30 2638 H 227.208 6.07855 0.657399 0
M  V30 2639 H 231.382 6.96071 0.213983 0
M  V30 2640 H 229.009 7.60143 -0.0932606 0
M  V30 2641 N 230.584 -0.659388 1.43143 0
M  V30 2642 C 231.83 -1.42145 1.44647 0
M  V30 2643 C 232.163 -1.9408 0.0681907 0
M  V30 2644 O 231.438 -1.71899 -0.910007 0
M  V30 2645 C 231.721 -2.60735 2.48373 0
M  V30 2646 C 231.574 -2.14332 3.95451 0
M  V30 2647 C 232.893 -3.62951 2.48906 0
M  V30 2648 H 230.012 -0.51552 0.526696 0
M  V30 2649 H 232.654 -0.748069 1.74654 0
M  V30 2650 H 230.804 -3.18184 2.22916 0
M  V30 2651 H 232.476 -1.61932 4.31944 0
M  V30 2652 H 230.719 -1.4576 4.08578 0
M  V30 2653 H 231.39 -2.99583 4.63631 0
M  V30 2654 H 233.866 -3.1525 2.71582 0
M  V30 2655 H 232.742 -4.43487 3.23435 0
M  V30 2656 H 233.003 -4.15126 1.52061 0
M  V30 2657 N 232.062 -1.29571 -0.897171 0
M  V30 2658 C 232.995 -1.0924 -2.00354 0
M  V30 2659 C 233.973 -0.00354011 -1.626 0
M  V30 2660 O 235.157 -0.15473 -1.87864 0
M  V30 2661 C 232.284 -0.66352 -3.32137 0
M  V30 2662 C 231.33 -1.75146 -3.88878 0
M  V30 2663 S 232.163 -3.35124 -4.17674 0
M  V30 2664 C 233.319 -2.9411 -5.52494 0
M  V30 2665 H 233.552 -2.02907 -2.17292 0
M  V30 2666 H 231.085 -1.13746 -1.04408 0
M  V30 2667 H 233.043 -0.422791 -4.08317 0
M  V30 2668 H 231.704 0.253588 -3.13075 0
M  V30 2669 H 230.897 -1.40337 -4.84068 0
M  V30 2670 H 230.499 -1.94584 -3.19395 0
M  V30 2671 H 232.791 -2.41312 -6.33068 0
M  V30 2672 H 233.734 -3.88161 -5.9223 0
M  V30 2673 H 234.142 -2.32332 -5.14473 0
M  V30 2674 N 233.54 1.10788 -1.12088 0
M  V30 2675 C 234.488 2.19111 -0.780587 0
M  V30 2676 C 235.482 1.67818 0.230961 0
M  V30 2677 O 236.688 1.79777 0.0895427 0
M  V30 2678 H 233.063 0.714477 -0.234578 0
M  V30 2679 H 235.034 2.45055 -1.70266 0
M  V30 2680 C 233.783 3.46818 -0.24747 0
M  V30 2681 H 233.106 3.86646 -1.01712 0
M  V30 2682 H 234.546 4.23973 -0.0476291 0
M  V30 2683 C 233.005 3.20968 1.02378 0
M  V30 2684 O 233.535 3.42298 2.10226 0
M  V30 2685 N 231.741 2.74658 0.949271 0
M  V30 2686 H 231.288 2.57501 0.0715173 0
M  V30 2687 H 231.246 2.57739 1.80049 0
M  V30 2688 N 235.018 0.912232 1.28515 0
M  V30 2689 C 236.264 0.554851 1.95686 0
M  V30 2690 C 236.619 -0.89138 1.70506 0
M  V30 2691 O 235.912 -1.62529 1.01464 0
M  V30 2692 C 236.106 0.798392 3.48368 0
M  V30 2693 C 235.935 2.26674 3.88393 0
M  V30 2694 C 234.705 2.91657 4.12631 0
M  V30 2695 C 236.903 3.24303 3.99164 0
M  V30 2696 N 234.885 4.28805 4.39317 0
M  V30 2697 C 236.256 4.4661 4.30046 0
M  V30 2698 C 238.311 3.19723 3.81683 0
M  V30 2699 C 237.014 5.64915 4.45268 0
M  V30 2700 C 239.04 4.37325 3.98121 0
M  V30 2701 C 238.402 5.58406 4.29375 0
M  V30 2702 H 234.501 0.252876 0.739985 0
M  V30 2703 H 237.085 1.17565 1.55199 0
M  V30 2704 H 235.256 0.20688 3.87849 0
M  V30 2705 H 236.988 0.405193 4.02666 0
M  V30 2706 H 233.743 2.42393 4.06869 0
M  V30 2707 H 234.167 4.99712 4.56746 0
M  V30 2708 H 238.809 2.27191 3.56573 0
M  V30 2709 H 236.527 6.57927 4.6921 0
M  V30 2710 H 240.113 4.35282 3.86033 0
M  V30 2711 H 238.993 6.47889 4.41825 0
M  V30 2712 N 236.496 -1.42363 0.676048 0
M  V30 2713 C 237.742 -2.0182 0.199125 0
M  V30 2714 C 238.075 -1.53339 -1.19168 0
M  V30 2715 O 237.35 -0.736124 -1.80032 0
M  V30 2716 C 237.633 -3.59331 0.235144 0
M  V30 2717 C 237.486 -4.17989 1.66149 0
M  V30 2718 C 238.805 -4.3813 -0.41595 0
M  V30 2719 H 235.924 -0.733293 0.0738311 0
M  V30 2720 H 238.566 -1.69368 0.86107 0
M  V30 2721 H 236.716 -3.87109 -0.328487 0
M  V30 2722 H 238.388 -4.0116 2.27747 0
M  V30 2723 H 236.631 -3.7377 2.20178 0
M  V30 2724 H 237.302 -5.27126 1.63837 0
M  V30 2725 H 239.778 -4.16051 0.0638529 0
M  V30 2726 H 238.654 -5.47717 -0.360115 0
M  V30 2727 H 238.915 -4.16101 -1.49373 0
M  V30 2728 N 237.974 -0.419461 -1.51915 0
M  V30 2729 C 239.385 0.0477853 -1.86639 0
M  V30 2730 C 239.736 1.43531 -1.33766 0
M  V30 2731 O 238.861 2.05401 -0.68113 0
M  V30 2732 C 239.456 0.0934885 -3.38671 0
M  V30 2733 C 238.015 0.505097 -3.72996 0
M  V30 2734 C 237.162 -0.313792 -2.75519 0
M  V30 2735 H 240.113 -0.636088 -1.45395 0
M  V30 2736 H 240.134 0.906667 -3.6954 0
M  V30 2737 H 239.646 -0.916501 -3.77123 0
M  V30 2738 H 237.747 1.52135 -3.40126 0
M  V30 2739 H 237.86 0.242309 -4.78487 0
M  V30 2740 H 236.224 0.225363 -2.53701 0
M  V30 2741 H 237.007 -1.32232 -3.16812 0
M  V30 2742 N 239.452 1.56882 -0.150215 0
M  V30 2743 C 240.692 1.98119 0.502804 0
M  V30 2744 C 241.056 1.03327 1.61826 0
M  V30 2745 O 242.257 1.33621 2.33236 0
M  V30 2746 C 240.528 3.43329 0.992988 0
M  V30 2747 S 242.087 4.0659 1.65015 0
M  V30 2748 H 238.905 0.692189 0.162467 0
M  V30 2749 H 241.507 1.93988 -0.242689 0
M  V30 2750 H 240.211 4.10046 0.170436 0
M  V30 2751 H 239.742 3.5118 1.77303 0
M  V30 2752 H 241.757 3.99906 2.93752 0
M  V30 2753 N 240.93 -0.123565 1.57115 0
M  V30 2754 C 242.178 -0.83051 1.84247 0
M  V30 2755 C 242.499 -1.80629 0.73471 0
M  V30 2756 O 241.769 -1.94403 -0.241688 0
M  V30 2757 H 240.349 -0.309694 0.679778 0
M  V30 2758 H 243.011 -0.111976 1.94578 0
M  V30 2759 H 242.107 -1.37852 2.80006 0
M  V30 2760 N 242.408 -1.52605 -0.393616 0
M  V30 2761 C 243.358 -1.73436 -1.48 0
M  V30 2762 C 244.342 -0.588386 -1.49756 0
M  V30 2763 O 245.534 -0.846047 -1.5547 0
M  V30 2764 C 242.663 -1.90247 -2.85764 0
M  V30 2765 C 241.749 -3.10763 -2.88595 0
M  V30 2766 N 242.14 -4.33196 -2.61103 0
M  V30 2767 C 240.438 -3.10914 -3.19763 0
M  V30 2768 C 241.139 -5.1477 -2.70899 0
M  V30 2769 N 240.115 -4.50356 -3.04435 0
M  V30 2770 H 243.917 -2.65727 -1.25563 0
M  V30 2771 H 241.431 -1.5085 -0.601513 0
M  V30 2772 H 243.428 -2.03291 -3.63976 0
M  V30 2773 H 242.088 -0.991663 -3.09186 0
M  V30 2774 H 243.099 -4.61408 -2.35209 0
M  V30 2775 H 239.776 -2.29626 -3.4868 0
M  V30 2776 H 241.166 -6.22355 -2.53227 0
M  V30 2777 N 243.887 0.651787 -1.4349 0
M  V30 2778 C 245.112 1.44434 -1.48841 0
M  V30 2779 C 245.537 1.8779 -0.107955 0
M  V30 2780 O 244.895 1.57464 0.898602 0
M  V30 2781 C 244.943 2.65458 -2.44059 0
M  V30 2782 O 244.047 3.64566 -1.92784 0
M  V30 2783 H 243.388 0.433005 -0.503391 0
M  V30 2784 H 245.918 0.797451 -1.88419 0
M  V30 2785 H 245.928 3.13255 -2.6141 0
M  V30 2786 H 244.603 2.33244 -3.4434 0
M  V30 2787 H 243.18 3.23716 -1.851 0
M  V30 2788 N 245.365 1.30045 0.890287 0
M  V30 2789 C 246.595 1.21296 1.67245 0
M  V30 2790 C 247.003 -0.227471 1.87828 0
M  V30 2791 O 246.346 -1.16296 1.422 0
M  V30 2792 C 246.408 1.86519 3.07329 0
M  V30 2793 C 246.072 3.35837 3.09939 0
M  V30 2794 C 247.069 4.31915 2.89389 0
M  V30 2795 C 244.754 3.77196 3.31706 0
M  V30 2796 C 246.748 5.67325 2.90552 0
M  V30 2797 C 244.435 5.12725 3.32499 0
M  V30 2798 C 245.433 6.076 3.11947 0
M  V30 2799 O 245.121 7.40655 3.12547 0
M  V30 2800 H 244.853 0.4211 0.528821 0
M  V30 2801 H 247.407 1.72111 1.12103 0
M  V30 2802 H 245.637 1.30228 3.64112 0
M  V30 2803 H 247.326 1.71963 3.67673 0
M  V30 2804 H 248.092 4.01294 2.72375 0
M  V30 2805 H 243.971 3.03796 3.4674 0
M  V30 2806 H 247.515 6.41354 2.74429 0
M  V30 2807 H 243.412 5.42988 3.49047 0
M  V30 2808 H 244.18 7.49577 3.28749 0
M  V30 2809 N 246.843 -1.10192 1.12674 0
M  V30 2810 C 248.09 -1.82205 0.883606 0
M  V30 2811 C 248.418 -1.8532 -0.590492 0
M  V30 2812 O 247.673 -1.31137 -1.45264 0
M  V30 2813 C 247.972 -3.28552 1.4067 0
M  V30 2814 C 247.638 -3.45582 2.89627 0
M  V30 2815 C 246.3 -3.49937 3.30299 0
M  V30 2816 C 248.652 -3.50768 3.85501 0
M  V30 2817 C 245.98 -3.57049 4.65546 0
M  V30 2818 C 248.332 -3.59414 5.20581 0
M  V30 2819 C 246.996 -3.62034 5.60792 0
M  V30 2820 H 246.266 -0.666735 0.323334 0
M  V30 2821 H 248.913 -1.29868 1.40736 0
M  V30 2822 H 247.218 -3.83473 0.80347 0
M  V30 2823 H 248.915 -3.82788 1.19475 0
M  V30 2824 H 245.505 -3.42871 2.57172 0
M  V30 2825 H 249.689 -3.46651 3.55171 0
M  V30 2826 H 244.945 -3.57361 4.96088 0
M  V30 2827 H 249.119 -3.62371 5.94693 0
M  V30 2828 H 246.746 -3.67298 6.6558 0
M  V30 2829 N 248.321 -0.919034 -1.28029 0
M  V30 2830 C 249.569 -0.553838 -1.94363 0
M  V30 2831 C 249.89 0.906357 -1.72656 0
M  V30 2832 O 249.16 1.64143 -1.0693 0
M  V30 2833 H 247.74 -0.201834 -0.719216 0
M  V30 2834 H 250.402 -1.16954 -1.55909 0
M  V30 2835 H 249.498 -0.752758 -3.02886 0
M  V30 2836 N 249.799 1.42003 -0.683588 0
M  V30 2837 C 250.762 2.29191 -0.0198243 0
M  V30 2838 C 251.762 1.43773 0.72013 0
M  V30 2839 O 252.952 1.65061 0.556815 0
M  V30 2840 C 250.084 3.26435 0.982487 0
M  V30 2841 H 251.277 2.8938 -0.787345 0
M  V30 2842 H 248.83 1.49789 -0.446418 0
M  V30 2843 H 249.565 2.71203 1.77819 0
M  V30 2844 H 249.35 3.89449 0.455182 0
M  V30 2845 H 250.84 3.918 1.44508 0
M  V30 2846 N 251.277 0.427512 1.51691 0
M  V30 2847 C 252.505 -0.141191 2.06418 0
M  V30 2848 C 252.92 -1.37303 1.29589 0
M  V30 2849 O 252.277 -1.79059 0.352732 0
M  V30 2850 C 252.328 -0.473266 3.58389 0
M  V30 2851 O 252.049 0.709673 4.32314 0
M  V30 2852 C 253.55 -1.09371 4.29596 0
M  V30 2853 H 250.77 -0.0122747 0.670888 0
M  V30 2854 H 253.314 0.603764 1.95384 0
M  V30 2855 H 251.469 -1.16812 3.69369 0
M  V30 2856 H 251.883 0.42807 5.2275 0
M  V30 2857 H 253.357 -1.27613 5.37046 0
M  V30 2858 H 253.834 -2.072 3.87253 0
M  V30 2859 H 254.44 -0.43853 4.23033 0
M  V30 2860 N 252.755 -1.56801 0.158532 0
M  V30 2861 C 253.685 -2.20347 -0.772609 0
M  V30 2862 C 254.666 -1.15518 -1.24859 0
M  V30 2863 O 255.851 -1.43902 -1.30406 0
M  V30 2864 C 252.981 -2.83417 -2.00729 0
M  V30 2865 C 251.935 -3.94174 -1.66765 0
M  V30 2866 C 251.261 -4.44233 -2.97592 0
M  V30 2867 C 252.561 -5.14392 -0.905447 0
M  V30 2868 H 254.255 -2.98413 -0.242959 0
M  V30 2869 H 251.801 -1.43537 -0.115419 0
M  V30 2870 H 253.754 -3.26543 -2.6636 0
M  V30 2871 H 252.478 -2.02701 -2.56086 0
M  V30 2872 H 251.137 -3.51684 -1.03508 0
M  V30 2873 H 250.785 -3.60325 -3.50963 0
M  V30 2874 H 250.485 -5.18945 -2.75626 0
M  V30 2875 H 252.009 -4.90037 -3.64274 0
M  V30 2876 H 253.423 -5.5429 -1.46408 0
M  V30 2877 H 251.82 -5.9494 -0.7853 0
M  V30 2878 H 252.89 -4.84795 0.100668 0
M  V30 2879 N 254.233 0.115231 -1.57178 0
M  V30 2880 C 255.181 1.16014 -2.01602 0
M  V30 2881 C 256.175 1.42653 -0.913587 0
M  V30 2882 O 257.381 1.42571 -1.09879 0
M  V30 2883 H 253.756 0.391252 -0.642204 0
M  V30 2884 H 255.727 0.758998 -2.88586 0
M  V30 2885 C 254.476 2.47767 -2.4394 0
M  V30 2886 H 253.799 2.28108 -3.28339 0
M  V30 2887 H 255.239 3.19432 -2.78818 0
M  V30 2888 C 253.698 3.10617 -1.30455 0
M  V30 2889 O 254.228 3.96846 -0.622585 0
M  V30 2890 N 252.434 2.70553 -1.06064 0
M  V30 2891 H 251.981 2.00527 -1.61699 0
M  V30 2892 H 251.939 3.12934 -0.303284 0
M  V30 2893 N 255.711 1.52812 0.385517 0
M  V30 2894 C 256.936 1.72207 1.15583 0
M  V30 2895 C 257.361 0.441034 1.82857 0
M  V30 2896 O 256.719 -0.603465 1.70962 0
M  V30 2897 C 256.767 2.87476 2.17692 0
M  V30 2898 O 255.871 2.54693 3.24354 0
M  V30 2899 H 255.212 0.572526 0.336319 0
M  V30 2900 H 257.742 1.99618 0.448744 0
M  V30 2901 H 257.752 3.13072 2.6163 0
M  V30 2902 H 256.427 3.80408 1.68115 0
M  V30 2903 H 255.004 2.3985 2.85529 0
M  V30 2904 N 257.189 -0.644168 1.43834 0
M  V30 2905 C 258.436 -1.40395 1.4593 0
M  V30 2906 C 258.764 -1.94305 0.0869658 0
M  V30 2907 O 258.019 -1.73288 -0.909378 0
M  V30 2908 C 258.318 -2.59615 2.45631 0
M  V30 2909 C 257.984 -2.2407 3.91284 0
M  V30 2910 C 256.646 -2.14089 4.30952 0
M  V30 2911 C 258.998 -1.95775 4.83034 0
M  V30 2912 C 256.326 -1.73981 5.6031 0
M  V30 2913 C 258.678 -1.57163 6.12766 0
M  V30 2914 C 257.342 -1.45713 6.51402 0
M  V30 2915 H 256.612 -0.513741 0.533995 0
M  V30 2916 H 259.259 -0.731724 1.76969 0
M  V30 2917 H 257.564 -3.32011 2.08028 0
M  V30 2918 H 259.261 -3.17834 2.44504 0
M  V30 2919 H 255.851 -2.32753 3.59895 0
M  V30 2920 H 260.035 -2.02403 4.53152 0
M  V30 2921 H 255.291 -1.63709 5.89075 0
M  V30 2922 H 259.465 -1.34303 6.83327 0
M  V30 2923 H 257.092 -1.14406 7.51542 0
M  V30 2924 N 258.668 -1.30515 -0.883378 0
M  V30 2925 C 259.917 -1.18795 -1.63005 0
M  V30 2926 C 260.23 0.255923 -1.93919 0
M  V30 2927 O 261.436 0.494654 -2.66956 0
M  V30 2928 C 259.892 -2.07878 -2.93794 0
M  V30 2929 C 259.5 -3.57184 -2.70414 0
M  V30 2930 C 261.244 -2.04924 -3.71761 0
M  V30 2931 C 259.151 -4.38317 -3.97029 0
M  V30 2932 H 258.081 -0.441031 -0.611562 0
M  V30 2933 H 260.732 -1.55275 -0.977854 0
M  V30 2934 H 259.114 -1.64283 -3.60315 0
M  V30 2935 H 260.288 -4.08937 -2.12384 0
M  V30 2936 H 258.603 -3.61976 -2.0582 0
M  V30 2937 H 261.2 -2.62792 -4.65665 0
M  V30 2938 H 261.543 -1.0331 -4.03277 0
M  V30 2939 H 262.076 -2.46649 -3.12104 0
M  V30 2940 H 258.815 -5.40632 -3.70671 0
M  V30 2941 H 258.335 -3.91326 -4.54559 0
M  V30 2942 H 260.014 -4.49834 -4.65036 0
M  V30 2943 N 260.146 1.09593 -1.13257 0
M  V30 2944 C 261.096 2.14345 -0.777179 0
M  V30 2945 C 262.08 1.59277 0.227966 0
M  V30 2946 O 263.272 1.76971 0.0321413 0
M  V30 2947 C 260.401 3.42439 -0.242991 0
M  V30 2948 C 259.487 4.04419 -1.27694 0
M  V30 2949 N 259.878 4.40979 -2.47732 0
M  V30 2950 C 258.176 4.31596 -1.12432 0
M  V30 2951 C 258.877 4.89784 -3.13826 0
M  V30 2952 N 257.853 4.87133 -2.41252 0
M  V30 2953 H 261.655 2.40415 -1.69049 0
M  V30 2954 H 259.169 1.26803 -1.01463 0
M  V30 2955 H 261.166 4.16889 0.0298496 0
M  V30 2956 H 259.826 3.17824 0.66467 0
M  V30 2957 H 260.837 4.32396 -2.85051 0
M  V30 2958 H 257.514 4.16595 -0.274684 0
M  V30 2959 H 258.904 5.2755 -4.16102 0
M  V30 2960 N 261.624 0.925811 1.2754 0
M  V30 2961 C 262.87 0.566092 1.94739 0
M  V30 2962 C 263.203 -0.890057 1.72603 0
M  V30 2963 O 262.478 -1.63467 1.05399 0
M  V30 2964 C 262.761 0.89054 3.48915 0
M  V30 2965 C 262.614 2.4003 3.80402 0
M  V30 2966 C 263.933 0.395101 4.38323 0
M  V30 2967 H 261.052 0.20714 0.707292 0
M  V30 2968 H 263.694 1.15725 1.50691 0
M  V30 2969 H 261.844 0.387452 3.86563 0
M  V30 2970 H 263.516 2.97494 3.52555 0
M  V30 2971 H 261.759 2.85028 3.2702 0
M  V30 2972 H 262.43 2.57785 4.8811 0
M  V30 2973 H 264.906 0.826241 4.07814 0
M  V30 2974 H 263.782 0.651086 5.45025 0
M  V30 2975 H 264.043 -0.704798 4.36446 0
M  V30 2976 N 263.102 -1.41638 0.69111 0
M  V30 2977 C 264.032 -2.3347 0.037248 0
M  V30 2978 C 265.013 -1.51575 -0.771947 0
M  V30 2979 O 266.198 -1.80126 -0.72582 0
M  V30 2980 C 263.328 -3.35354 -0.903064 0
M  V30 2981 C 262.282 -4.27526 -0.201288 0
M  V30 2982 C 261.608 -5.19747 -1.25565 0
M  V30 2983 C 262.908 -5.13959 0.929689 0
M  V30 2984 H 264.602 -2.88397 0.804227 0
M  V30 2985 H 262.148 -1.38669 0.388189 0
M  V30 2986 H 264.101 -3.98519 -1.36969 0
M  V30 2987 H 262.825 -2.78767 -1.70166 0
M  V30 2988 H 261.484 -3.65779 0.245265 0
M  V30 2989 H 261.132 -4.59479 -2.04666 0
M  V30 2990 H 260.832 -5.8225 -0.791128 0
M  V30 2991 H 262.356 -5.85789 -1.72288 0
M  V30 2992 H 263.77 -5.70718 0.543546 0
M  V30 2993 H 262.167 -5.85379 1.32103 0
M  V30 2994 H 263.237 -4.51389 1.77133 0
M  V30 2995 N 264.58 -0.43555 -1.51462 0
M  V30 2996 C 265.513 0.421989 -2.24264 0
M  V30 2997 C 266.491 1.02619 -1.26127 0
M  V30 2998 O 267.675 1.069 -1.55257 0
M  V30 2999 C 264.802 1.588 -2.99166 0
M  V30 3000 C 263.848 1.10465 -4.11946 0
M  V30 3001 S 264.681 0.048146 -5.35478 0
M  V30 3002 C 265.837 1.21887 -6.13917 0
M  V30 3003 H 266.07 -0.196102 -2.96653 0
M  V30 3004 H 263.603 -0.220054 -1.52824 0
M  V30 3005 H 265.561 2.25647 -3.42919 0
M  V30 3006 H 264.222 2.1775 -2.26371 0
M  V30 3007 H 263.415 1.97654 -4.63626 0
M  V30 3008 H 263.017 0.51445 -3.70445 0
M  V30 3009 H 265.309 2.13756 -6.42895 0
M  V30 3010 H 266.252 0.742076 -7.04201 0
M  V30 3011 H 266.66 1.45663 -5.45383 0
M  V30 3012 N 266.058 1.56714 -0.166846 0
M  V30 3013 C 267.288 2.00828 0.48494 0
M  V30 3014 C 267.696 1.04612 1.57648 0
M  V30 3015 O 267.039 0.0383201 1.8366 0
M  V30 3016 C 267.101 3.4137 1.12723 0
M  V30 3017 C 266.765 4.56654 0.177886 0
M  V30 3018 C 267.762 5.16402 -0.60207 0
M  V30 3019 C 265.447 5.02244 0.0750139 0
M  V30 3020 C 267.441 6.20167 -1.47215 0
M  V30 3021 C 265.128 6.05859 -0.798649 0
M  V30 3022 C 266.126 6.64691 -1.57082 0
M  V30 3023 O 265.814 7.66297 -2.42989 0
M  V30 3024 H 265.546 0.663587 0.128953 0
M  V30 3025 H 268.1 2.03692 -0.264365 0
M  V30 3026 H 266.33 3.35406 1.92457 0
M  V30 3027 H 268.019 3.69466 1.68076 0
M  V30 3028 H 268.785 4.82065 -0.53274 0
M  V30 3029 H 264.664 4.56167 0.665812 0
M  V30 3030 H 268.208 6.66016 -2.07531 0
M  V30 3031 H 264.105 6.39621 -0.869199 0
M  V30 3032 H 264.873 7.83601 -2.36455 0
M  V30 3033 N 267.536 -0.106894 1.57237 0
M  V30 3034 C 268.761 -0.830287 1.90055 0
M  V30 3035 C 269.186 -1.72064 0.75998 0
M  V30 3036 O 268.544 -1.78982 -0.288991 0
M  V30 3037 C 268.592 -1.6295 3.21683 0
M  V30 3038 O 267.696 -2.73748 3.08441 0
M  V30 3039 H 267.037 -0.228855 0.623315 0
M  V30 3040 H 269.567 -0.085658 2.04421 0
M  V30 3041 H 269.577 -2.01621 3.54701 0
M  V30 3042 H 268.252 -0.975989 4.04286 0
M  V30 3043 H 266.829 -2.38192 2.86913 0
M  V30 3044 N 269.014 -1.53014 -0.377408 0
M  V30 3045 C 270.244 -1.72265 -1.14054 0
M  V30 3046 C 270.652 -0.44601 -1.83868 0
M  V30 3047 O 269.995 0.590095 -1.73964 0
M  V30 3048 C 270.057 -2.82492 -2.22348 0
M  V30 3049 C 269.721 -4.23233 -1.72402 0
M  V30 3050 C 270.718 -5.05992 -1.19448 0
M  V30 3051 C 268.403 -4.696 -1.78273 0
M  V30 3052 C 270.397 -6.33203 -0.730268 0
M  V30 3053 C 268.084 -5.96792 -1.31464 0
M  V30 3054 C 269.082 -6.78424 -0.789297 0
M  V30 3055 O 268.77 -8.0323 -0.328077 0
M  V30 3056 H 268.502 -0.579873 -0.347453 0
M  V30 3057 H 271.056 -2.00502 -0.445882 0
M  V30 3058 H 269.286 -2.49702 -2.95272 0
M  V30 3059 H 270.975 -2.90034 -2.83963 0
M  V30 3060 H 271.741 -4.71349 -1.14259 0
M  V30 3061 H 267.62 -4.06142 -2.18106 0
M  V30 3062 H 271.164 -6.96868 -0.319542 0
M  V30 3063 H 267.061 -6.30937 -1.36342 0
M  V30 3064 H 267.829 -8.1727 -0.448493 0
M  V30 3065 N 270.492 0.636531 -1.44174 0
M  V30 3066 C 271.722 1.42146 -1.49927 0
M  V30 3067 C 272.13 1.88812 -0.121063 0
M  V30 3068 O 271.473 1.61126 0.882267 0
M  V30 3069 C 271.535 2.67883 -2.39748 0
M  V30 3070 C 271.199 2.43048 -3.8701 0
M  V30 3071 C 272.196 2.05216 -4.77684 0
M  V30 3072 C 269.881 2.56856 -4.3166 0
M  V30 3073 C 271.875 1.81512 -6.11009 0
M  V30 3074 C 269.562 2.32766 -5.65034 0
M  V30 3075 C 270.56 1.95152 -6.54526 0
M  V30 3076 O 270.248 1.71326 -7.85431 0
M  V30 3077 H 269.98 0.442567 -0.51099 0
M  V30 3078 H 272.534 0.786158 -1.8976 0
M  V30 3079 H 270.764 3.34032 -1.94832 0
M  V30 3080 H 272.453 3.29874 -2.36513 0
M  V30 3081 H 273.219 1.94111 -4.44462 0
M  V30 3082 H 269.098 2.85104 -3.62266 0
M  V30 3083 H 272.642 1.52077 -6.80822 0
M  V30 3084 H 268.539 2.43479 -5.97819 0
M  V30 3085 H 269.307 1.85616 -7.97176 0
M  V30 3086 N 271.97 1.30982 0.876444 0
M  V30 3087 C 273.218 1.20058 1.62575 0
M  V30 3088 C 273.539 -0.242947 1.93481 0
M  V30 3089 O 272.809 -1.1619 1.57724 0
M  V30 3090 H 271.389 0.44135 0.602677 0
M  V30 3091 H 274.051 1.64222 1.04962 0
M  V30 3092 H 273.147 1.76762 2.57219 0
M  V30 3093 N 273.449 -1.08991 1.13837 0
M  V30 3094 C 274.379 -2.17771 0.842507 0
M  V30 3095 C 275.36 -1.6892 -0.20001 0
M  V30 3096 O 276.545 -1.94113 -0.0579731 0
M  V30 3097 C 273.675 -3.4589 0.312644 0
M  V30 3098 C 272.629 -4.08099 1.28992 0
M  V30 3099 C 271.955 -5.31098 0.619623 0
M  V30 3100 C 273.255 -4.50077 2.65005 0
M  V30 3101 H 274.949 -2.42777 1.75213 0
M  V30 3102 H 272.495 -1.16682 0.843875 0
M  V30 3103 H 274.448 -4.21297 0.0933043 0
M  V30 3104 H 273.172 -3.20419 -0.632382 0
M  V30 3105 H 271.831 -3.34717 1.49533 0
M  V30 3106 H 271.479 -5.0191 -0.33102 0
M  V30 3107 H 271.179 -5.73674 1.27167 0
M  V30 3108 H 272.703 -6.09224 0.409669 0
M  V30 3109 H 274.117 -5.16688 2.48407 0
M  V30 3110 H 272.514 -5.03553 3.26427 0
M  V30 3111 H 273.584 -3.62257 3.22332 0
M  V30 3112 N 274.927 -0.932562 -1.27047 0
M  V30 3113 C 276.152 -0.591474 -1.98787 0
M  V30 3114 C 276.577 0.824601 -1.69062 0
M  V30 3115 O 275.935 1.5541 -0.933677 0
M  V30 3116 C 275.983 -0.829808 -3.50922 0
M  V30 3117 O 275.087 0.102266 -4.12273 0
M  V30 3118 H 274.428 -0.227185 -0.623926 0
M  V30 3119 H 276.958 -1.25314 -1.61733 0
M  V30 3120 H 276.968 -0.747292 -4.01098 0
M  V30 3121 H 275.643 -1.86201 -3.7189 0
M  V30 3122 H 274.22 -0.0305761 -3.72887 0
M  V30 3123 N 276.405 1.4127 -0.698611 0
M  V30 3124 C 277.63 2.06024 -0.238512 0
M  V30 3125 C 278.055 1.5224 1.10475 0
M  V30 3126 O 277.413 0.650623 1.69223 0
M  V30 3127 C 277.461 3.59988 -0.209952 0
M  V30 3128 O 276.565 4.04282 0.814235 0
M  V30 3129 H 275.906 0.653829 -0.115775 0
M  V30 3130 H 278.436 1.8098 -0.954326 0
M  V30 3131 H 278.446 4.07979 -0.0418436 0
M  V30 3132 H 277.121 3.98503 -1.1903 0
M  V30 3133 H 275.698 3.6779 0.615234 0
M  V30 3134 N 277.883 0.443576 1.51229 0
M  V30 3135 C 279.129 -0.120975 2.02439 0
M  V30 3136 C 279.462 -1.41815 1.32674 0
M  V30 3137 O 278.737 -1.89373 0.443622 0
M  V30 3138 C 279.02 -0.333291 3.58554 0
M  V30 3139 C 278.873 0.982968 4.38928 0
M  V30 3140 C 280.192 -1.10028 4.26124 0
M  V30 3141 H 277.311 -0.0424923 0.735774 0
M  V30 3142 H 279.953 0.583794 1.80809 0
M  V30 3143 H 278.103 -0.933614 3.77115 0
M  V30 3144 H 279.775 1.61775 4.32003 0
M  V30 3145 H 278.018 1.58611 4.03763 0
M  V30 3146 H 278.689 0.788379 5.46341 0
M  V30 3147 H 281.165 -0.591711 4.11871 0
M  V30 3148 H 280.041 -1.21761 5.35225 0
M  V30 3149 H 280.302 -2.12996 3.87408 0
M  V30 3150 N 279.361 -1.56624 0.175154 0
M  V30 3151 C 280.772 -1.83561 -0.340916 0
M  V30 3152 C 281.123 -1.09511 -1.62794 0
M  V30 3153 O 280.248 -0.349389 -2.13561 0
M  V30 3154 C 280.843 -3.32979 -0.625313 0
M  V30 3155 C 279.402 -3.60399 -1.08581 0
M  V30 3156 C 278.549 -2.77024 -0.123722 0
M  V30 3157 H 281.5 -1.53593 0.399344 0
M  V30 3158 H 281.521 -3.50666 -1.47694 0
M  V30 3159 H 281.033 -3.86847 0.311575 0
M  V30 3160 H 279.134 -3.11945 -2.03767 0
M  V30 3161 H 279.247 -4.68711 -0.992317 0
M  V30 3162 H 277.611 -2.46993 -0.621821 0
M  V30 3163 H 278.394 -3.33674 0.807256 0
M  V30 3164 N 280.839 0.0985539 -1.57292 0
M  V30 3165 C 282.064 0.820196 -1.90493 0
M  V30 3166 C 282.489 1.71658 -0.769094 0
M  V30 3167 O 281.847 1.79133 0.279495 0
M  V30 3168 C 281.895 1.61242 -3.22542 0
M  V30 3169 O 280.999 2.72108 -3.09888 0
M  V30 3170 H 280.34 0.225547 -0.62452 0
M  V30 3171 H 282.87 0.0748159 -2.04463 0
M  V30 3172 H 282.88 1.99737 -3.55766 0
M  V30 3173 H 281.555 0.954535 -4.04798 0
M  V30 3174 H 280.132 2.36667 -2.88172 0
M  V30 3175 N 282.317 1.53212 0.369288 0
M  V30 3176 C 283.25 1.74166 1.4745 0
M  V30 3177 C 284.228 0.589923 1.51521 0
M  V30 3178 O 285.412 0.822078 1.69629 0
M  V30 3179 C 282.539 1.81711 2.8583 0
M  V30 3180 C 281.585 3.03649 2.99499 0
M  V30 3181 S 282.418 4.63242 2.6864 0
M  V30 3182 C 283.574 4.7363 4.09177 0
M  V30 3183 H 283.807 2.67636 1.29454 0
M  V30 3184 H 281.34 1.43754 0.563396 0
M  V30 3185 H 283.298 1.86743 3.65564 0
M  V30 3186 H 281.959 0.89299 3.01139 0
M  V30 3187 H 281.152 3.05526 4.00836 0
M  V30 3188 H 280.754 2.9671 2.27683 0
M  V30 3189 H 283.046 4.53456 5.03372 0
M  V30 3190 H 283.989 5.75682 4.12306 0
M  V30 3191 H 284.397 4.02295 3.96004 0
M  V30 3192 N 283.795 -0.628877 1.44509 0
M  V30 3193 C 285.211 -0.947305 1.28446 0
M  V30 3194 C 285.411 -2.00275 0.221872 0
M  V30 3195 O 284.467 -2.49447 -0.391471 0
M  V30 3196 C 285.78 -1.40843 2.65676 0
M  V30 3197 C 287.328 -1.52379 2.73404 0
M  V30 3198 C 287.803 -2.01875 4.11109 0
M  V30 3199 N 289.294 -2.09142 4.13296 0
M  V30 3200 C 290.029 -2.48615 5.16699 0
M  V30 3201 N 289.525 -2.87209 6.30462 0
M  V30 3202 N 291.318 -2.48768 5.04054 0
M  V30 3203 H 283.469 0.0690977 2.12288 0
M  V30 3204 H 285.732 -0.0317164 0.947469 0
M  V30 3205 H 285.438 -0.707206 3.44516 0
M  V30 3206 H 285.312 -2.37902 2.92716 0
M  V30 3207 H 287.699 -2.21598 1.9488 0
M  V30 3208 H 287.78 -0.536898 2.50102 0
M  V30 3209 H 287.424 -1.3325 4.90109 0
M  V30 3210 H 287.354 -3.0144 4.31789 0
M  V30 3211 H 289.845 -1.81991 3.31191 0
M  V30 3212 H 290.158 -3.16149 7.05174 0
M  V30 3213 H 288.503 -2.84955 6.33897 0
M  V30 3214 H 291.694 -2.18009 4.14234 0
M  V30 3215 H 291.867 -2.79207 5.84763 0
M  V30 3216 N 285.273 -1.31445 -0.869486 0
M  V30 3217 C 286.684 -1.19042 -1.43826 0
M  V30 3218 C 287.035 0.202919 -1.95148 0
M  V30 3219 O 286.16 1.10071 -1.86315 0
M  V30 3220 C 286.755 -2.15499 -2.6143 0
M  V30 3221 C 285.314 -2.07028 -3.14351 0
M  V30 3222 C 284.461 -2.04701 -1.87063 0
M  V30 3223 H 287.412 -1.43489 -0.677984 0
M  V30 3224 H 287.433 -1.74488 -3.38134 0
M  V30 3225 H 286.945 -3.16899 -2.24046 0
M  V30 3226 H 285.046 -1.08825 -3.56354 0
M  V30 3227 H 285.159 -2.96157 -3.766 0
M  V30 3228 H 283.523 -1.49724 -2.06046 0
M  V30 3229 H 284.306 -3.07857 -1.51917 0
M  V30 3230 N 286.751 1.08385 -1.14413 0
M  V30 3231 C 287.981 1.8425 -0.934644 0
M  V30 3232 C 288.389 1.81907 0.520234 0
M  V30 3233 O 287.732 1.22126 1.37226 0
M  V30 3234 C 287.794 3.32853 -1.35828 0
M  V30 3235 C 287.458 3.5893 -2.82875 0
M  V30 3236 C 288.455 3.53756 -3.80989 0
M  V30 3237 C 286.14 3.86934 -3.20293 0
M  V30 3238 C 288.134 3.76216 -5.14529 0
M  V30 3239 C 285.821 4.09047 -4.54008 0
M  V30 3240 C 286.819 4.03682 -5.50936 0
M  V30 3241 O 286.507 4.25214 -6.82238 0
M  V30 3242 H 286.239 0.588502 -0.332628 0
M  V30 3243 H 288.793 1.37792 -1.52324 0
M  V30 3244 H 287.023 3.8007 -0.713019 0
M  V30 3245 H 288.712 3.90154 -1.11957 0
M  V30 3246 H 289.478 3.32135 -3.53428 0
M  V30 3247 H 285.357 3.9023 -2.45442 0
M  V30 3248 H 288.901 3.71943 -5.90173 0
M  V30 3249 H 284.798 4.30151 -4.8129 0
M  V30 3250 H 285.566 4.42619 -6.88499 0
M  V30 3251 N 288.23 0.939286 1.26551 0
M  V30 3252 C 289.16 0.465044 2.28822 0
M  V30 3253 C 290.141 -0.480692 1.63167 0
M  V30 3254 O 291.326 -0.382955 1.90387 0
M  V30 3255 C 288.456 -0.27234 3.46231 0
M  V30 3256 C 287.41 0.58666 4.2396 0
M  V30 3257 C 286.736 -0.280573 5.33963 0
M  V30 3258 C 288.036 1.85704 4.88171 0
M  V30 3259 H 289.73 1.31979 2.68741 0
M  V30 3260 H 287.276 0.636061 1.29191 0
M  V30 3261 H 289.229 -0.615133 4.16886 0
M  V30 3262 H 287.953 -1.16121 3.0526 0
M  V30 3263 H 286.612 0.91232 3.55067 0
M  V30 3264 H 286.26 -1.16874 4.89234 0
M  V30 3265 H 285.96 0.29076 5.8688 0
M  V30 3266 H 287.484 -0.618678 6.07458 0
M  V30 3267 H 288.898 1.58161 5.51052 0
M  V30 3268 H 287.295 2.37279 5.51197 0
M  V30 3269 H 288.365 2.56957 4.11219 0
M  V30 3270 N 289.708 -1.40897 0.706093 0
M  V30 3271 C 290.954 -2.01849 0.250681 0
M  V30 3272 C 291.309 -1.5496 -1.14041 0
M  V30 3273 O 290.602 -0.755566 -1.76073 0
M  V30 3274 C 290.796 -3.5646 0.259099 0
M  V30 3275 C 290.625 -4.18357 1.64947 0
M  V30 3276 C 289.395 -4.522 2.25485 0
M  V30 3277 C 291.593 -4.43856 2.598 0
M  V30 3278 N 289.575 -4.9944 3.56977 0
M  V30 3279 C 290.946 -4.92986 3.75985 0
M  V30 3280 C 293.001 -4.25882 2.57933 0
M  V30 3281 C 291.704 -5.2603 4.90597 0
M  V30 3282 C 293.73 -4.6002 3.71665 0
M  V30 3283 C 293.092 -5.09331 4.86581 0
M  V30 3284 H 289.191 -0.769843 0.137353 0
M  V30 3285 H 291.775 -1.71278 0.925845 0
M  V30 3286 H 289.946 -3.86481 -0.385592 0
M  V30 3287 H 291.678 -4.04144 -0.21213 0
M  V30 3288 H 288.433 -4.3901 1.77671 0
M  V30 3289 H 288.857 -5.27454 4.24407 0
M  V30 3290 H 293.499 -3.86986 1.70298 0
M  V30 3291 H 291.217 -5.63843 5.78884 0
M  V30 3292 H 294.803 -4.47762 3.71484 0
M  V30 3293 H 293.683 -5.35251 5.73129 0
M  V30 3294 N 291.186 -0.45159 -1.50991 0
M  V30 3295 C 292.432 0.102439 -2.03142 0
M  V30 3296 C 292.787 1.39138 -1.32884 0
M  V30 3297 O 292.08 1.86493 -0.439438 0
M  V30 3298 C 292.274 0.361728 -3.55565 0
M  V30 3299 C 292.103 -0.900535 -4.40591 0
M  V30 3300 C 290.873 -1.43821 -4.844 0
M  V30 3301 C 293.071 -1.79063 -4.82121 0
M  V30 3302 N 291.053 -2.65153 -5.53685 0
M  V30 3303 C 292.424 -2.84991 -5.50618 0
M  V30 3304 C 294.479 -1.80334 -4.64095 0
M  V30 3305 C 293.182 -3.92155 -6.02998 0
M  V30 3306 C 295.208 -2.86442 -5.17402 0
M  V30 3307 C 294.57 -3.9109 -5.85857 0
M  V30 3308 H 290.669 -0.00204537 -0.781997 0
M  V30 3309 H 293.253 -0.615446 -1.84717 0
M  V30 3310 H 291.424 1.04865 -3.73976 0
M  V30 3311 H 293.156 0.908372 -3.94374 0
M  V30 3312 H 289.911 -0.990117 -4.63135 0
M  V30 3313 H 290.335 -3.26717 -5.92946 0
M  V30 3314 H 294.977 -1.00753 -4.1062 0
M  V30 3315 H 292.695 -4.72565 -6.55521 0
M  V30 3316 H 296.281 -2.88386 -5.05297 0
M  V30 3317 H 295.161 -4.71845 -6.26364 0
M  V30 3318 N 292.664 1.56529 -0.183458 0
M  V30 3319 C 293.611 2.18546 0.742055 0
M  V30 3320 C 294.581 1.12912 1.2182 0
M  V30 3321 O 295.766 1.41115 1.28418 0
M  V30 3322 C 292.906 2.83977 1.96089 0
M  V30 3323 C 292.019 4.04105 1.52719 0
M  V30 3324 C 291.154 4.57427 2.70063 0
M  V30 3325 C 290.193 5.69938 2.23243 0
M  V30 3326 N 289.33 6.17717 3.33722 0
M  V30 3327 H 294.17 2.97284 0.206432 0
M  V30 3328 H 291.707 1.46823 0.0901571 0
M  V30 3329 H 293.665 3.20077 2.67594 0
M  V30 3330 H 292.295 2.07822 2.47002 0
M  V30 3331 H 291.347 3.73745 0.708436 0
M  V30 3332 H 292.659 4.85513 1.1436 0
M  V30 3333 H 291.813 4.95772 3.49708 0
M  V30 3334 H 290.552 3.75101 3.11689 0
M  V30 3335 H 289.557 5.31133 1.42048 0
M  V30 3336 H 290.782 6.54073 1.82661 0
M  V30 3337 H 288.728 5.38317 3.74902 0
M  V30 3338 H 288.645 6.94146 2.99495 0
M  V30 3339 H 289.913 6.60713 4.13616 0
M  V30 3340 N 294.142 -0.090211 1.57342 0
M  V30 3341 C 295.089 -1.10909 2.02405 0
M  V30 3342 C 296.059 -1.39523 0.901252 0
M  V30 3343 O 297.244 -1.50903 1.1676 0
M  V30 3344 C 294.384 -2.42277 2.45755 0
M  V30 3345 C 293.497 -2.20352 3.71576 0
M  V30 3346 C 292.632 -3.45154 4.03785 0
M  V30 3347 C 291.671 -3.18512 5.22701 0
M  V30 3348 N 290.808 -4.35593 5.50639 0
M  V30 3349 H 295.648 -0.71782 2.89225 0
M  V30 3350 H 293.185 -0.342901 1.43048 0
M  V30 3351 H 295.143 -3.18951 2.68935 0
M  V30 3352 H 293.773 -2.79242 1.61938 0
M  V30 3353 H 292.825 -1.34458 3.55844 0
M  V30 3354 H 294.137 -1.96661 4.58395 0
M  V30 3355 H 293.291 -4.30233 4.27767 0
M  V30 3356 H 292.03 -3.71904 3.15498 0
M  V30 3357 H 291.035 -2.31827 4.98534 0
M  V30 3358 H 292.26 -2.93103 6.12591 0
M  V30 3359 H 290.206 -4.6241 4.6531 0
M  V30 3360 H 290.123 -4.1511 6.31838 0
M  V30 3361 H 291.391 -5.21723 5.7916 0
M  V30 3362 N 295.62 -1.53406 -0.361157 0
M  V30 3363 C 296.85 -1.73465 -1.1222 0
M  V30 3364 C 297.258 -0.465486 -1.83384 0
M  V30 3365 O 296.601 0.571611 -1.7458 0
M  V30 3366 C 296.663 -2.84834 -2.19339 0
M  V30 3367 C 296.327 -4.25038 -1.67903 0
M  V30 3368 C 297.324 -5.07231 -1.14074 0
M  V30 3369 C 295.009 -4.71464 -1.73282 0
M  V30 3370 C 297.003 -6.33942 -0.663068 0
M  V30 3371 C 294.69 -5.98153 -1.25127 0
M  V30 3372 C 295.688 -6.79223 -0.717296 0
M  V30 3373 O 295.376 -8.03533 -0.242865 0
M  V30 3374 H 295.108 -0.583526 -0.341283 0
M  V30 3375 H 297.662 -2.00964 -0.424591 0
M  V30 3376 H 295.892 -2.5282 -2.92607 0
M  V30 3377 H 297.581 -2.9303 -2.80871 0
M  V30 3378 H 298.347 -4.72534 -1.09254 0
M  V30 3379 H 294.226 -4.08432 -2.13786 0
M  V30 3380 H 297.77 -6.97167 -0.245612 0
M  V30 3381 H 293.667 -6.32347 -1.29642 0
M  V30 3382 H 294.435 -8.177 -0.361786 0
M  V30 3383 N 297.098 0.621204 -1.44841 0
M  V30 3384 C 298.347 1.37658 -1.47422 0
M  V30 3385 C 298.66 1.95264 -0.114629 0
M  V30 3386 O 299.866 2.71494 -0.0180199 0
M  V30 3387 C 298.322 2.49285 -2.59586 0
M  V30 3388 C 297.93 1.98149 -4.01797 0
M  V30 3389 C 299.674 3.26409 -2.71399 0
M  V30 3390 C 297.581 3.07178 -5.05367 0
M  V30 3391 H 296.511 0.517344 -0.548517 0
M  V30 3392 H 299.162 0.667257 -1.70938 0
M  V30 3393 H 297.544 3.22839 -2.29328 0
M  V30 3394 H 298.718 1.31395 -4.41669 0
M  V30 3395 H 297.033 1.33812 -3.94314 0
M  V30 3396 H 299.63 4.07706 -3.45948 0
M  V30 3397 H 299.973 3.76535 -1.77559 0
M  V30 3398 H 300.506 2.5995 -3.01116 0
M  V30 3399 H 297.245 2.61985 -6.00869 0
M  V30 3400 H 296.765 3.72542 -4.70077 0
M  V30 3401 H 298.444 3.71789 -5.29511 0
M  V30 3402 N 298.576 1.31904 0.862503 0
M  V30 3403 C 299.804 1.24998 1.64873 0
M  V30 3404 C 300.219 -0.183425 1.87907 0
M  V30 3405 O 299.576 -1.11794 1.44251 0
M  V30 3406 C 299.627 1.99829 3.01248 0
M  V30 3407 O 299.348 3.37575 2.79239 0
M  V30 3408 C 300.849 1.99852 3.95694 0
M  V30 3409 H 298.069 0.431599 0.513773 0
M  V30 3410 H 300.613 1.73901 1.07604 0
M  V30 3411 H 298.768 1.54668 3.55185 0
M  V30 3412 H 299.182 3.75776 3.65914 0
M  V30 3413 H 300.656 2.56709 4.88676 0
M  V30 3414 H 301.133 0.982852 4.28062 0
M  V30 3415 H 301.739 2.44926 3.47694 0
M  V30 3416 N 300.054 -1.07777 1.14986 0
M  V30 3417 C 300.986 -2.14769 0.800436 0
M  V30 3418 C 301.999 -1.61739 -0.185595 0
M  V30 3419 O 303.188 -1.78462 0.0370358 0
M  V30 3420 C 300.288 -3.38481 0.168533 0
M  V30 3421 C 299.461 -4.20876 1.1909 0
M  V30 3422 C 298.52 -5.22976 0.581575 0
M  V30 3423 O 297.546 -5.55388 1.24633 0
M  V30 3424 N 298.748 -5.76976 -0.638706 0
M  V30 3425 H 301.513 -2.45348 1.72118 0
M  V30 3426 H 299.074 -1.23645 1.04515 0
M  V30 3427 H 301.066 -4.03916 -0.251764 0
M  V30 3428 H 299.636 -3.05651 -0.655467 0
M  V30 3429 H 298.856 -3.51322 1.78791 0
M  V30 3430 H 300.144 -4.7274 1.88133 0
M  V30 3431 H 299.542 -5.52886 -1.19723 0
M  V30 3432 H 298.099 -6.44061 -1.00142 0
M  V30 3433 N 301.532 -0.945985 -1.26051 0
M  V30 3434 C 302.78 -0.594941 -1.93145 0
M  V30 3435 C 303.101 0.86953 -1.7454 0
M  V30 3436 O 302.371 1.61838 -1.10387 0
M  V30 3437 H 300.951 -0.217044 -0.714773 0
M  V30 3438 H 303.613 -1.20235 -1.53393 0
M  V30 3439 H 302.709 -0.816835 -3.01221 0
M  V30 3440 N 303.011 1.40521 -0.713556 0
M  V30 3441 C 303.943 2.29191 -0.0203126 0
M  V30 3442 C 304.956 1.45723 0.725864 0
M  V30 3443 O 306.145 1.69033 0.573581 0
M  V30 3444 C 303.245 3.2395 0.995486 0
M  V30 3445 C 302.418 4.36262 0.315256 0
M  V30 3446 C 301.477 5.11474 1.23616 0
M  V30 3447 O 300.503 5.64606 0.721719 0
M  V30 3448 N 301.705 5.20638 2.56743 0
M  V30 3449 H 304.47 2.89327 -0.781652 0
M  V30 3450 H 302.031 1.51869 -0.561022 0
M  V30 3451 H 304.023 3.71137 1.61368 0
M  V30 3452 H 302.593 2.64995 1.6582 0
M  V30 3453 H 301.813 3.91228 -0.483106 0
M  V30 3454 H 303.101 5.08558 -0.157004 0
M  V30 3455 H 302.499 4.7895 3.01037 0
M  V30 3456 H 301.056 5.71339 3.13712 0
M  V30 3457 N 304.489 0.459591 1.5075 0
M  V30 3458 C 305.419 -0.330644 2.31147 0
M  V30 3459 C 306.4 -1.00087 1.37538 0
M  V30 3460 O 307.585 -1.00025 1.66459 0
M  V30 3461 C 304.715 -1.41958 3.16962 0
M  V30 3462 C 303.669 -0.871608 4.19031 0
M  V30 3463 C 302.995 -2.05797 4.9351 0
M  V30 3464 C 304.295 0.109251 5.22186 0
M  V30 3465 H 305.989 0.340336 2.97459 0
M  V30 3466 H 303.535 0.165119 1.4305 0
M  V30 3467 H 305.488 -1.9798 3.71997 0
M  V30 3468 H 304.212 -2.11917 2.48513 0
M  V30 3469 H 302.871 -0.333442 3.6508 0
M  V30 3470 H 302.519 -2.74427 4.21544 0
M  V30 3471 H 302.219 -1.6976 5.62544 0
M  V30 3472 H 303.743 -2.62331 5.51375 0
M  V30 3473 H 305.157 -0.361405 5.7216 0
M  V30 3474 H 303.554 0.383316 5.98875 0
M  V30 3475 H 304.624 1.03887 4.73641 0
M  V30 3476 N 305.967 -1.56429 0.191757 0
M  V30 3477 C 306.897 -2.21937 -0.725696 0
M  V30 3478 C 307.878 -1.1814 -1.2238 0
M  V30 3479 O 309.063 -1.46636 -1.27325 0
M  V30 3480 C 306.193 -2.87611 -1.94672 0
M  V30 3481 C 305.147 -3.97623 -1.58366 0
M  V30 3482 C 304.473 -4.50446 -2.88102 0
M  V30 3483 C 305.773 -5.16197 -0.796133 0
M  V30 3484 H 307.467 -2.98861 -0.179606 0
M  V30 3485 H 305.013 -1.43749 -0.0849464 0
M  V30 3486 H 306.966 -3.3212 -2.59373 0
M  V30 3487 H 305.69 -2.08087 -2.51728 0
M  V30 3488 H 304.349 -3.53801 -0.960247 0
M  V30 3489 H 303.997 -3.67688 -3.43241 0
M  V30 3490 H 303.697 -5.24675 -2.64556 0
M  V30 3491 H 305.221 -4.97654 -3.53798 0
M  V30 3492 H 306.635 -5.57271 -1.34618 0
M  V30 3493 H 305.032 -5.96471 -0.658928 0
M  V30 3494 H 306.102 -4.84473 0.203478 0
M  V30 3495 N 307.445 0.0818655 -1.57387 0
M  V30 3496 C 308.377 1.12484 -1.997 0
M  V30 3497 C 309.39 1.35564 -0.90146 0
M  V30 3498 O 310.579 1.33982 -1.17945 0
M  V30 3499 C 307.679 2.47778 -2.31213 0
M  V30 3500 C 306.852 2.44793 -3.62485 0
M  V30 3501 C 305.911 3.62117 -3.81782 0
M  V30 3502 O 304.937 3.44005 -4.53486 0
M  V30 3503 N 306.139 4.82094 -3.23367 0
M  V30 3504 H 308.904 0.764585 -2.89783 0
M  V30 3505 H 306.465 0.270664 -1.59621 0
M  V30 3506 H 308.457 3.24891 -2.41304 0
M  V30 3507 H 307.027 2.75843 -1.4707 0
M  V30 3508 H 306.247 1.53134 -3.6324 0
M  V30 3509 H 307.535 2.39889 -4.48699 0
M  V30 3510 H 306.933 4.99713 -2.65148 0
M  V30 3511 H 305.49 5.56753 -3.38923 0
M  V30 3512 N 308.923 1.53595 0.353017 0
M  V30 3513 C 310.17 1.70385 1.09431 0
M  V30 3514 C 310.498 0.462113 1.88931 0
M  V30 3515 O 309.753 -0.556074 1.87633 0
M  V30 3516 C 310.052 2.91313 2.07054 0
M  V30 3517 C 309.718 4.27308 1.43939 0
M  V30 3518 C 308.38 4.64287 1.26454 0
M  V30 3519 C 310.732 5.11829 0.983883 0
M  V30 3520 C 308.06 5.83412 0.620226 0
M  V30 3521 C 310.412 6.31611 0.353516 0
M  V30 3522 C 309.076 6.67293 0.166272 0
M  V30 3523 H 308.346 0.623484 0.400436 0
M  V30 3524 H 310.993 1.87799 0.374655 0
M  V30 3525 H 309.298 2.68463 2.85368 0
M  V30 3526 H 310.995 3.01497 2.64387 0
M  V30 3527 H 307.585 3.98198 1.58543 0
M  V30 3528 H 311.769 4.838 1.10685 0
M  V30 3529 H 307.025 6.09639 0.463681 0
M  V30 3530 H 311.199 6.964 -0.00757555 0
M  V30 3531 H 308.826 7.59461 -0.335047 0
M  V30 3532 N 310.401 -0.613514 1.45168 0
M  V30 3533 C 311.647 -1.37471 1.49096 0
M  V30 3534 C 311.98 -1.93765 0.129901 0
M  V30 3535 O 311.255 -1.74707 -0.854858 0
M  V30 3536 C 311.538 -2.52701 2.56542 0
M  V30 3537 C 311.391 -2.01643 4.0207 0
M  V30 3538 C 312.71 -3.54849 2.60327 0
M  V30 3539 H 309.829 -0.498502 0.54283 0
M  V30 3540 H 312.471 -0.692125 1.76945 0
M  V30 3541 H 310.621 -3.10931 2.32926 0
M  V30 3542 H 312.293 -1.48108 4.36877 0
M  V30 3543 H 310.536 -1.32688 4.13009 0
M  V30 3544 H 311.207 -2.84681 4.72928 0
M  V30 3545 H 313.683 -3.0645 2.81474 0
M  V30 3546 H 312.559 -4.32973 3.37381 0
M  V30 3547 H 312.82 -4.10079 1.6519 0
M  V30 3548 N 311.879 -1.3236 -0.855495 0
M  V30 3549 C 312.809 -1.23833 -1.97958 0
M  V30 3550 C 313.79 -0.122361 -1.69659 0
M  V30 3551 O 314.975 -0.30939 -1.9172 0
M  V30 3552 C 312.105 -0.959772 -3.33775 0
M  V30 3553 C 311.059 -2.03689 -3.76424 0
M  V30 3554 C 310.385 -1.61075 -5.09862 0
M  V30 3555 C 311.685 -3.4518 -3.9198 0
M  V30 3556 H 313.379 -2.1788 -2.0535 0
M  V30 3557 H 310.925 -1.04891 -0.986605 0
M  V30 3558 H 312.878 -0.886678 -4.11966 0
M  V30 3559 H 311.602 0.0163404 -3.26596 0
M  V30 3560 H 310.261 -2.10012 -3.00484 0
M  V30 3561 H 309.909 -0.622107 -4.99138 0
M  V30 3562 H 309.609 -2.33143 -5.39368 0
M  V30 3563 H 311.133 -1.55201 -5.90546 0
M  V30 3564 H 312.547 -3.4145 -4.60526 0
M  V30 3565 H 310.944 -4.1559 -4.32903 0
M  V30 3566 H 312.014 -3.84903 -2.94919 0
M  V30 3567 N 313.357 1.07166 -1.15556 0
M  V30 3568 C 314.585 1.83514 -0.955519 0
M  V30 3569 C 315 1.82163 0.49621 0
M  V30 3570 O 314.357 1.23441 1.34419 0
M  V30 3571 C 314.408 3.30515 -1.46432 0
M  V30 3572 O 314.129 3.31937 -2.85918 0
M  V30 3573 C 315.63 4.23625 -1.30603 0
M  V30 3574 H 312.85 0.578926 -0.339244 0
M  V30 3575 H 315.394 1.35265 -1.53374 0
M  V30 3576 H 313.549 3.76106 -0.928584 0
M  V30 3577 H 313.963 4.23794 -3.09029 0
M  V30 3578 H 315.437 5.24831 -1.71047 0
M  V30 3579 H 315.914 4.38485 -0.250441 0
M  V30 3580 H 316.52 3.83871 -1.83094 0
M  V30 3581 N 314.835 0.952656 1.25548 0
M  V30 3582 C 316.084 0.602053 1.92505 0
M  V30 3583 C 316.397 -0.864663 1.75451 0
M  V30 3584 O 317.603 -1.32514 2.36965 0
M  V30 3585 C 316.059 1.02607 3.44963 0
M  V30 3586 C 315.667 2.51519 3.70732 0
M  V30 3587 C 317.411 0.747905 4.1786 0
M  V30 3588 C 315.318 2.87732 5.16686 0
M  V30 3589 H 314.248 0.22146 0.720744 0
M  V30 3590 H 316.899 1.15684 1.42441 0
M  V30 3591 H 315.281 0.399712 3.93978 0
M  V30 3592 H 316.455 3.19157 3.32378 0
M  V30 3593 H 314.77 2.76786 3.11092 0
M  V30 3594 H 317.367 0.994647 5.25367 0
M  V30 3595 H 317.71 -0.315629 4.15102 0
M  V30 3596 H 318.243 1.33452 3.74747 0
M  V30 3597 H 314.982 3.93095 5.24554 0
M  V30 3598 H 314.502 2.24765 5.56094 0
M  V30 3599 H 316.181 2.76817 5.84792 0
M  V30 3600 N 316.313 -1.40141 0.720998 0
M  V30 3601 C 317.562 -2.0002 0.259804 0
M  V30 3602 C 317.875 -1.57839 -1.15526 0
M  V30 3603 O 319.081 -2.10455 -1.71525 0
M  V30 3604 C 317.537 -3.57516 0.413566 0
M  V30 3605 C 317.145 -4.08667 1.83562 0
M  V30 3606 C 318.889 -4.24498 0.0134387 0
M  V30 3607 C 316.796 -5.58686 1.93968 0
M  V30 3608 H 315.726 -0.748195 0.0933806 0
M  V30 3609 H 318.377 -1.60313 0.892866 0
M  V30 3610 H 316.759 -3.9495 -0.288169 0
M  V30 3611 H 317.933 -3.82598 2.56817 0
M  V30 3612 H 316.248 -3.543 2.1877 0
M  V30 3613 H 318.845 -5.34654 0.0703954 0
M  V30 3614 H 319.188 -4.03375 -1.02927 0
M  V30 3615 H 319.721 -3.92188 0.665815 0
M  V30 3616 H 316.46 -5.8467 2.96379 0
M  V30 3617 H 315.98 -5.86602 1.25131 0
M  V30 3618 H 317.659 -6.23875 1.71431 0
M  V30 3619 N 317.792 -0.46758 -1.50504 0
M  V30 3620 C 318.724 0.364655 -2.26281 0
M  V30 3621 C 319.737 0.960151 -1.31472 0
M  V30 3622 O 320.926 0.849153 -1.57008 0
M  V30 3623 C 318.026 1.52509 -3.02645 0
M  V30 3624 C 317.199 1.04302 -4.24782 0
M  V30 3625 C 316.258 2.07709 -4.8347 0
M  V30 3626 O 315.284 1.65913 -5.44483 0
M  V30 3627 N 316.486 3.40485 -4.70159 0
M  V30 3628 H 319.251 -0.28495 -2.98342 0
M  V30 3629 H 316.812 -0.298163 -1.59131 0
M  V30 3630 H 318.804 2.21371 -3.38787 0
M  V30 3631 H 317.374 2.07945 -2.33404 0
M  V30 3632 H 316.594 0.180393 -3.93787 0
M  V30 3633 H 317.882 0.698798 -5.03978 0
M  V30 3634 H 317.28 3.77155 -4.21629 0
M  V30 3635 H 315.837 4.05156 -5.1058 0
M  V30 3636 N 319.27 1.56325 -0.20005 0
M  V30 3637 C 320.498 2.02105 0.442874 0
M  V30 3638 C 320.913 1.08014 1.5485 0
M  V30 3639 O 320.27 0.0858797 1.82298 0
M  V30 3640 C 320.321 3.47549 0.994583 0
M  V30 3641 O 320.042 4.38049 -0.0669322 0
M  V30 3642 C 321.543 4.0887 1.7129 0
M  V30 3643 H 318.763 0.661807 0.110691 0
M  V30 3644 H 321.307 2.02134 -0.310207 0
M  V30 3645 H 319.462 3.48204 1.69803 0
M  V30 3646 H 319.876 5.23368 0.344462 0
M  V30 3647 H 321.35 5.12475 2.05118 0
M  V30 3648 H 321.827 3.52615 2.61838 0
M  V30 3649 H 322.433 4.12002 1.05518 0
M  V30 3650 N 320.748 -0.0735177 1.57428 0
M  V30 3651 C 321.973 -0.789787 1.91774 0
M  V30 3652 C 322.398 -1.70413 0.796306 0
M  V30 3653 O 321.756 -1.79555 -0.250961 0
M  V30 3654 C 321.804 -1.5609 3.25067 0
M  V30 3655 O 320.908 -2.67144 3.14178 0
M  V30 3656 H 320.249 -0.215582 0.628029 0
M  V30 3657 H 322.779 -0.0422781 2.04556 0
M  V30 3658 H 322.789 -1.94052 3.58898 0
M  V30 3659 H 321.464 -0.890015 4.06265 0
M  V30 3660 H 320.041 -2.32052 2.91901 0
M  V30 3661 N 322.226 -1.5378 -0.344866 0
M  V30 3662 C 323.466 -1.72677 -1.09371 0
M  V30 3663 C 323.83 -0.479084 -1.85927 0
M  V30 3664 O 325.031 -0.54505 -2.63216 0
M  V30 3665 C 323.302 -2.95457 -2.01097 0
M  V30 3666 S 324.861 -3.35158 -2.83222 0
M  V30 3667 H 321.679 -0.607402 -0.369573 0
M  V30 3668 H 324.281 -1.91922 -0.372307 0
M  V30 3669 H 322.985 -3.84437 -1.43655 0
M  V30 3670 H 322.516 -2.78673 -2.77678 0
M  V30 3671 H 324.531 -2.88789 -4.03504 0
M  V30 3672 N 323.704 0.605807 -1.45491 0
M  V30 3673 C 324.952 1.36207 -1.49305 0
M  V30 3674 C 325.273 1.94519 -0.136863 0
M  V30 3675 O 324.543 1.77261 0.833983 0
M  V30 3676 H 323.123 0.50565 -0.549843 0
M  V30 3677 H 325.785 0.711239 -1.81459 0
M  V30 3678 H 324.881 2.18058 -2.23287 0
M  V30 3679 N 325.182 1.32811 0.848464 0
M  V30 3680 C 326.428 1.23907 1.60546 0
M  V30 3681 C 326.761 -0.197161 1.93197 0
M  V30 3682 O 326.036 -1.13596 1.5788 0
M  V30 3683 C 326.319 2.10489 2.92175 0
M  V30 3684 C 326.172 3.62522 2.66266 0
M  V30 3685 C 327.491 1.97075 3.93509 0
M  V30 3686 H 324.61 0.451459 0.58254 0
M  V30 3687 H 327.252 1.62818 0.979296 0
M  V30 3688 H 325.402 1.77434 3.45614 0
M  V30 3689 H 327.074 4.05821 2.19334 0
M  V30 3690 H 325.317 3.84879 2.00126 0
M  V30 3691 H 325.988 4.18437 3.6002 0
M  V30 3692 H 328.464 2.26045 3.49346 0
M  V30 3693 H 327.34 2.59923 4.83457 0
M  V30 3694 H 327.601 0.940186 4.31987 0
M  V30 3695 N 326.66 -1.06551 1.16123 0
M  V30 3696 C 327.909 -1.78687 0.935622 0
M  V30 3697 C 328.222 -1.88056 -0.538001 0
M  V30 3698 O 329.428 -2.56794 -0.88143 0
M  V30 3699 C 327.884 -3.21143 1.62466 0
M  V30 3700 C 327.492 -3.19949 3.13587 0
M  V30 3701 C 329.236 -3.9783 1.48092 0
M  V30 3702 C 327.143 -4.57108 3.75241 0
M  V30 3703 H 326.073 -0.669712 0.346412 0
M  V30 3704 H 328.724 -1.19534 1.39226 0
M  V30 3705 H 327.106 -3.80539 1.09572 0
M  V30 3706 H 328.28 -2.70151 3.73303 0
M  V30 3707 H 326.595 -2.5676 3.27816 0
M  V30 3708 H 329.192 -4.99217 1.91538 0
M  V30 3709 H 329.535 -4.14078 0.429507 0
M  V30 3710 H 330.068 -3.4495 1.98127 0
M  V30 3711 H 326.807 -4.46065 4.80319 0
M  V30 3712 H 326.327 -5.07111 3.20309 0
M  V30 3713 H 328.006 -5.26069 3.76644 0
M  V30 3714 N 328.138 -0.959301 -1.25041 0
M  V30 3715 C 329.384 -0.627096 -1.93492 0
M  V30 3716 C 329.739 0.827484 -1.73696 0
M  V30 3717 O 329.032 1.58651 -1.07427 0
M  V30 3718 C 329.226 -0.927136 -3.45165 0
M  V30 3719 C 329.055 -2.40933 -3.79712 0
M  V30 3720 C 327.825 -3.0677 -4.01522 0
M  V30 3721 C 330.023 -3.38894 -3.86853 0
M  V30 3722 N 328.005 -4.44815 -4.231 0
M  V30 3723 C 329.376 -4.62263 -4.13174 0
M  V30 3724 C 331.431 -3.33668 -3.69554 0
M  V30 3725 C 330.134 -5.81052 -4.23995 0
M  V30 3726 C 332.16 -4.518 -3.81616 0
M  V30 3727 C 331.522 -5.73957 -4.08354 0
M  V30 3728 H 327.621 -0.280166 -0.73009 0
M  V30 3729 H 330.205 -1.23244 -1.50729 0
M  V30 3730 H 328.376 -0.350685 -3.86814 0
M  V30 3731 H 330.108 -0.554361 -4.00885 0
M  V30 3732 H 326.863 -2.57327 -3.97593 0
M  V30 3733 H 327.287 -5.16319 -4.37885 0
M  V30 3734 H 331.929 -2.40268 -3.47895 0
M  V30 3735 H 329.647 -6.74888 -4.44468 0
M  V30 3736 H 333.233 -4.49309 -3.69612 0
M  V30 3737 H 332.113 -6.6384 -4.17475 0
M  V30 3738 N 329.616 1.39756 -0.72842 0
M  V30 3739 C 331.027 1.83498 -0.344289 0
M  V30 3740 C 331.378 1.60868 1.12321 0
M  V30 3741 O 330.503 1.09634 1.86573 0
M  V30 3742 C 331.098 3.33114 -0.618112 0
M  V30 3743 C 329.657 3.753 -0.287549 0
M  V30 3744 C 328.804 2.62831 -0.884048 0
M  V30 3745 H 331.755 1.28842 -0.926578 0
M  V30 3746 H 331.776 3.80334 0.112349 0
M  V30 3747 H 331.288 3.49553 -1.68625 0
M  V30 3748 H 329.389 3.64451 0.775012 0
M  V30 3749 H 329.502 4.72945 -0.765512 0
M  V30 3750 H 327.866 2.52792 -0.311149 0
M  V30 3751 H 328.649 2.82078 -1.95671 0
M  V30 3752 N 331.094 0.475555 1.50254 0
M  V30 3753 C 332.334 -0.0765802 2.04256 0
M  V30 3754 C 332.698 -1.36587 1.34937 0
M  V30 3755 O 333.899 -2.00066 1.79519 0
M  V30 3756 C 332.17 -0.251668 3.56513 0
M  V30 3757 S 333.729 -0.761716 4.32138 0
M  V30 3758 H 330.547 -0.0138456 0.710865 0
M  V30 3759 H 333.149 0.643714 1.84598 0
M  V30 3760 H 331.853 0.692404 4.04517 0
M  V30 3761 H 331.384 -0.997946 3.80532 0
M  V30 3762 H 333.399 -2.03451 4.52573 0
M  V30 3763 N 332.573 -1.56217 0.208337 0
M  V30 3764 C 333.801 -2.02337 -0.43215 0
M  V30 3765 C 334.216 -1.08834 -1.54275 0
M  V30 3766 O 333.573 -0.0955462 -1.8225 0
M  V30 3767 C 333.624 -3.48072 -0.976138 0
M  V30 3768 O 333.345 -4.38007 0.0901621 0
M  V30 3769 C 334.846 -4.09773 -1.69119 0
M  V30 3770 H 332.066 -0.662385 -0.10718 0
M  V30 3771 H 334.61 -2.01966 0.320923 0
M  V30 3772 H 332.765 -3.49099 -1.67954 0
M  V30 3773 H 333.179 -5.23543 -0.316701 0
M  V30 3774 H 334.653 -5.13556 -2.02397 0
M  V30 3775 H 335.13 -3.53999 -2.59964 0
M  V30 3776 H 335.736 -4.12556 -1.03332 0
M  V30 3777 N 334.051 0.0651679 -1.57465 0
M  V30 3778 C 335.298 0.763063 -1.87573 0
M  V30 3779 C 335.626 1.77242 -0.800961 0
M  V30 3780 O 334.881 1.94651 0.202316 0
M  V30 3781 C 335.18 1.50081 -3.24362 0
M  V30 3782 C 334.846 0.630816 -4.46466 0
M  V30 3783 C 333.508 0.391082 -4.79608 0
M  V30 3784 C 335.86 0.0279465 -5.21193 0
M  V30 3785 C 333.188 -0.460894 -5.84887 0
M  V30 3786 C 335.54 -0.811522 -6.27373 0
M  V30 3787 C 334.204 -1.06106 -6.59013 0
M  V30 3788 H 333.474 0.279224 -0.686378 0
M  V30 3789 H 336.121 0.0236726 -1.91485 0
M  V30 3790 H 334.426 2.31258 -3.16271 0
M  V30 3791 H 336.123 2.04571 -3.44894 0
M  V30 3792 H 332.713 0.8278 -4.2053 0
M  V30 3793 H 336.897 0.200262 -4.95896 0
M  V30 3794 H 332.153 -0.662907 -6.07796 0
M  V30 3795 H 336.327 -1.28537 -6.84435 0
M  V30 3796 H 333.954 -1.723 -7.40417 0
M  V30 3797 N 335.529 1.53961 0.336706 0
M  V30 3798 C 336.94 1.62914 0.911925 0
M  V30 3799 C 337.291 0.514795 1.89326 0
M  V30 3800 O 336.416 -0.354395 2.13478 0
M  V30 3801 C 337.011 2.95304 1.66076 0
M  V30 3802 C 335.57 3.06496 2.18489 0
M  V30 3803 C 334.717 2.58403 1.00613 0
M  V30 3804 H 337.668 1.58285 0.114649 0
M  V30 3805 H 337.689 2.84727 2.5241 0
M  V30 3806 H 337.201 3.76387 0.946276 0
M  V30 3807 H 335.302 2.3006 2.93092 0
M  V30 3808 H 335.415 4.1208 2.44391 0
M  V30 3809 H 333.779 2.13977 1.38152 0
M  V30 3810 H 334.562 3.41932 0.306179 0
M  V30 3811 N 337.007 -0.598083 1.45811 0
M  V30 3812 C 337.937 -1.71873 1.58057 0
M  V30 3813 C 338.918 -1.64533 0.431615 0
M  V30 3814 O 340.103 -1.82787 0.65595 0
M  V30 3815 C 337.233 -3.10495 1.55597 0
M  V30 3816 C 336.187 -3.32654 2.69305 0
M  V30 3817 C 335.513 -4.71646 2.51902 0
M  V30 3818 C 336.813 -3.21981 4.11248 0
M  V30 3819 H 338.507 -1.61881 2.51863 0
M  V30 3820 H 336.053 -0.777372 1.21214 0
M  V30 3821 H 338.006 -3.88699 1.6276 0
M  V30 3822 H 336.73 -3.2135 0.583255 0
M  V30 3823 H 335.389 -2.56843 2.61586 0
M  V30 3824 H 335.037 -4.79246 1.52748 0
M  V30 3825 H 334.737 -4.87426 3.2816 0
M  V30 3826 H 336.261 -5.52038 2.60933 0
M  V30 3827 H 337.675 -3.90049 4.20161 0
M  V30 3828 H 336.072 -3.49289 4.87972 0
M  V30 3829 H 337.142 -2.1928 4.32486 0
M  V30 3830 N 338.485 -1.33259 -0.841409 0
M  V30 3831 C 339.733 -1.24326 -1.59334 0
M  V30 3832 C 340.054 0.191564 -1.94057 0
M  V30 3833 O 339.324 1.11967 -1.60749 0
M  V30 3834 H 337.904 -0.457174 -0.590763 0
M  V30 3835 H 340.566 -1.66947 -1.00571 0
M  V30 3836 H 339.662 -1.8352 -2.52442 0
M  V30 3837 N 339.963 1.05934 -1.16686 0
M  V30 3838 C 341.209 1.79211 -0.962023 0
M  V30 3839 C 341.564 1.85667 0.504545 0
M  V30 3840 O 340.857 1.33991 1.36956 0
M  V30 3841 C 341.051 3.23105 -1.52767 0
M  V30 3842 C 340.88 3.30673 -3.04771 0
M  V30 3843 C 339.65 3.40395 -3.73442 0
M  V30 3844 C 341.848 3.20234 -4.02436 0
M  V30 3845 N 339.83 3.37015 -5.13122 0
M  V30 3846 C 341.201 3.24138 -5.28521 0
M  V30 3847 C 343.256 3.04143 -3.9421 0
M  V30 3848 C 341.959 3.13607 -6.47336 0
M  V30 3849 C 343.985 2.94951 -5.12599 0
M  V30 3850 C 343.347 2.99481 -6.37566 0
M  V30 3851 H 339.446 0.668442 -0.405844 0
M  V30 3852 H 342.03 1.26341 -1.48142 0
M  V30 3853 H 340.201 3.74364 -1.03471 0
M  V30 3854 H 341.933 3.84579 -1.26021 0
M  V30 3855 H 338.688 3.45344 -3.2409 0
M  V30 3856 H 339.112 3.38815 -5.86117 0
M  V30 3857 H 343.754 2.99484 -2.98445 0
M  V30 3858 H 341.472 3.17022 -7.43319 0
M  V30 3859 H 345.058 2.83583 -5.08008 0
M  V30 3860 H 343.938 2.92431 -7.27636 0
M  V30 3861 N 341.441 0.965919 1.2453 0
M  V30 3862 C 342.371 0.513476 2.27784 0
M  V30 3863 C 343.352 -0.445974 1.6415 0
M  V30 3864 O 344.537 -0.342485 1.91156 0
M  V30 3865 C 341.667 -0.198839 3.4673 0
M  V30 3866 C 340.621 0.676456 4.2262 0
M  V30 3867 C 339.947 -0.167248 5.34438 0
M  V30 3868 C 341.247 1.96017 4.84123 0
M  V30 3869 H 342.941 1.3765 2.65881 0
M  V30 3870 H 340.487 0.663321 1.27813 0
M  V30 3871 H 342.44 -0.526567 4.18097 0
M  V30 3872 H 341.164 -1.0962 3.07654 0
M  V30 3873 H 339.823 0.98743 3.53052 0
M  V30 3874 H 339.471 -1.0647 4.91603 0
M  V30 3875 H 339.171 0.415181 5.86131 0
M  V30 3876 H 340.695 -0.489688 6.08633 0
M  V30 3877 H 342.109 1.69814 5.47573 0
M  V30 3878 H 340.506 2.48918 5.4604 0
M  V30 3879 H 341.576 2.65622 4.05676 0
M  V30 3880 N 342.919 -1.39368 0.735821 0
M  V30 3881 C 344.149 -2.04498 0.293967 0
M  V30 3882 C 344.557 -1.55593 -1.07645 0
M  V30 3883 O 343.9 -0.716324 -1.69158 0
M  V30 3884 C 343.962 -3.58836 0.218342 0
M  V30 3885 C 343.626 -4.30721 1.52736 0
M  V30 3886 C 344.623 -4.57305 2.47322 0
M  V30 3887 C 342.308 -4.69251 1.79189 0
M  V30 3888 C 344.302 -5.21429 3.66593 0
M  V30 3889 C 341.989 -5.33104 2.98737 0
M  V30 3890 C 342.987 -5.59125 3.9226 0
M  V30 3891 O 342.675 -6.21653 5.09708 0
M  V30 3892 H 342.407 -0.664118 0.126189 0
M  V30 3893 H 344.961 -1.79385 1.00051 0
M  V30 3894 H 343.191 -3.8285 -0.544314 0
M  V30 3895 H 344.88 -4.05447 -0.191626 0
M  V30 3896 H 345.646 -4.27983 2.28156 0
M  V30 3897 H 341.525 -4.48354 1.07239 0
M  V30 3898 H 345.069 -5.41656 4.39607 0
M  V30 3899 H 340.966 -5.61846 3.17803 0
M  V30 3900 H 341.734 -6.40146 5.10054 0
M  V30 3901 N 344.397 -0.483516 -1.5 0
M  V30 3902 C 345.644 0.0671597 -2.02389 0
M  V30 3903 C 345.972 1.38597 -1.36459 0
M  V30 3904 O 345.227 1.89634 -0.483458 0
M  V30 3905 C 345.526 0.286226 -3.56252 0
M  V30 3906 C 345.192 -0.952416 -4.40726 0
M  V30 3907 C 343.854 -1.29199 -4.63531 0
M  V30 3908 C 346.206 -1.77655 -4.89988 0
M  V30 3909 C 343.534 -2.45553 -5.32842 0
M  V30 3910 C 345.886 -2.93147 -5.60578 0
M  V30 3911 C 344.55 -3.27505 -5.81633 0
M  V30 3912 H 343.82 0.0245755 -0.740592 0
M  V30 3913 H 346.467 -0.640124 -1.80485 0
M  V30 3914 H 344.772 1.07587 -3.76739 0
M  V30 3915 H 346.469 0.726473 -3.94365 0
M  V30 3916 H 343.059 -0.677881 -4.23205 0
M  V30 3917 H 347.243 -1.52737 -4.72213 0
M  V30 3918 H 342.499 -2.72431 -5.47349 0
M  V30 3919 H 346.673 -3.57344 -5.97727 0
M  V30 3920 H 344.3 -4.1777 -6.35116 0
M  V30 3921 N 345.875 1.56104 -0.216619 0
M  V30 3922 C 346.807 2.17339 0.72776 0
M  V30 3923 C 347.82 1.14109 1.16116 0
M  V30 3924 O 349.009 1.4111 1.09317 0
M  V30 3925 C 346.109 2.73818 1.99693 0
M  V30 3926 C 345.282 4.02168 1.71988 0
M  V30 3927 C 344.341 4.43259 2.83562 0
M  V30 3928 O 343.367 5.10257 2.52244 0
M  V30 3929 N 344.569 4.08535 4.12407 0
M  V30 3930 H 347.334 2.99005 0.203983 0
M  V30 3931 H 344.895 1.61861 -0.0354289 0
M  V30 3932 H 346.887 2.9828 2.73516 0
M  V30 3933 H 345.457 1.96483 2.43132 0
M  V30 3934 H 344.677 3.85612 0.818337 0
M  V30 3935 H 345.965 4.85907 1.50903 0
M  V30 3936 H 345.363 3.54687 4.40696 0
M  V30 3937 H 343.92 4.37901 4.8279 0
M  V30 3938 N 347.353 -0.0568162 1.57498 0
M  V30 3939 C 348.602 -0.752001 1.87157 0
M  V30 3940 C 348.915 -1.77978 0.811375 0
M  V30 3941 O 350.121 -2.52559 0.996293 0
M  V30 3942 C 348.577 -1.38844 3.3204 0
M  V30 3943 C 348.185 -0.398456 4.46225 0
M  V30 3944 C 349.929 -2.06512 3.70882 0
M  V30 3945 C 347.836 -1.04166 5.82154 0
M  V30 3946 H 346.766 -0.28461 0.698222 0
M  V30 3947 H 349.417 -0.00561272 1.83499 0
M  V30 3948 H 347.799 -2.1836 3.30356 0
M  V30 3949 H 348.973 0.367977 4.59328 0
M  V30 3950 H 347.288 0.174592 4.16034 0
M  V30 3951 H 349.885 -2.55437 4.6974 0
M  V30 3952 H 350.228 -2.87117 3.01445 0
M  V30 3953 H 350.761 -1.33808 3.7462 0
M  V30 3954 H 347.5 -0.275614 6.5492 0
M  V30 3955 H 347.02 -1.7786 5.72823 0
M  V30 3956 H 348.699 -1.55715 6.27982 0
M  V30 3957 N 348.832 -1.54138 -0.328536 0
M  V30 3958 C 350.08 -1.71765 -1.06496 0
M  V30 3959 C 350.401 -0.49149 -1.88704 0
M  V30 3960 O 349.671 0.494539 -1.89555 0
M  V30 3961 H 348.251 -0.633295 -0.396164 0
M  V30 3962 H 350.913 -1.91429 -0.366176 0
M  V30 3963 H 350.009 -2.5951 -1.73381 0
M  V30 3964 N 350.31 0.590341 -1.46126 0
M  V30 3965 C 351.54 1.37304 -1.54373 0
M  V30 3966 C 351.948 1.88332 -0.181071 0
M  V30 3967 O 351.291 1.63852 0.830559 0
M  V30 3968 C 351.353 2.6012 -2.48149 0
M  V30 3969 C 351.017 2.30613 -3.94546 0
M  V30 3970 C 352.014 1.89915 -4.83971 0
M  V30 3971 C 349.699 2.42993 -4.39613 0
M  V30 3972 C 351.693 1.61981 -6.16475 0
M  V30 3973 C 349.38 2.14672 -5.72153 0
M  V30 3974 C 350.378 1.7423 -6.60404 0
M  V30 3975 O 350.066 1.46251 -7.90485 0
M  V30 3976 H 349.798 0.426086 -0.524811 0
M  V30 3977 H 352.352 0.72539 -1.92165 0
M  V30 3978 H 350.582 3.27664 -2.05361 0
M  V30 3979 H 352.271 3.22182 -2.46887 0
M  V30 3980 H 353.037 1.79872 -4.50412 0
M  V30 3981 H 348.916 2.73435 -3.71153 0
M  V30 3982 H 352.46 1.30341 -6.85315 0
M  V30 3983 H 348.357 2.24337 -6.05263 0
M  V30 3984 H 349.125 1.6016 -8.02677 0
M  V30 3985 N 351.788 1.33704 0.83433 0
M  V30 3986 C 352.721 1.18675 1.94914 0
M  V30 3987 C 353.699 0.0811145 1.62398 0
M  V30 3988 O 354.883 0.244186 1.86912 0
M  V30 3989 C 352.01 0.821231 3.28593 0
M  V30 3990 C 351.056 1.93501 3.80079 0
M  V30 3991 S 351.889 3.54671 4.01209 0
M  V30 3992 C 353.045 3.20136 5.37833 0
M  V30 3993 H 353.278 2.13043 2.07364 0
M  V30 3994 H 350.811 1.18598 0.988624 0
M  V30 3995 H 352.769 0.617123 4.05835 0
M  V30 3996 H 351.43 -0.103927 3.13928 0
M  V30 3997 H 350.623 1.63273 4.76821 0
M  V30 3998 H 350.225 2.09601 3.09747 0
M  V30 3999 H 352.517 2.71242 6.20833 0
M  V30 4000 H 353.46 4.15975 5.73036 0
M  V30 4001 H 353.868 2.56613 5.02802 0
M  V30 4002 N 353.266 -1.05314 1.17247 0
M  V30 4003 C 354.515 -1.77685 0.954521 0
M  V30 4004 C 354.828 -1.88616 -0.518025 0
M  V30 4005 O 356.034 -2.57714 -0.854144 0
M  V30 4006 C 354.49 -3.19402 1.65863 0
M  V30 4007 C 354.098 -3.16605 3.16963 0
M  V30 4008 C 355.842 -3.96237 1.52303 0
M  V30 4009 C 353.749 -4.53103 3.80068 0
M  V30 4010 H 352.679 -0.666 0.353496 0
M  V30 4011 H 355.33 -1.1805 1.40486 0
M  V30 4012 H 353.712 -3.79355 1.13602 0
M  V30 4013 H 354.886 -2.66176 3.76148 0
M  V30 4014 H 353.201 -2.53268 3.30521 0
M  V30 4015 H 355.798 -4.97157 1.96822 0
M  V30 4016 H 356.141 -4.136 0.473401 0
M  V30 4017 H 356.674 -3.42829 2.01775 0
M  V30 4018 H 353.413 -4.40946 4.85023 0
M  V30 4019 H 352.933 -5.03686 3.2567 0
M  V30 4020 H 354.612 -5.22045 3.82202 0
M  V30 4021 N 354.744 -0.972509 -1.24016 0
M  V30 4022 C 355.969 -0.654417 -1.96805 0
M  V30 4023 C 356.394 0.770398 -1.716 0
M  V30 4024 O 355.752 1.52361 -0.982647 0
M  V30 4025 C 355.8 -0.941031 -3.48105 0
M  V30 4026 O 354.904 -0.0289472 -4.1239 0
M  V30 4027 H 354.245 -0.24692 -0.616382 0
M  V30 4028 H 356.775 -1.30396 -1.57664 0
M  V30 4029 H 356.785 -0.87452 -3.98517 0
M  V30 4030 H 355.46 -1.97939 -3.65777 0
M  V30 4031 H 354.037 -0.149192 -3.72601 0
M  V30 4032 N 356.222 1.38976 -0.743202 0
M  V30 4033 C 357.152 2.33171 -0.123873 0
M  V30 4034 C 358.133 1.54336 0.71516 0
M  V30 4035 O 359.318 1.82696 0.658467 0
M  V30 4036 C 356.448 3.38474 0.777978 0
M  V30 4037 C 355.402 4.27979 0.0424758 0
M  V30 4038 C 354.728 5.2405 1.06189 0
M  V30 4039 C 356.028 5.10155 -1.1198 0
M  V30 4040 H 357.722 2.85213 -0.910709 0
M  V30 4041 H 355.268 1.37133 -0.439388 0
M  V30 4042 H 357.221 4.03328 1.22084 0
M  V30 4043 H 355.945 2.84891 1.59702 0
M  V30 4044 H 354.604 3.64616 -0.380853 0
M  V30 4045 H 354.252 4.66758 1.87472 0
M  V30 4046 H 353.952 5.84785 0.574485 0
M  V30 4047 H 355.476 5.9178 1.50428 0
M  V30 4048 H 356.89 5.68307 -0.75499 0
M  V30 4049 H 355.287 5.80073 -1.53738 0
M  V30 4050 H 356.357 4.44504 -1.93764 0
M  V30 4051 N 357.7 0.491464 1.49741 0
M  V30 4052 C 358.949 -0.0582189 2.01616 0
M  V30 4053 C 359.262 -1.38927 1.3769 0
M  V30 4054 O 360.468 -2.02509 1.80838 0
M  V30 4055 C 358.924 -0.154235 3.59569 0
M  V30 4056 C 358.532 1.1696 4.32463 0
M  V30 4057 C 360.276 -0.65479 4.1942 0
M  V30 4058 C 358.183 1.03627 5.8225 0
M  V30 4059 H 357.113 -0.0255317 0.753568 0
M  V30 4060 H 359.764 0.629445 1.72367 0
M  V30 4061 H 358.146 -0.906138 3.85493 0
M  V30 4062 H 359.32 1.93405 4.18248 0
M  V30 4063 H 357.635 1.60285 3.84315 0
M  V30 4064 H 360.232 -0.771903 5.29099 0
M  V30 4065 H 360.575 -1.65127 3.8215 0
M  V30 4066 H 361.108 0.040304 3.9778 0
M  V30 4067 H 357.847 2.00672 6.24028 0
M  V30 4068 H 357.367 0.312546 5.98985 0
M  V30 4069 H 359.046 0.711114 6.4308 0
M  V30 4070 N 359.178 -1.55987 0.224894 0
M  V30 4071 C 360.141 -2.19178 -0.670348 0
M  V30 4072 C 361.141 -1.15461 -1.11917 0
M  V30 4073 O 362.331 -1.40675 -1.02743 0
M  V30 4074 C 359.463 -2.81777 -1.9187 0
M  V30 4075 H 360.656 -2.99662 -0.119364 0
M  V30 4076 H 358.209 -1.5628 -0.0247128 0
M  V30 4077 H 358.944 -2.05172 -2.51147 0
M  V30 4078 H 358.729 -3.57732 -1.60531 0
M  V30 4079 H 360.219 -3.30205 -2.55645 0
M  V30 4080 N 360.656 0.0484629 -1.57525 0
M  V30 4081 C 361.586 1.0549 -2.08313 0
M  V30 4082 C 362.567 1.38929 -0.981463 0
M  V30 4083 O 363.752 1.48151 -1.25558 0
M  V30 4084 C 360.882 2.36162 -2.54646 0
M  V30 4085 C 359.836 2.17016 -3.68901 0
M  V30 4086 C 359.162 3.53278 -4.01371 0
M  V30 4087 C 360.462 1.57219 -4.98076 0
M  V30 4088 H 362.156 0.632195 -2.92649 0
M  V30 4089 H 359.702 0.302654 -1.40784 0
M  V30 4090 H 361.655 3.06882 -2.88793 0
M  V30 4091 H 360.379 2.80456 -1.67368 0
M  V30 4092 H 359.038 1.48733 -3.35073 0
M  V30 4093 H 358.686 3.95185 -3.11188 0
M  V30 4094 H 358.386 3.41299 -4.78318 0
M  V30 4095 H 359.91 4.25391 -4.38035 0
M  V30 4096 H 361.324 2.17832 -5.30304 0
M  V30 4097 H 359.721 1.55871 -5.79503 0
M  V30 4098 H 360.791 0.535956 -4.81929 0
M  V30 4099 N 362.134 1.5431 0.320358 0
M  V30 4100 C 363.381 1.72668 1.05792 0
M  V30 4101 C 363.709 0.502084 1.87908 0
M  V30 4102 O 362.964 -0.516149 1.88771 0
M  V30 4103 C 363.263 2.95639 2.00828 0
M  V30 4104 C 362.929 4.30265 1.34843 0
M  V30 4105 C 361.591 4.66865 1.16578 0
M  V30 4106 C 363.943 5.13801 0.875095 0
M  V30 4107 C 361.271 5.84597 0.496336 0
M  V30 4108 C 363.623 6.32219 0.219463 0
M  V30 4109 C 362.287 6.67495 0.0246915 0
M  V30 4110 H 361.557 0.631837 0.387121 0
M  V30 4111 H 364.204 1.88552 0.334735 0
M  V30 4112 H 362.509 2.74456 2.79609 0
M  V30 4113 H 364.206 3.07038 2.57932 0
M  V30 4114 H 360.796 4.01472 1.50061 0
M  V30 4115 H 364.98 4.86039 1.00398 0
M  V30 4116 H 360.236 6.10486 0.334264 0
M  V30 4117 H 364.41 6.96227 -0.155291 0
M  V30 4118 H 362.037 7.5858 -0.496065 0
M  V30 4119 N 363.613 -0.582584 1.46437 0
M  V30 4120 C 364.841 -1.36682 1.55324 0
M  V30 4121 C 365.256 -1.87796 0.194409 0
M  V30 4122 O 364.613 -1.63623 -0.808318 0
M  V30 4123 C 364.664 -2.55426 2.55812 0
M  V30 4124 O 364.385 -2.0643 3.86417 0
M  V30 4125 C 365.886 -3.47976 2.74641 0
M  V30 4126 H 363.106 -0.417545 0.525259 0
M  V30 4127 H 365.65 -0.708219 1.91845 0
M  V30 4128 H 363.805 -3.17275 2.22295 0
M  V30 4129 H 364.219 -2.83762 4.41111 0
M  V30 4130 H 365.693 -4.27775 3.48874 0
M  V30 4131 H 366.17 -3.99919 1.81553 0
M  V30 4132 H 366.776 -2.91962 3.09255 0
M  V30 4133 N 365.091 -1.34144 -0.827227 0
M  V30 4134 C 366.039 -1.25364 -1.95925 0
M  V30 4135 C 367.033 -0.152608 -1.68711 0
M  V30 4136 O 368.239 -0.317311 -1.77181 0
M  V30 4137 H 364.614 -0.389342 -0.643364 0
M  V30 4138 H 366.585 -2.21045 -2.00454 0
M  V30 4139 C 365.334 -1.02158 -3.32354 0
M  V30 4140 H 364.657 -1.86111 -3.5384 0
M  V30 4141 H 366.097 -1.00048 -4.12027 0
M  V30 4142 C 364.556 0.275244 -3.35774 0
M  V30 4143 O 365.086 1.27806 -3.80826 0
M  V30 4144 N 363.292 0.306853 -2.88975 0
M  V30 4145 H 362.839 -0.509777 -2.52506 0
M  V30 4146 H 362.797 1.17432 -2.91646 0
M  V30 4147 N 366.569 1.04691 -1.17803 0
M  V30 4148 C 367.816 1.77782 -0.969532 0
M  V30 4149 C 368.144 1.87926 0.501401 0
M  V30 4150 O 367.399 1.37918 1.38842 0
M  V30 4151 C 367.698 3.21467 -1.56186 0
M  V30 4152 C 367.364 3.3137 -3.05786 0
M  V30 4153 C 366.026 3.3378 -3.46619 0
M  V30 4154 C 368.378 3.31976 -4.01797 0
M  V30 4155 C 365.706 3.34431 -4.82051 0
M  V30 4156 C 368.058 3.34167 -5.37136 0
M  V30 4157 C 366.722 3.34866 -5.77426 0
M  V30 4158 H 365.992 0.650549 -0.354777 0
M  V30 4159 H 368.639 1.23006 -1.46772 0
M  V30 4160 H 366.944 3.79203 -0.985515 0
M  V30 4161 H 368.641 3.76652 -1.37602 0
M  V30 4162 H 365.231 3.3021 -2.73238 0
M  V30 4163 H 369.415 3.29311 -3.71306 0
M  V30 4164 H 364.671 3.33285 -5.12573 0
M  V30 4165 H 368.845 3.33585 -6.11305 0
M  V30 4166 H 366.472 3.35124 -6.82346 0
M  V30 4167 N 368.047 0.979072 1.23499 0
M  V30 4168 C 369.277 0.664237 1.95631 0
M  V30 4169 C 369.685 -0.772653 1.72704 0
M  V30 4170 O 369.028 -1.53141 1.01457 0
M  V30 4171 C 369.09 0.873115 3.48736 0
M  V30 4172 C 368.754 2.29182 3.95379 0
M  V30 4173 C 369.751 3.2704 4.04155 0
M  V30 4174 C 367.436 2.62256 4.28401 0
M  V30 4175 C 369.43 4.56052 4.45304 0
M  V30 4176 C 367.117 3.91491 4.69231 0
M  V30 4177 C 368.115 4.88201 4.77649 0
M  V30 4178 O 367.803 6.15129 5.17563 0
M  V30 4179 H 367.535 0.245915 0.629684 0
M  V30 4180 H 370.089 1.3127 1.57979 0
M  V30 4181 H 368.319 0.167476 3.86337 0
M  V30 4182 H 370.008 0.555642 4.02079 0
M  V30 4183 H 370.774 3.02819 3.78848 0
M  V30 4184 H 366.653 1.87692 4.21061 0
M  V30 4185 H 370.197 5.31538 4.51789 0
M  V30 4186 H 366.094 4.15508 4.93987 0
M  V30 4187 H 366.862 6.18862 5.35679 0
M  V30 4188 N 369.525 -1.3858 0.750561 0
M  V30 4189 C 370.774 -1.99424 0.302172 0
M  V30 4190 C 371.087 -1.60254 -1.12152 0
M  V30 4191 O 372.293 -2.14046 -1.67023 0
M  V30 4192 C 370.749 -3.56558 0.489307 0
M  V30 4193 C 370.357 -4.04682 1.92189 0
M  V30 4194 C 372.101 -4.24374 0.103478 0
M  V30 4195 C 370.008 -5.54446 2.05775 0
M  V30 4196 H 368.938 -0.746046 0.10923 0
M  V30 4197 H 371.589 -1.58383 0.92667 0
M  V30 4198 H 369.971 -3.95472 -0.204329 0
M  V30 4199 H 371.145 -3.77065 2.64875 0
M  V30 4200 H 369.46 -3.4958 2.26236 0
M  V30 4201 H 372.057 -5.34384 0.183787 0
M  V30 4202 H 372.4 -4.05468 -0.943481 0
M  V30 4203 H 372.933 -3.90688 0.748854 0
M  V30 4204 H 369.672 -5.78252 3.08714 0
M  V30 4205 H 369.192 -5.83816 1.37546 0
M  V30 4206 H 370.871 -6.20099 1.84626 0
M  V30 4207 N 371.003 -0.499398 -1.49478 0
M  V30 4208 C 371.935 0.316575 -2.27003 0
M  V30 4209 C 372.948 0.932047 -1.33479 0
M  V30 4210 O 374.137 0.815658 -1.58774 0
M  V30 4211 C 371.237 1.46055 -3.05812 0
M  V30 4212 C 370.41 0.952679 -4.26899 0
M  V30 4213 C 369.469 1.97407 -4.87767 0
M  V30 4214 O 368.495 1.54326 -5.4788 0
M  V30 4215 N 369.697 3.30436 -4.77276 0
M  V30 4216 H 372.462 -0.348168 -2.97671 0
M  V30 4217 H 370.023 -0.33185 -1.58463 0
M  V30 4218 H 372.015 2.14135 -3.43407 0
M  V30 4219 H 370.585 2.02948 -2.37762 0
M  V30 4220 H 369.805 0.0968248 -3.94081 0
M  V30 4221 H 371.093 0.59174 -5.05347 0
M  V30 4222 H 370.491 3.68126 -4.29534 0
M  V30 4223 H 369.048 3.94235 -5.19059 0
M  V30 4224 N 372.481 1.55866 -0.233164 0
M  V30 4225 C 373.709 2.02998 0.399905 0
M  V30 4226 C 374.124 1.11274 1.52524 0
M  V30 4227 O 373.481 0.124528 1.82075 0
M  V30 4228 C 373.532 3.4958 0.920639 0
M  V30 4229 O 373.253 4.37808 -0.159834 0
M  V30 4230 C 374.754 4.12411 1.62578 0
M  V30 4231 H 371.974 0.664006 0.0966281 0
M  V30 4232 H 374.518 2.0143 -0.353013 0
M  V30 4233 H 372.673 3.51727 1.62379 0
M  V30 4234 H 373.087 5.23981 0.23337 0
M  V30 4235 H 374.561 5.16711 1.94201 0
M  V30 4236 H 375.038 3.5809 2.54299 0
M  V30 4237 H 375.644 4.14148 0.967553 0
M  V30 4238 N 373.959 -0.0401083 1.57549 0
M  V30 4239 C 375.189 -0.744115 1.92734 0
M  V30 4240 C 375.597 -1.70005 0.830348 0
M  V30 4241 O 374.94 -1.82576 -0.20286 0
M  V30 4242 C 375.002 -1.56516 3.2364 0
M  V30 4243 C 374.666 -0.7752 4.50377 0
M  V30 4244 C 375.663 -0.0803326 5.19838 0
M  V30 4245 C 373.348 -0.733002 4.96923 0
M  V30 4246 C 375.342 0.646154 6.34116 0
M  V30 4247 C 373.029 -0.00276321 6.111 0
M  V30 4248 C 374.027 0.685585 6.7955 0
M  V30 4249 O 373.715 1.40399 7.91545 0
M  V30 4250 H 373.447 -0.214861 0.640945 0
M  V30 4251 H 376.001 -0.00503675 2.05399 0
M  V30 4252 H 374.231 -2.3478 3.07271 0
M  V30 4253 H 375.92 -2.15076 3.44234 0
M  V30 4254 H 376.686 -0.104035 4.84888 0
M  V30 4255 H 372.565 -1.25827 4.43496 0
M  V30 4256 H 376.109 1.18398 6.87479 0
M  V30 4257 H 372.006 0.0229012 6.45496 0
M  V30 4258 H 372.774 1.31653 8.07843 0
M  V30 4259 N 375.437 -1.54477 -0.31217 0
M  V30 4260 C 376.385 -1.85395 -1.40469 0
M  V30 4261 C 377.379 -0.726749 -1.53019 0
M  V30 4262 O 378.585 -0.910582 -1.55269 0
M  V30 4263 H 374.96 -0.587845 -0.46898 0
M  V30 4264 H 376.931 -2.76736 -1.11623 0
M  V30 4265 C 375.68 -2.10811 -2.76503 0
M  V30 4266 H 375.003 -2.97014 -2.67625 0
M  V30 4267 H 376.443 -2.3639 -3.51988 0
M  V30 4268 C 374.902 -0.903165 -3.24568 0
M  V30 4269 O 375.432 -0.118085 -4.01526 0
M  V30 4270 N 373.638 -0.711634 -2.81752 0
M  V30 4271 H 373.185 -1.35171 -2.19286 0
M  V30 4272 H 373.143 0.0930473 -3.14262 0
M  V30 4273 N 376.915 0.57481 -1.46744 0
M  V30 4274 C 377.862 1.68329 -1.57905 0
M  V30 4275 C 378.832 1.60625 -0.422927 0
M  V30 4276 O 380.017 1.79721 -0.640711 0
M  V30 4277 C 377.157 3.06665 -1.58274 0
M  V30 4278 C 376.27 3.24935 -2.84678 0
M  V30 4279 C 375.405 4.53566 -2.76499 0
M  V30 4280 C 374.444 4.65207 -3.97806 0
M  V30 4281 N 373.581 5.85172 -3.87967 0
M  V30 4282 H 378.421 1.58127 -2.52587 0
M  V30 4283 H 375.958 0.770552 -1.25303 0
M  V30 4284 H 377.916 3.86745 -1.56473 0
M  V30 4285 H 376.546 3.15745 -0.671194 0
M  V30 4286 H 375.598 2.38405 -2.96424 0
M  V30 4287 H 376.91 3.29403 -3.7456 0
M  V30 4288 H 376.064 5.41885 -2.72848 0
M  V30 4289 H 374.803 4.51548 -1.8427 0
M  V30 4290 H 373.808 3.75304 -4.0178 0
M  V30 4291 H 375.033 4.68997 -4.9114 0
M  V30 4292 H 372.979 5.84137 -2.98529 0
M  V30 4293 H 372.896 5.90943 -4.71511 0
M  V30 4294 H 374.164 6.759 -3.88303 0
M  V30 4295 N 378.394 1.34581 0.820102 0
M  V30 4296 C 379.341 1.2639 1.93117 0
M  V30 4297 C 380.311 0.138554 1.65521 0
M  V30 4298 O 381.496 0.320004 1.88097 0
M  V30 4299 C 378.636 1.02812 3.29429 0
M  V30 4300 C 377.749 2.24146 3.693 0
M  V30 4301 C 376.884 1.93829 4.94574 0
M  V30 4302 C 375.923 3.1129 5.27034 0
M  V30 4303 N 375.06 2.80838 6.43486 0
M  V30 4304 H 379.9 2.21408 1.99455 0
M  V30 4305 H 377.437 1.10077 0.975784 0
M  V30 4306 H 379.395 0.871788 4.0799 0
M  V30 4307 H 378.025 0.114612 3.22596 0
M  V30 4308 H 377.077 2.50691 2.86109 0
M  V30 4309 H 378.389 3.11899 3.89257 0
M  V30 4310 H 377.543 1.74948 5.80929 0
M  V30 4311 H 376.282 1.03341 4.76626 0
M  V30 4312 H 375.287 3.30764 4.39175 0
M  V30 4313 H 376.512 4.02561 5.4692 0
M  V30 4314 H 374.458 1.92929 6.26988 0
M  V30 4315 H 374.375 3.62123 6.63629 0
M  V30 4316 H 375.643 2.65467 7.32903 0
M  V30 4317 N 379.872 -1.04064 1.18357 0
M  V30 4318 C 381.12 -1.76915 0.977013 0
M  V30 4319 C 381.441 -1.88624 -0.494577 0
M  V30 4320 O 380.711 -1.41125 -1.3587 0
M  V30 4321 H 379.291 -0.65535 0.358504 0
M  V30 4322 H 381.953 -1.25592 1.49039 0
M  V30 4323 H 381.049 -2.78178 1.41504 0
M  V30 4324 N 381.35 -0.985608 -1.22978 0
M  V30 4325 C 382.313 -0.535071 -2.22867 0
M  V30 4326 C 383.313 0.378123 -1.56291 0
M  V30 4327 O 384.503 0.171092 -1.73358 0
M  V30 4328 C 381.635 0.222702 -3.40172 0
M  V30 4329 H 382.828 -1.41835 -2.6424 0
M  V30 4330 H 380.381 -0.772042 -1.35901 0
M  V30 4331 H 381.116 1.12229 -3.04262 0
M  V30 4332 H 380.901 -0.43288 -3.89703 0
M  V30 4333 H 382.391 0.526335 -4.1427 0
M  V30 4334 N 382.828 1.3818 -0.7579 0
M  V30 4335 C 384.053 2.04827 -0.325679 0
M  V30 4336 C 384.478 1.56788 1.03919 0
M  V30 4337 O 383.836 0.721811 1.66312 0
M  V30 4338 C 383.884 3.58774 -0.362447 0
M  V30 4339 O 382.988 4.07372 0.642033 0
M  V30 4340 H 382.329 0.64833 -0.143402 0
M  V30 4341 H 384.859 1.7677 -1.03023 0
M  V30 4342 H 384.869 4.07434 -0.214844 0
M  V30 4343 H 383.544 3.93096 -1.35824 0
M  V30 4344 H 382.121 3.70068 0.458688 0
M  V30 4345 N 384.306 0.507319 1.49211 0
M  V30 4346 C 385.722 0.163682 1.58758 0
M  V30 4347 C 385.922 -1.33208 1.51188 0
M  V30 4348 O 384.978 -2.10855 1.38911 0
M  V30 4349 C 386.291 0.746095 2.91297 0
M  V30 4350 C 387.839 0.712773 3.04776 0
M  V30 4351 C 388.314 1.27336 4.39943 0
M  V30 4352 N 389.805 1.23433 4.46451 0
M  V30 4353 C 390.54 1.63821 5.495 0
M  V30 4354 N 390.036 2.11832 6.5962 0
M  V30 4355 N 391.829 1.55198 5.4025 0
M  V30 4356 H 383.98 1.47972 1.52375 0
M  V30 4357 H 386.243 0.614147 0.722168 0
M  V30 4358 H 385.949 1.79534 3.02424 0
M  V30 4359 H 385.823 0.210137 3.76614 0
M  V30 4360 H 388.21 -0.327656 2.93275 0
M  V30 4361 H 388.291 1.28595 2.21127 0
M  V30 4362 H 387.935 2.3126 4.52196 0
M  V30 4363 H 387.865 0.676066 5.22242 0
M  V30 4364 H 390.356 0.882627 3.67448 0
M  V30 4365 H 390.669 2.40703 7.34358 0
M  V30 4366 H 389.014 2.1581 6.60644 0
M  V30 4367 H 392.205 1.17505 4.53112 0
M  V30 4368 H 392.378 1.86997 6.20432 0
M  V30 4369 N 385.784 -1.5574 0.241426 0
M  V30 4370 C 387.2 -1.59196 -0.113548 0
M  V30 4371 C 387.4 -1.25852 -1.57364 0
M  V30 4372 O 386.456 -1.00322 -2.31715 0
M  V30 4373 C 387.769 -2.99814 0.230695 0
M  V30 4374 C 389.317 -3.12513 0.174547 0
M  V30 4375 C 389.792 -4.55342 0.492744 0
M  V30 4376 N 391.283 -4.61076 0.443043 0
M  V30 4377 C 392.018 -5.6956 0.662484 0
M  V30 4378 N 391.514 -6.86328 0.944761 0
M  V30 4379 N 393.307 -5.58957 0.593564 0
M  V30 4380 H 385.458 -1.75685 1.19368 0
M  V30 4381 H 387.721 -0.81756 0.479896 0
M  V30 4382 H 387.427 -3.28932 1.24485 0
M  V30 4383 H 387.301 -3.74568 -0.444833 0
M  V30 4384 H 389.688 -2.83179 -0.830277 0
M  V30 4385 H 389.769 -2.40045 0.883845 0
M  V30 4386 H 389.413 -4.85396 1.4951 0
M  V30 4387 H 389.343 -5.26062 -0.23797 0
M  V30 4388 H 391.834 -3.77179 0.233374 0
M  V30 4389 H 392.147 -7.64935 1.09977 0
M  V30 4390 H 390.492 -6.88025 0.982175 0
M  V30 4391 H 393.683 -4.66611 0.373123 0
M  V30 4392 H 393.856 -6.43433 0.767981 0
M  V30 4393 N 387.262 0.0317525 -1.57568 0
M  V30 4394 C 388.209 1.0332 -2.06382 0
M  V30 4395 C 389.179 1.36082 -0.952414 0
M  V30 4396 O 390.364 1.46466 -1.2228 0
M  V30 4397 C 387.504 2.32989 -2.54578 0
M  V30 4398 C 386.617 2.0641 -3.79498 0
M  V30 4399 C 385.752 3.2993 -4.16317 0
M  V30 4400 C 384.791 2.98893 -5.34162 0
M  V30 4401 N 383.928 4.14857 -5.66426 0
M  V30 4402 H 388.768 0.609982 -2.9169 0
M  V30 4403 H 386.305 0.289573 -1.44222 0
M  V30 4404 H 388.263 3.0875 -2.80587 0
M  V30 4405 H 386.893 2.73039 -1.7219 0
M  V30 4406 H 385.945 1.21158 -3.6059 0
M  V30 4407 H 387.257 1.79513 -4.65378 0
M  V30 4408 H 386.411 4.1406 -4.4344 0
M  V30 4409 H 385.15 3.59938 -3.29083 0
M  V30 4410 H 384.155 2.13164 -5.06795 0
M  V30 4411 H 385.38 2.70165 -6.23047 0
M  V30 4412 H 383.326 4.44821 -4.82151 0
M  V30 4413 H 383.243 3.91374 -6.4681 0
M  V30 4414 H 384.511 4.99868 -5.98124 0
M  V30 4415 N 388.74 1.54641 0.303973 0
M  V30 4416 C 390.017 1.64455 1.05896 0
M  V30 4417 C 390.397 0.490923 2.05312 0
M  V30 4418 O 389.745 -0.512685 2.22674 0
M  V30 4419 C 389.955 3.02331 1.74347 0
M  V30 4420 C 391.303 3.59045 2.26653 0
M  V30 4421 O 392.327 3.04764 1.84384 0
M  V30 4422 O 391.186 4.54081 3.04093 0
M  V30 4423 H 388.28 0.666729 0.489287 0
M  V30 4424 H 390.826 1.66986 0.302298 0
M  V30 4425 H 389.598 3.77734 1.02142 0
M  V30 4426 H 389.221 3.03565 2.56777 0
M  V30 4427 N 390.218 -0.567019 1.47046 0
M  V30 4428 C 391.168 -1.67018 1.55207 0
M  V30 4429 C 392.152 -1.55543 0.411714 0
M  V30 4430 O 393.344 -1.64192 0.661064 0
M  V30 4431 C 390.473 -3.05801 1.56014 0
M  V30 4432 C 389.559 -3.22515 2.75399 0
M  V30 4433 N 389.95 -3.09329 4.00186 0
M  V30 4434 C 388.248 -3.53493 2.71954 0
M  V30 4435 C 388.949 -3.2847 4.80086 0
M  V30 4436 N 387.925 -3.54352 4.12233 0
M  V30 4437 H 391.727 -1.55377 2.4947 0
M  V30 4438 H 389.241 -0.771503 1.42904 0
M  V30 4439 H 391.238 -3.84996 1.59949 0
M  V30 4440 H 389.898 -3.18561 0.628396 0
M  V30 4441 H 390.909 -2.86863 4.31196 0
M  V30 4442 H 387.586 -3.7284 1.87873 0
M  V30 4443 H 388.976 -3.23326 5.88991 0
M  V30 4444 N 391.696 -1.35014 -0.812953 0
M  V30 4445 C 392.626 -1.30069 -1.93919 0
M  V30 4446 C 393.607 -0.176275 -1.69184 0
M  V30 4447 O 394.792 -0.370227 -1.90638 0
M  V30 4448 C 391.922 -1.06547 -3.30552 0
M  V30 4449 C 390.876 -2.15561 -3.69753 0
M  V30 4450 C 390.202 -1.77214 -5.04479 0
M  V30 4451 C 391.502 -3.57476 -3.808 0
M  V30 4452 H 393.196 -2.24303 -1.98314 0
M  V30 4453 H 390.742 -1.07977 -0.952736 0
M  V30 4454 H 392.695 -1.01729 -4.08937 0
M  V30 4455 H 391.419 -0.0875719 -3.26483 0
M  V30 4456 H 390.078 -2.19466 -2.9365 0
M  V30 4457 H 389.726 -0.780589 -4.96906 0
M  V30 4458 H 389.426 -2.50184 -5.31678 0
M  V30 4459 H 390.95 -1.7391 -5.8531 0
M  V30 4460 H 392.364 -3.55929 -4.4943 0
M  V30 4461 H 390.761 -4.29152 -4.19462 0
M  V30 4462 H 391.831 -3.94091 -2.82525 0
M  V30 4463 N 393.175 1.03435 -1.18907 0
M  V30 4464 C 394.122 2.11591 -0.921837 0
M  V30 4465 C 395.092 1.65499 0.141226 0
M  V30 4466 O 396.277 1.908 0.000242829 0
M  V30 4467 C 393.417 3.42012 -0.460616 0
M  V30 4468 C 392.53 4.01682 -1.58982 0
M  V30 4469 C 391.665 5.20091 -1.08069 0
M  V30 4470 C 390.704 5.71805 -2.18416 0
M  V30 4471 N 389.841 6.81494 -1.68849 0
M  V30 4472 H 394.681 2.33787 -1.8479 0
M  V30 4473 H 392.218 1.1467 -0.921373 0
M  V30 4474 H 394.176 4.16834 -0.174642 0
M  V30 4475 H 392.806 3.19944 0.428467 0
M  V30 4476 H 391.858 3.24127 -1.99113 0
M  V30 4477 H 393.17 4.36084 -2.4214 0
M  V30 4478 H 392.324 6.02051 -0.749615 0
M  V30 4479 H 391.063 4.87209 -0.218771 0
M  V30 4480 H 390.068 4.88461 -2.5236 0
M  V30 4481 H 391.293 6.06728 -3.05054 0
M  V30 4482 H 389.239 6.50475 -0.849572 0
M  V30 4483 H 389.156 7.14994 -2.45601 0
M  V30 4484 H 390.424 7.67063 -1.38689 0
M  V30 4485 N 394.653 0.992116 1.22453 0
M  V30 4486 C 395.93 0.583508 1.86694 0
M  V30 4487 C 396.31 -0.9392 1.89056 0
M  V30 4488 O 395.658 -1.82081 1.38053 0
M  V30 4489 C 395.868 1.20304 3.2761 0
M  V30 4490 C 397.216 1.30308 4.0411 0
M  V30 4491 O 398.24 1.15737 3.36873 0
M  V30 4492 O 397.099 1.53615 5.24466 0
M  V30 4493 H 394.193 0.198129 0.802916 0
M  V30 4494 H 396.739 1.08794 1.30238 0
M  V30 4495 H 395.511 2.24461 3.2052 0
M  V30 4496 H 395.134 0.684144 3.9167 0
M  V30 4497 N 396.131 -1.37776 0.765217 0
M  V30 4498 C 397.081 -2.2768 0.12075 0
M  V30 4499 C 398.065 -1.45778 -0.680988 0
M  V30 4500 O 399.257 -1.684 -0.545033 0
M  V30 4501 C 396.386 -3.34722 -0.762626 0
M  V30 4502 C 395.472 -4.24074 0.0465881 0
M  V30 4503 N 395.863 -4.93939 1.08892 0
M  V30 4504 C 394.161 -4.45643 -0.178418 0
M  V30 4505 C 394.862 -5.59845 1.57951 0
M  V30 4506 N 393.838 -5.36218 0.892797 0
M  V30 4507 H 397.64 -2.79166 0.918889 0
M  V30 4508 H 395.154 -1.50816 0.602353 0
M  V30 4509 H 397.151 -3.98031 -1.24005 0
M  V30 4510 H 395.811 -2.84793 -1.55959 0
M  V30 4511 H 396.822 -4.96572 1.47095 0
M  V30 4512 H 393.499 -4.06599 -0.9478 0
M  V30 4513 H 394.889 -6.25703 2.44838 0
M  V30 4514 N 397.609 -0.515225 -1.4894 0
M  V30 4515 C 398.541 0.292481 -2.27326 0
M  V30 4516 C 399.554 0.917838 -1.3446 0
M  V30 4517 O 400.743 0.798772 -1.5963 0
M  V30 4518 C 397.843 1.42803 -3.07344 0
M  V30 4519 C 397.016 0.907347 -4.27885 0
M  V30 4520 C 396.075 1.92222 -4.89834 0
M  V30 4521 O 395.101 1.48506 -5.49486 0
M  V30 4522 N 396.303 3.25355 -4.80754 0
M  V30 4523 H 399.068 -0.379721 -2.97285 0
M  V30 4524 H 396.629 -0.348638 -1.58102 0
M  V30 4525 H 398.621 2.10481 -3.45658 0
M  V30 4526 H 397.191 2.00414 -2.39902 0
M  V30 4527 H 396.411 0.0550218 -3.94162 0
M  V30 4528 H 397.699 0.538108 -5.05946 0
M  V30 4529 H 397.097 3.6355 -4.33414 0
M  V30 4530 H 395.654 3.88707 -5.23211 0
M  V30 4531 N 399.087 1.5561 -0.249682 0
M  V30 4532 C 400.035 2.22894 0.664906 0
M  V30 4533 C 401.029 1.21743 1.17792 0
M  V30 4534 O 402.235 1.39748 1.13449 0
M  V30 4535 H 398.61 0.715022 0.232912 0
M  V30 4536 H 400.581 2.98307 0.0742998 0
M  V30 4537 C 399.33 2.94424 1.84959 0
M  V30 4538 H 398.653 3.72031 1.46399 0
M  V30 4539 H 400.093 3.44862 2.4667 0
M  V30 4540 C 398.552 1.98454 2.72245 0
M  V30 4541 O 399.082 1.51939 3.71857 0
M  V30 4542 N 397.288 1.65496 2.38871 0
M  V30 4543 H 396.835 2.03517 1.57919 0
M  V30 4544 H 396.793 1.0155 2.97548 0
M  V30 4545 N 400.565 -0.0233959 1.57583 0
M  V30 4546 C 401.813 -0.711654 1.89156 0
M  V30 4547 C 402.134 -1.75591 0.848096 0
M  V30 4548 O 401.404 -1.95547 -0.117566 0
M  V30 4549 H 399.984 -0.265835 0.698098 0
M  V30 4550 H 402.646 0.0119948 1.94896 0
M  V30 4551 H 401.742 -1.19766 2.88206 0
M  V30 4552 N 402.043 -1.548 -0.295768 0
M  V30 4553 C 403.268 -1.78653 -1.05346 0
M  V30 4554 C 403.693 -0.546894 -1.79974 0
M  V30 4555 O 403.051 0.502763 -1.7419 0
M  V30 4556 C 403.099 -2.99679 -2.00561 0
M  V30 4557 O 402.203 -2.7317 -3.08953 0
M  V30 4558 H 401.544 -0.59116 -0.302367 0
M  V30 4559 H 404.074 -2.01895 -0.331598 0
M  V30 4560 H 404.084 -3.27793 -2.42932 0
M  V30 4561 H 402.759 -3.89562 -1.4565 0
M  V30 4562 H 401.336 -2.56089 -2.71059 0
M  V30 4563 N 403.521 0.559213 -1.47345 0
M  V30 4564 C 404.454 1.68201 -1.5422 0
M  V30 4565 C 405.432 1.57742 -0.394497 0
M  V30 4566 O 406.616 1.78628 -0.60201 0
M  V30 4567 C 403.743 3.0643 -1.44285 0
M  V30 4568 C 402.789 3.3534 -2.63532 0
M  V30 4569 S 403.622 3.24816 -4.25741 0
M  V30 4570 C 404.778 4.65542 -4.18355 0
M  V30 4571 H 405.011 1.62114 -2.49211 0
M  V30 4572 H 402.544 0.739871 -1.35519 0
M  V30 4573 H 404.502 3.86164 -1.3924 0
M  V30 4574 H 403.163 3.09984 -0.506816 0
M  V30 4575 H 402.356 4.36107 -2.52639 0
M  V30 4576 H 401.958 2.63221 -2.65689 0
M  V30 4577 H 404.25 5.56449 -3.86485 0
M  V30 4578 H 405.193 4.81493 -5.19202 0
M  V30 4579 H 405.601 4.43495 -3.49246 0
M  V30 4580 N 404.999 1.35443 0.805782 0
M  V30 4581 C 405.962 1.28301 1.89925 0
M  V30 4582 C 406.962 0.194285 1.59622 0
M  V30 4583 O 408.152 0.448036 1.6834 0
M  V30 4584 C 405.284 0.984997 3.2636 0
M  V30 4585 H 406.477 2.2553 1.97677 0
M  V30 4586 H 404.03 1.19979 1.00173 0
M  V30 4587 H 404.765 0.016603 3.24296 0
M  V30 4588 H 404.55 1.77269 3.4974 0
M  V30 4589 H 406.04 0.960651 4.064 0
M  V30 4590 N 406.477 -1.02803 1.19454 0
M  V30 4591 C 407.44 -2.09264 0.934955 0
M  V30 4592 C 408.44 -1.60576 -0.0849015 0
M  V30 4593 O 409.63 -1.73554 0.149933 0
M  V30 4594 C 406.762 -3.38482 0.40531 0
M  V30 4595 H 407.955 -2.33726 1.87916 0
M  V30 4596 H 405.508 -1.19426 1.00832 0
M  V30 4597 H 406.243 -3.19689 -0.544899 0
M  V30 4598 H 406.028 -3.75142 1.14065 0
M  V30 4599 H 407.518 -4.16894 0.242806 0
M  V30 4600 N 407.956 -0.998596 -1.21925 0
M  V30 4601 C 409.202 -0.678667 -1.91107 0
M  V30 4602 C 409.535 0.78791 -1.77498 0
M  V30 4603 O 408.81 1.57043 -1.1475 0
M  V30 4604 C 409.093 -1.09245 -3.43129 0
M  V30 4605 C 408.946 -2.61801 -3.6576 0
M  V30 4606 C 410.265 -0.649984 -4.35274 0
M  V30 4607 H 407.384 -0.248025 -0.694012 0
M  V30 4608 H 410.026 -1.24314 -1.43688 0
M  V30 4609 H 408.176 -0.612171 -3.83647 0
M  V30 4610 H 409.848 -3.17543 -3.34611 0
M  V30 4611 H 408.091 -3.03609 -3.09845 0
M  V30 4612 H 408.762 -2.85804 -4.7225 0
M  V30 4613 H 411.238 -1.0626 -4.02303 0
M  V30 4614 H 410.114 -0.967743 -5.40302 0
M  V30 4615 H 410.375 0.449139 -4.39813 0
M  V30 4616 N 409.434 1.37368 -0.772513 0
M  V30 4617 C 410.382 2.32134 -0.147111 0
M  V30 4618 C 411.376 1.54972 0.684106 0
M  V30 4619 O 412.582 1.70363 0.581083 0
M  V30 4620 H 408.957 0.751449 -0.028786 0
M  V30 4621 H 410.928 2.82464 -0.962112 0
M  V30 4622 C 409.677 3.40226 0.71703 0
M  V30 4623 H 409 3.99706 0.0867951 0
M  V30 4624 H 410.44 4.08897 1.12159 0
M  V30 4625 C 408.899 2.80372 1.86797 0
M  V30 4626 O 409.429 2.71183 2.96349 0
M  V30 4627 N 407.635 2.37904 1.66883 0
M  V30 4628 H 407.182 2.45578 0.777759 0
M  V30 4629 H 407.14 1.98202 2.44056 0
M  V30 4630 N 410.912 0.523116 1.48665 0
M  V30 4631 C 412.16 -0.0134497 2.02096 0
M  V30 4632 C 412.481 -1.35418 1.40311 0
M  V30 4633 O 411.751 -1.87543 0.566074 0
M  V30 4634 H 410.331 -0.00795915 0.746958 0
M  V30 4635 H 412.993 0.685388 1.82451 0
M  V30 4636 H 412.089 -0.126849 3.11842 0
M  V30 4637 N 412.39 -1.55475 0.257931 0
M  V30 4638 C 413.34 -2.18506 -0.651094 0
M  V30 4639 C 414.324 -1.14431 -1.13112 0
M  V30 4640 O 415.516 -1.40305 -1.07905 0
M  V30 4641 C 412.645 -2.89653 -1.84272 0
M  V30 4642 C 411.731 -4.00996 -1.38068 0
M  V30 4643 N 412.122 -5.01816 -0.633609 0
M  V30 4644 C 410.42 -4.13753 -1.66506 0
M  V30 4645 C 411.121 -5.80371 -0.392922 0
M  V30 4646 N 410.097 -5.3505 -0.960359 0
M  V30 4647 H 413.899 -2.93811 -0.0722883 0
M  V30 4648 H 411.413 -1.62286 0.0607256 0
M  V30 4649 H 413.41 -3.33245 -2.50506 0
M  V30 4650 H 412.07 -2.15854 -2.42564 0
M  V30 4651 H 413.081 -5.17128 -0.282626 0
M  V30 4652 H 409.758 -3.51133 -2.25858 0
M  V30 4653 H 411.148 -6.7159 0.204235 0
M  V30 4654 N 413.868 0.0150385 -1.57593 0
M  V30 4655 C 415.096 0.714395 -1.94175 0
M  V30 4656 C 415.511 1.68135 -0.858841 0
M  V30 4657 O 414.868 1.81766 0.163567 0
M  V30 4658 C 414.919 1.45933 -3.30735 0
M  V30 4659 O 414.64 0.531167 -4.34868 0
M  V30 4660 C 416.141 2.25456 -3.81686 0
M  V30 4661 H 413.361 0.199923 -0.640525 0
M  V30 4662 H 415.905 -0.0316096 -2.04476 0
M  V30 4663 H 414.06 2.15709 -3.21789 0
M  V30 4664 H 414.474 1.05509 -5.13778 0
M  V30 4665 H 415.948 2.731 -4.79709 0
M  V30 4666 H 416.425 3.07485 -3.13607 0
M  V30 4667 H 417.031 1.60727 -3.9376 0
M  V30 4668 N 415.346 1.54954 0.287554 0
M  V30 4669 C 416.294 1.87606 1.37502 0
M  V30 4670 C 417.288 0.751001 1.51843 0
M  V30 4671 O 418.494 0.935169 1.53801 0
M  V30 4672 H 414.869 0.595231 0.459569 0
M  V30 4673 H 416.84 2.78477 1.07206 0
M  V30 4674 C 415.589 2.15183 2.73115 0
M  V30 4675 H 414.912 3.01234 2.62866 0
M  V30 4676 H 416.352 2.4196 3.48183 0
M  V30 4677 C 414.811 0.954686 3.2309 0
M  V30 4678 O 415.341 0.181949 4.01288 0
M  V30 4679 N 413.547 0.756368 2.80584 0
M  V30 4680 H 413.094 1.38643 2.17108 0
M  V30 4681 H 413.052 -0.0430391 3.14371 0
M  V30 4682 N 416.824 -0.551391 1.4764 0
M  V30 4683 C 418.049 -1.33837 1.58437 0
M  V30 4684 C 418.474 -1.866 0.237063 0
M  V30 4685 O 417.832 -1.6328 -0.787994 0
M  V30 4686 C 417.88 -2.48014 2.61766 0
M  V30 4687 O 416.984 -3.50419 2.1744 0
M  V30 4688 H 416.325 -0.397299 0.532024 0
M  V30 4689 H 418.855 -0.665759 1.93465 0
M  V30 4690 H 418.865 -2.94503 2.82369 0
M  V30 4691 H 417.54 -2.08969 3.5959 0
M  V30 4692 H 416.117 -3.10196 2.06961 0
M  V30 4693 N 418.302 -1.35869 -0.798587 0
M  V30 4694 C 419.549 -1.29588 -1.55606 0
M  V30 4695 C 419.877 0.127456 -1.94082 0
M  V30 4696 O 419.132 1.09461 -1.62225 0
M  V30 4697 C 419.431 -2.1556 -2.85077 0
M  V30 4698 C 419.097 -3.6424 -2.65781 0
M  V30 4699 C 417.759 -4.04766 -2.60227 0
M  V30 4700 C 420.111 -4.58547 -2.47758 0
M  V30 4701 C 417.439 -5.37753 -2.34603 0
M  V30 4702 C 419.791 -5.91742 -2.23662 0
M  V30 4703 C 418.455 -6.31402 -2.16534 0
M  V30 4704 H 417.725 -0.474197 -0.569402 0
M  V30 4705 H 420.372 -1.67839 -0.922086 0
M  V30 4706 H 418.677 -1.70216 -3.52893 0
M  V30 4707 H 420.374 -2.08031 -3.42818 0
M  V30 4708 H 416.964 -3.32086 -2.70956 0
M  V30 4709 H 421.148 -4.28117 -2.51056 0
M  V30 4710 H 416.404 -5.67474 -2.2756 0
M  V30 4711 H 420.578 -6.6439 -2.08708 0
M  V30 4712 H 418.205 -7.34381 -1.96441 0
M  V30 4713 N 419.78 1.02168 -1.19998 0
M  V30 4714 C 421.005 1.79833 -1.03319 0
M  V30 4715 C 421.43 1.83504 0.413281 0
M  V30 4716 O 420.788 1.26635 1.29743 0
M  V30 4717 C 420.836 3.22396 -1.61533 0
M  V30 4718 O 419.94 4.03555 -0.849519 0
M  V30 4719 H 419.281 0.554872 -0.364709 0
M  V30 4720 H 421.811 1.28542 -1.59179 0
M  V30 4721 H 421.821 3.73124 -1.65054 0
M  V30 4722 H 420.496 3.19039 -2.66809 0
M  V30 4723 H 419.073 3.62169 -0.888129 0
M  V30 4724 N 421.258 1.00505 1.21394 0
M  V30 4725 C 422.669 0.721082 1.72213 0
M  V30 4726 C 423.02 -0.761263 1.80829 0
M  V30 4727 O 422.145 -1.59464 1.46288 0
M  V30 4728 C 422.74 1.30228 3.12772 0
M  V30 4729 C 421.299 1.06743 3.60947 0
M  V30 4730 C 420.446 1.41507 2.38477 0
M  V30 4731 H 423.397 1.17594 1.06571 0
M  V30 4732 H 423.418 0.686955 3.74247 0
M  V30 4733 H 422.93 2.38115 3.06468 0
M  V30 4734 H 421.031 0.00572162 3.726 0
M  V30 4735 H 421.144 1.73936 4.46411 0
M  V30 4736 H 419.508 0.833852 2.40664 0
M  V30 4737 H 420.291 2.50424 2.34824 0
M  V30 4738 N 422.737 -1.36956 0.779787 0
M  V30 4739 C 423.667 -2.32761 0.185651 0
M  V30 4740 C 424.648 -1.56177 -0.673989 0
M  V30 4741 O 425.833 -1.84378 -0.609797 0
M  V30 4742 C 422.963 -3.40418 -0.687964 0
M  V30 4743 C 421.917 -4.27941 0.0710102 0
M  V30 4744 C 421.243 -5.26681 -0.922573 0
M  V30 4745 C 422.543 -5.07006 1.25467 0
M  V30 4746 H 424.237 -2.82698 0.986008 0
M  V30 4747 H 421.783 -1.3592 0.475592 0
M  V30 4748 H 423.736 -4.06423 -1.11348 0
M  V30 4749 H 422.46 -2.89025 -1.52093 0
M  V30 4750 H 421.119 -3.63478 0.47739 0
M  V30 4751 H 420.767 -4.71565 -1.7503 0
M  V30 4752 H 420.467 -5.86103 -0.419237 0
M  V30 4753 H 421.991 -5.9556 -1.34686 0
M  V30 4754 H 423.405 -5.66105 0.905401 0
M  V30 4755 H 421.802 -5.75793 1.69063 0
M  V30 4756 H 422.872 -4.3921 2.05481 0
M  V30 4757 N 424.215 -0.530993 -1.48385 0
M  V30 4758 C 425.125 0.23503 -2.3342 0
M  V30 4759 C 426.141 0.93801 -1.46552 0
M  V30 4760 O 427.317 0.912745 -1.7953 0
M  V30 4761 C 424.382 1.26778 -3.22689 0
M  V30 4762 C 423.443 0.575038 -4.25431 0
M  V30 4763 C 422.676 1.55858 -5.10435 0
M  V30 4764 O 422.899 2.79129 -4.97437 0
M  V30 4765 O 421.833 1.09742 -5.91811 0
M  V30 4766 H 425.659 -0.461794 -3.00169 0
M  V30 4767 H 423.244 -0.291903 -1.46521 0
M  V30 4768 H 425.126 1.86457 -3.77904 0
M  V30 4769 H 423.801 1.94699 -2.586 0
M  V30 4770 H 422.708 -0.0622782 -3.74048 0
M  V30 4771 H 424.041 -0.062253 -4.92161 0
M  V30 4772 N 425.693 1.55336 -0.266172 0
M  V30 4773 C 426.641 2.23587 0.641228 0
M  V30 4774 C 427.635 1.22986 1.16494 0
M  V30 4775 O 428.841 1.40943 1.1196 0
M  V30 4776 H 425.216 0.717452 0.225315 0
M  V30 4777 H 427.187 2.9837 0.0426561 0
M  V30 4778 C 425.936 2.96369 1.81826 0
M  V30 4779 H 425.259 3.73563 1.42445 0
M  V30 4780 H 426.699 3.47459 2.42998 0
M  V30 4781 C 425.158 2.0133 2.70125 0
M  V30 4782 O 425.688 1.55875 3.70224 0
M  V30 4783 N 423.894 1.6802 2.37102 0
M  V30 4784 H 423.441 2.05181 1.55751 0
M  V30 4785 H 423.399 1.047 2.96454 0
M  V30 4786 N 427.171 -0.0066808 1.57599 0
M  V30 4787 C 428.119 -1.01851 2.09115 0
M  V30 4788 C 429.113 -1.36021 1.00969 0
M  V30 4789 O 430.319 -1.34663 1.19439 0
M  V30 4790 H 426.694 -0.346083 0.667631 0
M  V30 4791 H 428.665 -0.558394 2.93129 0
M  V30 4792 C 427.414 -2.30374 2.60429 0
M  V30 4793 H 426.737 -2.04947 3.43273 0
M  V30 4794 H 428.177 -2.99466 3.00161 0
M  V30 4795 C 426.636 -3.00893 1.51542 0
M  V30 4796 O 427.166 -3.91614 0.894484 0
M  V30 4797 N 425.372 -2.62603 1.2445 0
M  V30 4798 H 424.919 -1.88911 1.75129 0
M  V30 4799 H 424.877 -3.10101 0.518137 0
M  V30 4800 N 428.649 -1.55105 -0.279332 0
M  V30 4801 C 429.895 -1.75672 -1.01327 0
M  V30 4802 C 430.228 -0.552739 -1.86168 0
M  V30 4803 O 429.503 0.449827 -1.89227 0
M  V30 4804 C 429.786 -3.05825 -1.90114 0
M  V30 4805 C 429.639 -4.36565 -1.08309 0
M  V30 4806 C 430.958 -3.31975 -2.8893 0
M  V30 4807 H 428.077 -0.639149 -0.366957 0
M  V30 4808 H 430.719 -1.87833 -0.286154 0
M  V30 4809 H 428.869 -2.95588 -2.52111 0
M  V30 4810 H 430.541 -4.58751 -0.484314 0
M  V30 4811 H 428.784 -4.32076 -0.386362 0
M  V30 4812 H 429.455 -5.23946 -1.73737 0
M  V30 4813 H 431.931 -3.41963 -2.37067 0
M  V30 4814 H 430.807 -4.2432 -3.48201 0
M  V30 4815 H 431.068 -2.51309 -3.63725 0
M  V30 4816 N 430.127 0.543554 -1.4793 0
M  V30 4817 C 431.074 1.64942 -1.6144 0
M  V30 4818 C 432.044 1.59692 -0.456903 0
M  V30 4819 O 433.229 1.78321 -0.678688 0
M  V30 4820 C 430.369 3.03238 -1.64744 0
M  V30 4821 C 429.482 3.18823 -2.91506 0
M  V30 4822 C 428.617 4.47599 -2.86057 0
M  V30 4823 C 427.656 4.56664 -4.07584 0
M  V30 4824 N 426.793 5.76811 -4.00292 0
M  V30 4825 H 431.633 1.52733 -2.55884 0
M  V30 4826 H 429.17 0.7438 -1.2691 0
M  V30 4827 H 431.128 3.83339 -1.64641 0
M  V30 4828 H 429.758 3.1425 -0.738017 0
M  V30 4829 H 428.81 2.32064 -3.01414 0
M  V30 4830 H 430.122 3.21384 -3.81463 0
M  V30 4831 H 429.276 5.35975 -2.84281 0
M  V30 4832 H 428.015 4.47538 -1.93807 0
M  V30 4833 H 427.02 3.66697 -4.09651 0
M  V30 4834 H 428.245 4.58474 -5.00978 0
M  V30 4835 H 426.191 5.77673 -3.10853 0
M  V30 4836 H 426.108 5.80808 -4.8394 0
M  V30 4837 H 427.376 6.67512 -4.02553 0
M  V30 4838 N 431.605 1.3629 0.791371 0
M  V30 4839 C 433.016 1.27225 1.36641 0
M  V30 4840 C 433.367 -0.0887968 1.95999 0
M  V30 4841 O 432.492 -0.990207 1.92416 0
M  V30 4842 C 433.087 2.30375 2.48421 0
M  V30 4843 C 431.646 2.25004 3.01746 0
M  V30 4844 C 430.793 2.15259 1.7481 0
M  V30 4845 H 433.744 1.47198 0.593173 0
M  V30 4846 H 433.765 1.93905 3.27385 0
M  V30 4847 H 433.277 3.29422 2.05189 0
M  V30 4848 H 431.378 1.29417 3.49403 0
M  V30 4849 H 431.491 3.1761 3.58693 0
M  V30 4850 H 429.855 1.61482 1.96966 0
M  V30 4851 H 430.638 3.16191 1.33709 0
M  V30 4852 N 433.083 -1.0153 1.20538 0
M  V30 4853 C 434.499 -1.27461 0.96051 0
M  V30 4854 C 434.699 -1.98273 -0.359193 0
M  V30 4855 O 433.755 -2.27886 -1.0874 0
M  V30 4856 C 435.068 -2.10837 2.14402 0
M  V30 4857 C 436.616 -2.24099 2.18515 0
M  V30 4858 C 437.091 -3.10852 3.36355 0
M  V30 4859 N 438.582 -3.18441 3.36377 0
M  V30 4860 C 439.317 -3.85795 4.24205 0
M  V30 4861 N 438.813 -4.55264 5.22213 0
M  V30 4862 N 440.606 -3.82331 4.12043 0
M  V30 4863 H 432.757 -0.539907 2.05423 0
M  V30 4864 H 435.02 -0.30092 0.898972 0
M  V30 4865 H 434.726 -1.66144 3.09983 0
M  V30 4866 H 434.6 -3.11576 2.12604 0
M  V30 4867 H 436.987 -2.68016 1.23497 0
M  V30 4868 H 437.068 -1.22865 2.24361 0
M  V30 4869 H 436.712 -2.6764 4.31661 0
M  V30 4870 H 436.642 -4.12177 3.27746 0
M  V30 4871 H 439.133 -2.68978 2.65442 0
M  V30 4872 H 439.446 -5.04331 5.85551 0
M  V30 4873 H 437.791 -4.54085 5.26148 0
M  V30 4874 H 440.982 -3.27207 3.34743 0
M  V30 4875 H 441.155 -4.34547 4.807 0
M  V30 4876 N 434.561 -1.01147 -1.20859 0
M  V30 4877 C 435.508 -0.577354 -2.23462 0
M  V30 4878 C 436.478 0.399922 -1.61214 0
M  V30 4879 O 437.663 0.300515 -1.88419 0
M  V30 4880 C 434.803 0.083372 -3.44999 0
M  V30 4881 C 433.916 -0.937856 -4.21697 0
M  V30 4882 C 433.051 -0.248717 -5.30617 0
M  V30 4883 C 432.09 -1.25705 -5.99053 0
M  V30 4884 N 431.227 -0.594939 -6.99575 0
M  V30 4885 H 436.067 -1.45695 -2.59956 0
M  V30 4886 H 433.604 -0.729428 -1.27741 0
M  V30 4887 H 435.562 0.483535 -4.14388 0
M  V30 4888 H 434.192 0.926645 -3.09214 0
M  V30 4889 H 433.244 -1.45622 -3.51423 0
M  V30 4890 H 434.556 -1.70493 -4.68757 0
M  V30 4891 H 433.71 0.207215 -6.06346 0
M  V30 4892 H 432.449 0.55071 -4.84581 0
M  V30 4893 H 431.454 -1.72343 -5.2209 0
M  V30 4894 H 432.679 -2.05767 -6.47176 0
M  V30 4895 H 430.625 0.184713 -6.5574 0
M  V30 4896 H 430.542 -1.30017 -7.44736 0
M  V30 4897 H 431.81 -0.162427 -7.79331 0
M  V30 4898 N 436.039 1.36541 -0.78704 0
M  V30 4899 C 436.969 2.32659 -0.197992 0
M  V30 4900 C 437.95 1.56533 0.665697 0
M  V30 4901 O 439.135 1.84698 0.60001 0
M  V30 4902 C 436.265 3.40778 0.669901 0
M  V30 4903 C 435.219 4.27897 -0.0937039 0
M  V30 4904 C 434.545 5.27163 0.894629 0
M  V30 4905 C 435.845 5.06334 -1.28154 0
M  V30 4906 H 437.539 2.82171 -1.00099 0
M  V30 4907 H 435.085 1.35665 -0.482793 0
M  V30 4908 H 437.038 4.07008 1.09191 0
M  V30 4909 H 435.762 2.89827 1.50558 0
M  V30 4910 H 434.421 3.6322 -0.49666 0
M  V30 4911 H 434.069 4.72486 1.72527 0
M  V30 4912 H 433.769 5.86317 0.388149 0
M  V30 4913 H 435.293 5.96266 1.31525 0
M  V30 4914 H 436.707 5.65617 -0.93541 0
M  V30 4915 H 435.104 5.74888 -1.72115 0
M  V30 4916 H 436.174 4.38114 -2.07807 0
M  V30 4917 N 437.518 0.538854 1.48102 0
M  V30 4918 C 438.934 0.19732 1.58376 0
M  V30 4919 C 439.134 -1.29971 1.5398 0
M  V30 4920 O 438.19 -2.07861 1.43352 0
M  V30 4921 C 439.503 0.807716 2.89649 0
M  V30 4922 C 441.051 0.77726 3.03196 0
M  V30 4923 C 441.526 1.36639 4.37143 0
M  V30 4924 N 443.017 1.32875 4.43732 0
M  V30 4925 C 443.752 1.7544 5.45901 0
M  V30 4926 N 443.248 2.25776 6.54979 0
M  V30 4927 N 445.041 1.66623 5.36836 0
M  V30 4928 H 437.192 1.5117 1.49202 0
M  V30 4929 H 439.455 0.629327 0.708979 0
M  V30 4930 H 439.161 1.85909 2.98548 0
M  V30 4931 H 439.035 0.289975 3.76084 0
M  V30 4932 H 441.422 -0.265374 2.93904 0
M  V30 4933 H 441.503 1.33256 2.18349 0
M  V30 4934 H 441.147 2.408 4.47189 0
M  V30 4935 H 441.077 0.786689 5.20691 0
M  V30 4936 H 443.568 0.96037 3.65493 0
M  V30 4937 H 443.881 2.56226 7.29087 0
M  V30 4938 H 442.226 2.29775 6.55918 0
M  V30 4939 H 445.417 1.27089 4.50517 0
M  V30 4940 H 445.59 2.00115 6.16326 0
M  V30 4941 N 438.996 -1.55193 0.274407 0
M  V30 4942 C 439.943 -2.225 -0.613374 0
M  V30 4943 C 440.913 -1.19823 -1.15029 0
M  V30 4944 O 442.098 -1.48362 -1.19973 0
M  V30 4945 C 439.238 -2.94927 -1.79199 0
M  V30 4946 C 438.351 -4.12322 -1.28899 0
M  V30 4947 C 437.486 -4.72394 -2.42934 0
M  V30 4948 C 436.525 -5.81984 -1.89634 0
M  V30 4949 N 435.662 -6.36123 -2.9714 0
M  V30 4950 H 440.502 -2.97982 -0.032756 0
M  V30 4951 H 438.039 -1.47099 -0.00440146 0
M  V30 4952 H 439.997 -3.35134 -2.48478 0
M  V30 4953 H 438.627 -2.2187 -2.34465 0
M  V30 4954 H 437.679 -3.7724 -0.489327 0
M  V30 4955 H 438.991 -4.91355 -0.858587 0
M  V30 4956 H 438.145 -5.15317 -3.20208 0
M  V30 4957 H 436.884 -3.92636 -2.8929 0
M  V30 4958 H 435.889 -5.38511 -1.1084 0
M  V30 4959 H 437.114 -6.6361 -1.44215 0
M  V30 4960 H 435.06 -5.59259 -3.42878 0
M  V30 4961 H 434.977 -7.10427 -2.58515 0
M  V30 4962 H 436.245 -6.83704 -3.74391 0
M  V30 4963 N 440.474 -0.00167713 -1.576 0
M  V30 4964 C 441.751 0.719951 -1.81868 0
M  V30 4965 C 442.131 1.91895 -0.879747 0
M  V30 4966 O 441.479 2.28389 0.0711423 0
M  V30 4967 C 441.689 1.12409 -3.30402 0
M  V30 4968 C 443.037 1.52724 -3.96182 0
M  V30 4969 O 444.061 1.21784 -3.34734 0
M  V30 4970 O 442.92 2.10265 -5.04431 0
M  V30 4971 H 440.014 0.350707 -0.748955 0
M  V30 4972 H 442.56 -0.0272597 -1.69678 0
M  V30 4973 H 441.332 0.269532 -3.90371 0
M  V30 4974 H 440.955 1.93035 -3.47596 0
M  V30 4975 O 441.991 1.60887 0.140552 0
M  V30 4976 H 442.682 1.77558 0.77413 0
M  V30 END ATOM
M  V30 BEGIN BOND
M  V30 END BOND
M  V30 END CTAB
M  END
$$$$
