drugbank_target|O00206 Toll-like receptor 4 (DB00924; DB01183; DB02767; DB03017; DB04933; DB05475; DB06447; DB08231; DB11193; DB13615)
 OpenBabel12092120213D

  0  0  0     0  0            999 V3000
M  V30 BEGIN CTAB
M  V30 COUNTS 13458 13607 0 0 0
M  V30 BEGIN ATOM
M  V30 1 H -0.908 1.98254 -0.117106 0
M  V30 2 N 0 1.576 0 0
M  V30 3 C 0.933 2.03868 1.02534 0
M  V30 4 C 1.911 0.928543 1.3348 0
M  V30 5 O 3.095 1.19667 1.45644 0
M  V30 6 C 0.222 2.43627 2.35294 0
M  V30 7 C -0.732 3.65373 2.2001 0
M  V30 8 S 0.101 5.13292 1.52614 0
M  V30 9 C 1.257 5.56322 2.86805 0
M  V30 10 H 1.49 2.90518 0.631377 0
M  V30 11 H -0.977 1.52953 0.210867 0
M  V30 12 H 0.981 2.67203 3.11629 0
M  V30 13 H -0.358 1.57376 2.7183 0
M  V30 14 H -1.165 3.90944 3.18086 0
M  V30 15 H -1.563 3.418 1.51819 0
M  V30 16 H 0.729 5.58782 3.83104 0
M  V30 17 H 1.672 6.56266 2.65933 0
M  V30 18 H 2.08 4.83886 2.90714 0
M  V30 19 N 1.4781 -0.272755 1.55222 0
M  V30 20 C 2.4111 -1.3627 1.83046 0
M  V30 21 C 3.3891 -1.47536 0.683521 0
M  V30 22 O 4.5731 -1.64157 0.926545 0
M  V30 23 C 1.7001 -2.73908 1.99229 0
M  V30 24 C 0.7461 -2.79925 3.21783 0
M  V30 25 S 1.5791 -2.39146 4.79134 0
M  V30 26 C 2.7351 -3.78758 4.9829 0
M  V30 27 H 2.9681 -1.12464 2.75207 0
M  V30 28 H 0.5011 -0.472398 1.46996 0
M  V30 29 H 2.4591 -3.53171 2.09238 0
M  V30 30 H 1.1201 -2.94965 1.07956 0
M  V30 31 H 0.3131 -3.80946 3.29994 0
M  V30 32 H -0.0849 -2.08683 3.10367 0
M  V30 33 H 2.2071 -4.7403 4.84047 0
M  V30 34 H 3.1501 -3.75499 6.00338 0
M  V30 35 H 3.5581 -3.70072 4.26271 0
M  V30 36 N 2.9562 -1.48159 -0.537278 0
M  V30 37 C 4.1812 -1.59707 -1.32319 0
M  V30 38 C 4.6062 -0.254859 -1.86365 0
M  V30 39 O 3.9642 0.772378 -1.64024 0
M  V30 40 C 4.0122 -2.6412 -2.45505 0
M  V30 41 O 3.1162 -2.20774 -3.48328 0
M  V30 42 H 2.4572 -0.535791 -0.392204 0
M  V30 43 H 4.9872 -1.94092 -0.647268 0
M  V30 44 H 4.9972 -2.85166 -2.91795 0
M  V30 45 H 3.6722 -3.61567 -2.05528 0
M  V30 46 H 2.2492 -2.09911 -3.08207 0
M  V30 47 N 4.4343 0.785586 -1.36625 0
M  V30 48 C 5.3973 1.87999 -1.31107 0
M  V30 49 C 6.3973 1.59316 -0.217959 0
M  V30 50 O 7.5873 1.67656 -0.472977 0
M  V30 51 C 4.7193 3.24861 -1.03334 0
M  V30 52 H 5.9123 1.94307 -2.2844 0
M  V30 53 H 3.4653 0.983813 -1.21453 0
M  V30 54 H 4.2003 3.24235 -0.0647432 0
M  V30 55 H 3.9853 3.4707 -1.82441 0
M  V30 56 H 5.4753 4.04929 -1.02088 0
M  V30 57 N 5.9124 1.20967 1.01018 0
M  V30 58 C 7.1374 1.0503 1.78839 0
M  V30 59 C 7.5624 -0.395752 1.8389 0
M  V30 60 O 6.9204 -1.28529 1.27867 0
M  V30 61 C 6.9684 1.64602 3.2084 0
M  V30 62 O 6.0724 0.887988 4.02726 0
M  V30 63 H 5.4134 0.369987 0.551367 0
M  V30 64 H 7.9434 1.60399 1.27018 0
M  V30 65 H 7.9534 1.68607 3.71532 0
M  V30 66 H 6.6284 2.69841 3.16479 0
M  V30 67 H 5.2054 0.922648 3.61305 0
M  V30 68 N 7.3905 -1.2043 1.01659 0
M  V30 69 C 8.8065 -1.41852 0.731442 0
M  V30 70 C 9.0065 -1.89358 -0.688898 0
M  V30 71 O 8.0625 -2.06247 -1.45666 0
M  V30 72 C 9.3755 -2.44019 1.75714 0
M  V30 73 C 10.9235 -2.57785 1.77527 0
M  V30 74 C 11.3985 -3.63194 2.79023 0
M  V30 75 N 12.8895 -3.70678 2.77763 0
M  V30 76 C 13.6245 -4.51897 3.52954 0
M  V30 77 N 13.1205 -5.36921 4.37821 0
M  V30 78 N 14.9135 -4.4643 3.41551 0
M  V30 79 H 7.0645 -0.879093 1.93354 0
M  V30 80 H 9.3275 -0.448425 0.835236 0
M  V30 81 H 9.0335 -2.1611 2.77469 0
M  V30 82 H 8.9075 -3.43007 1.56927 0
M  V30 83 H 11.2945 -2.85023 0.764569 0
M  V30 84 H 11.3755 -1.58992 2.00387 0
M  V30 85 H 11.0195 -3.36699 3.80258 0
M  V30 86 H 10.9495 -4.61609 2.53425 0
M  V30 87 H 13.4405 -3.09944 2.16201 0
M  V30 88 H 13.7535 -5.95981 4.91962 0
M  V30 89 H 12.0985 -5.36424 4.41899 0
M  V30 90 H 15.2895 -3.79042 2.74672 0
M  V30 91 H 15.4625 -5.09491 4.00404 0
M  V30 92 N 8.8686 -0.792821 -1.36206 0
M  V30 93 C 9.7986 -0.207853 -2.32573 0
M  V30 94 C 10.7796 0.659055 -1.56813 0
M  V30 95 O 11.9646 0.592176 -1.84951 0
M  V30 96 C 9.0946 0.655449 -3.41059 0
M  V30 97 C 8.0486 -0.111842 -4.27854 0
M  V30 98 C 7.3746 0.872274 -5.27537 0
M  V30 99 C 8.6746 -1.30299 -5.05786 0
M  V30 100 H 10.3686 -1.01294 -2.81744 0
M  V30 101 H 7.9146 -0.48854 -1.3546 0
M  V30 102 H 9.8676 1.07464 -4.07467 0
M  V30 103 H 8.5916 1.49328 -2.90463 0
M  V30 104 H 7.2506 -0.512053 -3.63006 0
M  V30 105 H 6.8986 1.70523 -4.73214 0
M  V30 106 H 6.5986 0.363291 -5.86476 0
M  V30 107 H 8.1226 1.28996 -5.96818 0
M  V30 108 H 9.5366 -0.959379 -5.65216 0
M  V30 109 H 7.9336 -1.7455 -5.74154 0
M  V30 110 H 9.0036 -2.09663 -4.37229 0
M  V30 111 N 10.3467 1.47872 -0.545128 0
M  V30 112 C 11.3097 2.28337 0.198717 0
M  V30 113 C 12.3097 1.36255 0.853888 0
M  V30 114 O 13.4997 1.59003 0.711606 0
M  V30 115 C 10.6317 3.15585 1.28915 0
M  V30 116 H 11.8247 2.95567 -0.507941 0
M  V30 117 H 9.3777 1.53362 -0.301616 0
M  V30 118 H 10.1127 2.53019 2.02859 0
M  V30 119 H 9.8977 3.83337 0.824309 0
M  V30 120 H 11.3877 3.76243 1.81194 0
M  V30 121 N 11.8248 0.280983 1.55075 0
M  V30 122 C 13.0728 -0.333455 1.9933 0
M  V30 123 C 13.3938 -1.55937 1.17085 0
M  V30 124 O 12.6638 -1.94143 0.261805 0
M  V30 125 H 11.2438 -0.126197 0.736263 0
M  V30 126 H 13.9058 0.387678 1.91005 0
M  V30 127 H 13.0018 -0.619292 3.05894 0
M  V30 128 N 13.3029 -1.57598 0.00835791 0
M  V30 129 C 14.5309 -1.95214 -0.68549 0
M  V30 130 C 14.9459 -0.883706 -1.66841 0
M  V30 131 O 14.3029 0.136565 -1.81988 0
M  V30 132 C 14.3539 -3.32865 -1.41007 0
M  V30 133 O 14.0749 -4.35609 -0.466552 0
M  V30 134 C 15.5759 -3.84991 -2.19765 0
M  V30 135 H 12.7959 -0.643422 -0.190392 0
M  V30 136 H 15.3399 -2.04406 0.0619607 0
M  V30 137 H 13.4949 -3.24956 -2.10908 0
M  V30 138 H 13.9089 -5.15288 -0.978699 0
M  V30 139 H 15.3829 -4.8371 -2.65948 0
M  V30 140 H 15.8599 -3.18137 -3.02796 0
M  V30 141 H 16.4659 -3.96103 -1.54864 0
M  V30 142 N 14.781 0.264519 -1.55364 0
M  V30 143 C 15.711 1.33121 -1.91836 0
M  V30 144 C 16.692 1.51101 -0.781192 0
M  V30 145 O 17.877 1.64003 -1.04003 0
M  V30 146 C 15.007 2.68921 -2.19769 0
M  V30 147 C 13.961 2.65661 -3.35571 0
M  V30 148 C 13.287 4.05093 -3.49004 0
M  V30 149 C 14.587 2.24187 -4.71739 0
M  V30 150 H 16.281 1.02844 -2.81182 0
M  V30 151 H 13.827 0.493286 -1.35287 0
M  V30 152 H 15.78 3.43663 -2.43872 0
M  V30 153 H 14.504 3.00799 -1.27231 0
M  V30 154 H 13.163 1.93377 -3.1145 0
M  V30 155 H 12.811 4.34206 -2.53917 0
M  V30 156 H 12.511 4.03804 -4.26868 0
M  V30 157 H 14.035 4.81561 -3.75408 0
M  V30 158 H 15.449 2.88654 -4.9533 0
M  V30 159 H 13.846 2.34044 -5.52579 0
M  V30 160 H 14.916 1.19327 -4.69988 0
M  V30 161 N 16.2591 1.48442 0.529413 0
M  V30 162 C 17.5081 1.55742 1.28169 0
M  V30 163 C 17.8211 0.236511 1.94165 0
M  V30 164 O 19.0271 0.187761 2.7085 0
M  V30 165 C 17.4831 2.74667 2.32564 0
M  V30 166 C 17.0911 4.13402 1.72636 0
M  V30 167 C 18.8351 2.9128 3.08798 0
M  V30 168 C 16.7421 5.23587 2.74975 0
M  V30 169 H 15.6721 0.579796 0.48203 0
M  V30 170 H 18.3231 1.74776 0.559056 0
M  V30 171 H 16.7051 2.49067 3.07866 0
M  V30 172 H 17.8791 4.49022 1.03519 0
M  V30 173 H 16.1941 4.0191 1.08892 0
M  V30 174 H 18.7911 3.70767 3.85274 0
M  V30 175 H 19.1341 2.00757 3.64695 0
M  V30 176 H 19.6671 3.16782 2.40611 0
M  V30 177 H 16.4061 6.16076 2.23897 0
M  V30 178 H 15.9261 4.92454 3.42417 0
M  V30 179 H 17.6051 5.51724 3.37949 0
M  V30 180 N 17.7372 -0.778329 1.37039 0
M  V30 181 C 19.1482 -1.35421 1.28523 0
M  V30 182 C 19.4992 -1.96075 -0.0700901 0
M  V30 183 O 18.6242 -1.93352 -0.971801 0
M  V30 184 C 19.2192 -2.46211 2.32735 0
M  V30 185 C 17.7782 -2.99585 2.27873 0
M  V30 186 C 16.9252 -1.72748 2.16918 0
M  V30 187 H 19.8762 -0.5791 1.47757 0
M  V30 188 H 19.8972 -3.2552 1.9702 0
M  V30 189 H 19.4092 -2.02036 3.31365 0
M  V30 190 H 17.5102 -3.48152 1.32745 0
M  V30 191 H 17.6232 -3.55646 3.21018 0
M  V30 192 H 15.9872 -1.95416 1.63354 0
M  V30 193 H 16.7702 -1.30686 3.17452 0
M  V30 194 N 19.2153 -1.21501 -1.00376 0
M  V30 195 C 20.1783 -0.976927 -2.07337 0
M  V30 196 C 21.1783 0.0525322 -1.60714 0
M  V30 197 O 22.3683 -0.184869 -1.73216 0
M  V30 198 C 19.5003 -0.473423 -3.37597 0
M  V30 199 H 20.6933 -1.92587 -2.29892 0
M  V30 200 H 18.2463 -1.03217 -1.17371 0
M  V30 201 H 18.9813 0.480379 -3.20722 0
M  V30 202 H 18.7663 -1.216 -3.72768 0
M  V30 203 H 20.2563 -0.32675 -4.1632 0
M  V30 204 N 20.6934 1.19889 -1.02296 0
M  V30 205 C 21.6264 2.21639 -0.543282 0
M  V30 206 C 22.6044 1.57275 0.412698 0
M  V30 207 O 23.7884 1.85568 0.331198 0
M  V30 208 C 20.9154 3.38057 0.208571 0
M  V30 209 C 19.9614 4.20751 -0.697933 0
M  V30 210 S 20.7944 4.89529 -2.17075 0
M  V30 211 C 21.9504 6.09363 -1.42923 0
M  V30 212 H 22.1834 2.61984 -1.40541 0
M  V30 213 H 19.7164 1.30041 -0.832387 0
M  V30 214 H 21.6744 4.05539 0.63624 0
M  V30 215 H 20.3354 2.96159 1.04635 0
M  V30 216 H 19.5284 5.03862 -0.117831 0
M  V30 217 H 19.1304 3.58556 -1.06366 0
M  V30 218 H 21.4224 6.73742 -0.712637 0
M  V30 219 H 22.3654 6.71845 -2.23673 0
M  V30 220 H 22.7734 5.56798 -0.929327 0
M  V30 221 N 22.1715 0.800033 1.35784 0
M  V30 222 C 23.1345 0.211565 2.28221 0
M  V30 223 C 24.1345 -0.59728 1.49296 0
M  V30 224 O 25.3245 -0.416721 1.69142 0
M  V30 225 C 22.4565 -0.705846 3.33513 0
M  V30 226 H 23.6495 1.02677 2.81776 0
M  V30 227 H 21.2025 0.570211 1.45528 0
M  V30 228 H 21.9375 -1.54498 2.85133 0
M  V30 229 H 21.7225 -0.127655 3.91892 0
M  V30 230 H 23.2125 -1.11211 4.02519 0
M  V30 231 N 23.6496 -1.47581 0.552962 0
M  V30 232 C 24.8966 -2.02482 0.0273243 0
M  V30 233 C 25.2246 -1.42776 -1.32081 0
M  V30 234 O 24.4796 -0.571393 -1.87173 0
M  V30 235 C 24.7786 -3.57199 -0.119728 0
M  V30 236 C 24.4446 -4.35804 1.15697 0
M  V30 237 C 23.1066 -4.57 1.50681 0
M  V30 238 C 25.4586 -4.81167 2.00319 0
M  V30 239 C 22.7866 -5.20807 2.70142 0
M  V30 240 C 25.1386 -5.46293 3.18978 0
M  V30 241 C 23.8026 -5.65722 3.54281 0
M  V30 242 H 23.0726 -0.740933 0.00999866 0
M  V30 243 H 25.7196 -1.77302 0.72362 0
M  V30 244 H 24.0246 -3.81348 -0.89896 0
M  V30 245 H 25.7216 -3.97324 -0.541718 0
M  V30 246 H 22.3116 -4.19582 0.874561 0
M  V30 247 H 26.4956 -4.64574 1.74599 0
M  V30 248 H 21.7516 -5.34045 2.97668 0
M  V30 249 H 25.9256 -5.80407 3.84838 0
M  V30 250 H 23.5526 -6.14936 4.46942 0
M  V30 251 N 25.1277 -0.289203 -1.54924 0
M  V30 252 C 26.0577 0.58549 -2.2604 0
M  V30 253 C 27.0387 1.14753 -1.25562 0
M  V30 254 O 28.2237 1.17906 -1.54311 0
M  V30 255 C 25.3537 1.76305 -2.99222 0
M  V30 256 C 24.3077 1.33191 -4.06748 0
M  V30 257 C 23.6337 2.5937 -4.6758 0
M  V30 258 C 24.9337 0.471775 -5.20165 0
M  V30 259 H 26.6277 -0.00763532 -2.99399 0
M  V30 260 H 24.1737 -0.00511229 -1.43999 0
M  V30 261 H 26.1267 2.38097 -3.47689 0
M  V30 262 H 24.8507 2.38223 -2.23422 0
M  V30 263 H 23.5097 0.737121 -3.59113 0
M  V30 264 H 23.1577 3.19576 -3.88433 0
M  V30 265 H 22.8577 2.31228 -5.40192 0
M  V30 266 H 24.3817 3.21985 -5.18804 0
M  V30 267 H 25.7957 0.995056 -5.64599 0
M  V30 268 H 24.1927 0.284639 -5.99425 0
M  V30 269 H 25.2627 -0.506041 -4.82252 0
M  V30 270 N 26.6058 1.57591 -0.0167156 0
M  V30 271 C 27.8308 1.9598 0.67872 0
M  V30 272 C 28.2558 0.892546 1.65575 0
M  V30 273 O 27.6138 -0.147772 1.80697 0
M  V30 274 C 27.6618 3.33468 1.37227 0
M  V30 275 O 26.7658 3.28954 2.48722 0
M  V30 276 H 26.1068 0.639339 0.17928 0
M  V30 277 H 28.6368 2.04463 -0.0748802 0
M  V30 278 H 28.6468 3.69417 1.7319 0
M  V30 279 H 27.3218 4.10694 0.656007 0
M  V30 280 H 25.8988 3.04705 2.14963 0
M  V30 281 N 28.0839 -0.256276 1.55502 0
M  V30 282 C 29.3239 -0.993081 1.78654 0
M  V30 283 C 29.6879 -1.8288 0.584724 0
M  V30 284 O 30.8889 -2.59665 0.694822 0
M  V30 285 C 29.1599 -1.83856 3.06483 0
M  V30 286 S 30.7189 -2.63573 3.5082 0
M  V30 287 H 27.5369 -0.334199 0.62756 0
M  V30 288 H 30.1389 -0.26184 1.93739 0
M  V30 289 H 28.8429 -1.21414 3.92029 0
M  V30 290 H 28.3739 -2.61271 2.94111 0
M  V30 291 H 30.3889 -3.86312 3.11412 0
M  V30 292 N 29.562 -1.4872 -0.521534 0
M  V30 293 C 30.808 -1.574 -1.27879 0
M  V30 294 C 31.141 -0.250817 -1.92573 0
M  V30 295 O 30.416 0.743934 -1.79711 0
M  V30 296 C 30.699 -2.71843 -2.36164 0
M  V30 297 C 30.552 -4.13893 -1.76105 0
M  V30 298 C 31.871 -2.82008 -3.37875 0
M  V30 299 H 28.99 -0.572941 -0.463581 0
M  V30 300 H 31.632 -1.80927 -0.580119 0
M  V30 301 H 29.782 -2.51914 -2.95756 0
M  V30 302 H 31.454 -4.45284 -1.20499 0
M  V30 303 H 29.697 -4.20498 -1.06601 0
M  V30 304 H 30.368 -4.89804 -2.5455 0
M  V30 305 H 32.844 -3.00086 -2.88249 0
M  V30 306 H 31.72 -3.63796 -4.11028 0
M  V30 307 H 31.981 -1.90511 -3.98946 0
M  V30 308 N 31.0401 0.771051 -1.3745 0
M  V30 309 C 32.4561 1.07171 -1.18265 0
M  V30 310 C 32.6561 2.01491 -0.019287 0
M  V30 311 O 31.7121 2.44244 0.640408 0
M  V30 312 C 33.0251 1.66854 -2.50161 0
M  V30 313 C 34.5731 1.79109 -2.56689 0
M  V30 314 C 35.0481 2.42205 -3.88717 0
M  V30 315 N 36.5391 2.49655 -3.90162 0
M  V30 316 C 37.2741 2.9933 -4.8907 0
M  V30 317 N 36.7701 3.49172 -5.98374 0
M  V30 318 N 38.5631 2.9821 -4.76474 0
M  V30 319 H 30.7141 0.144796 -2.11906 0
M  V30 320 H 32.9771 0.126863 -0.939473 0
M  V30 321 H 32.6831 1.05017 -3.35655 0
M  V30 322 H 32.5571 2.6614 -2.673 0
M  V30 323 H 34.9441 2.40077 -1.71601 0
M  V30 324 H 35.0251 0.785757 -2.43433 0
M  V30 325 H 34.6691 1.81875 -4.74219 0
M  V30 326 H 34.5991 3.43345 -3.99276 0
M  V30 327 H 37.0901 2.14383 -3.11205 0
M  V30 328 H 37.4031 3.8548 -6.69795 0
M  V30 329 H 35.7481 3.47275 -6.02018 0
M  V30 330 H 38.9391 2.58572 -3.90203 0
M  V30 331 H 39.1121 3.36613 -5.53711 0
M  V30 332 N 32.5182 1.22032 0.997298 0
M  V30 333 C 33.9292 1.0397 1.55071 0
M  V30 334 C 34.2802 -0.398192 1.92117 0
M  V30 335 O 33.4052 -1.28254 1.74298 0
M  V30 336 C 34.0002 1.88109 2.81781 0
M  V30 337 C 32.5592 1.74357 3.33581 0
M  V30 338 C 31.7062 1.84846 2.06706 0
M  V30 339 H 34.6572 1.35941 0.818883 0
M  V30 340 H 34.6782 1.39589 3.53971 0
M  V30 341 H 34.1902 2.92754 2.54787 0
M  V30 342 H 32.2912 0.72427 3.65493 0
M  V30 343 H 32.4042 2.56772 4.04481 0
M  V30 344 H 30.7682 1.28238 2.20062 0
M  V30 345 H 31.5512 2.91014 1.82114 0
M  V30 346 N 33.9963 -1.19345 1.0293 0
M  V30 347 C 34.9063 -2.26245 0.620515 0
M  V30 348 C 35.9223 -1.70486 -0.347928 0
M  V30 349 O 37.0983 -2.00347 -0.205704 0
M  V30 350 C 34.1633 -3.46693 -0.0218957 0
M  V30 351 C 33.2243 -4.17632 0.994102 0
M  V30 352 C 32.4573 -5.32329 0.382253 0
M  V30 353 O 32.6803 -5.64552 -0.814676 0
M  V30 354 O 31.6143 -5.91664 1.10531 0
M  V30 355 H 35.4403 -2.63453 1.51083 0
M  V30 356 H 33.0253 -1.26207 0.799513 0
M  V30 357 H 34.9073 -4.19683 -0.380072 0
M  V30 358 H 33.5823 -3.11333 -0.886209 0
M  V30 359 H 32.4893 -3.4676 1.40387 0
M  V30 360 H 33.8223 -4.56964 1.8288 0
M  V30 361 N 35.4744 -0.807222 -1.35358 0
M  V30 362 C 36.6994 -0.399309 -2.0352 0
M  V30 363 C 37.1244 0.981986 -1.60433 0
M  V30 364 O 36.4824 1.63601 -0.781299 0
M  V30 365 C 36.5304 -0.491552 -3.57234 0
M  V30 366 O 35.6344 0.494754 -4.09421 0
M  V30 367 H 34.9754 -0.166682 -0.642739 0
M  V30 368 H 37.5054 -1.09328 -1.72941 0
M  V30 369 H 37.5154 -0.361588 -4.06395 0
M  V30 370 H 36.1904 -1.49907 -3.87944 0
M  V30 371 H 34.7674 0.324977 -3.71481 0
M  V30 372 N 36.9525 1.47285 -0.560781 0
M  V30 373 C 38.1985 2.03347 -0.0463654 0
M  V30 374 C 38.5535 1.42702 1.2905 0
M  V30 375 O 37.8465 0.574619 1.8278 0
M  V30 376 C 38.0405 3.57258 0.100784 0
M  V30 377 C 37.8695 4.32827 -1.22027 0
M  V30 378 C 36.6395 4.72588 -1.78854 0
M  V30 379 C 38.8375 4.67739 -2.13834 0
M  V30 380 N 36.8195 5.32816 -3.04927 0
M  V30 381 C 38.1905 5.28307 -3.24487 0
M  V30 382 C 40.2455 4.49667 -2.13784 0
M  V30 383 C 38.9485 5.72711 -4.35194 0
M  V30 384 C 40.9745 4.95073 -3.23506 0
M  V30 385 C 40.3365 5.55693 -4.32879 0
M  V30 386 H 36.4355 0.779755 -0.0592166 0
M  V30 387 H 39.0195 1.79723 -0.748857 0
M  V30 388 H 37.1905 3.80642 0.772404 0
M  V30 389 H 38.9225 3.9996 0.617589 0
M  V30 390 H 35.6775 4.54656 -1.32609 0
M  V30 391 H 36.1015 5.67471 -3.69197 0
M  V30 392 H 40.7435 4.02154 -1.30507 0
M  V30 393 H 38.4615 6.19214 -5.1923 0
M  V30 394 H 42.0475 4.82859 -3.24559 0
M  V30 395 H 40.9275 5.90188 -5.1638 0
M  V30 396 N 38.4306 0.297415 1.54768 0
M  V30 397 C 39.3406 -0.58983 2.27064 0
M  V30 398 C 40.3566 -1.15144 1.30453 0
M  V30 399 O 41.5326 -1.17699 1.63428 0
M  V30 400 C 38.5976 -1.74714 2.9946 0
M  V30 401 C 37.6586 -1.21997 4.11601 0
M  V30 402 C 36.8916 -2.32212 4.80535 0
M  V30 403 O 37.1146 -3.52036 4.48806 0
M  V30 404 O 36.0486 -1.99106 5.68014 0
M  V30 405 H 39.8746 -0.00348199 3.037 0
M  V30 406 H 37.4596 0.0640035 1.49263 0
M  V30 407 H 39.3416 -2.42147 3.44881 0
M  V30 408 H 38.0166 -2.32016 2.25722 0
M  V30 409 H 36.9236 -0.511458 3.70587 0
M  V30 410 H 38.2566 -0.692419 4.87305 0
M  V30 411 N 39.9087 -1.5758 0.0250728 0
M  V30 412 C 41.3197 -1.79476 -0.514323 0
M  V30 413 C 41.6707 -0.934956 -1.72491 0
M  V30 414 O 40.7957 -0.144245 -2.15919 0
M  V30 415 C 41.3907 -3.25503 -0.939842 0
M  V30 416 C 39.9497 -3.48408 -1.42438 0
M  V30 417 C 39.0967 -2.74583 -0.387201 0
M  V30 418 H 42.0477 -1.567 0.25113 0
M  V30 419 H 42.0687 -3.34992 -1.80445 0
M  V30 420 H 41.5807 -3.88056 -0.0585628 0
M  V30 421 H 39.6817 -2.91103 -2.32572 0
M  V30 422 H 39.7947 -4.57119 -1.43455 0
M  V30 423 H 38.1587 -2.39942 -0.854409 0
M  V30 424 H 38.9417 -3.39849 0.485543 0
M  V30 425 N 41.3868 0.248026 -1.55636 0
M  V30 426 C 42.6268 0.983592 -1.79178 0
M  V30 427 C 42.9908 1.82567 -0.594414 0
M  V30 428 O 44.1918 2.59292 -0.708583 0
M  V30 429 C 42.4628 1.82228 -3.07454 0
M  V30 430 S 44.0218 2.61709 -3.52213 0
M  V30 431 H 40.8398 0.330866 -0.629324 0
M  V30 432 H 43.4418 0.251562 -1.93875 0
M  V30 433 H 42.1458 1.19333 -3.92668 0
M  V30 434 H 41.6768 2.59708 -2.95492 0
M  V30 435 H 43.6918 3.84655 -3.13457 0
M  V30 436 N 42.8649 1.48995 0.513639 0
M  V30 437 C 44.1109 1.58076 1.27042 0
M  V30 438 C 44.4439 0.261026 1.92438 0
M  V30 439 O 43.7189 -0.734393 1.80103 0
M  V30 440 C 44.0019 2.73091 2.34719 0
M  V30 441 C 43.8549 4.14821 1.73907 0
M  V30 442 C 45.1739 2.83796 3.36375 0
M  V30 443 H 42.2929 0.575391 0.460536 0
M  V30 444 H 44.9349 1.81232 0.570516 0
M  V30 445 H 43.0849 2.53479 2.94416 0
M  V30 446 H 44.7569 4.45917 1.18135 0
M  V30 447 H 42.9999 4.21058 1.0437 0
M  V30 448 H 43.6709 4.91147 2.51949 0
M  V30 449 H 46.1469 3.01611 2.86653 0
M  V30 450 H 45.0229 3.65971 4.09093 0
M  V30 451 H 45.2839 1.92624 3.9793 0
M  V30 452 N 44.343 -0.763751 1.37857 0
M  V30 453 C 45.253 -1.90817 1.36478 0
M  V30 454 C 46.269 -1.71997 0.263248 0
M  V30 455 O 47.445 -1.95095 0.499979 0
M  V30 456 C 44.51 -3.2605 1.17864 0
M  V30 457 C 43.571 -3.57467 2.3773 0
M  V30 458 C 42.804 -4.86249 2.19995 0
M  V30 459 O 43.027 -5.57884 1.18836 0
M  V30 460 O 41.961 -5.16911 3.08361 0
M  V30 461 H 45.787 -1.94933 2.32884 0
M  V30 462 H 43.372 -0.907619 1.1867 0
M  V30 463 H 45.254 -4.06924 1.09504 0
M  V30 464 H 43.929 -3.22769 0.245372 0
M  V30 465 H 42.836 -2.76796 2.51664 0
M  V30 466 H 44.169 -3.655 3.29652 0
M  V30 467 N 45.8211 -1.22559 -0.990812 0
M  V30 468 C 47.0671 -1.05297 -1.73322 0
M  V30 469 C 47.4001 0.410655 -1.89808 0
M  V30 470 O 46.6751 1.30439 -1.44277 0
M  V30 471 C 46.9581 -1.76713 -3.13759 0
M  V30 472 C 46.8111 -3.30684 -3.04907 0
M  V30 473 C 48.1301 -1.52121 -4.12974 0
M  V30 474 H 45.2491 -0.38392 -0.629106 0
M  V30 475 H 47.8911 -1.50926 -1.15418 0
M  V30 476 H 46.0411 -1.37924 -3.63193 0
M  V30 477 H 47.7131 -3.7893 -2.63077 0
M  V30 478 H 45.9561 -3.60253 -2.41661 0
M  V30 479 H 46.6271 -3.75833 -4.04294 0
M  V30 480 H 49.1031 -1.85819 -3.72304 0
M  V30 481 H 47.9791 -2.04582 -5.0935 0
M  V30 482 H 48.2401 -0.454257 -4.3976 0
M  V30 483 N 47.2992 1.18797 -1.03562 0
M  V30 484 C 48.5452 1.8893 -0.737113 0
M  V30 485 C 48.8782 1.79837 0.732956 0
M  V30 486 O 48.1532 1.19525 1.5344 0
M  V30 487 C 48.4362 3.39607 -1.19745 0
M  V30 488 C 48.2892 3.57537 -2.72924 0
M  V30 489 C 49.6082 4.33069 -0.783526 0
M  V30 490 H 46.7272 0.686057 -0.269249 0
M  V30 491 H 49.3692 1.39797 -1.28673 0
M  V30 492 H 47.5192 3.81583 -0.729855 0
M  V30 493 H 49.1912 3.24688 -3.27682 0
M  V30 494 H 47.4342 3.00363 -3.12993 0
M  V30 495 H 48.1052 4.63238 -3.00191 0
M  V30 496 H 50.5812 3.98846 -1.18581 0
M  V30 497 H 49.4572 5.3707 -1.13343 0
M  V30 498 H 49.7182 4.40986 0.313681 0
M  V30 499 N 48.7773 0.814389 1.34928 0
M  V30 500 C 50.1883 0.458364 1.80986 0
M  V30 501 C 50.5393 -1.02042 1.67577 0
M  V30 502 O 49.6643 -1.79352 1.21086 0
M  V30 503 C 50.2593 0.825212 3.28597 0
M  V30 504 C 48.8183 0.521677 3.72767 0
M  V30 505 C 47.9653 1.04668 2.56788 0
M  V30 506 H 50.9163 1.00533 1.22795 0
M  V30 507 H 50.9373 0.12571 3.80292 0
M  V30 508 H 50.4493 1.90154 3.38324 0
M  V30 509 H 48.5503 -0.545589 3.68584 0
M  V30 510 H 48.6633 1.05977 4.67232 0
M  V30 511 H 47.0273 0.468622 2.50352 0
M  V30 512 H 47.8103 2.12927 2.6929 0
M  V30 513 N 50.2554 -1.46986 0.568584 0
M  V30 514 C 51.2034 -2.31858 -0.185649 0
M  V30 515 C 52.1974 -1.43624 -0.898249 0
M  V30 516 O 53.4034 -1.60327 -0.818242 0
M  V30 517 H 49.7784 -0.747866 -0.0787399 0
M  V30 518 H 51.7494 -2.93303 0.549191 0
M  V30 519 C 50.4984 -3.26513 -1.19519 0
M  V30 520 H 49.8214 -3.94377 -0.656285 0
M  V30 521 H 51.2614 -3.88707 -1.6936 0
M  V30 522 C 49.7204 -2.50847 -2.24894 0
M  V30 523 O 50.2504 -2.26119 -3.32014 0
M  V30 524 N 48.4564 -2.11656 -1.99124 0
M  V30 525 H 48.0034 -2.31966 -1.12024 0
M  V30 526 H 47.9614 -1.61347 -2.69842 0
M  V30 527 N 51.7335 -0.305618 -1.54608 0
M  V30 528 C 52.9825 0.303098 -1.9941 0
M  V30 529 C 53.2955 1.54648 -1.19764 0
M  V30 530 O 54.5015 2.23007 -1.54855 0
M  V30 531 C 52.9575 0.590588 -3.55021 0
M  V30 532 C 52.5655 -0.634719 -4.43481 0
M  V30 533 C 54.3095 1.16025 -4.08336 0
M  V30 534 C 52.2165 -0.320126 -5.90533 0
M  V30 535 H 51.1465 0.117031 -0.744862 0
M  V30 536 H 53.7975 -0.415045 -1.78745 0
M  V30 537 H 52.1795 1.36845 -3.71604 0
M  V30 538 H 53.3535 -1.41079 -4.38672 0
M  V30 539 H 51.6685 -1.12333 -4.00962 0
M  V30 540 H 54.2655 1.40994 -5.15776 0
M  V30 541 H 54.6085 2.10397 -3.5922 0
M  V30 542 H 55.1415 0.443985 -3.95315 0
M  V30 543 H 51.8805 -1.23254 -6.43808 0
M  V30 544 H 51.4005 0.418579 -5.98338 0
M  V30 545 H 53.0795 0.0766241 -6.46955 0
M  V30 546 N 53.2116 1.57565 -0.0334293 0
M  V30 547 C 54.4396 1.9628 0.654347 0
M  V30 548 C 54.8546 0.910138 1.65414 0
M  V30 549 O 54.2116 -0.107595 1.82183 0
M  V30 550 C 54.2626 3.35067 1.35693 0
M  V30 551 O 53.9836 4.36296 0.397191 0
M  V30 552 C 55.4846 3.88439 2.13613 0
M  V30 553 H 52.7046 0.646369 0.180132 0
M  V30 554 H 55.2486 2.04282 -0.0944721 0
M  V30 555 H 53.4036 3.2827 2.05712 0
M  V30 556 H 53.8176 5.1678 0.896597 0
M  V30 557 H 55.2916 4.8788 2.58219 0
M  V30 558 H 55.7686 3.22914 2.97696 0
M  V30 559 H 56.3746 3.98516 1.48543 0
M  V30 560 N 54.6897 -0.239769 1.55765 0
M  V30 561 C 55.9197 -0.982743 1.8173 0
M  V30 562 C 56.3277 -1.7917 0.607835 0
M  V30 563 O 55.6707 -1.78525 -0.432973 0
M  V30 564 C 55.7327 -1.96332 3.01155 0
M  V30 565 C 55.3967 -1.34062 4.36894 0
M  V30 566 C 56.3937 -0.739539 5.14613 0
M  V30 567 C 54.0787 -1.35784 4.83599 0
M  V30 568 C 56.0727 -0.163989 6.37189 0
M  V30 569 C 53.7597 -0.778441 6.06122 0
M  V30 570 C 54.7577 -0.182548 6.82756 0
M  V30 571 O 54.4457 0.387887 8.02964 0
M  V30 572 H 54.1777 -0.294481 0.608487 0
M  V30 573 H 56.7317 -0.26572 2.03674 0
M  V30 574 H 54.9617 -2.71884 2.74984 0
M  V30 575 H 56.6507 -2.57032 3.14149 0
M  V30 576 H 57.4167 -0.718687 4.79646 0
M  V30 577 H 53.2957 -1.81105 4.23936 0
M  V30 578 H 56.8397 0.301753 6.96947 0
M  V30 579 H 52.7367 -0.796645 6.40565 0
M  V30 580 H 53.5047 0.28044 8.18019 0
M  V30 581 N 56.1678 -1.49265 -0.50573 0
M  V30 582 C 57.0998 -1.617 -1.62437 0
M  V30 583 C 58.1128 -0.499924 -1.54934 0
M  V30 584 O 59.3018 -0.771785 -1.60953 0
M  V30 585 C 56.4018 -1.5533 -3.01207 0
M  V30 586 C 55.5748 -2.8249 -3.33943 0
M  V30 587 C 54.6338 -2.69238 -4.52103 0
M  V30 588 O 53.6598 -3.43167 -4.5412 0
M  V30 589 N 54.8618 -1.80468 -5.51735 0
M  V30 590 H 57.6268 -2.58177 -1.52199 0
M  V30 591 H 55.1878 -1.46294 -0.693511 0
M  V30 592 H 57.1798 -1.44125 -3.78167 0
M  V30 593 H 55.7498 -0.667297 -3.05395 0
M  V30 594 H 54.9698 -3.08081 -2.45926 0
M  V30 595 H 56.2578 -3.66802 -3.5261 0
M  V30 596 H 55.6558 -1.19653 -5.52901 0
M  V30 597 H 54.2128 -1.75188 -6.27816 0
M  V30 598 N 57.6459 0.756429 -1.3826 0
M  V30 599 C 58.8859 1.52833 -1.35725 0
M  V30 600 C 59.2499 1.91926 0.0534106 0
M  V30 601 O 60.4509 2.68028 0.203613 0
M  V30 602 C 58.7219 2.74919 -2.28373 0
M  V30 603 S 60.2809 3.64817 -2.43832 0
M  V30 604 H 57.0989 0.523043 -0.481608 0
M  V30 605 H 59.7009 0.888212 -1.74158 0
M  V30 606 H 58.4049 2.44304 -3.29763 0
M  V30 607 H 57.9359 3.43878 -1.91079 0
M  V30 608 H 59.9509 4.676 -1.66027 0
M  V30 609 N 59.124 1.23083 0.984299 0
M  V30 610 C 60.057 0.951786 2.07404 0
M  V30 611 C 61.035 -0.10848 1.62238 0
M  V30 612 O 62.219 0.0249467 1.88483 0
M  V30 613 C 59.346 0.433142 3.35919 0
M  V30 614 C 58.392 1.47941 4.0002 0
M  V30 615 S 59.225 3.05556 4.39768 0
M  V30 616 C 60.381 2.55351 5.71442 0
M  V30 617 H 60.614 1.87456 2.30754 0
M  V30 618 H 58.147 1.06284 1.11996 0
M  V30 619 H 60.105 0.140506 4.10259 0
M  V30 620 H 58.766 -0.468656 3.10584 0
M  V30 621 H 57.959 1.06658 4.92585 0
M  V30 622 H 57.561 1.7212 3.3204 0
M  V30 623 H 59.853 1.97128 6.48187 0
M  V30 624 H 60.796 3.46441 6.17563 0
M  V30 625 H 61.204 1.96339 5.29255 0
M  V30 626 N 60.6021 -1.18246 1.0419 0
M  V30 627 C 61.5121 -2.25574 0.644476 0
M  V30 628 C 62.5281 -1.70845 -0.329826 0
M  V30 629 O 63.7041 -2.00554 -0.184443 0
M  V30 630 C 60.7691 -3.46697 0.014877 0
M  V30 631 C 59.8301 -4.16554 1.03834 0
M  V30 632 C 59.0631 -5.31894 0.438692 0
M  V30 633 O 59.2861 -5.65385 -0.754752 0
M  V30 634 O 58.2201 -5.90459 1.168 0
M  V30 635 H 62.0461 -2.61836 1.53869 0
M  V30 636 H 59.6311 -1.25352 0.812854 0
M  V30 637 H 61.5131 -4.20062 -0.335538 0
M  V30 638 H 60.1881 -3.12255 -0.853138 0
M  V30 639 H 59.0951 -3.45251 1.44057 0
M  V30 640 H 60.4281 -4.54998 1.87716 0
M  V30 641 N 62.0802 -0.821533 -1.34494 0
M  V30 642 C 63.0102 -0.257138 -2.3208 0
M  V30 643 C 63.9912 0.625645 -1.58176 0
M  V30 644 O 65.1762 0.552811 -1.86166 0
M  V30 645 C 62.3062 0.582958 -3.42372 0
M  V30 646 C 61.2602 -0.202571 -4.2752 0
M  V30 647 C 60.5862 0.760179 -5.29269 0
M  V30 648 C 61.8862 -1.40998 -5.02908 0
M  V30 649 H 63.5802 -1.07247 -2.79532 0
M  V30 650 H 61.1262 -0.517163 -1.34393 0
M  V30 651 H 63.0792 0.987972 -4.09655 0
M  V30 652 H 61.8032 1.43133 -2.93565 0
M  V30 653 H 60.4622 -0.588936 -3.61838 0
M  V30 654 H 60.1102 1.60447 -4.76724 0
M  V30 655 H 59.8102 0.238809 -5.87115 0
M  V30 656 H 61.3342 1.16308 -5.9942 0
M  V30 657 H 62.7482 -1.07905 -5.63054 0
M  V30 658 H 61.1452 -1.86689 -5.70322 0
M  V30 659 H 62.2152 -2.1889 -4.32684 0
M  V30 660 N 63.5583 1.46682 -0.576371 0
M  V30 661 C 64.5063 2.31953 0.17335 0
M  V30 662 C 65.5003 1.44098 0.89062 0
M  V30 663 O 66.7063 1.60759 0.809728 0
M  V30 664 H 63.0813 0.748273 0.0747727 0
M  V30 665 H 65.0523 2.93007 -0.564738 0
M  V30 666 C 63.8013 3.27142 1.17786 0
M  V30 667 H 63.1243 3.94719 0.635361 0
M  V30 668 H 64.5643 3.896 1.67296 0
M  V30 669 C 63.0233 2.52036 2.23561 0
M  V30 670 O 63.5533 2.27877 3.3081 0
M  V30 671 N 61.7593 2.12709 1.97998 0
M  V30 672 H 61.3063 2.32557 1.10792 0
M  V30 673 H 61.2643 1.62776 2.68982 0
M  V30 674 N 65.0364 0.313813 1.54444 0
M  V30 675 C 66.2834 -0.291675 2.00388 0
M  V30 676 C 66.6114 -1.52904 1.2021 0
M  V30 677 O 65.8664 -1.93833 0.269707 0
M  V30 678 C 66.1654 -0.680386 3.50864 0
M  V30 679 C 65.8314 0.456699 4.48581 0
M  V30 680 C 64.4934 0.768824 4.75018 0
M  V30 681 C 66.8454 1.22098 5.06697 0
M  V30 682 C 64.1734 1.84812 5.56831 0
M  V30 683 C 66.5254 2.29029 5.89685 0
M  V30 684 C 65.1894 2.60834 6.14428 0
M  V30 685 H 64.4594 -0.106732 0.733273 0
M  V30 686 H 67.1064 0.43557 1.86481 0
M  V30 687 H 65.4114 -1.48791 3.62448 0
M  V30 688 H 67.1084 -1.16026 3.83847 0
M  V30 689 H 63.6984 0.203337 4.28117 0
M  V30 690 H 67.8824 0.993096 4.86263 0
M  V30 691 H 63.1384 2.09912 5.74236 0
M  V30 692 H 67.3124 2.887 6.33739 0
M  V30 693 H 64.9394 3.44596 6.77612 0
M  V30 694 N 66.5145 -1.57545 0.0417849 0
M  V30 695 C 67.7445 -1.96339 -0.642995 0
M  V30 696 C 68.1525 -0.917536 -1.65463 0
M  V30 697 O 67.4955 0.107747 -1.83384 0
M  V30 698 C 67.5575 -3.31333 -1.39494 0
M  V30 699 C 67.2215 -4.53796 -0.540204 0
M  V30 700 C 68.2185 -5.19553 0.189806 0
M  V30 701 C 65.9035 -5.0006 -0.473886 0
M  V30 702 C 67.8975 -6.29904 0.974674 0
M  V30 703 C 65.5845 -6.10289 0.314677 0
M  V30 704 C 66.5825 -6.75072 1.03765 0
M  V30 705 O 66.2705 -7.83183 1.81327 0
M  V30 706 H 66.0025 -0.651241 -0.181277 0
M  V30 707 H 68.5565 -2.05148 0.101665 0
M  V30 708 H 66.7865 -3.19052 -2.18502 0
M  V30 709 H 68.4755 -3.54942 -1.96904 0
M  V30 710 H 69.2415 -4.84774 0.147981 0
M  V30 711 H 65.1205 -4.49433 -1.0262 0
M  V30 712 H 68.6645 -6.80401 1.5395 0
M  V30 713 H 64.5615 -6.44506 0.358174 0
M  V30 714 H 65.3295 -7.99913 1.73438 0
M  V30 715 N 67.9926 0.231505 -1.5589 0
M  V30 716 C 68.9396 1.28682 -1.91598 0
M  V30 717 C 69.9096 1.47071 -0.771974 0
M  V30 718 O 71.0946 1.60802 -1.027 0
M  V30 719 C 68.2346 2.6342 -2.22944 0
M  V30 720 C 67.3476 2.52912 -3.50228 0
M  V30 721 C 66.4826 3.80106 -3.7107 0
M  V30 722 C 65.5216 3.64279 -4.91902 0
M  V30 723 N 64.6586 4.834 -5.09184 0
M  V30 724 H 69.4986 0.975305 -2.81588 0
M  V30 725 H 67.0356 0.470299 -1.39379 0
M  V30 726 H 68.9936 3.41869 -2.39126 0
M  V30 727 H 67.6236 2.92687 -1.36139 0
M  V30 728 H 66.6756 1.6595 -3.42294 0
M  V30 729 H 67.9876 2.37133 -4.38827 0
M  V30 730 H 67.1416 4.66999 -3.87295 0
M  V30 731 H 65.8806 3.98799 -2.80733 0
M  V30 732 H 64.8856 2.7577 -4.75637 0
M  V30 733 H 66.1106 3.47067 -5.83714 0
M  V30 734 H 64.0566 5.02425 -4.21788 0
M  V30 735 H 63.9736 4.70311 -5.91898 0
M  V30 736 H 65.2416 5.71747 -5.29835 0
M  V30 737 N 69.4707 1.49531 0.497807 0
M  V30 738 C 70.7197 1.58426 1.24837 0
M  V30 739 C 71.0327 0.277643 1.93619 0
M  V30 740 O 72.2387 0.24517 2.70391 0
M  V30 741 C 70.6947 2.79538 2.26686 0
M  V30 742 C 70.3027 4.16971 1.63828 0
M  V30 743 C 72.0467 2.97764 3.0255 0
M  V30 744 C 69.9537 5.29301 2.63807 0
M  V30 745 H 68.8837 0.58989 0.469623 0
M  V30 746 H 71.5347 1.75923 0.521857 0
M  V30 747 H 69.9167 2.55542 3.02514 0
M  V30 748 H 71.0907 4.51116 0.939711 0
M  V30 749 H 69.4057 4.04129 1.00342 0
M  V30 750 H 72.0027 3.78856 3.77323 0
M  V30 751 H 72.3457 2.08448 3.60354 0
M  V30 752 H 72.8787 3.21815 2.33838 0
M  V30 753 H 69.6177 6.20687 2.10779 0
M  V30 754 H 69.1377 4.99606 3.31894 0
M  V30 755 H 70.8167 5.58768 3.2617 0
M  V30 756 N 70.9488 -0.749086 1.3866 0
M  V30 757 C 72.3598 -1.32664 1.31366 0
M  V30 758 C 72.7108 -1.96179 -0.028484 0
M  V30 759 O 71.8358 -1.9537 -0.93057 0
M  V30 760 C 72.4308 -2.41219 2.37905 0
M  V30 761 C 70.9898 -2.94684 2.34176 0
M  V30 762 C 70.1368 -1.68108 2.20533 0
M  V30 763 H 73.0878 -0.547628 1.48952 0
M  V30 764 H 73.1088 -3.21268 2.0388 0
M  V30 765 H 72.6208 -1.94962 3.35576 0
M  V30 766 H 70.7218 -3.45258 1.401 0
M  V30 767 H 70.8348 -3.48757 3.2849 0
M  V30 768 H 69.1988 -1.91907 1.67463 0
M  V30 769 H 69.9818 -1.23923 3.20153 0
M  V30 770 N 72.4269 -1.23603 -0.977757 0
M  V30 771 C 73.7039 -0.977897 -1.69401 0
M  V30 772 C 74.0839 0.502738 -2.05026 0
M  V30 773 O 73.4319 1.47459 -1.74551 0
M  V30 774 C 73.6419 -1.89077 -2.93345 0
M  V30 775 C 74.9899 -2.15579 -3.65802 0
M  V30 776 O 76.0139 -1.86648 -3.03383 0
M  V30 777 O 74.8729 -2.64658 -4.78141 0
M  V30 778 H 71.9669 -0.369025 -0.740101 0
M  V30 779 H 74.5129 -1.34657 -1.03274 0
M  V30 780 H 73.2849 -2.89158 -2.63634 0
M  V30 781 H 72.9079 -1.52463 -3.67207 0
M  V30 782 N 73.905 1.17692 -1.04816 0
M  V30 783 C 74.853 2.23632 -0.63966 0
M  V30 784 C 75.847 1.6601 0.337219 0
M  V30 785 O 77.053 1.78844 0.203693 0
M  V30 786 H 73.428 0.727949 -0.188665 0
M  V30 787 H 75.399 2.55387 -1.54337 0
M  V30 788 C 74.148 3.4769 -0.0264051 0
M  V30 789 H 73.471 3.92331 -0.769164 0
M  V30 790 H 74.911 4.23418 0.222098 0
M  V30 791 C 73.37 3.13807 1.22584 0
M  V30 792 O 73.9 3.28236 2.31569 0
M  V30 793 N 72.106 2.68065 1.12202 0
M  V30 794 H 71.653 2.56525 0.235133 0
M  V30 795 H 71.611 2.45767 1.96076 0
M  V30 796 N 75.3831 0.828654 1.34056 0
M  V30 797 C 76.3131 0.269443 2.3194 0
M  V30 798 C 77.2941 -0.617247 1.58506 0
M  V30 799 O 78.4791 -0.542931 1.86456 0
M  V30 800 C 75.6091 -0.564793 3.42677 0
M  V30 801 C 74.5631 0.225241 4.27407 0
M  V30 802 C 73.8891 -0.7321 5.29664 0
M  V30 803 C 75.1891 1.43663 5.02154 0
M  V30 804 H 76.8831 1.08728 2.7896 0
M  V30 805 H 74.4291 0.524283 1.34117 0
M  V30 806 H 76.3821 -0.966233 4.10173 0
M  V30 807 H 75.1061 -1.41574 2.9432 0
M  V30 808 H 73.7651 0.608117 3.61521 0
M  V30 809 H 73.4131 -1.57916 4.77568 0
M  V30 810 H 73.1131 -0.20767 5.87233 0
M  V30 811 H 74.6371 -1.13128 6.00029 0
M  V30 812 H 76.0511 1.1089 5.62473 0
M  V30 813 H 74.4481 1.89711 5.69324 0
M  V30 814 H 75.5181 2.21181 4.31517 0
M  V30 815 N 76.8612 -1.46375 0.584142 0
M  V30 816 C 78.2722 -1.86031 0.157959 0
M  V30 817 C 78.6232 -1.48753 -1.27933 0
M  V30 818 O 77.7482 -0.903098 -1.96655 0
M  V30 819 C 78.3432 -3.37642 0.279892 0
M  V30 820 C 76.9022 -3.76289 -0.09143 0
M  V30 821 C 76.0492 -2.7039 0.615178 0
M  V30 822 H 79.0002 -1.37509 0.792274 0
M  V30 823 H 79.0212 -3.77275 -0.494364 0
M  V30 824 H 78.5332 -3.64742 1.32607 0
M  V30 825 H 76.6342 -3.54806 -1.13769 0
M  V30 826 H 76.7472 -4.78246 0.285886 0
M  V30 827 H 75.1112 -2.5464 0.0552833 0
M  V30 828 H 75.8942 -3.0033 1.66303 0
M  V30 829 N 78.3393 -0.321999 -1.54275 0
M  V30 830 C 79.5863 0.281044 -2.0054 0
M  V30 831 C 79.9143 1.52265 -1.21019 0
M  V30 832 O 79.1693 1.93687 -0.279982 0
M  V30 833 C 79.4683 0.661769 -3.5122 0
M  V30 834 C 79.1343 -0.480482 -4.48333 0
M  V30 835 C 77.7963 -0.794005 -4.74604 0
M  V30 836 C 80.1483 -1.24783 -5.06042 0
M  V30 837 C 77.4763 -1.87763 -5.55844 0
M  V30 838 C 79.8283 -2.32153 -5.88462 0
M  V30 839 C 78.4923 -2.64089 -6.13036 0
M  V30 840 H 77.7623 0.102841 -0.733829 0
M  V30 841 H 80.4093 -0.445453 -1.86247 0
M  V30 842 H 78.7143 1.46867 -3.63232 0
M  V30 843 H 80.4113 1.13989 -3.84457 0
M  V30 844 H 77.0013 -0.226039 -4.28004 0
M  V30 845 H 81.1853 -1.01887 -4.85729 0
M  V30 846 H 76.4413 -2.12954 -5.73115 0
M  V30 847 H 80.6153 -2.92057 -6.32199 0
M  V30 848 H 78.2423 -3.48185 -6.75775 0
M  V30 849 N 79.8174 1.5752 -0.0501392 0
M  V30 850 C 81.0424 1.97376 0.636997 0
M  V30 851 C 81.4674 0.927466 1.63645 0
M  V30 852 O 80.8254 -0.10941 1.8097 0
M  V30 853 C 80.8734 3.36304 1.30123 0
M  V30 854 O 79.9774 3.34156 2.41689 0
M  V30 855 H 79.3184 0.642998 0.165679 0
M  V30 856 H 81.8484 2.04258 -0.118233 0
M  V30 857 H 81.8584 3.73008 1.65315 0
M  V30 858 H 80.5334 4.11993 0.568746 0
M  V30 859 H 79.1104 3.09196 2.08451 0
M  V30 860 N 81.2955 -0.223234 1.56011 0
M  V30 861 C 82.5235 -0.964812 1.83027 0
M  V30 862 C 82.9385 -1.78013 0.62904 0
M  V30 863 O 82.2955 -1.78008 -0.402414 0
M  V30 864 C 82.3465 -1.88373 3.08542 0
M  V30 865 O 82.0675 -1.10137 4.2403 0
M  V30 866 C 83.5685 -2.73934 3.48533 0
M  V30 867 H 80.7885 -0.282842 0.608475 0
M  V30 868 H 83.3325 -0.238971 2.03099 0
M  V30 869 H 81.4875 -2.56354 2.9045 0
M  V30 870 H 81.9015 -1.72501 4.95322 0
M  V30 871 H 83.3755 -3.34117 4.39397 0
M  V30 872 H 83.8525 -3.46244 2.70207 0
M  V30 873 H 84.4585 -2.11369 3.69057 0
M  V30 874 N 82.7736 -1.49793 -0.48987 0
M  V30 875 C 83.7206 -1.67281 -1.59014 0
M  V30 876 C 84.6906 -0.514177 -1.57941 0
M  V30 877 O 85.8756 -0.742533 -1.75759 0
M  V30 878 C 83.0156 -1.75569 -2.97102 0
M  V30 879 C 82.1286 -3.0281 -3.08107 0
M  V30 880 C 81.2636 -3.02008 -4.36995 0
M  V30 881 C 80.3026 -4.23782 -4.41673 0
M  V30 882 N 79.4396 -4.20826 -5.62005 0
M  V30 883 H 84.2796 -2.61224 -1.43409 0
M  V30 884 H 81.8166 -1.29508 -0.697565 0
M  V30 885 H 83.7746 -1.78354 -3.77155 0
M  V30 886 H 82.4046 -0.850827 -3.11385 0
M  V30 887 H 81.4566 -3.09584 -2.21047 0
M  V30 888 H 82.7686 -3.92801 -3.07423 0
M  V30 889 H 81.9226 -3.03418 -5.25378 0
M  V30 890 H 80.6616 -2.09815 -4.4026 0
M  V30 891 H 79.6666 -4.22604 -3.5169 0
M  V30 892 H 80.8916 -5.17181 -4.40115 0
M  V30 893 H 78.8376 -3.31476 -5.66091 0
M  V30 894 H 78.7546 -5.04564 -5.62984 0
M  V30 895 H 80.0226 -4.26355 -6.52565 0
M  V30 896 N 84.2517 0.741722 -1.39055 0
M  V30 897 C 85.1997 1.87702 -1.3737 0
M  V30 898 C 86.1937 1.67427 -0.257812 0
M  V30 899 O 87.3997 1.7485 -0.427489 0
M  V30 900 H 83.7747 0.617757 -0.428812 0
M  V30 901 H 85.7457 1.86239 -2.33147 0
M  V30 902 C 84.4947 3.25315 -1.22741 0
M  V30 903 H 83.8177 3.41509 -2.07873 0
M  V30 904 H 85.2577 4.04964 -1.25618 0
M  V30 905 C 83.7167 3.36838 0.0647316 0
M  V30 906 O 84.2467 3.88073 1.03741 0
M  V30 907 N 82.4527 2.90329 0.125544 0
M  V30 908 H 81.9997 2.48823 -0.666682 0
M  V30 909 H 81.9577 2.98418 0.989639 0
M  V30 910 N 85.7298 1.2412 0.971189 0
M  V30 911 C 86.6598 1.05508 2.08304 0
M  V30 912 C 87.6408 -0.0308864 1.70072 0
M  V30 913 O 88.8258 0.135521 1.93727 0
M  V30 914 C 85.9558 0.655365 3.4106 0
M  V30 915 C 84.9098 1.68971 3.93234 0
M  V30 916 C 84.2358 1.14516 5.22293 0
M  V30 917 C 85.5358 3.08487 4.21465 0
M  V30 918 H 87.2298 1.98507 2.24132 0
M  V30 919 H 84.7758 0.955821 1.07704 0
M  V30 920 H 86.7288 0.51217 4.18276 0
M  V30 921 H 85.4528 -0.31032 3.25122 0
M  V30 922 H 84.1118 1.82106 3.18171 0
M  V30 923 H 83.7598 0.170189 5.02712 0
M  V30 924 H 83.4598 1.83635 5.58168 0
M  V30 925 H 84.9838 1.01401 6.02121 0
M  V30 926 H 86.3978 2.98601 4.89398 0
M  V30 927 H 84.7948 3.74926 4.68562 0
M  V30 928 H 85.8648 3.56787 3.28376 0
M  V30 929 N 87.2079 -1.17134 1.05439 0
M  V30 930 C 88.4849 -1.83411 0.679699 0
M  V30 931 C 88.8649 -1.9368 -0.839726 0
M  V30 932 O 88.2129 -1.47325 -1.74664 0
M  V30 933 C 88.4229 -3.20918 1.37159 0
M  V30 934 C 89.7709 -3.96796 1.51123 0
M  V30 935 O 90.7949 -3.30406 1.3308 0
M  V30 936 O 89.6539 -5.15778 1.80651 0
M  V30 937 H 86.7479 -0.79154 0.239569 0
M  V30 938 H 89.2939 -1.24411 1.15413 0
M  V30 939 H 88.0659 -3.08428 2.40807 0
M  V30 940 H 87.6889 -3.87587 0.886674 0
M  V30 941 N 88.686 -0.835752 -1.33615 0
M  V30 942 C 89.616 -0.281739 -2.31794 0
M  V30 943 C 90.597 0.608833 -1.58831 0
M  V30 944 O 91.782 0.533035 -1.86741 0
M  V30 945 C 88.912 0.546612 -3.42971 0
M  V30 946 C 87.866 -0.247904 -4.27281 0
M  V30 947 C 87.192 0.704001 -5.30045 0
M  V30 948 C 88.492 -1.46324 -5.01385 0
M  V30 949 H 90.186 -1.10206 -2.78379 0
M  V30 950 H 87.732 -0.531388 -1.33837 0
M  V30 951 H 89.685 0.944467 -4.1068 0
M  V30 952 H 88.409 1.40011 -2.95067 0
M  V30 953 H 87.068 -0.627281 -3.61194 0
M  V30 954 H 86.716 1.55381 -4.78399 0
M  V30 955 H 86.416 0.176524 -5.87335 0
M  V30 956 H 87.94 1.09944 -6.0062 0
M  V30 957 H 89.354 -1.13871 -5.61877 0
M  V30 958 H 87.751 -1.92728 -5.6831 0
M  V30 959 H 88.821 -2.23467 -4.30338 0
M  V30 960 N 90.1641 1.46063 -0.591896 0
M  V30 961 C 91.3891 2.07226 -0.0850314 0
M  V30 962 C 91.8141 1.43625 1.21463 0
M  V30 963 O 91.1721 0.523305 1.73583 0
M  V30 964 C 91.2201 3.60554 0.0576567 0
M  V30 965 O 90.3241 3.97128 1.11188 0
M  V30 966 H 89.6651 0.660615 -0.0669568 0
M  V30 967 H 92.1951 1.8756 -0.81745 0
M  V30 968 H 92.2051 4.07165 0.2609 0
M  V30 969 H 90.8801 4.06235 -0.891416 0
M  V30 970 H 89.4571 3.62213 0.886356 0
M  V30 971 N 91.6422 0.330177 1.54103 0
M  V30 972 C 92.8892 -0.270405 2.00686 0
M  V30 973 C 93.2172 -1.51621 1.21825 0
M  V30 974 O 92.4722 -1.93536 0.29025 0
M  V30 975 C 92.7712 -0.643134 3.51566 0
M  V30 976 C 92.4372 0.504251 4.48072 0
M  V30 977 C 91.0992 0.819163 4.74176 0
M  V30 978 C 93.4512 1.27465 5.05373 0
M  V30 979 C 90.7792 1.90708 5.5484 0
M  V30 980 C 93.1312 2.35271 5.87223 0
M  V30 981 C 91.7952 2.67336 6.11627 0
M  V30 982 H 91.0652 -0.0989482 0.734364 0
M  V30 983 H 93.7122 0.455324 1.86008 0
M  V30 984 H 92.0172 -1.44938 3.64006 0
M  V30 985 H 93.7142 -1.11949 3.85056 0
M  V30 986 H 90.3042 0.248733 4.27878 0
M  V30 987 H 94.4882 1.04462 4.85182 0
M  V30 988 H 89.7442 2.15991 5.71977 0
M  V30 989 H 93.9182 2.95405 6.30641 0
M  V30 990 H 91.5452 3.51763 6.73919 0
M  V30 991 N 93.1203 -1.57491 0.0584922 0
M  V30 992 C 94.0683 -2.13148 -0.931168 0
M  V30 993 C 95.0623 -1.06507 -1.31729 0
M  V30 994 O 96.2683 -1.24906 -1.29609 0
M  V30 995 H 92.6433 -0.68137 -0.31818 0
M  V30 996 H 94.6143 -2.95187 -0.436707 0
M  V30 997 C 93.3633 -2.69732 -2.19408 0
M  V30 998 H 92.6863 -3.51454 -1.90578 0
M  V30 999 H 94.1263 -3.12287 -2.86798 0
M  V30 1000 C 92.5853 -1.63855 -2.94369 0
M  V30 1001 O 93.1153 -1.05565 -3.87581 0
M  V30 1002 N 91.3213 -1.35202 -2.57233 0
M  V30 1003 H 90.8683 -1.82791 -1.81508 0
M  V30 1004 H 90.8263 -0.645922 -3.07693 0
M  V30 1005 N 94.5984 0.214957 -1.56127 0
M  V30 1006 C 96.0094 0.781386 -1.69562 0
M  V30 1007 C 96.3604 1.84707 -0.66165 0
M  V30 1008 O 95.4854 2.156 0.185927 0
M  V30 1009 C 96.0804 1.42411 -3.07416 0
M  V30 1010 C 94.6394 1.93786 -3.22683 0
M  V30 1011 C 93.7864 0.800438 -2.65496 0
M  V30 1012 H 96.7374 -0.00980633 -1.58697 0
M  V30 1013 H 96.7584 2.29309 -3.0364 0
M  V30 1014 H 96.2704 0.64826 -3.82648 0
M  V30 1015 H 94.3714 2.74152 -2.52332 0
M  V30 1016 H 94.4844 2.1133 -4.29973 0
M  V30 1017 H 92.8484 1.2095 -2.2415 0
M  V30 1018 H 93.6314 0.0371471 -3.4328 0
M  V30 1019 N 96.0765 1.50051 0.48192 0
M  V30 1020 C 97.0065 1.71046 1.58951 0
M  V30 1021 C 97.9875 0.559288 1.60642 0
M  V30 1022 O 99.1725 0.797243 1.77081 0
M  V30 1023 C 96.3025 1.79462 2.97339 0
M  V30 1024 C 95.2565 2.94558 3.10515 0
M  V30 1025 C 94.5825 2.88105 4.50444 0
M  V30 1026 C 95.8825 4.35227 2.88747 0
M  V30 1027 H 97.5765 2.6378 1.41635 0
M  V30 1028 H 95.1225 1.26936 0.679942 0
M  V30 1029 H 97.0755 1.92734 3.74742 0
M  V30 1030 H 95.7995 0.833412 3.15788 0
M  V30 1031 H 94.4585 2.80918 2.35543 0
M  V30 1032 H 94.1065 1.89853 4.65795 0
M  V30 1033 H 93.8065 3.65366 4.60197 0
M  V30 1034 H 95.3305 3.03412 5.29881 0
M  V30 1035 H 96.7445 4.49449 3.55905 0
M  V30 1036 H 95.1415 5.13856 3.09955 0
M  V30 1037 H 96.2115 4.48347 1.84696 0
M  V30 1038 N 97.5546 -0.734337 1.39446 0
M  V30 1039 C 98.9706 -1.03997 1.21065 0
M  V30 1040 C 99.1706 -2.01369 0.0727019 0
M  V30 1041 O 98.2266 -2.45856 -0.575426 0
M  V30 1042 C 99.5396 -1.60163 2.54496 0
M  V30 1043 C 101.088 -1.7224 2.61347 0
M  V30 1044 C 101.563 -2.31814 3.95002 0
M  V30 1045 N 103.054 -2.39223 3.96644 0
M  V30 1046 C 103.789 -2.86258 4.96834 0
M  V30 1047 N 103.285 -3.33184 6.07421 0
M  V30 1048 N 105.078 -2.85473 4.84213 0
M  V30 1049 H 97.2286 -0.0885624 2.12215 0
M  V30 1050 H 99.4916 -0.10191 0.942506 0
M  V30 1051 H 99.1976 -0.960811 3.38321 0
M  V30 1052 H 99.0716 -2.5896 2.74262 0
M  V30 1053 H 101.459 -2.35443 1.77906 0
M  V30 1054 H 101.54 -0.720939 2.4543 0
M  V30 1055 H 101.184 -1.69238 4.78875 0
M  V30 1056 H 101.114 -3.32638 4.08239 0
M  V30 1057 H 103.605 -2.06057 3.16779 0
M  V30 1058 H 103.918 -3.67586 6.7978 0
M  V30 1059 H 102.263 -3.31191 6.11013 0
M  V30 1060 H 105.454 -2.48136 3.96921 0
M  V30 1061 H 105.627 -3.21814 5.62441 0
M  V30 1062 N 99.0327 -1.24633 -0.964593 0
M  V30 1063 C 99.9827 -1.00841 -2.04487 0
M  V30 1064 C 100.967 0.0512468 -1.60818 0
M  V30 1065 O 102.159 -0.162865 -1.76249 0
M  V30 1066 C 99.2877 -0.618474 -3.37683 0
M  V30 1067 C 98.3737 -1.71437 -3.87905 0
M  V30 1068 N 98.7647 -2.9477 -4.11029 0
M  V30 1069 C 97.0627 -1.5926 -4.16596 0
M  V30 1070 C 97.7637 -3.65834 -4.52261 0
M  V30 1071 N 96.7397 -2.9341 -4.57615 0
M  V30 1072 H 100.542 -1.94487 -2.20345 0
M  V30 1073 H 98.0557 -1.14805 -1.14863 0
M  V30 1074 H 100.053 -0.429247 -4.14684 0
M  V30 1075 H 98.7127 0.310766 -3.23209 0
M  V30 1076 H 99.7237 -3.30917 -3.9839 0
M  V30 1077 H 96.4007 -0.731606 -4.1104 0
M  V30 1078 H 97.7907 -4.71646 -4.78539 0
M  V30 1079 N 100.511 1.16574 -1.06058 0
M  V30 1080 C 101.441 2.23057 -0.690488 0
M  V30 1081 C 102.422 1.67141 0.315901 0
M  V30 1082 O 103.607 1.93253 0.191556 0
M  V30 1083 C 100.737 3.47222 -0.073625 0
M  V30 1084 C 99.6908 4.16016 -1.00573 0
M  V30 1085 C 99.0168 5.34104 -0.252289 0
M  V30 1086 C 100.317 4.67264 -2.33371 0
M  V30 1087 H 102.011 2.54271 -1.58072 0
M  V30 1088 H 99.5568 1.22218 -0.76149 0
M  V30 1089 H 101.51 4.20939 0.19714 0
M  V30 1090 H 100.234 3.15302 0.85161 0
M  V30 1091 H 98.8928 3.44223 -1.2612 0
M  V30 1092 H 98.5408 4.98437 0.675988 0
M  V30 1093 H 98.2408 5.81072 -0.873455 0
M  V30 1094 H 99.7648 6.10599 0.0109857 0
M  V30 1095 H 101.179 5.32573 -2.12223 0
M  V30 1096 H 99.5758 5.24843 -2.90963 0
M  V30 1097 H 100.646 3.83602 -2.96611 0
M  V30 1098 N 101.989 0.842826 1.3317 0
M  V30 1099 C 103.237 0.439577 1.97262 0
M  V30 1100 C 103.558 -1.00548 1.67078 0
M  V30 1101 O 102.828 -1.70098 0.971779 0
M  V30 1102 H 101.408 0.159558 0.72976 0
M  V30 1103 H 104.07 1.07665 1.62463 0
M  V30 1104 H 103.166 0.574886 3.0676 0
M  V30 1105 N 103.467 -1.45747 0.599634 0
M  V30 1106 C 104.692 -2.07178 0.0960198 0
M  V30 1107 C 105.117 -1.44268 -1.207 0
M  V30 1108 O 104.475 -0.532503 -1.73303 0
M  V30 1109 C 104.523 -3.60579 -0.0385348 0
M  V30 1110 O 103.627 -3.97713 -1.0908 0
M  V30 1111 H 102.968 -0.660251 0.0704593 0
M  V30 1112 H 105.498 -1.87124 0.827385 0
M  V30 1113 H 105.508 -4.07298 -0.239304 0
M  V30 1114 H 104.183 -4.05756 0.912947 0
M  V30 1115 H 102.76 -3.62678 -0.867135 0
M  V30 1116 N 104.945 -0.338344 -1.53925 0
M  V30 1117 C 106.175 0.260919 -2.04946 0
M  V30 1118 C 106.583 1.45174 -1.2133 0
M  V30 1119 O 105.926 1.82122 -0.240262 0
M  V30 1120 C 105.988 0.744596 -3.51704 0
M  V30 1121 C 105.652 -0.325883 -4.55837 0
M  V30 1122 C 106.649 -1.16687 -5.06636 0
M  V30 1123 C 104.334 -0.478317 -5.00017 0
M  V30 1124 C 106.328 -2.14588 -6.00192 0
M  V30 1125 C 104.015 -1.46073 -5.93385 0
M  V30 1126 C 105.013 -2.29297 -6.4336 0
M  V30 1127 O 104.701 -3.25867 -7.34892 0
M  V30 1128 H 104.433 0.0551207 -0.673749 0
M  V30 1129 H 106.987 -0.486984 -1.99544 0
M  V30 1130 H 105.217 1.54366 -3.54553 0
M  V30 1131 H 106.906 1.26383 -3.85723 0
M  V30 1132 H 107.672 -1.06016 -4.73271 0
M  V30 1133 H 103.551 0.159613 -4.60724 0
M  V30 1134 H 107.095 -2.79585 -6.39123 0
M  V30 1135 H 102.992 -1.56802 -6.26166 0
M  V30 1136 H 103.76 -3.21278 -7.5281 0
M  V30 1137 N 106.423 1.57458 -0.0668435 0
M  V30 1138 C 107.648 1.9804 0.616027 0
M  V30 1139 C 108.073 0.944771 1.62652 0
M  V30 1140 O 107.431 -0.0902094 1.81075 0
M  V30 1141 C 107.479 3.37665 1.26549 0
M  V30 1142 O 106.583 3.36701 2.38131 0
M  V30 1143 H 105.924 0.644719 0.158849 0
M  V30 1144 H 108.454 2.04121 -0.139891 0
M  V30 1145 H 108.464 3.7474 1.6135 0
M  V30 1146 H 107.139 4.12573 0.525016 0
M  V30 1147 H 105.716 3.1139 2.0516 0
M  V30 1148 N 107.901 -0.206675 1.56239 0
M  V30 1149 C 109.148 -0.928842 1.79941 0
M  V30 1150 C 109.476 -1.83734 0.638131 0
M  V30 1151 O 108.731 -1.92039 -0.376746 0
M  V30 1152 C 109.03 -1.78675 3.09532 0
M  V30 1153 C 108.696 -1.03022 4.38973 0
M  V30 1154 C 107.358 -0.821302 4.74139 0
M  V30 1155 C 109.71 -0.497081 5.18824 0
M  V30 1156 C 107.038 -0.0675719 5.86661 0
M  V30 1157 C 109.39 0.24338 6.32132 0
M  V30 1158 C 108.054 0.463422 6.65889 0
M  V30 1159 H 107.324 -0.339887 0.658451 0
M  V30 1160 H 109.971 -0.195977 1.90495 0
M  V30 1161 H 108.276 -2.58794 2.94165 0
M  V30 1162 H 109.973 -2.34792 3.25075 0
M  V30 1163 H 106.563 -1.20306 4.11369 0
M  V30 1164 H 110.747 -0.645921 4.92079 0
M  V30 1165 H 106.003 0.112995 6.11296 0
M  V30 1166 H 110.177 0.66393 6.93228 0
M  V30 1167 H 107.804 1.04938 7.52922 0
M  V30 1168 N 109.379 -1.50304 -0.473955 0
M  V30 1169 C 110.626 -1.6115 -1.22625 0
M  V30 1170 C 110.954 -0.310517 -1.92005 0
M  V30 1171 O 110.209 0.703419 -1.82621 0
M  V30 1172 C 110.508 -2.73938 -2.29549 0
M  V30 1173 C 110.174 -4.14519 -1.7744 0
M  V30 1174 C 108.836 -4.5277 -1.62949 0
M  V30 1175 C 111.188 -5.02392 -1.3875 0
M  V30 1176 C 108.516 -5.76639 -1.08187 0
M  V30 1177 C 110.868 -6.26805 -0.854309 0
M  V30 1178 C 109.532 -6.63861 -0.696011 0
M  V30 1179 H 108.802 -0.589691 -0.448715 0
M  V30 1180 H 111.449 -1.84228 -0.522705 0
M  V30 1181 H 109.754 -2.44937 -3.05799 0
M  V30 1182 H 111.451 -2.79534 -2.87509 0
M  V30 1183 H 108.041 -3.8434 -1.89685 0
M  V30 1184 H 112.225 -4.73474 -1.4878 0
M  V30 1185 H 107.481 -6.04027 -0.946666 0
M  V30 1186 H 111.655 -6.94258 -0.545843 0
M  V30 1187 H 109.282 -7.59722 -0.26952 0
M  V30 1188 N 110.857 0.726932 -1.39834 0
M  V30 1189 C 112.082 1.52121 -1.40976 0
M  V30 1190 C 112.507 1.88098 -0.00826029 0
M  V30 1191 O 111.865 1.52479 0.980807 0
M  V30 1192 C 111.913 2.78021 -2.29644 0
M  V30 1193 O 111.017 3.74272 -1.73188 0
M  V30 1194 H 110.358 0.45908 -0.479731 0
M  V30 1195 H 112.888 0.896207 -1.83927 0
M  V30 1196 H 112.898 3.26671 -2.44438 0
M  V30 1197 H 111.573 2.51169 -3.31492 0
M  V30 1198 H 110.15 3.33073 -1.6768 0
M  V30 1199 N 112.336 1.25143 0.95797 0
M  V30 1200 C 113.583 1.09692 1.70217 0
M  V30 1201 C 113.911 -0.362654 1.91089 0
M  V30 1202 O 113.166 -1.28386 1.47701 0
M  V30 1203 C 113.465 1.79272 3.09187 0
M  V30 1204 C 113.131 3.29196 3.08125 0
M  V30 1205 C 111.793 3.70096 3.07543 0
M  V30 1206 C 114.145 4.24995 3.0171 0
M  V30 1207 C 111.473 5.05213 2.9829 0
M  V30 1208 C 113.825 5.60132 2.93999 0
M  V30 1209 C 112.489 6.00365 2.9175 0
M  V30 1210 H 111.759 0.401393 0.622868 0
M  V30 1211 H 114.406 1.55372 1.11945 0
M  V30 1212 H 112.711 1.26014 3.70982 0
M  V30 1213 H 114.408 1.64773 3.65583 0
M  V30 1214 H 110.998 2.96651 3.09348 0
M  V30 1215 H 115.182 3.9439 3.01281 0
M  V30 1216 H 110.438 5.35569 2.94916 0
M  V30 1217 H 114.612 6.3406 2.87996 0
M  V30 1218 H 112.239 7.05023 2.84336 0
M  V30 1219 N 113.814 -1.1601 1.06675 0
M  V30 1220 C 115.225 -1.68235 0.809565 0
M  V30 1221 C 115.576 -1.8454 -0.666303 0
M  V30 1222 O 114.701 -1.54374 -1.5165 0
M  V30 1223 C 115.296 -3.05585 1.46299 0
M  V30 1224 C 113.855 -3.54915 1.25349 0
M  V30 1225 C 113.002 -2.30804 1.53703 0
M  V30 1226 H 115.953 -1.00318 1.22971 0
M  V30 1227 H 115.974 -3.70174 0.880431 0
M  V30 1228 H 115.486 -2.93686 2.53713 0
M  V30 1229 H 113.587 -3.72067 0.199261 0
M  V30 1230 H 113.7 -4.36774 1.9689 0
M  V30 1231 H 112.064 -2.36007 0.957739 0
M  V30 1232 H 112.847 -2.21499 2.62284 0
M  V30 1233 N 115.292 -0.849877 -1.32721 0
M  V30 1234 C 116.202 -0.293791 -2.32753 0
M  V30 1235 C 117.218 0.585906 -1.63839 0
M  V30 1236 O 118.394 0.487413 -1.95413 0
M  V30 1237 C 115.459 0.512752 -3.42887 0
M  V30 1238 C 114.52 -0.39252 -4.27502 0
M  V30 1239 C 113.753 0.375625 -5.32377 0
M  V30 1240 O 113.976 1.60613 -5.4732 0
M  V30 1241 O 112.91 -0.256094 -6.01355 0
M  V30 1242 H 116.736 -1.12242 -2.82197 0
M  V30 1243 H 114.321 -0.612685 -1.36259 0
M  V30 1244 H 116.203 0.970704 -4.10067 0
M  V30 1245 H 114.878 1.31826 -2.95641 0
M  V30 1246 H 113.785 -0.898547 -3.63149 0
M  V30 1247 H 115.118 -1.16309 -4.7826 0
M  V30 1248 N 116.77 1.45427 -0.607355 0
M  V30 1249 C 117.7 2.3329 0.0989352 0
M  V30 1250 C 118.681 1.46816 0.859007 0
M  V30 1251 O 119.866 1.75588 0.829604 0
M  V30 1252 C 116.996 3.29518 1.09705 0
M  V30 1253 C 115.95 4.25626 0.450206 0
M  V30 1254 C 115.276 5.11542 1.55655 0
M  V30 1255 C 116.576 5.18505 -0.628455 0
M  V30 1256 H 118.27 2.92595 -0.634716 0
M  V30 1257 H 115.816 1.40696 -0.306681 0
M  V30 1258 H 117.769 3.89855 1.59971 0
M  V30 1259 H 116.493 2.68372 1.86129 0
M  V30 1260 H 115.152 3.66586 -0.0315886 0
M  V30 1261 H 114.8 4.46765 2.31107 0
M  V30 1262 H 114.5 5.76647 1.12925 0
M  V30 1263 H 116.024 5.74748 2.06148 0
M  V30 1264 H 117.438 5.72916 -0.209877 0
M  V30 1265 H 115.835 5.92085 -0.977489 0
M  V30 1266 H 116.905 4.60948 -1.50514 0
M  V30 1267 N 118.248 0.346503 1.53744 0
M  V30 1268 C 119.18 -0.543316 2.22667 0
M  V30 1269 C 120.193 -1.06159 1.23427 0
M  V30 1270 O 121.382 -0.971235 1.49764 0
M  V30 1271 C 118.482 -1.76076 2.89569 0
M  V30 1272 C 117.655 -1.37727 4.15151 0
M  V30 1273 C 116.714 -2.45471 4.65436 0
M  V30 1274 O 115.74 -2.08655 5.29577 0
M  V30 1275 N 116.942 -3.7677 4.41616 0
M  V30 1276 H 119.707 0.0469703 2.99663 0
M  V30 1277 H 117.268 0.170766 1.60997 0
M  V30 1278 H 119.26 -2.47593 3.20125 0
M  V30 1279 H 117.83 -2.25835 2.16142 0
M  V30 1280 H 117.05 -0.492746 3.91108 0
M  V30 1281 H 118.338 -1.09708 4.96832 0
M  V30 1282 H 117.736 -4.09467 3.90325 0
M  V30 1283 H 116.293 -4.44448 4.7677 0
M  V30 1284 N 119.726 -1.57421 0.075193 0
M  V30 1285 C 120.972 -1.93905 -0.594025 0
M  V30 1286 C 121.305 -0.955701 -1.69056 0
M  V30 1287 O 120.58 0.0145373 -1.94495 0
M  V30 1288 C 120.863 -3.40638 -1.1678 0
M  V30 1289 C 120.716 -4.49733 -0.0776792 0
M  V30 1290 C 122.035 -3.88259 -2.07228 0
M  V30 1291 H 119.154 -0.705105 -0.214466 0
M  V30 1292 H 121.796 -1.8947 0.141854 0
M  V30 1293 H 119.946 -3.44549 -1.79494 0
M  V30 1294 H 121.618 -4.57942 0.555573 0
M  V30 1295 H 119.861 -4.29751 0.591286 0
M  V30 1296 H 120.532 -5.49549 -0.519603 0
M  V30 1297 H 123.008 -3.86376 -1.54445 0
M  V30 1298 H 121.884 -4.91533 -2.44308 0
M  V30 1299 H 122.145 -3.26396 -2.98191 0
M  V30 1300 N 121.204 0.198386 -1.56346 0
M  V30 1301 C 122.134 1.24865 -1.9731 0
M  V30 1302 C 123.115 1.47651 -0.844576 0
M  V30 1303 O 124.3 1.59444 -1.10866 0
M  V30 1304 C 121.43 2.59358 -2.30977 0
M  V30 1305 C 120.384 2.5119 -3.46537 0
M  V30 1306 C 119.71 3.89926 -3.65871 0
M  V30 1307 C 121.01 2.03977 -4.80823 0
M  V30 1308 H 122.704 0.908252 -2.85291 0
M  V30 1309 H 120.25 0.435462 -1.37258 0
M  V30 1310 H 122.203 3.33011 -2.58228 0
M  V30 1311 H 120.927 2.95132 -1.39874 0
M  V30 1312 H 119.586 1.79993 -3.19371 0
M  V30 1313 H 119.234 4.23046 -2.72105 0
M  V30 1314 H 118.934 3.85336 -4.4361 0
M  V30 1315 H 120.458 4.65205 -3.95495 0
M  V30 1316 H 121.872 2.67386 -5.07127 0
M  V30 1317 H 120.269 2.10397 -5.62008 0
M  V30 1318 H 121.339 0.992861 -4.74626 0
M  V30 1319 N 122.682 1.50554 0.465978 0
M  V30 1320 C 123.959 1.5232 1.22712 0
M  V30 1321 C 124.339 0.270807 2.09356 0
M  V30 1322 O 123.687 -0.745541 2.15995 0
M  V30 1323 C 123.897 2.82175 2.05374 0
M  V30 1324 C 125.245 3.33033 2.6339 0
M  V30 1325 O 126.269 2.83531 2.15612 0
M  V30 1326 O 125.128 4.19336 3.50456 0
M  V30 1327 H 122.222 0.611183 0.557122 0
M  V30 1328 H 124.768 1.62847 0.477381 0
M  V30 1329 H 123.54 3.64797 1.41558 0
M  V30 1330 H 123.163 2.74675 2.87471 0
M  V30 1331 N 124.16 -0.719506 1.40217 0
M  V30 1332 C 125.09 -1.8465 1.42922 0
M  V30 1333 C 126.071 -1.67599 0.29062 0
M  V30 1334 O 127.256 -1.87688 0.498677 0
M  V30 1335 C 124.386 -3.22565 1.28722 0
M  V30 1336 C 123.34 -3.54281 2.40144 0
M  V30 1337 C 122.666 -4.91298 2.11023 0
M  V30 1338 C 123.966 -3.55676 3.82481 0
M  V30 1339 H 125.66 -1.82644 2.37237 0
M  V30 1340 H 123.206 -0.877305 1.1419 0
M  V30 1341 H 125.159 -4.01095 1.29232 0
M  V30 1342 H 123.883 -3.25137 0.308811 0
M  V30 1343 H 122.542 -2.78088 2.38877 0
M  V30 1344 H 122.19 -4.90468 1.11582 0
M  V30 1345 H 121.89 -5.13485 2.8567 0
M  V30 1346 H 123.414 -5.72166 2.13209 0
M  V30 1347 H 124.828 -4.24254 3.85592 0
M  V30 1348 H 123.225 -3.89388 4.56614 0
M  V30 1349 H 124.295 -2.55144 4.12346 0
M  V30 1350 N 125.638 -1.25649 -0.95132 0
M  V30 1351 C 126.863 -1.13443 -1.73624 0
M  V30 1352 C 127.288 0.307565 -1.85568 0
M  V30 1353 O 126.646 1.22282 -1.33854 0
M  V30 1354 C 126.694 -1.79723 -3.12621 0
M  V30 1355 O 125.798 -1.07912 -3.98031 0
M  V30 1356 H 125.139 -0.395872 -0.533086 0
M  V30 1357 H 127.669 -1.66276 -1.1922 0
M  V30 1358 H 127.679 -1.86141 -3.63064 0
M  V30 1359 H 126.354 -2.84633 -3.03244 0
M  V30 1360 H 124.931 -1.09398 -3.56492 0
M  V30 1361 N 127.117 1.15442 -1.07289 0
M  V30 1362 C 128.533 1.38201 -0.798288 0
M  V30 1363 C 128.733 1.92429 0.597769 0
M  V30 1364 O 127.789 2.12962 1.3566 0
M  V30 1365 C 129.102 2.35357 -1.87156 0
M  V30 1366 C 130.65 2.49021 -1.89624 0
M  V30 1367 C 131.125 3.49468 -2.96034 0
M  V30 1368 N 132.616 3.57003 -2.95132 0
M  V30 1369 C 133.351 4.34543 -3.74112 0
M  V30 1370 N 132.847 5.15421 -4.6294 0
M  V30 1371 N 134.64 4.29625 -3.62462 0
M  V30 1372 H 126.791 0.78584 -1.97328 0
M  V30 1373 H 129.054 0.408065 -0.855679 0
M  V30 1374 H 128.76 2.02626 -2.87464 0
M  V30 1375 H 128.634 3.35129 -1.73114 0
M  V30 1376 H 131.021 2.81051 -0.899687 0
M  V30 1377 H 131.102 1.4925 -2.07745 0
M  V30 1378 H 130.746 3.18173 -3.95889 0
M  V30 1379 H 130.676 4.48992 -2.75161 0
M  V30 1380 H 133.167 2.99276 -2.30743 0
M  V30 1381 H 133.48 5.7183 -5.19837 0
M  V30 1382 H 131.825 5.14729 -4.66989 0
M  V30 1383 H 135.016 3.65505 -2.92444 0
M  V30 1384 H 135.189 4.89807 -4.24256 0
M  V30 1385 N 128.595 0.856903 1.32268 0
M  V30 1386 C 129.835 0.467705 1.98977 0
M  V30 1387 C 130.199 -0.959231 1.66321 0
M  V30 1388 O 131.4 -1.4531 2.26138 0
M  V30 1389 C 129.671 0.70256 3.50427 0
M  V30 1390 S 131.23 0.411269 4.36868 0
M  V30 1391 H 128.048 0.175121 0.689096 0
M  V30 1392 H 130.65 1.1101 1.60925 0
M  V30 1393 H 129.354 1.74012 3.71683 0
M  V30 1394 H 128.885 0.0466707 3.93372 0
M  V30 1395 H 130.9 -0.761799 4.90317 0
M  V30 1396 N 130.073 -1.45103 0.615059 0
M  V30 1397 C 130.983 -2.34382 -0.101034 0
M  V30 1398 C 131.999 -1.51681 -0.852585 0
M  V30 1399 O 133.175 -1.8446 -0.808484 0
M  V30 1400 C 130.24 -3.29417 -1.08099 0
M  V30 1401 C 129.301 -4.28025 -0.330577 0
M  V30 1402 C 128.534 -5.1852 -1.26385 0
M  V30 1403 O 128.757 -5.12598 -2.50198 0
M  V30 1404 O 127.691 -5.97122 -0.756866 0
M  V30 1405 H 131.517 -2.97033 0.632855 0
M  V30 1406 H 129.102 -1.4461 0.375293 0
M  V30 1407 H 130.984 -3.87958 -1.6452 0
M  V30 1408 H 129.659 -2.69321 -1.79577 0
M  V30 1409 H 128.566 -3.73078 0.276283 0
M  V30 1410 H 129.899 -4.90997 0.343866 0
M  V30 1411 N 131.551 -0.354651 -1.53558 0
M  V30 1412 C 132.8 0.239504 -2.00273 0
M  V30 1413 C 133.113 1.50759 -1.24623 0
M  V30 1414 O 134.319 2.17968 -1.61871 0
M  V30 1415 C 132.775 0.477341 -3.5672 0
M  V30 1416 C 132.383 -0.775488 -4.41237 0
M  V30 1417 C 134.127 1.02975 -4.11821 0
M  V30 1418 C 132.034 -0.507838 -5.89216 0
M  V30 1419 H 130.964 0.0932743 -0.748208 0
M  V30 1420 H 133.615 -0.471701 -1.77334 0
M  V30 1421 H 131.997 1.24953 -3.7577 0
M  V30 1422 H 133.171 -1.54963 -4.33962 0
M  V30 1423 H 131.486 -1.25033 -3.97185 0
M  V30 1424 H 134.083 1.24513 -5.2 0
M  V30 1425 H 134.426 1.98862 -3.65731 0
M  V30 1426 H 134.959 0.317994 -3.96527 0
M  V30 1427 H 131.698 -1.43674 -6.39561 0
M  V30 1428 H 131.218 0.228011 -5.99366 0
M  V30 1429 H 132.897 -0.129238 -6.46871 0
M  V30 1430 N 133.029 1.57378 -0.0835403 0
M  V30 1431 C 133.961 2.10389 0.909338 0
M  V30 1432 C 134.974 1.03858 1.25369 0
M  V30 1433 O 136.163 1.31338 1.20882 0
M  V30 1434 C 133.263 2.55908 2.2218 0
M  V30 1435 C 132.436 3.86145 2.05453 0
M  V30 1436 C 131.495 4.17633 3.20108 0
M  V30 1437 O 130.521 4.87043 2.94581 0
M  V30 1438 N 131.723 3.72113 4.45547 0
M  V30 1439 H 134.488 2.962 0.456657 0
M  V30 1440 H 132.049 1.61579 0.101877 0
M  V30 1441 H 134.041 2.74027 2.97811 0
M  V30 1442 H 132.611 1.75171 2.58909 0
M  V30 1443 H 131.831 3.7729 1.1422 0
M  V30 1444 H 133.119 4.7137 1.91541 0
M  V30 1445 H 132.517 3.16062 4.69171 0
M  V30 1446 H 131.074 3.95409 5.18165 0
M  V30 1447 N 134.507 -0.190092 1.56449 0
M  V30 1448 C 135.735 -0.925772 1.85033 0
M  V30 1449 C 136.15 -1.76638 0.666658 0
M  V30 1450 O 135.507 -1.78822 -0.364565 0
M  V30 1451 C 135.558 -1.81786 3.12468 0
M  V30 1452 O 135.279 -1.01118 4.26271 0
M  V30 1453 C 136.78 -2.6648 3.54265 0
M  V30 1454 H 134 -0.269872 0.614337 0
M  V30 1455 H 136.544 -0.195837 2.0356 0
M  V30 1456 H 134.699 -2.50136 2.95822 0
M  V30 1457 H 135.113 -1.61956 4.98869 0
M  V30 1458 H 136.587 -3.24722 4.46385 0
M  V30 1459 H 137.064 -3.40434 2.77491 0
M  V30 1460 H 137.67 -2.03493 3.73458 0
M  V30 1461 N 135.985 -1.50799 -0.457987 0
M  V30 1462 C 137.234 -1.6168 -1.20593 0
M  V30 1463 C 137.547 -0.32888 -1.92815 0
M  V30 1464 O 138.753 -0.316773 -2.69646 0
M  V30 1465 C 137.209 -2.8545 -2.19195 0
M  V30 1466 C 136.817 -4.21168 -1.52715 0
M  V30 1467 C 138.561 -3.05681 -2.94549 0
M  V30 1468 C 136.468 -5.3611 -2.4968 0
M  V30 1469 H 135.398 -0.602134 -0.453818 0
M  V30 1470 H 138.049 -1.77245 -0.475031 0
M  V30 1471 H 136.431 -2.63472 -2.95632 0
M  V30 1472 H 137.605 -4.53449 -0.819775 0
M  V30 1473 H 135.92 -4.06648 -0.895922 0
M  V30 1474 H 138.517 -3.88727 -3.67145 0
M  V30 1475 H 138.86 -2.17929 -3.54701 0
M  V30 1476 H 139.393 -3.27901 -2.25223 0
M  V30 1477 H 136.132 -6.26057 -1.94249 0
M  V30 1478 H 135.652 -5.0823 -3.18532 0
M  V30 1479 H 137.331 -5.6722 -3.11241 0
M  V30 1480 N 137.463 0.71206 -1.40597 0
M  V30 1481 C 138.373 1.8562 -1.43466 0
M  V30 1482 C 139.389 1.70902 -0.326902 0
M  V30 1483 O 140.565 1.93105 -0.572043 0
M  V30 1484 C 137.63 3.21451 -1.29884 0
M  V30 1485 C 136.691 3.48398 -2.50833 0
M  V30 1486 C 135.924 4.77749 -2.3789 0
M  V30 1487 O 136.147 5.53089 -1.39459 0
M  V30 1488 O 135.081 5.05111 -3.27333 0
M  V30 1489 H 138.907 1.86155 -2.39958 0
M  V30 1490 H 136.492 0.86295 -1.21957 0
M  V30 1491 H 138.374 4.02579 -1.24531 0
M  V30 1492 H 137.049 3.21636 -0.364997 0
M  V30 1493 H 135.956 2.67265 -2.61763 0
M  V30 1494 H 137.289 3.53014 -3.4299 0
M  V30 1495 N 138.941 1.26152 0.944643 0
M  V30 1496 C 140.218 1.02247 1.66748 0
M  V30 1497 C 140.598 -0.448202 2.06287 0
M  V30 1498 O 139.946 -1.42779 1.78399 0
M  V30 1499 C 140.156 1.96788 2.88228 0
M  V30 1500 C 141.504 2.25201 3.59958 0
M  V30 1501 O 142.528 1.94626 2.98327 0
M  V30 1502 O 141.387 2.77242 4.70956 0
M  V30 1503 H 138.481 0.388517 0.730057 0
M  V30 1504 H 141.027 1.37348 0.99668 0
M  V30 1505 H 139.799 2.96047 2.55875 0
M  V30 1506 H 139.422 1.62145 3.63035 0
M  V30 1507 N 140.419 -1.14872 1.07899 0
M  V30 1508 C 141.667 -1.85422 0.803941 0
M  V30 1509 C 141.988 -1.83051 -0.67211 0
M  V30 1510 O 141.258 -1.27532 -1.48703 0
M  V30 1511 H 139.838 -0.686537 0.294408 0
M  V30 1512 H 142.5 -1.39226 1.3639 0
M  V30 1513 H 141.596 -2.90399 1.14346 0
M  V30 1514 N 141.898 -0.863906 -1.31812 0
M  V30 1515 C 142.861 -0.320212 -2.26952 0
M  V30 1516 C 143.861 0.525369 -1.51975 0
M  V30 1517 O 145.051 0.335547 -1.70938 0
M  V30 1518 C 142.183 0.545919 -3.365 0
M  V30 1519 H 143.376 -1.16004 -2.76556 0
M  V30 1520 H 140.929 -0.638995 -1.42641 0
M  V30 1521 H 141.664 1.40718 -2.92179 0
M  V30 1522 H 141.449 -0.0594674 -3.92055 0
M  V30 1523 H 142.939 0.918796 -4.07367 0
M  V30 1524 N 143.376 1.44774 -0.622745 0
M  V30 1525 C 144.606 2.06187 -0.130532 0
M  V30 1526 C 145.014 1.46547 1.19669 0
M  V30 1527 O 144.357 0.579636 1.74316 0
M  V30 1528 C 144.419 3.59437 0.0674983 0
M  V30 1529 C 144.083 4.41496 -1.18026 0
M  V30 1530 C 145.08 4.75512 -2.102 0
M  V30 1531 C 142.765 4.82007 -1.41333 0
M  V30 1532 C 144.759 5.48912 -3.23998 0
M  V30 1533 C 142.446 5.55157 -2.55429 0
M  V30 1534 C 143.444 5.88528 -3.46589 0
M  V30 1535 O 143.132 6.60191 -4.58697 0
M  V30 1536 H 142.864 0.672045 -0.0730162 0
M  V30 1537 H 145.418 1.86768 -0.854802 0
M  V30 1538 H 143.648 3.77314 0.846825 0
M  V30 1539 H 145.337 4.02642 0.513209 0
M  V30 1540 H 146.103 4.4476 -1.93425 0
M  V30 1541 H 141.982 4.55457 -0.712709 0
M  V30 1542 H 145.526 5.74877 -3.95174 0
M  V30 1543 H 141.423 5.85324 -2.72151 0
M  V30 1544 H 142.191 6.78654 -4.57571 0
M  V30 1545 N 144.854 0.36279 1.53368 0
M  V30 1546 C 145.786 -0.519668 2.23231 0
M  V30 1547 C 146.799 -1.04844 1.24546 0
M  V30 1548 O 147.988 -0.955296 1.50786 0
M  V30 1549 C 145.088 -1.72995 2.9142 0
M  V30 1550 C 144.261 -1.33316 4.16588 0
M  V30 1551 C 143.32 -2.40521 4.68013 0
M  V30 1552 O 142.346 -2.03027 5.3176 0
M  V30 1553 N 143.548 -3.72065 4.45587 0
M  V30 1554 H 146.313 0.078751 2.99597 0
M  V30 1555 H 143.874 0.187833 1.60807 0
M  V30 1556 H 145.866 -2.44184 3.22733 0
M  V30 1557 H 144.436 -2.2353 2.18525 0
M  V30 1558 H 143.656 -0.451236 3.91609 0
M  V30 1559 H 144.944 -1.04432 4.97967 0
M  V30 1560 H 144.342 -4.05304 3.94646 0
M  V30 1561 H 142.899 -4.39366 4.81457 0
M  V30 1562 N 146.332 -1.57332 0.0918853 0
M  V30 1563 C 147.557 -1.98995 -0.584442 0
M  V30 1564 C 147.982 -0.970528 -1.61128 0
M  V30 1565 O 147.34 0.0613904 -1.81196 0
M  V30 1566 C 147.388 -3.39636 -1.21161 0
M  V30 1567 O 146.492 -3.40447 -2.32744 0
M  V30 1568 H 145.833 -0.647165 -0.148572 0
M  V30 1569 H 148.363 -2.03873 0.172347 0
M  V30 1570 H 148.373 -3.7726 -1.55367 0
M  V30 1571 H 147.048 -4.13356 -0.459313 0
M  V30 1572 H 145.625 -3.14614 -2.0018 0
M  V30 1573 N 147.81 0.181792 -1.56548 0
M  V30 1574 C 148.74 1.22765 -1.98623 0
M  V30 1575 C 149.721 1.46747 -0.860189 0
M  V30 1576 O 150.906 1.58259 -1.12551 0
M  V30 1577 C 148.036 2.56894 -2.33715 0
M  V30 1578 C 146.99 2.475 -3.49182 0
M  V30 1579 C 146.316 3.86023 -3.69986 0
M  V30 1580 C 147.616 1.98866 -4.82959 0
M  V30 1581 H 149.31 0.877942 -2.86239 0
M  V30 1582 H 146.856 0.42088 -1.37712 0
M  V30 1583 H 148.809 3.30253 -2.61746 0
M  V30 1584 H 147.533 2.93632 -1.42997 0
M  V30 1585 H 146.192 1.76596 -3.21262 0
M  V30 1586 H 145.84 4.20136 -2.76576 0
M  V30 1587 H 145.54 3.80609 -4.47672 0
M  V30 1588 H 147.064 4.60984 -4.00407 0
M  V30 1589 H 148.478 2.61992 -5.09934 0
M  V30 1590 H 146.875 2.04424 -5.64208 0
M  V30 1591 H 147.945 0.942465 -4.75653 0
M  V30 1592 N 149.288 1.51039 0.449983 0
M  V30 1593 C 150.513 1.6715 1.22783 0
M  V30 1594 C 150.938 0.363081 1.84563 0
M  V30 1595 O 150.296 -0.675433 1.68249 0
M  V30 1596 C 150.344 2.77985 2.29689 0
M  V30 1597 O 149.448 2.40707 3.34864 0
M  V30 1598 H 148.789 0.557746 0.360299 0
M  V30 1599 H 151.319 1.97535 0.533005 0
M  V30 1600 H 151.329 3.01693 2.74673 0
M  V30 1601 H 150.004 3.72935 1.84098 0
M  V30 1602 H 148.581 2.27523 2.95445 0
M  V30 1603 N 150.766 -0.704594 1.40972 0
M  V30 1604 C 151.716 -1.81051 1.38581 0
M  V30 1605 C 152.7 -1.58759 0.261585 0
M  V30 1606 O 153.892 -1.69745 0.501556 0
M  V30 1607 C 151.021 -3.19279 1.26157 0
M  V30 1608 C 150.107 -3.47296 2.43405 0
M  V30 1609 N 150.498 -3.46064 3.68881 0
M  V30 1610 C 148.796 -3.77804 2.37023 0
M  V30 1611 C 149.497 -3.72733 4.46592 0
M  V30 1612 N 148.473 -3.9203 3.76581 0
M  V30 1613 H 152.275 -1.78448 2.33525 0
M  V30 1614 H 149.789 -0.904198 1.349 0
M  V30 1615 H 151.786 -3.98488 1.22526 0
M  V30 1616 H 150.446 -3.231 0.321902 0
M  V30 1617 H 151.457 -3.26656 4.01891 0
M  V30 1618 H 148.134 -3.8905 1.51481 0
M  V30 1619 H 149.524 -3.77993 5.55492 0
M  V30 1620 N 152.244 -1.26651 -0.937939 0
M  V30 1621 C 153.174 -1.10993 -2.05433 0
M  V30 1622 C 154.155 -0.0142161 -1.70094 0
M  V30 1623 O 155.34 -0.186837 -1.93299 0
M  V30 1624 C 152.47 -0.745561 -3.39203 0
M  V30 1625 C 151.424 -1.79337 -3.88616 0
M  V30 1626 C 150.75 -1.28324 -5.19073 0
M  V30 1627 C 152.05 -3.19553 -4.13138 0
M  V30 1628 H 153.744 -2.0438 -2.1879 0
M  V30 1629 H 151.29 -0.984041 -1.05131 0
M  V30 1630 H 153.243 -0.622888 -4.16771 0
M  V30 1631 H 151.967 0.22401 -3.25831 0
M  V30 1632 H 150.626 -1.90477 -3.13231 0
M  V30 1633 H 150.274 -0.303414 -5.02084 0
M  V30 1634 H 149.974 -1.98369 -5.53103 0
M  V30 1635 H 151.498 -1.1733 -5.99221 0
M  V30 1636 H 152.912 -3.11471 -4.81309 0
M  V30 1637 H 151.309 -3.87218 -4.58457 0
M  V30 1638 H 152.379 -3.65368 -3.18801 0
M  V30 1639 N 153.722 1.14298 -1.08507 0
M  V30 1640 C 154.947 1.8976 -0.837001 0
M  V30 1641 C 155.372 1.78097 0.605228 0
M  V30 1642 O 154.73 1.12188 1.4242 0
M  V30 1643 C 154.778 3.37685 -1.26495 0
M  V30 1644 O 153.882 4.10281 -0.417514 0
M  V30 1645 H 153.223 0.590365 -0.303917 0
M  V30 1646 H 155.753 1.44672 -1.44676 0
M  V30 1647 H 155.763 3.88501 -1.24625 0
M  V30 1648 H 154.438 3.45492 -2.31534 0
M  V30 1649 H 153.015 3.69536 -0.499722 0
M  V30 1650 N 155.201 0.870884 1.31352 0
M  V30 1651 C 156.429 0.49677 2.00848 0
M  V30 1652 C 156.844 -0.910998 1.65367 0
M  V30 1653 O 156.201 -1.59696 0.883374 0
M  V30 1654 C 156.252 0.645308 3.55694 0
M  V30 1655 O 155.973 1.99764 3.89905 0
M  V30 1656 C 157.474 0.272326 4.42463 0
M  V30 1657 H 154.694 0.193462 0.642506 0
M  V30 1658 H 157.238 1.1723 1.67563 0
M  V30 1659 H 155.393 0.0173176 3.87396 0
M  V30 1660 H 155.807 2.00607 4.84621 0
M  V30 1661 H 157.281 0.427208 5.50344 0
M  V30 1662 H 157.758 -0.788587 4.32062 0
M  V30 1663 H 158.364 0.876054 4.1618 0
M  V30 1664 N 156.679 -1.44442 0.630414 0
M  V30 1665 C 157.609 -2.33418 -0.0618083 0
M  V30 1666 C 158.59 -1.48165 -0.835541 0
M  V30 1667 O 159.775 -1.76886 -0.801564 0
M  V30 1668 C 156.905 -3.31222 -1.04449 0
M  V30 1669 C 155.859 -4.26288 -0.382436 0
M  V30 1670 C 155.185 -5.13954 -1.47497 0
M  V30 1671 C 156.485 -5.1744 0.710865 0
M  V30 1672 H 158.179 -2.91548 0.681184 0
M  V30 1673 H 155.725 -1.40191 0.329026 0
M  V30 1674 H 157.678 -3.92351 -1.53748 0
M  V30 1675 H 156.402 -2.71299 -1.81836 0
M  V30 1676 H 155.061 -3.6649 0.0899054 0
M  V30 1677 H 154.709 -4.50385 -2.2397 0
M  V30 1678 H 154.409 -5.7837 -1.03737 0
M  V30 1679 H 155.933 -5.77955 -1.96979 0
M  V30 1680 H 157.347 -5.72509 0.300996 0
M  V30 1681 H 155.744 -5.90455 1.07156 0
M  V30 1682 H 156.814 -4.58496 1.57829 0
M  V30 1683 N 158.157 -0.370918 -1.53173 0
M  V30 1684 C 159.406 0.218249 -2.00516 0
M  V30 1685 C 159.719 1.49429 -1.26215 0
M  V30 1686 O 160.925 2.16239 -1.64174 0
M  V30 1687 C 159.381 0.43948 -3.57207 0
M  V30 1688 C 158.989 -0.822244 -4.4039 0
M  V30 1689 C 160.733 0.986012 -4.1289 0
M  V30 1690 C 158.64 -0.570304 -5.88644 0
M  V30 1691 H 157.57 0.0853333 -0.749156 0
M  V30 1692 H 160.221 -0.490483 -1.76823 0
M  V30 1693 H 158.603 1.20961 -3.77074 0
M  V30 1694 H 159.777 -1.59557 -4.32294 0
M  V30 1695 H 158.092 -1.29238 -3.95836 0
M  V30 1696 H 160.689 1.18991 -5.21292 0
M  V30 1697 H 161.032 1.94972 -3.6782 0
M  V30 1698 H 161.565 0.27592 -3.96842 0
M  V30 1699 H 158.304 -1.50449 -6.38001 0
M  V30 1700 H 157.824 0.164427 -5.99575 0
M  V30 1701 H 159.503 -0.19784 -6.46697 0
M  V30 1702 N 159.635 1.57281 -0.100228 0
M  V30 1703 C 160.565 2.17328 0.853857 0
M  V30 1704 C 161.546 1.10804 1.2906 0
M  V30 1705 O 162.731 1.38963 1.35657 0
M  V30 1706 C 159.861 2.75772 2.11109 0
M  V30 1707 C 158.815 3.87713 1.81279 0
M  V30 1708 C 158.141 4.32882 3.13874 0
M  V30 1709 C 159.441 5.10677 1.09574 0
M  V30 1710 H 161.135 2.97305 0.353545 0
M  V30 1711 H 158.681 1.43009 0.168612 0
M  V30 1712 H 160.634 3.16433 2.78296 0
M  V30 1713 H 159.358 1.93057 2.63432 0
M  V30 1714 H 158.017 3.476 1.16489 0
M  V30 1715 H 157.665 3.47051 3.64095 0
M  V30 1716 H 157.365 5.08358 2.94696 0
M  V30 1717 H 158.889 4.7618 3.82211 0
M  V30 1718 H 160.303 5.48474 1.66879 0
M  V30 1719 H 158.7 5.91615 1.00557 0
M  V30 1720 H 159.77 4.84835 0.0793299 0
M  V30 1721 N 161.113 -0.173488 1.56642 0
M  V30 1722 C 162.341 -0.906095 1.86004 0
M  V30 1723 C 162.756 -1.75921 0.685355 0
M  V30 1724 O 162.113 -1.79198 -0.345578 0
M  V30 1725 C 162.164 -1.78462 3.14378 0
M  V30 1726 O 161.885 -0.965914 4.27319 0
M  V30 1727 C 163.386 -2.62707 3.57071 0
M  V30 1728 H 160.606 -0.263341 0.617165 0
M  V30 1729 H 163.15 -0.174236 2.03756 0
M  V30 1730 H 161.305 -2.46984 2.98459 0
M  V30 1731 H 161.719 -1.56655 5.00559 0
M  V30 1732 H 163.193 -3.19969 4.49804 0
M  V30 1733 H 163.67 -3.37472 2.81086 0
M  V30 1734 H 164.276 -1.99521 3.75595 0
M  V30 1735 N 162.591 -1.51276 -0.441967 0
M  V30 1736 C 163.839 -1.63392 -1.18943 0
M  V30 1737 C 164.16 -0.350159 -1.9183 0
M  V30 1738 O 163.43 0.633784 -1.85364 0
M  V30 1739 H 162.01 -0.602164 -0.442049 0
M  V30 1740 H 164.672 -1.88186 -0.507165 0
M  V30 1741 H 163.768 -2.45934 -1.92154 0
M  V30 1742 N 164.069 0.697108 -1.41344 0
M  V30 1743 C 165.017 1.83237 -1.43272 0
M  V30 1744 C 166.011 1.66522 -0.310947 0
M  V30 1745 O 167.217 1.73402 -0.482899 0
M  V30 1746 H 163.592 0.603802 -0.448249 0
M  V30 1747 H 165.563 1.78727 -2.38954 0
M  V30 1748 C 164.312 3.21245 -1.33029 0
M  V30 1749 H 163.635 3.34723 -2.18633 0
M  V30 1750 H 165.075 4.00763 -1.38439 0
M  V30 1751 C 163.534 3.36873 -0.0424635 0
M  V30 1752 O 164.064 3.91177 0.913421 0
M  V30 1753 N 162.27 2.90581 0.0331145 0
M  V30 1754 H 161.817 2.46577 -0.745506 0
M  V30 1755 H 161.775 3.01416 0.894199 0
M  V30 1756 N 165.547 1.27147 0.931209 0
M  V30 1757 C 166.958 1.12044 1.49342 0
M  V30 1758 C 167.309 -0.295795 1.93957 0
M  V30 1759 O 166.434 -1.18835 1.80852 0
M  V30 1760 C 167.029 2.02781 2.71414 0
M  V30 1761 C 165.588 1.91794 3.2387 0
M  V30 1762 C 164.735 1.95543 1.96617 0
M  V30 1763 H 167.686 1.40091 0.745672 0
M  V30 1764 H 167.707 1.58156 3.46074 0
M  V30 1765 H 167.219 3.05848 2.38911 0
M  V30 1766 H 165.32 0.916992 3.6114 0
M  V30 1767 H 165.433 2.77852 3.90302 0
M  V30 1768 H 163.797 1.39722 2.12955 0
M  V30 1769 H 164.58 3.00259 1.66432 0
M  V30 1770 N 167.025 -1.13721 1.09112 0
M  V30 1771 C 168.274 -1.84275 0.82009 0
M  V30 1772 C 168.587 -1.84253 -0.656509 0
M  V30 1773 O 169.793 -2.50668 -1.04296 0
M  V30 1774 C 168.249 -3.30825 1.41714 0
M  V30 1775 C 167.857 -3.39244 2.92605 0
M  V30 1776 C 169.601 -4.06443 1.22492 0
M  V30 1777 C 167.508 -4.80047 3.45411 0
M  V30 1778 H 166.438 -0.690387 0.30312 0
M  V30 1779 H 169.089 -1.28146 1.31343 0
M  V30 1780 H 167.471 -3.86737 0.851498 0
M  V30 1781 H 168.645 -2.93344 3.55367 0
M  V30 1782 H 166.96 -2.77088 3.10823 0
M  V30 1783 H 169.557 -5.10387 1.59402 0
M  V30 1784 H 169.9 -4.15972 0.165299 0
M  V30 1785 H 170.433 -3.56852 1.75788 0
M  V30 1786 H 167.172 -4.75709 4.50978 0
M  V30 1787 H 166.692 -5.26455 2.87411 0
M  V30 1788 H 168.371 -5.48957 3.42425 0
M  V30 1789 N 168.503 -0.877838 -1.30888 0
M  V30 1790 C 169.435 -0.296607 -2.27273 0
M  V30 1791 C 170.448 0.544799 -1.53414 0
M  V30 1792 O 171.637 0.365511 -1.74718 0
M  V30 1793 C 168.737 0.597481 -3.33592 0
M  V30 1794 C 167.91 -0.213251 -4.3688 0
M  V30 1795 C 166.969 0.610208 -5.2265 0
M  V30 1796 O 165.995 0.035441 -5.69189 0
M  V30 1797 N 167.197 1.92071 -5.47804 0
M  V30 1798 H 169.962 -1.12492 -2.77787 0
M  V30 1799 H 167.523 -0.740105 -1.43993 0
M  V30 1800 H 169.515 1.15425 -3.87891 0
M  V30 1801 H 168.085 1.32647 -2.83061 0
M  V30 1802 H 167.305 -0.951466 -3.82545 0
M  V30 1803 H 168.593 -0.769262 -5.02951 0
M  V30 1804 H 167.991 2.4107 -5.11763 0
M  V30 1805 H 166.548 2.42508 -6.05007 0
M  V30 1806 N 169.982 1.44106 -0.638065 0
M  V30 1807 C 171.207 2.0685 -0.150916 0
M  V30 1808 C 171.632 1.47417 1.16833 0
M  V30 1809 O 170.99 0.578264 1.71831 0
M  V30 1810 C 171.038 3.60555 -0.05708 0
M  V30 1811 O 170.142 4.00465 0.984972 0
M  V30 1812 H 169.483 0.658151 -0.0879399 0
M  V30 1813 H 172.013 1.84865 -0.876707 0
M  V30 1814 H 172.023 4.07789 0.131232 0
M  V30 1815 H 170.698 4.03193 -1.02021 0
M  V30 1816 H 169.275 3.64849 0.770672 0
M  V30 1817 N 171.46 0.379036 1.52974 0
M  V30 1818 C 172.39 -0.452706 2.29069 0
M  V30 1819 C 173.371 -1.07237 1.32039 0
M  V30 1820 O 174.556 -1.08708 1.60923 0
M  V30 1821 C 171.686 -1.5856 3.08992 0
M  V30 1822 C 170.64 -1.0925 4.13822 0
M  V30 1823 C 169.966 -2.31668 4.81907 0
M  V30 1824 C 171.266 -0.167702 5.22031 0
M  V30 1825 H 172.96 0.182181 2.98845 0
M  V30 1826 H 170.506 0.0890592 1.43724 0
M  V30 1827 H 172.459 -2.1742 3.6098 0
M  V30 1828 H 171.183 -2.24792 2.36931 0
M  V30 1829 H 169.842 -0.526494 3.628 0
M  V30 1830 H 169.49 -2.96386 4.06404 0
M  V30 1831 H 169.19 -1.9934 5.52754 0
M  V30 1832 H 170.714 -2.91189 5.36695 0
M  V30 1833 H 172.128 -0.664186 5.6944 0
M  V30 1834 H 170.525 0.0653265 6.00064 0
M  V30 1835 H 171.595 0.786347 4.78482 0
M  V30 1836 N 172.938 -1.57226 0.108567 0
M  V30 1837 C 173.901 -2.13602 -0.831082 0
M  V30 1838 C 174.901 -1.06841 -1.20173 0
M  V30 1839 O 176.091 -1.32666 -1.12895 0
M  V30 1840 C 173.223 -2.66769 -2.12243 0
M  V30 1841 H 174.416 -2.97951 -0.341317 0
M  V30 1842 H 171.969 -1.55667 -0.14057 0
M  V30 1843 H 172.704 -1.85977 -2.65675 0
M  V30 1844 H 172.489 -3.44839 -1.86625 0
M  V30 1845 H 173.979 -3.10332 -2.79435 0
M  V30 1846 N 174.416 0.165178 -1.56732 0
M  V30 1847 C 175.346 1.20651 -1.99914 0
M  V30 1848 C 176.327 1.45827 -0.875705 0
M  V30 1849 O 177.512 1.57057 -1.14223 0
M  V30 1850 C 174.642 2.54401 -2.36427 0
M  V30 1851 C 173.596 2.43782 -3.51787 0
M  V30 1852 C 172.922 3.82078 -3.7406 0
M  V30 1853 C 174.222 1.93732 -4.85041 0
M  V30 1854 H 175.916 0.847534 -2.87154 0
M  V30 1855 H 173.462 0.40625 -1.38151 0
M  V30 1856 H 175.415 3.27458 -2.65234 0
M  V30 1857 H 174.139 2.92098 -1.46103 0
M  V30 1858 H 172.798 1.73178 -3.23117 0
M  V30 1859 H 172.446 4.17179 -2.81017 0
M  V30 1860 H 172.146 3.7584 -4.51684 0
M  V30 1861 H 173.67 4.56712 -4.05274 0
M  V30 1862 H 175.084 2.56569 -5.12684 0
M  V30 1863 H 173.481 1.98428 -5.66345 0
M  V30 1864 H 174.551 0.891962 -4.76626 0
M  V30 1865 N 175.894 1.51508 0.433938 0
M  V30 1866 C 177.142 1.6402 1.18075 0
M  V30 1867 C 177.463 0.360328 1.91642 0
M  V30 1868 O 176.733 -0.623945 1.85698 0
M  V30 1869 H 175.313 0.6045 0.43885 0
M  V30 1870 H 177.975 1.88452 0.497178 0
M  V30 1871 H 177.071 2.46949 1.90847 0
M  V30 1872 N 177.372 -0.689602 1.41712 0
M  V30 1873 C 178.335 -1.78521 1.43746 0
M  V30 1874 C 179.335 -1.57436 0.327191 0
M  V30 1875 O 180.525 -1.64 0.587348 0
M  V30 1876 C 177.657 -3.16971 1.25467 0
M  V30 1877 H 178.85 -1.78108 2.41283 0
M  V30 1878 H 176.403 -0.89781 1.27942 0
M  V30 1879 H 177.138 -3.23019 0.287948 0
M  V30 1880 H 176.923 -3.33678 2.05917 0
M  V30 1881 H 178.413 -3.96935 1.2974 0
M  V30 1882 N 178.85 -1.27639 -0.924453 0
M  V30 1883 C 180.097 -1.14167 -1.67249 0
M  V30 1884 C 180.425 0.311863 -1.91984 0
M  V30 1885 O 179.68 1.24425 -1.51053 0
M  V30 1886 C 179.979 -1.87407 -3.04325 0
M  V30 1887 C 179.645 -3.37249 -2.99289 0
M  V30 1888 C 178.307 -3.7812 -2.97622 0
M  V30 1889 C 180.659 -4.32845 -2.90336 0
M  V30 1890 C 177.987 -5.12944 -2.8479 0
M  V30 1891 C 180.339 -5.6773 -2.79045 0
M  V30 1892 C 179.003 -6.07889 -2.7573 0
M  V30 1893 H 178.273 -0.417766 -0.612007 0
M  V30 1894 H 180.92 -1.58286 -1.07786 0
M  V30 1895 H 179.225 -1.35805 -3.67511 0
M  V30 1896 H 180.922 -1.74408 -3.61086 0
M  V30 1897 H 177.512 -3.04748 -3.01374 0
M  V30 1898 H 181.696 -4.02239 -2.90719 0
M  V30 1899 H 176.952 -5.432 -2.80612 0
M  V30 1900 H 181.126 -6.41472 -2.71083 0
M  V30 1901 H 178.753 -7.12314 -2.65544 0
M  V30 1902 N 180.328 1.1314 -1.09713 0
M  V30 1903 C 181.553 1.88862 -0.857081 0
M  V30 1904 C 181.978 1.78729 0.586304 0
M  V30 1905 O 181.336 1.13692 1.41222 0
M  V30 1906 C 181.384 3.36325 -1.30069 0
M  V30 1907 O 180.488 4.09815 -0.461007 0
M  V30 1908 H 179.829 0.587108 -0.310162 0
M  V30 1909 H 182.359 1.43129 -1.46203 0
M  V30 1910 H 182.369 3.87157 -1.28738 0
M  V30 1911 H 181.044 3.43017 -2.35185 0
M  V30 1912 H 179.621 3.68986 -0.538888 0
M  V30 1913 N 181.806 0.884767 1.30421 0
M  V30 1914 C 183.054 0.502112 1.95763 0
M  V30 1915 C 183.375 -0.951815 1.70192 0
M  V30 1916 O 182.645 -1.6692 1.0254 0
M  V30 1917 H 181.225 0.182694 0.724315 0
M  V30 1918 H 183.887 1.1278 1.58955 0
M  V30 1919 H 182.983 0.672188 3.04775 0
M  V30 1920 N 183.284 -1.43765 0.645699 0
M  V30 1921 C 184.214 -2.33471 -0.0370477 0
M  V30 1922 C 185.195 -1.49042 -0.819779 0
M  V30 1923 O 186.38 -1.77726 -0.782758 0
M  V30 1924 C 183.51 -3.32311 -1.0093 0
M  V30 1925 C 182.464 -4.2667 -0.337201 0
M  V30 1926 C 181.79 -5.1549 -1.42037 0
M  V30 1927 C 183.09 -5.16657 0.765706 0
M  V30 1928 H 184.784 -2.90809 0.712069 0
M  V30 1929 H 182.33 -1.39834 0.343876 0
M  V30 1930 H 184.283 -3.9396 -1.49578 0
M  V30 1931 H 183.007 -2.73213 -1.78948 0
M  V30 1932 H 181.666 -3.66374 0.128771 0
M  V30 1933 H 181.314 -4.52735 -2.1918 0
M  V30 1934 H 181.014 -5.79438 -0.975966 0
M  V30 1935 H 182.538 -5.80012 -1.90838 0
M  V30 1936 H 183.952 -5.72158 0.361702 0
M  V30 1937 H 182.349 -5.89286 1.13413 0
M  V30 1938 H 183.419 -4.56796 1.62683 0
M  V30 1939 N 184.763 -0.387143 -1.52771 0
M  V30 1940 C 185.988 0.198407 -2.06449 0
M  V30 1941 C 186.413 1.39918 -1.25716 0
M  V30 1942 O 185.771 1.79099 -0.281657 0
M  V30 1943 C 185.819 0.548893 -3.56398 0
M  V30 1944 O 184.923 1.64315 -3.78252 0
M  V30 1945 H 184.264 0.0237731 -0.663574 0
M  V30 1946 H 186.794 -0.553989 -1.96957 0
M  V30 1947 H 186.804 0.813812 -3.99801 0
M  V30 1948 H 185.479 -0.329005 -4.14597 0
M  V30 1949 H 184.056 1.37211 -3.46738 0
M  V30 1950 N 186.241 1.57166 -0.116904 0
M  V30 1951 C 187.466 1.999 0.55271 0
M  V30 1952 C 187.891 0.996039 1.59564 0
M  V30 1953 O 187.249 -0.032556 1.81271 0
M  V30 1954 C 187.297 3.4152 1.15742 0
M  V30 1955 O 186.401 3.44106 2.27299 0
M  V30 1956 H 185.742 0.649447 0.138258 0
M  V30 1957 H 188.272 2.03573 -0.204759 0
M  V30 1958 H 188.282 3.79684 1.49346 0
M  V30 1959 H 186.957 4.14034 0.393493 0
M  V30 1960 H 185.534 3.17759 1.9515 0
M  V30 1961 N 187.719 -0.156864 1.56817 0
M  V30 1962 C 188.649 -1.19589 2.00551 0
M  V30 1963 C 189.63 -1.4536 0.883426 0
M  V30 1964 O 190.815 -1.56449 1.15054 0
M  V30 1965 C 187.945 -2.53143 2.37773 0
M  V30 1966 C 186.899 -2.41913 3.53075 0
M  V30 1967 C 186.225 -3.80088 3.76081 0
M  V30 1968 C 187.525 -1.91157 4.86062 0
M  V30 1969 H 189.219 -0.832293 2.87599 0
M  V30 1970 H 186.765 -0.398918 1.38364 0
M  V30 1971 H 188.718 -3.26047 2.66967 0
M  V30 1972 H 187.442 -2.91319 1.4765 0
M  V30 1973 H 186.101 -1.71462 3.24031 0
M  V30 1974 H 185.749 -4.15683 2.83225 0
M  V30 1975 H 185.449 -3.73439 4.53671 0
M  V30 1976 H 186.973 -4.54556 4.0769 0
M  V30 1977 H 188.387 -2.53846 5.14038 0
M  V30 1978 H 186.784 -1.95422 5.67389 0
M  V30 1979 H 187.854 -0.866673 4.77092 0
M  V30 1980 N 189.197 -1.51736 -0.425897 0
M  V30 1981 C 190.129 -1.70083 -1.53638 0
M  V30 1982 C 191.142 -0.581349 -1.52066 0
M  V30 1983 O 192.331 -0.856017 -1.56635 0
M  V30 1984 C 189.431 -1.71078 -2.9255 0
M  V30 1985 C 188.604 -2.99795 -3.185 0
M  V30 1986 C 187.663 -2.92825 -4.37196 0
M  V30 1987 O 186.689 -3.66756 -4.35291 0
M  V30 1988 N 187.891 -2.0946 -5.41393 0
M  V30 1989 H 190.656 -2.65882 -1.383 0
M  V30 1990 H 188.217 -1.49765 -0.614988 0
M  V30 1991 H 190.209 -1.63969 -3.69995 0
M  V30 1992 H 188.779 -0.828242 -3.01428 0
M  V30 1993 H 187.999 -3.20684 -2.2925 0
M  V30 1994 H 189.287 -3.84977 -3.32671 0
M  V30 1995 H 188.685 -1.48792 -5.45781 0
M  V30 1996 H 187.242 -2.08221 -6.17647 0
M  V30 1997 N 190.675 0.682077 -1.42076 0
M  V30 1998 C 191.622 1.79578 -1.44984 0
M  V30 1999 C 192.592 1.6332 -0.302614 0
M  V30 2000 O 193.777 1.83978 -0.505633 0
M  V30 2001 C 190.917 3.1756 -1.35091 0
M  V30 2002 C 190.03 3.45156 -2.59791 0
M  V30 2003 C 189.165 4.72826 -2.42093 0
M  V30 2004 C 188.204 4.93433 -3.62202 0
M  V30 2005 N 187.341 6.12338 -3.43491 0
M  V30 2006 H 192.181 1.76427 -2.40161 0
M  V30 2007 H 189.718 0.861376 -1.19242 0
M  V30 2008 H 191.676 3.97287 -1.27354 0
M  V30 2009 H 190.306 3.19854 -0.435133 0
M  V30 2010 H 189.358 2.59736 -2.77923 0
M  V30 2011 H 190.67 3.5628 -3.49094 0
M  V30 2012 H 189.824 5.60631 -2.319 0
M  V30 2013 H 188.563 4.63973 -1.50268 0
M  V30 2014 H 187.568 4.04073 -3.72834 0
M  V30 2015 H 188.793 5.04136 -4.54998 0
M  V30 2016 H 186.739 6.04672 -2.54377 0
M  V30 2017 H 186.656 6.2429 -4.26377 0
M  V30 2018 H 187.924 7.02841 -3.37097 0
M  V30 2019 N 192.153 1.28127 0.917671 0
M  V30 2020 C 193.083 1.14248 2.03641 0
M  V30 2021 C 194.064 0.0412748 1.7005 0
M  V30 2022 O 195.249 0.217566 1.92977 0
M  V30 2023 C 192.379 0.799431 3.37974 0
M  V30 2024 C 191.333 1.85497 3.85713 0
M  V30 2025 C 190.659 1.36565 5.16966 0
M  V30 2026 C 191.959 3.26085 4.08002 0
M  V30 2027 H 193.653 2.07835 2.15511 0
M  V30 2028 H 191.199 1.00064 1.03553 0
M  V30 2029 H 193.152 0.689114 4.15727 0
M  V30 2030 H 191.876 -0.172145 3.26146 0
M  V30 2031 H 190.535 1.95437 3.10161 0
M  V30 2032 H 190.183 0.383253 5.01538 0
M  V30 2033 H 189.883 2.07143 5.49878 0
M  V30 2034 H 191.407 1.26848 5.97279 0
M  V30 2035 H 192.821 3.19089 4.76293 0
M  V30 2036 H 191.218 3.94462 4.52238 0
M  V30 2037 H 192.288 3.70394 3.12948 0
M  V30 2038 N 193.631 -1.12557 1.10312 0
M  V30 2039 C 194.877 -1.84311 0.846011 0
M  V30 2040 C 195.21 -1.83805 -0.626859 0
M  V30 2041 O 194.485 -1.28268 -1.46211 0
M  V30 2042 C 194.768 -3.32048 1.39341 0
M  V30 2043 C 194.621 -3.41016 2.93305 0
M  V30 2044 C 195.94 -4.27764 1.03468 0
M  V30 2045 H 193.059 -0.669192 0.30879 0
M  V30 2046 H 195.701 -1.32057 1.36605 0
M  V30 2047 H 193.851 -3.76678 0.951087 0
M  V30 2048 H 195.523 -3.05031 3.46055 0
M  V30 2049 H 193.766 -2.81603 3.29973 0
M  V30 2050 H 194.437 -4.44948 3.26689 0
M  V30 2051 H 196.913 -3.91253 1.41633 0
M  V30 2052 H 195.789 -5.29549 1.44463 0
M  V30 2053 H 196.05 -4.42064 -0.0560404 0
M  V30 2054 N 195.109 -0.891671 -1.2995 0
M  V30 2055 C 196.072 -0.36828 -2.26222 0
M  V30 2056 C 197.072 0.493014 -1.53056 0
M  V30 2057 O 198.262 0.299213 -1.71611 0
M  V30 2058 C 195.394 0.47442 -3.37583 0
M  V30 2059 H 196.587 -1.21844 -2.74033 0
M  V30 2060 H 194.14 -0.669107 -1.41254 0
M  V30 2061 H 194.875 1.34489 -2.95099 0
M  V30 2062 H 194.66 -0.142615 -3.91841 0
M  V30 2063 H 196.15 0.83218 -4.09224 0
M  V30 2064 N 196.587 1.43421 -0.653314 0
M  V30 2065 C 197.833 2.02111 -0.166992 0
M  V30 2066 C 198.166 1.51423 1.21592 0
M  V30 2067 O 197.441 0.707389 1.8118 0
M  V30 2068 C 197.724 3.5966 -0.177948 0
M  V30 2069 C 197.577 4.20579 -1.59478 0
M  V30 2070 C 198.896 4.37413 0.4856 0
M  V30 2071 H 196.015 0.734374 -0.0621557 0
M  V30 2072 H 198.657 1.70717 -0.834016 0
M  V30 2073 H 196.807 3.86537 0.390032 0
M  V30 2074 H 198.479 4.04732 -2.21336 0
M  V30 2075 H 196.722 3.77226 -2.14204 0
M  V30 2076 H 197.393 5.29665 -1.5543 0
M  V30 2077 H 199.869 4.161 0.00234528 0
M  V30 2078 H 198.745 5.47075 0.447207 0
M  V30 2079 H 199.006 4.13672 1.55974 0
M  V30 2080 N 198.065 0.39524 1.52563 0
M  V30 2081 C 198.975 -0.444232 2.30356 0
M  V30 2082 C 199.991 -1.06615 1.37511 0
M  V30 2083 O 201.167 -1.07067 1.70583 0
M  V30 2084 C 198.232 -1.55315 3.09964 0
M  V30 2085 C 197.293 -0.955734 4.18526 0
M  V30 2086 C 196.526 -2.01181 4.9433 0
M  V30 2087 O 196.749 -3.22781 4.70285 0
M  V30 2088 O 195.683 -1.62579 5.79527 0
M  V30 2089 H 199.509 0.189667 3.03107 0
M  V30 2090 H 197.094 0.1588 1.48554 0
M  V30 2091 H 198.976 -2.19724 3.59582 0
M  V30 2092 H 197.651 -2.17191 2.4002 0
M  V30 2093 H 196.558 -0.274743 3.7309 0
M  V30 2094 H 197.891 -0.381109 4.90722 0
M  V30 2095 N 199.544 -1.57102 0.125237 0
M  V30 2096 C 200.772 -1.99761 -0.538797 0
M  V30 2097 C 201.187 -1.00503 -1.59827 0
M  V30 2098 O 200.544 0.00119474 -1.825 0
M  V30 2099 C 200.595 -3.42408 -1.15927 0
M  V30 2100 O 200.316 -4.37869 -0.142143 0
M  V30 2101 C 201.817 -4.00232 -1.90602 0
M  V30 2102 H 199.037 -0.655772 -0.14214 0
M  V30 2103 H 201.581 -2.03383 0.213413 0
M  V30 2104 H 199.736 -3.39706 -1.86223 0
M  V30 2105 H 200.15 -5.21128 -0.593775 0
M  V30 2106 H 201.624 -5.02105 -2.29335 0
M  V30 2107 H 202.101 -3.39721 -2.78363 0
M  V30 2108 H 202.707 -4.06499 -1.25055 0
M  V30 2109 N 201.022 0.148545 -1.56898 0
M  V30 2110 C 201.97 1.20265 -1.99096 0
M  V30 2111 C 202.964 1.44559 -0.883123 0
M  V30 2112 O 204.17 1.4487 -1.0683 0
M  V30 2113 H 200.545 0.404786 -0.63376 0
M  V30 2114 H 202.516 0.82004 -2.86911 0
M  V30 2115 C 201.265 2.52886 -2.3863 0
M  V30 2116 H 200.588 2.35021 -3.23427 0
M  V30 2117 H 202.028 3.25274 -2.7198 0
M  V30 2118 C 200.487 3.13315 -1.23837 0
M  V30 2119 O 201.017 3.98077 -0.538268 0
M  V30 2120 N 199.223 2.72742 -1.00301 0
M  V30 2121 H 198.77 2.03912 -1.5741 0
M  V30 2122 H 198.728 3.13507 -0.236838 0
M  V30 2123 N 202.5 1.5196 0.417844 0
M  V30 2124 C 203.43 1.77634 1.51554 0
M  V30 2125 C 204.411 0.626918 1.58126 0
M  V30 2126 O 205.596 0.871632 1.7354 0
M  V30 2127 C 202.726 1.91911 2.8946 0
M  V30 2128 C 201.68 3.07463 2.97743 0
M  V30 2129 C 201.006 3.06951 4.37819 0
M  V30 2130 C 202.306 4.47082 2.70027 0
M  V30 2131 H 204 2.6955 1.3032 0
M  V30 2132 H 201.546 1.29706 0.625492 0
M  V30 2133 H 203.499 2.08455 3.6623 0
M  V30 2134 H 202.223 0.966598 3.11969 0
M  V30 2135 H 200.882 2.90656 2.23416 0
M  V30 2136 H 200.53 2.09438 4.57323 0
M  V30 2137 H 200.23 3.84556 4.44286 0
M  V30 2138 H 201.754 3.25613 5.16535 0
M  V30 2139 H 203.168 4.6414 3.36522 0
M  V30 2140 H 201.565 5.2654 2.87881 0
M  V30 2141 H 202.635 4.55777 1.65514 0
M  V30 2142 N 203.978 -0.674533 1.42435 0
M  V30 2143 C 204.941 -1.76986 1.45632 0
M  V30 2144 C 205.941 -1.5708 0.343871 0
M  V30 2145 O 207.131 -1.63367 0.604709 0
M  V30 2146 C 204.263 -3.15623 1.28822 0
M  V30 2147 H 205.456 -1.75539 2.43158 0
M  V30 2148 H 203.009 -0.884189 1.28887 0
M  V30 2149 H 203.744 -3.22696 0.322193 0
M  V30 2150 H 203.529 -3.31475 2.09444 0
M  V30 2151 H 205.019 -3.95537 1.33942 0
M  V30 2152 N 205.456 -1.28612 -0.910864 0
M  V30 2153 C 206.681 -1.1891 -1.69927 0
M  V30 2154 C 207.106 0.248372 -1.86453 0
M  V30 2155 O 206.464 1.17961 -1.37676 0
M  V30 2156 C 206.512 -1.89578 -3.06745 0
M  V30 2157 O 205.616 -1.20521 -3.94396 0
M  V30 2158 H 204.957 -0.412632 -0.520222 0
M  V30 2159 H 207.487 -1.69985 -1.1387 0
M  V30 2160 H 207.497 -1.97597 -3.56958 0
M  V30 2161 H 206.172 -2.94136 -2.94035 0
M  V30 2162 H 204.749 -1.20684 -3.52831 0
M  V30 2163 N 206.934 1.1197 -1.10907 0
M  V30 2164 C 207.864 2.19928 -0.784473 0
M  V30 2165 C 208.845 1.6833 0.244726 0
M  V30 2166 O 210.03 1.93892 0.109418 0
M  V30 2167 C 207.16 3.46597 -0.220827 0
M  V30 2168 C 206.114 4.11376 -1.18127 0
M  V30 2169 C 205.44 5.32554 -0.478594 0
M  V30 2170 C 206.74 4.56945 -2.52979 0
M  V30 2171 H 208.434 2.47337 -1.68715 0
M  V30 2172 H 205.98 1.18879 -0.812642 0
M  V30 2173 H 207.933 4.21396 0.0184278 0
M  V30 2174 H 206.657 3.1863 0.717113 0
M  V30 2175 H 205.316 3.38564 -1.40606 0
M  V30 2176 H 204.964 5.00856 0.463976 0
M  V30 2177 H 204.664 5.76844 -1.11912 0
M  V30 2178 H 206.188 6.10096 -0.248 0
M  V30 2179 H 207.602 5.23093 -2.3462 0
M  V30 2180 H 205.999 5.1203 -3.12962 0
M  V30 2181 H 207.069 3.70676 -3.12614 0
M  V30 2182 N 208.412 0.89855 1.29475 0
M  V30 2183 C 209.322 0.379974 2.31502 0
M  V30 2184 C 210.338 -0.524695 1.659 0
M  V30 2185 O 211.514 -0.414551 1.97087 0
M  V30 2186 C 208.579 -0.385138 3.44554 0
M  V30 2187 C 207.64 0.550914 4.2575 0
M  V30 2188 C 206.873 -0.177778 5.33404 0
M  V30 2189 O 207.096 -1.40189 5.52904 0
M  V30 2190 O 206.03 0.479106 5.9999 0
M  V30 2191 H 209.856 1.22639 2.77837 0
M  V30 2192 H 207.441 0.662834 1.33891 0
M  V30 2193 H 209.323 -0.817841 4.13388 0
M  V30 2194 H 207.998 -1.20763 3.0033 0
M  V30 2195 H 206.905 1.03271 3.59564 0
M  V30 2196 H 208.238 1.33979 4.73614 0
M  V30 2197 N 209.89 -1.43072 0.660911 0
M  V30 2198 C 210.838 -2.32569 -0.0378199 0
M  V30 2199 C 211.832 -1.49046 -0.805092 0
M  V30 2200 O 213.038 -1.65206 -0.714624 0
M  V30 2201 H 209.413 -0.75136 -0.031019 0
M  V30 2202 H 211.384 -2.89216 0.734609 0
M  V30 2203 C 210.133 -3.33453 -0.985124 0
M  V30 2204 H 209.456 -3.97752 -0.404147 0
M  V30 2205 H 210.896 -3.98691 -1.44297 0
M  V30 2206 C 209.355 -2.64642 -2.08486 0
M  V30 2207 O 209.885 -2.46776 -3.16961 0
M  V30 2208 N 208.091 -2.23891 -1.8526 0
M  V30 2209 H 207.638 -2.38621 -0.970449 0
M  V30 2210 H 207.596 -1.78181 -2.59034 0
M  V30 2211 N 211.368 -0.403325 -1.52352 0
M  V30 2212 C 212.615 0.174347 -2.01748 0
M  V30 2213 C 212.943 1.45636 -1.2892 0
M  V30 2214 O 212.198 1.9193 -0.382258 0
M  V30 2215 C 212.497 0.474665 -3.54234 0
M  V30 2216 C 212.163 -0.717458 -4.45155 0
M  V30 2217 C 210.825 -1.04447 -4.69728 0
M  V30 2218 C 213.177 -1.51432 -4.98716 0
M  V30 2219 C 210.505 -2.16963 -5.45109 0
M  V30 2220 C 212.857 -2.6302 -5.75329 0
M  V30 2221 C 211.521 -2.96213 -5.98175 0
M  V30 2222 H 210.791 0.0637981 -0.738248 0
M  V30 2223 H 213.438 -0.543553 -1.83624 0
M  V30 2224 H 211.743 1.27406 -3.70506 0
M  V30 2225 H 213.44 0.934496 -3.89959 0
M  V30 2226 H 210.03 -0.452596 -4.26204 0
M  V30 2227 H 214.214 -1.27491 -4.79645 0
M  V30 2228 H 209.47 -2.43034 -5.61021 0
M  V30 2229 H 213.644 -3.25158 -6.15829 0
M  V30 2230 H 211.271 -3.83516 -6.56368 0
M  V30 2231 N 212.846 1.57033 -0.133567 0
M  V30 2232 C 214.257 1.82593 0.389464 0
M  V30 2233 C 214.608 1.05156 1.6564 0
M  V30 2234 O 213.733 0.292644 2.14412 0
M  V30 2235 C 214.328 3.31204 0.713377 0
M  V30 2236 C 212.887 3.57393 1.18098 0
M  V30 2237 C 212.034 2.76598 0.197126 0
M  V30 2238 H 214.985 1.54598 -0.358481 0
M  V30 2239 H 215.006 3.46627 1.56939 0
M  V30 2240 H 214.518 3.87537 -0.2089 0
M  V30 2241 H 212.619 3.06433 2.11966 0
M  V30 2242 H 212.732 4.65915 1.11624 0
M  V30 2243 H 211.096 2.45257 0.687088 0
M  V30 2244 H 211.879 3.35697 -0.718504 0
M  V30 2245 N 214.325 -0.140222 1.56975 0
M  V30 2246 C 215.574 -0.850152 1.82908 0
M  V30 2247 C 215.887 -1.82028 0.715892 0
M  V30 2248 O 217.093 -2.57485 0.861016 0
M  V30 2249 C 215.549 -1.5625 3.24213 0
M  V30 2250 C 215.157 -0.63443 4.43485 0
M  V30 2251 C 216.901 -2.25881 3.59413 0
M  V30 2252 C 214.808 -1.34879 5.75814 0
M  V30 2253 H 213.738 -0.321221 0.682153 0
M  V30 2254 H 216.389 -0.102874 1.83211 0
M  V30 2255 H 214.771 -2.35565 3.18316 0
M  V30 2256 H 215.945 0.12398 4.60633 0
M  V30 2257 H 214.26 -0.0461836 4.16374 0
M  V30 2258 H 216.857 -2.79978 4.5554 0
M  V30 2259 H 217.2 -3.02693 2.85802 0
M  V30 2260 H 217.733 -1.53477 3.67001 0
M  V30 2261 H 214.472 -0.622385 6.52539 0
M  V30 2262 H 213.992 -2.07974 5.6259 0
M  V30 2263 H 215.671 -1.88784 6.18845 0
M  V30 2264 N 215.803 -1.52179 -0.40978 0
M  V30 2265 C 217.051 -1.65878 -1.15451 0
M  V30 2266 C 217.372 -0.390771 -1.91044 0
M  V30 2267 O 216.642 0.594323 -1.86667 0
M  V30 2268 H 215.222 -0.611405 -0.429177 0
M  V30 2269 H 217.884 -1.89219 -0.467134 0
M  V30 2270 H 216.98 -2.49954 -1.86894 0
M  V30 2271 N 217.281 0.66697 -1.42791 0
M  V30 2272 C 218.231 1.77313 -1.43332 0
M  V30 2273 C 219.215 1.5801 -0.303586 0
M  V30 2274 O 220.407 1.68356 -0.546385 0
M  V30 2275 C 217.536 3.15822 -1.34578 0
M  V30 2276 C 216.622 3.40721 -2.52528 0
M  V30 2277 N 217.013 3.36162 -3.77927 0
M  V30 2278 C 215.311 3.71387 -2.46956 0
M  V30 2279 C 216.012 3.60762 -4.56318 0
M  V30 2280 N 214.988 3.81908 -3.86843 0
M  V30 2281 H 218.79 1.72193 -2.38174 0
M  V30 2282 H 216.304 0.868114 -1.3725 0
M  V30 2283 H 218.301 3.951 -1.33048 0
M  V30 2284 H 216.961 3.22133 -0.407453 0
M  V30 2285 H 217.972 3.15885 -4.10411 0
M  V30 2286 H 214.649 3.84897 -1.61743 0
M  V30 2287 H 216.039 3.63132 -5.65318 0
M  V30 2288 N 218.759 1.29093 0.90403 0
M  V30 2289 C 219.689 1.16401 2.02418 0
M  V30 2290 C 220.67 0.0593085 1.69997 0
M  V30 2291 O 221.855 0.238021 1.92736 0
M  V30 2292 C 218.985 0.835233 3.37107 0
M  V30 2293 C 217.939 1.89578 3.83724 0
M  V30 2294 C 217.265 1.42041 5.15489 0
M  V30 2295 C 218.565 3.30394 4.04521 0
M  V30 2296 H 220.259 2.10109 2.13295 0
M  V30 2297 H 217.805 1.01157 1.02486 0
M  V30 2298 H 219.758 0.733169 4.14973 0
M  V30 2299 H 218.482 -0.137543 3.2631 0
M  V30 2300 H 217.141 1.98715 3.08071 0
M  V30 2301 H 216.789 0.436426 5.01103 0
M  V30 2302 H 216.489 2.12964 5.4765 0
M  V30 2303 H 218.013 1.33176 5.959 0
M  V30 2304 H 219.427 3.24123 4.72882 0
M  V30 2305 H 217.824 3.99237 4.48029 0
M  V30 2306 H 218.894 3.73692 3.09002 0
M  V30 2307 N 220.237 -1.11381 1.11499 0
M  V30 2308 C 221.184 -2.17439 0.773887 0
M  V30 2309 C 222.154 -1.64132 -0.254899 0
M  V30 2310 O 223.339 -1.90345 -0.13168 0
M  V30 2311 C 220.479 -3.44373 0.223917 0
M  V30 2312 C 219.592 -4.1168 1.30934 0
M  V30 2313 C 218.727 -5.263 0.71984 0
M  V30 2314 C 217.766 -5.85493 1.78507 0
M  V30 2315 N 216.903 -6.91507 1.21502 0
M  V30 2316 H 221.743 -2.45962 1.68246 0
M  V30 2317 H 219.28 -1.20744 0.840191 0
M  V30 2318 H 221.238 -4.17047 -0.112921 0
M  V30 2319 H 219.868 -3.16232 -0.647851 0
M  V30 2320 H 218.92 -3.37073 1.76312 0
M  V30 2321 H 220.232 -4.51729 2.11524 0
M  V30 2322 H 219.386 -6.05785 0.333094 0
M  V30 2323 H 218.125 -4.87559 -0.117377 0
M  V30 2324 H 217.13 -5.04686 2.18111 0
M  V30 2325 H 218.355 -6.26301 2.62533 0
M  V30 2326 H 216.301 -6.54783 0.399455 0
M  V30 2327 H 216.218 -7.30214 1.95763 0
M  V30 2328 H 217.486 -7.74795 0.855181 0
M  V30 2329 N 221.715 -0.905404 -1.28997 0
M  V30 2330 C 222.943 -0.549846 -1.9946 0
M  V30 2331 C 223.358 0.866834 -1.67724 0
M  V30 2332 O 222.715 1.57298 -0.925404 0
M  V30 2333 C 222.766 -0.739387 -3.53858 0
M  V30 2334 O 222.487 -2.10031 -3.84472 0
M  V30 2335 C 223.988 -0.389541 -4.41585 0
M  V30 2336 H 221.208 -0.210429 -0.637151 0
M  V30 2337 H 223.752 -1.21632 -1.64396 0
M  V30 2338 H 221.907 -0.120023 -3.87214 0
M  V30 2339 H 222.321 -2.13385 -4.79132 0
M  V30 2340 H 223.795 -0.572972 -5.49018 0
M  V30 2341 H 224.272 0.673756 -4.34001 0
M  V30 2342 H 224.878 -0.986089 -4.1371 0
M  V30 2343 N 223.193 1.4272 -0.668489 0
M  V30 2344 C 224.123 2.335 -0.000100175 0
M  V30 2345 C 225.104 1.50328 0.795964 0
M  V30 2346 O 226.289 1.78949 0.754385 0
M  V30 2347 C 223.419 3.33874 0.956302 0
M  V30 2348 C 222.373 4.27152 0.269278 0
M  V30 2349 C 221.699 5.17684 1.33818 0
M  V30 2350 C 222.999 5.15373 -0.847805 0
M  V30 2351 H 224.693 2.89639 -0.758244 0
M  V30 2352 H 222.239 1.39269 -0.366079 0
M  V30 2353 H 224.192 3.9629 1.43292 0
M  V30 2354 H 222.916 2.76025 1.74579 0
M  V30 2355 H 221.575 3.66123 -0.187042 0
M  V30 2356 H 221.223 4.56165 2.1195 0
M  V30 2357 H 220.923 5.80918 0.883659 0
M  V30 2358 H 222.447 5.82974 1.81586 0
M  V30 2359 H 223.861 5.7151 -0.452681 0
M  V30 2360 H 222.258 5.87407 -1.22773 0
M  V30 2361 H 223.328 4.5415 -1.69929 0
M  V30 2362 N 224.671 0.411399 1.52136 0
M  V30 2363 C 225.618 -0.412975 2.27075 0
M  V30 2364 C 226.588 -1.03912 1.29582 0
M  V30 2365 O 227.773 -1.06296 1.58448 0
M  V30 2366 C 224.913 -1.52247 3.09701 0
M  V30 2367 C 224.026 -0.917021 4.22155 0
M  V30 2368 C 223.161 -1.9994 4.92135 0
M  V30 2369 C 222.2 -1.37101 5.96548 0
M  V30 2370 N 221.337 -2.39364 6.60038 0
M  V30 2371 H 226.177 0.232499 2.97092 0
M  V30 2372 H 223.714 0.126496 1.46555 0
M  V30 2373 H 225.672 -2.17674 3.55913 0
M  V30 2374 H 224.302 -2.13794 2.41851 0
M  V30 2375 H 223.354 -0.151742 3.80097 0
M  V30 2376 H 224.666 -0.418006 4.97045 0
M  V30 2377 H 223.82 -2.73088 5.41763 0
M  V30 2378 H 222.559 -2.53208 4.16818 0
M  V30 2379 H 221.564 -0.624873 5.46237 0
M  V30 2380 H 222.789 -0.845998 6.7381 0
M  V30 2381 H 220.735 -2.91759 5.87548 0
M  V30 2382 H 220.652 -1.9428 7.3061 0
M  V30 2383 H 221.92 -3.12074 7.14304 0
M  V30 2384 N 226.149 -1.5696 0.141893 0
M  V30 2385 C 227.059 -2.20066 -0.812905 0
M  V30 2386 C 228.075 -1.18344 -1.27557 0
M  V30 2387 O 229.251 -1.50902 -1.33381 0
M  V30 2388 C 226.316 -2.80583 -2.03652 0
M  V30 2389 C 225.377 -3.97414 -1.62359 0
M  V30 2390 C 224.61 -4.55036 -2.78887 0
M  V30 2391 O 224.833 -4.11538 -3.94959 0
M  V30 2392 O 223.767 -5.45376 -2.54653 0
M  V30 2393 H 227.593 -3.02157 -0.305746 0
M  V30 2394 H 225.178 -1.49159 -0.0848799 0
M  V30 2395 H 227.06 -3.19067 -2.75272 0
M  V30 2396 H 225.735 -2.01508 -2.5333 0
M  V30 2397 H 224.642 -3.63656 -0.877775 0
M  V30 2398 H 225.975 -4.77994 -1.17401 0
M  V30 2399 N 227.627 0.131896 -1.57047 0
M  V30 2400 C 228.557 1.16384 -2.02428 0
M  V30 2401 C 229.538 1.43936 -0.90644 0
M  V30 2402 O 230.723 1.54599 -1.17528 0
M  V30 2403 C 227.853 2.49328 -2.4177 0
M  V30 2404 C 226.807 2.36266 -3.56879 0
M  V30 2405 C 226.133 3.74057 -3.8208 0
M  V30 2406 C 227.433 1.834 -4.89042 0
M  V30 2407 H 229.127 0.786433 -2.88887 0
M  V30 2408 H 226.673 0.376855 -1.38981 0
M  V30 2409 H 228.626 3.21759 -2.7212 0
M  V30 2410 H 227.35 2.88934 -1.52266 0
M  V30 2411 H 226.009 1.66286 -3.26718 0
M  V30 2412 H 225.657 4.11125 -2.89803 0
M  V30 2413 H 225.357 3.66174 -4.59554 0
M  V30 2414 H 226.881 4.48012 -4.1487 0
M  V30 2415 H 228.295 2.45636 -5.18011 0
M  V30 2416 H 226.692 1.8637 -5.70426 0
M  V30 2417 H 227.762 0.790662 -4.7841 0
M  V30 2418 N 229.106 1.52395 0.401703 0
M  V30 2419 C 230.054 1.7689 1.51039 0
M  V30 2420 C 231.048 0.636298 1.56996 0
M  V30 2421 O 232.254 0.818507 1.60314 0
M  V30 2422 H 228.629 0.559502 0.502456 0
M  V30 2423 H 230.6 2.69757 1.27568 0
M  V30 2424 C 229.349 1.94331 2.88324 0
M  V30 2425 H 228.672 2.80905 2.84486 0
M  V30 2426 H 230.112 2.15466 3.65172 0
M  V30 2427 C 228.571 0.712396 3.29282 0
M  V30 2428 O 229.101 -0.116218 4.01532 0
M  V30 2429 N 227.307 0.546154 2.85422 0
M  V30 2430 H 226.854 1.22156 2.26794 0
M  V30 2431 H 226.812 -0.276113 3.13185 0
M  V30 2432 N 230.584 -0.659388 1.43143 0
M  V30 2433 C 231.83 -1.42145 1.44647 0
M  V30 2434 C 232.163 -1.9408 0.0681907 0
M  V30 2435 O 231.438 -1.71899 -0.910007 0
M  V30 2436 C 231.721 -2.60735 2.48373 0
M  V30 2437 C 231.574 -2.14332 3.95451 0
M  V30 2438 C 232.893 -3.62951 2.48906 0
M  V30 2439 H 230.012 -0.51552 0.526696 0
M  V30 2440 H 232.654 -0.748069 1.74654 0
M  V30 2441 H 230.804 -3.18184 2.22916 0
M  V30 2442 H 232.476 -1.61932 4.31944 0
M  V30 2443 H 230.719 -1.4576 4.08578 0
M  V30 2444 H 231.39 -2.99583 4.63631 0
M  V30 2445 H 233.866 -3.1525 2.71582 0
M  V30 2446 H 232.742 -4.43487 3.23435 0
M  V30 2447 H 233.003 -4.15126 1.52061 0
M  V30 2448 N 232.062 -1.29571 -0.897171 0
M  V30 2449 C 233.025 -1.14913 -1.98312 0
M  V30 2450 C 234.025 -0.0838629 -1.60581 0
M  V30 2451 O 235.215 -0.331006 -1.71026 0
M  V30 2452 C 232.347 -0.757835 -3.3237 0
M  V30 2453 H 233.54 -2.11377 -2.12743 0
M  V30 2454 H 231.093 -1.12793 -1.08201 0
M  V30 2455 H 231.828 0.206837 -3.2364 0
M  V30 2456 H 231.613 -1.52755 -3.61121 0
M  V30 2457 H 233.103 -0.678408 -4.12053 0
M  V30 2458 N 233.54 1.10788 -1.12088 0
M  V30 2459 C 234.49 2.15158 -0.754401 0
M  V30 2460 C 235.474 1.59026 0.244846 0
M  V30 2461 O 236.666 1.76927 0.0509097 0
M  V30 2462 C 233.795 3.42677 -0.206657 0
M  V30 2463 C 232.881 4.05751 -1.23398 0
M  V30 2464 N 233.272 4.43582 -2.43041 0
M  V30 2465 C 231.57 4.32764 -1.07848 0
M  V30 2466 C 232.271 4.93085 -3.08613 0
M  V30 2467 N 231.247 4.89664 -2.36072 0
M  V30 2468 H 235.049 2.42195 -1.6649 0
M  V30 2469 H 232.563 1.27872 -1.00112 0
M  V30 2470 H 234.56 4.16834 0.0740646 0
M  V30 2471 H 233.22 3.17101 0.698342 0
M  V30 2472 H 234.231 4.35395 -2.80449 0
M  V30 2473 H 230.908 4.16863 -0.230483 0
M  V30 2474 H 232.298 5.31933 -4.10483 0
M  V30 2475 N 235.018 0.912232 1.28515 0
M  V30 2476 C 235.966 0.389597 2.29314 0
M  V30 2477 C 236.96 -0.517915 1.61289 0
M  V30 2478 O 238.166 -0.399328 1.75515 0
M  V30 2479 H 234.541 0.107386 0.744293 0
M  V30 2480 H 236.512 1.25286 2.70825 0
M  V30 2481 C 235.261 -0.356496 3.45868 0
M  V30 2482 H 234.584 0.332608 3.98414 0
M  V30 2483 H 236.024 -0.686851 4.184 0
M  V30 2484 C 234.483 -1.56383 2.98406 0
M  V30 2485 O 235.013 -2.66294 3.00749 0
M  V30 2486 N 233.219 -1.41029 2.54085 0
M  V30 2487 H 232.766 -0.516089 2.52377 0
M  V30 2488 H 232.724 -2.21939 2.22689 0
M  V30 2489 N 236.496 -1.42363 0.676048 0
M  V30 2490 C 237.426 -2.33497 0.0124832 0
M  V30 2491 C 238.407 -1.50748 -0.787981 0
M  V30 2492 O 239.592 -1.79346 -0.744884 0
M  V30 2493 C 236.722 -3.34377 -0.938582 0
M  V30 2494 C 235.676 -4.27289 -0.246622 0
M  V30 2495 C 235.002 -5.18386 -1.31071 0
M  V30 2496 C 236.302 -5.14916 0.875125 0
M  V30 2497 H 237.996 -2.89233 0.773593 0
M  V30 2498 H 235.542 -1.39073 0.37346 0
M  V30 2499 H 237.495 -3.97044 -1.41188 0
M  V30 2500 H 236.219 -2.76947 -1.73113 0
M  V30 2501 H 234.878 -3.66018 0.206456 0
M  V30 2502 H 234.526 -4.57282 -2.09528 0
M  V30 2503 H 234.226 -5.81378 -0.852839 0
M  V30 2504 H 235.75 -5.83929 -1.78492 0
M  V30 2505 H 237.164 -5.71262 0.482983 0
M  V30 2506 H 235.561 -5.86747 1.25887 0
M  V30 2507 H 236.631 -4.53242 1.72335 0
M  V30 2508 N 237.974 -0.419461 -1.51915 0
M  V30 2509 C 239.223 0.154346 -2.01109 0
M  V30 2510 C 239.536 1.45338 -1.30905 0
M  V30 2511 O 240.742 2.10906 -1.7097 0
M  V30 2512 C 239.198 0.325615 -3.58424 0
M  V30 2513 C 238.806 -0.961934 -4.37551 0
M  V30 2514 C 240.55 0.854155 -4.15818 0
M  V30 2515 C 238.457 -0.757287 -5.86531 0
M  V30 2516 H 237.387 0.0614563 -0.751491 0
M  V30 2517 H 240.038 -0.54649 -1.75173 0
M  V30 2518 H 238.42 1.08903 -3.80731 0
M  V30 2519 H 239.594 -1.7323 -4.26999 0
M  V30 2520 H 237.909 -1.41766 -3.91524 0
M  V30 2521 H 240.506 1.02346 -5.24814 0
M  V30 2522 H 240.849 1.83172 -3.73837 0
M  V30 2523 H 241.382 0.149528 -3.97519 0
M  V30 2524 H 238.121 -1.70671 -6.32892 0
M  V30 2525 H 237.641 -0.0264061 -5.99794 0
M  V30 2526 H 239.32 -0.403482 -6.45741 0
M  V30 2527 N 239.452 1.56882 -0.150215 0
M  V30 2528 C 240.384 2.14057 0.819286 0
M  V30 2529 C 241.397 1.09082 1.20851 0
M  V30 2530 O 242.586 1.36347 1.15203 0
M  V30 2531 C 239.686 2.65102 2.11127 0
M  V30 2532 C 238.859 3.94511 1.88891 0
M  V30 2533 C 237.918 4.30834 3.02107 0
M  V30 2534 O 236.944 4.99099 2.73659 0
M  V30 2535 N 238.146 3.90676 4.29363 0
M  V30 2536 H 240.911 2.97871 0.330618 0
M  V30 2537 H 238.472 1.61866 0.0332538 0
M  V30 2538 H 240.464 2.86411 2.85921 0
M  V30 2539 H 239.034 1.85994 2.51247 0
M  V30 2540 H 238.254 3.81795 0.981152 0
M  V30 2541 H 239.542 4.7907 1.71376 0
M  V30 2542 H 238.94 3.35677 4.55343 0
M  V30 2543 H 237.497 4.1703 5.00928 0
M  V30 2544 N 240.93 -0.123565 1.57115 0
M  V30 2545 C 242.155 -0.850398 1.89164 0
M  V30 2546 C 242.58 -1.7286 0.741688 0
M  V30 2547 O 241.938 -1.78665 -0.307958 0
M  V30 2548 C 241.986 -1.66353 3.19936 0
M  V30 2549 O 241.09 -2.77004 3.0552 0
M  V30 2550 H 240.431 -0.235454 0.620852 0
M  V30 2551 H 242.961 -0.107335 2.04318 0
M  V30 2552 H 242.971 -2.05372 3.52543 0
M  V30 2553 H 241.646 -1.01881 4.03228 0
M  V30 2554 H 240.223 -2.41221 2.84371 0
M  V30 2555 N 242.408 -1.52605 -0.393616 0
M  V30 2556 C 243.655 -1.67424 -1.1391 0
M  V30 2557 C 243.983 -0.411859 -1.90089 0
M  V30 2558 O 243.238 0.605626 -1.86093 0
M  V30 2559 C 243.537 -2.85721 -2.14705 0
M  V30 2560 C 243.203 -4.23342 -1.55218 0
M  V30 2561 C 241.865 -4.60771 -1.3872 0
M  V30 2562 C 244.217 -5.09041 -1.11924 0
M  V30 2563 C 241.545 -5.81563 -0.774689 0
M  V30 2564 C 243.897 -6.30452 -0.520853 0
M  V30 2565 C 242.561 -6.66617 -0.343134 0
M  V30 2566 H 241.831 -0.612648 -0.416826 0
M  V30 2567 H 244.478 -1.8674 -0.424315 0
M  V30 2568 H 242.783 -2.60803 -2.92385 0
M  V30 2569 H 244.48 -2.94382 -2.72288 0
M  V30 2570 H 241.07 -3.93855 -1.69045 0
M  V30 2571 H 245.254 -4.80695 -1.23473 0
M  V30 2572 H 240.51 -6.08196 -0.625154 0
M  V30 2573 H 244.684 -6.96175 -0.177065 0
M  V30 2574 H 242.311 -7.60083 0.133571 0
M  V30 2575 N 243.887 0.651787 -1.4349 0
M  V30 2576 C 244.834 1.76462 -1.4876 0
M  V30 2577 C 245.804 1.62641 -0.337189 0
M  V30 2578 O 246.989 1.82864 -0.544544 0
M  V30 2579 C 244.129 3.14623 -1.41796 0
M  V30 2580 C 243.242 3.39568 -2.67053 0
M  V30 2581 C 242.377 4.67585 -2.52068 0
M  V30 2582 C 241.416 4.85639 -3.72587 0
M  V30 2583 N 240.553 6.04915 -3.56402 0
M  V30 2584 H 245.393 1.71293 -2.43849 0
M  V30 2585 H 242.93 0.835889 -1.21043 0
M  V30 2586 H 244.888 3.94496 -1.35753 0
M  V30 2587 H 243.518 3.18859 -0.50288 0
M  V30 2588 H 242.57 2.53783 -2.8337 0
M  V30 2589 H 243.882 3.48795 -3.56572 0
M  V30 2590 H 243.036 5.55586 -2.4374 0
M  V30 2591 H 241.775 4.60681 -1.60075 0
M  V30 2592 H 240.78 3.96073 -3.81321 0
M  V30 2593 H 242.005 4.94372 -4.65589 0
M  V30 2594 H 239.951 5.9914 -2.67146 0
M  V30 2595 H 239.868 6.15106 -4.39524 0
M  V30 2596 H 241.136 6.95533 -3.51929 0
M  V30 2597 N 245.365 1.30045 0.890287 0
M  V30 2598 C 246.295 1.18541 2.01172 0
M  V30 2599 C 247.276 0.0773356 1.69924 0
M  V30 2600 O 248.461 0.25845 1.92473 0
M  V30 2601 C 245.591 0.870941 3.36202 0
M  V30 2602 C 244.545 1.93637 3.81692 0
M  V30 2603 C 243.871 1.475 5.13953 0
M  V30 2604 C 245.171 3.34666 4.00994 0
M  V30 2605 H 246.865 2.12359 2.11054 0
M  V30 2606 H 244.411 1.02238 1.01407 0
M  V30 2607 H 246.364 0.777141 4.14172 0
M  V30 2608 H 245.088 -0.102926 3.26438 0
M  V30 2609 H 243.747 2.01972 3.05946 0
M  V30 2610 H 243.395 0.489551 5.00612 0
M  V30 2611 H 243.095 2.1876 5.4536 0
M  V30 2612 H 244.619 1.39489 5.94454 0
M  V30 2613 H 246.033 3.2912 4.69417 0
M  V30 2614 H 244.43 4.03966 4.43769 0
M  V30 2615 H 245.5 3.76949 3.05021 0
M  V30 2616 N 246.843 -1.10192 1.12674 0
M  V30 2617 C 248.254 -1.63707 0.897604 0
M  V30 2618 C 248.605 -1.87812 -0.567546 0
M  V30 2619 O 247.73 -1.62196 -1.43253 0
M  V30 2620 C 248.325 -2.974 1.62292 0
M  V30 2621 C 246.884 -3.47772 1.43986 0
M  V30 2622 C 246.031 -2.22332 1.65722 0
M  V30 2623 H 248.982 -0.936587 1.28116 0
M  V30 2624 H 249.003 -3.64986 1.07541 0
M  V30 2625 H 248.515 -2.79824 2.68924 0
M  V30 2626 H 246.616 -3.70487 0.396206 0
M  V30 2627 H 246.729 -4.25723 2.19765 0
M  V30 2628 H 245.093 -2.30599 1.08149 0
M  V30 2629 H 245.876 -2.07285 2.73657 0
M  V30 2630 N 248.321 -0.919034 -1.28029 0
M  V30 2631 C 249.231 -0.416756 -2.30869 0
M  V30 2632 C 250.247 0.498235 -1.66714 0
M  V30 2633 O 251.423 0.383144 -1.97722 0
M  V30 2634 C 248.488 0.330274 -3.45123 0
M  V30 2635 C 247.549 -0.618578 -4.2482 0
M  V30 2636 C 246.782 0.0928959 -5.33619 0
M  V30 2637 O 247.005 1.31375 -5.55065 0
M  V30 2638 O 245.939 -0.574499 -5.99152 0
M  V30 2639 H 249.765 -1.27043 -2.75851 0
M  V30 2640 H 247.35 -0.684052 -1.3282 0
M  V30 2641 H 249.232 0.751972 -4.14636 0
M  V30 2642 H 247.907 1.1597 -3.02213 0
M  V30 2643 H 246.814 -1.08978 -3.57875 0
M  V30 2644 H 248.147 -1.41497 -4.71423 0
M  V30 2645 N 249.799 1.42003 -0.683588 0
M  V30 2646 C 251.029 2.05448 -0.217866 0
M  V30 2647 C 251.437 1.51491 1.13346 0
M  V30 2648 O 250.78 0.653048 1.717 0
M  V30 2649 C 250.842 3.59399 -0.0850118 0
M  V30 2650 C 250.506 4.36093 -1.36645 0
M  V30 2651 C 251.503 4.66169 -2.30179 0
M  V30 2652 C 249.188 4.75578 -1.61649 0
M  V30 2653 C 251.182 5.34676 -3.46988 0
M  V30 2654 C 248.869 5.43824 -2.78745 0
M  V30 2655 C 249.867 5.73299 -3.71238 0
M  V30 2656 O 249.555 6.40142 -4.86285 0
M  V30 2657 H 249.287 0.668344 -0.101454 0
M  V30 2658 H 251.841 1.82974 -0.933248 0
M  V30 2659 H 250.071 3.80566 0.686031 0
M  V30 2660 H 251.76 4.04457 0.341973 0
M  V30 2661 H 252.526 4.36156 -2.12115 0
M  V30 2662 H 248.405 4.52025 -0.905243 0
M  V30 2663 H 251.949 5.57599 -4.19201 0
M  V30 2664 H 247.846 5.73254 -2.96732 0
M  V30 2665 H 248.614 6.58636 -4.85944 0
M  V30 2666 N 251.277 0.427512 1.51691 0
M  V30 2667 C 252.524 -0.142229 2.02 0
M  V30 2668 C 252.852 -1.43566 1.31221 0
M  V30 2669 O 252.107 -1.91298 0.412744 0
M  V30 2670 C 252.406 -0.418249 3.54944 0
M  V30 2671 C 252.072 0.788187 4.43958 0
M  V30 2672 C 250.734 1.11906 4.68007 0
M  V30 2673 C 253.086 1.59347 4.96244 0
M  V30 2674 C 250.414 2.25608 5.41588 0
M  V30 2675 C 252.766 2.7214 5.71072 0
M  V30 2676 C 251.43 3.05692 5.93387 0
M  V30 2677 H 250.7 -0.0520451 0.73917 0
M  V30 2678 H 253.347 0.572697 1.82736 0
M  V30 2679 H 251.652 -1.21496 3.72486 0
M  V30 2680 H 253.349 -0.872339 3.91397 0
M  V30 2681 H 249.939 0.520344 4.2543 0
M  V30 2682 H 254.123 1.35106 4.77556 0
M  V30 2683 H 249.379 2.51929 5.57083 0
M  V30 2684 H 253.553 3.34914 6.10578 0
M  V30 2685 H 251.18 3.9391 6.50184 0
M  V30 2686 N 252.755 -1.56801 0.158532 0
M  V30 2687 C 253.98 -2.01295 -0.499516 0
M  V30 2688 C 254.405 -1.03799 -1.56867 0
M  V30 2689 O 253.763 -0.0155162 -1.81293 0
M  V30 2690 C 253.811 -3.44469 -1.06647 0
M  V30 2691 O 252.915 -3.50012 -2.18095 0
M  V30 2692 H 252.256 -0.652884 -0.12099 0
M  V30 2693 H 254.786 -2.02958 0.258661 0
M  V30 2694 H 254.796 -3.8351 -1.39227 0
M  V30 2695 H 253.471 -4.14932 -0.283581 0
M  V30 2696 H 252.048 -3.22822 -1.86656 0
M  V30 2697 N 254.233 0.115231 -1.57178 0
M  V30 2698 C 255.181 1.16014 -2.01602 0
M  V30 2699 C 256.175 1.42653 -0.913587 0
M  V30 2700 O 257.381 1.42571 -1.09879 0
M  V30 2701 H 253.756 0.391252 -0.642204 0
M  V30 2702 H 255.727 0.758998 -2.88586 0
M  V30 2703 C 254.476 2.47767 -2.4394 0
M  V30 2704 H 253.799 2.28108 -3.28339 0
M  V30 2705 H 255.239 3.19432 -2.78818 0
M  V30 2706 C 253.698 3.10617 -1.30455 0
M  V30 2707 O 254.228 3.96846 -0.622585 0
M  V30 2708 N 252.434 2.70553 -1.06064 0
M  V30 2709 H 251.981 2.00527 -1.61699 0
M  V30 2710 H 251.939 3.12934 -0.303284 0
M  V30 2711 N 255.711 1.52812 0.385517 0
M  V30 2712 C 256.641 1.80808 1.47752 0
M  V30 2713 C 257.622 0.660318 1.5676 0
M  V30 2714 O 258.807 0.908246 1.71652 0
M  V30 2715 C 255.937 1.98008 2.85324 0
M  V30 2716 C 254.891 3.13709 2.91154 0
M  V30 2717 C 254.217 3.16169 4.31209 0
M  V30 2718 C 255.517 4.52709 2.60483 0
M  V30 2719 H 257.211 2.72253 1.24573 0
M  V30 2720 H 254.757 1.31003 0.597839 0
M  V30 2721 H 256.71 2.16176 3.61726 0
M  V30 2722 H 255.434 1.03255 3.09848 0
M  V30 2723 H 254.093 2.95329 2.17201 0
M  V30 2724 H 253.741 2.19092 4.52778 0
M  V30 2725 H 253.441 3.93894 4.36029 0
M  V30 2726 H 254.965 3.36496 5.09512 0
M  V30 2727 H 256.379 4.71173 3.26602 0
M  V30 2728 H 254.776 5.32528 2.76648 0
M  V30 2729 H 255.846 4.59186 1.55809 0
M  V30 2730 N 257.189 -0.644168 1.43834 0
M  V30 2731 C 258.417 -1.43147 1.49387 0
M  V30 2732 C 258.832 -1.88452 0.114583 0
M  V30 2733 O 258.189 -1.60047 -0.876989 0
M  V30 2734 C 258.24 -2.66046 2.44748 0
M  V30 2735 O 257.961 -2.22633 3.77314 0
M  V30 2736 C 259.462 -3.59311 2.59635 0
M  V30 2737 H 256.682 -0.439447 0.507077 0
M  V30 2738 H 259.226 -0.78895 1.88669 0
M  V30 2739 H 257.381 -3.26418 2.08638 0
M  V30 2740 H 257.795 -3.02216 4.28679 0
M  V30 2741 H 259.269 -4.42187 3.30416 0
M  V30 2742 H 259.746 -4.07259 1.64427 0
M  V30 2743 H 260.352 -3.04816 2.96593 0
M  V30 2744 N 258.668 -1.30515 -0.883378 0
M  V30 2745 C 259.616 -1.16941 -2.01066 0
M  V30 2746 C 260.61 -0.0809148 -1.69207 0
M  V30 2747 O 261.816 -0.241877 -1.78367 0
M  V30 2748 H 258.191 -0.361705 -0.659298 0
M  V30 2749 H 260.162 -2.12344 -2.09649 0
M  V30 2750 C 258.911 -0.879694 -3.36388 0
M  V30 2751 H 258.234 -1.70936 -3.61415 0
M  V30 2752 H 259.674 -0.82483 -4.159 0
M  V30 2753 C 258.133 0.417409 -3.34304 0
M  V30 2754 O 258.663 1.43843 -3.75063 0
M  V30 2755 N 256.869 0.429141 -2.87414 0
M  V30 2756 H 256.416 -0.402222 -2.5444 0
M  V30 2757 H 256.374 1.29696 -2.86403 0
M  V30 2758 N 260.146 1.09593 -1.13257 0
M  V30 2759 C 261.076 2.18214 -0.830946 0
M  V30 2760 C 262.057 1.68812 0.208966 0
M  V30 2761 O 263.242 1.9408 0.0682666 0
M  V30 2762 C 260.372 3.46051 -0.294296 0
M  V30 2763 C 259.326 4.08778 -1.26826 0
M  V30 2764 C 258.652 5.31419 -0.591449 0
M  V30 2765 C 259.952 4.51476 -2.62615 0
M  V30 2766 H 261.646 2.43703 -1.73923 0
M  V30 2767 H 259.192 1.17128 -0.837675 0
M  V30 2768 H 261.145 4.2134 -0.0709606 0
M  V30 2769 H 259.869 3.20079 0.649366 0
M  V30 2770 H 258.528 3.35505 -1.47756 0
M  V30 2771 H 258.176 5.01727 0.357633 0
M  V30 2772 H 257.876 5.74341 -1.24123 0
M  V30 2773 H 259.4 6.09433 -0.377355 0
M  V30 2774 H 260.814 5.17999 -2.45663 0
M  V30 2775 H 259.211 5.05277 -3.23752 0
M  V30 2776 H 260.281 3.63962 -3.20406 0
M  V30 2777 N 261.624 0.925811 1.2754 0
M  V30 2778 C 262.534 0.428993 2.30644 0
M  V30 2779 C 263.55 -0.489387 1.66976 0
M  V30 2780 O 264.726 -0.372653 1.97922 0
M  V30 2781 C 261.791 -0.311967 3.45294 0
M  V30 2782 C 260.852 0.641098 4.24486 0
M  V30 2783 C 260.085 -0.0645955 5.33661 0
M  V30 2784 O 260.308 -1.28429 5.55754 0
M  V30 2785 O 259.242 0.606265 5.98839 0
M  V30 2786 H 263.068 1.28504 2.75173 0
M  V30 2787 H 260.653 0.691086 1.32455 0
M  V30 2788 H 262.535 -0.729972 4.15029 0
M  V30 2789 H 261.21 -1.14365 3.02824 0
M  V30 2790 H 260.117 1.10874 3.57292 0
M  V30 2791 H 261.45 1.43995 4.70666 0
M  V30 2792 N 263.102 -1.41638 0.69111 0
M  V30 2793 C 264.052 -2.28 -0.000107832 0
M  V30 2794 C 265.036 -1.41964 -0.757304 0
M  V30 2795 O 266.228 -1.65274 -0.633532 0
M  V30 2796 C 263.357 -3.30209 -0.938983 0
M  V30 2797 C 262.443 -4.23725 -0.17827 0
M  V30 2798 N 262.834 -4.99017 0.825563 0
M  V30 2799 C 261.132 -4.44071 -0.414392 0
M  V30 2800 C 261.833 -5.67431 1.28052 0
M  V30 2801 N 260.809 -5.40197 0.607304 0
M  V30 2802 H 264.611 -2.83644 0.769617 0
M  V30 2803 H 262.125 -1.53797 0.521562 0
M  V30 2804 H 264.122 -3.90898 -1.44929 0
M  V30 2805 H 262.782 -2.76126 -1.70836 0
M  V30 2806 H 263.793 -5.03671 1.20566 0
M  V30 2807 H 260.47 -4.01004 -1.162 0
M  V30 2808 H 261.86 -6.37801 2.11327 0
M  V30 2809 N 264.58 -0.43555 -1.51462 0
M  V30 2810 C 265.51 0.367376 -2.30592 0
M  V30 2811 C 266.491 1.02263 -1.35928 0
M  V30 2812 O 267.676 1.02661 -1.64847 0
M  V30 2813 C 264.806 1.46983 -3.14664 0
M  V30 2814 C 263.76 0.938161 -4.17591 0
M  V30 2815 C 263.086 2.13622 -4.90173 0
M  V30 2816 C 264.386 -0.0261621 -5.22293 0
M  V30 2817 H 266.08 -0.292969 -2.97963 0
M  V30 2818 H 263.626 -0.14234 -1.43295 0
M  V30 2819 H 265.579 2.03873 -3.688 0
M  V30 2820 H 264.303 2.15843 -2.4511 0
M  V30 2821 H 262.962 0.391481 -3.64504 0
M  V30 2822 H 262.61 2.81098 -4.17124 0
M  V30 2823 H 262.31 1.78688 -5.59772 0
M  V30 2824 H 263.834 2.7107 -5.47132 0
M  V30 2825 H 265.248 0.452384 -5.71512 0
M  V30 2826 H 263.645 -0.287992 -5.99409 0
M  V30 2827 H 264.715 -0.963391 -4.75233 0
M  V30 2828 N 266.058 1.56714 -0.166846 0
M  V30 2829 C 267.335 1.88412 0.525373 0
M  V30 2830 C 267.715 1.07602 1.81618 0
M  V30 2831 O 267.063 0.168621 2.27877 0
M  V30 2832 C 267.273 3.40363 0.771613 0
M  V30 2833 C 268.621 4.10007 1.1036 0
M  V30 2834 O 269.645 3.45655 0.860304 0
M  V30 2835 O 268.504 5.2369 1.56239 0
M  V30 2836 H 265.598 0.781587 0.270278 0
M  V30 2837 H 268.144 1.68458 -0.204946 0
M  V30 2838 H 266.916 3.91046 -0.141093 0
M  V30 2839 H 266.539 3.65914 1.55541 0
M  V30 2840 N 267.536 -0.106894 1.57237 0
M  V30 2841 C 268.466 -1.13148 2.04254 0
M  V30 2842 C 269.447 -1.42476 0.929224 0
M  V30 2843 O 270.632 -1.52709 1.19973 0
M  V30 2844 C 267.762 -2.4545 2.45706 0
M  V30 2845 C 266.716 -2.30558 3.60592 0
M  V30 2846 C 266.042 -3.67931 3.87983 0
M  V30 2847 C 267.342 -1.75597 4.91897 0
M  V30 2848 H 269.036 -0.740374 2.90101 0
M  V30 2849 H 266.582 -0.354696 1.39563 0
M  V30 2850 H 268.535 -3.17389 2.77205 0
M  V30 2851 H 267.259 -2.86475 1.56843 0
M  V30 2852 H 265.918 -1.61067 3.29322 0
M  V30 2853 H 265.566 -4.06462 2.96306 0
M  V30 2854 H 265.266 -3.58817 4.65322 0
M  V30 2855 H 266.79 -4.41356 4.21945 0
M  V30 2856 H 268.204 -2.37364 5.21854 0
M  V30 2857 H 266.601 -1.77272 5.73319 0
M  V30 2858 H 267.671 -0.714451 4.79608 0
M  V30 2859 N 269.014 -1.53014 -0.377408 0
M  V30 2860 C 270.239 -1.72818 -1.14668 0
M  V30 2861 C 270.664 -0.450725 -1.8262 0
M  V30 2862 O 270.022 0.59439 -1.7128 0
M  V30 2863 C 270.07 -2.88627 -2.16164 0
M  V30 2864 O 269.174 -2.56409 -3.22998 0
M  V30 2865 H 268.515 -0.574301 -0.333278 0
M  V30 2866 H 271.045 -1.99853 -0.438152 0
M  V30 2867 H 271.055 -3.14455 -2.59966 0
M  V30 2868 H 269.73 -3.81294 -1.66095 0
M  V30 2869 H 268.307 -2.4136 -2.84253 0
M  V30 2870 N 270.492 0.636531 -1.44174 0
M  V30 2871 C 271.717 1.42847 -1.50364 0
M  V30 2872 C 272.142 1.87665 -0.127867 0
M  V30 2873 O 271.5 1.58408 0.88185 0
M  V30 2874 C 271.548 2.62854 -2.4686 0
M  V30 2875 O 270.652 3.62501 -1.9664 0
M  V30 2876 H 269.993 0.427642 -0.507955 0
M  V30 2877 H 272.523 0.777422 -1.89255 0
M  V30 2878 H 272.533 3.10465 -2.64718 0
M  V30 2879 H 271.208 2.29578 -3.46795 0
M  V30 2880 H 269.785 3.21735 -1.88523 0
M  V30 2881 N 271.97 1.30982 0.876444 0
M  V30 2882 C 272.918 1.18006 2.00443 0
M  V30 2883 C 273.912 0.0898871 1.69161 0
M  V30 2884 O 275.118 0.251333 1.78237 0
M  V30 2885 H 271.493 0.365196 0.65737 0
M  V30 2886 H 273.464 2.13453 2.0852 0
M  V30 2887 C 272.213 0.897521 3.35916 0
M  V30 2888 H 271.536 1.7285 3.60504 0
M  V30 2889 H 272.976 0.846874 4.15456 0
M  V30 2890 C 271.435 -0.399674 3.34521 0
M  V30 2891 O 271.965 -1.41852 3.7582 0
M  V30 2892 N 270.171 -0.413893 2.87637 0
M  V30 2893 H 269.718 0.41571 2.54224 0
M  V30 2894 H 269.676 -1.28175 2.87086 0
M  V30 2895 N 273.449 -1.08991 1.13837 0
M  V30 2896 C 274.396 -2.15748 0.819835 0
M  V30 2897 C 275.366 -1.64636 -0.220026 0
M  V30 2898 O 276.551 -1.90582 -0.0912757 0
M  V30 2899 C 273.691 -3.4382 0.296913 0
M  V30 2900 C 272.804 -4.0881 1.39636 0
M  V30 2901 C 271.939 -5.24655 0.831314 0
M  V30 2902 C 270.978 -5.81575 1.90886 0
M  V30 2903 N 270.115 -6.88774 1.36142 0
M  V30 2904 H 274.955 -2.42338 1.73426 0
M  V30 2905 H 272.492 -1.18935 0.865613 0
M  V30 2906 H 274.45 -4.17193 -0.0244339 0
M  V30 2907 H 273.08 -3.17535 -0.580628 0
M  V30 2908 H 272.132 -3.33258 1.83422 0
M  V30 2909 H 273.444 -4.47141 2.21058 0
M  V30 2910 H 272.598 -6.04942 0.461515 0
M  V30 2911 H 271.337 -4.87698 -0.013932 0
M  V30 2912 H 270.342 -4.99946 2.28767 0
M  V30 2913 H 271.567 -6.20592 2.75758 0
M  V30 2914 H 269.513 -6.53788 0.538254 0
M  V30 2915 H 269.43 -7.25898 2.11208 0
M  V30 2916 H 270.698 -7.72806 1.01933 0
M  V30 2917 N 274.927 -0.932562 -1.27047 0
M  V30 2918 C 276.176 -0.571351 -1.93439 0
M  V30 2919 C 276.489 0.892467 -1.74053 0
M  V30 2920 O 277.695 1.36267 -2.34826 0
M  V30 2921 C 276.151 -0.97106 -3.46552 0
M  V30 2922 C 275.759 -2.4559 -3.74686 0
M  V30 2923 C 277.503 -0.681333 -4.18997 0
M  V30 2924 C 275.41 -2.79475 -5.21198 0
M  V30 2925 H 274.34 -0.209966 -0.724176 0
M  V30 2926 H 276.991 -1.13403 -1.44263 0
M  V30 2927 H 275.373 -0.336983 -3.94564 0
M  V30 2928 H 276.547 -3.13829 -3.37414 0
M  V30 2929 H 274.862 -2.71802 -3.15456 0
M  V30 2930 H 277.459 -0.910939 -5.26883 0
M  V30 2931 H 277.802 0.381628 -4.14547 0
M  V30 2932 H 278.335 -1.27473 -3.76823 0
M  V30 2933 H 275.074 -3.847 -5.30741 0
M  V30 2934 H 274.594 -2.1589 -5.596 0
M  V30 2935 H 276.273 -2.67478 -5.89122 0
M  V30 2936 N 276.405 1.4127 -0.698611 0
M  V30 2937 C 277.337 2.292 0.00399731 0
M  V30 2938 C 278.35 1.44944 0.741279 0
M  V30 2939 O 279.539 1.68416 0.591477 0
M  V30 2940 C 276.639 3.22875 1.02979 0
M  V30 2941 C 275.812 4.35904 0.36151 0
M  V30 2942 C 274.871 5.10134 1.29033 0
M  V30 2943 O 273.897 5.63809 0.781562 0
M  V30 2944 N 275.099 5.17885 2.6225 0
M  V30 2945 H 277.864 2.9014 -0.750921 0
M  V30 2946 H 275.425 1.52455 -0.544882 0
M  V30 2947 H 277.417 3.69404 1.65296 0
M  V30 2948 H 275.987 2.63221 1.68622 0
M  V30 2949 H 275.207 3.91719 -0.441584 0
M  V30 2950 H 276.495 5.08696 -0.103055 0
M  V30 2951 H 275.893 4.7573 3.061 0
M  V30 2952 H 274.45 5.6798 3.19754 0
M  V30 2953 N 277.883 0.443576 1.51229 0
M  V30 2954 C 279.108 -0.121648 2.07043 0
M  V30 2955 C 279.533 -1.35156 1.30823 0
M  V30 2956 O 278.891 -1.7793 0.347934 0
M  V30 2957 C 278.939 -0.41624 3.5819 0
M  V30 2958 O 278.043 -1.50163 3.8409 0
M  V30 2959 H 277.384 0.000871367 0.663999 0
M  V30 2960 H 279.914 0.626706 1.94765 0
M  V30 2961 H 279.924 -0.664867 4.02546 0
M  V30 2962 H 278.599 0.482653 4.1309 0
M  V30 2963 H 277.176 -1.24248 3.51592 0
M  V30 2964 N 279.361 -1.56624 0.175154 0
M  V30 2965 C 280.61 -1.96173 -0.468921 0
M  V30 2966 C 280.923 -1.06401 -1.64128 0
M  V30 2967 O 282.129 -1.35648 -2.35185 0
M  V30 2968 C 280.585 -3.48833 -0.885633 0
M  V30 2969 C 280.193 -4.47237 0.261343 0
M  V30 2970 C 281.937 -3.97194 -1.49791 0
M  V30 2971 C 279.844 -5.9114 -0.175214 0
M  V30 2972 H 278.774 -0.732455 -0.178958 0
M  V30 2973 H 281.425 -1.81591 0.263997 0
M  V30 2974 H 279.807 -3.58848 -1.67464 0
M  V30 2975 H 280.981 -4.4894 1.03871 0
M  V30 2976 H 279.296 -4.08956 0.783827 0
M  V30 2977 H 281.893 -5.02167 -1.83665 0
M  V30 2978 H 282.236 -3.40351 -2.39722 0
M  V30 2979 H 282.769 -3.90212 -0.773267 0
M  V30 2980 H 279.508 -6.51865 0.689414 0
M  V30 2981 H 279.028 -5.92735 -0.91786 0
M  V30 2982 H 280.707 -6.44044 -0.617792 0
M  V30 2983 N 280.839 0.0985539 -1.57292 0
M  V30 2984 C 282.069 0.815135 -1.8984 0
M  V30 2985 C 282.477 1.7297 -0.766679 0
M  V30 2986 O 281.82 1.81698 0.270483 0
M  V30 2987 C 281.882 1.6842 -3.17608 0
M  V30 2988 C 281.546 0.94182 -4.4719 0
M  V30 2989 C 282.543 0.273212 -5.19182 0
M  V30 2990 C 280.228 0.916927 -4.9386 0
M  V30 2991 C 282.222 -0.410361 -6.36078 0
M  V30 2992 C 279.909 0.229567 -6.10669 0
M  V30 2993 C 280.907 -0.432902 -6.81627 0
M  V30 2994 O 280.595 -1.10925 -7.9621 0
M  V30 2995 H 280.327 0.238501 -0.632529 0
M  V30 2996 H 282.881 0.0812659 -2.05239 0
M  V30 2997 H 281.111 2.46022 -2.98345 0
M  V30 2998 H 282.8 2.27704 -3.36015 0
M  V30 2999 H 283.566 0.283927 -4.84168 0
M  V30 3000 H 279.445 1.42201 -4.3852 0
M  V30 3001 H 282.989 -0.928013 -6.914 0
M  V30 3002 H 278.886 0.216686 -6.45136 0
M  V30 3003 H 279.654 -1.01579 -8.12172 0
M  V30 3004 N 282.317 1.53212 0.369288 0
M  V30 3005 C 283.557 1.70915 1.12105 0
M  V30 3006 C 283.921 0.449444 1.86665 0
M  V30 3007 O 285.122 0.503105 2.6405 0
M  V30 3008 C 283.393 2.9222 2.05772 0
M  V30 3009 S 284.952 3.30609 2.88519 0
M  V30 3010 H 281.77 0.601445 0.379189 0
M  V30 3011 H 284.372 1.91306 0.402794 0
M  V30 3012 H 283.076 3.82103 1.49752 0
M  V30 3013 H 282.607 2.7422 2.82076 0
M  V30 3014 H 284.622 2.82333 4.08047 0
M  V30 3015 N 283.795 -0.628877 1.44509 0
M  V30 3016 C 285.023 -1.41554 1.50897 0
M  V30 3017 C 285.438 -1.8832 0.134564 0
M  V30 3018 O 284.795 -1.60969 -0.859965 0
M  V30 3019 C 284.846 -2.63435 2.47556 0
M  V30 3020 O 284.567 -2.18619 3.79654 0
M  V30 3021 C 286.068 -3.56537 2.63431 0
M  V30 3022 H 283.288 -0.434044 0.511709 0
M  V30 3023 H 285.832 -0.768895 1.89495 0
M  V30 3024 H 283.987 -3.24187 2.12089 0
M  V30 3025 H 284.401 -2.97652 4.31861 0
M  V30 3026 H 285.875 -4.38657 3.35088 0
M  V30 3027 H 286.352 -4.05493 1.68738 0
M  V30 3028 H 286.958 -3.01653 2.9981 0
M  V30 3029 N 285.273 -1.31445 -0.869486 0
M  V30 3030 C 286.55 -1.11795 -1.60503 0
M  V30 3031 C 286.93 0.327168 -2.08549 0
M  V30 3032 O 286.278 1.32135 -1.8642 0
M  V30 3033 C 286.488 -2.13258 -2.76265 0
M  V30 3034 C 287.836 -2.45805 -3.46215 0
M  V30 3035 O 288.86 -2.11688 -2.86473 0
M  V30 3036 O 287.719 -3.04228 -4.5399 0
M  V30 3037 H 284.813 -0.430421 -0.706163 0
M  V30 3038 H 287.359 -1.42925 -0.914907 0
M  V30 3039 H 286.131 -3.10461 -2.3818 0
M  V30 3040 H 285.754 -1.83035 -3.52964 0
M  V30 3041 N 286.751 1.08385 -1.14413 0
M  V30 3042 C 287.681 2.17321 -0.854044 0
M  V30 3043 C 288.662 1.69024 0.191049 0
M  V30 3044 O 289.847 1.94141 0.0476779 0
M  V30 3045 C 286.977 3.45719 -0.330983 0
M  V30 3046 C 285.931 4.07409 -1.31155 0
M  V30 3047 C 285.257 5.30762 -0.64778 0
M  V30 3048 C 286.557 4.48665 -2.67388 0
M  V30 3049 H 288.251 2.41845 -1.76498 0
M  V30 3050 H 285.797 1.16233 -0.850051 0
M  V30 3051 H 287.75 4.21241 -0.115645 0
M  V30 3052 H 286.474 3.2075 0.615381 0
M  V30 3053 H 285.133 3.33919 -1.51306 0
M  V30 3054 H 284.781 5.02078 0.304398 0
M  V30 3055 H 284.481 5.72992 -1.30207 0
M  V30 3056 H 286.005 6.08998 -0.441972 0
M  V30 3057 H 287.419 5.15364 -2.51143 0
M  V30 3058 H 285.816 5.01814 -3.29093 0
M  V30 3059 H 286.886 3.60543 -3.24248 0
M  V30 3060 N 288.23 0.939286 1.26551 0
M  V30 3061 C 289.646 0.641304 1.46149 0
M  V30 3062 C 289.846 -0.805964 1.84679 0
M  V30 3063 O 288.902 -1.58278 1.96734 0
M  V30 3064 C 290.215 1.6011 2.54529 0
M  V30 3065 C 291.763 1.6106 2.68382 0
M  V30 3066 C 292.238 2.55765 3.79932 0
M  V30 3067 N 293.729 2.5404 3.87322 0
M  V30 3068 C 294.464 3.24004 4.73085 0
M  V30 3069 N 293.96 4.03388 5.63249 0
M  V30 3070 N 295.753 3.12965 4.66914 0
M  V30 3071 H 287.904 1.87478 0.998285 0
M  V30 3072 H 290.167 0.805559 0.499779 0
M  V30 3073 H 289.873 2.63412 2.33039 0
M  V30 3074 H 289.747 1.35171 3.52149 0
M  V30 3075 H 292.134 0.584835 2.89247 0
M  V30 3076 H 292.215 1.90053 1.71212 0
M  V30 3077 H 291.859 3.58458 3.5982 0
M  V30 3078 H 291.789 2.24063 4.76554 0
M  V30 3079 H 294.28 1.96396 3.22858 0
M  V30 3080 H 294.593 4.5373 6.25579 0
M  V30 3081 H 292.938 4.07489 5.63008 0
M  V30 3082 H 296.129 2.50432 3.95476 0
M  V30 3083 H 296.302 3.67759 5.33533 0
M  V30 3084 N 289.708 -1.40897 0.706093 0
M  V30 3085 C 290.954 -2.01352 0.241889 0
M  V30 3086 C 291.287 -1.55832 -1.15888 0
M  V30 3087 O 290.562 -0.774145 -1.7843 0
M  V30 3088 C 290.845 -3.58752 0.311311 0
M  V30 3089 C 290.698 -4.1437 1.74978 0
M  V30 3090 C 292.017 -4.38914 -0.322922 0
M  V30 3091 H 289.136 -0.731562 0.0893687 0
M  V30 3092 H 291.778 -1.67504 0.896802 0
M  V30 3093 H 289.928 -3.87718 -0.246302 0
M  V30 3094 H 291.6 -3.96239 2.36205 0
M  V30 3095 H 289.843 -3.69016 2.28057 0
M  V30 3096 H 290.514 -5.23532 1.74981 0
M  V30 3097 H 292.99 -4.15822 0.152089 0
M  V30 3098 H 291.866 -5.48358 -0.243855 0
M  V30 3099 H 292.127 -4.19176 -1.40513 0
M  V30 3100 N 291.186 -0.45159 -1.50991 0
M  V30 3101 C 292.116 0.342898 -2.30969 0
M  V30 3102 C 293.097 1.00815 -1.37005 0
M  V30 3103 O 294.282 1.00907 -1.65926 0
M  V30 3104 C 291.412 1.43637 -3.16205 0
M  V30 3105 C 290.366 0.893818 -4.18563 0
M  V30 3106 C 289.692 2.08411 -4.92411 0
M  V30 3107 C 290.992 -0.0815568 -5.22236 0
M  V30 3108 H 292.686 -0.324556 -2.97636 0
M  V30 3109 H 290.232 -0.157531 -1.43136 0
M  V30 3110 H 292.185 1.9995 -3.70942 0
M  V30 3111 H 290.909 2.13232 -2.47386 0
M  V30 3112 H 289.568 0.352798 -3.64898 0
M  V30 3113 H 289.216 2.76658 -4.20082 0
M  V30 3114 H 288.916 1.72741 -5.61636 0
M  V30 3115 H 290.44 2.65251 -5.49976 0
M  V30 3116 H 291.854 0.391742 -5.7196 0
M  V30 3117 H 290.251 -0.351551 -5.99069 0
M  V30 3118 H 291.321 -1.01374 -4.74185 0
M  V30 3119 N 292.664 1.56529 -0.183458 0
M  V30 3120 C 293.614 2.1515 0.754605 0
M  V30 3121 C 294.598 1.08904 1.18443 0
M  V30 3122 O 295.79 1.34997 1.14476 0
M  V30 3123 C 292.919 2.80531 1.97881 0
M  V30 3124 C 292.005 3.93952 1.57043 0
M  V30 3125 N 292.396 4.98221 0.87231 0
M  V30 3126 C 290.694 4.05338 1.86057 0
M  V30 3127 C 291.395 5.77836 0.669377 0
M  V30 3128 N 290.371 5.29858 1.21454 0
M  V30 3129 H 294.173 2.93132 0.212387 0
M  V30 3130 H 291.687 1.62391 0.0167725 0
M  V30 3131 H 293.684 3.20914 2.6612 0
M  V30 3132 H 292.344 2.04035 2.52586 0
M  V30 3133 H 293.355 5.15191 0.529033 0
M  V30 3134 H 290.032 3.39957 2.42354 0
M  V30 3135 H 291.422 6.71799 0.116422 0
M  V30 3136 N 294.142 -0.090211 1.57342 0
M  V30 3137 C 295.074 -1.13541 1.99101 0
M  V30 3138 C 296.087 -1.3604 0.894258 0
M  V30 3139 O 297.276 -1.34606 1.17233 0
M  V30 3140 C 294.376 -2.49001 2.29895 0
M  V30 3141 C 293.549 -2.46712 3.61182 0
M  V30 3142 C 292.608 -3.64136 3.79857 0
M  V30 3143 O 291.634 -3.46405 4.51655 0
M  V30 3144 N 292.836 -4.83802 3.20806 0
M  V30 3145 H 295.601 -0.779942 2.89373 0
M  V30 3146 H 293.162 -0.279125 1.59476 0
M  V30 3147 H 295.154 -3.26166 2.39578 0
M  V30 3148 H 293.724 -2.76619 1.45605 0
M  V30 3149 H 292.944 -1.55058 3.62423 0
M  V30 3150 H 294.232 -2.42265 4.4742 0
M  V30 3151 H 293.63 -5.01112 2.62494 0
M  V30 3152 H 292.187 -5.58543 3.35966 0
M  V30 3153 N 295.62 -1.53406 -0.361157 0
M  V30 3154 C 296.553 -1.74946 -1.46524 0
M  V30 3155 C 297.531 -0.59795 -1.51206 0
M  V30 3156 O 298.715 -0.831062 -1.69191 0
M  V30 3157 C 295.842 -1.83224 -2.84863 0
M  V30 3158 C 294.888 -3.05233 -2.97885 0
M  V30 3159 S 295.721 -4.6466 -2.66179 0
M  V30 3160 C 296.877 -4.75793 -4.06659 0
M  V30 3161 H 297.11 -2.68319 -1.28033 0
M  V30 3162 H 294.643 -1.44051 -0.555764 0
M  V30 3163 H 296.601 -1.88679 -3.64569 0
M  V30 3164 H 295.262 -0.908948 -3.00661 0
M  V30 3165 H 294.455 -3.07648 -3.9921 0
M  V30 3166 H 294.057 -2.97913 -2.26106 0
M  V30 3167 H 296.349 -4.5612 -5.0096 0
M  V30 3168 H 297.292 -5.7786 -4.09247 0
M  V30 3169 H 297.7 -4.04389 -3.93865 0
M  V30 3170 N 297.098 0.621204 -1.44841 0
M  V30 3171 C 298.509 1.20298 -1.42777 0
M  V30 3172 C 298.86 1.95639 -0.148259 0
M  V30 3173 O 297.985 2.02955 0.750892 0
M  V30 3174 C 298.58 2.1882 -2.58657 0
M  V30 3175 C 297.139 2.72403 -2.59756 0
M  V30 3176 C 296.286 1.4757 -2.34773 0
M  V30 3177 H 299.237 0.411297 -1.53278 0
M  V30 3178 H 299.258 3.01607 -2.31977 0
M  V30 3179 H 298.77 1.63957 -3.51766 0
M  V30 3180 H 296.871 3.31242 -1.70615 0
M  V30 3181 H 296.984 3.17765 -3.58556 0
M  V30 3182 H 295.348 1.76051 -1.8406 0
M  V30 3183 H 296.131 0.945954 -3.3001 0
M  V30 3184 N 298.576 1.31904 0.862503 0
M  V30 3185 C 299.506 1.22782 1.98612 0
M  V30 3186 C 300.487 0.113362 1.69722 0
M  V30 3187 O 301.672 0.299218 1.91881 0
M  V30 3188 C 298.802 0.942058 3.34279 0
M  V30 3189 C 297.756 2.0169 3.77499 0
M  V30 3190 C 297.082 1.58369 5.10709 0
M  V30 3191 C 298.382 3.43096 3.93805 0
M  V30 3192 H 300.076 2.16788 2.06502 0
M  V30 3193 H 297.622 1.04366 0.992154 0
M  V30 3194 H 299.575 0.864818 4.1243 0
M  V30 3195 H 298.299 -0.0336603 3.26583 0
M  V30 3196 H 296.958 2.08416 3.01593 0
M  V30 3197 H 296.606 0.595628 4.99461 0
M  V30 3198 H 296.306 2.30279 5.40597 0
M  V30 3199 H 297.83 1.52067 5.91361 0
M  V30 3200 H 299.244 3.39003 4.62331 0
M  V30 3201 H 297.641 4.13288 4.35101 0
M  V30 3202 H 298.711 3.83334 2.96957 0
M  V30 3203 N 300.054 -1.07777 1.14986 0
M  V30 3204 C 300.984 -2.16865 0.865557 0
M  V30 3205 C 301.965 -1.69123 -0.182083 0
M  V30 3206 O 303.15 -1.94164 -0.0373815 0
M  V30 3207 C 300.28 -3.45539 0.349313 0
M  V30 3208 C 299.234 -4.06708 1.33313 0
M  V30 3209 C 298.56 -5.30411 0.675918 0
M  V30 3210 C 299.86 -4.47241 2.69764 0
M  V30 3211 H 301.554 -2.40905 1.77778 0
M  V30 3212 H 299.1 -1.15781 0.856203 0
M  V30 3213 H 301.053 -4.21174 0.137983 0
M  V30 3214 H 299.777 -3.21072 -0.598362 0
M  V30 3215 H 298.436 -3.33112 1.53075 0
M  V30 3216 H 298.084 -5.02232 -0.277767 0
M  V30 3217 H 297.784 -5.72293 1.33244 0
M  V30 3218 H 299.308 -6.08755 0.474262 0
M  V30 3219 H 300.722 -5.14025 2.53873 0
M  V30 3220 H 299.119 -5.00062 3.3175 0
M  V30 3221 H 300.189 -3.58818 3.26156 0
M  V30 3222 N 301.532 -0.945985 -1.26051 0
M  V30 3223 C 302.48 -0.450259 -2.282 0
M  V30 3224 C 303.474 0.47497 -1.62605 0
M  V30 3225 O 304.68 0.352653 -1.76512 0
M  V30 3226 H 301.055 -0.127081 -0.741184 0
M  V30 3227 H 303.026 -1.32422 -2.67408 0
M  V30 3228 C 301.775 0.26467 -3.46691 0
M  V30 3229 H 301.098 -0.438123 -3.97392 0
M  V30 3230 H 302.538 0.575678 -4.20074 0
M  V30 3231 C 300.997 1.48416 -3.02447 0
M  V30 3232 O 301.527 2.58227 -3.07704 0
M  V30 3233 N 299.733 1.34243 -2.57735 0
M  V30 3234 H 299.28 0.448994 -2.53657 0
M  V30 3235 H 299.238 2.15957 -2.28495 0
M  V30 3236 N 303.011 1.40521 -0.713556 0
M  V30 3237 C 303.941 2.33381 -0.0743864 0
M  V30 3238 C 304.922 1.52784 0.747735 0
M  V30 3239 O 306.107 1.81258 0.697071 0
M  V30 3240 C 303.237 3.36748 0.849598 0
M  V30 3241 C 302.191 4.27793 0.133247 0
M  V30 3242 C 301.517 5.21679 1.17281 0
M  V30 3243 C 302.817 5.12415 -1.01134 0
M  V30 3244 H 304.511 2.87081 -0.850007 0
M  V30 3245 H 302.057 1.38034 -0.410201 0
M  V30 3246 H 304.01 4.00648 1.30612 0
M  V30 3247 H 302.734 2.81439 1.65709 0
M  V30 3248 H 301.393 3.65342 -0.303426 0
M  V30 3249 H 301.041 4.62677 1.9733 0
M  V30 3250 H 300.741 5.83435 0.698397 0
M  V30 3251 H 302.265 5.88456 1.62947 0
M  V30 3252 H 303.679 5.69781 -0.634274 0
M  V30 3253 H 302.076 5.83203 -1.41399 0
M  V30 3254 H 303.146 4.48514 -1.84292 0
M  V30 3255 N 304.489 0.459591 1.5075 0
M  V30 3256 C 305.714 -0.0996819 2.0716 0
M  V30 3257 C 306.139 -1.33761 1.32249 0
M  V30 3258 O 305.497 -1.77551 0.366786 0
M  V30 3259 C 305.545 -0.378226 3.58611 0
M  V30 3260 O 304.649 -1.46081 3.85661 0
M  V30 3261 H 303.99 0.00791392 0.663953 0
M  V30 3262 H 306.52 0.647329 1.9409 0
M  V30 3263 H 306.53 -0.622135 4.03229 0
M  V30 3264 H 305.205 0.526439 4.12555 0
M  V30 3265 H 303.782 -1.20511 3.5289 0
M  V30 3266 N 305.967 -1.56429 0.191757 0
M  V30 3267 C 306.897 -2.21937 -0.725696 0
M  V30 3268 C 307.878 -1.1814 -1.2238 0
M  V30 3269 O 309.063 -1.46636 -1.27325 0
M  V30 3270 C 306.193 -2.87611 -1.94672 0
M  V30 3271 C 305.147 -3.97623 -1.58366 0
M  V30 3272 C 304.473 -4.50446 -2.88102 0
M  V30 3273 C 305.773 -5.16197 -0.796133 0
M  V30 3274 H 307.467 -2.98861 -0.179606 0
M  V30 3275 H 305.013 -1.43749 -0.0849464 0
M  V30 3276 H 306.966 -3.3212 -2.59373 0
M  V30 3277 H 305.69 -2.08087 -2.51728 0
M  V30 3278 H 304.349 -3.53801 -0.960247 0
M  V30 3279 H 303.997 -3.67688 -3.43241 0
M  V30 3280 H 303.697 -5.24675 -2.64556 0
M  V30 3281 H 305.221 -4.97654 -3.53798 0
M  V30 3282 H 306.635 -5.57271 -1.34618 0
M  V30 3283 H 305.032 -5.96471 -0.658928 0
M  V30 3284 H 306.102 -4.84473 0.203478 0
M  V30 3285 N 307.445 0.0818655 -1.57387 0
M  V30 3286 C 308.722 0.815343 -1.77796 0
M  V30 3287 C 309.102 1.96289 -0.77679 0
M  V30 3288 O 308.45 2.27691 0.192106 0
M  V30 3289 C 308.66 1.29765 -3.23978 0
M  V30 3290 C 310.008 1.7351 -3.8753 0
M  V30 3291 O 311.032 1.39356 -3.27808 0
M  V30 3292 O 309.891 2.36708 -4.92576 0
M  V30 3293 H 306.985 0.389914 -0.729312 0
M  V30 3294 H 309.531 0.0627213 -1.69584 0
M  V30 3295 H 308.303 0.47608 -3.88393 0
M  V30 3296 H 307.926 2.11189 -3.36875 0
M  V30 3297 N 308.923 1.53595 0.353017 0
M  V30 3298 C 309.853 1.83902 1.43883 0
M  V30 3299 C 310.834 0.693421 1.55324 0
M  V30 3300 O 312.019 0.944452 1.69687 0
M  V30 3301 C 309.149 2.04016 2.8106 0
M  V30 3302 C 308.103 3.19814 2.84434 0
M  V30 3303 C 307.429 3.25244 4.24406 0
M  V30 3304 C 308.729 4.58133 2.50822 0
M  V30 3305 H 310.423 2.74835 1.1877 0
M  V30 3306 H 307.969 1.32242 0.569917 0
M  V30 3307 H 309.922 2.238 3.57059 0
M  V30 3308 H 308.646 1.09804 3.07588 0
M  V30 3309 H 307.305 2.9987 2.10887 0
M  V30 3310 H 306.953 2.28646 4.48029 0
M  V30 3311 H 306.653 4.03054 4.27576 0
M  V30 3312 H 308.177 3.47228 5.0226 0
M  V30 3313 H 309.591 4.77995 3.16534 0
M  V30 3314 H 307.988 5.38276 2.6529 0
M  V30 3315 H 309.058 4.62387 1.46034 0
M  V30 3316 N 310.401 -0.613514 1.45168 0
M  V30 3317 C 311.626 -1.40437 1.52618 0
M  V30 3318 C 312.051 -1.87438 0.157707 0
M  V30 3319 O 311.409 -1.59791 -0.856537 0
M  V30 3320 C 311.457 -2.58894 2.51011 0
M  V30 3321 O 310.561 -3.59326 2.02382 0
M  V30 3322 H 309.902 -0.419506 0.514695 0
M  V30 3323 H 312.432 -0.747215 1.90467 0
M  V30 3324 H 312.442 -3.06214 2.69624 0
M  V30 3325 H 311.117 -2.24032 3.50403 0
M  V30 3326 H 309.694 -3.18695 1.93618 0
M  V30 3327 N 311.879 -1.3236 -0.855495 0
M  V30 3328 C 312.809 -1.23833 -1.97958 0
M  V30 3329 C 313.79 -0.122361 -1.69659 0
M  V30 3330 O 314.975 -0.30939 -1.9172 0
M  V30 3331 C 312.105 -0.959772 -3.33775 0
M  V30 3332 C 311.059 -2.03689 -3.76424 0
M  V30 3333 C 310.385 -1.61075 -5.09862 0
M  V30 3334 C 311.685 -3.4518 -3.9198 0
M  V30 3335 H 313.379 -2.1788 -2.0535 0
M  V30 3336 H 310.925 -1.04891 -0.986605 0
M  V30 3337 H 312.878 -0.886678 -4.11966 0
M  V30 3338 H 311.602 0.0163404 -3.26596 0
M  V30 3339 H 310.261 -2.10012 -3.00484 0
M  V30 3340 H 309.909 -0.622107 -4.99138 0
M  V30 3341 H 309.609 -2.33143 -5.39368 0
M  V30 3342 H 311.133 -1.55201 -5.90546 0
M  V30 3343 H 312.547 -3.4145 -4.60526 0
M  V30 3344 H 310.944 -4.1559 -4.32903 0
M  V30 3345 H 312.014 -3.84903 -2.94919 0
M  V30 3346 N 313.357 1.07166 -1.15556 0
M  V30 3347 C 314.305 2.16517 -0.8499 0
M  V30 3348 C 315.299 1.68468 0.177454 0
M  V30 3349 O 316.505 1.79971 0.0323026 0
M  V30 3350 H 312.88 0.706652 -0.25719 0
M  V30 3351 H 314.851 2.39514 -1.77976 0
M  V30 3352 C 313.6 3.45855 -0.357682 0
M  V30 3353 H 312.923 3.83214 -1.13961 0
M  V30 3354 H 314.363 4.23607 -0.182489 0
M  V30 3355 C 312.822 3.24062 0.921152 0
M  V30 3356 O 313.352 3.48813 1.9923 0
M  V30 3357 N 311.558 2.77539 0.86141 0
M  V30 3358 H 311.105 2.57598 -0.0104408 0
M  V30 3359 H 311.063 2.63337 1.71758 0
M  V30 3360 N 314.835 0.952656 1.25548 0
M  V30 3361 C 316.246 0.647392 1.75116 0
M  V30 3362 C 316.597 -0.837274 1.77438 0
M  V30 3363 O 315.722 -1.65525 1.39393 0
M  V30 3364 C 316.317 1.16845 3.18014 0
M  V30 3365 C 314.876 0.913382 3.6515 0
M  V30 3366 C 314.023 1.31265 2.44264 0
M  V30 3367 H 316.974 1.12968 1.11462 0
M  V30 3368 H 316.995 0.527606 3.76824 0
M  V30 3369 H 316.507 2.24902 3.16292 0
M  V30 3370 H 314.608 -0.152316 3.72289 0
M  V30 3371 H 314.721 1.54845 4.53387 0
M  V30 3372 H 313.085 0.731028 2.43984 0
M  V30 3373 H 313.868 2.40239 2.45234 0
M  V30 3374 N 316.313 -1.40141 0.720998 0
M  V30 3375 C 317.246 -2.2819 0.020916 0
M  V30 3376 C 318.224 -1.43633 -0.762129 0
M  V30 3377 O 319.408 -1.7304 -0.747633 0
M  V30 3378 C 316.535 -3.24281 -0.977715 0
M  V30 3379 C 315.581 -4.25548 -0.284836 0
M  V30 3380 S 316.414 -5.26247 0.991169 0
M  V30 3381 C 317.57 -6.259 -0.0052214 0
M  V30 3382 H 317.803 -2.87218 0.767649 0
M  V30 3383 H 315.336 -1.45656 0.512233 0
M  V30 3384 H 317.294 -3.80167 -1.54865 0
M  V30 3385 H 315.955 -2.643 -1.69719 0
M  V30 3386 H 315.148 -4.93154 -1.03996 0
M  V30 3387 H 314.75 -3.73389 0.213684 0
M  V30 3388 H 317.042 -6.72143 -0.850279 0
M  V30 3389 H 317.985 -7.05224 0.637599 0
M  V30 3390 H 318.393 -5.63277 -0.371366 0
M  V30 3391 N 317.792 -0.46758 -1.50504 0
M  V30 3392 C 318.74 0.342482 -2.30065 0
M  V30 3393 C 319.734 0.993596 -1.37201 0
M  V30 3394 O 320.94 0.925102 -1.54408 0
M  V30 3395 H 317.315 0.129283 -0.740803 0
M  V30 3396 H 319.286 -0.34899 -2.96352 0
M  V30 3397 C 318.035 1.4139 -3.17654 0
M  V30 3398 H 317.358 0.922264 -3.89017 0
M  V30 3399 H 318.798 1.95335 -3.76325 0
M  V30 3400 C 317.257 2.4139 -2.35016 0
M  V30 3401 O 317.787 3.46586 -2.03079 0
M  V30 3402 N 315.993 2.13021 -1.97662 0
M  V30 3403 H 315.54 1.27499 -2.23834 0
M  V30 3404 H 315.498 2.80164 -1.42673 0
M  V30 3405 N 319.27 1.56325 -0.20005 0
M  V30 3406 C 320.517 1.97719 0.437411 0
M  V30 3407 C 320.845 1.08709 1.61284 0
M  V30 3408 O 320.1 0.127261 1.95286 0
M  V30 3409 C 320.399 3.4495 0.935103 0
M  V30 3410 C 320.065 4.5072 -0.12749 0
M  V30 3411 C 318.727 4.79368 -0.419451 0
M  V30 3412 C 321.079 5.14268 -0.847231 0
M  V30 3413 C 318.407 5.68854 -1.43604 0
M  V30 3414 C 320.759 6.04852 -1.85301 0
M  V30 3415 C 319.423 6.31855 -2.15211 0
M  V30 3416 H 318.693 0.723507 0.16006 0
M  V30 3417 H 321.34 1.89166 -0.298056 0
M  V30 3418 H 319.645 3.50599 1.74894 0
M  V30 3419 H 321.342 3.74337 1.43781 0
M  V30 3420 H 317.932 4.28458 0.11023 0
M  V30 3421 H 322.116 4.92222 -0.634901 0
M  V30 3422 H 317.372 5.88047 -1.67364 0
M  V30 3423 H 321.546 6.53152 -2.41591 0
M  V30 3424 H 319.173 7.00994 -2.94129 0
M  V30 3425 N 320.748 -0.0735177 1.57428 0
M  V30 3426 C 321.997 -0.771809 1.86349 0
M  V30 3427 C 322.31 -1.78828 0.792452 0
M  V30 3428 O 323.516 -2.53602 0.96945 0
M  V30 3429 C 321.972 -1.42358 3.30548 0
M  V30 3430 C 321.58 -0.445761 4.45777 0
M  V30 3431 C 323.324 -2.10434 3.6867 0
M  V30 3432 C 321.231 -1.10335 5.81016 0
M  V30 3433 H 320.161 -0.291999 0.695164 0
M  V30 3434 H 322.812 -0.0250749 1.83483 0
M  V30 3435 H 321.194 -2.21852 3.28021 0
M  V30 3436 H 322.368 0.319239 4.59693 0
M  V30 3437 H 320.683 0.130457 4.16196 0
M  V30 3438 H 323.28 -2.60405 4.67004 0
M  V30 3439 H 323.623 -2.90298 2.98383 0
M  V30 3440 H 324.156 -1.37773 3.7318 0
M  V30 3441 H 320.895 -0.345061 6.54591 0
M  V30 3442 H 320.415 -1.83925 5.70904 0
M  V30 3443 H 322.094 -1.62367 6.26295 0
M  V30 3444 N 322.226 -1.5378 -0.344866 0
M  V30 3445 C 323.158 -1.77988 -1.44406 0
M  V30 3446 C 324.171 -0.661138 -1.48771 0
M  V30 3447 O 325.36 -0.937842 -1.51877 0
M  V30 3448 C 322.46 -1.86345 -2.8307 0
M  V30 3449 C 321.633 -3.16256 -3.0216 0
M  V30 3450 C 320.692 -3.15588 -4.21059 0
M  V30 3451 O 319.718 -3.89314 -4.15239 0
M  V30 3452 N 320.92 -2.37864 -5.29529 0
M  V30 3453 H 323.685 -2.72839 -1.24012 0
M  V30 3454 H 321.246 -1.52814 -0.534737 0
M  V30 3455 H 323.238 -1.83351 -3.60783 0
M  V30 3456 H 321.808 -0.986858 -2.96614 0
M  V30 3457 H 321.028 -3.32385 -2.11929 0
M  V30 3458 H 322.316 -4.0207 -3.11797 0
M  V30 3459 H 321.714 -1.77514 -5.37127 0
M  V30 3460 H 320.271 -2.40668 -6.05741 0
M  V30 3461 N 323.704 0.605807 -1.45491 0
M  V30 3462 C 325.115 1.18777 -1.44045 0
M  V30 3463 C 325.466 1.95471 -0.169001 0
M  V30 3464 O 324.591 2.0374 0.729324 0
M  V30 3465 C 325.186 2.16064 -2.60963 0
M  V30 3466 C 323.745 2.69633 -2.62631 0
M  V30 3467 C 322.892 1.45072 -2.36325 0
M  V30 3468 H 325.843 0.395017 -1.53705 0
M  V30 3469 H 325.864 2.9913 -2.35163 0
M  V30 3470 H 325.376 1.60217 -3.53486 0
M  V30 3471 H 323.477 3.29414 -1.74119 0
M  V30 3472 H 323.59 3.13944 -3.61906 0
M  V30 3473 H 321.954 1.74089 -1.85917 0
M  V30 3474 H 322.737 0.910899 -3.30995 0
M  V30 3475 N 325.182 1.32811 0.848464 0
M  V30 3476 C 326.43 1.23479 1.59991 0
M  V30 3477 C 326.751 -0.201853 1.93952 0
M  V30 3478 O 326.021 -1.12818 1.60153 0
M  V30 3479 H 324.601 0.454034 0.593179 0
M  V30 3480 H 327.263 1.66412 1.01455 0
M  V30 3481 H 326.359 1.82178 2.53412 0
M  V30 3482 N 326.66 -1.06551 1.16123 0
M  V30 3483 C 327.623 -2.12132 0.867906 0
M  V30 3484 C 328.623 -1.60224 -0.135944 0
M  V30 3485 O 329.813 -1.73943 0.0946422 0
M  V30 3486 C 326.945 -3.396 0.297419 0
M  V30 3487 H 328.138 -2.39586 1.80385 0
M  V30 3488 H 325.691 -1.22574 0.969812 0
M  V30 3489 H 326.426 -3.17794 -0.64633 0
M  V30 3490 H 326.211 -3.78581 1.02073 0
M  V30 3491 H 327.701 -4.17455 0.110052 0
M  V30 3492 N 328.138 -0.959301 -1.25041 0
M  V30 3493 C 329.385 -0.616611 -1.92884 0
M  V30 3494 C 329.713 0.847036 -1.75087 0
M  V30 3495 O 328.968 1.62374 -1.09239 0
M  V30 3496 C 329.267 -0.927136 -3.45165 0
M  V30 3497 C 328.933 -2.37757 -3.83122 0
M  V30 3498 C 327.595 -2.77402 -3.93194 0
M  V30 3499 C 329.947 -3.31929 -4.01836 0
M  V30 3500 C 327.275 -4.10277 -4.19392 0
M  V30 3501 C 329.627 -4.64423 -4.29528 0
M  V30 3502 C 328.291 -5.03857 -4.37818 0
M  V30 3503 H 327.561 -0.225634 -0.705812 0
M  V30 3504 H 330.208 -1.20921 -1.48493 0
M  V30 3505 H 328.513 -0.252195 -3.90987 0
M  V30 3506 H 330.21 -0.6405 -3.95852 0
M  V30 3507 H 326.8 -2.06013 -3.75841 0
M  V30 3508 H 330.984 -3.02488 -3.93465 0
M  V30 3509 H 326.24 -4.40467 -4.24027 0
M  V30 3510 H 330.414 -5.37369 -4.42953 0
M  V30 3511 H 328.041 -6.06843 -4.57871 0
M  V30 3512 N 329.616 1.39756 -0.72842 0
M  V30 3513 C 330.563 2.30647 -0.0841519 0
M  V30 3514 C 331.533 1.48869 0.7367 0
M  V30 3515 O 332.718 1.77574 0.698015 0
M  V30 3516 C 329.858 3.35165 0.822091 0
M  V30 3517 C 328.971 4.31999 -0.0106663 0
M  V30 3518 C 328.106 5.23585 0.896241 0
M  V30 3519 C 327.145 6.12072 0.0583381 0
M  V30 3520 N 326.282 6.96035 0.920818 0
M  V30 3521 H 331.122 2.85173 -0.864891 0
M  V30 3522 H 328.659 1.40422 -0.438179 0
M  V30 3523 H 330.617 3.94345 1.36189 0
M  V30 3524 H 329.247 2.8211 1.56888 0
M  V30 3525 H 328.299 3.74492 -0.66781 0
M  V30 3526 H 329.611 4.9443 -0.658825 0
M  V30 3527 H 328.765 5.87759 1.50412 0
M  V30 3528 H 327.504 4.61459 1.57819 0
M  V30 3529 H 326.509 5.46916 -0.562389 0
M  V30 3530 H 327.734 6.76261 -0.6203 0
M  V30 3531 H 325.68 6.36485 1.58818 0
M  V30 3532 H 325.597 7.55284 0.32899 0
M  V30 3533 H 326.865 7.64646 1.51447 0
M  V30 3534 N 331.094 0.475555 1.50254 0
M  V30 3535 C 332.004 -0.321501 2.32387 0
M  V30 3536 C 333.02 -0.991755 1.42969 0
M  V30 3537 O 334.196 -0.978747 1.76018 0
M  V30 3538 C 331.261 -1.38667 3.17762 0
M  V30 3539 C 330.322 -0.732538 4.23004 0
M  V30 3540 C 329.555 -1.74695 5.04299 0
M  V30 3541 O 329.778 -2.97399 4.86734 0
M  V30 3542 O 328.712 -1.31631 5.8733 0
M  V30 3543 H 332.538 0.350071 3.01676 0
M  V30 3544 H 330.123 0.237321 1.47503 0
M  V30 3545 H 332.005 -2.00354 3.70724 0
M  V30 3546 H 330.68 -2.04163 2.51196 0
M  V30 3547 H 329.587 -0.0765902 3.74022 0
M  V30 3548 H 330.92 -0.120452 4.92053 0
M  V30 3549 N 332.573 -1.56217 0.208337 0
M  V30 3550 C 333.822 -1.97124 -0.427204 0
M  V30 3551 C 334.135 -1.09859 -1.61835 0
M  V30 3552 O 335.341 -1.40606 -2.32255 0
M  V30 3553 C 333.797 -3.50633 -0.811442 0
M  V30 3554 C 333.405 -4.46582 0.35615 0
M  V30 3555 C 335.149 -4.00282 -1.41332 0
M  V30 3556 C 333.056 -5.91379 -0.0497852 0
M  V30 3557 H 331.986 -0.736086 -0.163381 0
M  V30 3558 H 334.637 -1.8099 0.302456 0
M  V30 3559 H 333.019 -3.62319 -1.59815 0
M  V30 3560 H 334.193 -4.46636 1.1337 0
M  V30 3561 H 332.508 -4.07202 0.870396 0
M  V30 3562 H 335.105 -5.0595 -1.72972 0
M  V30 3563 H 335.448 -3.45359 -2.32449 0
M  V30 3564 H 335.981 -3.91764 -0.690323 0
M  V30 3565 H 332.72 -6.50255 0.827529 0
M  V30 3566 H 332.24 -5.94549 -0.791926 0
M  V30 3567 H 333.919 -6.45209 -0.481042 0
M  V30 3568 N 334.051 0.0651679 -1.57465 0
M  V30 3569 C 335.467 0.420105 -1.53972 0
M  V30 3570 C 335.667 1.78782 -0.929474 0
M  V30 3571 O 334.723 2.46771 -0.534839 0
M  V30 3572 C 336.036 0.355084 -2.98596 0
M  V30 3573 C 337.584 0.434792 -3.09965 0
M  V30 3574 C 338.059 0.399609 -4.56253 0
M  V30 3575 N 339.55 0.459488 -4.60915 0
M  V30 3576 C 340.285 0.454584 -5.71595 0
M  V30 3577 N 339.781 0.404102 -6.9162 0
M  V30 3578 N 341.574 0.501635 -5.59857 0
M  V30 3579 H 333.725 -0.830328 -1.95498 0
M  V30 3580 H 335.988 -0.312244 -0.895102 0
M  V30 3581 H 335.694 -0.583357 -3.46828 0
M  V30 3582 H 335.568 1.16275 -3.58831 0
M  V30 3583 H 337.955 1.36366 -2.61703 0
M  V30 3584 H 338.036 -0.40157 -2.52628 0
M  V30 3585 H 337.68 -0.525436 -5.05175 0
M  V30 3586 H 337.61 1.25359 -5.11461 0
M  V30 3587 H 340.101 0.502482 -3.74544 0
M  V30 3588 H 340.414 0.404468 -7.71741 0
M  V30 3589 H 338.759 0.37069 -6.94011 0
M  V30 3590 H 341.95 0.538812 -4.64989 0
M  V30 3591 H 342.123 0.494345 -6.46112 0
M  V30 3592 N 335.529 1.53961 0.336706 0
M  V30 3593 C 336.459 1.85417 1.41925 0
M  V30 3594 C 337.44 0.709856 1.5458 0
M  V30 3595 O 338.625 0.962396 1.68676 0
M  V30 3596 C 335.755 2.06985 2.78881 0
M  V30 3597 C 334.709 3.22813 2.81026 0
M  V30 3598 C 334.035 3.29727 4.20932 0
M  V30 3599 C 335.335 4.60767 2.45949 0
M  V30 3600 H 337.029 2.76079 1.15848 0
M  V30 3601 H 334.575 1.32839 0.555859 0
M  V30 3602 H 336.528 2.27575 3.54665 0
M  V30 3603 H 335.252 1.13061 3.06406 0
M  V30 3604 H 333.911 3.0209 2.07695 0
M  V30 3605 H 333.559 2.33385 4.45579 0
M  V30 3606 H 333.259 4.07566 4.23277 0
M  V30 3607 H 334.783 3.52536 4.98549 0
M  V30 3608 H 336.197 4.81325 3.11446 0
M  V30 3609 H 334.594 5.4106 2.59566 0
M  V30 3610 H 335.664 4.6391 1.41122 0
M  V30 3611 N 337.007 -0.598083 1.45811 0
M  V30 3612 C 337.957 -1.70272 1.51629 0
M  V30 3613 C 338.941 -1.56382 0.378629 0
M  V30 3614 O 340.133 -1.65557 0.626087 0
M  V30 3615 C 337.262 -3.09042 1.49493 0
M  V30 3616 C 336.348 -3.28284 2.68496 0
M  V30 3617 N 336.739 -3.17748 3.93535 0
M  V30 3618 C 335.037 -3.59182 2.64394 0
M  V30 3619 C 335.738 -3.38579 4.7301 0
M  V30 3620 N 334.714 -3.63016 4.04624 0
M  V30 3621 H 338.516 -1.60634 2.46118 0
M  V30 3622 H 336.03 -0.801642 1.41235 0
M  V30 3623 H 338.027 -3.88302 1.51747 0
M  V30 3624 H 336.687 -3.19823 0.560683 0
M  V30 3625 H 337.698 -2.95944 4.25014 0
M  V30 3626 H 334.375 -3.76742 1.79922 0
M  V30 3627 H 335.765 -3.35747 5.82 0
M  V30 3628 N 338.485 -1.33259 -0.841409 0
M  V30 3629 C 339.432 -1.23302 -1.95103 0
M  V30 3630 C 340.402 -0.112204 -1.65721 0
M  V30 3631 O 341.587 -0.290038 -1.88583 0
M  V30 3632 C 338.727 -0.975583 -3.31023 0
M  V30 3633 C 337.84 -2.18243 -3.72819 0
M  V30 3634 C 336.975 -1.85936 -4.97595 0
M  V30 3635 C 336.014 -3.02866 -5.3192 0
M  V30 3636 N 335.151 -2.70565 -6.47873 0
M  V30 3637 H 339.991 -2.18207 -2.02952 0
M  V30 3638 H 337.528 -1.0851 -0.993173 0
M  V30 3639 H 339.486 -0.80677 -4.09325 0
M  V30 3640 H 338.116 -0.0632755 -3.22738 0
M  V30 3641 H 337.168 -2.46107 -2.90061 0
M  V30 3642 H 338.48 -3.05666 -3.94169 0
M  V30 3643 H 337.634 -1.65684 -5.83638 0
M  V30 3644 H 336.373 -0.957452 -4.78209 0
M  V30 3645 H 335.378 -3.23736 -4.44382 0
M  V30 3646 H 336.603 -3.93809 -5.53255 0
M  V30 3647 H 334.549 -1.8293 -6.29978 0
M  V30 3648 H 334.466 -3.51519 -6.69306 0
M  V30 3649 H 335.734 -2.53774 -7.37034 0
M  V30 3650 N 339.963 1.05934 -1.16686 0
M  V30 3651 C 340.893 2.1546 -0.899949 0
M  V30 3652 C 341.874 1.69391 0.155154 0
M  V30 3653 O 343.059 1.94199 0.00648693 0
M  V30 3654 C 340.189 3.44939 -0.404241 0
M  V30 3655 C 339.143 4.04536 -1.39767 0
M  V30 3656 C 338.469 5.29268 -0.760216 0
M  V30 3657 C 339.769 4.42893 -2.76845 0
M  V30 3658 H 341.463 2.38046 -1.81588 0
M  V30 3659 H 339.009 1.14404 -0.874514 0
M  V30 3660 H 340.962 4.20901 -0.204971 0
M  V30 3661 H 339.686 3.21983 0.547206 0
M  V30 3662 H 338.345 3.30635 -1.58355 0
M  V30 3663 H 337.993 5.02611 0.197831 0
M  V30 3664 H 337.693 5.70101 -1.42332 0
M  V30 3665 H 339.217 6.07924 -0.57105 0
M  V30 3666 H 340.631 5.09921 -2.62019 0
M  V30 3667 H 339.028 4.94721 -3.39663 0
M  V30 3668 H 340.098 3.53584 -3.31823 0
M  V30 3669 N 341.441 0.965919 1.2453 0
M  V30 3670 C 342.669 0.644385 1.96609 0
M  V30 3671 C 343.084 -0.785823 1.71669 0
M  V30 3672 O 342.441 -1.52703 0.999399 0
M  V30 3673 C 342.492 0.907375 3.49927 0
M  V30 3674 O 342.213 2.28136 3.74013 0
M  V30 3675 C 343.714 0.599784 4.39224 0
M  V30 3676 H 340.934 0.240588 0.626385 0
M  V30 3677 H 343.478 1.29337 1.58405 0
M  V30 3678 H 341.633 0.304631 3.862 0
M  V30 3679 H 342.047 2.36002 4.68405 0
M  V30 3680 H 343.521 0.834263 5.45659 0
M  V30 3681 H 343.998 -0.465921 4.36722 0
M  V30 3682 H 344.604 1.18235 4.08535 0
M  V30 3683 N 342.919 -1.39368 0.735821 0
M  V30 3684 C 343.849 -2.33234 0.111506 0
M  V30 3685 C 344.83 -1.53954 -0.723334 0
M  V30 3686 O 346.015 -1.82344 -0.668147 0
M  V30 3687 C 343.145 -3.38057 -0.795917 0
M  V30 3688 C 342.099 -4.2795 -0.065172 0
M  V30 3689 C 341.425 -5.23479 -1.08967 0
M  V30 3690 C 342.725 -5.10741 1.09273 0
M  V30 3691 H 344.419 -2.85692 0.895571 0
M  V30 3692 H 341.965 -1.37364 0.432109 0
M  V30 3693 H 343.918 -4.02675 -1.24221 0
M  V30 3694 H 342.642 -2.8404 -1.61211 0
M  V30 3695 H 341.301 -3.64813 0.361511 0
M  V30 3696 H 340.949 -4.65758 -1.89944 0
M  V30 3697 H 340.649 -5.84472 -0.605489 0
M  V30 3698 H 342.173 -5.90974 -1.53565 0
M  V30 3699 H 343.587 -5.68699 0.724841 0
M  V30 3700 H 341.984 -5.8088 1.50659 0
M  V30 3701 H 343.054 -4.45525 1.91404 0
M  V30 3702 N 344.397 -0.483516 -1.5 0
M  V30 3703 C 345.813 -0.138404 -1.58999 0
M  V30 3704 C 346.013 1.35597 -1.4905 0
M  V30 3705 O 345.069 2.13039 -1.35539 0
M  V30 3706 C 346.382 -0.699658 -2.92447 0
M  V30 3707 C 347.93 -0.664195 -3.05872 0
M  V30 3708 C 348.405 -1.20321 -4.41913 0
M  V30 3709 N 349.896 -1.16315 -4.48358 0
M  V30 3710 C 350.631 -1.55058 -5.52037 0
M  V30 3711 N 350.127 -2.01311 -6.62907 0
M  V30 3712 N 351.92 -1.46584 -5.42651 0
M  V30 3713 H 344.071 -1.45529 -1.5471 0
M  V30 3714 H 346.334 -0.60258 -0.731848 0
M  V30 3715 H 346.04 -1.747 -3.05242 0
M  V30 3716 H 345.914 -0.150194 -3.76901 0
M  V30 3717 H 348.301 0.374272 -2.92717 0
M  V30 3718 H 348.382 -1.25061 -2.23144 0
M  V30 3719 H 348.026 -2.24037 -4.55818 0
M  V30 3720 H 347.956 -0.592896 -5.23252 0
M  V30 3721 H 350.447 -0.824058 -3.68806 0
M  V30 3722 H 350.76 -2.2899 -7.38095 0
M  V30 3723 H 349.105 -2.05273 -6.63994 0
M  V30 3724 H 352.296 -1.10281 -4.54924 0
M  V30 3725 H 352.469 -1.77103 -6.23329 0
M  V30 3726 N 345.875 1.56104 -0.216619 0
M  V30 3727 C 346.823 2.21434 0.712036 0
M  V30 3728 C 347.817 1.19218 1.20348 0
M  V30 3729 O 349.023 1.3731 1.16387 0
M  V30 3730 H 345.398 0.70992 0.248026 0
M  V30 3731 H 347.369 2.98083 0.137558 0
M  V30 3732 C 346.118 2.90434 1.91163 0
M  V30 3733 H 345.441 3.68842 1.54258 0
M  V30 3734 H 346.881 3.39552 2.5393 0
M  V30 3735 C 345.34 1.92635 2.76394 0
M  V30 3736 O 345.87 1.44017 3.74996 0
M  V30 3737 N 344.076 1.60392 2.42328 0
M  V30 3738 H 343.623 2.00122 1.622 0
M  V30 3739 H 343.581 0.952159 2.99635 0
M  V30 3740 N 347.353 -0.0568162 1.57498 0
M  V30 3741 C 348.301 -1.08452 2.05769 0
M  V30 3742 C 349.295 -1.39164 0.965903 0
M  V30 3743 O 350.501 -1.38395 1.15095 0
M  V30 3744 H 346.876 -0.367148 0.656282 0
M  V30 3745 H 348.847 -0.651368 2.91204 0
M  V30 3746 C 347.596 -2.38543 2.52968 0
M  V30 3747 H 346.919 -2.15765 3.36579 0
M  V30 3748 H 348.359 -3.08863 2.90481 0
M  V30 3749 C 346.818 -3.05562 1.41893 0
M  V30 3750 O 347.348 -3.94262 0.769442 0
M  V30 3751 N 345.554 -2.6643 1.16032 0
M  V30 3752 H 345.101 -1.94387 1.6903 0
M  V30 3753 H 345.059 -3.11593 0.419219 0
M  V30 3754 N 348.832 -1.54138 -0.328536 0
M  V30 3755 C 350.079 -1.72105 -1.06706 0
M  V30 3756 C 350.407 -0.492111 -1.88171 0
M  V30 3757 O 349.662 0.526153 -1.88494 0
M  V30 3758 C 349.961 -2.9457 -2.02393 0
M  V30 3759 C 349.627 -4.29544 -1.37122 0
M  V30 3760 C 348.289 -4.6624 -1.19052 0
M  V30 3761 C 350.641 -5.1333 -0.902331 0
M  V30 3762 C 347.969 -5.84325 -0.527331 0
M  V30 3763 C 350.321 -6.32094 -0.252988 0
M  V30 3764 C 348.985 -6.67473 -0.0600901 0
M  V30 3765 H 348.255 -0.629775 -0.390466 0
M  V30 3766 H 350.902 -1.88372 -0.34473 0
M  V30 3767 H 349.207 -2.72969 -2.81061 0
M  V30 3768 H 350.904 -3.05665 -2.59557 0
M  V30 3769 H 347.494 -4.0067 -1.52188 0
M  V30 3770 H 351.678 -4.855 -1.02974 0
M  V30 3771 H 346.934 -6.103 -0.366634 0
M  V30 3772 H 351.108 -6.96299 0.118366 0
M  V30 3773 H 348.735 -7.58832 0.455828 0
M  V30 3774 N 350.31 0.590341 -1.46126 0
M  V30 3775 C 351.587 1.35029 -1.41515 0
M  V30 3776 C 351.967 2.10888 -0.0946472 0
M  V30 3777 O 351.315 2.08998 0.923693 0
M  V30 3778 C 351.525 2.28269 -2.63997 0
M  V30 3779 C 352.873 2.90338 -3.09821 0
M  V30 3780 O 353.897 2.38585 -2.64492 0
M  V30 3781 O 352.756 3.84321 -3.88535 0
M  V30 3782 H 349.85 0.606317 -0.562413 0
M  V30 3783 H 352.396 0.611994 -1.58281 0
M  V30 3784 H 351.168 1.71591 -3.51671 0
M  V30 3785 H 350.791 3.0945 -2.49652 0
M  V30 3786 N 351.788 1.33704 0.83433 0
M  V30 3787 C 353.013 1.28615 1.62705 0
M  V30 3788 C 353.438 -0.139242 1.87584 0
M  V30 3789 O 352.796 -1.09734 1.4432 0
M  V30 3790 C 352.844 2.07139 2.95171 0
M  V30 3791 O 351.948 1.4331 3.86699 0
M  V30 3792 H 351.289 0.44226 0.49528 0
M  V30 3793 H 353.819 1.76335 1.03766 0
M  V30 3794 H 353.829 2.18073 3.44831 0
M  V30 3795 H 352.504 3.10779 2.76386 0
M  V30 3796 H 351.081 1.4105 3.45195 0
M  V30 3797 N 353.266 -1.05314 1.17247 0
M  V30 3798 C 354.196 -2.1498 0.911362 0
M  V30 3799 C 355.177 -1.69471 -0.146169 0
M  V30 3800 O 356.362 -1.942 0.003812 0
M  V30 3801 C 353.492 -3.4472 0.422528 0
M  V30 3802 C 352.446 -4.03789 1.4191 0
M  V30 3803 C 351.772 -5.28858 0.788274 0
M  V30 3804 C 353.072 -4.41418 2.7919 0
M  V30 3805 H 354.766 -2.3708 1.82848 0
M  V30 3806 H 352.312 -1.13938 0.880569 0
M  V30 3807 H 354.265 -4.20787 0.227289 0
M  V30 3808 H 352.989 -3.22269 -0.530123 0
M  V30 3809 H 351.648 -3.2979 1.60106 0
M  V30 3810 H 351.296 -5.02709 -0.171173 0
M  V30 3811 H 350.996 -5.69338 1.45353 0
M  V30 3812 H 352.52 -6.07612 0.603282 0
M  V30 3813 H 353.934 -5.08524 2.64719 0
M  V30 3814 H 352.331 -4.92913 3.42282 0
M  V30 3815 H 353.401 -3.51819 3.33693 0
M  V30 3816 N 354.744 -0.972509 -1.24016 0
M  V30 3817 C 355.692 -0.498562 -2.27194 0
M  V30 3818 C 356.686 0.440372 -1.63576 0
M  V30 3819 O 357.892 0.315133 -1.7722 0
M  V30 3820 H 354.267 -0.142775 -0.738322 0
M  V30 3821 H 356.238 -1.38065 -2.64539 0
M  V30 3822 C 354.987 0.191072 -3.47175 0
M  V30 3823 H 354.31 -0.522318 -3.96373 0
M  V30 3824 H 355.75 0.486445 -4.212 0
M  V30 3825 C 354.209 1.41967 -3.05527 0
M  V30 3826 O 354.739 2.51642 -3.13112 0
M  V30 3827 N 352.945 1.28746 -2.60524 0
M  V30 3828 H 352.492 0.395089 -2.54552 0
M  V30 3829 H 352.45 2.11061 -2.33025 0
M  V30 3830 N 356.222 1.38976 -0.743202 0
M  V30 3831 C 357.468 2.0064 -0.295189 0
M  V30 3832 C 357.801 1.5885 1.11716 0
M  V30 3833 O 357.076 0.821181 1.76315 0
M  V30 3834 C 357.359 3.578 -0.406318 0
M  V30 3835 C 357.212 4.09586 -1.85903 0
M  V30 3836 C 358.531 4.39616 0.206439 0
M  V30 3837 H 355.65 0.728935 -0.108733 0
M  V30 3838 H 358.292 1.65067 -0.940897 0
M  V30 3839 H 356.442 3.88235 0.143419 0
M  V30 3840 H 358.114 3.89837 -2.46627 0
M  V30 3841 H 356.357 3.6284 -2.3776 0
M  V30 3842 H 357.028 5.18708 -1.888 0
M  V30 3843 H 359.504 4.15273 -0.262283 0
M  V30 3844 H 358.38 5.48812 0.0983819 0
M  V30 3845 H 358.641 4.22754 1.2935 0
M  V30 3846 N 357.7 0.491464 1.49741 0
M  V30 3847 C 358.633 -0.338464 2.25676 0
M  V30 3848 C 359.611 -0.978676 1.29849 0
M  V30 3849 O 360.795 -1.01064 1.59117 0
M  V30 3850 C 357.922 -1.47588 3.04853 0
M  V30 3851 C 356.968 -0.951 4.15762 0
M  V30 3852 S 357.801 0.150626 5.35288 0
M  V30 3853 C 358.957 -0.990178 6.18018 0
M  V30 3854 H 359.19 0.306068 2.9572 0
M  V30 3855 H 356.723 0.276622 1.51902 0
M  V30 3856 H 358.681 -2.12764 3.51058 0
M  V30 3857 H 357.342 -2.09199 2.34296 0
M  V30 3858 H 356.535 -1.80311 4.70642 0
M  V30 3859 H 356.137 -0.376607 3.72099 0
M  V30 3860 H 358.429 -1.89748 6.50386 0
M  V30 3861 H 359.372 -0.480205 7.0647 0
M  V30 3862 H 359.78 -1.25321 5.50413 0
M  V30 3863 N 359.178 -1.55987 0.224894 0
M  V30 3864 C 360.125 -2.20436 -0.68385 0
M  V30 3865 C 361.095 -1.16102 -1.18783 0
M  V30 3866 O 362.28 -1.4447 -1.24632 0
M  V30 3867 C 359.42 -2.89076 -1.88491 0
M  V30 3868 C 358.533 -4.08012 -1.41951 0
M  V30 3869 C 357.668 -4.64426 -2.5784 0
M  V30 3870 C 356.707 -5.75656 -2.08053 0
M  V30 3871 N 355.844 -6.26347 -3.17227 0
M  V30 3872 H 360.684 -2.97727 -0.12754 0
M  V30 3873 H 358.221 -1.47011 -0.0511978 0
M  V30 3874 H 360.179 -3.27059 -2.59014 0
M  V30 3875 H 358.809 -2.14298 -2.41405 0
M  V30 3876 H 357.861 -3.75492 -0.609095 0
M  V30 3877 H 359.173 -4.88375 -1.01447 0
M  V30 3878 H 358.327 -5.04869 -3.3644 0
M  V30 3879 H 357.066 -3.83233 -3.01635 0
M  V30 3880 H 356.071 -5.34712 -1.27916 0
M  V30 3881 H 357.296 -6.58686 -1.65255 0
M  V30 3882 H 355.242 -5.48067 -3.60497 0
M  V30 3883 H 355.159 -7.01843 -2.80986 0
M  V30 3884 H 356.427 -6.71447 -3.95953 0
M  V30 3885 N 360.656 0.0484629 -1.57525 0
M  V30 3886 C 361.884 0.755421 -1.92616 0
M  V30 3887 C 362.299 1.69919 -0.822984 0
M  V30 3888 O 361.656 1.81378 0.202085 0
M  V30 3889 C 361.707 1.52915 -3.27566 0
M  V30 3890 O 361.428 0.62329 -4.33644 0
M  V30 3891 C 362.929 2.33502 -3.76818 0
M  V30 3892 H 360.149 0.213465 -0.63614 0
M  V30 3893 H 362.693 0.0117698 -2.04497 0
M  V30 3894 H 360.848 2.22486 -3.17142 0
M  V30 3895 H 361.262 1.16383 -5.11425 0
M  V30 3896 H 362.736 2.83214 -4.73808 0
M  V30 3897 H 363.213 3.14068 -3.07014 0
M  V30 3898 H 363.819 1.69043 -3.90262 0
M  V30 3899 N 362.134 1.5431 0.320358 0
M  V30 3900 C 363.374 1.74395 1.0661 0
M  V30 3901 C 363.738 0.508602 1.85141 0
M  V30 3902 O 364.939 0.586856 2.62316 0
M  V30 3903 C 363.21 2.98619 1.96371 0
M  V30 3904 S 364.769 3.39621 2.77854 0
M  V30 3905 H 361.587 0.613204 0.359863 0
M  V30 3906 H 364.189 1.9249 0.341727 0
M  V30 3907 H 362.893 3.86673 1.3752 0
M  V30 3908 H 362.424 2.83055 2.73209 0
M  V30 3909 H 364.439 2.95172 3.98858 0
M  V30 3910 N 363.613 -0.582584 1.46437 0
M  V30 3911 C 364.862 -1.337 1.5102 0
M  V30 3912 C 365.175 -1.94891 0.166359 0
M  V30 3913 O 366.381 -2.71351 0.0899954 0
M  V30 3914 C 364.837 -2.42315 2.66104 0
M  V30 3915 C 364.445 -1.87427 4.06909 0
M  V30 3916 C 366.189 -3.19099 2.79958 0
M  V30 3917 C 364.096 -2.93672 5.13333 0
M  V30 3918 H 363.026 -0.502619 0.562041 0
M  V30 3919 H 365.677 -0.621701 1.72647 0
M  V30 3920 H 364.059 -3.16645 2.37807 0
M  V30 3921 H 365.233 -1.19639 4.44998 0
M  V30 3922 H 363.548 -1.2331 3.97723 0
M  V30 3923 H 366.145 -3.9839 3.56636 0
M  V30 3924 H 366.488 -3.71695 1.87479 0
M  V30 3925 H 367.021 -2.51875 3.07902 0
M  V30 3926 H 363.76 -2.45962 6.07604 0
M  V30 3927 H 363.28 -3.59948 4.79789 0
M  V30 3928 H 364.959 -3.5762 5.39182 0
M  V30 3929 N 365.091 -1.34144 -0.827227 0
M  V30 3930 C 366.023 -1.21206 -1.9453 0
M  V30 3931 C 367.036 -0.140176 -1.62195 0
M  V30 3932 O 368.225 -0.391647 -1.7415 0
M  V30 3933 C 365.325 -0.839141 -3.28347 0
M  V30 3934 C 364.498 -2.0051 -3.88734 0
M  V30 3935 C 363.557 -1.61128 -5.00923 0
M  V30 3936 O 362.583 -2.32726 -5.19449 0
M  V30 3937 N 363.785 -0.522958 -5.7814 0
M  V30 3938 H 366.55 -2.17525 -2.06162 0
M  V30 3939 H 364.111 -1.27043 -1.00358 0
M  V30 3940 H 366.103 -0.557556 -4.00841 0
M  V30 3941 H 364.673 0.0337293 -3.12582 0
M  V30 3942 H 363.893 -2.45166 -3.08686 0
M  V30 3943 H 365.181 -2.78498 -4.25812 0
M  V30 3944 H 364.579 0.0723518 -5.65654 0
M  V30 3945 H 363.136 -0.301089 -6.51104 0
M  V30 3946 N 366.569 1.04691 -1.17803 0
M  V30 3947 C 367.817 1.7743 -0.967617 0
M  V30 3948 C 368.138 1.88359 0.504574 0
M  V30 3949 O 367.408 1.40402 1.36617 0
M  V30 3950 H 365.988 0.657242 -0.355024 0
M  V30 3951 H 368.65 1.2638 -1.48371 0
M  V30 3952 H 367.746 2.78924 -1.40027 0
M  V30 3953 N 368.047 0.979072 1.23499 0
M  V30 3954 C 368.977 0.537606 2.27227 0
M  V30 3955 C 369.958 -0.428539 1.64613 0
M  V30 3956 O 371.143 -0.322191 1.91509 0
M  V30 3957 C 368.273 -0.162052 3.46922 0
M  V30 3958 C 367.227 0.721242 4.21879 0
M  V30 3959 C 366.553 -0.110555 5.34586 0
M  V30 3960 C 367.853 2.01141 4.82016 0
M  V30 3961 H 369.547 1.40462 2.64406 0
M  V30 3962 H 367.093 0.67684 1.27102 0
M  V30 3963 H 369.046 -0.482192 4.18632 0
M  V30 3964 H 367.77 -1.06351 3.08799 0
M  V30 3965 H 366.429 1.02482 3.51984 0
M  V30 3966 H 366.077 -1.0125 4.92704 0
M  V30 3967 H 365.777 0.477325 5.85658 0
M  V30 3968 H 367.301 -0.425107 6.09118 0
M  V30 3969 H 368.715 1.75612 5.45741 0
M  V30 3970 H 367.112 2.54695 5.43369 0
M  V30 3971 H 368.182 2.69909 4.02836 0
M  V30 3972 N 369.525 -1.3858 0.750561 0
M  V30 3973 C 370.488 -2.28836 0.129152 0
M  V30 3974 C 371.488 -1.47045 -0.650714 0
M  V30 3975 O 372.678 -1.6753 -0.477428 0
M  V30 3976 C 369.81 -3.30751 -0.825622 0
M  V30 3977 H 371.003 -2.85294 0.924516 0
M  V30 3978 H 368.556 -1.47489 0.517376 0
M  V30 3979 H 369.291 -2.79378 -1.64677 0
M  V30 3980 H 369.076 -3.91177 -0.268852 0
M  V30 3981 H 370.566 -3.98249 -1.2565 0
M  V30 3982 N 371.003 -0.499398 -1.49478 0
M  V30 3983 C 372.251 0.0455996 -2.02049 0
M  V30 3984 C 372.572 1.37633 -1.38138 0
M  V30 3985 O 371.842 1.8842 -0.536166 0
M  V30 3986 H 370.422 0.0198416 -0.746736 0
M  V30 3987 H 373.084 -0.656274 -1.83519 0
M  V30 3988 H 372.18 0.176445 -3.11601 0
M  V30 3989 N 372.481 1.55866 -0.233164 0
M  V30 3990 C 373.411 2.23783 0.666599 0
M  V30 3991 C 374.392 1.21343 1.19205 0
M  V30 3992 O 375.577 1.4996 1.23392 0
M  V30 3993 C 372.707 2.92671 1.86978 0
M  V30 3994 C 371.661 4.01682 1.47768 0
M  V30 3995 C 370.987 4.57926 2.76058 0
M  V30 3996 C 372.287 5.18126 0.658993 0
M  V30 3997 H 373.981 2.99232 0.100306 0
M  V30 3998 H 371.527 1.43924 0.046804 0
M  V30 3999 H 373.48 3.3888 2.50476 0
M  V30 4000 H 372.204 2.14688 2.46123 0
M  V30 4001 H 370.863 3.56222 0.866106 0
M  V30 4002 H 370.511 3.76659 3.33372 0
M  V30 4003 H 370.211 5.31505 2.50552 0
M  V30 4004 H 371.735 5.06859 3.40479 0
M  V30 4005 H 373.149 5.60644 1.19795 0
M  V30 4006 H 371.546 5.98009 0.500552 0
M  V30 4007 H 372.616 4.83763 -0.331856 0
M  V30 4008 N 373.959 -0.0401083 1.57549 0
M  V30 4009 C 374.869 -1.06133 2.0922 0
M  V30 4010 C 375.885 -1.40356 1.0284 0
M  V30 4011 O 377.061 -1.49897 1.34509 0
M  V30 4012 C 374.126 -2.34658 2.55218 0
M  V30 4013 C 373.187 -2.07117 3.76033 0
M  V30 4014 C 372.42 -3.29514 4.19829 0
M  V30 4015 O 372.643 -4.39794 3.63232 0
M  V30 4016 O 371.577 -3.15863 5.12362 0
M  V30 4017 H 375.403 -0.652244 2.96613 0
M  V30 4018 H 372.988 -0.256368 1.47184 0
M  V30 4019 H 374.87 -3.10239 2.85184 0
M  V30 4020 H 373.545 -2.74883 1.70941 0
M  V30 4021 H 372.452 -1.29139 3.51104 0
M  V30 4022 H 373.785 -1.71754 4.61261 0
M  V30 4023 N 375.437 -1.54477 -0.31217 0
M  V30 4024 C 376.683 -1.73483 -1.0503 0
M  V30 4025 C 377.016 -0.513125 -1.87298 0
M  V30 4026 O 376.291 0.489864 -1.8823 0
M  V30 4027 C 376.574 -3.01723 -1.96558 0
M  V30 4028 C 376.427 -4.3417 -1.17545 0
M  V30 4029 C 377.746 -3.25772 -2.95907 0
M  V30 4030 H 374.865 -0.631222 -0.380432 0
M  V30 4031 H 377.507 -1.87184 -0.325932 0
M  V30 4032 H 375.657 -2.90174 -2.58324 0
M  V30 4033 H 377.329 -4.5762 -0.581513 0
M  V30 4034 H 375.572 -4.31159 -0.477925 0
M  V30 4035 H 376.243 -5.20143 -1.84811 0
M  V30 4036 H 378.719 -3.36857 -2.44267 0
M  V30 4037 H 377.595 -4.16838 -3.57123 0
M  V30 4038 H 377.856 -2.43537 -3.68974 0
M  V30 4039 N 376.915 0.57481 -1.46744 0
M  V30 4040 C 377.865 1.67838 -1.54319 0
M  V30 4041 C 378.849 1.55759 -0.40346 0
M  V30 4042 O 380.041 1.6454 -0.652347 0
M  V30 4043 C 377.17 3.06624 -1.5439 0
M  V30 4044 C 376.256 3.23971 -2.73685 0
M  V30 4045 N 376.647 3.11447 -3.9854 0
M  V30 4046 C 374.945 3.5493 -2.70075 0
M  V30 4047 C 375.646 3.31011 -4.78337 0
M  V30 4048 N 374.622 3.56533 -4.10348 0
M  V30 4049 H 378.424 1.56698 -2.48642 0
M  V30 4050 H 375.938 0.779071 -1.42493 0
M  V30 4051 H 377.935 3.85839 -1.57905 0
M  V30 4052 H 376.595 3.1889 -0.611493 0
M  V30 4053 H 377.606 2.89145 -4.29669 0
M  V30 4054 H 374.283 3.73832 -1.85893 0
M  V30 4055 H 375.673 3.26445 -5.87268 0
M  V30 4056 N 378.394 1.34581 0.820102 0
M  V30 4057 C 379.81 1.14325 1.11364 0
M  V30 4058 C 380.01 -0.0533648 2.01429 0
M  V30 4059 O 379.066 -0.728044 2.41776 0
M  V30 4060 C 380.379 2.43983 1.75764 0
M  V30 4061 C 381.927 2.50065 1.88246 0
M  V30 4062 C 382.402 3.79732 2.56061 0
M  V30 4063 N 383.893 3.80908 2.63558 0
M  V30 4064 C 384.628 4.77961 3.16766 0
M  V30 4065 N 384.124 5.85397 3.70517 0
M  V30 4066 N 385.917 4.65413 3.15194 0
M  V30 4067 H 378.068 2.11246 0.221096 0
M  V30 4068 H 380.331 0.934289 0.160649 0
M  V30 4069 H 380.037 3.31651 1.1705 0
M  V30 4070 H 379.911 2.57531 2.75604 0
M  V30 4071 H 382.298 1.62834 2.46108 0
M  V30 4072 H 382.379 2.40442 0.873006 0
M  V30 4073 H 382.023 4.67354 1.98853 0
M  V30 4074 H 381.953 3.86639 3.57516 0
M  V30 4075 H 384.444 3.03274 2.25463 0
M  V30 4076 H 384.757 6.55463 4.09376 0
M  V30 4077 H 383.102 5.89107 3.68752 0
M  V30 4078 H 386.293 3.80627 2.72471 0
M  V30 4079 H 386.466 5.41216 3.56356 0
M  V30 4080 N 379.872 -1.04064 1.18357 0
M  V30 4081 C 380.802 -2.14001 0.934113 0
M  V30 4082 C 381.783 -1.69616 -0.128186 0
M  V30 4083 O 382.968 -1.94185 0.0244093 0
M  V30 4084 C 380.098 -3.44253 0.459066 0
M  V30 4085 C 379.052 -4.02261 1.46185 0
M  V30 4086 C 378.378 -5.27992 0.844322 0
M  V30 4087 C 379.678 -4.38432 2.83856 0
M  V30 4088 H 381.372 -2.35127 1.85352 0
M  V30 4089 H 378.918 -1.12998 0.892604 0
M  V30 4090 H 380.871 -4.20522 0.271907 0
M  V30 4091 H 379.595 -3.22813 -0.495912 0
M  V30 4092 H 378.254 -3.28074 1.63595 0
M  V30 4093 H 377.902 -5.02862 -0.117845 0
M  V30 4094 H 377.602 -5.67765 1.51384 0
M  V30 4095 H 379.126 -6.06938 0.667693 0
M  V30 4096 H 380.54 -5.05688 2.70098 0
M  V30 4097 H 378.937 -4.89254 3.47491 0
M  V30 4098 H 380.007 -3.4826 3.37406 0
M  V30 4099 N 381.35 -0.985608 -1.22978 0
M  V30 4100 C 382.596 -0.65836 -1.91816 0
M  V30 4101 C 382.929 0.806692 -1.76653 0
M  V30 4102 O 382.204 1.58252 -1.13078 0
M  V30 4103 C 382.487 -1.056 -3.44268 0
M  V30 4104 C 382.34 -2.57906 -3.68516 0
M  V30 4105 C 383.659 -0.603781 -4.35939 0
M  V30 4106 H 380.778 -0.24065 -0.696604 0
M  V30 4107 H 383.42 -1.22783 -1.44998 0
M  V30 4108 H 381.57 -0.571445 -3.84274 0
M  V30 4109 H 383.242 -3.13976 -3.3796 0
M  V30 4110 H 381.485 -3.00305 -3.13048 0
M  V30 4111 H 382.156 -2.80779 -4.75255 0
M  V30 4112 H 384.632 -1.01987 -4.03408 0
M  V30 4113 H 383.508 -0.910383 -5.41298 0
M  V30 4114 H 383.769 0.495761 -4.39312 0
M  V30 4115 N 382.828 1.3818 -0.7579 0
M  V30 4116 C 383.758 2.33027 -0.148597 0
M  V30 4117 C 384.739 1.55085 0.69875 0
M  V30 4118 O 385.924 1.83384 0.639053 0
M  V30 4119 C 383.054 3.3928 0.742034 0
M  V30 4120 C 382.008 4.28 -0.00291946 0
M  V30 4121 C 381.334 5.25146 1.00625 0
M  V30 4122 C 382.634 5.08938 -1.17385 0
M  V30 4123 H 384.328 2.84231 -0.940909 0
M  V30 4124 H 381.874 1.36659 -0.453908 0
M  V30 4125 H 383.827 4.046 1.17799 0
M  V30 4126 H 382.551 2.86569 1.56671 0
M  V30 4127 H 381.21 3.64192 -0.419504 0
M  V30 4128 H 380.858 4.68721 1.8251 0
M  V30 4129 H 380.558 5.85361 0.512428 0
M  V30 4130 H 382.082 5.93342 1.44143 0
M  V30 4131 H 383.496 5.67474 -0.815224 0
M  V30 4132 H 381.893 5.7841 -1.59882 0
M  V30 4133 H 382.963 4.42424 -1.98468 0
M  V30 4134 N 384.306 0.507319 1.49211 0
M  V30 4135 C 385.554 -0.0348839 2.0207 0
M  V30 4136 C 385.875 -1.36898 1.38866 0
M  V30 4137 O 385.145 -1.88133 0.546151 0
M  V30 4138 H 383.725 -0.0158812 0.746831 0
M  V30 4139 H 386.387 0.665998 1.83168 0
M  V30 4140 H 385.483 -0.159917 3.1169 0
M  V30 4141 N 385.784 -1.5574 0.241426 0
M  V30 4142 C 386.694 -2.2479 -0.671305 0
M  V30 4143 C 387.71 -1.26217 -1.19772 0
M  V30 4144 O 388.886 -1.59079 -1.23514 0
M  V30 4145 C 385.951 -2.92966 -1.85396 0
M  V30 4146 C 385.012 -4.06935 -1.36756 0
M  V30 4147 C 384.245 -4.71851 -2.49384 0
M  V30 4148 O 384.468 -4.35823 -3.67987 0
M  V30 4149 O 383.402 -5.60467 -2.19454 0
M  V30 4150 H 387.228 -3.0349 -0.112966 0
M  V30 4151 H 384.813 -1.49397 0.0101513 0
M  V30 4152 H 386.695 -3.35927 -2.54423 0
M  V30 4153 H 385.37 -2.17211 -2.40002 0
M  V30 4154 H 384.277 -3.68503 -0.644726 0
M  V30 4155 H 385.61 -4.84492 -0.867647 0
M  V30 4156 N 387.262 0.0317525 -1.57568 0
M  V30 4157 C 388.509 0.723104 -1.89149 0
M  V30 4158 C 388.837 1.75504 -0.838377 0
M  V30 4159 O 388.092 1.95037 0.160982 0
M  V30 4160 C 388.391 1.43167 -3.27472 0
M  V30 4161 C 388.057 0.535972 -4.47703 0
M  V30 4162 C 386.719 0.289262 -4.8033 0
M  V30 4163 C 389.071 -0.0826125 -5.21135 0
M  V30 4164 C 386.399 -0.584853 -5.83778 0
M  V30 4165 C 388.751 -0.944414 -6.25511 0
M  V30 4166 C 387.415 -1.20061 -6.56614 0
M  V30 4167 H 386.685 0.264602 -0.692146 0
M  V30 4168 H 389.332 -0.0169496 -1.91492 0
M  V30 4169 H 387.637 2.24497 -3.21105 0
M  V30 4170 H 389.334 1.97209 -3.49155 0
M  V30 4171 H 385.924 0.738414 -4.22191 0
M  V30 4172 H 390.108 0.0950302 -4.96209 0
M  V30 4173 H 385.364 -0.79168 -6.06253 0
M  V30 4174 H 389.538 -1.43026 -6.81554 0
M  V30 4175 H 387.165 -1.87967 -7.36595 0
M  V30 4176 N 388.74 1.54641 0.303973 0
M  V30 4177 C 390.156 1.45788 0.649463 0
M  V30 4178 C 390.356 0.64666 1.90842 0
M  V30 4179 O 389.412 0.153183 2.52035 0
M  V30 4180 C 390.725 2.89718 0.805227 0
M  V30 4181 C 392.273 2.99742 0.901305 0
M  V30 4182 C 392.748 4.44863 1.08909 0
M  V30 4183 N 394.239 4.48559 1.15536 0
M  V30 4184 C 394.974 5.58026 1.3189 0
M  V30 4185 N 394.47 6.77422 1.45161 0
M  V30 4186 N 396.263 5.45708 1.34755 0
M  V30 4187 H 388.414 2.05854 -0.523237 0
M  V30 4188 H 390.677 0.932186 -0.172431 0
M  V30 4189 H 390.383 3.51666 -0.0489108 0
M  V30 4190 H 390.257 3.36964 1.69513 0
M  V30 4191 H 392.644 2.3791 1.74593 0
M  V30 4192 H 392.725 2.55797 -0.0125531 0
M  V30 4193 H 392.369 5.07288 0.249241 0
M  V30 4194 H 392.299 4.86436 2.01713 0
M  V30 4195 H 394.79 3.6254 1.06646 0
M  V30 4196 H 395.103 7.56604 1.57387 0
M  V30 4197 H 393.448 6.80292 1.42223 0
M  V30 4198 H 396.639 4.51378 1.23996 0
M  V30 4199 H 396.812 6.3107 1.47157 0
M  V30 4200 N 390.218 -0.567019 1.47046 0
M  V30 4201 C 391.166 -1.69593 1.59188 0
M  V30 4202 C 392.16 -1.63046 0.459609 0
M  V30 4203 O 393.366 -1.6835 0.637058 0
M  V30 4204 H 389.741 -0.560993 0.500791 0
M  V30 4205 H 391.712 -1.56488 2.54075 0
M  V30 4206 C 390.461 -3.07964 1.61411 0
M  V30 4207 H 389.784 -3.13679 2.47881 0
M  V30 4208 H 391.224 -3.86671 1.73958 0
M  V30 4209 C 389.683 -3.35123 0.34559 0
M  V30 4210 O 390.213 -3.97812 -0.557521 0
M  V30 4211 N 388.419 -2.89699 0.22864 0
M  V30 4212 H 387.966 -2.38863 0.964479 0
M  V30 4213 H 387.924 -3.08242 -0.619192 0
M  V30 4214 N 391.696 -1.35014 -0.812953 0
M  V30 4215 C 392.606 -1.2951 -1.95613 0
M  V30 4216 C 393.622 -0.20107 -1.72834 0
M  V30 4217 O 394.798 -0.42932 -1.96771 0
M  V30 4218 C 391.863 -1.06033 -3.30088 0
M  V30 4219 C 390.924 -2.24688 -3.65805 0
M  V30 4220 C 390.157 -2.02322 -4.93864 0
M  V30 4221 O 390.38 -0.986464 -5.61805 0
M  V30 4222 O 389.314 -2.89525 -5.27692 0
M  V30 4223 H 393.14 -2.25705 -2.03202 0
M  V30 4224 H 390.725 -1.15321 -0.949811 0
M  V30 4225 H 392.607 -0.94763 -4.10607 0
M  V30 4226 H 391.282 -0.128852 -3.23443 0
M  V30 4227 H 390.189 -2.41521 -2.85689 0
M  V30 4228 H 391.522 -3.16261 -3.77147 0
M  V30 4229 N 393.175 1.03435 -1.18907 0
M  V30 4230 C 394.423 1.76394 -0.986382 0
M  V30 4231 C 394.744 1.88883 0.484567 0
M  V30 4232 O 394.014 1.41843 1.3512 0
M  V30 4233 H 392.594 0.65344 -0.361975 0
M  V30 4234 H 395.256 1.248 -1.49703 0
M  V30 4235 H 394.352 2.77424 -1.42978 0
M  V30 4236 N 394.653 0.992116 1.22453 0
M  V30 4237 C 395.601 0.534644 2.26372 0
M  V30 4238 C 396.595 -0.414293 1.64256 0
M  V30 4239 O 397.801 -0.286899 1.77699 0
M  V30 4240 H 394.176 0.154502 0.735957 0
M  V30 4241 H 396.147 1.42256 2.62309 0
M  V30 4242 C 394.896 -0.135815 3.47435 0
M  V30 4243 H 394.219 0.585311 3.95492 0
M  V30 4244 H 395.659 -0.419374 4.21921 0
M  V30 4245 C 394.118 -1.37089 3.07747 0
M  V30 4246 O 394.648 -2.46629 3.17076 0
M  V30 4247 N 392.854 -1.24585 2.62539 0
M  V30 4248 H 392.401 -0.354542 2.55149 0
M  V30 4249 H 392.359 -2.07327 2.36353 0
M  V30 4250 N 396.131 -1.37776 0.765217 0
M  V30 4251 C 397.061 -2.32945 0.160953 0
M  V30 4252 C 398.042 -1.55454 -0.690516 0
M  V30 4253 O 399.227 -1.83721 -0.629318 0
M  V30 4254 C 396.357 -3.39669 -0.724031 0
M  V30 4255 C 395.311 -4.27992 0.0256173 0
M  V30 4256 C 394.637 -5.25673 -0.978383 0
M  V30 4257 C 395.937 -5.08309 1.20082 0
M  V30 4258 H 397.631 -2.83728 0.955969 0
M  V30 4259 H 395.177 -1.36416 0.461149 0
M  V30 4260 H 397.13 -4.05219 -1.15652 0
M  V30 4261 H 395.854 -2.87396 -1.5515 0
M  V30 4262 H 394.513 -3.63964 0.438812 0
M  V30 4263 H 394.161 -4.69682 -1.80022 0
M  V30 4264 H 393.861 -5.85625 -0.481378 0
M  V30 4265 H 395.385 -5.94098 -1.40995 0
M  V30 4266 H 396.799 -5.67034 0.845307 0
M  V30 4267 H 395.196 -5.77554 1.62947 0
M  V30 4268 H 396.266 -4.41365 2.00811 0
M  V30 4269 N 397.609 -0.515225 -1.4894 0
M  V30 4270 C 398.519 0.259774 -2.33157 0
M  V30 4271 C 399.535 0.953501 -1.45548 0
M  V30 4272 O 400.711 0.931735 -1.78552 0
M  V30 4273 C 397.776 1.30193 -3.21326 0
M  V30 4274 C 396.837 0.620129 -4.24797 0
M  V30 4275 C 396.07 1.61263 -5.08753 0
M  V30 4276 O 396.293 2.84389 -4.94448 0
M  V30 4277 O 395.227 1.16013 -5.90614 0
M  V30 4278 H 399.053 -0.429932 -3.00641 0
M  V30 4279 H 396.638 -0.276346 -1.46822 0
M  V30 4280 H 398.52 1.90455 -3.75905 0
M  V30 4281 H 397.195 1.97431 -2.56521 0
M  V30 4282 H 396.102 -0.0226019 -3.74093 0
M  V30 4283 H 397.435 -0.0100493 -4.92199 0
M  V30 4284 N 399.087 1.5561 -0.249682 0
M  V30 4285 C 400.034 2.21496 0.648694 0
M  V30 4286 C 401.004 1.17977 1.16921 0
M  V30 4287 O 402.189 1.46434 1.22318 0
M  V30 4288 C 399.329 2.92039 1.83868 0
M  V30 4289 C 398.442 4.10219 1.35442 0
M  V30 4290 C 397.577 4.6847 2.50419 0
M  V30 4291 C 396.616 5.78893 1.98869 0
M  V30 4292 N 395.753 6.31315 3.07223 0
M  V30 4293 H 400.593 2.97892 0.0801582 0
M  V30 4294 H 398.13 1.47074 0.0278031 0
M  V30 4295 H 400.088 3.31138 2.53778 0
M  V30 4296 H 398.718 2.18111 2.37965 0
M  V30 4297 H 397.77 3.76413 0.54928 0
M  V30 4298 H 399.082 4.89927 0.936649 0
M  V30 4299 H 398.236 5.10158 3.28366 0
M  V30 4300 H 396.975 3.87984 2.95499 0
M  V30 4301 H 395.98 5.3668 1.19393 0
M  V30 4302 H 397.205 6.61232 1.54755 0
M  V30 4303 H 395.151 5.53733 3.51732 0
M  V30 4304 H 395.068 7.06224 2.69784 0
M  V30 4305 H 396.336 6.77662 3.8522 0
M  V30 4306 N 400.565 -0.0233959 1.57583 0
M  V30 4307 C 401.812 -0.713063 1.8953 0
M  V30 4308 C 402.14 -1.75056 0.847673 0
M  V30 4309 O 401.395 -1.95119 -0.150636 0
M  V30 4310 C 401.694 -1.41428 3.28227 0
M  V30 4311 C 401.36 -0.512222 4.47981 0
M  V30 4312 C 400.022 -0.263785 4.80476 0
M  V30 4313 C 402.374 0.110248 5.21083 0
M  V30 4314 C 399.702 0.615804 5.83459 0
M  V30 4315 C 402.054 0.977573 6.25001 0
M  V30 4316 C 400.718 1.23542 6.55968 0
M  V30 4317 H 399.988 -0.260928 0.69354 0
M  V30 4318 H 402.635 0.0271047 1.91481 0
M  V30 4319 H 400.94 -2.22791 3.22291 0
M  V30 4320 H 402.637 -1.95355 3.50196 0
M  V30 4321 H 399.227 -0.716013 4.22577 0
M  V30 4322 H 403.411 -0.0687137 4.96252 0
M  V30 4323 H 398.667 0.82382 6.05824 0
M  V30 4324 H 402.841 1.46638 6.80786 0
M  V30 4325 H 400.468 1.91871 7.35588 0
M  V30 4326 N 402.043 -1.548 -0.295768 0
M  V30 4327 C 403.32 -1.65014 -1.05023 0
M  V30 4328 C 403.7 -0.501805 -2.05049 0
M  V30 4329 O 403.048 0.500869 -2.22943 0
M  V30 4330 C 403.258 -3.03252 -1.72741 0
M  V30 4331 C 404.606 -3.60242 -2.24746 0
M  V30 4332 O 405.63 -3.05737 -1.82765 0
M  V30 4333 O 404.489 -4.55687 -3.01681 0
M  V30 4334 H 401.583 -0.669314 -0.485744 0
M  V30 4335 H 404.129 -1.67144 -0.293438 0
M  V30 4336 H 402.901 -3.7827 -1.00138 0
M  V30 4337 H 402.524 -3.04922 -2.55163 0
M  V30 4338 N 403.521 0.559213 -1.47345 0
M  V30 4339 C 404.468 1.66645 -1.59682 0
M  V30 4340 C 405.438 1.60168 -0.43994 0
M  V30 4341 O 406.623 1.79031 -0.659736 0
M  V30 4342 C 403.763 3.04969 -1.61518 0
M  V30 4343 C 402.876 3.21897 -2.88108 0
M  V30 4344 C 402.011 4.50608 -2.81294 0
M  V30 4345 C 401.05 4.60961 -4.02717 0
M  V30 4346 N 400.187 5.81024 -3.94151 0
M  V30 4347 H 405.027 1.55439 -2.54249 0
M  V30 4348 H 402.564 0.757219 -1.26113 0
M  V30 4349 H 404.522 3.85064 -1.60566 0
M  V30 4350 H 403.152 3.15015 -0.704645 0
M  V30 4351 H 402.204 2.35248 -2.98936 0
M  V30 4352 H 403.516 3.25412 -3.78032 0
M  V30 4353 H 402.67 5.3896 -2.7858 0
M  V30 4354 H 401.409 4.49568 -1.89049 0
M  V30 4355 H 400.414 3.71021 -4.05738 0
M  V30 4356 H 401.639 4.63761 -4.96087 0
M  V30 4357 H 399.585 5.80938 -3.04708 0
M  V30 4358 H 399.502 5.85909 -4.77752 0
M  V30 4359 H 400.77 6.71744 -3.9545 0
M  V30 4360 N 404.999 1.35443 0.805782 0
M  V30 4361 C 406.224 1.32037 1.59941 0
M  V30 4362 C 406.649 -0.0994215 1.87837 0
M  V30 4363 O 406.007 -1.06648 1.46615 0
M  V30 4364 C 406.055 2.13354 2.90711 0
M  V30 4365 O 405.159 1.5148 3.83572 0
M  V30 4366 H 404.5 0.452666 0.485787 0
M  V30 4367 H 407.03 1.78496 1.00002 0
M  V30 4368 H 407.04 2.25338 3.40128 0
M  V30 4369 H 405.715 3.16572 2.69732 0
M  V30 4370 H 404.292 1.4834 3.42125 0
M  V30 4371 N 406.477 -1.02803 1.19454 0
M  V30 4372 C 407.44 -2.09264 0.934955 0
M  V30 4373 C 408.44 -1.60576 -0.0849015 0
M  V30 4374 O 409.63 -1.73554 0.149933 0
M  V30 4375 C 406.762 -3.38482 0.40531 0
M  V30 4376 H 407.955 -2.33726 1.87916 0
M  V30 4377 H 405.508 -1.19426 1.00832 0
M  V30 4378 H 406.243 -3.19689 -0.544899 0
M  V30 4379 H 406.028 -3.75142 1.14065 0
M  V30 4380 H 407.518 -4.16894 0.242806 0
M  V30 4381 N 407.956 -0.998596 -1.21925 0
M  V30 4382 C 408.886 -0.573688 -2.26343 0
M  V30 4383 C 409.867 0.402296 -1.65274 0
M  V30 4384 O 411.052 0.291683 -1.91997 0
M  V30 4385 C 408.182 0.106839 -3.47136 0
M  V30 4386 C 407.136 -0.788269 -4.20678 0
M  V30 4387 C 406.462 0.0254927 -5.34694 0
M  V30 4388 C 407.762 -2.08784 -4.78755 0
M  V30 4389 H 409.456 -1.44651 -2.62138 0
M  V30 4390 H 407.002 -0.696975 -1.26009 0
M  V30 4391 H 408.955 0.415531 -4.19346 0
M  V30 4392 H 407.679 1.01424 -3.10452 0
M  V30 4393 H 406.338 -1.08069 -3.50309 0
M  V30 4394 H 405.986 0.933989 -4.94253 0
M  V30 4395 H 405.686 -0.570437 -5.84825 0
M  V30 4396 H 407.21 0.328147 -6.09718 0
M  V30 4397 H 408.624 -1.84272 -5.42878 0
M  V30 4398 H 407.021 -2.63307 -5.39249 0
M  V30 4399 H 408.091 -2.76284 -3.98491 0
M  V30 4400 N 409.434 1.37368 -0.772513 0
M  V30 4401 C 410.344 2.34053 -0.160081 0
M  V30 4402 C 411.36 1.60216 0.678728 0
M  V30 4403 O 412.536 1.92303 0.59847 0
M  V30 4404 C 409.601 3.3939 0.708182 0
M  V30 4405 C 408.662 4.29048 -0.147172 0
M  V30 4406 C 407.895 5.29354 0.679744 0
M  V30 4407 O 408.118 5.3723 1.91678 0
M  V30 4408 O 407.052 6.01835 0.0885444 0
M  V30 4409 H 410.878 2.88159 -0.959053 0
M  V30 4410 H 408.463 1.39543 -0.533685 0
M  V30 4411 H 410.345 4.03839 1.20384 0
M  V30 4412 H 409.02 2.8761 1.48533 0
M  V30 4413 H 407.927 3.67697 -0.689205 0
M  V30 4414 H 409.26 4.84134 -0.887423 0
M  V30 4415 N 410.912 0.523116 1.48665 0
M  V30 4416 C 412.16 -0.0134497 2.02096 0
M  V30 4417 C 412.481 -1.35418 1.40311 0
M  V30 4418 O 411.751 -1.87543 0.566074 0
M  V30 4419 H 410.331 -0.00795915 0.746958 0
M  V30 4420 H 412.993 0.685388 1.82451 0
M  V30 4421 H 412.089 -0.126849 3.11842 0
M  V30 4422 N 412.39 -1.55475 0.257931 0
M  V30 4423 C 413.32 -2.24815 -0.630912 0
M  V30 4424 C 414.301 -1.23224 -1.17259 0
M  V30 4425 O 415.486 -1.51904 -1.20991 0
M  V30 4426 C 412.616 -2.95609 -1.82298 0
M  V30 4427 C 411.57 -4.03982 -1.41359 0
M  V30 4428 C 410.896 -4.6226 -2.68738 0
M  V30 4429 C 412.196 -5.19109 -0.57648 0
M  V30 4430 H 413.89 -2.99354 -0.0526878 0
M  V30 4431 H 411.436 -1.4398 -0.023901 0
M  V30 4432 H 413.389 -3.42822 -2.45054 0
M  V30 4433 H 412.113 -2.18577 -2.42676 0
M  V30 4434 H 410.772 -3.57555 -0.809324 0
M  V30 4435 H 410.42 -3.81915 -3.27338 0
M  V30 4436 H 410.12 -5.35424 -2.42065 0
M  V30 4437 H 411.644 -5.12212 -3.32372 0
M  V30 4438 H 413.058 -5.62479 -1.10861 0
M  V30 4439 H 411.455 -5.98729 -0.405351 0
M  V30 4440 H 412.525 -4.83174 0.408776 0
M  V30 4441 N 413.868 0.0150385 -1.57593 0
M  V30 4442 C 415.108 0.70768 -1.91758 0
M  V30 4443 C 415.472 1.71764 -0.857974 0
M  V30 4444 O 416.673 2.45956 -1.0844 0
M  V30 4445 C 414.944 1.34736 -3.3103 0
M  V30 4446 S 416.503 2.06721 -3.87056 0
M  V30 4447 H 413.321 0.234119 -0.671349 0
M  V30 4448 H 415.923 -0.0380373 -1.95463 0
M  V30 4449 H 414.627 0.59926 -4.06001 0
M  V30 4450 H 414.158 2.13133 -3.30663 0
M  V30 4451 H 416.173 3.34047 -3.66915 0
M  V30 4452 N 415.346 1.54954 0.287554 0
M  V30 4453 C 416.294 1.87606 1.37502 0
M  V30 4454 C 417.288 0.751001 1.51843 0
M  V30 4455 O 418.494 0.935169 1.53801 0
M  V30 4456 H 414.869 0.595231 0.459569 0
M  V30 4457 H 416.84 2.78477 1.07206 0
M  V30 4458 C 415.589 2.15183 2.73115 0
M  V30 4459 H 414.912 3.01234 2.62866 0
M  V30 4460 H 416.352 2.4196 3.48183 0
M  V30 4461 C 414.811 0.954686 3.2309 0
M  V30 4462 O 415.341 0.181949 4.01288 0
M  V30 4463 N 413.547 0.756368 2.80584 0
M  V30 4464 H 413.094 1.38643 2.17108 0
M  V30 4465 H 413.052 -0.0430391 3.14371 0
M  V30 4466 N 416.824 -0.551391 1.4764 0
M  V30 4467 C 417.754 -1.66757 1.63445 0
M  V30 4468 C 418.735 -1.63077 0.483742 0
M  V30 4469 O 419.92 -1.80607 0.71377 0
M  V30 4470 C 417.05 -3.05387 1.65396 0
M  V30 4471 C 416.004 -3.23918 2.79752 0
M  V30 4472 C 415.33 -4.63393 2.66779 0
M  V30 4473 C 416.63 -3.08735 4.21284 0
M  V30 4474 H 418.324 -1.53786 2.56886 0
M  V30 4475 H 415.87 -0.738415 1.23626 0
M  V30 4476 H 417.823 -3.83325 1.75043 0
M  V30 4477 H 416.547 -3.19332 0.685195 0
M  V30 4478 H 415.206 -2.48391 2.69625 0
M  V30 4479 H 414.854 -4.74144 1.67918 0
M  V30 4480 H 414.554 -4.7674 3.43501 0
M  V30 4481 H 416.078 -5.43458 2.78364 0
M  V30 4482 H 417.492 -3.76484 4.32357 0
M  V30 4483 H 415.889 -3.33588 4.98838 0
M  V30 4484 H 416.959 -2.0541 4.39243 0
M  V30 4485 N 418.302 -1.35869 -0.798587 0
M  V30 4486 C 419.53 -1.32722 -1.58722 0
M  V30 4487 C 419.945 0.0935631 -1.88568 0
M  V30 4488 O 419.302 1.04784 -1.49421 0
M  V30 4489 C 419.353 -2.13974 -2.91371 0
M  V30 4490 O 419.074 -3.50514 -2.62815 0
M  V30 4491 C 420.575 -2.18504 -3.85708 0
M  V30 4492 H 417.795 -0.45562 -0.492596 0
M  V30 4493 H 420.339 -1.78837 -0.991843 0
M  V30 4494 H 418.494 -1.71438 -3.47402 0
M  V30 4495 H 418.908 -3.92806 -3.47568 0
M  V30 4496 H 420.382 -2.79732 -4.75872 0
M  V30 4497 H 420.859 -1.18597 -4.22885 0
M  V30 4498 H 421.465 -2.61236 -3.35612 0
M  V30 4499 N 419.78 1.02168 -1.19998 0
M  V30 4500 C 421.029 1.75091 -1.0013 0
M  V30 4501 C 421.342 1.89923 0.467835 0
M  V30 4502 O 422.548 2.59888 0.785515 0
M  V30 4503 C 421.004 3.14892 -1.74273 0
M  V30 4504 C 420.612 3.0809 -3.25245 0
M  V30 4505 C 422.356 3.9206 -1.62755 0
M  V30 4506 C 420.263 4.42867 -3.91948 0
M  V30 4507 H 419.193 0.656394 -0.37103 0
M  V30 4508 H 421.844 1.14284 -1.43567 0
M  V30 4509 H 420.226 3.7621 -1.2362 0
M  V30 4510 H 421.4 2.5611 -3.83072 0
M  V30 4511 H 419.715 2.44416 -3.3712 0
M  V30 4512 H 422.312 4.91764 -2.09934 0
M  V30 4513 H 422.655 4.12199 -0.582894 0
M  V30 4514 H 423.188 3.37359 -2.10793 0
M  V30 4515 H 419.927 4.27931 -4.96543 0
M  V30 4516 H 419.447 4.94874 -3.3891 0
M  V30 4517 H 421.126 5.11728 -3.95909 0
M  V30 4518 N 421.258 1.00505 1.21394 0
M  V30 4519 C 422.168 0.574806 2.27449 0
M  V30 4520 C 423.184 -0.382206 1.6975 0
M  V30 4521 O 424.36 -0.246027 1.99892 0
M  V30 4522 C 421.425 -0.0917414 3.46579 0
M  V30 4523 C 420.486 0.909758 4.1955 0
M  V30 4524 C 419.719 0.274924 5.32991 0
M  V30 4525 O 419.942 -0.928254 5.62796 0
M  V30 4526 O 418.876 0.985877 5.93771 0
M  V30 4527 H 422.702 1.45744 2.66444 0
M  V30 4528 H 420.287 0.773923 1.27792 0
M  V30 4529 H 422.169 -0.464551 4.18832 0
M  V30 4530 H 420.844 -0.948755 3.09484 0
M  V30 4531 H 419.751 1.33372 3.49518 0
M  V30 4532 H 421.084 1.73636 4.60555 0
M  V30 4533 N 422.737 -1.36956 0.779787 0
M  V30 4534 C 423.647 -2.33965 0.172491 0
M  V30 4535 C 424.663 -1.60574 -0.670222 0
M  V30 4536 O 425.839 -1.92617 -0.588263 0
M  V30 4537 C 422.904 -3.39761 -0.690173 0
M  V30 4538 C 421.965 -4.28964 0.169924 0
M  V30 4539 C 421.198 -5.29707 -0.651662 0
M  V30 4540 O 421.421 -5.38238 -1.88827 0
M  V30 4541 O 420.355 -6.01873 -0.0566264 0
M  V30 4542 H 424.181 -2.87647 0.974321 0
M  V30 4543 H 421.766 -1.39258 0.541078 0
M  V30 4544 H 423.648 -4.04471 -1.1824 0
M  V30 4545 H 422.323 -2.88394 -1.47006 0
M  V30 4546 H 421.23 -3.67326 0.708696 0
M  V30 4547 H 422.563 -4.83656 0.913085 0
M  V30 4548 N 424.215 -0.530993 -1.48385 0
M  V30 4549 C 425.462 0.0027373 -2.025 0
M  V30 4550 C 425.79 1.34186 -1.40799 0
M  V30 4551 O 425.045 1.88 -0.543544 0
M  V30 4552 C 425.344 0.172742 -3.56982 0
M  V30 4553 C 425.01 -1.09215 -4.37473 0
M  V30 4554 C 423.672 -1.43881 -4.59186 0
M  V30 4555 C 426.024 -1.93153 -4.84088 0
M  V30 4556 C 423.352 -2.62381 -5.2476 0
M  V30 4557 C 425.704 -3.10833 -5.50968 0
M  V30 4558 C 424.368 -3.45843 -5.70919 0
M  V30 4559 H 423.638 0.00100165 -0.740999 0
M  V30 4560 H 426.285 -0.697219 -1.78357 0
M  V30 4561 H 424.59 0.955473 -3.79971 0
M  V30 4562 H 426.287 0.600642 -3.96476 0
M  V30 4563 H 422.877 -0.812177 -4.20834 0
M  V30 4564 H 427.061 -1.67683 -4.67115 0
M  V30 4565 H 422.317 -2.89707 -5.38405 0
M  V30 4566 H 426.491 -3.7618 -5.86056 0
M  V30 4567 H 424.118 -4.37764 -6.21503 0
M  V30 4568 N 425.693 1.55336 -0.266172 0
M  V30 4569 C 427.109 1.59356 0.0882065 0
M  V30 4570 C 427.309 1.2834 1.55342 0
M  V30 4571 O 426.365 1.03996 2.30089 0
M  V30 4572 C 427.678 2.99409 -0.278364 0
M  V30 4573 C 429.226 3.12196 -0.224243 0
M  V30 4574 C 429.701 4.545 -0.565123 0
M  V30 4575 N 431.192 4.60313 -0.51634 0
M  V30 4576 C 431.927 5.68434 -0.753013 0
M  V30 4577 N 431.423 6.84738 -1.05383 0
M  V30 4578 N 433.216 5.57942 -0.682414 0
M  V30 4579 H 425.367 1.73764 -1.22147 0
M  V30 4580 H 427.63 0.809822 -0.492841 0
M  V30 4581 H 427.336 3.2691 -1.29703 0
M  V30 4582 H 427.21 3.75228 0.385186 0
M  V30 4583 H 429.597 2.84464 0.78512 0
M  V30 4584 H 429.678 2.38609 -0.921922 0
M  V30 4585 H 429.322 4.82956 -1.57213 0
M  V30 4586 H 429.252 5.26374 0.154248 0
M  V30 4587 H 431.743 3.7676 -0.29335 0
M  V30 4588 H 432.056 7.63088 -1.22133 0
M  V30 4589 H 430.401 6.86375 -1.09151 0
M  V30 4590 H 433.592 4.65958 -0.44731 0
M  V30 4591 H 433.765 6.4213 -0.870248 0
M  V30 4592 N 427.171 -0.0066808 1.57599 0
M  V30 4593 C 428.101 -0.999296 2.11036 0
M  V30 4594 C 429.082 -1.36278 1.01795 0
M  V30 4595 O 430.267 -1.4477 1.29442 0
M  V30 4596 C 427.397 -2.29328 2.60818 0
M  V30 4597 C 426.351 -2.07159 3.74525 0
M  V30 4598 C 425.677 -3.42512 4.10596 0
M  V30 4599 C 426.977 -1.43959 5.02069 0
M  V30 4600 H 428.671 -0.554382 2.94223 0
M  V30 4601 H 426.217 -0.265221 1.41536 0
M  V30 4602 H 428.17 -2.99117 2.96828 0
M  V30 4603 H 426.894 -2.7592 1.74745 0
M  V30 4604 H 425.553 -1.39797 3.38899 0
M  V30 4605 H 425.201 -3.86795 3.21556 0
M  V30 4606 H 424.901 -3.28498 4.87199 0
M  V30 4607 H 426.425 -4.13628 4.4916 0
M  V30 4608 H 427.839 -2.03696 5.35893 0
M  V30 4609 H 426.236 -1.40452 5.83432 0
M  V30 4610 H 427.306 -0.407992 4.83181 0
M  V30 4611 N 428.649 -1.55105 -0.279332 0
M  V30 4612 C 429.612 -1.86783 -1.32834 0
M  V30 4613 C 430.612 -0.74199 -1.42657 0
M  V30 4614 O 431.802 -1.0102 -1.41918 0
M  V30 4615 C 428.934 -2.06746 -2.71052 0
M  V30 4616 H 430.127 -2.8055 -1.05979 0
M  V30 4617 H 427.68 -1.47499 -0.517087 0
M  V30 4618 H 428.415 -1.15339 -3.03097 0
M  V30 4619 H 428.2 -2.88711 -2.65309 0
M  V30 4620 H 429.69 -2.32549 -3.46858 0
M  V30 4621 N 430.127 0.543554 -1.4793 0
M  V30 4622 C 431.357 1.32324 -1.58663 0
M  V30 4623 C 431.765 1.8766 -0.240896 0
M  V30 4624 O 431.108 1.66411 0.778011 0
M  V30 4625 C 431.17 2.52094 -2.56299 0
M  V30 4626 C 430.834 2.17944 -4.01683 0
M  V30 4627 C 431.831 1.74422 -4.89768 0
M  V30 4628 C 429.516 2.28884 -4.47121 0
M  V30 4629 C 431.51 1.42287 -6.21316 0
M  V30 4630 C 429.197 1.96361 -5.78693 0
M  V30 4631 C 430.195 1.53132 -6.65612 0
M  V30 4632 O 429.883 1.21029 -7.94737 0
M  V30 4633 H 429.615 0.409174 -0.538101 0
M  V30 4634 H 432.169 0.663887 -1.94375 0
M  V30 4635 H 430.399 3.20965 -2.15681 0
M  V30 4636 H 432.088 3.14165 -2.57012 0
M  V30 4637 H 432.854 1.65452 -4.55907 0
M  V30 4638 H 428.733 2.61488 -3.79664 0
M  V30 4639 H 432.277 1.08472 -6.89115 0
M  V30 4640 H 428.174 2.04967 -6.12094 0
M  V30 4641 H 428.942 1.34543 -8.07366 0
M  V30 4642 N 431.605 1.3629 0.791371 0
M  V30 4643 C 432.535 1.33137 1.91825 0
M  V30 4644 C 433.516 0.203168 1.68882 0
M  V30 4645 O 434.701 0.400509 1.90025 0
M  V30 4646 C 431.831 1.11793 3.28816 0
M  V30 4647 C 430.785 2.21417 3.66277 0
M  V30 4648 C 430.111 1.85218 5.01596 0
M  V30 4649 C 431.411 3.63489 3.75064 0
M  V30 4650 H 433.105 2.2743 1.9472 0
M  V30 4651 H 430.651 1.09479 0.935437 0
M  V30 4652 H 432.604 1.08222 4.07266 0
M  V30 4653 H 431.328 0.139501 3.26302 0
M  V30 4654 H 429.987 2.2411 2.90121 0
M  V30 4655 H 429.635 0.859544 4.95602 0
M  V30 4656 H 429.335 2.58611 5.27631 0
M  V30 4657 H 430.859 1.832 5.82469 0
M  V30 4658 H 432.273 3.63034 4.43711 0
M  V30 4659 H 430.67 4.35771 4.12582 0
M  V30 4660 H 431.74 3.98536 2.76219 0
M  V30 4661 N 433.083 -1.0153 1.20538 0
M  V30 4662 C 434.36 -1.72327 0.925343 0
M  V30 4663 C 434.74 -2.03383 -0.565547 0
M  V30 4664 O 434.088 -1.69934 -1.52757 0
M  V30 4665 C 434.298 -2.9902 1.79967 0
M  V30 4666 C 435.646 -3.72258 2.04228 0
M  V30 4667 O 436.67 -3.08979 1.77231 0
M  V30 4668 O 435.529 -4.86053 2.4983 0
M  V30 4669 H 432.623 -0.751099 0.346092 0
M  V30 4670 H 435.169 -1.07366 1.31417 0
M  V30 4671 H 433.941 -2.72402 2.80915 0
M  V30 4672 H 433.564 -3.71721 1.41099 0
M  V30 4673 N 434.561 -1.01147 -1.20859 0
M  V30 4674 C 435.791 -0.715872 -1.93801 0
M  V30 4675 C 436.199 0.726592 -1.74692 0
M  V30 4676 O 435.542 1.50397 -1.05482 0
M  V30 4677 C 435.604 -0.965269 -3.46299 0
M  V30 4678 C 435.268 -2.39584 -3.89164 0
M  V30 4679 C 436.265 -3.3764 -3.95342 0
M  V30 4680 C 433.95 -2.73522 -4.21297 0
M  V30 4681 C 435.944 -4.67698 -4.33056 0
M  V30 4682 C 433.631 -4.03794 -4.58687 0
M  V30 4683 C 434.629 -5.00693 -4.64538 0
M  V30 4684 O 434.317 -6.28635 -5.01072 0
M  V30 4685 H 434.049 -0.262524 -0.622942 0
M  V30 4686 H 436.603 -1.35413 -1.54443 0
M  V30 4687 H 434.833 -0.269847 -3.85757 0
M  V30 4688 H 436.522 -0.662051 -4.00464 0
M  V30 4689 H 437.288 -3.12757 -3.70686 0
M  V30 4690 H 433.167 -1.9879 -4.15937 0
M  V30 4691 H 436.711 -5.4333 -4.37537 0
M  V30 4692 H 432.608 -4.28459 -4.82797 0
M  V30 4693 H 433.376 -6.32847 -5.19083 0
M  V30 4694 N 436.039 1.36541 -0.78704 0
M  V30 4695 C 437.269 2.03266 -0.369662 0
M  V30 4696 C 437.677 1.59481 1.01796 0
M  V30 4697 O 437.02 0.778612 1.66383 0
M  V30 4698 C 437.082 3.57779 -0.351371 0
M  V30 4699 C 436.746 4.24756 -1.68617 0
M  V30 4700 C 437.743 4.47811 -2.64124 0
M  V30 4701 C 435.428 4.62277 -1.96481 0
M  V30 4702 C 437.422 5.07464 -3.85693 0
M  V30 4703 C 435.109 5.21649 -3.18317 0
M  V30 4704 C 436.107 5.44182 -4.12741 0
M  V30 4705 O 435.795 6.02307 -5.32429 0
M  V30 4706 H 435.527 0.658977 -0.150751 0
M  V30 4707 H 438.081 1.75548 -1.0664 0
M  V30 4708 H 436.311 3.84606 0.401847 0
M  V30 4709 H 438 4.05879 0.0410147 0
M  V30 4710 H 438.766 4.19221 -2.43883 0
M  V30 4711 H 434.645 4.44065 -1.23805 0
M  V30 4712 H 438.189 5.24968 -4.59407 0
M  V30 4713 H 434.086 5.49664 -3.38437 0
M  V30 4714 H 434.854 6.20775 -5.33461 0
M  V30 4715 N 437.518 0.538854 1.48102 0
M  V30 4716 C 438.448 -0.207654 2.32575 0
M  V30 4717 C 439.429 -0.926559 1.4265 0
M  V30 4718 O 440.614 -0.91061 1.71527 0
M  V30 4719 C 437.744 -1.24957 3.24042 0
M  V30 4720 C 436.698 -0.648263 4.23062 0
M  V30 4721 C 436.024 -1.79348 5.03725 0
M  V30 4722 C 437.324 0.385897 5.20872 0
M  V30 4723 H 439.018 0.497534 2.95237 0
M  V30 4724 H 436.564 0.240715 1.41974 0
M  V30 4725 H 438.517 -1.77983 3.81969 0
M  V30 4726 H 437.241 -1.98446 2.59397 0
M  V30 4727 H 435.9 -0.139452 3.66335 0
M  V30 4728 H 435.548 -2.51696 4.35498 0
M  V30 4729 H 435.248 -1.39702 5.70751 0
M  V30 4730 H 436.772 -2.32735 5.64506 0
M  V30 4731 H 438.186 -0.057607 5.73271 0
M  V30 4732 H 436.583 0.700227 5.96001 0
M  V30 4733 H 437.653 1.28848 4.67468 0
M  V30 4734 N 438.996 -1.55193 0.274407 0
M  V30 4735 C 440.273 -1.91584 -0.394331 0
M  V30 4736 C 440.653 -1.19858 -1.73774 0
M  V30 4737 O 440.001 -0.3252 -2.26174 0
M  V30 4738 C 440.211 -3.4487 -0.535311 0
M  V30 4739 C 441.559 -4.16636 -0.818534 0
M  V30 4740 O 442.583 -3.5076 -0.620146 0
M  V30 4741 O 441.442 -5.33209 -1.19792 0
M  V30 4742 H 438.536 -0.798349 -0.215794 0
M  V30 4743 H 441.082 -1.66646 0.320507 0
M  V30 4744 H 439.854 -3.89145 0.410141 0
M  V30 4745 H 439.477 -3.75759 -1.29964 0
M  V30 4746 N 440.474 -0.00167713 -1.576 0
M  V30 4747 C 441.751 0.719951 -1.81868 0
M  V30 4748 C 442.131 1.91895 -0.879747 0
M  V30 4749 O 441.479 2.28389 0.0711423 0
M  V30 4750 C 441.689 1.12409 -3.30402 0
M  V30 4751 C 443.037 1.52724 -3.96182 0
M  V30 4752 O 444.061 1.21784 -3.34734 0
M  V30 4753 O 442.92 2.10265 -5.04431 0
M  V30 4754 H 440.014 0.350707 -0.748955 0
M  V30 4755 H 442.56 -0.0272597 -1.69678 0
M  V30 4756 H 441.332 0.269532 -3.90371 0
M  V30 4757 H 440.955 1.93035 -3.47596 0
M  V30 4758 N 441.952 1.55251 0.271103 0
M  V30 4759 C 443.201 1.75151 1.00025 0
M  V30 4760 C 443.514 0.561041 1.87381 0
M  V30 4761 O 444.72 0.642506 2.63788 0
M  V30 4762 C 443.176 3.09999 1.82835 0
M  V30 4763 C 442.784 4.3662 1.00336 0
M  V30 4764 C 444.528 3.39249 2.55168 0
M  V30 4765 C 442.435 5.62506 1.82595 0
M  V30 4766 H 441.365 0.652877 0.377183 0
M  V30 4767 H 444.016 1.81708 0.255843 0
M  V30 4768 H 442.398 2.97485 2.61378 0
M  V30 4769 H 443.572 4.60055 0.261959 0
M  V30 4770 H 441.887 4.14527 0.394486 0
M  V30 4771 H 444.484 4.3051 3.1712 0
M  V30 4772 H 444.827 2.59467 3.2555 0
M  V30 4773 H 445.36 3.52869 1.83653 0
M  V30 4774 H 442.099 6.45041 1.16631 0
M  V30 4775 H 441.619 5.43211 2.54327 0
M  V30 4776 H 443.298 6.00875 2.39913 0
M  V30 4777 N 443.43 -0.535701 1.48216 0
M  V30 4778 C 444.679 -1.28828 1.55197 0
M  V30 4779 C 444.992 -1.94263 0.228278 0
M  V30 4780 O 446.198 -2.70927 0.176278 0
M  V30 4781 C 444.654 -2.33727 2.73678 0
M  V30 4782 C 444.262 -1.74386 4.12666 0
M  V30 4783 C 446.006 -3.1003 2.89968 0
M  V30 4784 C 443.913 -2.77192 5.22416 0
M  V30 4785 H 442.843 -0.484484 0.577747 0
M  V30 4786 H 445.494 -0.56646 1.74538 0
M  V30 4787 H 443.876 -3.08919 2.4776 0
M  V30 4788 H 445.05 -1.05421 4.48579 0
M  V30 4789 H 443.365 -1.10595 4.01445 0
M  V30 4790 H 445.962 -3.86842 3.6913 0
M  V30 4791 H 446.305 -3.65542 1.9921 0
M  V30 4792 H 446.838 -2.41952 3.15759 0
M  V30 4793 H 443.577 -2.26507 6.15122 0
M  V30 4794 H 443.097 -3.44502 4.90998 0
M  V30 4795 H 444.776 -3.40285 5.50286 0
M  V30 4796 N 444.908 -1.36708 -0.784132 0
M  V30 4797 C 446.185 -1.21776 -1.53069 0
M  V30 4798 C 446.565 0.193876 -2.10208 0
M  V30 4799 O 445.913 1.20012 -1.94446 0
M  V30 4800 C 446.123 -2.30395 -2.62143 0
M  V30 4801 C 447.471 -2.67325 -3.29882 0
M  V30 4802 O 448.495 -2.29478 -2.7243 0
M  V30 4803 O 447.354 -3.32485 -4.33724 0
M  V30 4804 H 444.448 -0.474459 -0.677361 0
M  V30 4805 H 446.994 -1.48454 -0.82216 0
M  V30 4806 H 445.766 -3.2498 -2.17953 0
M  V30 4807 H 445.389 -2.05112 -3.40609 0
M  V30 4808 N 446.386 1.0089 -1.21074 0
M  V30 4809 C 447.316 2.1145 -0.990523 0
M  V30 4810 C 448.297 1.69897 0.0831699 0
M  V30 4811 O 449.482 1.94052 -0.0758853 0
M  V30 4812 C 446.612 3.42914 -0.550177 0
M  V30 4813 C 445.566 3.98244 -1.56799 0
M  V30 4814 C 444.892 5.25568 -0.984013 0
M  V30 4815 C 446.192 4.30752 -2.95381 0
M  V30 4816 H 447.886 2.3013 -1.91521 0
M  V30 4817 H 445.432 1.10592 -0.92225 0
M  V30 4818 H 447.385 4.19653 -0.383305 0
M  V30 4819 H 446.109 3.24014 0.41015 0
M  V30 4820 H 444.768 3.23621 -1.72236 0
M  V30 4821 H 444.416 5.02998 -0.0155216 0
M  V30 4822 H 444.116 5.63551 -1.66384 0
M  V30 4823 H 445.64 6.04955 -0.828378 0
M  V30 4824 H 447.054 4.98349 -2.8341 0
M  V30 4825 H 445.451 4.79869 -3.60341 0
M  V30 4826 H 446.521 3.39192 -3.46521 0
M  V30 4827 N 447.864 1.01787 1.20321 0
M  V30 4828 C 449.111 0.707936 1.89722 0
M  V30 4829 C 449.439 -0.762535 1.78929 0
M  V30 4830 O 448.694 -1.56977 1.16861 0
M  V30 4831 C 448.993 1.09076 3.40349 0
M  V30 4832 C 448.659 2.55765 3.71342 0
M  V30 4833 C 447.321 2.95845 3.79511 0
M  V30 4834 C 449.673 3.50723 3.85542 0
M  V30 4835 C 447.001 4.2982 3.99339 0
M  V30 4836 C 449.353 4.84387 4.06881 0
M  V30 4837 C 448.017 5.24172 4.1328 0
M  V30 4838 H 447.287 0.259052 0.694243 0
M  V30 4839 H 449.934 1.27868 1.42555 0
M  V30 4840 H 448.239 0.438453 3.89339 0
M  V30 4841 H 449.936 0.828636 3.92345 0
M  V30 4842 H 446.526 2.2371 3.65584 0
M  V30 4843 H 450.71 3.20916 3.78585 0
M  V30 4844 H 445.966 4.60196 4.02529 0
M  V30 4845 H 450.14 5.57891 4.1681 0
M  V30 4846 H 447.767 6.27997 4.28396 0
M  V30 4847 N 449.342 -1.36122 0.79427 0
M  V30 4848 C 450.29 -2.31871 0.184023 0
M  V30 4849 C 451.284 -1.56041 -0.659365 0
M  V30 4850 O 452.49 -1.71266 -0.553906 0
M  V30 4851 H 448.865 -0.750896 0.0407373 0
M  V30 4852 H 450.836 -2.80898 1.00693 0
M  V30 4853 C 449.585 -3.41324 -0.662813 0
M  V30 4854 H 448.908 -3.99793 -0.0231944 0
M  V30 4855 H 450.348 -4.10629 -1.05639 0
M  V30 4856 C 448.807 -2.83308 -1.82313 0
M  V30 4857 O 449.337 -2.75863 -2.91997 0
M  V30 4858 N 447.543 -2.40529 -1.63077 0
M  V30 4859 H 447.09 -2.46785 -0.738591 0
M  V30 4860 H 447.048 -2.02059 -2.40872 0
M  V30 4861 N 450.82 -0.546701 -1.47814 0
M  V30 4862 C 452.06 -0.0209604 -2.04389 0
M  V30 4863 C 452.424 1.29993 -1.413 0
M  V30 4864 O 453.625 1.91273 -1.8886 0
M  V30 4865 C 451.896 0.0812844 -3.57308 0
M  V30 4866 S 453.455 0.55467 -4.3528 0
M  V30 4867 H 450.273 -0.0200865 -0.710716 0
M  V30 4868 H 452.875 -0.731055 -1.81317 0
M  V30 4869 H 451.579 -0.884616 -4.00753 0
M  V30 4870 H 451.11 0.815253 -3.8486 0
M  V30 4871 H 453.125 1.81627 -4.61764 0
M  V30 4872 N 452.299 1.55045 -0.282633 0
M  V30 4873 C 453.229 2.2579 0.595066 0
M  V30 4874 C 454.21 1.25074 1.15284 0
M  V30 4875 O 455.395 1.5381 1.18559 0
M  V30 4876 C 452.525 2.98472 1.77572 0
M  V30 4877 C 451.479 4.0618 1.34914 0
M  V30 4878 C 450.805 4.66477 2.6135 0
M  V30 4879 C 452.105 5.1996 0.493821 0
M  V30 4880 H 453.799 2.994 0.00505653 0
M  V30 4881 H 451.345 1.44 0.000992001 0
M  V30 4882 H 453.298 3.46677 2.39568 0
M  V30 4883 H 452.022 2.2241 2.39168 0
M  V30 4884 H 450.681 3.58797 0.752338 0
M  V30 4885 H 450.329 3.87074 3.2122 0
M  V30 4886 H 450.029 5.39207 2.33516 0
M  V30 4887 H 451.553 5.17435 3.24181 0
M  V30 4888 H 452.967 5.64172 1.01898 0
M  V30 4889 H 451.364 5.99299 0.310047 0
M  V30 4890 H 452.434 4.82462 -0.485593 0
M  V30 4891 N 453.777 0.010035 1.57597 0
M  V30 4892 C 455.005 -0.683413 1.95287 0
M  V30 4893 C 455.42 -1.66747 0.885481 0
M  V30 4894 O 454.777 -1.82003 -0.134629 0
M  V30 4895 C 454.828 -1.40652 3.33015 0
M  V30 4896 O 454.549 -0.461916 4.35658 0
M  V30 4897 C 456.05 -2.19356 3.85225 0
M  V30 4898 H 453.27 -0.189708 0.643624 0
M  V30 4899 H 455.814 0.0641359 2.04399 0
M  V30 4900 H 453.969 -2.10562 3.2518 0
M  V30 4901 H 454.383 -0.973215 5.15392 0
M  V30 4902 H 455.857 -2.65433 4.83993 0
M  V30 4903 H 456.334 -3.02457 3.18459 0
M  V30 4904 H 456.94 -1.54442 3.96267 0
M  V30 4905 N 455.255 -1.55392 -0.262866 0
M  V30 4906 C 456.203 -1.8977 -1.345 0
M  V30 4907 C 457.197 -0.775063 -1.50629 0
M  V30 4908 O 458.403 -0.959519 -1.52293 0
M  V30 4909 H 454.778 -0.602467 -0.450041 0
M  V30 4910 H 456.749 -2.80147 -1.02762 0
M  V30 4911 C 455.498 -2.19501 -2.69657 0
M  V30 4912 H 454.821 -3.05378 -2.5804 0
M  V30 4913 H 456.261 -2.47469 -3.44289 0
M  V30 4914 C 454.72 -1.00597 -3.21531 0
M  V30 4915 O 455.25 -0.245768 -4.00947 0
M  V30 4916 N 453.456 -0.800911 -2.79345 0
M  V30 4917 H 453.003 -1.42079 -2.14875 0
M  V30 4918 H 452.961 -0.00697996 -3.14399 0
M  V30 4919 N 456.733 0.527833 -1.48498 0
M  V30 4920 C 457.979 1.28545 -1.56857 0
M  V30 4921 C 458.312 1.92678 -0.242651 0
M  V30 4922 O 457.587 1.79394 0.751545 0
M  V30 4923 C 457.87 2.37314 -2.70839 0
M  V30 4924 C 457.723 1.77858 -4.13142 0
M  V30 4925 C 459.042 3.39068 -2.80573 0
M  V30 4926 H 456.161 0.466006 -0.570971 0
M  V30 4927 H 458.803 0.587784 -1.8068 0
M  V30 4928 H 456.953 2.96821 -2.50658 0
M  V30 4929 H 458.625 1.22385 -4.44769 0
M  V30 4930 H 456.868 1.08383 -4.20042 0
M  V30 4931 H 457.539 2.56624 -4.88721 0
M  V30 4932 H 460.015 2.89518 -2.98862 0
M  V30 4933 H 458.891 4.12566 -3.6205 0
M  V30 4934 H 459.152 3.9975 -1.88818 0
M  V30 4935 N 458.211 1.37122 0.776871 0
M  V30 4936 C 459.436 1.354 1.57104 0
M  V30 4937 C 459.861 -0.0595562 1.88006 0
M  V30 4938 O 459.219 -1.03514 1.48844 0
M  V30 4939 C 459.267 2.19472 2.8612 0
M  V30 4940 O 458.371 1.59582 3.80273 0
M  V30 4941 H 457.712 0.462869 0.476076 0
M  V30 4942 H 460.242 1.80577 0.961932 0
M  V30 4943 H 460.252 2.32502 3.35271 0
M  V30 4944 H 458.927 3.22222 2.62956 0
M  V30 4945 H 457.504 1.55564 3.38902 0
M  V30 4946 N 459.689 -1.00246 1.21608 0
M  V30 4947 C 460.914 -1.78167 1.06167 0
M  V30 4948 C 461.339 -1.84138 -0.384035 0
M  V30 4949 O 460.697 -1.28683 -1.27712 0
M  V30 4950 C 460.745 -3.19786 1.66642 0
M  V30 4951 O 459.849 -4.02153 0.913613 0
M  V30 4952 H 459.19 -0.549 0.37349 0
M  V30 4953 H 461.72 -1.25994 1.61204 0
M  V30 4954 H 461.73 -3.70451 1.70969 0
M  V30 4955 H 460.405 -3.14754 2.7185 0
M  V30 4956 H 458.982 -3.60711 0.945635 0
M  V30 4957 N 461.167 -1.02423 -1.1978 0
M  V30 4958 C 462.414 -0.717988 -1.89344 0
M  V30 4959 C 462.742 0.753036 -1.79331 0
M  V30 4960 O 461.997 1.56355 -1.17692 0
M  V30 4961 C 462.296 -1.1088 -3.39765 0
M  V30 4962 C 461.962 -2.57731 -3.6998 0
M  V30 4963 C 460.624 -2.97854 -3.77937 0
M  V30 4964 C 462.976 -3.52763 -3.83677 0
M  V30 4965 C 460.304 -4.31931 -3.97054 0
M  V30 4966 C 462.656 -4.86538 -4.04306 0
M  V30 4967 C 461.32 -5.26356 -4.10494 0
M  V30 4968 H 460.59 -0.26273 -0.692859 0
M  V30 4969 H 463.237 -1.28623 -1.41875 0
M  V30 4970 H 461.542 -0.459094 -3.89101 0
M  V30 4971 H 463.239 -0.849432 -3.919 0
M  V30 4972 H 459.829 -2.25646 -3.64393 0
M  V30 4973 H 464.013 -3.2292 -3.76877 0
M  V30 4974 H 459.269 -4.62324 -4.00083 0
M  V30 4975 H 463.443 -5.60093 -4.13846 0
M  V30 4976 H 461.07 -6.3026 -4.2506 0
M  V30 4977 N 462.645 1.35699 -0.801477 0
M  V30 4978 C 463.87 2.03687 -0.390678 0
M  V30 4979 C 464.295 1.60015 0.988778 0
M  V30 4980 O 463.653 0.774357 1.63931 0
M  V30 4981 C 463.701 3.57439 -0.476404 0
M  V30 4982 O 462.805 4.09208 0.512106 0
M  V30 4983 H 462.146 0.64344 -0.163956 0
M  V30 4984 H 464.676 1.73403 -1.08594 0
M  V30 4985 H 464.686 4.06544 -0.344357 0
M  V30 4986 H 463.361 3.88576 -1.48262 0
M  V30 4987 H 461.938 3.7134 0.340721 0
M  V30 4988 N 464.123 0.554532 1.47522 0
M  V30 4989 C 465.053 -0.182974 2.32782 0
M  V30 4990 C 466.034 -0.911377 1.43624 0
M  V30 4991 O 467.219 -0.892366 1.72483 0
M  V30 4992 C 464.349 -1.21513 3.25349 0
M  V30 4993 C 463.303 -0.603355 4.23726 0
M  V30 4994 C 462.629 -1.73995 5.05598 0
M  V30 4995 C 463.929 0.441121 5.20434 0
M  V30 4996 H 465.623 0.52882 2.94693 0
M  V30 4997 H 463.169 0.255759 1.41711 0
M  V30 4998 H 465.122 -1.73922 3.83835 0
M  V30 4999 H 463.846 -1.95683 2.61487 0
M  V30 5000 H 462.505 -0.10059 3.66462 0
M  V30 5001 H 462.153 -2.47063 4.38143 0
M  V30 5002 H 461.853 -1.3364 5.72201 0
M  V30 5003 H 463.377 -2.26735 5.66942 0
M  V30 5004 H 464.791 0.00319931 5.733 0
M  V30 5005 H 463.188 0.763402 5.95224 0
M  V30 5006 H 464.258 1.33799 4.66075 0
M  V30 5007 N 465.601 -1.54893 0.290851 0
M  V30 5008 C 466.847 -2.0023 -0.321867 0
M  V30 5009 C 467.18 -1.179 -1.54316 0
M  V30 5010 O 466.455 -0.25293 -1.92848 0
M  V30 5011 C 466.738 -3.53456 -0.688515 0
M  V30 5012 C 466.591 -4.46532 0.541209 0
M  V30 5013 C 467.91 -4.13057 -1.51895 0
M  V30 5014 H 465.029 -0.727891 -0.115515 0
M  V30 5015 H 467.671 -1.85722 0.400931 0
M  V30 5016 H 465.821 -3.6595 -1.30433 0
M  V30 5017 H 467.493 -4.4596 1.17973 0
M  V30 5018 H 465.736 -4.17545 1.17636 0
M  V30 5019 H 466.407 -5.51475 0.240675 0
M  V30 5020 H 468.883 -4.03937 -0.99872 0
M  V30 5021 H 467.759 -5.20448 -1.74429 0
M  V30 5022 H 468.02 -3.64284 -2.50498 0
M  V30 5023 N 467.08 -0.0183926 -1.57589 0
M  V30 5024 C 468.305 0.676634 -1.96052 0
M  V30 5025 C 468.73 1.6548 -0.894307 0
M  V30 5026 O 468.088 1.80712 0.145849 0
M  V30 5027 C 468.136 1.36872 -3.33614 0
M  V30 5028 O 467.24 2.48372 -3.29219 0
M  V30 5029 H 466.581 0.1786 -0.63953 0
M  V30 5030 H 469.111 -0.077056 -2.04455 0
M  V30 5031 H 469.121 1.72797 -3.69601 0
M  V30 5032 H 467.796 0.651636 -4.10763 0
M  V30 5033 H 466.373 2.14639 -3.04934 0
M  V30 5034 N 468.558 1.5553 0.254621 0
M  V30 5035 C 469.804 1.77262 0.985193 0
M  V30 5036 C 470.137 0.582286 1.85265 0
M  V30 5037 O 469.412 -0.419666 1.89919 0
M  V30 5038 C 469.695 3.0881 1.85225 0
M  V30 5039 C 469.548 4.38233 1.0135 0
M  V30 5040 C 470.867 3.3653 2.83612 0
M  V30 5041 H 467.986 0.644906 0.356742 0
M  V30 5042 H 470.628 1.88264 0.256236 0
M  V30 5043 H 468.778 2.99562 2.47376 0
M  V30 5044 H 470.45 4.59463 0.411269 0
M  V30 5045 H 468.693 4.32636 0.317574 0
M  V30 5046 H 469.364 5.26644 1.65379 0
M  V30 5047 H 471.84 3.45691 2.31596 0
M  V30 5048 H 470.716 4.29805 3.41407 0
M  V30 5049 H 470.977 2.57064 3.59681 0
M  V30 5050 N 470.036 -0.519951 1.48776 0
M  V30 5051 C 471.264 -1.29971 1.60982 0
M  V30 5052 C 471.679 -1.86803 0.273885 0
M  V30 5053 O 471.036 -1.66904 -0.738193 0
M  V30 5054 C 471.087 -2.44346 2.66415 0
M  V30 5055 O 470.808 -1.89855 3.94825 0
M  V30 5056 C 472.309 -3.36014 2.89153 0
M  V30 5057 H 469.529 -0.394891 0.542496 0
M  V30 5058 H 472.073 -0.626214 1.94676 0
M  V30 5059 H 470.228 -3.07562 2.35552 0
M  V30 5060 H 470.642 -2.64798 4.5275 0
M  V30 5061 H 472.116 -4.12593 3.66703 0
M  V30 5062 H 472.593 -3.91859 1.98351 0
M  V30 5063 H 473.199 -2.78582 3.21359 0
M  V30 5064 N 471.514 -1.37532 -0.769588 0
M  V30 5065 C 472.763 -1.32183 -1.5235 0
M  V30 5066 C 473.076 0.0906555 -1.9539 0
M  V30 5067 O 474.282 0.266628 -2.70188 0
M  V30 5068 C 472.738 -2.32029 -2.75119 0
M  V30 5069 C 472.346 -3.78816 -2.3917 0
M  V30 5070 C 474.09 -2.35694 -3.53056 0
M  V30 5071 C 471.997 -4.70388 -3.58453 0
M  V30 5072 H 470.927 -0.491275 -0.571984 0
M  V30 5073 H 473.578 -1.63004 -0.842739 0
M  V30 5074 H 471.96 -1.94229 -3.45096 0
M  V30 5075 H 473.134 -4.25466 -1.76962 0
M  V30 5076 H 471.449 -3.78117 -1.74402 0
M  V30 5077 H 474.046 -3.01312 -4.41718 0
M  V30 5078 H 474.389 -1.37117 -3.93071 0
M  V30 5079 H 474.922 -2.72212 -2.90078 0
M  V30 5080 H 471.661 -5.70102 -3.23518 0
M  V30 5081 H 471.181 -4.28442 -4.19758 0
M  V30 5082 H 472.86 -4.87628 -4.25239 0
M  V30 5083 N 472.992 0.995999 -1.22138 0
M  V30 5084 C 473.902 2.11985 -1.00496 0
M  V30 5085 C 474.918 1.7394 0.0457701 0
M  V30 5086 O 476.094 2.00868 -0.146273 0
M  V30 5087 C 473.159 3.41779 -0.582086 0
M  V30 5088 C 472.22 3.93943 -1.70608 0
M  V30 5089 C 471.453 5.17542 -1.30328 0
M  V30 5090 O 471.676 5.70114 -0.180743 0
M  V30 5091 O 470.61 5.63382 -2.11861 0
M  V30 5092 H 474.436 2.33123 -1.94647 0
M  V30 5093 H 472.021 1.10358 -1.00705 0
M  V30 5094 H 473.903 4.1989 -0.356467 0
M  V30 5095 H 472.578 3.22007 0.330592 0
M  V30 5096 H 471.485 3.17019 -1.98619 0
M  V30 5097 H 472.818 4.18141 -2.59651 0
M  V30 5098 N 474.47 1.03057 1.19235 0
M  V30 5099 C 475.886 0.747947 1.40989 0
M  V30 5100 C 476.086 -0.666752 1.90149 0
M  V30 5101 O 475.142 -1.43249 2.07933 0
M  V30 5102 C 476.455 1.7855 2.41951 0
M  V30 5103 C 478.003 1.80524 2.55695 0
M  V30 5104 C 478.478 2.83243 3.59913 0
M  V30 5105 N 479.969 2.8207 3.67411 0
M  V30 5106 C 480.704 3.58204 4.47747 0
M  V30 5107 N 480.2 4.44057 5.31775 0
M  V30 5108 N 481.993 3.46738 4.42413 0
M  V30 5109 H 474.144 1.94367 0.856468 0
M  V30 5110 H 476.407 0.840412 0.438647 0
M  V30 5111 H 476.113 2.79973 2.12857 0
M  V30 5112 H 475.987 1.6092 3.41152 0
M  V30 5113 H 478.374 0.79778 2.84112 0
M  V30 5114 H 478.455 2.02229 1.56643 0
M  V30 5115 H 478.099 3.84161 3.32239 0
M  V30 5116 H 478.029 2.58795 4.5862 0
M  V30 5117 H 480.52 2.19803 3.074 0
M  V30 5118 H 480.833 4.98884 5.90199 0
M  V30 5119 H 479.178 4.48129 5.3123 0
M  V30 5120 H 482.369 2.79077 3.75811 0
M  V30 5121 H 482.542 4.06322 5.04783 0
M  V30 5122 N 475.948 -1.35272 0.808662 0
M  V30 5123 C 477.194 -1.99003 0.390581 0
M  V30 5124 C 477.527 -1.63999 -1.0401 0
M  V30 5125 O 476.802 -0.904368 -1.72196 0
M  V30 5126 C 477.085 -3.55454 0.576566 0
M  V30 5127 C 476.938 -4.00249 2.05233 0
M  V30 5128 C 478.257 -4.401 0.00354277 0
M  V30 5129 H 475.376 -0.722917 0.143388 0
M  V30 5130 H 478.018 -1.6039 1.01858 0
M  V30 5131 H 476.168 -3.88477 0.0419766 0
M  V30 5132 H 477.84 -3.77626 2.64946 0
M  V30 5133 H 476.083 -3.51082 2.54801 0
M  V30 5134 H 476.754 -5.0911 2.13333 0
M  V30 5135 H 479.23 -4.13548 0.460117 0
M  V30 5136 H 478.106 -5.48656 0.163575 0
M  V30 5137 H 478.367 -4.28444 -1.09032 0
M  V30 5138 N 477.426 -0.562348 -1.47226 0
M  V30 5139 C 478.373 0.182461 -2.30078 0
M  V30 5140 C 479.343 0.903503 -1.39377 0
M  V30 5141 O 480.528 0.898188 -1.68337 0
M  V30 5142 C 477.668 1.20322 -3.23445 0
M  V30 5143 C 476.781 0.487717 -4.29238 0
M  V30 5144 C 475.916 1.49422 -5.09752 0
M  V30 5145 C 474.955 0.763976 -6.07314 0
M  V30 5146 N 474.092 1.71755 -6.80768 0
M  V30 5147 H 478.932 -0.530169 -2.93246 0
M  V30 5148 H 476.469 -0.273276 -1.44539 0
M  V30 5149 H 478.427 1.80768 -3.76004 0
M  V30 5150 H 477.057 1.88382 -2.6213 0
M  V30 5151 H 476.109 -0.231374 -3.79696 0
M  V30 5152 H 477.421 -0.0841003 -4.98729 0
M  V30 5153 H 476.575 2.17206 -5.66486 0
M  V30 5154 H 475.314 2.09995 -4.40174 0
M  V30 5155 H 474.319 0.0722344 -5.49753 0
M  V30 5156 H 475.544 0.16391 -6.78902 0
M  V30 5157 H 473.49 2.31177 -6.13916 0
M  V30 5158 H 473.407 1.19802 -7.46447 0
M  V30 5159 H 474.675 2.38638 -7.42073 0
M  V30 5160 N 478.904 1.54736 -0.299062 0
M  V30 5161 C 480.181 1.92187 0.363802 0
M  V30 5162 C 480.561 1.22607 1.71845 0
M  V30 5163 O 479.909 0.361141 2.25628 0
M  V30 5164 C 480.119 3.45678 0.480377 0
M  V30 5165 C 481.467 4.17885 0.752147 0
M  V30 5166 O 482.491 3.51702 0.564264 0
M  V30 5167 O 481.35 5.35048 1.11294 0
M  V30 5168 H 478.444 0.801681 0.203066 0
M  V30 5169 H 480.99 1.66115 -0.346978 0
M  V30 5170 H 479.762 3.88443 -0.471999 0
M  V30 5171 H 479.385 3.77779 1.2397 0
M  V30 5172 N 480.382 0.0267497 1.57577 0
M  V30 5173 C 481.629 -0.652404 1.91703 0
M  V30 5174 C 481.957 -1.72271 0.902936 0
M  V30 5175 O 481.212 -1.955 -0.0884843 0
M  V30 5176 C 481.511 -1.30914 3.3256 0
M  V30 5177 C 481.177 -0.369441 4.49384 0
M  V30 5178 C 479.839 -0.110791 4.81072 0
M  V30 5179 C 482.191 0.275971 5.20469 0
M  V30 5180 C 479.519 0.801116 5.81205 0
M  V30 5181 C 481.871 1.17592 6.21575 0
M  V30 5182 C 480.535 1.44348 6.51705 0
M  V30 5183 H 479.805 -0.238732 0.70149 0
M  V30 5184 H 482.452 0.0880091 1.91298 0
M  V30 5185 H 480.757 -2.12425 3.29216 0
M  V30 5186 H 482.454 -1.84115 3.56234 0
M  V30 5187 H 479.044 -0.581211 4.24641 0
M  V30 5188 H 483.228 0.0892 4.9622 0
M  V30 5189 H 478.484 1.01614 6.02897 0
M  V30 5190 H 482.658 1.68223 6.75777 0
M  V30 5191 H 480.285 2.15176 7.29111 0
M  V30 5192 N 481.861 -1.55662 -0.24637 0
M  V30 5193 C 483.086 -1.81914 -0.996093 0
M  V30 5194 C 483.511 -0.603875 -1.78143 0
M  V30 5195 O 482.869 0.447091 -1.75701 0
M  V30 5196 C 482.917 -3.05908 -1.90925 0
M  V30 5197 O 482.021 -2.82861 -3.00105 0
M  V30 5198 H 481.362 -0.600481 -0.283406 0
M  V30 5199 H 483.892 -2.02848 -0.267199 0
M  V30 5200 H 483.902 -3.35356 -2.3238 0
M  V30 5201 H 482.577 -3.93999 -1.33183 0
M  V30 5202 H 481.154 -2.64583 -2.62775 0
M  V30 5203 N 483.339 0.512053 -1.4905 0
M  V30 5204 C 484.569 1.28928 -1.61434 0
M  V30 5205 C 484.977 1.87107 -0.280647 0
M  V30 5206 O 484.32 1.68024 0.742537 0
M  V30 5207 C 484.382 2.466 -2.61588 0
M  V30 5208 C 484.046 2.09375 -4.06216 0
M  V30 5209 C 485.043 1.63994 -4.93358 0
M  V30 5210 C 482.728 2.19348 -4.51876 0
M  V30 5211 C 484.722 1.29076 -6.24194 0
M  V30 5212 C 482.409 1.84041 -5.82728 0
M  V30 5213 C 483.407 1.38978 -6.68711 0
M  V30 5214 O 483.095 1.04144 -7.97126 0
M  V30 5215 H 482.827 0.397668 -0.546659 0
M  V30 5216 H 485.381 0.622507 -1.9574 0
M  V30 5217 H 483.611 3.16318 -2.22441 0
M  V30 5218 H 485.3 3.08642 -2.63619 0
M  V30 5219 H 486.066 1.55744 -4.59313 0
M  V30 5220 H 481.945 2.53376 -3.85125 0
M  V30 5221 H 485.489 0.938303 -6.91261 0
M  V30 5222 H 481.386 1.91938 -6.16304 0
M  V30 5223 H 482.154 1.17387 -8.10039 0
M  V30 5224 N 484.817 1.37938 0.762283 0
M  V30 5225 C 485.765 1.34569 1.89721 0
M  V30 5226 C 486.759 0.232929 1.67791 0
M  V30 5227 O 487.965 0.401485 1.75465 0
M  V30 5228 H 484.34 0.419594 0.624055 0
M  V30 5229 H 486.311 2.30357 1.8968 0
M  V30 5230 C 485.06 1.17898 3.27101 0
M  V30 5231 H 484.383 2.02781 3.44558 0
M  V30 5232 H 485.823 1.19593 4.06784 0
M  V30 5233 C 484.282 -0.114728 3.36705 0
M  V30 5234 O 484.812 -1.0949 3.8649 0
M  V30 5235 N 483.018 -0.16863 2.9011 0
M  V30 5236 H 482.565 0.62967 2.49786 0
M  V30 5237 H 482.523 -1.03383 2.96916 0
M  V30 5238 N 486.295 -0.989507 1.22664 0
M  V30 5239 C 487.542 -1.72953 1.05325 0
M  V30 5240 C 487.87 -1.90104 -0.411168 0
M  V30 5241 O 487.125 -1.44386 -1.32103 0
M  V30 5242 C 487.424 -3.13649 1.71345 0
M  V30 5243 C 487.09 -3.16403 3.21248 0
M  V30 5244 C 485.752 -3.16862 3.62149 0
M  V30 5245 C 488.104 -3.12428 4.17179 0
M  V30 5246 C 485.432 -3.11051 4.97458 0
M  V30 5247 C 487.784 -3.08159 5.52468 0
M  V30 5248 C 486.448 -3.06935 5.92746 0
M  V30 5249 H 485.718 -0.632881 0.385412 0
M  V30 5250 H 488.365 -1.15863 1.52473 0
M  V30 5251 H 486.67 -3.74069 1.16532 0
M  V30 5252 H 488.367 -3.69658 1.55416 0
M  V30 5253 H 484.957 -3.16798 2.88682 0
M  V30 5254 H 489.141 -3.11221 3.86595 0
M  V30 5255 H 484.397 -3.0845 5.27891 0
M  V30 5256 H 488.571 -3.04039 6.26525 0
M  V30 5257 H 486.198 -3.02186 6.97558 0
M  V30 5258 N 487.773 -1.03688 -1.18687 0
M  V30 5259 C 489.021 -0.736572 -1.88199 0
M  V30 5260 C 489.342 0.737665 -1.80509 0
M  V30 5261 O 488.612 1.53204 -1.22088 0
M  V30 5262 H 487.192 -0.269466 -0.696704 0
M  V30 5263 H 489.854 -1.31282 -1.44052 0
M  V30 5264 H 488.95 -1.03802 -2.94332 0
M  V30 5265 N 489.251 1.34841 -0.815825 0
M  V30 5266 C 490.497 1.99219 -0.410288 0
M  V30 5267 C 490.852 1.63532 1.01366 0
M  V30 5268 O 490.145 0.893093 1.69512 0
M  V30 5269 C 490.339 3.53273 -0.541541 0
M  V30 5270 C 490.168 4.03927 -1.9767 0
M  V30 5271 C 488.938 4.32852 -2.60706 0
M  V30 5272 C 491.136 4.21808 -2.9425 0
M  V30 5273 N 489.118 4.69494 -3.95536 0
M  V30 5274 C 490.489 4.6155 -4.13971 0
M  V30 5275 C 492.544 4.04038 -2.9096 0
M  V30 5276 C 491.247 4.85381 -5.30847 0
M  V30 5277 C 493.273 4.29031 -4.07046 0
M  V30 5278 C 492.635 4.69054 -5.25517 0
M  V30 5279 H 488.734 0.756494 -0.198094 0
M  V30 5280 H 491.318 1.63379 -1.05902 0
M  V30 5281 H 489.489 3.88323 0.0772544 0
M  V30 5282 H 491.221 4.04551 -0.109694 0
M  V30 5283 H 487.976 4.23503 -2.11995 0
M  V30 5284 H 488.4 4.92061 -4.64979 0
M  V30 5285 H 493.042 3.7223 -2.00512 0
M  V30 5286 H 490.76 5.16059 -6.21859 0
M  V30 5287 H 494.346 4.16826 -4.05891 0
M  V30 5288 H 493.226 4.88014 -6.1385 0
M  V30 5289 N 490.729 0.570148 1.46925 0
M  V30 5290 C 491.661 -0.207909 2.28255 0
M  V30 5291 C 492.674 -0.867301 1.37774 0
M  V30 5292 O 493.863 -0.738976 1.62485 0
M  V30 5293 C 490.963 -1.31298 3.12433 0
M  V30 5294 C 490.136 -0.747915 4.30958 0
M  V30 5295 C 489.195 -1.7391 4.9663 0
M  V30 5296 O 488.221 -1.2801 5.54619 0
M  V30 5297 N 489.423 -3.07288 4.92498 0
M  V30 5298 H 492.188 0.489794 2.95671 0
M  V30 5299 H 489.749 0.407076 1.56699 0
M  V30 5300 H 491.741 -1.97507 3.53232 0
M  V30 5301 H 490.311 -1.91373 2.47175 0
M  V30 5302 H 489.531 0.0913066 3.94094 0
M  V30 5303 H 490.819 -0.349958 5.07595 0
M  V30 5304 H 490.217 -3.47213 4.46609 0
M  V30 5305 H 488.774 -3.69021 5.37277 0
M  V30 5306 N 492.207 -1.54576 0.307264 0
M  V30 5307 C 493.157 -2.20467 -0.581249 0
M  V30 5308 C 494.141 -1.17972 -1.09414 0
M  V30 5309 O 495.333 -1.43667 -1.03387 0
M  V30 5310 C 492.462 -2.95369 -1.74963 0
M  V30 5311 C 491.548 -4.05186 -1.25241 0
M  V30 5312 N 491.939 -5.03577 -0.47364 0
M  V30 5313 C 490.237 -4.18841 -1.53259 0
M  V30 5314 C 490.938 -5.81328 -0.208083 0
M  V30 5315 N 489.914 -5.37834 -0.789651 0
M  V30 5316 H 493.716 -2.93892 0.0212221 0
M  V30 5317 H 491.23 -1.62011 0.112325 0
M  V30 5318 H 493.227 -3.41046 -2.39777 0
M  V30 5319 H 491.887 -2.23461 -2.35574 0
M  V30 5320 H 492.898 -5.17766 -0.117963 0
M  V30 5321 H 489.575 -3.58141 -2.14573 0
M  V30 5322 H 490.965 -6.706 0.417793 0
M  V30 5323 N 493.685 -0.035106 -1.57561 0
M  V30 5324 C 494.615 0.942993 -2.13612 0
M  V30 5325 C 495.596 1.33531 -1.05373 0
M  V30 5326 O 496.781 1.41287 -1.33235 0
M  V30 5327 C 493.911 2.22332 -2.66807 0
M  V30 5328 C 492.865 1.97156 -3.79886 0
M  V30 5329 C 492.191 3.31506 -4.19533 0
M  V30 5330 C 493.491 1.30596 -5.05709 0
M  V30 5331 H 495.185 0.476179 -2.95589 0
M  V30 5332 H 492.731 0.227602 -1.4219 0
M  V30 5333 H 494.684 2.91142 -3.04654 0
M  V30 5334 H 493.408 2.7119 -1.81999 0
M  V30 5335 H 492.067 1.30763 -3.42486 0
M  V30 5336 H 491.715 3.78134 -3.31698 0
M  V30 5337 H 491.415 3.15465 -4.95738 0
M  V30 5338 H 492.939 4.01574 -4.59968 0
M  V30 5339 H 494.353 1.89416 -5.41105 0
M  V30 5340 H 492.75 1.24934 -5.86951 0
M  V30 5341 H 493.82 0.279742 -4.84092 0
M  V30 5342 N 495.163 1.55791 0.238111 0
M  V30 5343 C 496.073 1.94196 1.31625 0
M  V30 5344 C 497.089 0.843545 1.52185 0
M  V30 5345 O 498.265 1.1457 1.65637 0
M  V30 5346 C 495.33 2.2365 2.64918 0
M  V30 5347 C 494.391 3.46971 2.52804 0
M  V30 5348 C 493.624 3.7501 3.79741 0
M  V30 5349 O 493.847 3.04982 4.82019 0
M  V30 5350 O 492.781 4.68525 3.77846 0
M  V30 5351 H 496.607 2.86044 1.02043 0
M  V30 5352 H 494.192 1.42786 0.439603 0
M  V30 5353 H 496.074 2.43863 3.4367 0
M  V30 5354 H 494.749 1.34979 2.94215 0
M  V30 5355 H 493.656 3.32055 1.72309 0
M  V30 5356 H 494.989 4.35971 2.28451 0
M  V30 5357 N 496.642 -0.504142 1.49319 0
M  V30 5358 C 497.572 -1.61473 1.68667 0
M  V30 5359 C 498.553 -1.61455 0.535378 0
M  V30 5360 O 499.738 -1.78245 0.770868 0
M  V30 5361 C 496.868 -2.99971 1.75028 0
M  V30 5362 C 495.822 -3.14854 2.89916 0
M  V30 5363 C 495.148 -4.54671 2.81387 0
M  V30 5364 C 496.448 -2.95176 4.30893 0
M  V30 5365 H 498.142 -1.45535 2.61648 0
M  V30 5366 H 495.688 -0.698711 1.25913 0
M  V30 5367 H 497.641 -3.77562 1.8715 0
M  V30 5368 H 496.365 -3.1699 0.786441 0
M  V30 5369 H 495.024 -2.39687 2.77391 0
M  V30 5370 H 494.672 -4.68562 1.82917 0
M  V30 5371 H 494.372 -4.6557 3.58494 0
M  V30 5372 H 495.896 -5.34327 2.95512 0
M  V30 5373 H 497.31 -3.62538 4.44116 0
M  V30 5374 H 495.707 -3.17549 5.09198 0
M  V30 5375 H 496.777 -1.91332 4.45556 0
M  V30 5376 N 498.12 -1.38341 -0.754957 0
M  V30 5377 C 499.366 -1.34672 -1.51628 0
M  V30 5378 C 499.699 0.0636036 -1.94096 0
M  V30 5379 O 498.974 1.0245 -1.6533 0
M  V30 5380 C 499.257 -2.30116 -2.76981 0
M  V30 5381 C 499.11 -3.80003 -2.4066 0
M  V30 5382 C 500.429 -2.23715 -3.78998 0
M  V30 5383 H 497.548 -0.490517 -0.550056 0
M  V30 5384 H 500.19 -1.69178 -0.864807 0
M  V30 5385 H 498.34 -2.00821 -3.3257 0
M  V30 5386 H 500.012 -4.19966 -1.90856 0
M  V30 5387 H 498.255 -3.97751 -1.73137 0
M  V30 5388 H 498.926 -4.42244 -3.30339 0
M  V30 5389 H 501.402 -2.49574 -3.32945 0
M  V30 5390 H 500.278 -2.9261 -4.64403 0
M  V30 5391 H 500.539 -1.23554 -4.24484 0
M  V30 5392 N 499.598 0.982988 -1.23187 0
M  V30 5393 C 500.546 2.09616 -1.00817 0
M  V30 5394 C 501.54 1.6932 0.0519995 0
M  V30 5395 O 502.746 1.79715 -0.101284 0
M  V30 5396 H 499.121 0.685628 -0.308899 0
M  V30 5397 H 501.092 2.25652 -1.95253 0
M  V30 5398 C 499.841 3.42249 -0.613243 0
M  V30 5399 H 499.164 3.73705 -1.42073 0
M  V30 5400 H 500.604 4.21086 -0.496208 0
M  V30 5401 C 499.063 3.30002 0.678233 0
M  V30 5402 O 499.593 3.6263 1.72807 0
M  V30 5403 N 497.799 2.83164 0.653165 0
M  V30 5404 H 497.346 2.56811 -0.201492 0
M  V30 5405 H 497.304 2.75352 1.51752 0
M  V30 5406 N 501.076 1.04316 1.18135 0
M  V30 5407 C 502.316 0.756937 1.89868 0
M  V30 5408 C 502.68 -0.702609 1.78682 0
M  V30 5409 O 503.881 -1.10255 2.45148 0
M  V30 5410 C 502.152 1.21327 3.36176 0
M  V30 5411 S 503.711 1.05307 4.25976 0
M  V30 5412 H 500.529 0.275143 0.655604 0
M  V30 5413 H 503.131 1.33597 1.42731 0
M  V30 5414 H 501.835 2.27086 3.41848 0
M  V30 5415 H 501.366 0.628137 3.88353 0
M  V30 5416 H 503.381 -0.0280093 4.96192 0
M  V30 5417 N 502.554 -1.34406 0.822964 0
M  V30 5418 C 503.501 -2.29519 0.24284 0
M  V30 5419 C 504.471 -1.5359 -0.632397 0
M  V30 5420 O 505.656 -1.8196 -0.57403 0
M  V30 5421 C 502.796 -3.40032 -0.58925 0
M  V30 5422 C 501.909 -4.30899 0.308236 0
M  V30 5423 C 501.044 -5.28515 -0.533425 0
M  V30 5424 C 500.083 -6.1102 0.363444 0
M  V30 5425 N 499.22 -7.00725 -0.439147 0
M  V30 5426 H 504.06 -2.78537 1.05929 0
M  V30 5427 H 501.597 -1.3707 0.533872 0
M  V30 5428 H 503.555 -4.0279 -1.087 0
M  V30 5429 H 502.185 -2.92248 -1.37081 0
M  V30 5430 H 501.237 -3.69002 0.924203 0
M  V30 5431 H 502.549 -4.88717 0.997862 0
M  V30 5432 H 501.703 -5.96725 -1.09565 0
M  V30 5433 H 500.442 -4.71235 -1.25656 0
M  V30 5434 H 499.447 -5.41743 0.937812 0
M  V30 5435 H 500.672 -6.70381 1.08469 0
M  V30 5436 H 498.618 -6.45913 -1.14595 0
M  V30 5437 H 498.535 -7.55756 0.19209 0
M  V30 5438 H 499.803 -7.73263 -0.984124 0
M  V30 5439 N 504.032 -0.577932 -1.46621 0
M  V30 5440 C 505.279 -0.0616879 -2.02406 0
M  V30 5441 C 505.607 1.29638 -1.44997 0
M  V30 5442 O 504.862 1.86176 -0.60308 0
M  V30 5443 C 505.161 0.0590832 -3.57351 0
M  V30 5444 C 504.827 -1.23077 -4.33777 0
M  V30 5445 C 503.489 -1.58416 -4.54376 0
M  V30 5446 C 505.841 -2.08457 -4.77698 0
M  V30 5447 C 503.169 -2.78943 -5.16147 0
M  V30 5448 C 505.521 -3.28204 -5.408 0
M  V30 5449 C 504.185 -3.63832 -5.59627 0
M  V30 5450 H 503.455 -0.0225732 -0.740656 0
M  V30 5451 H 506.102 -0.753609 -1.76048 0
M  V30 5452 H 504.407 0.834104 -3.82818 0
M  V30 5453 H 506.104 0.474202 -3.98186 0
M  V30 5454 H 502.694 -0.945652 -4.18038 0
M  V30 5455 H 506.878 -1.82459 -4.61544 0
M  V30 5456 H 502.134 -3.06689 -5.28916 0
M  V30 5457 H 506.308 -3.94634 -5.73792 0
M  V30 5458 H 503.935 -4.57315 -6.07262 0
M  V30 5459 N 505.51 1.54411 -0.315457 0
M  V30 5460 C 506.758 2.00023 0.288971 0
M  V30 5461 C 507.079 1.20529 1.5329 0
M  V30 5462 O 506.349 0.304986 1.93511 0
M  V30 5463 H 504.929 0.738891 0.109766 0
M  V30 5464 H 507.591 1.90094 -0.430129 0
M  V30 5465 H 506.687 3.07198 0.550999 0
M  V30 5466 N 506.988 0.0434614 1.5754 0
M  V30 5467 C 507.92 -0.962586 2.08007 0
M  V30 5468 C 508.933 -1.27972 1.00634 0
M  V30 5469 O 510.122 -1.24186 1.28219 0
M  V30 5470 C 507.222 -2.28621 2.50171 0
M  V30 5471 C 506.395 -2.15214 3.80791 0
M  V30 5472 C 505.454 -3.30633 4.09351 0
M  V30 5473 O 504.48 -3.0688 4.79388 0
M  V30 5474 N 505.682 -4.54873 3.60654 0
M  V30 5475 H 508.447 -0.531891 2.94942 0
M  V30 5476 H 506.008 -0.142965 1.61268 0
M  V30 5477 H 508 -3.04689 2.66359 0
M  V30 5478 H 506.57 -2.63283 1.68525 0
M  V30 5479 H 505.79 -1.23785 3.74261 0
M  V30 5480 H 507.078 -2.03475 4.66343 0
M  V30 5481 H 506.476 -4.77063 3.04019 0
M  V30 5482 H 505.033 -5.2806 3.82094 0
M  V30 5483 N 508.466 -1.55915 -0.229846 0
M  V30 5484 C 509.713 -1.78542 -0.955452 0
M  V30 5485 C 510.041 -0.610785 -1.84661 0
M  V30 5486 O 509.296 0.405213 -1.91459 0
M  V30 5487 C 509.595 -3.06845 -1.8325 0
M  V30 5488 C 509.261 -4.37395 -1.09528 0
M  V30 5489 C 507.923 -4.72868 -0.891598 0
M  V30 5490 C 510.275 -5.18029 -0.574046 0
M  V30 5491 C 507.603 -5.86496 -0.154655 0
M  V30 5492 C 509.955 -6.32423 0.149513 0
M  V30 5493 C 508.619 -6.66504 0.364519 0
M  V30 5494 H 507.889 -0.653333 -0.349625 0
M  V30 5495 H 510.536 -1.90183 -0.224235 0
M  V30 5496 H 508.841 -2.90291 -2.63132 0
M  V30 5497 H 510.538 -3.21553 -2.39592 0
M  V30 5498 H 507.128 -4.09538 -1.26399 0
M  V30 5499 H 511.312 -4.91066 -0.718899 0
M  V30 5500 H 506.568 -6.11396 0.0222356 0
M  V30 5501 H 510.742 -6.94137 0.560947 0
M  V30 5502 H 508.369 -7.54397 0.937495 0
M  V30 5503 N 509.944 0.496216 -1.49584 0
M  V30 5504 C 511.355 1.07765 -1.52459 0
M  V30 5505 C 511.706 1.93679 -0.31353 0
M  V30 5506 O 510.831 2.08588 0.576186 0
M  V30 5507 C 511.426 1.96111 -2.76271 0
M  V30 5508 C 509.985 2.49409 -2.81908 0
M  V30 5509 C 509.132 1.27142 -2.46435 0
M  V30 5510 H 512.083 0.279914 -1.56212 0
M  V30 5511 H 512.104 2.80862 -2.56704 0
M  V30 5512 H 511.616 1.33555 -3.64396 0
M  V30 5513 H 509.717 3.1559 -1.98074 0
M  V30 5514 H 509.83 2.86234 -3.84196 0
M  V30 5515 H 508.194 1.59818 -1.98319 0
M  V30 5516 H 508.977 0.662866 -3.3684 0
M  V30 5517 N 511.423 1.38739 0.74761 0
M  V30 5518 C 512.651 1.38521 1.53686 0
M  V30 5519 C 513.066 -0.0235129 1.88785 0
M  V30 5520 O 512.423 -0.991662 1.53207 0
M  V30 5521 C 512.474 2.24641 2.83229 0
M  V30 5522 O 512.195 3.60026 2.49625 0
M  V30 5523 C 513.696 2.32669 3.77333 0
M  V30 5524 H 510.916 0.473589 0.475347 0
M  V30 5525 H 513.46 1.82395 0.924786 0
M  V30 5526 H 511.615 1.84213 3.40799 0
M  V30 5527 H 512.029 4.05435 3.3275 0
M  V30 5528 H 513.503 2.97201 4.65162 0
M  V30 5529 H 513.98 1.3421 4.18192 0
M  V30 5530 H 514.586 2.73512 3.25685 0
M  V30 5531 N 512.901 -0.976442 1.23707 0
M  V30 5532 C 513.831 -2.08749 1.04624 0
M  V30 5533 C 514.812 -1.70057 -0.0380956 0
M  V30 5534 O 515.997 -1.93782 0.127308 0
M  V30 5535 C 513.127 -3.41335 0.640902 0
M  V30 5536 C 512.081 -3.93947 1.67302 0
M  V30 5537 C 511.407 -5.22774 1.12301 0
M  V30 5538 C 512.707 -4.22769 3.06697 0
M  V30 5539 H 514.401 -2.24972 1.97555 0
M  V30 5540 H 511.947 -1.08108 0.951247 0
M  V30 5541 H 513.9 -4.18489 0.494434 0
M  V30 5542 H 512.624 -3.24988 -0.324099 0
M  V30 5543 H 511.283 -3.18941 1.80755 0
M  V30 5544 H 510.931 -5.0278 0.148877 0
M  V30 5545 H 510.631 -5.58942 1.81267 0
M  V30 5546 H 512.155 -6.02546 0.988479 0
M  V30 5547 H 513.569 -4.90659 2.96524 0
M  V30 5548 H 511.966 -4.70147 3.72937 0
M  V30 5549 H 513.036 -3.29885 3.55392 0
M  V30 5550 N 514.379 -1.04941 -1.1758 0
M  V30 5551 C 515.326 -0.648155 -2.21512 0
M  V30 5552 C 516.296 0.348431 -1.62404 0
M  V30 5553 O 517.481 0.240419 -1.89279 0
M  V30 5554 C 514.621 -0.0264291 -3.4509 0
M  V30 5555 C 513.734 -1.07154 -4.185 0
M  V30 5556 C 512.869 -0.417403 -5.29558 0
M  V30 5557 C 511.908 -1.447 -5.94751 0
M  V30 5558 N 511.045 -0.817203 -6.97328 0
M  V30 5559 H 515.885 -1.53891 -2.55189 0
M  V30 5560 H 513.422 -0.769699 -1.25356 0
M  V30 5561 H 515.38 0.351456 -4.15717 0
M  V30 5562 H 514.01 0.827802 -3.12005 0
M  V30 5563 H 513.062 -1.56728 -3.46613 0
M  V30 5564 H 514.374 -1.8532 -4.63096 0
M  V30 5565 H 513.528 0.0142061 -6.06698 0
M  V30 5566 H 512.267 0.396265 -4.86087 0
M  V30 5567 H 511.272 -1.88865 -5.16343 0
M  V30 5568 H 512.497 -2.26252 -6.40302 0
M  V30 5569 H 510.443 -0.0239995 -6.55996 0
M  V30 5570 H 510.36 -1.53644 -7.40223 0
M  V30 5571 H 511.628 -0.410283 -7.7842 0
M  V30 5572 N 515.857 1.33968 -0.830081 0
M  V30 5573 C 516.787 2.31911 -0.271911 0
M  V30 5574 C 517.768 1.58571 0.61556 0
M  V30 5575 O 518.953 1.86514 0.540946 0
M  V30 5576 C 516.083 3.42737 0.561146 0
M  V30 5577 C 515.037 4.27383 -0.229789 0
M  V30 5578 C 514.363 5.29742 0.726463 0
M  V30 5579 C 515.663 5.02 -1.44197 0
M  V30 5580 H 517.357 2.78844 -1.09025 0
M  V30 5581 H 514.903 1.34061 -0.52571 0
M  V30 5582 H 516.856 4.10276 0.961867 0
M  V30 5583 H 515.58 2.94471 1.41261 0
M  V30 5584 H 514.239 3.61456 -0.611964 0
M  V30 5585 H 513.887 4.77736 1.57408 0
M  V30 5586 H 513.587 5.87255 0.20142 0
M  V30 5587 H 515.111 6.00149 1.12489 0
M  V30 5588 H 516.525 5.62355 -1.11488 0
M  V30 5589 H 514.922 5.69122 -1.90317 0
M  V30 5590 H 515.992 4.31281 -2.2164 0
M  V30 5591 N 517.335 0.585699 1.46312 0
M  V30 5592 C 518.282 -0.145835 2.30339 0
M  V30 5593 C 519.252 -0.881215 1.40797 0
M  V30 5594 O 520.437 -0.871293 1.69744 0
M  V30 5595 C 517.577 -1.15161 3.25318 0
M  V30 5596 C 516.69 -0.419367 4.2996 0
M  V30 5597 C 515.825 -1.41293 5.12064 0
M  V30 5598 C 514.864 -0.667261 6.08452 0
M  V30 5599 N 514.001 -1.60903 6.83414 0
M  V30 5600 H 518.841 0.576755 2.92365 0
M  V30 5601 H 516.378 0.296237 1.44086 0
M  V30 5602 H 518.336 -1.74763 3.78832 0
M  V30 5603 H 516.966 -1.84188 2.65094 0
M  V30 5604 H 516.018 0.291751 3.7928 0
M  V30 5605 H 517.33 0.163433 4.98532 0
M  V30 5606 H 516.484 -2.08167 5.6987 0
M  V30 5607 H 515.223 -2.02966 4.43459 0
M  V30 5608 H 514.228 0.0152356 5.49798 0
M  V30 5609 H 515.453 -0.0558817 6.79077 0
M  V30 5610 H 513.399 -2.21381 6.17516 0
M  V30 5611 H 513.316 -1.07911 7.48259 0
M  V30 5612 H 514.584 -2.26802 7.45775 0
M  V30 5613 N 518.813 -1.54241 0.323641 0
M  V30 5614 C 520.038 -2.05452 -0.283605 0
M  V30 5615 C 520.463 -1.19823 -1.44997 0
M  V30 5616 O 519.821 -0.207358 -1.8011 0
M  V30 5617 C 519.869 -3.53823 -0.695795 0
M  V30 5618 O 518.973 -3.71134 -1.79815 0
M  V30 5619 H 518.314 -0.662024 -0.0511917 0
M  V30 5620 H 520.844 -1.99079 0.472073 0
M  V30 5621 H 520.854 -3.96094 -0.978434 0
M  V30 5622 H 519.529 -4.15602 0.157287 0
M  V30 5623 H 518.106 -3.40768 -1.51431 0
M  V30 5624 N 520.291 -0.0518155 -1.57515 0
M  V30 5625 C 521.221 0.920283 -2.146 0
M  V30 5626 C 522.202 1.32406 -1.06783 0
M  V30 5627 O 523.387 1.39866 -1.34726 0
M  V30 5628 C 520.517 2.1949 -2.6915 0
M  V30 5629 C 519.471 1.93116 -3.81956 0
M  V30 5630 C 518.797 3.27037 -4.23026 0
M  V30 5631 C 520.097 1.25225 -5.07066 0
M  V30 5632 H 521.791 0.444801 -2.96077 0
M  V30 5633 H 519.337 0.212508 -1.42423 0
M  V30 5634 H 521.29 2.87894 -3.07725 0
M  V30 5635 H 520.014 2.69244 -1.84865 0
M  V30 5636 H 518.673 1.27123 -3.43854 0
M  V30 5637 H 518.321 3.74595 -3.3569 0
M  V30 5638 H 518.021 3.10189 -4.99056 0
M  V30 5639 H 519.545 3.96673 -4.64202 0
M  V30 5640 H 520.959 1.83666 -5.43083 0
M  V30 5641 H 519.356 1.18702 -5.88243 0
M  V30 5642 H 520.426 0.228382 -4.84362 0
M  V30 5643 N 521.769 1.56035 0.221574 0
M  V30 5644 C 522.716 1.92413 1.27459 0
M  V30 5645 C 523.686 0.781323 1.46576 0
M  V30 5646 O 524.871 1.03721 1.60145 0
M  V30 5647 C 522.011 2.24617 2.61995 0
M  V30 5648 C 521.124 3.51831 2.50677 0
M  V30 5649 C 520.259 3.73482 3.77736 0
M  V30 5650 C 519.298 4.94211 3.6114 0
M  V30 5651 N 518.435 5.12252 4.80148 0
M  V30 5652 H 523.275 2.82203 0.957355 0
M  V30 5653 H 520.812 1.39676 0.461415 0
M  V30 5654 H 522.77 2.41298 3.40339 0
M  V30 5655 H 521.4 1.38 2.91815 0
M  V30 5656 H 520.452 3.43343 1.63767 0
M  V30 5657 H 521.764 4.40328 2.34334 0
M  V30 5658 H 520.918 3.9026 4.64523 0
M  V30 5659 H 519.657 2.83266 3.97003 0
M  V30 5660 H 518.662 4.77384 2.72736 0
M  V30 5661 H 519.887 5.85912 3.43343 0
M  V30 5662 H 517.833 4.24978 4.99729 0
M  V30 5663 H 517.75 5.94881 4.66532 0
M  V30 5664 H 519.018 5.33465 5.68362 0
M  V30 5665 N 523.247 -0.488276 1.49845 0
M  V30 5666 C 524.663 -0.820566 1.3689 0
M  V30 5667 C 524.863 -1.97248 0.411752 0
M  V30 5668 O 523.919 -2.52042 -0.151931 0
M  V30 5669 C 525.232 -1.1488 2.77891 0
M  V30 5670 C 526.78 -1.25626 2.86683 0
M  V30 5671 C 527.255 -1.61772 4.28479 0
M  V30 5672 N 528.746 -1.68797 4.31349 0
M  V30 5673 C 529.481 -1.98235 5.38043 0
M  V30 5674 N 528.977 -2.2581 6.54967 0
M  V30 5675 N 530.77 -1.99593 5.2547 0
M  V30 5676 H 522.921 0.271123 2.10662 0
M  V30 5677 H 525.184 0.058735 0.946179 0
M  V30 5678 H 524.89 -0.375614 3.49688 0
M  V30 5679 H 524.764 -2.08919 3.14058 0
M  V30 5680 H 527.151 -2.02014 2.15114 0
M  V30 5681 H 527.232 -0.296072 2.54081 0
M  V30 5682 H 526.876 -0.859295 5.00578 0
M  V30 5683 H 526.806 -2.58912 4.58554 0
M  V30 5684 H 529.297 -1.49595 3.4703 0
M  V30 5685 H 529.61 -2.47497 7.32096 0
M  V30 5686 H 527.955 -2.23239 6.58171 0
M  V30 5687 H 531.146 -1.77535 4.33127 0
M  V30 5688 H 531.319 -2.222 6.08713 0
M  V30 5689 N 524.725 -1.39134 -0.740242 0
M  V30 5690 C 525.655 -1.40165 -1.86751 0
M  V30 5691 C 526.636 -0.265708 -1.68012 0
M  V30 5692 O 527.821 -0.47076 -1.88408 0
M  V30 5693 C 524.951 -1.2392 -3.2444 0
M  V30 5694 C 523.905 -2.34858 -3.57807 0
M  V30 5695 C 523.231 -2.03707 -4.94376 0
M  V30 5696 C 524.531 -3.77159 -3.61315 0
M  V30 5697 H 526.225 -2.345 -1.86145 0
M  V30 5698 H 523.771 -1.12875 -0.89416 0
M  V30 5699 H 525.724 -1.23263 -4.02969 0
M  V30 5700 H 524.448 -0.26051 -3.25559 0
M  V30 5701 H 523.107 -2.34723 -2.81604 0
M  V30 5702 H 522.755 -1.04289 -4.9207 0
M  V30 5703 H 522.455 -2.78016 -5.17669 0
M  V30 5704 H 523.979 -2.04691 -5.75268 0
M  V30 5705 H 525.393 -3.79252 -4.29931 0
M  V30 5706 H 523.79 -4.50784 -3.96124 0
M  V30 5707 H 524.86 -4.08513 -2.61238 0
M  V30 5708 N 526.204 0.969867 -1.24223 0
M  V30 5709 C 527.432 1.74756 -1.10761 0
M  V30 5710 C 527.847 1.85713 0.340041 0
M  V30 5711 O 527.204 1.34389 1.23474 0
M  V30 5712 C 527.255 3.16915 -1.73917 0
M  V30 5713 O 526.976 3.06511 -3.13021 0
M  V30 5714 C 528.477 4.11032 -1.66036 0
M  V30 5715 H 525.697 0.548092 -0.387087 0
M  V30 5716 H 528.241 1.2178 -1.64286 0
M  V30 5717 H 526.396 3.66884 -1.244 0
M  V30 5718 H 526.81 3.96079 -3.43834 0
M  V30 5719 H 528.284 5.08446 -2.14911 0
M  V30 5720 H 528.761 4.34785 -0.621159 0
M  V30 5721 H 529.367 3.66972 -2.14969 0
M  V30 5722 N 527.682 1.05563 1.17022 0
M  V30 5723 C 528.929 0.767937 1.87374 0
M  V30 5724 C 529.257 -0.705224 1.81265 0
M  V30 5725 O 528.512 -1.5318 1.21796 0
M  V30 5726 C 528.811 1.19849 3.36706 0
M  V30 5727 C 528.477 2.6745 3.63017 0
M  V30 5728 C 527.139 3.0777 3.69907 0
M  V30 5729 C 529.491 3.62811 3.74189 0
M  V30 5730 C 526.819 4.42307 3.85463 0
M  V30 5731 C 529.171 4.97087 3.91264 0
M  V30 5732 C 527.835 5.37055 3.96394 0
M  V30 5733 H 527.105 0.281008 0.68565 0
M  V30 5734 H 529.752 1.32339 1.38415 0
M  V30 5735 H 528.057 0.562096 3.87747 0
M  V30 5736 H 529.754 0.953038 3.8951 0
M  V30 5737 H 526.344 2.35228 3.58282 0
M  V30 5738 H 530.528 3.32798 3.68183 0
M  V30 5739 H 525.784 4.72769 3.87684 0
M  V30 5740 H 529.958 5.70869 3.9885 0
M  V30 5741 H 527.585 6.41308 4.082 0
M  V30 5742 N 529.16 -1.33526 0.837174 0
M  V30 5743 C 530.388 -2.02047 0.445494 0
M  V30 5744 C 530.803 -1.62995 -0.952788 0
M  V30 5745 O 530.16 -0.842447 -1.61892 0
M  V30 5746 C 530.211 -3.57221 0.554577 0
M  V30 5747 O 529.932 -3.94863 1.89776 0
M  V30 5748 C 531.433 -4.43012 0.159634 0
M  V30 5749 H 528.653 -0.647221 0.177048 0
M  V30 5750 H 531.197 -1.70492 1.12928 0
M  V30 5751 H 529.352 -3.87315 -0.0812781 0
M  V30 5752 H 529.766 -4.89569 1.88208 0
M  V30 5753 H 531.24 -5.51253 0.28701 0
M  V30 5754 H 531.717 -4.29916 -0.898289 0
M  V30 5755 H 532.323 -4.18274 0.769855 0
M  V30 5756 N 530.638 -0.59345 -1.46 0
M  V30 5757 C 531.863 -0.0872365 -2.07216 0
M  V30 5758 C 532.288 1.2131 -1.43755 0
M  V30 5759 O 531.646 1.73528 -0.525152 0
M  V30 5760 C 531.694 0.0538197 -3.6056 0
M  V30 5761 O 530.798 1.10765 -3.97247 0
M  V30 5762 H 530.139 -0.0676598 -0.660544 0
M  V30 5763 H 532.669 -0.819445 -1.87473 0
M  V30 5764 H 532.679 0.256567 -4.07193 0
M  V30 5765 H 531.354 -0.895739 -4.0614 0
M  V30 5766 H 529.931 0.882501 -3.62307 0
M  V30 5767 N 532.116 1.54067 -0.331816 0
M  V30 5768 C 533.064 2.26105 0.54582 0
M  V30 5769 C 534.058 1.27816 1.11173 0
M  V30 5770 O 535.264 1.45565 1.05882 0
M  V30 5771 H 531.639 0.726363 0.194683 0
M  V30 5772 H 533.61 2.98282 -0.083931 0
M  V30 5773 C 532.359 3.03814 1.69092 0
M  V30 5774 H 531.682 3.79269 1.26473 0
M  V30 5775 H 533.122 3.57453 2.28043 0
M  V30 5776 C 531.581 2.12606 2.61343 0
M  V30 5777 O 532.111 1.71437 3.6328 0
M  V30 5778 N 530.317 1.77925 2.29763 0
M  V30 5779 H 529.864 2.11602 1.46909 0
M  V30 5780 H 529.822 1.1718 2.91747 0
M  V30 5781 N 533.594 0.0601682 1.57485 0
M  V30 5782 C 534.541 -0.91112 2.12055 0
M  V30 5783 C 535.511 -1.30298 1.03013 0
M  V30 5784 O 536.696 -1.39087 1.30612 0
M  V30 5785 C 533.836 -2.1775 2.67729 0
M  V30 5786 C 532.949 -1.83933 3.90887 0
M  V30 5787 C 532.084 -3.05096 4.34845 0
M  V30 5788 C 531.123 -2.67241 5.5068 0
M  V30 5789 N 530.26 -3.81127 5.8965 0
M  V30 5790 H 535.1 -0.43888 2.9475 0
M  V30 5791 H 532.637 -0.204995 1.45665 0
M  V30 5792 H 534.595 -2.91866 2.98111 0
M  V30 5793 H 533.225 -2.62535 1.87816 0
M  V30 5794 H 532.277 -0.999287 3.6704 0
M  V30 5795 H 533.589 -1.52074 4.75052 0
M  V30 5796 H 532.743 -3.87502 4.66827 0
M  V30 5797 H 531.482 -3.40139 3.49509 0
M  V30 5798 H 530.487 -1.83254 5.18361 0
M  V30 5799 H 531.712 -2.3338 6.37738 0
M  V30 5800 H 529.658 -4.15954 5.07266 0
M  V30 5801 H 529.575 -3.52997 6.68528 0
M  V30 5802 H 530.843 -4.64145 6.2625 0
M  V30 5803 N 535.072 -1.5615 -0.213296 0
M  V30 5804 C 536.32 -1.79191 -0.934612 0
M  V30 5805 C 536.641 -0.630112 -1.84539 0
M  V30 5806 O 535.911 0.35257 -1.92701 0
M  V30 5807 H 534.491 -0.660937 -0.348097 0
M  V30 5808 H 537.153 -1.93618 -0.22317 0
M  V30 5809 H 536.249 -2.71656 -1.53654 0
M  V30 5810 N 536.55 0.480323 -1.50102 0
M  V30 5811 C 537.798 1.23063 -1.60312 0
M  V30 5812 C 538.119 1.92659 -0.301226 0
M  V30 5813 O 537.389 1.83691 0.680753 0
M  V30 5814 H 535.969 0.457231 -0.590719 0
M  V30 5815 H 538.631 0.554893 -1.86834 0
M  V30 5816 H 537.727 1.9835 -2.40964 0
M  V30 5817 N 538.028 1.39524 0.732853 0
M  V30 5818 C 538.976 1.38563 1.86824 0
M  V30 5819 C 539.97 0.268467 1.67259 0
M  V30 5820 O 541.176 0.438613 1.74574 0
M  V30 5821 H 537.551 0.432737 0.615014 0
M  V30 5822 H 539.522 2.34328 1.84751 0
M  V30 5823 C 538.271 1.2481 3.24527 0
M  V30 5824 H 537.594 2.10044 3.40179 0
M  V30 5825 H 539.034 1.28194 4.04156 0
M  V30 5826 C 537.493 -0.0432825 3.36872 0
M  V30 5827 O 538.023 -1.01268 3.88726 0
M  V30 5828 N 536.229 -0.107055 2.90403 0
M  V30 5829 H 535.776 0.682512 2.48394 0
M  V30 5830 H 535.734 -0.970618 2.99042 0
M  V30 5831 N 539.506 -0.963266 1.24736 0
M  V30 5832 C 540.469 -2.04013 1.04457 0
M  V30 5833 C 541.469 -1.608 0.000335555 0
M  V30 5834 O 542.659 -1.72515 0.241719 0
M  V30 5835 C 539.791 -3.35858 0.584162 0
M  V30 5836 H 540.984 -2.23436 2.00041 0
M  V30 5837 H 538.537 -1.13914 1.07021 0
M  V30 5838 H 539.272 -3.22128 -0.374673 0
M  V30 5839 H 539.057 -3.68568 1.3379 0
M  V30 5840 H 540.547 -4.1502 0.463451 0
M  V30 5841 N 540.985 -1.06182 -1.16461 0
M  V30 5842 C 542.232 -0.777863 -1.86964 0
M  V30 5843 C 542.56 0.695602 -1.81636 0
M  V30 5844 O 541.815 1.52532 -1.22607 0
M  V30 5845 C 542.114 -1.21633 -3.36066 0
M  V30 5846 C 541.78 -2.69371 -3.61594 0
M  V30 5847 C 540.442 -3.09727 -3.6827 0
M  V30 5848 C 542.794 -3.64791 -3.7226 0
M  V30 5849 C 540.122 -4.44345 -3.83112 0
M  V30 5850 C 542.474 -4.99155 -3.88623 0
M  V30 5851 C 541.138 -5.39149 -3.93541 0
M  V30 5852 H 540.408 -0.28464 -0.68415 0
M  V30 5853 H 543.055 -1.33071 -1.37711 0
M  V30 5854 H 541.36 -0.582651 -3.87443 0
M  V30 5855 H 543.057 -0.973682 -3.88999 0
M  V30 5856 H 539.647 -2.37124 -3.57029 0
M  V30 5857 H 543.831 -3.34746 -3.66413 0
M  V30 5858 H 539.087 -4.74819 -3.85172 0
M  V30 5859 H 543.261 -5.72976 -3.95817 0
M  V30 5860 H 540.888 -6.43464 -4.04794 0
M  V30 5861 N 542.463 1.3308 -0.844243 0
M  V30 5862 C 543.688 2.02341 -0.455282 0
M  V30 5863 C 544.113 1.6308 0.93737 0
M  V30 5864 O 543.471 0.826118 1.61385 0
M  V30 5865 C 543.519 3.55743 -0.58988 0
M  V30 5866 O 542.623 4.1063 0.38166 0
M  V30 5867 H 541.964 0.637898 -0.184343 0
M  V30 5868 H 544.494 1.6986 -1.14056 0
M  V30 5869 H 544.504 4.05243 -0.473522 0
M  V30 5870 H 543.179 3.83662 -1.60549 0
M  V30 5871 H 541.756 3.72236 0.22241 0
M  V30 5872 N 543.941 0.601185 1.45683 0
M  V30 5873 C 544.851 -0.123395 2.34275 0
M  V30 5874 C 545.867 -0.86702 1.5086 0
M  V30 5875 O 547.043 -0.826049 1.8368 0
M  V30 5876 C 544.108 -1.11237 3.2837 0
M  V30 5877 C 543.169 -0.371405 4.2769 0
M  V30 5878 C 542.402 -1.31327 5.1729 0
M  V30 5879 O 542.625 -2.55078 5.10188 0
M  V30 5880 O 541.559 -0.813811 5.96373 0
M  V30 5881 H 545.385 0.604483 2.97623 0
M  V30 5882 H 542.97 0.361477 1.44961 0
M  V30 5883 H 544.852 -1.68214 3.8637 0
M  V30 5884 H 543.527 -1.82139 2.67595 0
M  V30 5885 H 542.434 0.24067 3.73325 0
M  V30 5886 H 543.767 0.296998 4.91303 0
M  V30 5887 N 545.419 -1.53889 0.339982 0
M  V30 5888 C 546.665 -2.01152 -0.258003 0
M  V30 5889 C 546.998 -1.22749 -1.50487 0
M  V30 5890 O 546.273 -0.314156 -1.91946 0
M  V30 5891 C 546.556 -3.55468 -0.575717 0
M  V30 5892 C 546.409 -4.44584 0.682996 0
M  V30 5893 C 547.728 -4.1768 -1.38677 0
M  V30 5894 H 544.847 -0.731198 -0.0922992 0
M  V30 5895 H 547.489 -1.84352 0.459814 0
M  V30 5896 H 545.639 -3.69914 -1.18725 0
M  V30 5897 H 547.311 -4.41981 1.32102 0
M  V30 5898 H 545.554 -4.13592 1.3086 0
M  V30 5899 H 546.225 -5.5043 0.416001 0
M  V30 5900 H 548.701 -4.0691 -0.869705 0
M  V30 5901 H 547.577 -5.25734 -1.57783 0
M  V30 5902 H 547.838 -3.72069 -2.38782 0
M  V30 5903 N 546.897 -0.0685191 -1.57451 0
M  V30 5904 C 548.174 0.642167 -1.84758 0
M  V30 5905 C 548.554 1.87991 -0.960344 0
M  V30 5906 O 547.902 2.28485 -0.0257894 0
M  V30 5907 C 548.112 0.982946 -3.34872 0
M  V30 5908 C 549.46 1.35784 -4.02303 0
M  V30 5909 O 550.484 1.07477 -3.39598 0
M  V30 5910 O 549.343 1.88681 -5.12895 0
M  V30 5911 H 546.437 0.318625 -0.763156 0
M  V30 5912 H 548.983 -0.0992015 -1.6941 0
M  V30 5913 H 547.755 0.10372 -3.91163 0
M  V30 5914 H 547.378 1.78119 -3.55471 0
M  V30 5915 N 548.375 1.56261 0.205012 0
M  V30 5916 C 549.305 1.96779 1.257 0
M  V30 5917 C 550.286 0.838309 1.48008 0
M  V30 5918 O 551.471 1.10189 1.59913 0
M  V30 5919 C 548.601 2.29876 2.60335 0
M  V30 5920 C 547.555 3.45469 2.52656 0
M  V30 5921 C 546.881 3.64215 3.91473 0
M  V30 5922 C 548.181 4.79954 2.06014 0
M  V30 5923 H 549.875 2.84904 0.920338 0
M  V30 5924 H 547.421 1.37072 0.441277 0
M  V30 5925 H 549.374 2.56814 3.34102 0
M  V30 5926 H 548.098 1.38622 2.95722 0
M  V30 5927 H 546.757 3.18605 1.81345 0
M  V30 5928 H 546.405 2.70309 4.24196 0
M  V30 5929 H 546.105 4.41973 3.87213 0
M  V30 5930 H 547.629 3.93519 4.66878 0
M  V30 5931 H 549.043 5.05989 2.69533 0
M  V30 5932 H 547.44 5.61111 2.12777 0
M  V30 5933 H 548.51 4.74201 1.01297 0
M  V30 5934 N 549.853 -0.472356 1.50355 0
M  V30 5935 C 551.264 -1.05326 1.54154 0
M  V30 5936 C 551.615 -1.93155 0.344303 0
M  V30 5937 O 550.74 -2.09479 -0.542928 0
M  V30 5938 C 551.335 -1.91691 2.79356 0
M  V30 5939 C 549.894 -2.44892 2.8584 0
M  V30 5940 C 549.041 -1.23205 2.48426 0
M  V30 5941 H 551.992 -0.255027 1.56637 0
M  V30 5942 H 552.013 -2.76742 2.6114 0
M  V30 5943 H 551.525 -1.27741 3.66475 0
M  V30 5944 H 549.626 -3.12399 2.0307 0
M  V30 5945 H 549.739 -2.80086 3.88701 0
M  V30 5946 H 548.103 -1.56643 2.00836 0
M  V30 5947 H 548.886 -0.609194 3.37852 0
M  V30 5948 N 551.331 -1.39911 -0.725443 0
M  V30 5949 C 552.556 -1.41137 -1.5197 0
M  V30 5950 C 552.981 -0.010262 -1.88097 0
M  V30 5951 O 552.339 0.979184 -1.52583 0
M  V30 5952 C 552.387 -2.2994 -2.77777 0
M  V30 5953 O 551.491 -1.73586 -3.74088 0
M  V30 5954 H 550.832 -0.480219 -0.458569 0
M  V30 5955 H 553.362 -1.84023 -0.894249 0
M  V30 5956 H 553.372 -2.44785 -3.26411 0
M  V30 5957 H 552.047 -3.31759 -2.50816 0
M  V30 5958 H 550.624 -1.68035 -3.32894 0
M  V30 5959 N 552.809 0.956637 -1.25245 0
M  V30 5960 C 553.739 2.07058 -1.07931 0
M  V30 5961 C 554.72 1.70096 0.0110361 0
M  V30 5962 O 555.905 1.93555 -0.158121 0
M  V30 5963 C 553.035 3.40272 -0.695124 0
M  V30 5964 C 551.989 3.91235 -1.73549 0
M  V30 5965 C 551.315 5.20921 -1.20604 0
M  V30 5966 C 552.615 4.17837 -3.13385 0
M  V30 5967 H 554.309 2.218 -2.01109 0
M  V30 5968 H 551.855 1.06581 -0.968326 0
M  V30 5969 H 553.808 4.1765 -0.560949 0
M  V30 5970 H 552.532 3.25462 0.272355 0
M  V30 5971 H 551.191 3.16025 -1.85807 0
M  V30 5972 H 550.839 5.02479 -0.228846 0
M  V30 5973 H 550.539 5.55987 -1.90136 0
M  V30 5974 H 552.063 6.00897 -1.08421 0
M  V30 5975 H 553.477 4.8588 -3.04292 0
M  V30 5976 H 551.874 4.64154 -3.80369 0
M  V30 5977 H 552.944 3.2419 -3.60595 0
M  V30 5978 N 554.287 1.06798 1.15896 0
M  V30 5979 C 555.197 0.694564 2.24083 0
M  V30 5980 C 556.213 -0.291687 1.71538 0
M  V30 5981 O 557.389 -0.139723 2.00915 0
M  V30 5982 C 554.454 0.0921014 3.46578 0
M  V30 5983 C 553.515 1.13087 4.14137 0
M  V30 5984 C 552.748 0.557064 5.30785 0
M  V30 5985 O 552.971 -0.628623 5.66925 0
M  V30 5986 O 551.905 1.29924 5.8771 0
M  V30 5987 H 555.731 1.59663 2.58344 0
M  V30 5988 H 553.316 0.840575 1.2351 0
M  V30 5989 H 555.198 -0.241884 4.20705 0
M  V30 5990 H 553.873 -0.78337 3.14078 0
M  V30 5991 H 552.78 1.51712 3.41957 0
M  V30 5992 H 554.113 1.97805 4.50704 0
M  V30 5993 N 555.766 -1.3263 0.851289 0
M  V30 5994 C 557.013 -1.97368 0.453023 0
M  V30 5995 C 557.341 -1.67384 -0.990596 0
M  V30 5996 O 556.596 -0.952665 -1.70947 0
M  V30 5997 C 556.895 -3.51713 0.635015 0
M  V30 5998 C 556.561 -4.01676 2.04859 0
M  V30 5999 C 555.223 -4.15031 2.43522 0
M  V30 6000 C 557.575 -4.28206 2.97135 0
M  V30 6001 C 554.903 -4.52257 3.73739 0
M  V30 6002 C 557.255 -4.66889 4.26846 0
M  V30 6003 C 555.919 -4.7845 4.65448 0
M  V30 6004 H 555.189 -0.722219 0.165773 0
M  V30 6005 H 557.836 -1.58092 1.0807 0
M  V30 6006 H 556.141 -3.91726 -0.0759081 0
M  V30 6007 H 557.838 -3.99823 0.306964 0
M  V30 6008 H 554.428 -3.91764 1.73836 0
M  V30 6009 H 558.612 -4.174 2.68498 0
M  V30 6010 H 553.868 -4.59402 4.03435 0
M  V30 6011 H 558.042 -4.86372 4.98413 0
M  V30 6012 H 555.669 -5.07052 5.66395 0
M  V30 6013 N 557.244 -0.608902 -1.45362 0
M  V30 6014 C 558.174 0.0964526 -2.33301 0
M  V30 6015 C 559.155 0.857444 -1.46908 0
M  V30 6016 O 560.34 0.827735 -1.75676 0
M  V30 6017 C 557.47 1.09354 -3.29635 0
M  V30 6018 C 556.424 0.445676 -4.25673 0
M  V30 6019 C 555.75 1.5511 -5.11708 0
M  V30 6020 C 557.05 -0.633972 -5.18438 0
M  V30 6021 H 558.744 -0.637829 -2.92527 0
M  V30 6022 H 556.29 -0.308178 -1.40664 0
M  V30 6023 H 558.243 1.59556 -3.90025 0
M  V30 6024 H 556.967 1.85843 -2.6857 0
M  V30 6025 H 555.626 -0.0354897 -3.66583 0
M  V30 6026 H 555.274 2.30631 -4.4701 0
M  V30 6027 H 554.974 1.12311 -5.76767 0
M  V30 6028 H 556.498 2.05537 -5.74967 0
M  V30 6029 H 557.912 -0.215974 -5.72893 0
M  V30 6030 H 556.309 -0.983789 -5.91981 0
M  V30 6031 H 557.379 -1.51005 -4.60788 0
M  V30 6032 N 558.722 1.53707 -0.348139 0
M  V30 6033 C 559.999 1.93247 0.302475 0
M  V30 6034 C 560.379 1.28012 1.67857 0
M  V30 6035 O 559.727 0.43274 2.24365 0
M  V30 6036 C 559.937 3.47031 0.370159 0
M  V30 6037 C 561.285 4.20066 0.61882 0
M  V30 6038 O 562.309 3.53319 0.452087 0
M  V30 6039 O 561.168 5.38318 0.94215 0
M  V30 6040 H 558.262 0.807736 0.177458 0
M  V30 6041 H 560.808 1.64927 -0.399651 0
M  V30 6042 H 559.58 3.86745 -0.59534 0
M  V30 6043 H 559.203 3.81532 1.11888 0
M  V30 6044 N 560.2 0.0768682 1.57412 0
M  V30 6045 C 561.13 -0.886026 2.16037 0
M  V30 6046 C 562.111 -1.30691 1.08876 0
M  V30 6047 O 563.296 -1.37705 1.36934 0
M  V30 6048 C 560.426 -2.1518 2.72608 0
M  V30 6049 C 559.38 -1.87015 3.8498 0
M  V30 6050 C 558.706 -3.20266 4.28175 0
M  V30 6051 C 560.006 -1.17143 5.08994 0
M  V30 6052 H 561.7 -0.397642 2.96748 0
M  V30 6053 H 559.246 -0.189823 1.42743 0
M  V30 6054 H 561.199 -2.82962 3.12266 0
M  V30 6055 H 559.923 -2.66269 1.89125 0
M  V30 6056 H 558.582 -1.21636 3.45833 0
M  V30 6057 H 558.23 -3.69207 3.41607 0
M  V30 6058 H 557.93 -3.0221 5.03927 0
M  V30 6059 H 559.454 -3.89237 4.70454 0
M  V30 6060 H 560.868 -1.75003 5.45937 0
M  V30 6061 H 559.265 -1.09328 5.90057 0
M  V30 6062 H 560.335 -0.151295 4.84664 0
M  V30 6063 N 561.678 -1.56367 -0.196722 0
M  V30 6064 C 562.903 -1.84991 -0.937714 0
M  V30 6065 C 563.328 -0.660244 -1.76132 0
M  V30 6066 O 562.686 0.390967 -1.77034 0
M  V30 6067 C 562.734 -3.11828 -1.81096 0
M  V30 6068 O 561.838 -2.92266 -2.90955 0
M  V30 6069 H 561.179 -0.609193 -0.264159 0
M  V30 6070 H 563.709 -2.03595 -0.202529 0
M  V30 6071 H 563.719 -3.42579 -2.21594 0
M  V30 6072 H 562.394 -3.98037 -1.2058 0
M  V30 6073 H 560.971 -2.72809 -2.54224 0
M  V30 6074 N 563.156 0.464375 -1.50603 0
M  V30 6075 C 564.572 0.798684 -1.38178 0
M  V30 6076 C 564.772 1.96568 -0.44308 0
M  V30 6077 O 563.828 2.52252 0.111814 0
M  V30 6078 C 565.141 1.10444 -2.79683 0
M  V30 6079 C 566.689 1.2105 -2.88645 0
M  V30 6080 C 567.164 1.54934 -4.30998 0
M  V30 6081 N 568.655 1.61913 -4.3398 0
M  V30 6082 C 569.39 1.8965 -5.41129 0
M  V30 6083 N 568.886 2.15361 -6.58477 0
M  V30 6084 N 570.679 1.91207 -5.28579 0
M  V30 6085 H 562.83 -0.304603 -2.10204 0
M  V30 6086 H 565.093 -0.0737804 -0.945125 0
M  V30 6087 H 564.799 0.319934 -3.50242 0
M  V30 6088 H 564.673 2.03896 -3.17342 0
M  V30 6089 H 567.06 1.98567 -2.18301 0
M  V30 6090 H 567.141 0.255613 -2.5452 0
M  V30 6091 H 566.785 0.779549 -5.01882 0
M  V30 6092 H 566.715 2.51584 -4.62615 0
M  V30 6093 H 569.206 1.44055 -3.49366 0
M  V30 6094 H 569.519 2.35818 -7.35941 0
M  V30 6095 H 567.864 2.1274 -6.6164 0
M  V30 6096 H 571.055 1.70622 -4.35897 0
M  V30 6097 H 571.228 2.12488 -6.12171 0
M  V30 6098 N 564.634 1.40294 0.718013 0
M  V30 6099 C 565.582 1.40536 1.85344 0
M  V30 6100 C 566.576 0.286192 1.66965 0
M  V30 6101 O 567.782 0.457105 1.74099 0
M  V30 6102 H 564.157 0.439236 0.61039 0
M  V30 6103 H 566.128 2.36275 1.82255 0
M  V30 6104 C 564.877 1.28245 3.23185 0
M  V30 6105 H 564.2 2.1364 3.37932 0
M  V30 6106 H 565.64 1.32474 4.02774 0
M  V30 6107 C 564.099 -0.0075503 3.36899 0
M  V30 6108 O 564.629 -0.971391 3.89778 0
M  V30 6109 N 562.835 -0.0762479 2.905 0
M  V30 6110 H 562.382 0.708819 2.47656 0
M  V30 6111 H 562.34 -0.938846 3.00055 0
M  V30 6112 N 566.112 -0.949982 1.2575 0
M  V30 6113 C 567.36 -1.6918 1.10555 0
M  V30 6114 C 567.681 -1.91773 -0.353298 0
M  V30 6115 O 566.951 -1.50814 -1.25027 0
M  V30 6116 H 565.531 -0.626952 0.406129 0
M  V30 6117 H 568.193 -1.1419 1.57945 0
M  V30 6118 H 567.289 -2.66915 1.61749 0
M  V30 6119 N 567.59 -1.07411 -1.15328 0
M  V30 6120 C 568.52 -0.716472 -2.22236 0
M  V30 6121 C 569.501 0.296373 -1.67498 0
M  V30 6122 O 570.686 0.168989 -1.93463 0
M  V30 6123 C 567.816 -0.114142 -3.47112 0
M  V30 6124 C 566.77 -1.05421 -4.14814 0
M  V30 6125 C 566.096 -0.314604 -5.33774 0
M  V30 6126 C 567.396 -2.38808 -4.64508 0
M  V30 6127 H 569.09 -1.61029 -2.52408 0
M  V30 6128 H 566.636 -0.775702 -1.21321 0
M  V30 6129 H 568.589 0.148001 -4.2114 0
M  V30 6130 H 567.313 0.814755 -3.16274 0
M  V30 6131 H 565.972 -1.30128 -3.42728 0
M  V30 6132 H 565.62 0.617772 -4.99192 0
M  V30 6133 H 565.32 -0.941209 -5.80013 0
M  V30 6134 H 566.844 -0.0602747 -6.1057 0
M  V30 6135 H 568.258 -2.18424 -5.3006 0
M  V30 6136 H 566.655 -2.97069 -5.21412 0
M  V30 6137 H 567.725 -3.01067 -3.80114 0
M  V30 6138 N 569.068 1.32177 -0.85831 0
M  V30 6139 C 570.293 2.01847 -0.476718 0
M  V30 6140 C 570.718 1.64065 0.920021 0
M  V30 6141 O 570.076 0.843189 1.60499 0
M  V30 6142 C 570.124 3.55097 -0.627578 0
M  V30 6143 O 569.228 4.11012 0.338086 0
M  V30 6144 H 568.569 0.635907 -0.191099 0
M  V30 6145 H 571.099 1.68641 -1.15851 0
M  V30 6146 H 571.109 4.04718 -0.516476 0
M  V30 6147 H 569.784 3.81938 -1.64609 0
M  V30 6148 H 568.361 3.72451 0.182917 0
M  V30 6149 N 570.547 0.616602 1.45037 0
M  V30 6150 C 571.794 0.115331 2.02171 0
M  V30 6151 C 572.122 -1.25748 1.48383 0
M  V30 6152 O 571.377 -1.84511 0.652229 0
M  V30 6153 C 571.676 0.0356829 3.57382 0
M  V30 6154 C 571.342 1.34535 4.30362 0
M  V30 6155 C 570.004 1.70408 4.50016 0
M  V30 6156 C 572.356 2.21049 4.72003 0
M  V30 6157 C 569.684 2.92529 5.0857 0
M  V30 6158 C 572.036 3.42427 5.31908 0
M  V30 6159 C 570.7 3.78541 5.49784 0
M  V30 6160 H 569.97 0.0422024 0.739797 0
M  V30 6161 H 572.617 0.80002 1.73988 0
M  V30 6162 H 570.922 -0.732314 3.84895 0
M  V30 6163 H 572.619 -0.368463 3.99304 0
M  V30 6164 H 569.209 1.05615 4.15383 0
M  V30 6165 H 573.393 1.94632 4.56544 0
M  V30 6166 H 568.649 3.20605 5.20598 0
M  V30 6167 H 572.823 4.09709 5.63127 0
M  V30 6168 H 570.45 4.73255 5.94923 0
M  V30 6169 N 572.025 -1.5352 0.356285 0
M  V30 6170 C 572.972 -2.25439 -0.494569 0
M  V30 6171 C 573.942 -1.25752 -1.08516 0
M  V30 6172 O 575.127 -1.54513 -1.1194 0
M  V30 6173 C 572.267 -3.04011 -1.63313 0
M  V30 6174 C 571.38 -4.18574 -1.06862 0
M  V30 6175 C 570.515 -4.84607 -2.17552 0
M  V30 6176 C 569.554 -5.91218 -1.58518 0
M  V30 6177 N 568.691 -6.50979 -2.63003 0
M  V30 6178 H 573.531 -2.97737 0.125244 0
M  V30 6179 H 571.068 -1.46916 0.0735789 0
M  V30 6180 H 573.026 -3.47834 -2.30363 0
M  V30 6181 H 571.656 -2.33986 -2.22374 0
M  V30 6182 H 570.708 -3.79303 -0.288672 0
M  V30 6183 H 572.02 -4.95215 -0.596924 0
M  V30 6184 H 571.174 -5.31566 -2.92442 0
M  V30 6185 H 569.913 -4.07418 -2.6807 0
M  V30 6186 H 568.918 -5.4363 -0.821391 0
M  V30 6187 H 570.143 -6.70322 -1.08836 0
M  V30 6188 H 568.089 -5.76648 -3.12751 0
M  V30 6189 H 568.006 -7.23131 -2.20493 0
M  V30 6190 H 569.274 -7.02589 -3.37623 0
M  V30 6191 N 573.503 -0.0852151 -1.57369 0
M  V30 6192 C 574.751 0.579658 -1.93609 0
M  V30 6193 C 575.072 1.69332 -0.967043 0
M  V30 6194 O 574.342 1.95892 -0.0174215 0
M  V30 6195 H 572.922 0.217113 -0.714752 0
M  V30 6196 H 575.584 -0.146226 -1.94351 0
M  V30 6197 H 574.68 0.996276 -2.95771 0
M  V30 6198 N 574.981 1.5647 0.188427 0
M  V30 6199 C 576.221 1.82803 0.914469 0
M  V30 6200 C 576.585 0.663681 1.80165 0
M  V30 6201 O 577.786 0.807059 2.56398 0
M  V30 6202 C 576.057 3.14187 1.70357 0
M  V30 6203 S 577.616 3.61947 2.48072 0
M  V30 6204 H 574.434 0.641497 0.306599 0
M  V30 6205 H 577.036 1.94694 0.177361 0
M  V30 6206 H 575.74 3.96937 1.04255 0
M  V30 6207 H 575.271 3.05192 2.48237 0
M  V30 6208 H 577.286 3.27913 3.72407 0
M  V30 6209 N 576.459 -0.456382 1.50847 0
M  V30 6210 C 577.699 -1.21704 1.64218 0
M  V30 6211 C 578.063 -1.88932 0.341859 0
M  V30 6212 O 579.264 -2.66497 0.351137 0
M  V30 6213 C 577.535 -2.22162 2.79962 0
M  V30 6214 S 579.094 -3.0697 3.13552 0
M  V30 6215 H 575.912 -0.412995 0.578754 0
M  V30 6216 H 578.514 -0.511637 1.88686 0
M  V30 6217 H 577.218 -1.71379 3.72904 0
M  V30 6218 H 576.749 -2.9731 2.57624 0
M  V30 6219 H 578.764 -4.23539 2.58513 0
M  V30 6220 N 577.937 -1.40673 -0.710563 0
M  V30 6221 C 579.162 -1.42741 -1.50465 0
M  V30 6222 C 579.587 -0.0302116 -1.88076 0
M  V30 6223 O 578.945 0.962945 -1.53613 0
M  V30 6224 C 578.993 -2.32873 -2.75322 0
M  V30 6225 O 578.097 -1.77544 -3.72226 0
M  V30 6226 H 577.438 -0.485056 -0.45345 0
M  V30 6227 H 579.968 -1.84961 -0.874681 0
M  V30 6228 H 579.978 -2.48233 -3.23797 0
M  V30 6229 H 578.653 -3.34401 -2.47283 0
M  V30 6230 H 577.23 -1.71556 -3.31093 0
M  V30 6231 N 579.415 0.9433 -1.26252 0
M  V30 6232 C 580.347 2.04542 -1.03417 0
M  V30 6233 C 581.36 1.62799 0.0046911 0
M  V30 6234 O 582.549 1.76944 -0.235146 0
M  V30 6235 C 579.649 3.34511 -0.543671 0
M  V30 6236 C 578.822 4.05033 -1.65128 0
M  V30 6237 C 577.881 5.13273 -1.1592 0
M  V30 6238 O 576.907 5.38095 -1.85586 0
M  V30 6239 N 578.109 5.805 -0.00649279 0
M  V30 6240 H 580.874 2.24699 -1.98319 0
M  V30 6241 H 578.435 1.11264 -1.1761 0
M  V30 6242 H 580.427 4.04212 -0.198703 0
M  V30 6243 H 578.997 3.11042 0.311711 0
M  V30 6244 H 578.217 3.29275 -2.16729 0
M  V30 6245 H 579.505 4.48903 -2.39508 0
M  V30 6246 H 578.903 5.62767 0.575347 0
M  V30 6247 H 577.46 6.51201 0.279416 0
M  V30 6248 N 580.893 1.08022 1.14757 0
M  V30 6249 C 582.118 0.82895 1.90114 0
M  V30 6250 C 582.543 -0.612772 1.77839 0
M  V30 6251 O 581.901 -1.42895 1.11583 0
M  V30 6252 C 581.949 1.25062 3.38219 0
M  V30 6253 O 581.053 0.400119 4.10454 0
M  V30 6254 H 580.394 0.301412 0.591648 0
M  V30 6255 H 582.924 1.44062 1.45284 0
M  V30 6256 H 582.934 1.22977 3.89025 0
M  V30 6257 H 581.609 2.30067 3.46471 0
M  V30 6258 H 580.186 0.484052 3.69745 0
M  V30 6259 N 582.371 -1.3172 0.865308 0
M  V30 6260 C 583.648 -1.91574 0.394789 0
M  V30 6261 C 584.028 -1.78769 -1.12271 0
M  V30 6262 O 583.376 -1.19245 -1.94918 0
M  V30 6263 C 583.586 -3.37957 0.870982 0
M  V30 6264 C 584.934 -4.15073 0.894384 0
M  V30 6265 O 585.958 -3.4672 0.816325 0
M  V30 6266 O 584.817 -5.37151 1.00651 0
M  V30 6267 H 581.911 -0.818649 0.117229 0
M  V30 6268 H 584.457 -1.4042 0.952913 0
M  V30 6269 H 583.229 -3.41269 1.91444 0
M  V30 6270 H 582.852 -3.96534 0.290907 0
M  V30 6271 N 583.85 -0.624285 -1.44708 0
M  V30 6272 C 585.096 -0.126051 -2.02107 0
M  V30 6273 C 585.425 1.2496 -1.49048 0
M  V30 6274 O 584.68 1.84163 -0.662005 0
M  V30 6275 C 584.979 -0.0546353 -3.57358 0
M  V30 6276 C 584.644 -1.36815 -4.29642 0
M  V30 6277 C 583.307 -1.72792 -4.49106 0
M  V30 6278 C 585.659 -2.23549 -4.70824 0
M  V30 6279 C 582.986 -2.95222 -5.07012 0
M  V30 6280 C 585.339 -3.45243 -5.30085 0
M  V30 6281 C 584.003 -3.81452 -5.47769 0
M  V30 6282 H 583.273 -0.0461252 -0.739563 0
M  V30 6283 H 585.92 -0.809236 -1.73562 0
M  V30 6284 H 584.225 0.711891 -3.85278 0
M  V30 6285 H 585.922 0.347282 -3.99493 0
M  V30 6286 H 582.512 -1.07817 -4.14817 0
M  V30 6287 H 586.696 -1.9705 -4.55505 0
M  V30 6288 H 581.952 -3.23361 -5.18891 0
M  V30 6289 H 586.125 -4.12689 -5.60946 0
M  V30 6290 H 583.753 -4.76403 -5.92405 0
M  V30 6291 N 585.328 1.53329 -0.364422 0
M  V30 6292 C 586.576 2.00842 0.225189 0
M  V30 6293 C 586.897 1.25345 1.49378 0
M  V30 6294 O 586.167 0.366396 1.92443 0
M  V30 6295 H 584.747 0.742009 0.0862027 0
M  V30 6296 H 587.409 1.8863 -0.490389 0
M  V30 6297 H 586.505 3.08795 0.452987 0
M  V30 6298 N 586.806 0.0935595 1.57322 0
M  V30 6299 C 588.034 -0.578934 1.98635 0
M  V30 6300 C 588.449 -1.61819 0.972626 0
M  V30 6301 O 587.806 -1.82461 -0.0379638 0
M  V30 6302 C 587.857 -1.22802 3.40003 0
M  V30 6303 O 587.578 -0.230334 4.37494 0
M  V30 6304 C 589.079 -1.98627 3.96311 0
M  V30 6305 H 586.299 -0.155324 0.652775 0
M  V30 6306 H 588.843 0.172393 2.03772 0
M  V30 6307 H 586.998 -1.93029 3.35885 0
M  V30 6308 H 587.412 -0.698649 5.19826 0
M  V30 6309 H 588.886 -2.39405 4.97382 0
M  V30 6310 H 589.363 -2.85151 3.34044 0
M  V30 6311 H 589.969 -1.3322 4.03897 0
M  V30 6312 N 588.284 -1.56567 -0.180126 0
M  V30 6313 C 589.512 -1.85618 -0.913972 0
M  V30 6314 C 589.927 -0.677892 -1.7621 0
M  V30 6315 O 589.284 0.353171 -1.7905 0
M  V30 6316 C 589.335 -3.13619 -1.79793 0
M  V30 6317 O 589.056 -4.26906 -0.98402 0
M  V30 6318 C 590.557 -3.55954 -2.64219 0
M  V30 6319 H 587.777 -0.616043 -0.265954 0
M  V30 6320 H 590.321 -2.03681 -0.182872 0
M  V30 6321 H 588.476 -2.97409 -2.48247 0
M  V30 6322 H 588.89 -4.9989 -1.58776 0
M  V30 6323 H 590.364 -4.48444 -3.21873 0
M  V30 6324 H 590.841 -2.79653 -3.38661 0
M  V30 6325 H 591.447 -3.74746 -2.01111 0
M  V30 6326 N 589.762 0.448376 -1.51087 0
M  V30 6327 C 590.987 1.22605 -1.6728 0
M  V30 6328 C 591.412 1.84524 -0.365045 0
M  V30 6329 O 590.77 1.6832 0.673642 0
M  V30 6330 C 590.818 2.29393 -2.78229 0
M  V30 6331 O 589.922 3.34608 -2.41063 0
M  V30 6332 H 589.263 0.359705 -0.558129 0
M  V30 6333 H 591.793 0.530903 -1.97592 0
M  V30 6334 H 591.803 2.74352 -3.01986 0
M  V30 6335 H 590.478 1.83701 -3.73131 0
M  V30 6336 H 589.055 2.95202 -2.27838 0
M  V30 6337 N 591.24 1.41047 0.703093 0
M  V30 6338 C 592.17 1.45067 1.82969 0
M  V30 6339 C 593.151 0.31016 1.67248 0
M  V30 6340 O 594.336 0.520548 1.87093 0
M  V30 6341 C 591.466 1.32478 3.2104 0
M  V30 6342 C 590.42 2.44262 3.51454 0
M  V30 6343 C 589.746 2.16742 4.88801 0
M  V30 6344 C 591.046 3.86606 3.51189 0
M  V30 6345 H 592.74 2.39353 1.79863 0
M  V30 6346 H 590.286 1.15206 0.863919 0
M  V30 6347 H 592.239 1.33904 3.99559 0
M  V30 6348 H 590.963 0.346735 3.24754 0
M  V30 6349 H 589.622 2.42107 2.75282 0
M  V30 6350 H 589.27 1.17299 4.89132 0
M  V30 6351 H 588.97 2.91643 5.10116 0
M  V30 6352 H 590.494 2.19872 5.69639 0
M  V30 6353 H 591.908 3.90517 4.19725 0
M  V30 6354 H 590.305 4.61128 3.84033 0
M  V30 6355 H 591.375 4.15296 2.50315 0
M  V30 6356 N 592.718 -0.936591 1.26751 0
M  V30 6357 C 593.665 -2.03597 1.08706 0
M  V30 6358 C 594.635 -1.66097 -0.00926542 0
M  V30 6359 O 595.82 -1.90199 0.151377 0
M  V30 6360 C 592.96 -3.3727 0.73094 0
M  V30 6361 C 592.073 -3.87778 1.90399 0
M  V30 6362 C 591.208 -5.09859 1.49056 0
M  V30 6363 C 590.247 -5.5264 2.63164 0
M  V30 6364 N 589.384 -6.65921 2.22471 0
M  V30 6365 H 594.224 -2.18364 2.02784 0
M  V30 6366 H 591.761 -1.06985 1.00958 0
M  V30 6367 H 593.719 -4.14128 0.505328 0
M  V30 6368 H 592.349 -3.22337 -0.172868 0
M  V30 6369 H 591.401 -3.07279 2.2424 0
M  V30 6370 H 592.713 -4.15464 2.76028 0
M  V30 6371 H 591.867 -5.9419 1.22567 0
M  V30 6372 H 590.606 -4.8393 0.60524 0
M  V30 6373 H 589.611 -4.66863 2.90377 0
M  V30 6374 H 590.836 -5.80568 3.52303 0
M  V30 6375 H 588.782 -6.41667 1.36379 0
M  V30 6376 H 588.699 -6.93216 3.01641 0
M  V30 6377 H 589.967 -7.53616 1.99205 0
M  V30 6378 N 594.196 -1.08629 -1.14182 0
M  V30 6379 C 595.426 -0.837673 -1.88856 0
M  V30 6380 C 595.834 0.614024 -1.78959 0
M  V30 6381 O 595.177 1.43384 -1.14833 0
M  V30 6382 C 595.239 -1.18355 -3.39459 0
M  V30 6383 C 594.903 -2.63848 -3.73139 0
M  V30 6384 C 595.9 -3.62099 -3.73069 0
M  V30 6385 C 593.585 -2.99761 -4.03049 0
M  V30 6386 C 595.579 -4.94292 -4.02435 0
M  V30 6387 C 593.266 -4.32147 -4.32078 0
M  V30 6388 C 594.264 -5.29223 -4.31755 0
M  V30 6389 O 593.952 -6.59229 -4.60079 0
M  V30 6390 H 593.684 -0.301609 -0.604986 0
M  V30 6391 H 596.238 -1.44961 -1.45518 0
M  V30 6392 H 594.468 -0.514628 -3.8326 0
M  V30 6393 H 596.157 -0.915391 -3.95443 0
M  V30 6394 H 596.923 -3.35698 -3.50046 0
M  V30 6395 H 592.802 -2.2484 -4.02453 0
M  V30 6396 H 596.346 -5.70055 -4.02098 0
M  V30 6397 H 592.243 -4.58296 -4.54571 0
M  V30 6398 H 593.011 -6.64578 -4.77785 0
M  V30 6399 N 595.674 1.31259 -0.872281 0
M  V30 6400 C 596.604 2.30929 -0.345554 0
M  V30 6401 C 597.585 1.60449 0.5648 0
M  V30 6402 O 598.77 1.8814 0.481335 0
M  V30 6403 C 595.9 3.44348 0.451823 0
M  V30 6404 C 594.854 4.26435 -0.365641 0
M  V30 6405 C 594.18 5.31785 0.557562 0
M  V30 6406 C 595.48 4.97159 -1.60095 0
M  V30 6407 H 597.174 2.75234 -1.17841 0
M  V30 6408 H 594.72 1.3232 -0.568094 0
M  V30 6409 H 596.673 4.13128 0.830854 0
M  V30 6410 H 595.397 2.98816 1.31821 0
M  V30 6411 H 594.056 3.59326 -0.726649 0
M  V30 6412 H 593.704 4.82502 1.4213 0
M  V30 6413 H 593.404 5.87598 0.0144878 0
M  V30 6414 H 594.928 6.03424 0.933387 0
M  V30 6415 H 596.342 5.58523 -1.29323 0
M  V30 6416 H 594.739 5.62779 -2.08327 0
M  V30 6417 H 595.809 4.24012 -2.35249 0
M  V30 6418 N 597.152 0.631951 1.44375 0
M  V30 6419 C 598.429 0.067646 1.95483 0
M  V30 6420 C 598.809 -1.40683 1.57389 0
M  V30 6421 O 598.157 -2.12167 0.848375 0
M  V30 6422 C 598.367 0.291392 3.47781 0
M  V30 6423 C 599.715 0.185028 4.24197 0
M  V30 6424 O 600.739 0.222803 3.55503 0
M  V30 6425 O 599.598 0.0906642 5.46425 0
M  V30 6426 H 596.692 -0.0218379 0.826712 0
M  V30 6427 H 599.238 0.703711 1.54421 0
M  V30 6428 H 598.01 1.31449 3.68561 0
M  V30 6429 H 597.633 -0.378772 3.95792 0
M  V30 6430 N 598.631 -1.53133 0.372548 0
M  V30 6431 C 599.561 -2.28876 -0.462412 0
M  V30 6432 C 600.542 -1.31583 -1.07796 0
M  V30 6433 O 601.727 -1.60461 -1.09389 0
M  V30 6434 C 598.857 -3.08317 -1.59868 0
M  V30 6435 C 597.811 -4.13355 -1.11003 0
M  V30 6436 C 597.137 -4.8092 -2.33708 0
M  V30 6437 C 598.437 -5.21955 -0.18983 0
M  V30 6438 H 600.131 -2.9892 0.169511 0
M  V30 6439 H 597.677 -1.43761 0.0829658 0
M  V30 6440 H 599.63 -3.60055 -2.18949 0
M  V30 6441 H 598.354 -2.35976 -2.25794 0
M  V30 6442 H 597.013 -3.62573 -0.541869 0
M  V30 6443 H 596.661 -4.05144 -2.98106 0
M  V30 6444 H 596.361 -5.51904 -2.01682 0
M  V30 6445 H 597.885 -5.35455 -2.93462 0
M  V30 6446 H 599.299 -5.69153 -0.688319 0
M  V30 6447 H 597.696 -6.00087 0.0398887 0
M  V30 6448 H 598.766 -4.78811 0.766057 0
M  V30 6449 N 600.109 -0.101901 -1.5727 0
M  V30 6450 C 601.334 0.571759 -1.99363 0
M  V30 6451 C 601.759 1.60507 -0.980768 0
M  V30 6452 O 601.117 1.81231 0.0498517 0
M  V30 6453 C 601.165 1.18996 -3.404 0
M  V30 6454 O 600.269 2.30572 -3.41922 0
M  V30 6455 H 599.61 0.144449 -0.648098 0
M  V30 6456 H 602.14 -0.185325 -2.03759 0
M  V30 6457 H 602.15 1.52962 -3.78241 0
M  V30 6458 H 600.825 0.432984 -4.1364 0
M  V30 6459 H 599.402 1.98173 -3.15883 0
M  V30 6460 N 601.587 1.56661 0.17182 0
M  V30 6461 C 602.834 1.81965 0.888529 0
M  V30 6462 C 603.162 0.6789 1.82267 0
M  V30 6463 O 602.417 -0.333875 1.92831 0
M  V30 6464 C 602.716 3.13435 1.71736 0
M  V30 6465 C 602.382 4.41159 0.932184 0
M  V30 6466 C 601.044 4.75851 0.715481 0
M  V30 6467 C 603.396 5.19803 0.381387 0
M  V30 6468 C 600.724 5.86666 -0.063126 0
M  V30 6469 C 603.076 6.31433 -0.384129 0
M  V30 6470 C 601.74 6.64692 -0.611637 0
M  V30 6471 H 601.01 0.665859 0.325136 0
M  V30 6472 H 603.657 1.90884 0.153495 0
M  V30 6473 H 601.962 2.99857 2.52177 0
M  V30 6474 H 603.659 3.30224 2.27493 0
M  V30 6475 H 600.249 4.13947 1.11112 0
M  V30 6476 H 604.433 4.93396 0.536148 0
M  V30 6477 H 599.689 6.10892 -0.249136 0
M  V30 6478 H 603.863 6.91577 -0.818185 0
M  V30 6479 H 601.49 7.50398 -1.21684 0
M  V30 6480 N 603.065 -0.440357 1.51323 0
M  V30 6481 C 604.013 -1.55492 1.72988 0
M  V30 6482 C 605.007 -1.58564 0.596138 0
M  V30 6483 O 606.213 -1.62345 0.777443 0
M  V30 6484 H 602.588 -0.516532 0.546533 0
M  V30 6485 H 604.559 -1.34392 2.66423 0
M  V30 6486 C 603.308 -2.93176 1.86931 0
M  V30 6487 H 602.631 -2.91543 2.73574 0
M  V30 6488 H 604.071 -3.70537 2.06103 0
M  V30 6489 C 602.53 -3.30988 0.628365 0
M  V30 6490 O 603.06 -4.01106 -0.218367 0
M  V30 6491 N 601.266 -2.86719 0.473339 0
M  V30 6492 H 600.813 -2.2983 1.16345 0
M  V30 6493 H 600.771 -3.12381 -0.355727 0
M  V30 6494 N 604.543 -1.41418 -0.695603 0
M  V30 6495 C 605.791 -1.40496 -1.45277 0
M  V30 6496 C 606.112 -0.0149538 -1.94994 0
M  V30 6497 O 605.382 0.9432 -1.71699 0
M  V30 6498 H 603.962 -0.517147 -0.539044 0
M  V30 6499 H 606.624 -1.76656 -0.823321 0
M  V30 6500 H 605.72 -2.09214 -2.31595 0
M  V30 6501 N 606.021 0.929856 -1.27246 0
M  V30 6502 C 607.267 1.6798 -1.13625 0
M  V30 6503 C 607.6 1.91586 0.317589 0
M  V30 6504 O 606.875 1.50467 1.23247 0
M  V30 6505 C 607.158 3.04766 -1.91806 0
M  V30 6506 C 607.011 2.88415 -3.45162 0
M  V30 6507 C 608.33 4.05063 -1.72082 0
M  V30 6508 H 605.449 0.609632 -0.414147 0
M  V30 6509 H 608.091 1.0792 -1.56376 0
M  V30 6510 H 606.241 3.56034 -1.55474 0
M  V30 6511 H 607.913 2.44282 -3.91311 0
M  V30 6512 H 606.156 2.23802 -3.71611 0
M  V30 6513 H 606.827 3.85482 -3.95105 0
M  V30 6514 H 609.303 3.62798 -2.03757 0
M  V30 6515 H 608.179 4.98765 -2.29182 0
M  V30 6516 H 608.44 4.37021 -0.668206 0
M  V30 6517 N 607.499 1.09233 1.13605 0
M  V30 6518 C 608.748 0.82205 1.84188 0
M  V30 6519 C 609.061 -0.654548 1.84323 0
M  V30 6520 O 610.267 -1.04029 2.50779 0
M  V30 6521 C 608.723 1.42066 3.30674 0
M  V30 6522 C 608.331 2.92965 3.38933 0
M  V30 6523 C 610.075 1.22924 4.06313 0
M  V30 6524 C 607.982 3.45922 4.79679 0
M  V30 6525 H 606.912 0.303854 0.690064 0
M  V30 6526 H 609.563 1.31479 1.28006 0
M  V30 6527 H 607.945 0.855613 3.86646 0
M  V30 6528 H 609.119 3.55679 2.92966 0
M  V30 6529 H 607.434 3.11118 2.76757 0
M  V30 6530 H 610.031 1.59945 5.10217 0
M  V30 6531 H 610.374 0.169726 4.15954 0
M  V30 6532 H 610.907 1.76168 3.56665 0
M  V30 6533 H 607.646 4.51484 4.75229 0
M  V30 6534 H 607.166 2.87971 5.26149 0
M  V30 6535 H 608.845 3.43009 5.48592 0
M  V30 6536 N 608.977 -1.30795 0.87923 0
M  V30 6537 C 610.205 -2.00527 0.509548 0
M  V30 6538 C 610.62 -1.65944 -0.90045 0
M  V30 6539 O 609.977 -0.893525 -1.5913 0
M  V30 6540 C 610.028 -3.55276 0.667943 0
M  V30 6541 O 609.749 -3.88625 2.02242 0
M  V30 6542 C 611.25 -4.4228 0.300494 0
M  V30 6543 H 608.47 -0.641261 0.197549 0
M  V30 6544 H 611.014 -1.66813 1.18295 0
M  V30 6545 H 609.169 -3.87377 0.0419843 0
M  V30 6546 H 609.583 -4.83334 2.03688 0
M  V30 6547 H 611.057 -5.50061 0.462242 0
M  V30 6548 H 611.534 -4.32556 -0.76106 0
M  V30 6549 H 612.14 -4.15613 0.902536 0
M  V30 6550 N 610.455 -0.639598 -1.44038 0
M  V30 6551 C 611.388 0.109736 -2.27936 0
M  V30 6552 C 612.366 0.843095 -1.39035 0
M  V30 6553 O 613.55 0.845456 -1.68476 0
M  V30 6554 C 610.677 1.16173 -3.18153 0
M  V30 6555 C 609.723 0.527954 -4.2322 0
M  V30 6556 S 610.556 -0.688318 -5.31058 0
M  V30 6557 C 611.712 0.363481 -6.24844 0
M  V30 6558 H 611.945 -0.601986 -2.91142 0
M  V30 6559 H 609.478 -0.42802 -1.48349 0
M  V30 6560 H 611.436 1.76372 -3.7068 0
M  V30 6561 H 610.097 1.84569 -2.54151 0
M  V30 6562 H 609.29 1.32054 -4.86393 0
M  V30 6563 H 608.892 0.000396444 -3.74 0
M  V30 6564 H 611.184 1.23362 -6.66174 0
M  V30 6565 H 612.127 -0.23288 -7.07717 0
M  V30 6566 H 612.535 0.693179 -5.60228 0
M  V30 6567 N 611.933 1.52934 -0.380664 0
M  V30 6568 C 613.158 2.06363 0.207157 0
M  V30 6569 C 613.583 1.25122 1.4045 0
M  V30 6570 O 612.941 0.274062 1.79217 0
M  V30 6571 C 612.989 3.56162 0.563996 0
M  V30 6572 O 612.093 3.77552 1.65917 0
M  V30 6573 H 611.434 0.663468 0.0265859 0
M  V30 6574 H 613.964 1.9719 -0.545635 0
M  V30 6575 H 613.974 3.99453 0.830752 0
M  V30 6576 H 612.649 4.14732 -0.311427 0
M  V30 6577 H 611.226 3.46154 1.3868 0
M  V30 6578 N 613.412 0.11024 1.57214 0
M  V30 6579 C 614.637 -0.561179 1.99664 0
M  V30 6580 C 615.062 -1.59985 0.989266 0
M  V30 6581 O 614.42 -1.81255 -0.0402399 0
M  V30 6582 C 614.468 -1.17189 3.41027 0
M  V30 6583 O 613.572 -2.28755 3.4314 0
M  V30 6584 H 612.913 -0.14101 0.648855 0
M  V30 6585 H 615.443 0.196128 2.03658 0
M  V30 6586 H 615.453 -1.50954 3.79047 0
M  V30 6587 H 614.128 -0.411041 4.13864 0
M  V30 6588 H 612.705 -1.96495 3.16929 0
M  V30 6589 N 614.89 -1.56749 -0.16351 0
M  V30 6590 C 615.838 -1.97939 -1.22159 0
M  V30 6591 C 616.832 -0.869288 -1.45395 0
M  V30 6592 O 618.038 -1.05443 -1.45883 0
M  V30 6593 H 614.413 -0.629869 -0.410815 0
M  V30 6594 H 616.384 -2.86115 -0.847381 0
M  V30 6595 C 615.133 -2.36206 -2.55151 0
M  V30 6596 H 614.456 -3.2117 -2.38097 0
M  V30 6597 H 615.896 -2.68863 -3.27854 0
M  V30 6598 C 614.355 -1.20841 -3.14482 0
M  V30 6599 O 614.885 -0.500258 -3.98573 0
M  V30 6600 N 613.091 -0.976943 -2.73686 0
M  V30 6601 H 612.638 -1.55457 -2.05404 0
M  V30 6602 H 612.596 -0.206912 -3.13718 0
M  V30 6603 N 616.368 0.432326 -1.51554 0
M  V30 6604 C 617.615 1.18134 -1.64471 0
M  V30 6605 C 617.943 1.91076 -0.363349 0
M  V30 6606 O 617.198 1.84492 0.65279 0
M  V30 6607 C 617.497 2.21907 -2.80164 0
M  V30 6608 C 617.163 1.65941 -4.19255 0
M  V30 6609 C 615.825 1.50401 -4.57092 0
M  V30 6610 C 618.177 1.24843 -5.06027 0
M  V30 6611 C 615.505 0.922443 -5.79403 0
M  V30 6612 C 617.857 0.68113 -6.28922 0
M  V30 6613 C 616.521 0.512673 -6.65528 0
M  V30 6614 H 615.791 0.432283 -0.601841 0
M  V30 6615 H 618.438 0.471701 -1.856 0
M  V30 6616 H 616.743 2.98928 -2.53277 0
M  V30 6617 H 618.44 2.79691 -2.87357 0
M  V30 6618 H 615.03 1.79014 -3.89425 0
M  V30 6619 H 619.214 1.35667 -4.77397 0
M  V30 6620 H 614.47 0.779733 -6.06408 0
M  V30 6621 H 618.644 0.35418 -6.95499 0
M  V30 6622 H 616.271 0.0599084 -7.60176 0
M  V30 6623 N 617.846 1.41785 0.688094 0
M  V30 6624 C 618.776 1.47 1.8142 0
M  V30 6625 C 619.757 0.327881 1.6691 0
M  V30 6626 O 620.942 0.540362 1.86531 0
M  V30 6627 C 618.072 1.35876 3.19617 0
M  V30 6628 C 617.026 2.47976 3.48844 0
M  V30 6629 C 616.352 2.21915 4.86475 0
M  V30 6630 C 617.652 3.90309 3.47068 0
M  V30 6631 H 619.346 2.41247 1.77314 0
M  V30 6632 H 616.892 1.16116 0.851651 0
M  V30 6633 H 618.845 1.38134 3.98117 0
M  V30 6634 H 617.569 0.38116 3.24368 0
M  V30 6635 H 616.228 2.45013 2.72698 0
M  V30 6636 H 615.876 1.2248 4.8786 0
M  V30 6637 H 615.576 2.97037 5.06994 0
M  V30 6638 H 617.1 2.25901 5.67275 0
M  V30 6639 H 618.514 3.94947 4.1556 0
M  V30 6640 H 616.911 4.65175 3.7912 0
M  V30 6641 H 617.981 4.17927 2.45896 0
M  V30 6642 N 619.324 -0.923095 1.27737 0
M  V30 6643 C 620.572 -1.66797 1.14119 0
M  V30 6644 C 620.893 -1.92479 -0.312541 0
M  V30 6645 O 620.163 -1.53432 -1.218 0
M  V30 6646 H 618.743 -0.618196 0.419336 0
M  V30 6647 H 621.405 -1.10815 1.60331 0
M  V30 6648 H 620.501 -2.63424 1.67374 0
M  V30 6649 N 620.802 -1.09834 -1.13024 0
M  V30 6650 C 621.732 -0.763451 -2.20666 0
M  V30 6651 C 622.713 0.260778 -1.68089 0
M  V30 6652 O 623.898 0.127915 -1.93778 0
M  V30 6653 C 621.028 -0.187744 -3.46792 0
M  V30 6654 C 619.982 -1.14196 -4.12484 0
M  V30 6655 C 619.308 -0.427755 -5.32986 0
M  V30 6656 C 620.608 -2.48607 -4.59338 0
M  V30 6657 H 622.302 -1.66347 -2.48936 0
M  V30 6658 H 619.848 -0.801261 -1.19649 0
M  V30 6659 H 621.801 0.0586375 -4.21359 0
M  V30 6660 H 620.525 0.747485 -3.17931 0
M  V30 6661 H 619.184 -1.37369 -3.3989 0
M  V30 6662 H 618.832 0.511747 -5.0039 0
M  V30 6663 H 618.532 -1.06403 -5.77886 0
M  V30 6664 H 620.056 -0.189772 -6.10305 0
M  V30 6665 H 621.47 -2.29618 -5.25308 0
M  V30 6666 H 619.867 -3.08062 -5.14993 0
M  V30 6667 H 620.937 -3.09062 -3.73642 0
M  V30 6668 N 622.28 1.30327 -0.886154 0
M  V30 6669 C 623.19 2.31854 -0.357866 0
M  V30 6670 C 624.206 1.65392 0.540502 0
M  V30 6671 O 625.382 1.96683 0.433339 0
M  V30 6672 C 622.447 3.44171 0.417999 0
M  V30 6673 C 621.508 4.26257 -0.510263 0
M  V30 6674 C 620.741 5.3321 0.228669 0
M  V30 6675 O 620.964 5.51542 1.45458 0
M  V30 6676 O 619.898 6.0042 -0.421832 0
M  V30 6677 H 623.724 2.78995 -1.19982 0
M  V30 6678 H 621.309 1.34518 -0.650028 0
M  V30 6679 H 623.191 4.12588 0.857251 0
M  V30 6680 H 621.866 2.99164 1.23623 0
M  V30 6681 H 620.773 3.60533 -0.99835 0
M  V30 6682 H 622.106 4.74871 -1.29454 0
M  V30 6683 N 623.758 0.647228 1.43697 0
M  V30 6684 C 624.69 -0.0866232 2.29036 0
M  V30 6685 C 625.703 -0.793051 1.42178 0
M  V30 6686 O 626.892 -0.651807 1.66174 0
M  V30 6687 C 623.992 -1.14552 3.18953 0
M  V30 6688 C 623.165 -0.518422 4.34317 0
M  V30 6689 C 622.224 -1.4734 5.05151 0
M  V30 6690 O 621.25 -0.984312 5.60625 0
M  V30 6691 N 622.452 -2.8075 5.08094 0
M  V30 6692 H 625.217 0.645834 2.92659 0
M  V30 6693 H 622.778 0.489567 1.54321 0
M  V30 6694 H 624.77 -1.78505 3.63205 0
M  V30 6695 H 623.34 -1.78001 2.56971 0
M  V30 6696 H 622.56 0.300079 3.93056 0
M  V30 6697 H 623.848 -0.080401 5.08736 0
M  V30 6698 H 623.246 -3.23052 4.64386 0
M  V30 6699 H 621.803 -3.40022 5.56083 0
M  V30 6700 N 625.236 -1.5273 0.388769 0
M  V30 6701 C 626.166 -2.29353 -0.438111 0
M  V30 6702 C 627.147 -1.32719 -1.06394 0
M  V30 6703 O 628.332 -1.61612 -1.07681 0
M  V30 6704 C 625.462 -3.09995 -1.56589 0
M  V30 6705 C 624.416 -4.14509 -1.06613 0
M  V30 6706 C 623.742 -4.83372 -2.28594 0
M  V30 6707 C 625.042 -5.22127 -0.134459 0
M  V30 6708 H 626.736 -2.98723 0.201206 0
M  V30 6709 H 624.282 -1.43665 0.0982089 0
M  V30 6710 H 626.235 -3.62357 -2.15118 0
M  V30 6711 H 624.959 -2.38357 -2.23279 0
M  V30 6712 H 623.618 -3.63128 -0.503383 0
M  V30 6713 H 623.266 -4.08283 -2.93792 0
M  V30 6714 H 622.966 -5.54012 -1.95817 0
M  V30 6715 H 624.49 -5.38538 -2.87766 0
M  V30 6716 H 625.904 -5.69851 -0.627914 0
M  V30 6717 H 624.301 -6.00011 0.103534 0
M  V30 6718 H 625.371 -4.77971 0.816798 0
M  V30 6719 N 626.714 -0.118576 -1.57153 0
M  V30 6720 C 627.624 0.845484 -2.18835 0
M  V30 6721 C 628.64 1.29299 -1.16438 0
M  V30 6722 O 629.816 1.35607 -1.48905 0
M  V30 6723 C 626.881 2.07795 -2.77529 0
M  V30 6724 C 625.942 1.6824 -3.9496 0
M  V30 6725 C 625.175 2.85612 -4.50845 0
M  V30 6726 O 625.398 4.01025 -4.05629 0
M  V30 6727 O 624.332 2.62721 -5.41536 0
M  V30 6728 H 628.158 0.350568 -3.0167 0
M  V30 6729 H 625.743 0.107013 -1.49016 0
M  V30 6730 H 627.625 2.79978 -3.14945 0
M  V30 6731 H 626.3 2.56294 -1.97725 0
M  V30 6732 H 625.207 0.931663 -3.62313 0
M  V30 6733 H 626.54 1.24484 -4.76198 0
M  V30 6734 N 628.193 1.56834 0.155195 0
M  V30 6735 C 629.143 1.94061 1.19684 0
M  V30 6736 C 630.127 0.810851 1.38975 0
M  V30 6737 O 631.319 1.07422 1.40675 0
M  V30 6738 C 628.448 2.31778 2.53247 0
M  V30 6739 C 627.534 3.51305 2.37583 0
M  V30 6740 N 627.925 4.68081 1.9166 0
M  V30 6741 C 626.223 3.56228 2.6836 0
M  V30 6742 C 626.924 5.50193 1.88845 0
M  V30 6743 N 625.9 4.91676 2.31852 0
M  V30 6744 H 629.702 2.81826 0.833747 0
M  V30 6745 H 627.216 1.58284 0.363328 0
M  V30 6746 H 629.213 2.56649 3.28538 0
M  V30 6747 H 627.873 1.4536 2.90346 0
M  V30 6748 H 628.884 4.91993 1.6175 0
M  V30 6749 H 625.561 2.8033 3.09389 0
M  V30 6750 H 626.951 6.53801 1.54901 0
M  V30 6751 N 629.671 -0.424282 1.51781 0
M  V30 6752 C 630.601 -1.52305 1.7699 0
M  V30 6753 C 631.582 -1.5839 0.620209 0
M  V30 6754 O 632.767 -1.73908 0.864268 0
M  V30 6755 C 629.897 -2.90271 1.90683 0
M  V30 6756 C 628.851 -2.99043 3.06198 0
M  V30 6757 C 628.177 -4.39116 3.05092 0
M  V30 6758 C 629.477 -2.7192 4.45934 0
M  V30 6759 H 631.171 -1.31461 2.68995 0
M  V30 6760 H 628.717 -0.630985 1.29439 0
M  V30 6761 H 630.67 -3.6711 2.06901 0
M  V30 6762 H 629.394 -3.12376 0.953365 0
M  V30 6763 H 628.053 -2.24646 2.89706 0
M  V30 6764 H 627.701 -4.58207 2.07498 0
M  V30 6765 H 627.401 -4.45912 3.82669 0
M  V30 6766 H 628.925 -5.17911 3.2342 0
M  V30 6767 H 630.339 -3.38487 4.62709 0
M  V30 6768 H 628.736 -2.90111 5.25315 0
M  V30 6769 H 629.806 -1.67445 4.55072 0
M  V30 6770 N 631.149 -1.42148 -0.680565 0
M  V30 6771 C 632.426 -1.32795 -1.43614 0
M  V30 6772 C 632.806 0.037415 -2.11067 0
M  V30 6773 O 632.154 1.05258 -2.02813 0
M  V30 6774 C 632.364 -2.49206 -2.44331 0
M  V30 6775 C 633.712 -2.91059 -3.09144 0
M  V30 6776 O 634.736 -2.49054 -2.54657 0
M  V30 6777 O 633.595 -3.63741 -4.07866 0
M  V30 6778 H 630.689 -0.523397 -0.640301 0
M  V30 6779 H 633.235 -1.54144 -0.709775 0
M  V30 6780 H 632.007 -3.40252 -1.93247 0
M  V30 6781 H 631.63 -2.29813 -3.24456 0
M  V30 6782 N 632.627 0.916307 -1.28225 0
M  V30 6783 C 633.874 1.66518 -1.1523 0
M  V30 6784 C 634.202 1.92178 0.299632 0
M  V30 6785 O 633.457 1.51842 1.2346 0
M  V30 6786 C 633.756 3.03125 -1.8934 0
M  V30 6787 C 633.422 2.97135 -3.39148 0
M  V30 6788 C 632.084 2.95208 -3.80007 0
M  V30 6789 C 634.436 2.87574 -4.34685 0
M  V30 6790 C 631.764 2.81518 -5.14747 0
M  V30 6791 C 634.116 2.75424 -5.69495 0
M  V30 6792 C 632.78 2.71854 -6.09632 0
M  V30 6793 H 632.05 0.609334 -0.421655 0
M  V30 6794 H 634.697 1.06776 -1.58969 0
M  V30 6795 H 633.002 3.66639 -1.38143 0
M  V30 6796 H 634.699 3.59968 -1.76704 0
M  V30 6797 H 631.289 2.99428 -3.06661 0
M  V30 6798 H 635.473 2.88152 -4.04082 0
M  V30 6799 H 630.729 2.77148 -5.44976 0
M  V30 6800 H 634.903 2.66993 -6.43185 0
M  V30 6801 H 632.53 2.61003 -7.1399 0
M  V30 6802 N 634.105 1.10431 1.1244 0
M  V30 6803 C 635.037 0.710945 2.17895 0
M  V30 6804 C 636.05 -0.252315 1.60833 0
M  V30 6805 O 637.239 -0.03679 1.78462 0
M  V30 6806 C 634.339 0.0284262 3.38888 0
M  V30 6807 C 633.512 1.01585 4.2544 0
M  V30 6808 C 632.571 0.364826 5.24934 0
M  V30 6809 O 631.597 1.01561 5.60066 0
M  V30 6810 N 632.799 -0.87674 5.73841 0
M  V30 6811 H 635.564 1.61826 2.52255 0
M  V30 6812 H 633.125 0.993132 1.27861 0
M  V30 6813 H 635.117 -0.418568 4.0253 0
M  V30 6814 H 633.687 -0.781294 3.02679 0
M  V30 6815 H 632.907 1.64111 3.58415 0
M  V30 6816 H 634.195 1.68425 4.80115 0
M  V30 6817 H 633.593 -1.42483 5.47462 0
M  V30 6818 H 632.15 -1.26688 6.39369 0
M  V30 6819 N 635.583 -1.29855 0.893053 0
M  V30 6820 C 636.533 -2.25493 0.337211 0
M  V30 6821 C 637.517 -1.51606 -0.53894 0
M  V30 6822 O 638.709 -1.72828 -0.382043 0
M  V30 6823 C 635.838 -3.40467 -0.440117 0
M  V30 6824 C 634.924 -4.217 0.450578 0
M  V30 6825 N 635.315 -4.81312 1.55476 0
M  V30 6826 C 633.613 -4.45315 0.247154 0
M  V30 6827 C 634.314 -5.42241 2.10593 0
M  V30 6828 N 633.29 -5.25267 1.39982 0
M  V30 6829 H 637.092 -2.69137 1.18079 0
M  V30 6830 H 634.606 -1.44388 0.743359 0
M  V30 6831 H 636.603 -4.08038 -0.855021 0
M  V30 6832 H 635.263 -2.98361 -1.28104 0
M  V30 6833 H 636.274 -4.80291 1.93755 0
M  V30 6834 H 632.951 -4.13782 -0.555939 0
M  V30 6835 H 634.341 -5.99517 3.03362 0
M  V30 6836 N 637.061 -0.65484 -1.43351 0
M  V30 6837 C 638.286 -0.175046 -2.0666 0
M  V30 6838 C 638.711 1.15104 -1.4877 0
M  V30 6839 O 638.069 1.71144 -0.598279 0
M  V30 6840 C 638.117 -0.0991544 -3.60464 0
M  V30 6841 O 637.221 0.938169 -4.01587 0
M  V30 6842 H 636.562 -0.0956148 -0.65708 0
M  V30 6843 H 639.092 -0.898222 -1.83829 0
M  V30 6844 H 639.102 0.083632 -4.07914 0
M  V30 6845 H 637.777 -1.06719 -4.01975 0
M  V30 6846 H 636.354 0.72804 -3.65724 0
M  V30 6847 N 638.539 1.52521 -0.396863 0
M  V30 6848 C 639.487 2.28217 0.44943 0
M  V30 6849 C 640.481 1.32416 1.05652 0
M  V30 6850 O 641.687 1.49925 0.996124 0
M  V30 6851 H 638.062 0.733966 0.1637 0
M  V30 6852 H 640.033 2.97658 -0.210367 0
M  V30 6853 C 638.782 3.10713 1.56054 0
M  V30 6854 H 638.105 3.84291 1.10273 0
M  V30 6855 H 639.545 3.66803 2.12677 0
M  V30 6856 C 638.004 2.23499 2.52091 0
M  V30 6857 O 638.534 1.8669 3.55682 0
M  V30 6858 N 636.74 1.8751 2.2201 0
M  V30 6859 H 636.287 2.17643 1.37802 0
M  V30 6860 H 636.245 1.29448 2.86514 0
M  V30 6861 N 640.017 0.126909 1.57088 0
M  V30 6862 C 640.947 -0.816847 2.18746 0
M  V30 6863 C 641.928 -1.27161 1.12979 0
M  V30 6864 O 643.113 -1.33279 1.41246 0
M  V30 6865 C 640.243 -2.06398 2.79315 0
M  V30 6866 C 639.197 -1.74673 3.90735 0
M  V30 6867 C 638.523 -3.06482 4.38147 0
M  V30 6868 C 639.823 -1.0089 5.12463 0
M  V30 6869 H 641.517 -0.303032 2.97863 0
M  V30 6870 H 639.063 -0.144314 1.43275 0
M  V30 6871 H 641.016 -2.72885 3.2111 0
M  V30 6872 H 639.74 -2.60118 1.975 0
M  V30 6873 H 638.399 -1.10572 3.49527 0
M  V30 6874 H 638.047 -3.58152 3.5318 0
M  V30 6875 H 637.747 -2.86025 5.13287 0
M  V30 6876 H 639.271 -3.74073 4.82599 0
M  V30 6877 H 640.685 -1.57546 5.51228 0
M  V30 6878 H 639.082 -0.905006 5.93237 0
M  V30 6879 H 640.152 0.00297335 4.849 0
M  V30 6880 N 641.495 -1.56914 -0.146875 0
M  V30 6881 C 642.442 -1.98275 -1.18134 0
M  V30 6882 C 643.412 -0.850367 -1.42681 0
M  V30 6883 O 644.597 -1.11244 -1.55014 0
M  V30 6884 C 641.737 -2.36861 -2.5098 0
M  V30 6885 C 640.85 -3.63391 -2.33605 0
M  V30 6886 C 639.985 -3.91079 -3.59486 0
M  V30 6887 C 639.024 -5.10879 -3.37149 0
M  V30 6888 N 638.161 -5.34577 -4.55161 0
M  V30 6889 H 643.001 -2.8645 -0.821622 0
M  V30 6890 H 640.538 -1.41718 -0.394248 0
M  V30 6891 H 642.496 -2.57262 -3.28439 0
M  V30 6892 H 641.126 -1.51766 -2.84898 0
M  V30 6893 H 640.178 -3.50766 -1.47199 0
M  V30 6894 H 641.49 -4.51007 -2.13059 0
M  V30 6895 H 640.644 -4.11979 -4.45374 0
M  V30 6896 H 639.383 -3.01885 -3.83036 0
M  V30 6897 H 638.388 -4.89853 -2.49649 0
M  V30 6898 H 639.613 -6.01626 -3.14997 0
M  V30 6899 H 637.559 -4.48337 -4.78884 0
M  V30 6900 H 637.476 -6.16463 -4.37618 0
M  V30 6901 H 638.744 -5.59975 -5.42263 0
M  V30 6902 N 642.974 0.416227 -1.52004 0
M  V30 6903 C 643.906 1.52552 -1.71058 0
M  V30 6904 C 644.919 1.51693 -0.59102 0
M  V30 6905 O 646.108 1.56087 -0.865973 0
M  V30 6906 C 643.208 2.91455 -1.72937 0
M  V30 6907 C 642.381 3.16584 -3.01816 0
M  V30 6908 C 641.44 4.35322 -2.95603 0
M  V30 6909 O 640.466 4.32947 -3.6952 0
M  V30 6910 N 641.668 5.40049 -2.12903 0
M  V30 6911 H 644.433 1.36604 -2.66757 0
M  V30 6912 H 641.994 0.60544 -1.50153 0
M  V30 6913 H 643.986 3.68944 -1.66321 0
M  V30 6914 H 642.556 3.00895 -0.847418 0
M  V30 6915 H 641.776 2.27203 -3.22137 0
M  V30 6916 H 643.064 3.30213 -3.87088 0
M  V30 6917 H 642.462 5.44823 -1.52265 0
M  V30 6918 H 641.019 6.16308 -2.1215 0
M  V30 6919 N 644.452 1.42507 0.673017 0
M  V30 6920 C 645.385 1.40557 1.79774 0
M  V30 6921 C 646.363 0.269606 1.60349 0
M  V30 6922 O 647.547 0.460105 1.82798 0
M  V30 6923 C 644.674 1.19815 3.168 0
M  V30 6924 C 643.72 2.36429 3.5497 0
M  V30 6925 S 644.553 3.98963 3.57196 0
M  V30 6926 C 645.709 3.80567 4.9691 0
M  V30 6927 H 645.942 2.35734 1.81154 0
M  V30 6928 H 643.475 1.293 0.843846 0
M  V30 6929 H 645.433 1.08535 3.95892 0
M  V30 6930 H 644.094 0.262215 3.13004 0
M  V30 6931 H 643.287 2.17669 4.54573 0
M  V30 6932 H 642.889 2.44233 2.83242 0
M  V30 6933 H 645.181 3.41668 5.85038 0
M  V30 6934 H 646.124 4.79852 5.20718 0
M  V30 6935 H 646.532 3.13399 4.69512 0
M  V30 6936 N 645.93 -0.909495 1.28709 0
M  V30 6937 C 647.155 -1.69801 1.1909 0
M  V30 6938 C 647.58 -1.86479 -0.246388 0
M  V30 6939 O 646.938 -1.37802 -1.17815 0
M  V30 6940 C 646.986 -3.06543 1.89904 0
M  V30 6941 O 646.09 -3.94268 1.2094 0
M  V30 6942 H 645.431 -0.519783 0.413185 0
M  V30 6943 H 647.961 -1.13689 1.70106 0
M  V30 6944 H 647.971 -3.56748 1.97977 0
M  V30 6945 H 646.646 -2.93722 2.94449 0
M  V30 6946 H 645.223 -3.52702 1.2106 0
M  V30 6947 N 647.408 -1.11026 -1.11852 0
M  V30 6948 C 648.318 -0.777252 -2.2135 0
M  V30 6949 C 649.334 0.227821 -1.72502 0
M  V30 6950 O 650.51 0.0650587 -2.01295 0
M  V30 6951 C 647.575 -0.220668 -3.45997 0
M  V30 6952 C 646.636 -1.2838 -4.09655 0
M  V30 6953 C 645.869 -0.753678 -5.28352 0
M  V30 6954 O 646.092 0.417779 -5.68868 0
M  V30 6955 O 645.026 -1.51647 -5.82483 0
M  V30 6956 H 648.852 -1.69141 -2.5224 0
M  V30 6957 H 646.437 -0.885836 -1.20305 0
M  V30 6958 H 648.319 0.0855756 -4.21313 0
M  V30 6959 H 646.994 0.666262 -3.16769 0
M  V30 6960 H 645.901 -1.64299 -3.3609 0
M  V30 6961 H 647.234 -2.14396 -4.43052 0
M  V30 6962 N 648.886 1.2938 -0.899927 0
M  V30 6963 C 650.133 1.9555 -0.525963 0
M  V30 6964 C 650.461 1.70945 0.927789 0
M  V30 6965 O 649.716 1.01545 1.67293 0
M  V30 6966 C 650.015 3.49114 -0.765113 0
M  V30 6967 C 649.681 3.93796 -2.19626 0
M  V30 6968 C 648.343 4.05707 -2.58758 0
M  V30 6969 C 650.695 4.16883 -3.12823 0
M  V30 6970 C 648.023 4.38074 -3.90267 0
M  V30 6971 C 650.375 4.50725 -4.4388 0
M  V30 6972 C 649.039 4.60845 -4.82885 0
M  V30 6973 H 648.309 0.715569 -0.192463 0
M  V30 6974 H 650.956 1.53972 -1.13863 0
M  V30 6975 H 649.261 3.91738 -0.069531 0
M  V30 6976 H 650.958 3.98409 -0.455144 0
M  V30 6977 H 647.548 3.85042 -1.88256 0
M  V30 6978 H 651.732 4.07147 -2.83804 0
M  V30 6979 H 646.988 4.44112 -4.20207 0
M  V30 6980 H 651.162 4.67538 -5.16121 0
M  V30 6981 H 648.789 4.85681 -5.84823 0
M  V30 6982 N 650.364 0.662433 1.43002 0
M  V30 6983 C 651.589 0.186003 2.06564 0
M  V30 6984 C 652.014 -1.14314 1.49379 0
M  V30 6985 O 651.372 -1.70824 0.607346 0
M  V30 6986 C 651.42 0.118269 3.60406 0
M  V30 6987 O 650.524 -0.916859 4.02079 0
M  V30 6988 H 649.865 0.0990981 0.656563 0
M  V30 6989 H 652.395 0.907958 1.8335 0
M  V30 6990 H 652.405 -0.0619981 4.07953 0
M  V30 6991 H 651.08 1.08849 4.01403 0
M  V30 6992 H 649.657 -0.708635 3.66105 0
M  V30 6993 N 651.842 -1.52309 0.404946 0
M  V30 6994 C 653.088 -2.02065 -0.172455 0
M  V30 6995 C 653.421 -1.29022 -1.45145 0
M  V30 6996 O 652.696 -0.395284 -1.90441 0
M  V30 6997 C 652.979 -3.5759 -0.424433 0
M  V30 6998 C 652.832 -4.41287 0.870945 0
M  V30 6999 C 654.151 -4.23186 -1.20837 0
M  V30 7000 H 651.27 -0.734454 -0.0612035 0
M  V30 7001 H 653.912 -1.82236 0.53759 0
M  V30 7002 H 652.062 -3.74617 -1.02929 0
M  V30 7003 H 653.734 -4.3598 1.50729 0
M  V30 7004 H 651.977 -4.07669 1.48284 0
M  V30 7005 H 652.648 -5.48171 0.649083 0
M  V30 7006 H 655.124 -4.10232 -0.696338 0
M  V30 7007 H 654 -5.31953 -1.35343 0
M  V30 7008 H 654.261 -3.81862 -2.22786 0
M  V30 7009 N 653.32 -0.135238 -1.57019 0
M  V30 7010 C 654.567 0.518794 -1.95742 0
M  V30 7011 C 654.895 1.65642 -1.01947 0
M  V30 7012 O 654.15 1.95645 -0.0464016 0
M  V30 7013 C 654.449 1.07694 -3.40788 0
M  V30 7014 C 654.115 0.058992 -4.50861 0
M  V30 7015 C 652.777 -0.220872 -4.80693 0
M  V30 7016 C 655.129 -0.633856 -5.17331 0
M  V30 7017 C 652.457 -1.19959 -5.74305 0
M  V30 7018 C 654.809 -1.60131 -6.11997 0
M  V30 7019 C 653.473 -1.889 -6.40213 0
M  V30 7020 H 652.743 0.18984 -0.716269 0
M  V30 7021 H 655.39 -0.219581 -1.90237 0
M  V30 7022 H 653.695 1.89241 -3.43067 0
M  V30 7023 H 655.392 1.59137 -3.68071 0
M  V30 7024 H 651.982 0.287304 -4.27636 0
M  V30 7025 H 656.166 -0.430823 -4.94427 0
M  V30 7026 H 651.422 -1.42905 -5.94465 0
M  V30 7027 H 655.596 -2.14376 -6.62583 0
M  V30 7028 H 653.223 -2.64891 -7.12556 0
M  V30 7029 N 654.798 1.5699 0.138552 0
M  V30 7030 C 655.728 2.01933 1.17241 0
M  V30 7031 C 656.709 0.90033 1.44319 0
M  V30 7032 O 657.894 1.16872 1.55095 0
M  V30 7033 C 655.024 2.40711 2.50351 0
M  V30 7034 C 653.978 3.55874 2.37776 0
M  V30 7035 C 653.304 3.80491 3.75674 0
M  V30 7036 C 654.604 4.8826 1.85472 0
M  V30 7037 H 656.298 2.88551 0.798672 0
M  V30 7038 H 653.844 1.3882 0.382743 0
M  V30 7039 H 655.797 2.70754 3.22909 0
M  V30 7040 H 654.521 1.5104 2.89576 0
M  V30 7041 H 653.18 3.2601 1.67669 0
M  V30 7042 H 652.828 2.88057 4.12349 0
M  V30 7043 H 652.528 4.57998 3.68119 0
M  V30 7044 H 654.052 4.12967 4.49767 0
M  V30 7045 H 655.466 5.16965 2.4783 0
M  V30 7046 H 653.863 5.69631 1.88787 0
M  V30 7047 H 654.933 4.78071 0.810935 0
M  V30 7048 N 656.276 -0.40816 1.52223 0
M  V30 7049 C 657.501 -1.18127 1.70472 0
M  V30 7050 C 657.926 -1.83491 0.41384 0
M  V30 7051 O 657.284 -1.70047 -0.628778 0
M  V30 7052 C 657.332 -2.21935 2.84213 0
M  V30 7053 O 656.436 -3.28099 2.4985 0
M  V30 7054 H 655.777 -0.344781 0.56747 0
M  V30 7055 H 658.307 -0.478328 1.9893 0
M  V30 7056 H 658.317 -2.66248 3.09153 0
M  V30 7057 H 656.992 -1.73744 3.7787 0
M  V30 7058 H 655.569 -2.89058 2.35584 0
M  V30 7059 N 657.755 -1.42862 -0.66545 0
M  V30 7060 C 658.685 -1.49867 -1.79059 0
M  V30 7061 C 659.666 -0.354394 -1.66367 0
M  V30 7062 O 660.851 -0.569969 -1.85647 0
M  V30 7063 C 657.981 -1.40943 -3.17415 0
M  V30 7064 C 656.935 -2.53495 -3.44854 0
M  V30 7065 C 656.261 -2.29626 -4.82883 0
M  V30 7066 C 657.561 -3.95781 -3.40815 0
M  V30 7067 H 659.255 -2.44037 -1.73453 0
M  V30 7068 H 656.801 -1.17456 -0.833071 0
M  V30 7069 H 658.754 -1.4445 -3.95869 0
M  V30 7070 H 657.478 -0.432716 -3.23721 0
M  V30 7071 H 656.137 -2.4932 -2.68766 0
M  V30 7072 H 655.785 -1.30226 -4.8585 0
M  V30 7073 H 655.485 -3.05065 -5.02204 0
M  V30 7074 H 657.009 -2.34897 -5.63609 0
M  V30 7075 H 658.423 -4.01508 -4.09224 0
M  V30 7076 H 656.82 -4.71148 -3.71672 0
M  V30 7077 H 657.89 -4.21786 -2.39216 0
M  V30 7078 N 659.233 0.902656 -1.29189 0
M  V30 7079 C 660.649 1.18296 -1.07137 0
M  V30 7080 C 660.849 2.00701 0.179223 0
M  V30 7081 O 659.905 2.3675 0.877812 0
M  V30 7082 C 661.218 1.90677 -2.32514 0
M  V30 7083 C 662.766 2.03515 -2.37804 0
M  V30 7084 C 663.241 2.79307 -3.62976 0
M  V30 7085 N 664.732 2.86862 -3.63681 0
M  V30 7086 C 665.467 3.46035 -4.57217 0
M  V30 7087 N 664.963 4.06399 -5.61081 0
M  V30 7088 N 666.756 3.43681 -4.44792 0
M  V30 7089 H 658.907 0.352765 -2.0945 0
M  V30 7090 H 661.17 0.21876 -0.922414 0
M  V30 7091 H 660.876 1.3756 -3.23682 0
M  V30 7092 H 660.75 2.91169 -2.39793 0
M  V30 7093 H 663.137 2.55809 -1.47125 0
M  V30 7094 H 663.218 1.02166 -2.34512 0
M  V30 7095 H 662.862 2.2769 -4.54004 0
M  V30 7096 H 662.792 3.80995 -3.63525 0
M  V30 7097 H 665.283 2.43987 -2.88581 0
M  V30 7098 H 665.596 4.49564 -6.2858 0
M  V30 7099 H 663.941 4.0487 -5.64894 0
M  V30 7100 H 667.132 2.9574 -3.62843 0
M  V30 7101 H 667.305 3.89503 -5.17872 0
M  V30 7102 N 660.711 1.11618 1.11262 0
M  V30 7103 C 661.659 0.771291 2.1944 0
M  V30 7104 C 662.653 -0.238073 1.67719 0
M  V30 7105 O 663.859 -0.0971628 1.79738 0
M  V30 7106 H 660.234 0.231548 0.715465 0
M  V30 7107 H 662.205 1.69226 2.45775 0
M  V30 7108 C 660.954 0.232765 3.4692 0
M  V30 7109 H 660.277 1.00072 3.87073 0
M  V30 7110 H 661.717 0.0296561 4.2399 0
M  V30 7111 C 660.176 -1.03738 3.20531 0
M  V30 7112 O 660.706 -2.11675 3.41404 0
M  V30 7113 N 658.912 -0.960906 2.74253 0
M  V30 7114 H 658.459 -0.0824323 2.57468 0
M  V30 7115 H 658.417 -1.8114 2.56974 0
M  V30 7116 N 662.189 -1.289 0.906776 0
M  V30 7117 C 663.119 -2.29932 0.406659 0
M  V30 7118 C 664.1 -1.6189 -0.522061 0
M  V30 7119 O 665.285 -1.8935 -0.431283 0
M  V30 7120 C 662.415 -3.45425 -0.360366 0
M  V30 7121 C 661.369 -4.25316 0.478574 0
M  V30 7122 C 660.695 -5.33076 -0.416373 0
M  V30 7123 C 661.995 -4.92739 1.7322 0
M  V30 7124 H 663.689 -2.72013 1.25097 0
M  V30 7125 H 661.235 -1.30768 0.602977 0
M  V30 7126 H 663.188 -4.15186 -0.721029 0
M  V30 7127 H 661.912 -3.02206 -1.23852 0
M  V30 7128 H 660.571 -3.57273 0.821662 0
M  V30 7129 H 660.219 -4.86101 -1.29287 0
M  V30 7130 H 659.919 -5.8743 0.141309 0
M  V30 7131 H 661.443 -6.05686 -0.773072 0
M  V30 7132 H 662.857 -5.54898 1.44086 0
M  V30 7133 H 661.254 -5.57057 2.23175 0
M  V30 7134 H 662.324 -4.17625 2.46408 0
M  V30 7135 N 663.667 -0.670007 -1.42649 0
M  V30 7136 C 664.916 -0.187526 -2.00826 0
M  V30 7137 C 665.229 1.21142 -1.53571 0
M  V30 7138 O 666.435 1.79001 -2.04134 0
M  V30 7139 C 664.891 -0.284409 -3.58774 0
M  V30 7140 C 664.499 -1.6871 -4.15019 0
M  V30 7141 C 666.243 0.139605 -4.2427 0
M  V30 7142 C 664.15 -1.73701 -5.65316 0
M  V30 7143 H 663.08 -0.0663468 -0.751075 0
M  V30 7144 H 665.731 -0.834492 -1.63427 0
M  V30 7145 H 664.113 0.430364 -3.93655 0
M  V30 7146 H 665.287 -2.42857 -3.91608 0
M  V30 7147 H 663.602 -2.05855 -3.61957 0
M  V30 7148 H 666.199 0.122398 -5.3456 0
M  V30 7149 H 666.542 1.17403 -3.99402 0
M  V30 7150 H 667.075 -0.523995 -3.94334 0
M  V30 7151 H 663.814 -2.75109 -5.94975 0
M  V30 7152 H 663.334 -1.03903 -5.90732 0
M  V30 7153 H 665.013 -1.48829 -6.2965 0
M  V30 7154 N 665.145 1.52092 -0.413018 0
M  V30 7155 C 666.375 2.05974 0.160648 0
M  V30 7156 C 666.783 1.28267 1.39084 0
M  V30 7157 O 666.126 0.328805 1.80733 0
M  V30 7158 C 666.188 3.54918 0.572169 0
M  V30 7159 C 665.852 4.53705 -0.547826 0
M  V30 7160 C 666.849 5.00342 -1.41259 0
M  V30 7161 C 664.534 4.97089 -0.721627 0
M  V30 7162 C 666.528 5.89011 -2.43607 0
M  V30 7163 C 664.215 5.85554 -1.74841 0
M  V30 7164 C 665.213 6.3141 -2.60403 0
M  V30 7165 O 664.901 7.18123 -3.61323 0
M  V30 7166 H 664.633 0.675636 0.0221936 0
M  V30 7167 H 667.187 1.96931 -0.58373 0
M  V30 7168 H 665.417 3.61661 1.36889 0
M  V30 7169 H 667.106 3.91428 1.0742 0
M  V30 7170 H 667.872 4.67537 -1.28974 0
M  V30 7171 H 663.751 4.60954 -0.0652911 0
M  V30 7172 H 667.295 6.24725 -3.10425 0
M  V30 7173 H 663.192 6.17773 -1.87156 0
M  V30 7174 H 663.96 7.36244 -3.57613 0
M  V30 7175 N 666.623 0.143563 1.56945 0
M  V30 7176 C 667.553 -0.7936 2.196 0
M  V30 7177 C 668.534 -1.25955 1.14321 0
M  V30 7178 O 669.719 -1.31773 1.42651 0
M  V30 7179 C 666.849 -2.03424 2.81489 0
M  V30 7180 C 665.803 -1.70519 3.92565 0
M  V30 7181 C 665.129 -3.01817 4.41373 0
M  V30 7182 C 666.429 -0.95449 5.13504 0
M  V30 7183 H 668.123 -0.271423 2.98167 0
M  V30 7184 H 665.669 -0.12911 1.4342 0
M  V30 7185 H 667.622 -2.69463 3.23987 0
M  V30 7186 H 666.346 -2.58008 2.00248 0
M  V30 7187 H 665.005 -1.06859 3.5068 0
M  V30 7188 H 664.653 -3.54386 3.56959 0
M  V30 7189 H 664.353 -2.80565 5.16292 0
M  V30 7190 H 665.877 -3.68934 4.86539 0
M  V30 7191 H 667.291 -1.5169 5.52868 0
M  V30 7192 H 665.688 -0.842035 5.94163 0
M  V30 7193 H 666.758 0.0544033 4.84869 0
M  V30 7194 N 668.101 -1.57061 -0.130224 0
M  V30 7195 C 669.378 -1.75205 -0.869631 0
M  V30 7196 C 669.758 -0.716063 -1.98584 0
M  V30 7197 O 669.106 0.262032 -2.26993 0
M  V30 7198 C 669.316 -3.19835 -1.39666 0
M  V30 7199 C 670.664 -3.82011 -1.85345 0
M  V30 7200 O 671.688 -3.23368 -1.49371 0
M  V30 7201 O 670.547 -4.85064 -2.51744 0
M  V30 7202 H 667.641 -0.716977 -0.412157 0
M  V30 7203 H 670.187 -1.69311 -0.11484 0
M  V30 7204 H 668.959 -3.86745 -0.595288 0
M  V30 7205 H 668.582 -3.30222 -2.21448 0
M  V30 7206 N 669.579 0.400081 -1.52437 0
M  V30 7207 C 670.828 1.14332 -1.66166 0
M  V30 7208 C 671.141 1.91419 -0.402253 0
M  V30 7209 O 672.347 2.6824 -0.419487 0
M  V30 7210 C 670.803 2.08137 -2.9361 0
M  V30 7211 C 670.411 1.36524 -4.26691 0
M  V30 7212 C 672.155 2.82664 -3.16703 0
M  V30 7213 C 670.062 2.29031 -5.45251 0
M  V30 7214 H 668.992 0.430499 -0.61902 0
M  V30 7215 H 671.643 0.407017 -1.78929 0
M  V30 7216 H 670.025 2.85358 -2.74567 0
M  V30 7217 H 671.199 0.646061 -4.56249 0
M  V30 7218 H 669.514 0.74002 -4.09771 0
M  V30 7219 H 672.111 3.52037 -4.0246 0
M  V30 7220 H 672.454 3.46122 -2.31312 0
M  V30 7221 H 672.987 2.12541 -3.36261 0
M  V30 7222 H 669.726 1.70206 -6.33017 0
M  V30 7223 H 669.246 2.98896 -5.2002 0
M  V30 7224 H 670.925 2.89359 -5.78689 0
M  V30 7225 N 671.057 1.43213 0.657864 0
M  V30 7226 C 672.282 1.48227 1.45064 0
M  V30 7227 C 672.707 0.0999939 1.87834 0
M  V30 7228 O 672.065 -0.905269 1.57081 0
M  V30 7229 C 672.113 2.42931 2.6649 0
M  V30 7230 O 671.217 1.91237 3.6538 0
M  V30 7231 H 670.558 0.501551 0.435135 0
M  V30 7232 H 673.088 1.8808 0.805431 0
M  V30 7233 H 673.098 2.6008 3.1436 0
M  V30 7234 H 671.773 3.43348 2.34701 0
M  V30 7235 H 670.35 1.83726 3.24498 0
M  V30 7236 N 672.536 -0.895792 1.29666 0
M  V30 7237 C 673.486 -1.98736 1.1175 0
M  V30 7238 C 674.47 -1.6086 0.0357834 0
M  V30 7239 O 675.662 -1.75111 0.257926 0
M  V30 7240 C 672.791 -3.33845 0.800156 0
M  V30 7241 C 671.877 -3.78068 1.9216 0
M  V30 7242 N 672.268 -3.94489 3.16563 0
M  V30 7243 C 670.566 -4.07376 1.81552 0
M  V30 7244 C 671.267 -4.31819 3.89753 0
M  V30 7245 N 670.243 -4.41081 3.17724 0
M  V30 7246 H 674.045 -2.09507 2.06117 0
M  V30 7247 H 671.559 -1.08488 1.20848 0
M  V30 7248 H 673.556 -4.11757 0.652841 0
M  V30 7249 H 672.216 -3.24417 -0.135551 0
M  V30 7250 H 673.227 -3.79914 3.51974 0
M  V30 7251 H 669.904 -4.06483 0.952787 0
M  V30 7252 H 671.294 -4.52337 4.96831 0
M  V30 7253 N 674.014 -1.12206 -1.10668 0
M  V30 7254 C 675.242 -0.898635 -1.86366 0
M  V30 7255 C 675.657 0.551991 -1.80551 0
M  V30 7256 O 675.014 1.38152 -1.19249 0
M  V30 7257 C 675.065 -1.36199 -3.34861 0
M  V30 7258 O 674.786 -2.75576 -3.40573 0
M  V30 7259 C 676.287 -1.17515 -4.2744 0
M  V30 7260 H 673.507 -0.321281 -0.589084 0
M  V30 7261 H 676.051 -1.49142 -1.39918 0
M  V30 7262 H 674.206 -0.81249 -3.78784 0
M  V30 7263 H 674.62 -2.95851 -4.33096 0
M  V30 7264 H 676.094 -1.54827 -5.29842 0
M  V30 7265 H 676.571 -0.115486 -4.39048 0
M  V30 7266 H 677.177 -1.71203 -3.89319 0
M  V30 7267 N 675.492 1.28418 -0.913599 0
M  V30 7268 C 676.442 2.24928 -0.373042 0
M  V30 7269 C 677.426 1.52444 0.514753 0
M  V30 7270 O 678.618 1.73414 0.3545 0
M  V30 7271 C 675.747 3.41124 0.385896 0
M  V30 7272 C 674.833 4.20929 -0.51761 0
M  V30 7273 N 675.224 4.78777 -1.63113 0
M  V30 7274 C 673.522 4.44865 -0.317969 0
M  V30 7275 C 674.223 5.38822 -2.19193 0
M  V30 7276 N 673.199 5.22974 -1.48321 0
M  V30 7277 H 677.001 2.67224 -1.22346 0
M  V30 7278 H 674.515 1.43187 -0.766236 0
M  V30 7279 H 676.512 4.09347 0.789997 0
M  V30 7280 H 675.172 3.00362 1.23341 0
M  V30 7281 H 676.183 4.77148 -2.01372 0
M  V30 7282 H 672.86 4.14614 0.49004 0
M  V30 7283 H 674.25 5.94615 -3.12861 0
M  V30 7284 N 676.97 0.677563 1.42291 0
M  V30 7285 C 678.198 0.209459 2.05837 0
M  V30 7286 C 678.613 -1.13444 1.50917 0
M  V30 7287 O 677.97 -1.70529 0.65008 0
M  V30 7288 C 678.021 0.138819 3.61233 0
M  V30 7289 O 677.742 1.42962 4.14118 0
M  V30 7290 C 679.243 -0.352449 4.41897 0
M  V30 7291 H 676.463 0.101209 0.663323 0
M  V30 7292 H 679.007 0.925077 1.8238 0
M  V30 7293 H 677.162 -0.527505 3.83792 0
M  V30 7294 H 677.576 1.3048 5.08011 0
M  V30 7295 H 679.05 -0.350778 5.50884 0
M  V30 7296 H 679.527 -1.3882 4.16684 0
M  V30 7297 H 680.133 0.282236 4.24362 0
M  V30 7298 N 678.448 -1.51871 0.421078 0
M  V30 7299 C 679.864 -1.59435 0.0725398 0
M  V30 7300 C 680.064 -1.43315 -1.41644 0
M  V30 7301 O 679.12 -1.26614 -2.18461 0
M  V30 7302 C 680.433 -2.9509 0.578132 0
M  V30 7303 C 681.981 -3.08356 0.537149 0
M  V30 7304 C 682.456 -4.4651 1.01945 0
M  V30 7305 N 683.947 -4.52784 0.976758 0
M  V30 7306 C 684.682 -5.57976 1.32099 0
M  V30 7307 N 684.178 -6.70664 1.73727 0
M  V30 7308 N 685.971 -5.48248 1.2402 0
M  V30 7309 H 678.122 -1.60595 1.39007 0
M  V30 7310 H 680.385 -0.756138 0.571803 0
M  V30 7311 H 680.091 -3.12205 1.61929 0
M  V30 7312 H 679.965 -3.772 -0.00578374 0
M  V30 7313 H 682.352 -2.90919 -0.494991 0
M  V30 7314 H 682.433 -2.28125 1.15727 0
M  V30 7315 H 682.077 -4.64692 2.04997 0
M  V30 7316 H 682.007 -5.25256 0.376023 0
M  V30 7317 H 684.498 -3.71898 0.670851 0
M  V30 7318 H 684.811 -7.46932 1.98274 0
M  V30 7319 H 683.156 -6.71914 1.77641 0
M  V30 7320 H 686.347 -4.59095 0.913756 0
M  V30 7321 H 686.52 -6.30119 1.51176 0
M  V30 7322 N 679.926 -0.151884 -1.56866 0
M  V30 7323 C 681.172 0.498742 -1.96572 0
M  V30 7324 C 681.505 1.64194 -1.03702 0
M  V30 7325 O 680.78 1.94334 -0.0803432 0
M  V30 7326 C 681.063 1.00027 -3.45929 0
M  V30 7327 C 680.916 -0.141767 -4.49577 0
M  V30 7328 C 682.235 1.88044 -3.97904 0
M  V30 7329 H 679.354 0.17982 -0.714726 0
M  V30 7330 H 681.996 -0.234097 -1.88552 0
M  V30 7331 H 680.146 1.62476 -3.52894 0
M  V30 7332 H 681.818 -0.778269 -4.54687 0
M  V30 7333 H 680.061 -0.80019 -4.26356 0
M  V30 7334 H 680.732 0.250947 -5.51429 0
M  V30 7335 H 683.208 1.35416 -3.93449 0
M  V30 7336 H 682.084 2.20043 -5.02864 0
M  V30 7337 H 682.345 2.81916 -3.40552 0
M  V30 7338 N 681.404 1.57128 0.121893 0
M  V30 7339 C 682.367 1.99197 1.13372 0
M  V30 7340 C 683.367 0.881728 1.3447 0
M  V30 7341 O 684.557 1.14783 1.31036 0
M  V30 7342 C 681.689 2.32963 2.4888 0
M  V30 7343 H 682.882 2.89788 0.772204 0
M  V30 7344 H 680.435 1.51952 0.366093 0
M  V30 7345 H 681.17 1.45243 2.89957 0
M  V30 7346 H 680.955 3.13934 2.34921 0
M  V30 7347 H 682.445 2.66261 3.21706 0
M  V30 7348 N 682.882 -0.391992 1.52647 0
M  V30 7349 C 684.129 -1.13732 1.67545 0
M  V30 7350 C 684.457 -1.90045 0.413881 0
M  V30 7351 O 683.712 -1.86157 -0.603646 0
M  V30 7352 C 684.011 -2.14401 2.85949 0
M  V30 7353 C 683.677 -1.54767 4.23507 0
M  V30 7354 C 682.339 -1.38229 4.60919 0
M  V30 7355 C 684.691 -1.11382 5.0916 0
M  V30 7356 C 682.019 -0.7685 5.81645 0
M  V30 7357 C 684.371 -0.514143 6.30507 0
M  V30 7358 C 683.035 -0.33604 6.66654 0
M  V30 7359 H 682.305 -0.416174 0.613091 0
M  V30 7360 H 684.952 -0.422327 1.86785 0
M  V30 7361 H 683.257 -2.92108 2.61114 0
M  V30 7362 H 684.954 -2.71974 2.94671 0
M  V30 7363 H 681.544 -1.68626 3.94035 0
M  V30 7364 H 685.728 -1.22962 4.80826 0
M  V30 7365 H 680.984 -0.618681 6.08262 0
M  V30 7366 H 685.158 -0.169657 6.96193 0
M  V30 7367 H 682.785 0.14166 7.60068 0
M  V30 7368 N 684.36 -1.4356 -0.65026 0
M  V30 7369 C 685.308 -1.49219 -1.78427 0
M  V30 7370 C 686.302 -0.365528 -1.65409 0
M  V30 7371 O 687.508 -0.539649 -1.7172 0
M  V30 7372 H 683.883 -0.467858 -0.588738 0
M  V30 7373 H 685.854 -2.44701 -1.70774 0
M  V30 7374 C 684.603 -1.43519 -3.16698 0
M  V30 7375 H 683.926 -2.2952 -3.27354 0
M  V30 7376 H 685.366 -1.5154 -3.95995 0
M  V30 7377 C 683.825 -0.153197 -3.36552 0
M  V30 7378 O 684.355 0.784317 -3.93969 0
M  V30 7379 N 682.561 -0.0624402 -2.90533 0
M  V30 7380 H 682.108 -0.826172 -2.43992 0
M  V30 7381 H 682.066 0.794616 -3.04193 0
M  V30 7382 N 685.838 0.888903 -1.30139 0
M  V30 7383 C 687.086 1.63713 -1.18501 0
M  V30 7384 C 687.407 1.9324 0.261399 0
M  V30 7385 O 686.677 1.56608 1.17689 0
M  V30 7386 H 685.257 0.606861 -0.435579 0
M  V30 7387 H 687.919 1.06525 -1.63213 0
M  V30 7388 H 687.015 2.58894 -1.743 0
M  V30 7389 N 687.317 1.12792 1.10072 0
M  V30 7390 C 688.566 0.880232 1.81479 0
M  V30 7391 C 688.879 -0.595575 1.86312 0
M  V30 7392 O 690.085 -0.959979 2.53962 0
M  V30 7393 C 688.541 1.52514 3.25987 0
M  V30 7394 C 688.149 3.036 3.29441 0
M  V30 7395 C 689.893 1.35788 4.02196 0
M  V30 7396 C 687.8 3.61007 4.68431 0
M  V30 7397 H 686.73 0.325654 0.680048 0
M  V30 7398 H 689.381 1.35485 1.23758 0
M  V30 7399 H 687.763 0.978188 3.83728 0
M  V30 7400 H 688.937 3.64819 2.81502 0
M  V30 7401 H 687.252 3.19765 2.66719 0
M  V30 7402 H 689.849 1.76096 5.0487 0
M  V30 7403 H 690.192 0.301972 4.15203 0
M  V30 7404 H 690.725 1.87426 3.50879 0
M  V30 7405 H 687.464 4.66375 4.60625 0
M  V30 7406 H 686.984 3.04564 5.16721 0
M  V30 7407 H 688.663 3.60289 5.37402 0
M  V30 7408 N 688.795 -1.27931 0.920396 0
M  V30 7409 C 690.042 -1.94689 0.557007 0
M  V30 7410 C 690.37 -1.724 -0.900476 0
M  V30 7411 O 689.625 -1.04194 -1.65657 0
M  V30 7412 C 689.924 -3.47853 0.820558 0
M  V30 7413 C 689.59 -3.90252 2.25863 0
M  V30 7414 C 688.252 -4.01539 2.65179 0
M  V30 7415 C 690.604 -4.11853 3.19415 0
M  V30 7416 C 687.932 -4.3181 3.97187 0
M  V30 7417 C 690.284 -4.43606 4.50995 0
M  V30 7418 C 688.948 -4.53105 4.90155 0
M  V30 7419 H 688.218 -0.712416 0.203823 0
M  V30 7420 H 690.865 -1.52142 1.16298 0
M  V30 7421 H 689.17 -3.91578 0.131844 0
M  V30 7422 H 690.867 -3.97634 0.51847 0
M  V30 7423 H 687.457 -3.81999 1.94358 0
M  V30 7424 H 691.641 -4.0258 2.90246 0
M  V30 7425 H 686.897 -4.37371 4.2722 0
M  V30 7426 H 691.071 -4.59268 5.23494 0
M  V30 7427 H 688.698 -4.76315 5.92476 0
M  V30 7428 N 690.273 -0.685099 -1.4193 0
M  V30 7429 C 691.221 -0.00165985 -2.326 0
M  V30 7430 C 692.215 0.779678 -1.50391 0
M  V30 7431 O 693.421 0.68648 -1.66395 0
M  V30 7432 H 689.796 0.0182616 -0.751778 0
M  V30 7433 H 691.767 -0.783592 -2.87928 0
M  V30 7434 C 690.516 0.928385 -3.35077 0
M  V30 7435 H 689.839 0.336578 -3.98381 0
M  V30 7436 H 691.279 1.37509 -4.01083 0
M  V30 7437 C 689.738 2.03964 -2.68142 0
M  V30 7438 O 690.268 3.12727 -2.5212 0
M  V30 7439 N 688.474 1.81433 -2.27003 0
M  V30 7440 H 688.021 0.929807 -2.40234 0
M  V30 7441 H 687.979 2.55973 -1.82552 0
M  V30 7442 N 691.751 1.51645 -0.429126 0
M  V30 7443 C 692.999 2.01616 0.139802 0
M  V30 7444 C 693.32 1.31568 1.43927 0
M  V30 7445 O 692.59 0.447688 1.90716 0
M  V30 7446 H 691.17 0.744998 0.054654 0
M  V30 7447 H 693.832 1.8638 -0.569952 0
M  V30 7448 H 692.928 3.10439 0.321609 0
M  V30 7449 N 693.229 0.160201 1.56784 0
M  V30 7450 C 694.159 -0.770264 2.2043 0
M  V30 7451 C 695.14 -1.24736 1.15651 0
M  V30 7452 O 696.325 -1.30253 1.44041 0
M  V30 7453 C 693.455 -2.00427 2.83631 0
M  V30 7454 C 692.409 -1.66345 3.94352 0
M  V30 7455 C 691.735 -2.97119 4.4455 0
M  V30 7456 C 693.035 -0.899972 5.14488 0
M  V30 7457 H 694.729 -0.239783 2.98438 0
M  V30 7458 H 692.275 -0.113891 1.43549 0
M  V30 7459 H 694.228 -2.66012 3.26827 0
M  V30 7460 H 692.952 -2.5587 2.02973 0
M  V30 7461 H 691.611 -1.03133 3.51794 0
M  V30 7462 H 691.259 -3.5058 3.60698 0
M  V30 7463 H 690.959 -2.75073 5.19238 0
M  V30 7464 H 692.483 -3.63753 4.90425 0
M  V30 7465 H 693.897 -1.45818 5.54446 0
M  V30 7466 H 692.294 -0.778968 5.95023 0
M  V30 7467 H 693.364 0.105827 4.84785 0
M  V30 7468 N 694.707 -1.5719 -0.113559 0
M  V30 7469 C 695.932 -1.89702 -0.838336 0
M  V30 7470 C 696.357 -0.752679 -1.72384 0
M  V30 7471 O 695.715 0.296575 -1.78858 0
M  V30 7472 C 695.763 -3.20989 -1.64312 0
M  V30 7473 O 694.867 -3.07278 -2.75053 0
M  V30 7474 H 694.208 -0.622339 -0.231496 0
M  V30 7475 H 696.738 -2.04382 -0.0943228 0
M  V30 7476 H 696.748 -3.53843 -2.03123 0
M  V30 7477 H 695.423 -4.03869 -0.993119 0
M  V30 7478 H 694 -2.85901 -2.39406 0
M  V30 7479 N 696.185 0.383891 -1.52853 0
M  V30 7480 C 697.41 1.154 -1.7233 0
M  V30 7481 C 697.835 1.82809 -0.44298 0
M  V30 7482 O 697.193 1.71026 0.601645 0
M  V30 7483 C 697.241 2.17386 -2.87708 0
M  V30 7484 O 696.345 3.24082 -2.55038 0
M  V30 7485 H 695.686 0.335709 -0.572883 0
M  V30 7486 H 698.216 0.44662 -1.99666 0
M  V30 7487 H 698.226 2.61296 -3.1335 0
M  V30 7488 H 696.901 1.6771 -3.80587 0
M  V30 7489 H 695.478 2.85273 -2.40153 0
M  V30 7490 N 697.663 1.43903 0.642637 0
M  V30 7491 C 698.593 1.52697 1.76652 0
M  V30 7492 C 699.574 0.380816 1.65782 0
M  V30 7493 O 700.759 0.599432 1.84717 0
M  V30 7494 C 697.889 1.45975 3.15133 0
M  V30 7495 C 696.843 2.58949 3.40778 0
M  V30 7496 C 696.169 2.37279 4.79169 0
M  V30 7497 C 697.469 4.01153 3.34475 0
M  V30 7498 H 699.163 2.46766 1.69549 0
M  V30 7499 H 696.709 1.18767 0.814279 0
M  V30 7500 H 698.662 1.5073 3.93521 0
M  V30 7501 H 697.386 0.484162 3.22991 0
M  V30 7502 H 696.045 2.53564 2.64765 0
M  V30 7503 H 695.693 1.37939 4.83717 0
M  V30 7504 H 695.393 3.13016 4.97287 0
M  V30 7505 H 696.917 2.43834 5.59801 0
M  V30 7506 H 698.331 4.07968 4.02784 0
M  V30 7507 H 696.728 4.77001 3.64129 0
M  V30 7508 H 697.798 4.25539 2.32475 0
M  V30 7509 N 699.141 -0.881989 1.30609 0
M  V30 7510 C 700.051 -2.02076 1.19174 0
M  V30 7511 C 701.067 -1.73645 0.11102 0
M  V30 7512 O 702.243 -1.98735 0.326528 0
M  V30 7513 C 699.308 -3.3515 0.887438 0
M  V30 7514 C 698.369 -3.76983 2.05383 0
M  V30 7515 C 697.602 -5.03707 1.76395 0
M  V30 7516 O 697.825 -5.66171 0.693302 0
M  V30 7517 O 696.759 -5.42019 2.61723 0
M  V30 7518 H 700.585 -2.14652 2.14845 0
M  V30 7519 H 698.17 -1.00843 1.10232 0
M  V30 7520 H 700.052 -4.14975 0.73306 0
M  V30 7521 H 698.727 -3.23676 -0.0393354 0
M  V30 7522 H 697.634 -2.97849 2.26355 0
M  V30 7523 H 698.967 -3.93066 2.96243 0
M  V30 7524 N 700.619 -1.13374 -1.09472 0
M  V30 7525 C 701.865 -0.896516 -1.81908 0
M  V30 7526 C 702.198 0.575933 -1.85463 0
M  V30 7527 O 701.473 1.42618 -1.32251 0
M  V30 7528 C 701.756 -1.48445 -3.28079 0
M  V30 7529 C 701.609 -3.02598 -3.32798 0
M  V30 7530 C 702.928 -1.15226 -4.24748 0
M  V30 7531 H 700.047 -0.327127 -0.660422 0
M  V30 7532 H 702.689 -1.40195 -1.2824 0
M  V30 7533 H 700.839 -1.0546 -3.73912 0
M  V30 7534 H 702.511 -3.54335 -2.95372 0
M  V30 7535 H 700.754 -3.37613 -2.72397 0
M  V30 7536 H 701.425 -3.38835 -4.3577 0
M  V30 7537 H 703.901 -1.52369 -3.87199 0
M  V30 7538 H 702.777 -1.59012 -5.25363 0
M  V30 7539 H 703.038 -0.0658891 -4.42051 0
M  V30 7540 N 702.098 1.27442 -0.927168 0
M  V30 7541 C 703.028 2.29256 -0.443188 0
M  V30 7542 C 704.009 1.62701 0.49624 0
M  V30 7543 O 705.194 1.90013 0.401105 0
M  V30 7544 C 702.324 3.45955 0.305366 0
M  V30 7545 C 701.278 4.24501 -0.546178 0
M  V30 7546 C 700.604 5.33671 0.331512 0
M  V30 7547 C 701.904 4.89921 -1.81037 0
M  V30 7548 H 703.598 2.69988 -1.29409 0
M  V30 7549 H 701.144 1.29792 -0.623705 0
M  V30 7550 H 703.097 4.1628 0.654885 0
M  V30 7551 H 701.821 3.04138 1.19029 0
M  V30 7552 H 700.48 3.55921 -0.878398 0
M  V30 7553 H 700.128 4.88096 1.21537 0
M  V30 7554 H 699.828 5.87131 -0.234746 0
M  V30 7555 H 701.352 6.0684 0.676614 0
M  V30 7556 H 702.766 5.52536 -1.52895 0
M  V30 7557 H 701.163 5.53436 -2.32009 0
M  V30 7558 H 702.233 4.13652 -2.53021 0
M  V30 7559 N 703.576 0.692616 1.41565 0
M  V30 7560 C 704.523 0.0254264 2.30786 0
M  V30 7561 C 705.493 -0.774347 1.46946 0
M  V30 7562 O 706.678 -0.742981 1.7574 0
M  V30 7563 C 703.818 -0.907123 3.32964 0
M  V30 7564 C 702.931 -0.0992784 4.31886 0
M  V30 7565 C 702.066 -1.0292 5.21134 0
M  V30 7566 C 701.105 -0.214088 6.11725 0
M  V30 7567 N 700.242 -1.09766 6.93467 0
M  V30 7568 H 705.082 0.792036 2.87282 0
M  V30 7569 H 702.619 0.4023 1.41492 0
M  V30 7570 H 704.577 -1.46181 3.90752 0
M  V30 7571 H 703.207 -1.64016 2.78026 0
M  V30 7572 H 702.259 0.572287 3.76071 0
M  V30 7573 H 703.571 0.532782 4.95946 0
M  V30 7574 H 702.725 -1.65321 5.83741 0
M  V30 7575 H 701.464 -1.69512 4.57293 0
M  V30 7576 H 700.469 0.42302 5.4817 0
M  V30 7577 H 701.694 0.447995 6.77621 0
M  V30 7578 H 699.64 -1.74965 6.32237 0
M  V30 7579 H 699.557 -0.521099 7.54202 0
M  V30 7580 H 700.825 -1.70858 7.60544 0
M  V30 7581 N 705.054 -1.51416 0.437162 0
M  V30 7582 C 705.987 -2.24309 -0.419602 0
M  V30 7583 C 706.965 -1.26236 -1.02485 0
M  V30 7584 O 708.149 -1.5537 -1.06735 0
M  V30 7585 C 705.276 -2.99335 -1.58482 0
M  V30 7586 C 704.322 -4.12064 -1.10027 0
M  V30 7587 S 705.155 -5.35483 -0.0424476 0
M  V30 7588 C 706.311 -6.14047 -1.21234 0
M  V30 7589 H 706.544 -2.96632 0.199259 0
M  V30 7590 H 704.077 -1.528 0.22168 0
M  V30 7591 H 706.035 -3.43159 -2.25282 0
M  V30 7592 H 704.696 -2.26602 -2.17509 0
M  V30 7593 H 703.889 -4.63836 -1.97161 0
M  V30 7594 H 703.491 -3.70499 -0.510507 0
M  V30 7595 H 705.783 -6.43123 -2.13072 0
M  V30 7596 H 706.726 -7.04279 -0.734582 0
M  V30 7597 H 707.134 -5.45538 -1.45082 0
M  V30 7598 N 706.532 -0.168513 -1.56696 0
M  V30 7599 C 707.495 0.748928 -2.16619 0
M  V30 7600 C 708.495 1.16007 -1.11351 0
M  V30 7601 O 709.685 1.07748 -1.3688 0
M  V30 7602 C 706.817 2.01904 -2.74677 0
M  V30 7603 H 708.01 0.227317 -2.99037 0
M  V30 7604 H 705.563 0.0810372 -1.5609 0
M  V30 7605 H 706.298 2.58381 -1.95985 0
M  V30 7606 H 706.083 1.73323 -3.51712 0
M  V30 7607 H 707.573 2.67383 -3.20774 0
M  V30 7608 N 708.01 1.57248 0.105221 0
M  V30 7609 C 709.258 1.85204 0.808951 0
M  V30 7610 C 709.579 0.75574 1.7976 0
M  V30 7611 O 708.849 -0.218984 1.94672 0
M  V30 7612 H 707.429 0.683346 0.301739 0
M  V30 7613 H 710.091 1.94695 0.0892605 0
M  V30 7614 H 709.187 2.81595 1.34575 0
M  V30 7615 N 709.488 -0.375779 1.53054 0
M  V30 7616 C 710.436 -1.48015 1.79428 0
M  V30 7617 C 711.43 -1.55893 0.662854 0
M  V30 7618 O 712.636 -1.58901 0.845599 0
M  V30 7619 H 709.011 -0.492887 0.56795 0
M  V30 7620 H 710.982 -1.22971 2.71884 0
M  V30 7621 C 709.731 -2.84984 1.99197 0
M  V30 7622 H 709.054 -2.79677 2.85693 0
M  V30 7623 H 710.494 -3.61462 2.21633 0
M  V30 7624 C 708.953 -3.28025 0.768183 0
M  V30 7625 O 709.483 -4.01671 -0.0480482 0
M  V30 7626 N 707.689 -2.84454 0.594521 0
M  V30 7627 H 707.236 -2.24688 1.25988 0
M  V30 7628 H 707.194 -3.13609 -0.222916 0
M  V30 7629 N 710.966 -1.44241 -0.634997 0
M  V30 7630 C 712.191 -1.50516 -1.42687 0
M  V30 7631 C 712.616 -0.129864 -1.87651 0
M  V30 7632 O 711.974 0.880164 -1.58502 0
M  V30 7633 C 712.022 -2.4714 -2.62591 0
M  V30 7634 O 711.126 -1.97025 -3.62291 0
M  V30 7635 H 710.467 -0.50841 -0.427101 0
M  V30 7636 H 712.997 -1.89337 -0.775408 0
M  V30 7637 H 713.007 -2.65048 -3.10183 0
M  V30 7638 H 711.682 -3.47039 -2.29209 0
M  V30 7639 H 710.259 -1.88866 -3.21534 0
M  V30 7640 N 712.444 0.87505 -1.31075 0
M  V30 7641 C 713.691 1.62768 -1.20469 0
M  V30 7642 C 714.019 1.93034 0.23834 0
M  V30 7643 O 713.274 1.55693 1.18567 0
M  V30 7644 C 713.573 2.96948 -1.98888 0
M  V30 7645 C 713.239 2.86195 -3.4843 0
M  V30 7646 C 711.901 2.82969 -3.89207 0
M  V30 7647 C 714.253 2.73599 -4.43614 0
M  V30 7648 C 711.581 2.64999 -5.23443 0
M  V30 7649 C 713.933 2.57166 -5.77969 0
M  V30 7650 C 712.597 2.52321 -6.17973 0
M  V30 7651 H 711.867 0.595611 -0.440827 0
M  V30 7652 H 714.514 1.01665 -1.62285 0
M  V30 7653 H 712.819 3.62058 -1.49737 0
M  V30 7654 H 714.516 3.54164 -1.88067 0
M  V30 7655 H 711.106 2.8952 -3.16032 0
M  V30 7656 H 715.29 2.7515 -4.13045 0
M  V30 7657 H 710.546 2.5967 -5.53517 0
M  V30 7658 H 714.72 2.46396 -6.51354 0
M  V30 7659 H 712.347 2.38156 -7.21932 0
M  V30 7660 N 713.922 1.13953 1.08869 0
M  V30 7661 C 714.854 0.779906 2.15523 0
M  V30 7662 C 715.867 -0.20102 1.61554 0
M  V30 7663 O 717.056 0.0200049 1.78489 0
M  V30 7664 C 714.156 0.136226 3.38626 0
M  V30 7665 C 713.329 1.15069 4.21993 0
M  V30 7666 C 712.388 0.531645 5.23507 0
M  V30 7667 O 711.414 1.19327 5.56552 0
M  V30 7668 N 712.616 -0.693734 5.7634 0
M  V30 7669 H 715.381 1.69769 2.46979 0
M  V30 7670 H 712.942 1.03331 1.24637 0
M  V30 7671 H 714.934 -0.290295 4.03658 0
M  V30 7672 H 713.504 -0.684603 3.05011 0
M  V30 7673 H 712.724 1.75431 3.53012 0
M  V30 7674 H 714.012 1.83614 4.74514 0
M  V30 7675 H 713.41 -1.24994 5.51718 0
M  V30 7676 H 711.967 -1.06283 6.43076 0
M  V30 7677 N 715.4 -1.26948 0.933913 0
M  V30 7678 C 716.31 -2.30366 0.443671 0
M  V30 7679 C 717.326 -1.67284 -0.478745 0
M  V30 7680 O 718.502 -1.98156 -0.360043 0
M  V30 7681 C 715.567 -3.45485 -0.289974 0
M  V30 7682 C 714.628 -4.24069 0.668114 0
M  V30 7683 C 713.861 -5.33691 -0.0306138 0
M  V30 7684 O 714.084 -5.5656 -1.24888 0
M  V30 7685 O 713.018 -5.98441 0.644384 0
M  V30 7686 H 716.844 -2.74349 1.30254 0
M  V30 7687 H 714.429 -1.32012 0.699506 0
M  V30 7688 H 716.311 -4.15486 -0.70353 0
M  V30 7689 H 714.986 -3.03546 -1.12435 0
M  V30 7690 H 713.893 -3.56579 1.13147 0
M  V30 7691 H 715.226 -4.69739 1.46989 0
M  V30 7692 N 716.879 -0.700114 -1.41195 0
M  V30 7693 C 717.827 -0.0263301 -2.32585 0
M  V30 7694 C 718.821 0.763683 -1.51209 0
M  V30 7695 O 720.027 0.668793 -1.67114 0
M  V30 7696 H 716.402 0.0102869 -0.75193 0
M  V30 7697 H 718.373 -0.814087 -2.8708 0
M  V30 7698 C 717.122 0.892793 -3.36042 0
M  V30 7699 H 716.445 0.294306 -3.98715 0
M  V30 7700 H 717.885 1.33247 -4.02518 0
M  V30 7701 C 716.344 2.01109 -2.7029 0
M  V30 7702 O 716.874 3.10035 -2.55423 0
M  V30 7703 N 715.08 1.79015 -2.28915 0
M  V30 7704 H 714.627 0.904275 -2.41207 0
M  V30 7705 H 714.585 2.54022 -1.85257 0
M  V30 7706 N 718.357 1.51182 -0.445186 0
M  V30 7707 C 719.604 2.02152 0.118645 0
M  V30 7708 C 719.932 1.32888 1.42025 0
M  V30 7709 O 719.187 0.435041 1.90803 0
M  V30 7710 C 719.486 3.55408 0.376797 0
M  V30 7711 C 719.152 4.43008 -0.839945 0
M  V30 7712 C 717.814 4.66669 -1.17361 0
M  V30 7713 C 720.166 4.9435 -1.65127 0
M  V30 7714 C 717.494 5.38919 -2.31913 0
M  V30 7715 C 719.846 5.67857 -2.78786 0
M  V30 7716 C 718.51 5.89779 -3.12597 0
M  V30 7717 H 717.78 0.739727 0.0434152 0
M  V30 7718 H 720.427 1.82055 -0.593984 0
M  V30 7719 H 718.732 3.73879 1.1714 0
M  V30 7720 H 720.429 3.92388 0.826602 0
M  V30 7721 H 717.019 4.24793 -0.569958 0
M  V30 7722 H 721.203 4.75947 -1.4067 0
M  V30 7723 H 716.459 5.54105 -2.58413 0
M  V30 7724 H 720.633 6.06628 -3.42017 0
M  V30 7725 H 718.26 6.45542 -4.01471 0
M  V30 7726 N 719.835 0.176821 1.56605 0
M  V30 7727 C 720.765 -0.746841 2.21234 0
M  V30 7728 C 721.746 -1.23502 1.16967 0
M  V30 7729 O 722.931 -1.28718 1.45414 0
M  V30 7730 C 720.061 -1.97407 2.8574 0
M  V30 7731 C 719.015 -1.62153 3.96094 0
M  V30 7732 C 718.341 -2.92387 4.47676 0
M  V30 7733 C 719.641 -0.845353 5.15413 0
M  V30 7734 H 721.335 -0.208116 2.98676 0
M  V30 7735 H 718.881 -0.0986594 1.43662 0
M  V30 7736 H 720.834 -2.62531 3.2963 0
M  V30 7737 H 719.558 -2.53703 2.05676 0
M  V30 7738 H 718.217 -0.993964 3.52868 0
M  V30 7739 H 717.865 -3.46734 3.64396 0
M  V30 7740 H 717.565 -2.69551 5.22127 0
M  V30 7741 H 719.089 -3.5853 4.94255 0
M  V30 7742 H 720.503 -1.39929 5.55961 0
M  V30 7743 H 718.9 -0.715814 5.95815 0
M  V30 7744 H 719.97 0.157239 4.84645 0
M  V30 7745 N 721.313 -1.57302 -0.09688 0
M  V30 7746 C 722.724 -1.7496 -0.651595 0
M  V30 7747 C 723.075 -0.798746 -1.79205 0
M  V30 7748 O 722.2 0.0231858 -2.16388 0
M  V30 7749 C 722.795 -3.17259 -1.18878 0
M  V30 7750 C 721.354 -3.36348 -1.68958 0
M  V30 7751 C 720.501 -2.70766 -0.598413 0
M  V30 7752 H 723.452 -1.58173 0.12918 0
M  V30 7753 H 723.473 -3.20033 -2.05814 0
M  V30 7754 H 722.985 -3.8644 -0.358523 0
M  V30 7755 H 721.086 -2.72243 -2.5439 0
M  V30 7756 H 721.199 -4.44654 -1.7838 0
M  V30 7757 H 719.563 -2.32615 -1.03743 0
M  V30 7758 H 720.346 -3.42586 0.221238 0
M  V30 7759 N 722.791 0.367657 -1.53252 0
M  V30 7760 C 724.068 1.12606 -1.59935 0
M  V30 7761 C 724.448 2.07167 -0.405606 0
M  V30 7762 O 723.796 2.20364 0.604323 0
M  V30 7763 C 724.006 1.86699 -2.94863 0
M  V30 7764 C 725.354 2.41306 -3.49366 0
M  V30 7765 O 726.378 1.96828 -2.96879 0
M  V30 7766 O 725.237 3.2261 -4.41118 0
M  V30 7767 H 722.331 0.516438 -0.645926 0
M  V30 7768 H 724.877 0.371088 -1.65593 0
M  V30 7769 H 723.649 1.17674 -3.73187 0
M  V30 7770 H 723.272 2.6911 -2.92687 0
M  V30 7771 N 724.269 1.44576 0.627338 0
M  V30 7772 C 725.518 1.46837 1.38281 0
M  V30 7773 C 725.831 0.10635 1.95311 0
M  V30 7774 O 727.037 0.00651084 2.71499 0
M  V30 7775 C 725.493 2.58527 2.50384 0
M  V30 7776 C 725.101 4.00953 1.99851 0
M  V30 7777 C 726.845 2.70013 3.27557 0
M  V30 7778 C 724.752 5.0406 3.09318 0
M  V30 7779 H 723.682 0.546319 0.519664 0
M  V30 7780 H 726.333 1.70654 0.674497 0
M  V30 7781 H 724.715 2.27957 3.23808 0
M  V30 7782 H 725.889 4.41108 1.33267 0
M  V30 7783 H 724.204 3.93743 1.35482 0
M  V30 7784 H 726.801 3.44217 4.09168 0
M  V30 7785 H 727.144 1.75961 3.77284 0
M  V30 7786 H 727.677 3.00011 2.61224 0
M  V30 7787 H 724.416 5.99753 2.6453 0
M  V30 7788 H 723.936 4.68493 3.74532 0
M  V30 7789 H 725.615 5.2793 3.74031 0
M  V30 7790 N 725.747 -0.868086 1.31537 0
M  V30 7791 C 726.994 -1.62127 1.2133 0
M  V30 7792 C 727.322 -1.93158 -0.2281 0
M  V30 7793 O 726.577 -1.5632 -1.1774 0
M  V30 7794 C 726.876 -2.95889 2.0046 0
M  V30 7795 C 726.542 -2.84343 3.49943 0
M  V30 7796 C 725.204 -2.80901 3.90702 0
M  V30 7797 C 727.556 -2.71243 4.45058 0
M  V30 7798 C 724.884 -2.6222 5.24841 0
M  V30 7799 C 727.236 -2.54098 5.79325 0
M  V30 7800 C 725.9 -2.4904 6.19302 0
M  V30 7801 H 725.17 -0.593265 0.443979 0
M  V30 7802 H 727.817 -1.00803 1.62822 0
M  V30 7803 H 726.122 -3.61259 1.51655 0
M  V30 7804 H 727.819 -3.53161 1.89942 0
M  V30 7805 H 724.409 -2.8784 3.17563 0
M  V30 7806 H 728.593 -2.72956 4.14498 0
M  V30 7807 H 723.849 -2.56731 5.54887 0
M  V30 7808 H 728.023 -2.42938 6.52652 0
M  V30 7809 H 725.65 -2.34324 7.23185 0
M  V30 7810 N 727.225 -1.14528 -1.08264 0
M  V30 7811 C 728.453 -0.937964 -1.84418 0
M  V30 7812 C 728.868 0.51357 -1.81681 0
M  V30 7813 O 728.225 1.35591 -1.22153 0
M  V30 7814 C 728.276 -1.43272 -3.31897 0
M  V30 7815 O 727.997 -2.82738 -3.34651 0
M  V30 7816 C 729.498 -1.26555 -4.24851 0
M  V30 7817 H 726.718 -0.333704 -0.582136 0
M  V30 7818 H 729.262 -1.52076 -1.36723 0
M  V30 7819 H 727.417 -0.892653 -3.76975 0
M  V30 7820 H 727.831 -3.04971 -4.26724 0
M  V30 7821 H 729.305 -1.66031 -5.26439 0
M  V30 7822 H 729.782 -0.208589 -4.38704 0
M  V30 7823 H 730.388 -1.79423 -3.856 0
M  V30 7824 N 728.703 1.26451 -0.940633 0
M  V30 7825 C 729.613 2.30128 -0.455881 0
M  V30 7826 C 730.629 1.67536 0.469867 0
M  V30 7827 O 731.805 1.98344 0.349529 0
M  V30 7828 C 728.87 3.45634 0.271648 0
M  V30 7829 C 727.931 4.23709 -0.690594 0
M  V30 7830 C 727.164 5.337 0.00231047 0
M  V30 7831 O 727.387 5.57215 1.21935 0
M  V30 7832 O 726.321 5.98091 -0.676111 0
M  V30 7833 H 730.147 2.73655 -1.31707 0
M  V30 7834 H 727.732 1.3164 -0.706497 0
M  V30 7835 H 729.614 4.15853 0.681486 0
M  V30 7836 H 728.289 3.04138 1.10824 0
M  V30 7837 H 727.196 3.55974 -1.15037 0
M  V30 7838 H 728.529 4.68953 -1.49478 0
M  V30 7839 N 730.181 0.707592 1.40822 0
M  V30 7840 C 731.111 0.0644925 2.33411 0
M  V30 7841 C 732.092 -0.754205 1.52466 0
M  V30 7842 O 733.277 -0.704749 1.80961 0
M  V30 7843 C 730.407 -0.863865 3.36385 0
M  V30 7844 C 729.361 -0.15138 4.27732 0
M  V30 7845 C 728.687 -1.19491 5.21177 0
M  V30 7846 C 729.987 0.989607 5.12839 0
M  V30 7847 H 731.681 0.837829 2.87438 0
M  V30 7848 H 729.227 0.404346 1.38207 0
M  V30 7849 H 731.18 -1.32309 4.0009 0
M  V30 7850 H 729.904 -1.66901 2.80734 0
M  V30 7851 H 728.563 0.287937 3.65467 0
M  V30 7852 H 728.211 -1.9929 4.61836 0
M  V30 7853 H 727.911 -0.723123 5.83134 0
M  V30 7854 H 729.435 -1.6544 5.8776 0
M  V30 7855 H 730.849 0.610114 5.70044 0
M  V30 7856 H 729.246 1.38926 5.83798 0
M  V30 7857 H 730.316 1.82389 4.49291 0
M  V30 7858 N 731.66 -1.50943 0.453197 0
M  V30 7859 C 733.076 -1.59245 0.106342 0
M  V30 7860 C 733.276 -1.46287 -1.38572 0
M  V30 7861 O 732.332 -1.31219 -2.15726 0
M  V30 7862 C 733.645 -2.93797 0.640595 0
M  V30 7863 C 735.193 -3.07148 0.602435 0
M  V30 7864 C 735.668 -4.44247 1.11393 0
M  V30 7865 N 737.159 -4.50611 1.07258 0
M  V30 7866 C 737.894 -5.55049 1.43905 0
M  V30 7867 N 737.39 -6.66828 1.87914 0
M  V30 7868 N 739.183 -5.45494 1.35621 0
M  V30 7869 H 731.334 -1.5761 1.42382 0
M  V30 7870 H 733.597 -0.74384 0.587713 0
M  V30 7871 H 733.303 -3.087 1.68515 0
M  V30 7872 H 733.177 -3.77127 0.0742272 0
M  V30 7873 H 735.564 -2.91903 -0.433171 0
M  V30 7874 H 735.645 -2.25619 1.20539 0
M  V30 7875 H 735.289 -4.60239 2.14808 0
M  V30 7876 H 735.219 -5.2434 0.487353 0
M  V30 7877 H 737.71 -3.70391 0.749585 0
M  V30 7878 H 738.023 -7.42558 2.14072 0
M  V30 7879 H 736.368 -6.67995 1.91853 0
M  V30 7880 H 739.559 -4.57053 1.01093 0
M  V30 7881 H 739.732 -6.2677 1.64508 0
M  V30 7882 N 733.138 -0.185124 -1.56509 0
M  V30 7883 C 734.086 0.756505 -2.19954 0
M  V30 7884 C 735.08 1.22725 -1.16769 0
M  V30 7885 O 736.286 1.1913 -1.34937 0
M  V30 7886 H 732.661 0.262279 -0.704779 0
M  V30 7887 H 734.632 0.197587 -2.97745 0
M  V30 7888 C 733.381 1.96975 -2.86524 0
M  V30 7889 H 732.704 1.61658 -3.65659 0
M  V30 7890 H 734.144 2.60719 -3.34367 0
M  V30 7891 C 732.603 2.80219 -1.87027 0
M  V30 7892 O 733.133 3.77821 -1.36433 0
M  V30 7893 N 731.339 2.4551 -1.55477 0
M  V30 7894 H 730.886 1.66199 -1.96813 0
M  V30 7895 H 730.844 3.01493 -0.891597 0
M  V30 7896 N 734.616 1.57351 0.0885366 0
M  V30 7897 C 735.546 2.05561 1.10757 0
M  V30 7898 C 736.527 0.945789 1.41382 0
M  V30 7899 O 737.712 1.21747 1.51299 0
M  V30 7900 C 734.842 2.48554 2.42566 0
M  V30 7901 C 733.796 3.63259 2.26334 0
M  V30 7902 C 733.122 3.9225 3.63378 0
M  V30 7903 C 734.422 4.93913 1.69844 0
M  V30 7904 H 736.116 2.90946 0.706468 0
M  V30 7905 H 733.662 1.39968 0.338385 0
M  V30 7906 H 735.615 2.8089 3.14132 0
M  V30 7907 H 734.339 1.60176 2.84625 0
M  V30 7908 H 732.998 3.31179 1.57213 0
M  V30 7909 H 732.646 3.0103 4.02976 0
M  V30 7910 H 732.346 4.69478 3.53362 0
M  V30 7911 H 733.87 4.27067 4.36401 0
M  V30 7912 H 735.284 5.24588 2.31258 0
M  V30 7913 H 733.681 5.75349 1.70569 0
M  V30 7914 H 734.751 4.80409 0.65843 0
M  V30 7915 N 736.094 -0.359525 1.53444 0
M  V30 7916 C 737.322 -1.12198 1.73837 0
M  V30 7917 C 737.737 -1.82854 0.470107 0
M  V30 7918 O 737.094 -1.73781 -0.557349 0
M  V30 7919 C 737.145 -2.14769 2.90786 0
M  V30 7920 O 736.866 -1.46989 4.12706 0
M  V30 7921 C 738.367 -3.03514 3.231 0
M  V30 7922 H 735.587 -0.33524 0.581253 0
M  V30 7923 H 738.131 -0.416598 2.00212 0
M  V30 7924 H 736.286 -2.80896 2.66788 0
M  V30 7925 H 736.7 -2.15378 4.78239 0
M  V30 7926 H 738.174 -3.71453 4.08322 0
M  V30 7927 H 738.651 -3.68658 2.38721 0
M  V30 7928 H 739.257 -2.42996 3.49046 0
M  V30 7929 N 737.572 -1.44907 -0.619662 0
M  V30 7930 C 738.819 -1.48292 -1.37898 0
M  V30 7931 C 739.147 -0.119933 -1.9413 0
M  V30 7932 O 738.402 0.879834 -1.74807 0
M  V30 7933 C 738.701 -2.50002 -2.55409 0
M  V30 7934 C 738.367 -3.95031 -2.17397 0
M  V30 7935 C 737.029 -4.34524 -2.06743 0
M  V30 7936 C 739.381 -4.86287 -1.87548 0
M  V30 7937 C 736.709 -5.63183 -1.64445 0
M  V30 7938 C 739.061 -6.15346 -1.4674 0
M  V30 7939 C 737.725 -6.53781 -1.34636 0
M  V30 7940 H 736.995 -0.542638 -0.504603 0
M  V30 7941 H 739.642 -1.78186 -0.701581 0
M  V30 7942 H 737.947 -2.13634 -3.28433 0
M  V30 7943 H 739.644 -2.49864 -3.13639 0
M  V30 7944 H 736.234 -3.63793 -2.26611 0
M  V30 7945 H 740.418 -4.56522 -1.94682 0
M  V30 7946 H 735.674 -5.91769 -1.53687 0
M  V30 7947 H 739.848 -6.85508 -1.22685 0
M  V30 7948 H 737.475 -7.53375 -1.01634 0
M  V30 7949 N 739.05 0.861098 -1.31996 0
M  V30 7950 C 739.98 1.98482 -1.22993 0
M  V30 7951 C 740.961 1.6971 -0.115168 0
M  V30 7952 O 742.146 1.91849 -0.30126 0
M  V30 7953 C 739.276 3.34179 -0.945615 0
M  V30 7954 C 738.23 3.77284 -2.02091 0
M  V30 7955 C 737.556 5.1054 -1.58912 0
M  V30 7956 C 738.856 3.93439 -3.43515 0
M  V30 7957 H 740.55 2.06271 -2.17008 0
M  V30 7958 H 738.096 0.991043 -1.04472 0
M  V30 7959 H 740.049 4.12338 -0.869206 0
M  V30 7960 H 738.773 3.26586 0.0301849 0
M  V30 7961 H 737.432 3.01371 -2.08737 0
M  V30 7962 H 737.08 4.99397 -0.600942 0
M  V30 7963 H 736.78 5.40352 -2.30854 0
M  V30 7964 H 738.304 5.91199 -1.52696 0
M  V30 7965 H 739.718 4.6197 -3.39495 0
M  V30 7966 H 738.115 4.34661 -4.13751 0
M  V30 7967 H 739.185 2.96548 -3.8365 0
M  V30 7968 N 740.528 1.15101 1.07655 0
M  V30 7969 C 741.805 0.834578 1.76902 0
M  V30 7970 C 742.185 -0.670431 2.00171 0
M  V30 7971 O 741.533 -1.61378 1.6177 0
M  V30 7972 C 741.743 1.64191 3.07965 0
M  V30 7973 C 743.091 1.84615 3.82364 0
M  V30 7974 O 744.115 1.60941 3.17768 0
M  V30 7975 O 742.974 2.24244 4.98374 0
M  V30 7976 H 740.068 0.306608 0.768063 0
M  V30 7977 H 742.614 1.25663 1.14048 0
M  V30 7978 H 741.386 2.66386 2.86626 0
M  V30 7979 H 741.009 1.216 3.78549 0
M  V30 7980 N 742.006 -1.2595 0.947325 0
M  V30 7981 C 742.936 -2.28521 0.479604 0
M  V30 7982 C 743.917 -1.63469 -0.470293 0
M  V30 7983 O 745.102 -1.90627 -0.370824 0
M  V30 7984 C 742.232 -3.46397 -0.250289 0
M  V30 7985 C 741.186 -4.23578 0.613643 0
M  V30 7986 C 740.512 -5.34131 -0.246568 0
M  V30 7987 C 741.812 -4.86979 1.88809 0
M  V30 7988 H 743.506 -2.67895 1.33688 0
M  V30 7989 H 741.052 -1.28783 0.644274 0
M  V30 7990 H 743.005 -4.17269 -0.588576 0
M  V30 7991 H 741.729 -3.05993 -1.14175 0
M  V30 7992 H 740.388 -3.54478 0.93491 0
M  V30 7993 H 740.036 -4.89968 -1.13756 0
M  V30 7994 H 739.736 -5.86683 0.328123 0
M  V30 7995 H 741.26 -6.07839 -0.579986 0
M  V30 7996 H 742.674 -5.50034 1.61666 0
M  V30 7997 H 741.071 -5.49675 2.40784 0
M  V30 7998 H 742.141 -4.09575 2.5957 0
M  V30 7999 N 743.484 -0.715051 -1.40445 0
M  V30 8000 C 744.709 -0.26254 -2.05732 0
M  V30 8001 C 745.134 1.08691 -1.53519 0
M  V30 8002 O 744.492 1.68453 -0.670328 0
M  V30 8003 C 744.54 -0.25195 -3.59719 0
M  V30 8004 O 743.644 0.766998 -4.05205 0
M  V30 8005 H 742.985 -0.123398 -0.652433 0
M  V30 8006 H 745.515 -0.975382 -1.79854 0
M  V30 8007 H 745.525 -0.0894537 -4.07902 0
M  V30 8008 H 744.2 -1.23672 -3.97087 0
M  V30 8009 H 742.777 0.572269 -3.68483 0
M  V30 8010 N 744.962 1.50701 -0.461195 0
M  V30 8011 C 745.894 2.26124 0.374244 0
M  V30 8012 C 746.907 1.31064 0.965715 0
M  V30 8013 O 748.096 1.56647 0.855801 0
M  V30 8014 C 745.196 3.01996 1.5379 0
M  V30 8015 C 744.369 4.24336 1.06101 0
M  V30 8016 C 743.428 4.82585 2.09756 0
M  V30 8017 O 742.454 5.43775 1.68219 0
M  V30 8018 N 743.656 4.68712 3.42475 0
M  V30 8019 H 746.421 2.9846 -0.2723 0
M  V30 8020 H 743.982 1.59256 -0.291415 0
M  V30 8021 H 745.974 3.37846 2.22806 0
M  V30 8022 H 744.544 2.32521 2.08933 0
M  V30 8023 H 743.764 3.93707 0.197085 0
M  V30 8024 H 745.052 5.03678 0.720156 0
M  V30 8025 H 744.45 4.20026 3.78938 0
M  V30 8026 H 743.007 5.08858 4.07317 0
M  V30 8027 N 746.441 0.193421 1.56409 0
M  V30 8028 C 747.681 -0.447977 1.9943 0
M  V30 8029 C 748.045 -1.58915 1.07751 0
M  V30 8030 O 749.246 -2.29462 1.40002 0
M  V30 8031 C 747.517 -0.89793 3.45936 0
M  V30 8032 S 749.076 -1.5374 4.10986 0
M  V30 8033 H 745.894 -0.143316 0.696406 0
M  V30 8034 H 748.496 0.296093 1.93245 0
M  V30 8035 H 747.2 -0.0572927 4.1036 0
M  V30 8036 H 746.731 -1.67551 3.55936 0
M  V30 8037 H 748.746 -2.82612 4.07854 0
M  V30 8038 N 747.919 -1.57396 -0.0801906 0
M  V30 8039 C 748.851 -1.9982 -1.12271 0
M  V30 8040 C 749.864 -0.902902 -1.35468 0
M  V30 8041 O 751.053 -1.18088 -1.33856 0
M  V30 8042 C 748.153 -2.31476 -2.47532 0
M  V30 8043 C 747.326 -3.62745 -2.44407 0
M  V30 8044 C 746.385 -3.82168 -3.6171 0
M  V30 8045 O 745.411 -4.53852 -3.43522 0
M  V30 8046 N 746.613 -3.2388 -4.81749 0
M  V30 8047 H 749.378 -2.89864 -0.761501 0
M  V30 8048 H 746.939 -1.5965 -0.268965 0
M  V30 8049 H 748.931 -2.4165 -3.24634 0
M  V30 8050 H 747.501 -1.47364 -2.75686 0
M  V30 8051 H 746.721 -3.63403 -1.52747 0
M  V30 8052 H 748.009 -4.48954 -2.39412 0
M  V30 8053 H 747.407 -2.6568 -4.9943 0
M  V30 8054 H 745.964 -3.39515 -5.56392 0
M  V30 8055 N 749.397 0.351382 -1.53633 0
M  V30 8056 C 750.327 1.43688 -1.84055 0
M  V30 8057 C 751.308 1.55251 -0.695073 0
M  V30 8058 O 752.493 1.69587 -0.946257 0
M  V30 8059 C 749.623 2.80843 -2.04315 0
M  V30 8060 C 748.577 2.84094 -3.20117 0
M  V30 8061 C 747.903 4.2406 -3.25696 0
M  V30 8062 C 749.203 2.50334 -4.58399 0
M  V30 8063 H 750.897 1.18478 -2.74961 0
M  V30 8064 H 748.443 0.568509 -1.32303 0
M  V30 8065 H 750.396 3.56821 -2.2418 0
M  V30 8066 H 749.12 3.07471 -1.10132 0
M  V30 8067 H 747.779 2.10568 -3.00094 0
M  V30 8068 H 747.427 4.47785 -2.29123 0
M  V30 8069 H 747.127 4.27147 -4.03509 0
M  V30 8070 H 748.651 5.0189 -3.47762 0
M  V30 8071 H 750.065 3.16025 -4.78332 0
M  V30 8072 H 748.462 2.64717 -5.38558 0
M  V30 8073 H 749.532 1.45542 -4.62543 0
M  V30 8074 N 750.875 1.45233 0.611969 0
M  V30 8075 C 751.785 1.56098 1.7513 0
M  V30 8076 C 752.801 0.445646 1.68196 0
M  V30 8077 O 753.977 0.705718 1.88631 0
M  V30 8078 C 751.042 1.52052 3.11579 0
M  V30 8079 C 750.103 2.74589 3.29999 0
M  V30 8080 C 749.336 2.70726 4.59938 0
M  V30 8081 O 749.559 1.77806 5.41979 0
M  V30 8082 O 748.493 3.61864 4.80976 0
M  V30 8083 H 752.319 2.52392 1.68914 0
M  V30 8084 H 749.904 1.27695 0.775528 0
M  V30 8085 H 751.786 1.52387 3.92882 0
M  V30 8086 H 750.461 0.589085 3.18295 0
M  V30 8087 H 749.368 2.79817 2.48301 0
M  V30 8088 H 750.701 3.66843 3.28157 0
M  V30 8089 N 752.353 -0.854086 1.3245 0
M  V30 8090 C 753.285 -1.96932 1.17262 0
M  V30 8091 C 754.298 -1.62445 0.107469 0
M  V30 8092 O 755.487 -1.74904 0.356481 0
M  V30 8093 C 752.587 -3.29971 0.772817 0
M  V30 8094 C 751.76 -3.92695 1.92638 0
M  V30 8095 C 750.819 -5.04068 1.51003 0
M  V30 8096 O 749.845 -5.24032 2.22213 0
M  V30 8097 N 751.047 -5.79076 0.406371 0
M  V30 8098 H 753.812 -2.10503 2.13327 0
M  V30 8099 H 751.373 -1.02897 1.24995 0
M  V30 8100 H 753.365 -4.01883 0.476684 0
M  V30 8101 H 751.935 -3.1245 -0.0967 0
M  V30 8102 H 751.155 -3.13563 2.38897 0
M  V30 8103 H 752.443 -4.31337 2.69863 0
M  V30 8104 H 751.841 -5.65393 -0.186302 0
M  V30 8105 H 750.398 -6.51579 0.169846 0
M  V30 8106 N 753.831 -1.1567 -1.07043 0
M  V30 8107 C 754.761 -0.879348 -2.16309 0
M  V30 8108 C 755.742 0.171311 -1.69235 0
M  V30 8109 O 756.927 0.0250175 -1.94184 0
M  V30 8110 C 754.057 -0.371307 -3.45309 0
M  V30 8111 C 753.011 -1.359 -4.05851 0
M  V30 8112 C 752.337 -0.709678 -5.29969 0
M  V30 8113 C 753.637 -2.72606 -4.45514 0
M  V30 8114 H 755.331 -1.79308 -2.39768 0
M  V30 8115 H 752.877 -0.863558 -1.15233 0
M  V30 8116 H 754.83 -0.164798 -4.21078 0
M  V30 8117 H 753.554 0.577906 -3.21446 0
M  V30 8118 H 752.213 -1.55193 -3.32131 0
M  V30 8119 H 751.861 0.245782 -5.02399 0
M  V30 8120 H 751.561 -1.36886 -5.71433 0
M  V30 8121 H 753.085 -0.513015 -6.08441 0
M  V30 8122 H 754.499 -2.57141 -5.12398 0
M  V30 8123 H 752.896 -3.34927 -4.97939 0
M  V30 8124 H 753.966 -3.28434 -3.56734 0
M  V30 8125 N 755.309 1.25446 -0.953992 0
M  V30 8126 C 756.534 1.97755 -0.625129 0
M  V30 8127 C 756.959 1.70437 0.795787 0
M  V30 8128 O 756.317 0.95992 1.53803 0
M  V30 8129 C 756.365 3.49463 -0.889251 0
M  V30 8130 O 755.469 4.12387 0.0322757 0
M  V30 8131 H 754.81 0.61998 -0.237742 0
M  V30 8132 H 757.34 1.59582 -1.28041 0
M  V30 8133 H 757.35 3.99772 -0.815263 0
M  V30 8134 H 756.025 3.68676 -1.92487 0
M  V30 8135 H 754.602 3.72782 -0.0938625 0
M  V30 8136 N 756.787 0.722489 1.40064 0
M  V30 8137 C 758.198 0.336507 1.83642 0
M  V30 8138 C 758.549 -1.13002 1.6039 0
M  V30 8139 O 757.674 -1.87036 1.08842 0
M  V30 8140 C 758.269 0.603985 3.33373 0
M  V30 8141 C 756.828 0.271637 3.75419 0
M  V30 8142 C 755.975 0.872898 2.63203 0
M  V30 8143 H 758.926 0.921108 1.29233 0
M  V30 8144 H 758.947 -0.128471 3.80283 0
M  V30 8145 H 758.459 1.67141 3.50265 0
M  V30 8146 H 756.56 -0.790455 3.64119 0
M  V30 8147 H 756.673 0.745457 4.73265 0
M  V30 8148 H 755.037 0.300431 2.52922 0
M  V30 8149 H 755.82 1.94473 2.82905 0
M  V30 8150 N 758.265 -1.50454 0.469181 0
M  V30 8151 C 759.493 -2.06729 -0.0842134 0
M  V30 8152 C 759.908 -1.33326 -1.33677 0
M  V30 8153 O 759.265 -0.401977 -1.78018 0
M  V30 8154 C 759.316 -3.59557 -0.374253 0
M  V30 8155 O 759.037 -4.30192 0.828622 0
M  V30 8156 C 760.538 -4.32449 -0.974824 0
M  V30 8157 H 757.758 -0.670971 0.006231 0
M  V30 8158 H 760.302 -1.93645 0.657415 0
M  V30 8159 H 758.457 -3.7245 -1.06581 0
M  V30 8160 H 758.871 -5.21371 0.572066 0
M  V30 8161 H 760.345 -5.40361 -1.12755 0
M  V30 8162 H 760.822 -3.92819 -1.96442 0
M  V30 8163 H 761.428 -4.24082 -0.321703 0
M  V30 8164 N 759.743 -0.201713 -1.56304 0
M  V30 8165 C 760.706 0.702811 -2.18159 0
M  V30 8166 C 761.706 1.13619 -1.13787 0
M  V30 8167 O 762.896 1.0482 -1.39134 0
M  V30 8168 C 760.028 1.96032 -2.78898 0
M  V30 8169 H 761.221 0.163836 -2.99452 0
M  V30 8170 H 758.774 0.04791 -1.56227 0
M  V30 8171 H 759.509 2.54165 -2.01421 0
M  V30 8172 H 759.294 1.65824 -3.55309 0
M  V30 8173 H 760.784 2.60519 -3.26373 0
M  V30 8174 N 761.222 1.57436 0.0718424 0
M  V30 8175 C 762.469 1.87248 0.771007 0
M  V30 8176 C 762.797 0.793441 1.7758 0
M  V30 8177 O 762.052 -0.210565 1.94564 0
M  V30 8178 C 762.351 3.23723 1.51455 0
M  V30 8179 C 762.017 4.46194 0.649736 0
M  V30 8180 C 760.679 4.79438 0.411409 0
M  V30 8181 C 763.031 5.21176 0.05004 0
M  V30 8182 C 760.359 5.85077 -0.436096 0
M  V30 8183 C 762.711 6.27712 -0.784919 0
M  V30 8184 C 761.375 6.59457 -1.03312 0
M  V30 8185 H 760.645 0.685188 0.282132 0
M  V30 8186 H 763.292 1.91474 0.0317896 0
M  V30 8187 H 761.597 3.15287 2.32597 0
M  V30 8188 H 763.294 3.44023 2.06031 0
M  V30 8189 H 759.884 4.20175 0.84562 0
M  V30 8190 H 764.068 4.95806 0.221282 0
M  V30 8191 H 759.324 6.08071 -0.637136 0
M  V30 8192 H 763.498 6.84974 -1.25635 0
M  V30 8193 H 761.125 7.4114 -1.6916 0
M  V30 8194 N 762.7 -0.34323 1.53817 0
M  V30 8195 C 763.648 -1.44176 1.82527 0
M  V30 8196 C 764.642 -1.54452 0.695772 0
M  V30 8197 O 765.848 -1.57072 0.879114 0
M  V30 8198 H 762.223 -0.480729 0.578277 0
M  V30 8199 H 764.194 -1.17176 2.74431 0
M  V30 8200 C 762.943 -2.80695 2.05197 0
M  V30 8201 H 762.266 -2.73554 2.91561 0
M  V30 8202 H 763.706 -3.56679 2.29251 0
M  V30 8203 C 762.165 -3.26322 0.837589 0
M  V30 8204 O 762.695 -4.01683 0.0371631 0
M  V30 8205 N 760.901 -2.83128 0.654724 0
M  V30 8206 H 760.448 -2.21965 1.30725 0
M  V30 8207 H 760.406 -3.14011 -0.156345 0
M  V30 8208 N 764.178 -1.45556 -0.604258 0
M  V30 8209 C 765.403 -1.53509 -1.39462 0
M  V30 8210 C 765.828 -0.169638 -1.87333 0
M  V30 8211 O 765.186 0.846346 -1.60333 0
M  V30 8212 C 765.234 -2.52654 -2.5729 0
M  V30 8213 O 764.338 -2.04666 -3.5803 0
M  V30 8214 H 763.679 -0.517355 -0.416221 0
M  V30 8215 H 766.209 -1.90939 -0.735072 0
M  V30 8216 H 766.219 -2.71568 -3.04491 0
M  V30 8217 H 764.894 -3.51823 -2.21797 0
M  V30 8218 H 763.471 -1.95643 -3.17456 0
M  V30 8219 N 765.656 0.84705 -1.32902 0
M  V30 8220 C 766.586 1.97166 -1.25091 0
M  V30 8221 C 767.567 1.69578 -0.133161 0
M  V30 8222 O 768.752 1.91519 -0.321591 0
M  V30 8223 C 765.882 3.33157 -0.981006 0
M  V30 8224 C 764.836 3.75119 -2.06082 0
M  V30 8225 C 764.162 5.08826 -1.64318 0
M  V30 8226 C 765.462 3.89774 -3.47669 0
M  V30 8227 H 767.156 2.03958 -2.19184 0
M  V30 8228 H 764.702 0.979907 -1.05517 0
M  V30 8229 H 766.655 4.11393 -0.912891 0
M  V30 8230 H 765.379 3.266 -0.00445559 0
M  V30 8231 H 764.038 2.9914 -2.11921 0
M  V30 8232 H 763.686 4.98732 -0.653876 0
M  V30 8233 H 763.386 5.37873 -2.36572 0
M  V30 8234 H 764.91 5.89546 -1.58958 0
M  V30 8235 H 766.324 4.58343 -3.44376 0
M  V30 8236 H 764.721 4.30248 -4.18338 0
M  V30 8237 H 765.791 2.92463 -3.86773 0
M  V30 8238 N 767.134 1.16236 1.06428 0
M  V30 8239 C 768.359 0.967688 1.83441 0
M  V30 8240 C 768.784 -0.479167 1.81894 0
M  V30 8241 O 768.142 -1.34224 1.21875 0
M  V30 8242 C 768.19 1.49806 3.2801 0
M  V30 8243 O 767.294 0.703481 4.06356 0
M  V30 8244 H 766.635 0.344468 0.56766 0
M  V30 8245 H 769.165 1.54442 1.34197 0
M  V30 8246 H 769.175 1.51495 3.78831 0
M  V30 8247 H 767.85 2.55133 3.2845 0
M  V30 8248 H 766.427 0.756986 3.65136 0
M  V30 8249 N 768.612 -1.24939 0.960631 0
M  V30 8250 C 769.837 -1.9742 0.635608 0
M  V30 8251 C 770.262 -1.70857 -0.786737 0
M  V30 8252 O 769.62 -0.968063 -1.53291 0
M  V30 8253 C 769.668 -3.48987 0.907771 0
M  V30 8254 O 768.772 -4.12399 -0.0104053 0
M  V30 8255 H 768.113 -0.61871 0.241027 0
M  V30 8256 H 770.643 -1.58901 1.28886 0
M  V30 8257 H 770.653 -3.99334 0.836453 0
M  V30 8258 H 769.328 -3.6765 1.94439 0
M  V30 8259 H 767.905 -3.72727 0.113631 0
M  V30 8260 N 770.09 -0.729906 -1.39679 0
M  V30 8261 C 771.02 -0.101618 -2.33279 0
M  V30 8262 C 772.001 0.729854 -1.53646 0
M  V30 8263 O 773.186 0.67587 -1.82059 0
M  V30 8264 C 770.316 0.81024 -3.37716 0
M  V30 8265 C 769.27 0.0833126 -4.27919 0
M  V30 8266 C 768.596 1.11185 -5.23012 0
M  V30 8267 C 769.896 -1.07107 -5.112 0
M  V30 8268 H 771.59 -0.883452 -2.86069 0
M  V30 8269 H 769.136 -0.426283 -1.37546 0
M  V30 8270 H 771.089 1.25927 -4.02145 0
M  V30 8271 H 769.813 1.62413 -2.83354 0
M  V30 8272 H 768.472 -0.346043 -3.64963 0
M  V30 8273 H 768.12 1.91917 -4.64948 0
M  V30 8274 H 767.82 0.63026 -5.8421 0
M  V30 8275 H 769.344 1.56068 -5.90318 0
M  V30 8276 H 770.758 -0.700726 -5.69002 0
M  V30 8277 H 769.155 -1.48196 -5.81514 0
M  V30 8278 H 770.225 -1.89513 -4.46332 0
M  V30 8279 N 771.568 1.50203 -0.477153 0
M  V30 8280 C 772.5 2.26508 0.350239 0
M  V30 8281 C 773.513 1.32081 0.95176 0
M  V30 8282 O 774.702 1.57546 0.839139 0
M  V30 8283 C 771.802 3.0361 1.50579 0
M  V30 8284 C 770.975 4.25438 1.01595 0
M  V30 8285 C 770.034 4.84783 2.04626 0
M  V30 8286 O 769.06 5.45528 1.62442 0
M  V30 8287 N 770.262 4.72318 3.37485 0
M  V30 8288 H 773.027 2.98155 -0.30394 0
M  V30 8289 H 770.588 1.58938 -0.308289 0
M  V30 8290 H 772.58 3.4019 2.1921 0
M  V30 8291 H 771.15 2.34724 2.06455 0
M  V30 8292 H 770.37 3.93894 0.155316 0
M  V30 8293 H 771.658 5.04413 0.666694 0
M  V30 8294 H 771.056 4.24022 3.74462 0
M  V30 8295 H 769.613 5.13149 4.01897 0
M  V30 8296 N 773.046 0.209999 1.56195 0
M  V30 8297 C 774.292 -0.425442 1.98287 0
M  V30 8298 C 774.625 -1.60232 1.09724 0
M  V30 8299 O 773.9 -1.93902 0.152414 0
M  V30 8300 C 774.183 -0.871189 3.49403 0
M  V30 8301 C 774.036 0.308527 4.48741 0
M  V30 8302 C 775.355 -1.73146 4.04609 0
M  V30 8303 H 772.474 -0.153169 0.720908 0
M  V30 8304 H 775.116 0.303916 1.87554 0
M  V30 8305 H 773.266 -1.49266 3.58681 0
M  V30 8306 H 774.938 0.946487 4.51486 0
M  V30 8307 H 773.181 0.957878 4.23092 0
M  V30 8308 H 773.852 -0.0461143 5.51981 0
M  V30 8309 H 776.328 -1.2072 3.98203 0
M  V30 8310 H 775.204 -2.01228 5.10684 0
M  V30 8311 H 775.465 -2.69083 3.5078 0
M  V30 8312 N 774.524 -1.57472 -0.0634922 0
M  V30 8313 C 775.454 -2.07297 -1.07473 0
M  V30 8314 C 776.435 -0.968162 -1.39859 0
M  V30 8315 O 777.62 -1.24139 -1.49343 0
M  V30 8316 C 774.75 -2.52381 -2.38581 0
M  V30 8317 C 773.704 -3.66813 -2.20526 0
M  V30 8318 C 773.03 -3.97982 -3.57092 0
M  V30 8319 C 774.33 -4.96553 -1.61965 0
M  V30 8320 H 776.024 -2.92033 -0.660092 0
M  V30 8321 H 773.57 -1.40488 -0.316074 0
M  V30 8322 H 775.523 -2.85852 -3.09624 0
M  V30 8323 H 774.247 -1.64684 -2.8204 0
M  V30 8324 H 772.906 -3.33639 -1.51924 0
M  V30 8325 H 772.554 -3.07403 -3.98136 0
M  V30 8326 H 772.254 -4.7504 -3.45848 0
M  V30 8327 H 773.778 -4.33956 -4.29552 0
M  V30 8328 H 775.192 -5.28201 -2.22883 0
M  V30 8329 H 773.589 -5.7799 -1.61394 0
M  V30 8330 H 774.659 -4.81396 -0.581918 0
M  V30 8331 N 776.003 0.335068 -1.53997 0
M  V30 8332 C 776.951 1.43206 -1.83289 0
M  V30 8333 C 777.945 1.54081 -0.703953 0
M  V30 8334 O 779.151 1.56603 -0.887432 0
M  V30 8335 H 775.526 0.477655 -0.580818 0
M  V30 8336 H 777.497 1.15719 -2.75049 0
M  V30 8337 C 776.246 2.79602 -2.06683 0
M  V30 8338 H 775.569 2.72004 -2.93008 0
M  V30 8339 H 777.009 3.55459 -2.31139 0
M  V30 8340 C 775.468 3.25873 -0.854883 0
M  V30 8341 O 775.998 4.01657 -0.0584648 0
M  V30 8342 N 774.204 2.82777 -0.669729 0
M  V30 8343 H 773.751 2.21269 -1.31901 0
M  V30 8344 H 773.709 3.1409 0.13969 0
M  V30 8345 N 777.481 1.45874 0.596531 0
M  V30 8346 C 778.414 1.49889 1.72071 0
M  V30 8347 C 779.392 0.354224 1.58695 0
M  V30 8348 O 780.576 0.556355 1.80103 0
M  V30 8349 C 777.703 1.3644 3.10003 0
M  V30 8350 C 776.749 2.54913 3.41938 0
M  V30 8351 S 777.582 4.17336 3.35545 0
M  V30 8352 C 778.738 4.06372 4.76039 0
M  V30 8353 H 778.971 2.45005 1.68404 0
M  V30 8354 H 776.504 1.33592 0.77412 0
M  V30 8355 H 778.462 1.29368 3.89582 0
M  V30 8356 H 777.123 0.427762 3.11174 0
M  V30 8357 H 776.316 2.41458 4.42396 0
M  V30 8358 H 775.918 2.58904 2.69898 0
M  V30 8359 H 778.21 3.72199 5.66105 0
M  V30 8360 H 779.153 5.0678 4.9455 0
M  V30 8361 H 779.561 3.37846 4.52239 0
M  V30 8362 N 778.959 -0.83999 1.33349 0
M  V30 8363 C 780.184 -1.63249 1.27924 0
M  V30 8364 C 780.609 -1.87523 -0.147193 0
M  V30 8365 O 779.967 -1.43853 -1.10345 0
M  V30 8366 C 780.015 -2.96046 2.05886 0
M  V30 8367 O 779.119 -3.87303 1.4167 0
M  V30 8368 H 778.46 -0.49715 0.440157 0
M  V30 8369 H 780.99 -1.04512 1.75893 0
M  V30 8370 H 781 -3.45752 2.16609 0
M  V30 8371 H 779.675 -2.77701 3.09605 0
M  V30 8372 H 778.252 -3.45789 1.39585 0
M  V30 8373 N 780.437 -1.16799 -1.0581 0
M  V30 8374 C 781.387 -0.847231 -2.11674 0
M  V30 8375 C 782.371 0.175476 -1.5994 0
M  V30 8376 O 783.563 -0.0260602 -1.76981 0
M  V30 8377 C 780.692 -0.355446 -3.41455 0
M  V30 8378 C 779.778 -1.40922 -4.00002 0
M  V30 8379 N 780.169 -2.62096 -4.32596 0
M  V30 8380 C 778.467 -1.26562 -4.27666 0
M  V30 8381 C 779.168 -3.29759 -4.79201 0
M  V30 8382 N 778.144 -2.57138 -4.78938 0
M  V30 8383 H 781.946 -1.76862 -2.34727 0
M  V30 8384 H 779.46 -1.05577 -1.23399 0
M  V30 8385 H 781.457 -0.107231 -4.16762 0
M  V30 8386 H 780.117 0.559817 -3.19838 0
M  V30 8387 H 781.128 -2.99113 -4.22791 0
M  V30 8388 H 777.805 -0.411503 -4.15467 0
M  V30 8389 H 779.195 -4.33222 -5.13584 0
M  V30 8390 N 781.915 1.24427 -0.967243 0
M  V30 8391 C 782.863 2.27403 -0.488927 0
M  V30 8392 C 783.857 1.63388 0.447302 0
M  V30 8393 O 785.063 1.77085 0.322643 0
M  V30 8394 H 781.438 0.738921 -0.139643 0
M  V30 8395 H 783.409 2.65122 -1.36942 0
M  V30 8396 C 782.158 3.4709 0.205787 0
M  V30 8397 H 781.481 3.96591 -0.50551 0
M  V30 8398 H 782.921 4.2099 0.504296 0
M  V30 8399 C 781.38 3.04923 1.43261 0
M  V30 8400 O 781.91 3.12043 2.52967 0
M  V30 8401 N 780.116 2.59976 1.29849 0
M  V30 8402 H 779.663 2.54382 0.405876 0
M  V30 8403 H 779.621 2.32128 2.12047 0
M  V30 8404 N 783.393 0.737304 1.3929 0
M  V30 8405 C 784.341 0.0879867 2.32434 0
M  V30 8406 C 785.335 -0.723324 1.53181 0
M  V30 8407 O 786.541 -0.624251 1.68829 0
M  V30 8408 H 782.916 0.00965277 0.751938 0
M  V30 8409 H 784.887 0.889915 2.84821 0
M  V30 8410 C 783.636 -0.803384 3.38291 0
M  V30 8411 H 782.959 -0.18849 3.99355 0
M  V30 8412 H 784.399 -1.22528 4.0591 0
M  V30 8413 C 782.858 -1.93872 2.75527 0
M  V30 8414 O 783.388 -3.03154 2.63553 0
M  V30 8415 N 781.594 -1.72883 2.3358 0
M  V30 8416 H 781.141 -0.840005 2.43519 0
M  V30 8417 H 781.099 -2.49021 1.91927 0
M  V30 8418 N 784.871 -1.49948 0.485112 0
M  V30 8419 C 786.118 -2.02396 -0.0650059 0
M  V30 8420 C 786.446 -1.36606 -1.38452 0
M  V30 8421 O 785.701 -0.485476 -1.89583 0
M  V30 8422 C 786 -3.56282 -0.282434 0
M  V30 8423 C 785.666 -4.40625 0.957106 0
M  V30 8424 C 784.328 -4.63393 1.29692 0
M  V30 8425 C 786.68 -4.89799 1.78176 0
M  V30 8426 C 784.008 -5.3258 2.4612 0
M  V30 8427 C 786.36 -5.60266 2.93743 0
M  V30 8428 C 785.024 -5.81284 3.28124 0
M  V30 8429 H 784.294 -0.740618 -0.0237873 0
M  V30 8430 H 786.941 -1.80416 0.642044 0
M  V30 8431 H 785.246 -3.76853 -1.07186 0
M  V30 8432 H 786.943 -3.94442 -0.722276 0
M  V30 8433 H 783.533 -4.23133 0.682384 0
M  V30 8434 H 787.717 -4.7205 1.53239 0
M  V30 8435 H 782.973 -5.47059 2.73014 0
M  V30 8436 H 787.147 -5.97347 3.5798 0
M  V30 8437 H 784.774 -6.34671 4.18446 0
M  V30 8438 N 786.349 -0.21828 -1.56081 0
M  V30 8439 C 787.596 0.414307 -1.98216 0
M  V30 8440 C 787.924 1.60005 -1.10584 0
M  V30 8441 O 787.179 1.95124 -0.150043 0
M  V30 8442 C 787.478 0.894782 -3.46018 0
M  V30 8443 C 787.144 -0.180083 -4.5054 0
M  V30 8444 C 785.806 -0.475367 -4.78846 0
M  V30 8445 C 788.158 -0.907191 -5.13244 0
M  V30 8446 C 785.486 -1.50233 -5.67139 0
M  V30 8447 C 787.838 -1.92347 -6.02649 0
M  V30 8448 C 786.502 -2.22571 -6.293 0
M  V30 8449 H 785.772 0.151606 -0.725325 0
M  V30 8450 H 788.419 -0.320113 -1.88806 0
M  V30 8451 H 786.724 1.7079 -3.52616 0
M  V30 8452 H 788.421 1.39403 -3.75989 0
M  V30 8453 H 785.011 0.06022 -4.28558 0
M  V30 8454 H 789.195 -0.692303 -4.91448 0
M  V30 8455 H 784.451 -1.74215 -5.86054 0
M  V30 8456 H 788.625 -2.49197 -6.50288 0
M  V30 8457 H 786.252 -3.0229 -6.97513 0
M  V30 8458 N 787.827 1.57504 0.0551401 0
M  V30 8459 C 789.052 1.92682 0.767352 0
M  V30 8460 C 789.477 0.81614 1.69472 0
M  V30 8461 O 788.835 -0.229989 1.79835 0
M  V30 8462 C 788.883 3.26866 1.52286 0
M  V30 8463 O 787.987 3.17274 2.63459 0
M  V30 8464 H 787.328 0.630502 0.208238 0
M  V30 8465 H 789.858 2.04592 0.0184026 0
M  V30 8466 H 789.868 3.61138 1.8985 0
M  V30 8467 H 788.543 4.07276 0.842541 0
M  V30 8468 H 787.12 2.94589 2.2863 0
M  V30 8469 N 789.305 -0.326896 1.54172 0
M  V30 8470 C 790.235 -1.40741 1.86317 0
M  V30 8471 C 791.216 -1.54125 0.719684 0
M  V30 8472 O 792.401 -1.6806 0.973117 0
M  V30 8473 C 789.531 -2.77557 2.08757 0
M  V30 8474 C 788.485 -2.78965 3.24596 0
M  V30 8475 C 787.811 -4.18824 3.32401 0
M  V30 8476 C 789.111 -2.4301 4.62324 0
M  V30 8477 H 790.805 -1.14088 2.76811 0
M  V30 8478 H 788.351 -0.547389 1.3319 0
M  V30 8479 H 790.304 -3.53209 2.29829 0
M  V30 8480 H 789.028 -3.0568 1.15009 0
M  V30 8481 H 787.687 -2.05767 3.03406 0
M  V30 8482 H 787.335 -4.44083 2.36218 0
M  V30 8483 H 787.035 -4.20673 4.10253 0
M  V30 8484 H 788.559 -4.96294 3.55703 0
M  V30 8485 H 789.973 -3.08375 4.83299 0
M  V30 8486 H 788.37 -2.56116 5.42701 0
M  V30 8487 H 789.44 -1.38165 4.64799 0
M  V30 8488 N 790.784 -1.46188 -0.588786 0
M  V30 8489 C 792.061 -1.41659 -1.34878 0
M  V30 8490 C 792.441 -0.0968913 -2.10878 0
M  V30 8491 O 791.789 0.921468 -2.09096 0
M  V30 8492 C 791.999 -2.6424 -2.27988 0
M  V30 8493 C 793.347 -3.1013 -2.90008 0
M  V30 8494 O 794.371 -2.64745 -2.38303 0
M  V30 8495 O 793.23 -3.88944 -3.83908 0
M  V30 8496 H 790.324 -0.563058 -0.605718 0
M  V30 8497 H 792.87 -1.58346 -0.610309 0
M  V30 8498 H 791.642 -3.51853 -1.71217 0
M  V30 8499 H 791.265 -2.49982 -3.09184 0
M  V30 8500 N 792.262 0.832906 -1.33792 0
M  V30 8501 C 793.49 1.62048 -1.28639 0
M  V30 8502 C 793.905 1.88269 0.141522 0
M  V30 8503 O 793.262 1.46706 1.08553 0
M  V30 8504 C 793.313 2.96722 -2.0649 0
M  V30 8505 O 793.034 2.7165 -3.43712 0
M  V30 8506 C 794.535 3.91144 -2.08617 0
M  V30 8507 H 791.755 0.504032 -0.442937 0
M  V30 8508 H 794.299 1.03704 -1.76255 0
M  V30 8509 H 792.454 3.51652 -1.62541 0
M  V30 8510 H 792.868 3.57453 -3.83833 0
M  V30 8511 H 794.342 4.82837 -2.67531 0
M  V30 8512 H 794.819 4.25766 -1.07796 0
M  V30 8513 H 795.425 3.42152 -2.52611 0
M  V30 8514 N 793.74 1.17359 1.05189 0
M  V30 8515 C 794.987 0.961987 1.78191 0
M  V30 8516 C 795.315 -0.509363 1.87712 0
M  V30 8517 O 794.57 -1.39425 1.37329 0
M  V30 8518 C 794.869 1.54821 3.22126 0
M  V30 8519 C 794.535 3.04378 3.32663 0
M  V30 8520 C 793.197 3.45201 3.35246 0
M  V30 8521 C 795.549 4.00387 3.33677 0
M  V30 8522 C 792.877 4.80629 3.36471 0
M  V30 8523 C 795.229 5.35715 3.36441 0
M  V30 8524 C 793.893 5.76002 3.37311 0
M  V30 8525 H 793.163 0.352016 0.652047 0
M  V30 8526 H 795.81 1.46249 1.23627 0
M  V30 8527 H 794.115 0.969432 3.79617 0
M  V30 8528 H 795.812 1.36004 3.77232 0
M  V30 8529 H 792.402 2.71836 3.31366 0
M  V30 8530 H 796.586 3.69906 3.30882 0
M  V30 8531 H 791.842 5.11155 3.35455 0
M  V30 8532 H 796.016 6.09886 3.36173 0
M  V30 8533 H 793.643 6.80919 3.38013 0
M  V30 8534 N 795.218 -1.23913 0.973828 0
M  V30 8535 C 796.629 -1.73992 0.677021 0
M  V30 8536 C 796.98 -1.78833 -0.807036 0
M  V30 8537 O 796.105 -1.42183 -1.63135 0
M  V30 8538 C 796.7 -3.15985 1.22226 0
M  V30 8539 C 795.259 -3.63547 0.975228 0
M  V30 8540 C 794.406 -2.42001 1.35392 0
M  V30 8541 H 797.357 -1.09529 1.14844 0
M  V30 8542 H 797.378 -3.75875 0.591489 0
M  V30 8543 H 796.89 -3.12429 2.30238 0
M  V30 8544 H 794.991 -3.72493 -0.0891047 0
M  V30 8545 H 795.104 -4.50693 1.62518 0
M  V30 8546 H 793.468 -2.42708 0.772334 0
M  V30 8547 H 794.251 -2.41122 2.44367 0
M  V30 8548 N 796.696 -0.74468 -1.38897 0
M  V30 8549 C 797.926 -0.306982 -2.04307 0
M  V30 8550 C 798.334 1.06652 -1.56275 0
M  V30 8551 O 797.677 1.68699 -0.72708 0
M  V30 8552 C 797.739 -0.241186 -3.5869 0
M  V30 8553 C 797.403 -1.55476 -4.2974 0
M  V30 8554 C 798.4 -2.50229 -4.55721 0
M  V30 8555 C 796.085 -1.82173 -4.68101 0
M  V30 8556 C 798.079 -3.69905 -5.19085 0
M  V30 8557 C 795.766 -3.02125 -5.31191 0
M  V30 8558 C 796.764 -3.95812 -5.56616 0
M  V30 8559 O 796.452 -5.13656 -6.18395 0
M  V30 8560 H 796.184 -0.130416 -0.663301 0
M  V30 8561 H 798.738 -1.01192 -1.78744 0
M  V30 8562 H 796.968 0.519925 -3.83189 0
M  V30 8563 H 798.657 0.165806 -4.05561 0
M  V30 8564 H 799.423 -2.30877 -4.26522 0
M  V30 8565 H 795.302 -1.10091 -4.47662 0
M  V30 8566 H 798.846 -4.43047 -5.38846 0
M  V30 8567 H 794.743 -3.21374 -5.59811 0
M  V30 8568 H 795.511 -5.14119 -6.36886 0
M  V30 8569 N 798.174 1.49689 -0.493057 0
M  V30 8570 C 799.121 2.28976 0.28959 0
M  V30 8571 C 800.091 1.35011 0.967536 0
M  V30 8572 O 801.276 1.63964 0.975736 0
M  V30 8573 C 798.416 3.1748 1.35279 0
M  V30 8574 C 797.529 4.26496 0.687418 0
M  V30 8575 C 796.664 5.02226 1.73038 0
M  V30 8576 C 795.703 6.03089 1.04645 0
M  V30 8577 N 794.84 6.72014 2.03325 0
M  V30 8578 H 799.68 2.954 -0.392798 0
M  V30 8579 H 797.217 1.45657 -0.205554 0
M  V30 8580 H 799.175 3.67162 1.98111 0
M  V30 8581 H 797.805 2.53057 2.00405 0
M  V30 8582 H 796.857 3.80362 -0.0540001 0
M  V30 8583 H 798.169 4.98578 0.14864 0
M  V30 8584 H 797.323 5.55737 2.43395 0
M  V30 8585 H 796.062 4.29899 2.303 0
M  V30 8586 H 795.067 5.48817 0.328606 0
M  V30 8587 H 796.292 6.77398 0.480428 0
M  V30 8588 H 794.238 6.02464 2.59564 0
M  V30 8589 H 794.155 7.40046 1.54492 0
M  V30 8590 H 795.423 7.30133 2.72995 0
M  V30 8591 N 799.652 0.226554 1.55963 0
M  V30 8592 C 800.892 -0.405574 2.00336 0
M  V30 8593 C 801.256 -1.56593 1.11097 0
M  V30 8594 O 802.457 -2.26441 1.44838 0
M  V30 8595 C 800.728 -0.82435 3.47763 0
M  V30 8596 S 802.287 -1.44988 4.14154 0
M  V30 8597 H 799.105 -0.128512 0.699289 0
M  V30 8598 H 801.707 0.337017 1.92573 0
M  V30 8599 H 800.411 0.0297636 4.10389 0
M  V30 8600 H 799.942 -1.59963 3.5941 0
M  V30 8601 H 801.957 -2.73897 4.13757 0
M  V30 8602 N 801.13 -1.57531 -0.0467866 0
M  V30 8603 C 802.06 -2.08425 -1.05268 0
M  V30 8604 C 803.041 -0.982941 -1.38825 0
M  V30 8605 O 804.226 -1.25716 -1.48018 0
M  V30 8606 C 801.356 -2.54897 -2.35891 0
M  V30 8607 C 800.31 -3.69132 -2.16623 0
M  V30 8608 C 799.636 -4.01747 -3.52851 0
M  V30 8609 C 800.936 -4.98243 -1.56689 0
M  V30 8610 H 802.63 -2.92716 -0.62908 0
M  V30 8611 H 800.176 -1.40816 -0.301156 0
M  V30 8612 H 802.129 -2.8912 -3.06574 0
M  V30 8613 H 800.853 -1.67666 -2.80278 0
M  V30 8614 H 799.512 -3.35231 -1.48377 0
M  V30 8615 H 799.16 -3.11608 -3.94853 0
M  V30 8616 H 798.86 -4.78681 -3.4079 0
M  V30 8617 H 800.384 -4.38487 -4.24925 0
M  V30 8618 H 801.798 -5.30535 -2.17268 0
M  V30 8619 H 800.195 -5.79669 -1.55255 0
M  V30 8620 H 801.265 -4.81986 -0.530827 0
M  V30 8621 N 802.608 0.318715 -1.54344 0
M  V30 8622 C 803.556 1.41254 -1.84798 0
M  V30 8623 C 804.55 1.53325 -0.720256 0
M  V30 8624 O 805.756 1.55653 -0.903992 0
M  V30 8625 H 802.131 0.471468 -0.585851 0
M  V30 8626 H 804.102 1.12795 -2.7626 0
M  V30 8627 C 802.851 2.77395 -2.09637 0
M  V30 8628 H 802.174 2.68881 -2.95876 0
M  V30 8629 H 803.614 3.52987 -2.34896 0
M  V30 8630 C 802.073 3.24948 -0.889398 0
M  V30 8631 O 802.603 4.01573 -0.101063 0
M  V30 8632 N 800.809 2.82051 -0.699684 0
M  V30 8633 H 800.356 2.19858 -1.3424 0
M  V30 8634 H 800.314 3.1422 0.106368 0
M  V30 8635 N 804.086 1.46499 0.581025 0
M  V30 8636 C 805.311 1.55708 1.37002 0
M  V30 8637 C 805.736 0.19942 1.8704 0
M  V30 8638 O 805.094 -0.820731 1.61659 0
M  V30 8639 C 805.142 2.56716 2.53238 0
M  V30 8640 O 804.246 2.10336 3.54729 0
M  V30 8641 H 803.587 0.523912 0.407937 0
M  V30 8642 H 806.117 1.92085 0.704602 0
M  V30 8643 H 806.127 2.76378 3.00132 0
M  V30 8644 H 804.802 3.55307 2.16171 0
M  V30 8645 H 803.379 2.00669 3.14303 0
M  V30 8646 N 805.565 -0.825799 1.34232 0
M  V30 8647 C 806.495 -1.95151 1.28212 0
M  V30 8648 C 807.476 -1.69345 0.160123 0
M  V30 8649 O 808.661 -1.90983 0.352019 0
M  V30 8650 C 805.791 -3.31554 1.03388 0
M  V30 8651 C 804.745 -3.71793 2.12023 0
M  V30 8652 C 804.071 -5.06147 1.72392 0
M  V30 8653 C 805.371 -3.84193 3.53826 0
M  V30 8654 H 807.065 -2.00445 2.22401 0
M  V30 8655 H 804.611 -0.962996 1.07063 0
M  V30 8656 H 806.564 -4.09889 0.978225 0
M  V30 8657 H 805.288 -3.26551 0.0564142 0
M  V30 8658 H 803.947 -2.95731 2.16654 0
M  V30 8659 H 803.595 -4.97628 0.733137 0
M  V30 8660 H 803.295 -5.34041 2.451 0
M  V30 8661 H 804.819 -5.86943 1.68317 0
M  V30 8662 H 806.233 -4.52806 3.51624 0
M  V30 8663 H 804.63 -4.23538 4.2513 0
M  V30 8664 H 805.7 -2.86272 3.91377 0
M  V30 8665 N 807.043 -1.17915 -1.04565 0
M  V30 8666 C 807.975 -0.859359 -2.1248 0
M  V30 8667 C 808.988 0.140922 -1.62189 0
M  V30 8668 O 810.177 -0.0862361 -1.78292 0
M  V30 8669 C 807.277 -0.261811 -3.37887 0
M  V30 8670 C 806.45 -1.30651 -4.17431 0
M  V30 8671 C 805.509 -0.725575 -5.21174 0
M  V30 8672 O 804.535 -1.39901 -5.51739 0
M  V30 8673 N 805.737 0.479351 -5.78517 0
M  V30 8674 H 808.502 -1.78818 -2.40508 0
M  V30 8675 H 806.063 -1.07885 -1.20716 0
M  V30 8676 H 808.055 0.14028 -4.04457 0
M  V30 8677 H 806.625 0.570929 -3.07342 0
M  V30 8678 H 805.845 -1.88412 -3.46258 0
M  V30 8679 H 807.133 -2.01099 -4.67372 0
M  V30 8680 H 806.531 1.04431 -5.55977 0
M  V30 8681 H 805.088 0.823427 -6.46578 0
M  V30 8682 N 808.521 1.23394 -0.980386 0
M  V30 8683 C 809.767 1.92094 -0.650223 0
M  V30 8684 C 810.1 1.76309 0.814173 0
M  V30 8685 O 809.375 1.12406 1.5873 0
M  V30 8686 C 809.658 3.44713 -1.04139 0
M  V30 8687 C 809.511 3.69606 -2.56342 0
M  V30 8688 C 810.83 4.36191 -0.585296 0
M  V30 8689 H 807.949 0.697618 -0.237695 0
M  V30 8690 H 810.591 1.45517 -1.22167 0
M  V30 8691 H 808.741 3.84513 -0.55515 0
M  V30 8692 H 810.413 3.39288 -3.1254 0
M  V30 8693 H 808.656 3.14318 -2.98976 0
M  V30 8694 H 809.327 4.76441 -2.78762 0
M  V30 8695 H 811.803 4.03836 -1.00276 0
M  V30 8696 H 810.679 5.41679 -0.887428 0
M  V30 8697 H 810.94 4.39097 0.51438 0
M  V30 8698 N 809.999 0.752036 1.385 0
M  V30 8699 C 810.929 0.138718 2.33088 0
M  V30 8700 C 811.91 -0.705318 1.54788 0
M  V30 8701 O 813.095 -0.646821 1.83112 0
M  V30 8702 C 810.225 -0.75641 3.38963 0
M  V30 8703 C 809.179 -0.0152239 4.27997 0
M  V30 8704 C 808.505 -1.0285 5.24715 0
M  V30 8705 C 809.805 1.15226 5.09431 0
M  V30 8706 H 811.499 0.928852 2.84627 0
M  V30 8707 H 809.045 0.448111 1.3685 0
M  V30 8708 H 810.998 -1.19513 4.04097 0
M  V30 8709 H 809.722 -1.57885 2.85902 0
M  V30 8710 H 808.381 0.404061 3.64366 0
M  V30 8711 H 808.029 -1.84496 4.67943 0
M  V30 8712 H 807.729 -0.537238 5.85139 0
M  V30 8713 H 809.253 -1.46657 5.92726 0
M  V30 8714 H 810.667 0.791161 5.67815 0
M  V30 8715 H 809.064 1.57428 5.79082 0
M  V30 8716 H 810.134 1.9659 4.43261 0
M  V30 8717 N 811.477 -1.49425 0.500989 0
M  V30 8718 C 812.754 -1.9531 -0.106551 0
M  V30 8719 C 813.134 -1.44248 -1.54129 0
M  V30 8720 O 812.482 -0.656237 -2.18874 0
M  V30 8721 C 812.692 -3.48995 -0.0191972 0
M  V30 8722 C 814.04 -4.24161 -0.193129 0
M  V30 8723 O 815.064 -3.56075 -0.0943843 0
M  V30 8724 O 813.923 -5.45064 -0.395869 0
M  V30 8725 H 811.017 -0.82149 -0.0953068 0
M  V30 8726 H 813.563 -1.6007 0.563526 0
M  V30 8727 H 812.335 -3.78794 0.981353 0
M  V30 8728 H 811.958 -3.90852 -0.72942 0
M  V30 8729 N 812.955 -0.234822 -1.55841 0
M  V30 8730 C 814.185 0.397168 -2.02746 0
M  V30 8731 C 814.593 1.52951 -1.11367 0
M  V30 8732 O 813.936 1.8332 -0.118133 0
M  V30 8733 C 813.998 0.977748 -3.45948 0
M  V30 8734 C 813.662 -0.0208193 -4.56995 0
M  V30 8735 C 814.659 -0.826015 -5.13296 0
M  V30 8736 C 812.344 -0.143416 -5.02095 0
M  V30 8737 C 814.338 -1.74038 -6.1318 0
M  V30 8738 C 812.025 -1.0613 -6.01814 0
M  V30 8739 C 813.023 -1.85832 -6.57233 0
M  V30 8740 O 812.711 -2.76075 -7.55008 0
M  V30 8741 H 812.443 0.0999802 -0.668566 0
M  V30 8742 H 814.997 -0.352673 -2.0235 0
M  V30 8743 H 813.227 1.77693 -3.43456 0
M  V30 8744 H 814.916 1.51854 -3.76424 0
M  V30 8745 H 815.682 -0.741822 -4.79293 0
M  V30 8746 H 811.561 0.466857 -4.5863 0
M  V30 8747 H 815.105 -2.36291 -6.56363 0
M  V30 8748 H 811.002 -1.14646 -6.35237 0
M  V30 8749 H 811.77 -2.703 -7.7258 0
M  V30 8750 N 814.433 1.57553 0.0384317 0
M  V30 8751 C 815.658 1.93485 0.746872 0
M  V30 8752 C 816.083 0.834069 1.68597 0
M  V30 8753 O 815.441 -0.210902 1.80069 0
M  V30 8754 C 815.489 3.28463 1.4881 0
M  V30 8755 O 814.593 3.20051 2.60079 0
M  V30 8756 H 813.934 0.632675 0.201539 0
M  V30 8757 H 816.464 2.046 -0.00329815 0
M  V30 8758 H 816.474 3.63132 1.86009 0
M  V30 8759 H 815.149 4.08147 0.799297 0
M  V30 8760 H 813.726 2.96998 2.25492 0
M  V30 8761 N 815.911 -0.310526 1.54511 0
M  V30 8762 C 816.841 -1.38757 1.878 0
M  V30 8763 C 817.822 -1.53353 0.735991 0
M  V30 8764 O 819.007 -1.67018 0.990887 0
M  V30 8765 C 816.137 -2.75327 2.11689 0
M  V30 8766 C 815.091 -2.75506 3.27537 0
M  V30 8767 C 814.417 -4.15275 3.36824 0
M  V30 8768 C 815.717 -2.38093 4.64875 0
M  V30 8769 H 817.411 -1.11146 2.78005 0
M  V30 8770 H 814.957 -0.533232 1.33763 0
M  V30 8771 H 816.91 -3.50752 2.33562 0
M  V30 8772 H 815.634 -3.04443 1.18245 0
M  V30 8773 H 814.293 -2.02538 3.05572 0
M  V30 8774 H 813.941 -4.41553 2.40915 0
M  V30 8775 H 813.641 -4.16299 4.14692 0
M  V30 8776 H 815.165 -4.92493 3.60947 0
M  V30 8777 H 816.579 -3.03232 4.86542 0
M  V30 8778 H 814.976 -2.50345 5.45387 0
M  V30 8779 H 816.046 -1.33227 4.66239 0
M  V30 8780 N 817.389 -1.46805 -0.573248 0
M  V30 8781 C 818.337 -1.58468 -1.70267 0
M  V30 8782 C 819.331 -0.452694 -1.63239 0
M  V30 8783 O 820.537 -0.629915 -1.68618 0
M  V30 8784 H 816.912 -0.498408 -0.56311 0
M  V30 8785 H 818.883 -2.5341 -1.57563 0
M  V30 8786 C 817.632 -1.60104 -3.08645 0
M  V30 8787 H 816.955 -2.4655 -3.14727 0
M  V30 8788 H 818.395 -1.72318 -3.87405 0
M  V30 8789 C 816.854 -0.33138 -3.35266 0
M  V30 8790 O 817.384 0.57438 -3.97572 0
M  V30 8791 N 815.59 -0.216358 -2.89793 0
M  V30 8792 H 815.137 -0.954345 -2.3927 0
M  V30 8793 H 815.095 0.632253 -3.07977 0
M  V30 8794 N 818.867 0.818669 -1.34668 0
M  V30 8795 C 819.817 1.91882 -1.23147 0
M  V30 8796 C 820.801 1.60378 -0.129509 0
M  V30 8797 O 821.993 1.73309 -0.359581 0
M  V30 8798 C 819.122 3.28612 -0.993436 0
M  V30 8799 C 818.208 3.66221 -2.13876 0
M  V30 8800 N 818.599 3.75361 -3.39024 0
M  V30 8801 C 816.897 3.96098 -2.04994 0
M  V30 8802 C 817.598 4.0836 -4.14266 0
M  V30 8803 N 816.574 4.21806 -3.429 0
M  V30 8804 H 820.376 1.97133 -2.17981 0
M  V30 8805 H 817.89 1.01257 -1.26967 0
M  V30 8806 H 819.887 4.0725 -0.891797 0
M  V30 8807 H 818.547 3.24655 -0.053824 0
M  V30 8808 H 819.558 3.58747 -3.73525 0
M  V30 8809 H 816.235 4.00236 -1.18816 0
M  V30 8810 H 817.625 4.226 -5.22359 0
M  V30 8811 N 820.346 1.18468 1.03938 0
M  V30 8812 C 821.595 0.975193 1.76558 0
M  V30 8813 C 821.908 -0.495978 1.89207 0
M  V30 8814 O 823.114 -0.824009 2.58694 0
M  V30 8815 C 821.57 1.69579 3.17444 0
M  V30 8816 C 821.178 3.20636 3.12884 0
M  V30 8817 C 822.922 1.56917 3.94433 0
M  V30 8818 C 820.829 3.8533 4.48636 0
M  V30 8819 H 819.759 0.361244 0.66183 0
M  V30 8820 H 822.41 1.41854 1.16403 0
M  V30 8821 H 820.792 1.18022 3.78004 0
M  V30 8822 H 821.966 3.79228 2.61768 0
M  V30 8823 H 820.281 3.33454 2.49394 0
M  V30 8824 H 822.878 2.02611 4.94826 0
M  V30 8825 H 823.221 0.521638 4.13019 0
M  V30 8826 H 823.754 2.05762 3.40451 0
M  V30 8827 H 820.493 4.90136 4.35255 0
M  V30 8828 H 820.013 3.31526 4.99851 0
M  V30 8829 H 821.692 3.88269 5.17549 0
M  V30 8830 N 821.824 -1.22873 0.986916 0
M  V30 8831 C 822.757 -2.23154 0.477245 0
M  V30 8832 C 823.735 -1.55981 -0.459206 0
M  V30 8833 O 824.919 -1.84503 -0.386141 0
M  V30 8834 C 822.046 -3.37289 -0.308838 0
M  V30 8835 C 821.092 -4.22637 0.572717 0
M  V30 8836 S 821.925 -4.95758 2.02446 0
M  V30 8837 C 823.081 -6.13338 1.2477 0
M  V30 8838 H 823.314 -2.6604 1.32702 0
M  V30 8839 H 820.847 -1.32455 0.793415 0
M  V30 8840 H 822.805 -4.03472 -0.756351 0
M  V30 8841 H 821.466 -2.92922 -1.13381 0
M  V30 8842 H 820.659 -5.0399 -0.0318024 0
M  V30 8843 H 820.261 -3.61555 0.956746 0
M  V30 8844 H 822.553 -6.7556 0.51231 0
M  V30 8845 H 823.496 -6.78189 2.03629 0
M  V30 8846 H 823.904 -5.59311 0.763622 0
M  V30 8847 N 823.302 -0.75937 -1.38099 0
M  V30 8848 C 824.53 -0.329111 -2.04266 0
M  V30 8849 C 824.945 1.04453 -1.57274 0
M  V30 8850 O 824.302 1.66449 -0.748397 0
M  V30 8851 C 824.353 -0.349192 -3.5981 0
M  V30 8852 O 824.074 -1.66863 -4.05078 0
M  V30 8853 C 825.575 0.0942106 -4.432 0
M  V30 8854 H 822.795 -0.13971 -0.656294 0
M  V30 8855 H 825.339 -1.02984 -1.76677 0
M  V30 8856 H 823.494 0.302846 -3.86214 0
M  V30 8857 H 823.908 -1.59877 -4.9954 0
M  V30 8858 H 825.382 0.0290004 -5.51992 0
M  V30 8859 H 825.859 1.1429 -4.24069 0
M  V30 8860 H 826.465 -0.529171 -4.21995 0
M  V30 8861 N 824.78 1.49157 -0.508906 0
M  V30 8862 C 826.005 2.07376 0.0315182 0
M  V30 8863 C 826.43 1.36575 1.2934 0
M  V30 8864 O 825.788 0.424963 1.76249 0
M  V30 8865 C 825.836 3.59661 0.260118 0
M  V30 8866 O 824.94 3.90255 1.33322 0
M  V30 8867 H 824.281 0.663334 -0.029739 0
M  V30 8868 H 826.811 1.91857 -0.710791 0
M  V30 8869 H 826.821 4.05056 0.489225 0
M  V30 8870 H 825.496 4.10601 -0.661794 0
M  V30 8871 H 824.073 3.56661 1.08844 0
M  V30 8872 N 826.258 0.243083 1.55714 0
M  V30 8873 C 827.205 -0.658078 2.21219 0
M  V30 8874 C 828.175 -1.1742 1.17481 0
M  V30 8875 O 829.36 -1.22937 1.45915 0
M  V30 8876 C 826.5 -1.85104 2.91257 0
M  V30 8877 C 825.613 -1.3718 4.09641 0
M  V30 8878 C 824.748 -2.52403 4.67404 0
M  V30 8879 C 823.787 -2.01321 5.78045 0
M  V30 8880 N 822.924 -3.09896 6.30007 0
M  V30 8881 H 827.764 -0.0927854 2.97856 0
M  V30 8882 H 825.301 -0.0340375 1.47061 0
M  V30 8883 H 827.259 -2.55179 3.3006 0
M  V30 8884 H 825.889 -2.38887 2.17101 0
M  V30 8885 H 824.941 -0.565232 3.76177 0
M  V30 8886 H 826.253 -0.957409 4.89525 0
M  V30 8887 H 825.407 -3.30525 5.08761 0
M  V30 8888 H 824.146 -2.97142 3.86728 0
M  V30 8889 H 823.151 -1.21667 5.36169 0
M  V30 8890 H 824.376 -1.57556 6.6057 0
M  V30 8891 H 822.322 -3.54077 5.52237 0
M  V30 8892 H 822.239 -2.72776 7.05074 0
M  V30 8893 H 823.507 -3.8809 6.76023 0
M  V30 8894 N 827.736 -1.57571 -0.0300757 0
M  V30 8895 C 828.683 -2.06492 -1.03101 0
M  V30 8896 C 829.653 -0.953862 -1.3598 0
M  V30 8897 O 830.838 -1.22436 -1.46335 0
M  V30 8898 C 827.978 -2.54826 -2.32718 0
M  V30 8899 C 827.091 -3.79718 -2.06006 0
M  V30 8900 C 826.226 -4.16668 -3.29487 0
M  V30 8901 C 825.265 -5.3448 -2.98324 0
M  V30 8902 N 824.402 -5.66867 -4.14254 0
M  V30 8903 H 829.242 -2.91755 -0.606877 0
M  V30 8904 H 826.779 -1.44252 -0.288038 0
M  V30 8905 H 828.737 -2.80916 -3.08451 0
M  V30 8906 H 827.367 -1.72481 -2.72856 0
M  V30 8907 H 826.419 -3.60718 -1.20774 0
M  V30 8908 H 827.731 -4.65569 -1.79017 0
M  V30 8909 H 826.885 -4.43881 -4.13588 0
M  V30 8910 H 825.624 -3.29466 -3.59588 0
M  V30 8911 H 824.629 -5.07021 -2.12625 0
M  V30 8912 H 825.854 -6.23334 -2.69502 0
M  V30 8913 H 823.8 -4.82625 -4.44308 0
M  V30 8914 H 823.717 -6.47226 -3.90685 0
M  V30 8915 H 824.985 -5.98656 -4.99231 0
M  V30 8916 N 829.214 0.302327 -1.54673 0
M  V30 8917 C 830.146 1.39443 -1.81902 0
M  V30 8918 C 831.159 1.46891 -0.701914 0
M  V30 8919 O 832.348 1.49233 -0.979369 0
M  V30 8920 C 829.448 2.77824 -1.9408 0
M  V30 8921 C 828.621 2.93324 -3.24468 0
M  V30 8922 C 827.68 4.12196 -3.27079 0
M  V30 8923 O 826.706 4.04344 -4.00617 0
M  V30 8924 N 827.908 5.22768 -2.52376 0
M  V30 8925 H 830.673 1.1644 -2.76155 0
M  V30 8926 H 828.234 0.492392 -1.54231 0
M  V30 8927 H 830.226 3.5559 -1.9323 0
M  V30 8928 H 828.796 2.9378 -1.06828 0
M  V30 8929 H 828.016 2.02682 -3.38103 0
M  V30 8930 H 829.304 3.0059 -4.10516 0
M  V30 8931 H 828.702 5.32027 -1.92259 0
M  V30 8932 H 827.259 5.98874 -2.57281 0
M  V30 8933 N 830.692 1.47107 0.565454 0
M  V30 8934 C 831.602 1.61591 1.70075 0
M  V30 8935 C 832.618 0.498931 1.66693 0
M  V30 8936 O 833.794 0.765372 1.8629 0
M  V30 8937 C 830.859 1.61887 3.06583 0
M  V30 8938 C 829.92 2.84949 3.21096 0
M  V30 8939 C 829.153 2.85221 4.51093 0
M  V30 8940 O 829.376 1.94959 5.36048 0
M  V30 8941 O 828.31 3.76982 4.69221 0
M  V30 8942 H 832.136 2.57638 1.60799 0
M  V30 8943 H 829.721 1.30097 0.73451 0
M  V30 8944 H 831.603 1.64809 3.87835 0
M  V30 8945 H 830.278 0.69005 3.16259 0
M  V30 8946 H 829.185 2.87575 2.39273 0
M  V30 8947 H 830.518 3.77098 3.1632 0
M  V30 8948 N 832.17 -0.811516 1.35101 0
M  V30 8949 C 833.1 -1.9378 1.30275 0
M  V30 8950 C 834.081 -1.69165 0.178075 0
M  V30 8951 O 835.266 -1.90599 0.372256 0
M  V30 8952 C 832.396 -3.30439 1.06899 0
M  V30 8953 C 831.35 -3.69523 2.15955 0
M  V30 8954 C 830.676 -5.0429 1.77751 0
M  V30 8955 C 831.976 -3.80419 3.57881 0
M  V30 8956 H 833.67 -1.98075 2.24514 0
M  V30 8957 H 831.216 -0.951586 1.08078 0
M  V30 8958 H 833.169 -4.08828 1.02164 0
M  V30 8959 H 831.893 -3.26473 0.0910462 0
M  V30 8960 H 830.552 -2.93416 2.19778 0
M  V30 8961 H 830.2 -4.96823 0.785876 0
M  V30 8962 H 829.9 -5.31411 2.5075 0
M  V30 8963 H 831.424 -5.85125 1.74533 0
M  V30 8964 H 832.838 -4.49051 3.56407 0
M  V30 8965 H 831.235 -4.19005 4.29598 0
M  V30 8966 H 832.305 -2.82105 3.94391 0
M  V30 8967 N 833.648 -1.19017 -1.03309 0
M  V30 8968 C 834.58 -0.881847 -2.11556 0
M  V30 8969 C 835.593 0.123711 -1.62329 0
M  V30 8970 O 836.782 -0.105141 -1.7819 0
M  V30 8971 C 833.882 -0.297634 -3.37591 0
M  V30 8972 C 833.055 -1.35072 -4.16022 0
M  V30 8973 C 832.114 -0.780812 -5.20375 0
M  V30 8974 O 831.14 -1.45745 -5.50224 0
M  V30 8975 N 832.342 0.417964 -5.78993 0
M  V30 8976 H 835.107 -1.81359 -2.38598 0
M  V30 8977 H 832.668 -1.0916 -1.19565 0
M  V30 8978 H 834.66 0.097374 -4.04583 0
M  V30 8979 H 833.23 0.538299 -3.0793 0
M  V30 8980 H 832.45 -1.92074 -3.4424 0
M  V30 8981 H 833.738 -2.06044 -4.65213 0
M  V30 8982 H 833.136 0.985281 -5.57054 0
M  V30 8983 H 831.693 0.754802 -6.47415 0
M  V30 8984 N 835.127 1.22348 -0.993418 0
M  V30 8985 C 836.077 2.221 -0.515333 0
M  V30 8986 C 837.061 1.55409 0.416762 0
M  V30 8987 O 838.253 1.75317 0.243497 0
M  V30 8988 C 835.382 3.42888 0.168173 0
M  V30 8989 C 834.468 4.16786 -0.784257 0
M  V30 8990 N 834.859 4.67435 -1.93231 0
M  V30 8991 C 833.157 4.41942 -0.600243 0
M  V30 8992 C 833.858 5.23792 -2.53016 0
M  V30 8993 N 832.834 5.12483 -1.8128 0
M  V30 8994 H 836.636 2.58902 -1.39093 0
M  V30 8995 H 834.15 1.38024 -0.855747 0
M  V30 8996 H 836.147 4.13542 0.528069 0
M  V30 8997 H 834.807 3.07598 1.03989 0
M  V30 8998 H 835.818 4.63375 -2.31309 0
M  V30 8999 H 832.495 4.16891 0.225369 0
M  V30 9000 H 833.885 5.73515 -3.50043 0
M  V30 9001 N 836.605 0.766683 1.37694 0
M  V30 9002 C 837.852 0.328714 1.99814 0
M  V30 9003 C 838.18 -1.09333 1.60862 0
M  V30 9004 O 837.435 -1.7657 0.8439 0
M  V30 9005 C 837.734 0.413831 3.54996 0
M  V30 9006 C 837.4 1.7934 4.137 0
M  V30 9007 C 836.062 2.17092 4.29447 0
M  V30 9008 C 838.414 2.69776 4.45949 0
M  V30 9009 C 835.742 3.44726 4.74743 0
M  V30 9010 C 838.094 3.96814 4.92667 0
M  V30 9011 C 836.758 4.34618 5.0662 0
M  V30 9012 H 836.028 0.120285 0.731172 0
M  V30 9013 H 838.675 0.97972 1.64541 0
M  V30 9014 H 836.98 -0.320723 3.90485 0
M  V30 9015 H 838.677 0.0563369 4.0096 0
M  V30 9016 H 835.267 1.48997 4.01868 0
M  V30 9017 H 839.451 2.41871 4.33373 0
M  V30 9018 H 834.707 3.73917 4.83731 0
M  V30 9019 H 838.881 4.67022 5.16588 0
M  V30 9020 H 836.508 5.33578 5.41478 0
M  V30 9021 N 838.083 -1.48885 0.516809 0
M  V30 9022 C 839.494 -1.86557 0.0729921 0
M  V30 9023 C 839.845 -1.42767 -1.34581 0
M  V30 9024 O 838.97 -0.812514 -2.00567 0
M  V30 9025 C 839.565 -3.38567 0.125686 0
M  V30 9026 C 838.124 -3.75481 -0.262867 0
M  V30 9027 C 837.271 -2.72913 0.491281 0
M  V30 9028 H 840.222 -1.40978 0.728767 0
M  V30 9029 H 840.243 -3.74629 -0.665831 0
M  V30 9030 H 839.755 -3.70408 1.15842 0
M  V30 9031 H 837.856 -3.49251 -1.29824 0
M  V30 9032 H 837.969 -4.79052 0.067579 0
M  V30 9033 H 836.333 -2.54627 -0.0608525 0
M  V30 9034 H 837.116 -3.07599 1.5244 0
M  V30 9035 N 839.561 -0.251338 -1.55583 0
M  V30 9036 C 840.786 0.379136 -2.03905 0
M  V30 9037 C 841.211 1.50428 -1.12929 0
M  V30 9038 O 840.569 1.80882 -0.123114 0
M  V30 9039 C 840.617 0.86009 -3.50193 0
M  V30 9040 O 839.721 1.96932 -3.62342 0
M  V30 9041 H 839.062 0.0820183 -0.658915 0
M  V30 9042 H 841.592 -0.378692 -2.01065 0
M  V30 9043 H 841.602 1.16214 -3.91099 0
M  V30 9044 H 840.277 0.0367559 -4.15884 0
M  V30 9045 H 838.854 1.67163 -3.33333 0
M  V30 9046 N 841.039 1.57585 0.0217189 0
M  V30 9047 C 842.264 1.94267 0.726309 0
M  V30 9048 C 842.689 0.851904 1.67703 0
M  V30 9049 O 842.047 -0.191792 1.80283 0
M  V30 9050 C 842.095 3.30023 1.45318 0
M  V30 9051 O 841.199 3.22791 2.5667 0
M  V30 9052 H 840.54 0.634777 0.194818 0
M  V30 9053 H 843.07 2.04585 -0.0249985 0
M  V30 9054 H 843.08 3.65084 1.82147 0
M  V30 9055 H 841.755 4.08972 0.755962 0
M  V30 9056 H 840.332 2.99373 2.2233 0
M  V30 9057 N 842.517 -0.29412 1.54831 0
M  V30 9058 C 843.447 -1.36757 1.89261 0
M  V30 9059 C 844.428 -1.52564 0.752214 0
M  V30 9060 O 845.613 -1.65958 1.00855 0
M  V30 9061 C 842.743 -2.73066 2.14597 0
M  V30 9062 C 841.697 -2.72017 3.3044 0
M  V30 9063 C 841.023 -4.11679 3.4121 0
M  V30 9064 C 842.323 -2.33149 4.67375 0
M  V30 9065 H 844.017 -1.08191 2.79169 0
M  V30 9066 H 841.563 -0.519014 1.34321 0
M  V30 9067 H 843.516 -3.48255 2.37269 0
M  V30 9068 H 842.24 -3.03172 1.21467 0
M  V30 9069 H 840.899 -1.99285 3.07703 0
M  V30 9070 H 840.547 -4.38973 2.45584 0
M  V30 9071 H 840.247 -4.11877 4.19084 0
M  V30 9072 H 841.771 -4.88637 3.6615 0
M  V30 9073 H 843.185 -2.98054 4.89731 0
M  V30 9074 H 841.582 -2.44546 5.48012 0
M  V30 9075 H 842.652 -1.28275 4.67626 0
M  V30 9076 N 843.995 -1.47404 -0.557645 0
M  V30 9077 C 844.958 -1.59411 -1.64684 0
M  V30 9078 C 845.958 -0.469244 -1.53801 0
M  V30 9079 O 847.148 -0.734298 -1.57967 0
M  V30 9080 C 844.28 -1.5382 -3.04224 0
M  V30 9081 H 845.473 -2.56504 -1.55389 0
M  V30 9082 H 843.026 -1.35588 -0.777531 0
M  V30 9083 H 843.761 -0.581 -3.19053 0
M  V30 9084 H 843.546 -2.35456 -3.13533 0
M  V30 9085 H 845.036 -1.65358 -3.83466 0
M  V30 9086 N 845.473 0.80434 -1.35529 0
M  V30 9087 C 846.72 1.56154 -1.28927 0
M  V30 9088 C 847.048 1.94026 0.135682 0
M  V30 9089 O 846.303 1.61759 1.10148 0
M  V30 9090 C 846.602 2.85988 -2.14349 0
M  V30 9091 C 846.268 2.67323 -3.6311 0
M  V30 9092 C 844.93 2.61941 -4.03659 0
M  V30 9093 C 847.282 2.49699 -4.57493 0
M  V30 9094 C 844.61 2.3688 -5.36754 0
M  V30 9095 C 846.962 2.26168 -5.90788 0
M  V30 9096 C 845.626 2.19209 -6.30479 0
M  V30 9097 H 844.896 0.571407 -0.471779 0
M  V30 9098 H 847.543 0.929193 -1.67446 0
M  V30 9099 H 845.848 3.53612 -1.68718 0
M  V30 9100 H 847.545 3.43697 -2.06576 0
M  V30 9101 H 844.135 2.72361 -3.30934 0
M  V30 9102 H 848.319 2.52869 -4.27049 0
M  V30 9103 H 843.575 2.29964 -5.66504 0
M  V30 9104 H 847.749 2.11522 -6.63499 0
M  V30 9105 H 845.376 1.99553 -7.33541 0
M  V30 9106 N 846.951 1.19563 1.02676 0
M  V30 9107 C 847.881 0.959024 2.12897 0
M  V30 9108 C 848.862 -0.108382 1.69754 0
M  V30 9109 O 850.047 0.0470698 1.94143 0
M  V30 9110 C 847.177 0.499211 3.43693 0
M  V30 9111 C 846.131 1.5087 4.00528 0
M  V30 9112 C 845.457 0.905884 5.2697 0
M  V30 9113 C 846.757 2.88954 4.3509 0
M  V30 9114 H 848.451 1.88084 2.32948 0
M  V30 9115 H 845.997 0.905731 1.11949 0
M  V30 9116 H 847.95 0.320965 4.20176 0
M  V30 9117 H 846.674 -0.458205 3.2337 0
M  V30 9118 H 845.333 1.67413 3.26142 0
M  V30 9119 H 844.981 -0.0591506 5.02965 0
M  V30 9120 H 844.681 1.58 5.65959 0
M  V30 9121 H 846.205 0.73848 6.06118 0
M  V30 9122 H 847.619 2.75981 5.02501 0
M  V30 9123 H 846.016 3.53177 4.85166 0
M  V30 9124 H 847.086 3.41447 3.44299 0
M  V30 9125 N 848.429 -1.21819 0.999893 0
M  V30 9126 C 849.377 -2.26027 0.549047 0
M  V30 9127 C 850.371 -1.64516 -0.403826 0
M  V30 9128 O 851.577 -1.77878 -0.275578 0
M  V30 9129 H 847.952 -0.734958 0.159185 0
M  V30 9130 H 849.923 -2.61398 1.43923 0
M  V30 9131 C 848.672 -3.47514 -0.11369 0
M  V30 9132 H 847.995 -3.95112 0.610482 0
M  V30 9133 H 849.435 -4.22179 -0.3925 0
M  V30 9134 C 847.894 -3.08614 -1.35126 0
M  V30 9135 O 848.424 -3.1864 -2.44605 0
M  V30 9136 N 846.63 -2.63327 -1.22911 0
M  V30 9137 H 846.177 -2.55369 -0.338288 0
M  V30 9138 H 846.135 -2.37668 -2.05818 0
M  V30 9139 N 849.908 -0.773975 -1.37286 0
M  V30 9140 C 850.838 -0.175782 -2.32837 0
M  V30 9141 C 851.819 0.680603 -1.5589 0
M  V30 9142 O 853.004 0.617607 -1.84117 0
M  V30 9143 C 850.134 0.702388 -3.40123 0
M  V30 9144 C 849.088 -0.0528687 -4.27967 0
M  V30 9145 C 848.414 0.944891 -5.26285 0
M  V30 9146 C 849.714 -1.23316 -5.07534 0
M  V30 9147 H 851.408 -0.974016 -2.83114 0
M  V30 9148 H 848.954 -0.469826 -1.3612 0
M  V30 9149 H 850.907 1.13069 -4.05947 0
M  V30 9150 H 849.631 1.53316 -2.88378 0
M  V30 9151 H 848.29 -0.461978 -3.63678 0
M  V30 9152 H 847.938 1.77028 -4.70819 0
M  V30 9153 H 847.638 0.444079 -5.8592 0
M  V30 9154 H 849.162 1.37209 -5.94984 0
M  V30 9155 H 850.576 -0.881395 -5.66484 0
M  V30 9156 H 848.973 -1.66621 -5.76504 0
M  V30 9157 H 850.043 -2.03617 -4.40077 0
M  V30 9158 N 851.386 1.48609 -0.524698 0
M  V30 9159 C 852.614 2.06899 0.00742946 0
M  V30 9160 C 853.029 1.38196 1.28637 0
M  V30 9161 O 852.386 0.467771 1.76403 0
M  V30 9162 C 852.437 3.60699 0.240548 0
M  V30 9163 O 852.158 4.26821 -0.987715 0
M  V30 9164 C 853.659 4.35769 0.813652 0
M  V30 9165 H 850.879 0.670278 -0.0311294 0
M  V30 9166 H 853.423 1.91071 -0.728832 0
M  V30 9167 H 851.578 3.76149 0.926845 0
M  V30 9168 H 851.992 5.18889 -0.765175 0
M  V30 9169 H 853.466 5.44174 0.926219 0
M  V30 9170 H 853.943 3.9984 1.81728 0
M  V30 9171 H 854.549 4.24983 0.164086 0
M  V30 9172 N 852.864 0.259585 1.55447 0
M  V30 9173 C 853.796 -0.667548 2.19263 0
M  V30 9174 C 854.809 -1.12925 1.17268 0
M  V30 9175 O 855.998 -1.05384 1.44071 0
M  V30 9176 C 853.098 -1.92066 2.7922 0
M  V30 9177 C 852.271 -1.60832 4.06758 0
M  V30 9178 C 851.33 -2.71231 4.50911 0
M  V30 9179 O 850.356 -2.38077 5.17019 0
M  V30 9180 N 851.558 -4.00984 4.19752 0
M  V30 9181 H 854.323 -0.121449 2.99454 0
M  V30 9182 H 851.884 0.0800519 1.61702 0
M  V30 9183 H 853.876 -2.65186 3.0571 0
M  V30 9184 H 852.446 -2.37621 2.03113 0
M  V30 9185 H 851.666 -0.711685 3.87722 0
M  V30 9186 H 852.954 -1.37445 4.89884 0
M  V30 9187 H 852.352 -4.30748 3.66706 0
M  V30 9188 H 850.909 -4.7053 4.51048 0
M  V30 9189 N 854.342 -1.57594 -0.0133615 0
M  V30 9190 C 855.29 -2.08682 -1.02736 0
M  V30 9191 C 856.284 -1.00391 -1.36448 0
M  V30 9192 O 857.49 -1.18868 -1.35168 0
M  V30 9193 H 853.865 -0.666158 -0.34891 0
M  V30 9194 H 855.836 -2.9289 -0.570815 0
M  V30 9195 C 854.585 -2.5945 -2.31476 0
M  V30 9196 H 853.908 -3.42401 -2.06401 0
M  V30 9197 H 855.348 -2.98888 -3.00735 0
M  V30 9198 C 853.807 -1.50266 -3.01533 0
M  V30 9199 O 854.337 -0.877875 -3.9199 0
M  V30 9200 N 852.543 -1.23336 -2.63129 0
M  V30 9201 H 852.09 -1.74327 -1.89652 0
M  V30 9202 H 852.048 -0.504987 -3.10318 0
M  V30 9203 N 855.82 0.285905 -1.54985 0
M  V30 9204 C 857.097 1.0397 -1.65679 0
M  V30 9205 C 857.477 2.04725 -0.514851 0
M  V30 9206 O 856.825 2.23257 0.486663 0
M  V30 9207 C 857.035 1.70807 -3.04345 0
M  V30 9208 C 858.383 2.22447 -3.61666 0
M  V30 9209 O 859.407 1.80815 -3.06895 0
M  V30 9210 O 858.266 2.98773 -4.57599 0
M  V30 9211 H 855.36 0.481473 -0.672394 0
M  V30 9212 H 857.906 0.282789 -1.67327 0
M  V30 9213 H 856.678 0.977271 -3.789 0
M  V30 9214 H 856.301 2.53217 -3.06541 0
M  V30 9215 N 857.298 1.47698 0.54982 0
M  V30 9216 C 858.545 1.54702 1.30665 0
M  V30 9217 C 858.873 0.212418 1.93337 0
M  V30 9218 O 858.128 -0.79543 1.78805 0
M  V30 9219 C 858.427 2.61903 2.4319 0
M  V30 9220 C 858.093 4.04953 1.98302 0
M  V30 9221 C 856.755 4.43893 1.85776 0
M  V30 9222 C 859.107 4.94682 1.64133 0
M  V30 9223 C 856.435 5.70387 1.37388 0
M  V30 9224 C 858.787 6.21646 1.17214 0
M  V30 9225 C 857.451 6.5946 1.0329 0
M  V30 9226 H 856.721 0.566096 0.478139 0
M  V30 9227 H 859.368 1.8133 0.615767 0
M  V30 9228 H 857.673 2.2906 3.17866 0
M  V30 9229 H 859.37 2.64543 3.0136 0
M  V30 9230 H 855.96 3.74191 2.08995 0
M  V30 9231 H 860.144 4.65291 1.72679 0
M  V30 9232 H 855.4 5.98427 1.25278 0
M  V30 9233 H 859.574 6.90581 0.898391 0
M  V30 9234 H 857.201 7.57367 0.655735 0
M  V30 9235 N 858.776 -0.797141 1.35954 0
M  V30 9236 C 859.739 -1.89104 1.29508 0
M  V30 9237 C 860.739 -1.59495 0.204444 0
M  V30 9238 O 861.929 -1.68051 0.458746 0
M  V30 9239 C 859.061 -3.25726 1.00576 0
M  V30 9240 H 860.254 -1.96237 2.26785 0
M  V30 9241 H 857.807 -0.994075 1.20614 0
M  V30 9242 H 858.542 -3.24279 0.0372519 0
M  V30 9243 H 858.327 -3.48604 1.79492 0
M  V30 9244 H 859.817 -4.0578 0.986508 0
M  V30 9245 N 860.254 -1.20106 -1.0204 0
M  V30 9246 C 861.494 -1.02013 -1.77123 0
M  V30 9247 C 861.858 0.440439 -1.8688 0
M  V30 9248 O 863.059 0.74144 -2.58372 0
M  V30 9249 C 861.33 -1.68058 -3.15423 0
M  V30 9250 S 862.889 -1.65016 -4.0659 0
M  V30 9251 H 859.707 -0.365882 -0.609632 0
M  V30 9252 H 862.309 -1.52597 -1.22206 0
M  V30 9253 H 861.013 -2.73544 -3.05944 0
M  V30 9254 H 860.544 -1.17589 -3.75415 0
M  V30 9255 H 862.559 -0.680341 -4.91514 0
M  V30 9256 N 861.732 1.21287 -1.00634 0
M  V30 9257 C 862.96 1.94385 -0.708678 0
M  V30 9258 C 863.375 1.7416 0.728957 0
M  V30 9259 O 862.732 1.04906 1.49335 0
M  V30 9260 C 862.783 3.46755 -1.02193 0
M  V30 9261 O 862.504 3.6631 -2.40309 0
M  V30 9262 C 864.005 4.37014 -0.743867 0
M  V30 9263 H 861.225 0.618136 -0.261052 0
M  V30 9264 H 863.769 1.54067 -1.34475 0
M  V30 9265 H 861.924 3.8499 -0.431441 0
M  V30 9266 H 862.338 4.60393 -2.51274 0
M  V30 9267 H 863.812 5.42621 -1.01321 0
M  V30 9268 H 864.289 4.38017 0.322084 0
M  V30 9269 H 864.895 4.04426 -1.31603 0
M  V30 9270 N 863.21 0.781244 1.36873 0
M  V30 9271 C 864.45 0.355185 2.0129 0
M  V30 9272 C 864.814 -1.05115 1.6067 0
M  V30 9273 O 866.015 -1.57785 2.17618 0
M  V30 9274 C 864.286 0.504587 3.5382 0
M  V30 9275 S 865.845 0.165196 4.38489 0
M  V30 9276 H 862.663 0.136133 0.697846 0
M  V30 9277 H 865.265 1.01794 1.66908 0
M  V30 9278 H 863.969 1.52857 3.80871 0
M  V30 9279 H 863.5 -0.174392 3.93013 0
M  V30 9280 H 865.515 -1.03605 4.85263 0
M  V30 9281 N 864.689 -1.48329 0.532571 0
M  V30 9282 C 865.599 -2.33445 -0.232546 0
M  V30 9283 C 866.615 -1.46651 -0.93645 0
M  V30 9284 O 867.791 -1.79627 -0.910834 0
M  V30 9285 C 864.856 -3.22824 -1.26434 0
M  V30 9286 C 863.917 -4.25492 -0.570511 0
M  V30 9287 C 863.15 -5.10601 -1.55315 0
M  V30 9288 O 863.373 -4.97733 -2.78599 0
M  V30 9289 O 862.307 -5.91927 -1.09112 0
M  V30 9290 H 866.133 -3.00119 0.464988 0
M  V30 9291 H 863.718 -1.46489 0.293462 0
M  V30 9292 H 865.6 -3.78103 -1.86055 0
M  V30 9293 H 864.275 -2.58807 -1.94424 0
M  V30 9294 H 863.182 -3.74041 0.0662587 0
M  V30 9295 H 864.515 -4.92154 0.0674904 0
M  V30 9296 N 866.167 -0.267825 -1.55308 0
M  V30 9297 C 867.117 0.637168 -2.18916 0
M  V30 9298 C 868.101 1.12381 -1.15149 0
M  V30 9299 O 869.293 1.0701 -1.40989 0
M  V30 9300 C 866.422 1.82423 -2.90821 0
M  V30 9301 C 865.508 1.35512 -4.01867 0
M  V30 9302 N 865.899 0.601644 -5.02209 0
M  V30 9303 C 864.197 1.63868 -4.14805 0
M  V30 9304 C 864.898 0.35596 -5.8061 0
M  V30 9305 N 863.874 0.926271 -5.3565 0
M  V30 9306 H 867.676 0.0535787 -2.93851 0
M  V30 9307 H 865.19 -0.0710577 -1.62244 0
M  V30 9308 H 867.187 2.48379 -3.34834 0
M  V30 9309 H 865.847 2.41185 -2.17394 0
M  V30 9310 H 866.858 0.249693 -5.17298 0
M  V30 9311 H 863.535 2.23618 -3.52564 0
M  V30 9312 H 864.925 -0.246994 -6.71446 0
M  V30 9313 N 867.645 1.57599 0.00500368 0
M  V30 9314 C 868.577 2.04949 1.02609 0
M  V30 9315 C 869.59 0.966507 1.31006 0
M  V30 9316 O 870.779 1.2434 1.2807 0
M  V30 9317 C 867.879 2.43023 2.36206 0
M  V30 9318 C 867.052 3.73993 2.26821 0
M  V30 9319 C 866.111 3.9899 3.43065 0
M  V30 9320 O 865.137 4.69725 3.21477 0
M  V30 9321 N 866.339 3.46496 4.65748 0
M  V30 9322 H 869.104 2.93167 0.622336 0
M  V30 9323 H 866.665 1.60752 0.192488 0
M  V30 9324 H 868.657 2.56863 3.12735 0
M  V30 9325 H 867.227 1.60349 2.68341 0
M  V30 9326 H 866.447 3.70277 1.35235 0
M  V30 9327 H 867.735 4.59865 2.17719 0
M  V30 9328 H 867.133 2.89206 4.86186 0
M  V30 9329 H 865.69 3.65675 5.3956 0
M  V30 9330 N 869.123 -0.277682 1.55134 0
M  V30 9331 C 870.348 -1.03254 1.7987 0
M  V30 9332 C 870.773 -1.79324 0.567861 0
M  V30 9333 O 870.131 -1.74764 -0.4824 0
M  V30 9334 C 870.179 -1.9705 3.02 0
M  V30 9335 O 869.283 -3.05744 2.76757 0
M  V30 9336 H 868.624 -0.295447 0.594649 0
M  V30 9337 H 871.154 -0.308013 2.02268 0
M  V30 9338 H 871.164 -2.3909 3.30606 0
M  V30 9339 H 869.839 -1.41094 3.91236 0
M  V30 9340 H 868.416 -2.68052 2.59235 0
M  V30 9341 N 870.601 -1.47988 -0.541979 0
M  V30 9342 C 871.848 -1.55393 -1.29843 0
M  V30 9343 C 872.176 -0.222668 -1.93221 0
M  V30 9344 O 871.431 0.785936 -1.79225 0
M  V30 9345 C 871.73 -2.63189 -2.41798 0
M  V30 9346 C 871.396 -4.05999 -1.96151 0
M  V30 9347 C 870.058 -4.44872 -1.83419 0
M  V30 9348 C 872.41 -4.95545 -1.61507 0
M  V30 9349 C 869.738 -5.71108 -1.34361 0
M  V30 9350 C 872.09 -6.22259 -1.13915 0
M  V30 9351 C 870.754 -6.59998 -0.997911 0
M  V30 9352 H 870.024 -0.568623 -0.47513 0
M  V30 9353 H 872.671 -1.81654 -0.606142 0
M  V30 9354 H 870.976 -2.30743 -3.16647 0
M  V30 9355 H 872.673 -2.66138 -2.99953 0
M  V30 9356 H 869.263 -3.75294 -2.07008 0
M  V30 9357 H 873.447 -4.662 -1.70209 0
M  V30 9358 H 868.703 -5.99083 -1.22103 0
M  V30 9359 H 872.877 -6.91048 -0.861755 0
M  V30 9360 H 870.504 -7.57704 -0.615561 0
M  V30 9361 N 872.079 0.78992 -1.36375 0
M  V30 9362 C 873.009 1.91683 -1.33341 0
M  V30 9363 C 873.99 1.68861 -0.204965 0
M  V30 9364 O 875.175 1.89982 -0.402531 0
M  V30 9365 C 872.305 3.28696 -1.12143 0
M  V30 9366 C 871.259 3.66041 -2.21806 0
M  V30 9367 C 870.585 5.01399 -1.85751 0
M  V30 9368 C 871.885 3.74677 -3.63888 0
M  V30 9369 H 873.579 1.94478 -2.27637 0
M  V30 9370 H 871.125 0.934271 -1.09578 0
M  V30 9371 H 873.078 4.07151 -1.08656 0
M  V30 9372 H 871.802 3.26287 -0.142974 0
M  V30 9373 H 870.461 2.89883 -2.24418 0
M  V30 9374 H 870.109 4.9551 -0.864817 0
M  V30 9375 H 869.809 5.27355 -2.59173 0
M  V30 9376 H 871.333 5.82274 -1.83819 0
M  V30 9377 H 872.747 4.43324 -3.63506 0
M  V30 9378 H 871.144 4.12118 -4.3621 0
M  V30 9379 H 872.214 2.75795 -3.9883 0
M  V30 9380 N 873.557 1.20646 1.01402 0
M  V30 9381 C 874.489 0.915392 2.10127 0
M  V30 9382 C 875.502 -0.0978705 1.62506 0
M  V30 9383 O 876.691 0.133477 1.78 0
M  V30 9384 C 873.791 0.351304 3.37074 0
M  V30 9385 C 872.964 1.41673 4.13821 0
M  V30 9386 C 872.023 0.8635 5.19067 0
M  V30 9387 O 871.049 1.54481 5.47836 0
M  V30 9388 N 872.251 -0.325799 5.79585 0
M  V30 9389 H 875.016 1.85132 2.35682 0
M  V30 9390 H 872.577 1.11048 1.17813 0
M  V30 9391 H 874.569 -0.032996 4.04687 0
M  V30 9392 H 873.139 -0.489242 3.08748 0
M  V30 9393 H 872.359 1.97526 3.41141 0
M  V30 9394 H 873.647 2.1342 4.61876 0
M  V30 9395 H 873.045 -0.896534 5.58551 0
M  V30 9396 H 871.602 -0.651708 6.48534 0
M  V30 9397 N 875.035 -1.20752 1.01276 0
M  V30 9398 C 876.281 -1.90582 0.710627 0
M  V30 9399 C 876.636 -1.7713 -0.751184 0
M  V30 9400 O 875.929 -1.14223 -1.5383 0
M  V30 9401 C 876.123 -3.40808 1.07633 0
M  V30 9402 C 875.952 -3.68878 2.57214 0
M  V30 9403 C 874.722 -3.87805 3.23937 0
M  V30 9404 C 876.92 -3.71753 3.55393 0
M  V30 9405 N 874.902 -4.0336 4.62789 0
M  V30 9406 C 876.273 -3.92686 4.79789 0
M  V30 9407 C 878.328 -3.54697 3.4942 0
M  V30 9408 C 877.031 -3.98332 5.98936 0
M  V30 9409 C 879.057 -3.61612 4.67964 0
M  V30 9410 C 878.419 -3.83014 5.91168 0
M  V30 9411 H 874.518 -0.717219 0.311643 0
M  V30 9412 H 877.102 -1.45228 1.2968 0
M  V30 9413 H 875.273 -3.84923 0.518527 0
M  V30 9414 H 877.005 -3.98096 0.728128 0
M  V30 9415 H 873.76 -3.86029 2.74369 0
M  V30 9416 H 874.184 -4.15023 5.34869 0
M  V30 9417 H 878.826 -3.3712 2.55166 0
M  V30 9418 H 876.544 -4.14706 6.93574 0
M  V30 9419 H 880.13 -3.49728 4.64954 0
M  V30 9420 H 879.01 -3.88219 6.81363 0
M  V30 9421 N 876.513 -0.788492 -1.36457 0
M  V30 9422 C 877.762 -0.357052 -1.98515 0
M  V30 9423 C 878.075 1.0769 -1.63285 0
M  V30 9424 O 879.281 1.61057 -2.1857 0
M  V30 9425 C 877.737 -0.587449 -3.55073 0
M  V30 9426 C 877.345 -2.03276 -3.99228 0
M  V30 9427 C 879.089 -0.220468 -4.23927 0
M  V30 9428 C 876.996 -2.20987 -5.48561 0
M  V30 9429 H 875.926 -0.129762 -0.74275 0
M  V30 9430 H 878.577 -0.969995 -1.55767 0
M  V30 9431 H 876.959 0.0951918 -3.95886 0
M  V30 9432 H 878.133 -2.75173 -3.69617 0
M  V30 9433 H 876.448 -2.3579 -3.43208 0
M  V30 9434 H 879.045 -0.331085 -5.33674 0
M  V30 9435 H 879.388 0.831306 -4.07915 0
M  V30 9436 H 879.921 -0.856309 -3.88474 0
M  V30 9437 H 876.66 -3.24543 -5.69519 0
M  V30 9438 H 876.18 -1.53594 -5.79801 0
M  V30 9439 H 877.859 -2.01656 -6.14771 0
M  V30 9440 N 877.991 1.48044 -0.54043 0
M  V30 9441 C 878.938 2.29781 0.216597 0
M  V30 9442 C 879.908 1.38021 0.924094 0
M  V30 9443 O 881.093 1.66985 0.923078 0
M  V30 9444 C 878.233 3.21623 1.2511 0
M  V30 9445 C 877.346 4.28467 0.551384 0
M  V30 9446 C 876.481 5.07477 1.56972 0
M  V30 9447 C 875.52 6.06113 0.854048 0
M  V30 9448 N 874.657 6.78143 1.81842 0
M  V30 9449 H 879.497 2.94001 -0.486578 0
M  V30 9450 H 877.034 1.44929 -0.251789 0
M  V30 9451 H 878.992 3.73279 1.8633 0
M  V30 9452 H 877.622 2.59305 1.92252 0
M  V30 9453 H 876.674 3.79997 -0.174982 0
M  V30 9454 H 877.986 4.98799 -0.0100542 0
M  V30 9455 H 877.14 5.63199 2.25592 0
M  V30 9456 H 875.879 4.37008 2.16507 0
M  V30 9457 H 874.884 5.49585 0.153838 0
M  V30 9458 H 876.109 6.78584 0.264675 0
M  V30 9459 H 874.055 6.10417 2.40265 0
M  V30 9460 H 873.972 7.44587 1.3087 0
M  V30 9461 H 875.24 7.38448 2.49628 0
M  V30 9462 N 879.47 0.276058 1.55163 0
M  V30 9463 C 880.747 -0.392292 1.91626 0
M  V30 9464 C 881.127 -1.73646 1.20043 0
M  V30 9465 O 880.475 -2.26139 0.327606 0
M  V30 9466 C 880.685 -0.531641 3.44927 0
M  V30 9467 C 882.033 -0.8141 4.16722 0
M  V30 9468 O 883.057 -0.616413 3.50826 0
M  V30 9469 O 881.916 -1.19224 5.33337 0
M  V30 9470 H 879.01 -0.214945 0.798579 0
M  V30 9471 H 881.556 0.32228 1.66612 0
M  V30 9472 H 880.328 0.414282 3.89101 0
M  V30 9473 H 879.951 -1.29564 3.75897 0
M  V30 9474 N 880.948 -1.576 0.00335426 0
M  V30 9475 C 881.88 -2.0549 -1.01521 0
M  V30 9476 C 882.893 -0.973441 -1.30491 0
M  V30 9477 O 884.082 -1.25017 -1.27409 0
M  V30 9478 C 881.182 -2.44272 -2.34914 0
M  V30 9479 C 880.355 -3.75191 -2.24835 0
M  V30 9480 C 879.414 -4.00804 -3.40944 0
M  V30 9481 O 878.44 -4.71423 -3.18981 0
M  V30 9482 N 879.642 -3.48961 -4.63904 0
M  V30 9483 H 882.407 -2.93493 -0.60678 0
M  V30 9484 H 879.968 -1.60851 -0.18396 0
M  V30 9485 H 881.96 -2.58518 -3.11369 0
M  V30 9486 H 880.53 -1.6177 -2.67487 0
M  V30 9487 H 879.75 -3.70989 -1.3327 0
M  V30 9488 H 881.038 -4.61013 -2.15277 0
M  V30 9489 H 880.436 -2.9178 -4.84645 0
M  V30 9490 H 878.993 -3.68531 -5.37613 0
M  V30 9491 N 882.426 0.269451 -1.5528 0
M  V30 9492 C 883.842 0.616827 -1.47199 0
M  V30 9493 C 884.042 1.89354 -0.68901 0
M  V30 9494 O 883.098 2.51631 -0.209287 0
M  V30 9495 C 884.411 0.740492 -2.9144 0
M  V30 9496 C 885.959 0.834312 -3.01676 0
M  V30 9497 C 886.434 0.989725 -4.47178 0
M  V30 9498 N 887.925 1.05516 -4.51022 0
M  V30 9499 C 888.66 1.19427 -5.60825 0
M  V30 9500 N 888.156 1.30035 -6.80487 0
M  V30 9501 N 889.949 1.22566 -5.48575 0
M  V30 9502 H 882.1 -0.568962 -2.04638 0
M  V30 9503 H 884.363 -0.193153 -0.928114 0
M  V30 9504 H 884.069 -0.127234 -3.5147 0
M  V30 9505 H 883.943 1.61965 -3.40657 0
M  V30 9506 H 886.33 1.6925 -2.4174 0
M  V30 9507 H 886.411 -0.0695298 -2.55705 0
M  V30 9508 H 886.055 0.136179 -5.07717 0
M  V30 9509 H 885.985 1.90827 -4.90808 0
M  V30 9510 H 888.476 0.985434 -3.64825 0
M  V30 9511 H 888.789 1.40494 -7.59922 0
M  V30 9512 H 887.134 1.27033 -6.83292 0
M  V30 9513 H 890.325 1.13911 -4.54029 0
M  V30 9514 H 890.498 1.33063 -6.34191 0
M  V30 9515 N 883.904 1.48273 0.534124 0
M  V30 9516 C 884.836 1.5857 1.65494 0
M  V30 9517 C 885.849 0.470266 1.5586 0
M  V30 9518 O 887.038 0.740928 1.62396 0
M  V30 9519 C 884.138 1.49554 3.04117 0
M  V30 9520 C 883.311 2.76066 3.39273 0
M  V30 9521 C 882.37 2.60562 4.57159 0
M  V30 9522 O 881.396 3.34438 4.60587 0
M  V30 9523 N 882.598 1.69906 5.55079 0
M  V30 9524 H 885.363 2.55226 1.57099 0
M  V30 9525 H 882.924 1.44944 0.721303 0
M  V30 9526 H 884.916 1.36882 3.80848 0
M  V30 9527 H 883.486 0.608895 3.06613 0
M  V30 9528 H 882.706 3.03332 2.51761 0
M  V30 9529 H 883.994 3.60006 3.59546 0
M  V30 9530 H 883.392 1.09079 5.55084 0
M  V30 9531 H 881.949 1.63175 6.31044 0
M  V30 9532 N 885.382 -0.782676 1.36792 0
M  V30 9533 C 886.312 -1.90973 1.34356 0
M  V30 9534 C 887.293 -1.6875 0.213917 0
M  V30 9535 O 888.478 -1.89766 0.412601 0
M  V30 9536 C 885.608 -3.28097 1.13884 0
M  V30 9537 C 884.562 -3.6486 2.23744 0
M  V30 9538 C 883.888 -5.00406 1.88408 0
M  V30 9539 C 885.188 -3.72742 3.6587 0
M  V30 9540 H 886.882 -1.93268 2.28665 0
M  V30 9541 H 884.428 -0.928447 1.10072 0
M  V30 9542 H 886.381 -4.06569 1.10813 0
M  V30 9543 H 885.105 -3.26206 0.160275 0
M  V30 9544 H 883.764 -2.88689 2.25952 0
M  V30 9545 H 883.412 -4.95044 0.891083 0
M  V30 9546 H 883.112 -5.25973 2.61966 0
M  V30 9547 H 884.636 -5.81291 1.86905 0
M  V30 9548 H 886.05 -4.4139 3.65852 0
M  V30 9549 H 884.447 -4.09798 4.38389 0
M  V30 9550 H 885.517 -2.73676 4.00287 0
M  V30 9551 N 886.86 -1.21182 -1.00761 0
M  V30 9552 C 887.79 -0.992773 -2.11344 0
M  V30 9553 C 888.771 0.0813618 -1.69905 0
M  V30 9554 O 889.956 -0.0779503 -1.94043 0
M  V30 9555 C 887.086 -0.553826 -3.42856 0
M  V30 9556 C 886.04 -1.57223 -3.98077 0
M  V30 9557 C 885.366 -0.989605 -5.25463 0
M  V30 9558 C 886.666 -2.95839 -4.30438 0
M  V30 9559 H 888.36 -1.91766 -2.29927 0
M  V30 9560 H 885.906 -0.923426 -1.10494 0
M  V30 9561 H 887.859 -0.387771 -4.19612 0
M  V30 9562 H 886.583 0.406702 -3.24058 0
M  V30 9563 H 885.242 -1.7258 -3.23437 0
M  V30 9564 H 884.89 -0.0208743 -5.02996 0
M  V30 9565 H 884.59 -1.66984 -5.63374 0
M  V30 9566 H 886.114 -0.834815 -6.04866 0
M  V30 9567 H 887.528 -2.8394 -4.98047 0
M  V30 9568 H 885.925 -3.60851 -4.79486 0
M  V30 9569 H 886.995 -3.46882 -3.38823 0
M  V30 9570 N 888.338 1.20213 -1.01915 0
M  V30 9571 C 889.584 1.89928 -0.711007 0
M  V30 9572 C 889.917 1.7881 0.75767 0
M  V30 9573 O 889.192 1.17399 1.55073 0
M  V30 9574 C 889.475 3.41225 -1.15053 0
M  V30 9575 C 889.328 3.61264 -2.67971 0
M  V30 9576 C 890.647 4.34108 -0.72377 0
M  V30 9577 H 887.766 0.689702 -0.259768 0
M  V30 9578 H 890.408 1.41557 -1.26734 0
M  V30 9579 H 888.558 3.82552 -0.677199 0
M  V30 9580 H 890.23 3.29173 -3.23176 0
M  V30 9581 H 888.473 3.04647 -3.08824 0
M  V30 9582 H 889.144 4.67331 -2.93779 0
M  V30 9583 H 891.62 4.00442 -1.13073 0
M  V30 9584 H 890.496 5.38581 -1.05931 0
M  V30 9585 H 890.757 4.40512 0.374424 0
M  V30 9586 N 889.816 0.795718 1.36037 0
M  V30 9587 C 890.726 0.199784 2.33748 0
M  V30 9588 C 891.742 -0.651436 1.61345 0
M  V30 9589 O 892.918 -0.565743 1.93291 0
M  V30 9590 C 889.983 -0.650475 3.40543 0
M  V30 9591 C 889.044 0.219974 4.28736 0
M  V30 9592 C 888.277 -0.589798 5.30431 0
M  V30 9593 O 888.5 -1.82532 5.40406 0
M  V30 9594 O 887.434 0.0136187 6.01898 0
M  V30 9595 H 891.26 1.00782 2.8649 0
M  V30 9596 H 888.845 0.557293 1.38617 0
M  V30 9597 H 890.727 -1.13512 4.05824 0
M  V30 9598 H 889.402 -1.4363 2.9009 0
M  V30 9599 H 888.309 0.751516 3.66474 0
M  V30 9600 H 889.642 0.969468 4.82558 0
M  V30 9601 N 891.294 -1.47756 0.548274 0
M  V30 9602 C 892.54 -2.02789 0.0209265 0
M  V30 9603 C 892.873 -1.42268 -1.32187 0
M  V30 9604 O 892.148 -0.575001 -1.85806 0
M  V30 9605 C 892.431 -3.60007 -0.0816674 0
M  V30 9606 C 892.284 -4.30977 1.28759 0
M  V30 9607 C 893.603 -4.32777 -0.799515 0
M  V30 9608 H 890.722 -0.736944 0.00907884 0
M  V30 9609 H 893.364 -1.76282 0.708839 0
M  V30 9610 H 891.514 -3.82722 -0.667537 0
M  V30 9611 H 893.186 -4.19629 1.91597 0
M  V30 9612 H 891.429 -3.9168 1.86466 0
M  V30 9613 H 892.1 -5.39488 1.16861 0
M  V30 9614 H 894.576 -4.15001 -0.30216 0
M  V30 9615 H 893.452 -5.42431 -0.840239 0
M  V30 9616 H 893.713 -4.01358 -1.85375 0
M  V30 9617 N 892.772 -0.284283 -1.55015 0
M  V30 9618 C 893.682 0.60906 -2.26556 0
M  V30 9619 C 894.698 1.16246 -1.29472 0
M  V30 9620 O 895.874 1.1908 -1.62425 0
M  V30 9621 C 892.939 1.77246 -2.97968 0
M  V30 9622 C 892 1.25482 -4.10552 0
M  V30 9623 C 891.233 2.36277 -4.78549 0
M  V30 9624 O 891.456 3.55829 -4.45805 0
M  V30 9625 O 890.39 2.03914 -5.66306 0
M  V30 9626 H 894.216 0.0292298 -3.03686 0
M  V30 9627 H 891.801 -0.0513466 -1.49312 0
M  V30 9628 H 893.683 2.45062 -3.42815 0
M  V30 9629 H 892.358 2.33921 -2.23747 0
M  V30 9630 H 891.265 0.542859 -3.7014 0
M  V30 9631 H 892.598 0.733708 -4.86701 0
M  V30 9632 N 894.251 1.57596 -0.0117121 0
M  V30 9633 C 895.667 1.55837 0.344506 0
M  V30 9634 C 895.867 1.01557 1.74036 0
M  V30 9635 O 894.923 0.654563 2.43868 0
M  V30 9636 C 896.236 2.99973 0.209023 0
M  V30 9637 C 897.784 3.11717 0.283092 0
M  V30 9638 C 898.259 4.57659 0.176599 0
M  V30 9639 N 899.75 4.62608 0.234133 0
M  V30 9640 C 900.485 5.73132 0.175252 0
M  V30 9641 N 899.981 6.92768 0.0662888 0
M  V30 9642 N 901.774 5.61638 0.227972 0
M  V30 9643 H 893.925 1.91215 -0.924692 0
M  V30 9644 H 896.188 0.878807 -0.355531 0
M  V30 9645 H 895.894 3.4357 -0.751826 0
M  V30 9646 H 895.768 3.64075 0.98635 0
M  V30 9647 H 898.155 2.68043 1.23439 0
M  V30 9648 H 898.236 2.50369 -0.52431 0
M  V30 9649 H 897.88 5.02011 -0.771205 0
M  V30 9650 H 897.81 5.16967 1.00264 0
M  V30 9651 H 900.301 3.76549 0.319203 0
M  V30 9652 H 900.614 7.72795 0.0275765 0
M  V30 9653 H 898.959 6.94993 0.0317502 0
M  V30 9654 H 902.15 4.67063 0.311377 0
M  V30 9655 H 902.323 6.47754 0.178621 0
M  V30 9656 N 895.729 -0.261212 1.5542 0
M  V30 9657 C 896.662 -1.34906 1.84054 0
M  V30 9658 C 897.64 -1.47024 0.694466 0
M  V30 9659 O 898.824 -1.63463 0.938719 0
M  V30 9660 C 895.951 -2.7242 2.01259 0
M  V30 9661 C 894.997 -2.77526 3.23855 0
M  V30 9662 S 895.83 -2.35578 4.80898 0
M  V30 9663 C 896.986 -3.75045 5.01091 0
M  V30 9664 H 897.219 -1.10416 2.76035 0
M  V30 9665 H 894.752 -0.461461 1.47343 0
M  V30 9666 H 896.71 -3.51606 2.11857 0
M  V30 9667 H 895.371 -2.94155 1.10145 0
M  V30 9668 H 894.564 -3.78483 3.32816 0
M  V30 9669 H 894.166 -2.0637 3.11909 0
M  V30 9670 H 896.458 -4.7042 4.87556 0
M  V30 9671 H 897.401 -3.71027 6.03112 0
M  V30 9672 H 897.809 -3.66894 4.29009 0
M  V30 9673 N 897.207 -1.48554 -0.526253 0
M  V30 9674 C 898.117 -1.66044 -1.65731 0
M  V30 9675 C 899.133 -0.542951 -1.65312 0
M  V30 9676 O 900.309 -0.814495 -1.84195 0
M  V30 9677 C 897.374 -1.69959 -3.02184 0
M  V30 9678 C 896.435 -2.93362 -3.13428 0
M  V30 9679 C 895.668 -2.97081 -4.43372 0
M  V30 9680 O 895.891 -2.09103 -5.3069 0
M  V30 9681 O 894.825 -3.8929 -4.59061 0
M  V30 9682 H 898.651 -2.61811 -1.53912 0
M  V30 9683 H 896.236 -1.31999 -0.699759 0
M  V30 9684 H 898.118 -1.75033 -3.83329 0
M  V30 9685 H 896.793 -0.773658 -3.14319 0
M  V30 9686 H 895.7 -2.93818 -2.31564 0
M  V30 9687 H 897.033 -3.85352 -3.06211 0
M  V30 9688 N 898.685 0.775411 -1.37205 0
M  V30 9689 C 899.925 1.54689 -1.33606 0
M  V30 9690 C 900.289 1.91834 0.0798549 0
M  V30 9691 O 901.49 2.67722 0.240531 0
M  V30 9692 C 899.761 2.7804 -2.24563 0
M  V30 9693 S 901.32 3.68143 -2.38781 0
M  V30 9694 H 898.138 0.529631 -0.474355 0
M  V30 9695 H 900.74 0.912128 -1.72918 0
M  V30 9696 H 899.444 2.48825 -3.26365 0
M  V30 9697 H 898.975 3.46479 -1.86322 0
M  V30 9698 H 900.99 4.69843 -1.59568 0
M  V30 9699 N 900.163 1.21714 1.00117 0
M  V30 9700 C 901.126 0.981338 2.07129 0
M  V30 9701 C 902.126 -0.0491116 1.60725 0
M  V30 9702 O 903.316 0.188555 1.73177 0
M  V30 9703 C 900.448 0.480608 3.37495 0
M  V30 9704 H 901.641 1.93075 2.29482 0
M  V30 9705 H 899.194 1.03467 1.17151 0
M  V30 9706 H 899.929 -0.473552 3.20824 0
M  V30 9707 H 899.714 1.22393 3.72508 0
M  V30 9708 H 901.204 0.33561 4.16249 0
M  V30 9709 N 901.641 -1.19671 1.02551 0
M  V30 9710 C 902.869 -1.93233 0.739513 0
M  V30 9711 C 903.284 -1.75298 -0.701158 0
M  V30 9712 O 902.641 -1.07269 -1.47647 0
M  V30 9713 C 902.692 -3.45085 1.07697 0
M  V30 9714 O 902.413 -3.62441 2.46106 0
M  V30 9715 C 903.914 -4.35776 0.813298 0
M  V30 9716 H 901.134 -0.613905 0.270853 0
M  V30 9717 H 903.678 -1.51909 1.36909 0
M  V30 9718 H 901.833 -3.84255 0.492635 0
M  V30 9719 H 902.247 -4.56337 2.58567 0
M  V30 9720 H 903.721 -5.40941 1.09941 0
M  V30 9721 H 904.198 -4.38474 -0.252359 0
M  V30 9722 H 904.804 -4.02282 1.38021 0
M  V30 9723 N 903.119 -0.802921 -1.35613 0
M  V30 9724 C 904.53 -0.443004 -1.81368 0
M  V30 9725 C 904.881 1.03459 -1.66706 0
M  V30 9726 O 904.006 1.80372 -1.19561 0
M  V30 9727 C 904.601 -0.797324 -3.29284 0
M  V30 9728 C 903.16 -0.490055 -3.73196 0
M  V30 9729 C 902.307 -1.02487 -2.57666 0
M  V30 9730 H 905.258 -0.994888 -1.23643 0
M  V30 9731 H 905.279 -0.0934638 -3.80385 0
M  V30 9732 H 904.791 -1.87278 -3.39924 0
M  V30 9733 H 902.892 0.576818 -3.68108 0
M  V30 9734 H 903.005 -1.02012 -4.68114 0
M  V30 9735 H 901.369 -0.44738 -2.5074 0
M  V30 9736 H 902.152 -2.10636 -2.71085 0
M  V30 9737 N 904.597 1.47463 -0.556102 0
M  V30 9738 C 905.822 2.07371 -0.0344729 0
M  V30 9739 C 906.247 1.40621 1.2493 0
M  V30 9740 O 905.605 0.48082 1.74808 0
M  V30 9741 C 905.653 3.60306 0.145563 0
M  V30 9742 O 904.757 3.94299 1.20839 0
M  V30 9743 H 904.098 0.662052 -0.0508274 0
M  V30 9744 H 906.628 1.89498 -0.771469 0
M  V30 9745 H 906.638 4.06408 0.360112 0
M  V30 9746 H 905.313 4.08288 -0.792089 0
M  V30 9747 H 903.89 3.59944 0.97442 0
M  V30 9748 N 906.075 0.2925 1.54862 0
M  V30 9749 C 907.352 -0.371946 1.92031 0
M  V30 9750 C 907.732 -1.72363 1.21878 0
M  V30 9751 O 907.08 -2.25779 0.351573 0
M  V30 9752 C 907.29 -0.495027 3.45471 0
M  V30 9753 C 908.638 -0.769855 4.17562 0
M  V30 9754 O 909.662 -0.579168 3.5146 0
M  V30 9755 O 908.521 -1.13561 5.34571 0
M  V30 9756 H 905.615 -0.206463 0.800813 0
M  V30 9757 H 908.161 0.339933 1.6626 0
M  V30 9758 H 906.933 0.455528 3.88639 0
M  V30 9759 H 906.556 -1.2557 3.7725 0
M  V30 9760 N 907.553 -1.57587 0.0200696 0
M  V30 9761 C 908.5 -2.09667 -0.964791 0
M  V30 9762 C 909.47 -0.99664 -1.32877 0
M  V30 9763 O 910.655 -1.2703 -1.42366 0
M  V30 9764 C 907.795 -2.62101 -2.24493 0
M  V30 9765 C 906.908 -3.8608 -1.93821 0
M  V30 9766 C 906.043 -4.26939 -3.16064 0
M  V30 9767 C 905.082 -5.43701 -2.81169 0
M  V30 9768 N 904.219 -5.79759 -3.9601 0
M  V30 9769 H 909.059 -2.93538 -0.513751 0
M  V30 9770 H 906.596 -1.45096 -0.242 0
M  V30 9771 H 908.554 -2.90587 -2.99358 0
M  V30 9772 H 907.184 -1.81074 -2.6723 0
M  V30 9773 H 906.236 -3.64378 -1.09237 0
M  V30 9774 H 907.548 -4.71028 -1.64115 0
M  V30 9775 H 906.702 -4.56814 -3.99257 0
M  V30 9776 H 905.441 -3.40739 -3.48924 0
M  V30 9777 H 904.446 -5.13529 -1.96387 0
M  V30 9778 H 905.671 -6.31593 -2.49535 0
M  V30 9779 H 903.617 -4.96516 -4.28729 0
M  V30 9780 H 903.534 -6.59327 -3.69896 0
M  V30 9781 H 904.802 -6.14235 -4.79933 0
M  V30 9782 N 909.032 0.252966 -1.55557 0
M  V30 9783 C 909.964 1.33585 -1.86246 0
M  V30 9784 C 910.977 1.44584 -0.748291 0
M  V30 9785 O 912.166 1.46042 -1.02635 0
M  V30 9786 C 909.266 2.71509 -2.02821 0
M  V30 9787 C 908.439 2.82853 -3.33636 0
M  V30 9788 C 907.498 4.01581 -3.40028 0
M  V30 9789 O 906.524 3.91394 -4.13278 0
M  V30 9790 N 907.726 5.14474 -2.6888 0
M  V30 9791 H 910.491 1.07596 -2.7972 0
M  V30 9792 H 908.052 0.443075 -1.55719 0
M  V30 9793 H 910.044 3.49262 -2.04445 0
M  V30 9794 H 908.614 2.90232 -1.1612 0
M  V30 9795 H 907.834 1.91823 -3.4438 0
M  V30 9796 H 909.122 2.87378 -4.19871 0
M  V30 9797 H 908.52 5.25641 -2.09087 0
M  V30 9798 H 907.077 5.90385 -2.76204 0
M  V30 9799 N 910.51 1.48831 0.518367 0
M  V30 9800 C 911.758 1.57128 1.27103 0
M  V30 9801 C 912.079 0.252098 1.93364 0
M  V30 9802 O 911.349 -0.727281 1.819 0
M  V30 9803 H 909.929 0.578891 0.472116 0
M  V30 9804 H 912.591 1.85361 0.602262 0
M  V30 9805 H 911.687 2.35838 2.04418 0
M  V30 9806 N 911.988 -0.768124 1.37614 0
M  V30 9807 C 912.921 -1.88894 1.2804 0
M  V30 9808 C 913.899 -1.61809 0.160226 0
M  V30 9809 O 915.083 -1.85498 0.33506 0
M  V30 9810 C 912.21 -3.24197 0.980523 0
M  V30 9811 C 911.256 -3.70188 2.11808 0
M  V30 9812 S 912.089 -3.83433 3.73817 0
M  V30 9813 C 913.245 -5.21578 3.45987 0
M  V30 9814 H 913.478 -1.96726 2.22904 0
M  V30 9815 H 911.011 -0.929602 1.23279 0
M  V30 9816 H 912.969 -4.02342 0.814331 0
M  V30 9817 H 911.63 -3.14061 0.0493122 0
M  V30 9818 H 910.823 -4.6829 1.86335 0
M  V30 9819 H 910.425 -2.99155 2.2446 0
M  V30 9820 H 912.717 -6.06865 3.012 0
M  V30 9821 H 913.66 -5.52065 4.43429 0
M  V30 9822 H 914.068 -4.89687 2.80832 0
M  V30 9823 N 913.466 -1.22244 -0.994698 0
M  V30 9824 C 914.877 -1.043 -1.5485 0
M  V30 9825 C 915.228 0.394102 -1.92201 0
M  V30 9826 O 914.353 1.27883 -1.74571 0
M  V30 9827 C 914.948 -1.88708 -2.8138 0
M  V30 9828 C 913.507 -1.75067 -3.3321 0
M  V30 9829 C 912.654 -1.85286 -2.06312 0
M  V30 9830 H 915.605 -1.36115 -0.815988 0
M  V30 9831 H 915.626 -1.40342 -3.53673 0
M  V30 9832 H 915.138 -2.93296 -2.54164 0
M  V30 9833 H 913.239 -0.732047 -3.65338 0
M  V30 9834 H 913.352 -2.57632 -4.03934 0
M  V30 9835 H 911.716 -1.28706 -2.19788 0
M  V30 9836 H 912.499 -2.91401 -1.81494 0
M  V30 9837 N 914.944 1.19125 -1.03184 0
M  V30 9838 C 916.19 1.89163 -0.731111 0
M  V30 9839 C 916.523 1.79604 0.738662 0
M  V30 9840 O 915.798 1.19037 1.53819 0
M  V30 9841 C 916.081 3.39986 -1.18666 0
M  V30 9842 C 915.934 3.58401 -2.71788 0
M  V30 9843 C 917.253 4.33316 -0.769772 0
M  V30 9844 H 914.372 0.686908 -0.267069 0
M  V30 9845 H 917.014 1.40205 -1.28229 0
M  V30 9846 H 915.164 3.81813 -0.717736 0
M  V30 9847 H 916.836 3.25727 -3.26649 0
M  V30 9848 H 915.079 3.01355 -3.12038 0
M  V30 9849 H 915.75 4.64189 -2.98719 0
M  V30 9850 H 918.226 3.9922 -1.17314 0
M  V30 9851 H 917.102 5.37427 -1.11637 0
M  V30 9852 H 917.363 4.40884 0.327681 0
M  V30 9853 N 916.422 0.810101 1.35185 0
M  V30 9854 C 917.352 0.237453 2.32289 0
M  V30 9855 C 918.333 -0.639032 1.5764 0
M  V30 9856 O 919.518 -0.568575 1.8569 0
M  V30 9857 C 916.648 -0.611964 3.41866 0
M  V30 9858 C 915.602 0.166318 4.27677 0
M  V30 9859 C 914.928 -0.805024 5.28605 0
M  V30 9860 C 916.228 1.36729 5.04086 0
M  V30 9861 H 917.922 1.04874 2.80432 0
M  V30 9862 H 915.468 0.505751 1.34826 0
M  V30 9863 H 917.421 -1.02267 4.08802 0
M  V30 9864 H 916.145 -1.45617 2.92341 0
M  V30 9865 H 914.804 0.558238 3.62325 0
M  V30 9866 H 914.452 -1.64483 4.75347 0
M  V30 9867 H 914.152 -0.288577 5.86891 0
M  V30 9868 H 915.676 -1.21386 5.98413 0
M  V30 9869 H 917.09 1.03128 5.63948 0
M  V30 9870 H 915.487 1.81848 5.71884 0
M  V30 9871 H 916.557 2.15214 4.34524 0
M  V30 9872 N 917.9 -1.47166 0.563914 0
M  V30 9873 C 919.125 -2.0735 0.0454698 0
M  V30 9874 C 919.55 -1.41281 -1.24182 0
M  V30 9875 O 918.908 -0.490084 -1.7455 0
M  V30 9876 C 918.956 -3.60378 -0.126453 0
M  V30 9877 O 918.06 -3.94934 -1.18746 0
M  V30 9878 H 917.401 -0.661773 0.0543377 0
M  V30 9879 H 919.931 -1.89086 0.781508 0
M  V30 9880 H 919.941 -4.06593 -0.338554 0
M  V30 9881 H 918.616 -4.07862 0.81373 0
M  V30 9882 H 917.193 -3.60455 -0.955318 0
M  V30 9883 N 919.378 -0.300708 -1.54705 0
M  V30 9884 C 920.308 0.568675 -2.26469 0
M  V30 9885 C 921.289 1.13817 -1.26411 0
M  V30 9886 O 922.474 1.16756 -1.55183 0
M  V30 9887 C 919.604 1.74077 -3.00524 0
M  V30 9888 C 918.558 1.30165 -4.07727 0
M  V30 9889 C 917.884 2.55888 -4.69495 0
M  V30 9890 C 919.184 0.433106 -5.20501 0
M  V30 9891 H 920.878 -0.0298851 -2.99385 0
M  V30 9892 H 918.424 -0.0158135 -1.43991 0
M  V30 9893 H 920.377 2.35506 -3.49449 0
M  V30 9894 H 919.101 2.36556 -2.25186 0
M  V30 9895 H 917.76 0.710414 -3.59651 0
M  V30 9896 H 917.408 3.16681 -3.90797 0
M  V30 9897 H 917.108 2.27207 -5.41895 0
M  V30 9898 H 918.632 3.18121 -5.21183 0
M  V30 9899 H 920.046 0.95307 -5.65322 0
M  V30 9900 H 918.443 0.240085 -5.9962 0
M  V30 9901 H 919.513 -0.541866 -4.81863 0
M  V30 9902 N 920.856 1.57574 -0.0284266 0
M  V30 9903 C 921.804 2.11332 0.971675 0
M  V30 9904 C 922.798 1.03974 1.33738 0
M  V30 9905 O 924.004 1.22409 1.31969 0
M  V30 9906 H 920.379 0.675174 0.331125 0
M  V30 9907 H 922.35 2.943 0.49296 0
M  V30 9908 C 921.099 2.65496 2.24516 0
M  V30 9909 H 920.422 3.47753 1.9725 0
M  V30 9910 H 921.862 3.06757 2.92705 0
M  V30 9911 C 920.321 1.58207 2.97443 0
M  V30 9912 O 920.851 0.981496 3.89525 0
M  V30 9913 N 919.057 1.30269 2.59766 0
M  V30 9914 H 918.604 1.79294 1.84963 0
M  V30 9915 H 918.562 0.587085 3.0887 0
M  V30 9916 N 922.334 -0.244713 1.55689 0
M  V30 9917 C 923.583 -0.970373 1.76824 0
M  V30 9918 C 923.896 -1.86402 0.592764 0
M  V30 9919 O 925.102 -2.62659 0.687186 0
M  V30 9920 C 923.558 -1.77547 3.13058 0
M  V30 9921 C 923.166 -0.929104 4.3826 0
M  V30 9922 C 924.91 -2.49373 3.43531 0
M  V30 9923 C 922.817 -1.73021 5.65524 0
M  V30 9924 H 921.747 -0.366048 0.659185 0
M  V30 9925 H 924.398 -0.224964 1.82116 0
M  V30 9926 H 922.78 -2.56291 3.01879 0
M  V30 9927 H 923.954 -0.183836 4.60433 0
M  V30 9928 H 922.269 -0.324071 4.15137 0
M  V30 9929 H 924.866 -3.09767 4.35831 0
M  V30 9930 H 925.209 -3.21099 2.64955 0
M  V30 9931 H 925.742 -1.77637 3.55935 0
M  V30 9932 H 922.481 -1.05666 6.46927 0
M  V30 9933 H 922.001 -2.45071 5.47449 0
M  V30 9934 H 923.68 -2.2968 6.0486 0
M  V30 9935 N 923.813 -1.49104 -0.510467 0
M  V30 9936 C 925.041 -1.61806 -1.28944 0
M  V30 9937 C 925.456 -0.285774 -1.86625 0
M  V30 9938 O 924.813 0.727551 -1.67371 0
M  V30 9939 C 924.864 -2.67966 -2.42645 0
M  V30 9940 O 924.585 -3.96026 -1.87337 0
M  V30 9941 C 926.086 -2.91286 -3.34166 0
M  V30 9942 H 923.306 -0.544999 -0.391429 0
M  V30 9943 H 925.85 -1.95071 -0.613805 0
M  V30 9944 H 924.005 -2.37505 -3.06056 0
M  V30 9945 H 924.419 -4.54427 -2.61909 0
M  V30 9946 H 925.893 -3.69323 -4.1025 0
M  V30 9947 H 926.37 -2.00842 -3.90588 0
M  V30 9948 H 926.976 -3.23127 -2.76531 0
M  V30 9949 N 925.291 0.760815 -1.38019 0
M  V30 9950 C 926.531 1.53264 -1.35239 0
M  V30 9951 C 926.895 1.91908 0.0595038 0
M  V30 9952 O 928.096 2.67962 0.212122 0
M  V30 9953 C 926.367 2.75643 -2.27499 0
M  V30 9954 S 927.926 3.6559 -2.42672 0
M  V30 9955 H 924.744 0.52457 -0.479945 0
M  V30 9956 H 927.346 0.893737 -1.73875 0
M  V30 9957 H 926.05 2.4535 -3.28986 0
M  V30 9958 H 925.581 3.44483 -1.89987 0
M  V30 9959 H 927.596 4.68124 -1.64542 0
M  V30 9960 N 926.769 1.22769 0.988202 0
M  V30 9961 C 927.701 0.959757 2.08138 0
M  V30 9962 C 928.714 -0.0633787 1.62677 0
M  V30 9963 O 929.903 0.171203 1.77677 0
M  V30 9964 C 927.003 0.422724 3.36253 0
M  V30 9965 C 926.176 1.50419 4.10722 0
M  V30 9966 C 925.235 0.973407 5.17118 0
M  V30 9967 O 924.261 1.66066 5.44436 0
M  V30 9968 N 925.463 -0.202787 5.80146 0
M  V30 9969 H 928.228 1.9009 2.31702 0
M  V30 9970 H 925.789 1.13522 1.15431 0
M  V30 9971 H 927.781 0.0528514 4.04665 0
M  V30 9972 H 926.351 -0.423642 3.09716 0
M  V30 9973 H 925.571 2.04718 3.36874 0
M  V30 9974 H 926.859 2.23169 4.57245 0
M  V30 9975 H 926.257 -0.777856 5.60327 0
M  V30 9976 H 924.814 -0.513998 6.4977 0
M  V30 9977 N 928.247 -1.18576 1.03814 0
M  V30 9978 C 929.18 -2.20929 0.571463 0
M  V30 9979 C 930.158 -1.57788 -0.392636 0
M  V30 9980 O 931.342 -1.85974 -0.30754 0
M  V30 9981 C 928.469 -3.38295 -0.165504 0
M  V30 9982 C 927.515 -4.19828 0.751457 0
M  V30 9983 S 928.348 -4.86725 2.23291 0
M  V30 9984 C 929.504 -6.07494 1.50672 0
M  V30 9985 H 929.737 -2.60173 1.43866 0
M  V30 9986 H 927.27 -1.2897 0.84888 0
M  V30 9987 H 929.228 -4.06317 -0.584545 0
M  V30 9988 H 927.889 -2.97468 -1.00855 0
M  V30 9989 H 927.082 -5.03671 0.181986 0
M  V30 9990 H 926.684 -3.57172 1.10923 0
M  V30 9991 H 928.976 -6.72779 0.798377 0
M  V30 9992 H 929.919 -6.68942 2.3221 0
M  V30 9993 H 930.327 -5.55569 1.00016 0
M  V30 9994 N 929.725 -0.817259 -1.34754 0
M  V30 9995 C 930.673 -0.223352 -2.31525 0
M  V30 9996 C 931.667 0.632785 -1.57137 0
M  V30 9997 O 932.873 0.524757 -1.72181 0
M  V30 9998 H 929.248 -0.0534765 -0.750096 0
M  V30 9999 H 931.219 -1.05446 -2.79148 0
M  V30 10000 C 929.968 0.604784 -3.424 0
M  V30 10001 H 929.291 -0.0446664 -3.99775 0
M  V30 10002 H 930.731 0.986543 -4.12363 0
M  V30 10003 C 929.19 1.77478 -2.86362 0
M  V30 10004 O 929.72 2.87273 -2.8078 0
M  V30 10005 N 927.926 1.58971 -2.43263 0
M  V30 10006 H 927.473 0.696598 -2.48003 0
M  V30 10007 H 927.431 2.37408 -2.06119 0
M  V30 10008 N 931.203 1.46865 -0.571711 0
M  V30 10009 C 932.15 2.30189 0.167808 0
M  V30 10010 C 933.12 1.3995 0.89461 0
M  V30 10011 O 934.305 1.68905 0.887451 0
M  V30 10012 C 931.445 3.24205 1.1826 0
M  V30 10013 C 930.558 4.2954 0.460376 0
M  V30 10014 C 929.693 5.10693 1.46173 0
M  V30 10015 C 928.732 6.07788 0.725291 0
M  V30 10016 N 927.869 6.81847 1.67417 0
M  V30 10017 H 932.709 2.92902 -0.548831 0
M  V30 10018 H 930.246 1.44362 -0.282474 0
M  V30 10019 H 932.204 3.77147 1.7837 0
M  V30 10020 H 930.834 2.63324 1.86709 0
M  V30 10021 H 929.886 3.79541 -0.255546 0
M  V30 10022 H 931.198 4.98665 -0.115855 0
M  V30 10023 H 930.352 5.67857 2.13595 0
M  V30 10024 H 929.091 4.41502 2.07188 0
M  V30 10025 H 928.096 5.49787 0.037228 0
M  V30 10026 H 929.321 6.78993 0.120678 0
M  V30 10027 H 927.267 6.15376 2.27263 0
M  V30 10028 H 927.184 7.47195 1.15046 0
M  V30 10029 H 928.452 7.43577 2.33908 0
M  V30 10030 N 932.681 0.308908 1.54543 0
M  V30 10031 C 933.909 -0.300418 2.04707 0
M  V30 10032 C 934.324 -1.46915 1.18581 0
M  V30 10033 O 933.681 -1.81251 0.213186 0
M  V30 10034 C 933.732 -0.749038 3.53655 0
M  V30 10035 O 933.453 0.373181 4.36508 0
M  V30 10036 C 934.954 -1.4227 4.1985 0
M  V30 10037 H 932.174 -0.0641267 0.667929 0
M  V30 10038 H 934.718 0.450839 1.99469 0
M  V30 10039 H 932.873 -1.4503 3.59228 0
M  V30 10040 H 933.287 0.0224752 5.24495 0
M  V30 10041 H 934.761 -1.68768 5.25568 0
M  V30 10042 H 935.238 -2.36531 3.70067 0
M  V30 10043 H 935.844 -0.764404 4.18374 0
M  V30 10044 N 934.159 -1.57557 0.0367827 0
M  V30 10045 C 935.408 -1.91291 -0.639569 0
M  V30 10046 C 935.721 -0.915601 -1.72847 0
M  V30 10047 O 936.927 -1.14447 -2.46199 0
M  V30 10048 C 935.383 -3.39697 -1.18888 0
M  V30 10049 C 934.991 -4.47803 -0.132851 0
M  V30 10050 C 936.735 -3.82487 -1.8413 0
M  V30 10051 C 934.642 -5.87311 -0.694229 0
M  V30 10052 H 933.572 -0.713886 -0.242658 0
M  V30 10053 H 936.223 -1.83209 0.103332 0
M  V30 10054 H 934.605 -3.42736 -1.98363 0
M  V30 10055 H 935.779 -4.56334 0.640009 0
M  V30 10056 H 934.094 -4.14264 0.421264 0
M  V30 10057 H 936.691 -4.84076 -2.27101 0
M  V30 10058 H 937.034 -3.17959 -2.68716 0
M  V30 10059 H 937.567 -3.81903 -1.11332 0
M  V30 10060 H 934.306 -6.55401 0.113667 0
M  V30 10061 H 933.826 -5.82371 -1.4354 0
M  V30 10062 H 935.505 -6.36119 -1.1816 0
M  V30 10063 N 935.637 0.236453 -1.55816 0
M  V30 10064 C 936.886 0.960981 -1.77336 0
M  V30 10065 C 937.199 1.86085 -0.602641 0
M  V30 10066 O 938.405 2.62291 -0.701106 0
M  V30 10067 C 936.861 1.75884 -3.13995 0
M  V30 10068 C 936.469 0.905849 -4.38746 0
M  V30 10069 C 938.213 2.47548 -3.44848 0
M  V30 10070 C 936.12 1.7002 -5.66434 0
M  V30 10071 H 935.05 0.362547 -0.661117 0
M  V30 10072 H 937.701 0.215303 -1.82233 0
M  V30 10073 H 936.083 2.54687 -3.03234 0
M  V30 10074 H 937.257 0.159415 -4.60524 0
M  V30 10075 H 935.572 0.30205 -4.15303 0
M  V30 10076 H 938.169 3.07452 -4.37467 0
M  V30 10077 H 938.512 3.19689 -2.66655 0
M  V30 10078 H 939.045 1.75747 -3.56872 0
M  V30 10079 H 935.784 1.02234 -6.47479 0
M  V30 10080 H 935.304 2.42164 -5.48741 0
M  V30 10081 H 936.983 2.26469 -6.0607 0
M  V30 10082 N 937.115 1.49373 0.502552 0
M  V30 10083 C 938.363 1.58467 1.25429 0
M  V30 10084 C 938.684 0.272593 1.93085 0
M  V30 10085 O 937.954 -0.707947 1.82661 0
M  V30 10086 H 936.534 0.583866 0.46595 0
M  V30 10087 H 939.196 1.8599 0.582568 0
M  V30 10088 H 938.292 2.37993 2.01906 0
M  V30 10089 N 938.594 -0.753485 1.38421 0
M  V30 10090 C 939.84 -1.51485 1.34834 0
M  V30 10091 C 940.173 -1.94102 -0.0615381 0
M  V30 10092 O 939.448 -1.65439 -1.02274 0
M  V30 10093 C 939.731 -2.76736 2.30411 0
M  V30 10094 C 939.584 -2.40256 3.80259 0
M  V30 10095 C 940.903 -3.7876 2.24119 0
M  V30 10096 H 938.022 -0.549534 0.491102 0
M  V30 10097 H 940.664 -0.863006 1.6927 0
M  V30 10098 H 938.814 -3.32357 2.01175 0
M  V30 10099 H 940.486 -1.90409 4.20169 0
M  V30 10100 H 938.729 -1.72714 3.97935 0
M  V30 10101 H 939.4 -3.29869 4.42595 0
M  V30 10102 H 941.876 -3.32679 2.49928 0
M  V30 10103 H 940.752 -4.64092 2.93104 0
M  V30 10104 H 941.013 -4.24352 1.24006 0
M  V30 10105 N 940.072 -1.23292 -0.981677 0
M  V30 10106 C 941.297 -1.09176 -1.76339 0
M  V30 10107 C 941.722 0.352726 -1.84763 0
M  V30 10108 O 941.08 1.25509 -1.30832 0
M  V30 10109 C 941.128 -1.72046 -3.16911 0
M  V30 10110 O 940.232 -0.98174 -4.00544 0
M  V30 10111 H 939.573 -0.382755 -0.542581 0
M  V30 10112 H 942.103 -1.63319 -1.23239 0
M  V30 10113 H 942.113 -1.77232 -3.67495 0
M  V30 10114 H 940.788 -2.77154 -3.10095 0
M  V30 10115 H 939.365 -1.00672 -3.59054 0
M  V30 10116 N 941.55 1.18024 -1.04442 0
M  V30 10117 C 942.796 1.88377 -0.751133 0
M  V30 10118 C 943.129 1.80377 0.719571 0
M  V30 10119 O 942.404 1.20662 1.52548 0
M  V30 10120 C 942.687 3.38708 -1.22265 0
M  V30 10121 C 942.54 3.55499 -2.75574 0
M  V30 10122 C 943.859 4.32475 -0.815688 0
M  V30 10123 H 940.978 0.684037 -0.27434 0
M  V30 10124 H 943.62 1.38837 -1.29709 0
M  V30 10125 H 941.77 3.8103 -0.758192 0
M  V30 10126 H 943.442 3.22244 -3.30086 0
M  V30 10127 H 941.685 2.98028 -3.15217 0
M  V30 10128 H 942.356 4.60994 -3.03625 0
M  V30 10129 H 944.832 3.97953 -1.21542 0
M  V30 10130 H 943.708 5.36213 -1.17331 0
M  V30 10131 H 943.969 4.41207 0.280901 0
M  V30 10132 N 943.028 0.824394 1.34319 0
M  V30 10133 C 943.958 0.262077 2.32025 0
M  V30 10134 C 944.939 -0.622277 1.58309 0
M  V30 10135 O 946.124 -0.548848 1.86283 0
M  V30 10136 C 943.254 -0.57567 3.42496 0
M  V30 10137 C 942.208 0.21167 4.27476 0
M  V30 10138 C 941.534 -0.748913 5.29429 0
M  V30 10139 C 942.834 1.42068 5.02607 0
M  V30 10140 H 944.528 1.07842 2.79304 0
M  V30 10141 H 942.074 0.520022 1.34282 0
M  V30 10142 H 944.027 -0.979251 4.09864 0
M  V30 10143 H 942.751 -1.42508 2.93869 0
M  V30 10144 H 941.41 0.596636 3.61712 0
M  V30 10145 H 941.058 -1.59432 4.77064 0
M  V30 10146 H 940.758 -0.226313 5.87164 0
M  V30 10147 H 942.282 -1.15032 5.99667 0
M  V30 10148 H 943.696 1.09103 5.62823 0
M  V30 10149 H 942.093 1.87903 5.69923 0
M  V30 10150 H 943.163 2.1981 4.32217 0
M  V30 10151 N 944.506 -1.46559 0.579492 0
M  V30 10152 C 945.731 -2.0729 0.0674595 0
M  V30 10153 C 946.156 -1.4259 -1.22677 0
M  V30 10154 O 945.514 -0.50857 -1.74021 0
M  V30 10155 C 945.562 -3.60492 -0.0882227 0
M  V30 10156 O 944.666 -3.96172 -1.14551 0
M  V30 10157 H 944.007 -0.661159 0.0613536 0
M  V30 10158 H 946.537 -1.88247 0.801519 0
M  V30 10159 H 946.547 -4.06929 -0.295411 0
M  V30 10160 H 945.222 -4.06976 0.856943 0
M  V30 10161 H 943.799 -3.61448 -0.917033 0
M  V30 10162 N 945.984 -0.3171 -1.54377 0
M  V30 10163 C 947.23 0.287836 -2.00747 0
M  V30 10164 C 947.563 1.52292 -1.20502 0
M  V30 10165 O 946.838 1.92391 -0.285626 0
M  V30 10166 C 947.121 0.628423 -3.54574 0
M  V30 10167 C 946.974 -0.616922 -4.45549 0
M  V30 10168 C 948.293 1.44862 -4.15575 0
M  V30 10169 H 945.412 0.103144 -0.729747 0
M  V30 10170 H 948.054 -0.432396 -1.85014 0
M  V30 10171 H 946.204 1.24203 -3.68111 0
M  V30 10172 H 947.876 -1.25526 -4.43893 0
M  V30 10173 H 946.119 -1.24706 -4.15489 0
M  V30 10174 H 946.79 -0.334243 -5.50987 0
M  V30 10175 H 949.266 0.930015 -4.05574 0
M  V30 10176 H 948.142 1.6557 -5.23333 0
M  V30 10177 H 948.403 2.44279 -3.68484 0
M  V30 10178 N 947.462 1.57535 -0.0451378 0
M  V30 10179 C 948.392 2.14208 0.929372 0
M  V30 10180 C 949.373 1.06221 1.32858 0
M  V30 10181 O 950.558 1.34132 1.40436 0
M  V30 10182 C 947.688 2.68217 2.20629 0
M  V30 10183 C 946.642 3.81134 1.94734 0
M  V30 10184 C 945.968 4.21636 3.28828 0
M  V30 10185 C 947.268 5.06531 1.27374 0
M  V30 10186 H 948.962 2.95886 0.457348 0
M  V30 10187 H 946.508 1.42332 0.218544 0
M  V30 10188 H 948.461 3.06502 2.89196 0
M  V30 10189 H 947.185 1.83722 2.70026 0
M  V30 10190 H 945.844 3.43312 1.28579 0
M  V30 10191 H 945.492 3.34099 3.76014 0
M  V30 10192 H 945.192 4.97736 3.12302 0
M  V30 10193 H 946.716 4.62516 3.98637 0
M  V30 10194 H 948.13 5.423 1.85967 0
M  V30 10195 H 946.527 5.87735 1.21194 0
M  V30 10196 H 947.597 4.84261 0.248913 0
M  V30 10197 N 948.94 -0.228186 1.55939 0
M  V30 10198 C 950.186 -0.954964 1.78909 0
M  V30 10199 C 950.519 -1.8425 0.613648 0
M  V30 10200 O 949.794 -1.90604 -0.38737 0
M  V30 10201 C 950.077 -1.79957 3.1191 0
M  V30 10202 C 949.93 -0.938968 4.3989 0
M  V30 10203 C 951.249 -2.77859 3.41295 0
M  V30 10204 H 948.368 -0.345745 0.650868 0
M  V30 10205 H 951.01 -0.224244 1.88672 0
M  V30 10206 H 949.16 -2.42256 3.03717 0
M  V30 10207 H 950.832 -0.333225 4.60095 0
M  V30 10208 H 949.075 -0.244096 4.33113 0
M  V30 10209 H 949.746 -1.56416 5.29375 0
M  V30 10210 H 952.222 -2.25695 3.49572 0
M  V30 10211 H 951.098 -3.34062 4.35538 0
M  V30 10212 H 951.359 -3.55266 2.63132 0
M  V30 10213 N 950.418 -1.49637 -0.494624 0
M  V30 10214 C 951.664 -1.59681 -1.25019 0
M  V30 10215 C 951.997 -0.285511 -1.9209 0
M  V30 10216 O 951.272 0.711398 -1.81023 0
M  V30 10217 C 951.555 -2.76058 -2.31222 0
M  V30 10218 C 951.408 -4.17002 -1.68611 0
M  V30 10219 C 952.727 -2.88056 -3.32734 0
M  V30 10220 H 949.846 -0.581209 -0.453172 0
M  V30 10221 H 952.488 -1.81944 -0.547391 0
M  V30 10222 H 950.638 -2.57207 -2.91164 0
M  V30 10223 H 952.31 -4.47385 -1.12447 0
M  V30 10224 H 950.553 -4.22352 -0.989991 0
M  V30 10225 H 951.224 -4.94316 -2.45674 0
M  V30 10226 H 953.7 -3.05237 -2.82789 0
M  V30 10227 H 952.576 -3.71151 -4.04399 0
M  V30 10228 H 952.837 -1.97676 -3.95445 0
M  V30 10229 N 951.896 0.746133 -1.38819 0
M  V30 10230 C 953.121 1.54049 -1.38866 0
M  V30 10231 C 953.546 1.88092 0.0176624 0
M  V30 10232 O 952.904 1.51113 1.00173 0
M  V30 10233 C 952.952 2.8116 -2.25791 0
M  V30 10234 O 952.056 3.76623 -1.68014 0
M  V30 10235 H 951.397 0.465648 -0.473359 0
M  V30 10236 H 953.927 0.921469 -1.82675 0
M  V30 10237 H 953.937 3.30009 -2.39913 0
M  V30 10238 H 952.612 2.55713 -3.27999 0
M  V30 10239 H 951.189 3.35352 -1.63074 0
M  V30 10240 N 953.375 1.23811 0.975125 0
M  V30 10241 C 954.621 1.07495 1.71967 0
M  V30 10242 C 954.954 -0.386451 1.90316 0
M  V30 10243 O 954.229 -1.28591 1.45927 0
M  V30 10244 C 954.512 1.80694 3.11483 0
M  V30 10245 C 954.365 3.3454 3.00671 0
M  V30 10246 C 955.684 1.57367 4.11003 0
M  V30 10247 H 952.803 0.3919 0.624166 0
M  V30 10248 H 955.445 1.52383 1.13487 0
M  V30 10249 H 953.595 1.42538 3.61407 0
M  V30 10250 H 955.267 3.8225 2.5823 0
M  V30 10251 H 953.51 3.63301 2.37054 0
M  V30 10252 H 954.181 3.80951 3.99475 0
M  V30 10253 H 956.657 1.90545 3.69908 0
M  V30 10254 H 955.533 2.11052 5.06703 0
M  V30 10255 H 955.794 0.510221 4.39146 0
M  V30 10256 N 954.853 -1.17469 1.05066 0
M  V30 10257 C 956.099 -1.87976 0.761113 0
M  V30 10258 C 956.432 -1.80756 -0.709995 0
M  V30 10259 O 955.707 -1.21469 -1.51906 0
M  V30 10260 C 955.99 -3.38055 1.2406 0
M  V30 10261 C 955.843 -3.54032 2.77455 0
M  V30 10262 C 957.162 -4.32036 0.838612 0
M  V30 10263 H 954.281 -0.682573 0.277963 0
M  V30 10264 H 956.923 -1.38147 1.30443 0
M  V30 10265 H 955.073 -3.80622 0.778388 0
M  V30 10266 H 956.745 -3.20489 3.3179 0
M  V30 10267 H 954.988 -2.96352 3.16793 0
M  V30 10268 H 955.659 -4.59377 3.06066 0
M  V30 10269 H 958.135 -3.97303 1.23651 0
M  V30 10270 H 957.011 -5.35583 1.20173 0
M  V30 10271 H 957.272 -4.41349 -0.257498 0
M  V30 10272 N 956.331 -0.831506 -1.3388 0
M  V30 10273 C 957.294 -0.264773 -2.27666 0
M  V30 10274 C 958.294 0.562273 -1.50649 0
M  V30 10275 O 959.484 0.377131 -1.70069 0
M  V30 10276 C 956.616 0.627814 -3.35069 0
M  V30 10277 H 957.809 -1.09225 -2.79303 0
M  V30 10278 H 955.362 -0.604021 -1.44157 0
M  V30 10279 H 956.097 1.47802 -2.88661 0
M  V30 10280 H 955.882 0.0361552 -3.92083 0
M  V30 10281 H 957.372 1.01786 -4.05005 0
M  V30 10282 N 957.809 1.4625 -0.587256 0
M  V30 10283 C 959.055 2.02662 -0.0746851 0
M  V30 10284 C 959.388 1.45723 1.28368 0
M  V30 10285 O 958.663 0.624062 1.84216 0
M  V30 10286 C 958.946 3.60097 -0.0138109 0
M  V30 10287 C 958.799 4.27412 -1.4014 0
M  V30 10288 C 960.118 4.34744 0.684491 0
M  V30 10289 H 957.237 0.736444 -0.0286144 0
M  V30 10290 H 959.879 1.74341 -0.755328 0
M  V30 10291 H 958.029 3.84357 0.56583 0
M  V30 10292 H 959.701 4.14401 -2.02656 0
M  V30 10293 H 957.944 3.86598 -1.96785 0
M  V30 10294 H 958.615 5.362 -1.31124 0
M  V30 10295 H 961.091 4.15657 0.192023 0
M  V30 10296 H 959.967 5.44468 0.696127 0
M  V30 10297 H 960.228 4.06132 1.74669 0
M  V30 10298 N 959.287 0.325282 1.54207 0
M  V30 10299 C 960.217 -0.532574 2.27345 0
M  V30 10300 C 961.198 -1.11791 1.28206 0
M  V30 10301 O 962.383 -1.14272 1.57021 0
M  V30 10302 C 959.513 -1.69274 3.03255 0
M  V30 10303 C 958.467 -1.23662 4.09746 0
M  V30 10304 C 957.793 -2.48386 4.73506 0
M  V30 10305 C 959.093 -0.350244 5.21124 0
M  V30 10306 H 960.787 0.0775108 2.993 0
M  V30 10307 H 958.333 0.0387193 1.43948 0
M  V30 10308 H 960.286 -2.29917 3.53152 0
M  V30 10309 H 959.01 -2.32944 2.28921 0
M  V30 10310 H 957.669 -0.653106 3.60735 0
M  V30 10311 H 957.317 -3.10424 3.95786 0
M  V30 10312 H 957.017 -2.18558 5.45441 0
M  V30 10313 H 958.541 -3.09789 5.26178 0
M  V30 10314 H 959.955 -0.863011 5.66767 0
M  V30 10315 H 958.352 -0.14466 5.99926 0
M  V30 10316 H 959.422 0.618457 4.8094 0
M  V30 10317 N 960.765 -1.57509 0.0534917 0
M  V30 10318 C 962.011 -1.93068 -0.62069 0
M  V30 10319 C 962.344 -0.932313 -1.70357 0
M  V30 10320 O 961.619 0.0413393 -1.94456 0
M  V30 10321 C 961.902 -3.38997 -1.21463 0
M  V30 10322 C 961.755 -4.49583 -0.13965 0
M  V30 10323 C 963.074 -3.85366 -2.12558 0
M  V30 10324 H 960.193 -0.702083 -0.224163 0
M  V30 10325 H 962.835 -1.89647 0.115729 0
M  V30 10326 H 960.985 -3.42043 -1.84226 0
M  V30 10327 H 962.657 -4.58664 0.492411 0
M  V30 10328 H 960.9 -4.30525 0.532006 0
M  V30 10329 H 961.571 -5.48781 -0.595287 0
M  V30 10330 H 964.047 -3.8421 -1.59755 0
M  V30 10331 H 962.923 -4.8812 -2.51058 0
M  V30 10332 H 963.184 -3.22256 -3.02661 0
M  V30 10333 N 962.243 0.219913 -1.56058 0
M  V30 10334 C 963.473 0.959521 -1.82967 0
M  V30 10335 C 963.881 1.78382 -0.630602 0
M  V30 10336 O 963.224 1.79062 0.410203 0
M  V30 10337 C 963.286 1.92481 -3.0363 0
M  V30 10338 C 962.95 1.28487 -4.38566 0
M  V30 10339 C 963.947 0.673946 -5.15513 0
M  V30 10340 C 961.632 1.29615 -4.85289 0
M  V30 10341 C 963.626 0.0828324 -6.37346 0
M  V30 10342 C 961.313 0.701191 -6.07064 0
M  V30 10343 C 962.311 0.0955877 -6.82933 0
M  V30 10344 O 961.999 -0.490109 -8.02405 0
M  V30 10345 H 961.731 0.286709 -0.612188 0
M  V30 10346 H 964.285 0.239761 -2.03996 0
M  V30 10347 H 962.515 2.6836 -2.78424 0
M  V30 10348 H 964.204 2.5301 -3.17397 0
M  V30 10349 H 964.97 0.657548 -4.80522 0
M  V30 10350 H 960.849 1.75691 -4.26208 0
M  V30 10351 H 964.393 -0.390482 -6.96506 0
M  V30 10352 H 960.29 0.715007 -6.41528 0
M  V30 10353 H 961.058 -0.384588 -8.17596 0
M  V30 10354 N 963.721 1.49897 0.486681 0
M  V30 10355 C 964.668 1.67619 1.58658 0
M  V30 10356 C 965.638 0.517537 1.57831 0
M  V30 10357 O 966.823 0.746272 1.756 0
M  V30 10358 C 963.963 1.762 2.96728 0
M  V30 10359 C 963.076 3.03465 3.07462 0
M  V30 10360 C 962.211 3.02937 4.36351 0
M  V30 10361 C 961.25 4.24721 4.4077 0
M  V30 10362 N 960.387 4.22021 5.61108 0
M  V30 10363 H 965.227 2.61528 1.42853 0
M  V30 10364 H 962.764 1.29657 0.694807 0
M  V30 10365 H 964.722 1.79156 3.76774 0
M  V30 10366 H 963.352 0.857452 3.11203 0
M  V30 10367 H 962.404 3.10054 2.20387 0
M  V30 10368 H 963.716 3.93454 3.06586 0
M  V30 10369 H 962.87 3.04536 5.24731 0
M  V30 10370 H 961.609 2.10751 4.39813 0
M  V30 10371 H 960.614 4.23352 3.5079 0
M  V30 10372 H 961.839 5.18116 4.39013 0
M  V30 10373 H 959.785 3.3268 5.65385 0
M  V30 10374 H 959.702 5.05761 5.61909 0
M  V30 10375 H 960.97 4.27743 6.51656 0
M  V30 10376 N 965.199 -0.738761 1.39212 0
M  V30 10377 C 966.446 -1.49824 1.36231 0
M  V30 10378 C 966.774 -1.94453 -0.0429552 0
M  V30 10379 O 966.029 -1.6683 -1.02304 0
M  V30 10380 C 966.328 -2.75435 2.2775 0
M  V30 10381 C 965.994 -2.49694 3.75451 0
M  V30 10382 C 964.656 -2.42383 4.15697 0
M  V30 10383 C 967.008 -2.27587 4.68885 0
M  V30 10384 C 964.336 -2.11001 5.47444 0
M  V30 10385 C 966.688 -1.97723 6.00906 0
M  V30 10386 C 965.352 -1.88879 6.4022 0
M  V30 10387 H 964.622 -0.548247 0.498504 0
M  V30 10388 H 967.269 -0.848244 1.71689 0
M  V30 10389 H 965.574 -3.45159 1.85398 0
M  V30 10390 H 967.271 -3.33449 2.22739 0
M  V30 10391 H 963.861 -2.56261 3.43552 0
M  V30 10392 H 968.045 -2.32206 4.38628 0
M  V30 10393 H 963.301 -2.02673 5.76831 0
M  V30 10394 H 967.475 -1.79625 6.72836 0
M  V30 10395 H 965.102 -1.64327 7.42227 0
M  V30 10396 N 966.677 -1.24326 -0.968545 0
M  V30 10397 C 967.907 -1.10786 -1.74385 0
M  V30 10398 C 968.315 0.342503 -1.86074 0
M  V30 10399 O 967.658 1.24817 -1.34782 0
M  V30 10400 C 967.72 -1.67274 -3.18213 0
M  V30 10401 C 967.384 -3.1615 -3.29998 0
M  V30 10402 C 968.381 -4.13309 -3.15392 0
M  V30 10403 C 966.066 -3.56092 -3.54265 0
M  V30 10404 C 968.06 -5.48392 -3.24878 0
M  V30 10405 C 965.747 -4.91316 -3.63389 0
M  V30 10406 C 966.745 -5.87275 -3.48707 0
M  V30 10407 O 966.433 -7.20041 -3.57485 0
M  V30 10408 H 966.165 -0.387795 -0.553706 0
M  V30 10409 H 968.719 -1.64894 -1.22471 0
M  V30 10410 H 966.949 -1.07598 -3.71429 0
M  V30 10411 H 968.638 -1.49036 -3.77549 0
M  V30 10412 H 969.404 -3.83792 -2.96528 0
M  V30 10413 H 965.283 -2.81907 -3.6476 0
M  V30 10414 H 968.827 -6.23271 -3.13335 0
M  V30 10415 H 964.724 -5.20505 -3.81766 0
M  V30 10416 H 965.492 -7.27951 -3.74205 0
M  V30 10417 N 968.156 1.1691 -1.05688 0
M  V30 10418 C 969.403 1.87292 -0.76993 0
M  V30 10419 C 969.731 1.81339 0.703295 0
M  V30 10420 O 968.986 1.21959 1.5305 0
M  V30 10421 C 969.285 3.36578 -1.20207 0
M  V30 10422 C 968.951 3.62732 -2.67836 0
M  V30 10423 C 967.613 3.69579 -3.08163 0
M  V30 10424 C 969.965 3.73803 -3.63209 0
M  V30 10425 C 967.293 3.84992 -4.42717 0
M  V30 10426 C 969.645 3.90735 -4.97503 0
M  V30 10427 C 968.309 3.95823 -5.37476 0
M  V30 10428 H 967.579 0.68535 -0.281737 0
M  V30 10429 H 970.226 1.38274 -1.32486 0
M  V30 10430 H 968.531 3.87687 -0.566222 0
M  V30 10431 H 970.228 3.89409 -0.957183 0
M  V30 10432 H 966.818 3.58031 -2.35609 0
M  V30 10433 H 971.002 3.67829 -3.3319 0
M  V30 10434 H 966.258 3.87181 -4.73182 0
M  V30 10435 H 970.432 3.98243 -5.71293 0
M  V30 10436 H 968.059 4.07518 -6.41742 0
M  V30 10437 N 969.634 0.838594 1.33437 0
M  V30 10438 C 970.584 0.243681 2.26694 0
M  V30 10439 C 971.568 -0.601168 1.49247 0
M  V30 10440 O 972.76 -0.453181 1.711 0
M  V30 10441 C 969.889 -0.580525 3.38356 0
M  V30 10442 C 968.975 0.275819 4.23202 0
M  V30 10443 N 969.366 1.3544 4.87329 0
M  V30 10444 C 967.664 0.0628047 4.45956 0
M  V30 10445 C 968.365 1.87991 5.50486 0
M  V30 10446 N 967.341 1.18143 5.30607 0
M  V30 10447 H 971.143 1.06849 2.73789 0
M  V30 10448 H 968.657 0.683019 1.47338 0
M  V30 10449 H 970.654 -1.02301 4.04153 0
M  V30 10450 H 969.314 -1.40331 2.92809 0
M  V30 10451 H 970.325 1.73729 4.87892 0
M  V30 10452 H 967.002 -0.726563 4.11129 0
M  V30 10453 H 968.392 2.78312 6.11549 0
M  V30 10454 N 971.112 -1.45937 0.595003 0
M  V30 10455 C 972.042 -2.33198 -0.11871 0
M  V30 10456 C 973.023 -1.46083 -0.871423 0
M  V30 10457 O 974.208 -1.74879 -0.844461 0
M  V30 10458 C 971.338 -3.28576 -1.12495 0
M  V30 10459 C 970.292 -4.25229 -0.486275 0
M  V30 10460 C 969.618 -5.10204 -1.59986 0
M  V30 10461 C 970.918 -5.19019 0.584473 0
M  V30 10462 H 972.612 -2.93122 0.609886 0
M  V30 10463 H 970.158 -1.40951 0.294742 0
M  V30 10464 H 972.111 -3.88485 -1.6327 0
M  V30 10465 H 970.835 -2.66784 -1.88398 0
M  V30 10466 H 969.494 -3.666 0.000507962 0
M  V30 10467 H 969.142 -4.44789 -2.34886 0
M  V30 10468 H 968.842 -5.75669 -1.1781 0
M  V30 10469 H 970.366 -5.7298 -2.11014 0
M  V30 10470 H 971.78 -5.73073 0.161297 0
M  V30 10471 H 970.177 -5.92893 0.927256 0
M  V30 10472 H 971.247 -4.62208 1.46601 0
M  V30 10473 N 972.59 -0.333456 -1.54032 0
M  V30 10474 C 973.523 0.570776 -2.20947 0
M  V30 10475 C 974.501 1.10811 -1.18994 0
M  V30 10476 O 975.685 1.17027 -1.47773 0
M  V30 10477 C 972.812 1.7842 -2.87896 0
M  V30 10478 C 971.858 1.37722 -4.03652 0
M  V30 10479 S 972.691 0.405548 -5.33962 0
M  V30 10480 C 973.847 1.62603 -6.0441 0
M  V30 10481 H 974.08 0.0023936 -2.973 0
M  V30 10482 H 971.613 -0.117531 -1.53952 0
M  V30 10483 H 973.571 2.48038 -3.27089 0
M  V30 10484 H 972.232 2.32378 -2.11327 0
M  V30 10485 H 971.425 2.28167 -4.49395 0
M  V30 10486 H 971.027 0.760628 -3.66184 0
M  V30 10487 H 973.319 2.56202 -6.2719 0
M  V30 10488 H 974.262 1.21058 -6.97675 0
M  V30 10489 H 974.67 1.8175 -5.34441 0
M  V30 10490 N 974.068 1.57479 -0.061844 0
M  V30 10491 C 974.998 2.15181 0.9066 0
M  V30 10492 C 975.979 1.07624 1.31724 0
M  V30 10493 O 977.164 1.35614 1.39006 0
M  V30 10494 C 974.294 2.70542 2.17771 0
M  V30 10495 C 973.248 3.83178 1.9068 0
M  V30 10496 C 972.574 4.25099 3.24337 0
M  V30 10497 C 973.874 5.07853 1.21994 0
M  V30 10498 H 975.568 2.96355 0.42594 0
M  V30 10499 H 973.114 1.42556 0.203435 0
M  V30 10500 H 975.067 3.09552 2.85929 0
M  V30 10501 H 973.791 1.86575 2.68062 0
M  V30 10502 H 972.45 3.44656 1.24931 0
M  V30 10503 H 972.098 3.38069 3.72449 0
M  V30 10504 H 971.798 5.01021 3.07005 0
M  V30 10505 H 973.322 4.66718 3.93709 0
M  V30 10506 H 974.736 5.44242 1.80204 0
M  V30 10507 H 973.133 5.88987 1.14954 0
M  V30 10508 H 974.203 4.84497 0.197536 0
M  V30 10509 N 975.546 -0.211634 1.56173 0
M  V30 10510 C 976.476 -1.26533 1.96244 0
M  V30 10511 C 977.457 -1.48362 0.832028 0
M  V30 10512 O 978.642 -1.60378 1.0951 0
M  V30 10513 C 975.772 -2.61307 2.2877 0
M  V30 10514 C 974.726 -2.54119 3.44395 0
M  V30 10515 C 974.052 -3.93014 3.62552 0
M  V30 10516 C 975.352 -2.08046 4.79076 0
M  V30 10517 H 977.046 -0.932407 2.84511 0
M  V30 10518 H 974.592 -0.447084 1.36884 0
M  V30 10519 H 976.545 -3.35188 2.55396 0
M  V30 10520 H 975.269 -2.96307 1.37367 0
M  V30 10521 H 973.928 -1.82694 3.17834 0
M  V30 10522 H 973.576 -4.25338 2.68508 0
M  V30 10523 H 973.276 -3.89083 4.40327 0
M  V30 10524 H 974.8 -4.68542 3.91537 0
M  V30 10525 H 976.214 -2.71676 5.04842 0
M  V30 10526 H 974.611 -2.15154 5.60204 0
M  V30 10527 H 975.681 -1.03306 4.73768 0
M  V30 10528 N 977.024 -1.50153 -0.478725 0
M  V30 10529 C 977.987 -1.67916 -1.56003 0
M  V30 10530 C 978.987 -0.550111 -1.51097 0
M  V30 10531 O 980.177 -0.817001 -1.53853 0
M  V30 10532 C 977.309 -1.6973 -2.95643 0
M  V30 10533 H 978.502 -2.6438 -1.41573 0
M  V30 10534 H 976.055 -1.39519 -0.704565 0
M  V30 10535 H 976.79 -0.749306 -3.15525 0
M  V30 10536 H 976.575 -2.51745 -3.00611 0
M  V30 10537 H 978.065 -1.85453 -3.74162 0
M  V30 10538 N 978.502 0.731368 -1.39602 0
M  V30 10539 C 979.75 1.48805 -1.36753 0
M  V30 10540 C 980.071 1.94969 0.034676 0
M  V30 10541 O 979.341 1.69243 0.986591 0
M  V30 10542 H 977.921 0.55203 -0.503261 0
M  V30 10543 H 980.583 0.868013 -1.74504 0
M  V30 10544 H 979.679 2.36844 -2.03252 0
M  V30 10545 N 979.98 1.24838 0.961938 0
M  V30 10546 C 981.22 1.10348 1.72054 0
M  V30 10547 C 981.584 -0.350775 1.88769 0
M  V30 10548 O 982.785 -0.617323 2.61615 0
M  V30 10549 C 981.056 1.82916 3.07045 0
M  V30 10550 S 982.615 1.84227 3.98253 0
M  V30 10551 H 979.433 0.394552 0.591481 0
M  V30 10552 H 982.035 1.58254 1.14786 0
M  V30 10553 H 980.739 2.87829 2.92545 0
M  V30 10554 H 980.27 1.35366 3.69377 0
M  V30 10555 H 982.285 0.914073 4.87708 0
M  V30 10556 N 981.458 -1.16348 1.06306 0
M  V30 10557 C 982.707 -1.8622 0.774909 0
M  V30 10558 C 983.02 -1.82598 -0.701245 0
M  V30 10559 O 984.226 -2.48051 -1.10377 0
M  V30 10560 C 982.682 -3.34182 1.33604 0
M  V30 10561 C 982.29 -3.46279 2.84245 0
M  V30 10562 C 984.034 -4.09309 1.12544 0
M  V30 10563 C 981.941 -4.88327 3.33602 0
M  V30 10564 H 980.871 -0.697574 0.286194 0
M  V30 10565 H 983.522 -1.31311 1.28179 0
M  V30 10566 H 981.904 -3.88698 0.756937 0
M  V30 10567 H 983.078 -3.01923 3.48108 0
M  V30 10568 H 981.393 -2.84585 3.03974 0
M  V30 10569 H 983.99 -5.14123 1.46909 0
M  V30 10570 H 984.333 -4.16251 0.0638129 0
M  V30 10571 H 984.866 -3.61032 1.67034 0
M  V30 10572 H 981.605 -4.86565 4.39244 0
M  V30 10573 H 981.125 -5.33307 2.74487 0
M  V30 10574 H 982.804 -5.57144 3.28937 0
M  V30 10575 N 982.937 -0.845659 -1.3299 0
M  V30 10576 C 983.884 -0.281761 -2.29074 0
M  V30 10577 C 984.854 0.606237 -1.54641 0
M  V30 10578 O 986.039 0.543063 -1.82908 0
M  V30 10579 C 983.179 0.531451 -3.40983 0
M  V30 10580 C 982.292 -0.381328 -4.30314 0
M  V30 10581 C 981.427 0.443643 -5.29344 0
M  V30 10582 C 980.466 -0.467101 -6.10315 0
M  V30 10583 N 979.603 0.320148 -7.0137 0
M  V30 10584 H 984.443 -1.10641 -2.76699 0
M  V30 10585 H 981.98 -0.55706 -1.36144 0
M  V30 10586 H 983.938 1.01848 -4.04577 0
M  V30 10587 H 982.568 1.32101 -2.94532 0
M  V30 10588 H 981.62 -0.986701 -3.6738 0
M  V30 10589 H 982.932 -1.08067 -4.86953 0
M  V30 10590 H 982.086 0.994212 -5.98498 0
M  V30 10591 H 980.825 1.17639 -4.73299 0
M  V30 10592 H 979.83 -1.02963 -5.40073 0
M  V30 10593 H 981.055 -1.19832 -6.68444 0
M  V30 10594 H 979.001 1.03615 -6.47765 0
M  V30 10595 H 978.918 -0.320338 -7.55321 0
M  V30 10596 H 980.186 0.852735 -7.74822 0
M  V30 10597 N 984.415 1.45619 -0.602734 0
M  V30 10598 C 985.645 2.06348 -0.102105 0
M  V30 10599 C 986.053 1.44884 1.21677 0
M  V30 10600 O 985.396 0.555559 1.75098 0
M  V30 10601 C 985.458 3.59309 0.117026 0
M  V30 10602 C 985.122 4.43081 -1.11931 0
M  V30 10603 C 986.119 4.78364 -2.03627 0
M  V30 10604 C 983.804 4.83908 -1.34677 0
M  V30 10605 C 985.798 5.53325 -3.16403 0
M  V30 10606 C 983.485 5.58624 -2.47754 0
M  V30 10607 C 984.483 5.93249 -3.38445 0
M  V30 10608 O 984.171 6.6645 -4.49555 0
M  V30 10609 H 983.903 0.672988 -0.0637478 0
M  V30 10610 H 986.457 1.87928 -0.828983 0
M  V30 10611 H 984.687 3.76111 0.898742 0
M  V30 10612 H 986.376 4.01897 0.568649 0
M  V30 10613 H 987.142 4.47384 -1.87277 0
M  V30 10614 H 983.021 4.56396 -0.649875 0
M  V30 10615 H 986.565 5.80268 -3.87214 0
M  V30 10616 H 982.462 5.89019 -2.64059 0
M  V30 10617 H 983.23 6.84895 -4.48175 0
M  V30 10618 N 985.893 0.34162 1.53853 0
M  V30 10619 C 987.141 -0.254979 2.00485 0
M  V30 10620 C 987.462 -1.51222 1.23114 0
M  V30 10621 O 986.732 -1.92966 0.337787 0
M  V30 10622 H 985.312 -0.0972084 0.740648 0
M  V30 10623 H 987.974 0.462332 1.89337 0
M  V30 10624 H 987.07 -0.498778 3.08089 0
M  V30 10625 N 987.371 -1.57444 0.0701946 0
M  V30 10626 C 988.787 -1.57009 -0.286431 0
M  V30 10627 C 988.987 -1.07946 -1.70147 0
M  V30 10628 O 988.043 -0.744622 -2.41271 0
M  V30 10629 C 989.356 -3.00542 -0.0975466 0
M  V30 10630 C 990.904 -3.12553 -0.167205 0
M  V30 10631 C 991.379 -4.58 -0.00662047 0
M  V30 10632 N 992.87 -4.63158 -0.0622778 0
M  V30 10633 C 993.605 -5.73388 0.0375831 0
M  V30 10634 N 993.101 -6.92537 0.190873 0
M  V30 10635 N 994.894 -5.62097 -0.0193672 0
M  V30 10636 H 987.045 -1.87651 0.995023 0
M  V30 10637 H 989.308 -0.865006 0.387902 0
M  V30 10638 H 989.014 -3.40543 0.878822 0
M  V30 10639 H 988.888 -3.67485 -0.850547 0
M  V30 10640 H 991.275 -2.72439 -1.13406 0
M  V30 10641 H 991.356 -2.48251 0.616871 0
M  V30 10642 H 991 -4.98803 0.956992 0
M  V30 10643 H 990.93 -5.20332 -0.810081 0
M  V30 10644 H 993.421 -3.77475 -0.179229 0
M  V30 10645 H 993.734 -7.72365 0.25926 0
M  V30 10646 H 992.079 -6.94632 0.226214 0
M  V30 10647 H 995.27 -4.67897 -0.137815 0
M  V30 10648 H 995.443 -6.4797 0.0619121 0
M  V30 10649 N 988.849 0.203349 -1.56283 0
M  V30 10650 C 990.097 0.923183 -1.79782 0
M  V30 10651 C 990.418 1.84134 -0.64185 0
M  V30 10652 O 989.688 1.92922 0.340292 0
M  V30 10653 H 988.268 0.343881 -0.66314 0
M  V30 10654 H 990.93 0.210837 -1.93756 0
M  V30 10655 H 990.026 1.51921 -2.72629 0
M  V30 10656 N 990.327 1.50405 0.470755 0
M  V30 10657 C 991.237 1.7208 1.59454 0
M  V30 10658 C 992.253 0.603932 1.63183 0
M  V30 10659 O 993.429 0.882296 1.81046 0
M  V30 10660 C 990.494 1.81057 2.95667 0
M  V30 10661 C 989.555 3.04792 3.02324 0
M  V30 10662 C 988.788 3.13332 4.3204 0
M  V30 10663 O 989.011 2.28655 5.22564 0
M  V30 10664 O 987.945 4.0606 4.44296 0
M  V30 10665 H 991.771 2.67343 1.44089 0
M  V30 10666 H 989.356 1.34505 0.650286 0
M  V30 10667 H 991.238 1.8914 3.76569 0
M  V30 10668 H 989.913 0.889782 3.11231 0
M  V30 10669 H 988.82 3.0221 2.205 0
M  V30 10670 H 990.153 3.96451 2.91698 0
M  V30 10671 N 991.805 -0.723954 1.39988 0
M  V30 10672 C 992.753 -1.85938 1.39749 0
M  V30 10673 C 993.747 -1.67085 0.279112 0
M  V30 10674 O 994.953 -1.74291 0.44972 0
M  V30 10675 H 991.328 -0.612246 0.436644 0
M  V30 10676 H 993.299 -1.83255 2.355 0
M  V30 10677 C 992.048 -3.23726 1.26874 0
M  V30 10678 H 991.371 -3.38835 2.12206 0
M  V30 10679 H 992.811 -4.03332 1.30765 0
M  V30 10680 C 991.27 -3.36893 -0.0218317 0
M  V30 10681 O 991.8 -3.89363 -0.987905 0
M  V30 10682 N 990.006 -2.90465 -0.0885618 0
M  V30 10683 H 989.553 -2.47954 0.698314 0
M  V30 10684 H 989.511 -2.99654 -0.951557 0
M  V30 10685 N 993.283 -1.25346 -0.955304 0
M  V30 10686 C 994.532 -1.0945 -1.69421 0
M  V30 10687 C 994.845 0.364459 -1.92175 0
M  V30 10688 O 996.051 0.643843 -2.63755 0
M  V30 10689 C 994.507 -1.91045 -3.05008 0
M  V30 10690 C 994.115 -3.41428 -2.90053 0
M  V30 10691 C 995.859 -1.83716 -3.82686 0
M  V30 10692 C 993.766 -4.1532 -4.21026 0
M  V30 10693 H 992.696 -0.405978 -0.635372 0
M  V30 10694 H 995.347 -1.49536 -1.06354 0
M  V30 10695 H 993.729 -1.43781 -3.68975 0
M  V30 10696 H 994.903 -3.9636 -2.35022 0
M  V30 10697 H 993.218 -3.49842 -2.25831 0
M  V30 10698 H 995.815 -2.36217 -4.79693 0
M  V30 10699 H 996.158 -0.804919 -4.08444 0
M  V30 10700 H 996.691 -2.28726 -3.25468 0
M  V30 10701 H 993.43 -5.18955 -4.00457 0
M  V30 10702 H 992.95 -3.65172 -4.75825 0
M  V30 10703 H 994.629 -4.22999 -4.89572 0
M  V30 10704 N 994.761 1.15782 -1.06922 0
M  V30 10705 C 995.991 1.90079 -0.809545 0
M  V30 10706 C 996.399 1.78028 0.640523 0
M  V30 10707 O 995.742 1.12692 1.45073 0
M  V30 10708 C 995.804 3.41179 -1.13302 0
M  V30 10709 C 995.468 3.77015 -2.5828 0
M  V30 10710 C 996.465 3.78403 -3.56521 0
M  V30 10711 C 994.15 4.07455 -2.93745 0
M  V30 10712 C 996.144 4.09729 -4.88264 0
M  V30 10713 C 993.831 4.38446 -4.25686 0
M  V30 10714 C 994.829 4.39564 -5.22755 0
M  V30 10715 O 994.517 4.69814 -6.52326 0
M  V30 10716 H 994.249 0.609397 -0.292595 0
M  V30 10717 H 996.803 1.47654 -1.42784 0
M  V30 10718 H 995.033 3.83982 -0.457676 0
M  V30 10719 H 996.722 3.96759 -0.856586 0
M  V30 10720 H 997.488 3.54991 -3.30464 0
M  V30 10721 H 993.367 4.05746 -2.1884 0
M  V30 10722 H 996.911 4.10516 -5.64023 0
M  V30 10723 H 992.808 4.61325 -4.51497 0
M  V30 10724 H 993.576 4.87598 -6.57412 0
M  V30 10725 N 996.239 0.8527 1.3254 0
M  V30 10726 C 997.516 0.376491 1.91942 0
M  V30 10727 C 997.896 -1.13972 1.7769 0
M  V30 10728 O 997.244 -1.96047 1.17379 0
M  V30 10729 C 997.454 0.838694 3.38773 0
M  V30 10730 C 998.802 0.854736 4.15908 0
M  V30 10731 O 999.826 0.783203 3.47483 0
M  V30 10732 O 998.685 0.955207 5.38087 0
M  V30 10733 H 995.779 0.109412 0.81973 0
M  V30 10734 H 998.325 0.93947 1.41322 0
M  V30 10735 H 997.097 1.88179 3.43081 0
M  V30 10736 H 996.72 0.253055 3.96794 0
M  V30 10737 N 997.718 -1.45297 0.610449 0
M  V30 10738 C 998.681 -2.28995 -0.0968194 0
M  V30 10739 C 999.681 -1.39923 -0.792353 0
M  V30 10740 O 1000.87 -1.62014 -0.64008 0
M  V30 10741 C 998.003 -3.21013 -1.14731 0
M  V30 10742 H 999.196 -2.93012 0.639082 0
M  V30 10743 H 996.749 -1.51867 0.369624 0
M  V30 10744 H 997.484 -2.61803 -1.91388 0
M  V30 10745 H 997.269 -3.86628 -0.652753 0
M  V30 10746 H 998.759 -3.8394 -1.64256 0
M  V30 10747 N 999.196 -0.349774 -1.5367 0
M  V30 10748 C 1000.44 0.244827 -2.01015 0
M  V30 10749 C 1000.77 1.50057 -1.23746 0
M  V30 10750 O 1000.03 1.9315 -0.314872 0
M  V30 10751 C 1000.32 0.598311 -3.52356 0
M  V30 10752 C 999.991 -0.56127 -4.47393 0
M  V30 10753 C 998.653 -0.879481 -4.73095 0
M  V30 10754 C 1001 -1.3389 -5.03709 0
M  V30 10755 C 998.333 -1.97758 -5.52366 0
M  V30 10756 C 1000.68 -2.4273 -5.84179 0
M  V30 10757 C 999.349 -2.75103 -6.08173 0
M  V30 10758 H 998.619 0.0895884 -0.735564 0
M  V30 10759 H 1001.27 -0.478975 -1.85413 0
M  V30 10760 H 999.571 1.40291 -3.65822 0
M  V30 10761 H 1001.27 1.07036 -3.86451 0
M  V30 10762 H 997.858 -0.303201 -4.27526 0
M  V30 10763 H 1002.04 -1.10632 -4.83812 0
M  V30 10764 H 997.298 -2.23257 -5.6918 0
M  V30 10765 H 1001.47 -3.03412 -6.26828 0
M  V30 10766 H 999.099 -3.60317 -6.69385 0
M  V30 10767 N 1000.67 1.57404 -0.0785433 0
M  V30 10768 C 1001.92 1.94031 0.589896 0
M  V30 10769 C 1002.25 0.959297 1.68852 0
M  V30 10770 O 1001.53 -0.0103978 1.94497 0
M  V30 10771 C 1001.81 3.40886 1.16055 0
M  V30 10772 C 1001.66 4.49748 0.0681072 0
M  V30 10773 C 1002.98 3.88699 2.06401 0
M  V30 10774 H 1000.1 0.70556 0.212965 0
M  V30 10775 H 1002.74 1.89439 -0.145886 0
M  V30 10776 H 1000.89 3.4493 1.78761 0
M  V30 10777 H 1002.57 4.57823 -0.565318 0
M  V30 10778 H 1000.81 4.29625 -0.600431 0
M  V30 10779 H 1001.48 5.49658 0.507906 0
M  V30 10780 H 1003.96 3.86703 1.53622 0
M  V30 10781 H 1002.83 4.92052 2.43261 0
M  V30 10782 H 1003.09 3.2703 2.97496 0
M  V30 10783 N 1002.15 -0.195058 1.56388 0
M  V30 10784 C 1003.4 -0.913626 1.79821 0
M  V30 10785 C 1003.71 -1.84422 0.651767 0
M  V30 10786 O 1004.92 -2.6034 0.770402 0
M  V30 10787 C 1003.38 -1.67497 3.18548 0
M  V30 10788 C 1002.98 -0.789205 4.40994 0
M  V30 10789 C 1004.73 -2.38318 3.5129 0
M  V30 10790 C 1002.63 -1.54942 5.70742 0
M  V30 10791 H 1001.56 -0.344891 0.670497 0
M  V30 10792 H 1004.22 -0.166912 1.82739 0
M  V30 10793 H 1002.6 -2.46557 3.0988 0
M  V30 10794 H 1003.77 -0.0372595 4.60785 0
M  V30 10795 H 1002.09 -0.191834 4.15958 0
M  V30 10796 H 1004.68 -2.95745 4.45465 0
M  V30 10797 H 1005.03 -3.12507 2.75037 0
M  V30 10798 H 1005.56 -1.66224 3.61406 0
M  V30 10799 H 1002.3 -0.85031 6.49962 0
M  V30 10800 H 1001.82 -2.2753 5.54969 0
M  V30 10801 H 1003.5 -2.1032 6.11861 0
M  V30 10802 N 1003.63 -1.50653 -0.462772 0
M  V30 10803 C 1004.86 -1.65586 -1.23551 0
M  V30 10804 C 1005.27 -0.342012 -1.86083 0
M  V30 10805 O 1004.61 0.686893 -1.70374 0
M  V30 10806 C 1004.67 -2.69555 -2.37867 0
M  V30 10807 C 1004.34 -4.1288 -1.95906 0
M  V30 10808 C 1005.33 -4.98483 -1.47685 0
M  V30 10809 C 1003.02 -4.58843 -2.04373 0
M  V30 10810 C 1005.01 -6.281 -1.08484 0
M  V30 10811 C 1002.7 -5.88464 -1.64783 0
M  V30 10812 C 1003.7 -6.72918 -1.16918 0
M  V30 10813 O 1003.39 -8.00119 -0.778798 0
M  V30 10814 H 1003.12 -0.559438 -0.37948 0
M  V30 10815 H 1005.67 -1.9768 -0.557816 0
M  V30 10816 H 1003.9 -2.3272 -3.08834 0
M  V30 10817 H 1005.59 -2.73624 -2.99808 0
M  V30 10818 H 1006.36 -4.64186 -1.40558 0
M  V30 10819 H 1002.24 -3.93247 -2.40577 0
M  V30 10820 H 1005.78 -6.93972 -0.710524 0
M  V30 10821 H 1001.68 -6.22281 -1.71571 0
M  V30 10822 H 1002.44 -8.1346 -0.906911 0
M  V30 10823 N 1005.11 0.71652 -1.4037 0
M  V30 10824 C 1006.33 1.51069 -1.42102 0
M  V30 10825 C 1006.76 1.88087 -0.0222387 0
M  V30 10826 O 1006.12 1.53204 0.969448 0
M  V30 10827 C 1006.16 2.76307 -2.31704 0
M  V30 10828 O 1005.27 3.72975 -1.75964 0
M  V30 10829 H 1004.61 0.455502 -0.483129 0
M  V30 10830 H 1007.14 0.882514 -1.84588 0
M  V30 10831 H 1007.15 3.24846 -2.46859 0
M  V30 10832 H 1005.82 2.48698 -3.3335 0
M  V30 10833 H 1004.4 3.31818 -1.70151 0
M  V30 10834 N 1006.59 1.25851 0.948643 0
M  V30 10835 C 1007.81 1.13813 1.73382 0
M  V30 10836 C 1008.24 -0.303615 1.85633 0
M  V30 10837 O 1007.59 -1.21997 1.34114 0
M  V30 10838 C 1007.64 1.80388 3.12238 0
M  V30 10839 O 1006.75 1.08759 3.978 0
M  V30 10840 H 1006.09 0.397006 0.532243 0
M  V30 10841 H 1008.62 1.66529 1.18866 0
M  V30 10842 H 1008.63 1.86913 3.62667 0
M  V30 10843 H 1007.3 2.85278 3.02637 0
M  V30 10844 H 1005.88 1.10157 3.56258 0
M  V30 10845 N 1008.06 -1.15214 1.07534 0
M  V30 10846 C 1009 -2.19634 0.655261 0
M  V30 10847 C 1010.01 -1.60139 -0.293165 0
M  V30 10848 O 1011.2 -1.78311 -0.0821957 0
M  V30 10849 C 1008.3 -3.38851 -0.0578281 0
M  V30 10850 C 1007.47 -4.27888 0.90725 0
M  V30 10851 C 1006.53 -5.25692 0.231115 0
M  V30 10852 O 1005.56 -5.62469 0.872746 0
M  V30 10853 N 1006.76 -5.71424 -1.0225 0
M  V30 10854 H 1009.52 -2.56292 1.55353 0
M  V30 10855 H 1007.08 -1.30347 0.960271 0
M  V30 10856 H 1009.08 -4.01334 -0.520874 0
M  V30 10857 H 1007.65 -3.00593 -0.858071 0
M  V30 10858 H 1006.87 -3.62475 1.54937 0
M  V30 10859 H 1008.15 -4.84246 1.56151 0
M  V30 10860 H 1007.55 -5.43659 -1.56369 0
M  V30 10861 H 1006.11 -6.35938 -1.42919 0
M  V30 10862 N 1009.54 -0.859717 -1.32086 0
M  V30 10863 C 1010.82 -0.386665 -1.9174 0
M  V30 10864 C 1011.2 1.13028 -1.78292 0
M  V30 10865 O 1010.55 1.95422 -1.18417 0
M  V30 10866 C 1010.76 -0.856648 -3.38323 0
M  V30 10867 C 1012.11 -0.87678 -4.15449 0
M  V30 10868 O 1013.13 -0.80162 -3.47063 0
M  V30 10869 O 1011.99 -0.98373 -5.37573 0
M  V30 10870 H 1009.08 -0.113758 -0.819139 0
M  V30 10871 H 1011.63 -0.946952 -1.40822 0
M  V30 10872 H 1010.4 -1.89996 -3.42078 0
M  V30 10873 H 1010.02 -0.274095 -3.96654 0
M  V30 10874 N 1011.02 1.44971 -0.618145 0
M  V30 10875 C 1011.93 2.34403 0.0960457 0
M  V30 10876 C 1012.95 1.51862 0.849355 0
M  V30 10877 O 1014.12 1.84632 0.804557 0
M  V30 10878 C 1011.19 3.29646 1.07397 0
M  V30 10879 C 1010.25 4.28095 0.321466 0
M  V30 10880 C 1009.48 5.18787 1.25281 0
M  V30 10881 O 1009.7 5.1313 2.49106 0
M  V30 10882 O 1008.64 5.97282 0.744156 0
M  V30 10883 H 1012.46 2.96898 -0.639176 0
M  V30 10884 H 1010.05 1.44529 -0.37837 0
M  V30 10885 H 1011.93 3.88307 1.63694 0
M  V30 10886 H 1010.61 2.69702 1.79004 0
M  V30 10887 H 1009.51 3.73019 -0.284223 0
M  V30 10888 H 1010.85 4.90923 -0.354315 0
M  V30 10889 N 1012.5 0.357919 1.53482 0
M  V30 10890 C 1013.78 -0.290164 1.93436 0
M  V30 10891 C 1014.16 -1.67039 1.29079 0
M  V30 10892 O 1013.5 -2.24085 0.447017 0
M  V30 10893 C 1013.71 -0.348055 3.4726 0
M  V30 10894 C 1015.06 -0.59206 4.20452 0
M  V30 10895 O 1016.09 -0.429581 3.536 0
M  V30 10896 O 1014.94 -0.907855 5.38907 0
M  V30 10897 H 1012.04 -0.172312 0.80885 0
M  V30 10898 H 1014.58 0.410144 1.64669 0
M  V30 10899 H 1013.36 0.619953 3.86358 0
M  V30 10900 H 1012.98 -1.09457 3.82237 0
M  V30 10901 N 1013.98 -1.5736 0.0868897 0
M  V30 10902 C 1015.22 -1.95147 -0.573512 0
M  V30 10903 C 1015.58 -0.967591 -1.66299 0
M  V30 10904 O 1014.87 0.00774571 -1.91598 0
M  V30 10905 C 1015.06 -3.37316 -1.18123 0
M  V30 10906 C 1014.89 -4.49443 -0.152145 0
M  V30 10907 C 1013.66 -5.04586 0.268496 0
M  V30 10908 C 1015.86 -5.10592 0.616502 0
M  V30 10909 N 1013.84 -6.00264 1.28671 0
M  V30 10910 C 1015.21 -6.0191 1.48677 0
M  V30 10911 C 1017.27 -4.93359 0.67092 0
M  V30 10912 C 1015.97 -6.77844 2.40664 0
M  V30 10913 C 1018 -5.69949 1.57837 0
M  V30 10914 C 1017.36 -6.60927 2.43628 0
M  V30 10915 H 1013.46 -0.760898 -0.180439 0
M  V30 10916 H 1016.04 -1.93978 0.167548 0
M  V30 10917 H 1014.21 -3.39194 -1.89214 0
M  V30 10918 H 1015.95 -3.62301 -1.80332 0
M  V30 10919 H 1012.7 -4.73454 -0.117625 0
M  V30 10920 H 1013.13 -6.52804 1.79377 0
M  V30 10921 H 1017.77 -4.22794 0.0218207 0
M  V30 10922 H 1015.49 -7.47677 3.06603 0
M  V30 10923 H 1019.07 -5.58631 1.6255 0
M  V30 10924 H 1017.95 -7.19156 3.12705 0
M  V30 10925 N 1015.45 0.186762 -1.56489 0
M  V30 10926 C 1016.7 0.907194 -1.81378 0
M  V30 10927 C 1017.03 1.82558 -0.662283 0
M  V30 10928 O 1016.31 1.91564 0.336699 0
M  V30 10929 C 1016.59 1.71624 -3.16571 0
M  V30 10930 C 1016.44 0.822009 -4.42225 0
M  V30 10931 C 1017.76 2.68713 -3.48542 0
M  V30 10932 H 1014.88 0.328366 -0.659806 0
M  V30 10933 H 1017.52 0.174142 -1.892 0
M  V30 10934 H 1015.67 2.34119 -3.10033 0
M  V30 10935 H 1017.35 0.211122 -4.60817 0
M  V30 10936 H 1015.59 0.129178 -4.33608 0
M  V30 10937 H 1016.26 1.42326 -5.33336 0
M  V30 10938 H 1018.74 2.16348 -3.55433 0
M  V30 10939 H 1017.61 3.22397 -4.44242 0
M  V30 10940 H 1017.87 3.48165 -2.72459 0
M  V30 10941 N 1016.93 1.50896 0.454776 0
M  V30 10942 C 1018.35 1.38684 0.78987 0
M  V30 10943 C 1018.55 0.455587 1.96282 0
M  V30 10944 O 1017.6 -0.0957503 2.52318 0
M  V30 10945 C 1018.92 2.80381 1.08661 0
M  V30 10946 C 1020.47 2.8941 1.19209 0
M  V30 10947 C 1020.94 4.31976 1.52187 0
M  V30 10948 N 1022.43 4.35002 1.59146 0
M  V30 10949 C 1023.17 5.42326 1.862 0
M  V30 10950 N 1022.66 6.59835 2.11164 0
M  V30 10951 N 1024.46 5.29786 1.87838 0
M  V30 10952 H 1016.61 2.10006 -0.317981 0
M  V30 10953 H 1018.87 0.944636 -0.0797969 0
M  V30 10954 H 1018.58 3.50438 0.297626 0
M  V30 10955 H 1018.45 3.18634 2.01872 0
M  V30 10956 H 1020.84 2.19561 1.97173 0
M  V30 10957 H 1020.92 2.54677 0.239401 0
M  V30 10958 H 1020.56 5.02368 0.747576 0
M  V30 10959 H 1020.49 4.64208 2.48633 0
M  V30 10960 H 1022.98 3.50276 1.41828 0
M  V30 10961 H 1023.3 7.37428 2.31128 0
M  V30 10962 H 1021.64 6.62981 2.08522 0
M  V30 10963 H 1024.83 4.36974 1.67843 0
M  V30 10964 H 1025 6.13511 2.08585 0
M  V30 10965 N 1018.41 -0.709066 1.40748 0
M  V30 10966 C 1019.36 -1.84445 1.41714 0
M  V30 10967 C 1020.35 -1.66779 0.296818 0
M  V30 10968 O 1021.56 -1.73805 0.468181 0
M  V30 10969 H 1017.93 -0.607581 0.443114 0
M  V30 10970 H 1019.9 -1.80747 2.3743 0
M  V30 10971 C 1018.65 -3.22362 1.303 0
M  V30 10972 H 1017.98 -3.36565 2.15787 0
M  V30 10973 H 1019.42 -4.01922 1.35036 0
M  V30 10974 C 1017.88 -3.36897 0.0139015 0
M  V30 10975 O 1018.41 -3.90389 -0.946553 0
M  V30 10976 N 1016.61 -2.90543 -0.0577491 0
M  V30 10977 H 1016.16 -2.472 0.724574 0
M  V30 10978 H 1016.12 -3.00647 -0.919721 0
M  V30 10979 N 1019.89 -1.26353 -0.941956 0
M  V30 10980 C 1020.8 -1.09618 -2.07415 0
M  V30 10981 C 1021.82 -0.0298963 -1.73974 0
M  V30 10982 O 1022.99 -0.233466 -2.00042 0
M  V30 10983 C 1020.06 -0.73013 -3.38925 0
M  V30 10984 C 1019.12 -1.87574 -3.86153 0
M  V30 10985 C 1018.35 -1.52706 -5.11387 0
M  V30 10986 O 1018.57 -0.428438 -5.68789 0
M  V30 10987 O 1017.51 -2.36154 -5.53638 0
M  V30 10988 H 1021.33 -2.04598 -2.2444 0
M  V30 10989 H 1018.92 -1.05407 -1.05876 0
M  V30 10990 H 1020.8 -0.538684 -4.17943 0
M  V30 10991 H 1019.48 0.190282 -3.2314 0
M  V30 10992 H 1018.38 -2.12214 -3.08084 0
M  V30 10993 H 1019.72 -2.77585 -4.06457 0
M  V30 10994 N 1021.37 1.14642 -1.08144 0
M  V30 10995 C 1022.3 2.21775 -0.730609 0
M  V30 10996 C 1023.28 1.67683 0.285702 0
M  V30 10997 O 1024.46 1.93567 0.156667 0
M  V30 10998 C 1021.59 3.47033 -0.136242 0
M  V30 10999 C 1020.55 4.14134 -1.0806 0
M  V30 11000 C 1019.87 5.33563 -0.348585 0
M  V30 11001 C 1021.17 4.62978 -2.41761 0
M  V30 11002 H 1022.87 2.51378 -1.62633 0
M  V30 11003 H 1020.41 1.20825 -0.783411 0
M  V30 11004 H 1022.37 4.21226 0.121182 0
M  V30 11005 H 1021.09 3.16786 0.7946 0
M  V30 11006 H 1019.75 3.41892 -1.32308 0
M  V30 11007 H 1019.4 4.99575 0.585974 0
M  V30 11008 H 1019.1 5.79402 -0.978122 0
M  V30 11009 H 1020.62 6.10519 -0.0991508 0
M  V30 11010 H 1022.04 5.28659 -2.21795 0
M  V30 11011 H 1020.43 5.1951 -3.00383 0
M  V30 11012 H 1021.5 3.78189 -3.03482 0
M  V30 11013 N 1022.85 0.866709 1.31628 0
M  V30 11014 C 1024.09 0.476731 1.97117 0
M  V30 11015 C 1024.42 -0.967813 1.68366 0
M  V30 11016 O 1023.7 -1.68101 0.978377 0
M  V30 11017 C 1023.98 0.730561 3.52611 0
M  V30 11018 C 1023.84 2.2244 3.90948 0
M  V30 11019 C 1025.15 0.19488 4.39668 0
M  V30 11020 H 1022.27 0.174682 0.715999 0
M  V30 11021 H 1024.92 1.08735 1.5581 0
M  V30 11022 H 1023.07 0.210834 3.87927 0
M  V30 11023 H 1024.74 2.81113 3.6575 0
M  V30 11024 H 1022.98 2.69824 3.39673 0
M  V30 11025 H 1023.65 2.35266 4.99353 0
M  V30 11026 H 1026.13 0.639478 4.11157 0
M  V30 11027 H 1025 0.401958 5.47426 0
M  V30 11028 H 1025.26 -0.90302 4.32779 0
M  V30 11029 N 1024.32 -1.44642 0.625825 0
M  V30 11030 C 1025.27 -2.30653 -0.082259 0
M  V30 11031 C 1026.24 -1.43174 -0.842052 0
M  V30 11032 O 1027.43 -1.72082 -0.824151 0
M  V30 11033 C 1024.57 -3.2837 -1.06146 0
M  V30 11034 C 1023.68 -4.30953 -0.300638 0
M  V30 11035 C 1022.81 -5.15766 -1.27118 0
M  V30 11036 C 1021.85 -6.10061 -0.499215 0
M  V30 11037 N 1020.99 -6.87591 -1.41995 0
M  V30 11038 H 1025.83 -2.90664 0.657161 0
M  V30 11039 H 1023.37 -1.43215 0.335859 0
M  V30 11040 H 1025.32 -3.83507 -1.6425 0
M  V30 11041 H 1023.95 -2.70072 -1.76807 0
M  V30 11042 H 1023.01 -3.78331 0.396234 0
M  V30 11043 H 1024.32 -4.97892 0.300851 0
M  V30 11044 H 1023.47 -5.75394 -1.92372 0
M  V30 11045 H 1022.21 -4.48888 -1.9066 0
M  V30 11046 H 1021.22 -5.49547 0.166848 0
M  V30 11047 H 1022.44 -6.78973 0.131409 0
M  V30 11048 H 1020.39 -6.23387 -2.04267 0
M  V30 11049 H 1020.3 -7.5095 -0.872354 0
M  V30 11050 H 1021.57 -7.51746 -2.0615 0
M  V30 11051 N 1025.8 -0.366053 -1.5329 0
M  V30 11052 C 1026.75 0.495319 -2.27265 0
M  V30 11053 C 1027.74 1.08298 -1.30261 0
M  V30 11054 O 1028.95 1.02613 -1.47887 0
M  V30 11055 H 1025.32 0.178454 -0.730519 0
M  V30 11056 H 1027.3 -0.150354 -2.98021 0
M  V30 11057 C 1026.04 1.62283 -3.07505 0
M  V30 11058 H 1025.37 1.17993 -3.81992 0
M  V30 11059 H 1026.81 2.20024 -3.62444 0
M  V30 11060 C 1025.27 2.56542 -2.18375 0
M  V30 11061 O 1025.8 3.59371 -1.79486 0
M  V30 11062 N 1024 2.25742 -1.82999 0
M  V30 11063 H 1023.55 1.42159 -2.14822 0
M  V30 11064 H 1023.51 2.89064 -1.2365 0
M  V30 11065 N 1027.28 1.57312 -0.0952337 0
M  V30 11066 C 1028.21 2.17056 0.860753 0
M  V30 11067 C 1029.19 1.10394 1.29411 0
M  V30 11068 O 1030.38 1.38532 1.36098 0
M  V30 11069 C 1027.51 2.751 2.11984 0
M  V30 11070 C 1026.46 3.87136 1.8251 0
M  V30 11071 C 1025.79 4.31883 3.15247 0
M  V30 11072 C 1027.09 5.10326 1.11194 0
M  V30 11073 H 1028.78 2.97192 0.362983 0
M  V30 11074 H 1026.33 1.42955 0.173151 0
M  V30 11075 H 1028.28 3.15547 2.79299 0
M  V30 11076 H 1027 1.92219 2.64044 0
M  V30 11077 H 1025.66 3.47229 1.17592 0
M  V30 11078 H 1025.31 3.45893 3.65195 0
M  V30 11079 H 1025.01 5.0742 2.96309 0
M  V30 11080 H 1026.53 4.74964 3.83721 0
M  V30 11081 H 1027.95 5.47942 1.6862 0
M  V30 11082 H 1026.34 5.91293 1.02435 0
M  V30 11083 H 1027.41 4.84807 0.0947227 0
M  V30 11084 N 1028.76 -0.17846 1.56586 0
M  V30 11085 C 1029.67 -1.24115 1.9908 0
M  V30 11086 C 1030.68 -1.48854 0.901031 0
M  V30 11087 O 1031.86 -1.61142 1.2081 0
M  V30 11088 C 1028.92 -2.56187 2.33601 0
M  V30 11089 C 1027.99 -2.39373 3.56369 0
M  V30 11090 C 1027.22 -3.65147 3.89234 0
M  V30 11091 O 1027.44 -4.70024 3.23162 0
M  V30 11092 O 1026.38 -3.59683 4.82609 0
M  V30 11093 H 1030.2 -0.910482 2.89731 0
M  V30 11094 H 1027.79 -0.38477 1.4436 0
M  V30 11095 H 1029.67 -3.34109 2.56806 0
M  V30 11096 H 1028.34 -2.88847 1.46113 0
M  V30 11097 H 1027.25 -1.59506 3.38391 0
M  V30 11098 H 1028.58 -2.1164 4.44375 0
M  V30 11099 N 1030.24 -1.51135 -0.446768 0
M  V30 11100 C 1031.15 -1.74595 -1.56696 0
M  V30 11101 C 1032.16 -0.629816 -1.62201 0
M  V30 11102 O 1033.34 -0.910987 -1.79619 0
M  V30 11103 C 1030.4 -1.85738 -2.9275 0
M  V30 11104 C 1029.46 -3.09564 -2.97437 0
M  V30 11105 C 1028.7 -3.20165 -4.27001 0
M  V30 11106 O 1028.92 -2.36939 -5.1886 0
M  V30 11107 O 1027.85 -4.13077 -4.3778 0
M  V30 11108 H 1031.68 -2.69601 -1.39817 0
M  V30 11109 H 1029.26 -1.35523 -0.628805 0
M  V30 11110 H 1031.15 -1.95107 -3.73512 0
M  V30 11111 H 1029.82 -0.939184 -3.09776 0
M  V30 11112 H 1028.73 -3.05679 -2.15664 0
M  V30 11113 H 1030.06 -4.01041 -2.85353 0
M  V30 11114 N 1031.71 0.701592 -1.41122 0
M  V30 11115 C 1032.96 1.45871 -1.39879 0
M  V30 11116 C 1033.28 1.94999 -0.00668769 0
M  V30 11117 O 1032.55 1.71298 0.95047 0
M  V30 11118 H 1031.13 0.541231 -0.514857 0
M  V30 11119 H 1033.79 0.830803 -1.76306 0
M  V30 11120 H 1032.89 2.32479 -2.0823 0
M  V30 11121 N 1033.19 1.2685 0.935242 0
M  V30 11122 C 1034.44 1.12912 1.6846 0
M  V30 11123 C 1034.77 -0.325708 1.91449 0
M  V30 11124 O 1034.05 -1.23884 1.49944 0
M  V30 11125 C 1034.33 1.90513 3.05576 0
M  V30 11126 C 1034.18 3.43936 2.89876 0
M  V30 11127 C 1035.5 1.70363 4.05789 0
M  V30 11128 H 1032.62 0.411559 0.611382 0
M  V30 11129 H 1035.26 1.55917 1.08582 0
M  V30 11130 H 1033.41 1.53963 3.5669 0
M  V30 11131 H 1035.08 3.90272 2.45939 0
M  V30 11132 H 1033.33 3.70659 2.25376 0
M  V30 11133 H 1034 3.93467 3.87153 0
M  V30 11134 H 1036.47 2.02217 3.63659 0
M  V30 11135 H 1035.35 2.27066 4.99732 0
M  V30 11136 H 1035.61 0.649674 4.373 0
M  V30 11137 N 1034.67 -1.14067 1.0875 0
M  V30 11138 C 1036.08 -1.66747 0.839778 0
M  V30 11139 C 1036.43 -1.85711 -0.632909 0
M  V30 11140 O 1035.56 -1.57084 -1.48841 0
M  V30 11141 C 1036.15 -3.02896 1.51787 0
M  V30 11142 C 1034.71 -3.52596 1.3173 0
M  V30 11143 C 1033.86 -2.27994 1.57841 0
M  V30 11144 H 1036.81 -0.980838 1.24761 0
M  V30 11145 H 1036.83 -3.68526 0.947057 0
M  V30 11146 H 1036.34 -2.89062 2.58969 0
M  V30 11147 H 1034.44 -3.71647 0.266339 0
M  V30 11148 H 1034.56 -4.33151 2.04736 0
M  V30 11149 H 1032.92 -2.34241 1.00015 0
M  V30 11150 H 1033.7 -2.16732 2.66237 0
M  V30 11151 N 1036.15 -0.873678 -1.31166 0
M  V30 11152 C 1037.56 -0.53852 -1.78765 0
M  V30 11153 C 1037.91 0.944765 -1.71955 0
M  V30 11154 O 1037.04 1.73781 -1.28954 0
M  V30 11155 C 1037.63 -0.970749 -3.24595 0
M  V30 11156 C 1036.19 -0.687189 -3.70074 0
M  V30 11157 C 1035.34 -1.16001 -2.51871 0
M  V30 11158 H 1038.29 -1.05903 -1.18196 0
M  V30 11159 H 1038.31 -0.294966 -3.79355 0
M  V30 11160 H 1037.82 -2.05034 -3.29519 0
M  V30 11161 H 1035.92 0.380881 -3.70648 0
M  V30 11162 H 1036.03 -1.26682 -4.62048 0
M  V30 11163 H 1034.4 -0.579663 -2.48016 0
M  V30 11164 H 1035.18 -2.2471 -2.59539 0
M  V30 11165 N 1037.63 1.44308 -0.633487 0
M  V30 11166 C 1038.87 2.02023 -0.138917 0
M  V30 11167 C 1039.2 1.49841 1.24008 0
M  V30 11168 O 1038.46 0.673718 1.83738 0
M  V30 11169 C 1038.76 3.57316 -0.0773886 0
M  V30 11170 C 1038.42 4.28762 -1.39548 0
M  V30 11171 C 1037.08 4.47997 -1.75648 0
M  V30 11172 C 1039.44 4.69391 -2.26542 0
M  V30 11173 C 1036.76 5.05121 -2.98445 0
M  V30 11174 C 1039.12 5.27876 -3.48612 0
M  V30 11175 C 1037.78 5.45329 -3.84932 0
M  V30 11176 H 1037.05 0.739254 -0.0508333 0
M  V30 11177 H 1039.7 1.73043 -0.820271 0
M  V30 11178 H 1038 3.85724 0.687345 0
M  V30 11179 H 1039.7 3.99706 0.321837 0
M  V30 11180 H 1036.29 4.14122 -1.10456 0
M  V30 11181 H 1040.47 4.54241 -1.99946 0
M  V30 11182 H 1035.73 5.16821 -3.26658 0
M  V30 11183 H 1039.9 5.58307 -4.16253 0
M  V30 11184 H 1037.53 5.8936 -4.80166 0
M  V30 11185 N 1039.1 0.374177 1.53094 0
M  V30 11186 C 1040.04 -0.503065 2.23611 0
M  V30 11187 C 1041.05 -1.03915 1.25321 0
M  V30 11188 O 1042.24 -0.944064 1.51492 0
M  V30 11189 C 1039.34 -1.70825 2.92698 0
M  V30 11190 C 1038.51 -1.30217 4.17567 0
M  V30 11191 C 1037.57 -2.37036 4.69788 0
M  V30 11192 O 1036.6 -1.99069 5.33254 0
M  V30 11193 N 1037.8 -3.68743 4.4834 0
M  V30 11194 H 1040.56 0.101013 2.9953 0
M  V30 11195 H 1038.12 0.199778 1.60663 0
M  V30 11196 H 1040.12 -2.41779 3.24538 0
M  V30 11197 H 1038.69 -2.219 2.2018 0
M  V30 11198 H 1037.91 -0.422121 3.91933 0
M  V30 11199 H 1039.19 -1.00728 4.9873 0
M  V30 11200 H 1038.59 -4.0236 3.97647 0
M  V30 11201 H 1037.15 -4.35776 4.84709 0
M  V30 11202 N 1040.58 -1.57259 0.103575 0
M  V30 11203 C 1041.51 -2.17509 -0.84923 0
M  V30 11204 C 1042.49 -1.11079 -1.28824 0
M  V30 11205 O 1043.68 -1.39252 -1.35361 0
M  V30 11206 C 1040.81 -2.76221 -2.10522 0
M  V30 11207 C 1039.76 -3.88098 -1.80454 0
M  V30 11208 C 1039.09 -4.33549 -3.12952 0
M  V30 11209 C 1040.39 -5.10909 -1.08486 0
M  V30 11210 H 1042.08 -2.9738 -0.347217 0
M  V30 11211 H 1039.63 -1.43045 -0.165568 0
M  V30 11212 H 1041.58 -3.17024 -2.77621 0
M  V30 11213 H 1040.31 -1.93617 -2.63021 0
M  V30 11214 H 1038.96 -3.47847 -1.15749 0
M  V30 11215 H 1038.61 -3.47825 -3.63355 0
M  V30 11216 H 1038.31 -5.08984 -2.93614 0
M  V30 11217 H 1039.84 -4.76992 -3.81196 0
M  V30 11218 H 1041.25 -5.48828 -1.65711 0
M  V30 11219 H 1039.65 -5.91828 -0.992973 0
M  V30 11220 H 1040.72 -4.84851 -0.0690108 0
M  V30 11221 N 1042.06 0.170153 -1.56679 0
M  V30 11222 C 1043.3 0.893073 -1.83857 0
M  V30 11223 C 1043.66 1.79378 -0.684661 0
M  V30 11224 O 1044.87 2.55439 -0.836926 0
M  V30 11225 C 1043.14 1.66679 -3.16153 0
M  V30 11226 S 1044.7 2.43831 -3.64818 0
M  V30 11227 H 1041.51 0.299091 -0.645031 0
M  V30 11228 H 1044.12 0.154628 -1.94888 0
M  V30 11229 H 1042.82 0.996152 -3.98127 0
M  V30 11230 H 1042.35 2.44658 -3.08068 0
M  V30 11231 H 1044.37 3.68555 -3.32237 0
M  V30 11232 N 1043.54 1.5137 0.438746 0
M  V30 11233 C 1044.47 1.75528 1.53987 0
M  V30 11234 C 1045.45 0.605067 1.58975 0
M  V30 11235 O 1046.63 0.847634 1.74725 0
M  V30 11236 C 1043.76 1.87904 2.92078 0
M  V30 11237 C 1042.72 3.0333 3.01951 0
M  V30 11238 C 1042.04 3.00888 4.42007 0
M  V30 11239 C 1043.34 4.43319 2.76163 0
M  V30 11240 H 1045.04 2.67728 1.34022 0
M  V30 11241 H 1042.58 1.28831 0.643308 0
M  V30 11242 H 1044.54 2.03388 3.69068 0
M  V30 11243 H 1043.26 0.923514 3.13271 0
M  V30 11244 H 1041.92 2.87549 2.274 0
M  V30 11245 H 1041.57 2.03116 4.60166 0
M  V30 11246 H 1041.27 3.78397 4.49544 0
M  V30 11247 H 1042.79 3.18464 5.20973 0
M  V30 11248 H 1044.21 4.59458 3.42887 0
M  V30 11249 H 1042.6 5.22523 2.9511 0
M  V30 11250 H 1043.67 4.53453 1.71779 0
M  V30 11251 N 1045.02 -0.694098 1.41492 0
M  V30 11252 C 1045.97 -1.80016 1.39923 0
M  V30 11253 C 1046.95 -1.58561 0.273377 0
M  V30 11254 O 1048.14 -1.69368 0.514157 0
M  V30 11255 C 1045.27 -3.18333 1.28526 0
M  V30 11256 C 1044.36 -3.45478 2.45979 0
M  V30 11257 N 1044.75 -3.43313 3.71443 0
M  V30 11258 C 1043.05 -3.76033 2.39824 0
M  V30 11259 C 1043.75 -3.69404 4.4935 0
M  V30 11260 N 1042.72 -3.89221 3.79484 0
M  V30 11261 H 1046.53 -1.76707 2.34844 0
M  V30 11262 H 1044.04 -0.894148 1.35568 0
M  V30 11263 H 1046.04 -3.97567 1.25484 0
M  V30 11264 H 1044.7 -3.22852 0.345904 0
M  V30 11265 H 1045.71 -3.2366 4.04308 0
M  V30 11266 H 1042.38 -3.87913 1.54368 0
M  V30 11267 H 1043.77 -3.73854 5.58285 0
M  V30 11268 N 1046.49 -1.27344 -0.928501 0
M  V30 11269 C 1047.72 -1.16278 -1.70772 0
M  V30 11270 C 1048.13 0.283131 -1.8707 0
M  V30 11271 O 1047.48 1.20466 -1.38685 0
M  V30 11272 C 1047.54 -1.77313 -3.1273 0
M  V30 11273 C 1047.2 -3.26488 -3.19773 0
M  V30 11274 C 1048.2 -4.23133 -3.02083 0
M  V30 11275 C 1045.88 -3.67182 -3.42757 0
M  V30 11276 C 1047.88 -5.5845 -3.07267 0
M  V30 11277 C 1045.56 -5.02629 -3.47574 0
M  V30 11278 C 1046.56 -5.98072 -3.29847 0
M  V30 11279 O 1046.25 -7.3105 -3.34397 0
M  V30 11280 H 1045.98 -0.405215 -0.541089 0
M  V30 11281 H 1048.54 -1.68707 -1.17163 0
M  V30 11282 H 1046.77 -1.19361 -3.67818 0
M  V30 11283 H 1048.46 -1.60972 -3.72616 0
M  V30 11284 H 1049.22 -3.93031 -2.84168 0
M  V30 11285 H 1045.1 -2.93369 -3.55606 0
M  V30 11286 H 1048.64 -6.32924 -2.93348 0
M  V30 11287 H 1044.54 -5.32387 -3.65013 0
M  V30 11288 H 1045.31 -7.39488 -3.50857 0
M  V30 11289 N 1047.97 1.13488 -1.09353 0
M  V30 11290 C 1049.39 1.36739 -0.823086 0
M  V30 11291 C 1049.59 1.93476 0.562963 0
M  V30 11292 O 1048.64 2.15374 1.31796 0
M  V30 11293 C 1049.96 2.31943 -1.91371 0
M  V30 11294 C 1051.51 2.4556 -1.94085 0
M  V30 11295 C 1051.98 3.44072 -3.02289 0
M  V30 11296 N 1053.47 3.51622 -3.01524 0
M  V30 11297 C 1054.21 4.27724 -3.8189 0
M  V30 11298 N 1053.7 5.06987 -4.72161 0
M  V30 11299 N 1055.5 4.23018 -3.70152 0
M  V30 11300 H 1047.65 0.75012 -1.98713 0
M  V30 11301 H 1049.91 0.392564 -0.862901 0
M  V30 11302 H 1049.62 1.97408 -2.91072 0
M  V30 11303 H 1049.49 3.31952 -1.79131 0
M  V30 11304 H 1051.88 2.79382 -0.950234 0
M  V30 11305 H 1051.96 1.45479 -2.10403 0
M  V30 11306 H 1051.6 3.10981 -4.01564 0
M  V30 11307 H 1051.53 4.43956 -2.83214 0
M  V30 11308 H 1054.02 2.95066 -2.36103 0
M  V30 11309 H 1054.34 5.6236 -5.30067 0
M  V30 11310 H 1052.68 5.06222 -4.76197 0
M  V30 11311 H 1055.87 3.60171 -2.98989 0
M  V30 11312 H 1056.04 4.82075 -4.33022 0
M  V30 11313 N 1049.45 0.880621 1.30701 0
M  V30 11314 C 1050.73 0.41712 1.91101 0
M  V30 11315 C 1051.11 -1.10177 1.80067 0
M  V30 11316 O 1050.46 -1.93513 1.21511 0
M  V30 11317 C 1050.67 0.910364 3.36917 0
M  V30 11318 C 1052.01 0.942764 4.14001 0
M  V30 11319 O 1053.04 0.856733 3.45743 0
M  V30 11320 O 1051.9 1.06913 5.3594 0
M  V30 11321 H 1048.99 0.126775 0.817225 0
M  V30 11322 H 1051.54 0.969236 1.39298 0
M  V30 11323 H 1050.31 1.95414 3.39012 0
M  V30 11324 H 1049.93 0.337164 3.96168 0
M  V30 11325 N 1050.93 -1.4397 0.641131 0
M  V30 11326 C 1052.18 -2.01946 0.149629 0
M  V30 11327 C 1052.5 -1.50496 -1.23212 0
M  V30 11328 O 1051.76 -0.683453 -1.83378 0
M  V30 11329 C 1052.06 -3.5727 0.0963368 0
M  V30 11330 C 1051.72 -4.28016 1.4182 0
M  V30 11331 C 1050.39 -4.47059 1.78021 0
M  V30 11332 C 1052.74 -4.68183 2.29028 0
M  V30 11333 C 1050.07 -5.03532 3.01119 0
M  V30 11334 C 1052.42 -5.26019 3.51406 0
M  V30 11335 C 1051.08 -5.4328 3.87818 0
M  V30 11336 H 1050.35 -0.738974 0.0547531 0
M  V30 11337 H 1053 -1.72605 0.829436 0
M  V30 11338 H 1051.3 -3.86083 -0.666879 0
M  V30 11339 H 1053 -3.99871 -0.300635 0
M  V30 11340 H 1049.59 -4.13531 1.12651 0
M  V30 11341 H 1053.78 -4.53175 2.02353 0
M  V30 11342 H 1049.03 -5.15082 3.29395 0
M  V30 11343 H 1053.21 -5.56092 4.19208 0
M  V30 11344 H 1050.83 -5.86805 4.83284 0
M  V30 11345 N 1052.41 -0.382291 -1.52893 0
M  V30 11346 C 1053.66 0.203342 -2.00672 0
M  V30 11347 C 1053.97 1.48487 -1.27322 0
M  V30 11348 O 1055.18 2.15013 -1.65776 0
M  V30 11349 C 1053.63 0.412922 -3.57523 0
M  V30 11350 C 1053.24 -0.854949 -4.39767 0
M  V30 11351 C 1054.98 0.955301 -4.13611 0
M  V30 11352 C 1052.89 -0.614033 -5.88204 0
M  V30 11353 H 1051.82 0.0797635 -0.749769 0
M  V30 11354 H 1054.47 -0.50361 -1.76454 0
M  V30 11355 H 1052.85 1.18155 -3.77962 0
M  V30 11356 H 1054.03 -1.62765 -4.31096 0
M  V30 11357 H 1052.34 -1.32176 -3.94865 0
M  V30 11358 H 1054.94 1.15114 -5.22162 0
M  V30 11359 H 1055.28 1.92233 -3.69259 0
M  V30 11360 H 1055.82 0.24642 -3.97036 0
M  V30 11361 H 1052.55 -1.55187 -6.36865 0
M  V30 11362 H 1052.07 0.119865 -5.9968 0
M  V30 11363 H 1053.75 -0.245895 -6.46533 0
M  V30 11364 N 1053.89 1.57202 -0.111913 0
M  V30 11365 C 1055.3 1.82039 0.414591 0
M  V30 11366 C 1055.65 1.02863 1.67074 0
M  V30 11367 O 1054.77 0.263068 2.14795 0
M  V30 11368 C 1055.37 3.3019 0.758953 0
M  V30 11369 C 1053.93 3.55732 1.23012 0
M  V30 11370 C 1053.07 2.76301 0.235226 0
M  V30 11371 H 1056.02 1.55078 -0.337142 0
M  V30 11372 H 1056.05 3.44431 1.61701 0
M  V30 11373 H 1055.56 3.87788 -0.155473 0
M  V30 11374 H 1053.66 3.03483 2.16169 0
M  V30 11375 H 1053.77 4.64333 1.18034 0
M  V30 11376 H 1052.14 2.44287 0.720822 0
M  V30 11377 H 1052.92 3.36655 -0.672173 0
M  V30 11378 N 1055.36 -0.161842 1.56767 0
M  V30 11379 C 1056.61 -0.875192 1.82167 0
M  V30 11380 C 1056.93 -1.82367 0.690444 0
M  V30 11381 O 1056.2 -1.93756 -0.289023 0
M  V30 11382 H 1054.78 -0.326178 0.672024 0
M  V30 11383 H 1057.44 -0.159392 1.94247 0
M  V30 11384 H 1056.54 -1.44639 2.76561 0
M  V30 11385 N 1056.84 -1.516 -0.430713 0
M  V30 11386 C 1058.09 -1.6484 -1.18134 0
M  V30 11387 C 1058.42 -0.366725 -1.90706 0
M  V30 11388 O 1057.7 0.63398 -1.83878 0
M  V30 11389 C 1057.98 -2.85617 -2.19306 0
M  V30 11390 C 1057.83 -4.23778 -1.50773 0
M  V30 11391 C 1059.15 -3.01909 -3.20217 0
M  V30 11392 H 1056.27 -0.599907 -0.428113 0
M  V30 11393 H 1058.91 -1.84102 -0.46973 0
M  V30 11394 H 1057.06 -2.69325 -2.79993 0
M  V30 11395 H 1058.73 -4.51752 -0.93371 0
M  V30 11396 H 1056.98 -4.26171 -0.809966 0
M  V30 11397 H 1057.65 -5.04291 -2.24487 0
M  V30 11398 H 1060.12 -3.16956 -2.69589 0
M  V30 11399 H 1059 -3.87968 -3.88293 0
M  V30 11400 H 1059.26 -2.1427 -3.86705 0
M  V30 11401 N 1058.32 0.686584 -1.41858 0
M  V30 11402 C 1059.28 1.78214 -1.44126 0
M  V30 11403 C 1060.28 1.57366 -0.330541 0
M  V30 11404 O 1061.47 1.63874 -0.590837 0
M  V30 11405 C 1058.6 3.16704 -1.26142 0
M  V30 11406 H 1059.8 1.77594 -2.41661 0
M  V30 11407 H 1057.35 0.895085 -1.28132 0
M  V30 11408 H 1058.09 3.22957 -0.294823 0
M  V30 11409 H 1057.87 3.33238 -2.06627 0
M  V30 11410 H 1059.36 3.96658 -1.30584 0
M  V30 11411 N 1059.8 1.27835 0.921735 0
M  V30 11412 C 1061.05 1.13904 1.6646 0
M  V30 11413 C 1061.36 -0.313379 1.93073 0
M  V30 11414 O 1062.57 -0.573687 2.6537 0
M  V30 11415 C 1061.02 1.99064 2.99836 0
M  V30 11416 C 1060.63 3.48998 2.80899 0
M  V30 11417 C 1062.37 1.93797 3.77681 0
M  V30 11418 C 1060.28 4.26337 4.09867 0
M  V30 11419 H 1059.21 0.422681 0.624385 0
M  V30 11420 H 1061.86 1.52303 1.02352 0
M  V30 11421 H 1060.24 1.53514 3.65034 0
M  V30 11422 H 1061.42 4.02452 2.24431 0
M  V30 11423 H 1059.73 3.55707 2.16476 0
M  V30 11424 H 1062.33 2.48852 4.73262 0
M  V30 11425 H 1062.67 0.912928 4.06167 0
M  V30 11426 H 1063.21 2.37275 3.19289 0
M  V30 11427 H 1059.94 5.2939 3.86557 0
M  V30 11428 H 1059.46 3.77659 4.65976 0
M  V30 11429 H 1061.14 4.3583 4.78185 0
M  V30 11430 N 1061.28 -1.12907 1.09954 0
M  V30 11431 C 1062.24 -2.16673 0.747364 0
M  V30 11432 C 1063.24 -1.59208 -0.225741 0
M  V30 11433 O 1064.43 -1.742 -0.00322482 0
M  V30 11434 C 1061.56 -3.40735 0.106169 0
M  V30 11435 H 1062.75 -2.49341 1.6664 0
M  V30 11436 H 1060.31 -1.27828 0.899421 0
M  V30 11437 H 1061.04 -3.13661 -0.82384 0
M  V30 11438 H 1060.83 -3.83717 0.806434 0
M  V30 11439 H 1062.32 -4.17414 -0.12464 0
M  V30 11440 N 1062.75 -0.88754 -1.30232 0
M  V30 11441 C 1063.72 -0.361095 -2.26338 0
M  V30 11442 C 1064.72 0.497871 -1.52898 0
M  V30 11443 O 1065.91 0.30466 -1.71515 0
M  V30 11444 C 1063.04 0.485135 -3.3743 0
M  V30 11445 H 1064.23 -1.20973 -2.74419 0
M  V30 11446 H 1061.78 -0.664619 -1.41466 0
M  V30 11447 H 1062.52 1.35425 -2.9467 0
M  V30 11448 H 1062.3 -0.130173 -3.91884 0
M  V30 11449 H 1063.79 0.845169 -4.08958 0
M  V30 11450 N 1064.23 1.43628 -0.648757 0
M  V30 11451 C 1065.18 2.32529 0.057536 0
M  V30 11452 C 1066.17 1.48358 0.817699 0
M  V30 11453 O 1067.38 1.64595 0.728605 0
M  V30 11454 H 1063.76 0.75107 0.037388 0
M  V30 11455 H 1065.73 2.89829 -0.710062 0
M  V30 11456 C 1064.48 3.32605 1.01336 0
M  V30 11457 H 1063.8 3.97395 0.437855 0
M  V30 11458 H 1065.24 3.97453 1.47672 0
M  V30 11459 C 1063.7 2.62865 2.10722 0
M  V30 11460 O 1064.23 2.4408 3.19042 0
M  V30 11461 N 1062.43 2.22312 1.87152 0
M  V30 11462 H 1061.98 2.3779 0.990644 0
M  V30 11463 H 1061.94 1.75979 2.60536 0
M  V30 11464 N 1065.71 0.390394 1.52688 0
M  V30 11465 C 1066.96 -0.192697 2.00777 0
M  V30 11466 C 1067.27 -1.4781 1.28108 0
M  V30 11467 O 1068.48 -2.1413 1.66914 0
M  V30 11468 C 1066.93 -0.393955 3.57737 0
M  V30 11469 C 1066.54 0.878259 4.39307 0
M  V30 11470 C 1068.29 -0.933352 4.14112 0
M  V30 11471 C 1066.19 0.645218 5.8787 0
M  V30 11472 H 1065.12 -0.0757862 0.750182 0
M  V30 11473 H 1067.77 0.512961 1.76184 0
M  V30 11474 H 1066.16 -1.16149 3.78583 0
M  V30 11475 H 1067.33 1.65049 4.30227 0
M  V30 11476 H 1065.65 1.34269 3.94158 0
M  V30 11477 H 1068.24 -1.12343 5.22765 0
M  V30 11478 H 1068.59 -1.90272 3.70273 0
M  V30 11479 H 1069.12 -0.225361 3.97161 0
M  V30 11480 H 1065.86 1.58562 6.36033 0
M  V30 11481 H 1065.38 -0.0880609 5.99735 0
M  V30 11482 H 1067.06 0.280178 6.46393 0
M  V30 11483 N 1067.19 -1.57141 0.120249 0
M  V30 11484 C 1068.44 -1.94413 -0.53727 0
M  V30 11485 C 1068.75 -1.00594 -1.67751 0
M  V30 11486 O 1069.96 -1.27336 -2.39787 0
M  V30 11487 C 1068.41 -3.45521 -1.00714 0
M  V30 11488 C 1068.02 -4.47878 0.104706 0
M  V30 11489 C 1069.76 -3.9171 -1.63596 0
M  V30 11490 C 1067.67 -5.90165 -0.381932 0
M  V30 11491 H 1066.6 -0.725745 -0.204475 0
M  V30 11492 H 1069.25 -1.82404 0.200302 0
M  V30 11493 H 1067.63 -3.52769 -1.79917 0
M  V30 11494 H 1068.81 -4.523 0.881002 0
M  V30 11495 H 1067.12 -4.11448 0.640264 0
M  V30 11496 H 1069.72 -4.95433 -2.01122 0
M  V30 11497 H 1070.06 -3.31756 -2.51483 0
M  V30 11498 H 1070.6 -3.87268 -0.909319 0
M  V30 11499 H 1067.34 -6.53877 0.460921 0
M  V30 11500 H 1066.86 -5.89161 -1.12468 0
M  V30 11501 H 1068.53 -6.41488 -0.842748 0
M  V30 11502 N 1068.67 0.153526 -1.5685 0
M  V30 11503 C 1069.62 1.19478 -1.94188 0
M  V30 11504 C 1070.6 1.38889 -0.812329 0
M  V30 11505 O 1071.79 1.4056 -1.07572 0
M  V30 11506 C 1068.92 2.53 -2.32047 0
M  V30 11507 C 1068.01 2.37209 -3.51557 0
M  V30 11508 N 1068.4 1.91162 -4.68285 0
M  V30 11509 C 1066.7 2.67981 -3.56514 0
M  V30 11510 C 1067.4 1.88259 -5.50394 0
M  V30 11511 N 1066.37 2.31329 -4.91923 0
M  V30 11512 H 1070.18 0.830748 -2.81915 0
M  V30 11513 H 1067.69 0.361643 -1.58322 0
M  V30 11514 H 1069.69 3.28264 -2.56998 0
M  V30 11515 H 1068.35 2.90191 -1.45669 0
M  V30 11516 H 1069.36 1.61227 -4.92165 0
M  V30 11517 H 1066.03 3.0909 -2.80659 0
M  V30 11518 H 1067.42 1.54205 -6.53965 0
M  V30 11519 N 1070.14 1.51827 0.422667 0
M  V30 11520 C 1071.05 1.77066 1.53899 0
M  V30 11521 C 1072.07 0.655541 1.61179 0
M  V30 11522 O 1073.25 0.939448 1.78147 0
M  V30 11523 C 1070.31 1.90372 2.89758 0
M  V30 11524 C 1069.37 3.14256 2.92475 0
M  V30 11525 C 1068.61 3.26918 4.21853 0
M  V30 11526 O 1068.83 2.45164 5.15025 0
M  V30 11527 O 1067.76 4.19989 4.31153 0
M  V30 11528 H 1071.59 2.71791 1.35511 0
M  V30 11529 H 1069.17 1.36506 0.607165 0
M  V30 11530 H 1071.06 2.01024 3.70361 0
M  V30 11531 H 1069.73 0.988347 3.08242 0
M  V30 11532 H 1068.64 3.09072 2.10773 0
M  V30 11533 H 1069.97 4.0553 2.78937 0
M  V30 11534 N 1071.62 -0.679052 1.4222 0
M  V30 11535 C 1072.87 -1.43627 1.42182 0
M  V30 11536 C 1073.19 -1.94964 0.0377095 0
M  V30 11537 O 1072.46 -1.72788 -0.923098 0
M  V30 11538 H 1071.04 -0.532972 0.523402 0
M  V30 11539 H 1073.7 -0.802649 1.77605 0
M  V30 11540 H 1072.8 -2.29137 2.11902 0
M  V30 11541 N 1073.1 -1.28322 -0.914942 0
M  V30 11542 C 1074.35 -1.15407 -1.66396 0
M  V30 11543 C 1074.68 0.297587 -1.9221 0
M  V30 11544 O 1073.93 1.23299 -1.51973 0
M  V30 11545 C 1074.23 -1.89663 -3.02924 0
M  V30 11546 C 1073.9 -3.39464 -2.96774 0
M  V30 11547 C 1072.56 -3.80321 -2.94804 0
M  V30 11548 C 1074.91 -4.3499 -2.87111 0
M  V30 11549 C 1072.24 -5.15046 -2.8097 0
M  V30 11550 C 1074.59 -5.69788 -2.74818 0
M  V30 11551 C 1073.25 -6.09921 -2.71205 0
M  V30 11552 H 1072.52 -0.422303 -0.608885 0
M  V30 11553 H 1075.17 -1.59082 -1.06607 0
M  V30 11554 H 1073.48 -1.38533 -3.66491 0
M  V30 11555 H 1075.17 -1.77087 -3.59779 0
M  V30 11556 H 1071.76 -3.06979 -2.99101 0
M  V30 11557 H 1075.95 -4.04389 -2.87721 0
M  V30 11558 H 1071.2 -5.45271 -2.76568 0
M  V30 11559 H 1075.38 -6.43469 -2.66309 0
M  V30 11560 H 1073 -7.14267 -2.60243 0
M  V30 11561 N 1074.58 1.12322 -1.10551 0
M  V30 11562 C 1075.53 2.16177 -0.724679 0
M  V30 11563 C 1076.51 1.58674 0.266739 0
M  V30 11564 O 1077.7 1.7684 0.0752872 0
M  V30 11565 C 1074.83 3.4293 -0.159413 0
M  V30 11566 C 1073.92 4.07413 -1.17794 0
M  V30 11567 N 1074.31 4.46889 -2.36905 0
M  V30 11568 C 1072.61 4.34209 -1.01874 0
M  V30 11569 C 1073.31 4.97291 -3.01789 0
M  V30 11570 N 1072.29 4.92871 -2.29302 0
M  V30 11571 H 1076.09 2.44466 -1.63136 0
M  V30 11572 H 1073.6 1.2924 -0.983407 0
M  V30 11573 H 1075.6 4.16693 0.131502 0
M  V30 11574 H 1074.26 3.16109 0.741975 0
M  V30 11575 H 1075.27 4.39219 -2.74422 0
M  V30 11576 H 1071.95 4.17141 -0.173013 0
M  V30 11577 H 1073.34 5.3754 -4.03114 0
M  V30 11578 N 1076.06 0.894434 1.2976 0
M  V30 11579 C 1077 0.366586 2.2787 0
M  V30 11580 C 1077.97 -0.548425 1.56785 0
M  V30 11581 O 1079.16 -0.474804 1.84798 0
M  V30 11582 C 1076.3 -0.404531 3.42721 0
M  V30 11583 C 1075.41 0.540774 4.28602 0
M  V30 11584 C 1074.55 -0.246875 5.30626 0
M  V30 11585 C 1073.59 0.693294 6.08161 0
M  V30 11586 N 1072.72 -0.059619 7.02075 0
M  V30 11587 H 1077.56 1.20834 2.72402 0
M  V30 11588 H 1075.1 0.607205 1.33983 0
M  V30 11589 H 1077.06 -0.86762 4.08079 0
M  V30 11590 H 1075.69 -1.21078 2.99232 0
M  V30 11591 H 1074.74 1.12237 3.63465 0
M  V30 11592 H 1076.05 1.26065 4.82606 0
M  V30 11593 H 1075.21 -0.771398 6.01776 0
M  V30 11594 H 1073.94 -0.999918 4.77339 0
M  V30 11595 H 1072.95 1.22936 5.35879 0
M  V30 11596 H 1074.17 1.44558 6.63536 0
M  V30 11597 H 1072.12 -0.795026 6.51165 0
M  V30 11598 H 1072.04 0.60045 7.53612 0
M  V30 11599 H 1073.31 -0.564577 7.77453 0
M  V30 11600 N 1077.53 -1.43282 0.656365 0
M  V30 11601 C 1078.76 -2.06641 0.177245 0
M  V30 11602 C 1079.18 -1.48893 -1.14946 0
M  V30 11603 O 1078.54 -0.600099 -1.7108 0
M  V30 11604 C 1078.59 -3.60453 0.10299 0
M  V30 11605 O 1077.69 -4.01687 -0.933895 0
M  V30 11606 H 1077.04 -0.656978 0.096314 0
M  V30 11607 H 1079.57 -1.83733 0.900178 0
M  V30 11608 H 1079.58 -4.07923 -0.079291 0
M  V30 11609 H 1078.25 -4.01861 1.07147 0
M  V30 11610 H 1076.83 -3.65801 -0.724148 0
M  V30 11611 N 1079.01 -0.398486 -1.52479 0
M  V30 11612 C 1080.43 -0.0488635 -1.59525 0
M  V30 11613 C 1080.63 1.43756 -1.41197 0
M  V30 11614 O 1079.69 2.20317 -1.23357 0
M  V30 11615 C 1081 -0.534262 -2.95916 0
M  V30 11616 C 1082.55 -0.491314 -3.0912 0
M  V30 11617 C 1083.02 -0.953049 -4.47974 0
M  V30 11618 N 1084.51 -0.909434 -4.54184 0
M  V30 11619 C 1085.25 -1.23801 -5.59876 0
M  V30 11620 N 1084.74 -1.63752 -6.73169 0
M  V30 11621 N 1086.54 -1.15867 -5.50028 0
M  V30 11622 H 1078.69 -1.36608 -1.62641 0
M  V30 11623 H 1080.95 -0.560515 -0.764544 0
M  V30 11624 H 1080.66 -1.57277 -3.14574 0
M  V30 11625 H 1080.53 0.0617787 -3.77149 0
M  V30 11626 H 1082.92 0.538123 -2.90152 0
M  V30 11627 H 1083 -1.12327 -2.29818 0
M  V30 11628 H 1082.64 -1.98076 -4.67684 0
M  V30 11629 H 1082.57 -0.298007 -5.25756 0
M  V30 11630 H 1085.06 -0.615569 -3.72853 0
M  V30 11631 H 1085.38 -1.87163 -7.49793 0
M  V30 11632 H 1083.72 -1.67647 -6.74477 0
M  V30 11633 H 1086.91 -0.845502 -4.60401 0
M  V30 11634 H 1087.09 -1.41805 -6.32294 0
M  V30 11635 N 1080.49 1.57075 -0.12858 0
M  V30 11636 C 1081.44 2.15816 0.818064 0
M  V30 11637 C 1082.41 1.08581 1.25696 0
M  V30 11638 O 1083.59 1.36535 1.33277 0
M  V30 11639 C 1080.73 2.76943 2.05905 0
M  V30 11640 C 1079.85 3.98514 1.66764 0
M  V30 11641 C 1078.98 4.47698 2.85902 0
M  V30 11642 C 1078.02 5.61778 2.43047 0
M  V30 11643 N 1077.16 6.05662 3.5513 0
M  V30 11644 H 1082 2.9638 0.310318 0
M  V30 11645 H 1079.53 1.46418 0.141472 0
M  V30 11646 H 1081.49 3.10519 2.78629 0
M  V30 11647 H 1080.12 1.99053 2.54122 0
M  V30 11648 H 1079.17 3.71038 0.838766 0
M  V30 11649 H 1080.49 4.81215 1.31277 0
M  V30 11650 H 1079.64 4.83233 3.66839 0
M  V30 11651 H 1078.38 3.63967 3.24622 0
M  V30 11652 H 1077.38 5.25838 1.60544 0
M  V30 11653 H 1078.61 6.47282 2.05433 0
M  V30 11654 H 1076.56 5.2487 3.93506 0
M  V30 11655 H 1076.47 6.83242 3.23598 0
M  V30 11656 H 1077.74 6.45838 4.36479 0
M  V30 11657 N 1081.97 -0.145205 1.5693 0
M  V30 11658 C 1083.22 -0.858786 1.83719 0
M  V30 11659 C 1083.55 -1.80738 0.710452 0
M  V30 11660 O 1082.82 -1.92389 -0.285791 0
M  V30 11661 C 1083.11 -1.6317 3.2101 0
M  V30 11662 C 1082.96 -0.704472 4.44249 0
M  V30 11663 C 1084.28 -2.59377 3.55544 0
M  V30 11664 H 1081.4 -0.310757 0.66828 0
M  V30 11665 H 1084.04 -0.123918 1.89595 0
M  V30 11666 H 1082.19 -2.25816 3.16132 0
M  V30 11667 H 1083.86 -0.08887 4.61214 0
M  V30 11668 H 1082.1 -0.0141693 4.33798 0
M  V30 11669 H 1082.78 -1.28135 5.36922 0
M  V30 11670 H 1085.25 -2.06848 3.61044 0
M  V30 11671 H 1084.13 -3.10506 4.52634 0
M  V30 11672 H 1084.39 -3.40819 2.81594 0
M  V30 11673 N 1083.45 -1.52049 -0.414609 0
M  V30 11674 C 1084.7 -1.65067 -1.15912 0
M  V30 11675 C 1085.01 -0.383969 -1.91794 0
M  V30 11676 O 1086.22 -0.393872 -2.68628 0
M  V30 11677 C 1084.67 -2.91611 -2.1093 0
M  V30 11678 C 1084.28 -4.25369 -1.4059 0
M  V30 11679 C 1086.02 -3.13992 -2.85674 0
M  V30 11680 C 1083.93 -5.43041 -2.34223 0
M  V30 11681 H 1082.86 -0.614884 -0.436387 0
M  V30 11682 H 1085.51 -1.78533 -0.424072 0
M  V30 11683 H 1083.89 -2.71831 -2.87965 0
M  V30 11684 H 1085.07 -4.55611 -0.689568 0
M  V30 11685 H 1083.38 -4.09047 -0.779088 0
M  V30 11686 H 1085.98 -3.99082 -3.55861 0
M  V30 11687 H 1086.32 -2.27998 -3.48314 0
M  V30 11688 H 1086.86 -3.34217 -2.1574 0
M  V30 11689 H 1083.59 -6.31364 -1.76238 0
M  V30 11690 H 1083.11 -5.17144 -3.03845 0
M  V30 11691 H 1084.79 -5.75901 -2.94868 0
M  V30 11692 N 1084.93 0.6715 -1.42579 0
M  V30 11693 C 1086.17 1.43366 -1.43436 0
M  V30 11694 C 1086.5 1.94131 -0.0517339 0
M  V30 11695 O 1085.78 1.71121 0.924548 0
M  V30 11696 C 1086.06 2.62832 -2.46154 0
M  V30 11697 C 1085.92 2.17677 -3.9362 0
M  V30 11698 C 1087.23 3.65049 -2.4582 0
M  V30 11699 H 1084.35 0.519967 -0.522306 0
M  V30 11700 H 1087 0.762849 -1.74013 0
M  V30 11701 H 1085.15 3.20062 -2.2021 0
M  V30 11702 H 1086.82 1.65588 -4.30556 0
M  V30 11703 H 1085.06 1.49219 -4.07328 0
M  V30 11704 H 1085.73 3.03503 -4.61075 0
M  V30 11705 H 1088.21 3.17541 -2.68899 0
M  V30 11706 H 1087.08 4.46213 -3.19664 0
M  V30 11707 H 1087.34 4.16401 -1.48536 0
M  V30 11708 N 1086.4 1.28806 0.908124 0
M  V30 11709 C 1087.65 1.1646 1.66027 0
M  V30 11710 C 1087.98 -0.285025 1.92097 0
M  V30 11711 O 1087.26 -1.20675 1.52538 0
M  V30 11712 C 1087.54 1.96951 3.01467 0
M  V30 11713 C 1087.39 3.50007 2.82515 0
M  V30 11714 C 1088.71 1.78932 4.02084 0
M  V30 11715 H 1085.83 0.424435 0.602515 0
M  V30 11716 H 1088.47 1.58185 1.0525 0
M  V30 11717 H 1086.62 1.61495 3.53344 0
M  V30 11718 H 1088.3 3.95401 2.37605 0
M  V30 11719 H 1086.54 3.75356 2.17463 0
M  V30 11720 H 1087.21 4.01591 3.7872 0
M  V30 11721 H 1089.69 2.09885 3.59287 0
M  V30 11722 H 1088.56 2.37615 4.94803 0
M  V30 11723 H 1088.82 0.742286 4.35824 0
M  V30 11724 N 1087.88 -1.11734 1.11145 0
M  V30 11725 C 1089.13 -1.83677 0.859684 0
M  V30 11726 C 1089.46 -1.84265 -0.613182 0
M  V30 11727 O 1088.74 -1.29351 -1.45254 0
M  V30 11728 C 1089.02 -3.31003 1.41805 0
M  V30 11729 C 1088.87 -3.38827 2.95831 0
M  V30 11730 C 1090.19 -4.26984 1.06645 0
M  V30 11731 H 1087.31 -0.666879 0.313754 0
M  V30 11732 H 1089.95 -1.31038 1.37583 0
M  V30 11733 H 1088.1 -3.75961 0.979054 0
M  V30 11734 H 1089.77 -3.02451 3.48312 0
M  V30 11735 H 1088.02 -2.79143 3.32056 0
M  V30 11736 H 1088.69 -4.42508 3.29986 0
M  V30 11737 H 1091.16 -3.9019 1.44537 0
M  V30 11738 H 1090.04 -5.2846 1.48394 0
M  V30 11739 H 1090.3 -4.42094 -0.0231866 0
M  V30 11740 N 1089.36 -0.901303 -1.29284 0
M  V30 11741 C 1090.58 -0.542823 -2.0017 0
M  V30 11742 C 1091.01 0.865583 -1.67001 0
M  V30 11743 O 1090.37 1.5764 -0.895502 0
M  V30 11744 C 1090.42 -0.743987 -3.52842 0
M  V30 11745 O 1089.52 0.202771 -4.11901 0
M  V30 11746 H 1088.86 -0.211903 -0.62928 0
M  V30 11747 H 1091.39 -1.21333 -1.64741 0
M  V30 11748 H 1091.4 -0.64926 -4.02801 0
M  V30 11749 H 1090.08 -1.77077 -3.7632 0
M  V30 11750 H 1088.65 0.0603637 -3.72851 0
M  V30 11751 N 1090.84 1.42931 -0.663954 0
M  V30 11752 C 1091.77 2.29122 0.0598878 0
M  V30 11753 C 1092.78 1.43094 0.776404 0
M  V30 11754 O 1093.97 1.66923 0.63237 0
M  V30 11755 C 1091.07 3.20268 1.10822 0
M  V30 11756 C 1090.24 4.34892 0.4677 0
M  V30 11757 C 1089.3 5.06836 1.41435 0
M  V30 11758 O 1088.33 5.61735 0.918818 0
M  V30 11759 N 1089.53 5.11336 2.74801 0
M  V30 11760 H 1092.3 2.91885 -0.679945 0
M  V30 11761 H 1089.86 1.53739 -0.507543 0
M  V30 11762 H 1091.85 3.65264 1.74255 0
M  V30 11763 H 1090.42 2.59031 1.7499 0
M  V30 11764 H 1089.64 3.92679 -0.34593 0
M  V30 11765 H 1090.93 5.08796 0.0210237 0
M  V30 11766 H 1090.33 4.68124 3.1761 0
M  V30 11767 H 1088.88 5.60013 3.33509 0
M  V30 11768 N 1092.32 0.406567 1.52266 0
M  V30 11769 C 1093.27 -0.437483 2.23763 0
M  V30 11770 C 1094.25 -1.01557 1.248 0
M  V30 11771 O 1095.44 -0.938813 1.50051 0
M  V30 11772 C 1092.57 -1.55499 3.06064 0
M  V30 11773 C 1091.66 -0.987799 4.12436 0
M  V30 11774 N 1092.05 -0.147044 5.05586 0
M  V30 11775 C 1090.35 -1.25857 4.27874 0
M  V30 11776 C 1091.05 0.168229 5.81457 0
M  V30 11777 N 1090.02 -0.440245 5.41814 0
M  V30 11778 H 1093.82 0.211203 2.9314 0
M  V30 11779 H 1091.34 0.216843 1.60946 0
M  V30 11780 H 1093.34 -2.17224 3.55836 0
M  V30 11781 H 1092 -2.20632 2.38226 0
M  V30 11782 H 1093.01 0.217062 5.17445 0
M  V30 11783 H 1089.68 -1.90967 3.71265 0
M  V30 11784 H 1091.07 0.850516 6.66495 0
M  V30 11785 N 1093.79 -1.57004 0.136909 0
M  V30 11786 C 1095.04 -1.95797 -0.516711 0
M  V30 11787 C 1095.37 -1.02123 -1.65533 0
M  V30 11788 O 1094.62 -0.0484835 -1.9564 0
M  V30 11789 C 1094.92 -3.40903 -1.07331 0
M  V30 11790 C 1094.59 -4.50867 -0.0541941 0
M  V30 11791 C 1093.25 -4.80669 0.225988 0
M  V30 11792 C 1095.6 -5.17264 0.639361 0
M  V30 11793 C 1092.93 -5.74177 1.2057 0
M  V30 11794 C 1095.28 -6.11827 1.60783 0
M  V30 11795 C 1093.95 -6.40012 1.89581 0
M  V30 11796 H 1093.22 -0.716471 -0.189078 0
M  V30 11797 H 1095.86 -1.90213 0.221605 0
M  V30 11798 H 1094.17 -3.43268 -1.88876 0
M  V30 11799 H 1095.87 -3.6824 -1.58745 0
M  V30 11800 H 1092.46 -4.27666 -0.282754 0
M  V30 11801 H 1096.64 -4.9438 0.436085 0
M  V30 11802 H 1091.9 -5.94312 1.43538 0
M  V30 11803 H 1096.07 -6.62354 2.15081 0
M  V30 11804 H 1093.7 -7.12274 2.65649 0
M  V30 11805 N 1095.27 0.136881 -1.57004 0
M  V30 11806 C 1096.52 0.846257 -1.83088 0
M  V30 11807 C 1096.83 1.81876 -0.719765 0
M  V30 11808 O 1098.04 2.57302 -0.866494 0
M  V30 11809 C 1096.5 1.55559 -3.24545 0
M  V30 11810 C 1096.1 0.624989 -4.43619 0
M  V30 11811 C 1097.85 2.25115 -3.59893 0
M  V30 11812 C 1095.76 1.33653 -5.761 0
M  V30 11813 H 1094.69 0.319768 -0.682836 0
M  V30 11814 H 1097.34 0.0989741 -1.83233 0
M  V30 11815 H 1095.72 2.34887 -3.18817 0
M  V30 11816 H 1096.89 -0.133783 -4.60606 0
M  V30 11817 H 1095.21 0.0373216 -4.16383 0
M  V30 11818 H 1097.8 2.79008 -4.56134 0
M  V30 11819 H 1098.15 3.02084 -2.86446 0
M  V30 11820 H 1098.68 1.52696 -3.67327 0
M  V30 11821 H 1095.42 0.608495 -6.5267 0
M  V30 11822 H 1094.94 2.06776 -5.63031 0
M  V30 11823 H 1096.62 1.87467 -6.19246 0
M  V30 11824 N 1096.75 1.52266 0.40654 0
M  V30 11825 C 1097.68 1.72025 1.51459 0
M  V30 11826 C 1098.7 0.600667 1.51314 0
M  V30 11827 O 1099.88 0.875894 1.55532 0
M  V30 11828 C 1096.98 1.7479 2.90348 0
M  V30 11829 C 1096.16 3.03826 3.14656 0
M  V30 11830 C 1095.22 2.98369 4.33431 0
M  V30 11831 O 1094.24 3.7227 4.30586 0
M  V30 11832 N 1095.44 2.16338 5.38682 0
M  V30 11833 H 1098.21 2.67622 1.34903 0
M  V30 11834 H 1095.77 1.50536 0.595867 0
M  V30 11835 H 1097.76 1.68667 3.67877 0
M  V30 11836 H 1096.33 0.86656 3.00349 0
M  V30 11837 H 1095.55 3.23577 2.25148 0
M  V30 11838 H 1096.84 3.89182 3.27742 0
M  V30 11839 H 1096.24 1.55731 5.43842 0
M  V30 11840 H 1094.8 2.1607 6.14945 0
M  V30 11841 N 1098.23 -0.663929 1.42933 0
M  V30 11842 C 1099.45 -1.45691 1.47611 0
M  V30 11843 C 1099.88 -1.87875 0.0920305 0
M  V30 11844 O 1099.24 -1.56696 -0.91192 0
M  V30 11845 C 1099.28 -2.67517 2.41799 0
M  V30 11846 O 1098.39 -3.66187 1.89686 0
M  V30 11847 H 1097.73 -0.437257 0.499702 0
M  V30 11848 H 1100.26 -0.813397 1.87737 0
M  V30 11849 H 1100.27 -3.1546 2.58745 0
M  V30 11850 H 1098.94 -2.36155 3.4235 0
M  V30 11851 H 1097.52 -3.25274 1.82349 0
M  V30 11852 N 1099.71 -1.29285 -0.901281 0
M  V30 11853 C 1101.12 -1.07263 -1.18182 0
M  V30 11854 C 1101.32 0.177087 -2.0072 0
M  V30 11855 O 1100.38 0.875292 -2.36844 0
M  V30 11856 C 1101.69 -2.32717 -1.9043 0
M  V30 11857 C 1103.24 -2.3802 -2.03262 0
M  V30 11858 C 1103.71 -3.63273 -2.7892 0
M  V30 11859 N 1105.21 -3.63986 -2.86475 0
M  V30 11860 C 1105.94 -4.57585 -3.45549 0
M  V30 11861 N 1105.44 -5.61513 -4.05801 0
M  V30 11862 N 1107.23 -4.45157 -3.43208 0
M  V30 11863 H 1099.38 -2.09487 -0.350536 0
M  V30 11864 H 1101.64 -0.922647 -0.217778 0
M  V30 11865 H 1101.35 -3.23828 -1.37216 0
M  V30 11866 H 1101.22 -2.40102 -2.90913 0
M  V30 11867 H 1103.61 -1.47398 -2.55652 0
M  V30 11868 H 1103.69 -2.3462 -1.01916 0
M  V30 11869 H 1103.34 -4.54246 -2.27206 0
M  V30 11870 H 1103.27 -3.6393 -3.80608 0
M  V30 11871 H 1105.76 -2.8884 -2.43679 0
M  V30 11872 H 1106.07 -6.29058 -4.48894 0
M  V30 11873 H 1104.41 -5.65325 -4.04268 0
M  V30 11874 H 1107.61 -3.63158 -2.95354 0
M  V30 11875 H 1107.78 -5.18286 -3.88952 0
M  V30 11876 N 1101.18 1.11143 -1.11736 0
M  V30 11877 C 1102.43 1.8341 -0.879329 0
M  V30 11878 C 1102.79 1.83174 0.588657 0
M  V30 11879 O 1102.08 1.27609 1.42922 0
M  V30 11880 C 1102.27 3.29733 -1.3788 0
M  V30 11881 C 1102.1 3.44222 -2.89381 0
M  V30 11882 C 1100.87 3.57065 -3.57537 0
M  V30 11883 C 1103.07 3.38246 -3.8742 0
M  V30 11884 N 1101.05 3.60056 -4.97225 0
M  V30 11885 C 1102.42 3.47894 -5.13196 0
M  V30 11886 C 1104.48 3.21797 -3.79935 0
M  V30 11887 C 1103.18 3.4279 -6.32367 0
M  V30 11888 C 1105.21 3.18011 -4.98621 0
M  V30 11889 C 1104.57 3.28234 -6.23251 0
M  V30 11890 H 1100.67 0.686248 -0.374951 0
M  V30 11891 H 1103.25 1.32962 -1.42229 0
M  V30 11892 H 1101.42 3.78691 -0.86298 0
M  V30 11893 H 1103.15 3.89924 -1.08359 0
M  V30 11894 H 1099.91 3.59759 -3.08011 0
M  V30 11895 H 1100.33 3.65181 -5.70063 0
M  V30 11896 H 1104.98 3.12777 -2.84482 0
M  V30 11897 H 1102.69 3.50577 -7.28094 0
M  V30 11898 H 1106.28 3.06446 -4.94552 0
M  V30 11899 H 1105.16 3.25297 -7.13549 0
M  V30 11900 N 1102.66 0.908147 1.28804 0
M  V30 11901 C 1103.9 0.545425 1.96989 0
M  V30 11902 C 1104.27 -0.893226 1.69957 0
M  V30 11903 O 1105.47 -1.36324 2.31666 0
M  V30 11904 C 1103.74 0.83953 3.474 0
M  V30 11905 S 1105.3 0.582385 4.34918 0
M  V30 11906 H 1102.12 0.202027 0.681693 0
M  V30 11907 H 1104.72 1.1724 1.56445 0
M  V30 11908 H 1103.42 1.88463 3.64568 0
M  V30 11909 H 1102.95 0.200999 3.92886 0
M  V30 11910 H 1104.97 -0.568807 4.92929 0
M  V30 11911 N 1104.14 -1.42577 0.671525 0
M  V30 11912 C 1105.39 -2.00806 0.189663 0
M  V30 11913 C 1105.7 -1.537 -1.20978 0
M  V30 11914 O 1106.91 -2.04325 -1.78784 0
M  V30 11915 C 1105.36 -3.58744 0.288227 0
M  V30 11916 C 1104.97 -4.14839 1.69152 0
M  V30 11917 C 1106.72 -4.24285 -0.13509 0
M  V30 11918 C 1104.62 -5.65131 1.74302 0
M  V30 11919 H 1103.55 -0.751004 0.067146 0
M  V30 11920 H 1106.2 -1.63338 0.83623 0
M  V30 11921 H 1104.59 -3.937 -0.426175 0
M  V30 11922 H 1105.76 -3.91349 2.43274 0
M  V30 11923 H 1104.08 -3.61738 2.0624 0
M  V30 11924 H 1106.67 -5.34573 -0.116709 0
M  V30 11925 H 1107.02 -3.99527 -1.16977 0
M  V30 11926 H 1107.55 -3.94278 0.528191 0
M  V30 11927 H 1104.29 -5.94682 2.75742 0
M  V30 11928 H 1103.81 -5.90621 1.04531 0
M  V30 11929 H 1105.49 -6.29491 1.49498 0
M  V30 11930 N 1105.62 -0.414636 -1.52048 0
M  V30 11931 C 1106.87 0.159349 -2.01872 0
M  V30 11932 C 1107.19 1.44674 -1.29999 0
M  V30 11933 O 1106.45 1.91641 -0.396511 0
M  V30 11934 C 1106.75 0.448327 -3.54577 0
M  V30 11935 C 1106.41 -0.75052 -4.4461 0
M  V30 11936 C 1105.08 -1.07935 -4.68939 0
M  V30 11937 C 1107.43 -1.55134 -4.97577 0
M  V30 11938 C 1104.76 -2.21008 -5.43482 0
M  V30 11939 C 1107.11 -2.67288 -5.73358 0
M  V30 11940 C 1105.77 -3.00651 -5.95958 0
M  V30 11941 H 1105.04 0.05831 -0.738702 0
M  V30 11942 H 1107.69 -0.557184 -1.83215 0
M  V30 11943 H 1105.99 1.24649 -3.71443 0
M  V30 11944 H 1107.69 0.90549 -3.90643 0
M  V30 11945 H 1104.28 -0.484257 -4.25856 0
M  V30 11946 H 1108.46 -1.31052 -4.78685 0
M  V30 11947 H 1103.72 -2.47197 -5.59199 0
M  V30 11948 H 1107.89 -3.29725 -6.13396 0
M  V30 11949 H 1105.52 -3.88384 -6.535 0
M  V30 11950 N 1107.1 1.56929 -0.145233 0
M  V30 11951 C 1108.01 2.20238 0.808219 0
M  V30 11952 C 1109.02 1.18615 1.27304 0
M  V30 11953 O 1110.2 1.51186 1.3306 0
M  V30 11954 C 1107.26 2.81016 2.03055 0
M  V30 11955 C 1106.32 3.97759 1.61512 0
M  V30 11956 C 1105.56 4.55628 2.77918 0
M  V30 11957 O 1105.78 4.12378 3.94082 0
M  V30 11958 O 1104.71 5.45917 2.53492 0
M  V30 11959 H 1108.54 3.02221 0.299314 0
M  V30 11960 H 1106.13 1.49176 0.0817051 0
M  V30 11961 H 1108.01 3.19652 2.74592 0
M  V30 11962 H 1106.68 2.02047 2.52901 0
M  V30 11963 H 1105.59 3.63842 0.870033 0
M  V30 11964 H 1106.92 4.78242 1.16383 0
M  V30 11965 N 1108.58 -0.128553 1.57075 0
M  V30 11966 C 1109.81 -0.851214 1.8825 0
M  V30 11967 C 1110.21 -1.74402 0.733531 0
M  V30 11968 O 1109.56 -1.81149 -0.305108 0
M  V30 11969 C 1109.62 -1.74451 3.14336 0
M  V30 11970 C 1109.28 -1.02699 4.45311 0
M  V30 11971 C 1110.28 -0.37224 5.18566 0
M  V30 11972 C 1107.96 -1.01101 4.9202 0
M  V30 11973 C 1109.96 0.2889 6.36745 0
M  V30 11974 C 1107.65 -0.346063 6.10119 0
M  V30 11975 C 1108.64 0.302744 6.82329 0
M  V30 11976 O 1108.33 0.9571 7.98182 0
M  V30 11977 H 1108.06 -0.250529 0.627863 0
M  V30 11978 H 1110.62 -0.120418 2.05047 0
M  V30 11979 H 1108.85 -2.51671 2.93596 0
M  V30 11980 H 1110.54 -2.34075 3.31608 0
M  V30 11981 H 1111.3 -0.376271 4.83538 0
M  V30 11982 H 1107.18 -1.50543 4.35727 0
M  V30 11983 H 1110.73 0.795901 6.93045 0
M  V30 11984 H 1106.62 -0.339762 6.44605 0
M  V30 11985 H 1107.39 0.860616 8.13963 0
M  V30 11986 N 1110.05 -1.5248 -0.398459 0
M  V30 11987 C 1110.96 -1.79492 -1.51062 0
M  V30 11988 C 1111.98 -0.681101 -1.60116 0
M  V30 11989 O 1113.16 -0.967671 -1.7663 0
M  V30 11990 C 1110.22 -1.94958 -2.86692 0
M  V30 11991 C 1109.28 -3.1887 -2.87438 0
M  V30 11992 C 1108.51 -3.33588 -4.16599 0
M  V30 11993 O 1108.74 -2.53327 -5.11059 0
M  V30 11994 O 1107.67 -4.26795 -4.24416 0
M  V30 11995 H 1111.5 -2.73913 -1.31169 0
M  V30 11996 H 1109.08 -1.37455 -0.585372 0
M  V30 11997 H 1110.96 -2.06891 -3.67116 0
M  V30 11998 H 1109.64 -1.03726 -3.06631 0
M  V30 11999 H 1108.55 -3.12386 -2.0583 0
M  V30 12000 H 1109.88 -4.09917 -2.7245 0
M  V30 12001 N 1111.53 0.65634 -1.43283 0
M  V30 12002 C 1112.78 1.41212 -1.44021 0
M  V30 12003 C 1113.09 1.95485 -0.0669783 0
M  V30 12004 O 1114.3 2.71457 0.0481909 0
M  V30 12005 C 1112.76 2.55541 -2.5343 0
M  V30 12006 C 1112.36 2.07889 -3.96845 0
M  V30 12007 C 1114.11 3.3293 -2.63359 0
M  V30 12008 C 1112.01 3.19411 -4.97726 0
M  V30 12009 H 1110.94 0.530566 -0.535739 0
M  V30 12010 H 1113.6 0.708743 -1.6926 0
M  V30 12011 H 1111.98 3.28335 -2.21387 0
M  V30 12012 H 1113.15 1.42127 -4.38334 0
M  V30 12013 H 1111.47 1.43388 -3.90933 0
M  V30 12014 H 1114.06 4.1602 -3.35903 0
M  V30 12015 H 1114.41 3.80753 -1.68324 0
M  V30 12016 H 1114.94 2.67216 -2.94687 0
M  V30 12017 H 1111.68 2.7656 -5.94302 0
M  V30 12018 H 1111.2 3.83895 -4.60853 0
M  V30 12019 H 1112.88 3.84591 -5.20287 0
M  V30 12020 N 1113.01 1.29761 0.894412 0
M  V30 12021 C 1113.97 1.15335 1.98067 0
M  V30 12022 C 1114.97 0.0872804 1.60563 0
M  V30 12023 O 1116.16 0.334645 1.70955 0
M  V30 12024 C 1113.29 0.764907 3.32208 0
M  V30 12025 H 1114.49 2.11829 2.12293 0
M  V30 12026 H 1112.04 1.13023 1.0796 0
M  V30 12027 H 1112.78 -0.199948 3.23683 0
M  V30 12028 H 1112.56 1.53523 3.60795 0
M  V30 12029 H 1114.05 0.687176 4.11907 0
M  V30 12030 N 1114.49 -1.10549 1.12324 0
M  V30 12031 C 1115.42 -2.16657 0.747826 0
M  V30 12032 C 1116.43 -1.61238 -0.224981 0
M  V30 12033 O 1117.62 -1.78499 -0.00649408 0
M  V30 12034 C 1114.72 -3.38791 0.0859421 0
M  V30 12035 C 1113.89 -4.23655 1.08792 0
M  V30 12036 C 1112.95 -5.24239 0.453871 0
M  V30 12037 O 1111.98 -5.58262 1.11052 0
M  V30 12038 N 1113.18 -5.75246 -0.779215 0
M  V30 12039 H 1115.95 -2.49472 1.66084 0
M  V30 12040 H 1113.51 -1.26157 1.01469 0
M  V30 12041 H 1115.5 -4.03182 -0.350186 0
M  V30 12042 H 1114.07 -3.03961 -0.729807 0
M  V30 12043 H 1113.29 -3.55578 1.70171 0
M  V30 12044 H 1114.58 -4.77187 1.76549 0
M  V30 12045 H 1113.98 -5.49802 -1.3317 0
M  V30 12046 H 1112.53 -6.41428 -1.15818 0
M  V30 12047 N 1115.97 -0.914965 -1.28321 0
M  V30 12048 C 1117.19 -0.564654 -1.99046 0
M  V30 12049 C 1117.61 0.854345 -1.68364 0
M  V30 12050 O 1116.97 1.56605 -0.937068 0
M  V30 12051 C 1117.02 -0.765663 -3.53299 0
M  V30 12052 O 1116.74 -2.12883 -3.829 0
M  V30 12053 C 1118.24 -0.422347 -4.41283 0
M  V30 12054 H 1115.46 -0.215158 -0.635569 0
M  V30 12055 H 1118 -1.2285 -1.63487 0
M  V30 12056 H 1116.16 -0.148795 -3.87114 0
M  V30 12057 H 1116.57 -2.1694 -4.77533 0
M  V30 12058 H 1118.05 -0.613757 -5.48577 0
M  V30 12059 H 1118.52 0.641484 -4.3449 0
M  V30 12060 H 1119.13 -1.01681 -4.12966 0
M  V30 12061 N 1117.44 1.42219 -0.679077 0
M  V30 12062 C 1118.69 2.02291 -0.212115 0
M  V30 12063 C 1119.04 1.52755 1.16977 0
M  V30 12064 O 1118.34 0.721827 1.77483 0
M  V30 12065 C 1118.53 3.56889 -0.191027 0
M  V30 12066 C 1118.36 4.21429 -1.56933 0
M  V30 12067 C 1117.13 4.5642 -2.16814 0
M  V30 12068 C 1119.33 4.48733 -2.51283 0
M  V30 12069 N 1117.31 5.06162 -3.47381 0
M  V30 12070 C 1118.68 5.00072 -3.66508 0
M  V30 12071 C 1120.74 4.30726 -2.49758 0
M  V30 12072 C 1119.44 5.35296 -4.80469 0
M  V30 12073 C 1121.47 4.67029 -3.62819 0
M  V30 12074 C 1120.83 5.18524 -4.76773 0
M  V30 12075 H 1116.93 0.772324 -0.122637 0
M  V30 12076 H 1119.51 1.73014 -0.89299 0
M  V30 12077 H 1117.68 3.85675 0.459276 0
M  V30 12078 H 1119.41 4.03665 0.289217 0
M  V30 12079 H 1116.17 4.42321 -1.69261 0
M  V30 12080 H 1116.59 5.35457 -4.14264 0
M  V30 12081 H 1121.23 3.90166 -1.62882 0
M  V30 12082 H 1118.95 5.74788 -5.68018 0
M  V30 12083 H 1122.54 4.54769 -3.62872 0
M  V30 12084 H 1121.42 5.4609 -5.6281 0
M  V30 12085 N 1118.92 0.422693 1.51826 0
M  V30 12086 C 1119.85 -0.43167 2.25098 0
M  V30 12087 C 1120.87 -0.998758 1.28564 0
M  V30 12088 O 1122.06 -0.89539 1.54418 0
M  V30 12089 C 1119.16 -1.61426 2.97985 0
M  V30 12090 C 1118.33 -1.16866 4.21499 0
M  V30 12091 C 1117.39 -2.2197 4.77091 0
M  V30 12092 O 1116.41 -1.82004 5.39317 0
M  V30 12093 N 1117.62 -3.54293 4.59844 0
M  V30 12094 H 1120.38 0.196255 2.99057 0
M  V30 12095 H 1117.94 0.25079 1.59946 0
M  V30 12096 H 1119.93 -2.31331 3.32066 0
M  V30 12097 H 1118.5 -2.14783 2.27128 0
M  V30 12098 H 1117.72 -0.297217 3.93078 0
M  V30 12099 H 1119.01 -0.848106 5.01682 0
M  V30 12100 H 1118.41 -3.89505 4.10247 0
M  V30 12101 H 1116.97 -4.20135 4.98327 0
M  V30 12102 N 1120.4 -1.5685 0.153553 0
M  V30 12103 C 1121.65 -1.96334 -0.495915 0
M  V30 12104 C 1121.97 -1.03873 -1.64441 0
M  V30 12105 O 1121.23 -0.069231 -1.95578 0
M  V30 12106 C 1121.53 -3.42022 -1.0371 0
M  V30 12107 C 1121.19 -4.509 -0.00637049 0
M  V30 12108 C 1119.86 -4.80402 0.276956 0
M  V30 12109 C 1122.21 -5.16556 0.694187 0
M  V30 12110 C 1119.54 -5.72866 1.26653 0
M  V30 12111 C 1121.89 -6.10087 1.67263 0
M  V30 12112 C 1120.55 -6.37965 1.96359 0
M  V30 12113 H 1119.82 -0.718436 -0.181468 0
M  V30 12114 H 1122.47 -1.89968 0.241768 0
M  V30 12115 H 1120.77 -3.45252 -1.85225 0
M  V30 12116 H 1122.47 -3.69903 -1.54831 0
M  V30 12117 H 1119.06 -4.27942 -0.237378 0
M  V30 12118 H 1123.25 -4.9389 0.488496 0
M  V30 12119 H 1118.5 -5.92756 1.49833 0
M  V30 12120 H 1122.68 -6.60036 2.22094 0
M  V30 12121 H 1120.3 -7.09416 2.73189 0
M  V30 12122 N 1121.88 0.120221 -1.57141 0
M  V30 12123 C 1122.81 1.14876 -2.03287 0
M  V30 12124 C 1123.79 1.43259 -0.917112 0
M  V30 12125 O 1124.97 1.53721 -1.18674 0
M  V30 12126 C 1122.1 2.47525 -2.43616 0
M  V30 12127 C 1121.06 2.33607 -3.58625 0
M  V30 12128 C 1120.38 3.71207 -3.84849 0
M  V30 12129 C 1121.68 1.79761 -4.90391 0
M  V30 12130 H 1123.38 0.764943 -2.89463 0
M  V30 12131 H 1120.92 0.366516 -1.39258 0
M  V30 12132 H 1122.88 3.19728 -2.74504 0
M  V30 12133 H 1121.6 2.87794 -1.54409 0
M  V30 12134 H 1120.26 1.63853 -3.27945 0
M  V30 12135 H 1119.91 4.0896 -2.9285 0
M  V30 12136 H 1119.61 3.62749 -4.62263 0
M  V30 12137 H 1121.13 4.44917 -4.18188 0
M  V30 12138 H 1122.55 2.4178 -5.19822 0
M  V30 12139 H 1120.94 1.82126 -5.71795 0
M  V30 12140 H 1122.01 0.755087 -4.78985 0
M  V30 12141 N 1123.36 1.52689 0.390367 0
M  V30 12142 C 1124.58 1.71839 1.16129 0
M  V30 12143 C 1125.01 0.435226 1.82996 0
M  V30 12144 O 1124.36 -0.60889 1.70769 0
M  V30 12145 C 1124.41 2.86784 2.18603 0
M  V30 12146 O 1123.52 2.53662 3.25161 0
M  V30 12147 H 1122.86 0.571455 0.338135 0
M  V30 12148 H 1125.39 1.99475 0.45508 0
M  V30 12149 H 1125.4 3.12239 2.62622 0
M  V30 12150 H 1124.07 3.79872 1.69322 0
M  V30 12151 H 1122.65 2.38942 2.86289 0
M  V30 12152 N 1124.83 -0.648732 1.43629 0
M  V30 12153 C 1126.06 -1.44117 1.49148 0
M  V30 12154 C 1126.48 -1.87767 0.111952 0
M  V30 12155 O 1125.84 -1.57655 -0.895249 0
M  V30 12156 C 1125.89 -2.64938 2.44623 0
M  V30 12157 O 1124.99 -3.64155 1.93559 0
M  V30 12158 H 1124.34 -0.431933 0.504312 0
M  V30 12159 H 1126.87 -0.793439 1.88589 0
M  V30 12160 H 1126.88 -3.12698 2.62076 0
M  V30 12161 H 1125.55 -2.3251 3.44836 0
M  V30 12162 H 1124.13 -3.23322 1.85789 0
M  V30 12163 N 1126.31 -1.30234 -0.887518 0
M  V30 12164 C 1127.73 -1.0851 -1.17037 0
M  V30 12165 C 1127.93 0.155788 -2.00897 0
M  V30 12166 O 1126.98 0.850123 -2.37759 0
M  V30 12167 C 1128.3 -2.34723 -1.87951 0
M  V30 12168 C 1129.85 -2.40163 -2.00726 0
M  V30 12169 C 1130.32 -3.66211 -2.75051 0
M  V30 12170 N 1131.81 -3.67004 -2.82599 0
M  V30 12171 C 1132.55 -4.61224 -3.40676 0
M  V30 12172 N 1132.04 -5.65786 -3.99823 0
M  V30 12173 N 1133.84 -4.48772 -3.38467 0
M  V30 12174 H 1125.99 -2.09847 -0.328297 0
M  V30 12175 H 1128.25 -0.924904 -0.20798 0
M  V30 12176 H 1127.96 -3.25265 -1.33773 0
M  V30 12177 H 1127.83 -2.43175 -2.8835 0
M  V30 12178 H 1130.22 -1.50101 -2.54074 0
M  V30 12179 H 1130.3 -2.35688 -0.994218 0
M  V30 12180 H 1129.94 -4.56631 -2.22376 0
M  V30 12181 H 1129.87 -3.67947 -3.76726 0
M  V30 12182 H 1132.36 -2.91409 -2.40602 0
M  V30 12183 H 1132.68 -6.33783 -4.42197 0
M  V30 12184 H 1131.02 -5.69581 -3.9825 0
M  V30 12185 H 1134.21 -3.6627 -2.91485 0
M  V30 12186 H 1134.38 -5.22382 -3.83433 0
M  V30 12187 N 1127.79 1.09952 -1.12909 0
M  V30 12188 C 1128.75 2.14615 -0.804548 0
M  V30 12189 C 1129.75 1.5975 0.18345 0
M  V30 12190 O 1130.94 1.74147 -0.0429623 0
M  V30 12191 C 1128.08 3.40333 -0.196471 0
M  V30 12192 H 1129.27 2.44835 -1.73193 0
M  V30 12193 H 1126.82 1.25399 -0.932997 0
M  V30 12194 H 1127.56 3.15735 0.740388 0
M  V30 12195 H 1127.34 3.81444 -0.907886 0
M  V30 12196 H 1128.83 4.17598 0.0139264 0
M  V30 12197 N 1129.27 0.921757 1.27833 0
M  V30 12198 C 1130.52 0.557974 1.94245 0
M  V30 12199 C 1130.84 -0.90268 1.72849 0
M  V30 12200 O 1130.11 -1.63915 1.07279 0
M  V30 12201 H 1128.69 0.203364 0.718785 0
M  V30 12202 H 1131.35 1.17286 1.5566 0
M  V30 12203 H 1130.45 0.759202 3.02725 0
M  V30 12204 N 1130.75 -1.41857 0.686609 0
M  V30 12205 C 1132 -2.00594 0.21095 0
M  V30 12206 C 1132.31 -1.54974 -1.19341 0
M  V30 12207 O 1133.51 -2.0621 -1.76607 0
M  V30 12208 C 1131.97 -3.58418 0.326261 0
M  V30 12209 C 1131.58 -4.13022 1.73542 0
M  V30 12210 C 1133.32 -4.24404 -0.0900816 0
M  V30 12211 C 1131.23 -5.6325 1.80287 0
M  V30 12212 H 1130.16 -0.75025 0.0751077 0
M  V30 12213 H 1132.81 -1.62442 0.853508 0
M  V30 12214 H 1131.19 -3.9413 -0.384394 0
M  V30 12215 H 1132.37 -3.88747 2.47411 0
M  V30 12216 H 1130.68 -3.5953 2.10065 0
M  V30 12217 H 1133.28 -5.34666 -0.060004 0
M  V30 12218 H 1133.62 -4.00745 -1.12733 0
M  V30 12219 H 1134.15 -3.93695 0.569979 0
M  V30 12220 H 1130.89 -5.91724 2.82034 0
M  V30 12221 H 1130.41 -5.89479 1.1079 0
M  V30 12222 H 1132.09 -6.2787 1.56167 0
M  V30 12223 N 1132.22 -0.430739 -1.51599 0
M  V30 12224 C 1133.47 0.139396 -2.01218 0
M  V30 12225 C 1133.79 1.44361 -1.31982 0
M  V30 12226 O 1134.99 2.0963 -1.72533 0
M  V30 12227 C 1133.45 0.298969 -3.58656 0
M  V30 12228 C 1133.06 -0.994424 -4.36824 0
M  V30 12229 C 1134.8 0.82323 -4.16441 0
M  V30 12230 C 1132.71 -0.800855 -5.85952 0
M  V30 12231 H 1131.64 0.0558698 -0.751927 0
M  V30 12232 H 1134.29 -0.559493 -1.74762 0
M  V30 12233 H 1132.67 1.06071 -3.8153 0
M  V30 12234 H 1133.84 -1.76398 -4.257 0
M  V30 12235 H 1132.16 -1.44672 -3.9046 0
M  V30 12236 H 1134.76 0.984434 -5.2556 0
M  V30 12237 H 1135.1 1.80388 -3.75188 0
M  V30 12238 H 1135.63 0.119982 -3.97619 0
M  V30 12239 H 1132.37 -1.75369 -6.31606 0
M  V30 12240 H 1131.89 -0.0709793 -5.99758 0
M  V30 12241 H 1133.57 -0.451459 -6.45423 0
M  V30 12242 N 1133.7 1.56767 -0.161869 0
M  V30 12243 C 1134.95 1.96594 0.485496 0
M  V30 12244 C 1135.28 1.04743 1.63887 0
M  V30 12245 O 1134.53 0.079602 1.95538 0
M  V30 12246 C 1134.83 3.42567 1.01894 0
M  V30 12247 C 1134.5 4.50897 -0.0175419 0
M  V30 12248 C 1133.16 4.80249 -0.302429 0
M  V30 12249 C 1135.51 5.16181 -0.721572 0
M  V30 12250 C 1132.84 5.72187 -1.2969 0
M  V30 12251 C 1135.19 6.09191 -1.70496 0
M  V30 12252 C 1133.86 6.36915 -1.99739 0
M  V30 12253 H 1133.13 0.719388 0.177656 0
M  V30 12254 H 1135.77 1.89837 -0.251839 0
M  V30 12255 H 1134.08 3.4623 1.83391 0
M  V30 12256 H 1135.77 3.70719 1.52867 0
M  V30 12257 H 1132.36 4.28062 0.21468 0
M  V30 12258 H 1136.55 4.93624 -0.514681 0
M  V30 12259 H 1131.8 5.91953 -1.52974 0
M  V30 12260 H 1135.98 6.58849 -2.25591 0
M  V30 12261 H 1133.61 7.07958 -2.76948 0
M  V30 12262 N 1135.18 -0.111886 1.57202 0
M  V30 12263 C 1136.43 -0.817022 1.84412 0
M  V30 12264 C 1136.74 -1.80708 0.748608 0
M  V30 12265 O 1137.95 -2.55891 0.907319 0
M  V30 12266 C 1136.4 -1.50376 3.26979 0
M  V30 12267 C 1136.01 -0.554334 4.44557 0
M  V30 12268 C 1137.76 -2.19361 3.63429 0
M  V30 12269 C 1135.66 -1.24471 5.78153 0
M  V30 12270 H 1134.59 -0.308864 0.687836 0
M  V30 12271 H 1137.24 -0.0698109 1.83367 0
M  V30 12272 H 1135.63 -2.29785 3.22514 0
M  V30 12273 H 1136.8 0.207045 4.60335 0
M  V30 12274 H 1135.12 0.0289261 4.1639 0
M  V30 12275 H 1137.71 -2.71716 4.60515 0
M  V30 12276 H 1138.06 -2.97488 2.91215 0
M  V30 12277 H 1138.59 -1.46833 3.69709 0
M  V30 12278 H 1135.33 -0.504584 6.53555 0
M  V30 12279 H 1134.85 -1.97792 5.66249 0
M  V30 12280 H 1136.53 -1.77591 6.2215 0
M  V30 12281 N 1136.66 -1.52894 -0.382264 0
M  V30 12282 C 1137.9 -1.68515 -1.12829 0
M  V30 12283 C 1138.24 -0.427211 -1.89443 0
M  V30 12284 O 1137.51 0.57516 -1.85801 0
M  V30 12285 C 1137.8 -2.92449 -2.10108 0
M  V30 12286 C 1137.65 -4.2836 -1.37214 0
M  V30 12287 C 1138.97 -3.11944 -3.1045 0
M  V30 12288 H 1136.09 -0.613223 -0.408811 0
M  V30 12289 H 1138.73 -1.85503 -0.410921 0
M  V30 12290 H 1136.88 -2.78097 -2.71283 0
M  V30 12291 H 1138.55 -4.54493 -0.789516 0
M  V30 12292 H 1136.79 -4.28532 -0.673973 0
M  V30 12293 H 1137.46 -5.11178 -2.0833 0
M  V30 12294 H 1139.94 -3.25372 -2.59369 0
M  V30 12295 H 1138.82 -4.00125 -3.75754 0
M  V30 12296 H 1139.08 -2.26465 -3.79692 0
M  V30 12297 N 1138.14 0.641106 -1.43971 0
M  V30 12298 C 1139.07 1.76489 -1.52885 0
M  V30 12299 C 1140.05 1.65742 -0.38258 0
M  V30 12300 O 1141.23 1.84653 -0.601397 0
M  V30 12301 C 1138.36 3.14977 -1.4631 0
M  V30 12302 C 1137.32 3.40502 -2.59311 0
M  V30 12303 C 1136.64 4.78916 -2.37789 0
M  V30 12304 C 1137.94 3.34048 -4.01509 0
M  V30 12305 H 1139.64 1.69286 -2.46946 0
M  V30 12306 H 1137.18 0.813015 -1.18853 0
M  V30 12307 H 1139.14 3.9336 -1.51149 0
M  V30 12308 H 1137.86 3.2294 -0.487599 0
M  V30 12309 H 1136.52 2.64495 -2.53846 0
M  V30 12310 H 1136.17 4.8357 -1.38454 0
M  V30 12311 H 1135.87 4.96954 -3.13545 0
M  V30 12312 H 1137.39 5.59541 -2.4443 0
M  V30 12313 H 1138.81 4.0235 -4.08396 0
M  V30 12314 H 1137.2 3.63622 -4.77388 0
M  V30 12315 H 1138.27 2.32022 -4.25786 0
M  V30 12316 N 1139.62 1.30703 0.880598 0
M  V30 12317 C 1140.55 1.1327 1.99255 0
M  V30 12318 C 1141.56 0.0747186 1.62628 0
M  V30 12319 O 1142.75 0.321169 1.75587 0
M  V30 12320 C 1139.85 0.706179 3.31461 0
M  V30 12321 C 1139.02 1.84687 3.96497 0
M  V30 12322 C 1138.08 1.40817 5.07008 0
M  V30 12323 O 1137.11 2.1161 5.28403 0
M  V30 12324 N 1138.31 0.289619 5.79777 0
M  V30 12325 H 1141.07 2.09043 2.14759 0
M  V30 12326 H 1138.64 1.22896 1.05395 0
M  V30 12327 H 1140.63 0.395617 4.02762 0
M  V30 12328 H 1139.2 -0.159631 3.12192 0
M  V30 12329 H 1138.42 2.32531 3.18312 0
M  V30 12330 H 1139.71 2.61117 4.36687 0
M  V30 12331 H 1139.1 -0.300177 5.64903 0
M  V30 12332 H 1137.66 0.0385346 6.51789 0
M  V30 12333 N 1141.09 -1.09351 1.1349 0
M  V30 12334 C 1142.04 -2.16008 0.812981 0
M  V30 12335 C 1143.01 -1.64566 -0.225252 0
M  V30 12336 O 1144.2 -1.90552 -0.0973261 0
M  V30 12337 C 1141.34 -3.43913 0.285996 0
M  V30 12338 C 1140.45 -4.09251 1.38338 0
M  V30 12339 C 1139.58 -5.24916 0.814652 0
M  V30 12340 C 1138.62 -5.82178 1.89038 0
M  V30 12341 N 1137.76 -6.89203 1.33955 0
M  V30 12342 H 1142.6 -2.42887 1.72655 0
M  V30 12343 H 1140.14 -1.19209 0.861833 0
M  V30 12344 H 1142.09 -4.17183 -0.0376794 0
M  V30 12345 H 1140.72 -3.17349 -0.590707 0
M  V30 12346 H 1139.78 -3.33838 1.82363 0
M  V30 12347 H 1141.09 -4.4784 2.19638 0
M  V30 12348 H 1140.24 -6.05086 0.442306 0
M  V30 12349 H 1138.98 -4.87691 -0.029416 0
M  V30 12350 H 1137.99 -5.00669 2.27179 0
M  V30 12351 H 1139.21 -6.21464 2.73787 0
M  V30 12352 H 1137.16 -6.53956 0.517494 0
M  V30 12353 H 1137.07 -7.26565 2.08902 0
M  V30 12354 H 1138.34 -7.73126 0.994793 0
M  V30 12355 N 1142.57 -0.928524 -1.27343 0
M  V30 12356 C 1143.82 -0.570235 -1.94618 0
M  V30 12357 C 1144.15 0.886381 -1.72792 0
M  V30 12358 O 1143.43 1.63242 -1.05747 0
M  V30 12359 C 1143.71 -0.897964 -3.48724 0
M  V30 12360 C 1143.56 -2.40839 -3.7989 0
M  V30 12361 C 1144.88 -0.404429 -4.38238 0
M  V30 12362 H 1142 -0.208645 -0.70685 0
M  V30 12363 H 1144.64 -1.16045 -1.50444 0
M  V30 12364 H 1142.79 -0.395679 -3.8648 0
M  V30 12365 H 1144.46 -2.98243 -3.51921 0
M  V30 12366 H 1142.71 -2.85723 -3.26412 0
M  V30 12367 H 1143.38 -2.58823 -4.8756 0
M  V30 12368 H 1145.85 -0.834918 -4.07637 0
M  V30 12369 H 1144.73 -0.662684 -5.44885 0
M  V30 12370 H 1144.99 0.695507 -4.36595 0
M  V30 12371 N 1144.05 1.41491 -0.694123 0
M  V30 12372 C 1144.96 2.34583 -0.0283414 0
M  V30 12373 C 1145.98 1.5615 0.767662 0
M  V30 12374 O 1147.15 1.88637 0.705556 0
M  V30 12375 C 1144.22 3.34876 0.897726 0
M  V30 12376 C 1143.28 4.29197 0.0940905 0
M  V30 12377 C 1142.51 5.24699 0.976051 0
M  V30 12378 O 1142.73 5.25613 2.21556 0
M  V30 12379 O 1141.67 6.00387 0.426503 0
M  V30 12380 H 1145.49 2.93092 -0.795656 0
M  V30 12381 H 1143.08 1.4232 -0.45445 0
M  V30 12382 H 1144.96 3.96438 1.4288 0
M  V30 12383 H 1143.64 2.78812 1.64456 0
M  V30 12384 H 1142.54 3.70988 -0.481552 0
M  V30 12385 H 1143.88 4.88355 -0.614045 0
M  V30 12386 N 1145.53 0.438773 1.51369 0
M  V30 12387 C 1146.47 -0.37195 2.27783 0
M  V30 12388 C 1147.44 -1.01558 1.31435 0
M  V30 12389 O 1148.63 -1.03421 1.60339 0
M  V30 12390 C 1145.77 -1.46636 3.12397 0
M  V30 12391 C 1144.88 -0.840727 4.2374 0
M  V30 12392 C 1144.02 -1.91031 4.95662 0
M  V30 12393 C 1143.06 -1.26318 5.98924 0
M  V30 12394 N 1142.19 -2.27419 6.64248 0
M  V30 12395 H 1147.03 0.286048 2.96624 0
M  V30 12396 H 1144.57 0.152909 1.46303 0
M  V30 12397 H 1146.53 -2.11219 3.59781 0
M  V30 12398 H 1145.16 -2.09397 2.45668 0
M  V30 12399 H 1144.21 -0.0831588 3.80309 0
M  V30 12400 H 1145.52 -0.328285 4.97719 0
M  V30 12401 H 1144.68 -2.63272 5.46601 0
M  V30 12402 H 1143.42 -2.45649 4.21317 0
M  V30 12403 H 1142.42 -0.526246 5.47276 0
M  V30 12404 H 1143.65 -0.724324 6.75226 0
M  V30 12405 H 1141.59 -2.81114 5.92715 0
M  V30 12406 H 1141.51 -1.81071 7.33996 0
M  V30 12407 H 1142.78 -2.99139 7.19817 0
M  V30 12408 N 1147.01 -1.56678 0.170181 0
M  V30 12409 C 1148.23 -2.01223 -0.481362 0
M  V30 12410 C 1148.65 -1.05039 -1.56883 0
M  V30 12411 O 1148.01 -0.0510751 -1.82429 0
M  V30 12412 C 1148.06 -3.45588 -1.06073 0
M  V30 12413 O 1147.78 -4.38097 -0.0166754 0
M  V30 12414 C 1149.28 -4.05527 -1.79061 0
M  V30 12415 H 1146.5 -0.659574 -0.1233 0
M  V30 12416 H 1149.04 -2.02689 0.271576 0
M  V30 12417 H 1147.2 -3.449 -1.76417 0
M  V30 12418 H 1147.61 -5.22615 -0.444276 0
M  V30 12419 H 1149.09 -5.08467 -2.1486 0
M  V30 12420 H 1149.56 -3.47554 -2.68519 0
M  V30 12421 H 1150.17 -4.09914 -1.13361 0
M  V30 12422 N 1148.48 0.103547 -1.57259 0
M  V30 12423 C 1149.41 1.12714 -2.04494 0
M  V30 12424 C 1150.39 1.42278 -0.932255 0
M  V30 12425 O 1151.58 1.52453 -1.20298 0
M  V30 12426 C 1148.71 2.44927 -2.46228 0
M  V30 12427 C 1147.66 2.2979 -3.61082 0
M  V30 12428 C 1146.99 3.67105 -3.88765 0
M  V30 12429 C 1148.29 1.7455 -4.9227 0
M  V30 12430 H 1149.98 0.734198 -2.90258 0
M  V30 12431 H 1147.53 0.351725 -1.39638 0
M  V30 12432 H 1149.48 3.16798 -2.77879 0
M  V30 12433 H 1148.21 2.8614 -1.57453 0
M  V30 12434 H 1146.87 1.60366 -3.29664 0
M  V30 12435 H 1146.51 4.05831 -2.97171 0
M  V30 12436 H 1146.21 3.57825 -4.66084 0
M  V30 12437 H 1147.74 4.40456 -4.22884 0
M  V30 12438 H 1149.15 2.36253 -5.22358 0
M  V30 12439 H 1147.55 1.76051 -5.73695 0
M  V30 12440 H 1148.62 0.704242 -4.79759 0
M  V30 12441 N 1149.96 1.53094 0.37415 0
M  V30 12442 C 1150.89 1.81901 1.46404 0
M  V30 12443 C 1151.87 0.671949 1.56265 0
M  V30 12444 O 1153.06 0.920978 1.70973 0
M  V30 12445 C 1150.19 2.00123 2.83845 0
M  V30 12446 C 1149.14 3.15864 2.88814 0
M  V30 12447 C 1148.47 3.19364 4.28848 0
M  V30 12448 C 1149.77 4.54633 2.57112 0
M  V30 12449 H 1151.46 2.73172 1.22546 0
M  V30 12450 H 1149.01 1.31444 0.588087 0
M  V30 12451 H 1150.96 2.18859 3.6011 0
M  V30 12452 H 1149.68 1.05555 3.09072 0
M  V30 12453 H 1148.34 2.96935 2.15 0
M  V30 12454 H 1147.99 2.2245 4.51137 0
M  V30 12455 H 1147.69 3.97123 4.3309 0
M  V30 12456 H 1149.22 3.40273 5.06997 0
M  V30 12457 H 1150.63 4.73587 3.23091 0
M  V30 12458 H 1149.03 5.34569 2.72683 0
M  V30 12459 H 1150.1 4.60331 1.52392 0
M  V30 12460 N 1151.44 -0.633461 1.44309 0
M  V30 12461 C 1152.86 -0.951379 1.28144 0
M  V30 12462 C 1153.06 -2.00344 0.215512 0
M  V30 12463 O 1152.11 -2.49321 -0.399389 0
M  V30 12464 C 1153.42 -1.41686 2.65227 0
M  V30 12465 C 1154.97 -1.53247 2.72918 0
M  V30 12466 C 1155.45 -2.03179 4.10466 0
M  V30 12467 N 1156.94 -2.10453 4.1263 0
M  V30 12468 C 1157.67 -2.50254 5.15907 0
M  V30 12469 N 1157.17 -2.89209 6.29547 0
M  V30 12470 N 1158.96 -2.50368 5.03262 0
M  V30 12471 H 1151.11 0.0623574 2.12308 0
M  V30 12472 H 1153.38 -0.0347244 0.947364 0
M  V30 12473 H 1153.08 -0.71814 3.4429 0
M  V30 12474 H 1152.96 -2.3883 2.91959 0
M  V30 12475 H 1155.34 -2.22216 1.94176 0
M  V30 12476 H 1155.42 -0.544836 2.4993 0
M  V30 12477 H 1155.07 -1.34806 4.89683 0
M  V30 12478 H 1155 -3.02809 4.3083 0
M  V30 12479 H 1157.49 -1.83042 3.30612 0
M  V30 12480 H 1157.8 -3.18386 7.04166 0
M  V30 12481 H 1156.15 -2.86966 6.32989 0
M  V30 12482 H 1159.34 -2.19324 4.13539 0
M  V30 12483 H 1159.51 -2.81062 5.83873 0
M  V30 12484 N 1152.92 -1.31168 -0.873655 0
M  V30 12485 C 1153.85 -1.14325 -1.98651 0
M  V30 12486 C 1154.86 -0.0833421 -1.62587 0
M  V30 12487 O 1156.05 -0.330477 -1.75414 0
M  V30 12488 C 1153.15 -0.723747 -3.31082 0
M  V30 12489 C 1152.33 -1.86787 -3.95512 0
M  V30 12490 C 1151.38 -1.43503 -5.06254 0
M  V30 12491 O 1150.41 -2.14409 -5.27273 0
M  V30 12492 N 1151.61 -0.320362 -5.79615 0
M  V30 12493 H 1154.38 -2.10179 -2.13647 0
M  V30 12494 H 1151.94 -1.23454 -1.04742 0
M  V30 12495 H 1153.93 -0.416971 -4.02546 0
M  V30 12496 H 1152.5 0.143073 -3.12272 0
M  V30 12497 H 1151.72 -2.34216 -3.17075 0
M  V30 12498 H 1153.01 -2.6343 -4.35296 0
M  V30 12499 H 1152.41 0.270215 -5.65054 0
M  V30 12500 H 1150.96 -0.0731 -6.51759 0
M  V30 12501 N 1154.4 1.08748 -1.14068 0
M  V30 12502 C 1155.33 2.1544 -0.782199 0
M  V30 12503 C 1156.34 1.61575 0.199301 0
M  V30 12504 O 1157.53 1.78487 -0.0219044 0
M  V30 12505 C 1154.63 3.38611 -0.13983 0
M  V30 12506 C 1153.8 4.2187 -1.15518 0
M  V30 12507 C 1152.86 5.23451 -0.537216 0
M  V30 12508 O 1151.89 5.56424 -1.1992 0
M  V30 12509 N 1153.09 5.76413 0.6876 0
M  V30 12510 H 1155.86 2.46798 -1.70032 0
M  V30 12511 H 1153.42 1.24527 -1.03463 0
M  V30 12512 H 1155.41 4.03688 0.285999 0
M  V30 12513 H 1153.98 3.05084 0.681357 0
M  V30 12514 H 1153.2 3.52825 -1.75806 0
M  V30 12515 H 1154.49 4.74318 -1.84119 0
M  V30 12516 H 1153.88 5.51851 1.24406 0
M  V30 12517 H 1152.44 6.43189 1.05599 0
M  V30 12518 N 1155.87 0.935264 1.26849 0
M  V30 12519 C 1157.12 0.580548 1.94313 0
M  V30 12520 C 1157.45 -0.877205 1.73259 0
M  V30 12521 O 1156.73 -1.62679 1.06611 0
M  V30 12522 C 1157.01 0.916445 3.48243 0
M  V30 12523 C 1156.86 2.42851 3.78607 0
M  V30 12524 C 1158.18 0.427665 4.38017 0
M  V30 12525 H 1155.3 0.21239 0.705733 0
M  V30 12526 H 1157.94 1.16841 1.49827 0
M  V30 12527 H 1156.09 0.416169 3.86265 0
M  V30 12528 H 1157.77 3.00106 3.50335 0
M  V30 12529 H 1156.01 2.8745 3.24892 0
M  V30 12530 H 1156.68 2.61405 4.8618 0
M  V30 12531 H 1159.16 0.856525 4.07189 0
M  V30 12532 H 1158.03 0.691571 5.44526 0
M  V30 12533 H 1158.29 -0.672344 4.36958 0
M  V30 12534 N 1157.35 -1.41121 0.701616 0
M  V30 12535 C 1158.26 -2.34565 0.0407815 0
M  V30 12536 C 1159.28 -1.56555 -0.75937 0
M  V30 12537 O 1160.45 -1.89008 -0.695542 0
M  V30 12538 C 1157.52 -3.35347 -0.879954 0
M  V30 12539 C 1156.58 -4.29241 -0.0713279 0
M  V30 12540 C 1155.81 -5.25209 -0.948211 0
M  V30 12541 O 1156.04 -5.26781 -2.18766 0
M  V30 12542 O 1154.97 -6.00605 -0.394657 0
M  V30 12543 H 1158.8 -2.92666 0.811188 0
M  V30 12544 H 1156.38 -1.42077 0.461991 0
M  V30 12545 H 1158.26 -3.9719 -1.40776 0
M  V30 12546 H 1156.94 -2.7968 -1.62975 0
M  V30 12547 H 1155.85 -3.70727 0.50122 0
M  V30 12548 H 1157.18 -4.88022 0.639935 0
M  V30 12549 N 1158.83 -0.446794 -1.51134 0
M  V30 12550 C 1159.76 0.350229 -2.30858 0
M  V30 12551 C 1160.74 1.0125 -1.36684 0
M  V30 12552 O 1161.93 1.01433 -1.65605 0
M  V30 12553 C 1159.06 1.4464 -3.15748 0
M  V30 12554 C 1158.01 0.907102 -4.18277 0
M  V30 12555 C 1157.34 2.09974 -4.91747 0
M  V30 12556 C 1158.64 -0.0649758 -5.2226 0
M  V30 12557 H 1160.33 -0.315105 -2.97737 0
M  V30 12558 H 1157.88 -0.152985 -1.43185 0
M  V30 12559 H 1159.83 2.01127 -3.70305 0
M  V30 12560 H 1158.55 2.14016 -2.46708 0
M  V30 12561 H 1157.21 0.364382 -3.64785 0
M  V30 12562 H 1156.86 2.77991 -4.19202 0
M  V30 12563 H 1156.56 1.74523 -5.61084 0
M  V30 12564 H 1158.08 2.66996 -5.49131 0
M  V30 12565 H 1159.5 0.4099 -5.71833 0
M  V30 12566 H 1157.9 -0.332529 -5.99178 0
M  V30 12567 H 1158.97 -0.998681 -4.74504 0
M  V30 12568 N 1160.31 1.56586 -0.178487 0
M  V30 12569 C 1161.54 2.01183 0.470002 0
M  V30 12570 C 1161.95 1.05781 1.56866 0
M  V30 12571 O 1161.29 0.0519678 1.83626 0
M  V30 12572 C 1161.35 3.42199 1.10183 0
M  V30 12573 C 1161.02 4.56773 0.143945 0
M  V30 12574 C 1162.01 5.1594 -0.64043 0
M  V30 12575 C 1159.7 5.02286 0.0376874 0
M  V30 12576 C 1161.69 6.19055 -1.51819 0
M  V30 12577 C 1159.38 6.05248 -0.843652 0
M  V30 12578 C 1160.38 6.63505 -1.62017 0
M  V30 12579 O 1160.06 7.6447 -2.48677 0
M  V30 12580 H 1159.8 0.664527 0.124018 0
M  V30 12581 H 1162.35 2.0349 -0.279495 0
M  V30 12582 H 1160.58 3.36827 1.89959 0
M  V30 12583 H 1162.27 3.70705 1.65326 0
M  V30 12584 H 1163.04 4.81656 -0.56855 0
M  V30 12585 H 1158.91 4.56649 0.631893 0
M  V30 12586 H 1162.46 6.64455 -2.12475 0
M  V30 12587 H 1158.36 6.38958 -0.916708 0
M  V30 12588 H 1159.12 7.81823 -2.42272 0
M  V30 12589 N 1161.79 -0.095206 1.57312 0
M  V30 12590 C 1163.2 -0.449411 1.53142 0
M  V30 12591 C 1163.4 -1.80523 0.895187 0
M  V30 12592 O 1162.46 -2.47746 0.487649 0
M  V30 12593 C 1163.77 -0.412002 2.97864 0
M  V30 12594 C 1165.32 -0.493866 3.09079 0
M  V30 12595 C 1165.79 -0.486606 4.55408 0
M  V30 12596 N 1167.29 -0.547363 4.59955 0
M  V30 12597 C 1168.02 -0.563582 5.70624 0
M  V30 12598 N 1167.52 -0.536015 6.90723 0
M  V30 12599 N 1169.31 -0.608385 5.58798 0
M  V30 12600 H 1161.46 0.792869 1.97047 0
M  V30 12601 H 1163.72 0.295106 0.900898 0
M  V30 12602 H 1163.43 0.517064 3.47878 0
M  V30 12603 H 1163.3 -1.23102 3.56547 0
M  V30 12604 H 1165.69 -1.41335 2.59053 0
M  V30 12605 H 1165.77 0.353286 2.53349 0
M  V30 12606 H 1165.42 0.428935 5.06086 0
M  V30 12607 H 1165.35 -1.35097 5.08976 0
M  V30 12608 H 1167.84 -0.573867 3.73517 0
M  V30 12609 H 1168.15 -0.551671 7.70828 0
M  V30 12610 H 1166.49 -0.503064 6.93177 0
M  V30 12611 H 1169.69 -0.627451 4.63876 0
M  V30 12612 H 1169.86 -0.617556 6.45051 0
M  V30 12613 N 1163.26 -1.53291 -0.366026 0
M  V30 12614 C 1164.19 -1.82675 -1.45437 0
M  V30 12615 C 1165.18 -0.680227 -1.55907 0
M  V30 12616 O 1166.36 -0.930032 -1.70482 0
M  V30 12617 C 1163.49 -2.01626 -2.8278 0
M  V30 12618 C 1162.44 -3.17391 -2.87135 0
M  V30 12619 C 1161.77 -3.21634 -4.27148 0
M  V30 12620 C 1163.07 -4.5599 -2.54697 0
M  V30 12621 H 1164.76 -2.73818 -1.21096 0
M  V30 12622 H 1162.31 -1.31754 -0.581108 0
M  V30 12623 H 1164.26 -2.20765 -3.58944 0
M  V30 12624 H 1162.99 -1.07193 -3.08508 0
M  V30 12625 H 1161.65 -2.98071 -2.13422 0
M  V30 12626 H 1161.29 -2.2484 -4.49951 0
M  V30 12627 H 1160.99 -3.99414 -4.30978 0
M  V30 12628 H 1162.52 -3.42957 -5.05186 0
M  V30 12629 H 1163.93 -4.75294 -3.20575 0
M  V30 12630 H 1162.33 -5.36008 -2.69844 0
M  V30 12631 H 1163.4 -4.61133 -1.49949 0
M  V30 12632 N 1164.74 0.6258 -1.44643 0
M  V30 12633 C 1165.67 1.74858 -1.54748 0
M  V30 12634 C 1166.65 1.65327 -0.400138 0
M  V30 12635 O 1167.84 1.84005 -0.620948 0
M  V30 12636 C 1164.97 3.13408 -1.49643 0
M  V30 12637 C 1163.92 3.37733 -2.62908 0
M  V30 12638 C 1163.25 4.76367 -2.42855 0
M  V30 12639 C 1164.55 3.29771 -4.05029 0
M  V30 12640 H 1166.24 1.66658 -2.48728 0
M  V30 12641 H 1163.79 0.800363 -1.19709 0
M  V30 12642 H 1165.74 3.91735 -1.55312 0
M  V30 12643 H 1164.47 3.22404 -0.521824 0
M  V30 12644 H 1163.12 2.61788 -2.56637 0
M  V30 12645 H 1162.77 4.82074 -1.43575 0
M  V30 12646 H 1162.47 4.936 -3.18799 0
M  V30 12647 H 1164 5.56917 -2.50351 0
M  V30 12648 H 1165.41 3.97996 -4.12641 0
M  V30 12649 H 1163.81 3.58538 -4.81218 0
M  V30 12650 H 1164.88 2.27493 -4.28223 0
M  V30 12651 N 1166.22 1.31629 0.866686 0
M  V30 12652 C 1167.45 1.24609 1.65793 0
M  V30 12653 C 1167.87 -0.184944 1.87189 0
M  V30 12654 O 1167.23 -1.1322 1.41601 0
M  V30 12655 C 1167.28 1.9988 3.00134 0
M  V30 12656 O 1166.38 1.33838 3.90079 0
M  V30 12657 H 1165.72 0.430051 0.505917 0
M  V30 12658 H 1168.25 1.73752 1.08035 0
M  V30 12659 H 1168.26 2.09599 3.50046 0
M  V30 12660 H 1166.94 3.03947 2.83882 0
M  V30 12661 H 1165.51 1.3259 3.48532 0
M  V30 12662 N 1167.7 -1.08142 1.14644 0
M  V30 12663 C 1169.12 -1.32656 0.887388 0
M  V30 12664 C 1169.32 -1.95942 -0.470012 0
M  V30 12665 O 1168.37 -2.21417 -1.21371 0
M  V30 12666 C 1169.68 -2.22549 2.02219 0
M  V30 12667 C 1171.23 -2.36021 2.0558 0
M  V30 12668 C 1171.71 -3.29257 3.18361 0
M  V30 12669 N 1173.2 -3.36835 3.17957 0
M  V30 12670 C 1173.93 -4.09017 4.01862 0
M  V30 12671 N 1173.43 -4.83882 4.95812 0
M  V30 12672 N 1175.22 -4.04875 3.89913 0
M  V30 12673 H 1167.37 -0.654457 2.02066 0
M  V30 12674 H 1169.64 -0.350947 0.880648 0
M  V30 12675 H 1169.34 -1.83296 3.00159 0
M  V30 12676 H 1169.22 -3.23027 1.94765 0
M  V30 12677 H 1171.6 -2.74531 1.08245 0
M  V30 12678 H 1171.68 -1.35275 2.17105 0
M  V30 12679 H 1171.33 -2.91468 4.15944 0
M  V30 12680 H 1171.26 -4.29938 3.04074 0
M  V30 12681 H 1173.75 -2.83465 2.49912 0
M  V30 12682 H 1174.06 -5.3643 5.56294 0
M  V30 12683 H 1172.41 -4.82926 4.99808 0
M  V30 12684 H 1175.6 -3.45496 3.15833 0
M  V30 12685 H 1175.77 -4.60866 4.55529 0
M  V30 12686 N 1169.18 -0.941978 -1.26351 0
M  V30 12687 C 1170.13 -0.443011 -2.28342 0
M  V30 12688 C 1171.12 0.48013 -1.62453 0
M  V30 12689 O 1172.33 0.358255 -1.76399 0
M  V30 12690 H 1168.7 -0.124728 -0.741584 0
M  V30 12691 H 1170.67 -1.31573 -2.67827 0
M  V30 12692 C 1169.42 0.275675 -3.46605 0
M  V30 12693 H 1168.74 -0.425504 -3.97529 0
M  V30 12694 H 1170.18 0.589012 -4.19889 0
M  V30 12695 C 1168.64 1.49376 -3.01974 0
M  V30 12696 O 1169.17 2.59203 -3.06883 0
M  V30 12697 N 1167.38 1.35061 -2.57307 0
M  V30 12698 H 1166.93 0.457045 -2.53513 0
M  V30 12699 H 1166.88 2.16681 -2.27809 0
M  V30 12700 N 1170.66 1.40747 -0.709091 0
M  V30 12701 C 1171.88 2.05319 -0.255258 0
M  V30 12702 C 1172.3 1.53406 1.10054 0
M  V30 12703 O 1171.66 0.687905 1.69039 0
M  V30 12704 C 1171.71 3.60835 -0.219251 0
M  V30 12705 O 1171.43 4.1083 -1.52151 0
M  V30 12706 C 1172.93 4.42572 0.253927 0
M  V30 12707 H 1170.15 0.660904 -0.115959 0
M  V30 12708 H 1172.69 1.80274 -0.965474 0
M  V30 12709 H 1170.85 3.84872 0.441882 0
M  V30 12710 H 1171.26 5.04979 -1.41764 0
M  V30 12711 H 1172.74 5.51529 0.22798 0
M  V30 12712 H 1173.21 4.19673 1.29504 0
M  V30 12713 H 1173.82 4.23629 -0.376694 0
M  V30 12714 N 1172.13 0.454803 1.50895 0
M  V30 12715 C 1173.36 -0.103785 2.06339 0
M  V30 12716 C 1173.77 -1.35494 1.32053 0
M  V30 12717 O 1173.11 -1.79758 0.37852 0
M  V30 12718 C 1173.18 -0.474076 3.5636 0
M  V30 12719 C 1172.84 0.672736 4.52021 0
M  V30 12720 C 1173.84 1.55003 4.96256 0
M  V30 12721 C 1171.52 0.858435 4.9491 0
M  V30 12722 C 1173.52 2.59757 5.82069 0
M  V30 12723 C 1171.2 1.90922 5.8051 0
M  V30 12724 C 1172.2 2.77717 6.23989 0
M  V30 12725 O 1171.89 3.80989 7.07886 0
M  V30 12726 H 1171.62 -0.0035531 0.675991 0
M  V30 12727 H 1174.18 0.637816 1.95246 0
M  V30 12728 H 1172.41 -1.26863 3.65298 0
M  V30 12729 H 1174.09 -0.965845 3.94241 0
M  V30 12730 H 1174.86 1.41818 4.63802 0
M  V30 12731 H 1170.74 0.192384 4.60598 0
M  V30 12732 H 1174.28 3.27535 6.15927 0
M  V30 12733 H 1170.18 2.04121 6.12376 0
M  V30 12734 H 1170.95 3.7778 7.26102 0
M  V30 12735 N 1173.61 -1.56489 0.186789 0
M  V30 12736 C 1174.54 -2.21705 -0.732739 0
M  V30 12737 C 1175.52 -1.17751 -1.22755 0
M  V30 12738 O 1176.71 -1.46231 -1.27789 0
M  V30 12739 C 1173.84 -2.86992 -1.95584 0
M  V30 12740 C 1172.79 -3.97118 -1.59628 0
M  V30 12741 C 1172.12 -4.49529 -2.89531 0
M  V30 12742 C 1173.42 -5.15941 -0.812518 0
M  V30 12743 H 1175.11 -2.98802 -0.189094 0
M  V30 12744 H 1172.66 -1.43722 -0.0895099 0
M  V30 12745 H 1174.61 -3.31295 -2.60426 0
M  V30 12746 H 1173.33 -2.07287 -2.52388 0
M  V30 12747 H 1171.99 -3.53494 -0.971475 0
M  V30 12748 H 1171.64 -3.66596 -3.44407 0
M  V30 12749 H 1171.34 -5.23832 -2.66221 0
M  V30 12750 H 1172.87 -4.96528 -3.55376 0
M  V30 12751 H 1174.28 -5.56841 -1.36386 0
M  V30 12752 H 1172.68 -5.96259 -0.677862 0
M  V30 12753 H 1173.75 -4.84535 0.188095 0
M  V30 12754 N 1175.09 0.086862 -1.5736 0
M  V30 12755 C 1176 1.12297 -2.05977 0
M  V30 12756 C 1177.02 1.43347 -0.986284 0
M  V30 12757 O 1178.19 1.53825 -1.3 0
M  V30 12758 C 1175.26 2.42131 -2.4814 0
M  V30 12759 C 1174.32 2.18189 -3.69719 0
M  V30 12760 C 1173.55 3.41833 -4.09861 0
M  V30 12761 O 1173.77 4.50383 -3.50016 0
M  V30 12762 O 1172.71 3.30934 -5.02759 0
M  V30 12763 H 1176.53 0.740012 -2.94546 0
M  V30 12764 H 1174.12 0.29995 -1.46358 0
M  V30 12765 H 1176 3.18568 -2.75848 0
M  V30 12766 H 1174.68 2.79837 -1.62705 0
M  V30 12767 H 1173.58 1.39506 -3.47115 0
M  V30 12768 H 1174.92 1.85372 -4.55959 0
M  V30 12769 N 1176.57 1.53483 0.357892 0
M  V30 12770 C 1177.81 1.71233 1.09776 0
M  V30 12771 C 1178.17 0.462401 1.86761 0
M  V30 12772 O 1177.46 -0.544746 1.83693 0
M  V30 12773 C 1177.66 2.90654 2.07978 0
M  V30 12774 C 1177.48 4.27141 1.40644 0
M  V30 12775 C 1176.25 4.91868 1.15732 0
M  V30 12776 C 1178.45 5.07392 0.840118 0
M  V30 12777 N 1176.43 6.12261 0.448282 0
M  V30 12778 C 1177.81 6.19451 0.260863 0
M  V30 12779 C 1179.86 4.92377 0.739558 0
M  V30 12780 C 1178.56 7.18135 -0.409153 0
M  V30 12781 C 1180.59 5.91341 0.0833084 0
M  V30 12782 C 1179.95 7.02728 -0.485038 0
M  V30 12783 H 1176.05 0.679764 0.386582 0
M  V30 12784 H 1178.63 1.90893 0.383158 0
M  V30 12785 H 1176.81 2.7252 2.76744 0
M  V30 12786 H 1178.54 2.97192 2.74698 0
M  V30 12787 H 1175.29 4.51157 1.44064 0
M  V30 12788 H 1175.72 6.76912 0.108905 0
M  V30 12789 H 1180.36 4.06441 1.16472 0
M  V30 12790 H 1178.08 8.03657 -0.846247 0
M  V30 12791 H 1181.66 5.818 0.00632482 0
M  V30 12792 H 1180.54 7.77992 -0.984802 0
M  V30 12793 N 1178.05 -0.61812 1.44973 0
M  V30 12794 C 1178.96 -1.7579 1.55355 0
M  V30 12795 C 1179.97 -1.68384 0.438512 0
M  V30 12796 O 1181.15 -1.88928 0.697715 0
M  V30 12797 C 1178.21 -3.1222 1.50729 0
M  V30 12798 C 1177.27 -3.3116 2.73188 0
M  V30 12799 C 1176.51 -4.61082 2.68774 0
M  V30 12800 O 1176.73 -5.42728 1.75507 0
M  V30 12801 O 1175.66 -4.82506 3.59821 0
M  V30 12802 H 1179.49 -1.69983 2.51674 0
M  V30 12803 H 1177.07 -0.780934 1.27365 0
M  V30 12804 H 1178.96 -3.93524 1.5072 0
M  V30 12805 H 1177.63 -3.18541 0.575587 0
M  V30 12806 H 1176.54 -2.49485 2.78762 0
M  V30 12807 H 1177.87 -3.29709 3.65449 0
M  V30 12808 N 1179.52 -1.32087 -0.859693 0
M  V30 12809 C 1180.8 -1.12984 -1.59668 0
M  V30 12810 C 1181.18 0.311661 -2.08787 0
M  V30 12811 O 1180.53 1.30746 -1.87397 0
M  V30 12812 C 1180.74 -2.15305 -2.74672 0
M  V30 12813 C 1182.09 -2.48371 -3.44379 0
M  V30 12814 O 1183.11 -2.13811 -2.84891 0
M  V30 12815 O 1181.97 -3.07594 -4.51717 0
M  V30 12816 H 1179.06 -0.435657 -0.702945 0
M  V30 12817 H 1181.61 -1.43601 -0.90426 0
M  V30 12818 H 1180.38 -3.12223 -2.35866 0
M  V30 12819 H 1180 -1.85653 -3.51594 0
M  V30 12820 N 1181 1.07532 -1.15215 0
M  V30 12821 C 1182.23 1.84356 -0.950139 0
M  V30 12822 C 1182.65 1.81429 0.496502 0
M  V30 12823 O 1182.01 1.20589 1.35381 0
M  V30 12824 C 1182.06 3.29425 -1.46669 0
M  V30 12825 O 1181.16 4.07008 -0.664674 0
M  V30 12826 H 1180.5 0.570921 -0.339036 0
M  V30 12827 H 1183.03 1.35665 -1.53154 0
M  V30 12828 H 1183.04 3.8026 -1.47873 0
M  V30 12829 H 1181.72 3.3087 -2.51988 0
M  V30 12830 H 1180.29 3.65841 -0.72211 0
M  V30 12831 N 1182.48 0.948665 1.2585 0
M  V30 12832 C 1183.73 0.601125 1.93686 0
M  V30 12833 C 1184.06 -0.858779 1.7418 0
M  V30 12834 O 1183.33 -1.61539 1.0833 0
M  V30 12835 C 1183.62 0.95333 3.47252 0
M  V30 12836 C 1183.47 2.46853 3.7601 0
M  V30 12837 C 1184.79 0.474098 4.37539 0
M  V30 12838 H 1181.91 0.219864 0.703441 0
M  V30 12839 H 1184.55 1.18424 1.48579 0
M  V30 12840 H 1182.7 0.457114 3.85801 0
M  V30 12841 H 1184.37 3.03804 3.47132 0
M  V30 12842 H 1182.62 2.9088 3.21825 0
M  V30 12843 H 1183.29 2.66547 4.83381 0
M  V30 12844 H 1185.76 0.899664 4.06258 0
M  V30 12845 H 1184.64 0.749287 5.43762 0
M  V30 12846 H 1184.9 -0.625961 4.37646 0
M  V30 12847 N 1183.96 -1.40369 0.716545 0
M  V30 12848 C 1184.89 -2.33365 0.0793533 0
M  V30 12849 C 1185.87 -1.52943 -0.744482 0
M  V30 12850 O 1187.05 -1.81406 -0.693212 0
M  V30 12851 C 1184.18 -3.36928 -0.842429 0
M  V30 12852 C 1183.14 -4.2782 -0.124142 0
M  V30 12853 C 1182.46 -5.21928 -1.1617 0
M  V30 12854 C 1183.76 -5.12199 1.02224 0
M  V30 12855 H 1185.46 -2.86899 0.856115 0
M  V30 12856 H 1183 -1.37946 0.413138 0
M  V30 12857 H 1184.96 -4.00925 -1.29759 0
M  V30 12858 H 1183.68 -2.81791 -1.6511 0
M  V30 12859 H 1182.34 -3.65277 0.311201 0
M  V30 12860 H 1181.99 -4.63096 -1.96345 0
M  V30 12861 H 1181.69 -5.83582 -0.685978 0
M  V30 12862 H 1183.21 -5.88802 -1.61694 0
M  V30 12863 H 1184.63 -5.69644 0.646399 0
M  V30 12864 H 1183.02 -5.82901 1.4264 0
M  V30 12865 H 1184.09 -4.4812 1.85246 0
M  V30 12866 N 1185.44 -0.462799 -1.50652 0
M  V30 12867 C 1186.68 0.0948568 -2.01877 0
M  V30 12868 C 1187.01 1.4096 -1.34741 0
M  V30 12869 O 1186.28 1.89671 -0.49006 0
M  V30 12870 H 1184.86 0.0380453 -0.746031 0
M  V30 12871 H 1187.52 -0.611327 -1.85064 0
M  V30 12872 H 1186.61 0.252378 -3.11078 0
M  V30 12873 N 1186.91 1.56388 -0.195085 0
M  V30 12874 C 1188.33 1.58788 0.160758 0
M  V30 12875 C 1188.53 1.21125 1.61031 0
M  V30 12876 O 1187.59 0.933994 2.34591 0
M  V30 12877 C 1188.9 3.00366 -0.141588 0
M  V30 12878 C 1190.45 3.12893 -0.0816947 0
M  V30 12879 C 1190.92 4.56604 -0.35735 0
M  V30 12880 N 1192.41 4.62188 -0.305968 0
M  V30 12881 C 1193.15 5.71276 -0.493108 0
M  V30 12882 N 1192.64 6.8883 -0.740595 0
M  V30 12883 N 1194.44 5.60473 -0.427365 0
M  V30 12884 H 1186.59 1.79151 -1.14099 0
M  V30 12885 H 1188.85 0.831446 -0.455413 0
M  V30 12886 H 1188.56 3.32483 -1.14666 0
M  V30 12887 H 1188.43 3.73082 0.555834 0
M  V30 12888 H 1190.82 2.80589 0.913978 0
M  V30 12889 H 1190.9 2.42564 -0.812193 0
M  V30 12890 H 1190.54 4.8962 -1.35034 0
M  V30 12891 H 1190.47 5.25124 0.394036 0
M  V30 12892 H 1192.96 3.77705 -0.121298 0
M  V30 12893 H 1193.28 7.67862 -0.872201 0
M  V30 12894 H 1191.62 6.90637 -0.777488 0
M  V30 12895 H 1194.81 4.67513 -0.234436 0
M  V30 12896 H 1194.99 6.45429 -0.576627 0
M  V30 12897 N 1188.39 -0.0785156 1.57404 0
M  V30 12898 C 1189.34 -1.10077 1.99668 0
M  V30 12899 C 1190.33 -1.34855 0.87767 0
M  V30 12900 O 1191.52 -1.35268 1.14156 0
M  V30 12901 C 1188.65 -2.41641 2.43854 0
M  V30 12902 C 1187.73 -2.20166 3.62475 0
M  V30 12903 N 1188.12 -1.68602 4.76872 0
M  V30 12904 C 1186.42 -2.50666 3.68894 0
M  V30 12905 C 1187.12 -1.61785 5.58749 0
M  V30 12906 N 1186.1 -2.07595 5.02399 0
M  V30 12907 H 1189.9 -0.695297 2.85557 0
M  V30 12908 H 1187.42 -0.285694 1.59867 0
M  V30 12909 H 1189.41 -3.15629 2.72367 0
M  V30 12910 H 1188.07 -2.8291 1.59348 0
M  V30 12911 H 1189.08 -1.37561 4.99297 0
M  V30 12912 H 1185.76 -2.95348 2.95087 0
M  V30 12913 H 1187.15 -1.22828 6.60578 0
M  V30 12914 N 1189.87 -1.5367 -0.349747 0
M  V30 12915 C 1191.12 -1.69835 -1.08807 0
M  V30 12916 C 1191.43 -0.46497 -1.89993 0
M  V30 12917 O 1192.64 -0.507452 -2.66716 0
M  V30 12918 C 1191.09 -3.00294 -1.98372 0
M  V30 12919 C 1190.7 -4.30949 -1.22422 0
M  V30 12920 C 1192.45 -3.25826 -2.72099 0
M  V30 12921 C 1190.35 -5.52486 -2.1098 0
M  V30 12922 H 1189.28 -0.63284 -0.409915 0
M  V30 12923 H 1191.93 -1.80171 -0.347968 0
M  V30 12924 H 1190.32 -2.838 -2.76176 0
M  V30 12925 H 1191.49 -4.58126 -0.495707 0
M  V30 12926 H 1189.81 -4.11983 -0.604896 0
M  V30 12927 H 1192.4 -4.13817 -3.38615 0
M  V30 12928 H 1192.75 -2.42566 -3.3833 0
M  V30 12929 H 1193.28 -3.43067 -2.0137 0
M  V30 12930 H 1190.02 -6.38271 -1.49301 0
M  V30 12931 H 1189.54 -5.29566 -2.81638 0
M  V30 12932 H 1191.22 -5.87889 -2.70176 0
M  V30 12933 N 1191.35 0.610423 -1.45298 0
M  V30 12934 C 1192.6 1.36951 -1.49167 0
M  V30 12935 C 1192.92 1.9405 -0.132292 0
M  V30 12936 O 1192.18 1.75363 0.868686 0
M  V30 12937 C 1192.48 2.53812 -2.51623 0
M  V30 12938 C 1192.14 2.14877 -3.96407 0
M  V30 12939 C 1190.81 2.03972 -4.35831 0
M  V30 12940 C 1193.16 1.84448 -4.87472 0
M  V30 12941 C 1190.49 1.60856 -5.64218 0
M  V30 12942 C 1192.84 1.42818 -6.16268 0
M  V30 12943 C 1191.5 1.3047 -6.54625 0
M  V30 12944 H 1190.77 0.501138 -0.54584 0
M  V30 12945 H 1193.42 0.690221 -1.78629 0
M  V30 12946 H 1191.72 3.27066 -2.1572 0
M  V30 12947 H 1193.42 3.12041 -2.51856 0
M  V30 12948 H 1190.01 2.2429 -3.65229 0
M  V30 12949 H 1194.19 1.91771 -4.57753 0
M  V30 12950 H 1189.45 1.49916 -5.92735 0
M  V30 12951 H 1193.62 1.18318 -6.86275 0
M  V30 12952 H 1191.25 0.968347 -7.54007 0
M  V30 12953 N 1192.83 1.32541 0.852676 0
M  V30 12954 C 1194.07 1.24406 1.60918 0
M  V30 12955 C 1194.43 -0.19184 1.91441 0
M  V30 12956 O 1193.72 -1.13016 1.54719 0
M  V30 12957 C 1193.91 2.039 2.9353 0
M  V30 12958 C 1193.74 3.55074 2.75957 0
M  V30 12959 C 1192.51 4.24409 2.74236 0
M  V30 12960 C 1194.71 4.49686 2.49574 0
M  V30 12961 N 1192.69 5.61624 2.47895 0
M  V30 12962 C 1194.06 5.74692 2.32658 0
M  V30 12963 C 1196.12 4.38921 2.35058 0
M  V30 12964 C 1194.82 6.90149 2.027 0
M  V30 12965 C 1196.85 5.5418 2.06491 0
M  V30 12966 C 1196.21 6.78186 1.90377 0
M  V30 12967 H 1192.31 0.510401 0.592465 0
M  V30 12968 H 1194.89 1.66929 1.00214 0
M  V30 12969 H 1193.06 1.6372 3.52208 0
M  V30 12970 H 1194.8 1.87644 3.58569 0
M  V30 12971 H 1191.55 3.76546 2.87246 0
M  V30 12972 H 1191.98 6.33918 2.37648 0
M  V30 12973 H 1196.62 3.43697 2.46236 0
M  V30 12974 H 1194.34 7.85383 1.90259 0
M  V30 12975 H 1197.92 5.47779 1.96035 0
M  V30 12976 H 1196.8 7.65864 1.68587 0
M  V30 12977 N 1194.3 -1.0692 1.15784 0
M  V30 12978 C 1195.72 -1.31707 0.901408 0
M  V30 12979 C 1195.92 -1.96429 -0.449203 0
M  V30 12980 O 1194.98 -2.22692 -1.19015 0
M  V30 12981 C 1196.29 -2.20391 2.04568 0
M  V30 12982 C 1197.84 -2.33827 2.08072 0
M  V30 12983 C 1198.31 -3.25862 3.21835 0
M  V30 12984 N 1199.8 -3.33444 3.21511 0
M  V30 12985 C 1200.54 -4.04731 4.06177 0
M  V30 12986 N 1200.03 -4.78596 5.00917 0
M  V30 12987 N 1201.83 -4.00717 3.94185 0
M  V30 12988 H 1193.98 -0.632989 2.02749 0
M  V30 12989 H 1196.24 -0.341587 0.88432 0
M  V30 12990 H 1195.95 -1.80102 3.02087 0
M  V30 12991 H 1195.82 -3.20943 1.9818 0
M  V30 12992 H 1198.21 -2.73367 1.11151 0
M  V30 12993 H 1198.29 -1.32964 2.18527 0
M  V30 12994 H 1197.93 -2.8704 4.19012 0
M  V30 12995 H 1197.86 -4.26689 3.08617 0
M  V30 12996 H 1200.35 -2.80798 2.52905 0
M  V30 12997 H 1200.67 -5.30499 5.61952 0
M  V30 12998 H 1199.01 -4.77598 5.04902 0
M  V30 12999 H 1202.2 -3.42126 3.1948 0
M  V30 13000 H 1202.38 -4.56008 4.60392 0
M  V30 13001 N 1195.78 -0.955326 -1.25345 0
M  V30 13002 C 1197.2 -0.659863 -1.4532 0
M  V30 13003 C 1197.4 0.78238 -1.85691 0
M  V30 13004 O 1196.45 1.5576 -1.98734 0
M  V30 13005 C 1197.77 -1.63339 -2.5247 0
M  V30 13006 C 1199.32 -1.64464 -2.66309 0
M  V30 13007 C 1199.79 -2.60583 -3.76644 0
M  V30 13008 N 1201.28 -2.58951 -3.84055 0
M  V30 13009 C 1202.02 -3.30002 -4.6892 0
M  V30 13010 N 1201.51 -4.10528 -5.58067 0
M  V30 13011 N 1203.31 -3.18886 -4.62891 0
M  V30 13012 H 1195.46 -1.88734 -0.97433 0
M  V30 13013 H 1197.72 -0.811858 -0.48948 0
M  V30 13014 H 1197.43 -2.66358 -2.29665 0
M  V30 13015 H 1197.3 -1.39644 -3.50399 0
M  V30 13016 H 1199.69 -0.621622 -2.88479 0
M  V30 13017 H 1199.77 -1.92218 -1.68778 0
M  V30 13018 H 1199.41 -3.63011 -3.55226 0
M  V30 13019 H 1199.34 -2.30113 -4.73662 0
M  V30 13020 H 1201.83 -2.00491 -3.20331 0
M  V30 13021 H 1202.15 -4.6166 -6.1975 0
M  V30 13022 H 1200.49 -4.14626 -5.57773 0
M  V30 13023 H 1203.68 -2.55447 -3.92255 0
M  V30 13024 H 1203.85 -3.74524 -5.28806 0
M  V30 13025 N 1197.26 1.39987 -0.723979 0
M  V30 13026 C 1198.19 2.3332 -0.0917282 0
M  V30 13027 C 1199.17 1.53335 0.736361 0
M  V30 13028 O 1200.36 1.81771 0.683582 0
M  V30 13029 C 1197.49 3.3737 0.824549 0
M  V30 13030 C 1196.44 4.2788 0.101452 0
M  V30 13031 C 1195.77 5.22536 1.13401 0
M  V30 13032 C 1197.07 5.11649 -1.04939 0
M  V30 13033 H 1198.76 2.86441 -0.871318 0
M  V30 13034 H 1196.31 1.37725 -0.420448 0
M  V30 13035 H 1198.26 4.01607 1.27631 0
M  V30 13036 H 1196.98 2.82663 1.63613 0
M  V30 13037 H 1195.64 3.65107 -0.330569 0
M  V30 13038 H 1195.29 4.64131 1.93886 0
M  V30 13039 H 1194.99 5.83938 0.65502 0
M  V30 13040 H 1196.52 5.89651 1.58569 0
M  V30 13041 H 1197.93 5.69293 -0.6766 0
M  V30 13042 H 1196.33 5.82137 -1.45729 0
M  V30 13043 H 1197.4 4.47132 -1.8762 0
M  V30 13044 N 1198.74 0.470782 1.50404 0
M  V30 13045 C 1200.16 0.124919 1.5911 0
M  V30 13046 C 1200.36 -1.36855 1.47895 0
M  V30 13047 O 1199.41 -2.1418 1.33728 0
M  V30 13048 C 1200.72 0.674839 2.9303 0
M  V30 13049 C 1202.27 0.638239 3.06424 0
M  V30 13050 C 1202.75 1.1657 4.42917 0
M  V30 13051 N 1204.24 1.1251 4.49328 0
M  V30 13052 C 1204.97 1.50373 5.53331 0
M  V30 13053 N 1204.47 1.95684 6.6459 0
M  V30 13054 N 1206.26 1.41978 5.43874 0
M  V30 13055 H 1198.41 1.44212 1.55938 0
M  V30 13056 H 1200.68 0.596354 0.73693 0
M  V30 13057 H 1200.38 1.72106 3.06712 0
M  V30 13058 H 1200.26 0.118234 3.77015 0
M  V30 13059 H 1202.64 -0.399075 2.92389 0
M  V30 13060 H 1202.72 1.23164 2.24197 0
M  V30 13061 H 1202.37 2.20164 4.57701 0
M  V30 13062 H 1202.3 0.548513 5.23736 0
M  V30 13063 H 1204.79 0.79276 3.69491 0
M  V30 13064 H 1205.1 2.22724 7.40009 0
M  V30 13065 H 1203.45 1.99636 6.65711 0
M  V30 13066 H 1206.64 1.0642 4.55842 0
M  V30 13067 H 1206.81 1.71812 6.24808 0
M  V30 13068 N 1200.22 -1.56282 0.203376 0
M  V30 13069 C 1201.16 -2.19473 -0.714164 0
M  V30 13070 C 1202.13 -1.14454 -1.20372 0
M  V30 13071 O 1203.32 -1.42739 -1.26611 0
M  V30 13072 C 1200.46 -2.86451 -1.92457 0
M  V30 13073 C 1199.57 -4.06017 -1.47561 0
M  V30 13074 C 1198.71 -4.60829 -2.64216 0
M  V30 13075 C 1197.75 -5.72734 -2.15967 0
M  V30 13076 N 1196.88 -6.21916 -3.25829 0
M  V30 13077 H 1201.72 -2.97523 -0.168558 0
M  V30 13078 H 1199.26 -1.46926 -0.0714525 0
M  V30 13079 H 1201.22 -3.23459 -2.63496 0
M  V30 13080 H 1199.85 -2.10951 -2.44335 0
M  V30 13081 H 1198.9 -3.74617 -0.660784 0
M  V30 13082 H 1200.21 -4.8693 -1.08168 0
M  V30 13083 H 1199.37 -5.00185 -3.43366 0
M  V30 13084 H 1198.11 -3.7904 -3.06887 0
M  V30 13085 H 1197.11 -5.32899 -1.35273 0
M  V30 13086 H 1198.34 -6.56346 -1.74316 0
M  V30 13087 H 1196.28 -5.43047 -3.68016 0
M  V30 13088 H 1196.2 -6.97904 -2.90631 0
M  V30 13089 H 1197.47 -6.65927 -4.05168 0
M  V30 13090 N 1201.7 0.070167 -1.57444 0
M  V30 13091 C 1202.66 1.06761 -2.02817 0
M  V30 13092 C 1203.66 1.31498 -0.925462 0
M  V30 13093 O 1204.85 1.27192 -1.19029 0
M  V30 13094 C 1201.98 2.41086 -2.41019 0
M  V30 13095 H 1203.17 0.67651 -2.9217 0
M  V30 13096 H 1200.73 0.315936 -1.53074 0
M  V30 13097 H 1201.46 2.85025 -1.54697 0
M  V30 13098 H 1201.25 2.24472 -3.21488 0
M  V30 13099 H 1202.74 3.12778 -2.76694 0
M  V30 13100 N 1203.17 1.53854 0.341593 0
M  V30 13101 C 1204.1 1.84966 1.42513 0
M  V30 13102 C 1205.08 0.704944 1.54805 0
M  V30 13103 O 1206.27 0.957036 1.68981 0
M  V30 13104 C 1203.4 2.06099 2.79536 0
M  V30 13105 C 1202.35 3.21919 2.82049 0
M  V30 13106 C 1201.68 3.28389 4.21977 0
M  V30 13107 C 1202.98 4.59984 2.4741 0
M  V30 13108 H 1204.67 2.7571 1.16724 0
M  V30 13109 H 1202.22 1.32662 0.560073 0
M  V30 13110 H 1204.17 2.26448 3.55386 0
M  V30 13111 H 1202.9 1.12087 3.06764 0
M  V30 13112 H 1201.56 3.01429 2.08653 0
M  V30 13113 H 1201.2 2.3197 4.46317 0
M  V30 13114 H 1200.9 4.0622 4.24569 0
M  V30 13115 H 1202.43 3.50951 4.99666 0
M  V30 13116 H 1203.84 4.80334 3.12973 0
M  V30 13117 H 1202.24 5.40233 2.61282 0
M  V30 13118 H 1203.31 4.6346 1.42594 0
M  V30 13119 N 1204.65 -0.602709 1.4562 0
M  V30 13120 C 1205.58 -1.72374 1.5751 0
M  V30 13121 C 1206.56 -1.64669 0.426389 0
M  V30 13122 O 1207.75 -1.82994 0.650143 0
M  V30 13123 C 1204.88 -3.10987 1.5461 0
M  V30 13124 C 1203.83 -3.33507 2.68248 0
M  V30 13125 C 1203.16 -4.72443 2.50403 0
M  V30 13126 C 1204.46 -3.23285 4.10224 0
M  V30 13127 H 1206.15 -1.62679 2.51348 0
M  V30 13128 H 1203.7 -0.781217 1.20967 0
M  V30 13129 H 1205.65 -3.89214 1.61525 0
M  V30 13130 H 1204.37 -3.21533 0.573049 0
M  V30 13131 H 1203.03 -2.57672 2.60769 0
M  V30 13132 H 1202.68 -4.79729 1.51226 0
M  V30 13133 H 1202.38 -4.88466 3.26611 0
M  V30 13134 H 1203.91 -5.52864 2.59179 0
M  V30 13135 H 1205.32 -3.91381 4.1892 0
M  V30 13136 H 1203.72 -3.50837 4.86861 0
M  V30 13137 H 1204.79 -2.20652 4.31788 0
M  V30 13138 N 1206.13 -1.32992 -0.845635 0
M  V30 13139 C 1207.41 -1.14671 -1.58461 0
M  V30 13140 C 1207.79 0.289498 -2.09106 0
M  V30 13141 O 1207.13 1.28751 -1.88773 0
M  V30 13142 C 1207.34 -2.18206 -2.72373 0
M  V30 13143 C 1208.69 -2.5201 -3.41726 0
M  V30 13144 O 1209.72 -2.16821 -2.82608 0
M  V30 13145 O 1208.58 -3.12368 -4.48429 0
M  V30 13146 H 1205.67 -0.443088 -0.698285 0
M  V30 13147 H 1208.22 -1.44552 -0.888978 0
M  V30 13148 H 1206.99 -3.14707 -2.32541 0
M  V30 13149 H 1206.61 -1.89372 -3.49605 0
M  V30 13150 N 1207.61 1.06304 -1.1635 0
M  V30 13151 C 1208.86 1.78747 -0.943074 0
M  V30 13152 C 1209.18 1.87646 0.530483 0
M  V30 13153 O 1208.45 1.38506 1.38538 0
M  V30 13154 H 1207.03 0.662072 -0.345932 0
M  V30 13155 H 1209.69 1.28413 -1.46615 0
M  V30 13156 H 1208.78 2.80828 -1.3617 0
M  V30 13157 N 1209.09 0.96196 1.24836 0
M  V30 13158 C 1210.03 0.48686 2.25607 0
M  V30 13159 C 1211 -0.464546 1.59472 0
M  V30 13160 O 1212.19 -0.376179 1.87055 0
M  V30 13161 C 1209.33 -0.222294 3.44383 0
M  V30 13162 C 1208.44 0.767206 4.25133 0
M  V30 13163 C 1207.58 0.0347458 5.31189 0
M  V30 13164 C 1206.61 1.01469 6.03631 0
M  V30 13165 N 1205.75 0.312619 7.01404 0
M  V30 13166 H 1210.59 1.35104 2.65614 0
M  V30 13167 H 1208.13 0.677373 1.30576 0
M  V30 13168 H 1210.09 -0.650087 4.12104 0
M  V30 13169 H 1208.72 -1.05047 3.0523 0
M  V30 13170 H 1207.77 1.31346 3.57005 0
M  V30 13171 H 1209.08 1.5147 4.75245 0
M  V30 13172 H 1208.23 -0.451325 6.05019 0
M  V30 13173 H 1206.97 -0.745485 4.81969 0
M  V30 13174 H 1205.98 1.51169 5.28609 0
M  V30 13175 H 1207.2 1.79527 6.5494 0
M  V30 13176 H 1205.15 -0.44874 6.54463 0
M  V30 13177 H 1205.07 0.999079 7.49369 0
M  V30 13178 H 1206.33 -0.151673 7.79352 0
M  V30 13179 N 1210.56 -1.39601 0.731392 0
M  V30 13180 C 1211.79 -2.05411 0.286532 0
M  V30 13181 C 1212.21 -1.54777 -1.06892 0
M  V30 13182 O 1211.57 -0.689942 -1.67659 0
M  V30 13183 C 1211.62 -3.594 0.293914 0
M  V30 13184 O 1210.72 -4.06072 -0.719657 0
M  V30 13185 H 1210.06 -0.650949 0.131004 0
M  V30 13186 H 1212.59 -1.78703 0.996305 0
M  V30 13187 H 1212.6 -4.0777 0.137052 0
M  V30 13188 H 1211.28 -3.95617 1.28298 0
M  V30 13189 H 1209.86 -3.69125 -0.529226 0
M  V30 13190 N 1212.04 -0.478751 -1.50152 0
M  V30 13191 C 1213.29 0.0657809 -2.03294 0
M  V30 13192 C 1213.64 1.36719 -1.35373 0
M  V30 13193 O 1212.94 1.8567 -0.473005 0
M  V30 13194 C 1213.13 0.297535 -3.56159 0
M  V30 13195 C 1212.96 -0.979859 -4.38895 0
M  V30 13196 C 1211.73 -1.52535 -4.81727 0
M  V30 13197 C 1213.93 -1.8773 -4.78813 0
M  V30 13198 N 1211.91 -2.75097 -5.48812 0
M  V30 13199 C 1213.28 -2.94876 -5.45388 0
M  V30 13200 C 1215.34 -1.88676 -4.60767 0
M  V30 13201 C 1214.04 -4.02968 -5.95827 0
M  V30 13202 C 1216.06 -2.95728 -5.12151 0
M  V30 13203 C 1215.43 -4.01594 -5.78707 0
M  V30 13204 H 1211.53 -0.0161501 -0.781833 0
M  V30 13205 H 1214.11 -0.648664 -1.83577 0
M  V30 13206 H 1212.28 0.981023 -3.75806 0
M  V30 13207 H 1214.01 0.837091 -3.95948 0
M  V30 13208 H 1210.77 -1.07349 -4.61273 0
M  V30 13209 H 1211.19 -3.37359 -5.86956 0
M  V30 13210 H 1215.83 -1.08143 -4.08736 0
M  V30 13211 H 1213.55 -4.84312 -6.46891 0
M  V30 13212 H 1217.14 -2.97453 -5.00013 0
M  V30 13213 H 1216.02 -4.83067 -6.17751 0
M  V30 13214 N 1213.52 1.56172 -0.211661 0
M  V30 13215 C 1214.47 2.21206 0.719063 0
M  V30 13216 C 1215.46 1.18835 1.20725 0
M  V30 13217 O 1216.67 1.36939 1.16823 0
M  V30 13218 H 1213.04 0.709129 0.250279 0
M  V30 13219 H 1215.01 2.98038 0.147022 0
M  V30 13220 C 1213.76 2.89826 1.92084 0
M  V30 13221 H 1213.09 3.68351 1.55428 0
M  V30 13222 H 1214.53 3.38744 2.55006 0
M  V30 13223 C 1212.99 1.91756 2.77004 0
M  V30 13224 O 1213.52 1.42826 3.75451 0
M  V30 13225 N 1211.72 1.59622 2.42836 0
M  V30 13226 H 1211.27 1.99606 1.62835 0
M  V30 13227 H 1211.23 0.942641 2.99936 0
M  V30 13228 N 1215 -0.0618163 1.57479 0
M  V30 13229 C 1216.41 -0.612461 1.76368 0
M  V30 13230 C 1216.76 -1.77381 0.838466 0
M  V30 13231 O 1215.89 -2.16386 0.0250211 0
M  V30 13232 C 1216.48 -1.11782 3.19829 0
M  V30 13233 C 1215.04 -1.61424 3.40028 0
M  V30 13234 C 1214.19 -0.53795 2.72032 0
M  V30 13235 H 1217.14 0.164382 1.57846 0
M  V30 13236 H 1217.16 -1.98634 3.24538 0
M  V30 13237 H 1216.67 -0.272353 3.87143 0
M  V30 13238 H 1214.77 -2.48263 2.77842 0
M  V30 13239 H 1214.88 -1.68431 4.48517 0
M  V30 13240 H 1213.25 -0.985355 2.34868 0
M  V30 13241 H 1214.03 0.297495 3.42009 0
M  V30 13242 N 1216.48 -1.54033 -0.333429 0
M  V30 13243 C 1217.39 -1.85737 -1.43314 0
M  V30 13244 C 1218.4 -0.748398 -1.57083 0
M  V30 13245 O 1219.58 -1.04171 -1.72367 0
M  V30 13246 C 1216.64 -2.06942 -2.78165 0
M  V30 13247 C 1215.7 -3.30774 -2.73655 0
M  V30 13248 C 1214.94 -3.50957 -4.02075 0
M  V30 13249 O 1215.16 -2.74774 -4.99855 0
M  V30 13250 O 1214.09 -4.44412 -4.05933 0
M  V30 13251 H 1217.92 -2.7923 -1.19434 0
M  V30 13252 H 1215.51 -1.39814 -0.526546 0
M  V30 13253 H 1217.39 -2.22276 -3.58011 0
M  V30 13254 H 1216.06 -1.16638 -3.01956 0
M  V30 13255 H 1214.97 -3.20835 -1.92395 0
M  V30 13256 H 1216.3 -4.21103 -2.54819 0
M  V30 13257 N 1217.95 0.594978 -1.45938 0
M  V30 13258 C 1219.2 1.35093 -1.50314 0
M  V30 13259 C 1219.52 1.94412 -0.151315 0
M  V30 13260 O 1218.79 1.77876 0.820787 0
M  V30 13261 H 1217.37 0.501549 -0.553586 0
M  V30 13262 H 1220.04 0.697735 -1.81983 0
M  V30 13263 H 1219.13 2.16393 -2.24901 0
M  V30 13264 N 1219.43 1.33438 0.838571 0
M  V30 13265 C 1220.66 1.27951 1.62592 0
M  V30 13266 C 1221.08 -0.149502 1.88207 0
M  V30 13267 O 1220.43 -1.09174 1.46244 0
M  V30 13268 C 1220.48 2.0523 2.97595 0
M  V30 13269 O 1220.2 3.42557 2.73105 0
M  V30 13270 C 1221.71 2.06957 3.92025 0
M  V30 13271 H 1218.93 0.440796 0.505905 0
M  V30 13272 H 1221.47 1.75814 1.0445 0
M  V30 13273 H 1219.62 1.61049 3.52338 0
M  V30 13274 H 1220.04 3.82314 3.59076 0
M  V30 13275 H 1221.51 2.65481 4.83967 0
M  V30 13276 H 1221.99 1.0599 4.26219 0
M  V30 13277 H 1222.6 2.51158 3.4322 0
M  V30 13278 N 1220.91 -1.05686 1.16912 0
M  V30 13279 C 1222.16 -1.78862 0.955839 0
M  V30 13280 C 1222.49 -1.87257 -0.514645 0
M  V30 13281 O 1221.76 -1.36869 -1.38193 0
M  V30 13282 C 1222.05 -3.23021 1.59152 0
M  V30 13283 C 1221.9 -3.22669 3.13376 0
M  V30 13284 C 1223.22 -4.2073 1.29128 0
M  V30 13285 H 1220.34 -0.64931 0.348663 0
M  V30 13286 H 1222.98 -1.23561 1.44335 0
M  V30 13287 H 1221.13 -3.70243 1.17697 0
M  V30 13288 H 1222.8 -2.83562 3.63855 0
M  V30 13289 H 1221.05 -2.61149 3.46386 0
M  V30 13290 H 1221.72 -4.24394 3.52979 0
M  V30 13291 H 1224.19 -3.8198 1.65017 0
M  V30 13292 H 1223.07 -5.19851 1.76198 0
M  V30 13293 H 1223.33 -4.41595 0.21119 0
M  V30 13294 N 1222.39 -0.968567 -1.24324 0
M  V30 13295 C 1223.64 -0.629682 -1.9204 0
M  V30 13296 C 1223.96 0.837906 -1.7608 0
M  V30 13297 O 1223.23 1.5982 -1.13289 0
M  V30 13298 H 1221.81 -0.229901 -0.710742 0
M  V30 13299 H 1224.47 -1.22982 -1.512 0
M  V30 13300 H 1223.57 -0.871034 -2.99699 0
M  V30 13301 N 1223.87 1.39211 -0.738786 0
M  V30 13302 C 1225.09 2.04732 -0.298751 0
M  V30 13303 C 1225.51 1.55706 1.06776 0
M  V30 13304 O 1224.87 0.723605 1.67542 0
M  V30 13305 C 1224.92 3.60288 -0.29574 0
M  V30 13306 O 1224.64 4.07511 -1.60831 0
M  V30 13307 C 1226.14 4.43011 0.159994 0
M  V30 13308 H 1223.36 0.658296 -0.129952 0
M  V30 13309 H 1225.9 1.78186 -1.0035 0
M  V30 13310 H 1224.06 3.85722 0.360146 0
M  V30 13311 H 1224.47 5.01858 -1.52443 0
M  V30 13312 H 1225.95 5.51889 0.110941 0
M  V30 13313 H 1226.42 4.22325 1.20573 0
M  V30 13314 H 1227.03 4.22734 -0.466467 0
M  V30 13315 N 1225.34 0.486708 1.49896 0
M  V30 13316 C 1226.59 -0.0627279 2.02003 0
M  V30 13317 C 1226.91 -1.38799 1.36967 0
M  V30 13318 O 1226.18 -1.88868 0.520173 0
M  V30 13319 H 1224.76 -0.0261718 0.746541 0
M  V30 13320 H 1227.43 0.640692 1.84068 0
M  V30 13321 H 1226.52 -0.202856 3.1144 0
M  V30 13322 N 1226.82 -1.56058 0.219941 0
M  V30 13323 C 1228.06 -2.00162 -0.414063 0
M  V30 13324 C 1228.43 -1.10432 -1.57063 0
M  V30 13325 O 1229.63 -1.43877 -2.27053 0
M  V30 13326 C 1227.9 -3.47411 -0.839084 0
M  V30 13327 S 1229.46 -4.13536 -1.46742 0
M  V30 13328 H 1226.28 -0.698738 -0.131475 0
M  V30 13329 H 1228.88 -1.92714 0.32885 0
M  V30 13330 H 1227.58 -4.10398 0.0123666 0
M  V30 13331 H 1227.11 -3.58728 -1.61485 0
M  V30 13332 H 1229.13 -4.12592 -2.75648 0
M  V30 13333 N 1228.3 0.053464 -1.57509 0
M  V30 13334 C 1229.25 1.08014 -2.05999 0
M  V30 13335 C 1230.24 1.38958 -0.968862 0
M  V30 13336 O 1231.45 1.3815 -1.15389 0
M  V30 13337 H 1227.82 0.36575 -0.657062 0
M  V30 13338 H 1229.8 0.645169 -2.91342 0
M  V30 13339 C 1228.54 2.38004 -2.53475 0
M  V30 13340 H 1227.87 2.15048 -3.37038 0
M  V30 13341 H 1229.31 3.08244 -2.91138 0
M  V30 13342 C 1227.77 3.05259 -1.42543 0
M  V30 13343 O 1228.3 3.94097 -0.777832 0
M  V30 13344 N 1226.5 2.66182 -1.16599 0
M  V30 13345 H 1226.05 1.94027 -1.69444 0
M  V30 13346 H 1226.01 3.11503 -0.42585 0
M  V30 13347 N 1229.78 1.54207 0.325255 0
M  V30 13348 C 1231.03 1.73523 1.06119 0
M  V30 13349 C 1231.38 0.501912 1.85738 0
M  V30 13350 O 1230.67 -0.505659 1.84807 0
M  V30 13351 C 1230.87 2.95 2.01766 0
M  V30 13352 C 1230.7 4.30028 1.31552 0
M  V30 13353 C 1229.47 4.94212 1.05273 0
M  V30 13354 C 1231.66 5.0906 0.732304 0
M  V30 13355 N 1229.65 6.13074 0.318312 0
M  V30 13356 C 1231.02 6.19865 0.12941 0
M  V30 13357 C 1233.07 4.93835 0.634951 0
M  V30 13358 C 1231.78 7.17106 -0.561389 0
M  V30 13359 C 1233.8 5.91385 -0.0421426 0
M  V30 13360 C 1233.16 7.01541 -0.633988 0
M  V30 13361 H 1229.26 0.687811 0.372076 0
M  V30 13362 H 1231.85 1.91662 0.342581 0
M  V30 13363 H 1230.02 2.78329 2.70901 0
M  V30 13364 H 1231.75 3.02952 2.68333 0
M  V30 13365 H 1228.5 4.54111 1.34462 0
M  V30 13366 H 1228.93 6.76991 -0.0347026 0
M  V30 13367 H 1233.57 4.0882 1.07825 0
M  V30 13368 H 1231.29 8.01681 -1.01652 0
M  V30 13369 H 1234.87 5.81682 -0.117085 0
M  V30 13370 H 1233.75 7.75728 -1.1496 0
M  V30 13371 N 1231.26 -0.58723 1.46251 0
M  V30 13372 C 1232.19 -1.71103 1.52501 0
M  V30 13373 C 1233.2 -1.57454 0.413772 0
M  V30 13374 O 1234.39 -1.64962 0.681902 0
M  V30 13375 C 1231.49 -3.0931 1.38493 0
M  V30 13376 C 1230.66 -3.49005 2.63655 0
M  V30 13377 C 1229.72 -4.66255 2.43911 0
M  V30 13378 O 1228.75 -4.72344 3.17616 0
M  V30 13379 N 1229.95 -5.60843 1.49784 0
M  V30 13380 H 1232.72 -1.66198 2.49396 0
M  V30 13381 H 1230.28 -0.773087 1.4225 0
M  V30 13382 H 1232.27 -3.85535 1.23064 0
M  V30 13383 H 1230.84 -3.08608 0.497963 0
M  V30 13384 H 1230.06 -2.62533 2.94058 0
M  V30 13385 H 1231.35 -3.72291 3.4681 0
M  V30 13386 H 1230.75 -5.58656 0.889972 0
M  V30 13387 H 1229.3 -6.36517 1.4032 0
M  V30 13388 N 1232.74 -1.33881 -0.831482 0
M  V30 13389 C 1233.65 -1.26802 -1.97379 0
M  V30 13390 C 1234.66 -0.177233 -1.73095 0
M  V30 13391 O 1235.84 -0.402163 -1.97344 0
M  V30 13392 C 1232.9 -1.01474 -3.31517 0
M  V30 13393 C 1231.96 -2.19626 -3.68867 0
M  V30 13394 C 1231.2 -1.95497 -4.96605 0
M  V30 13395 O 1231.42 -0.908948 -5.63111 0
M  V30 13396 O 1230.35 -2.82226 -5.31632 0
M  V30 13397 H 1234.18 -2.22883 -2.06293 0
M  V30 13398 H 1231.76 -1.14001 -0.965613 0
M  V30 13399 H 1233.65 -0.890954 -4.11874 0
M  V30 13400 H 1232.32 -0.0842656 -3.2359 0
M  V30 13401 H 1231.23 -2.37561 -2.88991 0
M  V30 13402 H 1232.56 -3.11034 -3.81469 0
M  V30 13403 N 1234.21 1.05064 -1.1747 0
M  V30 13404 C 1235.18 2.1101 -0.89485 0
M  V30 13405 C 1236.18 1.60384 0.11553 0
M  V30 13406 O 1237.37 1.73808 -0.116785 0
M  V30 13407 C 1234.5 3.39194 -0.340642 0
M  V30 13408 H 1235.69 2.37269 -1.83421 0
M  V30 13409 H 1233.24 1.21329 -0.985343 0
M  V30 13410 H 1233.98 3.18591 0.605808 0
M  V30 13411 H 1233.76 3.77251 -1.06885 0
M  V30 13412 H 1235.25 4.17281 -0.163204 0
M  V30 13413 N 1235.69 0.975146 1.23809 0
M  V30 13414 C 1236.92 0.658978 1.96125 0
M  V30 13415 C 1237.33 -0.773044 1.72248 0
M  V30 13416 O 1236.69 -1.51956 1.01072 0
M  V30 13417 C 1236.74 0.933355 3.49243 0
M  V30 13418 O 1236.46 2.30909 3.72307 0
M  V30 13419 C 1237.96 0.632408 4.38766 0
M  V30 13420 H 1235.18 0.245237 0.62458 0
M  V30 13421 H 1237.73 1.3051 1.5744 0
M  V30 13422 H 1235.88 0.333323 3.85963 0
M  V30 13423 H 1236.3 2.39476 4.66638 0
M  V30 13424 H 1237.77 0.874791 5.45024 0
M  V30 13425 H 1238.25 -0.433453 4.37056 0
M  V30 13426 H 1238.85 1.21268 4.07645 0
M  V30 13427 N 1237.17 -1.38817 0.746158 0
M  V30 13428 C 1238.39 -2.05096 0.308302 0
M  V30 13429 C 1238.82 -1.55902 -1.05244 0
M  V30 13430 O 1238.18 -0.707685 -1.66918 0
M  V30 13431 C 1238.23 -3.59068 0.332016 0
M  V30 13432 O 1237.33 -4.06813 -0.676547 0
M  V30 13433 H 1236.67 -0.649523 0.1379 0
M  V30 13434 H 1239.2 -1.77637 1.0152 0
M  V30 13435 H 1239.21 -4.07601 0.180293 0
M  V30 13436 H 1237.89 -3.94234 1.32487 0
M  V30 13437 H 1236.46 -3.69666 -0.490046 0
M  V30 13438 N 1238.65 -0.49465 -1.49636 0
M  V30 13439 C 1239.9 0.0539277 -2.01628 0
M  V30 13440 C 1240.21 1.38634 -1.37986 0
M  V30 13441 O 1241.42 2.02123 -1.81269 0
M  V30 13442 C 1239.87 0.146582 -3.59601 0
M  V30 13443 C 1239.48 -1.1788 -4.32213 0
M  V30 13444 C 1241.22 0.645862 -4.19558 0
M  V30 13445 C 1239.13 -1.04866 -5.82028 0
M  V30 13446 H 1238.06 0.0239278 -0.75362 0
M  V30 13447 H 1240.71 -0.633112 -1.72232 0
M  V30 13448 H 1239.09 0.897931 -3.85685 0
M  V30 13449 H 1240.27 -1.94295 -4.17835 0
M  V30 13450 H 1238.58 -1.61102 -3.83973 0
M  V30 13451 H 1241.18 0.76064 -5.29262 0
M  V30 13452 H 1241.52 1.64313 -3.82501 0
M  V30 13453 H 1242.06 -0.04877 -3.9777 0
M  V30 13454 H 1238.79 -2.02 -6.23599 0
M  V30 13455 H 1238.31 -0.325293 -5.98917 0
M  V30 13456 H 1239.99 -0.724799 -6.42927 0
M  V30 13457 O 1240.16 1.57208 -0.369845 0
M  V30 13458 H 1240.86 1.92864 0.179772 0
M  V30 END ATOM
M  V30 BEGIN BOND
M  V30 END BOND
M  V30 END CTAB
M  END
$$$$
