drugbank_target|Q819K2 Peptide deformylase 2 (DB04310)
 OpenBabel12092120423D

  0  0  0     0  0            999 V3000
M  V30 BEGIN CTAB
M  V30 COUNTS 2879 2907 0 0 0
M  V30 BEGIN ATOM
M  V30 1 H -0.908 1.98254 -0.117106 0
M  V30 2 N 0 1.576 0 0
M  V30 3 C 0.933 2.03868 1.02534 0
M  V30 4 C 1.911 0.928543 1.3348 0
M  V30 5 O 3.095 1.19667 1.45644 0
M  V30 6 C 0.222 2.43627 2.35294 0
M  V30 7 C -0.732 3.65373 2.2001 0
M  V30 8 S 0.101 5.13292 1.52614 0
M  V30 9 C 1.257 5.56322 2.86805 0
M  V30 10 H 1.49 2.90518 0.631377 0
M  V30 11 H -0.977 1.52953 0.210867 0
M  V30 12 H 0.981 2.67203 3.11629 0
M  V30 13 H -0.358 1.57376 2.7183 0
M  V30 14 H -1.165 3.90944 3.18086 0
M  V30 15 H -1.563 3.418 1.51819 0
M  V30 16 H 0.729 5.58782 3.83104 0
M  V30 17 H 1.672 6.56266 2.65933 0
M  V30 18 H 2.08 4.83886 2.90714 0
M  V30 19 N 1.4781 -0.272755 1.55222 0
M  V30 20 C 2.4081 -1.34136 1.91127 0
M  V30 21 C 3.3891 -1.51513 0.773168 0
M  V30 22 O 4.5741 -1.64552 1.03132 0
M  V30 23 C 1.7041 -2.70083 2.1834 0
M  V30 24 C 0.6581 -2.67437 3.34158 0
M  V30 25 C -0.0159 -4.06938 3.46851 0
M  V30 26 C 1.2841 -2.26686 4.70543 0
M  V30 27 H 2.9781 -1.04333 2.80633 0
M  V30 28 H 0.5241 -0.500454 1.35024 0
M  V30 29 H 2.4771 -3.44952 2.42046 0
M  V30 30 H 1.2011 -3.01469 1.25634 0
M  V30 31 H -0.1399 -1.95026 3.1042 0
M  V30 32 H -0.4919 -4.35547 2.51611 0
M  V30 33 H -0.7919 -4.06062 4.2472 0
M  V30 34 H 0.7321 -4.83545 3.72849 0
M  V30 35 H 2.1461 -2.91277 4.93792 0
M  V30 36 H 0.5431 -2.36971 5.5133 0
M  V30 37 H 1.6131 -1.21818 4.69349 0
M  V30 38 N 2.9562 -1.48159 -0.537278 0
M  V30 39 C 4.1842 -1.59454 -1.31841 0
M  V30 40 C 4.5992 -0.252065 -1.8711 0
M  V30 41 O 3.9562 0.757621 -1.66031 0
M  V30 42 C 4.0072 -2.63546 -2.47439 0
M  V30 43 O 3.7282 -3.92583 -1.94449 0
M  V30 44 C 5.2292 -2.85212 -3.39366 0
M  V30 45 H 2.4492 -0.53785 -0.401196 0
M  V30 46 H 4.9932 -1.93932 -0.648891 0
M  V30 47 H 3.1482 -2.31946 -3.1029 0
M  V30 48 H 3.5622 -4.49629 -2.70063 0
M  V30 49 H 5.0362 -3.61863 -4.16844 0
M  V30 50 H 5.5132 -1.93765 -3.94147 0
M  V30 51 H 6.1192 -3.18086 -2.82314 0
M  V30 52 N 4.4343 0.785586 -1.36625 0
M  V30 53 C 5.3673 1.90509 -1.25625 0
M  V30 54 C 6.3453 1.62 -0.139607 0
M  V30 55 O 7.5293 1.8591 -0.31141 0
M  V30 56 C 4.6563 3.25419 -0.939158 0
M  V30 57 C 3.7023 3.72856 -2.07077 0
M  V30 58 S 4.5353 3.88162 -3.68904 0
M  V30 59 C 5.6913 5.25942 -3.39317 0
M  V30 60 H 5.9243 1.99549 -2.20381 0
M  V30 61 H 3.4573 0.945226 -1.22085 0
M  V30 62 H 5.4153 4.03346 -0.763029 0
M  V30 63 H 4.0763 3.14099 -0.00931402 0
M  V30 64 H 3.2693 4.70624 -1.80357 0
M  V30 65 H 2.8713 3.01989 -2.20632 0
M  V30 66 H 5.1633 6.10651 -2.93447 0
M  V30 67 H 6.1063 5.57668 -4.36363 0
M  V30 68 H 6.5143 4.93224 -2.74573 0
M  V30 69 N 5.9124 1.20967 1.01018 0
M  V30 70 C 6.8594 0.964281 2.09691 0
M  V30 71 C 7.8294 -0.107853 1.65749 0
M  V30 72 O 9.0144 0.0381987 1.90762 0
M  V30 73 C 6.1544 0.52943 3.41015 0
M  V30 74 C 5.2674 1.67043 3.98398 0
M  V30 75 C 4.4024 1.18525 5.17808 0
M  V30 76 C 3.4414 2.29892 5.67288 0
M  V30 77 N 2.5784 1.82546 6.77954 0
M  V30 78 H 7.4184 1.89463 2.30017 0
M  V30 79 H 4.9554 0.944289 1.1279 0
M  V30 80 H 6.9134 0.258588 4.16398 0
M  V30 81 H 5.5434 -0.363919 3.20742 0
M  V30 82 H 4.5954 2.05603 3.20049 0
M  V30 83 H 5.9074 2.50877 4.31117 0
M  V30 84 H 5.0614 0.870762 6.00419 0
M  V30 85 H 3.8004 0.316887 4.86669 0
M  V30 86 H 2.8054 2.6215 4.83278 0
M  V30 87 H 4.0304 3.17216 6.00459 0
M  V30 88 H 1.9764 0.980454 6.48632 0
M  V30 89 H 1.8934 2.59956 7.09901 0
M  V30 90 H 3.1614 1.54115 7.64113 0
M  V30 91 N 7.3905 -1.2043 1.01659 0
M  V30 92 C 8.6675 -1.8548 0.621004 0
M  V30 93 C 9.0475 -1.9091 -0.900919 0
M  V30 94 O 8.3955 -1.41694 -1.79263 0
M  V30 95 C 8.6055 -3.25119 1.2688 0
M  V30 96 C 9.9535 -4.01403 1.38423 0
M  V30 97 O 10.9775 -3.34473 1.22501 0
M  V30 98 O 9.8365 -5.21265 1.64151 0
M  V30 99 H 6.9305 -0.798761 0.214266 0
M  V30 100 H 9.4765 -1.28019 1.11396 0
M  V30 101 H 8.2485 -3.15932 2.30873 0
M  V30 102 H 7.8715 -3.90212 0.762917 0
M  V30 103 N 8.8686 -0.792821 -1.36206 0
M  V30 104 C 10.1146 -0.36733 -1.99446 0
M  V30 105 C 10.4476 1.05917 -1.62774 0
M  V30 106 O 9.7226 1.7324 -0.88421 0
M  V30 107 C 10.0056 -0.535044 -3.56103 0
M  V30 108 C 9.8586 -2.00548 -4.02617 0
M  V30 109 C 11.1776 0.0478191 -4.40074 0
M  V30 110 H 8.2966 -0.134941 -0.724541 0
M  V30 111 H 10.9386 -0.999794 -1.61568 0
M  V30 112 H 9.0886 0.00336329 -3.885 0
M  V30 113 H 10.7606 -2.60521 -3.80692 0
M  V30 114 H 9.0036 -2.50686 -3.54032 0
M  V30 115 H 9.6746 -2.07377 -5.11565 0
M  V30 116 H 12.1506 -0.411822 -4.14057 0
M  V30 117 H 11.0266 -0.0995336 -5.4881 0
M  V30 118 H 11.2876 1.14025 -4.27142 0
M  V30 119 N 10.3467 1.47872 -0.545128 0
M  V30 120 C 11.5957 2.01695 -0.0145033 0
M  V30 121 C 11.9087 1.42609 1.33873 0
M  V30 122 O 13.1147 1.88021 1.95858 0
M  V30 123 C 11.5707 3.59892 0.0245068 0
M  V30 124 C 11.1787 4.27966 -1.32475 0
M  V30 125 C 12.9227 4.21507 0.50316 0
M  V30 126 C 10.8297 5.78136 -1.2455 0
M  V30 127 H 9.7597 0.753998 -0.00165172 0
M  V30 128 H 12.4107 1.69985 -0.691175 0
M  V30 129 H 10.7927 3.88509 0.766575 0
M  V30 130 H 11.9667 4.11003 -2.08357 0
M  V30 131 H 10.2817 3.78286 -1.74036 0
M  V30 132 H 12.8787 5.31538 0.580656 0
M  V30 133 H 13.2217 3.87855 1.51243 0
M  V30 134 H 13.7547 3.97376 -0.183681 0
M  V30 135 H 10.4937 6.16388 -2.23039 0
M  V30 136 H 10.0137 5.97469 -0.528282 0
M  V30 137 H 11.6927 6.40099 -0.942488 0
M  V30 138 N 11.8248 0.280983 1.55075 0
M  V30 139 C 13.2408 -0.0729964 1.59433 0
M  V30 140 C 13.4408 -1.5411 1.29817 0
M  V30 141 O 12.4968 -2.29086 1.06187 0
M  V30 142 C 13.8098 0.306921 2.9913 0
M  V30 143 C 15.3578 0.254023 3.11968 0
M  V30 144 C 15.8328 0.608467 4.5394 0
M  V30 145 N 17.3238 0.560241 4.59799 0
M  V30 146 C 18.0588 0.80722 5.6769 0
M  V30 147 N 17.5548 1.11912 6.83701 0
M  V30 148 N 19.3478 0.735623 5.57266 0
M  V30 149 H 11.4988 1.238 1.7259 0
M  V30 150 H 13.7618 0.500547 0.805082 0
M  V30 151 H 13.4678 1.32816 3.25657 0
M  V30 152 H 13.3418 -0.349363 3.75579 0
M  V30 153 H 15.7288 -0.75794 2.852 0
M  V30 154 H 15.8098 0.944649 2.37718 0
M  V30 155 H 15.4538 1.61814 4.81434 0
M  V30 156 H 15.3838 -0.104013 5.26497 0
M  V30 157 H 17.8748 0.329288 3.76463 0
M  V30 158 H 18.1878 1.29409 7.61888 0
M  V30 159 H 16.5328 1.15695 6.85303 0
M  V30 160 H 19.7238 0.491752 4.6551 0
M  V30 161 H 19.8968 0.931482 6.4127 0
M  V30 162 N 13.3029 -1.57598 0.00835791 0
M  V30 163 C 14.2129 -2.12385 -0.996487 0
M  V30 164 C 15.2289 -1.07108 -1.37127 0
M  V30 165 O 16.4049 -1.39055 -1.4569 0
M  V30 166 C 13.4699 -2.62314 -2.26699 0
M  V30 167 C 12.5309 -3.82225 -1.95456 0
M  V30 168 C 11.7639 -4.29763 -3.16449 0
M  V30 169 O 11.9869 -3.76584 -4.28416 0
M  V30 170 O 10.9209 -5.21832 -2.99958 0
M  V30 171 H 14.7469 -2.98479 -0.560725 0
M  V30 172 H 12.3319 -1.47903 -0.210987 0
M  V30 173 H 14.2139 -2.94589 -3.01322 0
M  V30 174 H 12.8889 -1.79313 -2.69497 0
M  V30 175 H 11.7959 -3.54909 -1.18282 0
M  V30 176 H 13.1289 -4.66324 -1.57489 0
M  V30 177 N 14.781 0.264519 -1.55364 0
M  V30 178 C 16.029 0.993021 -1.76021 0
M  V30 179 C 16.35 1.86511 -0.569099 0
M  V30 180 O 15.62 1.91438 0.415735 0
M  V30 181 H 14.2 0.369639 -0.649135 0
M  V30 182 H 16.862 0.286707 -1.9278 0
M  V30 183 H 15.958 1.62502 -2.66457 0
M  V30 184 N 16.2591 1.48442 0.529413 0
M  V30 185 C 17.5361 1.46978 1.29062 0
M  V30 186 C 17.9161 0.181769 2.10316 0
M  V30 187 O 17.2641 -0.836481 2.12639 0
M  V30 188 C 17.4741 2.7321 2.17157 0
M  V30 189 C 18.8221 3.21562 2.77278 0
M  V30 190 O 19.8461 2.74131 2.27444 0
M  V30 191 O 18.7051 4.04094 3.67927 0
M  V30 192 H 15.7991 0.587003 0.582543 0
M  V30 193 H 18.3451 1.60676 0.546021 0
M  V30 194 H 17.1171 3.58465 1.56903 0
M  V30 195 H 16.7401 2.62235 2.98862 0
M  V30 196 N 17.7372 -0.778329 1.37039 0
M  V30 197 C 19.1482 -1.35421 1.28523 0
M  V30 198 C 19.4992 -1.96075 -0.0700901 0
M  V30 199 O 18.6242 -1.93352 -0.971801 0
M  V30 200 C 19.2192 -2.46211 2.32735 0
M  V30 201 C 17.7782 -2.99585 2.27873 0
M  V30 202 C 16.9252 -1.72748 2.16918 0
M  V30 203 H 19.8762 -0.5791 1.47757 0
M  V30 204 H 19.8972 -3.2552 1.9702 0
M  V30 205 H 19.4092 -2.02036 3.31365 0
M  V30 206 H 17.5102 -3.48152 1.32745 0
M  V30 207 H 17.6232 -3.55646 3.21018 0
M  V30 208 H 15.9872 -1.95416 1.63354 0
M  V30 209 H 16.7702 -1.30686 3.17452 0
M  V30 210 N 19.2153 -1.21501 -1.00376 0
M  V30 211 C 20.4643 -1.02718 -1.73586 0
M  V30 212 C 20.7773 0.439589 -1.90596 0
M  V30 213 O 21.9833 0.746848 -2.61026 0
M  V30 214 C 20.4393 -1.78929 -3.1227 0
M  V30 215 C 20.0473 -3.29783 -3.03228 0
M  V30 216 C 21.7913 -1.68557 -3.89601 0
M  V30 217 C 19.6983 -3.98479 -4.36999 0
M  V30 218 H 18.6283 -0.380733 -0.650814 0
M  V30 219 H 21.2793 -1.45248 -1.1214 0
M  V30 220 H 19.6613 -1.29192 -3.74333 0
M  V30 221 H 20.8353 -3.86832 -2.50395 0
M  V30 222 H 19.1503 -3.40711 -2.39385 0
M  V30 223 H 21.7473 -2.17211 -4.88593 0
M  V30 224 H 22.0903 -0.644021 -4.11288 0
M  V30 225 H 22.6233 -2.15778 -3.34193 0
M  V30 226 H 19.3623 -5.02841 -4.20513 0
M  V30 227 H 18.8823 -3.46219 -4.89788 0
M  V30 228 H 20.5613 -4.03462 -5.05794 0
M  V30 229 N 20.6934 1.19889 -1.02296 0
M  V30 230 C 21.6234 2.25141 -0.619174 0
M  V30 231 C 22.6044 1.66051 0.368915 0
M  V30 232 O 23.7894 1.92546 0.252941 0
M  V30 233 C 20.9194 3.4728 0.0368783 0
M  V30 234 C 19.8734 4.19005 -0.872865 0
M  V30 235 C 19.1994 5.34637 -0.0822402 0
M  V30 236 C 20.4994 4.74452 -2.18387 0
M  V30 237 H 22.1934 2.59171 -1.49903 0
M  V30 238 H 19.7394 1.24579 -0.722222 0
M  V30 239 H 21.6924 4.20098 0.330958 0
M  V30 240 H 20.4164 3.12433 0.95149 0
M  V30 241 H 19.0754 3.48061 -1.15105 0
M  V30 242 H 18.7234 4.96034 0.83422 0
M  V30 243 H 18.4234 5.83557 -0.688149 0
M  V30 244 H 19.9474 6.10255 0.205238 0
M  V30 245 H 21.3614 5.39055 -1.95172 0
M  V30 246 H 19.7584 5.33834 -2.74119 0
M  V30 247 H 20.8284 3.92844 -2.84257 0
M  V30 248 N 22.1715 0.800033 1.35784 0
M  V30 249 C 23.5875 0.482977 1.52117 0
M  V30 250 C 23.7875 -0.996948 1.75109 0
M  V30 251 O 22.8435 -1.78216 1.78872 0
M  V30 252 C 24.1565 1.32264 2.70049 0
M  V30 253 C 25.7045 1.31742 2.83924 0
M  V30 254 C 26.1795 2.14106 4.04874 0
M  V30 255 N 27.6705 2.11607 4.12039 0
M  V30 256 C 28.4055 2.72099 5.04727 0
M  V30 257 N 27.9015 3.41492 6.02789 0
M  V30 258 N 29.6945 2.61776 4.97423 0
M  V30 259 H 21.8455 1.75856 1.19115 0
M  V30 260 H 24.1085 0.748122 0.582252 0
M  V30 261 H 23.8145 2.37261 2.59616 0
M  V30 262 H 23.6885 0.971303 3.6448 0
M  V30 263 H 26.0755 0.275333 2.93813 0
M  V30 264 H 26.1565 1.70859 1.9037 0
M  V30 265 H 25.8005 3.18351 3.95746 0
M  V30 266 H 25.7305 1.72353 4.97596 0
M  V30 267 H 28.2215 1.61112 3.41835 0
M  V30 268 H 28.5345 3.84953 6.70098 0
M  V30 269 H 26.8795 3.45596 6.02983 0
M  V30 270 H 30.0705 2.07157 4.19766 0
M  V30 271 H 30.2435 3.0921 5.69468 0
M  V30 272 N 23.6496 -1.47581 0.552962 0
M  V30 273 C 24.5976 -2.31648 -0.21023 0
M  V30 274 C 25.5916 -1.42663 -0.913432 0
M  V30 275 O 26.7976 -1.5945 -0.835201 0
M  V30 276 H 23.1726 -0.746989 -0.0866676 0
M  V30 277 H 25.1436 -2.93869 0.518051 0
M  V30 278 C 23.8926 -3.25226 -1.22976 0
M  V30 279 H 23.2156 -3.93658 -0.698077 0
M  V30 280 H 24.6556 -3.86889 -1.73473 0
M  V30 281 C 23.1146 -2.48448 -2.27542 0
M  V30 282 O 23.6446 -2.22585 -3.34393 0
M  V30 283 N 21.8506 -2.09532 -2.01357 0
M  V30 284 H 21.3976 -2.30765 -1.14478 0
M  V30 285 H 21.3556 -1.58476 -2.71538 0
M  V30 286 N 25.1277 -0.289203 -1.54924 0
M  V30 287 C 26.3737 0.323998 -2.00195 0
M  V30 288 C 26.7067 1.54441 -1.17735 0
M  V30 289 O 25.9817 1.92875 -0.250878 0
M  V30 290 C 26.2647 0.692276 -3.53383 0
M  V30 291 C 26.1177 -0.536457 -4.46589 0
M  V30 292 C 27.4367 1.52335 -4.12895 0
M  V30 293 H 24.5557 0.116289 -0.727768 0
M  V30 294 H 27.1977 -0.398954 -1.85764 0
M  V30 295 H 25.3477 1.30822 -3.65811 0
M  V30 296 H 27.0197 -1.17499 -4.46085 0
M  V30 297 H 25.2627 -1.17192 -4.1767 0
M  V30 298 H 25.9337 -0.234806 -5.515 0
M  V30 299 H 28.4097 1.00302 -4.0383 0
M  V30 300 H 27.2857 1.74982 -5.20262 0
M  V30 301 H 27.5467 2.50886 -3.64018 0
M  V30 302 N 26.6058 1.57591 -0.0167156 0
M  V30 303 C 27.5688 2.08393 0.954204 0
M  V30 304 C 28.5688 0.996531 1.26198 0
M  V30 305 O 29.7588 1.25858 1.20438 0
M  V30 306 C 26.8908 2.5394 2.27436 0
M  V30 307 H 28.0838 2.95455 0.514451 0
M  V30 308 H 25.6368 1.54582 0.231089 0
M  V30 309 H 26.3718 1.70171 2.76066 0
M  V30 310 H 26.1568 3.33371 2.06412 0
M  V30 311 H 27.6468 2.93512 2.97053 0
M  V30 312 N 28.0839 -0.256276 1.55502 0
M  V30 313 C 28.9939 -1.33882 1.92647 0
M  V30 314 C 30.0099 -1.53159 0.825727 0
M  V30 315 O 31.1859 -1.66963 1.12629 0
M  V30 316 C 28.2509 -2.6751 2.20543 0
M  V30 317 C 27.3119 -2.56836 3.43997 0
M  V30 318 C 26.5449 -3.84092 3.70553 0
M  V30 319 O 26.7679 -4.85545 2.99336 0
M  V30 320 O 25.7019 -3.83288 4.64084 0
M  V30 321 H 29.5279 -1.05374 2.84833 0
M  V30 322 H 27.1129 -0.456237 1.42263 0
M  V30 323 H 28.9949 -3.46492 2.39835 0
M  V30 324 H 27.6699 -2.9577 1.31536 0
M  V30 325 H 26.5769 -1.76172 3.30021 0
M  V30 326 H 27.9099 -2.33523 4.33275 0
M  V30 327 N 29.562 -1.4872 -0.521534 0
M  V30 328 C 30.472 -1.66569 -1.65203 0
M  V30 329 C 31.488 -0.548197 -1.65139 0
M  V30 330 O 32.664 -0.820339 -1.83936 0
M  V30 331 C 29.729 -1.70917 -3.01642 0
M  V30 332 C 28.79 -2.94356 -3.12495 0
M  V30 333 C 28.023 -2.98487 -4.42426 0
M  V30 334 O 28.246 -2.10786 -5.30024 0
M  V30 335 O 27.18 -3.90746 -4.57822 0
M  V30 336 H 31.006 -2.62298 -1.5308 0
M  V30 337 H 28.591 -1.3222 -0.695565 0
M  V30 338 H 30.473 -1.7625 -3.82771 0
M  V30 339 H 29.148 -0.783633 -3.14071 0
M  V30 340 H 28.055 -2.94552 -2.3063 0
M  V30 341 H 29.388 -3.86322 -3.04986 0
M  V30 342 N 31.0401 0.771051 -1.3745 0
M  V30 343 C 32.2861 1.5319 -1.32894 0
M  V30 344 C 32.6191 1.94008 0.0862511 0
M  V30 345 O 31.8941 1.64124 1.04373 0
M  V30 346 C 32.1771 2.79648 -2.26868 0
M  V30 347 C 32.0301 2.45079 -3.77169 0
M  V30 348 C 33.3491 3.81583 -2.19277 0
M  V30 349 H 30.4681 0.555744 -0.484064 0
M  V30 350 H 33.1101 0.884492 -1.68157 0
M  V30 351 H 31.2601 3.34891 -1.96926 0
M  V30 352 H 32.9321 1.95745 -4.1771 0
M  V30 353 H 31.1751 1.77767 -3.95704 0
M  V30 354 H 31.8461 3.35478 -4.38359 0
M  V30 355 H 34.3221 3.35835 -2.45671 0
M  V30 356 H 33.1981 4.67787 -2.87171 0
M  V30 357 H 33.4591 4.25897 -1.18592 0
M  V30 358 N 32.5182 1.22032 0.997298 0
M  V30 359 C 33.7432 1.06921 1.77715 0
M  V30 360 C 34.1682 -0.376226 1.84299 0
M  V30 361 O 33.5262 -1.27165 1.29223 0
M  V30 362 C 33.5742 1.67996 3.19076 0
M  V30 363 O 32.6782 0.930653 4.01762 0
M  V30 364 H 32.0192 0.375814 0.547412 0
M  V30 365 H 34.5492 1.61737 1.25309 0
M  V30 366 H 34.5592 1.72538 3.69723 0
M  V30 367 H 33.2342 2.73182 3.13599 0
M  V30 368 H 31.8112 0.960917 3.60307 0
M  V30 369 N 33.9963 -1.19345 1.0293 0
M  V30 370 C 34.9263 -2.2481 0.631105 0
M  V30 371 C 35.9073 -1.66245 -0.360104 0
M  V30 372 O 37.0923 -1.92677 -0.242726 0
M  V30 373 C 34.2223 -3.47295 -0.0184607 0
M  V30 374 C 33.1763 -4.18536 0.895073 0
M  V30 375 C 32.5023 -5.34586 0.110592 0
M  V30 376 C 33.8023 -4.73287 2.209 0
M  V30 377 H 35.4963 -2.58372 1.51275 0
M  V30 378 H 33.0423 -1.24194 0.728818 0
M  V30 379 H 34.9953 -4.20268 -0.308675 0
M  V30 380 H 33.7193 -3.12933 -0.934907 0
M  V30 381 H 32.3783 -3.47446 1.16949 0
M  V30 382 H 32.0263 -4.96469 -0.807902 0
M  V30 383 H 31.7263 -5.83183 0.719087 0
M  V30 384 H 33.2503 -6.10355 -0.172871 0
M  V30 385 H 34.6643 -5.38013 1.98028 0
M  V30 386 H 33.0613 -5.32373 2.76946 0
M  V30 387 H 34.1313 -3.91331 2.86336 0
M  V30 388 N 35.4744 -0.807222 -1.35358 0
M  V30 389 C 36.8854 -0.44876 -1.81226 0
M  V30 390 C 37.2364 1.02929 -1.67033 0
M  V30 391 O 36.3614 1.79991 -1.20133 0
M  V30 392 C 36.9564 -0.807774 -3.2903 0
M  V30 393 C 35.5154 -0.501901 -3.73039 0
M  V30 394 C 34.6624 -1.03304 -2.57339 0
M  V30 395 H 37.6134 -0.998808 -1.23327 0
M  V30 396 H 37.6344 -0.10554 -3.80354 0
M  V30 397 H 37.1464 -1.88357 -3.39328 0
M  V30 398 H 35.2474 0.565128 -3.68289 0
M  V30 399 H 35.3604 -1.03497 -4.67787 0
M  V30 400 H 33.7244 -0.455339 -2.50597 0
M  V30 401 H 34.5074 -2.11496 -2.70415 0
M  V30 402 N 36.9525 1.47285 -0.560781 0
M  V30 403 C 37.9155 2.28535 0.174488 0
M  V30 404 C 38.9155 1.37153 0.839388 0
M  V30 405 O 40.1055 1.59748 0.694702 0
M  V30 406 C 37.2375 3.16934 1.25561 0
M  V30 407 H 38.4305 2.95012 -0.539262 0
M  V30 408 H 35.9835 1.53034 -0.317865 0
M  V30 409 H 36.7185 2.55157 2.00164 0
M  V30 410 H 36.5035 3.8419 0.783604 0
M  V30 411 H 37.9935 3.78143 1.77193 0
M  V30 412 N 38.4306 0.297415 1.54768 0
M  V30 413 C 39.6556 -0.318435 2.04941 0
M  V30 414 C 40.0806 -1.4701 1.17345 0
M  V30 415 O 39.4386 -1.80436 0.176758 0
M  V30 416 C 39.4866 -0.755749 3.52592 0
M  V30 417 O 38.5906 -1.86088 3.68028 0
M  V30 418 H 37.9316 -0.062421 0.661059 0
M  V30 419 H 40.4616 0.438215 1.99852 0
M  V30 420 H 40.4716 -1.04552 3.94376 0
M  V30 421 H 39.1466 0.0867233 4.1581 0
M  V30 422 H 37.7236 -1.57193 3.38149 0
M  V30 423 N 39.9087 -1.5758 0.0250728 0
M  V30 424 C 40.8187 -2.1343 -0.973905 0
M  V30 425 C 41.8347 -1.08556 -1.35984 0
M  V30 426 O 43.0107 -1.40592 -1.44207 0
M  V30 427 C 40.0757 -2.64703 -2.23904 0
M  V30 428 C 39.1367 -3.84276 -1.91391 0
M  V30 429 C 38.3697 -4.33095 -3.11873 0
M  V30 430 O 38.5927 -3.81107 -4.24398 0
M  V30 431 O 37.5267 -5.24984 -2.94406 0
M  V30 432 H 41.3527 -2.99057 -0.529036 0
M  V30 433 H 38.9377 -1.48118 -0.195288 0
M  V30 434 H 40.8197 -2.97769 -2.98181 0
M  V30 435 H 39.4947 -1.82161 -2.6758 0
M  V30 436 H 38.4017 -3.56143 -1.14511 0
M  V30 437 H 39.7347 -4.67968 -1.52534 0
M  V30 438 N 41.3868 0.248026 -1.55636 0
M  V30 439 C 42.2968 1.32859 -1.93354 0
M  V30 440 C 43.3128 1.52719 -0.833838 0
M  V30 441 O 44.4888 1.66363 -1.13513 0
M  V30 442 C 41.5538 2.66337 -2.21958 0
M  V30 443 C 40.6148 2.55008 -3.45354 0
M  V30 444 C 39.8478 3.82121 -3.72584 0
M  V30 445 O 40.0708 4.83951 -3.01907 0
M  V30 446 O 39.0048 3.80822 -4.6611 0
M  V30 447 H 42.8308 1.03862 -2.85388 0
M  V30 448 H 40.4158 0.448686 -1.42503 0
M  V30 449 H 42.2978 3.45216 -2.4167 0
M  V30 450 H 40.9728 2.95068 -1.33103 0
M  V30 451 H 39.8798 1.7442 -3.30951 0
M  V30 452 H 41.2128 2.31222 -4.34508 0
M  V30 453 N 42.8649 1.48995 0.513639 0
M  V30 454 C 44.1419 1.48338 1.27495 0
M  V30 455 C 44.5219 0.204065 2.10111 0
M  V30 456 O 43.8699 -0.813881 2.13514 0
M  V30 457 C 44.0799 2.75498 2.14247 0
M  V30 458 C 45.4279 3.24484 2.73852 0
M  V30 459 O 46.4519 2.76528 2.24523 0
M  V30 460 O 45.3109 4.07974 3.6362 0
M  V30 461 H 42.4049 0.593149 0.576284 0
M  V30 462 H 44.9509 1.61246 0.528948 0
M  V30 463 H 43.7229 3.60109 1.53092 0
M  V30 464 H 43.3459 2.6539 2.96064 0
M  V30 465 N 44.343 -0.763751 1.37857 0
M  V30 466 C 45.571 -1.55293 1.36718 0
M  V30 467 C 45.986 -1.88745 -0.0455434 0
M  V30 468 O 45.343 -1.52039 -1.00947 0
M  V30 469 C 45.394 -2.85831 2.2132 0
M  V30 470 O 45.115 -2.5381 3.57089 0
M  V30 471 C 46.616 -3.80023 2.28249 0
M  V30 472 H 43.836 -0.480841 0.468009 0
M  V30 473 H 46.38 -0.946009 1.81303 0
M  V30 474 H 44.535 -3.42926 1.80223 0
M  V30 475 H 44.949 -3.37459 4.01524 0
M  V30 476 H 46.423 -4.68599 2.91752 0
M  V30 477 H 46.9 -4.1973 1.2932 0
M  V30 478 H 47.506 -3.28855 2.69693 0
M  V30 479 N 45.8211 -1.22559 -0.990812 0
M  V30 480 C 47.0491 -1.07779 -1.76611 0
M  V30 481 C 47.4641 0.371513 -1.85109 0
M  V30 482 O 46.8211 1.25737 -1.32274 0
M  V30 483 C 46.8721 -1.68512 -3.19822 0
M  V30 484 O 46.5931 -3.07774 -3.1178 0
M  V30 485 C 48.0941 -1.59035 -4.13791 0
M  V30 486 H 45.3141 -0.377729 -0.554583 0
M  V30 487 H 47.8581 -1.62195 -1.24551 0
M  V30 488 H 46.0131 -1.18154 -3.68942 0
M  V30 489 H 46.4271 -3.37062 -4.01858 0
M  V30 490 H 47.9011 -2.0625 -5.1202 0
M  V30 491 H 48.3781 -0.547273 -4.35777 0
M  V30 492 H 48.9841 -2.08709 -3.70568 0
M  V30 493 N 47.2992 1.18797 -1.03562 0
M  V30 494 C 48.5272 1.92599 -0.755869 0
M  V30 495 C 48.9422 1.75886 0.686271 0
M  V30 496 O 48.2992 1.08517 1.46732 0
M  V30 497 C 48.3502 3.44159 -1.10619 0
M  V30 498 O 48.0712 3.60341 -2.4917 0
M  V30 499 C 49.5722 4.3507 -0.850214 0
M  V30 500 H 46.7922 0.611587 -0.276048 0
M  V30 501 H 49.3362 1.50742 -1.38192 0
M  V30 502 H 47.4912 3.83823 -0.525194 0
M  V30 503 H 47.9052 4.54128 -2.62427 0
M  V30 504 H 49.3792 5.39989 -1.14523 0
M  V30 505 H 49.8562 4.38673 0.215176 0
M  V30 506 H 50.4622 4.01097 -1.41426 0
M  V30 507 N 48.7773 0.814389 1.34928 0
M  V30 508 C 49.7073 0.244827 2.32213 0
M  V30 509 C 50.6883 -0.634024 1.57842 0
M  V30 510 O 51.8733 -0.562676 1.8587 0
M  V30 511 C 49.0033 -0.601106 3.42058 0
M  V30 512 C 47.9573 0.179896 4.27622 0
M  V30 513 C 47.2833 -0.788237 5.28858 0
M  V30 514 C 48.5833 1.38329 5.03649 0
M  V30 515 H 50.2773 1.05763 2.80097 0
M  V30 516 H 47.8233 0.510029 1.34665 0
M  V30 517 H 49.7763 -1.00968 4.09125 0
M  V30 518 H 48.5003 -1.44688 2.92802 0
M  V30 519 H 47.1593 0.569739 3.62146 0
M  V30 520 H 46.8073 -1.62973 4.75866 0
M  V30 521 H 46.5073 -0.269942 5.8698 0
M  V30 522 H 48.0313 -1.19485 5.98795 0
M  V30 523 H 49.4453 1.04918 5.63618 0
M  V30 524 H 47.8423 1.83662 5.71304 0
M  V30 525 H 48.9123 2.16592 4.33839 0
M  V30 526 N 50.2554 -1.46986 0.568584 0
M  V30 527 C 51.2024 -2.30153 -0.172707 0
M  V30 528 C 52.1724 -1.39759 -0.897586 0
M  V30 529 O 53.3574 -1.68716 -0.891044 0
M  V30 530 C 50.4974 -3.23952 -1.1895 0
M  V30 531 C 49.6104 -4.29441 -0.469517 0
M  V30 532 C 48.7454 -5.1038 -1.47259 0
M  V30 533 C 47.7844 -6.07632 -0.738225 0
M  V30 534 N 46.9214 -6.8149 -1.68868 0
M  V30 535 H 51.7614 -2.93019 0.542596 0
M  V30 536 H 49.2984 -1.44422 0.279401 0
M  V30 537 H 51.2564 -3.76767 -1.79173 0
M  V30 538 H 49.8864 -2.62926 -1.87269 0
M  V30 539 H 48.9384 -3.79594 0.247467 0
M  V30 540 H 50.2504 -4.98689 0.105241 0
M  V30 541 H 49.4044 -5.67402 -2.14803 0
M  V30 542 H 48.1434 -4.4106 -2.08128 0
M  V30 543 H 47.1484 -5.49778 -0.0489293 0
M  V30 544 H 48.3734 -6.78966 -0.135129 0
M  V30 545 H 46.3194 -6.14891 -2.28573 0
M  V30 546 H 46.2364 -7.46948 -1.16636 0
M  V30 547 H 47.5044 -7.43078 -2.3549 0
M  V30 548 N 51.7335 -0.305618 -1.54608 0
M  V30 549 C 52.6435 0.57778 -2.27374 0
M  V30 550 C 53.6595 1.14451 -1.31061 0
M  V30 551 O 54.8355 1.16831 -1.6405 0
M  V30 552 C 51.9005 1.73123 -3.00382 0
M  V30 553 C 50.9615 1.19812 -4.12242 0
M  V30 554 C 50.1945 2.2966 -4.81759 0
M  V30 555 O 50.4175 3.49651 -4.50666 0
M  V30 556 O 49.3515 1.96091 -5.69062 0
M  V30 557 H 53.1775 -0.012624 -3.03697 0
M  V30 558 H 50.7625 -0.0719184 -1.49227 0
M  V30 559 H 52.6445 2.40315 -3.4616 0
M  V30 560 H 51.3195 2.30815 -2.26949 0
M  V30 561 H 50.2265 0.491798 -3.70853 0
M  V30 562 H 51.5595 0.666566 -4.87666 0
M  V30 563 N 53.2116 1.57565 -0.0334293 0
M  V30 564 C 54.1446 2.05997 0.981866 0
M  V30 565 C 55.1226 0.956647 1.3148 0
M  V30 566 O 56.3066 1.22729 1.43073 0
M  V30 567 C 53.4336 2.48564 2.30074 0
M  V30 568 C 52.4796 3.69958 2.12211 0
M  V30 569 S 53.3126 5.16414 1.41692 0
M  V30 570 C 54.4686 5.6228 2.7494 0
M  V30 571 H 54.7016 2.91792 0.569612 0
M  V30 572 H 52.2346 1.53366 0.178376 0
M  V30 573 H 54.1926 2.73753 3.05892 0
M  V30 574 H 52.8536 1.63106 2.68431 0
M  V30 575 H 52.0466 3.97603 3.09722 0
M  V30 576 H 51.6486 3.44943 1.44535 0
M  V30 577 H 53.9406 5.66783 3.71165 0
M  V30 578 H 54.8836 6.61759 2.51953 0
M  V30 579 H 55.2916 4.89944 2.80384 0
M  V30 580 N 54.6897 -0.239769 1.55765 0
M  V30 581 C 55.9387 -0.964754 1.77131 0
M  V30 582 C 56.2517 -1.86213 0.59868 0
M  V30 583 O 57.4577 -2.6244 0.695522 0
M  V30 584 C 55.9137 -1.76552 3.1362 0
M  V30 585 C 55.5217 -0.915185 4.38553 0
M  V30 586 C 57.2657 -2.48281 3.44321 0
M  V30 587 C 55.1727 -1.71225 5.66071 0
M  V30 588 H 54.1027 -0.363953 0.660344 0
M  V30 589 H 56.7537 -0.219181 1.82186 0
M  V30 590 H 55.1357 -2.55331 3.02691 0
M  V30 591 H 56.3097 -0.169217 4.60489 0
M  V30 592 H 54.6247 -0.310889 4.15238 0
M  V30 593 H 57.2217 -3.08382 4.36812 0
M  V30 594 H 57.5647 -3.20256 2.65973 0
M  V30 595 H 58.0977 -1.76507 3.56497 0
M  V30 596 H 54.8367 -1.03612 6.4726 0
M  V30 597 H 54.3567 -2.43331 5.48224 0
M  V30 598 H 56.0357 -2.27758 6.05587 0
M  V30 599 N 56.1678 -1.49265 -0.50573 0
M  V30 600 C 57.0778 -1.68312 -1.63427 0
M  V30 601 C 58.0938 -0.565682 -1.64548 0
M  V30 602 O 59.2698 -0.839801 -1.83055 0
M  V30 603 C 56.3348 -1.74107 -2.99813 0
M  V30 604 C 55.3958 -2.97653 -3.09356 0
M  V30 605 C 54.6288 -3.03163 -4.39236 0
M  V30 606 O 54.8518 -2.16396 -5.27758 0
M  V30 607 O 53.7858 -3.9558 -4.53652 0
M  V30 608 H 57.6118 -2.63907 -1.50289 0
M  V30 609 H 55.1968 -1.32951 -0.681502 0
M  V30 610 H 57.0788 -1.803 -3.80881 0
M  V30 611 H 55.7538 -0.816901 -3.13223 0
M  V30 612 H 54.6608 -2.96981 -2.27493 0
M  V30 613 H 55.9938 -3.89535 -3.00871 0
M  V30 614 N 57.6459 0.756429 -1.3826 0
M  V30 615 C 58.8929 1.51547 -1.34312 0
M  V30 616 C 59.2209 1.94382 0.0677144 0
M  V30 617 O 58.4759 1.65514 1.04421 0
M  V30 618 C 58.7749 2.78313 -2.24224 0
M  V30 619 C 58.4409 2.54455 -3.72241 0
M  V30 620 C 57.1029 2.47657 -4.12576 0
M  V30 621 C 59.4549 2.3354 -4.65949 0
M  V30 622 C 56.7829 2.17956 -5.44713 0
M  V30 623 C 59.1349 2.05359 -5.9834 0
M  V30 624 C 57.7989 1.97016 -6.37762 0
M  V30 625 H 57.0689 0.55455 -0.491482 0
M  V30 626 H 59.7159 0.870039 -1.70595 0
M  V30 627 H 58.0209 3.47492 -1.80987 0
M  V30 628 H 59.7179 3.36259 -2.18474 0
M  V30 629 H 56.3079 2.60616 -3.40261 0
M  V30 630 H 60.4919 2.37772 -4.35635 0
M  V30 631 H 55.7479 2.10003 -5.74203 0
M  V30 632 H 59.9219 1.88179 -6.70494 0
M  V30 633 H 57.5489 1.73766 -7.40074 0
M  V30 634 N 59.124 1.23083 0.984299 0
M  V30 635 C 60.37 1.06214 1.72761 0
M  V30 636 C 60.703 -0.400584 1.90024 0
M  V30 637 O 59.978 -1.29672 1.44967 0
M  V30 638 C 60.261 1.78375 3.12817 0
M  V30 639 C 60.114 3.32296 3.03149 0
M  V30 640 C 61.433 1.54309 4.12161 0
M  V30 641 H 58.552 0.387251 0.627061 0
M  V30 642 H 61.194 1.51536 1.14616 0
M  V30 643 H 59.344 1.39848 3.62457 0
M  V30 644 H 61.016 3.8032 2.61064 0
M  V30 645 H 59.259 3.6153 2.39747 0
M  V30 646 H 59.93 3.77972 4.02295 0
M  V30 647 H 62.406 1.87791 3.71314 0
M  V30 648 H 61.282 2.07281 5.08258 0
M  V30 649 H 61.543 0.477572 4.39513 0
M  V30 650 N 60.6021 -1.18246 1.0419 0
M  V30 651 C 61.8511 -1.87588 0.741194 0
M  V30 652 C 62.1641 -1.81303 -0.734066 0
M  V30 653 O 63.3701 -2.46019 -1.14834 0
M  V30 654 C 61.8261 -3.36538 1.27555 0
M  V30 655 C 61.4341 -3.51349 2.77953 0
M  V30 656 C 63.1781 -4.11273 1.05143 0
M  V30 657 C 61.0851 -4.94265 3.2474 0
M  V30 658 H 60.0151 -0.702622 0.273565 0
M  V30 659 H 62.6661 -1.33601 1.25789 0
M  V30 660 H 61.0481 -3.9 0.686703 0
M  V30 661 H 62.2221 -3.08153 3.42605 0
M  V30 662 H 60.5371 -2.90022 2.98791 0
M  V30 663 H 63.1341 -5.16689 1.37611 0
M  V30 664 H 63.4771 -4.16298 -0.0112774 0
M  V30 665 H 64.0101 -3.63987 1.60495 0
M  V30 666 H 60.7491 -4.94408 4.30396 0
M  V30 667 H 60.2691 -5.38172 2.64823 0
M  V30 668 H 61.9481 -5.62987 3.18834 0
M  V30 669 N 62.0802 -0.821533 -1.34494 0
M  V30 670 C 63.0282 -0.230702 -2.31453 0
M  V30 671 C 64.0222 0.627793 -1.57338 0
M  V30 672 O 65.2282 0.519288 -1.72347 0
M  V30 673 H 61.6032 -0.0558577 -0.749923 0
M  V30 674 H 63.5742 -1.06332 -2.78812 0
M  V30 675 C 62.3232 0.59391 -3.4259 0
M  V30 676 H 61.6462 -0.0573588 -3.99759 0
M  V30 677 H 63.0862 0.973446 -4.12674 0
M  V30 678 C 61.5452 1.76568 -2.86924 0
M  V30 679 O 62.0752 2.8638 -2.81691 0
M  V30 680 N 60.2812 1.58198 -2.43766 0
M  V30 681 H 59.8282 0.68872 -2.48222 0
M  V30 682 H 59.7862 2.36752 -2.06871 0
M  V30 683 N 63.5583 1.46682 -0.576371 0
M  V30 684 C 64.7833 2.07304 -0.0630475 0
M  V30 685 C 65.2083 1.42329 1.2298 0
M  V30 686 O 64.5663 0.504865 1.74129 0
M  V30 687 C 64.6143 3.60472 0.095895 0
M  V30 688 O 63.7183 3.95927 1.15394 0
M  V30 689 H 63.0593 0.661288 -0.0599463 0
M  V30 690 H 65.5893 1.88417 -0.797511 0
M  V30 691 H 65.5993 4.06865 0.304071 0
M  V30 692 H 64.2743 4.07157 -0.84828 0
M  V30 693 H 62.8513 3.61252 0.924724 0
M  V30 694 N 65.0364 0.313813 1.54444 0
M  V30 695 C 65.9684 -0.590425 2.21465 0
M  V30 696 C 66.9814 -1.08753 1.21147 0
M  V30 697 O 68.1704 -1.00278 1.4767 0
M  V30 698 C 65.2704 -1.82179 2.85769 0
M  V30 699 C 64.4434 -1.46502 4.12136 0
M  V30 700 C 63.5024 -2.55288 4.60124 0
M  V30 701 O 62.5284 -2.19842 5.25032 0
M  V30 702 N 63.7304 -3.86053 4.33525 0
M  V30 703 H 66.4954 -0.0166033 2.99695 0
M  V30 704 H 64.0564 0.136578 1.61323 0
M  V30 705 H 66.0484 -2.54328 3.14801 0
M  V30 706 H 64.6184 -2.30369 2.11303 0
M  V30 707 H 63.8384 -0.575595 3.89975 0
M  V30 708 H 65.1264 -1.20221 4.94393 0
M  V30 709 H 64.5244 -4.17654 3.81552 0
M  V30 710 H 63.0814 -4.54461 4.67235 0
M  V30 711 N 66.5145 -1.57545 0.0417849 0
M  V30 712 C 67.7915 -1.83642 -0.673433 0
M  V30 713 C 68.1715 -0.928298 -1.89594 0
M  V30 714 O 67.5195 0.0129955 -2.28496 0
M  V30 715 C 67.7295 -3.33155 -1.03964 0
M  V30 716 C 69.0775 -3.99941 -1.42592 0
M  V30 717 O 70.1015 -3.37725 -1.13226 0
M  V30 718 O 68.9605 -5.09619 -1.9736 0
M  V30 719 H 66.0545 -0.757638 -0.331533 0
M  V30 720 H 68.6005 -1.69554 0.070433 0
M  V30 721 H 67.3725 -3.9093 -0.170098 0
M  V30 722 H 66.9955 -3.52396 -1.84126 0
M  V30 723 N 67.9926 0.231505 -1.5589 0
M  V30 724 C 69.4036 0.799327 -1.68724 0
M  V30 725 C 69.7546 1.85398 -0.642022 0
M  V30 726 O 68.8796 2.1539 0.208784 0
M  V30 727 C 69.4746 1.45664 -3.05888 0
M  V30 728 C 68.0336 1.97197 -3.20609 0
M  V30 729 C 67.1806 0.828552 -2.64632 0
M  V30 730 H 70.1316 0.00702616 -1.58698 0
M  V30 731 H 70.1526 2.32517 -3.01191 0
M  V30 732 H 69.6646 0.688808 -3.81939 0
M  V30 733 H 67.7656 2.76813 -2.4941 0
M  V30 734 H 67.8786 2.15878 -4.27707 0
M  V30 735 H 66.2426 1.23321 -2.22854 0
M  V30 736 H 67.0256 0.0735544 -3.43221 0
M  V30 737 N 69.4707 1.49531 0.497807 0
M  V30 738 C 70.3807 1.69176 1.62532 0
M  V30 739 C 71.3967 0.5744 1.64246 0
M  V30 740 O 72.5727 0.849497 1.82608 0
M  V30 741 C 69.6377 1.75695 2.98885 0
M  V30 742 C 68.6987 2.9929 3.07773 0
M  V30 743 C 67.9317 3.05488 4.37622 0
M  V30 744 O 68.1547 2.19192 5.26603 0
M  V30 745 O 67.0887 3.9798 4.51548 0
M  V30 746 H 70.9147 2.647 1.48887 0
M  V30 747 H 68.4997 1.3331 0.674441 0
M  V30 748 H 70.3817 1.82317 3.79919 0
M  V30 749 H 69.0567 0.8335 3.12785 0
M  V30 750 H 67.9637 2.98183 2.25915 0
M  V30 751 H 69.2967 3.91125 2.98801 0
M  V30 752 N 70.9488 -0.749086 1.3866 0
M  V30 753 C 71.8818 -1.87111 1.30631 0
M  V30 754 C 72.8598 -1.61572 0.18251 0
M  V30 755 O 74.0438 -1.85019 0.360592 0
M  V30 756 C 71.1708 -3.22815 1.02511 0
M  V30 757 C 70.2168 -3.67234 2.1689 0
M  V30 758 S 71.0498 -3.78245 3.79066 0
M  V30 759 C 72.2058 -5.16761 3.53142 0
M  V30 760 H 72.4388 -1.93636 2.25594 0
M  V30 761 H 69.9718 -0.912525 1.24549 0
M  V30 762 H 71.9298 -4.01181 0.869701 0
M  V30 763 H 70.5908 -3.13964 0.0925884 0
M  V30 764 H 69.7838 -4.65677 1.92771 0
M  V30 765 H 69.3858 -2.96034 2.28561 0
M  V30 766 H 71.6778 -6.02656 3.09534 0
M  V30 767 H 72.6208 -5.45902 4.50995 0
M  V30 768 H 73.0288 -4.85771 2.87554 0
M  V30 769 N 72.4269 -1.23603 -0.977757 0
M  V30 770 C 73.3899 -1.02069 -2.05218 0
M  V30 771 C 74.3899 0.0184305 -1.60789 0
M  V30 772 O 75.5799 -0.221569 -1.72785 0
M  V30 773 C 72.7119 -0.544926 -3.36517 0
M  V30 774 H 73.9049 -1.9742 -2.25755 0
M  V30 775 H 71.4579 -1.05684 -1.15155 0
M  V30 776 H 72.1929 0.412241 -3.21669 0
M  V30 777 H 71.9779 -1.2948 -3.70105 0
M  V30 778 H 73.4679 -0.414985 -4.15533 0
M  V30 779 N 73.905 1.17692 -1.04816 0
M  V30 780 C 74.815 2.25229 -0.65643 0
M  V30 781 C 75.831 1.71018 0.320761 0
M  V30 782 O 77.007 2.00649 0.173805 0
M  V30 783 C 74.072 3.46684 -0.0332629 0
M  V30 784 C 73.133 4.15997 -1.06042 0
M  V30 785 C 72.366 5.31654 -0.466893 0
M  V30 786 O 72.589 5.65777 0.724758 0
M  V30 787 O 71.523 5.89831 -1.1993 0
M  V30 788 H 75.349 2.61016 -1.55255 0
M  V30 789 H 72.934 1.24919 -0.81949 0
M  V30 790 H 74.816 4.20234 0.313256 0
M  V30 791 H 73.491 3.12703 0.836566 0
M  V30 792 H 72.398 3.44482 -1.45886 0
M  V30 793 H 73.731 4.53996 -1.90127 0
M  V30 794 N 75.3831 0.828654 1.34056 0
M  V30 795 C 76.3301 0.252567 2.29414 0
M  V30 796 C 77.3001 -0.62588 1.53857 0
M  V30 797 O 78.4851 -0.566312 1.82202 0
M  V30 798 C 75.6251 -0.574831 3.40279 0
M  V30 799 C 74.7381 0.326499 4.30764 0
M  V30 800 C 73.8731 -0.511016 5.28736 0
M  V30 801 C 72.9121 0.389342 6.1086 0
M  V30 802 N 72.0491 -0.409439 7.00905 0
M  V30 803 H 76.8891 1.07108 2.78086 0
M  V30 804 H 74.4261 0.539677 1.36843 0
M  V30 805 H 76.3841 -1.06992 4.03248 0
M  V30 806 H 75.0141 -1.35841 2.92826 0
M  V30 807 H 74.0661 0.939837 3.68607 0
M  V30 808 H 75.3781 1.01857 4.88289 0
M  V30 809 H 74.5321 -1.07035 5.97184 0
M  V30 810 H 73.2711 -1.23657 4.71763 0
M  V30 811 H 72.2761 0.960769 5.4134 0
M  V30 812 H 73.5011 1.1131 6.69916 0
M  V30 813 H 71.4471 -1.11856 6.46393 0
M  V30 814 H 71.3641 0.224126 7.55668 0
M  V30 815 H 72.6321 -0.951336 7.73673 0
M  V30 816 N 76.8612 -1.46375 0.584142 0
M  V30 817 C 78.0912 -2.06461 0.0758195 0
M  V30 818 C 78.4992 -1.43322 -1.23512 0
M  V30 819 O 77.8422 -0.533216 -1.75791 0
M  V30 820 C 77.9042 -3.59131 -0.162773 0
M  V30 821 C 77.5682 -4.4447 1.06279 0
M  V30 822 C 78.5652 -4.80918 1.97519 0
M  V30 823 C 76.2502 -4.85584 1.28504 0
M  V30 824 C 78.2442 -5.57309 3.09331 0
M  V30 825 C 75.9312 -5.61734 2.4062 0
M  V30 826 C 76.9292 -5.9751 3.30863 0
M  V30 827 O 76.6172 -6.72121 4.41032 0
M  V30 828 H 76.3492 -0.673745 0.0551725 0
M  V30 829 H 78.9032 -1.88969 0.804984 0
M  V30 830 H 77.1332 -3.74936 -0.946565 0
M  V30 831 H 78.8222 -4.0114 -0.619782 0
M  V30 832 H 79.5882 -4.49732 1.81565 0
M  V30 833 H 75.4672 -4.57187 0.591702 0
M  V30 834 H 79.0112 -5.85152 3.79793 0
M  V30 835 H 74.9082 -5.92334 2.56537 0
M  V30 836 H 75.6762 -6.90547 4.39417 0
M  V30 837 N 78.3393 -0.321999 -1.54275 0
M  V30 838 C 79.5643 0.285791 -2.05422 0
M  V30 839 C 79.9893 1.45124 -1.19669 0
M  V30 840 O 79.3473 1.80132 -0.205441 0
M  V30 841 C 79.3953 0.69956 -3.53749 0
M  V30 842 O 78.4993 1.8021 -3.70942 0
M  V30 843 H 77.8403 0.0518962 -0.661969 0
M  V30 844 H 80.3703 -0.469954 -1.9913 0
M  V30 845 H 80.3803 0.982649 -3.9599 0
M  V30 846 H 79.0553 -0.152864 -4.15619 0
M  V30 847 H 77.6323 1.51794 -3.40607 0
M  V30 848 N 79.8174 1.5752 -0.0501392 0
M  V30 849 C 80.7474 2.14502 0.922566 0
M  V30 850 C 81.7284 1.06642 1.3252 0
M  V30 851 O 82.9134 1.34577 1.4001 0
M  V30 852 C 80.0434 2.68916 2.19776 0
M  V30 853 C 78.9974 3.8175 1.93523 0
M  V30 854 C 78.3234 4.22677 3.27487 0
M  V30 855 C 79.6234 5.06932 1.25765 0
M  V30 856 H 81.3174 2.9603 0.447952 0
M  V30 857 H 78.8634 1.42401 0.214024 0
M  V30 858 H 80.8164 3.07419 2.88222 0
M  V30 859 H 79.5404 1.84578 2.69441 0
M  V30 860 H 78.1994 3.43718 1.27489 0
M  V30 861 H 77.8474 3.35291 3.74952 0
M  V30 862 H 77.5474 4.98725 3.1072 0
M  V30 863 H 79.0714 4.63779 3.97166 0
M  V30 864 H 80.4854 5.42888 1.84244 0
M  V30 865 H 78.8824 5.88116 1.19328 0
M  V30 866 H 79.9524 4.84337 0.233536 0
M  V30 867 N 81.2955 -0.223234 1.56011 0
M  V30 868 C 82.7115 -0.572856 1.48965 0
M  V30 869 C 82.9115 -1.87225 0.74492 0
M  V30 870 O 81.9675 -2.50899 0.283896 0
M  V30 871 C 83.2805 -0.653646 2.9351 0
M  V30 872 C 84.8285 -0.744386 3.0402 0
M  V30 873 C 85.3035 -0.856535 4.49919 0
M  V30 874 N 86.7945 -0.9208 4.53955 0
M  V30 875 C 87.5295 -1.02726 5.64123 0
M  V30 876 N 87.0255 -1.09777 6.84047 0
M  V30 877 N 88.8185 -1.06226 5.51971 0
M  V30 878 H 80.9695 0.629462 2.02858 0
M  V30 879 H 83.2325 0.220621 0.921971 0
M  V30 880 H 82.9385 0.231518 3.50937 0
M  V30 881 H 82.8125 -1.51781 3.45315 0
M  V30 882 H 85.1995 -1.61999 2.46658 0
M  V30 883 H 85.2805 0.14541 2.55386 0
M  V30 884 H 84.9245 0.0146069 5.07898 0
M  V30 885 H 84.8545 -1.76172 4.96257 0
M  V30 886 H 87.3455 -0.876694 3.6759 0
M  V30 887 H 87.6585 -1.17872 7.63758 0
M  V30 888 H 86.0035 -1.06693 6.86762 0
M  V30 889 H 89.1945 -1.00382 4.5721 0
M  V30 890 H 89.3675 -1.14177 6.37862 0
M  V30 891 N 82.7736 -1.49793 -0.48987 0
M  V30 892 C 84.1846 -1.52914 -1.07118 0
M  V30 893 C 84.5356 -0.321738 -1.93544 0
M  V30 894 O 83.6606 0.567338 -2.08831 0
M  V30 895 C 84.2556 -2.771 -1.94938 0
M  V30 896 C 82.8146 -2.82963 -2.48212 0
M  V30 897 C 81.9616 -2.46972 -1.26096 0
M  V30 898 H 84.9126 -1.56329 -0.273289 0
M  V30 899 H 84.9336 -2.57892 -2.79771 0
M  V30 900 H 84.4456 -3.64959 -1.32009 0
M  V30 901 H 82.5466 -1.99411 -3.14748 0
M  V30 902 H 82.6596 -3.85406 -2.84603 0
M  V30 903 H 81.0236 -1.98994 -1.58976 0
M  V30 904 H 81.8066 -3.37118 -0.648581 0
M  V30 905 N 84.2517 0.741722 -1.39055 0
M  V30 906 C 85.4997 1.49818 -1.35643 0
M  V30 907 C 85.8207 1.94938 0.0491642 0
M  V30 908 O 85.0907 1.68505 0.999141 0
M  V30 909 H 83.6707 0.555755 -0.499144 0
M  V30 910 H 86.3327 0.880957 -1.73854 0
M  V30 911 H 85.4287 2.38348 -2.01486 0
M  V30 912 N 85.7298 1.2412 0.971189 0
M  V30 913 C 86.9788 1.07284 1.70801 0
M  V30 914 C 87.2918 -0.388902 1.91695 0
M  V30 915 O 88.4978 -0.677379 2.62914 0
M  V30 916 C 86.9538 1.87145 3.07416 0
M  V30 917 C 86.5618 3.37707 2.94377 0
M  V30 918 C 88.3058 1.78828 3.84995 0
M  V30 919 C 86.2128 4.09925 4.26281 0
M  V30 920 H 85.1428 0.397854 0.64049 0
M  V30 921 H 87.7938 1.4817 1.0825 0
M  V30 922 H 86.1758 1.39071 3.70777 0
M  V30 923 H 87.3498 3.93335 2.4005 0
M  V30 924 H 85.6648 3.46938 2.30267 0
M  V30 925 H 88.2618 2.30089 4.82662 0
M  V30 926 H 88.6048 0.75284 4.09436 0
M  V30 927 H 89.1378 2.24563 3.28354 0
M  V30 928 H 85.8768 5.13813 4.07033 0
M  V30 929 H 85.3968 3.59083 4.80437 0
M  V30 930 H 87.0758 4.1673 4.94919 0
M  V30 931 N 87.2079 -1.17134 1.05439 0
M  V30 932 C 88.4559 -1.87085 0.764429 0
M  V30 933 C 88.7769 -1.81584 -0.710787 0
M  V30 934 O 88.0469 -1.24349 -1.51374 0
M  V30 935 H 86.6269 -0.692627 0.279779 0
M  V30 936 H 89.2889 -1.42087 1.33406 0
M  V30 937 H 88.3849 -2.92759 1.0816 0
M  V30 938 N 88.686 -0.835752 -1.33615 0
M  V30 939 C 89.616 -0.281739 -2.31794 0
M  V30 940 C 90.597 0.608833 -1.58831 0
M  V30 941 O 91.782 0.533035 -1.86741 0
M  V30 942 C 88.912 0.546612 -3.42971 0
M  V30 943 C 87.866 -0.247904 -4.27281 0
M  V30 944 C 87.192 0.704001 -5.30045 0
M  V30 945 C 88.492 -1.46324 -5.01385 0
M  V30 946 H 90.186 -1.10206 -2.78379 0
M  V30 947 H 87.732 -0.531388 -1.33837 0
M  V30 948 H 89.685 0.944467 -4.1068 0
M  V30 949 H 88.409 1.40011 -2.95067 0
M  V30 950 H 87.068 -0.627281 -3.61194 0
M  V30 951 H 86.716 1.55381 -4.78399 0
M  V30 952 H 86.416 0.176524 -5.87335 0
M  V30 953 H 87.94 1.09944 -6.0062 0
M  V30 954 H 89.354 -1.13871 -5.61877 0
M  V30 955 H 87.751 -1.92728 -5.6831 0
M  V30 956 H 88.821 -2.23467 -4.30338 0
M  V30 957 N 90.1641 1.46063 -0.591896 0
M  V30 958 C 91.1271 2.28854 0.125973 0
M  V30 959 C 92.1271 1.38903 0.810107 0
M  V30 960 O 93.3171 1.61186 0.66066 0
M  V30 961 C 90.4491 3.19526 1.1881 0
M  V30 962 H 91.6421 2.93802 -0.601717 0
M  V30 963 H 89.1951 1.52325 -0.350254 0
M  V30 964 H 89.9301 2.59345 1.94707 0
M  V30 965 H 89.7151 3.85766 0.701936 0
M  V30 966 H 91.2051 3.81817 1.69132 0
M  V30 967 N 91.6422 0.330177 1.54103 0
M  V30 968 C 92.6052 -0.520144 2.2322 0
M  V30 969 C 93.6052 -1.03828 1.22786 0
M  V30 970 O 94.7952 -0.929652 1.4732 0
M  V30 971 C 91.9272 -1.72317 2.94142 0
M  V30 972 H 93.1202 0.0841605 2.99782 0
M  V30 973 H 90.6732 0.0813433 1.56088 0
M  V30 974 H 91.4082 -2.36653 2.21734 0
M  V30 975 H 91.1932 -1.35898 3.67796 0
M  V30 976 H 92.6832 -2.3266 3.46784 0
M  V30 977 N 93.1203 -1.57491 0.0584922 0
M  V30 978 C 94.5313 -1.80526 -0.476138 0
M  V30 979 C 94.8823 -0.971334 -1.70469 0
M  V30 980 O 94.0073 -0.190012 -2.15564 0
M  V30 981 C 94.6023 -3.27424 -0.870587 0
M  V30 982 C 93.1613 -3.51351 -1.35015 0
M  V30 983 C 92.3083 -2.75343 -0.32887 0
M  V30 984 H 95.2593 -1.56133 0.284312 0
M  V30 985 H 95.2803 -3.38745 -1.73299 0
M  V30 986 H 94.7923 -3.88093 0.0237627 0
M  V30 987 H 92.8933 -2.95971 -2.26345 0
M  V30 988 H 93.0063 -4.60059 -1.33726 0
M  V30 989 H 91.3703 -2.417 -0.803321 0
M  V30 990 H 92.1533 -3.38743 0.557521 0
M  V30 991 N 94.5984 0.214957 -1.56127 0
M  V30 992 C 95.5304 1.29004 -1.89448 0
M  V30 993 C 96.5434 1.42716 -0.783326 0
M  V30 994 O 97.7324 1.43496 -1.06166 0
M  V30 995 C 94.8324 2.66482 -2.09381 0
M  V30 996 C 94.0054 2.74633 -3.40434 0
M  V30 997 C 93.0644 3.9317 -3.49719 0
M  V30 998 O 92.0904 3.812 -4.227 0
M  V30 999 N 93.2924 5.07765 -2.81346 0
M  V30 1000 H 96.0574 1.00743 -2.82261 0
M  V30 1001 H 93.6184 0.40497 -1.56753 0
M  V30 1002 H 95.6104 3.44173 -2.12901 0
M  V30 1003 H 94.1804 2.87314 -1.23163 0
M  V30 1004 H 93.4004 1.83368 -3.48955 0
M  V30 1005 H 94.6884 2.77054 -4.26754 0
M  V30 1006 H 94.0864 5.20386 -2.21843 0
M  V30 1007 H 92.6434 5.83474 -2.90519 0
M  V30 1008 N 96.0765 1.50051 0.48192 0
M  V30 1009 C 97.3255 1.59741 1.23149 0
M  V30 1010 C 97.6385 0.298163 1.93314 0
M  V30 1011 O 98.8445 0.273835 2.70116 0
M  V30 1012 C 97.3005 2.81926 2.23708 0
M  V30 1013 C 96.9085 4.18685 1.59396 0
M  V30 1014 C 98.6525 3.00956 2.99375 0
M  V30 1015 C 96.5595 5.3207 2.58178 0
M  V30 1016 H 95.4895 0.594838 0.46334 0
M  V30 1017 H 98.1405 1.76467 0.503169 0
M  V30 1018 H 96.5225 2.58736 2.99786 0
M  V30 1019 H 97.6965 4.52088 0.891811 0
M  V30 1020 H 96.0115 4.05171 0.960503 0
M  V30 1021 H 98.6085 3.82836 3.73283 0
M  V30 1022 H 98.9515 2.12258 3.58123 0
M  V30 1023 H 99.4845 3.24277 2.30411 0
M  V30 1024 H 96.2235 6.22888 2.04184 0
M  V30 1025 H 95.7435 5.03098 3.26577 0
M  V30 1026 H 97.4225 5.62196 3.20225 0
M  V30 1027 N 97.5546 -0.734337 1.39446 0
M  V30 1028 C 98.8026 -1.49096 1.36436 0
M  V30 1029 C 99.1236 -1.94961 -0.0388255 0
M  V30 1030 O 98.3936 -1.69033 -0.990191 0
M  V30 1031 H 96.9736 -0.5531 0.502085 0
M  V30 1032 H 99.6356 -0.871725 1.74319 0
M  V30 1033 H 98.7316 -2.37276 2.02747 0
M  V30 1034 N 99.0327 -1.24633 -0.964593 0
M  V30 1035 C 100.279 -1.08949 -1.71049 0
M  V30 1036 C 100.612 0.370302 -1.90637 0
M  V30 1037 O 99.8867 1.27349 -1.47011 0
M  V30 1038 C 100.17 -1.83329 -3.0994 0
M  V30 1039 C 100.023 -3.37077 -2.97824 0
M  V30 1040 C 101.342 -1.60846 -4.09654 0
M  V30 1041 H 98.4607 -0.397178 -0.620821 0
M  V30 1042 H 101.103 -1.5334 -1.12191 0
M  V30 1043 H 99.2527 -1.45597 -3.60186 0
M  V30 1044 H 100.925 -3.84425 -2.5498 0
M  V30 1045 H 99.1677 -3.65298 -2.33965 0
M  V30 1046 H 99.8387 -3.84324 -3.96231 0
M  V30 1047 H 102.315 -1.93674 -3.68279 0
M  V30 1048 H 101.191 -2.1534 -5.04896 0
M  V30 1049 H 101.452 -0.547434 -4.38698 0
M  V30 1050 N 100.511 1.16574 -1.06058 0
M  V30 1051 C 101.736 1.91493 -0.796562 0
M  V30 1052 C 102.161 1.76773 0.642868 0
M  V30 1053 O 101.519 1.09142 1.44768 0
M  V30 1054 C 101.567 3.40293 -1.19303 0
M  V30 1055 O 100.671 4.11074 -0.330394 0
M  V30 1056 H 100.012 0.596678 -0.291326 0
M  V30 1057 H 102.542 1.47708 -1.41575 0
M  V30 1058 H 102.552 3.91057 -1.16356 0
M  V30 1059 H 101.227 3.50326 -2.24153 0
M  V30 1060 H 99.8038 3.70513 -0.421225 0
M  V30 1061 N 101.989 0.842826 1.3317 0
M  V30 1062 C 102.936 0.276885 2.29133 0
M  V30 1063 C 103.906 -0.609527 1.54512 0
M  V30 1064 O 105.091 -0.546955 1.82792 0
M  V30 1065 C 102.231 -0.538707 3.40869 0
M  V30 1066 C 101.344 0.372169 4.30394 0
M  V30 1067 C 100.479 -0.454908 5.29249 0
M  V30 1068 C 99.5179 0.45411 6.10413 0
M  V30 1069 N 98.6549 -0.335075 7.013 0
M  V30 1070 H 103.495 1.10052 2.76934 0
M  V30 1071 H 101.032 0.554161 1.36262 0
M  V30 1072 H 102.99 -1.02709 4.0436 0
M  V30 1073 H 101.62 -1.32727 2.9425 0
M  V30 1074 H 100.672 0.97888 3.6759 0
M  V30 1075 H 101.984 1.0703 4.87182 0
M  V30 1076 H 101.138 -1.00695 5.98285 0
M  V30 1077 H 99.8769 -1.18646 4.73048 0
M  V30 1078 H 98.8819 1.01813 5.40291 0
M  V30 1079 H 100.107 1.18409 6.68697 0
M  V30 1080 H 98.0529 -1.04994 6.47543 0
M  V30 1081 H 97.9699 0.304262 7.55387 0
M  V30 1082 H 99.2379 -0.869224 7.74638 0
M  V30 1083 N 103.467 -1.45747 0.599634 0
M  V30 1084 C 104.414 -2.30467 -0.123849 0
M  V30 1085 C 105.384 -1.41632 -0.86774 0
M  V30 1086 O 106.569 -1.70568 -0.855056 0
M  V30 1087 C 103.709 -3.26402 -1.12051 0
M  V30 1088 C 102.822 -4.3034 -0.37832 0
M  V30 1089 C 101.957 -5.13389 -1.364 0
M  V30 1090 C 100.996 -6.09061 -0.609171 0
M  V30 1091 N 100.133 -6.84918 -1.54374 0
M  V30 1092 H 104.973 -2.91802 0.604627 0
M  V30 1093 H 102.51 -1.43797 0.309972 0
M  V30 1094 H 104.468 -3.80482 -1.7114 0
M  V30 1095 H 103.098 -2.66839 -1.8165 0
M  V30 1096 H 102.15 -3.78984 0.327929 0
M  V30 1097 H 103.462 -4.98354 0.210997 0
M  V30 1098 H 102.616 -5.7183 -2.02719 0
M  V30 1099 H 101.355 -4.45376 -1.98725 0
M  V30 1100 H 100.36 -5.49758 0.0676979 0
M  V30 1101 H 101.585 -6.79099 0.00891991 0
M  V30 1102 H 99.531 -6.19601 -2.15478 0
M  V30 1103 H 99.448 -7.49254 -1.00766 0
M  V30 1104 H 100.716 -7.47906 -2.19676 0
M  V30 1105 N 104.945 -0.338344 -1.53925 0
M  V30 1106 C 105.878 0.563758 -2.21127 0
M  V30 1107 C 106.856 1.10433 -1.19345 0
M  V30 1108 O 108.04 1.16557 -1.48144 0
M  V30 1109 C 105.167 1.77505 -2.88461 0
M  V30 1110 C 104.213 1.3644 -4.04087 0
M  V30 1111 S 105.046 0.388593 -5.34088 0
M  V30 1112 C 106.202 1.60683 -6.04923 0
M  V30 1113 H 106.435 -0.00704546 -2.97299 0
M  V30 1114 H 103.968 -0.122418 -1.53914 0
M  V30 1115 H 105.926 2.46999 -3.27875 0
M  V30 1116 H 104.587 2.31706 -2.12064 0
M  V30 1117 H 103.78 2.26739 -4.50117 0
M  V30 1118 H 103.382 0.748998 -3.66423 0
M  V30 1119 H 105.674 2.54209 -6.28 0
M  V30 1120 H 106.617 1.18842 -6.98056 0
M  V30 1121 H 107.025 1.80052 -5.35015 0
M  V30 1122 N 106.423 1.57458 -0.0668435 0
M  V30 1123 C 107.672 1.92477 0.602947 0
M  V30 1124 C 107.985 0.948419 1.71068 0
M  V30 1125 O 109.191 1.19124 2.43971 0
M  V30 1126 C 107.647 3.41903 1.12383 0
M  V30 1127 C 107.255 4.47975 0.04737 0
M  V30 1128 C 108.999 3.85931 1.76797 0
M  V30 1129 C 106.906 5.88529 0.582022 0
M  V30 1130 H 105.836 0.718387 0.22899 0
M  V30 1131 H 108.487 1.82978 -0.138276 0
M  V30 1132 H 106.869 3.46459 1.91787 0
M  V30 1133 H 108.043 4.55029 -0.726978 0
M  V30 1134 H 106.358 4.13384 -0.500243 0
M  V30 1135 H 108.955 4.88322 2.17821 0
M  V30 1136 H 109.298 3.23029 2.62599 0
M  V30 1137 H 109.831 3.83958 1.04024 0
M  V30 1138 H 106.57 6.55065 -0.238721 0
M  V30 1139 H 106.09 5.85004 1.324 0
M  V30 1140 H 107.769 6.38258 1.05999 0
M  V30 1141 N 107.901 -0.206675 1.56239 0
M  V30 1142 C 108.864 -1.23976 1.92776 0
M  V30 1143 C 109.864 -1.39041 0.807729 0
M  V30 1144 O 111.054 -1.37051 1.0753 0
M  V30 1145 C 108.186 -2.61112 2.19165 0
M  V30 1146 H 109.379 -0.927764 2.85189 0
M  V30 1147 H 106.932 -0.447718 1.4975 0
M  V30 1148 H 107.667 -2.97386 1.29352 0
M  V30 1149 H 107.452 -2.51552 3.00772 0
M  V30 1150 H 108.942 -3.35633 2.48476 0
M  V30 1151 N 109.379 -1.50304 -0.473955 0
M  V30 1152 C 110.625 -1.61389 -1.22806 0
M  V30 1153 C 110.958 -0.311955 -1.91678 0
M  V30 1154 O 110.233 0.686384 -1.81986 0
M  V30 1155 C 110.516 -2.79219 -2.27396 0
M  V30 1156 C 110.369 -4.19286 -1.62848 0
M  V30 1157 C 111.688 -2.92614 -3.28732 0
M  V30 1158 H 108.807 -0.587399 -0.445119 0
M  V30 1159 H 111.449 -1.82681 -0.522265 0
M  V30 1160 H 109.599 -2.61195 -2.87592 0
M  V30 1161 H 111.271 -4.48892 -1.06271 0
M  V30 1162 H 109.514 -4.23677 -0.931693 0
M  V30 1163 H 110.185 -4.97655 -2.38838 0
M  V30 1164 H 112.661 -3.09105 -2.78556 0
M  V30 1165 H 111.537 -3.76688 -3.99246 0
M  V30 1166 H 111.798 -2.03107 -3.92683 0
M  V30 1167 N 110.857 0.726932 -1.39834 0
M  V30 1168 C 111.807 1.83232 -1.35683 0
M  V30 1169 C 112.791 1.59155 -0.236295 0
M  V30 1170 O 113.983 1.70522 -0.474488 0
M  V30 1171 C 111.112 3.21246 -1.21062 0
M  V30 1172 C 110.198 3.51125 -2.37849 0
M  V30 1173 N 110.589 3.51889 -3.63329 0
M  V30 1174 C 108.887 3.81527 -2.30982 0
M  V30 1175 C 109.588 3.79791 -4.40606 0
M  V30 1176 N 108.564 3.97971 -3.70297 0
M  V30 1177 H 112.366 1.8214 -2.30656 0
M  V30 1178 H 109.88 0.925545 -1.33444 0
M  V30 1179 H 111.877 4.00387 -1.16171 0
M  V30 1180 H 110.537 3.23572 -0.270458 0
M  V30 1181 H 111.548 3.33008 -3.96643 0
M  V30 1182 H 108.225 3.91411 -1.45272 0
M  V30 1183 H 109.615 3.86783 -5.49408 0
M  V30 1184 N 112.336 1.25143 0.95797 0
M  V30 1185 C 113.582 1.09855 1.70469 0
M  V30 1186 C 113.915 -0.360187 1.90831 0
M  V30 1187 O 113.19 -1.26568 1.47685 0
M  V30 1188 C 113.473 1.8497 3.08963 0
M  V30 1189 C 113.326 3.38652 2.96032 0
M  V30 1190 C 114.645 1.63016 4.08795 0
M  V30 1191 H 111.764 0.400465 0.618706 0
M  V30 1192 H 114.406 1.53933 1.11376 0
M  V30 1193 H 112.556 1.47505 3.59409 0
M  V30 1194 H 114.228 3.85772 2.52938 0
M  V30 1195 H 112.471 3.66534 2.32025 0
M  V30 1196 H 113.142 3.8642 3.94187 0
M  V30 1197 H 115.618 1.95625 3.67247 0
M  V30 1198 H 114.494 2.18015 5.03747 0
M  V30 1199 H 114.755 0.570692 4.38401 0
M  V30 1200 N 113.814 -1.1601 1.06675 0
M  V30 1201 C 115.042 -1.90527 0.806667 0
M  V30 1202 C 115.457 -1.77643 -0.639396 0
M  V30 1203 O 114.814 -1.12369 -1.43803 0
M  V30 1204 C 114.865 -3.41106 1.19705 0
M  V30 1205 O 114.586 -3.53608 2.58636 0
M  V30 1206 C 116.087 -4.32663 0.965266 0
M  V30 1207 H 113.307 -0.604053 0.292166 0
M  V30 1208 H 115.851 -1.47026 1.4214 0
M  V30 1209 H 114.006 -3.82296 0.626774 0
M  V30 1210 H 114.42 -4.47011 2.74375 0
M  V30 1211 H 115.894 -5.36763 1.288 0
M  V30 1212 H 116.371 -4.39089 -0.0987936 0
M  V30 1213 H 116.977 -3.97206 1.52011 0
M  V30 1214 N 115.292 -0.849877 -1.32721 0
M  V30 1215 C 116.569 -0.372405 -1.92022 0
M  V30 1216 C 116.949 1.1435 -1.77447 0
M  V30 1217 O 116.297 1.96296 -1.16962 0
M  V30 1218 C 116.507 -0.831482 -3.3895 0
M  V30 1219 C 117.855 -0.845882 -4.16089 0
M  V30 1220 O 118.879 -0.775806 -3.47649 0
M  V30 1221 O 117.738 -0.943753 -5.38289 0
M  V30 1222 H 114.832 -0.107667 -0.819961 0
M  V30 1223 H 117.378 -0.93646 -1.41522 0
M  V30 1224 H 116.15 -1.87448 -3.4348 0
M  V30 1225 H 115.773 -0.24461 -3.96847 0
M  V30 1226 N 116.77 1.45427 -0.607355 0
M  V30 1227 C 117.733 2.28974 0.101693 0
M  V30 1228 C 118.733 1.39754 0.795329 0
M  V30 1229 O 119.923 1.61878 0.643527 0
M  V30 1230 C 117.055 3.20768 1.15414 0
M  V30 1231 H 118.248 2.93147 -0.632844 0
M  V30 1232 H 115.801 1.51945 -0.366391 0
M  V30 1233 H 116.536 2.61395 1.91945 0
M  V30 1234 H 116.321 3.86489 0.66098 0
M  V30 1235 H 117.811 3.83589 1.65073 0
M  V30 1236 N 118.248 0.346503 1.53744 0
M  V30 1237 C 119.525 -0.304532 1.93215 0
M  V30 1238 C 119.905 -1.67993 1.27834 0
M  V30 1239 O 119.253 -2.24411 0.430352 0
M  V30 1240 C 119.463 -0.373852 3.46992 0
M  V30 1241 C 120.811 -0.62329 4.2 0
M  V30 1242 O 121.835 -0.455847 3.53271 0
M  V30 1243 O 120.694 -0.947879 5.38217 0
M  V30 1244 H 117.788 -0.178318 0.807547 0
M  V30 1245 H 120.334 0.397895 1.64969 0
M  V30 1246 H 119.106 0.591224 3.86808 0
M  V30 1247 H 118.729 -1.12294 3.81413 0
M  V30 1248 N 119.726 -1.57421 0.075193 0
M  V30 1249 C 120.974 -1.93236 -0.591974 0
M  V30 1250 C 121.295 -0.956241 -1.69944 0
M  V30 1251 O 120.565 -0.00494792 -1.95899 0
M  V30 1252 H 119.145 -0.713355 -0.22166 0
M  V30 1253 H 121.807 -1.9444 0.133848 0
M  V30 1254 H 120.903 -2.95131 -1.01509 0
M  V30 1255 N 121.204 0.198386 -1.56346 0
M  V30 1256 C 122.432 0.935572 -1.84539 0
M  V30 1257 C 122.847 1.76989 -0.657281 0
M  V30 1258 O 122.204 1.78626 0.374043 0
M  V30 1259 C 122.255 1.8344 -3.11499 0
M  V30 1260 O 121.976 1.03377 -4.25728 0
M  V30 1261 C 123.477 2.68355 -3.52846 0
M  V30 1262 H 120.697 0.273126 -0.612897 0
M  V30 1263 H 123.241 0.20663 -2.03453 0
M  V30 1264 H 121.396 2.51701 -2.94492 0
M  V30 1265 H 121.81 1.64599 -4.98003 0
M  V30 1266 H 123.284 3.27085 -4.44657 0
M  V30 1267 H 123.761 3.41901 -2.75681 0
M  V30 1268 H 124.367 2.05471 -3.72373 0
M  V30 1269 N 122.682 1.50554 0.465978 0
M  V30 1270 C 123.612 1.72722 1.57128 0
M  V30 1271 C 124.593 0.576294 1.6004 0
M  V30 1272 O 125.778 0.81598 1.76225 0
M  V30 1273 C 122.908 1.82605 2.95419 0
M  V30 1274 C 121.862 2.97835 3.07373 0
M  V30 1275 C 121.188 2.92867 4.47363 0
M  V30 1276 C 122.488 4.38265 2.84114 0
M  V30 1277 H 124.182 2.65267 1.38829 0
M  V30 1278 H 121.728 1.2765 0.666441 0
M  V30 1279 H 123.681 1.96698 3.72677 0
M  V30 1280 H 122.405 0.866858 3.14886 0
M  V30 1281 H 121.064 2.83401 2.3255 0
M  V30 1282 H 120.712 1.94783 4.63755 0
M  V30 1283 H 120.412 3.70227 4.56296 0
M  V30 1284 H 121.936 3.09015 5.26633 0
M  V30 1285 H 123.35 4.53198 3.51118 0
M  V30 1286 H 121.747 5.17115 3.04487 0
M  V30 1287 H 122.817 4.50281 1.7993 0
M  V30 1288 N 124.16 -0.719506 1.40217 0
M  V30 1289 C 125.39 -1.50646 1.41384 0
M  V30 1290 C 125.798 -1.89197 0.0107743 0
M  V30 1291 O 125.141 -1.55709 -0.974708 0
M  V30 1292 C 125.203 -2.81405 2.23722 0
M  V30 1293 C 124.867 -2.65199 3.72181 0
M  V30 1294 C 125.864 -2.32717 4.64907 0
M  V30 1295 C 123.549 -2.81586 4.1595 0
M  V30 1296 C 125.543 -2.16827 5.99387 0
M  V30 1297 C 123.23 -2.65313 5.50502 0
M  V30 1298 C 124.228 -2.32981 6.42035 0
M  V30 1299 O 123.916 -2.16827 7.74107 0
M  V30 1300 H 123.648 -0.471606 0.484318 0
M  V30 1301 H 126.202 -0.895456 1.84853 0
M  V30 1302 H 124.432 -3.44823 1.75026 0
M  V30 1303 H 126.121 -3.43102 2.16878 0
M  V30 1304 H 126.887 -2.19694 4.32388 0
M  V30 1305 H 122.766 -3.0574 3.45027 0
M  V30 1306 H 126.31 -1.91513 6.70797 0
M  V30 1307 H 122.207 -2.7792 5.82607 0
M  V30 1308 H 122.975 -2.31778 7.84998 0
M  V30 1309 N 125.638 -1.25649 -0.95132 0
M  V30 1310 C 126.863 -1.13443 -1.73624 0
M  V30 1311 C 127.288 0.307565 -1.85568 0
M  V30 1312 O 126.646 1.22282 -1.33854 0
M  V30 1313 C 126.694 -1.79723 -3.12621 0
M  V30 1314 O 125.798 -1.07912 -3.98031 0
M  V30 1315 H 125.139 -0.395872 -0.533086 0
M  V30 1316 H 127.669 -1.66276 -1.1922 0
M  V30 1317 H 127.679 -1.86141 -3.63064 0
M  V30 1318 H 126.354 -2.84633 -3.03244 0
M  V30 1319 H 124.931 -1.09398 -3.56492 0
M  V30 1320 N 127.117 1.15442 -1.07289 0
M  V30 1321 C 128.067 2.18164 -0.662467 0
M  V30 1322 C 129.051 1.57845 0.312074 0
M  V30 1323 O 130.243 1.76552 0.125905 0
M  V30 1324 C 127.372 3.43246 -0.0611295 0
M  V30 1325 C 126.458 4.1062 -1.06077 0
M  V30 1326 N 126.849 4.53491 -2.24008 0
M  V30 1327 C 125.147 4.36949 -0.893964 0
M  V30 1328 C 125.848 5.05731 -2.87422 0
M  V30 1329 N 124.824 4.99236 -2.15091 0
M  V30 1330 H 128.626 2.49038 -1.56068 0
M  V30 1331 H 126.14 1.32003 -0.945988 0
M  V30 1332 H 128.137 4.16145 0.250792 0
M  V30 1333 H 126.797 3.13854 0.832207 0
M  V30 1334 H 127.808 4.46898 -2.6173 0
M  V30 1335 H 124.485 4.17466 -0.0534693 0
M  V30 1336 H 125.875 5.48865 -3.87553 0
M  V30 1337 N 128.595 0.856903 1.32268 0
M  V30 1338 C 129.558 0.308171 2.27119 0
M  V30 1339 C 130.558 -0.533421 1.51695 0
M  V30 1340 O 131.748 -0.344607 1.70757 0
M  V30 1341 C 128.88 -0.563757 3.36206 0
M  V30 1342 H 130.073 1.14535 2.77167 0
M  V30 1343 H 127.626 0.631421 1.42978 0
M  V30 1344 H 128.361 -1.42266 2.91429 0
M  V30 1345 H 128.146 0.0386749 3.92081 0
M  V30 1346 H 129.636 -0.940386 4.06874 0
M  V30 1347 N 130.073 -1.45103 0.615059 0
M  V30 1348 C 131.003 -2.33339 -0.0865619 0
M  V30 1349 C 131.984 -1.4727 -0.851209 0
M  V30 1350 O 133.169 -1.76026 -0.820281 0
M  V30 1351 C 130.299 -3.30095 -1.07956 0
M  V30 1352 C 129.253 -4.25858 -0.427628 0
M  V30 1353 C 128.579 -5.12361 -1.5294 0
M  V30 1354 C 129.879 -5.18165 0.655944 0
M  V30 1355 H 131.573 -2.92254 0.650224 0
M  V30 1356 H 129.119 -1.40532 0.314138 0
M  V30 1357 H 131.072 -3.90698 -1.57901 0
M  V30 1358 H 129.796 -2.69355 -1.84703 0
M  V30 1359 H 128.455 -3.66564 0.0510292 0
M  V30 1360 H 128.103 -4.47984 -2.28734 0
M  V30 1361 H 127.803 -5.77238 -1.09865 0
M  V30 1362 H 129.327 -5.75833 -2.03098 0
M  V30 1363 H 130.741 -5.72796 0.240257 0
M  V30 1364 H 129.138 -5.91559 1.00888 0
M  V30 1365 H 130.208 -4.60144 1.52957 0
M  V30 1366 N 131.551 -0.354651 -1.53558 0
M  V30 1367 C 132.798 0.238443 -2.01091 0
M  V30 1368 C 133.126 1.49663 -1.24222 0
M  V30 1369 O 132.381 1.93049 -0.321003 0
M  V30 1370 C 132.68 0.587121 -3.52545 0
M  V30 1371 C 132.346 -0.575472 -4.47213 0
M  V30 1372 C 131.008 -0.894497 -4.72813 0
M  V30 1373 C 133.36 -1.35489 -5.03281 0
M  V30 1374 C 130.688 -1.99511 -5.51736 0
M  V30 1375 C 133.04 -2.44583 -5.83405 0
M  V30 1376 C 131.704 -2.77033 -6.07296 0
M  V30 1377 H 130.974 0.0872526 -0.735845 0
M  V30 1378 H 133.621 -0.484859 -1.8526 0
M  V30 1379 H 131.926 1.39129 -3.66265 0
M  V30 1380 H 133.623 1.05809 -3.86789 0
M  V30 1381 H 130.213 -0.316774 -4.27428 0
M  V30 1382 H 134.397 -1.12167 -4.83459 0
M  V30 1383 H 129.653 -2.25063 -5.68469 0
M  V30 1384 H 133.827 -3.05401 -6.25862 0
M  V30 1385 H 131.454 -3.6244 -6.68237 0
M  V30 1386 N 133.029 1.57378 -0.0835403 0
M  V30 1387 C 133.977 2.14602 0.89714 0
M  V30 1388 C 134.971 1.08589 1.30018 0
M  V30 1389 O 136.177 1.26952 1.27606 0
M  V30 1390 H 132.552 0.686346 0.3073 0
M  V30 1391 H 134.523 2.95845 0.38969 0
M  V30 1392 C 133.272 2.73188 2.15089 0
M  V30 1393 H 132.595 3.54442 1.84962 0
M  V30 1394 H 134.035 3.1681 2.81793 0
M  V30 1395 C 132.494 1.68517 2.91725 0
M  V30 1396 O 133.024 1.11718 3.85852 0
M  V30 1397 N 131.23 1.39277 2.55049 0
M  V30 1398 H 130.777 1.85655 1.78577 0
M  V30 1399 H 130.735 0.694791 3.06627 0
M  V30 1400 N 134.507 -0.190092 1.56449 0
M  V30 1401 C 135.918 -0.754312 1.70784 0
M  V30 1402 C 136.269 -1.83631 0.690951 0
M  V30 1403 O 135.394 -2.15868 -0.151604 0
M  V30 1404 C 135.989 -1.37503 3.09642 0
M  V30 1405 C 134.548 -1.88628 3.25725 0
M  V30 1406 C 133.695 -0.758098 2.66736 0
M  V30 1407 H 136.646 0.0350524 1.58661 0
M  V30 1408 H 136.667 -2.2445 3.0725 0
M  V30 1409 H 136.179 -0.587302 3.83631 0
M  V30 1410 H 134.28 -2.70103 2.56661 0
M  V30 1411 H 134.393 -2.04462 4.3328 0
M  V30 1412 H 132.757 -1.17369 2.26046 0
M  V30 1413 H 133.54 0.0174705 3.43296 0
M  V30 1414 N 135.985 -1.50799 -0.457987 0
M  V30 1415 C 136.932 -1.70617 -1.5543 0
M  V30 1416 C 137.902 -0.547562 -1.56815 0
M  V30 1417 O 139.087 -0.779647 -1.74144 0
M  V30 1418 C 136.227 -1.81831 -2.93311 0
M  V30 1419 C 135.34 -3.09278 -3.01615 0
M  V30 1420 C 134.475 -3.11209 -4.30491 0
M  V30 1421 C 133.514 -4.33055 -4.32585 0
M  V30 1422 N 132.651 -4.32652 -5.52952 0
M  V30 1423 H 137.491 -2.64207 -1.37836 0
M  V30 1424 H 135.028 -1.30959 -0.669937 0
M  V30 1425 H 136.986 -1.86314 -3.73287 0
M  V30 1426 H 135.616 -0.916685 -3.0951 0
M  V30 1427 H 134.668 -3.14203 -2.1443 0
M  V30 1428 H 135.98 -3.99233 -2.99022 0
M  V30 1429 H 135.134 -3.14494 -5.18824 0
M  V30 1430 H 133.873 -2.19106 -4.35711 0
M  V30 1431 H 132.878 -4.29969 -3.42647 0
M  V30 1432 H 134.103 -5.264 -4.29046 0
M  V30 1433 H 132.049 -3.43409 -5.58933 0
M  V30 1434 H 131.966 -5.16392 -5.52155 0
M  V30 1435 H 133.234 -4.40101 -6.43375 0
M  V30 1436 N 137.463 0.71206 -1.40597 0
M  V30 1437 C 138.712 1.46754 -1.38369 0
M  V30 1438 C 139.025 1.95598 0.0097839 0
M  V30 1439 O 140.231 2.71059 0.154677 0
M  V30 1440 C 138.687 2.65289 -2.43207 0
M  V30 1441 C 138.295 2.23301 -3.88382 0
M  V30 1442 C 140.039 3.43008 -2.50091 0
M  V30 1443 C 137.946 3.38696 -4.84808 0
M  V30 1444 H 136.876 0.55118 -0.514506 0
M  V30 1445 H 139.527 0.774616 -1.66349 0
M  V30 1446 H 137.909 3.36769 -2.08332 0
M  V30 1447 H 139.083 1.59218 -4.32419 0
M  V30 1448 H 137.398 1.58618 -3.85006 0
M  V30 1449 H 139.995 4.28881 -3.1932 0
M  V30 1450 H 140.338 3.87065 -1.53253 0
M  V30 1451 H 140.871 2.78574 -2.83974 0
M  V30 1452 H 137.61 2.99668 -5.82992 0
M  V30 1453 H 137.13 4.01683 -4.45433 0
M  V30 1454 H 138.809 4.04712 -5.04794 0
M  V30 1455 N 138.941 1.26152 0.944643 0
M  V30 1456 C 140.19 1.10883 1.68487 0
M  V30 1457 C 140.503 -0.348153 1.92477 0
M  V30 1458 O 141.709 -0.621459 2.64292 0
M  V30 1459 C 140.165 1.93624 3.03377 0
M  V30 1460 C 139.773 3.43875 2.87148 0
M  V30 1461 C 141.517 1.86954 3.81115 0
M  V30 1462 C 139.424 4.18875 4.1749 0
M  V30 1463 H 138.354 0.41135 0.631907 0
M  V30 1464 H 141.005 1.50433 1.05082 0
M  V30 1465 H 139.387 1.46904 3.67743 0
M  V30 1466 H 140.561 3.98338 2.31653 0
M  V30 1467 H 138.876 3.51744 2.22856 0
M  V30 1468 H 141.473 2.40275 4.77673 0
M  V30 1469 H 141.816 0.839518 4.07747 0
M  V30 1470 H 142.349 2.31477 3.23517 0
M  V30 1471 H 139.088 5.22332 3.96043 0
M  V30 1472 H 138.608 3.69193 4.72712 0
M  V30 1473 H 140.287 4.27134 4.85968 0
M  V30 1474 N 140.419 -1.14872 1.07899 0
M  V30 1475 C 141.644 -1.90202 0.826926 0
M  V30 1476 C 142.069 -1.77774 -0.614664 0
M  V30 1477 O 141.427 -1.11431 -1.43013 0
M  V30 1478 C 141.475 -3.38352 1.24702 0
M  V30 1479 O 140.579 -4.10497 0.39575 0
M  V30 1480 H 139.92 -0.591968 0.300782 0
M  V30 1481 H 142.45 -1.45437 1.43907 0
M  V30 1482 H 142.46 -3.89156 1.22563 0
M  V30 1483 H 141.135 -3.46715 2.29698 0
M  V30 1484 H 139.712 -3.69796 0.480117 0
M  V30 1485 N 141.898 -0.863906 -1.31812 0
M  V30 1486 C 142.848 -0.286898 -2.26188 0
M  V30 1487 C 143.832 0.572577 -1.50367 0
M  V30 1488 O 145.024 0.420447 -1.71934 0
M  V30 1489 C 142.153 0.515849 -3.39402 0
M  V30 1490 C 141.239 -0.356531 -4.22599 0
M  V30 1491 N 141.63 -1.44716 -4.84656 0
M  V30 1492 C 139.928 -0.147898 -4.45755 0
M  V30 1493 C 140.629 -1.98462 -5.46798 0
M  V30 1494 N 139.605 -1.28247 -5.28255 0
M  V30 1495 H 143.407 -1.12055 -2.717 0
M  V30 1496 H 140.921 -0.711012 -1.46008 0
M  V30 1497 H 142.918 0.945701 -4.06032 0
M  V30 1498 H 141.578 1.34718 -2.95434 0
M  V30 1499 H 142.589 -1.83008 -4.84488 0
M  V30 1500 H 139.266 0.647973 -4.12441 0
M  V30 1501 H 140.656 -2.89932 -6.06126 0
M  V30 1502 N 143.376 1.44774 -0.622745 0
M  V30 1503 C 144.601 2.06999 -0.128968 0
M  V30 1504 C 145.026 1.4617 1.1839 0
M  V30 1505 O 144.384 0.560007 1.72434 0
M  V30 1506 C 144.432 3.60595 -0.0188351 0
M  V30 1507 O 143.536 3.99398 1.02739 0
M  V30 1508 H 142.877 0.659047 -0.0809544 0
M  V30 1509 H 145.407 1.85784 -0.85705 0
M  V30 1510 H 145.417 4.07627 0.174476 0
M  V30 1511 H 144.092 4.04252 -0.977384 0
M  V30 1512 H 142.669 3.64011 0.809326 0
M  V30 1513 N 144.854 0.36279 1.53368 0
M  V30 1514 C 146.1 -0.228113 2.01513 0
M  V30 1515 C 146.433 -1.48648 1.2497 0
M  V30 1516 O 145.708 -1.91459 0.342616 0
M  V30 1517 C 145.991 -0.522884 3.56284 0
M  V30 1518 C 145.844 0.74892 4.43521 0
M  V30 1519 C 147.163 -1.32461 4.19693 0
M  V30 1520 H 144.282 -0.0814343 0.732487 0
M  V30 1521 H 146.924 0.48713 1.83649 0
M  V30 1522 H 145.074 -1.1322 3.71636 0
M  V30 1523 H 146.746 1.38648 4.39971 0
M  V30 1524 H 144.989 1.36986 4.11603 0
M  V30 1525 H 145.66 0.497667 5.49752 0
M  V30 1526 H 148.136 -0.809203 4.08156 0
M  V30 1527 H 147.012 -1.49961 5.28018 0
M  V30 1528 H 147.273 -2.33232 3.75573 0
M  V30 1529 N 146.332 -1.57332 0.0918853 0
M  V30 1530 C 147.242 -2.17368 -0.882505 0
M  V30 1531 C 148.258 -1.14226 -1.31257 0
M  V30 1532 O 149.434 -1.46582 -1.38115 0
M  V30 1533 C 146.499 -2.73962 -2.12476 0
M  V30 1534 C 145.56 -3.92048 -1.7492 0
M  V30 1535 C 144.793 -4.45933 -2.93223 0
M  V30 1536 O 145.016 -3.98764 -4.07852 0
M  V30 1537 O 143.95 -5.36999 -2.71875 0
M  V30 1538 H 147.776 -3.01031 -0.40172 0
M  V30 1539 H 145.361 -1.48813 -0.132291 0
M  V30 1540 H 147.243 -3.10147 -2.85283 0
M  V30 1541 H 145.918 -1.93347 -2.59613 0
M  V30 1542 H 144.825 -3.6068 -0.993025 0
M  V30 1543 H 146.158 -4.74017 -1.32548 0
M  V30 1544 N 147.81 0.181792 -1.56548 0
M  V30 1545 C 149.226 0.53316 -1.50431 0
M  V30 1546 C 149.426 1.85184 -0.794297 0
M  V30 1547 O 148.482 2.50058 -0.350318 0
M  V30 1548 C 149.795 0.575597 -2.9514 0
M  V30 1549 C 151.343 0.663519 -3.05886 0
M  V30 1550 C 151.818 0.736946 -4.52032 0
M  V30 1551 N 153.309 0.800118 -4.56237 0
M  V30 1552 C 154.044 0.877327 -5.66649 0
M  V30 1553 N 153.54 0.916016 -6.86718 0
M  V30 1554 N 155.333 0.915542 -5.54594 0
M  V30 1555 H 147.484 -0.683025 -2.01118 0
M  V30 1556 H 149.747 -0.244988 -0.915797 0
M  V30 1557 H 149.453 -0.324482 -3.502 0
M  V30 1558 H 149.327 1.42572 -3.49218 0
M  V30 1559 H 151.714 1.55403 -2.50867 0
M  V30 1560 H 151.795 -0.21307 -2.54911 0
M  V30 1561 H 151.439 -0.149262 -5.07681 0
M  V30 1562 H 151.369 1.62953 -5.00753 0
M  V30 1563 H 153.86 0.778926 -3.69785 0
M  V30 1564 H 154.173 0.975813 -7.66614 0
M  V30 1565 H 152.518 0.884469 -6.89349 0
M  V30 1566 H 155.709 0.882245 -4.59711 0
M  V30 1567 H 155.882 0.972253 -6.40665 0
M  V30 1568 N 149.288 1.51039 0.449983 0
M  V30 1569 C 150.516 1.66869 1.2232 0
M  V30 1570 C 150.931 0.360727 1.85322 0
M  V30 1571 O 150.288 -0.659531 1.70166 0
M  V30 1572 C 150.339 2.77524 2.31652 0
M  V30 1573 O 150.06 4.03252 1.7123 0
M  V30 1574 C 151.561 3.04512 3.2216 0
M  V30 1575 H 148.781 0.560326 0.369155 0
M  V30 1576 H 151.325 1.97385 0.534719 0
M  V30 1577 H 149.48 2.49642 2.96239 0
M  V30 1578 H 149.894 4.64609 2.43389 0
M  V30 1579 H 151.368 3.85551 3.95038 0
M  V30 1580 H 151.845 2.16415 3.8218 0
M  V30 1581 H 152.451 3.34005 2.63288 0
M  V30 1582 N 150.766 -0.704594 1.40972 0
M  V30 1583 C 151.996 -1.49138 1.42974 0
M  V30 1584 C 152.404 -1.89175 0.0308406 0
M  V30 1585 O 151.747 -1.56734 -0.958138 0
M  V30 1586 C 151.809 -2.79016 2.26694 0
M  V30 1587 C 151.473 -2.61236 3.74973 0
M  V30 1588 C 152.47 -2.27773 4.67349 0
M  V30 1589 C 150.155 -2.77158 4.18914 0
M  V30 1590 C 152.149 -2.10457 6.01653 0
M  V30 1591 C 149.836 -2.59459 5.53285 0
M  V30 1592 C 150.834 -2.26158 6.4447 0
M  V30 1593 O 150.522 -2.08605 7.76363 0
M  V30 1594 H 150.254 -0.466443 0.489292 0
M  V30 1595 H 152.808 -0.8758 1.85793 0
M  V30 1596 H 151.038 -3.42947 1.78673 0
M  V30 1597 H 152.727 -3.40782 2.20504 0
M  V30 1598 H 153.493 -2.15095 4.34694 0
M  V30 1599 H 149.372 -3.02064 3.48251 0
M  V30 1600 H 152.916 -1.84387 6.72791 0
M  V30 1601 H 148.813 -2.71725 5.85522 0
M  V30 1602 H 149.581 -2.23439 7.87412 0
M  V30 1603 N 152.244 -1.26651 -0.937939 0
M  V30 1604 C 153.174 -1.10993 -2.05433 0
M  V30 1605 C 154.155 -0.0142161 -1.70094 0
M  V30 1606 O 155.34 -0.186837 -1.93299 0
M  V30 1607 C 152.47 -0.745561 -3.39203 0
M  V30 1608 C 151.424 -1.79337 -3.88616 0
M  V30 1609 C 150.75 -1.28324 -5.19073 0
M  V30 1610 C 152.05 -3.19553 -4.13138 0
M  V30 1611 H 153.744 -2.0438 -2.1879 0
M  V30 1612 H 151.29 -0.984041 -1.05131 0
M  V30 1613 H 153.243 -0.622888 -4.16771 0
M  V30 1614 H 151.967 0.22401 -3.25831 0
M  V30 1615 H 150.626 -1.90477 -3.13231 0
M  V30 1616 H 150.274 -0.303414 -5.02084 0
M  V30 1617 H 149.974 -1.98369 -5.53103 0
M  V30 1618 H 151.498 -1.1733 -5.99221 0
M  V30 1619 H 152.912 -3.11471 -4.81309 0
M  V30 1620 H 151.309 -3.87218 -4.58457 0
M  V30 1621 H 152.379 -3.65368 -3.18801 0
M  V30 1622 N 153.722 1.14298 -1.08507 0
M  V30 1623 C 154.654 2.1907 -0.673859 0
M  V30 1624 C 155.667 1.60381 0.279577 0
M  V30 1625 O 156.856 1.78374 0.0670754 0
M  V30 1626 C 153.956 3.38888 0.0290979 0
M  V30 1627 C 153.129 4.27103 -0.943494 0
M  V30 1628 C 152.188 5.25477 -0.275676 0
M  V30 1629 O 151.214 5.61709 -0.920401 0
M  V30 1630 N 152.416 5.7227 0.974013 0
M  V30 1631 H 155.181 2.54965 -1.57521 0
M  V30 1632 H 152.742 1.29528 -0.971287 0
M  V30 1633 H 154.734 4.01761 0.48683 0
M  V30 1634 H 153.304 3.01309 0.832555 0
M  V30 1635 H 152.524 3.61149 -1.58004 0
M  V30 1636 H 153.812 4.82905 -1.60251 0
M  V30 1637 H 153.21 5.44965 1.51755 0
M  V30 1638 H 151.767 6.37127 1.37522 0
M  V30 1639 N 155.201 0.870884 1.31352 0
M  V30 1640 C 156.449 0.48132 1.96285 0
M  V30 1641 C 156.77 -0.969813 1.69173 0
M  V30 1642 O 156.04 -1.67998 1.00764 0
M  V30 1643 H 154.62 0.175002 0.726212 0
M  V30 1644 H 157.282 1.11087 1.60143 0
M  V30 1645 H 156.378 0.639825 3.05471 0
M  V30 1646 N 156.679 -1.44442 0.630414 0
M  V30 1647 C 157.927 -2.01653 0.134351 0
M  V30 1648 C 158.248 -1.49836 -1.24796 0
M  V30 1649 O 157.518 -0.701684 -1.82902 0
M  V30 1650 H 156.098 -0.74554 0.0466769 0
M  V30 1651 H 158.76 -1.76952 0.816955 0
M  V30 1652 H 157.856 -3.11935 0.101498 0
M  V30 1653 N 158.157 -0.370918 -1.53173 0
M  V30 1654 C 159.067 0.480823 -2.2962 0
M  V30 1655 C 160.083 1.08789 -1.35798 0
M  V30 1656 O 161.259 1.09768 -1.68858 0
M  V30 1657 C 158.324 1.60227 -3.07454 0
M  V30 1658 C 157.385 1.0222 -4.16953 0
M  V30 1659 C 156.618 2.0902 -4.91066 0
M  V30 1660 O 156.841 3.30222 -4.65091 0
M  V30 1661 O 155.775 1.71778 -5.76867 0
M  V30 1662 H 159.601 -0.141421 -3.03371 0
M  V30 1663 H 157.186 -0.135146 -1.48787 0
M  V30 1664 H 159.068 2.25417 -3.56041 0
M  V30 1665 H 157.743 2.20982 -2.36535 0
M  V30 1666 H 156.65 0.334064 -3.72605 0
M  V30 1667 H 157.983 0.459131 -4.90054 0
M  V30 1668 N 159.635 1.57281 -0.100228 0
M  V30 1669 C 160.883 1.94153 0.561157 0
M  V30 1670 C 161.204 0.983157 1.68401 0
M  V30 1671 O 160.474 0.0361132 1.95867 0
M  V30 1672 H 159.054 0.716791 0.210283 0
M  V30 1673 H 161.716 1.94202 -0.164765 0
M  V30 1674 H 160.812 2.96709 0.968008 0
M  V30 1675 N 161.113 -0.173488 1.56642 0
M  V30 1676 C 162.353 -0.896984 1.83667 0
M  V30 1677 C 162.717 -1.79523 0.680842 0
M  V30 1678 O 163.918 -2.55616 0.831488 0
M  V30 1679 C 162.189 -1.67351 3.15798 0
M  V30 1680 S 163.748 -2.44607 3.64298 0
M  V30 1681 H 160.566 -0.300464 0.644393 0
M  V30 1682 H 163.168 -0.158775 1.94854 0
M  V30 1683 H 161.872 -1.00462 3.97914 0
M  V30 1684 H 161.403 -2.45313 3.07546 0
M  V30 1685 H 163.418 -3.69261 3.31452 0
M  V30 1686 N 162.591 -1.51276 -0.441967 0
M  V30 1687 C 163.521 -1.752 -1.54361 0
M  V30 1688 C 164.502 -0.601682 -1.59103 0
M  V30 1689 O 165.687 -0.843913 -1.74905 0
M  V30 1690 C 162.817 -1.87282 -2.92477 0
M  V30 1691 C 161.771 -3.02687 -3.02596 0
M  V30 1692 C 161.097 -2.99947 -4.42647 0
M  V30 1693 C 162.397 -4.4273 -2.77106 0
M  V30 1694 H 164.091 -2.67442 -1.34592 0
M  V30 1695 H 161.637 -1.28694 -0.646048 0
M  V30 1696 H 163.59 -2.02602 -3.695 0
M  V30 1697 H 162.314 -0.916844 -3.13467 0
M  V30 1698 H 160.973 -2.87065 -2.28012 0
M  V30 1699 H 160.621 -2.02136 -4.60597 0
M  V30 1700 H 160.321 -3.77439 -4.50348 0
M  V30 1701 H 161.845 -3.17354 -5.2165 0
M  V30 1702 H 163.259 -4.58727 -3.43864 0
M  V30 1703 H 161.656 -5.21893 -2.96222 0
M  V30 1704 H 162.726 -4.53087 -1.72744 0
M  V30 1705 N 164.069 0.697108 -1.41344 0
M  V30 1706 C 165.294 1.49096 -1.44171 0
M  V30 1707 C 165.719 1.88038 -0.0481568 0
M  V30 1708 O 165.077 1.54525 0.948243 0
M  V30 1709 C 165.125 2.73088 -2.3549 0
M  V30 1710 O 164.229 3.70514 -1.81088 0
M  V30 1711 H 163.57 0.448801 -0.489361 0
M  V30 1712 H 166.1 0.856992 -1.85787 0
M  V30 1713 H 166.11 3.21413 -2.51312 0
M  V30 1714 H 164.785 2.44081 -3.36745 0
M  V30 1715 H 163.362 3.29441 -1.74708 0
M  V30 1716 N 165.547 1.27147 0.931209 0
M  V30 1717 C 166.793 1.13446 1.68101 0
M  V30 1718 C 167.126 -0.319628 1.91552 0
M  V30 1719 O 166.401 -1.23407 1.50336 0
M  V30 1720 C 166.684 1.91482 3.0497 0
M  V30 1721 C 166.537 3.44855 2.88782 0
M  V30 1722 C 167.856 1.71651 4.05246 0
M  V30 1723 H 164.975 0.413498 0.610072 0
M  V30 1724 H 167.617 1.56261 1.08086 0
M  V30 1725 H 165.767 1.55095 3.56199 0
M  V30 1726 H 167.439 3.9105 2.44698 0
M  V30 1727 H 165.682 3.71373 2.24198 0
M  V30 1728 H 166.353 3.94694 3.85902 0
M  V30 1729 H 168.829 2.0337 3.63015 0
M  V30 1730 H 167.705 2.28651 4.99009 0
M  V30 1731 H 167.966 0.663555 4.37092 0
M  V30 1732 N 167.025 -1.13721 1.09112 0
M  V30 1733 C 168.302 -1.81155 0.737706 0
M  V30 1734 C 168.682 -1.96253 -0.777683 0
M  V30 1735 O 168.03 -1.52807 -1.69889 0
M  V30 1736 C 168.24 -3.16392 1.47299 0
M  V30 1737 C 169.588 -3.91787 1.63671 0
M  V30 1738 O 170.612 -3.26005 1.43524 0
M  V30 1739 O 169.471 -5.0977 1.96969 0
M  V30 1740 H 166.565 -0.783518 0.26463 0
M  V30 1741 H 169.111 -1.20676 1.19312 0
M  V30 1742 H 167.883 -3.0061 2.50498 0
M  V30 1743 H 167.506 -3.8457 1.00953 0
M  V30 1744 N 168.503 -0.877838 -1.30888 0
M  V30 1745 C 169.919 -0.570844 -1.49042 0
M  V30 1746 C 170.119 0.893159 -1.80624 0
M  V30 1747 O 169.175 1.67485 -1.88958 0
M  V30 1748 C 170.488 -1.47784 -2.61878 0
M  V30 1749 C 172.036 -1.48071 -2.75761 0
M  V30 1750 C 172.511 -2.37347 -3.91702 0
M  V30 1751 N 174.002 -2.35271 -3.99001 0
M  V30 1752 C 174.737 -3.01063 -4.88004 0
M  V30 1753 N 174.233 -3.76055 -5.81854 0
M  V30 1754 N 176.026 -2.90332 -4.81315 0
M  V30 1755 H 168.177 -1.82502 -1.0866 0
M  V30 1756 H 170.44 -0.780797 -0.537644 0
M  V30 1757 H 170.146 -2.51993 -2.45341 0
M  V30 1758 H 170.02 -1.18215 -3.58197 0
M  V30 1759 H 172.407 -0.446166 -2.91708 0
M  V30 1760 H 172.488 -1.81668 -1.80085 0
M  V30 1761 H 172.132 -3.40883 -3.76512 0
M  V30 1762 H 172.062 -2.01071 -4.86701 0
M  V30 1763 H 174.553 -1.80768 -3.3186 0
M  V30 1764 H 174.866 -4.23366 -6.46514 0
M  V30 1765 H 173.211 -3.80163 -5.81808 0
M  V30 1766 H 176.402 -2.31278 -4.06974 0
M  V30 1767 H 176.575 -3.41885 -5.50471 0
M  V30 1768 N 169.982 1.44106 -0.638065 0
M  V30 1769 C 170.892 2.34513 0.0637334 0
M  V30 1770 C 171.908 1.53018 0.828346 0
M  V30 1771 O 173.084 1.85723 0.779036 0
M  V30 1772 C 170.149 3.31095 1.02844 0
M  V30 1773 C 169.21 4.28497 0.26244 0
M  V30 1774 C 168.443 5.20465 1.1812 0
M  V30 1775 O 168.666 5.16514 2.42011 0
M  V30 1776 O 167.6 5.98251 0.661774 0
M  V30 1777 H 171.426 2.95989 -0.68003 0
M  V30 1778 H 169.011 1.43994 -0.398252 0
M  V30 1779 H 170.893 3.90526 1.58327 0
M  V30 1780 H 169.568 2.72144 1.7527 0
M  V30 1781 H 168.475 3.72592 -0.335602 0
M  V30 1782 H 169.808 4.90388 -0.421936 0
M  V30 1783 N 171.46 0.379036 1.52974 0
M  V30 1784 C 172.706 -0.206727 2.01744 0
M  V30 1785 C 173.039 -1.47314 1.26539 0
M  V30 1786 O 172.314 -1.91084 0.362903 0
M  V30 1787 C 172.597 -0.485066 3.56818 0
M  V30 1788 C 172.45 0.795919 4.42702 0
M  V30 1789 C 173.769 -1.28003 4.21074 0
M  V30 1790 H 170.888 -0.0736607 0.73331 0
M  V30 1791 H 173.53 0.506581 1.83122 0
M  V30 1792 H 171.68 -1.09272 3.72816 0
M  V30 1793 H 173.352 1.43307 4.38476 0
M  V30 1794 H 171.595 1.41344 4.10127 0
M  V30 1795 H 172.266 0.555947 5.49193 0
M  V30 1796 H 174.742 -0.765867 4.08991 0
M  V30 1797 H 173.618 -1.44352 5.29579 0
M  V30 1798 H 173.879 -2.29236 3.78026 0
M  V30 1799 N 172.938 -1.57226 0.108567 0
M  V30 1800 C 174.349 -1.8195 -0.418464 0
M  V30 1801 C 174.7 -1.02508 -1.67292 0
M  V30 1802 O 173.825 -0.258496 -2.14851 0
M  V30 1803 C 174.42 -3.30028 -0.765979 0
M  V30 1804 C 172.979 -3.55469 -1.23769 0
M  V30 1805 C 172.126 -2.7625 -0.241106 0
M  V30 1806 H 175.077 -1.55149 0.33384 0
M  V30 1807 H 175.098 -3.44086 -1.62434 0
M  V30 1808 H 174.61 -3.87821 0.147219 0
M  V30 1809 H 172.711 -3.03022 -2.16814 0
M  V30 1810 H 172.824 -4.6408 -1.19022 0
M  V30 1811 H 171.188 -2.44133 -0.72602 0
M  V30 1812 H 171.971 -3.36797 0.665007 0
M  V30 1813 N 174.416 0.165178 -1.56732 0
M  V30 1814 C 175.664 0.879068 -1.8198 0
M  V30 1815 C 175.985 1.82514 -0.686561 0
M  V30 1816 O 175.255 1.93694 0.293146 0
M  V30 1817 H 173.835 0.327608 -0.671329 0
M  V30 1818 H 176.497 0.163526 -1.94213 0
M  V30 1819 H 175.593 1.45228 -2.76252 0
M  V30 1820 N 175.894 1.51508 0.433938 0
M  V30 1821 C 177.124 1.67914 1.20369 0
M  V30 1822 C 177.532 0.377461 1.85397 0
M  V30 1823 O 176.875 -0.654255 1.71654 0
M  V30 1824 C 176.937 2.74045 2.32679 0
M  V30 1825 C 176.601 4.16543 1.87991 0
M  V30 1826 C 177.598 5.01211 1.38145 0
M  V30 1827 C 175.283 4.6266 1.95579 0
M  V30 1828 C 177.277 6.30056 0.964774 0
M  V30 1829 C 174.964 5.91501 1.53523 0
M  V30 1830 C 175.962 6.75027 1.04055 0
M  V30 1831 O 175.65 8.01459 0.625964 0
M  V30 1832 H 175.382 0.566578 0.368735 0
M  V30 1833 H 177.936 1.98709 0.51999 0
M  V30 1834 H 176.166 2.38572 3.04336 0
M  V30 1835 H 177.855 2.79295 2.94532 0
M  V30 1836 H 178.621 4.66783 1.31675 0
M  V30 1837 H 174.5 3.97767 2.33029 0
M  V30 1838 H 178.044 6.95202 0.57796 0
M  V30 1839 H 173.941 6.25442 1.59665 0
M  V30 1840 H 174.709 8.15043 0.751509 0
M  V30 1841 N 177.372 -0.689602 1.41712 0
M  V30 1842 C 178.618 -1.45181 1.41599 0
M  V30 1843 C 178.951 -1.94181 0.0270081 0
M  V30 1844 O 178.226 -1.6993 -0.946265 0
M  V30 1845 C 178.509 -2.65945 2.42787 0
M  V30 1846 C 178.362 -2.22672 3.90816 0
M  V30 1847 C 179.681 -3.68149 2.41151 0
M  V30 1848 H 176.8 -0.526576 0.515642 0
M  V30 1849 H 179.442 -0.784947 1.73028 0
M  V30 1850 H 177.592 -3.2284 2.16116 0
M  V30 1851 H 179.264 -1.71058 4.28412 0
M  V30 1852 H 177.507 -1.54394 4.05395 0
M  V30 1853 H 178.178 -3.0935 4.57172 0
M  V30 1854 H 180.654 -3.2094 2.64834 0
M  V30 1855 H 179.53 -4.50248 3.13955 0
M  V30 1856 H 179.791 -4.18259 1.43221 0
M  V30 1857 N 178.85 -1.27639 -0.924453 0
M  V30 1858 C 180.261 -1.12834 -1.48746 0
M  V30 1859 C 180.612 0.285505 -1.94112 0
M  V30 1860 O 179.737 1.17874 -1.81479 0
M  V30 1861 C 180.332 -2.04217 -2.70334 0
M  V30 1862 C 178.891 -1.93509 -3.22848 0
M  V30 1863 C 178.038 -1.96583 -1.95577 0
M  V30 1864 H 180.989 -1.40484 -0.738233 0
M  V30 1865 H 181.01 -1.59989 -3.4523 0
M  V30 1866 H 180.522 -3.07111 -2.37285 0
M  V30 1867 H 178.623 -0.936131 -3.60649 0
M  V30 1868 H 178.736 -2.79917 -3.88823 0
M  V30 1869 H 177.1 -1.4085 -2.12211 0
M  V30 1870 H 177.883 -3.01137 -1.64837 0
M  V30 1871 N 180.328 1.1314 -1.09713 0
M  V30 1872 C 181.744 1.36477 -0.827423 0
M  V30 1873 C 181.944 1.93654 0.556817 0
M  V30 1874 O 181 2.15791 1.31112 0
M  V30 1875 C 182.313 2.31334 -1.92106 0
M  V30 1876 C 183.861 2.44943 -1.94864 0
M  V30 1877 C 184.336 3.4311 -3.0338 0
M  V30 1878 N 185.827 3.50662 -3.02639 0
M  V30 1879 C 186.562 4.2651 -3.83246 0
M  V30 1880 N 186.058 5.05485 -4.73768 0
M  V30 1881 N 187.851 4.2184 -3.71493 0
M  V30 1882 H 180.002 0.743807 -1.9895 0
M  V30 1883 H 182.265 0.389823 -0.864143 0
M  V30 1884 H 181.971 1.96483 -2.91698 0
M  V30 1885 H 181.845 3.31381 -1.80184 0
M  V30 1886 H 184.232 2.79079 -0.959099 0
M  V30 1887 H 184.313 1.4481 -2.10864 0
M  V30 1888 H 183.957 3.09704 -4.02549 0
M  V30 1889 H 183.887 4.43055 -2.84622 0
M  V30 1890 H 186.378 2.94315 -2.37039 0
M  V30 1891 H 186.691 5.60675 -5.3185 0
M  V30 1892 H 185.036 5.04708 -4.77802 0
M  V30 1893 H 188.227 3.5922 -3.00131 0
M  V30 1894 H 188.4 4.80697 -4.3455 0
M  V30 1895 N 181.806 0.884767 1.30421 0
M  V30 1896 C 183.036 0.517293 2.00019 0
M  V30 1897 C 183.444 -0.898632 1.66497 0
M  V30 1898 O 182.787 -1.60245 0.898181 0
M  V30 1899 C 182.849 0.612025 3.54252 0
M  V30 1900 C 182.513 1.99222 4.1129 0
M  V30 1901 C 183.51 2.9616 4.273 0
M  V30 1902 C 181.195 2.29755 4.46674 0
M  V30 1903 C 183.189 4.21764 4.77906 0
M  V30 1904 C 180.876 3.55606 4.96979 0
M  V30 1905 C 181.874 4.51425 5.12547 0
M  V30 1906 O 181.562 5.75043 5.61766 0
M  V30 1907 H 181.294 0.198529 0.64619 0
M  V30 1908 H 183.848 1.1919 1.67281 0
M  V30 1909 H 182.078 -0.119561 3.86515 0
M  V30 1910 H 183.767 0.255859 4.05093 0
M  V30 1911 H 184.533 2.73882 4.00267 0
M  V30 1912 H 180.412 1.55942 4.33824 0
M  V30 1913 H 183.956 4.96561 4.89972 0
M  V30 1914 H 179.853 3.7772 5.23448 0
M  V30 1915 H 180.621 5.77422 5.80109 0
M  V30 1916 N 183.284 -1.43765 0.645699 0
M  V30 1917 C 184.512 -2.06253 0.163556 0
M  V30 1918 C 184.927 -1.48352 -1.16778 0
M  V30 1919 O 184.284 -0.611932 -1.71935 0
M  V30 1920 C 184.335 -3.61453 0.0583186 0
M  V30 1921 O 184.056 -4.172 1.33702 0
M  V30 1922 C 185.557 -4.41002 -0.450795 0
M  V30 1923 H 182.777 -0.665413 0.0864077 0
M  V30 1924 H 185.321 -1.84396 0.884222 0
M  V30 1925 H 183.476 -3.82522 -0.612865 0
M  V30 1926 H 183.89 -5.10791 1.19131 0
M  V30 1927 H 185.364 -5.49966 -0.473403 0
M  V30 1928 H 185.841 -4.13488 -1.48068 0
M  V30 1929 H 186.447 -4.24886 0.187637 0
M  V30 1930 N 184.763 -0.387143 -1.52771 0
M  V30 1931 C 186.179 -0.037007 -1.59557 0
M  V30 1932 C 186.379 1.44801 -1.40124 0
M  V30 1933 O 185.435 2.21227 -1.21716 0
M  V30 1934 C 186.748 -0.512256 -2.96305 0
M  V30 1935 C 188.296 -0.468328 -3.09476 0
M  V30 1936 C 188.771 -0.919731 -4.4867 0
M  V30 1937 N 190.262 -0.875656 -4.54848 0
M  V30 1938 C 190.997 -1.19637 -5.6078 0
M  V30 1939 N 190.493 -1.58745 -6.74368 0
M  V30 1940 N 192.286 -1.11776 -5.50874 0
M  V30 1941 H 184.437 -1.35395 -1.63652 0
M  V30 1942 H 186.7 -0.554818 -0.768688 0
M  V30 1943 H 186.406 -1.54935 -3.15734 0
M  V30 1944 H 186.28 0.089805 -3.77093 0
M  V30 1945 H 188.667 0.559671 -2.89744 0
M  V30 1946 H 188.748 -1.10616 -2.30646 0
M  V30 1947 H 188.392 -1.94595 -4.69143 0
M  V30 1948 H 188.322 -0.258927 -5.25963 0
M  V30 1949 H 190.813 -0.587843 -3.733 0
M  V30 1950 H 191.126 -1.81586 -7.51163 0
M  V30 1951 H 189.471 -1.6263 -6.75705 0
M  V30 1952 H 192.662 -0.811264 -4.61016 0
M  V30 1953 H 192.835 -1.37103 -6.3333 0
M  V30 1954 N 186.241 1.57166 -0.116904 0
M  V30 1955 C 187.49 1.94298 0.541407 0
M  V30 1956 C 187.803 1.00236 1.67964 0
M  V30 1957 O 189.009 1.26826 2.40057 0
M  V30 1958 C 187.465 3.45306 1.01449 0
M  V30 1959 C 187.073 4.47899 -0.0951738 0
M  V30 1960 C 188.817 3.91361 1.6443 0
M  V30 1961 C 186.724 5.90083 0.394491 0
M  V30 1962 H 185.654 0.725308 0.206019 0
M  V30 1963 H 188.305 1.82446 -0.196419 0
M  V30 1964 H 186.687 3.52385 1.80667 0
M  V30 1965 H 187.861 4.52486 -0.871374 0
M  V30 1966 H 186.176 4.11583 -0.631505 0
M  V30 1967 H 188.773 4.95004 2.02176 0
M  V30 1968 H 189.116 3.3122 2.52189 0
M  V30 1969 H 189.649 3.87073 0.917559 0
M  V30 1970 H 186.388 6.53974 -0.447004 0
M  V30 1971 H 185.908 5.88921 1.13722 0
M  V30 1972 H 187.587 6.41307 0.856399 0
M  V30 1973 N 187.719 -0.156864 1.56817 0
M  V30 1974 C 188.947 -0.886316 1.86955 0
M  V30 1975 C 189.362 -1.75185 0.703975 0
M  V30 1976 O 188.719 -1.79555 -0.326552 0
M  V30 1977 C 188.77 -1.75117 3.16253 0
M  V30 1978 O 188.491 -0.920537 4.2832 0
M  V30 1979 C 189.992 -2.58905 3.59837 0
M  V30 1980 H 187.212 -0.25678 0.619923 0
M  V30 1981 H 189.756 -0.152615 2.0393 0
M  V30 1982 H 187.911 -2.43805 3.01062 0
M  V30 1983 H 188.325 -1.51337 5.02192 0
M  V30 1984 H 189.799 -3.1518 4.53172 0
M  V30 1985 H 190.276 -3.34472 2.84649 0
M  V30 1986 H 190.882 -1.95526 3.7769 0
M  V30 1987 N 189.197 -1.51736 -0.425897 0
M  V30 1988 C 190.443 -1.65214 -1.1761 0
M  V30 1989 C 190.776 -0.372778 -1.90589 0
M  V30 1990 O 190.051 0.628139 -1.84078 0
M  V30 1991 C 190.334 -2.86312 -2.18398 0
M  V30 1992 C 190.187 -4.24254 -1.49426 0
M  V30 1993 C 191.506 -3.02925 -3.19256 0
M  V30 1994 H 188.625 -0.601263 -0.426206 0
M  V30 1995 H 191.267 -1.8425 -0.463882 0
M  V30 1996 H 189.417 -2.70213 -2.79137 0
M  V30 1997 H 191.089 -4.52046 -0.919362 0
M  V30 1998 H 189.332 -4.26426 -0.796432 0
M  V30 1999 H 190.003 -5.05001 -2.22885 0
M  V30 2000 H 192.479 -3.1781 -2.68581 0
M  V30 2001 H 191.355 -3.89199 -3.8706 0
M  V30 2002 H 191.616 -2.15497 -3.86023 0
M  V30 2003 N 190.675 0.682077 -1.42076 0
M  V30 2004 C 191.622 1.79578 -1.44984 0
M  V30 2005 C 192.592 1.6332 -0.302614 0
M  V30 2006 O 193.777 1.83978 -0.505633 0
M  V30 2007 C 190.917 3.1756 -1.35091 0
M  V30 2008 C 190.03 3.45156 -2.59791 0
M  V30 2009 C 189.165 4.72826 -2.42093 0
M  V30 2010 C 188.204 4.93433 -3.62202 0
M  V30 2011 N 187.341 6.12338 -3.43491 0
M  V30 2012 H 192.181 1.76427 -2.40161 0
M  V30 2013 H 189.718 0.861376 -1.19242 0
M  V30 2014 H 191.676 3.97287 -1.27354 0
M  V30 2015 H 190.306 3.19854 -0.435133 0
M  V30 2016 H 189.358 2.59736 -2.77923 0
M  V30 2017 H 190.67 3.5628 -3.49094 0
M  V30 2018 H 189.824 5.60631 -2.319 0
M  V30 2019 H 188.563 4.63973 -1.50268 0
M  V30 2020 H 187.568 4.04073 -3.72834 0
M  V30 2021 H 188.793 5.04136 -4.54998 0
M  V30 2022 H 186.739 6.04672 -2.54377 0
M  V30 2023 H 186.656 6.2429 -4.26377 0
M  V30 2024 H 187.924 7.02841 -3.37097 0
M  V30 2025 N 192.153 1.28127 0.917671 0
M  V30 2026 C 193.116 1.11744 2.00115 0
M  V30 2027 C 194.116 0.0583052 1.60694 0
M  V30 2028 O 195.306 0.303755 1.71531 0
M  V30 2029 C 192.438 0.704862 3.33533 0
M  V30 2030 H 193.631 2.07966 2.16079 0
M  V30 2031 H 191.184 1.11058 1.09981 0
M  V30 2032 H 191.919 -0.258299 3.2327 0
M  V30 2033 H 191.704 1.4699 3.63505 0
M  V30 2034 H 193.194 0.612768 4.1308 0
M  V30 2035 N 193.631 -1.12557 1.10312 0
M  V30 2036 C 194.859 -1.87864 0.866873 0
M  V30 2037 C 195.274 -1.79588 -0.582557 0
M  V30 2038 O 194.631 -1.16887 -1.40156 0
M  V30 2039 C 194.682 -3.37125 1.30496 0
M  V30 2040 O 194.403 -3.45201 2.69755 0
M  V30 2041 C 195.904 -4.29373 1.10243 0
M  V30 2042 H 193.124 -0.594452 0.311236 0
M  V30 2043 H 195.668 -1.42429 1.46745 0
M  V30 2044 H 193.823 -3.80109 0.748081 0
M  V30 2045 H 194.237 -4.38056 2.88457 0
M  V30 2046 H 195.711 -5.32394 1.45811 0
M  V30 2047 H 196.188 -4.39181 0.0409492 0
M  V30 2048 H 196.794 -3.92169 1.64571 0
M  V30 2049 N 195.109 -0.891671 -1.2995 0
M  V30 2050 C 196.334 -0.527932 -2.00568 0
M  V30 2051 C 196.759 0.877969 -1.66353 0
M  V30 2052 O 196.117 1.58301 -0.883762 0
M  V30 2053 C 196.165 -0.717745 -3.53385 0
M  V30 2054 O 195.269 0.233376 -4.11739 0
M  V30 2055 H 194.61 -0.20722 -0.630837 0
M  V30 2056 H 197.14 -1.20105 -1.65638 0
M  V30 2057 H 197.15 -0.619307 -4.03272 0
M  V30 2058 H 195.825 -1.74276 -3.77625 0
M  V30 2059 H 194.402 0.0880706 -3.72796 0
M  V30 2060 N 196.587 1.43421 -0.653314 0
M  V30 2061 C 197.836 2.01032 -0.164076 0
M  V30 2062 C 198.149 1.52147 1.22926 0
M  V30 2063 O 199.355 2.02031 1.81371 0
M  V30 2064 C 197.811 3.59082 -0.24252 0
M  V30 2065 C 197.419 4.1696 -1.63855 0
M  V30 2066 C 199.163 4.24079 0.18911 0
M  V30 2067 C 197.07 5.67304 -1.67092 0
M  V30 2068 H 196 0.751798 -0.0575769 0
M  V30 2069 H 198.651 1.6439 -0.815362 0
M  V30 2070 H 197.033 3.93125 0.476276 0
M  V30 2071 H 198.207 3.94416 -2.38271 0
M  V30 2072 H 196.522 3.64335 -2.01616 0
M  V30 2073 H 199.119 5.34381 0.184775 0
M  V30 2074 H 199.462 3.98005 1.22056 0
M  V30 2075 H 199.995 3.94918 -0.477938 0
M  V30 2076 H 196.734 5.98145 -2.68146 0
M  V30 2077 H 196.254 5.91904 -0.970014 0
M  V30 2078 H 197.933 6.31344 -1.4147 0
M  V30 2079 N 198.065 0.39524 1.52563 0
M  V30 2080 C 199.013 -0.451859 2.28169 0
M  V30 2081 C 200.007 -1.05792 1.32304 0
M  V30 2082 O 201.213 -0.997718 1.49818 0
M  V30 2083 H 197.588 -0.164481 0.733792 0
M  V30 2084 H 199.559 0.207199 2.9768 0
M  V30 2085 C 198.308 -1.56385 3.10546 0
M  V30 2086 H 197.631 -1.10682 3.84174 0
M  V30 2087 H 199.071 -2.13067 3.66577 0
M  V30 2088 C 197.53 -2.52328 2.23231 0
M  V30 2089 O 198.06 -3.5588 1.86312 0
M  V30 2090 N 196.266 -2.22209 1.87274 0
M  V30 2091 H 195.813 -1.38033 2.17496 0
M  V30 2092 H 195.771 -2.86652 1.29143 0
M  V30 2093 N 199.544 -1.57102 0.125237 0
M  V30 2094 C 200.792 -1.95021 -0.530198 0
M  V30 2095 C 201.113 -1.00982 -1.66816 0
M  V30 2096 O 200.383 -0.0672693 -1.95784 0
M  V30 2097 H 198.963 -0.720046 -0.198853 0
M  V30 2098 H 201.625 -1.93916 0.19564 0
M  V30 2099 H 200.721 -2.98211 -0.920681 0
M  V30 2100 N 201.022 0.148545 -1.56898 0
M  V30 2101 C 201.932 1.20293 -2.01412 0
M  V30 2102 C 202.948 1.47107 -0.929273 0
M  V30 2103 O 204.124 1.58807 -1.23863 0
M  V30 2104 C 201.189 2.51682 -2.38447 0
M  V30 2105 C 200.25 2.32529 -3.60872 0
M  V30 2106 C 199.483 3.57653 -3.96132 0
M  V30 2107 O 199.706 4.63771 -3.32073 0
M  V30 2108 O 198.64 3.50408 -4.89385 0
M  V30 2109 H 202.466 0.855025 -2.91416 0
M  V30 2110 H 200.051 0.357151 -1.45068 0
M  V30 2111 H 201.933 3.29147 -2.63135 0
M  V30 2112 H 200.608 2.86006 -1.51599 0
M  V30 2113 H 199.515 1.53019 -3.41373 0
M  V30 2114 H 200.848 2.03121 -4.48333 0
M  V30 2115 N 202.5 1.5196 0.417844 0
M  V30 2116 C 203.41 1.77554 1.53336 0
M  V30 2117 C 204.426 0.660655 1.6097 0
M  V30 2118 O 205.602 0.945099 1.77848 0
M  V30 2119 C 202.667 1.91291 2.89152 0
M  V30 2120 C 201.728 3.15183 2.91475 0
M  V30 2121 C 200.961 3.28256 4.20813 0
M  V30 2122 O 201.184 2.46798 5.14244 0
M  V30 2123 O 200.118 4.21356 4.29817 0
M  V30 2124 H 203.944 2.7222 1.34647 0
M  V30 2125 H 201.529 1.36698 0.602828 0
M  V30 2126 H 203.411 2.02199 3.69721 0
M  V30 2127 H 202.086 0.998129 3.07927 0
M  V30 2128 H 200.993 3.09739 2.09791 0
M  V30 2129 H 202.326 4.06414 2.77648 0
M  V30 2130 N 203.978 -0.674533 1.42435 0
M  V30 2131 C 205.224 -1.43671 1.43131 0
M  V30 2132 C 205.557 -1.94142 0.0476021 0
M  V30 2133 O 204.832 -1.70924 -0.928188 0
M  V30 2134 C 205.115 -2.63355 2.45594 0
M  V30 2135 C 204.968 -2.18514 3.93156 0
M  V30 2136 C 206.287 -3.65571 2.45043 0
M  V30 2137 H 203.406 -0.521077 0.521198 0
M  V30 2138 H 206.048 -0.766551 1.7385 0
M  V30 2139 H 204.198 -3.2053 2.19528 0
M  V30 2140 H 205.87 -1.66504 4.30202 0
M  V30 2141 H 204.113 -1.50086 4.07009 0
M  V30 2142 H 204.784 -3.04484 4.60428 0
M  V30 2143 H 207.26 -3.18113 2.68223 0
M  V30 2144 H 206.136 -4.46893 3.18713 0
M  V30 2145 H 206.397 -4.16716 1.47649 0
M  V30 2146 N 205.456 -1.28612 -0.910864 0
M  V30 2147 C 206.403 -1.12786 -2.01365 0
M  V30 2148 C 207.373 -0.024201 -1.66082 0
M  V30 2149 O 208.558 -0.189667 -1.89855 0
M  V30 2150 C 205.698 -0.798743 -3.35729 0
M  V30 2151 C 204.811 -1.98173 -3.83864 0
M  V30 2152 C 203.946 -1.59298 -5.06752 0
M  V30 2153 C 202.985 -2.74245 -5.47226 0
M  V30 2154 N 202.122 -2.35842 -6.61304 0
M  V30 2155 H 206.962 -2.07142 -2.14234 0
M  V30 2156 H 204.499 -1.03093 -1.0493 0
M  V30 2157 H 206.457 -0.588662 -4.13026 0
M  V30 2158 H 205.087 0.10789 -3.2262 0
M  V30 2159 H 204.139 -2.30386 -3.02699 0
M  V30 2160 H 205.451 -2.84343 -4.09818 0
M  V30 2161 H 204.605 -1.34513 -5.916 0
M  V30 2162 H 203.344 -0.702618 -4.82612 0
M  V30 2163 H 202.349 -2.99725 -4.60918 0
M  V30 2164 H 203.574 -3.63928 -5.73353 0
M  V30 2165 H 201.52 -1.49279 -6.38789 0
M  V30 2166 H 201.437 -3.15546 -6.86998 0
M  V30 2167 H 202.705 -2.14348 -7.4945 0
M  V30 2168 N 206.934 1.1197 -1.10907 0
M  V30 2169 C 207.864 2.19928 -0.784473 0
M  V30 2170 C 208.845 1.6833 0.244726 0
M  V30 2171 O 210.03 1.93892 0.109418 0
M  V30 2172 C 207.16 3.46597 -0.220827 0
M  V30 2173 C 206.114 4.11376 -1.18127 0
M  V30 2174 C 205.44 5.32554 -0.478594 0
M  V30 2175 C 206.74 4.56945 -2.52979 0
M  V30 2176 H 208.434 2.47337 -1.68715 0
M  V30 2177 H 205.98 1.18879 -0.812642 0
M  V30 2178 H 207.933 4.21396 0.0184278 0
M  V30 2179 H 206.657 3.1863 0.717113 0
M  V30 2180 H 205.316 3.38564 -1.40606 0
M  V30 2181 H 204.964 5.00856 0.463976 0
M  V30 2182 H 204.664 5.76844 -1.11912 0
M  V30 2183 H 206.188 6.10096 -0.248 0
M  V30 2184 H 207.602 5.23093 -2.3462 0
M  V30 2185 H 205.999 5.1203 -3.12962 0
M  V30 2186 H 207.069 3.70676 -3.12614 0
M  V30 2187 N 208.412 0.89855 1.29475 0
M  V30 2188 C 209.828 0.594483 1.48115 0
M  V30 2189 C 210.028 -0.86431 1.82022 0
M  V30 2190 O 209.084 -1.64457 1.91599 0
M  V30 2191 C 210.397 1.51932 2.59494 0
M  V30 2192 C 211.945 1.5244 2.7337 0
M  V30 2193 C 212.42 2.43548 3.87877 0
M  V30 2194 N 213.911 2.41589 3.95208 0
M  V30 2195 C 214.646 3.08789 4.83153 0
M  V30 2196 N 214.142 3.85265 5.75798 0
M  V30 2197 N 215.935 2.97952 4.76635 0
M  V30 2198 H 208.086 1.84207 1.05742 0
M  V30 2199 H 210.349 0.789251 0.525154 0
M  V30 2200 H 210.055 2.55865 2.41301 0
M  V30 2201 H 209.929 1.23899 3.56271 0
M  V30 2202 H 212.316 0.492518 2.90961 0
M  V30 2203 H 212.397 1.8451 1.77172 0
M  V30 2204 H 212.041 3.46829 3.71041 0
M  V30 2205 H 211.971 2.08788 4.83441 0
M  V30 2206 H 214.462 1.86025 3.28943 0
M  V30 2207 H 214.775 4.33598 6.39697 0
M  V30 2208 H 213.12 3.89371 5.75687 0
M  V30 2209 H 216.311 2.37723 4.03244 0
M  V30 2210 H 216.484 3.50599 5.44962 0
M  V30 2211 N 209.89 -1.43072 0.660911 0
M  V30 2212 C 210.82 -2.33497 -0.0122829 0
M  V30 2213 C 211.801 -1.49903 -0.803925 0
M  V30 2214 O 212.986 -1.78546 -0.763864 0
M  V30 2215 C 210.116 -3.33363 -0.973994 0
M  V30 2216 C 209.07 -4.27003 -0.291928 0
M  V30 2217 C 208.396 -5.16967 -1.36562 0
M  V30 2218 C 209.696 -5.15816 0.820462 0
M  V30 2219 H 211.39 -2.90038 0.742873 0
M  V30 2220 H 208.936 -1.39461 0.358688 0
M  V30 2221 H 210.889 -3.95524 -1.45392 0
M  V30 2222 H 209.613 -2.75095 -1.7604 0
M  V30 2223 H 208.272 -3.66217 0.167623 0
M  V30 2224 H 207.92 -4.55034 -2.14366 0
M  V30 2225 H 207.62 -5.80441 -0.914454 0
M  V30 2226 H 209.144 -5.82003 -1.84675 0
M  V30 2227 H 210.558 -5.71742 0.422366 0
M  V30 2228 H 208.955 -5.8805 1.19656 0
M  V30 2229 H 210.025 -4.55045 1.67518 0
M  V30 2230 N 211.368 -0.403325 -1.52352 0
M  V30 2231 C 212.315 0.425011 -2.26853 0
M  V30 2232 C 213.285 1.04598 -1.29029 0
M  V30 2233 O 214.47 1.07135 -1.57882 0
M  V30 2234 C 211.61 1.53888 -3.08889 0
M  V30 2235 C 210.723 0.939396 -4.21663 0
M  V30 2236 C 209.858 2.02547 -4.91068 0
M  V30 2237 C 208.897 1.40263 -5.95813 0
M  V30 2238 N 208.034 2.4286 -6.58759 0
M  V30 2239 H 212.874 -0.21674 -2.97211 0
M  V30 2240 H 210.411 -0.118722 -1.4662 0
M  V30 2241 H 212.369 2.19558 -3.54753 0
M  V30 2242 H 210.999 2.15074 -2.40714 0
M  V30 2243 H 210.051 0.171898 -3.80011 0
M  V30 2244 H 211.363 0.44436 -4.96817 0
M  V30 2245 H 210.517 2.75958 -5.40308 0
M  V30 2246 H 209.256 2.55415 -4.15469 0
M  V30 2247 H 208.261 0.653833 -5.45898 0
M  V30 2248 H 209.486 0.881719 -6.73352 0
M  V30 2249 H 207.432 2.94871 -5.85992 0
M  V30 2250 H 207.349 1.98152 -7.2957 0
M  V30 2251 H 208.617 3.15858 -7.12639 0
M  V30 2252 N 212.846 1.57033 -0.133567 0
M  V30 2253 C 214.094 1.953 0.519848 0
M  V30 2254 C 214.415 1.01866 1.66278 0
M  V30 2255 O 213.685 0.0776513 1.95746 0
M  V30 2256 H 212.265 0.721091 0.195032 0
M  V30 2257 H 214.927 1.93809 -0.205921 0
M  V30 2258 H 214.023 2.98695 0.904854 0
M  V30 2259 N 214.325 -0.140222 1.56975 0
M  V30 2260 C 215.255 -1.17456 2.01808 0
M  V30 2261 C 216.236 -1.44415 0.898794 0
M  V30 2262 O 217.421 -1.5522 1.16707 0
M  V30 2263 C 214.551 -2.50607 2.40444 0
M  V30 2264 C 213.505 -2.38155 3.55621 0
M  V30 2265 C 212.831 -3.76078 3.80091 0
M  V30 2266 C 214.131 -1.85991 4.88062 0
M  V30 2267 H 215.825 -0.801743 2.88466 0
M  V30 2268 H 213.371 -0.38422 1.38779 0
M  V30 2269 H 215.324 -3.23197 2.7041 0
M  V30 2270 H 214.048 -2.89737 1.50732 0
M  V30 2271 H 212.707 -1.68016 3.25832 0
M  V30 2272 H 212.355 -4.12656 2.87618 0
M  V30 2273 H 212.055 -3.68606 4.57606 0
M  V30 2274 H 213.579 -4.50206 4.12488 0
M  V30 2275 H 214.993 -2.4838 5.16701 0
M  V30 2276 H 213.39 -1.89393 5.6943 0
M  V30 2277 H 214.46 -0.816023 4.77984 0
M  V30 2278 N 215.803 -1.52179 -0.40978 0
M  V30 2279 C 217.214 -1.58377 -0.988615 0
M  V30 2280 C 217.565 -0.423879 -1.91566 0
M  V30 2281 O 216.69 0.455844 -2.11544 0
M  V30 2282 C 217.285 -2.87044 -1.79976 0
M  V30 2283 C 215.844 -2.95722 -2.32863 0
M  V30 2284 C 214.991 -2.53309 -1.12828 0
M  V30 2285 H 217.942 -1.57558 -0.190039 0
M  V30 2286 H 217.963 -2.7236 -2.65707 0
M  V30 2287 H 217.475 -3.71444 -1.12478 0
M  V30 2288 H 215.576 -2.15814 -3.03735 0
M  V30 2289 H 215.689 -3.99951 -2.63773 0
M  V30 2290 H 214.053 -2.07142 -1.48204 0
M  V30 2291 H 214.836 -3.40082 -0.46897 0
M  V30 2292 N 217.281 0.66697 -1.42791 0
M  V30 2293 C 218.244 1.76211 -1.46568 0
M  V30 2294 C 219.244 1.56896 -0.352196 0
M  V30 2295 O 220.434 1.63044 -0.613364 0
M  V30 2296 C 217.566 3.14935 -1.30494 0
M  V30 2297 H 218.759 1.74247 -2.44086 0
M  V30 2298 H 216.312 0.877342 -1.29354 0
M  V30 2299 H 217.047 3.2252 -0.339301 0
M  V30 2300 H 216.832 3.30359 -2.11199 0
M  V30 2301 H 218.322 3.94821 -1.36038 0
M  V30 2302 N 218.759 1.29093 0.90403 0
M  V30 2303 C 220.008 1.16187 1.64874 0
M  V30 2304 C 220.321 -0.286742 1.93487 0
M  V30 2305 O 221.527 -0.537062 2.66135 0
M  V30 2306 C 219.983 2.03177 2.97064 0
M  V30 2307 C 219.591 3.52836 2.76062 0
M  V30 2308 C 221.335 1.98984 3.74974 0
M  V30 2309 C 219.242 4.31945 4.03952 0
M  V30 2310 H 218.172 0.431246 0.618501 0
M  V30 2311 H 220.823 1.53699 1.00243 0
M  V30 2312 H 219.205 1.5853 3.62883 0
M  V30 2313 H 220.379 4.05507 2.18863 0
M  V30 2314 H 218.694 3.58656 2.11553 0
M  V30 2315 H 221.291 2.55351 4.69787 0
M  V30 2316 H 221.634 0.968815 4.0487 0
M  V30 2317 H 222.167 2.41652 3.15989 0
M  V30 2318 H 218.906 5.34667 3.79225 0
M  V30 2319 H 218.426 3.84045 4.60727 0
M  V30 2320 H 220.105 4.42379 4.72133 0
M  V30 2321 N 220.237 -1.11381 1.11499 0
M  V30 2322 C 221.483 -1.83403 0.865512 0
M  V30 2323 C 221.816 -1.84459 -0.607329 0
M  V30 2324 O 221.091 -1.29811 -1.44842 0
M  V30 2325 C 221.374 -3.30552 1.42855 0
M  V30 2326 C 221.227 -3.37886 2.96906 0
M  V30 2327 C 222.546 -4.26643 1.08 0
M  V30 2328 H 219.665 -0.665879 0.31587 0
M  V30 2329 H 222.307 -1.30601 1.37998 0
M  V30 2330 H 220.457 -3.75648 0.990985 0
M  V30 2331 H 222.129 -3.01343 3.49271 0
M  V30 2332 H 220.372 -2.78088 3.32941 0
M  V30 2333 H 221.043 -4.41458 3.31389 0
M  V30 2334 H 223.519 -3.89729 1.45775 0
M  V30 2335 H 222.395 -5.27986 1.50072 0
M  V30 2336 H 222.656 -4.42099 -0.00915037 0
M  V30 2337 N 221.715 -0.905404 -1.28997 0
M  V30 2338 C 222.962 -0.534248 -1.95325 0
M  V30 2339 C 223.29 0.920535 -1.71337 0
M  V30 2340 O 222.545 1.66861 -1.02254 0
M  V30 2341 C 222.844 -0.779906 -3.48787 0
M  V30 2342 C 222.51 -2.21293 -3.92861 0
M  V30 2343 C 221.172 -2.60475 -4.04606 0
M  V30 2344 C 223.524 -3.14587 -4.15553 0
M  V30 2345 C 220.852 -3.9212 -4.36416 0
M  V30 2346 C 223.204 -4.45787 -4.48839 0
M  V30 2347 C 221.868 -4.84834 -4.58794 0
M  V30 2348 H 221.138 -0.195495 -0.714747 0
M  V30 2349 H 223.785 -1.14514 -1.53488 0
M  V30 2350 H 222.09 -0.0861365 -3.91705 0
M  V30 2351 H 223.787 -0.472029 -3.98212 0
M  V30 2352 H 220.377 -1.89887 -3.84241 0
M  V30 2353 H 224.561 -2.85528 -4.0594 0
M  V30 2354 H 219.817 -4.22086 -4.42327 0
M  V30 2355 H 223.991 -5.18098 -4.65346 0
M  V30 2356 H 221.618 -5.86877 -4.83197 0
M  V30 2357 N 223.193 1.4272 -0.668489 0
M  V30 2358 C 224.125 2.2914 0.052613 0
M  V30 2359 C 225.138 1.43339 0.771857 0
M  V30 2360 O 226.327 1.67123 0.627067 0
M  V30 2361 C 223.427 3.20618 1.09804 0
M  V30 2362 C 222.6 4.35039 0.45389 0
M  V30 2363 C 221.659 5.07282 1.39825 0
M  V30 2364 O 220.685 5.62024 0.900978 0
M  V30 2365 N 221.887 5.12206 2.73176 0
M  V30 2366 H 224.652 2.91668 -0.689209 0
M  V30 2367 H 222.213 1.53577 -0.512422 0
M  V30 2368 H 224.205 3.65815 1.73094 0
M  V30 2369 H 222.775 2.59585 1.74167 0
M  V30 2370 H 221.995 3.92567 -0.358396 0
M  V30 2371 H 223.283 5.088 0.00486972 0
M  V30 2372 H 222.681 4.6913 3.16122 0
M  V30 2373 H 221.238 5.61069 3.31729 0
M  V30 2374 N 224.671 0.411399 1.52136 0
M  V30 2375 C 225.621 -0.430376 2.23901 0
M  V30 2376 C 226.605 -1.0116 1.25121 0
M  V30 2377 O 227.797 -0.934044 1.50348 0
M  V30 2378 C 224.926 -1.54527 3.06556 0
M  V30 2379 C 224.012 -0.9747 4.12747 0
M  V30 2380 N 224.403 -0.130991 5.0563 0
M  V30 2381 C 222.701 -1.24497 4.28271 0
M  V30 2382 C 223.402 0.186689 5.814 0
M  V30 2383 N 222.378 -0.42304 5.41951 0
M  V30 2384 H 226.18 0.220509 2.93072 0
M  V30 2385 H 223.694 0.221952 1.60876 0
M  V30 2386 H 225.691 -2.16093 3.56524 0
M  V30 2387 H 224.351 -2.19875 2.38925 0
M  V30 2388 H 225.362 0.23349 5.17373 0
M  V30 2389 H 222.039 -1.89787 3.7187 0
M  V30 2390 H 223.429 0.871673 6.66222 0
M  V30 2391 N 226.149 -1.5696 0.141893 0
M  V30 2392 C 227.059 -2.20066 -0.812905 0
M  V30 2393 C 228.075 -1.18344 -1.27557 0
M  V30 2394 O 229.251 -1.50902 -1.33381 0
M  V30 2395 C 226.316 -2.80583 -2.03652 0
M  V30 2396 C 225.377 -3.97414 -1.62359 0
M  V30 2397 C 224.61 -4.55036 -2.78887 0
M  V30 2398 O 224.833 -4.11538 -3.94959 0
M  V30 2399 O 223.767 -5.45376 -2.54653 0
M  V30 2400 H 227.593 -3.02157 -0.305746 0
M  V30 2401 H 225.178 -1.49159 -0.0848799 0
M  V30 2402 H 227.06 -3.19067 -2.75272 0
M  V30 2403 H 225.735 -2.01508 -2.5333 0
M  V30 2404 H 224.642 -3.63656 -0.877775 0
M  V30 2405 H 225.975 -4.77994 -1.17401 0
M  V30 2406 N 227.627 0.131896 -1.57047 0
M  V30 2407 C 228.876 0.84044 -1.83356 0
M  V30 2408 C 229.189 1.81646 -0.725535 0
M  V30 2409 O 230.395 2.57025 -0.874659 0
M  V30 2410 C 228.851 1.54528 -3.25037 0
M  V30 2411 C 228.459 0.610902 -4.43815 0
M  V30 2412 C 230.203 2.23972 -3.60606 0
M  V30 2413 C 228.11 1.31823 -5.76521 0
M  V30 2414 H 227.04 0.317599 -0.683847 0
M  V30 2415 H 229.691 0.0931561 -1.83263 0
M  V30 2416 H 228.073 2.33873 -3.19561 0
M  V30 2417 H 229.247 -0.148407 -4.60561 0
M  V30 2418 H 227.562 0.0241016 -4.16393 0
M  V30 2419 H 230.159 2.77558 -4.57018 0
M  V30 2420 H 230.502 3.01173 -2.87403 0
M  V30 2421 H 231.035 1.51529 -3.6781 0
M  V30 2422 H 227.774 0.587771 -6.52859 0
M  V30 2423 H 227.294 2.04987 -5.63685 0
M  V30 2424 H 228.973 1.855 -6.19838 0
M  V30 2425 N 229.106 1.52395 0.401703 0
M  V30 2426 C 230.383 1.57387 1.16141 0
M  V30 2427 C 230.763 0.359359 2.08019 0
M  V30 2428 O 230.111 -0.65326 2.18963 0
M  V30 2429 C 230.321 2.90631 1.93221 0
M  V30 2430 C 231.669 3.43904 2.49028 0
M  V30 2431 O 232.693 2.92421 2.03393 0
M  V30 2432 O 231.552 4.33823 3.32356 0
M  V30 2433 H 228.646 0.634262 0.530698 0
M  V30 2434 H 231.192 1.64725 0.407883 0
M  V30 2435 H 229.964 3.70473 1.25958 0
M  V30 2436 H 229.587 2.8662 2.75563 0
M  V30 2437 N 230.584 -0.659388 1.43143 0
M  V30 2438 C 231.534 -1.7655 1.44271 0
M  V30 2439 C 232.518 -1.57847 0.311961 0
M  V30 2440 O 233.71 -1.68064 0.555306 0
M  V30 2441 C 230.839 -3.15104 1.36251 0
M  V30 2442 C 229.925 -3.39377 2.54331 0
M  V30 2443 N 230.316 -3.34153 3.79704 0
M  V30 2444 C 228.614 -3.70072 2.48922 0
M  V30 2445 C 229.315 -3.58337 4.58225 0
M  V30 2446 N 228.291 -3.79851 3.88863 0
M  V30 2447 H 232.093 -1.70928 2.39083 0
M  V30 2448 H 229.607 -0.860823 1.37708 0
M  V30 2449 H 231.604 -3.94389 1.35141 0
M  V30 2450 H 230.264 -3.21913 0.424531 0
M  V30 2451 H 231.275 -3.13704 4.1208 0
M  V30 2452 H 227.952 -3.84034 1.63781 0
M  V30 2453 H 229.342 -3.60129 5.67236 0
M  V30 2454 N 232.062 -1.29571 -0.897171 0
M  V30 2455 C 232.992 -1.17473 -2.01798 0
M  V30 2456 C 233.973 -0.068323 -1.69963 0
M  V30 2457 O 235.158 -0.248239 -1.92607 0
M  V30 2458 C 232.288 -0.853099 -3.36659 0
M  V30 2459 C 231.242 -1.9161 -3.82713 0
M  V30 2460 C 230.568 -1.44773 -5.14728 0
M  V30 2461 C 231.868 -3.32535 -4.02763 0
M  V30 2462 H 233.562 -2.11237 -2.12177 0
M  V30 2463 H 231.108 -1.01699 -1.01948 0
M  V30 2464 H 233.061 -0.755165 -4.14578 0
M  V30 2465 H 231.785 0.120236 -3.26379 0
M  V30 2466 H 230.444 -2.00346 -3.07013 0
M  V30 2467 H 230.092 -0.462995 -5.00865 0
M  V30 2468 H 229.792 -2.15865 -5.46513 0
M  V30 2469 H 231.316 -1.36334 -5.95185 0
M  V30 2470 H 232.73 -3.26626 -4.71156 0
M  V30 2471 H 231.127 -4.01607 -4.45905 0
M  V30 2472 H 232.197 -3.75326 -3.07016 0
M  V30 2473 N 233.54 1.10788 -1.12088 0
M  V30 2474 C 234.488 2.19111 -0.780587 0
M  V30 2475 C 235.482 1.67818 0.230961 0
M  V30 2476 O 236.688 1.79777 0.0895427 0
M  V30 2477 H 233.063 0.714477 -0.234578 0
M  V30 2478 H 235.034 2.45055 -1.70266 0
M  V30 2479 C 233.783 3.46818 -0.24747 0
M  V30 2480 H 233.106 3.86646 -1.01712 0
M  V30 2481 H 234.546 4.23973 -0.0476291 0
M  V30 2482 C 233.005 3.20968 1.02378 0
M  V30 2483 O 233.535 3.42298 2.10226 0
M  V30 2484 N 231.741 2.74658 0.949271 0
M  V30 2485 H 231.288 2.57501 0.0715173 0
M  V30 2486 H 231.246 2.57739 1.80049 0
M  V30 2487 N 235.018 0.912232 1.28515 0
M  V30 2488 C 236.266 0.543523 1.94654 0
M  V30 2489 C 236.587 -0.9155 1.72173 0
M  V30 2490 O 235.857 -1.64708 1.06058 0
M  V30 2491 H 234.437 0.198017 0.720277 0
M  V30 2492 H 237.099 1.16126 1.56527 0
M  V30 2493 H 236.195 0.736684 3.03281 0
M  V30 2494 N 236.496 -1.42363 0.676048 0
M  V30 2495 C 237.742 -2.0182 0.199125 0
M  V30 2496 C 238.075 -1.53339 -1.19168 0
M  V30 2497 O 237.35 -0.736124 -1.80032 0
M  V30 2498 C 237.633 -3.59331 0.235144 0
M  V30 2499 C 237.486 -4.17989 1.66149 0
M  V30 2500 C 238.805 -4.3813 -0.41595 0
M  V30 2501 H 235.924 -0.733293 0.0738311 0
M  V30 2502 H 238.566 -1.69368 0.86107 0
M  V30 2503 H 236.716 -3.87109 -0.328487 0
M  V30 2504 H 238.388 -4.0116 2.27747 0
M  V30 2505 H 236.631 -3.7377 2.20178 0
M  V30 2506 H 237.302 -5.27126 1.63837 0
M  V30 2507 H 239.778 -4.16051 0.0638529 0
M  V30 2508 H 238.654 -5.47717 -0.360115 0
M  V30 2509 H 238.915 -4.16101 -1.49373 0
M  V30 2510 N 237.974 -0.419461 -1.51915 0
M  V30 2511 C 238.907 0.445751 -2.23804 0
M  V30 2512 C 239.885 1.03951 -1.25031 0
M  V30 2513 O 241.069 1.08541 -1.54114 0
M  V30 2514 C 238.196 1.61964 -2.97465 0
M  V30 2515 C 237.242 1.14828 -4.10751 0
M  V30 2516 S 238.075 0.104938 -5.35397 0
M  V30 2517 C 239.231 1.28391 -6.1259 0
M  V30 2518 H 239.464 -0.164627 -2.96844 0
M  V30 2519 H 236.997 -0.203833 -1.53049 0
M  V30 2520 H 238.955 2.29271 -3.40507 0
M  V30 2521 H 237.616 2.20139 -2.24048 0
M  V30 2522 H 236.809 2.02561 -4.61503 0
M  V30 2523 H 236.411 0.553712 -3.69878 0
M  V30 2524 H 238.703 2.20563 -6.40592 0
M  V30 2525 H 239.646 0.816724 -7.03374 0
M  V30 2526 H 240.054 1.51439 -5.43807 0
M  V30 2527 N 239.452 1.56882 -0.150215 0
M  V30 2528 C 240.699 1.96228 0.500093 0
M  V30 2529 C 241.027 1.03522 1.64661 0
M  V30 2530 O 240.282 0.0650683 1.95592 0
M  V30 2531 C 240.581 3.41801 1.04437 0
M  V30 2532 C 240.247 4.50897 0.0159671 0
M  V30 2533 C 238.909 4.8046 -0.266731 0
M  V30 2534 C 241.261 5.16703 -0.683192 0
M  V30 2535 C 238.589 5.73135 -1.25434 0
M  V30 2536 C 240.941 6.10441 -1.65964 0
M  V30 2537 C 239.605 6.38382 -1.95 0
M  V30 2538 H 238.875 0.718048 0.182997 0
M  V30 2539 H 241.522 1.90019 -0.237724 0
M  V30 2540 H 239.827 3.44857 1.85959 0
M  V30 2541 H 241.524 3.69573 1.55618 0
M  V30 2542 H 238.114 4.27891 0.246485 0
M  V30 2543 H 242.298 4.93993 -0.477983 0
M  V30 2544 H 237.554 5.93074 -1.48571 0
M  V30 2545 H 241.728 6.60507 -2.20689 0
M  V30 2546 H 239.355 7.09996 -2.71679 0
M  V30 2547 N 240.93 -0.123565 1.57115 0
M  V30 2548 C 242.16 -0.845233 1.88519 0
M  V30 2549 C 242.568 -1.74168 0.739064 0
M  V30 2550 O 241.911 -1.81244 -0.299355 0
M  V30 2551 C 241.973 -1.73452 3.14888 0
M  V30 2552 C 241.637 -1.01285 4.45635 0
M  V30 2553 C 242.634 -0.355774 5.18681 0
M  V30 2554 C 240.319 -0.99538 4.92339 0
M  V30 2555 C 242.313 0.309114 6.3665 0
M  V30 2556 C 240 -0.32669 6.10226 0
M  V30 2557 C 240.998 0.324406 6.82229 0
M  V30 2558 O 240.686 0.982437 7.97874 0
M  V30 2559 H 240.418 -0.248534 0.628655 0
M  V30 2560 H 242.972 -0.113907 2.05084 0
M  V30 2561 H 241.202 -2.50737 2.94394 0
M  V30 2562 H 242.891 -2.33021 3.32349 0
M  V30 2563 H 243.657 -0.360918 4.83655 0
M  V30 2564 H 239.536 -1.49159 4.36202 0
M  V30 2565 H 243.08 0.8179 6.92789 0
M  V30 2566 H 238.977 -0.319294 6.4471 0
M  V30 2567 H 239.745 0.886454 8.13686 0
M  V30 2568 N 242.408 -1.52605 -0.393616 0
M  V30 2569 C 243.685 -1.58001 -1.15304 0
M  V30 2570 C 244.065 -0.370385 -2.07825 0
M  V30 2571 O 243.413 0.641638 -2.19306 0
M  V30 2572 C 243.623 -2.91652 -1.91677 0
M  V30 2573 C 244.971 -3.4522 -2.47201 0
M  V30 2574 O 245.995 -2.93495 -2.01839 0
M  V30 2575 O 244.854 -4.35579 -3.3005 0
M  V30 2576 H 241.948 -0.637068 -0.527327 0
M  V30 2577 H 244.494 -1.64939 -0.399141 0
M  V30 2578 H 243.266 -3.71136 -1.23992 0
M  V30 2579 H 242.889 -2.88077 -2.74039 0
M  V30 2580 N 243.887 0.651787 -1.4349 0
M  V30 2581 C 244.837 1.75783 -1.45205 0
M  V30 2582 C 245.821 1.57679 -0.320328 0
M  V30 2583 O 247.013 1.67767 -0.564211 0
M  V30 2584 C 244.142 3.14377 -1.3792 0
M  V30 2585 C 243.228 3.38023 -2.56127 0
M  V30 2586 N 243.619 3.32135 -3.81471 0
M  V30 2587 C 241.917 3.68747 -2.50882 0
M  V30 2588 C 242.618 3.55902 -4.60118 0
M  V30 2589 N 241.594 3.77783 -3.90872 0
M  V30 2590 H 245.396 1.69657 -2.39987 0
M  V30 2591 H 242.91 0.853508 -1.38163 0
M  V30 2592 H 244.907 3.93666 -1.37231 0
M  V30 2593 H 243.567 3.21683 -0.441596 0
M  V30 2594 H 244.578 3.11515 -4.13738 0
M  V30 2595 H 241.255 3.8316 -1.65816 0
M  V30 2596 H 242.645 3.57116 -5.69138 0
M  V30 2597 N 245.365 1.30045 0.890287 0
M  V30 2598 C 246.614 1.17929 1.63633 0
M  V30 2599 C 246.927 -0.266204 1.9378 0
M  V30 2600 O 248.133 -0.508804 2.6669 0
M  V30 2601 C 246.589 2.06317 2.94892 0
M  V30 2602 C 246.197 3.55745 2.72305 0
M  V30 2603 C 247.941 2.0295 3.72843 0
M  V30 2604 C 245.848 4.36205 3.99348 0
M  V30 2605 H 244.778 0.437782 0.613892 0
M  V30 2606 H 247.429 1.54754 0.986075 0
M  V30 2607 H 245.811 1.6237 3.61182 0
M  V30 2608 H 246.985 4.07805 2.1455 0
M  V30 2609 H 245.3 3.6088 2.07737 0
M  V30 2610 H 247.897 2.60319 4.67053 0
M  V30 2611 H 248.24 1.0117 4.0382 0
M  V30 2612 H 248.773 2.4499 3.13408 0
M  V30 2613 H 245.512 5.38659 3.73533 0
M  V30 2614 H 245.032 3.8891 4.56628 0
M  V30 2615 H 246.711 4.47362 4.67415 0
M  V30 2616 N 246.843 -1.10192 1.12674 0
M  V30 2617 C 247.791 -2.18694 0.792196 0
M  V30 2618 C 248.785 -1.67938 -0.222058 0
M  V30 2619 O 249.991 -1.79822 -0.0800074 0
M  V30 2620 H 246.366 -0.713223 0.238364 0
M  V30 2621 H 248.337 -2.44149 1.71564 0
M  V30 2622 C 247.086 -3.46682 0.265859 0
M  V30 2623 H 246.409 -3.86101 1.03761 0
M  V30 2624 H 247.849 -4.23942 0.0701128 0
M  V30 2625 C 246.308 -3.21506 -1.00675 0
M  V30 2626 O 246.838 -3.43408 -2.08408 0
M  V30 2627 N 245.044 -2.75158 -0.934692 0
M  V30 2628 H 244.591 -2.57535 -0.0578604 0
M  V30 2629 H 244.549 -2.58691 -1.7868 0
M  V30 2630 N 248.321 -0.919034 -1.28029 0
M  V30 2631 C 249.268 -0.410005 -2.27129 0
M  V30 2632 C 250.238 0.518405 -1.57803 0
M  V30 2633 O 251.423 0.439451 -1.8567 0
M  V30 2634 C 248.563 0.339054 -3.4343 0
M  V30 2635 C 247.676 -0.622468 -4.27492 0
M  V30 2636 C 246.811 0.145567 -5.31001 0
M  V30 2637 C 245.85 -0.809226 -6.06727 0
M  V30 2638 N 244.987 -0.0743728 -7.02061 0
M  V30 2639 H 249.827 -1.26011 -2.70047 0
M  V30 2640 H 247.364 -0.632663 -1.328 0
M  V30 2641 H 249.322 0.789586 -4.0966 0
M  V30 2642 H 247.952 1.15346 -3.01488 0
M  V30 2643 H 247.004 -1.19153 -3.61257 0
M  V30 2644 H 248.316 -1.35252 -4.80113 0
M  V30 2645 H 247.47 0.656417 -6.03139 0
M  V30 2646 H 246.209 0.908643 -4.79161 0
M  V30 2647 H 245.214 -1.3314 -5.33436 0
M  V30 2648 H 246.439 -1.57194 -6.60656 0
M  V30 2649 H 244.385 0.670616 -6.52563 0
M  V30 2650 H 244.302 -0.744157 -7.52329 0
M  V30 2651 H 245.57 0.416109 -7.78389 0
M  V30 2652 N 249.799 1.42003 -0.683588 0
M  V30 2653 C 250.709 2.34597 -0.0109075 0
M  V30 2654 C 251.725 1.55576 0.779245 0
M  V30 2655 O 252.901 1.88107 0.719555 0
M  V30 2656 C 249.966 3.34199 0.922588 0
M  V30 2657 C 249.027 4.29115 0.125984 0
M  V30 2658 C 248.26 5.23959 1.01502 0
M  V30 2659 O 248.483 5.23952 2.25456 0
M  V30 2660 O 247.417 6.00053 0.47111 0
M  V30 2661 H 251.243 2.93675 -0.773853 0
M  V30 2662 H 248.828 1.42654 -0.443861 0
M  V30 2663 H 250.71 3.95365 1.45823 0
M  V30 2664 H 249.385 2.77582 1.66523 0
M  V30 2665 H 248.292 3.71335 -0.453969 0
M  V30 2666 H 249.625 4.88798 -0.577736 0
M  V30 2667 N 251.277 0.427512 1.51691 0
M  V30 2668 C 252.225 -0.403359 2.29076 0
M  V30 2669 C 253.219 -1.02962 1.34518 0
M  V30 2670 O 254.425 -0.965715 1.51901 0
M  V30 2671 H 250.8 -0.148879 0.737115 0
M  V30 2672 H 252.771 0.270295 2.97173 0
M  V30 2673 C 251.52 -1.49763 3.13794 0
M  V30 2674 H 250.843 -1.02508 3.86435 0
M  V30 2675 H 252.283 -2.05244 3.71014 0
M  V30 2676 C 250.742 -2.47536 2.28533 0
M  V30 2677 O 251.272 -3.51848 1.93819 0
M  V30 2678 N 249.478 -2.18187 1.91945 0
M  V30 2679 H 249.025 -1.33389 2.20375 0
M  V30 2680 H 248.983 -2.83848 1.35195 0
M  V30 2681 N 252.755 -1.56801 0.158532 0
M  V30 2682 C 254.166 -1.83189 -0.360366 0
M  V30 2683 C 254.517 -1.07778 -1.63946 0
M  V30 2684 O 253.642 -0.326718 -2.13919 0
M  V30 2685 C 254.237 -3.32297 -0.660595 0
M  V30 2686 C 252.796 -3.59227 -1.12398 0
M  V30 2687 C 251.943 -2.76877 -0.153097 0
M  V30 2688 H 254.894 -1.54008 0.383031 0
M  V30 2689 H 254.915 -3.4908 -1.51405 0
M  V30 2690 H 254.427 -3.87156 0.270527 0
M  V30 2691 H 252.528 -3.09766 -2.07064 0
M  V30 2692 H 252.641 -4.67632 -1.04197 0
M  V30 2693 H 251.005 -2.46319 -0.647983 0
M  V30 2694 H 251.788 -3.34511 0.77182 0
M  V30 2695 N 254.233 0.115231 -1.57178 0
M  V30 2696 C 255.48 0.822351 -1.8505 0
M  V30 2697 C 255.808 1.79701 -0.744168 0
M  V30 2698 O 255.063 1.93909 0.26414 0
M  V30 2699 C 255.362 1.60324 -3.19423 0
M  V30 2700 C 255.028 0.772536 -4.44233 0
M  V30 2701 C 253.69 0.543468 -4.78121 0
M  V30 2702 C 256.042 0.193746 -5.2084 0
M  V30 2703 C 253.37 -0.274583 -5.86057 0
M  V30 2704 C 255.722 -0.611517 -6.29637 0
M  V30 2705 C 254.386 -0.850867 -6.62055 0
M  V30 2706 H 253.656 0.30092 -0.677147 0
M  V30 2707 H 256.303 0.0845802 -1.91313 0
M  V30 2708 H 254.608 2.41203 -3.08753 0
M  V30 2709 H 256.305 2.1544 -3.38211 0
M  V30 2710 H 252.895 0.96117 -4.17683 0
M  V30 2711 H 257.079 0.357926 -4.95008 0
M  V30 2712 H 252.335 -0.469206 -6.09597 0
M  V30 2713 H 256.509 -1.06697 -6.88178 0
M  V30 2714 H 254.136 -1.48657 -7.45523 0
M  V30 2715 N 255.711 1.52812 0.385517 0
M  V30 2716 C 256.674 1.77188 1.45386 0
M  V30 2717 C 257.674 0.641953 1.4743 0
M  V30 2718 O 258.864 0.910033 1.4854 0
M  V30 2719 C 255.996 1.87582 2.8465 0
M  V30 2720 H 257.189 2.72583 1.25054 0
M  V30 2721 H 254.742 1.43586 0.617467 0
M  V30 2722 H 255.477 0.941849 3.10322 0
M  V30 2723 H 255.262 2.69748 2.84567 0
M  V30 2724 H 256.752 2.08102 3.62054 0
M  V30 2725 N 257.189 -0.644168 1.43834 0
M  V30 2726 C 258.152 -1.73857 1.49353 0
M  V30 2727 C 259.152 -1.56315 0.377112 0
M  V30 2728 O 260.342 -1.62048 0.639226 0
M  V30 2729 C 257.474 -3.12819 1.35488 0
M  V30 2730 H 258.667 -1.70342 2.46827 0
M  V30 2731 H 256.22 -0.856652 1.30733 0
M  V30 2732 H 256.955 -3.2194 0.390569 0
M  V30 2733 H 256.74 -3.26958 2.16428 0
M  V30 2734 H 258.23 -3.92606 1.42302 0
M  V30 2735 N 258.668 -1.30515 -0.883378 0
M  V30 2736 C 260.079 -1.17509 -1.45081 0
M  V30 2737 C 260.43 0.223605 -1.94922 0
M  V30 2738 O 259.555 1.12041 -1.85137 0
M  V30 2739 C 260.15 -2.12715 -2.63701 0
M  V30 2740 C 258.709 -2.03682 -3.16529 0
M  V30 2741 C 257.856 -2.02706 -1.89224 0
M  V30 2742 H 260.807 -1.42762 -0.693165 0
M  V30 2743 H 260.828 -1.70891 -3.39965 0
M  V30 2744 H 260.34 -3.14505 -2.27395 0
M  V30 2745 H 258.441 -1.05039 -3.57488 0
M  V30 2746 H 258.554 -2.92146 -3.7972 0
M  V30 2747 H 256.918 -1.4753 -2.07622 0
M  V30 2748 H 257.701 -3.06229 -1.55174 0
M  V30 2749 N 260.146 1.09593 -1.13257 0
M  V30 2750 C 261.423 1.78293 -0.804432 0
M  V30 2751 C 261.803 1.99004 0.70431 0
M  V30 2752 O 261.151 1.59007 1.641 0
M  V30 2753 C 261.361 3.10707 -1.5894 0
M  V30 2754 C 262.709 3.85443 -1.78099 0
M  V30 2755 O 263.733 3.20454 -1.55525 0
M  V30 2756 O 262.592 5.02108 -2.15753 0
M  V30 2757 H 259.686 0.773156 -0.293528 0
M  V30 2758 H 262.232 1.16164 -1.23709 0
M  V30 2759 H 261.004 2.91106 -2.61482 0
M  V30 2760 H 260.627 3.80558 -1.15157 0
M  V30 2761 N 261.624 0.925811 1.2754 0
M  V30 2762 C 262.901 0.483726 1.89524 0
M  V30 2763 C 263.281 -1.03809 1.83812 0
M  V30 2764 O 262.629 -1.89143 1.28207 0
M  V30 2765 C 262.839 1.02769 3.33526 0
M  V30 2766 C 264.187 1.08703 4.10449 0
M  V30 2767 O 265.211 0.977175 3.42534 0
M  V30 2768 O 264.07 1.25599 5.31871 0
M  V30 2769 H 261.164 0.15529 0.812289 0
M  V30 2770 H 263.71 1.01738 1.35822 0
M  V30 2771 H 262.482 2.07155 3.31967 0
M  V30 2772 H 262.105 0.475567 3.94746 0
M  V30 2773 N 263.102 -1.41638 0.69111 0
M  V30 2774 C 264.327 -2.06148 0.227583 0
M  V30 2775 C 264.752 -1.51652 -1.11281 0
M  V30 2776 O 264.11 -0.64164 -1.69566 0
M  V30 2777 C 264.158 -3.60095 0.190858 0
M  V30 2778 O 263.262 -4.03845 -0.835664 0
M  V30 2779 H 262.603 -0.654434 0.112306 0
M  V30 2780 H 265.133 -1.81484 0.944714 0
M  V30 2781 H 265.143 -4.07995 0.020207 0
M  V30 2782 H 263.818 -3.99129 1.16915 0
M  V30 2783 H 262.395 -3.67458 -0.63473 0
M  V30 2784 N 264.58 -0.43555 -1.51462 0
M  V30 2785 C 265.527 0.376797 -2.27703 0
M  V30 2786 C 266.497 1.01838 -1.31219 0
M  V30 2787 O 267.682 1.03762 -1.60119 0
M  V30 2788 C 264.822 1.47301 -3.12084 0
M  V30 2789 C 263.935 0.849744 -4.2356 0
M  V30 2790 C 263.07 1.92086 -4.95254 0
M  V30 2791 C 262.109 1.27593 -5.98654 0
M  V30 2792 N 261.246 2.28833 -6.63762 0
M  V30 2793 H 266.086 -0.279734 -2.96684 0
M  V30 2794 H 263.623 -0.149795 -1.46335 0
M  V30 2795 H 265.581 2.11984 -3.59331 0
M  V30 2796 H 264.211 2.0992 -2.45221 0
M  V30 2797 H 263.263 0.0912529 -3.80291 0
M  V30 2798 H 264.575 0.338878 -4.97648 0
M  V30 2799 H 263.729 2.64435 -5.46039 0
M  V30 2800 H 262.468 2.46545 -4.20793 0
M  V30 2801 H 261.473 0.537893 -5.47162 0
M  V30 2802 H 262.698 0.738693 -6.7507 0
M  V30 2803 H 260.644 2.82375 -5.92115 0
M  V30 2804 H 260.561 1.82632 -7.33608 0
M  V30 2805 H 261.829 3.00671 -7.19178 0
M  V30 2806 N 266.058 1.56714 -0.166846 0
M  V30 2807 C 267.469 1.83378 0.350646 0
M  V30 2808 C 267.82 1.08646 1.63372 0
M  V30 2809 O 266.945 0.338058 2.13743 0
M  V30 2810 C 267.54 3.32643 0.642963 0
M  V30 2811 C 266.099 3.59818 1.10491 0
M  V30 2812 C 265.246 2.76954 0.138411 0
M  V30 2813 H 268.197 1.53803 -0.391193 0
M  V30 2814 H 268.218 3.49878 1.49551 0
M  V30 2815 H 267.73 3.87007 -0.291055 0
M  V30 2816 H 265.831 3.1086 2.05418 0
M  V30 2817 H 265.944 4.68178 1.01716 0
M  V30 2818 H 264.308 2.4666 0.634911 0
M  V30 2819 H 265.091 3.34097 -0.789549 0
M  V30 2820 N 267.536 -0.106894 1.57237 0
M  V30 2821 C 268.466 -1.13148 2.04254 0
M  V30 2822 C 269.447 -1.42476 0.929224 0
M  V30 2823 O 270.632 -1.52709 1.19973 0
M  V30 2824 C 267.762 -2.4545 2.45706 0
M  V30 2825 C 266.716 -2.30558 3.60592 0
M  V30 2826 C 266.042 -3.67931 3.87983 0
M  V30 2827 C 267.342 -1.75597 4.91897 0
M  V30 2828 H 269.036 -0.740374 2.90101 0
M  V30 2829 H 266.582 -0.354696 1.39563 0
M  V30 2830 H 268.535 -3.17389 2.77205 0
M  V30 2831 H 267.259 -2.86475 1.56843 0
M  V30 2832 H 265.918 -1.61067 3.29322 0
M  V30 2833 H 265.566 -4.06462 2.96306 0
M  V30 2834 H 265.266 -3.58817 4.65322 0
M  V30 2835 H 266.79 -4.41356 4.21945 0
M  V30 2836 H 268.204 -2.37364 5.21854 0
M  V30 2837 H 266.601 -1.77272 5.73319 0
M  V30 2838 H 267.671 -0.714451 4.79608 0
M  V30 2839 N 269.014 -1.53014 -0.377408 0
M  V30 2840 C 269.924 -1.81557 -1.48574 0
M  V30 2841 C 270.94 -0.703102 -1.59162 0
M  V30 2842 O 272.116 -0.99192 -1.75279 0
M  V30 2843 C 269.181 -1.9889 -2.83978 0
M  V30 2844 C 268.242 -3.22801 -2.83016 0
M  V30 2845 C 267.475 -3.39298 -4.11962 0
M  V30 2846 O 267.698 -2.60345 -5.0752 0
M  V30 2847 O 266.632 -4.32604 -4.18494 0
M  V30 2848 H 270.458 -2.75695 -1.27382 0
M  V30 2849 H 268.043 -1.38248 -0.566373 0
M  V30 2850 H 269.925 -2.11931 -3.6423 0
M  V30 2851 H 268.6 -1.07942 -3.05172 0
M  V30 2852 H 267.507 -3.15193 -2.01505 0
M  V30 2853 H 268.84 -4.13632 -2.66775 0
M  V30 2854 N 270.492 0.636531 -1.44174 0
M  V30 2855 C 271.908 0.954104 -1.27941 0
M  V30 2856 C 272.108 2.0039 -0.211248 0
M  V30 2857 O 271.164 2.49236 0.404695 0
M  V30 2858 C 272.477 1.4225 -2.64925 0
M  V30 2859 C 274.025 1.53827 -2.72592 0
M  V30 2860 C 274.5 2.04053 -4.10032 0
M  V30 2861 N 275.991 2.11331 -4.12182 0
M  V30 2862 C 276.726 2.51352 -5.15374 0
M  V30 2863 N 276.222 2.90549 -6.2893 0
M  V30 2864 N 278.015 2.51438 -5.02728 0
M  V30 2865 H 270.166 -0.0578386 -2.12321 0
M  V30 2866 H 272.429 0.0367406 -0.947288 0
M  V30 2867 H 272.135 0.725466 -3.44136 0
M  V30 2868 H 272.009 2.39451 -2.9145 0
M  V30 2869 H 274.396 2.22628 -1.93702 0
M  V30 2870 H 274.477 0.550154 -2.49814 0
M  V30 2871 H 274.121 1.35848 -4.89395 0
M  V30 2872 H 274.051 3.03726 -4.30184 0
M  V30 2873 H 276.542 1.83745 -3.30222 0
M  V30 2874 H 276.855 3.19884 -7.03487 0
M  V30 2875 H 275.2 2.88313 -6.32377 0
M  V30 2876 H 278.391 2.20203 -4.13072 0
M  V30 2877 H 278.564 2.82304 -5.83274 0
M  V30 2878 O 272.009 1.41421 0.779892 0
M  V30 2879 H 272.7 1.31013 1.42672 0
M  V30 END ATOM
M  V30 BEGIN BOND
M  V30 END BOND
M  V30 END CTAB
M  END
$$$$
