drugbank_target|Q56148 Chloramphenicol 3-O phosphotransferase (DB02608; DB02930; DB04411)
 OpenBabel12092119553D

  0  0  0     0  0            999 V3000
M  V30 BEGIN CTAB
M  V30 COUNTS 2614 2638 0 0 0
M  V30 BEGIN ATOM
M  V30 1 H -0.908 1.98254 -0.117106 0
M  V30 2 N 0 1.576 0 0
M  V30 3 C 0.933 2.03868 1.02534 0
M  V30 4 C 1.911 0.928543 1.3348 0
M  V30 5 O 3.095 1.19667 1.45644 0
M  V30 6 C 0.222 2.43627 2.35294 0
M  V30 7 C -0.732 3.65373 2.2001 0
M  V30 8 S 0.101 5.13292 1.52614 0
M  V30 9 C 1.257 5.56322 2.86805 0
M  V30 10 H 1.49 2.90518 0.631377 0
M  V30 11 H -0.977 1.52953 0.210867 0
M  V30 12 H 0.981 2.67203 3.11629 0
M  V30 13 H -0.358 1.57376 2.7183 0
M  V30 14 H -1.165 3.90944 3.18086 0
M  V30 15 H -1.563 3.418 1.51819 0
M  V30 16 H 0.729 5.58782 3.83104 0
M  V30 17 H 1.672 6.56266 2.65933 0
M  V30 18 H 2.08 4.83886 2.90714 0
M  V30 19 N 1.4781 -0.272755 1.55222 0
M  V30 20 C 2.7061 -1.02255 1.79865 0
M  V30 21 C 3.1211 -1.79924 0.572088 0
M  V30 22 O 2.4781 -1.76638 -0.458842 0
M  V30 23 C 2.5291 -1.98094 3.02392 0
M  V30 24 O 2.2501 -1.23572 4.20311 0
M  V30 25 C 3.7511 -2.84884 3.39641 0
M  V30 26 H 0.9711 -0.302057 0.599168 0
M  V30 27 H 3.5151 -0.303465 2.02236 0
M  V30 28 H 1.6701 -2.65465 2.82147 0
M  V30 29 H 2.0841 -1.88172 4.89583 0
M  V30 30 H 3.5581 -3.47927 4.28545 0
M  V30 31 H 4.0351 -3.54665 2.59055 0
M  V30 32 H 4.6411 -2.23003 3.62146 0
M  V30 33 N 2.9562 -1.48159 -0.537278 0
M  V30 34 C 4.1842 -1.59454 -1.31841 0
M  V30 35 C 4.5992 -0.252065 -1.8711 0
M  V30 36 O 3.9562 0.757621 -1.66031 0
M  V30 37 C 4.0072 -2.63546 -2.47439 0
M  V30 38 O 3.7282 -3.92583 -1.94449 0
M  V30 39 C 5.2292 -2.85212 -3.39366 0
M  V30 40 H 2.4492 -0.53785 -0.401196 0
M  V30 41 H 4.9932 -1.93932 -0.648891 0
M  V30 42 H 3.1482 -2.31946 -3.1029 0
M  V30 43 H 3.5622 -4.49629 -2.70063 0
M  V30 44 H 5.0362 -3.61863 -4.16844 0
M  V30 45 H 5.5132 -1.93765 -3.94147 0
M  V30 46 H 6.1192 -3.18086 -2.82314 0
M  V30 47 N 4.4343 0.785586 -1.36625 0
M  V30 48 C 5.8503 1.08419 -1.17122 0
M  V30 49 C 6.0503 2.015 0.00208491 0
M  V30 50 O 5.1063 2.43551 0.666278 0
M  V30 51 C 6.4193 1.69498 -2.48377 0
M  V30 52 C 7.9673 1.81821 -2.54775 0
M  V30 53 C 8.4423 2.46315 -3.86126 0
M  V30 54 N 9.9333 2.53779 -3.87492 0
M  V30 55 C 10.6683 3.045 -4.85868 0
M  V30 56 N 10.1643 3.55499 -5.94637 0
M  V30 57 N 11.9573 3.03247 -4.73284 0
M  V30 58 H 4.1083 0.167264 -2.1174 0
M  V30 59 H 6.3713 0.13682 -0.938075 0
M  V30 60 H 6.0773 1.08571 -3.34522 0
M  V30 61 H 5.9513 2.6896 -2.64462 0
M  V30 62 H 8.3383 2.41884 -1.69045 0
M  V30 63 H 8.4193 0.811532 -2.42586 0
M  V30 64 H 8.0633 1.86895 -4.72263 0
M  V30 65 H 7.9933 3.47561 -3.95612 0
M  V30 66 H 10.4843 2.17672 -3.08913 0
M  V30 67 H 10.7973 3.92562 -6.65669 0
M  V30 68 H 9.1423 3.5364 -5.98301 0
M  V30 69 H 12.3333 2.62696 -3.87438 0
M  V30 70 H 12.5063 3.42467 -5.50109 0
M  V30 71 N 5.9124 1.20967 1.01018 0
M  V30 72 C 6.8454 0.907578 2.09376 0
M  V30 73 C 7.8234 -0.142868 1.61971 0
M  V30 74 O 9.0074 -0.0150391 1.88494 0
M  V30 75 C 6.1344 0.361791 3.36762 0
M  V30 76 C 5.1804 1.39423 4.03068 0
M  V30 77 S 6.0134 2.96159 4.4615 0
M  V30 78 C 7.1694 2.43173 5.7673 0
M  V30 79 H 7.4024 1.82519 2.34678 0
M  V30 80 H 4.9354 1.03884 1.14225 0
M  V30 81 H 6.8934 0.0534523 4.10465 0
M  V30 82 H 5.5544 -0.53443 3.0952 0
M  V30 83 H 4.7474 0.961853 4.94737 0
M  V30 84 H 4.3494 1.65038 3.35617 0
M  V30 85 H 6.6414 1.83335 6.52223 0
M  V30 86 H 7.5844 3.33264 6.24773 0
M  V30 87 H 7.9924 1.85069 5.33301 0
M  V30 88 N 7.3905 -1.2043 1.01659 0
M  V30 89 C 8.6395 -1.89118 0.701237 0
M  V30 90 C 8.9525 -1.79705 -0.772358 0
M  V30 91 O 10.1585 -2.43528 -1.20026 0
M  V30 92 C 8.6145 -3.39168 1.20388 0
M  V30 93 C 8.2225 -3.57166 2.70438 0
M  V30 94 C 9.9665 -4.1341 0.963953 0
M  V30 95 C 7.8735 -5.01042 3.14183 0
M  V30 96 H 6.8035 -0.708267 0.2586 0
M  V30 97 H 9.4545 -1.36239 1.22927 0
M  V30 98 H 7.8365 -3.91369 0.603824 0
M  V30 99 H 9.0105 -3.15351 3.35992 0
M  V30 100 H 7.3255 -2.96294 2.92572 0
M  V30 101 H 9.9225 -5.19491 1.26621 0
M  V30 102 H 10.2655 -4.16181 -0.099578 0
M  V30 103 H 10.7985 -3.67309 1.52738 0
M  V30 104 H 7.5375 -5.03426 4.19812 0
M  V30 105 H 7.0575 -5.43668 2.53348 0
M  V30 106 H 8.7365 -5.69623 3.0682 0
M  V30 107 N 8.8686 -0.792821 -1.36206 0
M  V30 108 C 10.1176 -0.363353 -1.984 0
M  V30 109 C 10.4306 1.07172 -1.63626 0
M  V30 110 O 11.6366 1.60362 -2.19081 0
M  V30 111 C 10.0926 -0.59872 -3.54885 0
M  V30 112 C 9.7006 -2.04543 -3.9858 0
M  V30 113 C 11.4446 -0.233926 -4.23855 0
M  V30 114 C 9.3516 -2.22727 -5.47856 0
M  V30 115 H 8.2816 -0.13212 -0.742334 0
M  V30 116 H 10.9326 -0.974935 -1.55458 0
M  V30 117 H 9.3146 0.0826222 -3.95914 0
M  V30 118 H 10.4886 -2.76345 -3.68741 0
M  V30 119 H 8.8036 -2.36879 -3.42458 0
M  V30 120 H 11.4006 -0.348027 -5.33566 0
M  V30 121 H 11.7436 0.818351 -4.08177 0
M  V30 122 H 12.2766 -0.868639 -3.882 0
M  V30 123 H 9.0156 -3.2635 -5.68486 0
M  V30 124 H 8.5356 -1.55434 -5.7931 0
M  V30 125 H 10.2146 -2.03607 -6.14128 0
M  V30 126 N 10.3467 1.47872 -0.545128 0
M  V30 127 C 11.2767 2.32661 0.197793 0
M  V30 128 C 12.2577 1.43041 0.920504 0
M  V30 129 O 13.4427 1.71912 0.90333 0
M  V30 130 C 10.5727 3.24569 1.23582 0
M  V30 131 C 9.5267 4.23333 0.630323 0
M  V30 132 C 8.8527 5.0448 1.77211 0
M  V30 133 C 10.1527 5.20704 -0.407974 0
M  V30 134 H 11.8467 2.95024 -0.510045 0
M  V30 135 H 9.3927 1.4187 -0.246731 0
M  V30 136 H 11.3457 3.8272 1.76362 0
M  V30 137 H 10.0697 2.60236 1.97344 0
M  V30 138 H 8.7287 3.6639 0.123922 0
M  V30 139 H 8.3767 4.36561 2.49847 0
M  V30 140 H 8.0767 5.71339 1.37281 0
M  V30 141 H 9.6007 5.65487 2.3034 0
M  V30 142 H 11.0147 5.7329 0.033305 0
M  V30 143 H 9.4117 5.95699 -0.725486 0
M  V30 144 H 10.4817 4.66917 -1.30828 0
M  V30 145 N 11.8248 0.280983 1.55075 0
M  V30 146 C 12.7728 -0.619864 2.24188 0
M  V30 147 C 13.7668 -1.15315 1.24092 0
M  V30 148 O 14.9728 -1.1061 1.42005 0
M  V30 149 H 11.3478 -0.218459 0.719569 0
M  V30 150 H 13.3188 -0.0141831 2.98397 0
M  V30 151 C 12.0678 -1.7899 2.98091 0
M  V30 152 H 11.3908 -1.38874 3.74905 0
M  V30 153 H 12.8308 -2.39672 3.49762 0
M  V30 154 C 11.2898 -2.68192 2.03899 0
M  V30 155 O 11.8198 -3.6872 1.594 0
M  V30 156 N 10.0258 -2.35488 1.70275 0
M  V30 157 H 9.5728 -1.53787 2.06658 0
M  V30 158 H 9.5308 -2.95442 1.07524 0
M  V30 159 N 13.3029 -1.57598 0.00835791 0
M  V30 160 C 14.5509 -1.90551 -0.6734 0
M  V30 161 C 14.8719 -0.883301 -1.73847 0
M  V30 162 O 14.1419 0.0781442 -1.95744 0
M  V30 163 H 12.7219 -0.703312 -0.251717 0
M  V30 164 H 15.3839 -1.94833 0.0512592 0
M  V30 165 H 14.4799 -2.9056 -1.13935 0
M  V30 166 N 14.781 0.264519 -1.55364 0
M  V30 167 C 16.029 0.993021 -1.76021 0
M  V30 168 C 16.35 1.86511 -0.569099 0
M  V30 169 O 15.62 1.91438 0.415735 0
M  V30 170 H 14.2 0.369639 -0.649135 0
M  V30 171 H 16.862 0.286707 -1.9278 0
M  V30 172 H 15.958 1.62502 -2.66457 0
M  V30 173 N 16.2591 1.48442 0.529413 0
M  V30 174 C 17.4841 1.60406 1.31471 0
M  V30 175 C 17.9091 0.264738 1.86228 0
M  V30 176 O 17.2671 -0.763668 1.64432 0
M  V30 177 C 17.3151 2.65419 2.44101 0
M  V30 178 O 16.4191 2.22618 3.47153 0
M  V30 179 H 15.7601 0.537863 0.389357 0
M  V30 180 H 18.2901 1.94432 0.636965 0
M  V30 181 H 18.3001 2.86709 2.90279 0
M  V30 182 H 16.9751 3.62652 2.03608 0
M  V30 183 H 15.5521 2.11543 3.0709 0
M  V30 184 N 17.7372 -0.778329 1.37039 0
M  V30 185 C 18.9622 -1.57248 1.35233 0
M  V30 186 C 19.3872 -1.87999 -0.0615568 0
M  V30 187 O 18.7452 -1.48734 -1.03672 0
M  V30 188 C 18.7932 -2.86353 2.19167 0
M  V30 189 O 17.8972 -3.80442 1.59178 0
M  V30 190 H 17.2382 -0.476569 0.462362 0
M  V30 191 H 19.7682 -0.963853 1.80474 0
M  V30 192 H 19.7782 -3.35519 2.32145 0
M  V30 193 H 18.4532 -2.63299 3.21942 0
M  V30 194 H 17.0302 -3.39067 1.55203 0
M  V30 195 N 19.2153 -1.21501 -1.00376 0
M  V30 196 C 20.1783 -0.976927 -2.07337 0
M  V30 197 C 21.1783 0.0525322 -1.60714 0
M  V30 198 O 22.3683 -0.184869 -1.73216 0
M  V30 199 C 19.5003 -0.473423 -3.37597 0
M  V30 200 H 20.6933 -1.92587 -2.29892 0
M  V30 201 H 18.2463 -1.03217 -1.17371 0
M  V30 202 H 18.9813 0.480379 -3.20722 0
M  V30 203 H 18.7663 -1.216 -3.72768 0
M  V30 204 H 20.2563 -0.32675 -4.1632 0
M  V30 205 N 20.6934 1.19889 -1.02296 0
M  V30 206 C 21.9414 1.89046 -0.714558 0
M  V30 207 C 22.2624 1.79636 0.758681 0
M  V30 208 O 21.5324 1.20292 1.54618 0
M  V30 209 H 20.1124 0.699802 -0.261317 0
M  V30 210 H 22.7744 1.45574 -1.29592 0
M  V30 211 H 21.8704 2.95524 -1.0036 0
M  V30 212 N 22.1715 0.800033 1.35784 0
M  V30 213 C 23.1185 0.203848 2.29898 0
M  V30 214 C 24.0885 -0.658375 1.52495 0
M  V30 215 O 25.2735 -0.604832 1.8096 0
M  V30 216 C 22.4135 -0.64688 3.38983 0
M  V30 217 C 21.5265 0.235054 4.3136 0
M  V30 218 C 20.6615 -0.623054 5.27533 0
M  V30 219 C 19.7005 0.259682 6.11549 0
M  V30 220 N 18.8375 -0.558019 6.99879 0
M  V30 221 H 23.6775 1.01186 2.80295 0
M  V30 222 H 21.2145 0.51053 1.37957 0
M  V30 223 H 23.1725 -1.15521 4.00887 0
M  V30 224 H 21.8025 -1.42021 2.89879 0
M  V30 225 H 20.8545 0.861438 3.70518 0
M  V30 226 H 22.1665 0.914768 4.9034 0
M  V30 227 H 21.3205 -1.19678 5.94779 0
M  V30 228 H 20.0595 -1.33636 4.69034 0
M  V30 229 H 19.0645 0.845726 5.43256 0
M  V30 230 H 20.2895 0.970748 6.72126 0
M  V30 231 H 18.2355 -1.25542 6.43875 0
M  V30 232 H 18.1525 0.0637872 7.55973 0
M  V30 233 H 19.4205 -1.11523 7.71481 0
M  V30 234 N 23.6496 -1.47581 0.552962 0
M  V30 235 C 24.8746 -2.07378 0.0300593 0
M  V30 236 C 25.2996 -1.40355 -1.25229 0
M  V30 237 O 24.6576 -0.477099 -1.7491 0
M  V30 238 C 24.7056 -3.60274 -0.153231 0
M  V30 239 O 23.8096 -3.94041 -1.21678 0
M  V30 240 H 23.1506 -0.662158 0.0494182 0
M  V30 241 H 25.6806 -1.89662 0.767434 0
M  V30 242 H 25.6906 -4.0633 -0.368761 0
M  V30 243 H 24.3656 -4.08455 0.783397 0
M  V30 244 H 22.9426 -3.59735 -0.982079 0
M  V30 245 N 25.1277 -0.289203 -1.54924 0
M  V30 246 C 26.3757 0.322879 -1.99504 0
M  V30 247 C 26.6967 1.55313 -1.1791 0
M  V30 248 O 25.9667 1.94001 -0.272097 0
M  V30 249 H 24.5467 0.122291 -0.736922 0
M  V30 250 H 27.2087 -0.397802 -1.90797 0
M  V30 251 H 26.3047 0.603061 -3.06218 0
M  V30 252 N 26.6058 1.57591 -0.0167156 0
M  V30 253 C 27.8548 1.90461 0.663877 0
M  V30 254 C 28.1678 0.893515 1.73999 0
M  V30 255 O 29.3738 1.11302 2.47637 0
M  V30 256 C 27.8298 3.38155 1.23204 0
M  V30 257 C 27.4378 4.47597 0.189866 0
M  V30 258 C 29.1818 3.80111 1.88986 0
M  V30 259 C 27.0888 5.86379 0.768964 0
M  V30 260 H 26.0188 0.710738 0.251729 0
M  V30 261 H 28.6698 1.83326 -0.0799926 0
M  V30 262 H 27.0518 3.40182 2.02712 0
M  V30 263 H 28.2258 4.57112 -0.581846 0
M  V30 264 H 26.5408 4.14766 -0.368475 0
M  V30 265 H 29.1378 4.81145 2.33247 0
M  V30 266 H 29.4808 3.14511 2.72743 0
M  V30 267 H 30.0138 3.80454 1.16187 0
M  V30 268 H 26.7528 6.55493 -0.0301957 0
M  V30 269 H 26.2728 5.80496 1.50945 0
M  V30 270 H 27.9518 6.34563 1.26251 0
M  V30 271 N 28.0839 -0.256276 1.55502 0
M  V30 272 C 29.3299 -0.987079 1.77157 0
M  V30 273 C 29.6629 -1.85327 0.580315 0
M  V30 274 O 28.9379 -1.89874 -0.421686 0
M  V30 275 C 29.2209 -1.85553 3.08613 0
M  V30 276 C 29.0739 -1.01816 4.38125 0
M  V30 277 C 30.3929 -2.8397 3.36228 0
M  V30 278 H 27.5119 -0.357428 0.644526 0
M  V30 279 H 30.1539 -0.258239 1.88237 0
M  V30 280 H 28.3039 -2.47695 2.99298 0
M  V30 281 H 29.9759 -0.416159 4.59419 0
M  V30 282 H 28.2189 -0.322178 4.32602 0
M  V30 283 H 28.8899 -1.65939 5.26468 0
M  V30 284 H 31.3659 -2.31964 3.45445 0
M  V30 285 H 30.2419 -3.41864 4.29442 0
M  V30 286 H 30.5029 -3.59955 2.56681 0
M  V30 287 N 29.562 -1.4872 -0.521534 0
M  V30 288 C 30.978 -1.35028 -0.850855 0
M  V30 289 C 31.178 -0.367712 -1.98116 0
M  V30 290 O 30.234 0.208037 -2.51642 0
M  V30 291 C 31.547 -2.75263 -1.21041 0
M  V30 292 C 33.095 -2.83813 -1.31981 0
M  V30 293 C 33.57 -4.24769 -1.71276 0
M  V30 294 N 35.061 -4.27482 -1.78363 0
M  V30 295 C 35.796 -5.33494 -2.1017 0
M  V30 296 N 35.292 -6.49775 -2.40343 0
M  V30 297 N 37.085 -5.20894 -2.11248 0
M  V30 298 H 29.236 -2.11214 0.22413 0
M  V30 299 H 31.499 -0.947252 0.0376439 0
M  V30 300 H 31.205 -3.48765 -0.453415 0
M  V30 301 H 31.079 -3.09327 -2.15863 0
M  V30 302 H 33.466 -2.10561 -2.06756 0
M  V30 303 H 33.547 -2.53358 -0.352596 0
M  V30 304 H 33.191 -4.9854 -0.970588 0
M  V30 305 H 33.121 -4.52673 -2.69062 0
M  V30 306 H 35.612 -3.43611 -1.57288 0
M  V30 307 H 35.925 -7.26402 -2.63743 0
M  V30 308 H 34.27 -6.53035 -2.37844 0
M  V30 309 H 37.461 -4.29065 -1.87139 0
M  V30 310 H 37.634 -6.03612 -2.35704 0
M  V30 311 N 31.0401 0.771051 -1.3745 0
M  V30 312 C 32.2801 1.54264 -1.34096 0
M  V30 313 C 32.6441 1.91858 0.0737639 0
M  V30 314 O 33.8451 2.67797 0.23203 0
M  V30 315 C 32.1161 2.77326 -2.25445 0
M  V30 316 S 33.6751 3.67383 -2.39948 0
M  V30 317 H 30.4931 0.528122 -0.476034 0
M  V30 318 H 33.0951 0.906633 -1.73206 0
M  V30 319 H 31.7991 2.47788 -3.27153 0
M  V30 320 H 31.3301 3.45886 -1.87421 0
M  V30 321 H 33.3451 4.69334 -1.61059 0
M  V30 322 N 32.5182 1.22032 0.997298 0
M  V30 323 C 33.4482 1.01065 2.10495 0
M  V30 324 C 34.4292 -0.0669542 1.69968 0
M  V30 325 O 35.6142 0.0943987 1.9397 0
M  V30 326 C 32.7442 0.582874 3.42374 0
M  V30 327 C 31.6982 1.60592 3.96729 0
M  V30 328 C 31.0242 1.03412 5.24605 0
M  V30 329 C 32.3242 2.99478 4.27914 0
M  V30 330 H 34.0182 1.93708 2.28292 0
M  V30 331 H 31.5642 0.932761 1.09707 0
M  V30 332 H 33.5172 0.423332 4.19268 0
M  V30 333 H 32.2412 -0.379213 3.24391 0
M  V30 334 H 30.9002 1.75316 3.21963 0
M  V30 335 H 30.5482 0.063518 5.0296 0
M  V30 336 H 30.2482 1.71754 5.61938 0
M  V30 337 H 31.7722 0.886066 6.04137 0
M  V30 338 H 33.1862 2.88153 4.95622 0
M  V30 339 H 31.5832 3.64903 4.76409 0
M  V30 340 H 32.6532 3.49742 3.3587 0
M  V30 341 N 33.9963 -1.19345 1.0293 0
M  V30 342 C 34.9283 -2.22036 0.56857 0
M  V30 343 C 35.9413 -1.58865 -0.355779 0
M  V30 344 O 37.1303 -1.77851 -0.152103 0
M  V30 345 C 34.2303 -3.38363 -0.190752 0
M  V30 346 C 33.4033 -4.31118 0.738643 0
M  V30 347 C 32.4623 -5.26194 0.0246497 0
M  V30 348 O 31.4883 -5.65461 0.651354 0
M  V30 349 N 32.6903 -5.66971 -1.24594 0
M  V30 350 H 35.4553 -2.6219 1.45177 0
M  V30 351 H 33.0163 -1.34015 0.908381 0
M  V30 352 H 35.0083 -3.98981 -0.677961 0
M  V30 353 H 33.5783 -2.96994 -0.975366 0
M  V30 354 H 32.7983 -3.68276 1.40593 0
M  V30 355 H 34.0863 -4.90001 1.37029 0
M  V30 356 H 33.4843 -5.37104 -1.77583 0
M  V30 357 H 32.0413 -6.2984 -1.67764 0
M  V30 358 N 35.4744 -0.807222 -1.35358 0
M  V30 359 C 36.6994 -0.399309 -2.0352 0
M  V30 360 C 37.1244 0.981986 -1.60433 0
M  V30 361 O 36.4824 1.63601 -0.781299 0
M  V30 362 C 36.5304 -0.491552 -3.57234 0
M  V30 363 O 35.6344 0.494754 -4.09421 0
M  V30 364 H 34.9754 -0.166682 -0.642739 0
M  V30 365 H 37.5054 -1.09328 -1.72941 0
M  V30 366 H 37.5154 -0.361588 -4.06395 0
M  V30 367 H 36.1904 -1.49907 -3.87944 0
M  V30 368 H 34.7674 0.324977 -3.71481 0
M  V30 369 N 36.9525 1.47285 -0.560781 0
M  V30 370 C 38.1985 2.02764 -0.0381184 0
M  V30 371 C 38.5315 1.43384 1.30976 0
M  V30 372 O 37.8065 0.590733 1.85312 0
M  V30 373 C 38.0895 3.60064 0.0511427 0
M  V30 374 C 37.9425 4.2987 -1.32408 0
M  V30 375 C 39.2615 4.33439 0.762795 0
M  V30 376 H 36.3805 0.736841 -0.0153264 0
M  V30 377 H 39.0225 1.75675 -0.723759 0
M  V30 378 H 37.1725 3.83274 0.635065 0
M  V30 379 H 38.8445 4.17989 -1.95148 0
M  V30 380 H 37.0875 3.90085 -1.8978 0
M  V30 381 H 37.7585 5.38478 -1.21431 0
M  V30 382 H 40.2345 4.15243 0.266965 0
M  V30 383 H 39.1105 5.43124 0.794221 0
M  V30 384 H 39.3715 4.02915 1.81966 0
M  V30 385 N 38.4306 0.297415 1.54768 0
M  V30 386 C 39.3606 -0.573494 2.26348 0
M  V30 387 C 40.3416 -1.14085 1.26169 0
M  V30 388 O 41.5266 -1.17086 1.54934 0
M  V30 389 C 38.6566 -1.74716 3.00153 0
M  V30 390 C 37.6106 -1.31032 4.07449 0
M  V30 391 C 36.9366 -2.56887 4.68949 0
M  V30 392 C 38.2366 -0.444183 5.20408 0
M  V30 393 H 39.9306 0.0235131 2.99391 0
M  V30 394 H 37.4766 0.0127488 1.43994 0
M  V30 395 H 39.4296 -2.3625 3.48947 0
M  V30 396 H 38.1536 -2.37035 2.24682 0
M  V30 397 H 36.8126 -0.718066 3.59499 0
M  V30 398 H 36.4606 -3.17512 3.90122 0
M  V30 399 H 36.1606 -2.2836 5.41411 0
M  V30 400 H 37.6846 -3.19229 5.20505 0
M  V30 401 H 39.0986 -0.9651 5.65118 0
M  V30 402 H 37.4956 -0.252846 5.99567 0
M  V30 403 H 38.5656 0.531609 4.81977 0
M  V30 404 N 39.9087 -1.5758 0.0250728 0
M  V30 405 C 41.3197 -1.79476 -0.514323 0
M  V30 406 C 41.6707 -0.934956 -1.72491 0
M  V30 407 O 40.7957 -0.144245 -2.15919 0
M  V30 408 C 41.3907 -3.25503 -0.939842 0
M  V30 409 C 39.9497 -3.48408 -1.42438 0
M  V30 410 C 39.0967 -2.74583 -0.387201 0
M  V30 411 H 42.0477 -1.567 0.25113 0
M  V30 412 H 42.0687 -3.34992 -1.80445 0
M  V30 413 H 41.5807 -3.88056 -0.0585628 0
M  V30 414 H 39.6817 -2.91103 -2.32572 0
M  V30 415 H 39.7947 -4.57119 -1.43455 0
M  V30 416 H 38.1587 -2.39942 -0.854409 0
M  V30 417 H 38.9417 -3.39849 0.485543 0
M  V30 418 N 41.3868 0.248026 -1.55636 0
M  V30 419 C 42.2968 1.32859 -1.93354 0
M  V30 420 C 43.3128 1.52719 -0.833838 0
M  V30 421 O 44.4888 1.66363 -1.13513 0
M  V30 422 C 41.5538 2.66337 -2.21958 0
M  V30 423 C 40.6148 2.55008 -3.45354 0
M  V30 424 C 39.8478 3.82121 -3.72584 0
M  V30 425 O 40.0708 4.83951 -3.01907 0
M  V30 426 O 39.0048 3.80822 -4.6611 0
M  V30 427 H 42.8308 1.03862 -2.85388 0
M  V30 428 H 40.4158 0.448686 -1.42503 0
M  V30 429 H 42.2978 3.45216 -2.4167 0
M  V30 430 H 40.9728 2.95068 -1.33103 0
M  V30 431 H 39.8798 1.7442 -3.30951 0
M  V30 432 H 41.2128 2.31222 -4.34508 0
M  V30 433 N 42.8649 1.48995 0.513639 0
M  V30 434 C 44.2759 1.5119 1.09537 0
M  V30 435 C 44.6269 0.290906 1.94031 0
M  V30 436 O 43.7519 -0.60049 2.07902 0
M  V30 437 C 44.3469 2.73964 1.99322 0
M  V30 438 C 42.9059 2.78978 2.52682 0
M  V30 439 C 42.0529 2.44934 1.30009 0
M  V30 440 H 45.0039 1.55875 0.298125 0
M  V30 441 H 45.0249 2.53409 2.83838 0
M  V30 442 H 44.5369 3.62813 1.37799 0
M  V30 443 H 42.6379 1.94378 3.1788 0
M  V30 444 H 42.7509 3.8083 2.90698 0
M  V30 445 H 41.1149 1.9644 1.62122 0
M  V30 446 H 41.8979 3.36043 0.702131 0
M  V30 447 N 44.343 -0.763751 1.37857 0
M  V30 448 C 45.589 -1.52396 1.3471 0
M  V30 449 C 45.944 -1.92288 -0.0656435 0
M  V30 450 O 45.237 -1.6181 -1.02606 0
M  V30 451 C 45.431 -2.79499 2.22745 0
M  V30 452 C 45.26 -2.52031 3.72438 0
M  V30 453 C 44.03 -2.45759 4.4151 0
M  V30 454 C 46.228 -2.19489 4.65112 0
M  V30 455 N 44.21 -2.1046 5.76697 0
M  V30 456 C 45.581 -1.94396 5.88736 0
M  V30 457 C 47.636 -2.05712 4.53417 0
M  V30 458 C 46.339 -1.56917 7.01975 0
M  V30 459 C 48.365 -1.69634 5.66549 0
M  V30 460 C 47.727 -1.45407 6.89229 0
M  V30 461 H 43.826 -0.55765 0.548225 0
M  V30 462 H 46.41 -0.890302 1.73152 0
M  V30 463 H 44.581 -3.4069 1.86507 0
M  V30 464 H 46.313 -3.45465 2.10798 0
M  V30 465 H 43.068 -2.61885 3.94605 0
M  V30 466 H 43.492 -1.95484 6.48163 0
M  V30 467 H 48.134 -2.23123 3.59133 0
M  V30 468 H 45.852 -1.38246 7.96187 0
M  V30 469 H 49.438 -1.59621 5.59475 0
M  V30 470 H 48.318 -1.17904 7.75286 0
M  V30 471 N 45.8211 -1.22559 -0.990812 0
M  V30 472 C 46.7511 -1.0218 -2.09956 0
M  V30 473 C 47.7321 0.0579394 -1.70001 0
M  V30 474 O 48.9171 -0.104684 -1.93918 0
M  V30 475 C 46.0471 -0.601023 -3.4206 0
M  V30 476 C 45.0011 -1.62694 -3.95872 0
M  V30 477 C 44.3271 -1.06193 -5.24049 0
M  V30 478 C 45.6271 -3.01743 -4.2632 0
M  V30 479 H 47.3211 -1.94916 -2.27262 0
M  V30 480 H 44.8671 -0.938566 -1.09211 0
M  V30 481 H 46.8201 -0.445561 -4.19038 0
M  V30 482 H 45.5441 0.362005 -3.24588 0
M  V30 483 H 44.2031 -1.77021 -3.21028 0
M  V30 484 H 43.8511 -0.0901903 -5.02919 0
M  V30 485 H 43.5511 -1.74732 -5.61019 0
M  V30 486 H 45.0751 -0.918092 -6.03658 0
M  V30 487 H 46.4891 -2.90777 -4.94087 0
M  V30 488 H 44.8861 -3.67425 -4.74467 0
M  V30 489 H 45.9561 -3.51518 -3.34011 0
M  V30 490 N 47.2992 1.18797 -1.03562 0
M  V30 491 C 48.2622 2.20464 -0.626769 0
M  V30 492 C 49.2622 1.57721 0.313173 0
M  V30 493 O 50.4522 1.73917 0.0992615 0
M  V30 494 C 47.5842 3.40802 0.0818498 0
M  V30 495 H 48.7772 2.58149 -1.5264 0
M  V30 496 H 46.3302 1.32593 -0.827578 0
M  V30 497 H 47.0652 3.08642 0.995518 0
M  V30 498 H 46.8502 3.8758 -0.593652 0
M  V30 499 H 48.3402 4.16092 0.354584 0
M  V30 500 N 48.7773 0.814389 1.34928 0
M  V30 501 C 50.0243 0.398423 1.98542 0
M  V30 502 C 50.3523 -1.03638 1.64589 0
M  V30 503 O 49.6073 -1.73509 0.90516 0
M  V30 504 C 49.9063 0.537781 3.53331 0
M  V30 505 C 49.5723 1.93704 4.07172 0
M  V30 506 C 48.2343 2.31984 4.21589 0
M  V30 507 C 50.5863 2.85213 4.36237 0
M  V30 508 C 47.9143 3.61125 4.62391 0
M  V30 509 C 50.2663 4.13809 4.78482 0
M  V30 510 C 48.9303 4.52077 4.91104 0
M  V30 511 H 48.2003 0.145793 0.726516 0
M  V30 512 H 50.8473 1.03669 1.61012 0
M  V30 513 H 49.1523 -0.183906 3.91368 0
M  V30 514 H 50.8493 0.196588 4.00518 0
M  V30 515 H 47.4393 1.62966 3.96409 0
M  V30 516 H 51.6233 2.56885 4.24645 0
M  V30 517 H 46.8793 3.90612 4.70353 0
M  V30 518 H 51.0533 4.84811 4.99932 0
M  V30 519 H 48.6803 5.52196 5.22478 0
M  V30 520 N 50.2554 -1.46986 0.568584 0
M  V30 521 C 51.5034 -2.02041 0.0487022 0
M  V30 522 C 51.8244 -1.44408 -1.31039 0
M  V30 523 O 51.0944 -0.623477 -1.85714 0
M  V30 524 H 49.6744 -0.746849 0.015014 0
M  V30 525 H 52.3364 -1.80257 0.741168 0
M  V30 526 H 51.4324 -3.12085 -0.0308961 0
M  V30 527 N 51.7335 -0.305618 -1.54608 0
M  V30 528 C 52.9795 0.302746 -2.00528 0
M  V30 529 C 53.3125 1.53184 -1.19367 0
M  V30 530 O 52.5875 1.92598 -0.271321 0
M  V30 531 C 52.8705 0.654756 -3.54097 0
M  V30 532 C 52.7235 -0.583793 -4.45995 0
M  V30 533 C 54.0425 1.47947 -4.14487 0
M  V30 534 H 51.1615 0.108564 -0.72896 0
M  V30 535 H 53.8035 -0.418634 -1.85331 0
M  V30 536 H 51.9535 1.26935 -3.67178 0
M  V30 537 H 53.6255 -1.22224 -4.44814 0
M  V30 538 H 51.8685 -1.21615 -4.16404 0
M  V30 539 H 52.5395 -0.293287 -5.5122 0
M  V30 540 H 55.0155 0.96013 -4.04871 0
M  V30 541 H 53.8915 1.69454 -5.22088 0
M  V30 542 H 54.1525 2.47011 -3.66658 0
M  V30 543 N 53.2116 1.57565 -0.0334293 0
M  V30 544 C 54.4886 1.83282 0.683163 0
M  V30 545 C 54.8686 0.91823 1.90084 0
M  V30 546 O 54.2166 -0.025113 2.28486 0
M  V30 547 C 54.4266 3.32599 1.0573 0
M  V30 548 C 55.7746 3.99179 1.44711 0
M  V30 549 O 56.7986 3.3712 1.15015 0
M  V30 550 O 55.6576 5.08565 2.0006 0
M  V30 551 H 52.7516 0.755869 0.335546 0
M  V30 552 H 55.2976 1.69589 -0.0614402 0
M  V30 553 H 54.0696 3.90834 0.190828 0
M  V30 554 H 53.6926 3.51415 1.85993 0
M  V30 555 N 54.6897 -0.239769 1.55765 0
M  V30 556 C 55.9147 -0.988373 1.82335 0
M  V30 557 C 56.3397 -1.77886 0.611421 0
M  V30 558 O 55.6977 -1.75889 -0.439639 0
M  V30 559 C 55.7457 -1.89627 3.06715 0
M  V30 560 O 54.8497 -2.98904 2.84131 0
M  V30 561 H 54.1907 -0.280858 0.601677 0
M  V30 562 H 56.7207 -0.258597 2.02959 0
M  V30 563 H 56.7307 -2.30957 3.36338 0
M  V30 564 H 55.4057 -1.31511 3.9456 0
M  V30 565 H 53.9827 -2.61651 2.65694 0
M  V30 566 N 56.1678 -1.49265 -0.50573 0
M  V30 567 C 57.0978 -1.68495 -1.61653 0
M  V30 568 C 58.0788 -0.53366 -1.61512 0
M  V30 569 O 59.2638 -0.76897 -1.78327 0
M  V30 570 C 56.3938 -1.74709 -3.00157 0
M  V30 571 C 55.3478 -2.89581 -3.15162 0
M  V30 572 C 54.6738 -2.80903 -4.5497 0
M  V30 573 C 55.9738 -4.30578 -2.95634 0
M  V30 574 H 57.6678 -2.61493 -1.45814 0
M  V30 575 H 55.2138 -1.25838 -0.70005 0
M  V30 576 H 57.1668 -1.86748 -3.77761 0
M  V30 577 H 55.8908 -0.783067 -3.17074 0
M  V30 578 H 54.5498 -2.77136 -2.39982 0
M  V30 579 H 54.1978 -1.82419 -4.68756 0
M  V30 580 H 53.8978 -3.57999 -4.65951 0
M  V30 581 H 55.4218 -2.94944 -5.34641 0
M  V30 582 H 56.8358 -4.4373 -3.63011 0
M  V30 583 H 55.2328 -5.0886 -3.18091 0
M  V30 584 H 56.3028 -4.45352 -1.91806 0
M  V30 585 N 57.6459 0.756429 -1.3826 0
M  V30 586 C 58.8949 1.51082 -1.3363 0
M  V30 587 C 59.2079 1.95467 0.0720068 0
M  V30 588 O 60.4139 2.7043 0.240834 0
M  V30 589 C 58.8699 2.72893 -2.34644 0
M  V30 590 C 58.4779 2.35544 -3.81081 0
M  V30 591 C 60.2219 3.50791 -2.39052 0
M  V30 592 C 58.1289 3.53948 -4.73787 0
M  V30 593 H 57.0589 0.56727 -0.49671 0
M  V30 594 H 59.7099 0.827147 -1.638 0
M  V30 595 H 58.0919 3.43227 -1.97513 0
M  V30 596 H 59.2659 1.72894 -4.27135 0
M  V30 597 H 57.5809 1.70786 -3.79764 0
M  V30 598 H 60.1779 4.38823 -3.05513 0
M  V30 599 H 60.5209 3.91745 -1.40861 0
M  V30 600 H 61.0539 2.87467 -2.74968 0
M  V30 601 H 57.7929 3.18064 -5.73163 0
M  V30 602 H 57.3129 4.15651 -4.32428 0
M  V30 603 H 58.9919 4.20566 -4.91663 0
M  V30 604 N 59.124 1.23083 0.984299 0
M  V30 605 C 60.034 1.02515 2.11016 0
M  V30 606 C 61.05 -0.0291702 1.73976 0
M  V30 607 O 62.226 0.165434 2.00719 0
M  V30 608 C 59.291 0.614673 3.41208 0
M  V30 609 C 58.352 1.74359 3.92297 0
M  V30 610 C 57.585 1.35261 5.16275 0
M  V30 611 O 57.808 0.235136 5.69915 0
M  V30 612 O 56.742 2.17227 5.61334 0
M  V30 613 H 60.568 1.96862 2.31255 0
M  V30 614 H 58.153 1.01753 1.09392 0
M  V30 615 H 60.035 0.396518 4.1953 0
M  V30 616 H 58.71 -0.299851 3.22308 0
M  V30 617 H 57.617 2.01635 3.1511 0
M  V30 618 H 58.95 2.63629 4.15645 0
M  V30 619 N 60.6021 -1.18246 1.0419 0
M  V30 620 C 61.5651 -2.20128 0.638452 0
M  V30 621 C 62.5651 -1.57885 -0.304805 0
M  V30 622 O 63.7551 -1.73967 -0.0900369 0
M  V30 623 C 60.8871 -3.4084 -0.0637751 0
M  V30 624 H 62.0801 -2.57336 1.54007 0
M  V30 625 H 59.6331 -1.32152 0.834598 0
M  V30 626 H 60.3681 -3.09166 -0.979136 0
M  V30 627 H 60.1531 -3.8726 0.614198 0
M  V30 628 H 61.6431 -4.16274 -0.332512 0
M  V30 629 N 62.0802 -0.821533 -1.34494 0
M  V30 630 C 63.0132 -0.187704 -2.27427 0
M  V30 631 C 63.9912 0.65507 -1.48821 0
M  V30 632 O 65.1752 0.619111 -1.78043 0
M  V30 633 C 62.3022 0.737996 -3.30562 0
M  V30 634 C 61.3482 -0.0270713 -4.26491 0
M  V30 635 S 62.1812 -1.37329 -5.17592 0
M  V30 636 C 63.3372 -0.452427 -6.24263 0
M  V30 637 H 63.5702 -0.975598 -2.80837 0
M  V30 638 H 61.1032 -0.61736 -1.4152 0
M  V30 639 H 63.0612 1.26654 -3.90473 0
M  V30 640 H 61.7222 1.4994 -2.76001 0
M  V30 641 H 60.9152 0.6766 -4.99438 0
M  V30 642 H 60.5172 -0.48612 -3.70827 0
M  V30 643 H 62.8092 0.356557 -6.76561 0
M  V30 644 H 63.7522 -1.15153 -6.98674 0
M  V30 645 H 64.1602 -0.0414755 -5.64485 0
M  V30 646 N 63.5583 1.46682 -0.576371 0
M  V30 647 C 64.9693 1.86112 -0.148091 0
M  V30 648 C 65.3203 1.48073 1.2872 0
M  V30 649 O 64.4453 0.892656 1.97131 0
M  V30 650 C 65.0403 3.37786 -0.261982 0
M  V30 651 C 63.5993 3.76235 0.111384 0
M  V30 652 C 62.7463 2.70713 -0.60083 0
M  V30 653 H 65.6973 1.37927 -0.78497 0
M  V30 654 H 65.7183 3.77007 0.514364 0
M  V30 655 H 65.2303 3.6544 -1.30671 0
M  V30 656 H 63.3313 3.54198 1.15649 0
M  V30 657 H 63.4443 4.78391 -0.26052 0
M  V30 658 H 61.8083 2.54666 -0.0417783 0
M  V30 659 H 62.5913 3.01208 -1.64708 0
M  V30 660 N 65.0364 0.313813 1.54444 0
M  V30 661 C 65.9664 -0.549454 2.26943 0
M  V30 662 C 66.9474 -1.12741 1.27372 0
M  V30 663 O 68.1324 -1.15436 1.56167 0
M  V30 664 C 65.2624 -1.71523 3.01989 0
M  V30 665 C 64.2164 -1.26703 4.08816 0
M  V30 666 C 63.5424 -2.51898 4.71647 0
M  V30 667 C 64.8424 -0.388962 5.2085 0
M  V30 668 H 66.5364 0.0552661 2.99349 0
M  V30 669 H 64.0824 0.0280207 1.43973 0
M  V30 670 H 66.0354 -2.32535 3.51433 0
M  V30 671 H 64.7594 -2.34639 2.27183 0
M  V30 672 H 63.4184 -0.679896 3.6024 0
M  V30 673 H 63.0664 -3.13356 3.93468 0
M  V30 674 H 62.7664 -2.22605 5.43802 0
M  V30 675 H 64.2904 -3.1369 5.23861 0
M  V30 676 H 65.7044 -0.905107 5.6611 0
M  V30 677 H 64.1014 -0.18924 5.99802 0
M  V30 678 H 65.1714 0.582699 4.81386 0
M  V30 679 N 66.5145 -1.57545 0.0417849 0
M  V30 680 C 67.4615 -2.10977 -0.935805 0
M  V30 681 C 68.4315 -1.01486 -1.31491 0
M  V30 682 O 69.6165 -1.2898 -1.40602 0
M  V30 683 C 66.7565 -2.65169 -2.2086 0
M  V30 684 C 65.8695 -3.88714 -1.88482 0
M  V30 685 C 65.0045 -4.31254 -3.1015 0
M  V30 686 C 64.0435 -5.47524 -2.7365 0
M  V30 687 N 63.1805 -5.85162 -3.87982 0
M  V30 688 H 68.0205 -2.94218 -0.473249 0
M  V30 689 H 65.5575 -1.45415 -0.221981 0
M  V30 690 H 67.5155 -2.94685 -2.95325 0
M  V30 691 H 66.1455 -1.8474 -2.64709 0
M  V30 692 H 65.1975 -3.65849 -1.04205 0
M  V30 693 H 66.5095 -4.73245 -1.57608 0
M  V30 694 H 65.6635 -4.62273 -3.92923 0
M  V30 695 H 64.4025 -3.45516 -3.44195 0
M  V30 696 H 63.4075 -5.16187 -1.89291 0
M  V30 697 H 64.6325 -6.34971 -2.40807 0
M  V30 698 H 62.5785 -5.02377 -4.21846 0
M  V30 699 H 62.4955 -6.64362 -3.60775 0
M  V30 700 H 63.7635 -6.20791 -4.71422 0
M  V30 701 N 67.9926 0.231505 -1.5589 0
M  V30 702 C 68.9256 1.31369 -1.86595 0
M  V30 703 C 69.9036 1.45671 -0.722397 0
M  V30 704 O 71.0876 1.61642 -0.969743 0
M  V30 705 C 68.2146 2.68529 -2.06421 0
M  V30 706 C 67.2606 2.71295 -3.29092 0
M  V30 707 S 68.0936 2.26358 -4.85306 0
M  V30 708 C 69.2496 3.65414 -5.08157 0
M  V30 709 H 69.4826 1.05128 -2.78092 0
M  V30 710 H 67.0156 0.433259 -1.48197 0
M  V30 711 H 68.9736 3.47499 -2.18528 0
M  V30 712 H 67.6346 2.91999 -1.15738 0
M  V30 713 H 66.8276 3.72063 -3.39978 0
M  V30 714 H 66.4296 2.0038 -3.15791 0
M  V30 715 H 68.7216 4.6103 -4.96445 0
M  V30 716 H 69.6646 3.5945 -6.10083 0
M  V30 717 H 70.0726 3.5864 -4.35933 0
M  V30 718 N 69.4707 1.49531 0.497807 0
M  V30 719 C 70.4027 1.62559 1.61578 0
M  V30 720 C 71.4157 0.508134 1.54667 0
M  V30 721 O 72.6047 0.780309 1.60541 0
M  V30 722 C 69.7047 1.56925 3.00379 0
M  V30 723 C 68.8777 2.84257 3.3244 0
M  V30 724 C 67.9367 2.71632 4.50669 0
M  V30 725 O 66.9627 3.4557 4.52294 0
M  V30 726 N 68.1647 1.83391 5.5077 0
M  V30 727 H 70.9297 2.58981 1.50828 0
M  V30 728 H 68.4907 1.4666 0.685743 0
M  V30 729 H 70.4827 1.46129 3.77397 0
M  V30 730 H 69.0527 0.683483 3.05037 0
M  V30 731 H 68.2727 3.09381 2.44289 0
M  V30 732 H 69.5607 3.68666 3.5066 0
M  V30 733 H 68.9587 1.22583 5.52259 0
M  V30 734 H 67.5157 1.78515 6.26878 0
M  V30 735 N 70.9488 -0.749086 1.3866 0
M  V30 736 C 72.1738 -1.54344 1.38538 0
M  V30 737 C 72.5988 -1.88088 -0.0216655 0
M  V30 738 O 71.9568 -1.50899 -1.00494 0
M  V30 739 C 72.0048 -2.8164 2.25192 0
M  V30 740 O 71.1088 -3.7698 1.67212 0
M  V30 741 H 70.4498 -0.466654 0.472367 0
M  V30 742 H 72.9798 -0.925355 1.82478 0
M  V30 743 H 72.9898 -3.30519 2.3921 0
M  V30 744 H 71.6648 -2.56411 3.27454 0
M  V30 745 H 70.2418 -3.35699 1.6236 0
M  V30 746 N 72.4269 -1.23603 -0.977757 0
M  V30 747 C 73.3899 -1.02069 -2.05218 0
M  V30 748 C 74.3899 0.0184305 -1.60789 0
M  V30 749 O 75.5799 -0.221569 -1.72785 0
M  V30 750 C 72.7119 -0.544926 -3.36517 0
M  V30 751 H 73.9049 -1.9742 -2.25755 0
M  V30 752 H 71.4579 -1.05684 -1.15155 0
M  V30 753 H 72.1929 0.412241 -3.21669 0
M  V30 754 H 71.9779 -1.2948 -3.70105 0
M  V30 755 H 73.4679 -0.414985 -4.15533 0
M  V30 756 N 73.905 1.17692 -1.04816 0
M  V30 757 C 74.815 2.25229 -0.65643 0
M  V30 758 C 75.831 1.71018 0.320761 0
M  V30 759 O 77.007 2.00649 0.173805 0
M  V30 760 C 74.072 3.46684 -0.0332629 0
M  V30 761 C 73.133 4.15997 -1.06042 0
M  V30 762 C 72.366 5.31654 -0.466893 0
M  V30 763 O 72.589 5.65777 0.724758 0
M  V30 764 O 71.523 5.89831 -1.1993 0
M  V30 765 H 75.349 2.61016 -1.55255 0
M  V30 766 H 72.934 1.24919 -0.81949 0
M  V30 767 H 74.816 4.20234 0.313256 0
M  V30 768 H 73.491 3.12703 0.836566 0
M  V30 769 H 72.398 3.44482 -1.45886 0
M  V30 770 H 73.731 4.53996 -1.90127 0
M  V30 771 N 75.3831 0.828654 1.34056 0
M  V30 772 C 76.6311 0.41863 1.97717 0
M  V30 773 C 76.9521 -1.02314 1.66002 0
M  V30 774 O 76.2221 -1.71119 0.953683 0
M  V30 775 H 74.8021 0.151809 0.731412 0
M  V30 776 H 77.4641 1.05936 1.63596 0
M  V30 777 H 76.5601 0.542318 3.07352 0
M  V30 778 N 76.8612 -1.46375 0.584142 0
M  V30 779 C 78.1092 -2.01978 0.0701287 0
M  V30 780 C 78.4302 -1.4579 -1.295 0
M  V30 781 O 77.7002 -0.64314 -1.85042 0
M  V30 782 H 76.2802 -0.746648 0.0229345 0
M  V30 783 H 78.9422 -1.79461 0.760245 0
M  V30 784 H 78.0382 -3.121 0.0022064 0
M  V30 785 N 78.3393 -0.321999 -1.54275 0
M  V30 786 C 79.5883 0.281931 -1.9972 0
M  V30 787 C 79.9013 1.53369 -1.21397 0
M  V30 788 O 81.1073 2.21352 -1.57211 0
M  V30 789 C 79.5633 0.5529 -3.55628 0
M  V30 790 C 79.1713 -0.681721 -4.42783 0
M  V30 791 C 80.9153 1.11687 -4.09544 0
M  V30 792 C 78.8223 -0.382742 -5.9016 0
M  V30 793 H 77.7523 0.109124 -0.746062 0
M  V30 794 H 80.4033 -0.43398 -1.78294 0
M  V30 795 H 78.7853 1.32896 -3.73035 0
M  V30 796 H 79.9593 -1.45723 -4.37151 0
M  V30 797 H 78.2743 -1.1658 -3.99748 0
M  V30 798 H 80.8713 1.35515 -5.17242 0
M  V30 799 H 81.2143 2.06575 -3.61431 0
M  V30 800 H 81.7473 0.402032 -3.95763 0
M  V30 801 H 78.4863 -1.30076 -6.42464 0
M  V30 802 H 78.0063 0.355094 -5.98748 0
M  V30 803 H 79.6853 0.00800157 -6.47 0
M  V30 804 N 79.8174 1.5752 -0.0501392 0
M  V30 805 C 80.7274 2.14952 0.939827 0
M  V30 806 C 81.7434 1.10706 1.34239 0
M  V30 807 O 82.9194 1.42869 1.41952 0
M  V30 808 C 79.9844 2.68232 2.19665 0
M  V30 809 C 79.0454 3.87272 1.85253 0
M  V30 810 C 78.2784 4.38002 3.04943 0
M  V30 811 O 78.5014 3.87811 4.18281 0
M  V30 812 O 77.4354 5.29602 2.86017 0
M  V30 813 H 81.2614 2.9986 0.481392 0
M  V30 814 H 78.8464 1.4841 0.171699 0
M  V30 815 H 80.7284 3.02475 2.93406 0
M  V30 816 H 79.4034 1.86395 2.64648 0
M  V30 817 H 78.3104 3.5792 1.0883 0
M  V30 818 H 79.6434 4.70336 1.4507 0
M  V30 819 N 81.2955 -0.223234 1.56011 0
M  V30 820 C 82.5425 -0.947875 1.78946 0
M  V30 821 C 82.8705 -1.844 0.618608 0
M  V30 822 O 82.1255 -1.91629 -0.397093 0
M  V30 823 C 82.4245 -1.81948 3.0762 0
M  V30 824 C 82.0905 -1.07672 4.37856 0
M  V30 825 C 80.7525 -0.871544 4.73242 0
M  V30 826 C 83.1045 -0.552081 5.18268 0
M  V30 827 C 80.4325 -0.129791 5.86556 0
M  V30 828 C 82.7845 0.17632 6.32354 0
M  V30 829 C 81.4485 0.39277 6.66343 0
M  V30 830 H 80.7185 -0.346852 0.654809 0
M  V30 831 H 83.3655 -0.216171 1.90276 0
M  V30 832 H 81.6705 -2.61899 2.91404 0
M  V30 833 H 83.3675 -2.38227 3.22566 0
M  V30 834 H 79.9575 -1.24662 4.1007 0
M  V30 835 H 84.1415 -0.698076 4.91366 0
M  V30 836 H 79.3975 0.048153 6.11381 0
M  V30 837 H 83.5715 0.590367 6.93893 0
M  V30 838 H 81.1985 0.969466 7.53993 0
M  V30 839 N 82.7736 -1.49793 -0.48987 0
M  V30 840 C 84.0506 -1.50348 -1.25119 0
M  V30 841 C 84.4306 -0.237466 -2.0976 0
M  V30 842 O 83.7786 0.77981 -2.14782 0
M  V30 843 C 83.9886 -2.78872 -2.09837 0
M  V30 844 C 85.3366 -3.288 -2.68655 0
M  V30 845 O 86.3606 -2.80065 -2.20096 0
M  V30 846 O 85.2196 -4.13707 -3.57083 0
M  V30 847 H 82.3136 -0.602242 -0.566775 0
M  V30 848 H 84.8596 -1.62067 -0.503229 0
M  V30 849 H 83.6316 -3.62499 -1.47343 0
M  V30 850 H 83.2546 -2.70066 -2.91805 0
M  V30 851 N 84.2517 0.741722 -1.39055 0
M  V30 852 C 85.2147 1.83733 -1.37021 0
M  V30 853 C 86.2147 1.58542 -0.268534 0
M  V30 854 O 87.4047 1.66067 -0.526076 0
M  V30 855 C 84.5367 3.2141 -1.13617 0
M  V30 856 H 85.7297 1.86941 -2.34506 0
M  V30 857 H 83.2827 0.944676 -1.24521 0
M  V30 858 H 84.0177 3.23865 -0.167863 0
M  V30 859 H 83.8027 3.4109 -1.93391 0
M  V30 860 H 85.2927 4.01477 -1.14918 0
M  V30 861 N 85.7298 1.2412 0.971189 0
M  V30 862 C 87.0068 0.986867 1.6888 0
M  V30 863 C 87.3868 -0.491857 2.0529 0
M  V30 864 O 86.7348 -1.46531 1.75331 0
M  V30 865 C 86.9448 1.9063 2.92338 0
M  V30 866 C 88.2928 2.17515 3.64654 0
M  V30 867 O 89.3168 1.88254 3.02388 0
M  V30 868 O 88.1758 2.6719 4.7673 0
M  V30 869 H 85.2698 0.372944 0.738134 0
M  V30 870 H 87.8158 1.35203 1.02559 0
M  V30 871 H 86.5878 2.90552 2.62097 0
M  V30 872 H 86.2108 1.54408 3.66393 0
M  V30 873 N 87.2079 -1.17134 1.05439 0
M  V30 874 C 88.4559 -1.87085 0.764429 0
M  V30 875 C 88.7769 -1.81584 -0.710787 0
M  V30 876 O 88.0469 -1.24349 -1.51374 0
M  V30 877 H 86.6269 -0.692627 0.279779 0
M  V30 878 H 89.2889 -1.42087 1.33406 0
M  V30 879 H 88.3849 -2.92759 1.0816 0
M  V30 880 N 88.686 -0.835752 -1.33615 0
M  V30 881 C 89.934 -0.429109 -1.97492 0
M  V30 882 C 90.255 1.01433 -1.66543 0
M  V30 883 O 89.525 1.70611 -0.962744 0
M  V30 884 H 88.105 -0.155686 -0.730596 0
M  V30 885 H 90.767 -1.06802 -1.63031 0
M  V30 886 H 89.863 -0.55861 -3.0706 0
M  V30 887 N 90.1641 1.46063 -0.591896 0
M  V30 888 C 91.4101 2.02638 -0.0811191 0
M  V30 889 C 91.7431 1.4613 1.27905 0
M  V30 890 O 91.0181 0.629908 1.84017 0
M  V30 891 C 91.3011 3.60091 -0.0252436 0
M  V30 892 C 91.1541 4.26965 -1.41496 0
M  V30 893 C 92.4731 4.3496 0.670685 0
M  V30 894 H 89.5921 0.73635 -0.0309524 0
M  V30 895 H 92.2341 1.741 -0.760859 0
M  V30 896 H 90.3841 3.84535 0.553624 0
M  V30 897 H 92.0561 4.13756 -2.0397 0
M  V30 898 H 90.2991 3.85971 -1.98011 0
M  V30 899 H 90.9701 5.35781 -1.32825 0
M  V30 900 H 93.4461 4.15716 0.178825 0
M  V30 901 H 92.3221 5.44686 0.678837 0
M  V30 902 H 92.5831 4.06685 1.73379 0
M  V30 903 N 91.6422 0.330177 1.54103 0
M  V30 904 C 92.8672 -0.274893 2.0557 0
M  V30 905 C 93.2922 -1.44487 1.20437 0
M  V30 906 O 92.6502 -1.80021 0.214991 0
M  V30 907 C 92.6982 -0.68079 3.54115 0
M  V30 908 O 91.8022 -1.7824 3.71893 0
M  V30 909 H 91.1432 -0.0483849 0.662235 0
M  V30 910 H 93.6732 0.480508 1.98878 0
M  V30 911 H 93.6832 -0.961635 3.96505 0
M  V30 912 H 92.3582 0.174903 4.15532 0
M  V30 913 H 90.9352 -1.49985 3.41407 0
M  V30 914 N 93.1203 -1.57491 0.0584922 0
M  V30 915 C 94.3693 -1.92155 -0.613146 0
M  V30 916 C 94.6823 -0.939334 -1.71569 0
M  V30 917 O 95.8883 -1.17829 -2.44599 0
M  V30 918 C 94.3443 -3.41303 -1.14195 0
M  V30 919 C 93.9523 -4.47944 -0.0711265 0
M  V30 920 C 95.6963 -3.84988 -1.78841 0
M  V30 921 C 93.6033 -5.88212 -0.613225 0
M  V30 922 H 92.5333 -0.717162 -0.232796 0
M  V30 923 H 95.1843 -1.83049 0.12857 0
M  V30 924 H 93.5663 -3.45437 -1.93621 0
M  V30 925 H 94.7403 -4.55408 0.702836 0
M  V30 926 H 93.0553 -4.13644 0.478313 0
M  V30 927 H 95.6523 -4.87159 -2.20408 0
M  V30 928 H 95.9953 -3.21632 -2.64308 0
M  V30 929 H 96.5283 -3.83401 -1.06059 0
M  V30 930 H 93.2673 -6.55183 0.203978 0
M  V30 931 H 92.7873 -5.84294 -1.35501 0
M  V30 932 H 94.4663 -6.37687 -1.09383 0
M  V30 933 N 94.5984 0.214957 -1.56127 0
M  V30 934 C 95.8464 0.936518 -1.79091 0
M  V30 935 C 96.1674 1.84606 -0.628148 0
M  V30 936 O 95.4374 1.92664 0.35462 0
M  V30 937 H 94.0174 0.3488 -0.660566 0
M  V30 938 H 96.6794 0.22523 -1.93594 0
M  V30 939 H 95.7754 1.53943 -2.71492 0
M  V30 940 N 96.0765 1.50051 0.48192 0
M  V30 941 C 97.4875 1.5348 1.06305 0
M  V30 942 C 97.8385 0.331997 1.93371 0
M  V30 943 O 96.9635 -0.556256 2.09129 0
M  V30 944 C 97.5585 2.7813 1.93466 0
M  V30 945 C 96.1175 2.84275 2.46707 0
M  V30 946 C 95.2645 2.47637 1.24785 0
M  V30 947 H 98.2155 1.56472 0.264995 0
M  V30 948 H 98.2365 2.59372 2.78399 0
M  V30 949 H 97.7485 3.65654 1.30072 0
M  V30 950 H 95.8495 2.01077 3.13686 0
M  V30 951 H 95.9625 3.8691 2.82555 0
M  V30 952 H 94.3265 1.99835 1.57918 0
M  V30 953 H 95.1095 3.37457 0.630694 0
M  V30 954 N 97.5546 -0.734337 1.39446 0
M  V30 955 C 98.4646 -1.87879 1.40495 0
M  V30 956 C 99.4806 -1.714 0.299672 0
M  V30 957 O 100.657 -1.93991 0.541249 0
M  V30 958 C 97.7216 -3.23477 1.24754 0
M  V30 959 C 96.7826 -3.52344 2.45259 0
M  V30 960 C 96.0156 -4.81473 2.30259 0
M  V30 961 O 96.2386 -5.55237 1.30643 0
M  V30 962 O 95.1726 -5.10254 3.19256 0
M  V30 963 H 98.9986 -1.89949 2.36966 0
M  V30 964 H 96.5836 -0.882243 1.20569 0
M  V30 965 H 98.4656 -4.04509 1.18111 0
M  V30 966 H 97.1406 -3.22176 0.313781 0
M  V30 967 H 96.0476 -2.71396 2.57478 0
M  V30 968 H 97.3806 -3.58426 3.37331 0
M  V30 969 N 99.0327 -1.24633 -0.964593 0
M  V30 970 C 100.28 -1.08788 -1.70796 0
M  V30 971 C 100.608 0.372783 -1.90894 0
M  V30 972 O 99.8627 1.29167 -1.47018 0
M  V30 973 C 100.162 -1.7763 -3.10133 0
M  V30 974 C 99.8277 -3.27557 -3.09866 0
M  V30 975 C 98.4897 -3.6846 -3.09501 0
M  V30 976 C 100.842 -4.23389 -3.03959 0
M  V30 977 C 98.1697 -5.03624 -3.00965 0
M  V30 978 C 100.522 -5.58565 -2.96965 0
M  V30 979 C 99.1857 -5.98809 -2.9493 0
M  V30 980 H 98.4557 -0.398084 -0.624988 0
M  V30 981 H 101.103 -1.54777 -1.12767 0
M  V30 982 H 99.4077 -1.24044 -3.71645 0
M  V30 983 H 101.105 -1.62832 -3.66451 0
M  V30 984 H 97.6947 -2.95006 -3.10917 0
M  V30 985 H 101.879 -3.92787 -3.03368 0
M  V30 986 H 97.1347 -5.33998 -2.97752 0
M  V30 987 H 101.309 -6.32523 -2.91354 0
M  V30 988 H 98.9357 -7.03505 -2.88071 0
M  V30 989 N 100.511 1.16574 -1.06058 0
M  V30 990 C 101.927 1.3904 -0.783585 0
M  V30 991 C 102.127 1.91784 0.618145 0
M  V30 992 O 101.183 2.11511 1.37911 0
M  V30 993 C 102.496 2.37329 -1.84649 0
M  V30 994 C 104.044 2.51018 -1.86973 0
M  V30 995 C 104.519 3.52588 -2.92311 0
M  V30 996 N 106.01 3.60113 -2.91329 0
M  V30 997 C 106.745 4.38486 -3.69482 0
M  V30 998 N 106.241 5.20302 -4.57447 0
M  V30 999 N 108.034 4.33446 -3.57885 0
M  V30 1000 H 100.185 0.806725 -1.96483 0
M  V30 1001 H 102.448 0.417117 -0.851303 0
M  V30 1002 H 102.154 2.05663 -2.85299 0
M  V30 1003 H 102.028 3.36946 -1.6955 0
M  V30 1004 H 104.415 2.81989 -0.869827 0
M  V30 1005 H 104.496 1.51445 -2.0615 0
M  V30 1006 H 104.14 3.22354 -3.92492 0
M  V30 1007 H 104.07 4.51886 -2.70383 0
M  V30 1008 H 106.561 3.01707 -2.27555 0
M  V30 1009 H 106.874 5.77311 -5.13743 0
M  V30 1010 H 105.219 5.19653 -4.61503 0
M  V30 1011 H 108.41 3.68586 -2.88551 0
M  V30 1012 H 108.583 4.94279 -4.19037 0
M  V30 1013 N 101.989 0.842826 1.3317 0
M  V30 1014 C 102.952 0.284065 2.27433 0
M  V30 1015 C 103.952 -0.54948 1.5112 0
M  V30 1016 O 105.142 -0.362699 1.70382 0
M  V30 1017 C 102.274 -0.599384 3.35589 0
M  V30 1018 H 103.467 1.11589 2.78366 0
M  V30 1019 H 101.02 0.616221 1.4364 0
M  V30 1020 H 101.755 -1.45349 2.89904 0
M  V30 1021 H 101.54 -0.00291266 3.921 0
M  V30 1022 H 103.03 -0.983488 4.05854 0
M  V30 1023 N 103.467 -1.45747 0.599634 0
M  V30 1024 C 104.397 -2.33235 -0.111306 0
M  V30 1025 C 105.378 -1.46359 -0.866781 0
M  V30 1026 O 106.563 -1.75146 -0.838904 0
M  V30 1027 C 103.693 -3.28932 -1.11451 0
M  V30 1028 C 102.647 -4.25381 -0.472772 0
M  V30 1029 C 101.973 -5.1071 -1.58365 0
M  V30 1030 C 103.273 -5.18831 0.600948 0
M  V30 1031 H 104.967 -2.92927 0.61919 0
M  V30 1032 H 102.513 -1.40857 0.299215 0
M  V30 1033 H 104.466 -3.89002 -1.62036 0
M  V30 1034 H 103.19 -2.67381 -1.8755 0
M  V30 1035 H 101.849 -3.66598 0.0121472 0
M  V30 1036 H 101.497 -4.45533 -2.33473 0
M  V30 1037 H 101.197 -5.7604 -1.15982 0
M  V30 1038 H 102.721 -5.73647 -2.09194 0
M  V30 1039 H 104.135 -5.73019 0.179491 0
M  V30 1040 H 102.532 -5.92595 0.946076 0
M  V30 1041 H 103.602 -4.6174 1.48068 0
M  V30 1042 N 104.945 -0.338344 -1.53925 0
M  V30 1043 C 105.855 0.529421 -2.28548 0
M  V30 1044 C 106.871 1.11645 -1.3346 0
M  V30 1045 O 108.047 1.13325 -1.66492 0
M  V30 1046 C 105.112 1.66713 -3.03987 0
M  V30 1047 C 104.173 1.11041 -4.14691 0
M  V30 1048 C 103.406 2.19389 -4.86522 0
M  V30 1049 O 103.629 3.40013 -4.57982 0
M  V30 1050 O 102.563 1.83976 -5.73094 0
M  V30 1051 H 106.389 -0.0770399 -3.03602 0
M  V30 1052 H 103.974 -0.103555 -1.49041 0
M  V30 1053 H 105.856 2.32918 -3.5118 0
M  V30 1054 H 104.531 2.25949 -2.31794 0
M  V30 1055 H 103.438 0.413024 -3.71813 0
M  V30 1056 H 104.771 0.562975 -4.8897 0
M  V30 1057 N 106.423 1.57458 -0.0668435 0
M  V30 1058 C 107.671 1.92919 0.602214 0
M  V30 1059 C 107.992 0.947215 1.70449 0
M  V30 1060 O 107.262 -0.00544117 1.95899 0
M  V30 1061 H 105.842 0.71217 0.22544 0
M  V30 1062 H 108.504 1.94508 -0.123535 0
M  V30 1063 H 107.6 2.94589 1.03073 0
M  V30 1064 N 107.901 -0.206675 1.56239 0
M  V30 1065 C 108.864 -1.23976 1.92776 0
M  V30 1066 C 109.864 -1.39041 0.807729 0
M  V30 1067 O 111.054 -1.37051 1.0753 0
M  V30 1068 C 108.186 -2.61112 2.19165 0
M  V30 1069 H 109.379 -0.927764 2.85189 0
M  V30 1070 H 106.932 -0.447718 1.4975 0
M  V30 1071 H 107.667 -2.97386 1.29352 0
M  V30 1072 H 107.452 -2.51552 3.00772 0
M  V30 1073 H 108.942 -3.35633 2.48476 0
M  V30 1074 N 109.379 -1.50304 -0.473955 0
M  V30 1075 C 110.625 -1.62358 -1.22521 0
M  V30 1076 C 110.98 -0.318555 -1.89745 0
M  V30 1077 O 110.273 0.683315 -1.79001 0
M  V30 1078 C 110.467 -2.73938 -2.29549 0
M  V30 1079 C 110.296 -4.15165 -1.72825 0
M  V30 1080 C 109.066 -4.81604 -1.52924 0
M  V30 1081 C 111.264 -4.99503 -1.22481 0
M  V30 1082 N 109.246 -6.07056 -0.91413 0
M  V30 1083 C 110.617 -6.15655 -0.732743 0
M  V30 1084 C 112.672 -4.85299 -1.11308 0
M  V30 1085 C 111.375 -7.19164 -0.139976 0
M  V30 1086 C 113.401 -5.88982 -0.534258 0
M  V30 1087 C 112.763 -7.0438 -0.0525562 0
M  V30 1088 H 108.862 -0.648286 -0.437321 0
M  V30 1089 H 111.446 -1.87413 -0.527692 0
M  V30 1090 H 109.617 -2.50611 -2.9673 0
M  V30 1091 H 111.349 -2.75366 -2.96573 0
M  V30 1092 H 108.104 -4.3885 -1.78067 0
M  V30 1093 H 108.528 -6.74108 -0.625071 0
M  V30 1094 H 113.17 -3.96369 -1.47144 0
M  V30 1095 H 110.888 -8.07771 0.230591 0
M  V30 1096 H 114.474 -5.80055 -0.450219 0
M  V30 1097 H 113.354 -7.83238 0.388324 0
M  V30 1098 N 110.857 0.726932 -1.39834 0
M  V30 1099 C 111.82 1.82269 -1.38962 0
M  V30 1100 C 112.82 1.58248 -0.285334 0
M  V30 1101 O 114.01 1.65499 -0.54366 0
M  V30 1102 C 111.142 3.20186 -1.17019 0
M  V30 1103 H 112.335 1.84443 -2.36476 0
M  V30 1104 H 109.888 0.931416 -1.25516 0
M  V30 1105 H 110.623 3.23669 -0.202204 0
M  V30 1106 H 110.408 3.3902 -1.96998 0
M  V30 1107 H 111.898 4.00235 -1.1917 0
M  V30 1108 N 112.336 1.25143 0.95797 0
M  V30 1109 C 113.246 1.06968 2.08794 0
M  V30 1110 C 114.262 0.00773911 1.73998 0
M  V30 1111 O 115.438 0.207972 2.00323 0
M  V30 1112 C 112.503 0.68691 3.39827 0
M  V30 1113 C 111.564 1.82641 3.88511 0
M  V30 1114 C 110.797 1.46181 5.1329 0
M  V30 1115 O 111.02 0.355971 5.69288 0
M  V30 1116 O 109.954 2.29085 5.566 0
M  V30 1117 H 113.78 2.01723 2.27027 0
M  V30 1118 H 111.365 1.04051 1.07209 0
M  V30 1119 H 113.247 0.485417 4.18595 0
M  V30 1120 H 111.922 -0.231417 3.22872 0
M  V30 1121 H 110.829 2.08274 3.10762 0
M  V30 1122 H 112.162 2.72386 4.09959 0
M  V30 1123 N 113.814 -1.1601 1.06675 0
M  V30 1124 C 115.062 -1.86264 0.784229 0
M  V30 1125 C 115.383 -1.82328 -0.691488 0
M  V30 1126 O 114.653 -1.25947 -1.50047 0
M  V30 1127 H 113.233 -0.689621 0.28711 0
M  V30 1128 H 115.895 -1.40664 1.34906 0
M  V30 1129 H 114.991 -2.91595 1.11259 0
M  V30 1130 N 115.292 -0.849877 -1.32721 0
M  V30 1131 C 116.538 -0.451591 -1.97708 0
M  V30 1132 C 116.871 0.989175 -1.6712 0
M  V30 1133 O 116.146 1.69334 -0.956891 0
M  V30 1134 C 116.429 -0.685598 -3.53513 0
M  V30 1135 C 116.282 -2.17444 -3.93749 0
M  V30 1136 C 117.601 -0.138874 -4.39881 0
M  V30 1137 H 114.72 -0.16555 -0.718166 0
M  V30 1138 H 117.362 -1.06742 -1.57182 0
M  V30 1139 H 115.512 -0.161416 -3.88165 0
M  V30 1140 H 117.184 -2.76433 -3.693 0
M  V30 1141 H 115.427 -2.65476 -3.43081 0
M  V30 1142 H 116.098 -2.28888 -5.02309 0
M  V30 1143 H 118.574 -0.587068 -4.11938 0
M  V30 1144 H 117.45 -0.332213 -5.47894 0
M  V30 1145 H 117.711 0.95806 -4.31594 0
M  V30 1146 N 116.77 1.45427 -0.607355 0
M  V30 1147 C 118.016 2.0254 -0.102607 0
M  V30 1148 C 118.349 1.47478 1.26348 0
M  V30 1149 O 117.624 0.64939 1.83339 0
M  V30 1150 C 117.907 3.60044 -0.0634347 0
M  V30 1151 C 117.76 4.2544 -1.46017 0
M  V30 1152 C 119.079 4.35646 0.624514 0
M  V30 1153 H 116.198 0.73598 -0.0387607 0
M  V30 1154 H 118.84 1.73284 -0.779282 0
M  V30 1155 H 116.99 3.85101 0.512808 0
M  V30 1156 H 118.662 4.11569 -2.08347 0
M  V30 1157 H 116.905 3.83849 -2.02094 0
M  V30 1158 H 117.576 5.34342 -1.385 0
M  V30 1159 H 120.052 4.15882 0.134723 0
M  V30 1160 H 118.928 5.45376 0.621028 0
M  V30 1161 H 119.189 4.08501 1.69055 0
M  V30 1162 N 118.248 0.346503 1.53744 0
M  V30 1163 C 119.211 -0.496439 2.23759 0
M  V30 1164 C 120.211 -1.0252 1.2388 0
M  V30 1165 O 121.401 -0.913974 1.48297 0
M  V30 1166 C 118.533 -1.69187 2.95954 0
M  V30 1167 H 119.726 0.115952 2.99676 0
M  V30 1168 H 117.279 0.0978939 1.55993 0
M  V30 1169 H 118.014 -2.34288 2.24231 0
M  V30 1170 H 117.799 -1.31989 3.69217 0
M  V30 1171 H 119.289 -2.28969 3.49232 0
M  V30 1172 N 119.726 -1.57421 0.075193 0
M  V30 1173 C 120.659 -2.08528 -0.926904 0
M  V30 1174 C 121.637 -0.991171 -1.28898 0
M  V30 1175 O 122.821 -1.26479 -1.39769 0
M  V30 1176 C 119.948 -2.54576 -2.23402 0
M  V30 1177 C 118.994 -3.75454 -2.02327 0
M  V30 1178 S 119.827 -5.19989 -1.27951 0
M  V30 1179 C 120.983 -5.69372 -2.59935 0
M  V30 1180 H 121.216 -2.932 -0.492048 0
M  V30 1181 H 118.749 -1.53785 -0.137651 0
M  V30 1182 H 120.707 -2.81767 -2.98526 0
M  V30 1183 H 119.368 -1.70166 -2.64012 0
M  V30 1184 H 118.561 -4.05675 -2.99071 0
M  V30 1185 H 118.163 -3.48654 -1.35339 0
M  V30 1186 H 120.455 -5.76424 -3.56008 0
M  V30 1187 H 121.398 -6.68207 -2.34319 0
M  V30 1188 H 121.806 -4.97205 -2.67296 0
M  V30 1189 N 121.204 0.198386 -1.56346 0
M  V30 1190 C 122.167 1.22952 -1.93431 0
M  V30 1191 C 123.167 1.38611 -0.815092 0
M  V30 1192 O 124.357 1.36479 -1.08255 0
M  V30 1193 C 121.489 2.59946 -2.20546 0
M  V30 1194 H 122.682 0.912626 -2.85677 0
M  V30 1195 H 120.235 0.43977 -1.49986 0
M  V30 1196 H 120.97 2.96696 -1.30927 0
M  V30 1197 H 120.755 2.49953 -3.02102 0
M  V30 1198 H 122.245 3.3431 -2.50253 0
M  V30 1199 N 122.682 1.50554 0.465978 0
M  V30 1200 C 124.098 1.38093 0.800154 0
M  V30 1201 C 124.298 0.440988 1.96615 0
M  V30 1202 O 123.354 -0.114499 2.5224 0
M  V30 1203 C 124.667 2.79565 1.10742 0
M  V30 1204 C 126.215 2.88516 1.21357 0
M  V30 1205 C 126.69 4.30833 1.55393 0
M  V30 1206 N 128.181 4.33807 1.62375 0
M  V30 1207 C 128.916 5.40927 1.90225 0
M  V30 1208 N 128.412 6.58247 2.16062 0
M  V30 1209 N 130.205 5.28376 1.9177 0
M  V30 1210 H 122.356 2.10237 -0.302366 0
M  V30 1211 H 124.619 0.945203 -0.0727746 0
M  V30 1212 H 124.325 3.50208 0.323661 0
M  V30 1213 H 124.199 3.17125 2.04234 0
M  V30 1214 H 126.586 2.1809 1.98799 0
M  V30 1215 H 126.667 2.54492 0.258321 0
M  V30 1216 H 126.311 5.01799 0.784889 0
M  V30 1217 H 126.241 4.62347 2.52076 0
M  V30 1218 H 128.732 3.49212 1.44427 0
M  V30 1219 H 129.045 7.3569 2.36601 0
M  V30 1220 H 127.39 6.61413 2.13444 0
M  V30 1221 H 130.581 4.35715 1.71085 0
M  V30 1222 H 130.754 6.11944 2.13139 0
M  V30 1223 N 124.16 -0.719506 1.40217 0
M  V30 1224 C 125.123 -1.8153 1.39927 0
M  V30 1225 C 126.123 -1.58095 0.293723 0
M  V30 1226 O 127.313 -1.65209 0.552429 0
M  V30 1227 C 124.445 -3.19561 1.18716 0
M  V30 1228 H 125.638 -1.83186 2.37451 0
M  V30 1229 H 123.191 -0.924746 1.26008 0
M  V30 1230 H 123.926 -3.23557 0.219366 0
M  V30 1231 H 123.711 -3.3797 1.98793 0
M  V30 1232 H 125.201 -3.99598 1.21291 0
M  V30 1233 N 125.638 -1.25649 -0.95132 0
M  V30 1234 C 126.886 -1.10375 -1.69298 0
M  V30 1235 C 127.207 0.355339 -1.91735 0
M  V30 1236 O 126.477 1.25188 -1.50681 0
M  V30 1237 H 125.057 -0.405461 -0.627384 0
M  V30 1238 H 127.719 -1.57823 -1.14358 0
M  V30 1239 H 126.815 -1.61465 -2.67087 0
M  V30 1240 N 127.117 1.15442 -1.07289 0
M  V30 1241 C 128.08 2.18358 -0.696591 0
M  V30 1242 C 129.08 1.58637 0.262837 0
M  V30 1243 O 130.27 1.74145 0.0438809 0
M  V30 1244 C 127.402 3.4089 -0.0266151 0
M  V30 1245 H 128.595 2.53162 -1.60776 0
M  V30 1246 H 126.148 1.29893 -0.869342 0
M  V30 1247 H 126.883 3.11653 0.896822 0
M  V30 1248 H 126.668 3.85495 -0.716657 0
M  V30 1249 H 128.158 4.17009 0.222028 0
M  V30 1250 N 128.595 0.856903 1.32268 0
M  V30 1251 C 130.011 0.547061 1.49931 0
M  V30 1252 C 130.211 -0.921781 1.7918 0
M  V30 1253 O 129.267 -1.70469 1.8627 0
M  V30 1254 C 130.58 1.43599 2.64196 0
M  V30 1255 C 132.128 1.43665 2.78081 0
M  V30 1256 C 132.603 2.31085 3.95428 0
M  V30 1257 N 134.094 2.28893 4.02694 0
M  V30 1258 C 134.829 2.93262 4.92732 0
M  V30 1259 N 134.325 3.66751 5.87763 0
M  V30 1260 N 136.118 2.82638 4.85873 0
M  V30 1261 H 128.269 1.8075 1.11549 0
M  V30 1262 H 130.532 0.772144 0.549997 0
M  V30 1263 H 130.238 2.48058 2.49319 0
M  V30 1264 H 130.112 1.12502 3.60032 0
M  V30 1265 H 132.499 0.399701 2.92381 0
M  V30 1266 H 132.58 1.7878 1.82952 0
M  V30 1267 H 132.224 3.34849 3.81888 0
M  V30 1268 H 132.154 1.93302 4.89839 0
M  V30 1269 H 134.645 1.75466 3.34694 0
M  V30 1270 H 134.958 4.13027 6.53168 0
M  V30 1271 H 133.303 3.70859 5.87783 0
M  V30 1272 H 136.494 2.24774 4.10602 0
M  V30 1273 H 136.667 3.33084 5.55841 0
M  V30 1274 N 130.073 -1.45103 0.615059 0
M  V30 1275 C 131.322 -2.01396 0.110718 0
M  V30 1276 C 131.635 -1.48834 -1.26916 0
M  V30 1277 O 132.841 -1.97152 -1.86664 0
M  V30 1278 C 131.297 -3.59599 0.14723 0
M  V30 1279 C 130.905 -4.21158 1.52743 0
M  V30 1280 C 132.649 -4.23428 -0.30148 0
M  V30 1281 C 130.556 -5.71535 1.51992 0
M  V30 1282 H 129.486 -0.753061 0.0376241 0
M  V30 1283 H 132.137 -1.66494 0.77149 0
M  V30 1284 H 130.519 -3.91724 -0.580339 0
M  V30 1285 H 131.693 -4.00594 2.2773 0
M  V30 1286 H 130.008 -3.69552 1.91886 0
M  V30 1287 H 132.605 -5.33703 -0.326392 0
M  V30 1288 H 132.948 -3.94629 -1.32565 0
M  V30 1289 H 133.481 -3.96047 0.373065 0
M  V30 1290 H 130.22 -6.05044 2.52193 0
M  V30 1291 H 129.74 -5.94268 0.81274 0
M  V30 1292 H 131.419 -6.34873 1.24681 0
M  V30 1293 N 131.551 -0.354651 -1.53558 0
M  V30 1294 C 132.8 0.239504 -2.00273 0
M  V30 1295 C 133.113 1.50759 -1.24623 0
M  V30 1296 O 134.319 2.17968 -1.61871 0
M  V30 1297 C 132.775 0.477341 -3.5672 0
M  V30 1298 C 132.383 -0.775488 -4.41237 0
M  V30 1299 C 134.127 1.02975 -4.11821 0
M  V30 1300 C 132.034 -0.507838 -5.89216 0
M  V30 1301 H 130.964 0.0932743 -0.748208 0
M  V30 1302 H 133.615 -0.471701 -1.77334 0
M  V30 1303 H 131.997 1.24953 -3.7577 0
M  V30 1304 H 133.171 -1.54963 -4.33962 0
M  V30 1305 H 131.486 -1.25033 -3.97185 0
M  V30 1306 H 134.083 1.24513 -5.2 0
M  V30 1307 H 134.426 1.98862 -3.65731 0
M  V30 1308 H 134.959 0.317994 -3.96527 0
M  V30 1309 H 131.698 -1.43674 -6.39561 0
M  V30 1310 H 131.218 0.228011 -5.99366 0
M  V30 1311 H 132.897 -0.129238 -6.46871 0
M  V30 1312 N 133.029 1.57378 -0.0835403 0
M  V30 1313 C 134.278 1.93106 0.582498 0
M  V30 1314 C 134.591 0.96651 1.70053 0
M  V30 1315 O 135.797 1.21705 2.42693 0
M  V30 1316 C 134.253 3.43076 1.08751 0
M  V30 1317 C 133.861 4.48 -0.000146404 0
M  V30 1318 C 135.605 3.87785 1.72694 0
M  V30 1319 C 133.512 5.89113 0.519568 0
M  V30 1320 H 132.442 0.720775 0.221358 0
M  V30 1321 H 135.093 1.82821 -0.157675 0
M  V30 1322 H 133.475 3.48474 1.88101 0
M  V30 1323 H 134.649 4.54233 -0.775199 0
M  V30 1324 H 132.964 4.1283 -0.54406 0
M  V30 1325 H 135.561 4.90604 2.1263 0
M  V30 1326 H 135.904 3.25796 2.59158 0
M  V30 1327 H 136.437 3.8504 0.999457 0
M  V30 1328 H 133.176 6.54775 -0.308186 0
M  V30 1329 H 132.696 5.86376 1.26188 0
M  V30 1330 H 134.375 6.39346 0.992237 0
M  V30 1331 N 134.507 -0.190092 1.56449 0
M  V30 1332 C 135.784 -0.935886 1.71757 0
M  V30 1333 C 136.164 -2.01173 0.639726 0
M  V30 1334 O 135.512 -2.25827 -0.348502 0
M  V30 1335 C 135.722 -1.51775 3.1427 0
M  V30 1336 C 137.07 -1.99794 3.74656 0
M  V30 1337 O 138.094 -1.61607 3.1743 0
M  V30 1338 O 136.953 -2.70079 4.751 0
M  V30 1339 H 134.047 -0.439229 0.700719 0
M  V30 1340 H 136.593 -0.179395 1.68749 0
M  V30 1341 H 135.365 -0.742505 3.84191 0
M  V30 1342 H 134.988 -2.33894 3.21527 0
M  V30 1343 N 135.985 -1.50799 -0.457987 0
M  V30 1344 C 137.262 -1.52968 -1.21902 0
M  V30 1345 C 137.642 -0.281906 -2.09209 0
M  V30 1346 O 136.99 0.734076 -2.16388 0
M  V30 1347 C 137.2 -2.8326 -2.03875 0
M  V30 1348 C 138.548 -3.34425 -2.6162 0
M  V30 1349 O 139.572 -2.8467 -2.14106 0
M  V30 1350 O 138.431 -4.21188 -3.48228 0
M  V30 1351 H 135.525 -0.614129 -0.553873 0
M  V30 1352 H 138.071 -1.63098 -0.468739 0
M  V30 1353 H 136.843 -3.65543 -1.39621 0
M  V30 1354 H 136.466 -2.76195 -2.8601 0
M  V30 1355 N 137.463 0.71206 -1.40597 0
M  V30 1356 C 138.709 1.47416 -1.39271 0
M  V30 1357 C 139.042 1.942 0.00388791 0
M  V30 1358 O 138.317 1.68403 0.973179 0
M  V30 1359 C 138.6 2.69774 -2.38525 0
M  V30 1360 C 138.453 2.28861 -3.87224 0
M  V30 1361 C 139.772 3.71939 -2.35264 0
M  V30 1362 H 136.891 0.534713 -0.5072 0
M  V30 1363 H 139.533 0.812375 -1.71757 0
M  V30 1364 H 137.683 3.26238 -2.10953 0
M  V30 1365 H 139.355 1.77852 -4.25636 0
M  V30 1366 H 137.598 1.60824 -4.02887 0
M  V30 1367 H 138.269 3.16584 -4.52193 0
M  V30 1368 H 140.745 3.25113 -2.59694 0
M  V30 1369 H 139.621 4.55186 -3.06753 0
M  V30 1370 H 139.882 4.20484 -1.36549 0
M  V30 1371 N 138.941 1.26152 0.944643 0
M  V30 1372 C 140.188 1.11492 1.69044 0
M  V30 1373 C 140.516 -0.342366 1.91463 0
M  V30 1374 O 139.771 -1.26812 1.49054 0
M  V30 1375 C 140.07 1.82541 3.07268 0
M  V30 1376 C 139.736 3.32445 3.04616 0
M  V30 1377 C 138.398 3.73337 3.036 0
M  V30 1378 C 140.75 4.28171 2.97185 0
M  V30 1379 C 138.078 5.08348 2.92915 0
M  V30 1380 C 140.43 5.63218 2.88041 0
M  V30 1381 C 139.094 6.03426 2.85366 0
M  V30 1382 H 138.364 0.407977 0.618576 0
M  V30 1383 H 141.011 1.56551 1.10291 0
M  V30 1384 H 139.316 1.29941 3.69625 0
M  V30 1385 H 141.013 1.68642 3.63815 0
M  V30 1386 H 137.603 2.99915 3.06185 0
M  V30 1387 H 141.787 3.97563 2.97081 0
M  V30 1388 H 137.043 5.38667 2.89219 0
M  V30 1389 H 141.217 6.37078 2.81254 0
M  V30 1390 H 138.844 7.07999 2.76842 0
M  V30 1391 N 140.419 -1.14872 1.07899 0
M  V30 1392 C 141.349 -2.2193 0.725887 0
M  V30 1393 C 142.33 -1.67622 -0.28927 0
M  V30 1394 O 143.515 -1.93533 -0.160787 0
M  V30 1395 C 140.645 -3.47061 0.128856 0
M  V30 1396 C 139.599 -4.14363 1.07178 0
M  V30 1397 C 138.925 -5.33636 0.337229 0
M  V30 1398 C 140.225 -4.63492 2.40775 0
M  V30 1399 H 141.919 -2.51724 1.62097 0
M  V30 1400 H 139.465 -1.20991 0.780838 0
M  V30 1401 H 141.418 -4.21199 -0.130147 0
M  V30 1402 H 140.142 -3.16617 -0.80134 0
M  V30 1403 H 138.801 -3.42173 1.3158 0
M  V30 1404 H 138.449 -4.99449 -0.596606 0
M  V30 1405 H 138.149 -5.79609 0.965788 0
M  V30 1406 H 139.673 -6.10539 0.0861567 0
M  V30 1407 H 141.087 -5.2913 2.20669 0
M  V30 1408 H 139.484 -5.20148 2.99276 0
M  V30 1409 H 140.554 -3.78834 3.02676 0
M  V30 1410 N 141.898 -0.863906 -1.31812 0
M  V30 1411 C 143.146 -0.470904 -1.96537 0
M  V30 1412 C 143.467 0.978771 -1.68657 0
M  V30 1413 O 142.737 1.6853 -0.998717 0
M  V30 1414 H 141.317 -0.171148 -0.72713 0
M  V30 1415 H 143.979 -1.10236 -1.60729 0
M  V30 1416 H 143.075 -0.623616 -3.05806 0
M  V30 1417 N 143.376 1.44774 -0.622745 0
M  V30 1418 C 144.624 2.01721 -0.123655 0
M  V30 1419 C 144.945 1.49172 1.25589 0
M  V30 1420 O 144.215 0.691974 1.83272 0
M  V30 1421 H 142.795 0.745777 -0.0427225 0
M  V30 1422 H 145.457 1.77382 -0.807559 0
M  V30 1423 H 144.553 3.11984 -0.0849534 0
M  V30 1424 N 144.854 0.36279 1.53368 0
M  V30 1425 C 145.817 -0.472679 2.24273 0
M  V30 1426 C 146.817 -1.012 1.24961 0
M  V30 1427 O 148.007 -0.898194 1.49259 0
M  V30 1428 C 145.139 -1.66039 2.97731 0
M  V30 1429 H 146.332 0.14773 2.99536 0
M  V30 1430 H 143.885 0.114434 1.55881 0
M  V30 1431 H 144.62 -2.31896 2.26704 0
M  V30 1432 H 144.405 -1.28066 3.70596 0
M  V30 1433 H 145.895 -2.25252 3.51641 0
M  V30 1434 N 146.332 -1.57332 0.0918853 0
M  V30 1435 C 147.295 -2.12708 -0.85369 0
M  V30 1436 C 148.295 -1.05561 -1.213 0
M  V30 1437 O 149.485 -1.31461 -1.14296 0
M  V30 1438 C 146.617 -2.64503 -2.15061 0
M  V30 1439 H 147.81 -2.97573 -0.3729 0
M  V30 1440 H 145.363 -1.55509 -0.157072 0
M  V30 1441 H 146.098 -1.83149 -2.67632 0
M  V30 1442 H 145.883 -3.4284 -1.90272 0
M  V30 1443 H 147.373 -3.07351 -2.82711 0
M  V30 1444 N 147.81 0.181792 -1.56548 0
M  V30 1445 C 148.773 1.20894 -1.94724 0
M  V30 1446 C 149.773 1.37738 -0.829747 0
M  V30 1447 O 150.963 1.35323 -1.09697 0
M  V30 1448 C 148.095 2.57593 -2.23291 0
M  V30 1449 H 149.288 0.882275 -2.86629 0
M  V30 1450 H 146.841 0.423838 -1.50444 0
M  V30 1451 H 147.576 2.95291 -1.34067 0
M  V30 1452 H 147.361 2.46735 -3.04736 0
M  V30 1453 H 148.851 3.31637 -2.53785 0
M  V30 1454 N 149.288 1.51039 0.449983 0
M  V30 1455 C 150.22 1.67617 1.56324 0
M  V30 1456 C 151.233 0.557083 1.52972 0
M  V30 1457 O 152.422 0.830989 1.57977 0
M  V30 1458 C 149.522 1.66402 2.95235 0
M  V30 1459 C 148.695 2.9469 3.23229 0
M  V30 1460 C 147.754 2.85832 4.41799 0
M  V30 1461 O 146.78 3.59785 4.41071 0
M  V30 1462 N 147.982 2.00821 5.44657 0
M  V30 1463 H 150.747 2.63648 1.42512 0
M  V30 1464 H 148.308 1.48767 0.638737 0
M  V30 1465 H 150.3 1.58062 3.72557 0
M  V30 1466 H 148.87 0.780182 3.02708 0
M  V30 1467 H 148.09 3.16996 2.34323 0
M  V30 1468 H 149.378 3.79636 3.38754 0
M  V30 1469 H 148.776 1.40091 5.48079 0
M  V30 1470 H 147.333 1.98368 6.20881 0
M  V30 1471 N 150.766 -0.704594 1.40972 0
M  V30 1472 C 151.676 -1.84856 1.44448 0
M  V30 1473 C 152.692 -1.70726 0.335961 0
M  V30 1474 O 153.868 -1.92799 0.582276 0
M  V30 1475 C 150.933 -3.20758 1.31587 0
M  V30 1476 C 149.994 -3.47063 2.52677 0
M  V30 1477 C 149.227 -4.76481 2.4042 0
M  V30 1478 O 149.45 -5.52341 1.42391 0
M  V30 1479 O 148.384 -5.03367 3.30007 0
M  V30 1480 H 152.21 -1.8488 2.40942 0
M  V30 1481 H 149.795 -0.85647 1.22413 0
M  V30 1482 H 151.677 -4.01913 1.26665 0
M  V30 1483 H 150.352 -3.21438 0.382049 0
M  V30 1484 H 149.259 -2.65873 2.63177 0
M  V30 1485 H 150.592 -3.5119 3.44858 0
M  V30 1486 N 152.244 -1.26651 -0.937939 0
M  V30 1487 C 153.66 -1.03834 -1.21205 0
M  V30 1488 C 153.86 0.234502 -2.00131 0
M  V30 1489 O 152.916 0.942767 -2.3424 0
M  V30 1490 C 154.229 -2.27167 -1.97017 0
M  V30 1491 C 155.777 -2.32101 -2.09996 0
M  V30 1492 C 156.252 -3.55136 -2.8921 0
M  V30 1493 N 157.743 -3.55632 -2.96783 0
M  V30 1494 C 158.478 -4.475 -3.58512 0
M  V30 1495 N 157.974 -5.4966 -4.21717 0
M  V30 1496 N 159.767 -4.35145 -3.55816 0
M  V30 1497 H 151.918 -2.08398 -0.410391 0
M  V30 1498 H 154.181 -0.916031 -0.244114 0
M  V30 1499 H 153.887 -3.19765 -1.46434 0
M  V30 1500 H 153.761 -2.31672 -2.97671 0
M  V30 1501 H 156.148 -1.40015 -2.59769 0
M  V30 1502 H 156.229 -2.31605 -1.08594 0
M  V30 1503 H 155.873 -4.47553 -2.40123 0
M  V30 1504 H 155.803 -3.5288 -3.90875 0
M  V30 1505 H 158.294 -2.81743 -2.51852 0
M  V30 1506 H 158.607 -6.15943 -4.66727 0
M  V30 1507 H 156.952 -5.53514 -4.20294 0
M  V30 1508 H 160.143 -3.5455 -3.05634 0
M  V30 1509 H 160.316 -5.06934 -4.03636 0
M  V30 1510 N 153.722 1.14298 -1.08507 0
M  V30 1511 C 154.968 1.85854 -0.826438 0
M  V30 1512 C 155.323 1.81413 0.640878 0
M  V30 1513 O 154.616 1.23463 1.46518 0
M  V30 1514 C 154.81 3.33547 -1.28379 0
M  V30 1515 C 154.639 3.52369 -2.79403 0
M  V30 1516 C 153.409 3.67159 -3.47164 0
M  V30 1517 C 155.607 3.49203 -3.77573 0
M  V30 1518 N 153.589 3.74149 -4.86709 0
M  V30 1519 C 154.96 3.6245 -5.03021 0
M  V30 1520 C 157.015 3.32547 -3.70563 0
M  V30 1521 C 155.718 3.60761 -6.2229 0
M  V30 1522 C 157.744 3.32162 -4.89308 0
M  V30 1523 C 157.106 3.45949 -6.13595 0
M  V30 1524 H 153.205 0.696705 -0.355143 0
M  V30 1525 H 155.789 1.36981 -1.38362 0
M  V30 1526 H 153.96 3.81008 -0.754166 0
M  V30 1527 H 155.692 3.92867 -0.971469 0
M  V30 1528 H 152.447 3.68433 -2.9758 0
M  V30 1529 H 152.871 3.81359 -5.5937 0
M  V30 1530 H 157.513 3.20797 -2.75407 0
M  V30 1531 H 155.231 3.71286 -7.17755 0
M  V30 1532 H 158.817 3.20485 -4.85573 0
M  V30 1533 H 157.697 3.456 -7.03939 0
M  V30 1534 N 155.201 0.870884 1.31352 0
M  V30 1535 C 156.617 0.562932 1.49343 0
M  V30 1536 C 156.817 -0.902725 1.80148 0
M  V30 1537 O 155.873 -1.68484 1.88067 0
M  V30 1538 C 157.186 1.46393 2.62659 0
M  V30 1539 C 158.734 1.46607 2.76542 0
M  V30 1540 C 159.209 2.35266 3.92955 0
M  V30 1541 N 160.7 2.33151 4.00243 0
M  V30 1542 C 161.435 2.98471 4.89594 0
M  V30 1543 N 160.931 3.72964 5.8384 0
M  V30 1544 N 162.724 2.87775 4.82848 0
M  V30 1545 H 154.875 1.81923 1.09626 0
M  V30 1546 H 157.138 0.777934 0.541777 0
M  V30 1547 H 156.844 2.50689 2.46674 0
M  V30 1548 H 156.718 1.16314 3.58819 0
M  V30 1549 H 159.105 0.43069 2.9194 0
M  V30 1550 H 159.186 1.8071 1.81046 0
M  V30 1551 H 158.83 3.38881 3.78315 0
M  V30 1552 H 158.76 1.98487 4.87761 0
M  V30 1553 H 161.251 1.79006 3.32814 0
M  V30 1554 H 161.564 4.19932 6.4875 0
M  V30 1555 H 159.909 3.77073 5.83816 0
M  V30 1556 H 163.1 2.29116 4.08195 0
M  V30 1557 H 163.273 3.38961 5.52277 0
M  V30 1558 N 156.679 -1.44442 0.630414 0
M  V30 1559 C 157.904 -2.06927 0.139944 0
M  V30 1560 C 158.329 -1.46795 -1.17613 0
M  V30 1561 O 157.687 -0.569144 -1.72135 0
M  V30 1562 C 157.735 -3.6058 0.0379581 0
M  V30 1563 O 156.839 -3.99937 -1.0062 0
M  V30 1564 H 156.18 -0.658608 0.0844483 0
M  V30 1565 H 158.71 -1.85327 0.866891 0
M  V30 1566 H 158.72 -4.07714 -0.152856 0
M  V30 1567 H 157.395 -4.03728 0.998809 0
M  V30 1568 H 155.972 -3.64436 -0.79001 0
M  V30 1569 N 158.157 -0.370918 -1.53173 0
M  V30 1570 C 159.404 0.217102 -2.01333 0
M  V30 1571 C 159.732 1.48338 -1.25802 0
M  V30 1572 O 158.987 1.92698 -0.34146 0
M  V30 1573 C 159.286 0.549696 -3.53147 0
M  V30 1574 C 158.952 -0.622872 -4.46577 0
M  V30 1575 C 157.614 -0.944595 -4.71838 0
M  V30 1576 C 159.966 -1.40819 -5.01816 0
M  V30 1577 C 157.294 -2.05351 -5.49589 0
M  V30 1578 C 159.646 -2.50757 -5.80778 0
M  V30 1579 C 158.31 -2.83458 -6.04324 0
M  V30 1580 H 157.58 0.0794431 -0.736729 0
M  V30 1581 H 160.227 -0.504481 -1.84736 0
M  V30 1582 H 158.532 1.35237 -3.6772 0
M  V30 1583 H 160.229 1.017 -3.87889 0
M  V30 1584 H 156.819 -0.36209 -4.27068 0
M  V30 1585 H 161.003 -1.17289 -4.82242 0
M  V30 1586 H 156.259 -2.3108 -5.6605 0
M  V30 1587 H 160.433 -3.12022 -6.22588 0
M  V30 1588 H 158.06 -3.69508 -6.64355 0
M  V30 1589 N 159.635 1.57281 -0.100228 0
M  V30 1590 C 160.881 1.94826 0.563101 0
M  V30 1591 C 161.214 0.982475 1.67514 0
M  V30 1592 O 160.489 0.0164069 1.94493 0
M  V30 1593 C 160.772 3.42453 1.11346 0
M  V30 1594 C 160.625 4.498 0.00612081 0
M  V30 1595 C 161.944 3.91506 2.01024 0
M  V30 1596 H 159.063 0.708428 0.203221 0
M  V30 1597 H 161.705 1.8922 -0.171979 0
M  V30 1598 H 159.855 3.47361 1.7399 0
M  V30 1599 H 161.527 4.57 -0.628357 0
M  V30 1600 H 159.77 4.28756 -0.659581 0
M  V30 1601 H 160.441 5.50306 0.432109 0
M  V30 1602 H 162.917 3.88784 1.48278 0
M  V30 1603 H 161.793 4.95358 2.36457 0
M  V30 1604 H 162.054 3.31099 2.92961 0
M  V30 1605 N 161.113 -0.173488 1.56642 0
M  V30 1606 C 162.361 -0.888706 1.81512 0
M  V30 1607 C 162.682 -1.82875 0.676872 0
M  V30 1608 O 161.952 -1.93536 -0.303414 0
M  V30 1609 H 160.532 -0.331164 0.669582 0
M  V30 1610 H 163.194 -0.173823 1.94123 0
M  V30 1611 H 162.29 -1.46691 2.75478 0
M  V30 1612 N 162.591 -1.51276 -0.441967 0
M  V30 1613 C 163.868 -1.54252 -1.20273 0
M  V30 1614 C 164.248 -0.30408 -2.08898 0
M  V30 1615 O 163.596 0.711084 -2.17154 0
M  V30 1616 C 163.806 -2.85406 -2.00859 0
M  V30 1617 C 165.154 -3.37181 -2.58059 0
M  V30 1618 O 166.178 -2.86925 -2.11074 0
M  V30 1619 O 165.037 -4.24858 -3.43741 0
M  V30 1620 H 162.131 -0.619969 -0.547328 0
M  V30 1621 H 164.677 -1.63586 -0.451413 0
M  V30 1622 H 163.449 -3.67003 -1.35736 0
M  V30 1623 H 163.072 -2.79213 -2.83065 0
M  V30 1624 N 164.069 0.697108 -1.41344 0
M  V30 1625 C 164.999 1.82353 -1.45841 0
M  V30 1626 C 165.98 1.67115 -0.317247 0
M  V30 1627 O 167.165 1.86871 -0.528474 0
M  V30 1628 C 164.295 3.20476 -1.33838 0
M  V30 1629 C 163.249 3.50415 -2.4575 0
M  V30 1630 C 162.575 4.87878 -2.18813 0
M  V30 1631 C 163.875 3.49546 -3.88091 0
M  V30 1632 H 165.569 1.78846 -2.40113 0
M  V30 1633 H 163.115 0.859028 -1.15571 0
M  V30 1634 H 165.068 3.98988 -1.35596 0
M  V30 1635 H 163.792 3.24604 -0.360498 0
M  V30 1636 H 162.451 2.74253 -2.43271 0
M  V30 1637 H 162.099 4.8863 -1.19371 0
M  V30 1638 H 161.799 5.08875 -2.93803 0
M  V30 1639 H 163.323 5.68702 -2.22284 0
M  V30 1640 H 164.737 4.18066 -3.92293 0
M  V30 1641 H 163.134 3.82075 -4.62751 0
M  V30 1642 H 164.204 2.48552 -4.16353 0
M  V30 1643 N 165.547 1.27147 0.931209 0
M  V30 1644 C 166.824 1.0401 1.65654 0
M  V30 1645 C 167.204 -0.426297 2.06751 0
M  V30 1646 O 166.552 -1.40879 1.79904 0
M  V30 1647 C 166.762 1.99834 2.86125 0
M  V30 1648 C 168.11 2.29007 3.57549 0
M  V30 1649 O 169.134 1.97779 2.96246 0
M  V30 1650 O 167.993 2.82222 4.67989 0
M  V30 1651 H 165.087 0.396239 0.725895 0
M  V30 1652 H 167.633 1.38397 0.982056 0
M  V30 1653 H 166.405 2.98744 2.52721 0
M  V30 1654 H 166.028 1.65987 3.61295 0
M  V30 1655 N 167.025 -1.13721 1.09112 0
M  V30 1656 C 168.271 -1.85198 0.826414 0
M  V30 1657 C 168.604 -1.83129 -0.646319 0
M  V30 1658 O 167.879 -1.2671 -1.47563 0
M  V30 1659 C 168.162 -3.33507 1.35812 0
M  V30 1660 C 168.015 -3.44108 2.89672 0
M  V30 1661 C 169.334 -4.28838 0.989256 0
M  V30 1662 H 166.453 -0.67243 0.301675 0
M  V30 1663 H 169.095 -1.33499 1.35197 0
M  V30 1664 H 167.245 -3.77666 0.911082 0
M  V30 1665 H 168.917 -3.08684 3.428 0
M  V30 1666 H 167.16 -2.85087 3.26967 0
M  V30 1667 H 167.831 -4.48388 3.21951 0
M  V30 1668 H 170.307 -3.92734 1.37475 0
M  V30 1669 H 169.183 -5.31051 1.38838 0
M  V30 1670 H 169.444 -4.4198 -0.102924 0
M  V30 1671 N 168.503 -0.877838 -1.30888 0
M  V30 1672 C 169.433 -0.35534 -2.3078 0
M  V30 1673 C 170.414 0.557994 -1.60687 0
M  V30 1674 O 171.599 0.473355 -1.88343 0
M  V30 1675 C 168.729 0.437221 -3.44537 0
M  V30 1676 C 167.683 -0.383715 -4.26276 0
M  V30 1677 C 167.009 0.535014 -5.32017 0
M  V30 1678 C 168.309 -1.62201 -4.96476 0
M  V30 1679 H 170.003 -1.19007 -2.74732 0
M  V30 1680 H 167.549 -0.573698 -1.32078 0
M  V30 1681 H 169.502 0.813334 -4.13477 0
M  V30 1682 H 168.226 1.30553 -2.99372 0
M  V30 1683 H 166.885 -0.741874 -3.59015 0
M  V30 1684 H 166.533 1.40083 -4.831 0
M  V30 1685 H 166.233 -0.0104211 -5.87599 0
M  V30 1686 H 167.757 0.907799 -6.03814 0
M  V30 1687 H 169.171 -1.31689 -5.5797 0
M  V30 1688 H 167.568 -2.10711 -5.61891 0
M  V30 1689 H 168.638 -2.37044 -4.23011 0
M  V30 1690 N 169.982 1.44106 -0.638065 0
M  V30 1691 C 171.228 2.02815 -0.15409 0
M  V30 1692 C 171.583 1.49342 1.21304 0
M  V30 1693 O 170.876 0.670699 1.79478 0
M  V30 1694 C 171.07 3.5729 -0.0887327 0
M  V30 1695 C 170.899 4.2575 -1.44799 0
M  V30 1696 C 169.669 4.62443 -2.03653 0
M  V30 1697 C 171.867 4.55746 -2.38327 0
M  V30 1698 N 169.849 5.15903 -3.32741 0
M  V30 1699 C 171.22 5.10364 -3.52036 0
M  V30 1700 C 173.275 4.37703 -2.3732 0
M  V30 1701 C 171.978 5.48837 -4.64941 0
M  V30 1702 C 174.004 4.77229 -3.49294 0
M  V30 1703 C 173.366 5.31966 -4.61726 0
M  V30 1704 H 169.465 0.775519 -0.100466 0
M  V30 1705 H 172.049 1.755 -0.843071 0
M  V30 1706 H 170.22 3.84201 0.569548 0
M  V30 1707 H 171.952 4.02671 0.404711 0
M  V30 1708 H 168.707 4.46987 -1.56523 0
M  V30 1709 H 169.131 5.47102 -3.98758 0
M  V30 1710 H 173.773 3.94671 -1.51641 0
M  V30 1711 H 171.491 5.9082 -5.51323 0
M  V30 1712 H 175.077 4.64976 -3.49698 0
M  V30 1713 H 173.957 5.61986 -5.46939 0
M  V30 1714 N 171.46 0.379036 1.52974 0
M  V30 1715 C 172.706 -0.206727 2.01744 0
M  V30 1716 C 173.039 -1.47314 1.26539 0
M  V30 1717 O 172.314 -1.91084 0.362903 0
M  V30 1718 C 172.597 -0.485066 3.56818 0
M  V30 1719 C 172.45 0.795919 4.42702 0
M  V30 1720 C 173.769 -1.28003 4.21074 0
M  V30 1721 H 170.888 -0.0736607 0.73331 0
M  V30 1722 H 173.53 0.506581 1.83122 0
M  V30 1723 H 171.68 -1.09272 3.72816 0
M  V30 1724 H 173.352 1.43307 4.38476 0
M  V30 1725 H 171.595 1.41344 4.10127 0
M  V30 1726 H 172.266 0.555947 5.49193 0
M  V30 1727 H 174.742 -0.765867 4.08991 0
M  V30 1728 H 173.618 -1.44352 5.29579 0
M  V30 1729 H 173.879 -2.29236 3.78026 0
M  V30 1730 N 172.938 -1.57226 0.108567 0
M  V30 1731 C 174.186 -1.94448 -0.550853 0
M  V30 1732 C 174.507 -0.992074 -1.67878 0
M  V30 1733 O 173.777 -0.0465 -1.95845 0
M  V30 1734 H 172.357 -0.717897 -0.206479 0
M  V30 1735 H 175.019 -1.94112 0.175062 0
M  V30 1736 H 174.115 -2.97218 -0.952259 0
M  V30 1737 N 174.416 0.165178 -1.56732 0
M  V30 1738 C 175.662 0.882112 -1.82611 0
M  V30 1739 C 175.995 1.81628 -0.687378 0
M  V30 1740 O 175.27 1.92009 0.310267 0
M  V30 1741 C 175.553 1.67245 -3.18906 0
M  V30 1742 C 175.406 0.760987 -4.43316 0
M  V30 1743 C 176.725 2.63884 -3.52212 0
M  V30 1744 H 173.844 0.319242 -0.664269 0
M  V30 1745 H 176.486 0.148052 -1.89422 0
M  V30 1746 H 174.636 2.29824 -3.1323 0
M  V30 1747 H 176.308 0.147596 -4.61064 0
M  V30 1748 H 174.551 0.0694102 -4.33744 0
M  V30 1749 H 175.222 1.34962 -5.35247 0
M  V30 1750 H 177.698 2.11429 -3.58381 0
M  V30 1751 H 176.574 3.16245 -4.48643 0
M  V30 1752 H 176.835 3.44377 -2.77231 0
M  V30 1753 N 175.894 1.51508 0.433938 0
M  V30 1754 C 177.31 1.39759 0.770682 0
M  V30 1755 C 177.51 0.482594 1.95636 0
M  V30 1756 O 176.566 -0.0609691 2.52426 0
M  V30 1757 C 177.879 2.81851 1.04787 0
M  V30 1758 C 179.427 2.91025 1.1521 0
M  V30 1759 C 179.902 4.34032 1.46219 0
M  V30 1760 N 181.393 4.37154 1.53136 0
M  V30 1761 C 182.128 5.4484 1.78709 0
M  V30 1762 N 181.624 6.62682 2.02051 0
M  V30 1763 N 183.417 5.32324 1.80519 0
M  V30 1764 H 175.568 2.09548 -0.346892 0
M  V30 1765 H 177.831 0.943446 -0.0928074 0
M  V30 1766 H 177.537 3.50815 0.249304 0
M  V30 1767 H 177.411 3.21386 1.97461 0
M  V30 1768 H 179.798 2.22257 1.94128 0
M  V30 1769 H 179.879 2.54983 0.204281 0
M  V30 1770 H 179.523 5.03351 0.678274 0
M  V30 1771 H 179.453 4.6759 2.42212 0
M  V30 1772 H 181.944 3.52197 1.36987 0
M  V30 1773 H 182.257 7.40543 2.20943 0
M  V30 1774 H 180.602 6.65791 1.99366 0
M  V30 1775 H 183.793 4.39246 1.61805 0
M  V30 1776 H 183.966 6.16328 2.00111 0
M  V30 1777 N 177.372 -0.689602 1.41712 0
M  V30 1778 C 178.612 -1.46184 1.42862 0
M  V30 1779 C 178.976 -1.91962 0.0382204 0
M  V30 1780 O 180.177 -2.68694 -0.0755019 0
M  V30 1781 C 178.448 -2.6371 2.4123 0
M  V30 1782 S 180.007 -3.52768 2.6096 0
M  V30 1783 H 176.825 -0.49947 0.506015 0
M  V30 1784 H 179.427 -0.804107 1.78198 0
M  V30 1785 H 178.131 -2.28293 3.41044 0
M  V30 1786 H 177.662 -3.3437 2.07269 0
M  V30 1787 H 179.677 -4.59146 1.88148 0
M  V30 1788 N 178.85 -1.27639 -0.924453 0
M  V30 1789 C 180.127 -1.04887 -1.651 0
M  V30 1790 C 180.507 0.415327 -2.06974 0
M  V30 1791 O 179.855 1.39923 -1.80648 0
M  V30 1792 C 180.065 -2.01348 -2.85061 0
M  V30 1793 C 181.413 -2.30899 -3.56329 0
M  V30 1794 O 182.437 -1.99348 -2.95193 0
M  V30 1795 O 181.296 -2.84699 -4.66485 0
M  V30 1796 H 178.39 -0.400083 -0.723784 0
M  V30 1797 H 180.936 -1.38916 -0.974703 0
M  V30 1798 H 179.708 -3.0008 -2.51133 0
M  V30 1799 H 179.331 -1.679 -3.6041 0
M  V30 1800 N 180.328 1.1314 -1.09713 0
M  V30 1801 C 181.576 1.84119 -0.833338 0
M  V30 1802 C 181.897 1.84097 0.642904 0
M  V30 1803 O 181.167 1.29881 1.46655 0
M  V30 1804 H 179.747 0.681766 -0.305293 0
M  V30 1805 H 182.409 1.37038 -1.38588 0
M  V30 1806 H 181.505 2.88543 -1.18951 0
M  V30 1807 N 181.806 0.884767 1.30421 0
M  V30 1808 C 182.769 0.356277 2.26414 0
M  V30 1809 C 183.769 -0.501124 1.52792 0
M  V30 1810 O 184.959 -0.30831 1.7145 0
M  V30 1811 C 182.091 -0.492316 3.37326 0
M  V30 1812 H 183.284 1.20389 2.74675 0
M  V30 1813 H 180.837 0.661607 1.41607 0
M  V30 1814 H 181.572 -1.36052 2.94381 0
M  V30 1815 H 181.357 0.121832 3.91911 0
M  V30 1816 H 182.847 -0.853871 4.08777 0
M  V30 1817 N 183.284 -1.43765 0.645699 0
M  V30 1818 C 184.53 -2.02197 0.156271 0
M  V30 1819 C 184.863 -1.50776 -1.22393 0
M  V30 1820 O 184.138 -0.697771 -1.81553 0
M  V30 1821 C 184.421 -3.59749 0.158872 0
M  V30 1822 C 184.274 -4.21419 1.57245 0
M  V30 1823 C 185.593 -4.37149 -0.50879 0
M  V30 1824 H 182.712 -0.734694 0.0582602 0
M  V30 1825 H 185.354 -1.71157 0.824951 0
M  V30 1826 H 183.504 -3.86325 -0.410525 0
M  V30 1827 H 185.176 -4.059 2.19186 0
M  V30 1828 H 183.419 -3.78356 2.122 0
M  V30 1829 H 184.09 -5.30482 1.52619 0
M  V30 1830 H 186.566 -4.16093 -0.024412 0
M  V30 1831 H 185.442 -5.4683 -0.476213 0
M  V30 1832 H 185.703 -4.12839 -1.58165 0
M  V30 1833 N 184.763 -0.387143 -1.52771 0
M  V30 1834 C 185.726 0.436939 -2.24997 0
M  V30 1835 C 186.726 0.991991 -1.26555 0
M  V30 1836 O 187.916 0.874335 -1.50669 0
M  V30 1837 C 185.048 1.61281 -3.00335 0
M  V30 1838 H 186.241 -0.195365 -2.99263 0
M  V30 1839 H 183.794 -0.139218 -1.55679 0
M  V30 1840 H 184.529 2.2826 -2.30364 0
M  V30 1841 H 184.314 1.22154 -3.72587 0
M  V30 1842 H 185.804 2.19629 -3.5518 0
M  V30 1843 N 186.241 1.57166 -0.116904 0
M  V30 1844 C 187.151 2.18745 0.847812 0
M  V30 1845 C 188.167 1.163 1.29423 0
M  V30 1846 O 189.343 1.48761 1.35765 0
M  V30 1847 C 186.408 2.77307 2.0809 0
M  V30 1848 C 185.469 3.94781 1.68661 0
M  V30 1849 C 184.702 4.50541 2.86091 0
M  V30 1850 O 184.925 4.05202 4.01456 0
M  V30 1851 O 183.859 5.41256 2.63298 0
M  V30 1852 H 187.685 3.01632 0.353778 0
M  V30 1853 H 185.27 1.49005 0.108599 0
M  V30 1854 H 187.152 3.14647 2.80313 0
M  V30 1855 H 185.827 1.97452 2.56504 0
M  V30 1856 H 184.734 3.62214 0.935518 0
M  V30 1857 H 186.067 4.76065 1.24991 0
M  V30 1858 N 187.719 -0.156864 1.56817 0
M  V30 1859 C 188.967 -0.869404 1.82444 0
M  V30 1860 C 189.288 -1.82147 0.69623 0
M  V30 1861 O 188.558 -1.93847 -0.28287 0
M  V30 1862 H 187.138 -0.324043 0.673056 0
M  V30 1863 H 189.8 -0.153224 1.94297 0
M  V30 1864 H 188.896 -1.43761 2.77019 0
M  V30 1865 N 189.197 -1.51736 -0.425897 0
M  V30 1866 C 190.613 -1.40166 -0.76326 0
M  V30 1867 C 190.813 -0.492962 -1.95377 0
M  V30 1868 O 189.869 0.0475815 -2.52455 0
M  V30 1869 C 191.182 -2.82403 -1.03291 0
M  V30 1870 C 192.73 -2.91632 -1.13665 0
M  V30 1871 C 193.205 -4.34801 -1.43916 0
M  V30 1872 N 194.696 -4.3796 -1.50816 0
M  V30 1873 C 195.431 -5.4578 -1.75817 0
M  V30 1874 N 194.927 -6.63744 -1.98534 0
M  V30 1875 N 196.72 -5.33274 -1.77694 0
M  V30 1876 H 188.871 -2.09361 0.358 0
M  V30 1877 H 191.134 -0.942941 0.0978094 0
M  V30 1878 H 190.84 -3.50943 -0.230696 0
M  V30 1879 H 190.714 -3.22428 -1.95754 0
M  V30 1880 H 193.101 -2.23284 -1.92947 0
M  V30 1881 H 193.182 -2.55088 -0.190756 0
M  V30 1882 H 192.826 -5.03703 -0.65157 0
M  V30 1883 H 192.756 -4.68868 -2.39729 0
M  V30 1884 H 195.247 -3.52919 -1.35118 0
M  V30 1885 H 195.56 -7.41704 -2.17013 0
M  V30 1886 H 193.905 -6.66839 -1.95832 0
M  V30 1887 H 197.096 -4.40098 -1.59473 0
M  V30 1888 H 197.269 -6.1738 -1.9684 0
M  V30 1889 N 190.675 0.682077 -1.42076 0
M  V30 1890 C 191.585 1.82535 -1.47371 0
M  V30 1891 C 192.601 1.7017 -0.363079 0
M  V30 1892 O 193.777 1.91848 -0.612875 0
M  V30 1893 C 190.842 3.18624 -1.36674 0
M  V30 1894 C 189.903 3.42999 -2.58167 0
M  V30 1895 C 189.136 4.72595 -2.4797 0
M  V30 1896 O 189.359 5.50006 -1.5116 0
M  V30 1897 O 188.293 4.98054 -3.37974 0
M  V30 1898 H 192.119 1.81023 -2.43853 0
M  V30 1899 H 189.704 0.836887 -1.2376 0
M  V30 1900 H 191.586 3.99847 -1.33043 0
M  V30 1901 H 190.261 3.20789 -0.433138 0
M  V30 1902 H 189.168 2.61653 -2.67373 0
M  V30 1903 H 190.501 3.45659 -3.50401 0
M  V30 1904 N 192.153 1.28127 0.917671 0
M  V30 1905 C 193.381 1.17892 1.70026 0
M  V30 1906 C 193.796 -0.262958 1.8696 0
M  V30 1907 O 193.153 -1.17811 1.3938 0
M  V30 1908 C 193.204 1.86872 3.09453 0
M  V30 1909 O 192.925 3.25428 2.93306 0
M  V30 1910 C 194.426 1.8289 4.03815 0
M  V30 1911 H 191.646 0.40942 0.531617 0
M  V30 1912 H 194.19 1.69181 1.14883 0
M  V30 1913 H 192.345 1.39464 3.61426 0
M  V30 1914 H 192.759 3.59918 3.81523 0
M  V30 1915 H 194.233 2.35751 4.99125 0
M  V30 1916 H 194.71 0.800412 4.31845 0
M  V30 1917 H 195.316 2.29959 3.57769 0
M  V30 1918 N 193.631 -1.12557 1.10312 0
M  V30 1919 C 194.594 -2.16434 0.75424 0
M  V30 1920 C 195.594 -1.59278 -0.220685 0
M  V30 1921 O 196.784 -1.742 0.00230591 0
M  V30 1922 C 193.916 -3.40699 0.116987 0
M  V30 1923 H 195.109 -2.48811 1.67431 0
M  V30 1924 H 192.662 -1.27542 0.903475 0
M  V30 1925 H 193.397 -3.13921 -0.813877 0
M  V30 1926 H 193.182 -3.83459 0.818613 0
M  V30 1927 H 194.672 -4.17451 -0.111387 0
M  V30 1928 N 195.109 -0.891671 -1.2995 0
M  V30 1929 C 196.525 -0.58662 -1.48428 0
M  V30 1930 C 196.725 0.873951 -1.81561 0
M  V30 1931 O 195.781 1.65471 -1.90724 0
M  V30 1932 C 197.094 -1.50553 -2.60296 0
M  V30 1933 C 198.642 -1.50988 -2.74175 0
M  V30 1934 C 199.117 -2.41488 -3.89163 0
M  V30 1935 N 200.608 -2.39489 -3.96483 0
M  V30 1936 C 201.343 -3.06223 -4.84784 0
M  V30 1937 N 200.839 -3.82206 -5.77833 0
M  V30 1938 N 202.632 -2.95421 -4.78208 0
M  V30 1939 H 194.783 -1.83644 -1.06718 0
M  V30 1940 H 197.046 -0.786455 -0.529332 0
M  V30 1941 H 196.752 -2.54581 -2.42654 0
M  V30 1942 H 196.626 -1.22008 -3.56923 0
M  V30 1943 H 199.013 -0.47708 -2.91218 0
M  V30 1944 H 199.094 -1.83567 -1.78148 0
M  V30 1945 H 198.738 -3.44857 -3.72876 0
M  V30 1946 H 198.668 -2.06222 -4.84541 0
M  V30 1947 H 201.159 -1.84278 -3.29924 0
M  V30 1948 H 201.472 -4.302 -6.41988 0
M  V30 1949 H 199.817 -3.86313 -5.77743 0
M  V30 1950 H 203.008 -2.35581 -4.04499 0
M  V30 1951 H 203.181 -3.47704 -5.46814 0
M  V30 1952 N 196.587 1.43421 -0.653314 0
M  V30 1953 C 197.835 2.01414 -0.166415 0
M  V30 1954 C 198.156 1.51803 1.22397 0
M  V30 1955 O 197.426 0.730693 1.81763 0
M  V30 1956 H 196.006 0.744703 -0.0585319 0
M  V30 1957 H 198.668 1.75629 -0.845003 0
M  V30 1958 H 197.764 3.11734 -0.151111 0
M  V30 1959 N 198.065 0.39524 1.52563 0
M  V30 1960 C 199.342 -0.242908 1.94086 0
M  V30 1961 C 199.722 -1.63841 1.33114 0
M  V30 1962 O 199.07 -2.22928 0.501529 0
M  V30 1963 C 199.28 -0.26327 3.48006 0
M  V30 1964 C 200.628 -0.489354 4.21771 0
M  V30 1965 O 201.652 -0.343226 3.54543 0
M  V30 1966 O 200.511 -0.776169 5.4096 0
M  V30 1967 H 197.605 -0.152536 0.812811 0
M  V30 1968 H 200.151 0.450178 1.6362 0
M  V30 1969 H 198.923 0.713985 3.84731 0
M  V30 1970 H 198.546 -1.00103 3.84792 0
M  V30 1971 N 199.544 -1.57102 0.125237 0
M  V30 1972 C 200.96 -1.57915 -0.231322 0
M  V30 1973 C 201.16 -1.13833 -1.66266 0
M  V30 1974 O 200.216 -0.828581 -2.38518 0
M  V30 1975 C 201.529 -3.00699 0.00766489 0
M  V30 1976 C 203.077 -3.12947 -0.0577483 0
M  V30 1977 C 203.552 -4.57742 0.153626 0
M  V30 1978 N 205.043 -4.63092 0.0998073 0
M  V30 1979 C 205.778 -5.72905 0.238174 0
M  V30 1980 N 205.274 -6.91445 0.433057 0
M  V30 1981 N 207.067 -5.6182 0.177308 0
M  V30 1982 H 199.218 -1.84055 1.06007 0
M  V30 1983 H 201.481 -0.850905 0.417929 0
M  V30 1984 H 201.187 -3.3726 0.997431 0
M  V30 1985 H 201.061 -3.70236 -0.721452 0
M  V30 1986 H 203.448 -2.7624 -1.03804 0
M  V30 1987 H 203.529 -2.4594 0.70335 0
M  V30 1988 H 203.173 -4.95149 1.13092 0
M  V30 1989 H 203.103 -5.22848 -0.627534 0
M  V30 1990 H 205.594 -3.77871 -0.047051 0
M  V30 1991 H 205.907 -7.70985 0.529332 0
M  V30 1992 H 204.252 -6.93415 0.469109 0
M  V30 1993 H 207.443 -4.68093 0.0259748 0
M  V30 1994 H 207.616 -6.47357 0.288582 0
M  V30 1995 N 201.022 0.148545 -1.56898 0
M  V30 1996 C 202.268 0.862694 -1.83536 0
M  V30 1997 C 202.601 1.80889 -0.706604 0
M  V30 1998 O 201.876 1.92328 0.289885 0
M  V30 1999 C 202.159 1.63853 -3.20662 0
M  V30 2000 C 202.012 0.713925 -4.44098 0
M  V30 2001 C 203.331 2.60133 -3.54991 0
M  V30 2002 H 200.45 0.312179 -0.667618 0
M  V30 2003 H 203.092 0.127953 -1.89569 0
M  V30 2004 H 201.242 2.26489 -3.1565 0
M  V30 2005 H 202.914 0.098686 -4.61194 0
M  V30 2006 H 201.157 0.0234019 -4.33794 0
M  V30 2007 H 201.828 1.29278 -5.36648 0
M  V30 2008 H 204.304 2.07616 -3.60603 0
M  V30 2009 H 203.18 3.11468 -4.51972 0
M  V30 2010 H 203.441 3.41417 -2.80868 0
M  V30 2011 N 202.5 1.5196 0.417844 0
M  V30 2012 C 203.463 1.74065 1.49111 0
M  V30 2013 C 204.463 0.610537 1.48758 0
M  V30 2014 O 205.653 0.87832 1.50437 0
M  V30 2015 C 202.785 1.81502 2.88565 0
M  V30 2016 H 203.978 2.69869 1.30807 0
M  V30 2017 H 201.531 1.42244 0.647785 0
M  V30 2018 H 202.266 0.875813 3.1225 0
M  V30 2019 H 202.051 2.63651 2.90225 0
M  V30 2020 H 203.541 2.00376 3.66387 0
M  V30 2021 N 203.978 -0.674533 1.42435 0
M  V30 2022 C 205.226 -1.43175 1.42637 0
M  V30 2023 C 205.547 -1.94951 0.0438992 0
M  V30 2024 O 204.817 -1.7308 -0.917607 0
M  V30 2025 H 203.397 -0.531307 0.525092 0
M  V30 2026 H 206.059 -0.797006 1.77859 0
M  V30 2027 H 205.155 -2.28463 2.12629 0
M  V30 2028 N 205.456 -1.28612 -0.910864 0
M  V30 2029 C 206.389 -1.07109 -2.01502 0
M  V30 2030 C 207.367 0.013706 -1.62594 0
M  V30 2031 O 208.551 -0.134796 -1.88017 0
M  V30 2032 C 205.678 -0.628255 -3.32822 0
M  V30 2033 C 204.724 -1.71012 -3.90714 0
M  V30 2034 S 205.557 -3.30676 -4.21205 0
M  V30 2035 C 206.713 -2.88234 -5.55583 0
M  V30 2036 H 206.946 -2.00591 -2.19432 0
M  V30 2037 H 204.479 -1.12633 -1.05609 0
M  V30 2038 H 206.437 -0.37946 -4.08742 0
M  V30 2039 H 205.098 0.28678 -3.12788 0
M  V30 2040 H 204.291 -1.35195 -4.85529 0
M  V30 2041 H 203.893 -1.91186 -3.21441 0
M  V30 2042 H 206.185 -2.34584 -6.35591 0
M  V30 2043 H 207.128 -3.81857 -5.96314 0
M  V30 2044 H 207.536 -2.26862 -5.16908 0
M  V30 2045 N 206.934 1.1197 -1.10907 0
M  V30 2046 C 207.897 2.16031 -0.765707 0
M  V30 2047 C 208.897 1.59393 0.212235 0
M  V30 2048 O 210.087 1.74196 -0.0115441 0
M  V30 2049 C 207.219 3.40632 -0.135053 0
M  V30 2050 H 208.412 2.47919 -1.68748 0
M  V30 2051 H 205.965 1.27061 -0.910226 0
M  V30 2052 H 206.7 3.14348 0.797218 0
M  V30 2053 H 206.485 3.8302 -0.838937 0
M  V30 2054 H 207.975 4.17505 0.0892469 0
M  V30 2055 N 208.412 0.89855 1.29475 0
M  V30 2056 C 209.375 0.380272 2.26023 0
M  V30 2057 C 210.375 -0.484891 1.53315 0
M  V30 2058 O 211.565 -0.290108 1.71767 0
M  V30 2059 C 208.697 -0.45651 3.3783 0
M  V30 2060 H 209.89 1.23295 2.73383 0
M  V30 2061 H 207.443 0.676589 1.40897 0
M  V30 2062 H 208.178 -1.32922 2.95808 0
M  V30 2063 H 207.963 0.163393 3.91759 0
M  V30 2064 H 209.453 -0.810466 4.0966 0
M  V30 2065 N 209.89 -1.43072 0.660911 0
M  V30 2066 C 210.837 -2.30785 -0.0259884 0
M  V30 2067 C 211.807 -1.45184 -0.806888 0
M  V30 2068 O 212.992 -1.74041 -0.781943 0
M  V30 2069 C 210.132 -3.30861 -0.981067 0
M  V30 2070 C 209.245 -4.31558 -0.195458 0
M  V30 2071 C 208.38 -5.18712 -1.14503 0
M  V30 2072 C 207.419 -6.11097 -0.350299 0
M  V30 2073 N 206.556 -6.90849 -1.25186 0
M  V30 2074 H 211.396 -2.88975 0.727846 0
M  V30 2075 H 208.933 -1.42353 0.370682 0
M  V30 2076 H 210.891 -3.87399 -1.54849 0
M  V30 2077 H 209.521 -2.74304 -1.70169 0
M  V30 2078 H 208.573 -3.77252 0.488374 0
M  V30 2079 H 209.885 -4.9701 0.422176 0
M  V30 2080 H 209.039 -5.79914 -1.78284 0
M  V30 2081 H 207.778 -4.53404 -1.79656 0
M  V30 2082 H 206.783 -5.48976 0.300808 0
M  V30 2083 H 208.008 -6.7845 0.296941 0
M  V30 2084 H 205.954 -6.28182 -1.89005 0
M  V30 2085 H 205.871 -7.52854 -0.688971 0
M  V30 2086 H 207.139 -7.5655 -1.87757 0
M  V30 2087 N 211.368 -0.403325 -1.52352 0
M  V30 2088 C 212.3 0.4603 -2.2453 0
M  V30 2089 C 213.313 1.01505 -1.27282 0
M  V30 2090 O 214.502 0.914982 -1.53266 0
M  V30 2091 C 211.602 1.65208 -2.95905 0
M  V30 2092 C 210.775 1.22224 -4.19976 0
M  V30 2093 C 209.834 2.28028 -4.74226 0
M  V30 2094 O 208.86 1.88857 -5.36956 0
M  V30 2095 N 210.062 3.6012 -4.55295 0
M  V30 2096 H 212.827 -0.158156 -2.99282 0
M  V30 2097 H 210.388 -0.230402 -1.60252 0
M  V30 2098 H 212.38 2.35541 -3.29093 0
M  V30 2099 H 210.95 2.17658 -2.24374 0
M  V30 2100 H 210.17 0.34725 -3.92668 0
M  V30 2101 H 211.458 0.911924 -5.00561 0
M  V30 2102 H 210.856 3.94698 -4.05253 0
M  V30 2103 H 209.413 4.26447 -4.92936 0
M  V30 2104 N 212.846 1.57033 -0.133567 0
M  V30 2105 C 213.809 2.14897 0.796995 0
M  V30 2106 C 214.809 1.0874 1.18458 0
M  V30 2107 O 215.999 1.34446 1.1077 0
M  V30 2108 C 213.131 2.70112 2.07973 0
M  V30 2109 H 214.324 2.98457 0.293873 0
M  V30 2110 H 211.877 1.55871 0.115787 0
M  V30 2111 H 212.612 1.9018 2.62682 0
M  V30 2112 H 212.397 3.47764 1.81115 0
M  V30 2113 H 213.887 3.14738 2.74462 0
M  V30 2114 N 214.325 -0.140222 1.56975 0
M  V30 2115 C 215.555 -0.865181 1.87612 0
M  V30 2116 C 215.963 -1.74942 0.72055 0
M  V30 2117 O 215.306 -1.80917 -0.318561 0
M  V30 2118 C 215.368 -1.76782 3.13031 0
M  V30 2119 C 215.032 -1.06005 4.44536 0
M  V30 2120 C 216.029 -0.410768 5.18275 0
M  V30 2121 C 213.714 -1.04754 4.91255 0
M  V30 2122 C 215.708 0.241572 6.36942 0
M  V30 2123 C 213.395 -0.391394 6.09845 0
M  V30 2124 C 214.393 0.252029 6.82535 0
M  V30 2125 O 214.081 0.897757 7.98871 0
M  V30 2126 H 213.813 -0.255188 0.625983 0
M  V30 2127 H 216.367 -0.135653 2.04952 0
M  V30 2128 H 214.597 -2.53846 2.91718 0
M  V30 2129 H 216.286 -2.36533 3.29859 0
M  V30 2130 H 217.052 -0.412195 4.83245 0
M  V30 2131 H 212.931 -1.53777 4.34596 0
M  V30 2132 H 216.475 0.744375 6.93617 0
M  V30 2133 H 212.372 -0.387656 6.44335 0
M  V30 2134 H 213.14 0.800102 8.1458 0
M  V30 2135 N 215.803 -1.52179 -0.40978 0
M  V30 2136 C 217.049 -1.66453 -1.15851 0
M  V30 2137 C 217.382 -0.392972 -1.90182 0
M  V30 2138 O 216.657 0.608579 -1.84734 0
M  V30 2139 C 216.94 -2.88612 -2.15349 0
M  V30 2140 C 216.793 -4.25815 -1.44918 0
M  V30 2141 C 218.112 -3.06294 -3.16026 0
M  V30 2142 H 215.231 -0.60575 -0.419805 0
M  V30 2143 H 217.873 -1.84732 -0.444314 0
M  V30 2144 H 216.023 -2.73158 -2.76255 0
M  V30 2145 H 217.695 -4.52995 -0.871365 0
M  V30 2146 H 215.938 -4.27247 -0.751159 0
M  V30 2147 H 216.609 -5.07337 -2.17516 0
M  V30 2148 H 219.085 -3.20641 -2.65195 0
M  V30 2149 H 217.961 -3.93283 -3.8291 0
M  V30 2150 H 218.222 -2.19579 -3.83715 0
M  V30 2151 N 217.281 0.66697 -1.42791 0
M  V30 2152 C 218.527 1.4291 -1.43891 0
M  V30 2153 C 218.86 1.94114 -0.0578972 0
M  V30 2154 O 218.135 1.71414 0.91911 0
M  V30 2155 C 218.418 2.62049 -2.46987 0
M  V30 2156 C 218.271 2.16426 -3.94309 0
M  V30 2157 C 219.59 3.64266 -2.46978 0
M  V30 2158 H 216.709 0.518306 -0.523954 0
M  V30 2159 H 219.351 0.757321 -1.74255 0
M  V30 2160 H 217.501 3.19361 -2.21225 0
M  V30 2161 H 219.173 1.64221 -4.31079 0
M  V30 2162 H 217.416 1.47925 -4.078 0
M  V30 2163 H 218.087 3.02038 -4.62036 0
M  V30 2164 H 220.563 3.16686 -2.69906 0
M  V30 2165 H 219.439 4.45196 -3.21079 0
M  V30 2166 H 219.7 4.15927 -1.49857 0
M  V30 2167 N 218.759 1.29093 0.90403 0
M  V30 2168 C 219.709 1.10482 1.99443 0
M  V30 2169 C 220.693 0.0255401 1.6088 0
M  V30 2170 O 221.885 0.24677 1.75271 0
M  V30 2171 C 219.014 0.778882 3.34348 0
M  V30 2172 C 218.1 1.89749 3.79284 0
M  V30 2173 N 218.491 3.14045 3.96497 0
M  V30 2174 C 216.789 1.78955 4.08523 0
M  V30 2175 C 217.49 3.86996 4.34292 0
M  V30 2176 N 216.466 3.14909 4.43095 0
M  V30 2177 H 220.268 2.04778 2.10815 0
M  V30 2178 H 217.782 1.20155 1.09255 0
M  V30 2179 H 219.779 0.62661 4.12164 0
M  V30 2180 H 218.439 -0.156205 3.24324 0
M  V30 2181 H 219.45 3.49548 3.82148 0
M  V30 2182 H 216.127 0.926886 4.07081 0
M  V30 2183 H 217.517 4.93941 4.55491 0
M  V30 2184 N 220.237 -1.11381 1.11499 0
M  V30 2185 C 221.147 -2.21019 0.786628 0
M  V30 2186 C 222.163 -1.72597 -0.220507 0
M  V30 2187 O 223.339 -2.01321 -0.0565251 0
M  V30 2188 C 220.404 -3.459 0.235333 0
M  V30 2189 C 219.465 -4.09107 1.30115 0
M  V30 2190 C 218.698 -5.28027 0.776068 0
M  V30 2191 O 218.921 -5.6904 -0.393661 0
M  V30 2192 O 217.855 -5.81835 1.54114 0
M  V30 2193 H 221.681 -2.51521 1.70209 0
M  V30 2194 H 219.266 -1.19928 0.890928 0
M  V30 2195 H 221.148 -4.21346 -0.067715 0
M  V30 2196 H 219.823 -3.17049 -0.652828 0
M  V30 2197 H 218.73 -3.35391 1.65722 0
M  V30 2198 H 220.063 -4.42139 2.16273 0
M  V30 2199 N 221.715 -0.905404 -1.28997 0
M  V30 2200 C 222.963 -0.533192 -1.9494 0
M  V30 2201 C 223.284 0.924618 -1.71685 0
M  V30 2202 O 222.554 1.65268 -1.05183 0
M  V30 2203 H 221.134 -0.194194 -0.721317 0
M  V30 2204 H 223.796 -1.15294 -1.57141 0
M  V30 2205 H 222.892 -0.72059 -3.03667 0
M  V30 2206 N 223.193 1.4272 -0.668489 0
M  V30 2207 C 224.439 2.01923 -0.188419 0
M  V30 2208 C 224.772 1.52704 1.19979 0
M  V30 2209 O 224.047 0.726566 1.8042 0
M  V30 2210 C 224.33 3.59451 -0.216085 0
M  V30 2211 C 224.183 4.18864 -1.6393 0
M  V30 2212 C 225.502 4.37903 0.439179 0
M  V30 2213 H 222.621 0.733674 -0.0699412 0
M  V30 2214 H 225.263 1.69822 -0.852076 0
M  V30 2215 H 223.413 3.86929 0.349012 0
M  V30 2216 H 225.085 4.02362 -2.25616 0
M  V30 2217 H 223.328 3.74933 -2.18193 0
M  V30 2218 H 223.999 5.27987 -1.61039 0
M  V30 2219 H 226.475 4.16079 -0.0417878 0
M  V30 2220 H 225.351 5.47519 0.389157 0
M  V30 2221 H 225.612 4.15303 1.51577 0
M  V30 2222 N 224.671 0.411399 1.52136 0
M  V30 2223 C 225.581 -0.419774 2.30814 0
M  V30 2224 C 226.597 -1.0515 1.38634 0
M  V30 2225 O 227.773 -1.05252 1.71709 0
M  V30 2226 C 224.838 -1.52019 3.11594 0
M  V30 2227 C 223.899 -0.91129 4.19516 0
M  V30 2228 C 223.132 -1.95927 4.96436 0
M  V30 2229 O 223.355 -3.17775 4.73683 0
M  V30 2230 O 222.289 -1.56423 5.81219 0
M  V30 2231 H 226.115 0.221805 3.02889 0
M  V30 2232 H 223.7 0.174547 1.48377 0
M  V30 2233 H 225.582 -2.15898 3.61892 0
M  V30 2234 H 224.257 -2.14633 2.42311 0
M  V30 2235 H 223.164 -0.235157 3.7336 0
M  V30 2236 H 224.497 -0.32904 4.91099 0
M  V30 2237 N 226.149 -1.5696 0.141893 0
M  V30 2238 C 227.379 -2.00031 -0.516828 0
M  V30 2239 C 227.787 -1.02091 -1.59293 0
M  V30 2240 O 227.13 -0.00909657 -1.83698 0
M  V30 2241 C 227.192 -3.39534 -1.1814 0
M  V30 2242 C 226.856 -4.56313 -0.250513 0
M  V30 2243 C 227.853 -5.17295 0.519839 0
M  V30 2244 C 225.538 -5.02061 -0.154907 0
M  V30 2245 C 227.532 -6.2243 1.3733 0
M  V30 2246 C 225.219 -6.07053 0.702161 0
M  V30 2247 C 226.217 -6.67106 1.46487 0
M  V30 2248 O 225.905 -7.70066 2.30767 0
M  V30 2249 H 225.637 -0.661451 -0.139493 0
M  V30 2250 H 228.191 -2.04086 0.231926 0
M  V30 2251 H 226.421 -3.32302 -1.97769 0
M  V30 2252 H 228.11 -3.66745 -1.73933 0
M  V30 2253 H 228.876 -4.82852 0.45598 0
M  V30 2254 H 224.755 -4.5505 -0.7383 0
M  V30 2255 H 228.299 -6.69233 1.96909 0
M  V30 2256 H 224.196 -6.40923 0.76733 0
M  V30 2257 H 224.964 -7.87264 2.23959 0
M  V30 2258 N 227.627 0.131896 -1.57047 0
M  V30 2259 C 228.904 0.871495 -1.75112 0
M  V30 2260 C 229.284 1.9866 -0.713949 0
M  V30 2261 O 228.632 2.26965 0.264447 0
M  V30 2262 C 228.842 1.40007 -3.19686 0
M  V30 2263 C 230.19 1.85752 -3.81813 0
M  V30 2264 O 231.214 1.49715 -3.23209 0
M  V30 2265 O 230.073 2.5226 -4.84796 0
M  V30 2266 H 227.167 0.412919 -0.716538 0
M  V30 2267 H 229.713 0.116641 -1.69299 0
M  V30 2268 H 228.485 0.599404 -3.86682 0
M  V30 2269 H 228.108 2.218 -3.29986 0
M  V30 2270 N 229.106 1.52395 0.401703 0
M  V30 2271 C 230.352 1.67065 1.14966 0
M  V30 2272 C 230.685 0.403052 1.89971 0
M  V30 2273 O 229.96 -0.598774 1.85054 0
M  V30 2274 C 230.243 2.8975 2.13815 0
M  V30 2275 C 230.096 4.26578 1.42658 0
M  V30 2276 C 231.415 3.07965 3.14397 0
M  V30 2277 H 228.534 0.607968 0.416587 0
M  V30 2278 H 231.176 1.84965 0.434511 0
M  V30 2279 H 229.326 2.74619 2.74803 0
M  V30 2280 H 230.998 4.53451 0.847329 0
M  V30 2281 H 229.241 4.27639 0.72849 0
M  V30 2282 H 229.912 5.08483 2.14823 0
M  V30 2283 H 232.388 3.22043 2.63491 0
M  V30 2284 H 231.264 3.95308 3.80819 0
M  V30 2285 H 231.525 2.21611 3.82545 0
M  V30 2286 N 230.584 -0.659388 1.43143 0
M  V30 2287 C 231.494 -1.80167 1.50256 0
M  V30 2288 C 232.51 -1.69571 0.390106 0
M  V30 2289 O 233.686 -1.90849 0.643319 0
M  V30 2290 C 230.751 -3.16409 1.41725 0
M  V30 2291 C 229.812 -3.38848 2.63591 0
M  V30 2292 C 229.045 -4.68591 2.55458 0
M  V30 2293 O 229.268 -5.47532 1.59891 0
M  V30 2294 O 228.202 -4.92614 3.45854 0
M  V30 2295 H 232.028 -1.77121 2.46702 0
M  V30 2296 H 229.613 -0.817092 1.25076 0
M  V30 2297 H 231.495 -3.9768 1.39387 0
M  V30 2298 H 230.17 -3.20059 0.484118 0
M  V30 2299 H 229.077 -2.57366 2.71502 0
M  V30 2300 H 230.41 -3.4004 3.55856 0
M  V30 2301 N 232.062 -1.29571 -0.897171 0
M  V30 2302 C 233.308 -1.17863 -1.65034 0
M  V30 2303 C 233.641 0.268729 -1.92332 0
M  V30 2304 O 232.916 1.19378 -1.53555 0
M  V30 2305 C 233.199 -1.995 -2.99786 0
M  V30 2306 C 233.052 -3.5239 -2.79538 0
M  V30 2307 C 234.371 -1.82335 -4.00552 0
M  V30 2308 H 231.49 -0.429528 -0.598895 0
M  V30 2309 H 234.132 -1.59072 -1.03905 0
M  V30 2310 H 232.282 -1.64485 -3.51962 0
M  V30 2311 H 233.954 -3.97401 -2.34244 0
M  V30 2312 H 232.197 -3.77187 -2.14273 0
M  V30 2313 H 232.868 -4.04787 -3.75302 0
M  V30 2314 H 235.344 -2.12924 -3.57495 0
M  V30 2315 H 234.22 -2.41801 -4.92771 0
M  V30 2316 H 234.481 -0.779209 -4.35179 0
M  V30 2317 N 233.54 1.10788 -1.12088 0
M  V30 2318 C 234.817 1.79136 -0.785476 0
M  V30 2319 C 235.197 1.98246 0.725377 0
M  V30 2320 O 234.545 1.57258 1.65778 0
M  V30 2321 C 234.755 3.12375 -1.55636 0
M  V30 2322 C 236.103 3.8731 -1.74001 0
M  V30 2323 O 237.127 3.22085 -1.52117 0
M  V30 2324 O 235.986 5.04369 -2.10415 0
M  V30 2325 H 233.08 0.776226 -0.285311 0
M  V30 2326 H 235.626 1.1747 -1.2247 0
M  V30 2327 H 234.398 2.93863 -2.5838 0
M  V30 2328 H 234.021 3.81758 -1.11114 0
M  V30 2329 N 235.018 0.912232 1.28515 0
M  V30 2330 C 236.246 0.560416 1.99166 0
M  V30 2331 C 236.661 -0.857927 1.68182 0
M  V30 2332 O 236.018 -1.56805 0.933733 0
M  V30 2333 C 236.069 0.758142 3.53461 0
M  V30 2334 O 235.79 2.12067 3.83352 0
M  V30 2335 C 237.291 0.412954 4.41372 0
M  V30 2336 H 234.511 0.213805 0.636026 0
M  V30 2337 H 237.055 1.22502 1.63749 0
M  V30 2338 H 235.21 0.140556 3.87145 0
M  V30 2339 H 235.624 2.15923 4.77993 0
M  V30 2340 H 237.098 0.60208 5.48707 0
M  V30 2341 H 237.575 -0.65073 4.34353 0
M  V30 2342 H 238.181 1.00802 4.13182 0
M  V30 2343 N 236.496 -1.42363 0.676048 0
M  V30 2344 C 237.724 -2.05859 0.207268 0
M  V30 2345 C 238.139 -1.50796 -1.13605 0
M  V30 2346 O 237.496 -0.648265 -1.70598 0
M  V30 2347 C 237.547 -3.61248 0.134975 0
M  V30 2348 O 237.268 -4.1427 1.42521 0
M  V30 2349 C 238.769 -4.41859 -0.357151 0
M  V30 2350 H 235.989 -0.663431 0.100503 0
M  V30 2351 H 238.533 -1.82479 0.923136 0
M  V30 2352 H 236.688 -3.83735 -0.531588 0
M  V30 2353 H 237.102 -5.0815 1.29939 0
M  V30 2354 H 238.576 -5.50847 -0.356641 0
M  V30 2355 H 239.053 -4.16536 -1.39264 0
M  V30 2356 H 239.659 -4.24392 0.27772 0
M  V30 2357 N 237.974 -0.419461 -1.51915 0
M  V30 2358 C 238.924 0.418496 -2.24126 0
M  V30 2359 C 239.908 1.00495 -1.25656 0
M  V30 2360 O 241.1 0.926058 -1.50842 0
M  V30 2361 C 238.229 1.52899 -3.07371 0
M  V30 2362 C 237.315 0.952797 -4.13258 0
M  V30 2363 N 237.706 0.104175 -5.05693 0
M  V30 2364 C 236.004 1.22224 -4.28926 0
M  V30 2365 C 236.705 -0.21752 -5.81293 0
M  V30 2366 N 235.681 0.394293 -5.42168 0
M  V30 2367 H 239.483 -0.236048 -2.92951 0
M  V30 2368 H 236.997 -0.230481 -1.60756 0
M  V30 2369 H 238.994 2.14199 -3.57665 0
M  V30 2370 H 237.654 2.18605 -2.40088 0
M  V30 2371 H 238.665 -0.260924 -5.17242 0
M  V30 2372 H 235.342 1.87812 -3.72871 0
M  V30 2373 H 236.732 -0.906992 -6.6575 0
M  V30 2374 N 239.452 1.56882 -0.150215 0
M  V30 2375 C 240.399 2.16922 0.788244 0
M  V30 2376 C 241.369 1.10303 1.24187 0
M  V30 2377 O 242.554 1.38359 1.31383 0
M  V30 2378 C 239.694 2.79754 2.02068 0
M  V30 2379 C 238.807 4.00775 1.61257 0
M  V30 2380 C 237.942 4.51595 2.79705 0
M  V30 2381 C 236.981 5.65074 2.35282 0
M  V30 2382 N 236.118 6.10499 3.4675 0
M  V30 2383 H 240.958 2.96779 0.269444 0
M  V30 2384 H 238.495 1.46599 0.12128 0
M  V30 2385 H 240.453 3.14329 2.74323 0
M  V30 2386 H 239.083 2.02536 2.51354 0
M  V30 2387 H 238.135 3.72158 0.787553 0
M  V30 2388 H 239.447 4.82978 1.24633 0
M  V30 2389 H 238.601 4.88242 3.60145 0
M  V30 2390 H 237.34 3.68406 3.19576 0
M  V30 2391 H 236.345 5.28 1.53283 0
M  V30 2392 H 237.57 6.50052 1.96493 0
M  V30 2393 H 235.516 5.30243 3.86236 0
M  V30 2394 H 235.433 6.87637 3.14152 0
M  V30 2395 H 236.701 6.51791 4.27537 0
M  V30 2396 N 240.93 -0.123565 1.57115 0
M  V30 2397 C 241.84 -1.17074 2.033 0
M  V30 2398 C 242.856 -1.4561 0.952559 0
M  V30 2399 O 244.032 -1.56817 1.26374 0
M  V30 2400 C 241.097 -2.47857 2.42421 0
M  V30 2401 C 240.158 -2.26758 3.64526 0
M  V30 2402 C 239.391 -3.51305 4.01771 0
M  V30 2403 O 239.614 -4.5843 3.39409 0
M  V30 2404 O 238.548 -3.42578 4.94898 0
M  V30 2405 H 242.374 -0.808555 2.92739 0
M  V30 2406 H 239.959 -0.334027 1.45618 0
M  V30 2407 H 241.841 -3.2492 2.68338 0
M  V30 2408 H 240.516 -2.83558 1.5613 0
M  V30 2409 H 239.423 -1.47569 3.43765 0
M  V30 2410 H 240.756 -1.95963 4.51508 0
M  V30 2411 N 242.408 -1.52605 -0.393616 0
M  V30 2412 C 243.633 -1.71592 -1.16495 0
M  V30 2413 C 244.058 -0.43133 -1.83088 0
M  V30 2414 O 243.416 0.612523 -1.7064 0
M  V30 2415 C 243.464 -2.86318 -2.19213 0
M  V30 2416 O 242.568 -2.52969 -3.257 0
M  V30 2417 H 241.909 -0.570734 -0.33935 0
M  V30 2418 H 244.439 -1.99377 -0.459324 0
M  V30 2419 H 244.449 -3.1168 -2.63286 0
M  V30 2420 H 243.124 -3.79511 -1.7013 0
M  V30 2421 H 241.701 -2.38332 -2.86797 0
M  V30 2422 N 243.887 0.651787 -1.4349 0
M  V30 2423 C 245.136 1.40754 -1.44469 0
M  V30 2424 C 245.449 1.95463 -0.0731845 0
M  V30 2425 O 246.655 2.71471 0.0395721 0
M  V30 2426 C 245.111 2.54735 -2.5424 0
M  V30 2427 C 244.719 2.06628 -3.97504 0
M  V30 2428 C 246.463 3.32092 -2.64414 0
M  V30 2429 C 244.37 3.17829 -4.98737 0
M  V30 2430 H 243.3 0.528862 -0.53742 0
M  V30 2431 H 245.951 0.703365 -1.69485 0
M  V30 2432 H 244.333 3.2763 -2.22428 0
M  V30 2433 H 245.507 1.40734 -4.38783 0
M  V30 2434 H 243.822 1.42146 -3.91387 0
M  V30 2435 H 246.419 4.14952 -3.37223 0
M  V30 2436 H 246.762 3.80217 -1.69532 0
M  V30 2437 H 247.295 2.66279 -2.95534 0
M  V30 2438 H 244.034 2.74671 -5.95177 0
M  V30 2439 H 243.554 3.82429 -4.62069 0
M  V30 2440 H 245.233 3.82937 -5.21505 0
M  V30 2441 N 245.365 1.30045 0.890287 0
M  V30 2442 C 246.275 1.17885 2.02831 0
M  V30 2443 C 247.291 0.0999609 1.73713 0
M  V30 2444 O 248.467 0.313867 1.98939 0
M  V30 2445 C 245.532 0.866079 3.35708 0
M  V30 2446 C 244.593 2.02979 3.78283 0
M  V30 2447 C 243.826 1.73184 5.0482 0
M  V30 2448 O 244.049 0.657237 5.66601 0
M  V30 2449 O 242.983 2.58267 5.43674 0
M  V30 2450 H 246.809 2.13474 2.16015 0
M  V30 2451 H 244.394 1.09587 1.01543 0
M  V30 2452 H 246.276 0.706623 4.15433 0
M  V30 2453 H 244.951 -0.0599443 3.23644 0
M  V30 2454 H 243.858 2.24454 2.99285 0
M  V30 2455 H 245.191 2.93734 3.94944 0
M  V30 2456 N 246.843 -1.10192 1.12674 0
M  V30 2457 C 248.083 -1.83825 0.893736 0
M  V30 2458 C 248.447 -1.83341 -0.570082 0
M  V30 2459 O 249.648 -2.52553 -0.920354 0
M  V30 2460 C 247.919 -3.26405 1.45582 0
M  V30 2461 S 249.478 -4.17136 1.36171 0
M  V30 2462 H 246.296 -0.633732 0.322342 0
M  V30 2463 H 248.898 -1.32581 1.43675 0
M  V30 2464 H 247.602 -3.24329 2.51473 0
M  V30 2465 H 247.133 -3.82721 0.910405 0
M  V30 2466 H 249.148 -4.95069 0.334863 0
M  V30 2467 N 248.321 -0.919034 -1.28029 0
M  V30 2468 C 249.284 -0.416182 -2.2539 0
M  V30 2469 C 250.284 0.460438 -1.54067 0
M  V30 2470 O 251.474 0.262744 -1.72207 0
M  V30 2471 C 248.606 0.402707 -3.38513 0
M  V30 2472 H 249.799 -1.27629 -2.71387 0
M  V30 2473 H 247.352 -0.698919 -1.39803 0
M  V30 2474 H 248.087 1.282 -2.97885 0
M  V30 2475 H 247.872 -0.225698 -3.9145 0
M  V30 2476 H 249.362 0.745191 -4.10897 0
M  V30 2477 N 249.799 1.42003 -0.683588 0
M  V30 2478 C 251.045 2.02223 -0.218536 0
M  V30 2479 C 251.4 1.53126 1.16492 0
M  V30 2480 O 250.693 0.727459 1.77253 0
M  V30 2481 C 250.887 3.56827 -0.202357 0
M  V30 2482 C 250.716 4.20928 -1.5827 0
M  V30 2483 C 249.486 4.5573 -2.18262 0
M  V30 2484 C 251.684 4.47933 -2.52706 0
M  V30 2485 N 249.666 5.05056 -3.48986 0
M  V30 2486 C 251.037 4.98906 -3.68094 0
M  V30 2487 C 253.092 4.29931 -2.51125 0
M  V30 2488 C 251.795 5.33768 -4.82166 0
M  V30 2489 C 253.821 4.65875 -3.643 0
M  V30 2490 C 253.183 5.17008 -4.78417 0
M  V30 2491 H 249.282 0.771931 -0.125088 0
M  V30 2492 H 251.866 1.72729 -0.898479 0
M  V30 2493 H 250.037 3.85819 0.447029 0
M  V30 2494 H 251.769 4.03755 0.276399 0
M  V30 2495 H 248.524 4.41781 -1.70665 0
M  V30 2496 H 248.948 5.34139 -4.15962 0
M  V30 2497 H 253.59 3.89647 -1.6412 0
M  V30 2498 H 251.308 5.72981 -5.6984 0
M  V30 2499 H 254.894 4.53615 -3.64314 0
M  V30 2500 H 253.774 5.44301 -5.64541 0
M  V30 2501 N 251.277 0.427512 1.51691 0
M  V30 2502 C 252.24 -0.377132 2.26076 0
M  V30 2503 C 253.24 -0.958089 1.29141 0
M  V30 2504 O 254.43 -0.83408 1.52934 0
M  V30 2505 C 251.562 -1.53262 3.04506 0
M  V30 2506 H 252.755 0.27464 2.9864 0
M  V30 2507 H 250.308 0.180445 1.55255 0
M  V30 2508 H 251.043 -2.22072 2.36335 0
M  V30 2509 H 250.828 -1.12232 3.75694 0
M  V30 2510 H 252.318 -2.10135 3.60878 0
M  V30 2511 N 252.755 -1.56801 0.158532 0
M  V30 2512 C 254.004 -1.95665 -0.489702 0
M  V30 2513 C 254.317 -1.04654 -1.65248 0
M  V30 2514 O 255.523 -1.33146 -2.3661 0
M  V30 2515 C 253.979 -3.47874 -0.922582 0
M  V30 2516 C 253.587 -4.47489 0.213893 0
M  V30 2517 C 255.331 -3.95583 -1.53996 0
M  V30 2518 C 253.238 -5.90921 -0.237903 0
M  V30 2519 H 252.168 -0.730516 -0.186716 0
M  V30 2520 H 254.819 -1.81861 0.244722 0
M  V30 2521 H 253.201 -3.57051 -1.71261 0
M  V30 2522 H 254.375 -4.50017 0.991036 0
M  V30 2523 H 252.69 -4.09764 0.740407 0
M  V30 2524 H 255.287 -5.0019 -1.8898 0
M  V30 2525 H 255.63 -3.37789 -2.43319 0
M  V30 2526 H 256.163 -3.8937 -0.814611 0
M  V30 2527 H 252.902 -6.52559 0.620236 0
M  V30 2528 H 252.422 -5.91729 -0.980676 0
M  V30 2529 H 254.101 -6.43352 -0.686067 0
M  V30 2530 N 254.233 0.115231 -1.57178 0
M  V30 2531 C 255.196 1.12526 -1.99676 0
M  V30 2532 C 256.196 1.34095 -0.88742 0
M  V30 2533 O 257.386 1.30548 -1.15337 0
M  V30 2534 C 254.518 2.4789 -2.34015 0
M  V30 2535 H 255.711 0.759912 -2.90113 0
M  V30 2536 H 253.264 0.359648 -1.52106 0
M  V30 2537 H 253.999 2.89339 -1.4647 0
M  V30 2538 H 253.784 2.33588 -3.14927 0
M  V30 2539 H 255.274 3.20575 -2.67622 0
M  V30 2540 N 255.711 1.52812 0.385517 0
M  V30 2541 C 256.674 1.77188 1.45386 0
M  V30 2542 C 257.674 0.641953 1.4743 0
M  V30 2543 O 258.864 0.910033 1.4854 0
M  V30 2544 C 255.996 1.87582 2.8465 0
M  V30 2545 H 257.189 2.72583 1.25054 0
M  V30 2546 H 254.742 1.43586 0.617467 0
M  V30 2547 H 255.477 0.941849 3.10322 0
M  V30 2548 H 255.262 2.69748 2.84567 0
M  V30 2549 H 256.752 2.08102 3.62054 0
M  V30 2550 N 257.189 -0.644168 1.43834 0
M  V30 2551 C 258.139 -1.7501 1.46135 0
M  V30 2552 C 259.123 -1.57507 0.328685 0
M  V30 2553 O 260.315 -1.67465 0.5731 0
M  V30 2554 C 257.444 -3.13641 1.39585 0
M  V30 2555 C 256.53 -3.3666 2.57916 0
M  V30 2556 N 256.921 -3.30107 3.83227 0
M  V30 2557 C 255.219 -3.67411 2.52834 0
M  V30 2558 C 255.92 -3.53456 4.61999 0
M  V30 2559 N 254.896 -3.75705 3.9287 0
M  V30 2560 H 258.698 -1.68382 2.40883 0
M  V30 2561 H 256.212 -0.846169 1.38614 0
M  V30 2562 H 258.209 -3.92933 1.39317 0
M  V30 2563 H 256.869 -3.21444 0.45865 0
M  V30 2564 H 257.88 -3.09316 4.15384 0
M  V30 2565 H 254.557 -3.82275 1.67845 0
M  V30 2566 H 255.947 -3.54093 5.71024 0
M  V30 2567 N 258.668 -1.30515 -0.883378 0
M  V30 2568 C 259.914 -1.19607 -1.63774 0
M  V30 2569 C 260.247 0.248314 -1.92606 0
M  V30 2570 O 259.522 1.17742 -1.54813 0
M  V30 2571 C 259.805 -2.02669 -2.97653 0
M  V30 2572 C 259.658 -3.55335 -2.75784 0
M  V30 2573 C 260.977 -1.86573 -3.98596 0
M  V30 2574 H 258.096 -0.435856 -0.594305 0
M  V30 2575 H 260.738 -1.60165 -1.02212 0
M  V30 2576 H 258.888 -1.68208 -3.50197 0
M  V30 2577 H 260.56 -3.99863 -2.30016 0
M  V30 2578 H 258.803 -3.79438 -2.1026 0
M  V30 2579 H 259.474 -4.08745 -3.70988 0
M  V30 2580 H 261.95 -2.16703 -3.55217 0
M  V30 2581 H 260.826 -2.47014 -4.90179 0
M  V30 2582 H 261.087 -0.825321 -4.34328 0
M  V30 2583 N 260.146 1.09593 -1.13257 0
M  V30 2584 C 261.392 1.82003 -0.89458 0
M  V30 2585 C 261.725 1.85402 0.577906 0
M  V30 2586 O 261 1.32099 1.42759 0
M  V30 2587 C 261.283 3.28237 -1.48096 0
M  V30 2588 C 261.136 3.3312 -3.02244 0
M  V30 2589 C 262.455 4.24871 -1.14774 0
M  V30 2590 H 259.574 0.66077 -0.326424 0
M  V30 2591 H 262.216 1.28389 -1.40058 0
M  V30 2592 H 260.366 3.74024 -1.05062 0
M  V30 2593 H 262.038 2.95748 -3.54021 0
M  V30 2594 H 260.281 2.72756 -3.37323 0
M  V30 2595 H 260.952 4.3613 -3.38371 0
M  V30 2596 H 263.428 3.87361 -1.51957 0
M  V30 2597 H 262.304 5.25532 -1.58452 0
M  V30 2598 H 262.565 4.42058 -0.0611849 0
M  V30 2599 N 261.624 0.925811 1.2754 0
M  V30 2600 C 263.035 0.610102 1.7645 0
M  V30 2601 C 263.386 -0.874723 1.75622 0
M  V30 2602 O 262.511 -1.68444 1.35851 0
M  V30 2603 C 263.106 1.10073 3.20421 0
M  V30 2604 C 261.665 0.835723 3.67005 0
M  V30 2605 C 260.812 1.26054 2.46993 0
M  V30 2606 H 263.763 1.10579 1.13833 0
M  V30 2607 H 263.784 0.447557 3.77859 0
M  V30 2608 H 263.296 2.18143 3.20991 0
M  V30 2609 H 261.397 -0.231249 3.71882 0
M  V30 2610 H 261.51 1.45193 4.56569 0
M  V30 2611 H 259.874 0.679111 2.45479 0
M  V30 2612 H 260.657 2.34984 2.50275 0
M  V30 2613 O 263.141 -1.38545 0.829904 0
M  V30 2614 H 263.832 -1.89212 0.414565 0
M  V30 END ATOM
M  V30 BEGIN BOND
M  V30 END BOND
M  V30 END CTAB
M  END
$$$$
