drugbank_drug|DB00045  OspA lipoprotein
 OpenBabel12092119123D

  0  0  0     0  0            999 V3000
M  V30 BEGIN CTAB
M  V30 COUNTS 4166 4175 0 0 0
M  V30 BEGIN ATOM
M  V30 1 H -0.908 1.98254 -0.117106 0
M  V30 2 N 0 1.576 0 0
M  V30 3 C 0.933 2.03868 1.02534 0
M  V30 4 C 1.911 0.928543 1.3348 0
M  V30 5 O 3.095 1.19667 1.45644 0
M  V30 6 C 0.222 2.43627 2.35294 0
M  V30 7 C -0.732 3.65373 2.2001 0
M  V30 8 S 0.101 5.13292 1.52614 0
M  V30 9 C 1.257 5.56322 2.86805 0
M  V30 10 H 1.49 2.90518 0.631377 0
M  V30 11 H -0.977 1.52953 0.210867 0
M  V30 12 H 0.981 2.67203 3.11629 0
M  V30 13 H -0.358 1.57376 2.7183 0
M  V30 14 H -1.165 3.90944 3.18086 0
M  V30 15 H -1.563 3.418 1.51819 0
M  V30 16 H 0.729 5.58782 3.83104 0
M  V30 17 H 1.672 6.56266 2.65933 0
M  V30 18 H 2.08 4.83886 2.90714 0
M  V30 19 N 1.4781 -0.272755 1.55222 0
M  V30 20 C 2.4251 -1.33716 1.88119 0
M  V30 21 C 3.3951 -1.49066 0.73271 0
M  V30 22 O 4.5801 -1.63469 0.984002 0
M  V30 23 C 1.7201 -2.69238 2.15882 0
M  V30 24 C 0.8331 -2.62108 3.43399 0
M  V30 25 C -0.0319 -3.89811 3.60861 0
M  V30 26 C -0.9929 -3.77193 4.8207 0
M  V30 27 N -1.8559 -4.9673 4.96189 0
M  V30 28 H 2.9841 -1.04962 2.78903 0
M  V30 29 H 0.5211 -0.507088 1.38083 0
M  V30 30 H 2.4791 -3.48089 2.29978 0
M  V30 31 H 1.1091 -2.96194 1.28331 0
M  V30 32 H 0.1611 -1.74967 3.37773 0
M  V30 33 H 1.4731 -2.48685 4.32386 0
M  V30 34 H 0.6271 -4.77103 3.74777 0
M  V30 35 H -0.6339 -4.06102 2.7006 0
M  V30 36 H -1.6289 -2.88284 4.68159 0
M  V30 37 H -0.4039 -3.62421 5.74307 0
M  V30 38 H -2.4579 -5.13431 4.08319 0
M  V30 39 H -2.5409 -4.85839 5.79221 0
M  V30 40 H -1.2729 -5.85594 5.1449 0
M  V30 41 N 2.9562 -1.48159 -0.537278 0
M  V30 42 C 3.9032 -1.62138 -1.64256 0
M  V30 43 C 4.8732 -0.463668 -1.59497 0
M  V30 44 O 6.0582 -0.686241 -1.78032 0
M  V30 45 C 3.1982 -1.66028 -3.02537 0
M  V30 46 C 2.3112 -2.92855 -3.17585 0
M  V30 47 C 1.4462 -2.87952 -4.46382 0
M  V30 48 C 0.4852 -4.09516 -4.54932 0
M  V30 49 N -0.3778 -4.02733 -5.75109 0
M  V30 50 H 4.4622 -2.56529 -1.51647 0
M  V30 51 H 1.9992 -1.27224 -0.738414 0
M  V30 52 H 3.9572 -1.66265 -3.82638 0
M  V30 53 H 2.5872 -0.751331 -3.13934 0
M  V30 54 H 1.6392 -3.02395 -2.30784 0
M  V30 55 H 2.9512 -3.82822 -3.19764 0
M  V30 56 H 2.1052 -2.8655 -5.34765 0
M  V30 57 H 0.8442 -1.95702 -4.46712 0
M  V30 58 H -0.1508 -4.11201 -3.64957 0
M  V30 59 H 1.0742 -5.02917 -4.56346 0
M  V30 60 H -0.9798 -3.13299 -5.76351 0
M  V30 61 H -1.0628 -4.86397 -5.78752 0
M  V30 62 H 0.2052 -4.05379 -6.65799 0
M  V30 63 N 4.4343 0.785586 -1.36625 0
M  V30 64 C 5.6643 1.5722 -1.34036 0
M  V30 65 C 6.0723 1.89033 0.0795062 0
M  V30 66 O 5.4153 1.50881 1.04789 0
M  V30 67 C 5.4773 2.91759 -2.10041 0
M  V30 68 C 5.1413 2.82654 -3.59104 0
M  V30 69 C 6.1383 2.54634 -4.53274 0
M  V30 70 C 3.8233 3.01111 -4.02042 0
M  V30 71 C 5.8173 2.45177 -5.88359 0
M  V30 72 C 3.5043 2.91276 -5.37216 0
M  V30 73 C 4.5023 2.63348 -6.30188 0
M  V30 74 O 4.1903 2.53514 -7.6288 0
M  V30 75 H 3.9223 0.494177 -0.461265 0
M  V30 76 H 6.4763 0.982632 -1.8037 0
M  V30 77 H 4.7063 3.52781 -1.58375 0
M  V30 78 H 6.3953 3.53059 -2.00261 0
M  V30 79 H 7.1613 2.40073 -4.21414 0
M  V30 80 H 3.0403 3.21854 -3.30047 0
M  V30 81 H 6.5843 2.23299 -6.60896 0
M  V30 82 H 2.4813 3.054 -5.68684 0
M  V30 83 H 3.2493 2.68967 -7.73045 0
M  V30 84 N 5.9124 1.20967 1.01018 0
M  V30 85 C 6.8424 0.988272 2.11555 0
M  V30 86 C 7.8234 -0.0849778 1.69888 0
M  V30 87 O 9.0084 0.0738202 1.9406 0
M  V30 88 C 6.1384 0.546528 3.42973 0
M  V30 89 C 5.0924 1.56375 3.9841 0
M  V30 90 C 4.4184 0.97842 5.25672 0
M  V30 91 C 5.7184 2.94922 4.31066 0
M  V30 92 H 7.4124 1.91276 2.30334 0
M  V30 93 H 4.9584 0.921073 1.1069 0
M  V30 94 H 6.9114 0.378839 4.19694 0
M  V30 95 H 5.6354 -0.413598 3.23971 0
M  V30 96 H 4.2944 1.71891 3.23804 0
M  V30 97 H 3.9424 0.0101688 5.02999 0
M  V30 98 H 3.6424 1.65784 5.63728 0
M  V30 99 H 5.1664 0.821939 6.05043 0
M  V30 100 H 6.5804 2.8288 4.9865 0
M  V30 101 H 4.9774 3.5983 4.80253 0
M  V30 102 H 6.0474 3.4616 3.39561 0
M  V30 103 N 7.3905 -1.2043 1.01659 0
M  V30 104 C 8.3205 -2.25466 0.607226 0
M  V30 105 C 9.3015 -1.65853 -0.377716 0
M  V30 106 O 10.4865 -1.92409 -0.263149 0
M  V30 107 C 7.6165 -3.47256 -0.0552949 0
M  V30 108 C 6.5705 -4.19462 0.850632 0
M  V30 109 C 5.8965 -5.34673 0.0538859 0
M  V30 110 C 7.1965 -4.75603 2.15868 0
M  V30 111 H 8.8905 -2.59962 1.48526 0
M  V30 112 H 6.4365 -1.2496 0.715605 0
M  V30 113 H 8.3895 -4.19917 -0.353233 0
M  V30 114 H 7.1135 -3.11924 -0.968045 0
M  V30 115 H 5.7725 -3.48667 1.13257 0
M  V30 116 H 5.4205 -4.95585 -0.860514 0
M  V30 117 H 5.1205 -5.83913 0.657192 0
M  V30 118 H 6.6445 -6.10138 -0.237598 0
M  V30 119 H 8.0585 -5.40083 1.92311 0
M  V30 120 H 6.4555 -5.3528 2.71284 0
M  V30 121 H 7.5255 -3.94346 2.82169 0
M  V30 122 N 8.8686 -0.792821 -1.36206 0
M  V30 123 C 10.1166 -0.366062 -1.98757 0
M  V30 124 C 10.4376 1.0668 -1.63231 0
M  V30 125 O 9.7076 1.73587 -0.907978 0
M  V30 126 H 8.2876 -0.132364 -0.735179 0
M  V30 127 H 10.9496 -1.01562 -1.66347 0
M  V30 128 H 10.0456 -0.460638 -3.08682 0
M  V30 129 N 10.3467 1.47872 -0.545128 0
M  V30 130 C 11.5957 2.01695 -0.0145033 0
M  V30 131 C 11.9087 1.42609 1.33873 0
M  V30 132 O 13.1147 1.88021 1.95858 0
M  V30 133 C 11.5707 3.59892 0.0245068 0
M  V30 134 C 11.1787 4.27966 -1.32475 0
M  V30 135 C 12.9227 4.21507 0.50316 0
M  V30 136 C 10.8297 5.78136 -1.2455 0
M  V30 137 H 9.7597 0.753998 -0.00165172 0
M  V30 138 H 12.4107 1.69985 -0.691175 0
M  V30 139 H 10.7927 3.88509 0.766575 0
M  V30 140 H 11.9667 4.11003 -2.08357 0
M  V30 141 H 10.2817 3.78286 -1.74036 0
M  V30 142 H 12.8787 5.31538 0.580656 0
M  V30 143 H 13.2217 3.87855 1.51243 0
M  V30 144 H 13.7547 3.97376 -0.183681 0
M  V30 145 H 10.4937 6.16388 -2.23039 0
M  V30 146 H 10.0137 5.97469 -0.528282 0
M  V30 147 H 11.6927 6.40099 -0.942488 0
M  V30 148 N 11.8248 0.280983 1.55075 0
M  V30 149 C 13.0728 -0.333455 1.9933 0
M  V30 150 C 13.3938 -1.55937 1.17085 0
M  V30 151 O 12.6638 -1.94143 0.261805 0
M  V30 152 H 11.2438 -0.126197 0.736263 0
M  V30 153 H 13.9058 0.387678 1.91005 0
M  V30 154 H 13.0018 -0.619292 3.05894 0
M  V30 155 N 13.3029 -1.57598 0.00835791 0
M  V30 156 C 14.2329 -2.1198 -0.979113 0
M  V30 157 C 15.2139 -1.03091 -1.35301 0
M  V30 158 O 16.3989 -1.30818 -1.43528 0
M  V30 159 C 13.5289 -2.62995 -2.26828 0
M  V30 160 C 12.4829 -3.76485 -2.03576 0
M  V30 161 C 11.8089 -4.13846 -3.38579 0
M  V30 162 C 13.1089 -5.0342 -1.39161 0
M  V30 163 H 14.8029 -2.94738 -0.526281 0
M  V30 164 H 12.3489 -1.41783 -0.251704 0
M  V30 165 H 14.3019 -2.99669 -2.96271 0
M  V30 166 H 13.0259 -1.7737 -2.7424 0
M  V30 167 H 11.6849 -3.40217 -1.36557 0
M  V30 168 H 11.3329 -3.25232 -3.83709 0
M  V30 169 H 11.0329 -4.90312 -3.23834 0
M  V30 170 H 12.5569 -4.53086 -4.09323 0
M  V30 171 H 13.9709 -5.37812 -1.98573 0
M  V30 172 H 12.3679 -5.84746 -1.34878 0
M  V30 173 H 13.4379 -4.83548 -0.361868 0
M  V30 174 N 14.781 0.264519 -1.55364 0
M  V30 175 C 16.03 0.992812 -1.75574 0
M  V30 176 C 16.343 1.87142 -0.568979 0
M  V30 177 O 17.549 2.63513 -0.653682 0
M  V30 178 C 16.005 1.81519 -3.10771 0
M  V30 179 C 15.613 0.984839 -4.37041 0
M  V30 180 C 17.357 2.53727 -3.40327 0
M  V30 181 C 15.264 1.80209 -5.63275 0
M  V30 182 H 14.194 0.374412 -0.65447 0
M  V30 183 H 16.845 0.248138 -1.81815 0
M  V30 184 H 15.227 2.60115 -2.98591 0
M  V30 185 H 16.401 0.242455 -4.60162 0
M  V30 186 H 14.716 0.37691 -4.14691 0
M  V30 187 H 17.313 3.15292 -4.3185 0
M  V30 188 H 17.656 3.24447 -2.60845 0
M  V30 189 H 18.189 1.82156 -3.53644 0
M  V30 190 H 14.928 1.13896 -6.45529 0
M  V30 191 H 14.448 2.52022 -5.44284 0
M  V30 192 H 16.127 2.37364 -6.01887 0
M  V30 193 N 16.2591 1.48442 0.529413 0
M  V30 194 C 17.1891 1.65902 1.64313 0
M  V30 195 C 18.1701 0.507897 1.6234 0
M  V30 196 O 19.3551 0.740503 1.79528 0
M  V30 197 C 16.4851 1.69911 3.02898 0
M  V30 198 C 15.4391 2.8453 3.19729 0
M  V30 199 C 14.7651 2.73629 4.59381 0
M  V30 200 C 16.0651 4.25821 3.02447 0
M  V30 201 H 17.7591 2.5914 1.49955 0
M  V30 202 H 15.3051 1.24709 0.719982 0
M  V30 203 H 17.2581 1.80715 3.80684 0
M  V30 204 H 15.9821 0.732524 3.18279 0
M  V30 205 H 14.6411 2.73283 2.44361 0
M  V30 206 H 14.2891 1.74938 4.71599 0
M  V30 207 H 13.9891 3.50541 4.71588 0
M  V30 208 H 15.5131 2.86401 5.39265 0
M  V30 209 H 16.9271 4.37898 3.70024 0
M  V30 210 H 15.3241 5.03735 3.26146 0
M  V30 211 H 16.3941 4.42244 1.98867 0
M  V30 212 N 17.7372 -0.778329 1.37039 0
M  V30 213 C 18.7002 -1.87301 1.32102 0
M  V30 214 C 19.7002 -1.59198 0.226405 0
M  V30 215 O 20.8902 -1.67403 0.481861 0
M  V30 216 C 18.0222 -3.24309 1.05055 0
M  V30 217 H 19.2152 -1.93093 2.29467 0
M  V30 218 H 16.7682 -0.977358 1.21973 0
M  V30 219 H 17.5032 -3.24196 0.0819373 0
M  V30 220 H 17.2882 -3.46098 1.84279 0
M  V30 221 H 18.7782 -4.04382 1.04234 0
M  V30 222 N 19.2153 -1.21501 -1.00376 0
M  V30 223 C 20.1453 -0.999478 -2.11028 0
M  V30 224 C 21.1263 0.0759671 -1.6993 0
M  V30 225 O 22.3113 -0.0841106 -1.94018 0
M  V30 226 C 19.4413 -0.564709 -3.42678 0
M  V30 227 C 18.3953 -1.58486 -3.97576 0
M  V30 228 C 17.7213 -1.00628 -5.25146 0
M  V30 229 C 19.0213 -2.97204 -4.29496 0
M  V30 230 H 20.7153 -1.92495 -2.29317 0
M  V30 231 H 18.2613 -0.92693 -1.102 0
M  V30 232 H 20.2143 -0.401091 -4.19487 0
M  V30 233 H 18.9383 0.396411 -3.24185 0
M  V30 234 H 17.5973 -1.73606 -3.22888 0
M  V30 235 H 17.2453 -0.0368439 -5.02987 0
M  V30 236 H 16.9453 -1.68771 -5.62841 0
M  V30 237 H 18.4693 -0.854015 -6.04598 0
M  V30 238 H 19.8833 -2.8552 -4.97143 0
M  V30 239 H 18.2803 -3.62372 -4.78338 0
M  V30 240 H 19.3503 -3.47956 -3.3772 0
M  V30 241 N 20.6934 1.19889 -1.02296 0
M  V30 242 C 21.9424 1.88743 -0.711257 0
M  V30 243 C 22.2554 1.80112 0.762817 0
M  V30 244 O 23.4614 2.44161 1.18733 0
M  V30 245 C 21.9174 3.38525 -1.22185 0
M  V30 246 C 21.5254 3.55727 -2.72328 0
M  V30 247 C 23.2694 4.12893 -0.985864 0
M  V30 248 C 21.1764 4.99369 -3.16835 0
M  V30 249 H 20.1064 0.706885 -0.262353 0
M  V30 250 H 22.7574 1.35586 -1.23648 0
M  V30 251 H 21.1394 3.91044 -0.624571 0
M  V30 252 H 22.3134 3.13564 -3.3766 0
M  V30 253 H 20.6284 2.94739 -2.9414 0
M  V30 254 H 23.2254 5.18813 -1.29374 0
M  V30 255 H 23.5684 4.16228 0.0775055 0
M  V30 256 H 24.1014 3.66494 -1.54684 0
M  V30 257 H 20.8404 5.01193 -4.22476 0
M  V30 258 H 20.3604 5.42317 -2.56228 0
M  V30 259 H 22.0394 5.67988 -3.09837 0
M  V30 260 N 22.1715 0.800033 1.35784 0
M  V30 261 C 23.1345 0.211565 2.28221 0
M  V30 262 C 24.1345 -0.59728 1.49296 0
M  V30 263 O 25.3245 -0.416721 1.69142 0
M  V30 264 C 22.4565 -0.705846 3.33513 0
M  V30 265 H 23.6495 1.02677 2.81776 0
M  V30 266 H 21.2025 0.570211 1.45528 0
M  V30 267 H 21.9375 -1.54498 2.85133 0
M  V30 268 H 21.7225 -0.127655 3.91892 0
M  V30 269 H 23.2125 -1.11211 4.02519 0
M  V30 270 N 23.6496 -1.47581 0.552962 0
M  V30 271 C 24.8896 -2.04379 0.0296245 0
M  V30 272 C 25.2536 -1.4185 -1.29393 0
M  V30 273 O 26.4546 -1.89669 -1.90471 0
M  V30 274 C 24.7256 -3.57339 -0.0661371 0
M  V30 275 S 26.2846 -4.35511 -0.536213 0
M  V30 276 H 23.1026 -0.710625 0.0230991 0
M  V30 277 H 25.7046 -1.81005 0.738734 0
M  V30 278 H 24.4086 -4.00374 0.901596 0
M  V30 279 H 23.9396 -3.85202 -0.798931 0
M  V30 280 H 25.9546 -4.6253 -1.79668 0
M  V30 281 N 25.1277 -0.289203 -1.54924 0
M  V30 282 C 26.0747 0.592115 -2.23075 0
M  V30 283 C 27.0447 1.13881 -1.20915 0
M  V30 284 O 28.2297 1.18551 -1.495 0
M  V30 285 C 25.3697 1.76376 -2.96623 0
M  V30 286 C 24.4827 1.24959 -4.13533 0
M  V30 287 C 23.6177 2.38416 -4.74691 0
M  V30 288 C 22.6567 1.84072 -5.83767 0
M  V30 289 N 21.7937 2.91057 -6.38929 0
M  V30 290 H 26.6337 0.00432038 -2.98 0
M  V30 291 H 24.1707 -0.00963529 -1.47097 0
M  V30 292 H 26.1287 2.45268 -3.3749 0
M  V30 293 H 24.7587 2.32337 -2.24097 0
M  V30 294 H 23.8107 0.453307 -3.77689 0
M  V30 295 H 25.1227 0.811662 -4.92152 0
M  V30 296 H 24.2767 3.15276 -5.18349 0
M  V30 297 H 23.0157 2.8553 -3.95378 0
M  V30 298 H 22.0207 1.05697 -5.39545 0
M  V30 299 H 23.2457 1.37877 -6.64956 0
M  V30 300 H 21.1917 3.37526 -5.62505 0
M  V30 301 H 21.1087 2.51724 -7.12861 0
M  V30 302 H 22.3767 3.6785 -6.87246 0
M  V30 303 N 26.6058 1.57591 -0.0167156 0
M  V30 304 C 27.5378 2.06343 0.997753 0
M  V30 305 C 28.5508 0.984469 1.29661 0
M  V30 306 O 29.7398 1.26093 1.26344 0
M  V30 307 C 26.8398 2.46255 2.32834 0
M  V30 308 C 26.0128 3.77083 2.21646 0
M  V30 309 C 25.0718 4.0368 3.37534 0
M  V30 310 O 24.0978 4.7411 3.14973 0
M  V30 311 N 25.2998 3.52881 4.60929 0
M  V30 312 H 28.0648 2.93997 0.581875 0
M  V30 313 H 25.6258 1.61002 0.170316 0
M  V30 314 H 27.6178 2.61149 3.09166 0
M  V30 315 H 26.1878 1.64032 2.66106 0
M  V30 316 H 25.4078 3.72106 1.30119 0
M  V30 317 H 26.6958 4.62822 2.11361 0
M  V30 318 H 26.0938 2.95878 4.82154 0
M  V30 319 H 24.6508 3.73076 5.34469 0
M  V30 320 N 28.0839 -0.256276 1.55502 0
M  V30 321 C 29.0319 -1.33694 1.90338 0
M  V30 322 C 30.0259 -1.50299 0.781441 0
M  V30 323 O 31.2319 -1.51885 0.965966 0
M  V30 324 H 27.6069 -0.447483 0.60437 0
M  V30 325 H 29.5779 -1.01574 2.8058 0
M  V30 326 C 28.3269 -2.68724 2.20642 0
M  V30 327 H 27.6499 -2.56743 3.06469 0
M  V30 328 H 29.0899 -3.43237 2.48926 0
M  V30 329 C 27.5489 -3.21101 1.01959 0
M  V30 330 O 28.0789 -4.0084 0.262762 0
M  V30 331 N 26.2849 -2.79003 0.812746 0
M  V30 332 H 25.8319 -2.14271 1.42989 0
M  V30 333 H 25.7899 -3.14393 0.0203076 0
M  V30 334 N 29.562 -1.4872 -0.521534 0
M  V30 335 C 30.808 -1.574 -1.27879 0
M  V30 336 C 31.141 -0.250817 -1.92573 0
M  V30 337 O 30.416 0.743934 -1.79711 0
M  V30 338 C 30.699 -2.71843 -2.36164 0
M  V30 339 C 30.552 -4.13893 -1.76105 0
M  V30 340 C 31.871 -2.82008 -3.37875 0
M  V30 341 H 28.99 -0.572941 -0.463581 0
M  V30 342 H 31.632 -1.80927 -0.580119 0
M  V30 343 H 29.782 -2.51914 -2.95756 0
M  V30 344 H 31.454 -4.45284 -1.20499 0
M  V30 345 H 29.697 -4.20498 -1.06601 0
M  V30 346 H 30.368 -4.89804 -2.5455 0
M  V30 347 H 32.844 -3.00086 -2.88249 0
M  V30 348 H 31.72 -3.63796 -4.11028 0
M  V30 349 H 31.981 -1.90511 -3.98946 0
M  V30 350 N 31.0401 0.771051 -1.3745 0
M  V30 351 C 32.2651 1.56529 -1.36065 0
M  V30 352 C 32.6901 1.88029 0.0515859 0
M  V30 353 O 32.0481 1.49282 1.02882 0
M  V30 354 C 32.0961 2.85187 -2.20683 0
M  V30 355 O 31.2001 3.79593 -1.61193 0
M  V30 356 H 30.5411 0.47411 -0.464883 0
M  V30 357 H 33.0711 0.954269 -1.80983 0
M  V30 358 H 33.0811 3.34283 -2.33921 0
M  V30 359 H 31.7561 2.61588 -3.23334 0
M  V30 360 H 30.3331 3.38239 -1.56999 0
M  V30 361 N 32.5182 1.22032 0.997298 0
M  V30 362 C 33.7432 1.06921 1.77715 0
M  V30 363 C 34.1682 -0.376226 1.84299 0
M  V30 364 O 33.5262 -1.27165 1.29223 0
M  V30 365 C 33.5742 1.67996 3.19076 0
M  V30 366 O 32.6782 0.930653 4.01762 0
M  V30 367 H 32.0192 0.375814 0.547412 0
M  V30 368 H 34.5492 1.61737 1.25309 0
M  V30 369 H 34.5592 1.72538 3.69723 0
M  V30 370 H 33.2342 2.73182 3.13599 0
M  V30 371 H 31.8112 0.960917 3.60307 0
M  V30 372 N 33.9963 -1.19345 1.0293 0
M  V30 373 C 34.9263 -2.2481 0.631105 0
M  V30 374 C 35.9073 -1.66245 -0.360104 0
M  V30 375 O 37.0923 -1.92677 -0.242726 0
M  V30 376 C 34.2223 -3.47295 -0.0184607 0
M  V30 377 C 33.1763 -4.18536 0.895073 0
M  V30 378 C 32.5023 -5.34586 0.110592 0
M  V30 379 C 33.8023 -4.73287 2.209 0
M  V30 380 H 35.4963 -2.58372 1.51275 0
M  V30 381 H 33.0423 -1.24194 0.728818 0
M  V30 382 H 34.9953 -4.20268 -0.308675 0
M  V30 383 H 33.7193 -3.12933 -0.934907 0
M  V30 384 H 32.3783 -3.47446 1.16949 0
M  V30 385 H 32.0263 -4.96469 -0.807902 0
M  V30 386 H 31.7263 -5.83183 0.719087 0
M  V30 387 H 33.2503 -6.10355 -0.172871 0
M  V30 388 H 34.6643 -5.38013 1.98028 0
M  V30 389 H 33.0613 -5.32373 2.76946 0
M  V30 390 H 34.1313 -3.91331 2.86336 0
M  V30 391 N 35.4744 -0.807222 -1.35358 0
M  V30 392 C 36.7514 -0.311126 -1.9311 0
M  V30 393 C 37.1314 1.19937 -1.73719 0
M  V30 394 O 36.4794 1.99918 -1.10657 0
M  V30 395 C 36.6894 -0.723226 -3.41424 0
M  V30 396 C 38.0374 -0.713078 -4.18569 0
M  V30 397 O 39.0614 -0.664811 -3.49941 0
M  V30 398 O 37.9204 -0.772022 -5.41019 0
M  V30 399 H 35.0144 -0.081526 -0.822972 0
M  V30 400 H 37.5604 -0.890962 -1.4443 0
M  V30 401 H 36.3324 -1.76426 -3.4927 0
M  V30 402 H 35.9554 -0.118232 -3.97424 0
M  V30 403 N 36.9525 1.47285 -0.560781 0
M  V30 404 C 37.8625 2.33846 0.187954 0
M  V30 405 C 38.8785 1.48412 0.908293 0
M  V30 406 O 40.0545 1.81332 0.876388 0
M  V30 407 C 37.1195 3.25178 1.2025 0
M  V30 408 C 36.1805 4.26504 0.489208 0
M  V30 409 C 35.4135 5.13472 1.45542 0
M  V30 410 O 35.6365 5.02959 2.6905 0
M  V30 411 O 34.5705 5.93902 0.977963 0
M  V30 412 H 38.3965 2.99177 -0.522177 0
M  V30 413 H 35.9815 1.45903 -0.321364 0
M  V30 414 H 37.8635 3.81584 1.78805 0
M  V30 415 H 36.5385 2.6247 1.89449 0
M  V30 416 H 35.4455 3.73847 -0.137627 0
M  V30 417 H 36.7785 4.91935 -0.161399 0
M  V30 418 N 38.4306 0.297415 1.54768 0
M  V30 419 C 39.3776 -0.580276 2.23386 0
M  V30 420 C 40.3476 -1.13238 1.21517 0
M  V30 421 O 41.5326 -1.17757 1.50126 0
M  V30 422 C 38.6726 -1.74801 2.97555 0
M  V30 423 C 37.7856 -1.22764 4.1419 0
M  V30 424 C 36.9206 -2.35895 4.75949 0
M  V30 425 C 35.9596 -1.80974 5.84735 0
M  V30 426 N 35.0966 -2.87664 6.40464 0
M  V30 427 H 39.9366 0.0114833 2.97998 0
M  V30 428 H 37.4736 0.0174361 1.4709 0
M  V30 429 H 39.4316 -2.43475 3.38786 0
M  V30 430 H 38.0616 -2.31145 2.25326 0
M  V30 431 H 37.1136 -0.433271 3.77924 0
M  V30 432 H 38.4256 -0.785551 4.92575 0
M  V30 433 H 37.5796 -3.12523 5.20014 0
M  V30 434 H 36.3186 -2.83429 3.96887 0
M  V30 435 H 35.3236 -1.02834 5.40097 0
M  V30 436 H 36.5486 -1.34348 6.65678 0
M  V30 437 H 34.4946 -3.34538 5.64287 0
M  V30 438 H 34.4116 -2.4794 7.14186 0
M  V30 439 H 35.6796 -3.642 6.89187 0
M  V30 440 N 39.9087 -1.5758 0.0250728 0
M  V30 441 C 40.8567 -2.11125 -0.97617 0
M  V30 442 C 41.8507 -1.03689 -1.33959 0
M  V30 443 O 43.0567 -1.22128 -1.3223 0
M  V30 444 H 39.4317 -0.674468 -0.332561 0
M  V30 445 H 41.4027 -2.94194 -0.499223 0
M  V30 446 C 40.1517 -2.65017 -2.2508 0
M  V30 447 H 39.4747 -3.47333 -1.9799 0
M  V30 448 H 40.9147 -3.06133 -2.93357 0
M  V30 449 C 39.3737 -1.57574 -2.97779 0
M  V30 450 O 39.9037 -0.973203 -3.89733 0
M  V30 451 N 38.1097 -1.29716 -2.60043 0
M  V30 452 H 37.6567 -1.789 -1.85345 0
M  V30 453 H 37.6147 -0.58051 -3.08994 0
M  V30 454 N 41.3868 0.248026 -1.55636 0
M  V30 455 C 42.6118 0.998028 -1.81808 0
M  V30 456 C 43.0368 1.78207 -0.601979 0
M  V30 457 O 42.3948 1.75653 0.448961 0
M  V30 458 C 42.4428 1.9125 -3.05705 0
M  V30 459 O 41.5468 3.00406 -2.82542 0
M  V30 460 H 40.8878 0.284045 -0.600179 0
M  V30 461 H 43.4178 0.269357 -2.02819 0
M  V30 462 H 43.4278 2.32737 -3.35108 0
M  V30 463 H 42.1028 1.33602 -3.93857 0
M  V30 464 H 40.6798 2.63056 -2.64303 0
M  V30 465 N 42.8649 1.48995 0.513639 0
M  V30 466 C 44.1109 1.58076 1.27042 0
M  V30 467 C 44.4439 0.261026 1.92438 0
M  V30 468 O 43.7189 -0.734393 1.80103 0
M  V30 469 C 44.0019 2.73091 2.34719 0
M  V30 470 C 43.8549 4.14821 1.73907 0
M  V30 471 C 45.1739 2.83796 3.36375 0
M  V30 472 H 42.2929 0.575391 0.460536 0
M  V30 473 H 44.9349 1.81232 0.570516 0
M  V30 474 H 43.0849 2.53479 2.94416 0
M  V30 475 H 44.7569 4.45917 1.18135 0
M  V30 476 H 42.9999 4.21058 1.0437 0
M  V30 477 H 43.6709 4.91147 2.51949 0
M  V30 478 H 46.1469 3.01611 2.86653 0
M  V30 479 H 45.0229 3.65971 4.09093 0
M  V30 480 H 45.2839 1.92624 3.9793 0
M  V30 481 N 44.343 -0.763751 1.37857 0
M  V30 482 C 45.568 -1.55805 1.36893 0
M  V30 483 C 45.993 -1.88054 -0.0416135 0
M  V30 484 O 45.351 -1.49825 -1.02089 0
M  V30 485 C 45.399 -2.84012 2.22192 0
M  V30 486 O 44.503 -3.78732 1.63204 0
M  V30 487 H 43.844 -0.471638 0.46739 0
M  V30 488 H 46.374 -0.944657 1.81487 0
M  V30 489 H 46.384 -3.33037 2.35691 0
M  V30 490 H 45.059 -2.59869 3.24716 0
M  V30 491 H 43.636 -3.37402 1.58791 0
M  V30 492 N 45.8211 -1.22559 -0.990812 0
M  V30 493 C 47.0671 -1.05297 -1.73322 0
M  V30 494 C 47.4001 0.410655 -1.89808 0
M  V30 495 O 46.6751 1.30439 -1.44277 0
M  V30 496 C 46.9581 -1.76713 -3.13759 0
M  V30 497 C 46.8111 -3.30684 -3.04907 0
M  V30 498 C 48.1301 -1.52121 -4.12974 0
M  V30 499 H 45.2491 -0.38392 -0.629106 0
M  V30 500 H 47.8911 -1.50926 -1.15418 0
M  V30 501 H 46.0411 -1.37924 -3.63193 0
M  V30 502 H 47.7131 -3.7893 -2.63077 0
M  V30 503 H 45.9561 -3.60253 -2.41661 0
M  V30 504 H 46.6271 -3.75833 -4.04294 0
M  V30 505 H 49.1031 -1.85819 -3.72304 0
M  V30 506 H 47.9791 -2.04582 -5.0935 0
M  V30 507 H 48.2401 -0.454257 -4.3976 0
M  V30 508 N 47.2992 1.18797 -1.03562 0
M  V30 509 C 48.5762 1.84469 -0.650434 0
M  V30 510 C 48.9562 1.92319 0.870433 0
M  V30 511 O 48.3042 1.44528 1.76986 0
M  V30 512 C 48.5142 3.2306 -1.32036 0
M  V30 513 C 49.8622 3.9915 -1.44792 0
M  V30 514 O 50.8862 3.32481 -1.27806 0
M  V30 515 O 49.7452 5.18587 -1.72423 0
M  V30 516 H 46.8392 0.795251 -0.226946 0
M  V30 517 H 49.3852 1.26231 -1.13419 0
M  V30 518 H 48.1572 3.1222 -2.3587 0
M  V30 519 H 47.7802 3.88949 -0.8249 0
M  V30 520 N 48.7773 0.814389 1.34928 0
M  V30 521 C 50.0233 0.399013 1.98836 0
M  V30 522 C 50.3563 -1.03314 1.64438 0
M  V30 523 O 49.6313 -1.71811 0.911659 0
M  V30 524 C 49.9143 0.591629 3.55207 0
M  V30 525 C 49.7673 2.06928 3.99376 0
M  V30 526 C 51.0863 0.022199 4.40094 0
M  V30 527 H 48.2053 0.146451 0.722303 0
M  V30 528 H 50.8473 1.02537 1.59957 0
M  V30 529 H 48.9973 0.0584441 3.88456 0
M  V30 530 H 50.6693 2.66544 3.76499 0
M  V30 531 H 48.9123 2.56287 3.49999 0
M  V30 532 H 49.5833 2.1549 5.08201 0
M  V30 533 H 52.0593 0.477643 4.13349 0
M  V30 534 H 50.9353 0.186832 5.48582 0
M  V30 535 H 51.1963 -1.07215 4.28902 0
M  V30 536 N 50.2554 -1.46986 0.568584 0
M  V30 537 C 51.6664 -1.86188 0.138219 0
M  V30 538 C 52.0174 -1.47388 -1.29504 0
M  V30 539 O 51.1424 -0.88219 -1.97602 0
M  V30 540 C 51.7374 -3.3792 0.244065 0
M  V30 541 C 50.2964 -3.76171 -0.131335 0
M  V30 542 C 49.4434 -2.71027 0.586465 0
M  V30 543 H 52.3944 -1.38342 0.777645 0
M  V30 544 H 52.4154 -3.76729 -0.534351 0
M  V30 545 H 51.9274 -3.66128 1.28731 0
M  V30 546 H 50.0284 -3.5358 -1.17526 0
M  V30 547 H 50.1414 -4.78523 0.235146 0
M  V30 548 H 48.5054 -2.54684 0.0282722 0
M  V30 549 H 49.2884 -3.02077 1.63109 0
M  V30 550 N 51.7335 -0.305618 -1.54608 0
M  V30 551 C 52.9815 0.301701 -1.99835 0
M  V30 552 C 53.3025 1.54054 -1.19551 0
M  V30 553 O 52.5725 1.93702 -0.292658 0
M  V30 554 H 51.1525 0.114468 -0.738178 0
M  V30 555 H 53.8145 -0.418016 -1.90364 0
M  V30 556 H 52.9105 0.570548 -3.06841 0
M  V30 557 N 53.2116 1.57565 -0.0334293 0
M  V30 558 C 54.4596 1.91598 0.642999 0
M  V30 559 C 54.7806 0.910847 1.7242 0
M  V30 560 O 54.0506 -0.0469931 1.95844 0
M  V30 561 H 52.6306 0.707228 0.240496 0
M  V30 562 H 55.2926 1.94726 -0.0822488 0
M  V30 563 H 54.3886 2.92336 1.09298 0
M  V30 564 N 54.6897 -0.239769 1.55765 0
M  V30 565 C 55.6227 -1.32356 1.85895 0
M  V30 566 C 56.6007 -1.46053 0.714662 0
M  V30 567 O 57.7847 -1.62154 0.961157 0
M  V30 568 C 54.9117 -2.6962 2.04994 0
M  V30 569 C 53.9577 -2.73036 3.27648 0
M  V30 570 S 54.7907 -2.28929 4.84099 0
M  V30 571 C 55.9467 -3.68103 5.06212 0
M  V30 572 H 56.1797 -1.06601 2.77531 0
M  V30 573 H 53.7127 -0.441112 1.47965 0
M  V30 574 H 55.6707 -3.48653 2.16682 0
M  V30 575 H 54.3317 -2.92609 1.14188 0
M  V30 576 H 53.5247 -3.7386 3.38 0
M  V30 577 H 53.1267 -2.02052 3.14723 0
M  V30 578 H 55.4187 -4.63656 4.93993 0
M  V30 579 H 56.3617 -3.6268 6.08168 0
M  V30 580 H 56.7697 -3.60947 4.34025 0
M  V30 581 N 56.1678 -1.49265 -0.50573 0
M  V30 582 C 57.1148 -1.65585 -1.6078 0
M  V30 583 C 58.0848 -0.497396 -1.58478 0
M  V30 584 O 59.2698 -0.72385 -1.76536 0
M  V30 585 C 56.4098 -1.72408 -2.98948 0
M  V30 586 C 55.5228 -2.99525 -3.11301 0
M  V30 587 C 54.6578 -2.97356 -4.40174 0
M  V30 588 C 53.6968 -4.19074 -4.46143 0
M  V30 589 N 52.8338 -4.14841 -5.66437 0
M  V30 590 H 57.6738 -2.59688 -1.46172 0
M  V30 591 H 55.2108 -1.28761 -0.711261 0
M  V30 592 H 57.1688 -1.74344 -3.79025 0
M  V30 593 H 55.7988 -0.817753 -3.1227 0
M  V30 594 H 54.8508 -3.07222 -2.24318 0
M  V30 595 H 56.1628 -3.89518 -3.11572 0
M  V30 596 H 55.3168 -2.97829 -5.28567 0
M  V30 597 H 54.0558 -2.05133 -4.42461 0
M  V30 598 H 53.0608 -4.1885 -3.56153 0
M  V30 599 H 54.2858 -5.12483 -4.45575 0
M  V30 600 H 52.2318 -3.25453 -5.69575 0
M  V30 601 H 52.1488 -4.98564 -5.68304 0
M  V30 602 H 53.4168 -4.1941 -6.57051 0
M  V30 603 N 57.6459 0.756429 -1.3826 0
M  V30 604 C 58.8919 1.51772 -1.34511 0
M  V30 605 C 59.2249 1.94089 0.0656691 0
M  V30 606 O 58.4999 1.65221 1.02626 0
M  V30 607 C 58.7829 2.77226 -2.29821 0
M  V30 608 C 58.6359 2.41065 -3.79747 0
M  V30 609 C 59.9549 3.79236 -2.23312 0
M  V30 610 H 57.0739 0.550578 -0.489931 0
M  V30 611 H 59.7159 0.866607 -1.69086 0
M  V30 612 H 57.8659 3.32784 -2.00467 0
M  V30 613 H 59.5379 1.91303 -4.19763 0
M  V30 614 H 57.7809 1.7356 -3.97567 0
M  V30 615 H 58.4519 3.3081 -4.41892 0
M  V30 616 H 60.9279 3.3321 -2.49219 0
M  V30 617 H 59.8039 4.64714 -2.92116 0
M  V30 618 H 60.0649 4.24615 -1.23102 0
M  V30 619 N 59.124 1.23083 0.984299 0
M  V30 620 C 60.054 1.03292 2.09411 0
M  V30 621 C 61.035 -0.048923 1.7003 0
M  V30 622 O 62.22 0.114967 1.93859 0
M  V30 623 C 59.35 0.619155 3.41736 0
M  V30 624 C 58.304 1.64791 3.95004 0
M  V30 625 C 57.63 1.0897 5.23478 0
M  V30 626 C 58.93 3.03999 4.24714 0
M  V30 627 H 60.624 1.96119 2.26225 0
M  V30 628 H 58.17 0.944344 1.08711 0
M  V30 629 H 60.123 0.467777 4.18796 0
M  V30 630 H 58.847 -0.344786 3.24775 0
M  V30 631 H 57.506 1.78721 3.20085 0
M  V30 632 H 57.154 0.11686 5.02864 0
M  V30 633 H 56.854 1.77704 5.60085 0
M  V30 634 H 58.378 0.950093 6.03163 0
M  V30 635 H 59.792 2.93393 4.92538 0
M  V30 636 H 58.189 3.69936 4.72512 0
M  V30 637 H 59.259 3.53285 3.32142 0
M  V30 638 N 60.6021 -1.18246 1.0419 0
M  V30 639 C 61.8481 -1.88536 0.747122 0
M  V30 640 C 62.1811 -1.80223 -0.723409 0
M  V30 641 O 61.4561 -1.20337 -1.52804 0
M  V30 642 C 61.7391 -3.38968 1.21544 0
M  V30 643 C 61.5921 -3.56084 2.74816 0
M  V30 644 C 62.9111 -4.32648 0.806482 0
M  V30 645 H 60.0301 -0.684619 0.272883 0
M  V30 646 H 62.6721 -1.39113 1.29413 0
M  V30 647 H 60.8221 -3.8119 0.750081 0
M  V30 648 H 62.4941 -3.22946 3.29399 0
M  V30 649 H 60.7371 -2.98699 3.14582 0
M  V30 650 H 61.4081 -4.61639 3.02644 0
M  V30 651 H 63.8841 -3.98211 1.20695 0
M  V30 652 H 62.7601 -5.36462 1.1619 0
M  V30 653 H 63.0211 -4.41146 -0.29029 0
M  V30 654 N 62.0802 -0.821533 -1.34494 0
M  V30 655 C 63.3052 -0.420873 -2.03085 0
M  V30 656 C 63.7302 0.964915 -1.61465 0
M  V30 657 O 63.0882 1.62763 -0.798607 0
M  V30 658 C 63.1362 -0.529414 -3.56693 0
M  V30 659 O 62.2402 0.451302 -4.09923 0
M  V30 660 H 61.5812 -0.173489 -0.640935 0
M  V30 661 H 64.1112 -1.11157 -1.71771 0
M  V30 662 H 64.1212 -0.404671 -4.05988 0
M  V30 663 H 62.7962 -1.54014 -3.86332 0
M  V30 664 H 61.3732 0.285558 -3.71805 0
M  V30 665 N 63.5583 1.46682 -0.576371 0
M  V30 666 C 64.5053 2.30241 0.160499 0
M  V30 667 C 65.4753 1.40233 0.890162 0
M  V30 668 O 66.6603 1.69186 0.882084 0
M  V30 669 C 63.8003 3.24578 1.1723 0
M  V30 670 C 62.9133 4.29684 0.446736 0
M  V30 671 C 62.0483 5.11154 1.44551 0
M  V30 672 C 61.0873 6.08015 0.70599 0
M  V30 673 N 60.2243 6.82376 1.65251 0
M  V30 674 H 65.0643 2.92727 -0.558127 0
M  V30 675 H 62.6013 1.44272 -0.287056 0
M  V30 676 H 64.5593 3.77711 1.77172 0
M  V30 677 H 63.1893 2.63916 1.85872 0
M  V30 678 H 62.2413 3.79458 -0.267594 0
M  V30 679 H 63.5533 4.98626 -0.131686 0
M  V30 680 H 62.7073 5.68533 2.11791 0
M  V30 681 H 61.4463 4.42158 2.05786 0
M  V30 682 H 60.4513 5.49796 0.0197725 0
M  V30 683 H 61.6763 6.79028 0.09912 0
M  V30 684 H 59.6223 6.16094 2.25308 0
M  V30 685 H 59.5393 7.47556 1.12673 0
M  V30 686 H 60.8073 7.44316 2.31546 0
M  V30 687 N 65.0364 0.313813 1.54444 0
M  V30 688 C 65.9464 -0.565714 2.27677 0
M  V30 689 C 66.9624 -1.13754 1.31666 0
M  V30 690 O 68.1384 -1.15959 1.64668 0
M  V30 691 C 65.2034 -1.71528 3.01296 0
M  V30 692 C 64.2644 -1.17624 4.12872 0
M  V30 693 C 63.4974 -2.27102 4.8297 0
M  V30 694 O 63.7204 -3.47256 4.52514 0
M  V30 695 O 62.6544 -1.9307 5.70094 0
M  V30 696 H 66.4804 0.0287296 3.03686 0
M  V30 697 H 64.0654 0.0798312 1.49187 0
M  V30 698 H 65.9474 -2.38476 3.4743 0
M  V30 699 H 64.6224 -2.29608 2.2817 0
M  V30 700 H 63.5294 -0.472124 3.71109 0
M  V30 701 H 64.8624 -0.640695 4.88012 0
M  V30 702 N 66.5145 -1.57545 0.0417849 0
M  V30 703 C 67.4615 -2.10977 -0.935805 0
M  V30 704 C 68.4315 -1.01486 -1.31491 0
M  V30 705 O 69.6165 -1.2898 -1.40602 0
M  V30 706 C 66.7565 -2.65169 -2.2086 0
M  V30 707 C 65.8695 -3.88714 -1.88482 0
M  V30 708 C 65.0045 -4.31254 -3.1015 0
M  V30 709 C 64.0435 -5.47524 -2.7365 0
M  V30 710 N 63.1805 -5.85162 -3.87982 0
M  V30 711 H 68.0205 -2.94218 -0.473249 0
M  V30 712 H 65.5575 -1.45415 -0.221981 0
M  V30 713 H 67.5155 -2.94685 -2.95325 0
M  V30 714 H 66.1455 -1.8474 -2.64709 0
M  V30 715 H 65.1975 -3.65849 -1.04205 0
M  V30 716 H 66.5095 -4.73245 -1.57608 0
M  V30 717 H 65.6635 -4.62273 -3.92923 0
M  V30 718 H 64.4025 -3.45516 -3.44195 0
M  V30 719 H 63.4075 -5.16187 -1.89291 0
M  V30 720 H 64.6325 -6.34971 -2.40807 0
M  V30 721 H 62.5785 -5.02377 -4.21846 0
M  V30 722 H 62.4955 -6.64362 -3.60775 0
M  V30 723 H 63.7635 -6.20791 -4.71422 0
M  V30 724 N 67.9926 0.231505 -1.5589 0
M  V30 725 C 68.9406 1.30649 -1.92441 0
M  V30 726 C 69.9346 1.49037 -0.805254 0
M  V30 727 O 71.1406 1.50329 -0.990007 0
M  V30 728 H 67.5156 0.437812 -0.611412 0
M  V30 729 H 69.4866 0.970973 -2.82161 0
M  V30 730 C 68.2356 2.65179 -2.24889 0
M  V30 731 H 67.5586 2.51835 -3.10514 0
M  V30 732 H 68.9986 3.39234 -2.54355 0
M  V30 733 C 67.4576 3.19439 -1.07054 0
M  V30 734 O 67.9876 4.00371 -0.326499 0
M  V30 735 N 66.1936 2.77675 -0.85703 0
M  V30 736 H 65.7406 2.11969 -1.46379 0
M  V30 737 H 65.6986 3.14321 -0.0703223 0
M  V30 738 N 69.4707 1.49531 0.497807 0
M  V30 739 C 70.4177 1.66436 1.59899 0
M  V30 740 C 71.3877 0.505793 1.58212 0
M  V30 741 O 72.5727 0.733202 1.7615 0
M  V30 742 C 69.7127 1.7399 2.98029 0
M  V30 743 C 68.8257 3.01172 3.09708 0
M  V30 744 C 67.9607 2.99686 4.38591 0
M  V30 745 C 66.9997 4.21434 4.43914 0
M  V30 746 N 66.1367 4.1784 5.64229 0
M  V30 747 H 70.9767 2.60459 1.44793 0
M  V30 748 H 68.5137 1.29137 0.704423 0
M  V30 749 H 70.4717 1.76352 3.78095 0
M  V30 750 H 69.1017 0.834301 3.11832 0
M  V30 751 H 68.1537 3.08408 2.22685 0
M  V30 752 H 69.4657 3.91165 3.09502 0
M  V30 753 H 68.6197 3.00628 5.2698 0
M  V30 754 H 67.3587 2.07477 4.41367 0
M  V30 755 H 66.3637 4.20733 3.53926 0
M  V30 756 H 67.5887 5.14839 4.42851 0
M  V30 757 H 65.5347 3.28469 5.67841 0
M  V30 758 H 65.4517 5.01571 5.65652 0
M  V30 759 H 66.7197 4.22889 6.54817 0
M  V30 760 N 70.9488 -0.749086 1.3866 0
M  V30 761 C 72.2258 -1.4992 1.25632 0
M  V30 762 C 72.6058 -2.10633 -0.140317 0
M  V30 763 O 71.9538 -1.97437 -1.15025 0
M  V30 764 C 72.1638 -2.56195 2.36992 0
M  V30 765 C 73.5118 -3.22972 2.75634 0
M  V30 766 O 74.5358 -2.66502 2.36337 0
M  V30 767 O 73.3948 -4.25122 3.43415 0
M  V30 768 H 70.4888 -0.665067 0.491544 0
M  V30 769 H 73.0348 -0.784113 1.50498 0
M  V30 770 H 71.8068 -2.09612 3.30422 0
M  V30 771 H 71.4298 -3.35279 2.13714 0
M  V30 772 N 72.4269 -1.23603 -0.977757 0
M  V30 773 C 73.6749 -1.06759 -1.71601 0
M  V30 774 C 73.9959 0.395929 -1.90938 0
M  V30 775 O 73.2659 1.28356 -1.47992 0
M  V30 776 H 71.8459 -0.392062 -0.635843 0
M  V30 777 H 74.5079 -1.55362 -1.1768 0
M  V30 778 H 73.6039 -1.55763 -2.70452 0
M  V30 779 N 73.905 1.17692 -1.04816 0
M  V30 780 C 74.852 2.21581 -0.645797 0
M  V30 781 C 75.822 1.62367 0.350159 0
M  V30 782 O 77.007 1.89254 0.242433 0
M  V30 783 C 74.147 3.45092 -0.0227568 0
M  V30 784 C 73.26 4.18613 -1.06709 0
M  V30 785 C 72.395 5.29602 -0.411767 0
M  V30 786 C 71.434 5.94904 -1.44067 0
M  V30 787 N 70.571 6.97414 -0.809781 0
M  V30 788 H 75.411 2.55353 -1.5362 0
M  V30 789 H 72.948 1.25438 -0.768364 0
M  V30 790 H 74.906 4.15679 0.35588 0
M  V30 791 H 73.536 3.11917 0.831122 0
M  V30 792 H 72.588 3.46779 -1.5636 0
M  V30 793 H 73.9 4.63293 -1.84827 0
M  V30 794 H 73.054 6.06696 0.0206623 0
M  V30 795 H 71.793 4.86045 0.401438 0
M  V30 796 H 70.798 5.16544 -1.88316 0
M  V30 797 H 72.023 6.40542 -2.25571 0
M  V30 798 H 69.969 6.55998 -0.0170186 0
M  V30 799 H 69.886 7.40386 -1.52856 0
M  V30 800 H 71.154 7.78463 -0.401999 0
M  V30 801 N 75.3831 0.828654 1.34056 0
M  V30 802 C 76.6131 0.431993 2.02033 0
M  V30 803 C 77.0211 -0.96844 1.62536 0
M  V30 804 O 76.3641 -1.6391 0.829408 0
M  V30 805 C 76.4261 0.461224 3.56529 0
M  V30 806 C 76.0901 1.81599 4.1937 0
M  V30 807 C 77.0871 2.7777 4.39477 0
M  V30 808 C 74.7721 2.10604 4.56017 0
M  V30 809 C 76.7661 4.01115 4.95364 0
M  V30 810 C 74.4531 3.34207 5.11614 0
M  V30 811 C 75.4511 4.2928 5.31232 0
M  V30 812 O 75.1391 5.50699 5.8565 0
M  V30 813 H 74.8711 0.170943 0.654029 0
M  V30 814 H 77.4251 1.11988 1.72185 0
M  V30 815 H 75.6551 -0.283388 3.8566 0
M  V30 816 H 77.3441 0.0838149 4.05813 0
M  V30 817 H 78.1101 2.56659 4.11523 0
M  V30 818 H 73.9891 1.37402 4.40047 0
M  V30 819 H 77.5331 4.75333 5.10592 0
M  V30 820 H 73.4301 3.55179 5.38997 0
M  V30 821 H 74.1981 5.52298 6.04077 0
M  V30 822 N 76.8612 -1.46375 0.584142 0
M  V30 823 C 78.1382 -1.956 0.0033388 0
M  V30 824 C 78.5182 -1.52679 -1.45782 0
M  V30 825 O 77.8662 -0.77816 -2.14842 0
M  V30 826 C 78.0762 -3.48551 0.176891 0
M  V30 827 C 79.4242 -4.24576 0.0454609 0
M  V30 828 O 80.4482 -3.56043 0.105801 0
M  V30 829 O 79.3072 -5.46427 -0.0890376 0
M  V30 830 H 76.4012 -0.825547 -0.0490066 0
M  V30 831 H 78.9472 -1.56652 0.65256 0
M  V30 832 H 77.7192 -3.72683 1.1926 0
M  V30 833 H 77.3422 -3.94332 -0.508695 0
M  V30 834 N 78.3393 -0.321999 -1.54275 0
M  V30 835 C 79.2693 0.537411 -2.27231 0
M  V30 836 C 80.2503 1.12064 -1.27968 0
M  V30 837 O 81.4353 1.14606 -1.56777 0
M  V30 838 C 78.5653 1.69919 -3.02894 0
M  V30 839 C 77.5193 1.24534 -4.09482 0
M  V30 840 C 76.8453 2.49394 -4.72977 0
M  V30 841 C 78.1453 0.361335 -5.21049 0
M  V30 842 H 79.8393 -0.0711406 -2.99315 0
M  V30 843 H 77.3853 -0.0356555 -1.43956 0
M  V30 844 H 79.3383 2.30668 -3.52662 0
M  V30 845 H 78.0623 2.33431 -2.28424 0
M  V30 846 H 76.7213 0.660782 -3.60596 0
M  V30 847 H 76.3693 3.11265 -3.95124 0
M  V30 848 H 76.0693 2.19718 -5.44975 0
M  V30 849 H 77.5933 3.10908 -5.25517 0
M  V30 850 H 79.0073 0.875072 -5.66582 0
M  V30 851 H 77.4043 0.157428 -5.99893 0
M  V30 852 H 78.4743 -0.60822 -4.8107 0
M  V30 853 N 79.8174 1.5752 -0.0501392 0
M  V30 854 C 80.7504 2.07026 0.959962 0
M  V30 855 C 81.7284 0.970539 1.30458 0
M  V30 856 O 82.9124 1.2424 1.41763 0
M  V30 857 C 80.0394 2.5099 2.27424 0
M  V30 858 C 79.0854 3.72188 2.08275 0
M  V30 859 S 79.9184 5.17888 1.36207 0
M  V30 860 C 81.0744 5.65165 2.6896 0
M  V30 861 H 81.3074 2.9238 0.538631 0
M  V30 862 H 78.8404 1.53547 0.162099 0
M  V30 863 H 80.7984 2.76982 3.02971 0
M  V30 864 H 79.4594 1.65944 2.66686 0
M  V30 865 H 78.6524 4.00866 3.05487 0
M  V30 866 H 78.2544 3.46457 1.40868 0
M  V30 867 H 80.5464 5.70687 3.65133 0
M  V30 868 H 81.4894 6.64394 2.4492 0
M  V30 869 H 81.8974 4.9289 2.75172 0
M  V30 870 N 81.2955 -0.223234 1.56011 0
M  V30 871 C 82.2585 -1.26014 1.9145 0
M  V30 872 C 83.2585 -1.3989 0.792937 0
M  V30 873 O 84.4485 -1.38184 1.0607 0
M  V30 874 C 81.5805 -2.63422 2.16383 0
M  V30 875 H 82.7735 -0.95796 2.84189 0
M  V30 876 H 80.3265 -0.463576 1.49267 0
M  V30 877 H 81.0615 -2.98741 1.2619 0
M  V30 878 H 80.8465 -2.54728 2.98088 0
M  V30 879 H 82.3365 -3.38249 2.44903 0
M  V30 880 N 82.7736 -1.49793 -0.48987 0
M  V30 881 C 84.0016 -1.63568 -1.26701 0
M  V30 882 C 84.4166 -0.311465 -1.86213 0
M  V30 883 O 83.7736 0.704416 -1.68357 0
M  V30 884 C 83.8246 -2.71284 -2.38929 0
M  V30 885 O 83.5456 -3.9857 -1.81861 0
M  V30 886 C 85.0466 -2.95864 -3.3012 0
M  V30 887 H 82.2666 -0.550342 -0.383881 0
M  V30 888 H 84.8106 -1.95898 -0.586864 0
M  V30 889 H 82.9656 -2.417 -3.02753 0
M  V30 890 H 83.3796 -4.57993 -2.55622 0
M  V30 891 H 84.8536 -3.74941 -4.05121 0
M  V30 892 H 85.3306 -2.06206 -3.87783 0
M  V30 893 H 85.9366 -3.26907 -2.72051 0
M  V30 894 N 84.2517 0.741722 -1.39055 0
M  V30 895 C 85.4977 1.50336 -1.36113 0
M  V30 896 C 85.8307 1.94148 0.0450796 0
M  V30 897 O 85.1057 1.66301 1.00868 0
M  V30 898 C 85.3887 2.74773 -2.32749 0
M  V30 899 C 85.2417 2.37023 -3.82283 0
M  V30 900 C 86.5607 3.76846 -2.27322 0
M  V30 901 H 83.6797 0.545351 -0.495743 0
M  V30 902 H 86.3217 0.848624 -1.69995 0
M  V30 903 H 84.4717 3.30639 -2.03986 0
M  V30 904 H 86.1437 1.8684 -4.21768 0
M  V30 905 H 84.3867 1.69334 -3.99385 0
M  V30 906 H 85.0577 3.26104 -4.45376 0
M  V30 907 H 87.5337 3.30548 -2.5274 0
M  V30 908 H 86.4097 4.6159 -2.97028 0
M  V30 909 H 86.6707 4.23286 -1.27599 0
M  V30 910 N 85.7298 1.2412 0.971189 0
M  V30 911 C 87.0068 0.986867 1.6888 0
M  V30 912 C 87.3868 -0.491857 2.0529 0
M  V30 913 O 86.7348 -1.46531 1.75331 0
M  V30 914 C 86.9448 1.9063 2.92338 0
M  V30 915 C 88.2928 2.17515 3.64654 0
M  V30 916 O 89.3168 1.88254 3.02388 0
M  V30 917 O 88.1758 2.6719 4.7673 0
M  V30 918 H 85.2698 0.372944 0.738134 0
M  V30 919 H 87.8158 1.35203 1.02559 0
M  V30 920 H 86.5878 2.90552 2.62097 0
M  V30 921 H 86.2108 1.54408 3.66393 0
M  V30 922 N 87.2079 -1.17134 1.05439 0
M  V30 923 C 88.1559 -2.23289 0.651511 0
M  V30 924 C 89.1499 -1.66186 -0.328411 0
M  V30 925 O 90.3559 -1.78949 -0.194206 0
M  V30 926 H 86.7309 -0.726938 0.192523 0
M  V30 927 H 88.7019 -2.54565 1.55689 0
M  V30 928 C 87.4509 -3.47671 0.0448436 0
M  V30 929 H 86.7739 -3.91918 0.78996 0
M  V30 930 H 88.2139 -4.2353 -0.19964 0
M  V30 931 C 86.6729 -3.14453 -1.20918 0
M  V30 932 O 87.2029 -3.29459 -2.29825 0
M  V30 933 N 85.4089 -2.68657 -1.10779 0
M  V30 934 H 84.9559 -2.56646 -0.221526 0
M  V30 935 H 84.9139 -2.46804 -1.9477 0
M  V30 936 N 88.686 -0.835752 -1.33615 0
M  V30 937 C 89.932 -0.430596 -1.98176 0
M  V30 938 C 90.265 1.00684 -1.66061 0
M  V30 939 O 89.54 1.70339 -0.938877 0
M  V30 940 C 89.823 -0.648065 -3.5422 0
M  V30 941 C 89.676 -2.13255 -3.96033 0
M  V30 942 C 90.995 -0.0922113 -4.40003 0
M  V30 943 H 88.114 -0.157924 -0.719881 0
M  V30 944 H 90.756 -1.05069 -1.58305 0
M  V30 945 H 88.906 -0.120237 -3.88314 0
M  V30 946 H 90.578 -2.725 -3.72211 0
M  V30 947 H 88.821 -2.61823 -3.45878 0
M  V30 948 H 89.492 -2.23547 -5.04708 0
M  V30 949 H 91.968 -0.543343 -4.12537 0
M  V30 950 H 90.844 -0.274083 -5.48215 0
M  V30 951 H 91.105 1.00378 -4.30554 0
M  V30 952 N 90.1641 1.46063 -0.591896 0
M  V30 953 C 91.4411 1.95595 -0.0137119 0
M  V30 954 C 91.8211 1.5345 1.4497 0
M  V30 955 O 91.1691 0.789543 2.14426 0
M  V30 956 C 91.3791 3.48453 -0.195373 0
M  V30 957 C 92.7271 4.24546 -0.0679765 0
M  V30 958 O 93.7511 3.55982 -0.124681 0
M  V30 959 O 92.6101 5.46467 0.0600579 0
M  V30 960 H 89.7041 0.825795 0.0446279 0
M  V30 961 H 92.2501 1.56303 -0.660859 0
M  V30 962 H 91.0221 3.72045 -1.21235 0
M  V30 963 H 90.6451 3.94597 0.487775 0
M  V30 964 N 91.6422 0.330177 1.54103 0
M  V30 965 C 92.5722 -0.525353 2.27513 0
M  V30 966 C 93.5532 -1.11383 1.2856 0
M  V30 967 O 94.7382 -1.13773 1.57383 0
M  V30 968 C 91.8682 -1.6831 3.03791 0
M  V30 969 C 90.8222 -1.2236 4.10137 0
M  V30 970 C 90.1482 -2.46882 4.74293 0
M  V30 971 C 91.4482 -0.333697 5.21233 0
M  V30 972 H 93.1422 0.087013 2.99274 0
M  V30 973 H 90.6882 0.0432893 1.43935 0
M  V30 974 H 92.6412 -2.28795 3.5388 0
M  V30 975 H 91.3652 -2.32216 2.29659 0
M  V30 976 H 90.0242 -0.64165 3.60941 0
M  V30 977 H 89.6722 -3.09165 3.96769 0
M  V30 978 H 89.3722 -2.16825 5.46133 0
M  V30 979 H 90.8962 -3.08117 5.27159 0
M  V30 980 H 92.3102 -0.845013 5.67038 0
M  V30 981 H 90.7072 -0.125612 5.99969 0
M  V30 982 H 91.7772 0.633724 4.80741 0
M  V30 983 N 93.1203 -1.57491 0.0584922 0
M  V30 984 C 94.0673 -2.11958 -0.913376 0
M  V30 985 C 95.0373 -1.02875 -1.30407 0
M  V30 986 O 96.2223 -1.30464 -1.39226 0
M  V30 987 C 93.3623 -2.67497 -2.18035 0
M  V30 988 C 92.4753 -3.90691 -1.84349 0
M  V30 989 C 91.6103 -4.3452 -3.05559 0
M  V30 990 C 90.6493 -5.50395 -2.67827 0
M  V30 991 N 89.7863 -5.89244 -3.81754 0
M  V30 992 H 94.6263 -2.94704 -0.442017 0
M  V30 993 H 92.1633 -1.45643 -0.206545 0
M  V30 994 H 94.1213 -2.978 -2.92183 0
M  V30 995 H 92.7513 -1.87537 -2.62735 0
M  V30 996 H 91.8033 -3.66934 -1.00319 0
M  V30 997 H 93.1153 -4.7489 -1.5258 0
M  V30 998 H 92.2693 -4.66414 -3.87998 0
M  V30 999 H 91.0083 -3.49147 -3.40511 0
M  V30 1000 H 90.0133 -5.18165 -1.83806 0
M  V30 1001 H 91.2383 -6.3749 -2.34059 0
M  V30 1002 H 89.1843 -5.06823 -4.16493 0
M  V30 1003 H 89.1013 -6.68151 -3.53708 0
M  V30 1004 H 90.3693 -6.25756 -4.64811 0
M  V30 1005 N 94.5984 0.214957 -1.56127 0
M  V30 1006 C 95.8464 0.936518 -1.79091 0
M  V30 1007 C 96.1674 1.84606 -0.628148 0
M  V30 1008 O 95.4374 1.92664 0.35462 0
M  V30 1009 H 94.0174 0.3488 -0.660566 0
M  V30 1010 H 96.6794 0.22523 -1.93594 0
M  V30 1011 H 95.7754 1.53943 -2.71492 0
M  V30 1012 N 96.0765 1.50051 0.48192 0
M  V30 1013 C 97.3045 1.64237 1.25832 0
M  V30 1014 C 97.7195 0.321336 1.86045 0
M  V30 1015 O 97.0765 -0.695478 1.68729 0
M  V30 1016 C 97.1275 2.72548 2.37487 0
M  V30 1017 O 96.8485 3.99529 1.79745 0
M  V30 1018 C 98.3495 2.9761 3.28547 0
M  V30 1019 H 95.5695 0.55237 0.380957 0
M  V30 1020 H 98.1135 1.96207 0.576467 0
M  V30 1021 H 96.2685 2.43303 3.01467 0
M  V30 1022 H 96.6825 4.59342 2.5319 0
M  V30 1023 H 98.1565 3.77084 4.03127 0
M  V30 1024 H 98.6335 2.0826 3.86684 0
M  V30 1025 H 99.2395 3.28345 2.70314 0
M  V30 1026 N 97.5546 -0.734337 1.39446 0
M  V30 1027 C 98.7796 -1.52866 1.40167 0
M  V30 1028 C 99.2046 -1.881 -0.00171513 0
M  V30 1029 O 98.5626 -1.51957 -0.988879 0
M  V30 1030 C 98.6106 -2.79235 2.28167 0
M  V30 1031 O 97.7146 -3.75185 1.71201 0
M  V30 1032 H 97.0556 -0.461618 0.477289 0
M  V30 1033 H 99.5856 -0.905949 1.8345 0
M  V30 1034 H 99.5956 -3.27963 2.42702 0
M  V30 1035 H 98.2706 -2.52923 3.30156 0
M  V30 1036 H 96.8476 -3.33958 1.65912 0
M  V30 1037 N 99.0327 -1.24633 -0.964593 0
M  V30 1038 C 100.31 -0.995809 -1.68354 0
M  V30 1039 C 100.69 0.480964 -2.05548 0
M  V30 1040 O 100.038 1.45599 -1.76105 0
M  V30 1041 C 100.248 -1.92177 -2.91323 0
M  V30 1042 C 101.596 -2.19446 -3.63495 0
M  V30 1043 O 102.62 -1.89855 -3.01386 0
M  V30 1044 O 101.479 -2.69714 -4.75307 0
M  V30 1045 H 98.5727 -0.376854 -0.736146 0
M  V30 1046 H 101.119 -1.35745 -1.0184 0
M  V30 1047 H 99.8907 -2.91938 -2.60553 0
M  V30 1048 H 99.5137 -1.56349 -3.65569 0
M  V30 1049 N 100.511 1.16574 -1.06058 0
M  V30 1050 C 101.458 2.20883 -0.669263 0
M  V30 1051 C 102.428 1.62729 0.332918 0
M  V30 1052 O 103.613 1.895 0.222346 0
M  V30 1053 C 100.753 3.45049 -0.0593572 0
M  V30 1054 C 99.8658 4.17458 -1.11143 0
M  V30 1055 C 99.0008 5.29135 -0.467916 0
M  V30 1056 C 98.0398 5.93343 -1.50369 0
M  V30 1057 N 97.1768 6.96516 -0.883706 0
M  V30 1058 H 102.017 2.53709 -1.5632 0
M  V30 1059 H 99.5538 1.24616 -0.781625 0
M  V30 1060 H 101.512 4.16033 0.311771 0
M  V30 1061 H 100.142 3.12781 0.797992 0
M  V30 1062 H 99.1938 3.45101 -1.60029 0
M  V30 1063 H 100.506 4.61307 -1.89731 0
M  V30 1064 H 99.6598 6.06684 -0.0436871 0
M  V30 1065 H 98.3988 4.86443 0.349864 0
M  V30 1066 H 97.4038 5.14517 -1.93784 0
M  V30 1067 H 98.6288 6.38114 -2.32352 0
M  V30 1068 H 96.5748 6.55943 -0.086595 0
M  V30 1069 H 96.4918 7.38723 -1.607 0
M  V30 1070 H 97.7598 7.77993 -0.484543 0
M  V30 1071 N 101.989 0.842826 1.3317 0
M  V30 1072 C 102.937 0.267495 2.31057 0
M  V30 1073 C 103.931 -0.602682 1.58316 0
M  V30 1074 O 105.137 -0.491803 1.73151 0
M  V30 1075 H 101.512 0.0677813 0.748939 0
M  V30 1076 H 103.483 1.10754 2.77085 0
M  V30 1077 C 102.232 -0.539331 3.43492 0
M  V30 1078 H 101.555 0.12095 3.99617 0
M  V30 1079 H 102.995 -0.90767 4.14171 0
M  V30 1080 C 101.454 -1.71981 2.89697 0
M  V30 1081 O 101.984 -2.81862 2.86211 0
M  V30 1082 N 100.19 -1.54299 2.46252 0
M  V30 1083 H 99.7369 -0.649143 2.49287 0
M  V30 1084 H 99.6949 -2.33431 2.10612 0
M  V30 1085 N 103.467 -1.45747 0.599634 0
M  V30 1086 C 104.415 -2.322 -0.136426 0
M  V30 1087 C 105.409 -1.45497 -0.867583 0
M  V30 1088 O 106.615 -1.62027 -0.78405 0
M  V30 1089 H 102.99 -0.749368 -0.0628588 0
M  V30 1090 H 104.961 -2.92072 0.611281 0
M  V30 1091 C 103.71 -3.28974 -1.12567 0
M  V30 1092 H 103.033 -3.9568 -0.572484 0
M  V30 1093 H 104.473 -3.92212 -1.61077 0
M  V30 1094 C 102.932 -2.55561 -2.19523 0
M  V30 1095 O 103.462 -2.33111 -3.27143 0
M  V30 1096 N 101.668 -2.15832 -1.94589 0
M  V30 1097 H 101.215 -2.3429 -1.07078 0
M  V30 1098 H 101.173 -1.67034 -2.66359 0
M  V30 1099 N 104.945 -0.338344 -1.53925 0
M  V30 1100 C 106.193 0.259245 -2.0043 0
M  V30 1101 C 106.514 1.51484 -1.22791 0
M  V30 1102 O 105.784 1.93037 -0.33368 0
M  V30 1103 H 104.364 0.0987845 -0.740439 0
M  V30 1104 H 107.026 -0.458302 -1.89435 0
M  V30 1105 H 106.122 0.505334 -3.07982 0
M  V30 1106 N 106.423 1.57458 -0.0668435 0
M  V30 1107 C 107.648 1.9804 0.616027 0
M  V30 1108 C 108.073 0.944771 1.62652 0
M  V30 1109 O 107.431 -0.0902094 1.81075 0
M  V30 1110 C 107.479 3.37665 1.26549 0
M  V30 1111 O 106.583 3.36701 2.38131 0
M  V30 1112 H 105.924 0.644719 0.158849 0
M  V30 1113 H 108.454 2.04121 -0.139891 0
M  V30 1114 H 108.464 3.7474 1.6135 0
M  V30 1115 H 107.139 4.12573 0.525016 0
M  V30 1116 H 105.716 3.1139 2.0516 0
M  V30 1117 N 107.901 -0.206675 1.56239 0
M  V30 1118 C 109.149 -0.927007 1.79586 0
M  V30 1119 C 109.47 -1.8427 0.637929 0
M  V30 1120 O 108.74 -1.92849 -0.344398 0
M  V30 1121 H 107.32 -0.345292 0.662407 0
M  V30 1122 H 109.982 -0.21496 1.93711 0
M  V30 1123 H 109.078 -1.52501 2.72305 0
M  V30 1124 N 109.379 -1.50304 -0.473955 0
M  V30 1125 C 110.628 -1.60392 -1.22301 0
M  V30 1126 C 110.941 -0.308411 -1.93153 0
M  V30 1127 O 112.147 -0.288156 -2.69966 0
M  V30 1128 C 110.603 -2.83109 -2.2221 0
M  V30 1129 C 110.211 -4.19524 -1.57173 0
M  V30 1130 C 111.955 -3.0254 -2.97775 0
M  V30 1131 C 109.862 -5.33431 -2.55353 0
M  V30 1132 H 108.792 -0.597286 -0.460179 0
M  V30 1133 H 111.443 -1.76731 -0.493803 0
M  V30 1134 H 109.825 -2.60322 -2.9841 0
M  V30 1135 H 110.999 -4.52554 -0.867824 0
M  V30 1136 H 109.314 -4.05674 -0.939002 0
M  V30 1137 H 111.911 -3.84811 -3.71248 0
M  V30 1138 H 112.254 -2.14154 -3.56992 0
M  V30 1139 H 112.787 -3.25494 -2.28688 0
M  V30 1140 H 109.526 -6.23962 -2.00878 0
M  V30 1141 H 109.046 -5.04823 -3.23904 0
M  V30 1142 H 110.725 -5.63887 -3.17239 0
M  V30 1143 N 110.857 0.726932 -1.39834 0
M  V30 1144 C 111.787 1.85405 -1.41941 0
M  V30 1145 C 112.768 1.67751 -0.281728 0
M  V30 1146 O 113.953 1.8795 -0.488717 0
M  V30 1147 C 111.083 3.23243 -1.2701 0
M  V30 1148 C 110.037 3.55549 -2.38262 0
M  V30 1149 C 109.363 4.9241 -2.08415 0
M  V30 1150 C 110.663 3.577 -3.80589 0
M  V30 1151 H 112.357 1.83899 -2.36266 0
M  V30 1152 H 109.903 0.883349 -1.13723 0
M  V30 1153 H 111.856 4.01775 -1.27103 0
M  V30 1154 H 110.58 3.25296 -0.291564 0
M  V30 1155 H 109.239 2.79351 -2.37399 0
M  V30 1156 H 108.887 4.91052 -1.0898 0
M  V30 1157 H 108.587 5.14992 -2.82943 0
M  V30 1158 H 110.111 5.73289 -2.10171 0
M  V30 1159 H 111.525 4.26293 -3.83337 0
M  V30 1160 H 109.922 3.91804 -4.54543 0
M  V30 1161 H 110.992 2.57328 -4.10987 0
M  V30 1162 N 112.336 1.25143 0.95797 0
M  V30 1163 C 113.246 1.06968 2.08794 0
M  V30 1164 C 114.262 0.00773911 1.73998 0
M  V30 1165 O 115.438 0.207972 2.00323 0
M  V30 1166 C 112.503 0.68691 3.39827 0
M  V30 1167 C 111.564 1.82641 3.88511 0
M  V30 1168 C 110.797 1.46181 5.1329 0
M  V30 1169 O 111.02 0.355971 5.69288 0
M  V30 1170 O 109.954 2.29085 5.566 0
M  V30 1171 H 113.78 2.01723 2.27027 0
M  V30 1172 H 111.365 1.04051 1.07209 0
M  V30 1173 H 113.247 0.485417 4.18595 0
M  V30 1174 H 111.922 -0.231417 3.22872 0
M  V30 1175 H 110.829 2.08274 3.10762 0
M  V30 1176 H 112.162 2.72386 4.09959 0
M  V30 1177 N 113.814 -1.1601 1.06675 0
M  V30 1178 C 115.062 -1.86264 0.784229 0
M  V30 1179 C 115.383 -1.82328 -0.691488 0
M  V30 1180 O 114.653 -1.25947 -1.50047 0
M  V30 1181 H 113.233 -0.689621 0.28711 0
M  V30 1182 H 115.895 -1.40664 1.34906 0
M  V30 1183 H 114.991 -2.91595 1.11259 0
M  V30 1184 N 115.292 -0.849877 -1.32721 0
M  V30 1185 C 116.538 -0.451591 -1.97708 0
M  V30 1186 C 116.871 0.989175 -1.6712 0
M  V30 1187 O 116.146 1.69334 -0.956891 0
M  V30 1188 C 116.429 -0.685598 -3.53513 0
M  V30 1189 C 116.282 -2.17444 -3.93749 0
M  V30 1190 C 117.601 -0.138874 -4.39881 0
M  V30 1191 H 114.72 -0.16555 -0.718166 0
M  V30 1192 H 117.362 -1.06742 -1.57182 0
M  V30 1193 H 115.512 -0.161416 -3.88165 0
M  V30 1194 H 117.184 -2.76433 -3.693 0
M  V30 1195 H 115.427 -2.65476 -3.43081 0
M  V30 1196 H 116.098 -2.28888 -5.02309 0
M  V30 1197 H 118.574 -0.587068 -4.11938 0
M  V30 1198 H 117.45 -0.332213 -5.47894 0
M  V30 1199 H 117.711 0.95806 -4.31594 0
M  V30 1200 N 116.77 1.45427 -0.607355 0
M  V30 1201 C 117.717 2.3053 0.111625 0
M  V30 1202 C 118.687 1.4209 0.860216 0
M  V30 1203 O 119.872 1.71019 0.845998 0
M  V30 1204 C 117.012 3.26992 1.10319 0
M  V30 1205 C 116.125 4.30535 0.355493 0
M  V30 1206 C 115.26 5.14105 1.33676 0
M  V30 1207 C 114.299 6.09376 0.576862 0
M  V30 1208 N 113.436 6.85727 1.5074 0
M  V30 1209 H 118.276 2.91477 -0.620093 0
M  V30 1210 H 115.813 1.43631 -0.317594 0
M  V30 1211 H 117.771 3.81385 1.6912 0
M  V30 1212 H 116.401 2.67799 1.80232 0
M  V30 1213 H 115.453 3.78805 -0.348023 0
M  V30 1214 H 116.765 4.98235 -0.237423 0
M  V30 1215 H 115.919 5.72897 1.99684 0
M  V30 1216 H 114.658 4.46423 1.9636 0
M  V30 1217 H 113.663 5.49715 -0.0968519 0
M  V30 1218 H 114.888 6.79085 -0.0449341 0
M  V30 1219 H 112.834 6.20735 2.12189 0
M  V30 1220 H 112.751 7.49778 0.967913 0
M  V30 1221 H 114.019 7.4906 2.15706 0
M  V30 1222 N 118.248 0.346503 1.53744 0
M  V30 1223 C 119.211 -0.496439 2.23759 0
M  V30 1224 C 120.211 -1.0252 1.2388 0
M  V30 1225 O 121.401 -0.913974 1.48297 0
M  V30 1226 C 118.533 -1.69187 2.95954 0
M  V30 1227 H 119.726 0.115952 2.99676 0
M  V30 1228 H 117.279 0.0978939 1.55993 0
M  V30 1229 H 118.014 -2.34288 2.24231 0
M  V30 1230 H 117.799 -1.31989 3.69217 0
M  V30 1231 H 119.289 -2.28969 3.49232 0
M  V30 1232 N 119.726 -1.57421 0.075193 0
M  V30 1233 C 121.003 -1.85029 -0.634329 0
M  V30 1234 C 121.383 -0.968305 -1.87582 0
M  V30 1235 O 120.731 -0.0354749 -2.28472 0
M  V30 1236 C 120.941 -3.35286 -0.968742 0
M  V30 1237 C 122.289 -4.02875 -1.34077 0
M  V30 1238 O 123.313 -3.40051 -1.06037 0
M  V30 1239 O 122.172 -5.13691 -1.86506 0
M  V30 1240 H 119.266 -0.7645 -0.315387 0
M  V30 1241 H 121.812 -1.69366 0.106382 0
M  V30 1242 H 120.584 -3.91203 -0.0871376 0
M  V30 1243 H 120.207 -3.56223 -1.7661 0
M  V30 1244 N 121.204 0.198386 -1.56346 0
M  V30 1245 C 122.151 1.24589 -1.94284 0
M  V30 1246 C 123.121 1.454 -0.802997 0
M  V30 1247 O 124.306 1.58588 -1.06087 0
M  V30 1248 C 121.446 2.58631 -2.28482 0
M  V30 1249 C 120.559 2.45426 -3.55514 0
M  V30 1250 C 119.694 3.7215 -3.79049 0
M  V30 1251 C 118.733 3.53763 -4.99518 0
M  V30 1252 N 117.87 4.72491 -5.19323 0
M  V30 1253 H 122.71 0.915356 -2.83593 0
M  V30 1254 H 120.247 0.440629 -1.40346 0
M  V30 1255 H 122.205 3.3672 -2.46324 0
M  V30 1256 H 120.835 2.89734 -1.42317 0
M  V30 1257 H 119.887 1.58652 -3.45737 0
M  V30 1258 H 121.199 2.27772 -4.43758 0
M  V30 1259 H 120.353 4.58679 -3.97113 0
M  V30 1260 H 119.092 3.92754 -2.89129 0
M  V30 1261 H 118.097 2.65619 -4.8138 0
M  V30 1262 H 119.322 3.34607 -5.90944 0
M  V30 1263 H 117.268 4.93365 -4.3235 0
M  V30 1264 H 117.185 4.5765 -6.01741 0
M  V30 1265 H 118.453 5.6038 -5.41843 0
M  V30 1266 N 122.682 1.50554 0.465978 0
M  V30 1267 C 123.907 1.65838 1.24549 0
M  V30 1268 C 124.332 0.343486 1.84937 0
M  V30 1269 O 123.69 -0.69324 1.67523 0
M  V30 1270 C 123.738 2.75533 2.32624 0
M  V30 1271 O 122.842 2.37142 3.37398 0
M  V30 1272 H 122.183 0.553893 0.366194 0
M  V30 1273 H 124.713 1.96959 0.553927 0
M  V30 1274 H 124.723 2.98763 2.77857 0
M  V30 1275 H 123.398 3.70962 1.88043 0
M  V30 1276 H 121.975 2.24377 2.97841 0
M  V30 1277 N 124.16 -0.719506 1.40217 0
M  V30 1278 C 125.107 -1.83359 1.40172 0
M  V30 1279 C 126.077 -1.64065 0.259206 0
M  V30 1280 O 127.262 -1.85254 0.456677 0
M  V30 1281 C 124.402 -3.2103 1.26624 0
M  V30 1282 C 123.515 -3.51923 2.50548 0
M  V30 1283 C 122.65 -4.79079 2.29471 0
M  V30 1284 C 121.689 -5.02863 3.48992 0
M  V30 1285 N 120.826 -6.2123 3.27135 0
M  V30 1286 H 125.666 -1.82733 2.35399 0
M  V30 1287 H 123.203 -0.892688 1.16917 0
M  V30 1288 H 125.161 -4.00524 1.16776 0
M  V30 1289 H 123.791 -3.20895 0.350176 0
M  V30 1290 H 122.843 -2.67014 2.70939 0
M  V30 1291 H 124.155 -3.6541 3.39525 0
M  V30 1292 H 123.309 -5.66582 2.16955 0
M  V30 1293 H 122.048 -4.67794 1.37913 0
M  V30 1294 H 121.053 -4.13816 3.6199 0
M  V30 1295 H 122.278 -5.16023 4.41472 0
M  V30 1296 H 120.224 -6.11204 2.38256 0
M  V30 1297 H 120.141 -6.35375 4.09675 0
M  V30 1298 H 121.409 -7.11532 3.18344 0
M  V30 1299 N 125.638 -1.25649 -0.95132 0
M  V30 1300 C 126.884 -1.10757 -1.69884 0
M  V30 1301 C 127.217 0.350061 -1.91019 0
M  V30 1302 O 126.492 1.25783 -1.48354 0
M  V30 1303 C 126.775 -1.86606 -3.07978 0
M  V30 1304 C 126.628 -3.40217 -2.94232 0
M  V30 1305 C 127.947 -1.65182 -4.07925 0
M  V30 1306 H 125.066 -0.40374 -0.616574 0
M  V30 1307 H 127.708 -1.54521 -1.10558 0
M  V30 1308 H 125.858 -1.49409 -3.58621 0
M  V30 1309 H 127.53 -3.87108 -2.50889 0
M  V30 1310 H 125.773 -3.67759 -2.30078 0
M  V30 1311 H 126.444 -3.88505 -3.92133 0
M  V30 1312 H 128.92 -1.9757 -3.66204 0
M  V30 1313 H 127.796 -2.20683 -5.02583 0
M  V30 1314 H 128.057 -0.593933 -4.38092 0
M  V30 1315 N 127.117 1.15442 -1.07289 0
M  V30 1316 C 128.064 2.20161 -0.692653 0
M  V30 1317 C 129.034 1.63073 0.31564 0
M  V30 1318 O 130.219 1.89725 0.202235 0
M  V30 1319 C 127.359 3.44967 -0.0959509 0
M  V30 1320 C 126.472 4.16256 -1.15564 0
M  V30 1321 C 125.607 5.28609 -0.524011 0
M  V30 1322 C 124.646 5.91715 -1.56653 0
M  V30 1323 N 123.783 6.9554 -0.957531 0
M  V30 1324 H 128.623 2.52037 -1.59002 0
M  V30 1325 H 126.16 1.2378 -0.794798 0
M  V30 1326 H 128.118 4.16341 0.267628 0
M  V30 1327 H 126.748 3.1361 0.764772 0
M  V30 1328 H 125.8 3.43385 -1.6368 0
M  V30 1329 H 127.112 4.59268 -1.94613 0
M  V30 1330 H 126.266 6.06604 -0.108032 0
M  V30 1331 H 125.005 4.86787 0.29825 0
M  V30 1332 H 124.01 5.12433 -1.9923 0
M  V30 1333 H 125.235 6.35614 -2.39107 0
M  V30 1334 H 123.181 6.55814 -0.156162 0
M  V30 1335 H 123.098 7.36977 -1.68526 0
M  V30 1336 H 124.366 7.77435 -0.567032 0
M  V30 1337 N 128.595 0.856903 1.32268 0
M  V30 1338 C 129.525 0.31858 2.31316 0
M  V30 1339 C 130.506 -0.583487 1.59779 0
M  V30 1340 O 131.691 -0.503259 1.87566 0
M  V30 1341 C 128.821 -0.491979 3.43798 0
M  V30 1342 C 127.775 0.315849 4.26833 0
M  V30 1343 C 127.101 -0.619586 5.31098 0
M  V30 1344 C 128.401 1.54282 4.98993 0
M  V30 1345 H 130.095 1.14621 2.76591 0
M  V30 1346 H 127.641 0.552613 1.32974 0
M  V30 1347 H 129.594 -0.879012 4.1213 0
M  V30 1348 H 128.318 -1.35299 2.97257 0
M  V30 1349 H 126.977 0.684664 3.6015 0
M  V30 1350 H 126.625 -1.47751 4.8081 0
M  V30 1351 H 126.325 -0.0830621 5.87541 0
M  V30 1352 H 127.849 -1.00375 6.02293 0
M  V30 1353 H 129.263 1.22796 5.59995 0
M  V30 1354 H 127.66 2.01745 5.65172 0
M  V30 1355 H 128.73 2.30285 4.26728 0
M  V30 1356 N 130.073 -1.45103 0.615059 0
M  V30 1357 C 131.301 -2.06553 0.11977 0
M  V30 1358 C 131.716 -1.45842 -1.19898 0
M  V30 1359 O 131.073 -0.575325 -1.73194 0
M  V30 1360 C 131.124 -3.61495 -0.018364 0
M  V30 1361 O 130.845 -4.19942 1.24822 0
M  V30 1362 C 132.346 -4.39947 -0.544237 0
M  V30 1363 H 129.566 -0.667096 0.0722739 0
M  V30 1364 H 132.11 -1.8623 0.84491 0
M  V30 1365 H 130.265 -3.81135 -0.693865 0
M  V30 1366 H 130.679 -5.13204 1.0827 0
M  V30 1367 H 132.153 -5.48838 -0.589953 0
M  V30 1368 H 132.63 -4.10255 -1.56805 0
M  V30 1369 H 133.236 -4.25188 0.0974703 0
M  V30 1370 N 131.551 -0.354651 -1.53558 0
M  V30 1371 C 132.797 0.238797 -2.01389 0
M  V30 1372 C 133.13 1.49309 -1.2418 0
M  V30 1373 O 132.405 1.91638 -0.332457 0
M  V30 1374 C 132.688 0.541771 -3.56001 0
M  V30 1375 C 132.541 -0.725388 -4.43912 0
M  V30 1376 C 133.86 1.34685 -4.18984 0
M  V30 1377 H 130.979 0.0853177 -0.732045 0
M  V30 1378 H 133.621 -0.477384 -1.83905 0
M  V30 1379 H 131.771 1.15189 -3.71031 0
M  V30 1380 H 133.443 -1.36313 -4.407 0
M  V30 1381 H 131.686 -1.34801 -4.12324 0
M  V30 1382 H 132.357 -0.468505 -5.50008 0
M  V30 1383 H 134.833 0.830837 -4.07721 0
M  V30 1384 H 133.709 1.52759 -5.27215 0
M  V30 1385 H 133.97 2.35221 -3.74331 0
M  V30 1386 N 133.029 1.57378 -0.0835403 0
M  V30 1387 C 133.992 2.12252 0.864959 0
M  V30 1388 C 134.992 1.04916 1.21858 0
M  V30 1389 O 136.182 1.30853 1.14991 0
M  V30 1390 C 133.314 2.63358 2.16461 0
M  V30 1391 H 134.507 2.97371 0.388676 0
M  V30 1392 H 132.06 1.55423 0.165317 0
M  V30 1393 H 132.795 1.81727 2.686 0
M  V30 1394 H 132.58 3.41826 1.92087 0
M  V30 1395 H 134.07 3.05847 2.84337 0
M  V30 1396 N 134.507 -0.190092 1.56449 0
M  V30 1397 C 135.784 -0.935886 1.71757 0
M  V30 1398 C 136.164 -2.01173 0.639726 0
M  V30 1399 O 135.512 -2.25827 -0.348502 0
M  V30 1400 C 135.722 -1.51775 3.1427 0
M  V30 1401 C 137.07 -1.99794 3.74656 0
M  V30 1402 O 138.094 -1.61607 3.1743 0
M  V30 1403 O 136.953 -2.70079 4.751 0
M  V30 1404 H 134.047 -0.439229 0.700719 0
M  V30 1405 H 136.593 -0.179395 1.68749 0
M  V30 1406 H 135.365 -0.742505 3.84191 0
M  V30 1407 H 134.988 -2.33894 3.21527 0
M  V30 1408 N 135.985 -1.50799 -0.457987 0
M  V30 1409 C 137.262 -1.52968 -1.21902 0
M  V30 1410 C 137.642 -0.281906 -2.09209 0
M  V30 1411 O 136.99 0.734076 -2.16388 0
M  V30 1412 C 137.2 -2.8326 -2.03875 0
M  V30 1413 C 138.548 -3.34425 -2.6162 0
M  V30 1414 O 139.572 -2.8467 -2.14106 0
M  V30 1415 O 138.431 -4.21188 -3.48228 0
M  V30 1416 H 135.525 -0.614129 -0.553873 0
M  V30 1417 H 138.071 -1.63098 -0.468739 0
M  V30 1418 H 136.843 -3.65543 -1.39621 0
M  V30 1419 H 136.466 -2.76195 -2.8601 0
M  V30 1420 N 137.463 0.71206 -1.40597 0
M  V30 1421 C 138.393 1.83889 -1.43899 0
M  V30 1422 C 139.374 1.67442 -0.299504 0
M  V30 1423 O 140.559 1.87421 -0.508624 0
M  V30 1424 C 137.689 3.21877 -1.30431 0
M  V30 1425 C 136.643 3.53002 -2.42019 0
M  V30 1426 C 135.969 4.90172 -2.13626 0
M  V30 1427 C 137.269 3.53643 -3.84362 0
M  V30 1428 H 138.963 1.81383 -2.38203 0
M  V30 1429 H 136.509 0.871237 -1.14654 0
M  V30 1430 H 138.462 4.00404 -1.31357 0
M  V30 1431 H 137.186 3.24968 -0.326049 0
M  V30 1432 H 135.845 2.76818 -2.40349 0
M  V30 1433 H 135.493 4.89869 -1.14182 0
M  V30 1434 H 135.193 5.11962 -2.88389 0
M  V30 1435 H 136.717 5.71028 -2.1624 0
M  V30 1436 H 138.131 4.22203 -3.87837 0
M  V30 1437 H 136.528 3.86961 -4.58673 0
M  V30 1438 H 137.598 2.52954 -4.13693 0
M  V30 1439 N 138.941 1.26152 0.944643 0
M  V30 1440 C 140.166 1.14363 1.7302 0
M  V30 1441 C 140.591 -0.29772 1.85729 0
M  V30 1442 O 139.949 -1.2157 1.34501 0
M  V30 1443 C 139.997 1.81378 3.11664 0
M  V30 1444 O 139.101 1.10022 3.97453 0
M  V30 1445 H 138.442 0.398694 0.53098 0
M  V30 1446 H 140.972 1.66906 1.18337 0
M  V30 1447 H 140.982 1.88064 3.62072 0
M  V30 1448 H 139.657 2.86237 3.0173 0
M  V30 1449 H 138.234 1.11287 3.55907 0
M  V30 1450 N 140.419 -1.14872 1.07899 0
M  V30 1451 C 141.366 -2.19791 0.704319 0
M  V30 1452 C 142.336 -1.63238 -0.306987 0
M  V30 1453 O 143.521 -1.8983 -0.192171 0
M  V30 1454 C 140.661 -3.44911 0.114244 0
M  V30 1455 C 139.774 -4.15637 1.1777 0
M  V30 1456 C 138.909 -5.28324 0.552037 0
M  V30 1457 C 137.948 -5.90875 1.59789 0
M  V30 1458 N 137.085 -6.95022 0.994404 0
M  V30 1459 H 141.925 -2.5119 1.60336 0
M  V30 1460 H 139.462 -1.23356 0.801352 0
M  V30 1461 H 141.42 -4.16477 -0.245544 0
M  V30 1462 H 140.05 -3.14011 -0.74813 0
M  V30 1463 H 139.102 -3.42512 1.65499 0
M  V30 1464 H 140.414 -4.5823 1.97046 0
M  V30 1465 H 139.568 -6.06538 0.1402 0
M  V30 1466 H 138.307 -4.86939 -0.272431 0
M  V30 1467 H 137.312 -5.11369 2.01945 0
M  V30 1468 H 138.537 -6.34337 2.42474 0
M  V30 1469 H 136.483 -6.55722 0.190939 0
M  V30 1470 H 136.4 -7.36073 1.72432 0
M  V30 1471 H 137.668 -7.77123 0.608253 0
M  V30 1472 N 141.898 -0.863906 -1.31812 0
M  V30 1473 C 143.126 -0.486111 -2.01108 0
M  V30 1474 C 143.541 0.919755 -1.64882 0
M  V30 1475 O 142.898 1.60162 -0.874893 0
M  V30 1476 C 142.949 -0.626435 -3.56031 0
M  V30 1477 O 142.67 -1.97693 -3.90959 0
M  V30 1478 C 144.171 -0.248857 -4.42601 0
M  V30 1479 H 141.391 -0.190052 -0.643523 0
M  V30 1480 H 143.935 -1.1634 -1.68182 0
M  V30 1481 H 142.09 0.00322717 -3.874 0
M  V30 1482 H 142.504 -1.98034 -4.85678 0
M  V30 1483 H 143.978 -0.398016 -5.50563 0
M  V30 1484 H 144.455 0.811489 -4.31638 0
M  V30 1485 H 145.061 -0.853971 -4.16638 0
M  V30 1486 N 143.376 1.44774 -0.622745 0
M  V30 1487 C 144.604 2.06487 -0.130722 0
M  V30 1488 C 145.019 1.46476 1.19123 0
M  V30 1489 O 144.376 0.584502 1.72887 0
M  V30 1490 C 144.427 3.615 -0.000807207 0
M  V30 1491 O 144.148 4.19274 -1.27048 0
M  V30 1492 C 145.649 4.40229 0.520898 0
M  V30 1493 H 142.869 0.666704 -0.0758106 0
M  V30 1494 H 145.413 1.85779 -0.854774 0
M  V30 1495 H 143.568 3.81498 0.673643 0
M  V30 1496 H 143.982 5.12622 -1.1099 0
M  V30 1497 H 145.456 5.49144 0.560838 0
M  V30 1498 H 145.933 4.1108 1.54627 0
M  V30 1499 H 146.539 4.25131 -0.120018 0
M  V30 1500 N 144.854 0.36279 1.53368 0
M  V30 1501 C 145.784 -0.476976 2.28576 0
M  V30 1502 C 146.765 -1.08631 1.30894 0
M  V30 1503 O 147.95 -1.10409 1.59761 0
M  V30 1504 C 145.08 -1.61828 3.07293 0
M  V30 1505 C 144.034 -1.13633 4.1264 0
M  V30 1506 C 143.36 -2.36766 4.79423 0
M  V30 1507 C 144.66 -0.223061 5.21823 0
M  V30 1508 H 146.354 0.150474 2.99022 0
M  V30 1509 H 143.9 0.0738103 1.43811 0
M  V30 1510 H 145.853 -2.21237 3.58653 0
M  V30 1511 H 144.577 -2.27292 2.34533 0
M  V30 1512 H 143.236 -0.564945 3.62221 0
M  V30 1513 H 142.884 -3.0068 4.03238 0
M  V30 1514 H 142.584 -2.05192 5.50609 0
M  V30 1515 H 144.108 -2.96865 5.33576 0
M  V30 1516 H 145.522 -0.724545 5.68703 0
M  V30 1517 H 143.919 0.001678 6.001 0
M  V30 1518 H 144.989 0.735553 4.79289 0
M  V30 1519 N 146.332 -1.57332 0.0918853 0
M  V30 1520 C 147.242 -2.17368 -0.882505 0
M  V30 1521 C 148.258 -1.14226 -1.31257 0
M  V30 1522 O 149.434 -1.46582 -1.38115 0
M  V30 1523 C 146.499 -2.73962 -2.12476 0
M  V30 1524 C 145.56 -3.92048 -1.7492 0
M  V30 1525 C 144.793 -4.45933 -2.93223 0
M  V30 1526 O 145.016 -3.98764 -4.07852 0
M  V30 1527 O 143.95 -5.36999 -2.71875 0
M  V30 1528 H 147.776 -3.01031 -0.40172 0
M  V30 1529 H 145.361 -1.48813 -0.132291 0
M  V30 1530 H 147.243 -3.10147 -2.85283 0
M  V30 1531 H 145.918 -1.93347 -2.59613 0
M  V30 1532 H 144.825 -3.6068 -0.993025 0
M  V30 1533 H 146.158 -4.74017 -1.32548 0
M  V30 1534 N 147.81 0.181792 -1.56548 0
M  V30 1535 C 149.056 0.901431 -1.81665 0
M  V30 1536 C 149.389 1.82347 -0.668075 0
M  V30 1537 O 148.664 1.91669 0.330615 0
M  V30 1538 C 148.947 1.70618 -3.17115 0
M  V30 1539 C 148.8 0.807964 -4.42484 0
M  V30 1540 C 150.119 2.67605 -3.49393 0
M  V30 1541 H 147.238 0.32627 -0.660846 0
M  V30 1542 H 149.88 0.168134 -1.89255 0
M  V30 1543 H 148.03 2.33133 -3.10775 0
M  V30 1544 H 149.702 0.19649 -4.60881 0
M  V30 1545 H 147.945 0.115411 -4.33646 0
M  V30 1546 H 148.616 1.40632 -5.33785 0
M  V30 1547 H 151.092 2.15218 -3.56118 0
M  V30 1548 H 149.968 3.20985 -4.45264 0
M  V30 1549 H 150.229 3.47298 -2.73563 0
M  V30 1550 N 149.288 1.51039 0.449983 0
M  V30 1551 C 150.218 1.74379 1.55288 0
M  V30 1552 C 151.199 0.593236 1.5942 0
M  V30 1553 O 152.384 0.834625 1.7535 0
M  V30 1554 C 149.514 1.85728 2.93466 0
M  V30 1555 C 148.468 3.01078 3.04197 0
M  V30 1556 C 147.794 2.97595 4.44231 0
M  V30 1557 C 149.094 4.41254 2.7945 0
M  V30 1558 H 150.788 2.66725 1.36008 0
M  V30 1559 H 148.334 1.2835 0.652864 0
M  V30 1560 H 150.287 2.0064 3.70569 0
M  V30 1561 H 149.011 0.900207 3.13949 0
M  V30 1562 H 147.67 2.85851 2.29531 0
M  V30 1563 H 147.318 1.99691 4.61663 0
M  V30 1564 H 147.018 3.75046 4.52343 0
M  V30 1565 H 148.542 3.14583 5.23326 0
M  V30 1566 H 149.956 4.56897 3.46292 0
M  V30 1567 H 148.353 5.20315 2.98985 0
M  V30 1568 H 149.423 4.52164 1.75144 0
M  V30 1569 N 150.766 -0.704594 1.40972 0
M  V30 1570 C 151.713 -1.81862 1.42109 0
M  V30 1571 C 152.683 -1.63781 0.276593 0
M  V30 1572 O 153.868 -1.84759 0.4763 0
M  V30 1573 C 151.008 -3.19669 1.30022 0
M  V30 1574 C 150.121 -3.49246 2.54267 0
M  V30 1575 C 149.256 -4.76618 2.3454 0
M  V30 1576 C 148.295 -4.99133 3.54306 0
M  V30 1577 N 147.432 -6.17726 3.33706 0
M  V30 1578 H 152.272 -1.80226 2.37324 0
M  V30 1579 H 149.809 -0.880238 1.17857 0
M  V30 1580 H 151.767 -3.99263 1.21018 0
M  V30 1581 H 150.397 -3.20506 0.384192 0
M  V30 1582 H 149.449 -2.64125 2.73756 0
M  V30 1583 H 150.761 -3.61788 3.43381 0
M  V30 1584 H 149.915 -5.64249 2.22952 0
M  V30 1585 H 148.654 -4.66305 1.42867 0
M  V30 1586 H 147.659 -4.09953 3.66359 0
M  V30 1587 H 148.884 -5.11311 4.4692 0
M  V30 1588 H 146.83 -6.08642 2.44725 0
M  V30 1589 H 146.747 -6.30995 4.16391 0
M  V30 1590 H 148.015 -7.08115 3.25873 0
M  V30 1591 N 152.244 -1.26651 -0.937939 0
M  V30 1592 C 153.154 -1.10276 -2.07066 0
M  V30 1593 C 154.17 -0.0354197 -1.73964 0
M  V30 1594 O 155.346 -0.239816 -1.99967 0
M  V30 1595 C 152.411 -0.740887 -3.38691 0
M  V30 1596 C 151.472 -1.88799 -3.85556 0
M  V30 1597 C 150.705 -1.54329 -5.10899 0
M  V30 1598 O 150.928 -0.446494 -5.6865 0
M  V30 1599 O 149.862 -2.37911 -5.52885 0
M  V30 1600 H 153.688 -2.05309 -2.23789 0
M  V30 1601 H 151.273 -1.05743 -1.0554 0
M  V30 1602 H 153.155 -0.55195 -4.1777 0
M  V30 1603 H 151.83 0.180022 -3.23199 0
M  V30 1604 H 150.737 -2.13191 -3.07409 0
M  V30 1605 H 152.07 -2.78874 -4.05574 0
M  V30 1606 N 153.722 1.14298 -1.08507 0
M  V30 1607 C 154.999 1.81544 -0.728088 0
M  V30 1608 C 155.379 1.95838 0.78808 0
M  V30 1609 O 154.727 1.51904 1.70697 0
M  V30 1610 C 154.937 3.17169 -1.45619 0
M  V30 1611 C 156.285 3.9265 -1.61591 0
M  V30 1612 O 157.309 3.26762 -1.41793 0
M  V30 1613 O 156.168 5.10807 -1.94263 0
M  V30 1614 H 153.262 0.78491 -0.260471 0
M  V30 1615 H 155.808 1.21307 -1.18671 0
M  V30 1616 H 154.58 3.01934 -2.489 0
M  V30 1617 H 154.203 3.851 -0.989124 0
M  V30 1618 N 155.201 0.870884 1.31352 0
M  V30 1619 C 156.449 0.48132 1.96285 0
M  V30 1620 C 156.77 -0.969813 1.69173 0
M  V30 1621 O 156.04 -1.67998 1.00764 0
M  V30 1622 H 154.62 0.175002 0.726212 0
M  V30 1623 H 157.282 1.11087 1.60143 0
M  V30 1624 H 156.378 0.639825 3.05471 0
M  V30 1625 N 156.679 -1.44442 0.630414 0
M  V30 1626 C 157.907 -2.06414 0.141671 0
M  V30 1627 C 158.322 -1.47105 -1.18345 0
M  V30 1628 O 157.679 -0.593662 -1.72574 0
M  V30 1629 C 157.73 -3.61494 0.0199784 0
M  V30 1630 O 157.451 -4.18594 1.29269 0
M  V30 1631 C 158.952 -4.40499 -0.497544 0
M  V30 1632 H 156.172 -0.666292 0.0793452 0
M  V30 1633 H 158.716 -1.85323 0.864614 0
M  V30 1634 H 156.871 -3.8185 -0.653402 0
M  V30 1635 H 157.285 -5.12026 1.13707 0
M  V30 1636 H 158.759 -5.49433 -0.531708 0
M  V30 1637 H 159.236 -4.11895 -1.52445 0
M  V30 1638 H 159.842 -4.25061 0.142562 0
M  V30 1639 N 158.157 -0.370918 -1.53173 0
M  V30 1640 C 159.403 0.217423 -2.01631 0
M  V30 1641 C 159.736 1.47983 -1.25756 0
M  V30 1642 O 159.011 1.91274 -0.352764 0
M  V30 1643 C 159.294 0.503982 -3.56556 0
M  V30 1644 C 159.147 -0.77243 -4.43118 0
M  V30 1645 C 160.466 1.30234 -4.20389 0
M  V30 1646 H 157.585 0.0775486 -0.732909 0
M  V30 1647 H 160.227 -0.496863 -1.83388 0
M  V30 1648 H 158.377 1.11248 -3.72231 0
M  V30 1649 H 160.049 -1.4098 -4.39229 0
M  V30 1650 H 158.292 -1.39167 -4.10871 0
M  V30 1651 H 158.963 -0.526815 -5.4948 0
M  V30 1652 H 161.439 0.787546 -4.08579 0
M  V30 1653 H 160.315 1.47158 -5.28806 0
M  V30 1654 H 160.576 2.31237 -3.76805 0
M  V30 1655 N 159.635 1.57281 -0.100228 0
M  V30 1656 C 160.881 1.94826 0.563101 0
M  V30 1657 C 161.214 0.982475 1.67514 0
M  V30 1658 O 160.489 0.0164069 1.94493 0
M  V30 1659 C 160.772 3.42453 1.11346 0
M  V30 1660 C 160.625 4.498 0.00612081 0
M  V30 1661 C 161.944 3.91506 2.01024 0
M  V30 1662 H 159.063 0.708428 0.203221 0
M  V30 1663 H 161.705 1.8922 -0.171979 0
M  V30 1664 H 159.855 3.47361 1.7399 0
M  V30 1665 H 161.527 4.57 -0.628357 0
M  V30 1666 H 159.77 4.28756 -0.659581 0
M  V30 1667 H 160.441 5.50306 0.432109 0
M  V30 1668 H 162.917 3.88784 1.48278 0
M  V30 1669 H 161.793 4.95358 2.36457 0
M  V30 1670 H 162.054 3.31099 2.92961 0
M  V30 1671 N 161.113 -0.173488 1.56642 0
M  V30 1672 C 162.338 -0.910149 1.86363 0
M  V30 1673 C 162.763 -1.75132 0.686318 0
M  V30 1674 O 162.121 -1.77595 -0.364643 0
M  V30 1675 C 162.169 -1.76447 3.14482 0
M  V30 1676 O 161.273 -2.86584 2.96553 0
M  V30 1677 H 160.614 -0.255086 0.613047 0
M  V30 1678 H 163.144 -0.172283 2.03873 0
M  V30 1679 H 163.154 -2.16483 3.45831 0
M  V30 1680 H 161.829 -1.14658 3.99783 0
M  V30 1681 H 160.406 -2.50146 2.76553 0
M  V30 1682 N 162.591 -1.51276 -0.441967 0
M  V30 1683 C 164.007 -1.39349 -0.778083 0
M  V30 1684 C 164.207 -0.472212 -1.95889 0
M  V30 1685 O 163.263 0.0743551 -2.5239 0
M  V30 1686 C 164.576 -2.81292 -1.0628 0
M  V30 1687 C 166.124 -2.9041 -1.16751 0
M  V30 1688 C 166.599 -4.33251 -1.48519 0
M  V30 1689 N 168.09 -4.36336 -1.55453 0
M  V30 1690 C 168.825 -5.43885 -1.81596 0
M  V30 1691 N 168.321 -6.61601 -2.05562 0
M  V30 1692 N 170.114 -5.3136 -1.8334 0
M  V30 1693 H 162.265 -2.09729 0.335774 0
M  V30 1694 H 164.528 -0.943925 0.0878028 0
M  V30 1695 H 164.234 -3.50678 -0.267905 0
M  V30 1696 H 164.108 -3.20334 -1.99163 0
M  V30 1697 H 166.495 -2.21225 -1.95304 0
M  V30 1698 H 166.576 -2.54871 -0.217801 0
M  V30 1699 H 166.22 -5.02984 -0.704958 0
M  V30 1700 H 166.15 -4.66299 -2.44689 0
M  V30 1701 H 168.641 -3.51466 -1.38853 0
M  V30 1702 H 168.954 -7.39361 -2.24867 0
M  V30 1703 H 167.299 -6.64725 -2.02894 0
M  V30 1704 H 170.49 -4.38382 -1.64132 0
M  V30 1705 H 170.663 -6.15258 -2.03377 0
M  V30 1706 N 164.069 0.697108 -1.41344 0
M  V30 1707 C 165.016 1.81106 -1.43071 0
M  V30 1708 C 165.986 1.63632 -0.285275 0
M  V30 1709 O 167.171 1.84504 -0.486091 0
M  V30 1710 C 164.311 3.18975 -1.31715 0
M  V30 1711 C 163.424 3.47892 -2.56115 0
M  V30 1712 C 162.559 4.75367 -2.37064 0
M  V30 1713 C 161.598 4.97247 -3.56948 0
M  V30 1714 N 160.735 6.15947 -3.36977 0
M  V30 1715 H 165.575 1.78965 -2.38276 0
M  V30 1716 H 163.112 0.873975 -1.18322 0
M  V30 1717 H 165.07 3.98615 -1.23133 0
M  V30 1718 H 163.7 3.20297 -0.401183 0
M  V30 1719 H 162.752 2.62669 -2.75153 0
M  V30 1720 H 164.064 3.59962 -3.45295 0
M  V30 1721 H 163.218 5.63059 -2.25941 0
M  V30 1722 H 161.957 4.65541 -1.45338 0
M  V30 1723 H 160.962 4.08004 -3.68527 0
M  V30 1724 H 162.187 5.08934 -4.49626 0
M  V30 1725 H 160.133 6.07336 -2.47949 0
M  V30 1726 H 160.05 6.28777 -4.19732 0
M  V30 1727 H 161.318 7.06377 -3.29623 0
M  V30 1728 N 165.547 1.27147 0.931209 0
M  V30 1729 C 166.793 1.13446 1.68101 0
M  V30 1730 C 167.126 -0.319628 1.91552 0
M  V30 1731 O 166.401 -1.23407 1.50336 0
M  V30 1732 C 166.684 1.91482 3.0497 0
M  V30 1733 C 166.537 3.44855 2.88782 0
M  V30 1734 C 167.856 1.71651 4.05246 0
M  V30 1735 H 164.975 0.413498 0.610072 0
M  V30 1736 H 167.617 1.56261 1.08086 0
M  V30 1737 H 165.767 1.55095 3.56199 0
M  V30 1738 H 167.439 3.9105 2.44698 0
M  V30 1739 H 165.682 3.71373 2.24198 0
M  V30 1740 H 166.353 3.94694 3.85902 0
M  V30 1741 H 168.829 2.0337 3.63015 0
M  V30 1742 H 167.705 2.28651 4.99009 0
M  V30 1743 H 167.966 0.663555 4.37092 0
M  V30 1744 N 167.025 -1.13721 1.09112 0
M  V30 1745 C 168.253 -1.88773 0.846899 0
M  V30 1746 C 168.668 -1.7896 -0.601572 0
M  V30 1747 O 168.025 -1.15394 -1.41388 0
M  V30 1748 C 168.076 -3.3849 1.26913 0
M  V30 1749 O 167.797 -3.48043 2.66079 0
M  V30 1750 C 169.298 -4.30518 1.05682 0
M  V30 1751 H 166.518 -0.59772 0.304914 0
M  V30 1752 H 169.062 -1.43977 1.45227 0
M  V30 1753 H 167.217 -3.80881 0.707723 0
M  V30 1754 H 167.631 -4.4109 2.83795 0
M  V30 1755 H 169.105 -5.3391 1.40156 0
M  V30 1756 H 169.582 -4.392 -0.00563416 0
M  V30 1757 H 170.188 -3.93893 1.60402 0
M  V30 1758 N 168.503 -0.877838 -1.30888 0
M  V30 1759 C 169.728 -0.506629 -2.01117 0
M  V30 1760 C 170.153 0.895564 -1.65412 0
M  V30 1761 O 169.511 1.5923 -0.866922 0
M  V30 1762 C 169.559 -0.680223 -3.54126 0
M  V30 1763 O 168.663 0.277033 -4.11468 0
M  V30 1764 H 168.004 -0.200518 -0.633 0
M  V30 1765 H 170.534 -1.18342 -1.66902 0
M  V30 1766 H 170.544 -0.5765 -4.03907 0
M  V30 1767 H 169.219 -1.70261 -3.79452 0
M  V30 1768 H 167.796 0.127606 -3.72682 0
M  V30 1769 N 169.982 1.44106 -0.638065 0
M  V30 1770 C 170.929 2.30715 0.062701 0
M  V30 1771 C 171.899 1.43882 0.829883 0
M  V30 1772 O 173.084 1.72775 0.809532 0
M  V30 1773 C 170.224 3.29258 1.03358 0
M  V30 1774 C 169.337 4.31192 0.26409 0
M  V30 1775 C 168.472 5.16825 1.22741 0
M  V30 1776 C 167.511 6.10462 0.447475 0
M  V30 1777 N 166.648 6.8877 1.36161 0
M  V30 1778 H 171.488 2.90096 -0.681781 0
M  V30 1779 H 169.025 1.42925 -0.347988 0
M  V30 1780 H 170.983 3.84886 1.60992 0
M  V30 1781 H 169.613 2.71562 1.74511 0
M  V30 1782 H 168.665 3.77981 -0.428295 0
M  V30 1783 H 169.977 4.97619 -0.343052 0
M  V30 1784 H 169.131 5.77004 1.87487 0
M  V30 1785 H 167.87 4.50488 1.86847 0
M  V30 1786 H 166.875 5.49386 -0.213433 0
M  V30 1787 H 168.1 6.78837 -0.188968 0
M  V30 1788 H 166.046 6.25096 1.98975 0
M  V30 1789 H 165.963 7.51663 0.808656 0
M  V30 1790 H 167.231 7.53467 1.99769 0
M  V30 1791 N 171.46 0.379036 1.52974 0
M  V30 1792 C 172.737 -0.263479 1.93817 0
M  V30 1793 C 173.117 -1.65244 1.31368 0
M  V30 1794 O 172.465 -2.23448 0.477856 0
M  V30 1795 C 172.675 -0.300166 3.47707 0
M  V30 1796 C 174.023 -0.534061 4.21228 0
M  V30 1797 O 175.047 -0.38081 3.54159 0
M  V30 1798 O 173.906 -0.833501 5.40106 0
M  V30 1799 H 171 -0.161149 0.811147 0
M  V30 1800 H 173.546 0.432798 1.64088 0
M  V30 1801 H 172.318 0.673138 3.85467 0
M  V30 1802 H 171.941 -1.04179 3.83709 0
M  V30 1803 N 172.938 -1.57226 0.108567 0
M  V30 1804 C 173.885 -2.14756 -0.845481 0
M  V30 1805 C 174.855 -1.06971 -1.27068 0
M  V30 1806 O 176.04 -1.34827 -1.35005 0
M  V30 1807 C 173.18 -2.74298 -2.09415 0
M  V30 1808 C 172.293 -3.96358 -1.71826 0
M  V30 1809 C 171.428 -4.44021 -2.9158 0
M  V30 1810 C 170.467 -5.58637 -2.50181 0
M  V30 1811 N 169.604 -6.01091 -3.62814 0
M  V30 1812 H 174.444 -2.95961 -0.348035 0
M  V30 1813 H 171.981 -1.46226 -0.160106 0
M  V30 1814 H 173.939 -3.06945 -2.82561 0
M  V30 1815 H 172.569 -1.95801 -2.56636 0
M  V30 1816 H 171.621 -3.69939 -0.885947 0
M  V30 1817 H 172.933 -4.79504 -1.37394 0
M  V30 1818 H 172.087 -4.78522 -3.72963 0
M  V30 1819 H 170.826 -3.59803 -3.29231 0
M  V30 1820 H 169.831 -5.23751 -1.67228 0
M  V30 1821 H 171.056 -6.44613 -2.13659 0
M  V30 1822 H 169.002 -5.19817 -4.00158 0
M  V30 1823 H 168.919 -6.79066 -3.32273 0
M  V30 1824 H 170.187 -6.40227 -4.44668 0
M  V30 1825 N 174.416 0.165178 -1.56732 0
M  V30 1826 C 175.641 0.900253 -1.86843 0
M  V30 1827 C 176.066 1.74766 -0.695596 0
M  V30 1828 O 175.424 1.77786 0.35522 0
M  V30 1829 C 175.472 1.74777 -3.15413 0
M  V30 1830 O 174.576 2.85007 -2.98068 0
M  V30 1831 H 173.917 0.251832 -0.614391 0
M  V30 1832 H 176.447 0.161468 -2.03962 0
M  V30 1833 H 176.457 2.14646 -3.46974 0
M  V30 1834 H 175.132 1.12537 -4.00385 0
M  V30 1835 H 173.709 2.48676 -2.77875 0
M  V30 1836 N 175.894 1.51508 0.433938 0
M  V30 1837 C 177.122 1.68157 1.20543 0
M  V30 1838 C 177.537 0.380362 1.84929 0
M  V30 1839 O 176.894 -0.641446 1.70856 0
M  V30 1840 C 176.945 2.79965 2.28696 0
M  V30 1841 O 176.666 4.05045 1.66943 0
M  V30 1842 C 178.167 3.07912 3.18912 0
M  V30 1843 H 175.387 0.56421 0.363191 0
M  V30 1844 H 177.931 1.97941 0.513754 0
M  V30 1845 H 176.086 2.5277 2.93574 0
M  V30 1846 H 176.5 4.67165 2.38448 0
M  V30 1847 H 177.974 3.89719 3.90926 0
M  V30 1848 H 178.451 2.20456 3.79863 0
M  V30 1849 H 179.057 3.36779 2.59731 0
M  V30 1850 N 177.372 -0.689602 1.41712 0
M  V30 1851 C 178.6 -1.47827 1.44758 0
M  V30 1852 C 179.015 -1.88721 0.0545703 0
M  V30 1853 O 178.372 -1.57176 -0.927463 0
M  V30 1854 C 178.423 -2.73698 2.3616 0
M  V30 1855 O 178.144 -2.34524 3.7004 0
M  V30 1856 C 179.645 -3.67389 2.48072 0
M  V30 1857 H 176.865 -0.455357 0.49284 0
M  V30 1858 H 179.409 -0.848574 1.86063 0
M  V30 1859 H 177.564 -3.32891 1.98148 0
M  V30 1860 H 177.978 -3.15701 4.18847 0
M  V30 1861 H 179.452 -4.52475 3.16181 0
M  V30 1862 H 179.929 -4.12284 1.51388 0
M  V30 1863 H 180.535 -3.14097 2.86746 0
M  V30 1864 N 178.85 -1.27639 -0.924453 0
M  V30 1865 C 179.76 -1.12466 -2.05885 0
M  V30 1866 C 180.776 -0.053869 -1.73917 0
M  V30 1867 O 181.952 -0.261012 -1.99702 0
M  V30 1868 C 179.017 -0.776768 -3.37886 0
M  V30 1869 C 178.078 -1.92878 -3.83532 0
M  V30 1870 C 177.311 -1.59739 -5.09234 0
M  V30 1871 O 177.534 -0.506782 -5.68144 0
M  V30 1872 O 176.468 -2.43761 -5.50331 0
M  V30 1873 H 180.294 -2.07671 -2.21599 0
M  V30 1874 H 177.879 -1.06857 -1.04413 0
M  V30 1875 H 179.761 -0.596229 -4.17161 0
M  V30 1876 H 178.436 0.145732 -3.23372 0
M  V30 1877 H 177.343 -2.1644 -3.0513 0
M  V30 1878 H 178.676 -2.8316 -4.02593 0
M  V30 1879 N 180.328 1.1314 -1.09713 0
M  V30 1880 C 181.291 2.16831 -0.742751 0
M  V30 1881 C 182.291 1.59159 0.229129 0
M  V30 1882 O 183.481 1.74199 0.00693237 0
M  V30 1883 C 180.613 3.40756 -0.0989168 0
M  V30 1884 H 181.806 2.49695 -1.66109 0
M  V30 1885 H 179.359 1.2802 -0.896699 0
M  V30 1886 H 180.094 3.13485 0.830514 0
M  V30 1887 H 179.879 3.83888 -0.798265 0
M  V30 1888 H 181.369 4.17386 0.133524 0
M  V30 1889 N 181.806 0.884767 1.30421 0
M  V30 1890 C 182.753 0.349642 2.28136 0
M  V30 1891 C 183.723 -0.560061 1.56373 0
M  V30 1892 O 184.908 -0.488524 1.8444 0
M  V30 1893 C 182.048 -0.42999 3.42411 0
M  V30 1894 C 181.161 0.508907 4.28992 0
M  V30 1895 C 180.296 -0.286301 5.30428 0
M  V30 1896 C 179.335 0.648079 6.08659 0
M  V30 1897 N 178.472 -0.111792 7.02011 0
M  V30 1898 H 183.312 1.18807 2.73293 0
M  V30 1899 H 180.849 0.597231 1.3443 0
M  V30 1900 H 182.807 -0.897923 4.07423 0
M  V30 1901 H 181.437 -1.23299 2.98324 0
M  V30 1902 H 180.489 1.09533 3.64289 0
M  V30 1903 H 181.801 1.22475 4.8353 0
M  V30 1904 H 180.955 -0.816098 6.01186 0
M  V30 1905 H 179.694 -1.03536 4.76583 0
M  V30 1906 H 178.699 1.18951 5.36778 0
M  V30 1907 H 179.924 1.39623 6.64592 0
M  V30 1908 H 177.87 -0.843395 6.50556 0
M  V30 1909 H 177.787 0.544429 7.54037 0
M  V30 1910 H 179.055 -0.622339 7.77012 0
M  V30 1911 N 183.284 -1.43765 0.645699 0
M  V30 1912 C 184.531 -2.01898 0.15604 0
M  V30 1913 C 184.859 -1.50887 -1.22733 0
M  V30 1914 O 184.114 -0.689271 -1.8316 0
M  V30 1915 C 184.413 -3.57238 0.107679 0
M  V30 1916 C 184.079 -4.27564 1.43178 0
M  V30 1917 C 182.741 -4.46492 1.7944 0
M  V30 1918 C 185.093 -4.67454 2.30513 0
M  V30 1919 C 182.421 -5.02573 3.02716 0
M  V30 1920 C 184.773 -5.24901 3.53074 0
M  V30 1921 C 183.437 -5.42046 3.89541 0
M  V30 1922 H 182.707 -0.738797 0.057099 0
M  V30 1923 H 185.354 -1.72341 0.834912 0
M  V30 1924 H 183.659 -3.86293 -0.654618 0
M  V30 1925 H 185.356 -3.99965 -0.287938 0
M  V30 1926 H 181.946 -4.13171 1.13963 0
M  V30 1927 H 186.13 -4.5253 2.0379 0
M  V30 1928 H 181.386 -5.14033 3.31028 0
M  V30 1929 H 185.56 -5.54758 4.20971 0
M  V30 1930 H 183.187 -5.85268 4.85145 0
M  V30 1931 N 184.763 -0.387143 -1.52771 0
M  V30 1932 C 185.711 0.463953 -2.27926 0
M  V30 1933 C 186.705 1.06493 -1.31741 0
M  V30 1934 O 187.911 1.00565 -1.49287 0
M  V30 1935 H 184.286 0.16837 -0.732909 0
M  V30 1936 H 186.257 -0.19141 -2.97785 0
M  V30 1937 C 185.006 1.5803 -3.09713 0
M  V30 1938 H 184.329 1.12718 -3.83581 0
M  V30 1939 H 185.769 2.15008 -3.65442 0
M  V30 1940 C 184.228 2.53509 -2.2189 0
M  V30 1941 O 184.758 3.56863 -1.84422 0
M  V30 1942 N 182.964 2.23199 -1.86093 0
M  V30 1943 H 182.511 1.39185 -2.16761 0
M  V30 1944 H 182.469 2.87333 -1.27621 0
M  V30 1945 N 186.241 1.57166 -0.116904 0
M  V30 1946 C 187.151 2.18745 0.847812 0
M  V30 1947 C 188.167 1.163 1.29423 0
M  V30 1948 O 189.343 1.48761 1.35765 0
M  V30 1949 C 186.408 2.77307 2.0809 0
M  V30 1950 C 185.469 3.94781 1.68661 0
M  V30 1951 C 184.702 4.50541 2.86091 0
M  V30 1952 O 184.925 4.05202 4.01456 0
M  V30 1953 O 183.859 5.41256 2.63298 0
M  V30 1954 H 187.685 3.01632 0.353778 0
M  V30 1955 H 185.27 1.49005 0.108599 0
M  V30 1956 H 187.152 3.14647 2.80313 0
M  V30 1957 H 185.827 1.97452 2.56504 0
M  V30 1958 H 184.734 3.62214 0.935518 0
M  V30 1959 H 186.067 4.76065 1.24991 0
M  V30 1960 N 187.719 -0.156864 1.56817 0
M  V30 1961 C 188.666 -1.19394 1.97519 0
M  V30 1962 C 189.636 -1.4322 0.841265 0
M  V30 1963 O 190.821 -1.55719 1.10255 0
M  V30 1964 C 187.961 -2.52483 2.35258 0
M  V30 1965 C 187.074 -2.35914 3.61896 0
M  V30 1966 C 186.209 -3.61969 3.88782 0
M  V30 1967 C 185.248 -3.40395 5.08722 0
M  V30 1968 N 184.385 -4.58556 5.31668 0
M  V30 1969 H 189.225 -0.839845 2.85921 0
M  V30 1970 H 186.762 -0.403264 1.41464 0
M  V30 1971 H 188.72 -3.30071 2.55165 0
M  V30 1972 H 187.35 -2.85859 1.49949 0
M  V30 1973 H 186.402 -1.49429 3.49821 0
M  V30 1974 H 187.714 -2.15926 4.49641 0
M  V30 1975 H 186.868 -4.47989 4.09135 0
M  V30 1976 H 185.607 -3.84951 2.9944 0
M  V30 1977 H 184.612 -2.52763 4.88253 0
M  V30 1978 H 185.837 -3.18822 5.99608 0
M  V30 1979 H 183.783 -4.81729 4.45279 0
M  V30 1980 H 183.7 -4.41535 6.13664 0
M  V30 1981 H 184.968 -5.45817 5.5651 0
M  V30 1982 N 189.197 -1.51736 -0.425897 0
M  V30 1983 C 190.445 -1.64644 -1.17204 0
M  V30 1984 C 190.766 -0.370486 -1.91448 0
M  V30 1985 O 190.036 0.614088 -1.86026 0
M  V30 1986 H 188.616 -0.606819 -0.435638 0
M  V30 1987 H 191.278 -1.88713 -0.487177 0
M  V30 1988 H 190.374 -2.47958 -1.89534 0
M  V30 1989 N 190.675 0.682077 -1.42076 0
M  V30 1990 C 191.585 1.82535 -1.47371 0
M  V30 1991 C 192.601 1.7017 -0.363079 0
M  V30 1992 O 193.777 1.91848 -0.612875 0
M  V30 1993 C 190.842 3.18624 -1.36674 0
M  V30 1994 C 189.903 3.42999 -2.58167 0
M  V30 1995 C 189.136 4.72595 -2.4797 0
M  V30 1996 O 189.359 5.50006 -1.5116 0
M  V30 1997 O 188.293 4.98054 -3.37974 0
M  V30 1998 H 192.119 1.81023 -2.43853 0
M  V30 1999 H 189.704 0.836887 -1.2376 0
M  V30 2000 H 191.586 3.99847 -1.33043 0
M  V30 2001 H 190.261 3.20789 -0.433138 0
M  V30 2002 H 189.168 2.61653 -2.67373 0
M  V30 2003 H 190.501 3.45659 -3.50401 0
M  V30 2004 N 192.153 1.28127 0.917671 0
M  V30 2005 C 193.083 1.14248 2.03641 0
M  V30 2006 C 194.064 0.0412748 1.7005 0
M  V30 2007 O 195.249 0.217566 1.92977 0
M  V30 2008 C 192.379 0.799431 3.37974 0
M  V30 2009 C 191.333 1.85497 3.85713 0
M  V30 2010 C 190.659 1.36565 5.16966 0
M  V30 2011 C 191.959 3.26085 4.08002 0
M  V30 2012 H 193.653 2.07835 2.15511 0
M  V30 2013 H 191.199 1.00064 1.03553 0
M  V30 2014 H 193.152 0.689114 4.15727 0
M  V30 2015 H 191.876 -0.172145 3.26146 0
M  V30 2016 H 190.535 1.95437 3.10161 0
M  V30 2017 H 190.183 0.383253 5.01538 0
M  V30 2018 H 189.883 2.07143 5.49878 0
M  V30 2019 H 191.407 1.26848 5.97279 0
M  V30 2020 H 192.821 3.19089 4.76293 0
M  V30 2021 H 191.218 3.94462 4.52238 0
M  V30 2022 H 192.288 3.70394 3.12948 0
M  V30 2023 N 193.631 -1.12557 1.10312 0
M  V30 2024 C 194.856 -1.88405 0.867085 0
M  V30 2025 C 195.281 -1.79038 -0.576817 0
M  V30 2026 O 194.639 -1.14439 -1.40618 0
M  V30 2027 C 194.687 -3.3563 1.31851 0
M  V30 2028 O 193.791 -4.09565 0.482734 0
M  V30 2029 H 193.132 -0.585455 0.313271 0
M  V30 2030 H 195.662 -1.42352 1.4696 0
M  V30 2031 H 195.672 -3.86469 1.3079 0
M  V30 2032 H 194.347 -3.41765 2.37001 0
M  V30 2033 H 192.924 -3.68695 0.558448 0
M  V30 2034 N 195.109 -0.891671 -1.2995 0
M  V30 2035 C 196.019 -0.367691 -2.31701 0
M  V30 2036 C 197.035 0.533486 -1.6562 0
M  V30 2037 O 198.211 0.424997 -1.96865 0
M  V30 2038 C 195.276 0.403406 -3.44345 0
M  V30 2039 C 194.337 -0.528328 -4.26037 0
M  V30 2040 C 193.57 0.206063 -5.33302 0
M  V30 2041 O 193.793 1.43119 -5.52153 0
M  V30 2042 O 192.727 -0.447281 -6.00236 0
M  V30 2043 H 196.553 -1.21163 -2.78484 0
M  V30 2044 H 194.138 -0.655725 -1.34241 0
M  V30 2045 H 196.02 0.839753 -4.12948 0
M  V30 2046 H 194.695 1.22354 -2.99685 0
M  V30 2047 H 193.602 -1.01362 -3.60106 0
M  V30 2048 H 194.935 -1.31465 -4.74318 0
M  V30 2049 N 196.587 1.43421 -0.653314 0
M  V30 2050 C 197.534 2.30768 0.0382271 0
M  V30 2051 C 198.504 1.44755 0.814576 0
M  V30 2052 O 199.689 1.73624 0.791162 0
M  V30 2053 C 196.829 3.30336 0.998599 0
M  V30 2054 C 195.942 4.31448 0.218342 0
M  V30 2055 C 195.077 5.18098 1.17252 0
M  V30 2056 C 194.116 6.10902 0.382702 0
M  V30 2057 N 193.253 6.90176 1.28848 0
M  V30 2058 H 198.093 2.89357 -0.712511 0
M  V30 2059 H 195.63 1.42548 -0.363128 0
M  V30 2060 H 197.588 3.86572 1.56901 0
M  V30 2061 H 196.218 2.73397 1.71621 0
M  V30 2062 H 195.27 3.77506 -0.46836 0
M  V30 2063 H 196.582 4.97227 -0.395812 0
M  V30 2064 H 195.736 5.7896 1.81356 0
M  V30 2065 H 194.475 4.52444 1.82058 0
M  V30 2066 H 193.48 5.49128 -0.27169 0
M  V30 2067 H 194.705 6.78598 -0.260957 0
M  V30 2068 H 192.651 6.27171 1.92334 0
M  V30 2069 H 192.568 7.52478 0.728887 0
M  V30 2070 H 193.836 7.55543 1.91766 0
M  V30 2071 N 198.065 0.39524 1.52563 0
M  V30 2072 C 199.293 -0.184943 2.06072 0
M  V30 2073 C 199.708 -1.40021 1.26647 0
M  V30 2074 O 199.065 -1.79767 0.314672 0
M  V30 2075 C 199.116 -0.549179 3.57304 0
M  V30 2076 O 198.837 0.617813 4.33722 0
M  V30 2077 C 200.338 -1.18459 4.2718 0
M  V30 2078 H 197.558 -0.0265025 0.670476 0
M  V30 2079 H 200.102 0.562184 1.96621 0
M  V30 2080 H 198.257 -1.2462 3.66809 0
M  V30 2081 H 198.671 0.317091 5.23541 0
M  V30 2082 H 200.145 -1.38976 5.34219 0
M  V30 2083 H 200.622 -2.15368 3.82771 0
M  V30 2084 H 201.228 -0.528163 4.22008 0
M  V30 2085 N 199.544 -1.57102 0.125237 0
M  V30 2086 C 200.477 -2.11371 -0.860094 0
M  V30 2087 C 201.455 -1.03168 -1.25679 0
M  V30 2088 O 202.639 -1.30862 -1.35674 0
M  V30 2089 C 199.766 -2.61555 -2.1519 0
M  V30 2090 C 198.812 -3.81701 -1.9028 0
M  V30 2091 S 199.645 -5.23797 -1.11343 0
M  V30 2092 C 200.801 -5.77353 -2.41689 0
M  V30 2093 H 201.034 -2.94617 -0.39852 0
M  V30 2094 H 198.567 -1.54145 -0.0886555 0
M  V30 2095 H 200.525 -2.91122 -2.89411 0
M  V30 2096 H 199.186 -1.78479 -2.58465 0
M  V30 2097 H 198.379 -4.14985 -2.86014 0
M  V30 2098 H 197.981 -3.52783 -1.24178 0
M  V30 2099 H 200.273 -5.87458 -3.37489 0
M  V30 2100 H 201.216 -6.75323 -2.12942 0
M  V30 2101 H 201.624 -5.05457 -2.51342 0
M  V30 2102 N 201.022 0.148545 -1.56898 0
M  V30 2103 C 202.25 0.876389 -1.87422 0
M  V30 2104 C 202.665 1.74809 -0.713256 0
M  V30 2105 O 202.022 1.79725 0.317025 0
M  V30 2106 C 202.073 1.73438 -3.17178 0
M  V30 2107 O 201.794 0.897809 -4.28802 0
M  V30 2108 C 203.295 2.56993 -3.61205 0
M  V30 2109 H 200.515 0.253489 -0.621277 0
M  V30 2110 H 203.059 0.141798 -2.04008 0
M  V30 2111 H 201.214 2.42205 -3.0235 0
M  V30 2112 H 201.628 1.48672 -5.02988 0
M  V30 2113 H 203.102 3.12773 -4.54838 0
M  V30 2114 H 203.579 3.32958 -2.86419 0
M  V30 2115 H 204.185 1.9352 -3.78722 0
M  V30 2116 N 202.5 1.5196 0.417844 0
M  V30 2117 C 203.916 1.40569 0.755816 0
M  V30 2118 C 204.116 0.503316 1.95113 0
M  V30 2119 O 203.172 -0.0341925 2.52477 0
M  V30 2120 C 204.485 2.82947 1.01791 0
M  V30 2121 C 206.033 2.92231 1.12116 0
M  V30 2122 C 206.508 4.35559 1.41608 0
M  V30 2123 N 207.999 4.38753 1.48491 0
M  V30 2124 C 208.734 5.46705 1.7292 0
M  V30 2125 N 208.23 6.64788 1.95011 0
M  V30 2126 N 210.023 5.34209 1.74863 0
M  V30 2127 H 202.174 2.09168 -0.369098 0
M  V30 2128 H 204.437 0.942409 -0.102809 0
M  V30 2129 H 204.143 3.5106 0.212081 0
M  V30 2130 H 204.017 3.23462 1.94042 0
M  V30 2131 H 206.404 2.24304 1.9176 0
M  V30 2132 H 206.485 2.55185 0.177225 0
M  V30 2133 H 206.129 5.04042 0.624848 0
M  V30 2134 H 206.059 4.70133 2.37239 0
M  V30 2135 H 208.55 3.5363 1.33244 0
M  V30 2136 H 208.863 7.42845 2.13076 0
M  V30 2137 H 207.208 6.67869 1.92293 0
M  V30 2138 H 210.399 4.40937 1.57137 0
M  V30 2139 H 210.572 6.18415 1.93563 0
M  V30 2140 N 203.978 -0.674533 1.42435 0
M  V30 2141 C 204.941 -1.76986 1.45632 0
M  V30 2142 C 205.941 -1.5708 0.343871 0
M  V30 2143 O 207.131 -1.63367 0.604709 0
M  V30 2144 C 204.263 -3.15623 1.28822 0
M  V30 2145 H 205.456 -1.75539 2.43158 0
M  V30 2146 H 203.009 -0.884189 1.28887 0
M  V30 2147 H 203.744 -3.22696 0.322193 0
M  V30 2148 H 203.529 -3.31475 2.09444 0
M  V30 2149 H 205.019 -3.95537 1.33942 0
M  V30 2150 N 205.456 -1.28612 -0.910864 0
M  V30 2151 C 206.404 -1.1265 -2.03501 0
M  V30 2152 C 207.398 -0.0450054 -1.6934 0
M  V30 2153 O 208.604 -0.203988 -1.7884 0
M  V30 2154 H 204.979 -0.347639 -0.666822 0
M  V30 2155 H 206.95 -2.07849 -2.14106 0
M  V30 2156 C 205.699 -0.808143 -3.38178 0
M  V30 2157 H 205.022 -1.63231 -3.6496 0
M  V30 2158 H 206.462 -0.736426 -4.17556 0
M  V30 2159 C 204.921 0.488226 -3.33344 0
M  V30 2160 O 205.451 1.51766 -3.71927 0
M  V30 2161 N 203.657 0.490009 -2.86439 0
M  V30 2162 H 203.204 -0.348161 -2.55236 0
M  V30 2163 H 203.162 1.35741 -2.83587 0
M  V30 2164 N 206.934 1.1197 -1.10907 0
M  V30 2165 C 208.182 1.83225 -0.852819 0
M  V30 2166 C 208.503 1.84769 0.623341 0
M  V30 2167 O 207.773 1.3143 1.45269 0
M  V30 2168 H 206.353 0.67849 -0.312507 0
M  V30 2169 H 209.015 1.3556 -1.40033 0
M  V30 2170 H 208.111 2.87265 -1.22005 0
M  V30 2171 N 208.412 0.89855 1.29475 0
M  V30 2172 C 209.64 0.539261 1.99749 0
M  V30 2173 C 210.055 -0.875716 1.67262 0
M  V30 2174 O 209.412 -1.57786 0.917049 0
M  V30 2175 C 209.463 0.72061 3.54245 0
M  V30 2176 O 209.184 2.07989 3.8558 0
M  V30 2177 C 210.685 0.366118 4.41786 0
M  V30 2178 H 207.905 0.207047 0.638258 0
M  V30 2179 H 210.449 1.20758 1.65039 0
M  V30 2180 H 208.604 0.0994862 3.87272 0
M  V30 2181 H 209.018 2.10841 4.80257 0
M  V30 2182 H 210.492 0.543848 5.49314 0
M  V30 2183 H 210.969 -0.696763 4.33638 0
M  V30 2184 H 211.575 0.964135 4.14228 0
M  V30 2185 N 209.89 -1.43072 0.660911 0
M  V30 2186 C 211.118 -2.06067 0.185422 0
M  V30 2187 C 211.533 -1.49582 -1.15198 0
M  V30 2188 O 210.89 -0.630134 -1.71276 0
M  V30 2189 C 210.941 -3.61371 0.0966523 0
M  V30 2190 O 210.662 -4.15758 1.38119 0
M  V30 2191 C 212.163 -4.41455 -0.403996 0
M  V30 2192 H 209.383 -0.664459 0.0934604 0
M  V30 2193 H 211.927 -1.83447 0.90373 0
M  V30 2194 H 210.082 -3.8315 -0.572259 0
M  V30 2195 H 210.496 -5.09499 1.24542 0
M  V30 2196 H 211.97 -5.50437 -0.415045 0
M  V30 2197 H 212.447 -4.15036 -1.43674 0
M  V30 2198 H 213.053 -4.24663 0.232691 0
M  V30 2199 N 211.368 -0.403325 -1.52352 0
M  V30 2200 C 212.298 0.416205 -2.29761 0
M  V30 2201 C 213.279 1.05123 -1.33728 0
M  V30 2202 O 214.464 1.06134 -1.62632 0
M  V30 2203 C 211.594 1.53624 -3.11475 0
M  V30 2204 C 210.548 1.02653 -4.15507 0
M  V30 2205 C 209.874 2.23971 -4.85532 0
M  V30 2206 C 211.174 0.08463 -5.22231 0
M  V30 2207 H 212.868 -0.229701 -2.98518 0
M  V30 2208 H 210.414 -0.111913 -1.43564 0
M  V30 2209 H 212.367 2.1165 -3.64393 0
M  V30 2210 H 211.091 2.20994 -2.40477 0
M  V30 2211 H 209.75 0.46871 -3.63591 0
M  V30 2212 H 209.398 2.89883 -4.11068 0
M  V30 2213 H 209.098 1.90521 -5.55856 0
M  V30 2214 H 210.622 2.82614 -5.41259 0
M  V30 2215 H 212.036 0.573509 -5.70424 0
M  V30 2216 H 210.433 -0.160783 -5.99885 0
M  V30 2217 H 211.503 -0.86237 -4.7717 0
M  V30 2218 N 212.846 1.57033 -0.133567 0
M  V30 2219 C 213.756 2.19632 0.824564 0
M  V30 2220 C 214.772 1.17666 1.28182 0
M  V30 2221 O 215.948 1.50193 1.3418 0
M  V30 2222 C 213.013 2.79499 2.05137 0
M  V30 2223 C 212.074 3.96548 1.64464 0
M  V30 2224 C 211.307 4.5355 2.81297 0
M  V30 2225 O 211.53 4.09438 3.97136 0
M  V30 2226 O 210.464 5.44018 2.57542 0
M  V30 2227 H 214.29 3.01991 0.321766 0
M  V30 2228 H 211.875 1.49112 0.0927889 0
M  V30 2229 H 213.757 3.17602 2.7696 0
M  V30 2230 H 212.432 2.00162 2.54395 0
M  V30 2231 H 211.339 3.63186 0.897048 0
M  V30 2232 H 212.672 4.77364 1.19934 0
M  V30 2233 N 214.325 -0.140222 1.56975 0
M  V30 2234 C 215.555 -0.865181 1.87612 0
M  V30 2235 C 215.963 -1.74942 0.72055 0
M  V30 2236 O 215.306 -1.80917 -0.318561 0
M  V30 2237 C 215.368 -1.76782 3.13031 0
M  V30 2238 C 215.032 -1.06005 4.44536 0
M  V30 2239 C 216.029 -0.410768 5.18275 0
M  V30 2240 C 213.714 -1.04754 4.91255 0
M  V30 2241 C 215.708 0.241572 6.36942 0
M  V30 2242 C 213.395 -0.391394 6.09845 0
M  V30 2243 C 214.393 0.252029 6.82535 0
M  V30 2244 O 214.081 0.897757 7.98871 0
M  V30 2245 H 213.813 -0.255188 0.625983 0
M  V30 2246 H 216.367 -0.135653 2.04952 0
M  V30 2247 H 214.597 -2.53846 2.91718 0
M  V30 2248 H 216.286 -2.36533 3.29859 0
M  V30 2249 H 217.052 -0.412195 4.83245 0
M  V30 2250 H 212.931 -1.53777 4.34596 0
M  V30 2251 H 216.475 0.744375 6.93617 0
M  V30 2252 H 212.372 -0.387656 6.44335 0
M  V30 2253 H 213.14 0.800102 8.1458 0
M  V30 2254 N 215.803 -1.52179 -0.40978 0
M  V30 2255 C 217.028 -1.70347 -1.18308 0
M  V30 2256 C 217.453 -0.411887 -1.83535 0
M  V30 2257 O 216.811 0.630587 -1.6998 0
M  V30 2258 C 216.859 -2.83977 -2.22238 0
M  V30 2259 O 215.963 -2.495 -3.28365 0
M  V30 2260 H 215.304 -0.567103 -0.345384 0
M  V30 2261 H 217.834 -1.98879 -0.480445 0
M  V30 2262 H 217.844 -3.0887 -2.66577 0
M  V30 2263 H 216.519 -3.77685 -1.74146 0
M  V30 2264 H 215.096 -2.35277 -2.89308 0
M  V30 2265 N 217.281 0.66697 -1.42791 0
M  V30 2266 C 218.213 1.7925 -1.42836 0
M  V30 2267 C 219.226 1.59496 -0.326333 0
M  V30 2268 O 220.415 1.6847 -0.589916 0
M  V30 2269 C 217.515 3.16476 -1.21229 0
M  V30 2270 C 216.688 3.63011 -2.44013 0
M  V30 2271 C 215.747 4.78993 -2.17834 0
M  V30 2272 O 214.773 4.89137 -2.91091 0
M  V30 2273 N 215.975 5.68248 -1.18635 0
M  V30 2274 H 218.74 1.79695 -2.39854 0
M  V30 2275 H 216.301 0.850338 -1.37771 0
M  V30 2276 H 218.293 3.91734 -1.01621 0
M  V30 2277 H 216.863 3.10884 -0.32706 0
M  V30 2278 H 216.083 2.78346 -2.79137 0
M  V30 2279 H 217.371 3.90845 -3.25757 0
M  V30 2280 H 216.769 5.62712 -0.580615 0
M  V30 2281 H 215.326 6.43285 -1.05013 0
M  V30 2282 N 218.759 1.29093 0.90403 0
M  V30 2283 C 219.692 1.08176 2.00931 0
M  V30 2284 C 220.67 -0.005083 1.62599 0
M  V30 2285 O 221.854 0.144765 1.87943 0
M  V30 2286 C 218.981 0.645897 3.32484 0
M  V30 2287 C 218.027 1.73081 3.89801 0
M  V30 2288 S 218.86 3.32905 4.19446 0
M  V30 2289 C 220.016 2.91176 5.54046 0
M  V30 2290 H 220.249 2.01752 2.18365 0
M  V30 2291 H 217.782 1.13191 1.0501 0
M  V30 2292 H 219.74 0.401131 4.08535 0
M  V30 2293 H 218.401 -0.270188 3.12936 0
M  V30 2294 H 217.594 1.37768 4.84805 0
M  V30 2295 H 217.196 1.92888 3.20422 0
M  V30 2296 H 219.488 2.37952 6.34338 0
M  V30 2297 H 220.431 3.85014 5.94281 0
M  V30 2298 H 220.839 2.296 5.15698 0
M  V30 2299 N 220.237 -1.11381 1.11499 0
M  V30 2300 C 221.465 -1.86934 0.88675 0
M  V30 2301 C 221.88 -1.80195 -0.563476 0
M  V30 2302 O 221.237 -1.18367 -1.38908 0
M  V30 2303 C 221.288 -3.35722 1.34064 0
M  V30 2304 O 221.009 -3.4232 2.73401 0
M  V30 2305 C 222.51 -4.2818 1.14791 0
M  V30 2306 H 219.73 -0.591117 0.317523 0
M  V30 2307 H 222.274 -1.40865 1.48248 0
M  V30 2308 H 220.429 -3.79294 0.788355 0
M  V30 2309 H 220.843 -4.34971 2.93087 0
M  V30 2310 H 222.317 -5.30817 1.5145 0
M  V30 2311 H 222.794 -4.39113 0.0875279 0
M  V30 2312 H 223.4 -3.90402 1.68721 0
M  V30 2313 N 221.715 -0.905404 -1.28997 0
M  V30 2314 C 222.663 -0.377431 -2.29517 0
M  V30 2315 C 223.657 0.526461 -1.61012 0
M  V30 2316 O 224.863 0.40863 -1.753 0
M  V30 2317 H 221.238 -0.103437 -0.744852 0
M  V30 2318 H 223.209 -1.23848 -2.71485 0
M  V30 2319 C 221.958 0.374833 -3.45674 0
M  V30 2320 H 221.281 -0.311474 -3.98585 0
M  V30 2321 H 222.721 0.70903 -4.1803 0
M  V30 2322 C 221.18 1.57963 -2.97572 0
M  V30 2323 O 221.71 2.67886 -2.99333 0
M  V30 2324 N 219.916 1.42375 -2.53333 0
M  V30 2325 H 219.463 0.529466 -2.521 0
M  V30 2326 H 219.421 2.23117 -2.21509 0
M  V30 2327 N 223.193 1.4272 -0.668489 0
M  V30 2328 C 224.103 2.34596 0.0139753 0
M  V30 2329 C 225.119 1.5474 0.795703 0
M  V30 2330 O 226.295 1.87334 0.739466 0
M  V30 2331 C 223.36 3.33202 0.957982 0
M  V30 2332 C 222.421 4.28957 0.17149 0
M  V30 2333 C 221.654 5.22853 1.07053 0
M  V30 2334 O 221.877 5.21531 2.31001 0
M  V30 2335 O 220.811 5.9952 0.534727 0
M  V30 2336 H 224.637 2.9448 -0.742661 0
M  V30 2337 H 222.222 1.43117 -0.428705 0
M  V30 2338 H 224.104 3.93796 1.50008 0
M  V30 2339 H 222.779 2.758 1.69458 0
M  V30 2340 H 221.686 3.71796 -0.414558 0
M  V30 2341 H 223.019 4.89383 -0.52586 0
M  V30 2342 N 224.671 0.411399 1.52136 0
M  V30 2343 C 225.948 -0.222308 1.94333 0
M  V30 2344 C 226.328 -1.6242 1.34844 0
M  V30 2345 O 225.676 -2.22384 0.525145 0
M  V30 2346 C 225.886 -0.226345 3.48265 0
M  V30 2347 C 227.234 -0.444592 4.22266 0
M  V30 2348 O 228.258 -0.305602 3.54887 0
M  V30 2349 O 227.117 -0.718749 5.41753 0
M  V30 2350 H 224.211 -0.143907 0.814383 0
M  V30 2351 H 226.757 0.467506 1.63133 0
M  V30 2352 H 225.529 0.75475 3.83952 0
M  V30 2353 H 225.152 -0.960163 3.85832 0
M  V30 2354 N 226.149 -1.5696 0.141893 0
M  V30 2355 C 227.097 -2.17784 -0.816874 0
M  V30 2356 C 228.091 -1.1334 -1.25899 0
M  V30 2357 O 229.297 -1.316 -1.22806 0
M  V30 2358 H 225.672 -0.697278 -0.281615 0
M  V30 2359 H 227.643 -2.97087 -0.279621 0
M  V30 2360 C 226.392 -2.80983 -2.04802 0
M  V30 2361 H 225.715 -3.61062 -1.7168 0
M  V30 2362 H 227.155 -3.2705 -2.69841 0
M  V30 2363 C 225.614 -1.79228 -2.8527 0
M  V30 2364 O 226.144 -1.25962 -3.8144 0
M  V30 2365 N 224.35 -1.48647 -2.49704 0
M  V30 2366 H 223.897 -1.92155 -1.71564 0
M  V30 2367 H 223.855 -0.808115 -3.03837 0
M  V30 2368 N 227.627 0.131896 -1.57047 0
M  V30 2369 C 228.59 1.14638 -1.98471 0
M  V30 2370 C 229.59 1.35029 -0.873148 0
M  V30 2371 O 230.78 1.31764 -1.13946 0
M  V30 2372 C 227.912 2.50358 -2.31373 0
M  V30 2373 H 229.105 0.79064 -2.8929 0
M  V30 2374 H 226.658 0.375761 -1.51716 0
M  V30 2375 H 227.393 2.90876 -1.43393 0
M  V30 2376 H 227.178 2.36915 -3.12432 0
M  V30 2377 H 228.668 3.23395 -2.64207 0
M  V30 2378 N 229.106 1.52395 0.401703 0
M  V30 2379 C 230.069 1.75636 1.47257 0
M  V30 2380 C 231.069 0.62628 1.48103 0
M  V30 2381 O 232.259 0.894227 1.49497 0
M  V30 2382 C 229.391 1.84553 2.86624 0
M  V30 2383 H 230.584 2.71241 1.27938 0
M  V30 2384 H 228.137 1.42923 0.632662 0
M  V30 2385 H 228.872 0.908882 3.11303 0
M  V30 2386 H 228.657 2.66715 2.87412 0
M  V30 2387 H 230.147 2.04251 3.64241 0
M  V30 2388 N 230.584 -0.659388 1.43143 0
M  V30 2389 C 231.531 -1.77249 1.47822 0
M  V30 2390 C 232.501 -1.62818 0.328558 0
M  V30 2391 O 233.686 -1.83151 0.534838 0
M  V30 2392 C 230.826 -3.15371 1.40126 0
M  V30 2393 C 229.939 -3.4098 2.65249 0
M  V30 2394 C 229.074 -4.68915 2.49584 0
M  V30 2395 C 228.113 -4.87608 3.70006 0
M  V30 2396 N 227.25 -6.06796 3.53189 0
M  V30 2397 H 232.09 -1.72584 2.42938 0
M  V30 2398 H 229.627 -0.842297 1.20598 0
M  V30 2399 H 231.585 -3.9521 1.33659 0
M  V30 2400 H 230.215 -3.19121 0.485964 0
M  V30 2401 H 229.267 -2.55282 2.8202 0
M  V30 2402 H 230.579 -3.50681 3.54717 0
M  V30 2403 H 229.733 -5.56871 2.4079 0
M  V30 2404 H 228.472 -4.61524 1.5763 0
M  V30 2405 H 227.477 -3.9809 3.79215 0
M  V30 2406 H 228.702 -4.96834 4.62961 0
M  V30 2407 H 226.648 -6.00549 2.63965 0
M  V30 2408 H 226.565 -6.17428 4.36255 0
M  V30 2409 H 227.833 -6.9739 3.48236 0
M  V30 2410 N 232.062 -1.29571 -0.897171 0
M  V30 2411 C 233.025 -1.14913 -1.98312 0
M  V30 2412 C 234.025 -0.0838629 -1.60581 0
M  V30 2413 O 235.215 -0.331006 -1.71026 0
M  V30 2414 C 232.347 -0.757835 -3.3237 0
M  V30 2415 H 233.54 -2.11377 -2.12743 0
M  V30 2416 H 231.093 -1.12793 -1.08201 0
M  V30 2417 H 231.828 0.206837 -3.2364 0
M  V30 2418 H 231.613 -1.52755 -3.61121 0
M  V30 2419 H 233.103 -0.678408 -4.12053 0
M  V30 2420 N 233.54 1.10788 -1.12088 0
M  V30 2421 C 234.786 1.82942 -0.875226 0
M  V30 2422 C 235.119 1.84779 0.597538 0
M  V30 2423 O 234.394 1.30578 1.44152 0
M  V30 2424 C 234.677 3.29789 -1.44606 0
M  V30 2425 C 234.53 3.36307 -2.98693 0
M  V30 2426 C 235.849 4.26064 -1.10261 0
M  V30 2427 H 232.968 0.664195 -0.319397 0
M  V30 2428 H 235.61 1.29867 -1.38689 0
M  V30 2429 H 233.76 3.75118 -1.01089 0
M  V30 2430 H 235.432 2.99487 -3.50864 0
M  V30 2431 H 233.675 2.76318 -3.34411 0
M  V30 2432 H 234.346 4.39694 -3.33726 0
M  V30 2433 H 236.822 3.88951 -1.4784 0
M  V30 2434 H 235.698 5.27183 -1.52869 0
M  V30 2435 H 235.959 4.42098 -0.0142953 0
M  V30 2436 N 235.018 0.912232 1.28515 0
M  V30 2437 C 235.928 0.404506 2.31086 0
M  V30 2438 C 236.944 -0.50707 1.66448 0
M  V30 2439 O 238.12 -0.393624 1.97516 0
M  V30 2440 C 235.185 -0.348572 3.44943 0
M  V30 2441 C 234.246 0.59604 4.25142 0
M  V30 2442 C 233.479 -0.121194 5.33562 0
M  V30 2443 O 233.702 -1.34317 5.5436 0
M  V30 2444 O 232.636 0.542716 5.99448 0
M  V30 2445 H 236.462 1.25579 2.76521 0
M  V30 2446 H 234.047 0.676998 1.33181 0
M  V30 2447 H 235.929 -0.77395 4.14232 0
M  V30 2448 H 234.604 -1.17571 3.01594 0
M  V30 2449 H 233.511 1.07079 3.58448 0
M  V30 2450 H 234.844 1.38995 4.72167 0
M  V30 2451 N 236.496 -1.42363 0.676048 0
M  V30 2452 C 237.724 -2.05859 0.207268 0
M  V30 2453 C 238.139 -1.50796 -1.13605 0
M  V30 2454 O 237.496 -0.648265 -1.70598 0
M  V30 2455 C 237.547 -3.61248 0.134975 0
M  V30 2456 O 237.268 -4.1427 1.42521 0
M  V30 2457 C 238.769 -4.41859 -0.357151 0
M  V30 2458 H 235.989 -0.663431 0.100503 0
M  V30 2459 H 238.533 -1.82479 0.923136 0
M  V30 2460 H 236.688 -3.83735 -0.531588 0
M  V30 2461 H 237.102 -5.0815 1.29939 0
M  V30 2462 H 238.576 -5.50847 -0.356641 0
M  V30 2463 H 239.053 -4.16536 -1.39264 0
M  V30 2464 H 239.659 -4.24392 0.27772 0
M  V30 2465 N 237.974 -0.419461 -1.51915 0
M  V30 2466 C 238.904 0.391813 -2.30189 0
M  V30 2467 C 239.885 1.03699 -1.34836 0
M  V30 2468 O 241.07 1.04403 -1.63748 0
M  V30 2469 C 238.2 1.50312 -3.13087 0
M  V30 2470 C 237.154 0.9824 -4.16573 0
M  V30 2471 C 236.48 2.18809 -4.8788 0
M  V30 2472 C 237.78 0.0292356 -5.22292 0
M  V30 2473 H 239.474 -0.26135 -2.98257 0
M  V30 2474 H 237.02 -0.127134 -1.43438 0
M  V30 2475 H 238.973 2.07773 -3.66617 0
M  V30 2476 H 237.697 2.18431 -2.42807 0
M  V30 2477 H 236.356 0.430119 -3.64068 0
M  V30 2478 H 236.004 2.85507 -4.14119 0
M  V30 2479 H 235.704 1.84615 -5.57845 0
M  V30 2480 H 237.228 2.76858 -5.44226 0
M  V30 2481 H 238.642 0.512976 -5.71 0
M  V30 2482 H 237.039 -0.2244 -5.9968 0
M  V30 2483 H 238.109 -0.912931 -4.76228 0
M  V30 2484 N 239.452 1.56882 -0.150215 0
M  V30 2485 C 240.399 2.16922 0.788244 0
M  V30 2486 C 241.369 1.10303 1.24187 0
M  V30 2487 O 242.554 1.38359 1.31383 0
M  V30 2488 C 239.694 2.79754 2.02068 0
M  V30 2489 C 238.807 4.00775 1.61257 0
M  V30 2490 C 237.942 4.51595 2.79705 0
M  V30 2491 C 236.981 5.65074 2.35282 0
M  V30 2492 N 236.118 6.10499 3.4675 0
M  V30 2493 H 240.958 2.96779 0.269444 0
M  V30 2494 H 238.495 1.46599 0.12128 0
M  V30 2495 H 240.453 3.14329 2.74323 0
M  V30 2496 H 239.083 2.02536 2.51354 0
M  V30 2497 H 238.135 3.72158 0.787553 0
M  V30 2498 H 239.447 4.82978 1.24633 0
M  V30 2499 H 238.601 4.88242 3.60145 0
M  V30 2500 H 237.34 3.68406 3.19576 0
M  V30 2501 H 236.345 5.28 1.53283 0
M  V30 2502 H 237.57 6.50052 1.96493 0
M  V30 2503 H 235.516 5.30243 3.86236 0
M  V30 2504 H 235.433 6.87637 3.14152 0
M  V30 2505 H 236.701 6.51791 4.27537 0
M  V30 2506 N 240.93 -0.123565 1.57115 0
M  V30 2507 C 241.878 -1.17082 2.00984 0
M  V30 2508 C 242.872 -1.43136 0.906009 0
M  V30 2509 O 244.078 -1.43152 1.09121 0
M  V30 2510 H 240.453 -0.394653 0.64012 0
M  V30 2511 H 242.424 -0.774292 2.88179 0
M  V30 2512 C 241.173 -2.49057 2.42623 0
M  V30 2513 H 240.496 -2.29846 3.27125 0
M  V30 2514 H 241.936 -3.20906 2.7712 0
M  V30 2515 C 240.395 -3.11305 1.28805 0
M  V30 2516 O 240.925 -3.97171 0.60153 0
M  V30 2517 N 239.131 -2.71111 1.04628 0
M  V30 2518 H 238.678 -2.01382 1.60634 0
M  V30 2519 H 238.636 -3.1309 0.286685 0
M  V30 2520 N 242.408 -1.52605 -0.393616 0
M  V30 2521 C 243.656 -1.67093 -1.13685 0
M  V30 2522 C 243.977 -0.411011 -1.90619 0
M  V30 2523 O 243.247 0.574491 -1.87287 0
M  V30 2524 H 241.827 -0.615923 -0.422668 0
M  V30 2525 H 244.489 -1.89704 -0.447039 0
M  V30 2526 H 243.585 -2.51922 -1.84232 0
M  V30 2527 N 243.887 0.651787 -1.4349 0
M  V30 2528 C 245.136 1.40754 -1.44469 0
M  V30 2529 C 245.449 1.95463 -0.0731845 0
M  V30 2530 O 246.655 2.71471 0.0395721 0
M  V30 2531 C 245.111 2.54735 -2.5424 0
M  V30 2532 C 244.719 2.06628 -3.97504 0
M  V30 2533 C 246.463 3.32092 -2.64414 0
M  V30 2534 C 244.37 3.17829 -4.98737 0
M  V30 2535 H 243.3 0.528862 -0.53742 0
M  V30 2536 H 245.951 0.703365 -1.69485 0
M  V30 2537 H 244.333 3.2763 -2.22428 0
M  V30 2538 H 245.507 1.40734 -4.38783 0
M  V30 2539 H 243.822 1.42146 -3.91387 0
M  V30 2540 H 246.419 4.14952 -3.37223 0
M  V30 2541 H 246.762 3.80217 -1.69532 0
M  V30 2542 H 247.295 2.66279 -2.95534 0
M  V30 2543 H 244.034 2.74671 -5.95177 0
M  V30 2544 H 243.554 3.82429 -4.62069 0
M  V30 2545 H 245.233 3.82937 -5.21505 0
M  V30 2546 N 245.365 1.30045 0.890287 0
M  V30 2547 C 246.312 1.15976 1.99545 0
M  V30 2548 C 247.282 0.0506202 1.66023 0
M  V30 2549 O 248.467 0.219847 1.89529 0
M  V30 2550 C 245.607 0.852054 3.34416 0
M  V30 2551 C 244.72 2.04255 3.80662 0
M  V30 2552 C 243.855 1.6734 5.04154 0
M  V30 2553 C 242.894 2.82916 5.42794 0
M  V30 2554 N 242.031 2.46333 6.57468 0
M  V30 2555 H 246.871 2.10524 2.10911 0
M  V30 2556 H 244.408 1.04749 1.03276 0
M  V30 2557 H 246.366 0.654296 4.12037 0
M  V30 2558 H 244.996 -0.0565502 3.2275 0
M  V30 2559 H 244.048 2.35172 2.98995 0
M  V30 2560 H 245.36 2.90826 4.05242 0
M  V30 2561 H 244.514 1.43908 5.89386 0
M  V30 2562 H 243.253 0.779308 4.81433 0
M  V30 2563 H 242.258 3.0702 4.56091 0
M  V30 2564 H 243.483 3.73004 5.6749 0
M  V30 2565 H 241.429 1.59423 6.36334 0
M  V30 2566 H 241.346 3.26436 6.81891 0
M  V30 2567 H 242.614 2.26244 7.45945 0
M  V30 2568 N 246.843 -1.10192 1.12674 0
M  V30 2569 C 248.09 -1.82205 0.883606 0
M  V30 2570 C 248.418 -1.8532 -0.590492 0
M  V30 2571 O 247.673 -1.31137 -1.45264 0
M  V30 2572 C 247.972 -3.28552 1.4067 0
M  V30 2573 C 247.638 -3.45582 2.89627 0
M  V30 2574 C 246.3 -3.49937 3.30299 0
M  V30 2575 C 248.652 -3.50768 3.85501 0
M  V30 2576 C 245.98 -3.57049 4.65546 0
M  V30 2577 C 248.332 -3.59414 5.20581 0
M  V30 2578 C 246.996 -3.62034 5.60792 0
M  V30 2579 H 246.266 -0.666735 0.323334 0
M  V30 2580 H 248.913 -1.29868 1.40736 0
M  V30 2581 H 247.218 -3.83473 0.80347 0
M  V30 2582 H 248.915 -3.82788 1.19475 0
M  V30 2583 H 245.505 -3.42871 2.57172 0
M  V30 2584 H 249.689 -3.46651 3.55171 0
M  V30 2585 H 244.945 -3.57361 4.96088 0
M  V30 2586 H 249.119 -3.62371 5.94693 0
M  V30 2587 H 246.746 -3.67298 6.6558 0
M  V30 2588 N 248.321 -0.919034 -1.28029 0
M  V30 2589 C 249.231 -0.416756 -2.30869 0
M  V30 2590 C 250.247 0.498235 -1.66714 0
M  V30 2591 O 251.423 0.383144 -1.97722 0
M  V30 2592 C 248.488 0.330274 -3.45123 0
M  V30 2593 C 247.549 -0.618578 -4.2482 0
M  V30 2594 C 246.782 0.0928959 -5.33619 0
M  V30 2595 O 247.005 1.31375 -5.55065 0
M  V30 2596 O 245.939 -0.574499 -5.99152 0
M  V30 2597 H 249.765 -1.27043 -2.75851 0
M  V30 2598 H 247.35 -0.684052 -1.3282 0
M  V30 2599 H 249.232 0.751972 -4.14636 0
M  V30 2600 H 247.907 1.1597 -3.02213 0
M  V30 2601 H 246.814 -1.08978 -3.57875 0
M  V30 2602 H 248.147 -1.41497 -4.71423 0
M  V30 2603 N 249.799 1.42003 -0.683588 0
M  V30 2604 C 251.047 2.01015 -0.209101 0
M  V30 2605 C 251.368 1.54365 1.19149 0
M  V30 2606 O 250.638 0.769083 1.80172 0
M  V30 2607 H 249.218 0.743294 -0.074315 0
M  V30 2608 H 251.88 1.73798 -0.882066 0
M  V30 2609 H 250.976 3.11343 -0.2172 0
M  V30 2610 N 251.277 0.427512 1.51691 0
M  V30 2611 C 252.225 -0.403359 2.29076 0
M  V30 2612 C 253.219 -1.02962 1.34518 0
M  V30 2613 O 254.425 -0.965715 1.51901 0
M  V30 2614 H 250.8 -0.148879 0.737115 0
M  V30 2615 H 252.771 0.270295 2.97173 0
M  V30 2616 C 251.52 -1.49763 3.13794 0
M  V30 2617 H 250.843 -1.02508 3.86435 0
M  V30 2618 H 252.283 -2.05244 3.71014 0
M  V30 2619 C 250.742 -2.47536 2.28533 0
M  V30 2620 O 251.272 -3.51848 1.93819 0
M  V30 2621 N 249.478 -2.18187 1.91945 0
M  V30 2622 H 249.025 -1.33389 2.20375 0
M  V30 2623 H 248.983 -2.83848 1.35195 0
M  V30 2624 N 252.755 -1.56801 0.158532 0
M  V30 2625 C 253.685 -2.20347 -0.772609 0
M  V30 2626 C 254.666 -1.15518 -1.24859 0
M  V30 2627 O 255.851 -1.43902 -1.30406 0
M  V30 2628 C 252.981 -2.83417 -2.00729 0
M  V30 2629 C 251.935 -3.94174 -1.66765 0
M  V30 2630 C 251.261 -4.44233 -2.97592 0
M  V30 2631 C 252.561 -5.14392 -0.905447 0
M  V30 2632 H 254.255 -2.98413 -0.242959 0
M  V30 2633 H 251.801 -1.43537 -0.115419 0
M  V30 2634 H 253.754 -3.26543 -2.6636 0
M  V30 2635 H 252.478 -2.02701 -2.56086 0
M  V30 2636 H 251.137 -3.51684 -1.03508 0
M  V30 2637 H 250.785 -3.60325 -3.50963 0
M  V30 2638 H 250.485 -5.18945 -2.75626 0
M  V30 2639 H 252.009 -4.90037 -3.64274 0
M  V30 2640 H 253.423 -5.5429 -1.46408 0
M  V30 2641 H 251.82 -5.9494 -0.7853 0
M  V30 2642 H 252.89 -4.84795 0.100668 0
M  V30 2643 N 254.233 0.115231 -1.57178 0
M  V30 2644 C 255.196 1.12526 -1.99676 0
M  V30 2645 C 256.196 1.34095 -0.88742 0
M  V30 2646 O 257.386 1.30548 -1.15337 0
M  V30 2647 C 254.518 2.4789 -2.34015 0
M  V30 2648 H 255.711 0.759912 -2.90113 0
M  V30 2649 H 253.264 0.359648 -1.52106 0
M  V30 2650 H 253.999 2.89339 -1.4647 0
M  V30 2651 H 253.784 2.33588 -3.14927 0
M  V30 2652 H 255.274 3.20575 -2.67622 0
M  V30 2653 N 255.711 1.52812 0.385517 0
M  V30 2654 C 256.936 1.72207 1.15583 0
M  V30 2655 C 257.361 0.441034 1.82857 0
M  V30 2656 O 256.719 -0.603465 1.70962 0
M  V30 2657 C 256.767 2.87476 2.17692 0
M  V30 2658 O 255.871 2.54693 3.24354 0
M  V30 2659 H 255.212 0.572526 0.336319 0
M  V30 2660 H 257.742 1.99618 0.448744 0
M  V30 2661 H 257.752 3.13072 2.6163 0
M  V30 2662 H 256.427 3.80408 1.68115 0
M  V30 2663 H 255.004 2.3985 2.85529 0
M  V30 2664 N 257.189 -0.644168 1.43834 0
M  V30 2665 C 258.437 -1.40117 1.45642 0
M  V30 2666 C 258.758 -1.94814 0.0852413 0
M  V30 2667 O 258.028 -1.74988 -0.880688 0
M  V30 2668 H 256.608 -0.52005 0.536243 0
M  V30 2669 H 259.27 -0.7591 1.7951 0
M  V30 2670 H 258.366 -2.23902 2.17427 0
M  V30 2671 N 258.668 -1.30515 -0.883378 0
M  V30 2672 C 259.615 -1.17032 -1.98927 0
M  V30 2673 C 260.585 -0.0594241 -1.65994 0
M  V30 2674 O 261.77 -0.229895 -1.8941 0
M  V30 2675 C 258.91 -0.869777 -3.33959 0
M  V30 2676 C 258.023 -2.06271 -3.79574 0
M  V30 2677 C 257.158 -1.70011 -5.03259 0
M  V30 2678 C 256.197 -2.8579 -5.41286 0
M  V30 2679 N 255.334 -2.49816 -6.56153 0
M  V30 2680 H 260.174 -2.1164 -2.09792 0
M  V30 2681 H 257.711 -1.05296 -1.02719 0
M  V30 2682 H 259.669 -0.676138 -4.11685 0
M  V30 2683 H 258.299 0.0394332 -3.22776 0
M  V30 2684 H 257.351 -2.36755 -2.97744 0
M  V30 2685 H 258.663 -2.92971 -4.03694 0
M  V30 2686 H 257.817 -1.47032 -5.88614 0
M  V30 2687 H 256.556 -0.804829 -4.81013 0
M  V30 2688 H 255.561 -3.09434 -4.54456 0
M  V30 2689 H 256.786 -3.76008 -5.65504 0
M  V30 2690 H 254.732 -1.62795 -6.35479 0
M  V30 2691 H 254.649 -3.30048 -6.8015 0
M  V30 2692 H 255.917 -2.30197 -7.44735 0
M  V30 2693 N 260.146 1.09593 -1.13257 0
M  V30 2694 C 261.374 1.855 -0.916378 0
M  V30 2695 C 261.789 1.81069 0.534738 0
M  V30 2696 O 261.146 1.20562 1.37007 0
M  V30 2697 C 261.197 3.33546 -1.39388 0
M  V30 2698 O 260.918 3.37927 -2.78813 0
M  V30 2699 C 262.419 4.26299 -1.21588 0
M  V30 2700 H 259.639 0.585991 -0.326887 0
M  V30 2701 H 262.183 1.38488 -1.5047 0
M  V30 2702 H 260.338 3.77992 -0.848597 0
M  V30 2703 H 260.752 4.30254 -2.9997 0
M  V30 2704 H 262.226 5.28341 -1.59876 0
M  V30 2705 H 262.703 4.38918 -0.157376 0
M  V30 2706 H 263.309 3.87668 -1.7491 0
M  V30 2707 N 261.624 0.925811 1.2754 0
M  V30 2708 C 262.587 0.428129 2.25166 0
M  V30 2709 C 263.587 -0.452261 1.54309 0
M  V30 2710 O 264.777 -0.253608 1.72344 0
M  V30 2711 C 261.909 -0.384749 3.38722 0
M  V30 2712 H 263.102 1.29066 2.70706 0
M  V30 2713 H 260.655 0.706323 1.3943 0
M  V30 2714 H 261.39 -1.26618 2.98561 0
M  V30 2715 H 261.175 0.246454 3.91325 0
M  V30 2716 H 262.665 -0.723389 4.11287 0
M  V30 2717 N 263.102 -1.41638 0.69111 0
M  V30 2718 C 264.348 -2.01598 0.220519 0
M  V30 2719 C 264.681 -1.54594 -1.17535 0
M  V30 2720 O 263.956 -0.755177 -1.79241 0
M  V30 2721 C 264.239 -3.59062 0.273243 0
M  V30 2722 C 264.092 -4.16203 1.70573 0
M  V30 2723 C 265.411 -4.38546 -0.369457 0
M  V30 2724 H 262.53 -0.732468 0.0816045 0
M  V30 2725 H 265.172 -1.68445 0.878986 0
M  V30 2726 H 263.322 -3.87435 -0.287411 0
M  V30 2727 H 264.994 -3.98722 2.31989 0
M  V30 2728 H 263.237 -3.71414 2.2413 0
M  V30 2729 H 263.908 -5.25358 1.69419 0
M  V30 2730 H 266.384 -4.1596 0.107977 0
M  V30 2731 H 265.26 -5.48069 -0.302002 0
M  V30 2732 H 265.521 -4.17662 -1.44951 0
M  V30 2733 N 264.58 -0.43555 -1.51462 0
M  V30 2734 C 265.49 0.383001 -2.31453 0
M  V30 2735 C 266.506 1.02931 -1.4029 0
M  V30 2736 O 267.682 1.02507 -1.73362 0
M  V30 2737 C 264.747 1.47043 -3.13973 0
M  V30 2738 C 263.808 0.844433 -4.20913 0
M  V30 2739 C 263.041 1.88004 -4.9949 0
M  V30 2740 O 263.264 3.10199 -4.78678 0
M  V30 2741 O 262.198 1.47157 -5.83634 0
M  V30 2742 H 266.024 -0.269964 -3.02498 0
M  V30 2743 H 263.609 -0.19813 -1.4808 0
M  V30 2744 H 265.491 2.10113 -3.65281 0
M  V30 2745 H 264.166 2.10751 -2.45695 0
M  V30 2746 H 263.073 0.175729 -3.73687 0
M  V30 2747 H 264.406 0.250869 -4.9156 0
M  V30 2748 N 266.058 1.56714 -0.166846 0
M  V30 2749 C 267.307 1.95922 0.479318 0
M  V30 2750 C 267.62 1.05529 1.6469 0
M  V30 2751 O 268.826 1.34399 2.35901 0
M  V30 2752 C 267.282 3.48359 0.90412 0
M  V30 2753 C 266.89 4.47369 -0.237621 0
M  V30 2754 C 268.634 3.96394 1.51896 0
M  V30 2755 C 266.541 5.91039 0.206561 0
M  V30 2756 H 265.471 0.731495 0.18284 0
M  V30 2757 H 268.122 1.81728 -0.254363 0
M  V30 2758 H 266.504 3.57955 1.69365 0
M  V30 2759 H 267.678 4.49485 -1.01489 0
M  V30 2760 H 265.993 4.09366 -0.762128 0
M  V30 2761 H 268.59 5.01186 1.86325 0
M  V30 2762 H 268.933 3.39075 2.41524 0
M  V30 2763 H 269.466 3.89796 0.79395 0
M  V30 2764 H 266.205 6.52221 -0.654834 0
M  V30 2765 H 265.725 5.9224 0.949282 0
M  V30 2766 H 267.404 6.43707 0.651939 0
M  V30 2767 N 267.536 -0.106894 1.57237 0
M  V30 2768 C 268.483 -1.13049 2.01217 0
M  V30 2769 C 269.453 -1.40471 0.886403 0
M  V30 2770 O 270.638 -1.52133 1.15153 0
M  V30 2771 C 267.778 -2.4487 2.43172 0
M  V30 2772 C 266.891 -2.24281 3.69218 0
M  V30 2773 C 266.026 -3.49417 4.00101 0
M  V30 2774 C 265.065 -3.24038 5.19294 0
M  V30 2775 N 264.202 -4.41409 5.45988 0
M  V30 2776 H 269.042 -0.748456 2.88448 0
M  V30 2777 H 266.579 -0.358054 1.42676 0
M  V30 2778 H 268.537 -3.21786 2.65537 0
M  V30 2779 H 267.167 -2.80944 1.58967 0
M  V30 2780 H 266.219 -1.38224 3.54398 0
M  V30 2781 H 267.531 -2.01512 4.56283 0
M  V30 2782 H 266.685 -4.34746 4.2318 0
M  V30 2783 H 265.424 -3.75229 3.11535 0
M  V30 2784 H 264.429 -2.37102 4.96047 0
M  V30 2785 H 265.654 -2.99584 6.09447 0
M  V30 2786 H 263.6 -4.67319 4.60379 0
M  V30 2787 H 263.517 -4.21788 6.274 0
M  V30 2788 H 264.785 -5.27836 5.73593 0
M  V30 2789 N 269.014 -1.53014 -0.377408 0
M  V30 2790 C 269.924 -1.81557 -1.48574 0
M  V30 2791 C 270.94 -0.703102 -1.59162 0
M  V30 2792 O 272.116 -0.99192 -1.75279 0
M  V30 2793 C 269.181 -1.9889 -2.83978 0
M  V30 2794 C 268.242 -3.22801 -2.83016 0
M  V30 2795 C 267.475 -3.39298 -4.11962 0
M  V30 2796 O 267.698 -2.60345 -5.0752 0
M  V30 2797 O 266.632 -4.32604 -4.18494 0
M  V30 2798 H 270.458 -2.75695 -1.27382 0
M  V30 2799 H 268.043 -1.38248 -0.566373 0
M  V30 2800 H 269.925 -2.11931 -3.6423 0
M  V30 2801 H 268.6 -1.07942 -3.05172 0
M  V30 2802 H 267.507 -3.15193 -2.01505 0
M  V30 2803 H 268.84 -4.13632 -2.66775 0
M  V30 2804 N 270.492 0.636531 -1.44174 0
M  V30 2805 C 271.74 1.39343 -1.46383 0
M  V30 2806 C 272.061 1.94766 -0.0955715 0
M  V30 2807 O 271.331 1.75452 0.871395 0
M  V30 2808 H 269.911 0.517199 -0.538994 0
M  V30 2809 H 272.573 0.74957 -1.7991 0
M  V30 2810 H 271.669 2.22746 -2.18611 0
M  V30 2811 N 271.97 1.30982 0.876444 0
M  V30 2812 C 273.198 1.23242 1.6619 0
M  V30 2813 C 273.613 -0.203345 1.87702 0
M  V30 2814 O 272.97 -1.13317 1.43057 0
M  V30 2815 C 273.021 1.96623 3.03351 0
M  V30 2816 O 272.742 3.34594 2.82804 0
M  V30 2817 C 274.243 1.95644 3.97792 0
M  V30 2818 H 271.463 0.426126 0.518322 0
M  V30 2819 H 274.007 1.7275 1.09442 0
M  V30 2820 H 272.162 1.50892 3.56806 0
M  V30 2821 H 272.576 3.71873 3.69879 0
M  V30 2822 H 274.05 2.51511 4.91372 0
M  V30 2823 H 274.527 0.937395 4.2908 0
M  V30 2824 H 275.133 2.41225 3.50272 0
M  V30 2825 N 273.449 -1.08991 1.13837 0
M  V30 2826 C 274.695 -1.81526 0.90422 0
M  V30 2827 C 275.028 -1.85706 -0.568066 0
M  V30 2828 O 274.303 -1.32855 -1.42056 0
M  V30 2829 C 274.586 -3.27447 1.49835 0
M  V30 2830 C 274.439 -3.31512 3.04006 0
M  V30 2831 C 275.758 -4.24256 1.17025 0
M  V30 2832 H 272.877 -0.659029 0.329923 0
M  V30 2833 H 275.519 -1.27644 1.40737 0
M  V30 2834 H 273.669 -3.73462 1.07044 0
M  V30 2835 H 275.341 -2.93867 3.55584 0
M  V30 2836 H 273.584 -2.70963 3.38765 0
M  V30 2837 H 274.255 -4.34329 3.40679 0
M  V30 2838 H 276.731 -3.86549 1.54009 0
M  V30 2839 H 275.607 -5.24684 1.61237 0
M  V30 2840 H 275.868 -4.42019 0.0846274 0
M  V30 2841 N 274.927 -0.932562 -1.27047 0
M  V30 2842 C 276.155 -0.592031 -1.98249 0
M  V30 2843 C 276.57 0.831062 -1.69525 0
M  V30 2844 O 275.927 1.55299 -0.958561 0
M  V30 2845 C 275.978 -0.814279 -3.5221 0
M  V30 2846 O 275.699 -2.18139 -3.7993 0
M  V30 2847 C 277.2 -0.483121 -4.4066 0
M  V30 2848 H 274.42 -0.223896 -0.632544 0
M  V30 2849 H 276.964 -1.25091 -1.61779 0
M  V30 2850 H 275.119 -0.20213 -3.86872 0
M  V30 2851 H 275.533 -2.235 -4.74498 0
M  V30 2852 H 277.007 -0.689298 -5.47679 0
M  V30 2853 H 277.484 0.581546 -4.35333 0
M  V30 2854 H 278.09 -1.07362 -4.11526 0
M  V30 2855 N 276.405 1.4127 -0.698611 0
M  V30 2856 C 277.335 2.33447 -0.049629 0
M  V30 2857 C 278.316 1.51982 0.763898 0
M  V30 2858 O 279.501 1.80509 0.716257 0
M  V30 2859 C 276.631 3.35828 0.885267 0
M  V30 2860 C 275.585 4.27627 0.178613 0
M  V30 2861 C 274.911 5.20406 1.22807 0
M  V30 2862 C 276.211 5.13459 -0.956933 0
M  V30 2863 H 277.905 2.87966 -0.81951 0
M  V30 2864 H 275.451 1.38461 -0.395538 0
M  V30 2865 H 277.404 3.9924 1.34854 0
M  V30 2866 H 276.128 2.79666 1.68685 0
M  V30 2867 H 274.787 3.65643 -0.26466 0
M  V30 2868 H 274.435 4.60558 2.02226 0
M  V30 2869 H 274.135 5.82661 0.760239 0
M  V30 2870 H 275.659 5.86695 1.69179 0
M  V30 2871 H 277.073 5.70421 -0.573805 0
M  V30 2872 H 275.47 5.8467 -1.35205 0
M  V30 2873 H 276.54 4.50443 -1.79524 0
M  V30 2874 N 277.883 0.443576 1.51229 0
M  V30 2875 C 278.83 -0.364716 2.279 0
M  V30 2876 C 279.8 -1.0114 1.31757 0
M  V30 2877 O 280.985 -1.02912 1.60667 0
M  V30 2878 C 278.125 -1.45644 3.12861 0
M  V30 2879 C 277.238 -0.827269 4.24005 0
M  V30 2880 C 276.373 -1.89456 4.96266 0
M  V30 2881 C 275.412 -1.24416 5.99322 0
M  V30 2882 N 274.549 -2.25309 6.64966 0
M  V30 2883 H 279.389 0.295464 2.96532 0
M  V30 2884 H 276.926 0.157554 1.46254 0
M  V30 2885 H 278.884 -2.10076 3.6045 0
M  V30 2886 H 277.514 -2.08616 2.46331 0
M  V30 2887 H 276.566 -0.0710839 3.80334 0
M  V30 2888 H 277.878 -0.312481 4.9782 0
M  V30 2889 H 277.032 -2.61535 5.47434 0
M  V30 2890 H 275.771 -2.4431 4.22095 0
M  V30 2891 H 274.776 -0.508868 5.4744 0
M  V30 2892 H 276.001 -0.702882 6.75453 0
M  V30 2893 H 273.947 -2.79231 5.93604 0
M  V30 2894 H 273.864 -1.78739 7.34567 0
M  V30 2895 H 275.132 -2.96853 7.20763 0
M  V30 2896 N 279.361 -1.56624 0.175154 0
M  V30 2897 C 280.777 -1.58571 -0.180966 0
M  V30 2898 C 280.977 -1.19065 -1.6256 0
M  V30 2899 O 280.033 -0.904044 -2.35761 0
M  V30 2900 C 281.346 -3.00522 0.103326 0
M  V30 2901 C 282.894 -3.12972 0.0418426 0
M  V30 2902 C 283.369 -4.57022 0.299175 0
M  V30 2903 N 284.86 -4.62541 0.247086 0
M  V30 2904 C 285.595 -5.71857 0.420318 0
M  V30 2905 N 285.091 -6.89717 0.652816 0
M  V30 2906 N 286.884 -5.60972 0.355957 0
M  V30 2907 H 279.035 -1.80589 1.11809 0
M  V30 2908 H 281.298 -0.837178 0.444788 0
M  V30 2909 H 281.004 -3.33916 1.10422 0
M  V30 2910 H 280.878 -3.72344 -0.603299 0
M  V30 2911 H 283.265 -2.79403 -0.949636 0
M  V30 2912 H 283.346 -2.43578 0.781238 0
M  V30 2913 H 282.99 -4.913 1.28788 0
M  V30 2914 H 282.92 -5.24579 -0.460876 0
M  V30 2915 H 285.411 -3.77829 0.0731895 0
M  V30 2916 H 285.724 -7.68911 0.774347 0
M  V30 2917 H 284.069 -6.91572 0.689476 0
M  V30 2918 H 287.26 -4.67773 0.174882 0
M  V30 2919 H 287.433 -6.46111 0.494388 0
M  V30 2920 N 280.839 0.0985539 -1.57292 0
M  V30 2921 C 281.749 1.13824 -2.05137 0
M  V30 2922 C 282.765 1.44076 -0.975604 0
M  V30 2923 O 283.941 1.54786 -1.28853 0
M  V30 2924 C 281.006 2.43969 -2.46333 0
M  V30 2925 C 280.067 2.2093 -3.68087 0
M  V30 2926 C 279.3 3.44869 -4.0731 0
M  V30 2927 O 279.523 4.52972 -3.46659 0
M  V30 2928 O 278.457 3.34661 -5.00285 0
M  V30 2929 H 282.283 0.761881 -2.93988 0
M  V30 2930 H 279.868 0.310818 -1.46131 0
M  V30 2931 H 281.75 3.20609 -2.73473 0
M  V30 2932 H 280.425 2.81038 -1.60621 0
M  V30 2933 H 279.332 1.42081 -3.46069 0
M  V30 2934 H 280.665 1.88755 -4.54568 0
M  V30 2935 N 282.317 1.53212 0.369288 0
M  V30 2936 C 283.566 1.68436 1.10961 0
M  V30 2937 C 283.879 0.440738 1.9057 0
M  V30 2938 O 285.085 0.473446 2.6734 0
M  V30 2939 C 283.541 2.97744 2.0218 0
M  V30 2940 C 283.149 4.29355 1.279 0
M  V30 2941 C 284.893 3.22334 2.76226 0
M  V30 2942 C 282.8 5.49755 2.17999 0
M  V30 2943 H 281.73 0.627568 0.41794 0
M  V30 2944 H 284.381 1.79713 0.370884 0
M  V30 2945 H 282.763 2.8026 2.79768 0
M  V30 2946 H 283.937 4.57458 0.554007 0
M  V30 2947 H 282.252 4.11179 0.657311 0
M  V30 2948 H 284.849 4.09471 3.43857 0
M  V30 2949 H 285.192 2.38238 3.41392 0
M  V30 2950 H 285.725 3.40475 2.05723 0
M  V30 2951 H 282.464 6.36318 1.57417 0
M  V30 2952 H 281.984 5.25937 2.88359 0
M  V30 2953 H 283.663 5.84401 2.77641 0
M  V30 2954 N 283.795 -0.628877 1.44509 0
M  V30 2955 C 285.072 -1.38733 1.37886 0
M  V30 2956 C 285.452 -2.11065 0.0387008 0
M  V30 2957 O 284.8 -2.06476 -0.97878 0
M  V30 2958 C 285.01 -2.35188 2.57852 0
M  V30 2959 C 286.358 -2.9845 3.02014 0
M  V30 2960 O 287.382 -2.45513 2.58073 0
M  V30 2961 O 286.241 -3.94487 3.78209 0
M  V30 2962 H 283.335 -0.621015 0.54614 0
M  V30 2963 H 285.881 -0.653744 1.56602 0
M  V30 2964 H 284.653 -1.80855 3.46998 0
M  V30 2965 H 284.276 -3.1596 2.4136 0
M  V30 2966 N 285.273 -1.31445 -0.869486 0
M  V30 2967 C 286.22 -1.19135 -1.97675 0
M  V30 2968 C 287.19 -0.0770266 -1.65921 0
M  V30 2969 O 288.375 -0.249972 -1.89155 0
M  V30 2970 C 285.515 -0.905149 -3.33018 0
M  V30 2971 C 284.628 -2.10285 -3.77365 0
M  V30 2972 C 283.763 -1.75339 -5.01427 0
M  V30 2973 C 282.802 -2.91515 -5.38224 0
M  V30 2974 N 281.939 -2.56762 -6.53466 0
M  V30 2975 H 286.779 -2.13853 -2.07535 0
M  V30 2976 H 284.316 -1.06379 -1.01597 0
M  V30 2977 H 286.274 -0.719765 -4.10944 0
M  V30 2978 H 284.904 0.00519624 -3.228 0
M  V30 2979 H 283.956 -2.39899 -2.95216 0
M  V30 2980 H 285.268 -2.97237 -4.00564 0
M  V30 2981 H 284.422 -1.53266 -5.87022 0
M  V30 2982 H 283.161 -0.855801 -4.80133 0
M  V30 2983 H 282.166 -3.14237 -4.51149 0
M  V30 2984 H 283.391 -3.81985 -5.61484 0
M  V30 2985 H 281.337 -1.69526 -6.33717 0
M  V30 2986 H 281.254 -3.37243 -6.76612 0
M  V30 2987 H 282.522 -2.38083 -7.42251 0
M  V30 2988 N 286.751 1.08385 -1.14413 0
M  V30 2989 C 287.699 2.17406 -0.826888 0
M  V30 2990 C 288.693 1.6827 0.195312 0
M  V30 2991 O 289.899 1.79927 0.0513892 0
M  V30 2992 H 286.274 0.70934 -0.249681 0
M  V30 2993 H 288.245 2.41388 -1.75426 0
M  V30 2994 C 286.994 3.46215 -0.320979 0
M  V30 2995 H 286.317 3.84401 -1.0989 0
M  V30 2996 H 287.757 4.23777 -0.137549 0
M  V30 2997 C 286.216 3.23067 0.955472 0
M  V30 2998 O 286.746 3.4668 2.02918 0
M  V30 2999 N 284.952 2.7661 0.890798 0
M  V30 3000 H 284.499 2.57594 0.0168815 0
M  V30 3001 H 284.457 2.61501 1.74542 0
M  V30 3002 N 288.23 0.939286 1.26551 0
M  V30 3003 C 289.478 0.58469 1.93457 0
M  V30 3004 C 289.799 -0.878774 1.74076 0
M  V30 3005 O 289.069 -1.62421 1.09528 0
M  V30 3006 H 287.649 0.21325 0.715914 0
M  V30 3007 H 290.311 1.1942 1.54029 0
M  V30 3008 H 289.407 0.800849 3.0165 0
M  V30 3009 N 289.708 -1.40897 0.706093 0
M  V30 3010 C 290.655 -2.30751 0.0474474 0
M  V30 3011 C 291.625 -1.47678 -0.76029 0
M  V30 3012 O 292.81 -1.76441 -0.726177 0
M  V30 3013 C 289.95 -3.33815 -0.875309 0
M  V30 3014 C 289.063 -4.31961 -0.0580623 0
M  V30 3015 C 288.198 -5.22093 -0.979425 0
M  V30 3016 C 287.237 -6.11902 -0.155706 0
M  V30 3017 N 286.374 -6.94482 -1.03144 0
M  V30 3018 H 291.214 -2.86513 0.819413 0
M  V30 3019 H 288.751 -1.41102 0.415783 0
M  V30 3020 H 290.709 -3.92129 -1.42446 0
M  V30 3021 H 289.339 -2.79579 -1.61356 0
M  V30 3022 H 288.391 -3.75507 0.608147 0
M  V30 3023 H 289.703 -4.95415 0.580082 0
M  V30 3024 H 288.857 -5.85292 -1.59744 0
M  V30 3025 H 287.596 -4.5889 -1.65141 0
M  V30 3026 H 286.601 -5.47742 0.475309 0
M  V30 3027 H 287.826 -6.77162 0.512635 0
M  V30 3028 H 285.772 -6.33877 -1.68924 0
M  V30 3029 H 285.689 -7.54665 -0.449108 0
M  V30 3030 H 286.957 -7.6214 -1.63593 0
M  V30 3031 N 291.186 -0.45159 -1.50991 0
M  V30 3032 C 292.432 0.110237 -2.025 0
M  V30 3033 C 292.765 1.41109 -1.33424 0
M  V30 3034 O 292.04 1.89135 -0.453659 0
M  V30 3035 C 292.323 0.314271 -3.58726 0
M  V30 3036 C 292.176 -1.00623 -4.38401 0
M  V30 3037 C 293.495 1.07767 -4.26702 0
M  V30 3038 H 290.614 0.0385897 -0.735989 0
M  V30 3039 H 293.256 -0.593374 -1.80497 0
M  V30 3040 H 291.406 0.913601 -3.77605 0
M  V30 3041 H 293.078 -1.64064 -4.31139 0
M  V30 3042 H 291.321 -1.6075 -4.02917 0
M  V30 3043 H 291.992 -0.817341 -5.45915 0
M  V30 3044 H 294.468 0.56986 -4.12179 0
M  V30 3045 H 293.344 1.18921 -5.35863 0
M  V30 3046 H 293.605 2.10939 -3.88532 0
M  V30 3047 N 292.664 1.56529 -0.183458 0
M  V30 3048 C 293.892 2.01623 0.464285 0
M  V30 3049 C 294.307 1.06366 1.55986 0
M  V30 3050 O 293.664 0.0665398 1.82379 0
M  V30 3051 C 293.715 3.46475 1.03139 0
M  V30 3052 O 293.436 4.38095 -0.0204675 0
M  V30 3053 C 294.937 4.0703 1.75617 0
M  V30 3054 H 292.157 0.660596 0.117704 0
M  V30 3055 H 294.701 2.02451 -0.288751 0
M  V30 3056 H 292.856 3.46383 1.73486 0
M  V30 3057 H 293.27 5.22973 0.399952 0
M  V30 3058 H 294.744 5.10271 2.10542 0
M  V30 3059 H 295.221 3.49819 2.65563 0
M  V30 3060 H 295.827 4.1086 1.09882 0
M  V30 3061 N 294.142 -0.090211 1.57342 0
M  V30 3062 C 295.388 -0.793982 1.86611 0
M  V30 3063 C 295.721 -1.78142 0.773252 0
M  V30 3064 O 294.996 -1.93271 -0.218304 0
M  V30 3065 C 295.279 -1.51839 3.26523 0
M  V30 3066 C 295.132 -0.548609 4.46442 0
M  V30 3067 C 296.451 -2.46779 3.64401 0
M  V30 3068 H 293.57 -0.287186 0.678744 0
M  V30 3069 H 296.212 -0.0575076 1.89913 0
M  V30 3070 H 294.362 -2.14617 3.23839 0
M  V30 3071 H 296.034 0.0725513 4.61243 0
M  V30 3072 H 294.277 0.137614 4.33582 0
M  V30 3073 H 294.948 -1.09271 5.41076 0
M  V30 3074 H 297.424 -1.94089 3.68061 0
M  V30 3075 H 296.3 -2.94479 4.63221 0
M  V30 3076 H 296.561 -3.30758 2.93346 0
M  V30 3077 N 295.62 -1.53406 -0.361157 0
M  V30 3078 C 296.845 -1.74024 -1.12829 0
M  V30 3079 C 297.27 -0.470069 -1.82132 0
M  V30 3080 O 296.628 0.57619 -1.719 0
M  V30 3081 C 296.676 -2.90903 -2.13091 0
M  V30 3082 O 295.78 -2.59821 -3.20261 0
M  V30 3083 H 295.121 -0.577804 -0.327168 0
M  V30 3084 H 297.651 -2.00307 -0.41693 0
M  V30 3085 H 297.661 -3.17194 -2.56616 0
M  V30 3086 H 296.336 -3.83034 -1.62042 0
M  V30 3087 H 294.913 -2.44362 -2.81677 0
M  V30 3088 N 297.098 0.621204 -1.44841 0
M  V30 3089 C 298.028 1.74366 -1.55303 0
M  V30 3090 C 299.009 1.65199 -0.405385 0
M  V30 3091 O 300.194 1.83807 -0.626787 0
M  V30 3092 C 297.324 3.12931 -1.50637 0
M  V30 3093 C 296.278 3.36896 -2.63979 0
M  V30 3094 C 295.604 4.75594 -2.44366 0
M  V30 3095 C 296.904 3.28483 -4.06074 0
M  V30 3096 H 298.598 1.65867 -2.49256 0
M  V30 3097 H 296.144 0.796558 -1.19962 0
M  V30 3098 H 298.097 3.9124 -1.56555 0
M  V30 3099 H 296.821 3.22237 -0.532057 0
M  V30 3100 H 295.48 2.60972 -2.57467 0
M  V30 3101 H 295.128 4.81616 -1.45105 0
M  V30 3102 H 294.828 4.92586 -3.20364 0
M  V30 3103 H 296.352 5.5612 -2.52117 0
M  V30 3104 H 297.766 3.96684 -4.13902 0
M  V30 3105 H 296.163 3.57008 -4.82354 0
M  V30 3106 H 297.233 2.26133 -4.28943 0
M  V30 3107 N 298.576 1.31904 0.862503 0
M  V30 3108 C 299.524 1.20125 1.9918 0
M  V30 3109 C 300.518 0.107824 1.69056 0
M  V30 3110 O 301.724 0.270223 1.7796 0
M  V30 3111 H 298.099 0.372148 0.65346 0
M  V30 3112 H 300.07 2.15652 2.06244 0
M  V30 3113 C 298.819 0.933099 3.34946 0
M  V30 3114 H 298.142 1.76664 3.5865 0
M  V30 3115 H 299.582 0.890892 4.14535 0
M  V30 3116 C 298.041 -0.364172 3.34926 0
M  V30 3117 O 298.571 -1.37858 3.77304 0
M  V30 3118 N 296.777 -0.383362 2.8806 0
M  V30 3119 H 296.324 0.442651 2.53768 0
M  V30 3120 H 296.282 -1.25123 2.8843 0
M  V30 3121 N 300.054 -1.07777 1.14986 0
M  V30 3122 C 301.331 -1.7699 0.832695 0
M  V30 3123 C 301.711 -2.001 -0.672561 0
M  V30 3124 O 301.059 -1.61598 -1.6155 0
M  V30 3125 C 301.269 -3.08139 1.63863 0
M  V30 3126 C 302.617 -3.8256 1.84208 0
M  V30 3127 O 303.641 -3.17939 1.60603 0
M  V30 3128 O 302.5 -4.98612 2.23714 0
M  V30 3129 H 299.594 -0.768389 0.305791 0
M  V30 3130 H 302.14 -1.14182 1.25541 0
M  V30 3131 H 300.912 -2.86909 2.6608 0
M  V30 3132 H 300.535 -3.78678 1.21197 0
M  V30 3133 N 301.532 -0.945985 -1.26051 0
M  V30 3134 C 302.76 -0.613025 -1.9761 0
M  V30 3135 C 303.175 0.813035 -1.70397 0
M  V30 3136 O 302.532 1.54274 -0.974979 0
M  V30 3137 C 302.583 -0.85159 -3.51326 0
M  V30 3138 O 302.304 -2.22157 -3.77595 0
M  V30 3139 C 303.805 -0.529831 -4.40122 0
M  V30 3140 H 301.025 -0.230593 -0.630133 0
M  V30 3141 H 303.569 -1.268 -1.60443 0
M  V30 3142 H 301.724 -0.243151 -3.86636 0
M  V30 3143 H 302.138 -2.2852 -4.721 0
M  V30 3144 H 303.612 -0.747348 -5.46917 0
M  V30 3145 H 304.089 0.535341 -4.35925 0
M  V30 3146 H 304.695 -1.11721 -4.10364 0
M  V30 3147 N 303.011 1.40521 -0.713556 0
M  V30 3148 C 303.974 2.29098 -0.0684347 0
M  V30 3149 C 304.974 1.45268 0.689472 0
M  V30 3150 O 306.164 1.66205 0.521677 0
M  V30 3151 C 303.296 3.28446 0.913024 0
M  V30 3152 H 304.489 2.87645 -0.84855 0
M  V30 3153 H 302.042 1.48809 -0.47809 0
M  V30 3154 H 302.777 2.74913 1.72027 0
M  V30 3155 H 302.562 3.90327 0.372472 0
M  V30 3156 H 304.052 3.94777 1.36165 0
M  V30 3157 N 304.489 0.459591 1.5075 0
M  V30 3158 C 305.714 -0.0996819 2.0716 0
M  V30 3159 C 306.139 -1.33761 1.32249 0
M  V30 3160 O 305.497 -1.77551 0.366786 0
M  V30 3161 C 305.545 -0.378226 3.58611 0
M  V30 3162 O 304.649 -1.46081 3.85661 0
M  V30 3163 H 303.99 0.00791392 0.663953 0
M  V30 3164 H 306.52 0.647329 1.9409 0
M  V30 3165 H 306.53 -0.622135 4.03229 0
M  V30 3166 H 305.205 0.526439 4.12555 0
M  V30 3167 H 303.782 -1.20511 3.5289 0
M  V30 3168 N 305.967 -1.56429 0.191757 0
M  V30 3169 C 307.215 -1.97095 -0.447006 0
M  V30 3170 C 307.536 -1.07967 -1.62383 0
M  V30 3171 O 306.806 -0.150248 -1.95323 0
M  V30 3172 H 305.386 -0.727832 -0.168135 0
M  V30 3173 H 308.048 -1.92911 0.27771 0
M  V30 3174 H 307.144 -3.01848 -0.793371 0
M  V30 3175 N 307.445 0.0818655 -1.57387 0
M  V30 3176 C 308.67 0.799946 -1.91352 0
M  V30 3177 C 309.095 1.70833 -0.787258 0
M  V30 3178 O 308.453 1.79419 0.26048 0
M  V30 3179 C 308.501 1.57812 -3.24234 0
M  V30 3180 O 307.605 2.68806 -3.12757 0
M  V30 3181 H 306.946 0.21891 -0.626877 0
M  V30 3182 H 309.476 0.0531256 -2.04531 0
M  V30 3183 H 309.486 1.95952 -3.57864 0
M  V30 3184 H 308.161 0.911548 -4.05788 0
M  V30 3185 H 306.738 2.33597 -2.90666 0
M  V30 3186 N 308.923 1.53595 0.353017 0
M  V30 3187 C 309.87 1.80919 1.43308 0
M  V30 3188 C 310.84 0.654288 1.5267 0
M  V30 3189 O 312.025 0.897759 1.6836 0
M  V30 3190 C 309.165 2.01605 2.80089 0
M  V30 3191 C 308.278 3.29321 2.79593 0
M  V30 3192 C 307.413 3.40125 4.0803 0
M  V30 3193 C 306.452 4.61826 4.01725 0
M  V30 3194 N 305.589 4.69716 5.21834 0
M  V30 3195 H 310.429 2.73074 1.19308 0
M  V30 3196 H 307.966 1.35263 0.578131 0
M  V30 3197 H 309.924 2.11586 3.59565 0
M  V30 3198 H 308.554 1.12772 3.0246 0
M  V30 3199 H 307.606 3.28229 1.92276 0
M  V30 3200 H 308.918 4.18884 2.70809 0
M  V30 3201 H 308.072 3.49488 4.95927 0
M  V30 3202 H 306.811 2.48601 4.19582 0
M  V30 3203 H 305.816 4.52552 3.12213 0
M  V30 3204 H 307.041 5.54705 3.91764 0
M  V30 3205 H 304.987 3.81097 5.33948 0
M  V30 3206 H 304.904 5.53202 5.1527 0
M  V30 3207 H 306.172 4.83376 6.11529 0
M  V30 3208 N 310.401 -0.613514 1.45168 0
M  V30 3209 C 311.348 -1.72456 1.53387 0
M  V30 3210 C 312.318 -1.6169 0.380191 0
M  V30 3211 O 313.503 -1.81356 0.592836 0
M  V30 3212 C 310.643 -3.10753 1.50088 0
M  V30 3213 C 309.756 -3.32368 2.75963 0
M  V30 3214 C 308.891 -4.60737 2.64376 0
M  V30 3215 C 307.93 -4.7559 3.85332 0
M  V30 3216 N 307.067 -5.95253 3.72315 0
M  V30 3217 H 311.907 -1.64768 2.48305 0
M  V30 3218 H 309.444 -0.803503 1.23216 0
M  V30 3219 H 311.402 -3.90758 1.46164 0
M  V30 3220 H 310.032 -3.17413 0.587243 0
M  V30 3221 H 309.084 -2.4618 2.89999 0
M  V30 3222 H 310.396 -3.39218 3.65695 0
M  V30 3223 H 309.55 -5.48928 2.58385 0
M  V30 3224 H 308.289 -4.56275 1.72233 0
M  V30 3225 H 307.294 -3.85824 3.91688 0
M  V30 3226 H 308.519 -4.81854 4.78533 0
M  V30 3227 H 306.465 -5.91847 2.82937 0
M  V30 3228 H 306.382 -6.03236 4.55677 0
M  V30 3229 H 307.65 -6.85958 3.70246 0
M  V30 3230 N 311.879 -1.3236 -0.855495 0
M  V30 3231 C 313.107 -1.2587 -1.64208 0
M  V30 3232 C 313.522 0.173457 -1.88002 0
M  V30 3233 O 312.879 1.11027 -1.44842 0
M  V30 3234 C 312.93 -2.01424 -3.00184 0
M  V30 3235 O 312.651 -3.39051 -2.77445 0
M  V30 3236 C 314.152 -2.01948 -3.94629 0
M  V30 3237 H 311.372 -0.434318 -0.511477 0
M  V30 3238 H 313.916 -1.74469 -1.0668 0
M  V30 3239 H 312.071 -1.56549 -3.5436 0
M  V30 3240 H 312.485 -3.77711 -3.63916 0
M  V30 3241 H 313.959 -2.59297 -4.87308 0
M  V30 3242 H 314.436 -1.00554 -4.27534 0
M  V30 3243 H 315.042 -2.46767 -3.4639 0
M  V30 3244 N 313.357 1.07166 -1.15556 0
M  V30 3245 C 314.32 2.12589 -0.856644 0
M  V30 3246 C 315.32 1.6015 0.14444 0
M  V30 3247 O 316.51 1.7399 -0.0854163 0
M  V30 3248 C 313.642 3.39753 -0.279405 0
M  V30 3249 H 314.835 2.40539 -1.79112 0
M  V30 3250 H 312.388 1.23086 -0.963298 0
M  V30 3251 H 313.123 3.17447 0.663174 0
M  V30 3252 H 312.908 3.79117 -1.00063 0
M  V30 3253 H 314.398 4.17507 -0.0879113 0
M  V30 3254 N 314.835 0.952656 1.25548 0
M  V30 3255 C 316.06 0.623025 1.97821 0
M  V30 3256 C 316.485 -0.7976 1.70352 0
M  V30 3257 O 315.843 -1.53905 0.958283 0
M  V30 3258 C 315.891 0.885532 3.49558 0
M  V30 3259 O 314.995 -0.0366641 4.12384 0
M  V30 3260 H 314.336 0.237082 0.620232 0
M  V30 3261 H 316.866 1.27871 1.59719 0
M  V30 3262 H 316.876 0.811009 3.99858 0
M  V30 3263 H 315.551 1.92094 3.6888 0
M  V30 3264 H 314.128 0.0898954 3.72792 0
M  V30 3265 N 316.313 -1.40141 0.720998 0
M  V30 3266 C 317.559 -2.01572 0.272075 0
M  V30 3267 C 317.914 -1.5616 -1.12391 0
M  V30 3268 O 317.207 -0.774198 -1.75262 0
M  V30 3269 C 317.401 -3.56165 0.296892 0
M  V30 3270 C 317.23 -4.16584 1.69375 0
M  V30 3271 C 316 -4.49783 2.30269 0
M  V30 3272 C 318.198 -4.41076 2.64493 0
M  V30 3273 N 316.18 -4.95626 3.62254 0
M  V30 3274 C 317.551 -4.88971 3.81192 0
M  V30 3275 C 319.606 -4.23122 2.62435 0
M  V30 3276 C 318.309 -5.20796 4.96149 0
M  V30 3277 C 320.335 -4.56052 3.76524 0
M  V30 3278 C 319.697 -5.04141 4.91956 0
M  V30 3279 H 315.796 -0.768343 0.145511 0
M  V30 3280 H 318.38 -1.70287 0.943959 0
M  V30 3281 H 316.551 -3.86868 -0.344578 0
M  V30 3282 H 318.283 -4.04346 -0.169254 0
M  V30 3283 H 315.038 -4.37101 1.82318 0
M  V30 3284 H 315.462 -5.22923 4.29977 0
M  V30 3285 H 320.104 -3.85158 1.74393 0
M  V30 3286 H 317.822 -5.57672 5.84831 0
M  V30 3287 H 321.408 -4.43796 3.76213 0
M  V30 3288 H 320.288 -5.29142 5.78774 0
M  V30 3289 N 317.792 -0.46758 -1.50504 0
M  V30 3290 C 318.724 0.364655 -2.26281 0
M  V30 3291 C 319.737 0.960151 -1.31472 0
M  V30 3292 O 320.926 0.849153 -1.57008 0
M  V30 3293 C 318.026 1.52509 -3.02645 0
M  V30 3294 C 317.199 1.04302 -4.24782 0
M  V30 3295 C 316.258 2.07709 -4.8347 0
M  V30 3296 O 315.284 1.65913 -5.44483 0
M  V30 3297 N 316.486 3.40485 -4.70159 0
M  V30 3298 H 319.251 -0.28495 -2.98342 0
M  V30 3299 H 316.812 -0.298163 -1.59131 0
M  V30 3300 H 318.804 2.21371 -3.38787 0
M  V30 3301 H 317.374 2.07945 -2.33404 0
M  V30 3302 H 316.594 0.180393 -3.93787 0
M  V30 3303 H 317.882 0.698798 -5.03978 0
M  V30 3304 H 317.28 3.77155 -4.21629 0
M  V30 3305 H 315.837 4.05156 -5.1058 0
M  V30 3306 N 319.27 1.56325 -0.20005 0
M  V30 3307 C 320.18 2.22931 0.730668 0
M  V30 3308 C 321.196 1.22997 1.23076 0
M  V30 3309 O 322.372 1.55748 1.27689 0
M  V30 3310 C 319.437 2.87948 1.93098 0
M  V30 3311 C 318.498 4.03166 1.47497 0
M  V30 3312 C 317.731 4.65073 2.61807 0
M  V30 3313 O 317.954 4.25913 3.79413 0
M  V30 3314 O 316.888 5.54452 2.34237 0
M  V30 3315 H 320.714 3.03084 0.193391 0
M  V30 3316 H 318.299 1.49371 0.0294621 0
M  V30 3317 H 320.181 3.29063 2.6324 0
M  V30 3318 H 318.856 2.10771 2.45677 0
M  V30 3319 H 317.763 3.66664 0.742201 0
M  V30 3320 H 319.096 4.82022 0.995796 0
M  V30 3321 N 320.748 -0.0735177 1.57428 0
M  V30 3322 C 321.973 -0.789787 1.91774 0
M  V30 3323 C 322.398 -1.70413 0.796306 0
M  V30 3324 O 321.756 -1.79555 -0.250961 0
M  V30 3325 C 321.804 -1.5609 3.25067 0
M  V30 3326 O 320.908 -2.67144 3.14178 0
M  V30 3327 H 320.249 -0.215582 0.628029 0
M  V30 3328 H 322.779 -0.0422781 2.04556 0
M  V30 3329 H 322.789 -1.94052 3.58898 0
M  V30 3330 H 321.464 -0.890015 4.06265 0
M  V30 3331 H 320.041 -2.32052 2.91901 0
M  V30 3332 N 322.226 -1.5378 -0.344866 0
M  V30 3333 C 323.454 -1.74899 -1.10534 0
M  V30 3334 C 323.869 -0.487534 -1.82397 0
M  V30 3335 O 323.226 0.540741 -1.74305 0
M  V30 3336 C 323.277 -2.92822 -2.11984 0
M  V30 3337 O 322.998 -4.14089 -1.43044 0
M  V30 3338 C 324.499 -3.25982 -3.00417 0
M  V30 3339 H 321.719 -0.584426 -0.329678 0
M  V30 3340 H 324.263 -2.006 -0.397474 0
M  V30 3341 H 322.418 -2.69457 -2.78338 0
M  V30 3342 H 322.832 -4.80272 -2.10805 0
M  V30 3343 H 324.306 -4.11848 -3.67539 0
M  V30 3344 H 324.783 -2.42228 -3.66363 0
M  V30 3345 H 325.389 -3.51349 -2.39654 0
M  V30 3346 N 323.704 0.605807 -1.45491 0
M  V30 3347 C 324.929 1.39625 -1.53361 0
M  V30 3348 C 325.354 1.87351 -0.167645 0
M  V30 3349 O 324.712 1.60243 0.848051 0
M  V30 3350 C 324.76 2.57559 -2.5238 0
M  V30 3351 O 323.864 3.58248 -2.04285 0
M  V30 3352 H 323.205 0.416771 -0.516912 0
M  V30 3353 H 325.735 0.737103 -1.90861 0
M  V30 3354 H 325.745 3.0478 -2.71244 0
M  V30 3355 H 324.42 2.22171 -3.51586 0
M  V30 3356 H 322.997 3.17664 -1.95305 0
M  V30 3357 N 325.182 1.32811 0.848464 0
M  V30 3358 C 326.41 1.26739 1.63538 0
M  V30 3359 C 326.825 -0.163484 1.88091 0
M  V30 3360 O 326.182 -1.10258 1.45429 0
M  V30 3361 C 326.233 2.03013 2.99112 0
M  V30 3362 O 325.954 3.40518 2.75643 0
M  V30 3363 C 327.455 2.04038 3.93552 0
M  V30 3364 H 324.675 0.437024 0.509167 0
M  V30 3365 H 327.219 1.75033 1.05753 0
M  V30 3366 H 325.374 1.58426 3.53525 0
M  V30 3367 H 325.788 3.79635 3.61908 0
M  V30 3368 H 327.262 2.61877 4.85926 0
M  V30 3369 H 327.739 1.0282 4.26995 0
M  V30 3370 H 328.345 2.486 3.45077 0
M  V30 3371 N 326.66 -1.06551 1.16123 0
M  V30 3372 C 327.59 -2.15935 0.88851 0
M  V30 3373 C 328.571 -1.69306 -0.164135 0
M  V30 3374 O 329.756 -1.94193 -0.0167857 0
M  V30 3375 C 326.886 -3.45149 0.385942 0
M  V30 3376 C 325.84 -4.05271 1.3762 0
M  V30 3377 C 325.166 -5.29664 0.732137 0
M  V30 3378 C 326.466 -4.44355 2.74493 0
M  V30 3379 H 328.16 -2.39006 1.80323 0
M  V30 3380 H 325.706 -1.14866 0.868435 0
M  V30 3381 H 327.659 -4.21004 0.182647 0
M  V30 3382 H 326.383 -3.21689 -0.564274 0
M  V30 3383 H 325.042 -3.3147 1.56599 0
M  V30 3384 H 324.69 -5.02499 -0.224483 0
M  V30 3385 H 324.39 -5.70848 1.39307 0
M  V30 3386 H 325.914 -6.08218 0.538802 0
M  V30 3387 H 327.328 -5.11303 2.59311 0
M  V30 3388 H 325.725 -4.96515 3.37035 0
M  V30 3389 H 326.795 -3.55339 3.29943 0
M  V30 3390 N 328.138 -0.959301 -1.25041 0
M  V30 3391 C 329.366 -0.633949 -1.96948 0
M  V30 3392 C 329.781 0.794916 -1.7125 0
M  V30 3393 O 329.138 1.53231 -0.991287 0
M  V30 3394 C 329.189 -0.888805 -3.50403 0
M  V30 3395 O 328.91 -2.26149 -3.75218 0
M  V30 3396 C 330.411 -0.576482 -4.39536 0
M  V30 3397 H 327.631 -0.237263 -0.627652 0
M  V30 3398 H 330.175 -1.28495 -1.59089 0
M  V30 3399 H 328.33 -0.284145 -3.86357 0
M  V30 3400 H 328.744 -2.33514 -4.6965 0
M  V30 3401 H 330.218 -0.805314 -5.46094 0
M  V30 3402 H 330.695 0.489075 -4.36468 0
M  V30 3403 H 331.301 -1.16067 -4.09156 0
M  V30 3404 N 329.616 1.39756 -0.72842 0
M  V30 3405 C 330.865 1.99879 -0.270407 0
M  V30 3406 C 331.178 1.58449 1.14688 0
M  V30 3407 O 332.384 2.11362 1.70407 0
M  V30 3408 C 330.84 3.57292 -0.43252 0
M  V30 3409 C 330.448 4.07688 -1.85727 0
M  V30 3410 C 332.192 4.24485 -0.0359507 0
M  V30 3411 C 330.099 5.5765 -1.96928 0
M  V30 3412 H 329.029 0.747689 -0.0973472 0
M  V30 3413 H 331.68 1.59837 -0.901355 0
M  V30 3414 H 330.062 3.95097 0.267219 0
M  V30 3415 H 331.236 3.81231 -2.58843 0
M  V30 3416 H 329.551 3.53135 -2.20646 0
M  V30 3417 H 332.148 5.34609 -0.0987484 0
M  V30 3418 H 332.491 4.03915 1.00787 0
M  V30 3419 H 333.024 3.9183 -0.686604 0
M  V30 3420 H 329.763 5.8309 -2.99476 0
M  V30 3421 H 329.283 5.8593 -1.28241 0
M  V30 3422 H 330.962 6.22957 -1.74737 0
M  V30 3423 N 331.094 0.475555 1.50254 0
M  V30 3424 C 332.319 -0.0777042 2.07254 0
M  V30 3425 C 332.744 -1.3235 1.3366 0
M  V30 3426 O 332.102 -1.77152 0.385597 0
M  V30 3427 C 332.15 -0.340169 3.58992 0
M  V30 3428 O 331.254 -1.41982 3.87188 0
M  V30 3429 H 330.595 0.0149556 0.663832 0
M  V30 3430 H 333.125 0.667878 1.93392 0
M  V30 3431 H 333.135 -0.579332 4.03866 0
M  V30 3432 H 331.81 0.570167 4.11973 0
M  V30 3433 H 330.387 -1.16762 3.54148 0
M  V30 3434 N 332.573 -1.56217 0.208337 0
M  V30 3435 C 333.536 -2.18455 -0.693557 0
M  V30 3436 C 334.536 -1.14268 -1.13135 0
M  V30 3437 O 335.726 -1.39577 -1.0423 0
M  V30 3438 C 332.858 -2.79727 -1.94848 0
M  V30 3439 H 334.051 -2.99519 -0.15114 0
M  V30 3440 H 331.604 -1.56245 -0.041287 0
M  V30 3441 H 332.339 -2.02497 -2.53309 0
M  V30 3442 H 332.124 -3.56009 -1.64316 0
M  V30 3443 H 333.614 -3.27475 -2.59133 0
M  V30 3444 N 334.051 0.0651679 -1.57465 0
M  V30 3445 C 334.999 1.09542 -2.05191 0
M  V30 3446 C 335.993 1.39675 -0.958509 0
M  V30 3447 O 337.199 1.39003 -1.14359 0
M  V30 3448 H 333.574 0.370623 -0.654326 0
M  V30 3449 H 335.545 0.666802 -2.90854 0
M  V30 3450 C 334.294 2.39881 -2.51699 0
M  V30 3451 H 333.617 2.17547 -3.3543 0
M  V30 3452 H 335.057 3.104 -2.88839 0
M  V30 3453 C 333.516 3.0631 -1.40271 0
M  V30 3454 O 334.046 3.94664 -0.748523 0
M  V30 3455 N 332.252 2.67041 -1.14618 0
M  V30 3456 H 331.799 1.95281 -1.67997 0
M  V30 3457 H 331.757 3.1181 -0.402688 0
M  V30 3458 N 335.529 1.53961 0.336706 0
M  V30 3459 C 336.754 1.75797 1.10046 0
M  V30 3460 C 337.179 0.498985 1.81361 0
M  V30 3461 O 336.537 -0.548769 1.72795 0
M  V30 3462 C 336.585 2.94257 2.08436 0
M  V30 3463 O 335.689 2.64883 3.16087 0
M  V30 3464 H 335.03 0.582936 0.317934 0
M  V30 3465 H 337.56 2.00945 0.38501 0
M  V30 3466 H 337.57 3.21237 2.51537 0
M  V30 3467 H 336.245 3.85564 1.55927 0
M  V30 3468 H 334.822 2.48812 2.77753 0
M  V30 3469 N 337.007 -0.598083 1.45811 0
M  V30 3470 C 337.954 -1.7082 1.55207 0
M  V30 3471 C 338.924 -1.61278 0.39732 0
M  V30 3472 O 340.109 -1.80717 0.612038 0
M  V30 3473 C 337.249 -3.09144 1.53376 0
M  V30 3474 C 336.362 -3.29423 2.79472 0
M  V30 3475 C 335.497 -4.57907 2.69248 0
M  V30 3476 C 334.536 -4.71476 3.90354 0
M  V30 3477 N 333.673 -5.9127 3.78608 0
M  V30 3478 H 338.513 -1.62125 2.50039 0
M  V30 3479 H 336.05 -0.790389 1.24062 0
M  V30 3480 H 338.008 -3.89186 1.50301 0
M  V30 3481 H 336.638 -3.16773 0.620876 0
M  V30 3482 H 335.69 -2.43091 2.92594 0
M  V30 3483 H 337.002 -3.3532 3.69272 0
M  V30 3484 H 336.156 -5.46157 2.64192 0
M  V30 3485 H 334.895 -4.54423 1.77063 0
M  V30 3486 H 333.9 -3.81648 3.95759 0
M  V30 3487 H 335.125 -4.76751 4.83617 0
M  V30 3488 H 333.071 -5.88813 2.89199 0
M  V30 3489 H 332.988 -5.98369 4.6205 0
M  V30 3490 H 334.256 -6.81992 3.77501 0
M  V30 3491 N 338.485 -1.33259 -0.841409 0
M  V30 3492 C 339.432 -1.23302 -1.95103 0
M  V30 3493 C 340.402 -0.112204 -1.65721 0
M  V30 3494 O 341.587 -0.290038 -1.88583 0
M  V30 3495 C 338.727 -0.975583 -3.31023 0
M  V30 3496 C 337.84 -2.18243 -3.72819 0
M  V30 3497 C 336.975 -1.85936 -4.97595 0
M  V30 3498 C 336.014 -3.02866 -5.3192 0
M  V30 3499 N 335.151 -2.70565 -6.47873 0
M  V30 3500 H 339.991 -2.18207 -2.02952 0
M  V30 3501 H 337.528 -1.0851 -0.993173 0
M  V30 3502 H 339.486 -0.80677 -4.09325 0
M  V30 3503 H 338.116 -0.0632755 -3.22738 0
M  V30 3504 H 337.168 -2.46107 -2.90061 0
M  V30 3505 H 338.48 -3.05666 -3.94169 0
M  V30 3506 H 337.634 -1.65684 -5.83638 0
M  V30 3507 H 336.373 -0.957452 -4.78209 0
M  V30 3508 H 335.378 -3.23736 -4.44382 0
M  V30 3509 H 336.603 -3.93809 -5.53255 0
M  V30 3510 H 334.549 -1.8293 -6.29978 0
M  V30 3511 H 334.466 -3.51519 -6.69306 0
M  V30 3512 H 335.734 -2.53774 -7.37034 0
M  V30 3513 N 339.963 1.05934 -1.16686 0
M  V30 3514 C 341.191 1.8249 -0.974929 0
M  V30 3515 C 341.606 1.82679 0.476861 0
M  V30 3516 O 340.963 1.2486 1.33103 0
M  V30 3517 C 341.014 3.28943 -1.49929 0
M  V30 3518 O 340.735 3.28886 -2.89423 0
M  V30 3519 C 342.236 4.22215 -1.35089 0
M  V30 3520 H 339.456 0.575295 -0.345365 0
M  V30 3521 H 342 1.33631 -1.548 0
M  V30 3522 H 340.155 3.751 -0.968423 0
M  V30 3523 H 340.569 4.20493 -3.13506 0
M  V30 3524 H 342.043 5.22987 -1.76603 0
M  V30 3525 H 342.52 4.38195 -0.296935 0
M  V30 3526 H 343.126 3.81907 -1.87155 0
M  V30 3527 N 341.441 0.965919 1.2453 0
M  V30 3528 C 342.388 0.49402 2.25451 0
M  V30 3529 C 343.358 -0.45948 1.59618 0
M  V30 3530 O 344.543 -0.370238 1.87173 0
M  V30 3531 C 341.683 -0.211359 3.44452 0
M  V30 3532 C 340.796 0.7807 4.24887 0
M  V30 3533 C 339.931 0.0516105 5.31175 0
M  V30 3534 C 338.97 1.03385 6.03306 0
M  V30 3535 N 338.107 0.334887 7.01301 0
M  V30 3536 H 342.947 1.35946 2.65184 0
M  V30 3537 H 340.484 0.681515 1.3036 0
M  V30 3538 H 342.442 -0.637 4.12308 0
M  V30 3539 H 341.072 -1.04077 3.05562 0
M  V30 3540 H 340.124 1.32479 3.56586 0
M  V30 3541 H 341.436 1.52978 4.74762 0
M  V30 3542 H 340.59 -0.432114 6.05159 0
M  V30 3543 H 339.329 -0.730179 4.82203 0
M  V30 3544 H 338.334 1.52847 5.28127 0
M  V30 3545 H 339.559 1.81606 6.54367 0
M  V30 3546 H 337.505 -0.427959 6.54603 0
M  V30 3547 H 337.422 1.02287 7.49048 0
M  V30 3548 H 338.69 -0.126928 7.79397 0
M  V30 3549 N 342.919 -1.39368 0.735821 0
M  V30 3550 C 344.196 -1.94465 0.210395 0
M  V30 3551 C 344.576 -1.67254 -1.28799 0
M  V30 3552 O 343.924 -1.00123 -2.05396 0
M  V30 3553 C 344.134 -3.4472 0.544897 0
M  V30 3554 C 345.482 -4.21708 0.494689 0
M  V30 3555 O 346.506 -3.52922 0.482136 0
M  V30 3556 O 345.365 -5.44299 0.489947 0
M  V30 3557 H 342.459 -0.826096 0.0386666 0
M  V30 3558 H 345.005 -1.48863 0.814735 0
M  V30 3559 H 343.777 -3.57963 1.58045 0
M  V30 3560 H 343.4 -3.97502 -0.08837 0
M  V30 3561 N 344.397 -0.483516 -1.5 0
M  V30 3562 C 345.327 0.293829 -2.31644 0
M  V30 3563 C 346.308 0.978864 -1.39112 0
M  V30 3564 O 347.493 0.973644 -1.68029 0
M  V30 3565 C 344.623 1.36897 -3.19181 0
M  V30 3566 C 343.577 0.804833 -4.20365 0
M  V30 3567 C 342.903 1.9792 -4.96721 0
M  V30 3568 C 344.203 -0.192313 -5.21946 0
M  V30 3569 H 345.897 -0.387616 -2.9688 0
M  V30 3570 H 343.443 -0.187856 -1.42769 0
M  V30 3571 H 345.396 1.92037 -3.751 0
M  V30 3572 H 344.12 2.07936 -2.51853 0
M  V30 3573 H 342.779 0.275319 -3.65565 0
M  V30 3574 H 342.427 2.67686 -4.25856 0
M  V30 3575 H 342.127 1.60789 -5.65173 0
M  V30 3576 H 343.651 2.53526 -5.55479 0
M  V30 3577 H 345.065 0.270333 -5.72662 0
M  V30 3578 H 343.462 -0.478543 -5.98189 0
M  V30 3579 H 344.532 -1.11409 -4.71928 0
M  V30 3580 N 345.875 1.56104 -0.216619 0
M  V30 3581 C 347.121 1.98466 0.417033 0
M  V30 3582 C 347.454 1.10403 1.59765 0
M  V30 3583 O 346.729 0.160632 1.93836 0
M  V30 3584 C 347.012 3.49769 0.85637 0
M  V30 3585 C 346.865 4.48606 -0.327546 0
M  V30 3586 C 348.184 4.05339 1.7143 0
M  V30 3587 H 345.303 0.721551 0.150112 0
M  V30 3588 H 347.945 1.87423 -0.311864 0
M  V30 3589 H 346.095 3.5931 1.47745 0
M  V30 3590 H 347.767 4.5108 -0.965618 0
M  V30 3591 H 346.01 4.22682 -0.975805 0
M  V30 3592 H 346.681 5.51995 0.0227149 0
M  V30 3593 H 349.157 3.98712 1.19031 0
M  V30 3594 H 348.033 5.11533 1.99061 0
M  V30 3595 H 348.294 3.51918 2.67593 0
M  V30 3596 N 347.353 -0.0568162 1.57498 0
M  V30 3597 C 348.6 -0.753104 1.87975 0
M  V30 3598 C 348.928 -1.76815 0.81035 0
M  V30 3599 O 348.183 -1.94756 -0.19199 0
M  V30 3600 C 348.482 -1.48359 3.25153 0
M  V30 3601 C 348.148 -0.60713 4.46794 0
M  V30 3602 C 346.81 -0.365642 4.79809 0
M  V30 3603 C 349.162 -0.000305978 5.212 0
M  V30 3604 C 346.49 0.491905 5.84634 0
M  V30 3605 C 348.842 0.844781 6.26934 0
M  V30 3606 C 347.506 1.096 6.58441 0
M  V30 3607 H 346.776 -0.27558 0.687849 0
M  V30 3608 H 349.423 -0.0135173 1.91495 0
M  V30 3609 H 347.728 -2.29577 3.17492 0
M  V30 3610 H 349.425 -2.02739 3.45974 0
M  V30 3611 H 346.015 -0.805487 4.20963 0
M  V30 3612 H 350.199 -0.173961 4.95995 0
M  V30 3613 H 345.455 0.695131 6.07436 0
M  V30 3614 H 349.629 1.32165 6.83744 0
M  V30 3615 H 347.256 1.76224 7.39492 0
M  V30 3616 N 348.832 -1.54138 -0.328536 0
M  V30 3617 C 349.762 -1.86167 -1.40939 0
M  V30 3618 C 350.743 -0.718044 -1.54202 0
M  V30 3619 O 351.928 -0.971328 -1.68163 0
M  V30 3620 C 349.058 -2.08461 -2.77779 0
M  V30 3621 C 348.012 -3.24299 -2.7931 0
M  V30 3622 C 347.338 -3.31955 -4.19178 0
M  V30 3623 C 348.638 -4.62065 -2.43502 0
M  V30 3624 H 350.332 -2.76689 -1.14383 0
M  V30 3625 H 347.878 -1.33132 -0.548806 0
M  V30 3626 H 349.831 -2.29453 -3.53454 0
M  V30 3627 H 348.555 -1.14684 -3.05802 0
M  V30 3628 H 347.214 -3.03187 -2.0609 0
M  V30 3629 H 346.862 -2.35745 -4.44335 0
M  V30 3630 H 346.562 -4.09805 -4.2111 0
M  V30 3631 H 348.086 -3.55175 -4.96672 0
M  V30 3632 H 349.5 -4.8297 -3.08889 0
M  V30 3633 H 347.897 -5.42429 -2.56693 0
M  V30 3634 H 348.967 -4.64652 -1.38659 0
M  V30 3635 N 350.31 0.590341 -1.46126 0
M  V30 3636 C 351.538 1.37504 -1.54597 0
M  V30 3637 C 351.953 1.87897 -0.184447 0
M  V30 3638 O 351.31 1.63192 0.816984 0
M  V30 3639 C 351.361 2.56779 -2.54454 0
M  V30 3640 O 351.082 2.08476 -3.85317 0
M  V30 3641 C 352.583 3.49427 -2.72792 0
M  V30 3642 H 349.803 0.420325 -0.523037 0
M  V30 3643 H 352.347 0.718383 -1.91467 0
M  V30 3644 H 350.502 3.1845 -2.20609 0
M  V30 3645 H 350.916 2.86097 -4.396 0
M  V30 3646 H 352.39 4.29619 -3.466 0
M  V30 3647 H 352.867 4.00876 -1.79429 0
M  V30 3648 H 353.473 2.93598 -3.07702 0
M  V30 3649 N 351.788 1.33704 0.83433 0
M  V30 3650 C 352.736 1.24323 1.96587 0
M  V30 3651 C 353.73 0.143659 1.6879 0
M  V30 3652 O 354.936 0.30791 1.77347 0
M  V30 3653 H 351.311 0.385925 0.645419 0
M  V30 3654 H 353.282 2.19978 2.01624 0
M  V30 3655 C 352.031 1.00394 3.32891 0
M  V30 3656 H 351.354 1.84231 3.54822 0
M  V30 3657 H 352.794 0.97862 4.12552 0
M  V30 3658 C 351.253 -0.293047 3.35623 0
M  V30 3659 O 351.783 -1.29823 3.80143 0
M  V30 3660 N 349.989 -0.322174 2.88809 0
M  V30 3661 H 349.536 0.496379 2.52772 0
M  V30 3662 H 349.494 -1.18977 2.91019 0
M  V30 3663 N 353.266 -1.05314 1.17247 0
M  V30 3664 C 354.514 -1.77941 0.958194 0
M  V30 3665 C 354.835 -1.88089 -0.514556 0
M  V30 3666 O 354.105 -1.39676 -1.37359 0
M  V30 3667 H 352.685 -0.659116 0.351533 0
M  V30 3668 H 355.347 -1.27166 1.47699 0
M  V30 3669 H 354.443 -2.79663 1.38546 0
M  V30 3670 N 354.744 -0.972509 -1.24016 0
M  V30 3671 C 355.972 -0.654803 -1.96265 0
M  V30 3672 C 356.387 0.776708 -1.72083 0
M  V30 3673 O 355.744 1.52171 -1.00748 0
M  V30 3674 C 355.795 -0.92592 -3.49441 0
M  V30 3675 O 355.516 -2.30116 -3.72798 0
M  V30 3676 C 357.017 -0.623068 -4.38899 0
M  V30 3677 H 354.237 -0.243907 -0.6251 0
M  V30 3678 H 356.781 -1.30175 -1.57717 0
M  V30 3679 H 354.936 -0.325108 -3.86033 0
M  V30 3680 H 355.35 -2.38483 -4.67147 0
M  V30 3681 H 356.824 -0.863189 -5.45209 0
M  V30 3682 H 357.301 0.442754 -4.36963 0
M  V30 3683 H 357.907 -1.204 -4.07902 0
M  V30 3684 N 356.222 1.38976 -0.743202 0
M  V30 3685 C 357.471 1.99581 -0.291592 0
M  V30 3686 C 357.784 1.59656 1.13001 0
M  V30 3687 O 358.99 2.13157 1.68156 0
M  V30 3688 C 357.446 3.56813 -0.470391 0
M  V30 3689 C 357.054 4.05695 -1.90041 0
M  V30 3690 C 358.798 4.24423 -0.0809709 0
M  V30 3691 C 356.705 5.5553 -2.02832 0
M  V30 3692 H 355.635 0.746615 -0.105272 0
M  V30 3693 H 358.286 1.58872 -0.918258 0
M  V30 3694 H 356.668 3.95359 0.225299 0
M  V30 3695 H 357.842 3.78464 -2.62872 0
M  V30 3696 H 356.157 3.50775 -2.24379 0
M  V30 3697 H 358.754 5.34474 -0.155445 0
M  V30 3698 H 359.097 4.04962 0.96497 0
M  V30 3699 H 359.63 3.9108 -0.728124 0
M  V30 3700 H 356.369 5.79881 -3.05643 0
M  V30 3701 H 355.889 5.84537 -1.34448 0
M  V30 3702 H 357.568 6.21069 -1.81335 0
M  V30 3703 N 357.7 0.491464 1.49741 0
M  V30 3704 C 358.928 -0.0535151 2.06831 0
M  V30 3705 C 359.343 -1.31683 1.35296 0
M  V30 3706 O 358.7 -1.77402 0.42836 0
M  V30 3707 C 358.751 -0.320835 3.60073 0
M  V30 3708 O 358.472 0.892394 4.28915 0
M  V30 3709 C 359.973 -0.910519 4.33848 0
M  V30 3710 H 357.193 0.0161909 0.670805 0
M  V30 3711 H 359.737 0.68609 1.92647 0
M  V30 3712 H 357.892 -1.0104 3.73991 0
M  V30 3713 H 358.306 0.649401 5.20464 0
M  V30 3714 H 359.78 -1.04721 5.41976 0
M  V30 3715 H 360.257 -1.90589 3.95692 0
M  V30 3716 H 360.863 -0.258712 4.24512 0
M  V30 3717 N 359.178 -1.55987 0.224894 0
M  V30 3718 C 360.424 -1.98684 -0.406502 0
M  V30 3719 C 360.757 -1.11248 -1.59177 0
M  V30 3720 O 360.032 -0.170909 -1.93748 0
M  V30 3721 C 360.315 -3.50218 -0.837808 0
M  V30 3722 C 360.168 -4.48426 0.351332 0
M  V30 3723 C 361.487 -4.06243 -1.69278 0
M  V30 3724 H 358.606 -0.722337 -0.146283 0
M  V30 3725 H 361.248 -1.87255 0.321799 0
M  V30 3726 H 359.398 -3.60089 -1.45837 0
M  V30 3727 H 361.07 -4.50562 0.989526 0
M  V30 3728 H 359.313 -4.22159 0.998207 0
M  V30 3729 H 359.984 -5.52 0.00655905 0
M  V30 3730 H 362.46 -3.99337 -1.16914 0
M  V30 3731 H 361.336 -5.12581 -1.96346 0
M  V30 3732 H 361.597 -3.53332 -2.65723 0
M  V30 3733 N 360.656 0.0484629 -1.57525 0
M  V30 3734 C 361.588 1.08222 -2.02041 0
M  V30 3735 C 362.601 1.33621 -0.930012 0
M  V30 3736 O 363.79 1.3145 -1.20761 0
M  V30 3737 C 360.89 2.42818 -2.36416 0
M  V30 3738 C 360.063 2.37049 -3.67596 0
M  V30 3739 C 359.122 3.53937 -3.89378 0
M  V30 3740 O 358.148 3.34308 -4.60681 0
M  V30 3741 N 359.35 4.75126 -3.3352 0
M  V30 3742 H 362.115 0.702946 -2.9134 0
M  V30 3743 H 359.676 0.236745 -1.6016 0
M  V30 3744 H 361.668 3.197 -2.48141 0
M  V30 3745 H 360.238 2.72661 -1.52888 0
M  V30 3746 H 359.458 1.45395 -3.66407 0
M  V30 3747 H 360.746 2.30318 -4.53686 0
M  V30 3748 H 360.144 4.93976 -2.75688 0
M  V30 3749 H 358.701 5.49439 -3.50656 0
M  V30 3750 N 362.134 1.5431 0.320358 0
M  V30 3751 C 363.082 1.84647 1.4145 0
M  V30 3752 C 364.076 0.718624 1.53402 0
M  V30 3753 O 365.282 0.902335 1.5575 0
M  V30 3754 H 361.657 0.585349 0.472091 0
M  V30 3755 H 363.628 2.7614 1.13089 0
M  V30 3756 C 362.377 2.09341 2.77617 0
M  V30 3757 H 361.7 2.9559 2.69196 0
M  V30 3758 H 363.14 2.3452 3.53237 0
M  V30 3759 C 361.599 0.885939 3.25043 0
M  V30 3760 O 362.129 0.0967891 4.01583 0
M  V30 3761 N 360.335 0.696682 2.82125 0
M  V30 3762 H 359.882 1.34006 2.2 0
M  V30 3763 H 359.84 -0.109712 3.14209 0
M  V30 3764 N 363.613 -0.582584 1.46437 0
M  V30 3765 C 364.843 -1.36484 1.55099 0
M  V30 3766 C 365.251 -1.88233 0.191056 0
M  V30 3767 O 364.594 -1.6429 -0.821858 0
M  V30 3768 C 364.656 -2.588 2.49525 0
M  V30 3769 C 364.32 -2.28517 3.95764 0
M  V30 3770 C 365.317 -1.87346 4.84972 0
M  V30 3771 C 363.002 -2.40658 4.40896 0
M  V30 3772 C 364.996 -1.5871 6.17325 0
M  V30 3773 C 362.683 -2.11635 5.73284 0
M  V30 3774 C 363.681 -1.70725 6.61318 0
M  V30 3775 O 363.369 -1.42057 7.91249 0
M  V30 3776 H 363.101 -0.423297 0.527063 0
M  V30 3777 H 365.655 -0.715188 1.92547 0
M  V30 3778 H 363.885 -3.26571 2.07095 0
M  V30 3779 H 365.574 -3.20868 2.48593 0
M  V30 3780 H 366.34 -1.77481 4.5136 0
M  V30 3781 H 362.219 -2.71463 3.72598 0
M  V30 3782 H 365.763 -1.26704 6.85997 0
M  V30 3783 H 361.66 -2.21124 6.06444 0
M  V30 3784 H 362.428 -1.55901 8.03515 0
M  V30 3785 N 365.091 -1.34144 -0.827227 0
M  V30 3786 C 366.368 -1.16844 -1.56865 0
M  V30 3787 C 366.748 0.260654 -2.09485 0
M  V30 3788 O 366.096 1.26138 -1.9053 0
M  V30 3789 C 366.306 -2.21939 -2.6934 0
M  V30 3790 C 367.654 -2.56695 -3.3822 0
M  V30 3791 O 368.678 -2.20695 -2.79593 0
M  V30 3792 O 367.537 -3.18518 -4.44082 0
M  V30 3793 H 364.631 -0.452669 -0.692112 0
M  V30 3794 H 367.177 -1.45763 -0.868973 0
M  V30 3795 H 365.949 -3.17882 -2.28182 0
M  V30 3796 H 365.572 -1.94172 -3.46962 0
M  V30 3797 N 366.569 1.04691 -1.17803 0
M  V30 3798 C 367.794 1.81984 -0.994813 0
M  V30 3799 C 368.219 1.82586 0.452112 0
M  V30 3800 O 367.577 1.23854 1.324 0
M  V30 3801 C 367.625 3.2575 -1.54659 0
M  V30 3802 O 366.729 4.05267 -0.763728 0
M  V30 3803 H 366.07 0.562483 -0.352857 0
M  V30 3804 H 368.6 1.3189 -1.56417 0
M  V30 3805 H 368.61 3.76541 -1.57102 0
M  V30 3806 H 367.285 3.24627 -2.59981 0
M  V30 3807 H 365.862 3.63972 -0.811108 0
M  V30 3808 N 368.047 0.979072 1.23499 0
M  V30 3809 C 369.01 0.523244 2.23147 0
M  V30 3810 C 370.01 -0.386406 1.56088 0
M  V30 3811 O 371.2 -0.180283 1.73265 0
M  V30 3812 C 368.332 -0.240739 3.40049 0
M  V30 3813 H 369.525 1.40432 2.64989 0
M  V30 3814 H 367.078 0.764824 1.36309 0
M  V30 3815 H 367.813 -1.13841 3.03662 0
M  V30 3816 H 367.598 0.412207 3.89927 0
M  V30 3817 H 369.088 -0.548297 4.13985 0
M  V30 3818 N 369.525 -1.3858 0.750561 0
M  V30 3819 C 370.773 -1.99789 0.30477 0
M  V30 3820 C 371.094 -1.59874 -1.11649 0
M  V30 3821 O 370.364 -0.85417 -1.76297 0
M  V30 3822 H 368.944 -0.738902 0.109694 0
M  V30 3823 H 371.606 -1.69391 0.963983 0
M  V30 3824 H 370.702 -3.09952 0.365499 0
M  V30 3825 N 371.003 -0.499398 -1.49478 0
M  V30 3826 C 372.231 0.0425456 -2.06856 0
M  V30 3827 C 372.646 1.30964 -1.35992 0
M  V30 3828 O 372.003 1.77172 -0.437762 0
M  V30 3829 C 372.054 0.301735 -3.60239 0
M  V30 3830 O 371.775 -0.915127 -4.28436 0
M  V30 3831 C 373.276 0.887499 -4.34325 0
M  V30 3832 H 370.496 -0.0197482 -0.670709 0
M  V30 3833 H 373.04 -0.696297 -1.92281 0
M  V30 3834 H 371.195 0.990556 -3.74522 0
M  V30 3835 H 371.609 -0.676993 -5.20113 0
M  V30 3836 H 373.083 1.01845 -5.42523 0
M  V30 3837 H 373.56 1.88488 -3.96698 0
M  V30 3838 H 374.166 0.236196 -4.24644 0
M  V30 3839 N 372.481 1.55866 -0.233164 0
M  V30 3840 C 373.428 2.20796 0.67215 0
M  V30 3841 C 374.398 1.16731 1.18166 0
M  V30 3842 O 375.583 1.45129 1.23864 0
M  V30 3843 C 372.723 2.90072 1.86955 0
M  V30 3844 C 371.836 4.08759 1.39786 0
M  V30 3845 C 370.971 4.65787 2.55374 0
M  V30 3846 C 370.01 5.76752 2.04998 0
M  V30 3847 N 369.147 6.28021 3.13901 0
M  V30 3848 H 373.987 2.9779 0.111749 0
M  V30 3849 H 371.524 1.47036 0.0434007 0
M  V30 3850 H 373.482 3.28428 2.57276 0
M  V30 3851 H 372.112 2.15575 2.40265 0
M  V30 3852 H 371.164 3.7581 0.589173 0
M  V30 3853 H 372.476 4.88906 0.98856 0
M  V30 3854 H 371.63 5.06646 3.33758 0
M  V30 3855 H 370.369 3.84828 2.99598 0
M  V30 3856 H 369.374 5.35383 1.25079 0
M  V30 3857 H 370.599 6.59553 1.61759 0
M  V30 3858 H 368.545 5.49971 3.57586 0
M  V30 3859 H 368.462 7.03323 2.7726 0
M  V30 3860 H 369.73 6.73538 3.92386 0
M  V30 3861 N 373.959 -0.0401083 1.57549 0
M  V30 3862 C 374.889 -1.04384 2.08869 0
M  V30 3863 C 375.87 -1.38407 0.988817 0
M  V30 3864 O 377.055 -1.47483 1.26342 0
M  V30 3865 C 374.185 -2.34808 2.55895 0
M  V30 3866 C 373.139 -2.15057 3.70047 0
M  V30 3867 C 372.465 -3.51145 4.03239 0
M  V30 3868 C 373.765 -1.54576 4.98902 0
M  V30 3869 H 375.459 -0.616666 2.92981 0
M  V30 3870 H 373.005 -0.295184 1.40942 0
M  V30 3871 H 374.958 -3.05346 2.90417 0
M  V30 3872 H 373.682 -2.79565 1.68853 0
M  V30 3873 H 372.341 -1.46954 3.35857 0
M  V30 3874 H 371.989 -3.93529 3.13279 0
M  V30 3875 H 371.689 -3.38758 4.80122 0
M  V30 3876 H 373.213 -4.23062 4.40285 0
M  V30 3877 H 374.627 -2.15017 5.31451 0
M  V30 3878 H 373.024 -1.52796 5.80322 0
M  V30 3879 H 374.094 -0.51039 4.82206 0
M  V30 3880 N 375.437 -1.54477 -0.31217 0
M  V30 3881 C 376.347 -1.87695 -1.4074 0
M  V30 3882 C 377.363 -0.769975 -1.56036 0
M  V30 3883 O 378.539 -1.06537 -1.70915 0
M  V30 3884 C 375.604 -2.10755 -2.75287 0
M  V30 3885 C 374.665 -3.34514 -2.69071 0
M  V30 3886 C 373.898 -3.56465 -3.97201 0
M  V30 3887 O 374.121 -2.81637 -4.96021 0
M  V30 3888 O 373.055 -4.49964 -3.9977 0
M  V30 3889 H 376.881 -2.80849 -1.15574 0
M  V30 3890 H 374.466 -1.40526 -0.507228 0
M  V30 3891 H 376.348 -2.27188 -3.54913 0
M  V30 3892 H 375.023 -1.20788 -3.0032 0
M  V30 3893 H 373.93 -3.23456 -1.87955 0
M  V30 3894 H 375.263 -4.24575 -2.48992 0
M  V30 3895 N 376.915 0.57481 -1.46744 0
M  V30 3896 C 378.163 1.33009 -1.52161 0
M  V30 3897 C 378.484 1.94185 -0.178092 0
M  V30 3898 O 377.754 1.7899 0.796196 0
M  V30 3899 H 376.334 0.493873 -0.560445 0
M  V30 3900 H 378.996 0.672589 -1.82927 0
M  V30 3901 H 378.092 2.13273 -2.27862 0
M  V30 3902 N 378.394 1.34581 0.820102 0
M  V30 3903 C 379.619 1.30333 1.61332 0
M  V30 3904 C 380.044 -0.119339 1.87721 0
M  V30 3905 O 379.402 -1.08197 1.45475 0
M  V30 3906 C 379.45 2.10258 2.92957 0
M  V30 3907 O 378.554 1.47404 3.85157 0
M  V30 3908 H 377.895 0.447488 0.490561 0
M  V30 3909 H 380.425 1.77425 1.01889 0
M  V30 3910 H 380.435 2.21718 3.42498 0
M  V30 3911 H 379.11 3.13693 2.73074 0
M  V30 3912 H 377.687 1.44703 3.43679 0
M  V30 3913 N 379.872 -1.04064 1.18357 0
M  V30 3914 C 380.835 -2.10243 0.912707 0
M  V30 3915 C 381.835 -1.60477 -0.101928 0
M  V30 3916 O 383.025 -1.73703 0.131517 0
M  V30 3917 C 380.157 -3.38893 0.369387 0
M  V30 3918 H 381.35 -2.35706 1.85426 0
M  V30 3919 H 378.903 -1.20489 0.995594 0
M  V30 3920 H 379.638 -3.19094 -0.578776 0
M  V30 3921 H 379.423 -3.76331 1.1008 0
M  V30 3922 H 380.913 -4.17128 0.198575 0
M  V30 3923 N 381.35 -0.985608 -1.22978 0
M  V30 3924 C 382.313 -0.535071 -2.22867 0
M  V30 3925 C 383.313 0.378123 -1.56291 0
M  V30 3926 O 384.503 0.171092 -1.73358 0
M  V30 3927 C 381.635 0.222702 -3.40172 0
M  V30 3928 H 382.828 -1.41835 -2.6424 0
M  V30 3929 H 380.381 -0.772042 -1.35901 0
M  V30 3930 H 381.116 1.12229 -3.04262 0
M  V30 3931 H 380.901 -0.43288 -3.89703 0
M  V30 3932 H 382.391 0.526335 -4.1427 0
M  V30 3933 N 382.828 1.3818 -0.7579 0
M  V30 3934 C 383.738 2.3421 -0.135247 0
M  V30 3935 C 384.754 1.59487 0.695683 0
M  V30 3936 O 385.93 1.91657 0.618832 0
M  V30 3937 C 382.995 3.3862 0.744139 0
M  V30 3938 C 382.056 4.2918 -0.101658 0
M  V30 3939 C 381.289 5.28603 0.735851 0
M  V30 3940 O 381.512 5.35166 1.97366 0
M  V30 3941 O 380.446 6.01707 0.152372 0
M  V30 3942 H 384.272 2.8916 -0.928436 0
M  V30 3943 H 381.857 1.40101 -0.518855 0
M  V30 3944 H 383.739 4.02539 1.2466 0
M  V30 3945 H 382.414 2.86019 1.51575 0
M  V30 3946 H 381.321 3.68407 -0.650167 0
M  V30 3947 H 382.654 4.85048 -0.836024 0
M  V30 3948 N 384.306 0.507319 1.49211 0
M  V30 3949 C 385.555 -0.0368315 2.01666 0
M  V30 3950 C 385.868 -1.37459 1.39156 0
M  V30 3951 O 387.074 -2.00579 1.82976 0
M  V30 3952 C 385.53 -0.116089 3.59713 0
M  V30 3953 C 385.138 1.2154 4.31198 0
M  V30 3954 C 386.882 -0.610268 4.2009 0
M  V30 3955 C 384.789 1.09796 5.81119 0
M  V30 3956 H 383.719 -0.0175376 0.753796 0
M  V30 3957 H 386.37 0.647691 1.71689 0
M  V30 3958 H 384.752 -0.8652 3.86433 0
M  V30 3959 H 385.926 1.9783 4.16173 0
M  V30 3960 H 384.241 1.64352 3.82593 0
M  V30 3961 H 386.838 -0.715742 5.29888 0
M  V30 3962 H 387.181 -1.61064 3.8388 0
M  V30 3963 H 387.714 0.0824916 3.97714 0
M  V30 3964 H 384.453 2.0728 6.21864 0
M  V30 3965 H 383.973 0.376058 5.9862 0
M  V30 3966 H 385.652 0.779281 6.4229 0
M  V30 3967 N 385.784 -1.5574 0.241426 0
M  V30 3968 C 386.731 -2.21149 -0.660432 0
M  V30 3969 C 387.701 -1.17356 -1.17545 0
M  V30 3970 O 388.886 -1.45784 -1.23093 0
M  V30 3971 C 386.026 -2.91059 -1.85414 0
M  V30 3972 C 385.139 -4.09495 -1.37616 0
M  V30 3973 C 384.274 -4.67135 -2.529 0
M  V30 3974 C 383.313 -5.77831 -2.01936 0
M  V30 3975 N 382.45 -6.29677 -3.10566 0
M  V30 3976 H 387.29 -2.97845 -0.095955 0
M  V30 3977 H 384.827 -1.47057 -0.0356024 0
M  V30 3978 H 386.785 -3.29788 -2.5553 0
M  V30 3979 H 385.415 -2.16846 -2.39118 0
M  V30 3980 H 384.467 -3.76117 -0.569235 0
M  V30 3981 H 385.779 -4.89423 -0.962618 0
M  V30 3982 H 384.933 -5.08409 -3.31067 0
M  V30 3983 H 383.672 -3.86411 -2.97553 0
M  V30 3984 H 382.677 -5.36039 -1.22238 0
M  V30 3985 H 383.902 -6.60402 -1.58259 0
M  V30 3986 H 381.848 -5.5186 -3.54664 0
M  V30 3987 H 381.765 -7.04783 -2.73526 0
M  V30 3988 H 383.033 -6.75609 -3.88809 0
M  V30 3989 N 387.262 0.0317525 -1.57568 0
M  V30 3990 C 388.209 1.0332 -2.06382 0
M  V30 3991 C 389.179 1.36082 -0.952414 0
M  V30 3992 O 390.364 1.46466 -1.2228 0
M  V30 3993 C 387.504 2.32989 -2.54578 0
M  V30 3994 C 386.617 2.0641 -3.79498 0
M  V30 3995 C 385.752 3.2993 -4.16317 0
M  V30 3996 C 384.791 2.98893 -5.34162 0
M  V30 3997 N 383.928 4.14857 -5.66426 0
M  V30 3998 H 388.768 0.609982 -2.9169 0
M  V30 3999 H 386.305 0.289573 -1.44222 0
M  V30 4000 H 388.263 3.0875 -2.80587 0
M  V30 4001 H 386.893 2.73039 -1.7219 0
M  V30 4002 H 385.945 1.21158 -3.6059 0
M  V30 4003 H 387.257 1.79513 -4.65378 0
M  V30 4004 H 386.411 4.1406 -4.4344 0
M  V30 4005 H 385.15 3.59938 -3.29083 0
M  V30 4006 H 384.155 2.13164 -5.06795 0
M  V30 4007 H 385.38 2.70165 -6.23047 0
M  V30 4008 H 383.326 4.44821 -4.82151 0
M  V30 4009 H 383.243 3.91374 -6.4681 0
M  V30 4010 H 384.511 4.99868 -5.98124 0
M  V30 4011 N 388.74 1.54641 0.303973 0
M  V30 4012 C 389.67 1.88386 1.3796 0
M  V30 4013 C 390.651 0.742485 1.5304 0
M  V30 4014 O 391.836 0.997959 1.66597 0
M  V30 4015 C 388.966 2.12854 2.74427 0
M  V30 4016 C 387.92 3.28702 2.74115 0
M  V30 4017 C 387.246 3.38582 4.13844 0
M  V30 4018 C 388.546 4.65881 2.3612 0
M  V30 4019 H 390.24 2.78474 1.09966 0
M  V30 4020 H 387.786 1.33988 0.527556 0
M  V30 4021 H 389.739 2.35047 3.49758 0
M  V30 4022 H 388.463 1.19535 3.03939 0
M  V30 4023 H 387.122 3.06428 2.0124 0
M  V30 4024 H 386.77 2.42784 4.40528 0
M  V30 4025 H 386.47 4.16453 4.14537 0
M  V30 4026 H 387.994 3.63031 4.90959 0
M  V30 4027 H 389.408 4.87823 3.01167 0
M  V30 4028 H 387.805 5.46444 2.48031 0
M  V30 4029 H 388.875 4.66799 1.3125 0
M  V30 4030 N 390.218 -0.567019 1.47046 0
M  V30 4031 C 391.495 -1.3276 1.43646 0
M  V30 4032 C 391.875 -2.1071 0.128186 0
M  V30 4033 O 391.223 -2.10441 -0.890326 0
M  V30 4034 C 391.433 -2.2404 2.67595 0
M  V30 4035 C 392.781 -2.85372 3.14401 0
M  V30 4036 O 393.805 -2.34346 2.68254 0
M  V30 4037 O 392.664 -3.78091 3.946 0
M  V30 4038 H 389.758 -0.597293 0.571988 0
M  V30 4039 H 392.304 -0.586735 1.59234 0
M  V30 4040 H 391.076 -1.65975 3.54356 0
M  V30 4041 H 390.699 -3.05439 2.54544 0
M  V30 4042 N 391.696 -1.35014 -0.812953 0
M  V30 4043 C 392.606 -1.2951 -1.95613 0
M  V30 4044 C 393.622 -0.20107 -1.72834 0
M  V30 4045 O 394.798 -0.42932 -1.96771 0
M  V30 4046 C 391.863 -1.06033 -3.30088 0
M  V30 4047 C 390.924 -2.24688 -3.65805 0
M  V30 4048 C 390.157 -2.02322 -4.93864 0
M  V30 4049 O 390.38 -0.986464 -5.61805 0
M  V30 4050 O 389.314 -2.89525 -5.27692 0
M  V30 4051 H 393.14 -2.25705 -2.03202 0
M  V30 4052 H 390.725 -1.15321 -0.949811 0
M  V30 4053 H 392.607 -0.94763 -4.10607 0
M  V30 4054 H 391.282 -0.128852 -3.23443 0
M  V30 4055 H 390.189 -2.41521 -2.85689 0
M  V30 4056 H 391.522 -3.16261 -3.77147 0
M  V30 4057 N 393.175 1.03435 -1.18907 0
M  V30 4058 C 394.105 2.13503 -0.945448 0
M  V30 4059 C 395.086 1.69682 0.119189 0
M  V30 4060 O 396.271 1.94169 -0.034707 0
M  V30 4061 C 393.401 3.44004 -0.477316 0
M  V30 4062 C 392.355 4.0148 -1.48316 0
M  V30 4063 C 391.681 5.27537 -0.872311 0
M  V30 4064 C 392.981 4.36921 -2.86177 0
M  V30 4065 H 394.675 2.34141 -1.86597 0
M  V30 4066 H 392.221 1.12523 -0.898584 0
M  V30 4067 H 394.174 4.20372 -0.294204 0
M  V30 4068 H 392.898 3.23072 0.478786 0
M  V30 4069 H 391.557 3.27201 -1.65332 0
M  V30 4070 H 391.205 5.02917 0.0911752 0
M  V30 4071 H 390.905 5.66954 -1.54393 0
M  V30 4072 H 392.429 6.06576 -0.699871 0
M  V30 4073 H 393.843 5.04248 -2.72776 0
M  V30 4074 H 392.24 4.87405 -3.50081 0
M  V30 4075 H 393.31 3.46466 -3.39248 0
M  V30 4076 N 394.653 0.992116 1.22453 0
M  V30 4077 C 395.6 0.541731 2.24352 0
M  V30 4078 C 396.57 -0.425519 1.60557 0
M  V30 4079 O 397.755 -0.330453 1.87917 0
M  V30 4080 C 394.895 -0.138248 3.44823 0
M  V30 4081 C 394.008 0.870649 4.23136 0
M  V30 4082 C 393.143 0.164269 5.30946 0
M  V30 4083 C 392.182 1.16159 6.00977 0
M  V30 4084 N 391.319 0.483568 7.00433 0
M  V30 4085 H 396.159 1.41541 2.62241 0
M  V30 4086 H 393.696 0.709013 1.28885 0
M  V30 4087 H 395.654 -0.5494 4.13567 0
M  V30 4088 H 394.284 -0.975721 3.077 0
M  V30 4089 H 393.336 1.40013 3.53696 0
M  V30 4090 H 394.648 1.63014 4.7141 0
M  V30 4091 H 393.802 -0.303653 6.0594 0
M  V30 4092 H 392.541 -0.627733 4.83643 0
M  V30 4093 H 391.546 1.64015 5.24766 0
M  V30 4094 H 392.771 1.95445 6.50368 0
M  V30 4095 H 390.717 -0.289012 6.55363 0
M  V30 4096 H 390.634 1.18152 7.4671 0
M  V30 4097 H 391.902 0.0384219 7.79491 0
M  V30 4098 N 396.131 -1.37776 0.765217 0
M  V30 4099 C 397.079 -2.32209 0.134798 0
M  V30 4100 C 398.073 -1.54607 -0.692315 0
M  V30 4101 O 399.279 -1.70052 -0.590109 0
M  V30 4102 H 395.654 -0.751591 0.0248005 0
M  V30 4103 H 397.625 -2.8297 0.947119 0
M  V30 4104 C 396.374 -3.39841 -0.735063 0
M  V30 4105 H 395.697 -3.99654 -0.107991 0
M  V30 4106 H 397.137 -4.08296 -1.14326 0
M  V30 4107 C 395.596 -2.79378 -1.88281 0
M  V30 4108 O 396.126 -2.69608 -2.97783 0
M  V30 4109 N 394.332 -2.37016 -1.68142 0
M  V30 4110 H 393.879 -2.45162 -0.790772 0
M  V30 4111 H 393.837 -1.96905 -2.45104 0
M  V30 4112 N 397.609 -0.515225 -1.4894 0
M  V30 4113 C 398.572 0.244681 -2.2789 0
M  V30 4114 C 399.572 0.881166 -1.34507 0
M  V30 4115 O 400.762 0.743497 -1.57537 0
M  V30 4116 C 397.894 1.35247 -3.12923 0
M  V30 4117 H 399.087 -0.448289 -2.96531 0
M  V30 4118 H 396.64 -0.270656 -1.53939 0
M  V30 4119 H 397.375 2.07916 -2.48881 0
M  V30 4120 H 397.16 0.901374 -3.81599 0
M  V30 4121 H 398.65 1.88737 -3.72516 0
M  V30 4122 N 399.087 1.5561 -0.249682 0
M  V30 4123 C 400.017 2.24477 0.642826 0
M  V30 4124 C 400.998 1.22601 1.17911 0
M  V30 4125 O 402.183 1.5126 1.21795 0
M  V30 4126 C 399.313 2.94638 1.83863 0
M  V30 4127 C 398.267 4.03227 1.435 0
M  V30 4128 C 397.593 4.60828 2.71186 0
M  V30 4129 C 398.893 5.18796 0.604002 0
M  V30 4130 H 400.587 2.99321 0.0685625 0
M  V30 4131 H 398.133 1.43965 0.0315363 0
M  V30 4132 H 400.086 3.41517 2.46868 0
M  V30 4133 H 398.81 2.17287 2.43832 0
M  V30 4134 H 397.469 3.57121 0.828275 0
M  V30 4135 H 397.117 3.80174 3.29358 0
M  V30 4136 H 396.817 5.34132 2.44901 0
M  V30 4137 H 398.341 5.10442 3.35084 0
M  V30 4138 H 399.755 5.61883 1.13842 0
M  V30 4139 H 398.152 5.98506 0.437097 0
M  V30 4140 H 399.222 4.83384 -0.383147 0
M  V30 4141 N 400.565 -0.0233959 1.57583 0
M  V30 4142 C 401.981 -0.379134 1.55031 0
M  V30 4143 C 402.181 -1.76255 0.976548 0
M  V30 4144 O 401.237 -2.45266 0.600078 0
M  V30 4145 C 402.55 -0.275792 2.99433 0
M  V30 4146 C 404.098 -0.352458 3.11009 0
M  V30 4147 C 404.573 -0.278501 4.57152 0
M  V30 4148 N 406.064 -0.337123 4.61972 0
M  V30 4149 C 406.799 -0.302876 5.726 0
M  V30 4150 N 406.295 -0.220589 6.92449 0
M  V30 4151 N 408.088 -0.353023 5.6099 0
M  V30 4152 H 400.239 0.881869 1.93227 0
M  V30 4153 H 402.502 0.335867 0.886509 0
M  V30 4154 H 402.208 0.675108 3.4516 0
M  V30 4155 H 402.082 -1.06721 3.61788 0
M  V30 4156 H 404.469 -1.29379 2.65226 0
M  V30 4157 H 404.55 0.468409 2.51475 0
M  V30 4158 H 404.194 0.659189 5.03604 0
M  V30 4159 H 404.124 -1.11755 5.14605 0
M  V30 4160 H 406.615 -0.403002 3.75745 0
M  V30 4161 H 406.928 -0.199713 7.72542 0
M  V30 4162 H 405.273 -0.186555 6.9475 0
M  V30 4163 H 408.464 -0.415339 4.66254 0
M  V30 4164 H 408.637 -0.322866 6.47195 0
M  V30 4165 O 402.082 -1.60643 -0.16613 0
M  V30 4166 H 402.773 -1.76304 -0.80228 0
M  V30 END ATOM
M  V30 BEGIN BOND
M  V30 END BOND
M  V30 END CTAB
M  END
$$$$
