drugbank_target|P56740 Dihydroneopterin aldolase (DB01778; DB01906; DB02119; DB02489; DB03231; DB03571; DB04168; DB04400; DB04425; DB06906)
 OpenBabel12092119513D

  0  0  0     0  0            999 V3000
M  V30 BEGIN CTAB
M  V30 COUNTS 1932 1947 0 0 0
M  V30 BEGIN ATOM
M  V30 1 H -0.908 1.98254 -0.117106 0
M  V30 2 N 0 1.576 0 0
M  V30 3 C 0.933 2.03868 1.02534 0
M  V30 4 C 1.911 0.928543 1.3348 0
M  V30 5 O 3.095 1.19667 1.45644 0
M  V30 6 C 0.222 2.43627 2.35294 0
M  V30 7 C -0.732 3.65373 2.2001 0
M  V30 8 S 0.101 5.13292 1.52614 0
M  V30 9 C 1.257 5.56322 2.86805 0
M  V30 10 H 1.49 2.90518 0.631377 0
M  V30 11 H -0.977 1.52953 0.210867 0
M  V30 12 H 0.981 2.67203 3.11629 0
M  V30 13 H -0.358 1.57376 2.7183 0
M  V30 14 H -1.165 3.90944 3.18086 0
M  V30 15 H -1.563 3.418 1.51819 0
M  V30 16 H 0.729 5.58782 3.83104 0
M  V30 17 H 1.672 6.56266 2.65933 0
M  V30 18 H 2.08 4.83886 2.90714 0
M  V30 19 N 1.4781 -0.272755 1.55222 0
M  V30 20 C 2.4101 -1.35946 1.8453 0
M  V30 21 C 3.4231 -1.45525 0.729818 0
M  V30 22 O 4.6121 -1.47337 1.00767 0
M  V30 23 C 1.7121 -2.74069 1.99347 0
M  V30 24 C 0.8851 -2.87079 3.30007 0
M  V30 25 C -0.0559 -4.05879 3.34886 0
M  V30 26 O -1.0299 -3.96626 4.08261 0
M  V30 27 N 0.1721 -5.17857 2.62307 0
M  V30 28 H 2.9371 -1.11149 2.78327 0
M  V30 29 H 0.4981 -0.462869 1.55142 0
M  V30 30 H 2.4901 -3.51838 1.99981 0
M  V30 31 H 1.0601 -2.91688 1.12415 0
M  V30 32 H 0.2801 -1.96193 3.41909 0
M  V30 33 H 1.5681 -2.92701 4.16177 0
M  V30 34 H 0.9661 -5.28261 2.02377 0
M  V30 35 H -0.4769 -5.93855 2.68663 0
M  V30 36 N 2.9562 -1.48159 -0.537278 0
M  V30 37 C 4.2332 -1.46291 -1.29839 0
M  V30 38 C 4.6132 -0.170613 -2.10409 0
M  V30 39 O 3.9612 0.847746 -2.12192 0
M  V30 40 C 4.1712 -2.72055 -2.18603 0
M  V30 41 C 5.5192 -3.20087 -2.7898 0
M  V30 42 O 6.5432 -2.72921 -2.28894 0
M  V30 43 O 5.4022 -4.02138 -3.70064 0
M  V30 44 H 2.4962 -0.583906 -0.585647 0
M  V30 45 H 5.0422 -1.60384 -0.554534 0
M  V30 46 H 3.8142 -3.57628 -1.58801 0
M  V30 47 H 3.4372 -2.60646 -3.00249 0
M  V30 48 N 4.4343 0.785586 -1.36625 0
M  V30 49 C 5.6623 1.57448 -1.3423 0
M  V30 50 C 6.0773 1.88649 0.0755653 0
M  V30 51 O 5.4343 1.50414 1.03354 0
M  V30 52 C 5.4853 2.89316 -2.16745 0
M  V30 53 O 5.2063 2.59459 -3.53005 0
M  V30 54 C 6.7073 3.83606 -2.22174 0
M  V30 55 H 3.9273 0.488226 -0.4603 0
M  V30 56 H 6.4713 0.974733 -1.79775 0
M  V30 57 H 4.6263 3.4575 -1.74745 0
M  V30 58 H 5.0403 3.43804 -3.96105 0
M  V30 59 H 6.5143 4.73181 -2.8426 0
M  V30 60 H 6.9913 4.21734 -1.22627 0
M  V30 61 H 7.5973 3.33104 -2.64427 0
M  V30 62 N 5.9124 1.20967 1.01018 0
M  V30 63 C 7.1614 1.01796 1.74128 0
M  V30 64 C 7.4744 -0.449691 1.90361 0
M  V30 65 O 8.6804 -0.76068 2.60626 0
M  V30 66 C 7.1364 1.7727 3.13215 0
M  V30 67 C 6.7444 3.28171 3.04972 0
M  V30 68 C 8.4884 1.66489 3.90489 0
M  V30 69 C 6.3954 3.96156 4.39107 0
M  V30 70 H 5.3254 0.377276 0.652824 0
M  V30 71 H 7.9764 1.44651 1.12909 0
M  V30 72 H 6.3584 1.27205 3.75013 0
M  V30 73 H 7.5324 3.85499 2.52443 0
M  V30 74 H 5.8474 3.39437 2.41188 0
M  V30 75 H 8.4444 2.14617 4.89738 0
M  V30 76 H 8.7874 0.6222 4.11624 0
M  V30 77 H 9.3204 2.14003 3.35332 0
M  V30 78 H 6.0594 5.00604 4.23174 0
M  V30 79 H 5.5794 3.43617 4.91617 0
M  V30 80 H 7.2584 4.00774 5.07926 0
M  V30 81 N 7.3905 -1.2043 1.01659 0
M  V30 82 C 8.6375 -1.89797 0.705917 0
M  V30 83 C 8.9655 -1.78848 -0.764439 0
M  V30 84 O 8.2205 -1.16694 -1.57102 0
M  V30 85 C 8.5195 -3.40464 1.08714 0
M  V30 86 C 8.1855 -3.71614 2.5537 0
M  V30 87 C 6.8475 -3.79826 2.95441 0
M  V30 88 C 9.1995 -3.85915 3.50313 0
M  V30 89 C 6.5275 -3.99797 4.29394 0
M  V30 90 C 8.8795 -4.07396 4.83954 0
M  V30 91 C 7.5435 -4.13837 5.23732 0
M  V30 92 H 6.8135 -0.694518 0.258313 0
M  V30 93 H 9.4605 -1.42691 1.27717 0
M  V30 94 H 7.7655 -3.89385 0.434309 0
M  V30 95 H 9.4625 -3.92433 0.824461 0
M  V30 96 H 6.0525 -3.65822 2.23321 0
M  V30 97 H 10.2365 -3.78926 3.20513 0
M  V30 98 H 5.4925 -4.03018 4.59768 0
M  V30 99 H 9.6665 -4.17404 5.57447 0
M  V30 100 H 7.2935 -4.29064 6.27541 0
M  V30 101 N 8.8686 -0.792821 -1.36206 0
M  V30 102 C 9.7986 -0.207853 -2.32573 0
M  V30 103 C 10.7796 0.659055 -1.56813 0
M  V30 104 O 11.9646 0.592176 -1.84951 0
M  V30 105 C 9.0946 0.655449 -3.41059 0
M  V30 106 C 8.0486 -0.111842 -4.27854 0
M  V30 107 C 7.3746 0.872274 -5.27537 0
M  V30 108 C 8.6746 -1.30299 -5.05786 0
M  V30 109 H 10.3686 -1.01294 -2.81744 0
M  V30 110 H 7.9146 -0.48854 -1.3546 0
M  V30 111 H 9.8676 1.07464 -4.07467 0
M  V30 112 H 8.5916 1.49328 -2.90463 0
M  V30 113 H 7.2506 -0.512053 -3.63006 0
M  V30 114 H 6.8986 1.70523 -4.73214 0
M  V30 115 H 6.5986 0.363291 -5.86476 0
M  V30 116 H 8.1226 1.28996 -5.96818 0
M  V30 117 H 9.5366 -0.959379 -5.65216 0
M  V30 118 H 7.9336 -1.7455 -5.74154 0
M  V30 119 H 9.0036 -2.09663 -4.37229 0
M  V30 120 N 10.3467 1.47872 -0.545128 0
M  V30 121 C 11.2937 2.29849 0.2093 0
M  V30 122 C 12.2637 1.38313 0.919707 0
M  V30 123 O 13.4487 1.67277 0.917772 0
M  V30 124 C 10.5887 3.22019 1.24088 0
M  V30 125 C 9.7017 4.2864 0.537778 0
M  V30 126 C 8.8367 5.07973 1.5536 0
M  V30 127 C 7.8757 6.06381 0.8348 0
M  V30 128 N 7.0127 6.78717 1.79688 0
M  V30 129 H 11.8527 2.93845 -0.49591 0
M  V30 130 H 9.3897 1.44848 -0.256389 0
M  V30 131 H 11.3477 3.73868 1.85144 0
M  V30 132 H 9.9777 2.59914 1.91428 0
M  V30 133 H 9.0297 3.7994 -0.187046 0
M  V30 134 H 10.3417 4.98793 -0.0258907 0
M  V30 135 H 9.4957 5.63912 2.23803 0
M  V30 136 H 8.2347 4.37693 2.15118 0
M  V30 137 H 7.2397 5.49631 0.136388 0
M  V30 138 H 8.4647 6.78665 0.24313 0
M  V30 139 H 6.4107 6.11177 2.38326 0
M  V30 140 H 6.3277 7.44998 1.28505 0
M  V30 141 H 7.5957 7.39237 2.47282 0
M  V30 142 N 11.8248 0.280983 1.55075 0
M  V30 143 C 13.0728 -0.333455 1.9933 0
M  V30 144 C 13.3938 -1.55937 1.17085 0
M  V30 145 O 12.6638 -1.94143 0.261805 0
M  V30 146 H 11.2438 -0.126197 0.736263 0
M  V30 147 H 13.9058 0.387678 1.91005 0
M  V30 148 H 13.0018 -0.619292 3.05894 0
M  V30 149 N 13.3029 -1.57598 0.00835791 0
M  V30 150 C 14.2359 -2.04409 -1.01451 0
M  V30 151 C 15.2139 -0.935609 -1.32985 0
M  V30 152 O 16.3979 -1.20437 -1.45007 0
M  V30 153 C 13.5249 -2.44872 -2.33999 0
M  V30 154 C 12.5709 -3.66535 -2.18069 0
M  V30 155 S 13.4039 -5.14095 -1.4989 0
M  V30 156 C 14.5599 -5.57835 -2.8385 0
M  V30 157 H 14.7929 -2.90849 -0.615961 0
M  V30 158 H 12.3259 -1.53063 -0.202752 0
M  V30 159 H 14.2839 -2.68852 -3.10208 0
M  V30 160 H 12.9449 -1.58815 -2.70992 0
M  V30 161 H 12.1379 -3.92626 -3.16008 0
M  V30 162 H 11.7399 -3.426 -1.50004 0
M  V30 163 H 14.0319 -5.60806 -3.80136 0
M  V30 164 H 14.9749 -6.57667 -2.62449 0
M  V30 165 H 15.3829 -4.85421 -2.88144 0
M  V30 166 N 14.781 0.264519 -1.55364 0
M  V30 167 C 16.197 0.61215 -1.47394 0
M  V30 168 C 16.397 1.89134 -0.695018 0
M  V30 169 O 15.453 2.51563 -0.217275 0
M  V30 170 C 16.766 0.731235 -2.91674 0
M  V30 171 C 18.314 0.82473 -3.01939 0
M  V30 172 C 18.789 0.975522 -4.4749 0
M  V30 173 N 20.28 1.04083 -4.51354 0
M  V30 174 C 21.015 1.17646 -5.61201 0
M  V30 175 N 20.511 1.27874 -6.80896 0
M  V30 176 N 22.304 1.20823 -5.48961 0
M  V30 177 H 14.455 -0.575456 -2.04456 0
M  V30 178 H 16.718 -0.196099 -0.927496 0
M  V30 179 H 16.424 -0.138392 -3.51428 0
M  V30 180 H 16.298 1.60883 -3.41169 0
M  V30 181 H 18.685 1.68482 -2.42276 0
M  V30 182 H 18.766 -0.0776479 -2.55682 0
M  V30 183 H 18.41 0.120058 -5.07758 0
M  V30 184 H 18.34 1.89268 -4.91412 0
M  V30 185 H 20.831 0.973846 -3.65136 0
M  V30 186 H 21.144 1.38081 -7.60364 0
M  V30 187 H 19.489 1.24863 -6.83692 0
M  V30 188 H 22.68 1.12469 -4.54388 0
M  V30 189 H 22.853 1.31049 -6.3461 0
M  V30 190 N 16.2591 1.48442 0.529413 0
M  V30 191 C 17.5061 1.56488 1.28521 0
M  V30 192 C 17.8341 0.239042 1.93025 0
M  V30 193 O 17.0891 -0.770713 1.79885 0
M  V30 194 C 17.3881 2.6523 2.39558 0
M  V30 195 C 17.0541 4.07648 1.92702 0
M  V30 196 C 15.7161 4.46411 1.79641 0
M  V30 197 C 18.0681 4.96896 1.573 0
M  V30 198 C 15.3961 5.72226 1.29514 0
M  V30 199 C 17.7481 6.23202 1.08636 0
M  V30 200 C 16.4121 6.60821 0.941919 0
M  V30 201 H 15.6821 0.572631 0.470292 0
M  V30 202 H 18.3291 1.82161 0.59072 0
M  V30 203 H 16.6341 2.33419 3.14679 0
M  V30 204 H 18.3311 2.68671 2.97686 0
M  V30 205 H 14.9211 3.77036 2.03819 0
M  V30 206 H 19.1051 4.67626 1.66251 0
M  V30 207 H 14.3611 6.00097 1.17019 0
M  V30 208 H 18.5351 6.91753 0.803136 0
M  V30 209 H 16.1621 7.58198 0.5513 0
M  V30 210 N 17.7372 -0.778329 1.37039 0
M  V30 211 C 18.9672 -1.56507 1.34868 0
M  V30 212 C 19.3752 -1.89072 -0.0694802 0
M  V30 213 O 18.7182 -1.51434 -1.03987 0
M  V30 214 C 18.7802 -2.90641 2.11585 0
M  V30 215 C 18.4442 -2.80746 3.60598 0
M  V30 216 C 19.4412 -2.52226 4.54618 0
M  V30 217 C 17.1262 -2.98974 4.03633 0
M  V30 218 C 19.1202 -2.42054 5.89651 0
M  V30 219 C 16.8072 -2.88423 5.38754 0
M  V30 220 C 17.8052 -2.60002 6.31576 0
M  V30 221 O 17.4932 -2.49465 7.64214 0
M  V30 222 H 17.2252 -0.491723 0.463879 0
M  V30 223 H 19.7792 -0.973053 1.80889 0
M  V30 224 H 18.0092 -3.51936 1.60243 0
M  V30 225 H 19.6982 -3.51992 2.0213 0
M  V30 226 H 20.4642 -2.37835 4.22681 0
M  V30 227 H 16.3432 -3.20099 3.31749 0
M  V30 228 H 19.8872 -2.19791 6.62071 0
M  V30 229 H 15.7842 -3.0238 5.70295 0
M  V30 230 H 16.5522 -2.64864 7.74461 0
M  V30 231 N 19.2153 -1.21501 -1.00376 0
M  V30 232 C 20.4633 -1.03095 -1.73827 0
M  V30 233 C 20.7843 0.436341 -1.90055 0
M  V30 234 O 20.0543 1.31466 -1.45236 0
M  V30 235 H 18.6343 -0.378487 -0.644016 0
M  V30 236 H 21.2963 -1.52831 -1.20949 0
M  V30 237 H 20.3923 -1.49991 -2.73695 0
M  V30 238 N 20.6934 1.19889 -1.02296 0
M  V30 239 C 21.9234 1.93109 -0.734332 0
M  V30 240 C 22.3314 1.75377 0.709889 0
M  V30 241 O 21.6744 1.06912 1.49384 0
M  V30 242 C 21.7364 3.45362 -0.99827 0
M  V30 243 C 21.4004 3.8686 -2.43287 0
M  V30 244 C 22.3974 3.92102 -3.41397 0
M  V30 245 C 20.0824 4.18668 -2.77529 0
M  V30 246 C 22.0764 4.28573 -4.71809 0
M  V30 247 C 19.7634 4.54813 -4.08153 0
M  V30 248 C 20.7614 4.59739 -5.05103 0
M  V30 249 O 20.4494 4.95051 -6.33388 0
M  V30 250 H 20.1814 0.620409 -0.268456 0
M  V30 251 H 22.7354 1.53144 -1.3688 0
M  V30 252 H 20.9654 3.85482 -0.306645 0
M  V30 253 H 22.6544 3.99814 -0.700234 0
M  V30 254 H 23.4204 3.67685 -3.1628 0
M  V30 255 H 19.2994 4.14021 -2.0275 0
M  V30 256 H 22.8434 4.32333 -5.4748 0
M  V30 257 H 18.7404 4.78687 -4.33047 0
M  V30 258 H 19.5084 5.1302 -6.37772 0
M  V30 259 N 22.1715 0.800033 1.35784 0
M  V30 260 C 23.1215 0.178654 2.27299 0
M  V30 261 C 24.1055 -0.643667 1.47464 0
M  V30 262 O 25.2975 -0.502 1.69732 0
M  V30 263 C 22.4265 -0.677194 3.36555 0
M  V30 264 C 21.5125 0.154497 4.23818 0
M  V30 265 N 21.9035 1.21427 4.91008 0
M  V30 266 C 20.2015 -0.0649462 4.45953 0
M  V30 267 C 20.9025 1.72147 5.55644 0
M  V30 268 N 19.8785 1.02897 5.33773 0
M  V30 269 H 23.6805 0.989637 2.76737 0
M  V30 270 H 21.1945 0.64054 1.49234 0
M  V30 271 H 23.1915 -1.13835 4.01058 0
M  V30 272 H 21.8515 -1.4866 2.8867 0
M  V30 273 H 22.8625 1.59684 4.92668 0
M  V30 274 H 19.5395 -0.844016 4.0888 0
M  V30 275 H 20.9295 2.60683 6.19269 0
M  V30 276 N 23.6496 -1.47581 0.552962 0
M  V30 277 C 24.8976 -2.02082 0.0272703 0
M  V30 278 C 25.2186 -1.4301 -1.32563 0
M  V30 279 O 24.4886 -0.603745 -1.86365 0
M  V30 280 H 23.0686 -0.746966 0.00709182 0
M  V30 281 H 25.7306 -1.81033 0.722008 0
M  V30 282 H 24.8266 -3.12034 -0.0639951 0
M  V30 283 N 25.1277 -0.289203 -1.54924 0
M  V30 284 C 26.0907 0.579144 -2.21762 0
M  V30 285 C 27.0907 1.07047 -1.1999 0
M  V30 286 O 28.2807 0.968384 -1.44803 0
M  V30 287 C 25.4127 1.80055 -2.8947 0
M  V30 288 H 26.6057 -0.00464908 -2.999 0
M  V30 289 H 24.1587 -0.0399306 -1.56249 0
M  V30 290 H 24.8937 2.42449 -2.15381 0
M  V30 291 H 24.6787 1.45602 -3.64064 0
M  V30 292 H 26.1687 2.41773 -3.40493 0
M  V30 293 N 26.6058 1.57591 -0.0167156 0
M  V30 294 C 27.5358 2.12496 0.967858 0
M  V30 295 C 28.5168 1.03807 1.34752 0
M  V30 296 O 29.7018 1.31577 1.42833 0
M  V30 297 C 26.8318 2.64194 2.25431 0
M  V30 298 C 25.7858 3.77559 2.01576 0
M  V30 299 C 25.1118 4.15636 3.36379 0
M  V30 300 C 26.4118 5.04151 1.36489 0
M  V30 301 H 28.1058 2.95013 0.510643 0
M  V30 302 H 25.6518 1.41915 0.244181 0
M  V30 303 H 27.6048 3.01236 2.94678 0
M  V30 304 H 26.3288 1.78821 2.73296 0
M  V30 305 H 24.9878 3.40937 1.34751 0
M  V30 306 H 24.6358 3.27263 3.81979 0
M  V30 307 H 24.3358 4.92022 3.21229 0
M  V30 308 H 25.8598 4.5525 4.06915 0
M  V30 309 H 27.2738 5.38857 1.95718 0
M  V30 310 H 25.6708 5.85453 1.31776 0
M  V30 311 H 26.7408 4.83733 0.336219 0
M  V30 312 N 28.0839 -0.256276 1.55502 0
M  V30 313 C 29.3089 -1.00766 1.81276 0
M  V30 314 C 29.7339 -1.78524 0.59252 0
M  V30 315 O 29.0919 -1.75413 -0.45827 0
M  V30 316 C 29.1399 -1.92869 3.04687 0
M  V30 317 O 28.2439 -3.019 2.80945 0
M  V30 318 H 27.5849 -0.287224 0.598664 0
M  V30 319 H 30.1149 -0.280109 2.02674 0
M  V30 320 H 30.1249 -2.34511 3.33869 0
M  V30 321 H 28.7999 -1.35689 3.93143 0
M  V30 322 H 27.3769 -2.64454 2.62904 0
M  V30 323 N 29.562 -1.4872 -0.521534 0
M  V30 324 C 30.525 -1.63379 -1.60748 0
M  V30 325 C 31.525 -0.50661 -1.52611 0
M  V30 326 O 32.715 -0.772601 -1.5613 0
M  V30 327 C 29.847 -1.61192 -3.00383 0
M  V30 328 H 31.04 -2.60217 -1.49087 0
M  V30 329 H 28.593 -1.37444 -0.744235 0
M  V30 330 H 29.328 -0.65863 -3.17541 0
M  V30 331 H 29.113 -2.43032 -3.07698 0
M  V30 332 H 30.603 -1.7466 -3.7932 0
M  V30 333 N 31.0401 0.771051 -1.3745 0
M  V30 334 C 31.9501 1.91538 -1.35464 0
M  V30 335 C 32.9661 1.72134 -0.254123 0
M  V30 336 O 34.1421 1.95358 -0.489626 0
M  V30 337 C 31.2071 3.26671 -1.16134 0
M  V30 338 C 30.2681 3.58723 -2.35831 0
M  V30 339 C 29.5011 4.87409 -2.17413 0
M  V30 340 O 29.7241 5.58506 -1.15876 0
M  V30 341 O 28.6581 5.18539 -3.05615 0
M  V30 342 H 32.4841 1.96165 -2.31847 0
M  V30 343 H 30.0691 0.9139 -1.18187 0
M  V30 344 H 31.9511 4.07499 -1.07345 0
M  V30 345 H 30.6261 3.22894 -0.228251 0
M  V30 346 H 29.5331 2.78127 -2.50192 0
M  V30 347 H 30.8661 3.67243 -3.27709 0
M  V30 348 N 32.5182 1.22032 0.997298 0
M  V30 349 C 33.4662 0.983634 2.10778 0
M  V30 350 C 34.4602 -0.0717564 1.69248 0
M  V30 351 O 35.6662 0.080304 1.79821 0
M  V30 352 H 32.0412 0.300877 0.689186 0
M  V30 353 H 34.0122 1.92606 2.27916 0
M  V30 354 C 32.7612 0.57326 3.42942 0
M  V30 355 H 32.0842 1.37702 3.75338 0
M  V30 356 H 33.5242 0.447031 4.21637 0
M  V30 357 C 31.9832 -0.7167 3.29188 0
M  V30 358 O 32.5132 -1.77027 3.60589 0
M  V30 359 N 30.7192 -0.686167 2.82383 0
M  V30 360 H 30.2662 0.171507 2.57028 0
M  V30 361 H 30.2242 -1.54955 2.73562 0
M  V30 362 N 33.9963 -1.19345 1.0293 0
M  V30 363 C 34.9063 -2.26245 0.620515 0
M  V30 364 C 35.9223 -1.70486 -0.347928 0
M  V30 365 O 37.0983 -2.00347 -0.205704 0
M  V30 366 C 34.1633 -3.46693 -0.0218957 0
M  V30 367 C 33.2243 -4.17632 0.994102 0
M  V30 368 C 32.4573 -5.32329 0.382253 0
M  V30 369 O 32.6803 -5.64552 -0.814676 0
M  V30 370 O 31.6143 -5.91664 1.10531 0
M  V30 371 H 35.4403 -2.63453 1.51083 0
M  V30 372 H 33.0253 -1.26207 0.799513 0
M  V30 373 H 34.9073 -4.19683 -0.380072 0
M  V30 374 H 33.5823 -3.11333 -0.886209 0
M  V30 375 H 32.4893 -3.4676 1.40387 0
M  V30 376 H 33.8223 -4.56964 1.8288 0
M  V30 377 N 35.4744 -0.807222 -1.35358 0
M  V30 378 C 36.7234 -0.384376 -1.98004 0
M  V30 379 C 37.0364 1.0543 -1.64754 0
M  V30 380 O 38.2424 1.58029 -2.20769 0
M  V30 381 C 36.6984 -0.636326 -3.5423 0
M  V30 382 C 36.3064 -2.08759 -3.96388 0
M  V30 383 C 38.0504 -0.278869 -4.23583 0
M  V30 384 C 35.9574 -2.28525 -5.45463 0
M  V30 385 H 34.8874 -0.139986 -0.740891 0
M  V30 386 H 37.5384 -0.991369 -1.54415 0
M  V30 387 H 35.9204 0.0406256 -3.95979 0
M  V30 388 H 37.0944 -2.8024 -3.6579 0
M  V30 389 H 35.4094 -2.40497 -3.39926 0
M  V30 390 H 38.0064 -0.404599 -5.33167 0
M  V30 391 H 38.3494 0.775012 -4.09022 0
M  V30 392 H 38.8824 -0.909764 -3.87257 0
M  V30 393 H 35.6214 -3.32361 -5.64992 0
M  V30 394 H 35.1414 -1.61569 -5.77629 0
M  V30 395 H 36.8204 -2.10109 -6.11934 0
M  V30 396 N 36.9525 1.47285 -0.560781 0
M  V30 397 C 38.2005 2.02064 -0.0379868 0
M  V30 398 C 38.5215 1.43711 1.31803 0
M  V30 399 O 37.7915 0.61362 1.86042 0
M  V30 400 H 36.3715 0.746918 -0.0110531 0
M  V30 401 H 39.0335 1.80648 -0.731598 0
M  V30 402 H 38.1295 3.12064 0.0474463 0
M  V30 403 N 38.4306 0.297415 1.54768 0
M  V30 404 C 39.3626 -0.613881 2.20826 0
M  V30 405 C 40.3756 -1.10032 1.19987 0
M  V30 406 O 41.5646 -1.01839 1.46598 0
M  V30 407 C 38.6646 -1.852 2.83821 0
M  V30 408 C 37.8376 -1.50865 4.10559 0
M  V30 409 C 36.8966 -2.60154 4.57391 0
M  V30 410 O 35.9226 -2.25398 5.2267 0
M  V30 411 N 37.1246 -3.90629 4.29406 0
M  V30 412 H 39.8896 -0.048389 2.99661 0
M  V30 413 H 37.4506 0.11946 1.61459 0
M  V30 414 H 39.4426 -2.57652 3.12086 0
M  V30 415 H 38.0126 -2.32597 2.08847 0
M  V30 416 H 37.2326 -0.616925 3.89343 0
M  V30 417 H 38.5206 -1.25458 4.9309 0
M  V30 418 H 37.9186 -4.21677 3.77101 0
M  V30 419 H 36.4756 -4.59391 4.62388 0
M  V30 420 N 39.9087 -1.5758 0.0250728 0
M  V30 421 C 41.1577 -1.90811 -0.653767 0
M  V30 422 C 41.4707 -0.90273 -1.73523 0
M  V30 423 O 42.6767 -1.12614 -2.47043 0
M  V30 424 C 41.1327 -3.38804 -1.21409 0
M  V30 425 C 40.7407 -4.47692 -0.166126 0
M  V30 426 C 42.4847 -3.81108 -1.86967 0
M  V30 427 C 40.3917 -5.86779 -0.737856 0
M  V30 428 H 39.3217 -0.712063 -0.247956 0
M  V30 429 H 41.9727 -1.83281 0.0897137 0
M  V30 430 H 40.3547 -3.41252 -2.00905 0
M  V30 431 H 41.5287 -4.56797 0.606079 0
M  V30 432 H 39.8437 -4.14565 0.390466 0
M  V30 433 H 42.4407 -4.82375 -2.30692 0
M  V30 434 H 42.7837 -3.15953 -2.71071 0
M  V30 435 H 43.3167 -3.81065 -1.14167 0
M  V30 436 H 40.0557 -6.55468 0.0649577 0
M  V30 437 H 39.5757 -5.81288 -1.47864 0
M  V30 438 H 41.2547 -6.35223 -1.22884 0
M  V30 439 N 41.3868 0.248026 -1.55636 0
M  V30 440 C 42.6338 0.976224 -1.77415 0
M  V30 441 C 42.9618 1.85361 -0.589193 0
M  V30 442 O 42.2168 1.90973 0.427529 0
M  V30 443 C 42.5158 1.86819 -3.04686 0
M  V30 444 C 42.1818 1.14625 -4.36087 0
M  V30 445 C 40.8438 0.946723 -4.71795 0
M  V30 446 C 43.1958 0.634463 -5.17324 0
M  V30 447 C 40.5238 0.223091 -5.86276 0
M  V30 448 C 42.8758 -0.0756959 -6.32555 0
M  V30 449 C 41.5398 -0.286711 -6.66884 0
M  V30 450 H 40.8098 0.357226 -0.649208 0
M  V30 451 H 43.4568 0.246415 -1.89908 0
M  V30 452 H 41.7618 2.66502 -2.872 0
M  V30 453 H 43.4588 2.43329 -3.18735 0
M  V30 454 H 40.0488 1.3117 -4.08035 0
M  V30 455 H 44.2328 0.77616 -4.90193 0
M  V30 456 H 39.4888 0.0491185 -6.1138 0
M  V30 457 H 43.6628 -0.479899 -6.94745 0
M  V30 458 H 41.2898 -0.849389 -7.5544 0
M  V30 459 N 42.8649 1.48995 0.513639 0
M  V30 460 C 43.8119 1.6473 1.61656 0
M  V30 461 C 44.7819 0.488984 1.58739 0
M  V30 462 O 45.9669 0.714478 1.76918 0
M  V30 463 C 43.1069 1.7082 2.99858 0
M  V30 464 C 42.2199 2.9787 3.12885 0
M  V30 465 C 41.3549 2.95017 4.41744 0
M  V30 466 C 40.3939 4.16702 4.48359 0
M  V30 467 N 39.5309 4.11832 5.68629 0
M  V30 468 H 44.3709 2.58909 1.47547 0
M  V30 469 H 41.9079 1.28382 0.71808 0
M  V30 470 H 43.8659 1.72331 3.79944 0
M  V30 471 H 42.4959 0.801181 3.12699 0
M  V30 472 H 41.5479 3.06029 2.25944 0
M  V30 473 H 42.8599 3.8786 3.13633 0
M  V30 474 H 42.0139 2.95021 5.30139 0
M  V30 475 H 40.7529 2.02784 4.43542 0
M  V30 476 H 39.7579 4.16955 3.58369 0
M  V30 477 H 40.9829 5.10113 4.48287 0
M  V30 478 H 38.9289 3.22428 5.71293 0
M  V30 479 H 38.8459 4.95543 5.7094 0
M  V30 480 H 40.1139 4.1592 6.59266 0
M  V30 481 N 44.343 -0.763751 1.37857 0
M  V30 482 C 45.589 -1.52483 1.33704 0
M  V30 483 C 45.922 -1.94051 -0.0759612 0
M  V30 484 O 45.197 -1.64675 -1.03501 0
M  V30 485 C 45.48 -2.78441 2.28348 0
M  V30 486 C 45.333 -2.43075 3.78463 0
M  V30 487 C 46.652 -3.80415 2.21298 0
M  V30 488 H 43.771 -0.553169 0.487005 0
M  V30 489 H 46.413 -0.875562 1.68624 0
M  V30 490 H 44.563 -3.33842 1.987 0
M  V30 491 H 46.235 -1.93527 4.18742 0
M  V30 492 H 44.478 -1.75666 3.96641 0
M  V30 493 H 45.149 -3.33149 4.40132 0
M  V30 494 H 47.625 -3.34527 2.47449 0
M  V30 495 H 46.501 -4.66257 2.89647 0
M  V30 496 H 46.762 -4.25262 1.20849 0
M  V30 497 N 45.8211 -1.22559 -0.990812 0
M  V30 498 C 47.0981 -0.959875 -1.70428 0
M  V30 499 C 47.4781 0.524455 -2.04481 0
M  V30 500 O 46.8261 1.49302 -1.72977 0
M  V30 501 C 47.0361 -1.85955 -2.95333 0
M  V30 502 C 48.3841 -2.11687 -3.68068 0
M  V30 503 O 49.4081 -1.8342 -3.05345 0
M  V30 504 O 48.2671 -2.59572 -4.80921 0
M  V30 505 H 45.3611 -0.361154 -0.743974 0
M  V30 506 H 47.9071 -1.33554 -1.04697 0
M  V30 507 H 46.6791 -2.86346 -2.66687 0
M  V30 508 H 46.3021 -1.4856 -3.68803 0
M  V30 509 N 47.2992 1.18797 -1.03562 0
M  V30 510 C 48.5452 1.8893 -0.737113 0
M  V30 511 C 48.8782 1.79837 0.732956 0
M  V30 512 O 48.1532 1.19525 1.5344 0
M  V30 513 C 48.4362 3.39607 -1.19745 0
M  V30 514 C 48.2892 3.57537 -2.72924 0
M  V30 515 C 49.6082 4.33069 -0.783526 0
M  V30 516 H 46.7272 0.686057 -0.269249 0
M  V30 517 H 49.3692 1.39797 -1.28673 0
M  V30 518 H 47.5192 3.81583 -0.729855 0
M  V30 519 H 49.1912 3.24688 -3.27682 0
M  V30 520 H 47.4342 3.00363 -3.12993 0
M  V30 521 H 48.1052 4.63238 -3.00191 0
M  V30 522 H 50.5812 3.98846 -1.18581 0
M  V30 523 H 49.4572 5.3707 -1.13343 0
M  V30 524 H 49.7182 4.40986 0.313681 0
M  V30 525 N 48.7773 0.814389 1.34928 0
M  V30 526 C 50.0053 0.411136 2.02774 0
M  V30 527 C 50.4203 -0.980316 1.61354 0
M  V30 528 O 49.7773 -1.63299 0.814847 0
M  V30 529 C 49.8283 0.493865 3.58111 0
M  V30 530 O 49.5493 1.83047 3.98027 0
M  V30 531 C 51.0503 0.0844174 4.4322 0
M  V30 532 H 48.2703 0.166037 0.650133 0
M  V30 533 H 50.8143 1.10018 1.72384 0
M  V30 534 H 48.9693 -0.147006 3.87121 0
M  V30 535 H 49.3833 1.79872 4.92693 0
M  V30 536 H 50.8573 0.193404 5.51661 0
M  V30 537 H 51.3343 -0.97113 4.28329 0
M  V30 538 H 51.9403 0.69875 4.19521 0
M  V30 539 N 50.2554 -1.46986 0.568584 0
M  V30 540 C 51.1854 -2.32946 -0.160753 0
M  V30 541 C 52.1664 -1.44487 -0.897631 0
M  V30 542 O 53.3514 -1.73327 -0.875867 0
M  V30 543 C 50.4814 -3.26494 -1.18403 0
M  V30 544 C 49.4354 -4.24282 -0.562895 0
M  V30 545 C 48.7614 -5.07236 -1.69163 0
M  V30 546 C 50.0614 -5.19989 0.490761 0
M  V30 547 H 51.7554 -2.94175 0.556916 0
M  V30 548 H 49.3014 -1.4146 0.26927 0
M  V30 549 H 51.2544 -3.85477 -1.70251 0
M  V30 550 H 49.9784 -2.63343 -1.93179 0
M  V30 551 H 48.6374 -3.66541 -0.0656164 0
M  V30 552 H 48.2854 -4.4048 -2.42871 0
M  V30 553 H 47.9854 -5.7345 -1.28174 0
M  V30 554 H 49.5094 -5.6908 -2.21314 0
M  V30 555 H 50.9234 -5.73271 0.0579047 0
M  V30 556 H 49.3204 -5.94469 0.820165 0
M  V30 557 H 50.3904 -4.64777 1.3824 0
M  V30 558 N 51.7335 -0.305618 -1.54608 0
M  V30 559 C 52.6805 0.568421 -2.23691 0
M  V30 560 C 53.6505 1.12592 -1.22116 0
M  V30 561 O 54.8355 1.16959 -1.50749 0
M  V30 562 C 51.9755 1.7322 -2.98477 0
M  V30 563 C 51.0885 1.20566 -4.14835 0
M  V30 564 C 50.2235 2.33368 -4.77193 0
M  V30 565 C 49.2625 1.7787 -5.85686 0
M  V30 566 N 48.3995 2.84263 -6.4198 0
M  V30 567 H 53.2395 -0.0272867 -2.97988 0
M  V30 568 H 50.7765 -0.0252363 -1.47078 0
M  V30 569 H 52.7345 2.41675 -3.40072 0
M  V30 570 H 51.3645 2.29947 -2.26548 0
M  V30 571 H 50.4165 0.413223 -3.78149 0
M  V30 572 H 51.7285 0.759417 -4.92985 0
M  V30 573 H 50.8825 3.09761 -5.21664 0
M  V30 574 H 49.6215 2.8132 -3.98385 0
M  V30 575 H 48.6265 0.99968 -5.40635 0
M  V30 576 H 49.8515 1.30816 -6.66381 0
M  V30 577 H 47.7975 3.31541 -5.66053 0
M  V30 578 H 47.7145 2.44149 -7.15491 0
M  V30 579 H 48.9825 3.6054 -6.91109 0
M  V30 580 N 53.2116 1.57565 -0.0334293 0
M  V30 581 C 54.4576 1.92262 0.645226 0
M  V30 582 C 54.7906 0.910543 1.71531 0
M  V30 583 O 54.0656 -0.066099 1.94388 0
M  V30 584 C 54.3486 3.37422 1.2577 0
M  V30 585 C 54.2016 4.49369 0.196891 0
M  V30 586 C 55.5206 3.82628 2.17449 0
M  V30 587 H 52.6396 0.699171 0.233085 0
M  V30 588 H 55.2816 1.89779 -0.0915694 0
M  V30 589 H 53.4316 3.39669 1.88566 0
M  V30 590 H 55.1036 4.59254 -0.433962 0
M  V30 591 H 53.3466 4.31168 -0.477137 0
M  V30 592 H 54.0176 5.47978 0.665124 0
M  V30 593 H 56.4936 3.82145 1.64634 0
M  V30 594 H 55.3696 4.84883 2.57254 0
M  V30 595 H 55.6306 3.18376 3.0674 0
M  V30 596 N 54.6897 -0.239769 1.55765 0
M  V30 597 C 55.9667 -0.990056 1.68693 0
M  V30 598 C 56.3467 -2.03107 0.5754 0
M  V30 599 O 55.6947 -2.24604 -0.42017 0
M  V30 600 C 55.9047 -1.61696 3.09282 0
M  V30 601 C 57.2527 -2.11613 3.6811 0
M  V30 602 O 58.2767 -1.71624 3.12127 0
M  V30 603 O 57.1357 -2.85057 4.66267 0
M  V30 604 H 54.2297 -0.461299 0.686391 0
M  V30 605 H 56.7757 -0.232991 1.68093 0
M  V30 606 H 55.5477 -0.864357 3.81634 0
M  V30 607 H 55.1707 -2.44005 3.13923 0
M  V30 608 N 56.1678 -1.49265 -0.50573 0
M  V30 609 C 57.0978 -1.68495 -1.61653 0
M  V30 610 C 58.0788 -0.53366 -1.61512 0
M  V30 611 O 59.2638 -0.76897 -1.78327 0
M  V30 612 C 56.3938 -1.74709 -3.00157 0
M  V30 613 C 55.3478 -2.89581 -3.15162 0
M  V30 614 C 54.6738 -2.80903 -4.5497 0
M  V30 615 C 55.9738 -4.30578 -2.95634 0
M  V30 616 H 57.6678 -2.61493 -1.45814 0
M  V30 617 H 55.2138 -1.25838 -0.70005 0
M  V30 618 H 57.1668 -1.86748 -3.77761 0
M  V30 619 H 55.8908 -0.783067 -3.17074 0
M  V30 620 H 54.5498 -2.77136 -2.39982 0
M  V30 621 H 54.1978 -1.82419 -4.68756 0
M  V30 622 H 53.8978 -3.57999 -4.65951 0
M  V30 623 H 55.4218 -2.94944 -5.34641 0
M  V30 624 H 56.8358 -4.4373 -3.63011 0
M  V30 625 H 55.2328 -5.0886 -3.18091 0
M  V30 626 H 56.3028 -4.45352 -1.91806 0
M  V30 627 N 57.6459 0.756429 -1.3826 0
M  V30 628 C 58.8709 1.55077 -1.37717 0
M  V30 629 C 59.2959 1.88073 0.03164 0
M  V30 630 O 58.6539 1.50364 1.01293 0
M  V30 631 C 58.7019 2.8283 -2.23695 0
M  V30 632 O 57.8059 3.77862 -1.6521 0
M  V30 633 H 57.1469 0.469152 -0.469885 0
M  V30 634 H 59.6769 0.935019 -1.81985 0
M  V30 635 H 59.6869 3.31783 -2.37453 0
M  V30 636 H 58.3619 2.58144 -3.2609 0
M  V30 637 H 56.9389 3.36555 -1.60578 0
M  V30 638 N 59.124 1.23083 0.984299 0
M  V30 639 C 60.034 1.02515 2.11016 0
M  V30 640 C 61.05 -0.0291702 1.73976 0
M  V30 641 O 62.226 0.165434 2.00719 0
M  V30 642 C 59.291 0.614673 3.41208 0
M  V30 643 C 58.352 1.74359 3.92297 0
M  V30 644 C 57.585 1.35261 5.16275 0
M  V30 645 O 57.808 0.235136 5.69915 0
M  V30 646 O 56.742 2.17227 5.61334 0
M  V30 647 H 60.568 1.96862 2.31255 0
M  V30 648 H 58.153 1.01753 1.09392 0
M  V30 649 H 60.035 0.396518 4.1953 0
M  V30 650 H 58.71 -0.299851 3.22308 0
M  V30 651 H 57.617 2.01635 3.1511 0
M  V30 652 H 58.95 2.63629 4.15645 0
M  V30 653 N 60.6021 -1.18246 1.0419 0
M  V30 654 C 61.5651 -2.20128 0.638452 0
M  V30 655 C 62.5651 -1.57885 -0.304805 0
M  V30 656 O 63.7551 -1.73967 -0.0900369 0
M  V30 657 C 60.8871 -3.4084 -0.0637751 0
M  V30 658 H 62.0801 -2.57336 1.54007 0
M  V30 659 H 59.6331 -1.32152 0.834598 0
M  V30 660 H 60.3681 -3.09166 -0.979136 0
M  V30 661 H 60.1531 -3.8726 0.614198 0
M  V30 662 H 61.6431 -4.16274 -0.332512 0
M  V30 663 N 62.0802 -0.821533 -1.34494 0
M  V30 664 C 63.3282 -0.408139 -1.97936 0
M  V30 665 C 63.6492 1.03193 -1.65457 0
M  V30 666 O 62.9192 1.71622 -0.944595 0
M  V30 667 H 61.4992 -0.147928 -0.732206 0
M  V30 668 H 64.1612 -1.05067 -1.64155 0
M  V30 669 H 63.2572 -0.52601 -3.07635 0
M  V30 670 N 63.5583 1.46682 -0.576371 0
M  V30 671 C 64.9743 1.57822 -0.237562 0
M  V30 672 C 65.1743 1.57237 1.26011 0
M  V30 673 O 64.2303 1.48596 2.04146 0
M  V30 674 C 65.5433 2.87499 -0.881168 0
M  V30 675 C 67.0913 3.01119 -0.85417 0
M  V30 676 C 67.5663 4.33524 -1.4772 0
M  V30 677 N 69.0573 4.40207 -1.44125 0
M  V30 678 C 69.7923 5.4126 -1.89276 0
M  V30 679 N 69.2883 6.49021 -2.42371 0
M  V30 680 N 71.0813 5.32422 -1.80231 0
M  V30 681 H 63.2323 1.45306 -1.54919 0
M  V30 682 H 65.4953 0.692733 -0.647167 0
M  V30 683 H 65.2013 2.9372 -1.93447 0
M  V30 684 H 65.0753 3.75224 -0.385592 0
M  V30 685 H 67.4623 2.94485 0.190491 0
M  V30 686 H 67.5433 2.14887 -1.3877 0
M  V30 687 H 67.1873 4.40916 -2.52103 0
M  V30 688 H 67.1173 5.1852 -0.918947 0
M  V30 689 H 69.6083 3.62931 -1.05307 0
M  V30 690 H 69.9213 7.2233 -2.74698 0
M  V30 691 H 68.2663 6.49858 -2.46393 0
M  V30 692 H 71.4573 4.47137 -1.38514 0
M  V30 693 H 71.6303 6.11034 -2.15735 0
M  V30 694 N 65.0364 0.313813 1.54444 0
M  V30 695 C 66.2644 -0.293918 2.04802 0
M  V30 696 C 66.6794 -1.46537 1.19047 0
M  V30 697 O 66.0364 -1.81182 0.218939 0
M  V30 698 C 66.0874 -0.737806 3.53891 0
M  V30 699 O 65.8084 0.387038 4.36387 0
M  V30 700 C 67.3094 -1.40936 4.203 0
M  V30 701 H 64.5294 -0.0620057 0.668129 0
M  V30 702 H 67.0734 0.457169 1.99324 0
M  V30 703 H 65.2284 -1.43889 3.59687 0
M  V30 704 H 65.6424 0.0391274 5.24485 0
M  V30 705 H 67.1164 -1.67099 5.26101 0
M  V30 706 H 67.5934 -2.35355 3.70816 0
M  V30 707 H 68.1994 -0.751117 4.18615 0
M  V30 708 N 66.5145 -1.57545 0.0417849 0
M  V30 709 C 67.7915 -1.83642 -0.673433 0
M  V30 710 C 68.1715 -0.928298 -1.89594 0
M  V30 711 O 67.5195 0.0129955 -2.28496 0
M  V30 712 C 67.7295 -3.33155 -1.03964 0
M  V30 713 C 69.0775 -3.99941 -1.42592 0
M  V30 714 O 70.1015 -3.37725 -1.13226 0
M  V30 715 O 68.9605 -5.09619 -1.9736 0
M  V30 716 H 66.0545 -0.757638 -0.331533 0
M  V30 717 H 68.6005 -1.69554 0.070433 0
M  V30 718 H 67.3725 -3.9093 -0.170098 0
M  V30 719 H 66.9955 -3.52396 -1.84126 0
M  V30 720 N 67.9926 0.231505 -1.5589 0
M  V30 721 C 68.9406 1.30649 -1.92441 0
M  V30 722 C 69.9346 1.49037 -0.805254 0
M  V30 723 O 71.1406 1.50329 -0.990007 0
M  V30 724 H 67.5156 0.437812 -0.611412 0
M  V30 725 H 69.4866 0.970973 -2.82161 0
M  V30 726 C 68.2356 2.65179 -2.24889 0
M  V30 727 H 67.5586 2.51835 -3.10514 0
M  V30 728 H 68.9986 3.39234 -2.54355 0
M  V30 729 C 67.4576 3.19439 -1.07054 0
M  V30 730 O 67.9876 4.00371 -0.326499 0
M  V30 731 N 66.1936 2.77675 -0.85703 0
M  V30 732 H 65.7406 2.11969 -1.46379 0
M  V30 733 H 65.6986 3.14321 -0.0703223 0
M  V30 734 N 69.4707 1.49531 0.497807 0
M  V30 735 C 70.7167 1.59415 1.25358 0
M  V30 736 C 71.0497 0.281422 1.9215 0
M  V30 737 O 70.3247 -0.715249 1.80871 0
M  V30 738 C 70.6077 2.75566 2.3181 0
M  V30 739 C 70.4607 4.16642 1.69498 0
M  V30 740 C 71.7797 2.87347 3.33346 0
M  V30 741 H 68.8987 0.580244 0.454408 0
M  V30 742 H 71.5407 1.81827 0.551262 0
M  V30 743 H 69.6907 2.56587 2.91711 0
M  V30 744 H 71.3627 4.47145 1.13399 0
M  V30 745 H 69.6057 4.22141 0.998978 0
M  V30 746 H 70.2767 4.93792 2.46725 0
M  V30 747 H 72.7527 3.04634 2.83438 0
M  V30 748 H 71.6287 3.70289 4.05188 0
M  V30 749 H 71.8897 1.96834 3.95865 0
M  V30 750 N 70.9488 -0.749086 1.3866 0
M  V30 751 C 72.1978 -1.50371 1.3443 0
M  V30 752 C 72.5108 -1.95503 -0.0616397 0
M  V30 753 O 73.7168 -2.70554 -0.226489 0
M  V30 754 C 72.1728 -2.71644 2.36088 0
M  V30 755 C 71.7808 -2.3352 3.82325 0
M  V30 756 C 73.5248 -3.49518 2.40909 0
M  V30 757 C 71.4318 -3.51431 4.75658 0
M  V30 758 H 70.3618 -0.564628 0.499712 0
M  V30 759 H 73.0128 -0.818449 1.64237 0
M  V30 760 H 71.3948 -3.42175 1.9933 0
M  V30 761 H 72.5688 -1.70627 4.28046 0
M  V30 762 H 70.8838 -1.6877 3.80665 0
M  V30 763 H 73.4808 -4.37197 3.07836 0
M  V30 764 H 73.8238 -3.90992 1.42937 0
M  V30 765 H 74.3568 -2.86005 2.76489 0
M  V30 766 H 71.0958 -3.15019 5.74842 0
M  V30 767 H 70.6158 -4.13352 4.34627 0
M  V30 768 H 72.2948 -4.17953 4.93887 0
M  V30 769 N 72.4269 -1.23603 -0.977757 0
M  V30 770 C 73.7039 -0.977897 -1.69401 0
M  V30 771 C 74.0839 0.502738 -2.05026 0
M  V30 772 O 73.4319 1.47459 -1.74551 0
M  V30 773 C 73.6419 -1.89077 -2.93345 0
M  V30 774 C 74.9899 -2.15579 -3.65802 0
M  V30 775 O 76.0139 -1.86648 -3.03383 0
M  V30 776 O 74.8729 -2.64658 -4.78141 0
M  V30 777 H 71.9669 -0.369025 -0.740101 0
M  V30 778 H 74.5129 -1.34657 -1.03274 0
M  V30 779 H 73.2849 -2.89158 -2.63634 0
M  V30 780 H 72.9079 -1.52463 -3.67207 0
M  V30 781 N 73.905 1.17692 -1.04816 0
M  V30 782 C 75.133 1.91786 -0.776254 0
M  V30 783 C 75.548 1.76604 0.667577 0
M  V30 784 O 74.905 1.10067 1.45573 0
M  V30 785 C 74.956 3.42967 -1.14263 0
M  V30 786 O 74.677 3.57678 -2.52978 0
M  V30 787 C 76.178 4.34144 -0.896311 0
M  V30 788 H 73.398 0.608624 -0.282519 0
M  V30 789 H 75.942 1.49268 -1.39783 0
M  V30 790 H 74.097 3.83245 -0.565874 0
M  V30 791 H 74.511 4.51319 -2.67229 0
M  V30 792 H 75.985 5.38744 -1.20244 0
M  V30 793 H 76.462 4.38876 0.168636 0
M  V30 794 H 77.068 3.99574 -1.45672 0
M  V30 795 N 75.3831 0.828654 1.34056 0
M  V30 796 C 76.6291 0.42008 1.98402 0
M  V30 797 C 76.9621 -1.01564 1.65525 0
M  V30 798 O 76.2371 -1.70834 0.929831 0
M  V30 799 C 76.5201 0.62927 3.54559 0
M  V30 800 C 76.3731 2.11152 3.97159 0
M  V30 801 C 77.6921 0.0688756 4.40046 0
M  V30 802 H 74.8111 0.154104 0.720709 0
M  V30 803 H 77.4531 1.04228 1.5886 0
M  V30 804 H 75.6031 0.0996418 3.88372 0
M  V30 805 H 77.2751 2.70522 3.73651 0
M  V30 806 H 75.5181 2.59985 3.47261 0
M  V30 807 H 76.1891 2.20868 5.05887 0
M  V30 808 H 78.6651 0.521458 4.1282 0
M  V30 809 H 77.5411 0.245006 5.48353 0
M  V30 810 H 77.8021 -1.0266 4.30015 0
M  V30 811 N 76.8612 -1.46375 0.584142 0
M  V30 812 C 77.8112 -2.27371 -0.169232 0
M  V30 813 C 78.7952 -1.35955 -0.860523 0
M  V30 814 O 79.9872 -1.60119 -0.754382 0
M  V30 815 C 77.1162 -3.22334 -1.18134 0
M  V30 816 C 76.2022 -4.21235 -0.492088 0
M  V30 817 N 76.5932 -5.03766 0.453129 0
M  V30 818 C 74.8912 -4.39773 -0.742652 0
M  V30 819 C 75.5922 -5.75366 0.85609 0
M  V30 820 N 74.5682 -5.43214 0.204926 0
M  V30 821 H 78.3702 -2.88572 0.557097 0
M  V30 822 H 75.8842 -1.57242 0.406042 0
M  V30 823 H 77.8812 -3.79071 -1.73525 0
M  V30 824 H 76.5412 -2.62693 -1.90847 0
M  V30 825 H 77.5522 -5.11227 0.828723 0
M  V30 826 H 74.2292 -3.91279 -1.45625 0
M  V30 827 H 75.6192 -6.5172 1.63434 0
M  V30 828 N 78.3393 -0.321999 -1.54275 0
M  V30 829 C 79.5693 0.282642 -2.04658 0
M  V30 830 C 79.9773 1.46453 -1.19784 0
M  V30 831 O 79.3203 1.82367 -0.220932 0
M  V30 832 C 79.3823 0.781857 -3.50895 0
M  V30 833 C 79.0463 -0.277517 -4.56157 0
M  V30 834 C 80.0433 -1.11307 -5.07845 0
M  V30 835 C 77.7283 -0.425256 -5.00497 0
M  V30 836 C 79.7223 -2.08211 -6.02434 0
M  V30 837 C 77.4093 -1.39771 -5.94901 0
M  V30 838 C 78.4073 -2.2246 -6.45756 0
M  V30 839 O 78.0953 -3.18054 -7.38307 0
M  V30 840 H 77.8273 0.0622636 -0.673126 0
M  V30 841 H 80.3813 -0.465792 -2.00049 0
M  V30 842 H 78.6113 1.58118 -3.52896 0
M  V30 843 H 80.3003 1.30467 -3.84361 0
M  V30 844 H 81.0663 -1.00991 -4.74369 0
M  V30 845 H 76.9453 0.20847 -4.60528 0
M  V30 846 H 80.4893 -2.72791 -6.42052 0
M  V30 847 H 76.3863 -1.50152 -6.27794 0
M  V30 848 H 77.1543 -3.13275 -7.56175 0
M  V30 849 N 79.8174 1.5752 -0.0501392 0
M  V30 850 C 81.0654 1.9227 0.622642 0
M  V30 851 C 81.3864 0.929083 1.71444 0
M  V30 852 O 80.6564 -0.0262186 1.95882 0
M  V30 853 H 79.2364 0.709739 0.232981 0
M  V30 854 H 81.8984 1.94628 -0.102898 0
M  V30 855 H 80.9944 2.93479 1.06191 0
M  V30 856 N 81.2955 -0.223234 1.56011 0
M  V30 857 C 82.2055 -1.29766 1.95443 0
M  V30 858 C 83.2215 -1.51373 0.858028 0
M  V30 859 O 84.3975 -1.64536 1.16146 0
M  V30 860 C 81.4625 -2.62772 2.26167 0
M  V30 861 C 80.5235 -2.49482 3.49367 0
M  V30 862 C 79.7565 -3.76145 3.78616 0
M  V30 863 O 79.9795 -4.79087 3.09568 0
M  V30 864 O 78.9135 -3.73358 4.72109 0
M  V30 865 H 82.7395 -0.99309 2.87004 0
M  V30 866 H 80.3245 -0.425958 1.43199 0
M  V30 867 H 82.2065 -3.41327 2.47131 0
M  V30 868 H 80.8815 -2.92913 1.37781 0
M  V30 869 H 79.7885 -1.69133 3.33684 0
M  V30 870 H 81.1215 -2.2428 4.38131 0
M  V30 871 N 82.7736 -1.49793 -0.48987 0
M  V30 872 C 84.0196 -1.60078 -1.24511 0
M  V30 873 C 84.3526 -0.291608 -1.91998 0
M  V30 874 O 83.6276 0.705647 -1.81248 0
M  V30 875 C 83.9106 -2.76791 -2.30345 0
M  V30 876 C 83.7636 -4.17535 -1.67286 0
M  V30 877 C 85.0826 -2.89111 -3.31817 0
M  V30 878 H 82.2016 -0.582645 -0.451324 0
M  V30 879 H 84.8436 -1.82117 -0.541612 0
M  V30 880 H 82.9936 -2.5813 -2.90346 0
M  V30 881 H 84.6656 -4.4774 -1.11026 0
M  V30 882 H 82.9086 -4.22665 -0.976577 0
M  V30 883 H 83.5796 -4.95094 -2.44103 0
M  V30 884 H 86.0556 -3.06133 -2.81819 0
M  V30 885 H 84.9316 -3.72433 -4.03219 0
M  V30 886 H 85.1926 -1.9893 -3.94815 0
M  V30 887 N 84.2517 0.741722 -1.39055 0
M  V30 888 C 85.4987 1.50114 -1.35912 0
M  V30 889 C 85.8267 1.94443 0.0470937 0
M  V30 890 O 85.0817 1.66612 1.02659 0
M  V30 891 C 85.3807 2.7592 -2.27163 0
M  V30 892 C 85.0467 2.50493 -3.74919 0
M  V30 893 C 83.7087 2.43267 -4.1518 0
M  V30 894 C 86.0607 2.28585 -4.684 0
M  V30 895 C 83.3887 2.12166 -5.46994 0
M  V30 896 C 85.7407 1.99002 -6.00484 0
M  V30 897 C 84.4047 1.90241 -6.39816 0
M  V30 898 H 83.6747 0.549306 -0.497336 0
M  V30 899 H 86.3217 0.851896 -1.71508 0
M  V30 900 H 84.6267 3.45553 -1.84663 0
M  V30 901 H 86.3237 3.33923 -2.22028 0
M  V30 902 H 82.9137 2.56992 -3.43006 0
M  V30 903 H 87.0977 2.33139 -4.38132 0
M  V30 904 H 82.3537 2.03901 -5.76398 0
M  V30 905 H 86.5277 1.81057 -6.72452 0
M  V30 906 H 84.1547 1.65907 -7.41875 0
M  V30 907 N 85.7298 1.2412 0.971189 0
M  V30 908 C 86.6398 1.04747 2.09917 0
M  V30 909 C 87.6558 -0.0107162 1.73997 0
M  V30 910 O 88.8318 0.186714 2.00533 0
M  V30 911 C 85.8968 0.650828 3.40537 0
M  V30 912 C 84.9578 1.7851 3.90426 0
M  V30 913 C 84.1908 1.40729 5.14812 0
M  V30 914 O 84.4138 0.29557 5.69634 0
M  V30 915 O 83.3478 2.23168 5.58999 0
M  V30 916 H 87.1738 1.99304 2.29154 0
M  V30 917 H 84.7588 1.02908 1.08307 0
M  V30 918 H 86.6408 0.440992 4.19086 0
M  V30 919 H 85.3158 -0.265649 3.22608 0
M  V30 920 H 84.2228 2.04966 3.12953 0
M  V30 921 H 85.5558 2.68023 4.12825 0
M  V30 922 N 87.2079 -1.17134 1.05439 0
M  V30 923 C 88.1179 -2.24878 0.668365 0
M  V30 924 C 89.1339 -1.71186 -0.311687 0
M  V30 925 O 90.3099 -2.00738 -0.163161 0
M  V30 926 C 87.3749 -3.46662 0.051648 0
M  V30 927 C 86.4359 -4.15429 1.08246 0
M  V30 928 C 85.6689 -5.31399 0.495082 0
M  V30 929 O 85.8919 -5.66153 -0.694743 0
M  V30 930 O 84.8259 -5.89187 1.23056 0
M  V30 931 H 88.6519 -2.60189 1.56637 0
M  V30 932 H 86.2369 -1.24482 0.826104 0
M  V30 933 H 88.1189 -4.20394 -0.290966 0
M  V30 934 H 86.7939 -3.13142 -0.819971 0
M  V30 935 H 85.7009 -3.43704 1.47711 0
M  V30 936 H 87.0339 -4.52982 1.92532 0
M  V30 937 N 88.686 -0.835752 -1.33615 0
M  V30 938 C 89.932 -0.430596 -1.98176 0
M  V30 939 C 90.265 1.00684 -1.66061 0
M  V30 940 O 89.54 1.70339 -0.938877 0
M  V30 941 C 89.823 -0.648065 -3.5422 0
M  V30 942 C 89.676 -2.13255 -3.96033 0
M  V30 943 C 90.995 -0.0922113 -4.40003 0
M  V30 944 H 88.114 -0.157924 -0.719881 0
M  V30 945 H 90.756 -1.05069 -1.58305 0
M  V30 946 H 88.906 -0.120237 -3.88314 0
M  V30 947 H 90.578 -2.725 -3.72211 0
M  V30 948 H 88.821 -2.61823 -3.45878 0
M  V30 949 H 89.492 -2.23547 -5.04708 0
M  V30 950 H 91.968 -0.543343 -4.12537 0
M  V30 951 H 90.844 -0.274083 -5.48215 0
M  V30 952 H 91.105 1.00378 -4.30554 0
M  V30 953 N 90.1641 1.46063 -0.591896 0
M  V30 954 C 91.1111 2.30399 0.136069 0
M  V30 955 C 92.0811 1.41169 0.875238 0
M  V30 956 O 93.2661 1.70112 0.86409 0
M  V30 957 C 90.4061 3.25804 1.13781 0
M  V30 958 C 89.5191 4.30134 0.401137 0
M  V30 959 C 88.6541 5.12659 1.39121 0
M  V30 960 C 87.6931 6.0873 0.641462 0
M  V30 961 N 86.8301 6.8409 1.58004 0
M  V30 962 H 91.6701 2.92118 -0.589144 0
M  V30 963 H 89.2071 1.43959 -0.302342 0
M  V30 964 H 91.1651 3.79569 1.73156 0
M  V30 965 H 89.7951 2.65872 1.83062 0
M  V30 966 H 88.8471 3.79152 -0.307826 0
M  V30 967 H 90.1591 4.98458 -0.184565 0
M  V30 968 H 89.3131 5.70747 2.05749 0
M  V30 969 H 88.0521 4.44316 2.01084 0
M  V30 970 H 87.0571 5.49786 -0.0385419 0
M  V30 971 H 88.2821 6.79095 0.0270945 0
M  V30 972 H 86.2281 6.18449 2.18761 0
M  V30 973 H 86.1451 7.48709 1.04738 0
M  V30 974 H 87.4131 7.4673 2.23639 0
M  V30 975 N 91.6422 0.330177 1.54103 0
M  V30 976 C 92.8672 -0.274893 2.0557 0
M  V30 977 C 93.2922 -1.44487 1.20437 0
M  V30 978 O 92.6502 -1.80021 0.214991 0
M  V30 979 C 92.6982 -0.68079 3.54115 0
M  V30 980 O 91.8022 -1.7824 3.71893 0
M  V30 981 H 91.1432 -0.0483849 0.662235 0
M  V30 982 H 93.6732 0.480508 1.98878 0
M  V30 983 H 93.6832 -0.961635 3.96505 0
M  V30 984 H 92.3582 0.174903 4.15532 0
M  V30 985 H 90.9352 -1.49985 3.41407 0
M  V30 986 N 93.1203 -1.57491 0.0584922 0
M  V30 987 C 94.3693 -1.92155 -0.613146 0
M  V30 988 C 94.6823 -0.939334 -1.71569 0
M  V30 989 O 95.8883 -1.17829 -2.44599 0
M  V30 990 C 94.3443 -3.41303 -1.14195 0
M  V30 991 C 93.9523 -4.47944 -0.0711265 0
M  V30 992 C 95.6963 -3.84988 -1.78841 0
M  V30 993 C 93.6033 -5.88212 -0.613225 0
M  V30 994 H 92.5333 -0.717162 -0.232796 0
M  V30 995 H 95.1843 -1.83049 0.12857 0
M  V30 996 H 93.5663 -3.45437 -1.93621 0
M  V30 997 H 94.7403 -4.55408 0.702836 0
M  V30 998 H 93.0553 -4.13644 0.478313 0
M  V30 999 H 95.6523 -4.87159 -2.20408 0
M  V30 1000 H 95.9953 -3.21632 -2.64308 0
M  V30 1001 H 96.5283 -3.83401 -1.06059 0
M  V30 1002 H 93.2673 -6.55183 0.203978 0
M  V30 1003 H 92.7873 -5.84294 -1.35501 0
M  V30 1004 H 94.4663 -6.37687 -1.09383 0
M  V30 1005 N 94.5984 0.214957 -1.56127 0
M  V30 1006 C 95.5314 1.29382 -1.87977 0
M  V30 1007 C 96.5094 1.44897 -0.737807 0
M  V30 1008 O 97.6934 1.60605 -0.986833 0
M  V30 1009 C 94.8204 2.66325 -2.09258 0
M  V30 1010 C 93.8664 2.67789 -3.31951 0
M  V30 1011 S 94.6994 2.21198 -4.8768 0
M  V30 1012 C 95.8554 3.60003 -5.12004 0
M  V30 1013 H 96.0884 1.02173 -2.79192 0
M  V30 1014 H 93.6214 0.417516 -1.48648 0
M  V30 1015 H 95.5794 3.45162 -2.22201 0
M  V30 1016 H 94.2404 2.90755 -1.18829 0
M  V30 1017 H 93.4334 3.68436 -3.43906 0
M  V30 1018 H 93.0354 1.9702 -3.17898 0
M  V30 1019 H 95.3274 4.55739 -5.01307 0
M  V30 1020 H 96.2704 3.52959 -6.13861 0
M  V30 1021 H 96.6784 3.53996 -4.39712 0
M  V30 1022 N 96.0765 1.50051 0.48192 0
M  V30 1023 C 96.9865 1.7089 1.60728 0
M  V30 1024 C 98.0025 0.591788 1.63627 0
M  V30 1025 O 99.1785 0.868817 1.81696 0
M  V30 1026 C 96.2435 1.78855 2.97005 0
M  V30 1027 C 95.3045 3.02537 3.04581 0
M  V30 1028 C 94.5375 3.10112 4.34357 0
M  V30 1029 O 94.7605 2.24765 5.24249 0
M  V30 1030 O 93.6945 4.02747 4.47301 0
M  V30 1031 H 97.5205 2.66264 1.46072 0
M  V30 1032 H 95.1055 1.34018 0.660264 0
M  V30 1033 H 96.9875 1.86336 3.77964 0
M  V30 1034 H 95.6625 0.866628 3.11883 0
M  V30 1035 H 94.5695 3.00563 2.22739 0
M  V30 1036 H 95.9025 3.94272 2.94636 0
M  V30 1037 N 97.5546 -0.734337 1.39446 0
M  V30 1038 C 98.8026 -1.49096 1.36436 0
M  V30 1039 C 99.1236 -1.94961 -0.0388255 0
M  V30 1040 O 98.3936 -1.69033 -0.990191 0
M  V30 1041 H 96.9736 -0.5531 0.502085 0
M  V30 1042 H 99.6356 -0.871725 1.74319 0
M  V30 1043 H 98.7316 -2.37276 2.02747 0
M  V30 1044 N 99.0327 -1.24633 -0.964593 0
M  V30 1045 C 99.9797 -1.04144 -2.05968 0
M  V30 1046 C 100.95 0.046262 -1.66036 0
M  V30 1047 O 102.135 -0.108972 -1.90489 0
M  V30 1048 C 99.2747 -0.65563 -3.38815 0
M  V30 1049 C 98.3877 -1.81714 -3.91923 0
M  V30 1050 C 97.5227 -1.37662 -5.13052 0
M  V30 1051 C 96.5617 -2.50788 -5.58365 0
M  V30 1052 N 95.6987 -2.07582 -6.70712 0
M  V30 1053 H 100.539 -1.9787 -2.22827 0
M  V30 1054 H 98.0757 -0.9855 -1.09208 0
M  V30 1055 H 100.034 -0.412954 -4.15151 0
M  V30 1056 H 98.6637 0.244627 -3.21872 0
M  V30 1057 H 97.7157 -2.1734 -3.12198 0
M  V30 1058 H 99.0277 -2.66705 -4.21509 0
M  V30 1059 H 98.1817 -1.093 -5.96773 0
M  V30 1060 H 96.9207 -0.497293 -4.85158 0
M  V30 1061 H 95.9257 -2.79906 -4.73215 0
M  V30 1062 H 97.1507 -3.39283 -5.88272 0
M  V30 1063 H 95.0967 -1.22051 -6.44546 0
M  V30 1064 H 95.0137 -2.86125 -6.99763 0
M  V30 1065 H 96.2817 -1.82369 -7.57867 0
M  V30 1066 N 100.511 1.16574 -1.06058 0
M  V30 1067 C 101.474 2.19085 -0.673392 0
M  V30 1068 C 102.474 1.5835 0.279648 0
M  V30 1069 O 103.664 1.74088 0.0623488 0
M  V30 1070 C 100.796 3.40899 0.00954234 0
M  V30 1071 H 101.989 2.54853 -1.58081 0
M  V30 1072 H 99.5418 1.30808 -0.855516 0
M  V30 1073 H 100.277 3.10684 0.929826 0
M  V30 1074 H 100.062 3.86233 -0.67573 0
M  V30 1075 H 101.552 4.1675 0.266245 0
M  V30 1076 N 101.989 0.842826 1.3317 0
M  V30 1077 C 103.235 0.441099 1.97945 0
M  V30 1078 C 103.568 -0.998024 1.66593 0
M  V30 1079 O 102.843 -1.69839 0.947898 0
M  V30 1080 C 103.126 0.666841 3.53872 0
M  V30 1081 C 102.979 2.15352 3.94897 0
M  V30 1082 C 104.298 0.115544 4.39948 0
M  V30 1083 H 101.417 0.161739 0.719034 0
M  V30 1084 H 104.059 1.05907 1.57746 0
M  V30 1085 H 102.209 0.140828 3.88245 0
M  V30 1086 H 103.881 2.7447 3.70761 0
M  V30 1087 H 102.124 2.63653 3.44484 0
M  V30 1088 H 102.795 2.26221 5.03516 0
M  V30 1089 H 105.271 0.565213 4.12243 0
M  V30 1090 H 104.147 0.303152 5.48062 0
M  V30 1091 H 104.408 -0.980935 4.3108 0
M  V30 1092 N 103.467 -1.45747 0.599634 0
M  V30 1093 C 104.415 -2.322 -0.136426 0
M  V30 1094 C 105.409 -1.45497 -0.867583 0
M  V30 1095 O 106.615 -1.62027 -0.78405 0
M  V30 1096 H 102.99 -0.749368 -0.0628588 0
M  V30 1097 H 104.961 -2.92072 0.611281 0
M  V30 1098 C 103.71 -3.28974 -1.12567 0
M  V30 1099 H 103.033 -3.9568 -0.572484 0
M  V30 1100 H 104.473 -3.92212 -1.61077 0
M  V30 1101 C 102.932 -2.55561 -2.19523 0
M  V30 1102 O 103.462 -2.33111 -3.27143 0
M  V30 1103 N 101.668 -2.15832 -1.94589 0
M  V30 1104 H 101.215 -2.3429 -1.07078 0
M  V30 1105 H 101.173 -1.67034 -2.66359 0
M  V30 1106 N 104.945 -0.338344 -1.53925 0
M  V30 1107 C 105.875 0.51328 -2.27789 0
M  V30 1108 C 106.856 1.107 -1.29149 0
M  V30 1109 O 108.041 1.12937 -1.57984 0
M  V30 1110 C 105.171 1.66697 -3.04679 0
M  V30 1111 C 104.125 1.20183 -4.1078 0
M  V30 1112 C 103.451 2.44363 -4.75595 0
M  V30 1113 C 104.751 0.30605 -5.21403 0
M  V30 1114 H 106.445 -0.102883 -2.99223 0
M  V30 1115 H 103.991 -0.0509219 -1.4391 0
M  V30 1116 H 105.944 2.26915 -3.55088 0
M  V30 1117 H 104.668 2.30995 -2.30887 0
M  V30 1118 H 103.327 0.622499 -3.61276 0
M  V30 1119 H 102.975 3.07057 -3.98403 0
M  V30 1120 H 102.675 2.13925 -5.47275 0
M  V30 1121 H 104.199 3.05317 -5.28786 0
M  V30 1122 H 105.613 0.814929 -5.67478 0
M  V30 1123 H 104.01 0.0937929 -6.00027 0
M  V30 1124 H 105.08 -0.65921 -4.80398 0
M  V30 1125 N 106.423 1.57458 -0.0668435 0
M  V30 1126 C 107.353 2.15468 0.899764 0
M  V30 1127 C 108.334 1.08042 1.31381 0
M  V30 1128 O 109.519 1.36054 1.38574 0
M  V30 1129 C 106.649 2.71232 2.16911 0
M  V30 1130 C 105.603 3.83781 1.89463 0
M  V30 1131 C 104.929 4.26127 3.22986 0
M  V30 1132 C 106.229 5.08238 1.20381 0
M  V30 1133 H 107.923 2.96488 0.416529 0
M  V30 1134 H 105.469 1.4262 0.198908 0
M  V30 1135 H 107.422 3.10458 2.84945 0
M  V30 1136 H 106.146 1.87426 2.67468 0
M  V30 1137 H 104.805 3.45051 1.23836 0
M  V30 1138 H 104.453 3.39249 3.71374 0
M  V30 1139 H 104.153 5.01993 3.05413 0
M  V30 1140 H 105.677 4.67966 3.92225 0
M  V30 1141 H 107.091 5.44811 1.78475 0
M  V30 1142 H 105.488 5.89349 1.13083 0
M  V30 1143 H 106.558 4.84558 0.182153 0
M  V30 1144 N 107.901 -0.206675 1.56239 0
M  V30 1145 C 108.811 -1.27686 1.96808 0
M  V30 1146 C 109.827 -1.50455 0.874035 0
M  V30 1147 O 111.003 -1.63295 1.17884 0
M  V30 1148 C 108.068 -2.60358 2.28942 0
M  V30 1149 C 107.129 -2.45762 3.51994 0
M  V30 1150 C 106.362 -3.72108 3.82585 0
M  V30 1151 O 106.585 -4.75776 3.14631 0
M  V30 1152 O 105.519 -3.6833 4.76043 0
M  V30 1153 H 109.345 -0.962593 2.88041 0
M  V30 1154 H 106.93 -0.410746 1.43643 0
M  V30 1155 H 108.812 -3.38687 2.50737 0
M  V30 1156 H 107.487 -2.91435 1.4088 0
M  V30 1157 H 106.394 -1.65584 3.35459 0
M  V30 1158 H 107.727 -2.19621 4.40486 0
M  V30 1159 N 109.379 -1.50304 -0.473955 0
M  V30 1160 C 110.329 -1.65347 -1.56985 0
M  V30 1161 C 111.313 -0.508176 -1.52664 0
M  V30 1162 O 112.505 -0.762446 -1.59737 0
M  V30 1163 C 109.634 -1.74832 -2.95447 0
M  V30 1164 C 108.72 -2.95028 -3.04662 0
M  V30 1165 N 109.111 -4.18747 -2.83698 0
M  V30 1166 C 107.409 -2.93527 -3.35795 0
M  V30 1167 C 108.11 -4.99687 -2.97805 0
M  V30 1168 N 107.086 -4.33585 -3.2788 0
M  V30 1169 H 110.888 -2.58698 -1.39472 0
M  V30 1170 H 108.402 -1.47449 -0.680629 0
M  V30 1171 H 110.399 -1.83712 -3.7424 0
M  V30 1172 H 109.059 -0.826376 -3.14008 0
M  V30 1173 H 110.07 -4.48291 -2.59337 0
M  V30 1174 H 106.747 -2.10821 -3.60362 0
M  V30 1175 H 108.137 -6.08057 -2.85861 0
M  V30 1176 N 110.857 0.726932 -1.39834 0
M  V30 1177 C 111.787 1.85405 -1.41941 0
M  V30 1178 C 112.768 1.67751 -0.281728 0
M  V30 1179 O 113.953 1.8795 -0.488717 0
M  V30 1180 C 111.083 3.23243 -1.2701 0
M  V30 1181 C 110.037 3.55549 -2.38262 0
M  V30 1182 C 109.363 4.9241 -2.08415 0
M  V30 1183 C 110.663 3.577 -3.80589 0
M  V30 1184 H 112.357 1.83899 -2.36266 0
M  V30 1185 H 109.903 0.883349 -1.13723 0
M  V30 1186 H 111.856 4.01775 -1.27103 0
M  V30 1187 H 110.58 3.25296 -0.291564 0
M  V30 1188 H 109.239 2.79351 -2.37399 0
M  V30 1189 H 108.887 4.91052 -1.0898 0
M  V30 1190 H 108.587 5.14992 -2.82943 0
M  V30 1191 H 110.111 5.73289 -2.10171 0
M  V30 1192 H 111.525 4.26293 -3.83337 0
M  V30 1193 H 109.922 3.91804 -4.54543 0
M  V30 1194 H 110.992 2.57328 -4.10987 0
M  V30 1195 N 112.336 1.25143 0.95797 0
M  V30 1196 C 113.299 1.05321 2.03569 0
M  V30 1197 C 114.299 0.007152 1.60798 0
M  V30 1198 O 115.489 0.24903 1.72411 0
M  V30 1199 C 112.621 0.598394 3.35607 0
M  V30 1200 H 113.814 2.00986 2.22586 0
M  V30 1201 H 111.367 1.07502 1.13459 0
M  V30 1202 H 112.102 -0.361014 3.22284 0
M  V30 1203 H 111.887 1.35351 3.67998 0
M  V30 1204 H 113.377 0.48104 4.1482 0
M  V30 1205 N 113.814 -1.1601 1.06675 0
M  V30 1206 C 114.724 -2.24156 0.692179 0
M  V30 1207 C 115.74 -1.71507 -0.293513 0
M  V30 1208 O 116.916 -2.009 -0.141861 0
M  V30 1209 C 113.981 -3.46587 0.0884131 0
M  V30 1210 C 113.042 -4.14257 1.12646 0
M  V30 1211 C 112.275 -5.30844 0.551416 0
M  V30 1212 O 112.498 -5.66858 -0.634656 0
M  V30 1213 O 111.432 -5.87848 1.29298 0
M  V30 1214 H 115.258 -2.58513 1.59388 0
M  V30 1215 H 112.843 -1.23599 0.83926 0
M  V30 1216 H 114.725 -4.20679 -0.246361 0
M  V30 1217 H 113.4 -3.13994 -0.786712 0
M  V30 1218 H 112.307 -3.42118 1.51348 0
M  V30 1219 H 113.64 -4.50914 1.97325 0
M  V30 1220 N 115.292 -0.849877 -1.32721 0
M  V30 1221 C 116.708 -0.539102 -1.50219 0
M  V30 1222 C 116.908 0.931271 -1.78689 0
M  V30 1223 O 115.964 1.71455 -1.85363 0
M  V30 1224 C 117.277 -1.42196 -2.64954 0
M  V30 1225 C 118.825 -1.42189 -2.78839 0
M  V30 1226 C 119.3 -2.28985 -3.96648 0
M  V30 1227 N 120.791 -2.26754 -4.03902 0
M  V30 1228 C 121.526 -2.90644 -4.94281 0
M  V30 1229 N 121.022 -3.63629 -5.897 0
M  V30 1230 N 122.815 -2.80057 -4.87365 0
M  V30 1231 H 114.966 -1.80156 -1.12506 0
M  V30 1232 H 117.229 -0.769217 -0.554085 0
M  V30 1233 H 116.935 -2.46733 -2.50631 0
M  V30 1234 H 116.809 -1.10591 -3.60624 0
M  V30 1235 H 119.196 -0.38419 -2.92588 0
M  V30 1236 H 119.277 -1.77807 -1.83898 0
M  V30 1237 H 118.921 -3.32819 -3.83658 0
M  V30 1238 H 118.851 -1.90702 -4.90857 0
M  V30 1239 H 121.342 -1.73688 -3.3562 0
M  V30 1240 H 121.655 -4.09558 -6.55349 0
M  V30 1241 H 120 -3.67737 -5.89741 0
M  V30 1242 H 123.191 -2.22593 -4.11789 0
M  V30 1243 H 123.364 -3.30132 -5.57599 0
M  V30 1244 N 116.77 1.45427 -0.607355 0
M  V30 1245 C 118.019 2.01452 -0.100036 0
M  V30 1246 C 118.332 1.48159 1.27704 0
M  V30 1247 O 119.538 1.96159 1.87707 0
M  V30 1248 C 117.994 3.59672 -0.128158 0
M  V30 1249 C 117.602 4.21962 -1.50507 0
M  V30 1250 C 119.346 4.23262 0.323932 0
M  V30 1251 C 117.253 5.72333 -1.48959 0
M  V30 1252 H 116.183 0.75325 -0.0336299 0
M  V30 1253 H 118.834 1.66901 -0.76265 0
M  V30 1254 H 117.216 3.91411 0.601105 0
M  V30 1255 H 118.39 4.01796 -2.25602 0
M  V30 1256 H 116.705 3.70565 -1.89923 0
M  V30 1257 H 119.302 5.33522 0.354691 0
M  V30 1258 H 119.645 3.93921 1.34656 0
M  V30 1259 H 120.178 3.96239 -0.352056 0
M  V30 1260 H 116.917 6.06373 -2.48981 0
M  V30 1261 H 116.437 5.94691 -0.781214 0
M  V30 1262 H 118.116 6.35525 -1.21313 0
M  V30 1263 N 118.248 0.346503 1.53744 0
M  V30 1264 C 119.211 -0.496439 2.23759 0
M  V30 1265 C 120.211 -1.0252 1.2388 0
M  V30 1266 O 121.401 -0.913974 1.48297 0
M  V30 1267 C 118.533 -1.69187 2.95954 0
M  V30 1268 H 119.726 0.115952 2.99676 0
M  V30 1269 H 117.279 0.0978939 1.55993 0
M  V30 1270 H 118.014 -2.34288 2.24231 0
M  V30 1271 H 117.799 -1.31989 3.69217 0
M  V30 1272 H 119.289 -2.28969 3.49232 0
M  V30 1273 N 119.726 -1.57421 0.075193 0
M  V30 1274 C 120.674 -2.14124 -0.908508 0
M  V30 1275 C 121.668 -1.07898 -1.30592 0
M  V30 1276 O 122.874 -1.26273 -1.28277 0
M  V30 1277 H 119.249 -0.684707 -0.310935 0
M  V30 1278 H 121.22 -2.95634 -0.405374 0
M  V30 1279 C 119.969 -2.72044 -2.16535 0
M  V30 1280 H 119.292 -3.53456 -1.86839 0
M  V30 1281 H 120.732 -3.15311 -2.83469 0
M  V30 1282 C 119.191 -1.66968 -2.92615 0
M  V30 1283 O 119.721 -1.0967 -3.86439 0
M  V30 1284 N 117.927 -1.37923 -2.55784 0
M  V30 1285 H 117.474 -1.84706 -1.79559 0
M  V30 1286 H 117.432 -0.67852 -3.06991 0
M  V30 1287 N 121.204 0.198386 -1.56346 0
M  V30 1288 C 122.62 0.549085 -1.49857 0
M  V30 1289 C 122.82 1.86016 -0.774611 0
M  V30 1290 O 121.876 2.50416 -0.323776 0
M  V30 1291 C 123.189 0.606868 -2.94512 0
M  V30 1292 C 124.737 0.695925 -3.05165 0
M  V30 1293 C 125.212 0.784848 -4.51225 0
M  V30 1294 N 126.703 0.848463 -4.55363 0
M  V30 1295 C 127.438 0.937378 -5.65686 0
M  V30 1296 N 126.934 0.9888 -6.85707 0
M  V30 1297 N 128.727 0.974312 -5.53592 0
M  V30 1298 H 120.878 -0.661655 -2.01831 0
M  V30 1299 H 123.141 -0.235261 -0.918344 0
M  V30 1300 H 122.847 -0.28732 -3.50524 0
M  V30 1301 H 122.721 1.46268 -3.47686 0
M  V30 1302 H 125.108 1.58055 -2.49204 0
M  V30 1303 H 125.189 -0.186022 -2.55123 0
M  V30 1304 H 124.833 -0.0954072 -5.0781 0
M  V30 1305 H 124.763 1.68255 -4.98997 0
M  V30 1306 H 127.254 0.818103 -3.68938 0
M  V30 1307 H 127.567 1.05707 -7.65536 0
M  V30 1308 H 125.912 0.957534 -6.88372 0
M  V30 1309 H 129.103 0.930954 -4.58749 0
M  V30 1310 H 129.276 1.04015 -6.39597 0
M  V30 1311 N 122.682 1.50554 0.465978 0
M  V30 1312 C 123.931 1.61038 1.21448 0
M  V30 1313 C 124.244 0.31865 1.92987 0
M  V30 1314 O 125.45 0.302469 2.6981 0
M  V30 1315 C 123.906 2.84283 2.20706 0
M  V30 1316 C 123.514 4.20352 1.54946 0
M  V30 1317 C 125.258 3.04115 2.96166 0
M  V30 1318 C 123.165 5.34778 2.5252 0
M  V30 1319 H 122.095 0.599718 0.457005 0
M  V30 1320 H 124.746 1.7699 0.484424 0
M  V30 1321 H 123.128 2.61901 2.97025 0
M  V30 1322 H 124.302 4.53008 0.843811 0
M  V30 1323 H 122.617 4.06167 0.917475 0
M  V30 1324 H 125.214 3.86774 3.69202 0
M  V30 1325 H 125.557 2.16045 3.55852 0
M  V30 1326 H 126.09 3.26702 2.26959 0
M  V30 1327 H 122.829 6.25018 1.97566 0
M  V30 1328 H 122.349 5.06534 3.21222 0
M  V30 1329 H 124.028 5.65561 3.14245 0
M  V30 1330 N 124.16 -0.719506 1.40217 0
M  V30 1331 C 125.108 -1.85493 1.40339 0
M  V30 1332 C 126.102 -1.66995 0.284415 0
M  V30 1333 O 127.308 -1.74148 0.455252 0
M  V30 1334 H 123.683 -0.610857 0.438586 0
M  V30 1335 H 125.654 -1.82506 2.36081 0
M  V30 1336 C 124.403 -3.23321 1.27901 0
M  V30 1337 H 123.726 -3.38159 2.1328 0
M  V30 1338 H 125.166 -4.02914 1.32045 0
M  V30 1339 C 123.625 -3.36898 -0.0111355 0
M  V30 1340 O 124.155 -3.89674 -0.975538 0
M  V30 1341 N 122.361 -2.90492 -0.0793393 0
M  V30 1342 H 121.908 -2.47731 0.706183 0
M  V30 1343 H 121.866 -2.99955 -0.942038 0
M  V30 1344 N 125.638 -1.25649 -0.95132 0
M  V30 1345 C 126.863 -1.13443 -1.73624 0
M  V30 1346 C 127.288 0.307565 -1.85568 0
M  V30 1347 O 126.646 1.22282 -1.33854 0
M  V30 1348 C 126.694 -1.79723 -3.12621 0
M  V30 1349 O 125.798 -1.07912 -3.98031 0
M  V30 1350 H 125.139 -0.395872 -0.533086 0
M  V30 1351 H 127.669 -1.66276 -1.1922 0
M  V30 1352 H 127.679 -1.86141 -3.63064 0
M  V30 1353 H 126.354 -2.84633 -3.03244 0
M  V30 1354 H 124.931 -1.09398 -3.56492 0
M  V30 1355 N 127.117 1.15442 -1.07289 0
M  V30 1356 C 128.049 2.19773 -0.650585 0
M  V30 1357 C 129.062 1.60076 0.296572 0
M  V30 1358 O 130.251 1.78293 0.0859905 0
M  V30 1359 C 127.351 3.38838 0.0650398 0
M  V30 1360 C 126.524 4.2808 -0.898141 0
M  V30 1361 C 125.583 5.2574 -0.219926 0
M  V30 1362 O 124.609 5.62654 -0.860773 0
M  V30 1363 N 125.811 5.71205 1.03466 0
M  V30 1364 H 128.576 2.56622 -1.54808 0
M  V30 1365 H 126.137 1.30551 -0.957494 0
M  V30 1366 H 128.129 4.01222 0.529415 0
M  V30 1367 H 126.699 3.00409 0.864466 0
M  V30 1368 H 125.919 3.62804 -1.54165 0
M  V30 1369 H 127.207 4.84577 -1.5512 0
M  V30 1370 H 126.605 5.43325 1.57526 0
M  V30 1371 H 125.162 6.35633 1.44272 0
M  V30 1372 N 128.595 0.856903 1.32268 0
M  V30 1373 C 129.825 0.47475 2.01071 0
M  V30 1374 C 130.233 -0.933746 1.64553 0
M  V30 1375 O 129.576 -1.62114 0.863989 0
M  V30 1376 C 129.638 0.536746 3.55471 0
M  V30 1377 C 129.302 1.90453 4.15423 0
M  V30 1378 C 130.299 2.87029 4.33486 0
M  V30 1379 C 127.984 2.20229 4.51447 0
M  V30 1380 C 129.978 4.11532 4.86744 0
M  V30 1381 C 127.665 3.44984 5.0441 0
M  V30 1382 C 128.663 4.40452 5.22007 0
M  V30 1383 O 128.351 5.62998 5.73837 0
M  V30 1384 H 128.083 0.184778 0.650256 0
M  V30 1385 H 130.637 1.15615 1.69771 0
M  V30 1386 H 128.867 -0.20152 3.86175 0
M  V30 1387 H 130.556 0.169875 4.05544 0
M  V30 1388 H 131.322 2.6533 4.05986 0
M  V30 1389 H 127.201 1.46705 4.37034 0
M  V30 1390 H 130.745 4.86056 5.00395 0
M  V30 1391 H 126.642 3.66532 5.31342 0
M  V30 1392 H 127.41 5.64987 5.92226 0
M  V30 1393 N 130.073 -1.45103 0.615059 0
M  V30 1394 C 131.021 -2.32331 -0.111791 0
M  V30 1395 C 132.015 -1.46409 -0.852102 0
M  V30 1396 O 133.221 -1.62849 -0.766821 0
M  V30 1397 H 129.596 -0.749993 -0.0549072 0
M  V30 1398 H 131.567 -2.91407 0.642225 0
M  V30 1399 C 130.316 -3.3015 -1.09071 0
M  V30 1400 H 129.639 -3.96265 -0.530485 0
M  V30 1401 H 131.079 -3.93898 -1.56908 0
M  V30 1402 C 129.538 -2.57875 -2.168 0
M  V30 1403 O 130.068 -2.36567 -3.24652 0
M  V30 1404 N 128.274 -2.17884 -1.92289 0
M  V30 1405 H 127.821 -2.35413 -1.04587 0
M  V30 1406 H 127.779 -1.6985 -2.64572 0
M  V30 1407 N 131.551 -0.354651 -1.53558 0
M  V30 1408 C 132.967 -0.00315426 -1.596 0
M  V30 1409 C 133.167 1.47741 -1.37021 0
M  V30 1410 O 132.223 2.23759 -1.16996 0
M  V30 1411 C 133.536 -0.44929 -2.97325 0
M  V30 1412 C 135.084 -0.402578 -3.104 0
M  V30 1413 C 135.559 -0.824355 -4.5052 0
M  V30 1414 N 137.05 -0.778979 -4.56603 0
M  V30 1415 C 137.785 -1.07715 -5.63192 0
M  V30 1416 N 137.281 -1.44405 -6.77583 0
M  V30 1417 N 139.074 -1.00066 -5.53121 0
M  V30 1418 H 131.225 -1.31893 -1.66487 0
M  V30 1419 H 133.488 -0.538388 -0.780284 0
M  V30 1420 H 133.194 -1.48202 -3.1895 0
M  V30 1421 H 133.068 0.169772 -3.76818 0
M  V30 1422 H 135.455 0.621004 -2.88492 0
M  V30 1423 H 135.536 -1.05699 -2.32941 0
M  V30 1424 H 135.18 -1.846 -4.73165 0
M  V30 1425 H 135.11 -0.147304 -5.26394 0
M  V30 1426 H 137.601 -0.508528 -3.74463 0
M  V30 1427 H 137.914 -1.65612 -7.54846 0
M  V30 1428 H 136.259 -1.4826 -6.79002 0
M  V30 1429 H 139.45 -0.713293 -4.62633 0
M  V30 1430 H 139.623 -1.23638 -6.36096 0
M  V30 1431 N 133.029 1.57378 -0.0835403 0
M  V30 1432 C 134.275 1.94217 0.583733 0
M  V30 1433 C 134.608 0.964653 1.68547 0
M  V30 1434 O 133.883 -0.00422258 1.945 0
M  V30 1435 C 134.166 3.41253 1.14972 0
M  V30 1436 C 134.019 4.49768 0.0538277 0
M  V30 1437 C 135.338 3.89352 2.05166 0
M  V30 1438 H 132.457 0.706233 0.210724 0
M  V30 1439 H 135.099 1.89392 -0.1519 0
M  V30 1440 H 133.249 3.45496 1.77665 0
M  V30 1441 H 134.921 4.57641 -0.579851 0
M  V30 1442 H 133.164 4.29432 -0.614068 0
M  V30 1443 H 133.835 5.49817 0.490452 0
M  V30 1444 H 136.311 3.87189 1.52393 0
M  V30 1445 H 135.187 4.92822 2.41698 0
M  V30 1446 H 135.448 3.27973 2.96456 0
M  V30 1447 N 134.507 -0.190092 1.56449 0
M  V30 1448 C 135.44 -1.26375 1.90012 0
M  V30 1449 C 136.418 -1.43705 0.760765 0
M  V30 1450 O 137.602 -1.59014 1.01226 0
M  V30 1451 C 134.729 -2.62962 2.13468 0
M  V30 1452 C 133.775 -2.62474 3.36169 0
M  V30 1453 S 134.608 -2.13412 4.91137 0
M  V30 1454 C 135.764 -3.51812 5.17667 0
M  V30 1455 H 135.997 -0.977181 2.80782 0
M  V30 1456 H 133.53 -0.393814 1.49293 0
M  V30 1457 H 135.488 -3.41583 2.27664 0
M  V30 1458 H 134.149 -2.88828 1.23439 0
M  V30 1459 H 133.342 -3.62918 3.49723 0
M  V30 1460 H 132.944 -1.91937 3.20992 0
M  V30 1461 H 135.236 -4.47706 5.08494 0
M  V30 1462 H 136.179 -3.43148 6.19399 0
M  V30 1463 H 136.587 -3.46956 4.45288 0
M  V30 1464 N 135.985 -1.50799 -0.457987 0
M  V30 1465 C 136.895 -1.73426 -1.57989 0
M  V30 1466 C 137.911 -0.617745 -1.62665 0
M  V30 1467 O 139.087 -0.897614 -1.80291 0
M  V30 1468 C 136.152 -1.83557 -2.94122 0
M  V30 1469 C 135.213 -3.07345 -2.99729 0
M  V30 1470 C 134.446 -3.16983 -4.29368 0
M  V30 1471 O 134.669 -2.33077 -5.20607 0
M  V30 1472 O 133.603 -4.09812 -4.40837 0
M  V30 1473 H 137.429 -2.68555 -1.41817 0
M  V30 1474 H 135.014 -1.35052 -0.638859 0
M  V30 1475 H 136.896 -1.92326 -3.74952 0
M  V30 1476 H 135.571 -0.916137 -3.10465 0
M  V30 1477 H 134.478 -3.04068 -2.1793 0
M  V30 1478 H 135.811 -3.9891 -2.88326 0
M  V30 1479 N 137.463 0.71206 -1.40597 0
M  V30 1480 C 138.691 1.50111 -1.42388 0
M  V30 1481 C 139.106 1.88784 -0.0245395 0
M  V30 1482 O 138.463 1.55681 0.952351 0
M  V30 1483 C 138.514 2.7742 -2.31776 0
M  V30 1484 O 138.235 2.40382 -3.66262 0
M  V30 1485 C 139.736 3.7129 -2.42196 0
M  V30 1486 H 136.956 0.46314 -0.485533 0
M  V30 1487 H 139.5 0.878068 -1.8469 0
M  V30 1488 H 137.655 3.36001 -1.92827 0
M  V30 1489 H 138.069 3.22324 -4.13772 0
M  V30 1490 H 139.543 4.57448 -3.08943 0
M  V30 1491 H 140.02 4.14641 -1.44809 0
M  V30 1492 H 140.626 3.18619 -2.81712 0
M  V30 1493 N 138.941 1.26152 0.944643 0
M  V30 1494 C 139.888 1.07408 2.04285 0
M  V30 1495 C 140.858 -0.0198413 1.66088 0
M  V30 1496 O 142.043 0.139264 1.90291 0
M  V30 1497 C 139.183 0.70945 3.37729 0
M  V30 1498 C 138.296 1.87926 3.88983 0
M  V30 1499 C 137.431 1.45807 5.10797 0
M  V30 1500 C 136.47 2.5964 5.54305 0
M  V30 1501 N 135.607 2.18226 6.67324 0
M  V30 1502 H 140.447 2.01389 2.1965 0
M  V30 1503 H 137.984 1.00275 1.07626 0
M  V30 1504 H 139.942 0.478948 4.14442 0
M  V30 1505 H 138.572 -0.193389 3.2222 0
M  V30 1506 H 137.624 2.22279 3.08701 0
M  V30 1507 H 138.936 2.73377 4.17213 0
M  V30 1508 H 138.09 1.18781 5.94959 0
M  V30 1509 H 136.829 0.574414 4.84305 0
M  V30 1510 H 135.834 2.87399 4.68702 0
M  V30 1511 H 137.059 3.48599 5.828 0
M  V30 1512 H 135.005 1.3229 6.42523 0
M  V30 1513 H 134.922 2.97221 6.95123 0
M  V30 1514 H 136.19 1.94403 7.54869 0
M  V30 1515 N 140.419 -1.14872 1.07899 0
M  V30 1516 C 141.665 -1.86064 0.806725 0
M  V30 1517 C 141.998 -1.82434 -0.665706 0
M  V30 1518 O 141.273 -1.25138 -1.48899 0
M  V30 1519 C 141.556 -3.34929 1.32267 0
M  V30 1520 C 141.409 -3.47161 2.86006 0
M  V30 1521 C 142.728 -4.29863 0.943717 0
M  V30 1522 H 139.847 -0.675591 0.294526 0
M  V30 1523 H 142.489 -1.34925 1.33773 0
M  V30 1524 H 140.639 -3.78611 0.870974 0
M  V30 1525 H 142.311 -3.12302 3.39507 0
M  V30 1526 H 140.554 -2.88539 3.23925 0
M  V30 1527 H 141.225 -4.51777 3.17177 0
M  V30 1528 H 143.701 -3.9417 1.33302 0
M  V30 1529 H 142.577 -5.32494 1.33198 0
M  V30 1530 H 142.838 -4.41846 -0.149796 0
M  V30 1531 N 141.898 -0.863906 -1.31812 0
M  V30 1532 C 143.314 -0.555004 -1.49639 0
M  V30 1533 C 143.514 0.912266 -1.79666 0
M  V30 1534 O 142.57 1.69479 -1.87171 0
M  V30 1535 C 143.883 -1.44998 -2.63431 0
M  V30 1536 C 145.431 -1.45138 -2.77316 0
M  V30 1537 C 145.906 -2.33179 -3.94197 0
M  V30 1538 N 147.397 -2.31025 -4.01474 0
M  V30 1539 C 148.132 -2.95871 -4.9117 0
M  V30 1540 N 147.628 -3.69863 -5.8581 0
M  V30 1541 N 149.421 -2.85211 -4.84367 0
M  V30 1542 H 141.572 -1.81339 -1.10589 0
M  V30 1543 H 143.835 -0.77505 -0.545895 0
M  V30 1544 H 143.541 -2.49377 -2.48 0
M  V30 1545 H 143.415 -1.14409 -3.59431 0
M  V30 1546 H 145.802 -0.415201 -2.92164 0
M  V30 1547 H 145.883 -1.79747 -1.82001 0
M  V30 1548 H 145.527 -3.3687 -3.80107 0
M  V30 1549 H 145.457 -1.95897 -4.88807 0
M  V30 1550 H 147.948 -1.77238 -3.33759 0
M  V30 1551 H 148.261 -4.16486 -6.50968 0
M  V30 1552 H 146.606 -3.73971 -5.85808 0
M  V30 1553 H 149.797 -2.26948 -4.09405 0
M  V30 1554 H 149.97 -3.36027 -5.54066 0
M  V30 1555 N 143.376 1.44774 -0.622745 0
M  V30 1556 C 144.625 2.01334 -0.121397 0
M  V30 1557 C 144.938 1.49505 1.26125 0
M  V30 1558 O 146.144 1.98139 1.85616 0
M  V30 1559 C 144.6 3.59516 -0.166298 0
M  V30 1560 C 144.208 4.20342 -1.54974 0
M  V30 1561 C 145.952 4.23582 0.279021 0
M  V30 1562 C 143.859 5.70721 -1.55021 0
M  V30 1563 H 142.789 0.752851 -0.0416172 0
M  V30 1564 H 145.44 1.66083 -0.780309 0
M  V30 1565 H 143.822 3.92027 0.559557 0
M  V30 1566 H 144.996 3.99381 -2.29851 0
M  V30 1567 H 143.311 3.68529 -1.93843 0
M  V30 1568 H 145.908 5.33868 0.298083 0
M  V30 1569 H 146.251 3.95327 1.30471 0
M  V30 1570 H 146.784 3.95843 -0.394063 0
M  V30 1571 H 143.523 6.03698 -2.55399 0
M  V30 1572 H 143.043 5.93829 -0.844245 0
M  V30 1573 H 144.722 6.34203 -1.28047 0
M  V30 1574 N 144.854 0.36279 1.53368 0
M  V30 1575 C 146.082 -0.228613 2.05633 0
M  V30 1576 C 146.497 -1.42676 1.23649 0
M  V30 1577 O 145.854 -1.80394 0.27647 0
M  V30 1578 C 145.905 -0.624845 3.56059 0
M  V30 1579 O 145.626 0.525675 4.34935 0
M  V30 1580 C 147.127 -1.27493 4.24571 0
M  V30 1581 H 144.347 -0.0407183 0.669763 0
M  V30 1582 H 146.891 0.520352 1.97769 0
M  V30 1583 H 145.046 -1.32373 3.64083 0
M  V30 1584 H 145.46 0.205969 5.24095 0
M  V30 1585 H 146.934 -1.50277 5.31151 0
M  V30 1586 H 147.411 -2.23439 3.78116 0
M  V30 1587 H 148.017 -0.617558 4.20792 0
M  V30 1588 N 146.332 -1.57332 0.0918853 0
M  V30 1589 C 147.279 -2.13847 -0.868211 0
M  V30 1590 C 148.249 -1.05618 -1.28196 0
M  V30 1591 O 149.434 -1.33387 -1.36427 0
M  V30 1592 C 146.574 -2.72062 -2.12312 0
M  V30 1593 C 145.687 -3.94514 -1.7602 0
M  V30 1594 C 144.822 -4.40903 -2.96273 0
M  V30 1595 C 143.861 -5.55953 -2.56092 0
M  V30 1596 N 142.998 -5.97209 -3.69169 0
M  V30 1597 H 147.838 -2.95575 -0.379406 0
M  V30 1598 H 145.375 -1.46048 -0.175606 0
M  V30 1599 H 147.333 -3.03931 -2.858 0
M  V30 1600 H 145.963 -1.93068 -2.58698 0
M  V30 1601 H 145.015 -3.68979 -0.925135 0
M  V30 1602 H 146.327 -4.7802 -1.42472 0
M  V30 1603 H 145.481 -4.74539 -3.78018 0
M  V30 1604 H 144.22 -3.56291 -3.33029 0
M  V30 1605 H 143.225 -5.21948 -1.72773 0
M  V30 1606 H 144.45 -6.42311 -2.20484 0
M  V30 1607 H 142.396 -5.15543 -4.05649 0
M  V30 1608 H 142.313 -6.75504 -3.39456 0
M  V30 1609 H 143.581 -6.35475 -4.51434 0
M  V30 1610 N 147.81 0.181792 -1.56548 0
M  V30 1611 C 148.72 1.24538 -1.98815 0
M  V30 1612 C 149.736 1.49045 -0.897861 0
M  V30 1613 O 150.912 1.61399 -1.20467 0
M  V30 1614 C 147.977 2.56683 -2.33055 0
M  V30 1615 C 147.038 2.40131 -3.55859 0
M  V30 1616 C 146.271 3.65975 -3.88456 0
M  V30 1617 O 146.494 4.70711 -3.22161 0
M  V30 1618 O 145.428 3.6071 -4.81842 0
M  V30 1619 H 149.254 0.916647 -2.89536 0
M  V30 1620 H 146.839 0.387842 -1.44278 0
M  V30 1621 H 148.721 3.34655 -2.56094 0
M  V30 1622 H 147.396 2.89157 -1.45498 0
M  V30 1623 H 146.303 1.60226 -3.38051 0
M  V30 1624 H 147.636 2.12585 -4.43924 0
M  V30 1625 N 149.288 1.51039 0.449983 0
M  V30 1626 C 150.236 1.71995 1.5659 0
M  V30 1627 C 151.23 0.586029 1.5894 0
M  V30 1628 O 152.436 0.76709 1.62837 0
M  V30 1629 H 148.811 0.543233 0.520001 0
M  V30 1630 H 150.782 2.65562 1.36085 0
M  V30 1631 C 149.531 1.8506 2.9436 0
M  V30 1632 H 148.854 2.71712 2.93279 0
M  V30 1633 H 150.294 2.0374 3.71842 0
M  V30 1634 C 148.753 0.607277 3.31382 0
M  V30 1635 O 149.283 -0.243903 4.00959 0
M  V30 1636 N 147.489 0.455073 2.87015 0
M  V30 1637 H 147.036 1.14879 2.30566 0
M  V30 1638 H 146.994 -0.375611 3.12148 0
M  V30 1639 N 150.766 -0.704594 1.40972 0
M  V30 1640 C 152.177 -1.28418 1.3552 0
M  V30 1641 C 152.528 -1.96171 0.0339434 0
M  V30 1642 O 151.653 -1.98231 -0.867944 0
M  V30 1643 C 152.248 -2.33528 2.45459 0
M  V30 1644 C 150.807 -2.87085 2.43433 0
M  V30 1645 C 149.954 -1.61007 2.2577 0
M  V30 1646 H 152.905 -0.499963 1.50619 0
M  V30 1647 H 152.926 -3.14619 2.13998 0
M  V30 1648 H 152.438 -1.84187 3.41609 0
M  V30 1649 H 150.539 -3.40626 1.51013 0
M  V30 1650 H 150.652 -3.3813 3.39419 0
M  V30 1651 H 149.016 -1.86482 1.73483 0
M  V30 1652 H 149.799 -1.13675 3.23933 0
M  V30 1653 N 152.244 -1.26651 -0.937939 0
M  V30 1654 C 153.655 -1.1125 -1.49934 0
M  V30 1655 C 154.006 0.306077 -1.93798 0
M  V30 1656 O 153.131 1.19792 -1.80219 0
M  V30 1657 C 153.726 -2.01339 -2.72485 0
M  V30 1658 C 152.285 -1.90074 -3.24883 0
M  V30 1659 C 151.432 -1.94498 -1.97651 0
M  V30 1660 H 154.383 -1.39693 -0.753091 0
M  V30 1661 H 154.404 -1.56319 -3.46907 0
M  V30 1662 H 153.916 -3.04577 -2.40529 0
M  V30 1663 H 152.017 -0.897827 -3.61621 0
M  V30 1664 H 152.13 -2.75778 -3.9177 0
M  V30 1665 H 150.494 -1.38591 -2.13693 0
M  V30 1666 H 151.277 -2.99372 -1.68022 0
M  V30 1667 N 153.722 1.14298 -1.08507 0
M  V30 1668 C 154.971 1.84708 -0.810305 0
M  V30 1669 C 155.284 1.83903 0.666271 0
M  V30 1670 O 156.49 2.50112 1.05624 0
M  V30 1671 C 154.946 3.31572 -1.39957 0
M  V30 1672 C 154.554 3.40791 -2.90801 0
M  V30 1673 C 156.298 4.07087 -1.20334 0
M  V30 1674 C 154.205 4.81872 -3.4286 0
M  V30 1675 H 153.135 0.691985 -0.299454 0
M  V30 1676 H 155.786 1.28841 -1.30661 0
M  V30 1677 H 154.168 3.87183 -0.830976 0
M  V30 1678 H 155.342 2.95225 -3.53806 0
M  V30 1679 H 153.657 2.78732 -3.0935 0
M  V30 1680 H 156.254 5.11225 -1.56693 0
M  V30 1681 H 156.597 4.16054 -0.143237 0
M  V30 1682 H 157.13 3.57779 -1.73893 0
M  V30 1683 H 153.869 4.78094 -4.48449 0
M  V30 1684 H 153.389 5.27972 -2.84615 0
M  V30 1685 H 155.068 5.50765 -3.39509 0
M  V30 1686 N 155.201 0.870884 1.31352 0
M  V30 1687 C 156.612 0.534714 1.78879 0
M  V30 1688 C 156.963 -0.948423 1.71754 0
M  V30 1689 O 156.088 -1.74055 1.28584 0
M  V30 1690 C 156.683 0.963839 3.24801 0
M  V30 1691 C 155.242 0.679311 3.70219 0
M  V30 1692 C 154.389 1.15465 2.52117 0
M  V30 1693 H 157.34 1.05651 1.18421 0
M  V30 1694 H 157.361 0.286892 3.79417 0
M  V30 1695 H 156.873 2.04332 3.29955 0
M  V30 1696 H 154.974 -0.388769 3.70566 0
M  V30 1697 H 155.087 1.25698 4.62317 0
M  V30 1698 H 153.451 0.574383 2.48139 0
M  V30 1699 H 154.234 2.24157 2.60016 0
M  V30 1700 N 156.679 -1.44442 0.630414 0
M  V30 1701 C 157.927 -2.01653 0.134351 0
M  V30 1702 C 158.248 -1.49836 -1.24796 0
M  V30 1703 O 157.518 -0.701684 -1.82902 0
M  V30 1704 H 156.098 -0.74554 0.0466769 0
M  V30 1705 H 158.76 -1.76952 0.816955 0
M  V30 1706 H 157.856 -3.11935 0.101498 0
M  V30 1707 N 158.157 -0.370918 -1.53173 0
M  V30 1708 C 159.107 0.489588 -2.22681 0
M  V30 1709 C 160.091 1.04442 -1.22395 0
M  V30 1710 O 161.283 0.973578 -1.47819 0
M  V30 1711 C 158.412 1.626 -3.02351 0
M  V30 1712 C 157.498 1.08379 -4.10018 0
M  V30 1713 N 157.889 0.265004 -5.05105 0
M  V30 1714 C 156.187 1.35809 -4.2482 0
M  V30 1715 C 156.888 -0.0324755 -5.81691 0
M  V30 1716 N 155.864 0.566581 -5.40639 0
M  V30 1717 H 159.666 -0.142729 -2.93553 0
M  V30 1718 H 157.18 -0.179221 -1.61408 0
M  V30 1719 H 159.177 2.2547 -3.50669 0
M  V30 1720 H 157.837 2.26132 -2.33011 0
M  V30 1721 H 158.848 -0.0962352 -5.17811 0
M  V30 1722 H 155.525 1.9958 -3.66707 0
M  V30 1723 H 156.915 -0.69473 -6.68299 0
M  V30 1724 N 159.635 1.57281 -0.100228 0
M  V30 1725 C 160.865 1.98591 0.569681 0
M  V30 1726 C 161.273 0.978315 1.61943 0
M  V30 1727 O 160.616 -0.0396108 1.83657 0
M  V30 1728 C 160.678 3.36282 1.271 0
M  V30 1729 C 160.342 4.55488 0.371409 0
M  V30 1730 C 161.339 5.18491 -0.382504 0
M  V30 1731 C 159.024 5.01474 0.287965 0
M  V30 1732 C 161.018 6.25852 -1.20779 0
M  V30 1733 C 158.705 6.08701 -0.540965 0
M  V30 1734 C 159.703 6.70755 -1.28749 0
M  V30 1735 O 159.391 7.75914 -2.10269 0
M  V30 1736 H 159.123 0.65752 0.156982 0
M  V30 1737 H 161.677 2.0463 -0.177734 0
M  V30 1738 H 159.907 3.26941 2.0651 0
M  V30 1739 H 161.596 3.62005 1.83595 0
M  V30 1740 H 162.362 4.83891 -0.3278 0
M  V30 1741 H 158.241 4.52932 0.858689 0
M  V30 1742 H 161.785 6.74218 -1.79096 0
M  V30 1743 H 157.682 6.42732 -0.597131 0
M  V30 1744 H 158.45 7.92925 -2.03007 0
M  V30 1745 N 161.113 -0.173488 1.56642 0
M  V30 1746 C 162.39 -0.917617 1.7274 0
M  V30 1747 C 162.77 -2.00484 0.661027 0
M  V30 1748 O 162.118 -2.26184 -0.32453 0
M  V30 1749 C 162.328 -1.48433 3.15862 0
M  V30 1750 C 163.676 -1.95809 3.76754 0
M  V30 1751 O 164.7 -1.58231 3.19126 0
M  V30 1752 O 163.559 -2.65024 4.77938 0
M  V30 1753 H 160.653 -0.431772 0.705338 0
M  V30 1754 H 163.199 -0.161487 1.6893 0
M  V30 1755 H 161.971 -0.701715 3.84957 0
M  V30 1756 H 161.594 -2.30471 3.23989 0
M  V30 1757 N 162.591 -1.51276 -0.441967 0
M  V30 1758 C 163.839 -1.63392 -1.18943 0
M  V30 1759 C 164.16 -0.350159 -1.9183 0
M  V30 1760 O 163.43 0.633784 -1.85364 0
M  V30 1761 H 162.01 -0.602164 -0.442049 0
M  V30 1762 H 164.672 -1.88186 -0.507165 0
M  V30 1763 H 163.768 -2.45934 -1.92154 0
M  V30 1764 N 164.069 0.697108 -1.41344 0
M  V30 1765 C 165.315 1.4593 -1.40827 0
M  V30 1766 C 165.648 1.94193 -0.0167098 0
M  V30 1767 O 164.923 1.69425 0.955263 0
M  V30 1768 C 165.206 2.67229 -2.41373 0
M  V30 1769 C 165.059 2.24741 -3.8963 0
M  V30 1770 C 166.378 3.69423 -2.39196 0
M  V30 1771 H 163.497 0.529303 -0.512842 0
M  V30 1772 H 166.139 0.794112 -1.72609 0
M  V30 1773 H 164.289 3.23982 -2.14401 0
M  V30 1774 H 165.961 1.73327 -4.27499 0
M  V30 1775 H 164.204 1.56542 -4.0457 0
M  V30 1776 H 164.875 3.1177 -4.55525 0
M  V30 1777 H 167.351 3.2234 -2.63128 0
M  V30 1778 H 166.227 4.51907 -3.11563 0
M  V30 1779 H 166.488 4.19012 -1.41001 0
M  V30 1780 N 165.547 1.27147 0.931209 0
M  V30 1781 C 166.795 1.13055 1.6752 0
M  V30 1782 C 167.116 -0.324791 1.92276 0
M  V30 1783 O 166.386 -1.22775 1.52654 0
M  V30 1784 H 164.966 0.415391 0.620854 0
M  V30 1785 H 167.628 1.59623 1.11833 0
M  V30 1786 H 166.724 1.65694 2.64485 0
M  V30 1787 N 167.025 -1.13721 1.09112 0
M  V30 1788 C 168.274 -1.84275 0.82009 0
M  V30 1789 C 168.587 -1.84253 -0.656509 0
M  V30 1790 O 169.793 -2.50668 -1.04296 0
M  V30 1791 C 168.249 -3.30825 1.41714 0
M  V30 1792 C 167.857 -3.39244 2.92605 0
M  V30 1793 C 169.601 -4.06443 1.22492 0
M  V30 1794 C 167.508 -4.80047 3.45411 0
M  V30 1795 H 166.438 -0.690387 0.30312 0
M  V30 1796 H 169.089 -1.28146 1.31343 0
M  V30 1797 H 167.471 -3.86737 0.851498 0
M  V30 1798 H 168.645 -2.93344 3.55367 0
M  V30 1799 H 166.96 -2.77088 3.10823 0
M  V30 1800 H 169.557 -5.10387 1.59402 0
M  V30 1801 H 169.9 -4.15972 0.165299 0
M  V30 1802 H 170.433 -3.56852 1.75788 0
M  V30 1803 H 167.172 -4.75709 4.50978 0
M  V30 1804 H 166.692 -5.26455 2.87411 0
M  V30 1805 H 168.371 -5.48957 3.42425 0
M  V30 1806 N 168.503 -0.877838 -1.30888 0
M  V30 1807 C 169.413 -0.343096 -2.32078 0
M  V30 1808 C 170.429 0.551022 -1.65045 0
M  V30 1809 O 171.605 0.445854 -1.96403 0
M  V30 1810 C 168.67 0.439905 -3.43898 0
M  V30 1811 C 167.731 -0.483111 -4.26573 0
M  V30 1812 C 166.964 0.262616 -5.33053 0
M  V30 1813 O 167.187 1.48967 -5.50604 0
M  V30 1814 O 166.121 -0.383593 -6.00676 0
M  V30 1815 H 169.947 -1.18203 -2.79753 0
M  V30 1816 H 167.532 -0.64145 -1.34929 0
M  V30 1817 H 169.414 0.883504 -4.12034 0
M  V30 1818 H 168.089 1.25526 -2.98371 0
M  V30 1819 H 166.996 -0.975374 -3.61161 0
M  V30 1820 H 168.329 -1.26427 -4.75686 0
M  V30 1821 N 169.982 1.44106 -0.638065 0
M  V30 1822 C 171.231 2.01194 -0.142744 0
M  V30 1823 C 171.544 1.50835 1.24532 0
M  V30 1824 O 172.75 2.00096 1.83504 0
M  V30 1825 C 171.206 3.59319 -0.20442 0
M  V30 1826 C 170.814 4.18674 -1.59423 0
M  V30 1827 C 172.558 4.23854 0.234079 0
M  V30 1828 C 170.465 5.69045 -1.61065 0
M  V30 1829 H 169.395 0.752367 -0.0495998 0
M  V30 1830 H 172.046 1.65246 -0.797881 0
M  V30 1831 H 170.428 3.92598 0.517946 0
M  V30 1832 H 171.602 3.96921 -2.34074 0
M  V30 1833 H 169.917 3.66453 -1.97741 0
M  V30 1834 H 172.514 5.34155 0.241443 0
M  V30 1835 H 172.857 3.96688 1.2627 0
M  V30 1836 H 173.39 3.95403 -0.436025 0
M  V30 1837 H 170.129 6.00956 -2.61787 0
M  V30 1838 H 169.649 5.929 -0.90718 0
M  V30 1839 H 171.328 6.32809 -1.34766 0
M  V30 1840 N 171.46 0.379036 1.52974 0
M  V30 1841 C 172.706 -0.206727 2.01744 0
M  V30 1842 C 173.039 -1.47314 1.26539 0
M  V30 1843 O 172.314 -1.91084 0.362903 0
M  V30 1844 C 172.597 -0.485066 3.56818 0
M  V30 1845 C 172.45 0.795919 4.42702 0
M  V30 1846 C 173.769 -1.28003 4.21074 0
M  V30 1847 H 170.888 -0.0736607 0.73331 0
M  V30 1848 H 173.53 0.506581 1.83122 0
M  V30 1849 H 171.68 -1.09272 3.72816 0
M  V30 1850 H 173.352 1.43307 4.38476 0
M  V30 1851 H 171.595 1.41344 4.10127 0
M  V30 1852 H 172.266 0.555947 5.49193 0
M  V30 1853 H 174.742 -0.765867 4.08991 0
M  V30 1854 H 173.618 -1.44352 5.29579 0
M  V30 1855 H 173.879 -2.29236 3.78026 0
M  V30 1856 N 172.938 -1.57226 0.108567 0
M  V30 1857 C 174.354 -1.5766 -0.248058 0
M  V30 1858 C 174.554 -1.12063 -1.67464 0
M  V30 1859 O 173.61 -0.803236 -2.39383 0
M  V30 1860 C 174.923 -3.0069 -0.0242287 0
M  V30 1861 C 176.471 -3.12868 -0.0909372 0
M  V30 1862 C 176.946 -4.57879 0.105067 0
M  V30 1863 N 178.437 -4.63172 0.0506846 0
M  V30 1864 C 179.172 -5.73126 0.177396 0
M  V30 1865 N 178.668 -6.91866 0.359696 0
M  V30 1866 N 180.461 -5.61977 0.117709 0
M  V30 1867 H 172.612 -1.85169 1.04049 0
M  V30 1868 H 174.875 -0.85529 0.40888 0
M  V30 1869 H 174.581 -3.38299 0.961604 0
M  V30 1870 H 174.455 -3.6945 -0.76068 0
M  V30 1871 H 176.842 -2.75124 -1.06729 0
M  V30 1872 H 176.923 -2.46672 0.677225 0
M  V30 1873 H 176.567 -4.96321 1.07834 0
M  V30 1874 H 176.497 -5.22153 -0.682954 0
M  V30 1875 H 178.988 -3.778 -0.0871266 0
M  V30 1876 H 179.301 -7.71503 0.447529 0
M  V30 1877 H 177.646 -6.93874 0.395536 0
M  V30 1878 H 180.837 -4.68094 -0.0236741 0
M  V30 1879 H 181.01 -6.47627 0.219905 0
M  V30 1880 N 174.416 0.165178 -1.56732 0
M  V30 1881 C 175.326 1.22423 -2.00125 0
M  V30 1882 C 176.342 1.48084 -0.913619 0
M  V30 1883 O 177.518 1.60112 -1.22172 0
M  V30 1884 C 174.583 2.54197 -2.35764 0
M  V30 1885 C 173.644 2.36343 -3.58386 0
M  V30 1886 C 172.877 3.61834 -3.92316 0
M  V30 1887 O 173.1 4.67267 -3.27135 0
M  V30 1888 O 172.034 3.55579 -4.85641 0
M  V30 1889 H 175.86 0.885886 -2.90492 0
M  V30 1890 H 173.445 0.372518 -1.44681 0
M  V30 1891 H 175.327 3.3192 -2.59629 0
M  V30 1892 H 174.002 2.87598 -1.48557 0
M  V30 1893 H 172.909 1.56632 -3.39731 0
M  V30 1894 H 174.242 2.07865 -4.46154 0
M  V30 1895 N 175.894 1.51508 0.433938 0
M  V30 1896 C 176.842 1.73646 1.54757 0
M  V30 1897 C 177.836 0.602854 1.5831 0
M  V30 1898 O 179.042 0.784318 1.62014 0
M  V30 1899 H 175.417 0.548718 0.51421 0
M  V30 1900 H 177.388 2.66991 1.33261 0
M  V30 1901 C 176.137 1.88172 2.92381 0
M  V30 1902 H 175.46 2.74808 2.90381 0
M  V30 1903 H 176.9 2.07672 3.6966 0
M  V30 1904 C 175.359 0.64239 3.30719 0
M  V30 1905 O 175.889 -0.201362 4.01195 0
M  V30 1906 N 174.095 0.485489 2.86516 0
M  V30 1907 H 173.642 1.17318 2.29334 0
M  V30 1908 H 173.6 -0.342482 3.12529 0
M  V30 1909 N 177.372 -0.689602 1.41712 0
M  V30 1910 C 178.319 -1.80345 1.44029 0
M  V30 1911 C 179.289 -1.63478 0.293948 0
M  V30 1912 O 180.474 -1.84244 0.495869 0
M  V30 1913 C 177.614 -3.18272 1.33405 0
M  V30 1914 C 176.727 -3.46529 2.57956 0
M  V30 1915 C 175.862 -4.74103 2.39582 0
M  V30 1916 C 174.901 -4.95347 3.5958 0
M  V30 1917 N 174.038 -6.14151 3.40239 0
M  V30 1918 H 178.878 -1.77698 2.39222 0
M  V30 1919 H 176.415 -0.867688 1.18784 0
M  V30 1920 H 178.373 -3.97956 1.25246 0
M  V30 1921 H 177.003 -3.2008 0.418164 0
M  V30 1922 H 176.055 -2.61207 2.76542 0
M  V30 1923 H 177.367 -3.58126 3.47199 0
M  V30 1924 H 176.521 -5.61853 2.28924 0
M  V30 1925 H 175.26 -4.64763 1.47805 0
M  V30 1926 H 174.265 -4.06044 3.70686 0
M  V30 1927 H 175.49 -5.06542 4.52318 0
M  V30 1928 H 173.436 -6.06013 2.51167 0
M  V30 1929 H 173.353 -6.26543 4.23061 0
M  V30 1930 H 174.621 -7.04619 3.33365 0
M  V30 1931 O 178.889 -1.38429 -0.831842 0
M  V30 1932 H 179.58 -1.25628 -1.47436 0
M  V30 END ATOM
M  V30 BEGIN BOND
M  V30 END BOND
M  V30 END CTAB
M  END
$$$$
