drugbank_target|P26010 Integrin beta-7 (DB05122; DB09033)
 OpenBabel12092120313D

  0  0  0     0  0            999 V3000
M  V30 BEGIN CTAB
M  V30 COUNTS 11939 12059 0 0 0
M  V30 BEGIN ATOM
M  V30 1 H -0.908 1.98254 -0.117106 0
M  V30 2 N 0 1.576 0 0
M  V30 3 C 0.933 2.03868 1.02534 0
M  V30 4 C 1.911 0.928543 1.3348 0
M  V30 5 O 3.095 1.19667 1.45644 0
M  V30 6 C 0.222 2.43627 2.35294 0
M  V30 7 C -0.732 3.65373 2.2001 0
M  V30 8 S 0.101 5.13292 1.52614 0
M  V30 9 C 1.257 5.56322 2.86805 0
M  V30 10 H 1.49 2.90518 0.631377 0
M  V30 11 H -0.977 1.52953 0.210867 0
M  V30 12 H 0.981 2.67203 3.11629 0
M  V30 13 H -0.358 1.57376 2.7183 0
M  V30 14 H -1.165 3.90944 3.18086 0
M  V30 15 H -1.563 3.418 1.51819 0
M  V30 16 H 0.729 5.58782 3.83104 0
M  V30 17 H 1.672 6.56266 2.65933 0
M  V30 18 H 2.08 4.83886 2.90714 0
M  V30 19 N 1.4781 -0.272755 1.55222 0
M  V30 20 C 2.7241 -1.00581 1.761 0
M  V30 21 C 3.0571 -1.85932 0.560625 0
M  V30 22 O 2.3321 -1.89416 -0.441801 0
M  V30 23 C 2.6151 -1.88816 3.06628 0
M  V30 24 C 2.4681 -1.06457 4.37021 0
M  V30 25 C 3.7871 -2.8752 3.33197 0
M  V30 26 H 0.9061 -0.364244 0.640699 0
M  V30 27 H 3.5481 -0.278189 1.87952 0
M  V30 28 H 1.6981 -2.50856 2.96654 0
M  V30 29 H 3.3701 -0.464863 4.58952 0
M  V30 30 H 1.6131 -0.368043 4.32236 0
M  V30 31 H 2.2841 -1.71514 5.24678 0
M  V30 32 H 4.7601 -2.35615 3.42965 0
M  V30 33 H 3.6361 -3.46399 4.25792 0
M  V30 34 H 3.8971 -3.62657 2.52849 0
M  V30 35 N 2.9562 -1.48159 -0.537278 0
M  V30 36 C 3.9192 -1.61665 -1.62472 0
M  V30 37 C 4.9192 -0.490395 -1.5314 0
M  V30 38 O 6.1092 -0.755998 -1.5694 0
M  V30 39 C 3.2412 -1.57997 -3.02076 0
M  V30 40 H 4.4342 -2.58621 -1.51839 0
M  V30 41 H 1.9872 -1.36647 -0.758771 0
M  V30 42 H 2.7222 -0.624913 -3.18222 0
M  V30 43 H 2.5072 -2.39755 -3.10258 0
M  V30 44 H 3.9972 -1.70627 -3.81151 0
M  V30 45 N 4.4343 0.785586 -1.36625 0
M  V30 46 C 5.3643 1.91259 -1.33949 0
M  V30 47 C 6.3453 1.68795 -0.210325 0
M  V30 48 O 7.5303 1.89854 -0.408561 0
M  V30 49 C 4.6603 3.28339 -1.13186 0
M  V30 50 C 3.6143 3.65335 -2.22967 0
M  V30 51 C 2.9403 5.00806 -1.87342 0
M  V30 52 C 4.2403 3.7352 -3.65075 0
M  V30 53 H 5.9343 1.93755 -2.28253 0
M  V30 54 H 3.4803 0.930788 -1.09874 0
M  V30 55 H 5.4333 4.06804 -1.09948 0
M  V30 56 H 4.1573 3.2624 -0.153332 0
M  V30 57 H 2.8163 2.89169 -2.25337 0
M  V30 58 H 2.4643 4.95233 -0.880545 0
M  V30 59 H 2.1643 5.26529 -2.60846 0
M  V30 60 H 3.6883 5.81687 -1.85667 0
M  V30 61 H 5.1023 4.42168 -3.64911 0
M  V30 62 H 3.4993 4.10731 -4.37516 0
M  V30 63 H 4.5693 2.74527 -3.99703 0
M  V30 64 N 5.9124 1.20967 1.01018 0
M  V30 65 C 7.3234 1.02319 1.56165 0
M  V30 66 C 7.6744 -0.418546 1.91684 0
M  V30 67 O 6.7994 -1.30096 1.72928 0
M  V30 68 C 7.3944 1.85109 2.8376 0
M  V30 69 C 5.9534 1.70809 3.35412 0
M  V30 70 C 5.1004 1.82643 2.08655 0
M  V30 71 H 8.0514 1.35065 0.833255 0
M  V30 72 H 8.0724 1.35827 3.55431 0
M  V30 73 H 7.5844 2.90035 2.57878 0
M  V30 74 H 5.6854 0.685464 3.66241 0
M  V30 75 H 5.7984 2.52467 4.07182 0
M  V30 76 H 4.1624 1.25896 2.21409 0
M  V30 77 H 4.9454 2.89066 1.85191 0
M  V30 78 N 7.3905 -1.2043 1.01659 0
M  V30 79 C 8.3235 -2.21924 0.531521 0
M  V30 80 C 9.3015 -1.57054 -0.421032 0
M  V30 81 O 10.4855 -1.85389 -0.341035 0
M  V30 82 C 7.6125 -3.37942 -0.226496 0
M  V30 83 C 6.6585 -4.21115 0.67561 0
M  V30 84 S 7.4915 -4.90674 2.14475 0
M  V30 85 C 8.6475 -6.10113 1.3969 0
M  V30 86 H 8.8805 -2.62725 1.3915 0
M  V30 87 H 6.4135 -1.30481 0.825479 0
M  V30 88 H 8.3715 -4.05196 -0.657738 0
M  V30 89 H 7.0325 -2.956 -1.06205 0
M  V30 90 H 6.2255 -5.03918 0.091108 0
M  V30 91 H 5.8275 -3.59115 1.04463 0
M  V30 92 H 8.1195 -6.7411 0.676897 0
M  V30 93 H 9.0625 -6.73022 2.20107 0
M  V30 94 H 9.4705 -5.57283 0.899786 0
M  V30 95 N 8.8686 -0.792821 -1.36206 0
M  V30 96 C 10.1146 -0.36733 -1.99446 0
M  V30 97 C 10.4476 1.05917 -1.62774 0
M  V30 98 O 9.7226 1.7324 -0.88421 0
M  V30 99 C 10.0056 -0.535044 -3.56103 0
M  V30 100 C 9.8586 -2.00548 -4.02617 0
M  V30 101 C 11.1776 0.0478191 -4.40074 0
M  V30 102 H 8.2966 -0.134941 -0.724541 0
M  V30 103 H 10.9386 -0.999794 -1.61568 0
M  V30 104 H 9.0886 0.00336329 -3.885 0
M  V30 105 H 10.7606 -2.60521 -3.80692 0
M  V30 106 H 9.0036 -2.50686 -3.54032 0
M  V30 107 H 9.6746 -2.07377 -5.11565 0
M  V30 108 H 12.1506 -0.411822 -4.14057 0
M  V30 109 H 11.0266 -0.0995336 -5.4881 0
M  V30 110 H 11.2876 1.14025 -4.27142 0
M  V30 111 N 10.3467 1.47872 -0.545128 0
M  V30 112 C 11.2767 2.32661 0.197793 0
M  V30 113 C 12.2577 1.43041 0.920504 0
M  V30 114 O 13.4427 1.71912 0.90333 0
M  V30 115 C 10.5727 3.24569 1.23582 0
M  V30 116 C 9.5267 4.23333 0.630323 0
M  V30 117 C 8.8527 5.0448 1.77211 0
M  V30 118 C 10.1527 5.20704 -0.407974 0
M  V30 119 H 11.8467 2.95024 -0.510045 0
M  V30 120 H 9.3927 1.4187 -0.246731 0
M  V30 121 H 11.3457 3.8272 1.76362 0
M  V30 122 H 10.0697 2.60236 1.97344 0
M  V30 123 H 8.7287 3.6639 0.123922 0
M  V30 124 H 8.3767 4.36561 2.49847 0
M  V30 125 H 8.0767 5.71339 1.37281 0
M  V30 126 H 9.6007 5.65487 2.3034 0
M  V30 127 H 11.0147 5.7329 0.033305 0
M  V30 128 H 9.4117 5.95699 -0.725486 0
M  V30 129 H 10.4817 4.66917 -1.30828 0
M  V30 130 N 11.8248 0.280983 1.55075 0
M  V30 131 C 13.0708 -0.33461 2.00021 0
M  V30 132 C 13.4038 -1.55063 1.16915 0
M  V30 133 O 12.6788 -1.93006 0.240646 0
M  V30 134 C 12.9618 -0.711007 3.53011 0
M  V30 135 C 12.8148 0.512766 4.46868 0
M  V30 136 C 14.1338 -1.54522 4.12081 0
M  V30 137 H 11.2528 -0.120147 0.727141 0
M  V30 138 H 13.8948 0.389097 1.85973 0
M  V30 139 H 12.0448 -1.32761 3.65112 0
M  V30 140 H 13.7168 1.15131 4.46702 0
M  V30 141 H 11.9598 1.14975 4.18286 0
M  V30 142 H 12.6308 0.205556 5.51617 0
M  V30 143 H 15.1068 -1.02442 4.03293 0
M  V30 144 H 13.9828 -1.77739 5.19327 0
M  V30 145 H 14.2438 -2.52813 3.62682 0
M  V30 146 N 13.3029 -1.57598 0.00835791 0
M  V30 147 C 14.2329 -2.1198 -0.979113 0
M  V30 148 C 15.2139 -1.03091 -1.35301 0
M  V30 149 O 16.3989 -1.30818 -1.43528 0
M  V30 150 C 13.5289 -2.62995 -2.26828 0
M  V30 151 C 12.4829 -3.76485 -2.03576 0
M  V30 152 C 11.8089 -4.13846 -3.38579 0
M  V30 153 C 13.1089 -5.0342 -1.39161 0
M  V30 154 H 14.8029 -2.94738 -0.526281 0
M  V30 155 H 12.3489 -1.41783 -0.251704 0
M  V30 156 H 14.3019 -2.99669 -2.96271 0
M  V30 157 H 13.0259 -1.7737 -2.7424 0
M  V30 158 H 11.6849 -3.40217 -1.36557 0
M  V30 159 H 11.3329 -3.25232 -3.83709 0
M  V30 160 H 11.0329 -4.90312 -3.23834 0
M  V30 161 H 12.5569 -4.53086 -4.09323 0
M  V30 162 H 13.9709 -5.37812 -1.98573 0
M  V30 163 H 12.3679 -5.84746 -1.34878 0
M  V30 164 H 13.4379 -4.83548 -0.361868 0
M  V30 165 N 14.781 0.264519 -1.55364 0
M  V30 166 C 15.711 1.33121 -1.91836 0
M  V30 167 C 16.692 1.51101 -0.781192 0
M  V30 168 O 17.877 1.64003 -1.04003 0
M  V30 169 C 15.007 2.68921 -2.19769 0
M  V30 170 C 13.961 2.65661 -3.35571 0
M  V30 171 C 13.287 4.05093 -3.49004 0
M  V30 172 C 14.587 2.24187 -4.71739 0
M  V30 173 H 16.281 1.02844 -2.81182 0
M  V30 174 H 13.827 0.493286 -1.35287 0
M  V30 175 H 15.78 3.43663 -2.43872 0
M  V30 176 H 14.504 3.00799 -1.27231 0
M  V30 177 H 13.163 1.93377 -3.1145 0
M  V30 178 H 12.811 4.34206 -2.53917 0
M  V30 179 H 12.511 4.03804 -4.26868 0
M  V30 180 H 14.035 4.81561 -3.75408 0
M  V30 181 H 15.449 2.88654 -4.9533 0
M  V30 182 H 13.846 2.34044 -5.52579 0
M  V30 183 H 14.916 1.19327 -4.69988 0
M  V30 184 N 16.2591 1.48442 0.529413 0
M  V30 185 C 17.1891 1.65902 1.64313 0
M  V30 186 C 18.1701 0.507897 1.6234 0
M  V30 187 O 19.3551 0.740503 1.79528 0
M  V30 188 C 16.4851 1.69911 3.02898 0
M  V30 189 C 15.4391 2.8453 3.19729 0
M  V30 190 C 14.7651 2.73629 4.59381 0
M  V30 191 C 16.0651 4.25821 3.02447 0
M  V30 192 H 17.7591 2.5914 1.49955 0
M  V30 193 H 15.3051 1.24709 0.719982 0
M  V30 194 H 17.2581 1.80715 3.80684 0
M  V30 195 H 15.9821 0.732524 3.18279 0
M  V30 196 H 14.6411 2.73283 2.44361 0
M  V30 197 H 14.2891 1.74938 4.71599 0
M  V30 198 H 13.9891 3.50541 4.71588 0
M  V30 199 H 15.5131 2.86401 5.39265 0
M  V30 200 H 16.9271 4.37898 3.70024 0
M  V30 201 H 15.3241 5.03735 3.26146 0
M  V30 202 H 16.3941 4.42244 1.98867 0
M  V30 203 N 17.7372 -0.778329 1.37039 0
M  V30 204 C 18.9832 -1.53892 1.32079 0
M  V30 205 C 19.3162 -1.9396 -0.0965386 0
M  V30 206 O 18.5912 -1.63568 -1.05242 0
M  V30 207 C 18.8742 -2.80847 2.25382 0
M  V30 208 C 18.7272 -2.47076 3.75864 0
M  V30 209 C 20.0462 -3.82741 2.1725 0
M  V30 210 H 17.1652 -0.558303 0.48111 0
M  V30 211 H 19.8072 -0.893397 1.67685 0
M  V30 212 H 17.9572 -3.35931 1.95148 0
M  V30 213 H 19.6292 -1.97957 4.16666 0
M  V30 214 H 17.8722 -1.79863 3.94755 0
M  V30 215 H 18.5432 -3.37798 4.36574 0
M  V30 216 H 21.0192 -3.37133 2.43887 0
M  V30 217 H 19.8952 -4.69303 2.84686 0
M  V30 218 H 20.1562 -4.2652 1.16331 0
M  V30 219 N 19.2153 -1.21501 -1.00376 0
M  V30 220 C 20.1453 -0.999478 -2.11028 0
M  V30 221 C 21.1263 0.0759671 -1.6993 0
M  V30 222 O 22.3113 -0.0841106 -1.94018 0
M  V30 223 C 19.4413 -0.564709 -3.42678 0
M  V30 224 C 18.3953 -1.58486 -3.97576 0
M  V30 225 C 17.7213 -1.00628 -5.25146 0
M  V30 226 C 19.0213 -2.97204 -4.29496 0
M  V30 227 H 20.7153 -1.92495 -2.29317 0
M  V30 228 H 18.2613 -0.92693 -1.102 0
M  V30 229 H 20.2143 -0.401091 -4.19487 0
M  V30 230 H 18.9383 0.396411 -3.24185 0
M  V30 231 H 17.5973 -1.73606 -3.22888 0
M  V30 232 H 17.2453 -0.0368439 -5.02987 0
M  V30 233 H 16.9453 -1.68771 -5.62841 0
M  V30 234 H 18.4693 -0.854015 -6.04598 0
M  V30 235 H 19.8833 -2.8552 -4.97143 0
M  V30 236 H 18.2803 -3.62372 -4.78338 0
M  V30 237 H 19.3503 -3.47956 -3.3772 0
M  V30 238 N 20.6934 1.19889 -1.02296 0
M  V30 239 C 21.9184 1.9393 -0.735237 0
M  V30 240 C 22.3434 1.74639 0.698782 0
M  V30 241 O 21.7014 1.04481 1.48167 0
M  V30 242 C 21.7494 3.43916 -1.08417 0
M  V30 243 O 20.8534 4.11917 -0.199446 0
M  V30 244 H 20.1944 0.605645 -0.272196 0
M  V30 245 H 22.7244 1.52137 -1.36804 0
M  V30 246 H 22.7344 3.9456 -1.03856 0
M  V30 247 H 21.4094 3.5728 -2.12894 0
M  V30 248 H 19.9864 3.71666 -0.303136 0
M  V30 249 N 22.1715 0.800033 1.35784 0
M  V30 250 C 23.5875 0.482977 1.52117 0
M  V30 251 C 23.7875 -0.996948 1.75109 0
M  V30 252 O 22.8435 -1.78216 1.78872 0
M  V30 253 C 24.1565 1.32264 2.70049 0
M  V30 254 C 25.7045 1.31742 2.83924 0
M  V30 255 C 26.1795 2.14106 4.04874 0
M  V30 256 N 27.6705 2.11607 4.12039 0
M  V30 257 C 28.4055 2.72099 5.04727 0
M  V30 258 N 27.9015 3.41492 6.02789 0
M  V30 259 N 29.6945 2.61776 4.97423 0
M  V30 260 H 21.8455 1.75856 1.19115 0
M  V30 261 H 24.1085 0.748122 0.582252 0
M  V30 262 H 23.8145 2.37261 2.59616 0
M  V30 263 H 23.6885 0.971303 3.6448 0
M  V30 264 H 26.0755 0.275333 2.93813 0
M  V30 265 H 26.1565 1.70859 1.9037 0
M  V30 266 H 25.8005 3.18351 3.95746 0
M  V30 267 H 25.7305 1.72353 4.97596 0
M  V30 268 H 28.2215 1.61112 3.41835 0
M  V30 269 H 28.5345 3.84953 6.70098 0
M  V30 270 H 26.8795 3.45596 6.02983 0
M  V30 271 H 30.0705 2.07157 4.19766 0
M  V30 272 H 30.2435 3.0921 5.69468 0
M  V30 273 N 23.6496 -1.47581 0.552962 0
M  V30 274 C 24.8976 -2.02082 0.0272703 0
M  V30 275 C 25.2186 -1.4301 -1.32563 0
M  V30 276 O 24.4886 -0.603745 -1.86365 0
M  V30 277 H 23.0686 -0.746966 0.00709182 0
M  V30 278 H 25.7306 -1.81033 0.722008 0
M  V30 279 H 24.8266 -3.12034 -0.0639951 0
M  V30 280 N 25.1277 -0.289203 -1.54924 0
M  V30 281 C 26.0377 0.601863 -2.26748 0
M  V30 282 C 27.0537 1.15834 -1.2984 0
M  V30 283 O 28.2297 1.18564 -1.62802 0
M  V30 284 C 25.2947 1.76299 -2.98529 0
M  V30 285 C 24.3557 1.24178 -4.10948 0
M  V30 286 C 23.5887 2.34757 -4.79296 0
M  V30 287 O 23.8117 3.54411 -4.46933 0
M  V30 288 O 22.7457 2.02115 -5.66951 0
M  V30 289 H 26.5717 0.0195879 -3.03694 0
M  V30 290 H 24.1567 -0.0560868 -1.49295 0
M  V30 291 H 26.0387 2.43973 -3.43592 0
M  V30 292 H 24.7137 2.33209 -2.24488 0
M  V30 293 H 23.6207 0.531104 -3.70311 0
M  V30 294 H 24.9537 0.718252 -4.86931 0
M  V30 295 N 26.6058 1.57591 -0.0167156 0
M  V30 296 C 27.8308 1.9598 0.67872 0
M  V30 297 C 28.2558 0.892546 1.65575 0
M  V30 298 O 27.6138 -0.147772 1.80697 0
M  V30 299 C 27.6618 3.33468 1.37227 0
M  V30 300 O 26.7658 3.28954 2.48722 0
M  V30 301 H 26.1068 0.639339 0.17928 0
M  V30 302 H 28.6368 2.04463 -0.0748802 0
M  V30 303 H 28.6468 3.69417 1.7319 0
M  V30 304 H 27.3218 4.10694 0.656007 0
M  V30 305 H 25.8988 3.04705 2.14963 0
M  V30 306 N 28.0839 -0.256276 1.55502 0
M  V30 307 C 28.9939 -1.33882 1.92647 0
M  V30 308 C 30.0099 -1.53159 0.825727 0
M  V30 309 O 31.1859 -1.66963 1.12629 0
M  V30 310 C 28.2509 -2.6751 2.20543 0
M  V30 311 C 27.3119 -2.56836 3.43997 0
M  V30 312 C 26.5449 -3.84092 3.70553 0
M  V30 313 O 26.7679 -4.85545 2.99336 0
M  V30 314 O 25.7019 -3.83288 4.64084 0
M  V30 315 H 29.5279 -1.05374 2.84833 0
M  V30 316 H 27.1129 -0.456237 1.42263 0
M  V30 317 H 28.9949 -3.46492 2.39835 0
M  V30 318 H 27.6699 -2.9577 1.31536 0
M  V30 319 H 26.5769 -1.76172 3.30021 0
M  V30 320 H 27.9099 -2.33523 4.33275 0
M  V30 321 N 29.562 -1.4872 -0.521534 0
M  V30 322 C 30.492 -1.66771 -1.63431 0
M  V30 323 C 31.473 -0.516499 -1.62069 0
M  V30 324 O 32.658 -0.750013 -1.79132 0
M  V30 325 C 29.788 -1.71515 -3.01993 0
M  V30 326 C 28.742 -2.86222 -3.18216 0
M  V30 327 C 28.068 -2.76061 -4.57924 0
M  V30 328 C 29.368 -4.27419 -3.00184 0
M  V30 329 H 31.062 -2.59932 -1.48579 0
M  V30 330 H 28.608 -1.25089 -0.713358 0
M  V30 331 H 30.561 -1.82731 -3.7972 0
M  V30 332 H 29.285 -0.749393 -3.17886 0
M  V30 333 H 27.944 -2.74575 -2.42908 0
M  V30 334 H 27.592 -1.77437 -4.70665 0
M  V30 335 H 27.292 -3.53037 -4.69722 0
M  V30 336 H 28.816 -2.89256 -5.37739 0
M  V30 337 H 30.23 -4.39855 -3.67697 0
M  V30 338 H 28.627 -5.05458 -3.2347 0
M  V30 339 H 29.697 -4.43293 -1.96518 0
M  V30 340 N 31.0401 0.771051 -1.3745 0
M  V30 341 C 32.3171 1.519 -1.23231 0
M  V30 342 C 32.6971 2.10383 0.173809 0
M  V30 343 O 32.0451 1.95583 1.18151 0
M  V30 344 C 32.2551 2.59933 -2.32886 0
M  V30 345 C 33.6031 3.27316 -2.70461 0
M  V30 346 O 34.6271 2.70228 -2.32068 0
M  V30 347 O 33.4861 4.30531 -3.36608 0
M  V30 348 H 30.5801 0.672803 -0.480901 0
M  V30 349 H 33.1261 0.807957 -1.49232 0
M  V30 350 H 31.8981 2.14842 -3.27045 0
M  V30 351 H 31.5211 3.38637 -2.08353 0
M  V30 352 N 32.5182 1.22032 0.997298 0
M  V30 353 C 33.4812 0.987909 2.06816 0
M  V30 354 C 34.4812 -0.0440084 1.6074 0
M  V30 355 O 35.6712 0.194053 1.73116 0
M  V30 356 C 32.8032 0.49132 3.37341 0
M  V30 357 H 33.9962 1.93803 2.28868 0
M  V30 358 H 31.5492 1.03838 1.16822 0
M  V30 359 H 32.2842 -0.463364 3.20973 0
M  V30 360 H 32.0692 1.23575 3.72118 0
M  V30 361 H 33.5592 0.348824 4.16141 0
M  V30 362 N 33.9963 -1.19345 1.0293 0
M  V30 363 C 34.9433 -2.2258 0.610464 0
M  V30 364 C 35.9133 -1.6179 -0.375946 0
M  V30 365 O 37.0983 -1.88844 -0.272511 0
M  V30 366 C 34.2383 -3.45085 -0.0321473 0
M  V30 367 C 33.3513 -4.20258 1.00035 0
M  V30 368 C 32.4863 -5.3019 0.32746 0
M  V30 369 C 31.5253 -5.97121 1.34584 0
M  V30 370 N 30.6623 -6.98615 0.698726 0
M  V30 371 H 35.5023 -2.57764 1.49538 0
M  V30 372 H 33.0393 -1.26644 0.748311 0
M  V30 373 H 34.9973 -4.15061 -0.421966 0
M  V30 374 H 33.6273 -3.10555 -0.88064 0
M  V30 375 H 32.6793 -3.49223 1.50823 0
M  V30 376 H 33.9913 -4.66175 1.77433 0
M  V30 377 H 33.1453 -6.06587 -0.11718 0
M  V30 378 H 31.8843 -4.85345 -0.478713 0
M  V30 379 H 30.8893 -5.19474 1.80074 0
M  V30 380 H 32.1143 -6.4405 2.15352 0
M  V30 381 H 30.0603 -6.55942 -0.0873471 0
M  V30 382 H 29.9773 -7.42724 1.41058 0
M  V30 383 H 31.2453 -7.79004 0.278102 0
M  V30 384 N 35.4744 -0.807222 -1.35358 0
M  V30 385 C 36.7234 -0.384376 -1.98004 0
M  V30 386 C 37.0364 1.0543 -1.64754 0
M  V30 387 O 38.2424 1.58029 -2.20769 0
M  V30 388 C 36.6984 -0.636326 -3.5423 0
M  V30 389 C 36.3064 -2.08759 -3.96388 0
M  V30 390 C 38.0504 -0.278869 -4.23583 0
M  V30 391 C 35.9574 -2.28525 -5.45463 0
M  V30 392 H 34.8874 -0.139986 -0.740891 0
M  V30 393 H 37.5384 -0.991369 -1.54415 0
M  V30 394 H 35.9204 0.0406256 -3.95979 0
M  V30 395 H 37.0944 -2.8024 -3.6579 0
M  V30 396 H 35.4094 -2.40497 -3.39926 0
M  V30 397 H 38.0064 -0.404599 -5.33167 0
M  V30 398 H 38.3494 0.775012 -4.09022 0
M  V30 399 H 38.8824 -0.909764 -3.87257 0
M  V30 400 H 35.6214 -3.32361 -5.64992 0
M  V30 401 H 35.1414 -1.61569 -5.77629 0
M  V30 402 H 36.8204 -2.10109 -6.11934 0
M  V30 403 N 36.9525 1.47285 -0.560781 0
M  V30 404 C 38.3635 1.86258 -0.128343 0
M  V30 405 C 38.7145 1.46699 1.30284 0
M  V30 406 O 37.8395 0.871698 1.98067 0
M  V30 407 C 38.4345 3.38044 -0.22614 0
M  V30 408 C 36.9935 3.76096 0.151283 0
M  V30 409 C 36.1405 2.71335 -0.572084 0
M  V30 410 H 39.0915 1.38752 -0.770297 0
M  V30 411 H 39.1125 3.76441 0.554322 0
M  V30 412 H 38.6245 3.66806 -1.26788 0
M  V30 413 H 36.7255 3.52951 1.19399 0
M  V30 414 H 36.8385 4.78641 -0.209765 0
M  V30 415 H 35.2025 2.54696 -0.0147653 0
M  V30 416 H 35.9855 3.02938 -1.61504 0
M  V30 417 N 38.4306 0.297415 1.54768 0
M  V30 418 C 39.6556 -0.318435 2.04941 0
M  V30 419 C 40.0806 -1.4701 1.17345 0
M  V30 420 O 39.4386 -1.80436 0.176758 0
M  V30 421 C 39.4866 -0.755749 3.52592 0
M  V30 422 O 38.5906 -1.86088 3.68028 0
M  V30 423 H 37.9316 -0.062421 0.661059 0
M  V30 424 H 40.4616 0.438215 1.99852 0
M  V30 425 H 40.4716 -1.04552 3.94376 0
M  V30 426 H 39.1466 0.0867233 4.1581 0
M  V30 427 H 37.7236 -1.57193 3.38149 0
M  V30 428 N 39.9087 -1.5758 0.0250728 0
M  V30 429 C 41.1367 -1.9593 -0.664747 0
M  V30 430 C 41.5517 -0.901352 -1.65895 0
M  V30 431 O 40.9087 0.117255 -1.82123 0
M  V30 432 C 40.9597 -3.34342 -1.37468 0
M  V30 433 O 40.6807 -4.36079 -0.420324 0
M  V30 434 C 42.1817 -3.873 -2.1567 0
M  V30 435 H 39.4017 -0.645405 -0.183557 0
M  V30 436 H 41.9457 -2.04329 0.0836372 0
M  V30 437 H 40.1007 -3.27175 -2.0745 0
M  V30 438 H 40.5147 -5.16297 -0.923991 0
M  V30 439 H 41.9887 -4.86504 -2.60803 0
M  V30 440 H 42.4657 -3.21331 -2.99405 0
M  V30 441 H 43.0717 -3.97723 -1.50654 0
M  V30 442 N 41.3868 0.248026 -1.55636 0
M  V30 443 C 42.6348 0.974295 -1.77065 0
M  V30 444 C 42.9558 1.85897 -0.588849 0
M  V30 445 O 42.2258 1.91868 0.395407 0
M  V30 446 H 40.8058 0.362733 -0.653019 0
M  V30 447 H 43.4678 0.266244 -1.93073 0
M  V30 448 H 42.5638 1.59667 -2.68166 0
M  V30 449 N 42.8649 1.48995 0.513639 0
M  V30 450 C 44.1419 1.48338 1.27495 0
M  V30 451 C 44.5219 0.204065 2.10111 0
M  V30 452 O 43.8699 -0.813881 2.13514 0
M  V30 453 C 44.0799 2.75498 2.14247 0
M  V30 454 C 45.4279 3.24484 2.73852 0
M  V30 455 O 46.4519 2.76528 2.24523 0
M  V30 456 O 45.3109 4.07974 3.6362 0
M  V30 457 H 42.4049 0.593149 0.576284 0
M  V30 458 H 44.9509 1.61246 0.528948 0
M  V30 459 H 43.7229 3.60109 1.53092 0
M  V30 460 H 43.3459 2.6539 2.96064 0
M  V30 461 N 44.343 -0.763751 1.37857 0
M  V30 462 C 45.306 -1.85889 1.34081 0
M  V30 463 C 46.306 -1.58949 0.243277 0
M  V30 464 O 47.496 -1.66882 0.499589 0
M  V30 465 C 44.628 -3.23176 1.08489 0
M  V30 466 H 45.821 -1.90648 2.31502 0
M  V30 467 H 43.374 -0.964367 1.23003 0
M  V30 468 H 44.109 -3.24091 0.116318 0
M  V30 469 H 43.894 -3.44124 1.8794 0
M  V30 470 H 45.384 -4.03254 1.08517 0
M  V30 471 N 45.8211 -1.22559 -0.990812 0
M  V30 472 C 47.0491 -1.07779 -1.76611 0
M  V30 473 C 47.4641 0.371513 -1.85109 0
M  V30 474 O 46.8211 1.25737 -1.32274 0
M  V30 475 C 46.8721 -1.68512 -3.19822 0
M  V30 476 O 46.5931 -3.07774 -3.1178 0
M  V30 477 C 48.0941 -1.59035 -4.13791 0
M  V30 478 H 45.3141 -0.377729 -0.554583 0
M  V30 479 H 47.8581 -1.62195 -1.24551 0
M  V30 480 H 46.0131 -1.18154 -3.68942 0
M  V30 481 H 46.4271 -3.37062 -4.01858 0
M  V30 482 H 47.9011 -2.0625 -5.1202 0
M  V30 483 H 48.3781 -0.547273 -4.35777 0
M  V30 484 H 48.9841 -2.08709 -3.70568 0
M  V30 485 N 47.2992 1.18797 -1.03562 0
M  V30 486 C 48.2092 2.25913 -0.632505 0
M  V30 487 C 49.2252 1.70668 0.338882 0
M  V30 488 O 50.4012 2.00453 0.195076 0
M  V30 489 C 47.4662 3.467 0.00350942 0
M  V30 490 C 46.5272 4.17098 -1.01624 0
M  V30 491 C 45.7602 5.32119 -0.410478 0
M  V30 492 O 45.9832 5.64976 0.784725 0
M  V30 493 O 44.9172 5.9107 -1.13667 0
M  V30 494 H 48.7432 2.62648 -1.52478 0
M  V30 495 H 46.3282 1.25781 -0.806195 0
M  V30 496 H 48.2102 4.19878 0.35781 0
M  V30 497 H 46.8852 3.11798 0.869686 0
M  V30 498 H 45.7922 3.4601 -1.42224 0
M  V30 499 H 47.1252 4.55987 -1.85301 0
M  V30 500 N 48.7773 0.814389 1.34928 0
M  V30 501 C 50.0233 0.408167 1.99263 0
M  V30 502 C 50.3783 -1.0154 1.63424 0
M  V30 503 O 49.6713 -1.69607 0.891289 0
M  V30 504 C 49.8653 0.537781 3.53331 0
M  V30 505 C 49.6943 1.9724 4.04137 0
M  V30 506 C 48.4643 2.60245 4.33129 0
M  V30 507 C 50.6623 2.93801 4.2212 0
M  V30 508 N 48.6443 3.95036 4.69914 0
M  V30 509 C 50.0153 4.1348 4.6199 0
M  V30 510 C 52.0703 2.9053 4.04348 0
M  V30 511 C 50.7733 5.3033 4.85945 0
M  V30 512 C 52.7993 4.06589 4.29464 0
M  V30 513 C 52.1613 5.25017 4.69613 0
M  V30 514 H 48.2603 0.197289 0.756704 0
M  V30 515 H 50.8443 1.05728 1.63492 0
M  V30 516 H 49.0153 -0.0813868 3.88315 0
M  V30 517 H 50.7473 0.105389 4.04563 0
M  V30 518 H 47.5023 2.11545 4.23728 0
M  V30 519 H 47.9263 4.64455 4.92555 0
M  V30 520 H 52.5683 2.00115 3.72443 0
M  V30 521 H 50.2863 6.21309 5.16721 0
M  V30 522 H 53.8723 4.05447 4.17257 0
M  V30 523 H 52.7523 6.1333 4.88667 0
M  V30 524 N 50.2554 -1.46986 0.568584 0
M  V30 525 C 51.6714 -1.57946 0.229189 0
M  V30 526 C 51.8714 -1.56567 -1.26843 0
M  V30 527 O 50.9274 -1.47511 -2.04931 0
M  V30 528 C 52.2404 -2.87963 0.865909 0
M  V30 529 C 53.7884 -3.01568 0.838188 0
M  V30 530 C 54.2634 -4.34301 1.45419 0
M  V30 531 N 55.7544 -4.40965 1.41788 0
M  V30 532 C 56.4894 -5.42256 1.86403 0
M  V30 533 N 55.9854 -6.50297 2.38926 0
M  V30 534 N 57.7784 -5.3337 1.77405 0
M  V30 535 H 49.9294 -1.46126 1.54146 0
M  V30 536 H 52.1924 -0.696156 0.643484 0
M  V30 537 H 51.8984 -2.94742 1.91886 0
M  V30 538 H 51.7724 -3.75423 0.365687 0
M  V30 539 H 54.1594 -2.94379 -0.206106 0
M  V30 540 H 54.2404 -2.1562 1.37629 0
M  V30 541 H 53.8844 -4.42247 2.49761 0
M  V30 542 H 53.8144 -5.19 0.891435 0
M  V30 543 H 56.3054 -3.63484 1.03381 0
M  V30 544 H 56.6184 -7.23777 2.70863 0
M  V30 545 H 54.9634 -6.51155 2.42944 0
M  V30 546 H 58.1544 -4.47865 1.3614 0
M  V30 547 H 58.3274 -6.12169 2.12492 0
M  V30 548 N 51.7335 -0.305618 -1.54608 0
M  V30 549 C 52.6815 0.584119 -2.25146 0
M  V30 550 C 53.6755 1.13326 -1.25911 0
M  V30 551 O 54.8815 1.08337 -1.43747 0
M  V30 552 H 51.2565 0.206983 -0.722954 0
M  V30 553 H 53.2275 -0.033291 -2.98381 0
M  V30 554 C 51.9765 1.74225 -3.009 0
M  V30 555 H 51.2995 1.32892 -3.77067 0
M  V30 556 H 52.7395 2.34077 -3.53531 0
M  V30 557 C 51.1985 2.64914 -2.0814 0
M  V30 558 O 51.7285 3.66137 -1.65246 0
M  V30 559 N 49.9345 2.3275 -1.74 0
M  V30 560 H 49.4815 1.50479 -2.09078 0
M  V30 561 H 49.4395 2.93694 -1.12211 0
M  V30 562 N 53.2116 1.57565 -0.0334293 0
M  V30 563 C 54.6226 1.79746 0.504798 0
M  V30 564 C 54.9736 0.944091 1.71992 0
M  V30 565 O 54.0986 0.155694 2.15839 0
M  V30 566 C 54.6936 3.25997 0.922567 0
M  V30 567 C 53.2526 3.49159 1.40588 0
M  V30 568 C 52.3996 2.74785 0.372633 0
M  V30 569 H 55.3506 1.56565 -0.259436 0
M  V30 570 H 55.3716 3.35945 1.78666 0
M  V30 571 H 54.8836 3.88081 0.0379825 0
M  V30 572 H 52.9846 2.92332 2.31025 0
M  V30 573 H 53.0976 4.57873 1.41028 0
M  V30 574 H 51.4616 2.40391 0.841672 0
M  V30 575 H 52.2446 3.39587 -0.503559 0
M  V30 576 N 54.6897 -0.239769 1.55765 0
M  V30 577 C 55.6397 -1.30002 1.87306 0
M  V30 578 C 56.6237 -1.43156 0.73452 0
M  V30 579 O 57.8157 -1.46277 0.99659 0
M  V30 580 C 54.9447 -2.65409 2.17745 0
M  V30 581 C 54.0307 -2.56231 3.37945 0
M  V30 582 N 54.4217 -2.16689 4.57033 0
M  V30 583 C 52.7197 -2.87229 3.41197 0
M  V30 584 C 53.4207 -2.18318 5.39177 0
M  V30 585 N 52.3967 -2.58098 4.78421 0
M  V30 586 H 56.1987 -0.984912 2.76906 0
M  V30 587 H 53.7127 -0.448381 1.56087 0
M  V30 588 H 55.7097 -3.41934 2.38509 0
M  V30 589 H 54.3697 -2.97781 1.29448 0
M  V30 590 H 55.3807 -1.88116 4.82528 0
M  V30 591 H 52.0577 -3.24094 2.63191 0
M  V30 592 H 53.4477 -1.90025 6.44469 0
M  V30 593 N 56.1678 -1.49265 -0.50573 0
M  V30 594 C 57.0978 -1.68495 -1.61653 0
M  V30 595 C 58.0788 -0.53366 -1.61512 0
M  V30 596 O 59.2638 -0.76897 -1.78327 0
M  V30 597 C 56.3938 -1.74709 -3.00157 0
M  V30 598 C 55.3478 -2.89581 -3.15162 0
M  V30 599 C 54.6738 -2.80903 -4.5497 0
M  V30 600 C 55.9738 -4.30578 -2.95634 0
M  V30 601 H 57.6678 -2.61493 -1.45814 0
M  V30 602 H 55.2138 -1.25838 -0.70005 0
M  V30 603 H 57.1668 -1.86748 -3.77761 0
M  V30 604 H 55.8908 -0.783067 -3.17074 0
M  V30 605 H 54.5498 -2.77136 -2.39982 0
M  V30 606 H 54.1978 -1.82419 -4.68756 0
M  V30 607 H 53.8978 -3.57999 -4.65951 0
M  V30 608 H 55.4218 -2.94944 -5.34641 0
M  V30 609 H 56.8358 -4.4373 -3.63011 0
M  V30 610 H 55.2328 -5.0886 -3.18091 0
M  V30 611 H 56.3028 -4.45352 -1.91806 0
M  V30 612 N 57.6459 0.756429 -1.3826 0
M  V30 613 C 58.8709 1.55077 -1.37717 0
M  V30 614 C 59.2959 1.88073 0.03164 0
M  V30 615 O 58.6539 1.50364 1.01293 0
M  V30 616 C 58.7019 2.8283 -2.23695 0
M  V30 617 O 57.8059 3.77862 -1.6521 0
M  V30 618 H 57.1469 0.469152 -0.469885 0
M  V30 619 H 59.6769 0.935019 -1.81985 0
M  V30 620 H 59.6869 3.31783 -2.37453 0
M  V30 621 H 58.3619 2.58144 -3.2609 0
M  V30 622 H 56.9389 3.36555 -1.60578 0
M  V30 623 N 59.124 1.23083 0.984299 0
M  V30 624 C 60.057 0.951786 2.07404 0
M  V30 625 C 61.035 -0.10848 1.62238 0
M  V30 626 O 62.219 0.0249467 1.88483 0
M  V30 627 C 59.346 0.433142 3.35919 0
M  V30 628 C 58.392 1.47941 4.0002 0
M  V30 629 S 59.225 3.05556 4.39768 0
M  V30 630 C 60.381 2.55351 5.71442 0
M  V30 631 H 60.614 1.87456 2.30754 0
M  V30 632 H 58.147 1.06284 1.11996 0
M  V30 633 H 60.105 0.140506 4.10259 0
M  V30 634 H 58.766 -0.468656 3.10584 0
M  V30 635 H 57.959 1.06658 4.92585 0
M  V30 636 H 57.561 1.7212 3.3204 0
M  V30 637 H 59.853 1.97128 6.48187 0
M  V30 638 H 60.796 3.46441 6.17563 0
M  V30 639 H 61.204 1.96339 5.29255 0
M  V30 640 N 60.6021 -1.18246 1.0419 0
M  V30 641 C 61.5321 -2.24127 0.654914 0
M  V30 642 C 62.5131 -1.66617 -0.342451 0
M  V30 643 O 63.6981 -1.92924 -0.222277 0
M  V30 644 C 60.8281 -3.47295 0.0183757 0
M  V30 645 C 59.7821 -4.17563 0.939414 0
M  V30 646 C 59.1081 -5.34438 0.167286 0
M  V30 647 C 60.4081 -4.70917 2.25908 0
M  V30 648 H 62.1021 -2.56753 1.54007 0
M  V30 649 H 59.6481 -1.23414 0.74195 0
M  V30 650 H 61.6011 -4.20572 -0.264082 0
M  V30 651 H 60.3251 -3.13907 -0.901664 0
M  V30 652 H 58.9841 -3.46186 1.20628 0
M  V30 653 H 58.6321 -4.97298 -0.7552 0
M  V30 654 H 58.3321 -5.82388 0.780901 0
M  V30 655 H 59.8561 -6.10504 -0.108125 0
M  V30 656 H 61.2701 -5.35882 2.03724 0
M  V30 657 H 59.6671 -5.29406 2.82577 0
M  V30 658 H 60.7371 -3.88272 2.9047 0
M  V30 659 N 62.0802 -0.821533 -1.34494 0
M  V30 660 C 63.3282 -0.408139 -1.97936 0
M  V30 661 C 63.6492 1.03193 -1.65457 0
M  V30 662 O 62.9192 1.71622 -0.944595 0
M  V30 663 H 61.4992 -0.147928 -0.732206 0
M  V30 664 H 64.1612 -1.05067 -1.64155 0
M  V30 665 H 63.2572 -0.52601 -3.07635 0
M  V30 666 N 63.5583 1.46682 -0.576371 0
M  V30 667 C 64.7833 2.07304 -0.0630475 0
M  V30 668 C 65.2083 1.42329 1.2298 0
M  V30 669 O 64.5663 0.504865 1.74129 0
M  V30 670 C 64.6143 3.60472 0.095895 0
M  V30 671 O 63.7183 3.95927 1.15394 0
M  V30 672 H 63.0593 0.661288 -0.0599463 0
M  V30 673 H 65.5893 1.88417 -0.797511 0
M  V30 674 H 65.5993 4.06865 0.304071 0
M  V30 675 H 64.2743 4.07157 -0.84828 0
M  V30 676 H 62.8513 3.61252 0.924724 0
M  V30 677 N 65.0364 0.313813 1.54444 0
M  V30 678 C 66.2764 -0.292389 2.02298 0
M  V30 679 C 66.6404 -1.50105 1.19719 0
M  V30 680 O 67.8414 -2.17947 1.5733 0
M  V30 681 C 66.1124 -0.627682 3.51845 0
M  V30 682 S 67.6714 -1.21493 4.21646 0
M  V30 683 H 64.4894 -0.0890247 0.705405 0
M  V30 684 H 67.0914 0.444668 1.90376 0
M  V30 685 H 65.7954 0.260265 4.09574 0
M  V30 686 H 65.3264 -1.39519 3.67829 0
M  V30 687 H 67.3414 -2.5022 4.28491 0
M  V30 688 N 66.5145 -1.57545 0.0417849 0
M  V30 689 C 67.4465 -2.07904 -0.964799 0
M  V30 690 C 68.4595 -1.00497 -1.28079 0
M  V30 691 O 69.6485 -1.28087 -1.24322 0
M  V30 692 C 66.7485 -2.49928 -2.28887 0
M  V30 693 C 65.9215 -3.80562 -2.15619 0
M  V30 694 C 64.9805 -4.08999 -3.31069 0
M  V30 695 O 64.0065 -4.79061 -3.0739 0
M  V30 696 N 65.2085 -3.6017 -4.55256 0
M  V30 697 H 67.9735 -2.94886 -0.535029 0
M  V30 698 H 65.5345 -1.61252 -0.144681 0
M  V30 699 H 67.5265 -2.66034 -3.04972 0
M  V30 700 H 66.0965 -1.68245 -2.63463 0
M  V30 701 H 65.3165 -3.74129 -1.24183 0
M  V30 702 H 66.6045 -4.66126 -2.03971 0
M  V30 703 H 66.0025 -3.03512 -4.77386 0
M  V30 704 H 64.5595 -3.81532 -5.28466 0
M  V30 705 N 67.9926 0.231505 -1.5589 0
M  V30 706 C 69.4036 0.799327 -1.68724 0
M  V30 707 C 69.7546 1.85398 -0.642022 0
M  V30 708 O 68.8796 2.1539 0.208784 0
M  V30 709 C 69.4746 1.45664 -3.05888 0
M  V30 710 C 68.0336 1.97197 -3.20609 0
M  V30 711 C 67.1806 0.828552 -2.64632 0
M  V30 712 H 70.1316 0.00702616 -1.58698 0
M  V30 713 H 70.1526 2.32517 -3.01191 0
M  V30 714 H 69.6646 0.688808 -3.81939 0
M  V30 715 H 67.7656 2.76813 -2.4941 0
M  V30 716 H 67.8786 2.15878 -4.27707 0
M  V30 717 H 66.2426 1.23321 -2.22854 0
M  V30 718 H 67.0256 0.0735544 -3.43221 0
M  V30 719 N 69.4707 1.49531 0.497807 0
M  V30 720 C 70.4337 1.65916 1.58128 0
M  V30 721 C 71.4337 0.530825 1.51786 0
M  V30 722 O 72.6237 0.797342 1.54881 0
M  V30 723 C 69.7557 1.65951 2.9778 0
M  V30 724 H 70.9487 2.62556 1.44929 0
M  V30 725 H 68.5017 1.38611 0.722275 0
M  V30 726 H 69.2367 0.709065 3.16453 0
M  V30 727 H 69.0217 2.47897 3.03792 0
M  V30 728 H 70.5117 1.80673 3.76493 0
M  V30 729 N 70.9488 -0.749086 1.3866 0
M  V30 730 C 72.3598 -1.32664 1.31366 0
M  V30 731 C 72.7108 -1.96179 -0.028484 0
M  V30 732 O 71.8358 -1.9537 -0.93057 0
M  V30 733 C 72.4308 -2.41219 2.37905 0
M  V30 734 C 70.9898 -2.94684 2.34176 0
M  V30 735 C 70.1368 -1.68108 2.20533 0
M  V30 736 H 73.0878 -0.547628 1.48952 0
M  V30 737 H 73.1088 -3.21268 2.0388 0
M  V30 738 H 72.6208 -1.94962 3.35576 0
M  V30 739 H 70.7218 -3.45258 1.401 0
M  V30 740 H 70.8348 -3.48757 3.2849 0
M  V30 741 H 69.1988 -1.91907 1.67463 0
M  V30 742 H 69.9818 -1.23923 3.20153 0
M  V30 743 N 72.4269 -1.23603 -0.977757 0
M  V30 744 C 73.6519 -1.09735 -1.75991 0
M  V30 745 C 74.0769 0.346858 -1.84874 0
M  V30 746 O 73.4349 1.25093 -1.3123 0
M  V30 747 C 73.4829 -1.73051 -3.16363 0
M  V30 748 O 72.5869 -0.994452 -4.0023 0
M  V30 749 H 71.9279 -0.384476 -0.541364 0
M  V30 750 H 74.4579 -1.6371 -1.2272 0
M  V30 751 H 74.4679 -1.78398 -3.66931 0
M  V30 752 H 73.1429 -2.78137 -3.09213 0
M  V30 753 H 71.7199 -1.01812 -3.58732 0
M  V30 754 N 73.905 1.17692 -1.04816 0
M  V30 755 C 75.145 1.89545 -0.764979 0
M  V30 756 C 75.509 1.78979 0.695028 0
M  V30 757 O 76.71 2.45613 1.09215 0
M  V30 758 C 74.981 3.35659 -1.22751 0
M  V30 759 S 76.54 4.25526 -1.07112 0
M  V30 760 H 73.358 0.654432 -0.27792 0
M  V30 761 H 75.96 1.42163 -1.34201 0
M  V30 762 H 74.664 3.40882 -2.28533 0
M  V30 763 H 74.195 3.88083 -0.644594 0
M  V30 764 H 76.21 4.962 0.00697508 0
M  V30 765 N 75.3831 0.828654 1.34056 0
M  V30 766 C 76.3151 0.212052 2.28217 0
M  V30 767 C 77.3281 -0.601362 1.51286 0
M  V30 768 O 78.5171 -0.430104 1.73241 0
M  V30 769 C 75.6171 -0.72088 3.31144 0
M  V30 770 C 74.7901 0.0509587 4.3737 0
M  V30 771 C 73.8491 -0.803766 5.20025 0
M  V30 772 O 72.8751 -0.246667 5.68665 0
M  V30 773 N 74.0771 -2.1227 5.40298 0
M  V30 774 H 76.8421 1.02105 2.81771 0
M  V30 775 H 74.4031 0.686153 1.46641 0
M  V30 776 H 76.3951 -1.29742 3.8334 0
M  V30 777 H 74.9651 -1.43061 2.77943 0
M  V30 778 H 74.1851 0.808831 3.85813 0
M  V30 779 H 75.4731 0.582065 5.0546 0
M  V30 780 H 74.8711 -2.59898 5.02464 0
M  V30 781 H 73.4281 -2.64796 5.95589 0
M  V30 782 N 76.8612 -1.46375 0.584142 0
M  V30 783 C 77.8082 -2.30323 -0.148286 0
M  V30 784 C 78.7782 -1.40703 -0.882713 0
M  V30 785 O 79.9632 -1.69651 -0.873099 0
M  V30 786 C 77.1032 -3.25196 -1.15507 0
M  V30 787 C 76.2162 -4.29915 -0.423943 0
M  V30 788 C 75.3512 -5.11914 -1.41838 0
M  V30 789 C 74.3902 -6.08381 -0.673736 0
M  V30 790 N 73.5272 -6.83242 -1.6163 0
M  V30 791 H 78.3672 -2.92427 0.573644 0
M  V30 792 H 75.9042 -1.44118 0.294703 0
M  V30 793 H 77.8622 -3.78646 -1.75166 0
M  V30 794 H 76.4922 -2.64898 -1.8447 0
M  V30 795 H 75.5442 -3.7931 0.287714 0
M  V30 796 H 76.8562 -4.98549 0.158128 0
M  V30 797 H 76.0102 -5.69648 -2.08773 0
M  V30 798 H 74.7492 -4.43243 -2.03438 0
M  V30 799 H 73.7542 -5.49799 0.00938483 0
M  V30 800 H 74.9792 -6.79071 -0.0631082 0
M  V30 801 H 72.9252 -6.1728 -2.22038 0
M  V30 802 H 72.8422 -7.48144 -1.08707 0
M  V30 803 H 74.1102 -7.45534 -2.27596 0
M  V30 804 N 78.3393 -0.321999 -1.54275 0
M  V30 805 C 79.5793 0.281657 -2.0245 0
M  V30 806 C 79.9433 1.49468 -1.20513 0
M  V30 807 O 81.1443 2.17109 -1.58484 0
M  V30 808 C 79.4153 0.609014 -3.52173 0
M  V30 809 S 80.9743 1.19255 -4.22284 0
M  V30 810 H 77.7923 0.0852825 -0.705867 0
M  V30 811 H 80.3943 -0.454758 -1.90137 0
M  V30 812 H 79.0983 -0.281982 -4.0943 0
M  V30 813 H 78.6293 1.37567 -3.68563 0
M  V30 814 H 80.6443 2.47944 -4.29812 0
M  V30 815 N 79.8174 1.5752 -0.0501392 0
M  V30 816 C 81.0664 1.91827 0.623328 0
M  V30 817 C 81.3794 0.930222 1.72065 0
M  V30 818 O 82.5854 1.1653 2.4522 0
M  V30 819 C 81.0414 3.40692 1.16003 0
M  V30 820 C 80.6494 4.479 0.0948811 0
M  V30 821 C 82.3934 3.84034 1.80881 0
M  V30 822 C 80.3004 5.87879 0.644411 0
M  V30 823 H 79.2304 0.715918 0.236596 0
M  V30 824 H 81.8814 1.83115 -0.118861 0
M  V30 825 H 80.2634 3.44405 1.9545 0
M  V30 826 H 81.4374 4.55775 -0.678675 0
M  V30 827 H 79.7524 4.13892 -0.45637 0
M  V30 828 H 82.3494 4.85984 2.22988 0
M  V30 829 H 82.6924 3.20225 2.6601 0
M  V30 830 H 83.2254 3.82833 1.0809 0
M  V30 831 H 79.9644 6.55282 -0.169229 0
M  V30 832 H 79.4844 5.83567 1.38598 0
M  V30 833 H 81.1634 6.37098 1.12763 0
M  V30 834 N 81.2955 -0.223234 1.56011 0
M  V30 835 C 82.2255 -1.27988 1.95298 0
M  V30 836 C 83.2065 -1.48976 0.820979 0
M  V30 837 O 84.3915 -1.61188 1.08315 0
M  V30 838 C 81.5215 -2.63 2.26822 0
M  V30 839 C 80.4755 -2.56671 3.42497 0
M  V30 840 C 79.8015 -3.95697 3.59622 0
M  V30 841 C 81.1015 -2.11601 4.77517 0
M  V30 842 H 82.7955 -0.953525 2.8381 0
M  V30 843 H 80.3415 -0.457244 1.36548 0
M  V30 844 H 82.2945 -3.37077 2.52898 0
M  V30 845 H 81.0185 -2.9732 1.35161 0
M  V30 846 H 79.6775 -1.85051 3.16467 0
M  V30 847 H 79.3255 -4.27322 2.6534 0
M  V30 848 H 79.0255 -3.92345 4.37424 0
M  V30 849 H 80.5495 -4.71438 3.88044 0
M  V30 850 H 81.9635 -2.7542 5.02809 0
M  V30 851 H 80.3605 -2.19311 5.5859 0
M  V30 852 H 81.4305 -1.06824 4.72987 0
M  V30 853 N 82.7736 -1.49793 -0.48987 0
M  V30 854 C 83.9986 -1.63836 -1.27172 0
M  V30 855 C 84.4236 -0.31402 -1.8546 0
M  V30 856 O 83.7816 0.719803 -1.66399 0
M  V30 857 C 83.8296 -2.71797 -2.36978 0
M  V30 858 O 82.9336 -2.31744 -3.41128 0
M  V30 859 H 82.2746 -0.547997 -0.37496 0
M  V30 860 H 84.8046 -1.96053 -0.585191 0
M  V30 861 H 84.8146 -2.94305 -2.82575 0
M  V30 862 H 83.4896 -3.67923 -1.93921 0
M  V30 863 H 82.0666 -2.1961 -3.01373 0
M  V30 864 N 84.2517 0.741722 -1.39055 0
M  V30 865 C 85.2017 1.84661 -1.33732 0
M  V30 866 C 86.1857 1.59397 -0.219401 0
M  V30 867 O 87.3777 1.71015 -0.456375 0
M  V30 868 C 84.5067 3.22512 -1.17647 0
M  V30 869 C 83.5927 3.53628 -2.34112 0
M  V30 870 N 83.9837 3.55723 -3.59576 0
M  V30 871 C 82.2817 3.83956 -2.26923 0
M  V30 872 C 82.9827 3.84443 -4.36553 0
M  V30 873 N 81.9587 4.01877 -3.66055 0
M  V30 874 H 85.7607 1.84576 -2.28711 0
M  V30 875 H 83.2747 0.939647 -1.32455 0
M  V30 876 H 85.2717 4.01597 -1.11917 0
M  V30 877 H 83.9317 3.2384 -0.236124 0
M  V30 878 H 84.9427 3.37196 -3.93089 0
M  V30 879 H 81.6197 3.92929 -1.41113 0
M  V30 880 H 83.0097 3.92588 -5.45274 0
M  V30 881 N 85.7298 1.2412 0.971189 0
M  V30 882 C 87.1408 1.07236 1.52831 0
M  V30 883 C 87.4918 -0.357352 1.92918 0
M  V30 884 O 86.6168 -1.24528 1.76979 0
M  V30 885 C 87.2118 1.94043 2.77728 0
M  V30 886 C 85.7708 1.81394 3.29808 0
M  V30 887 C 84.9178 1.89189 2.02738 0
M  V30 888 H 87.8688 1.37648 0.789864 0
M  V30 889 H 87.8898 1.47066 3.5093 0
M  V30 890 H 87.4018 2.98093 2.4852 0
M  V30 891 H 85.5028 0.801634 3.63874 0
M  V30 892 H 85.6158 2.65294 3.98944 0
M  V30 893 H 83.9798 1.32877 2.17292 0
M  V30 894 H 84.7628 2.94812 1.759 0
M  V30 895 N 87.2079 -1.17134 1.05439 0
M  V30 896 C 88.4329 -1.91913 0.786396 0
M  V30 897 C 88.8579 -1.7643 -0.652234 0
M  V30 898 O 88.2159 -1.08372 -1.45345 0
M  V30 899 C 88.2639 -3.40921 1.17497 0
M  V30 900 O 87.3679 -4.11244 0.308589 0
M  V30 901 H 86.7089 -0.598215 0.288158 0
M  V30 902 H 89.2389 -1.48457 1.4079 0
M  V30 903 H 89.2489 -3.91668 1.14281 0
M  V30 904 H 87.9239 -3.5151 2.22292 0
M  V30 905 H 86.5009 -3.70731 0.40157 0
M  V30 906 N 88.686 -0.835752 -1.33615 0
M  V30 907 C 89.926 -0.43599 -1.99696 0
M  V30 908 C 90.29 0.98557 -1.64774 0
M  V30 909 O 91.491 1.48889 -2.23798 0
M  V30 910 C 89.762 -0.646721 -3.515 0
M  V30 911 S 91.321 -0.341715 -4.37467 0
M  V30 912 H 88.139 -0.164136 -0.691795 0
M  V30 913 H 90.741 -1.08436 -1.62671 0
M  V30 914 H 89.445 -1.68077 -3.74404 0
M  V30 915 H 88.976 0.0159173 -3.93397 0
M  V30 916 H 90.991 0.839708 -4.89043 0
M  V30 917 N 90.1641 1.46063 -0.591896 0
M  V30 918 C 91.1271 2.28854 0.125973 0
M  V30 919 C 92.1271 1.38903 0.810107 0
M  V30 920 O 93.3171 1.61186 0.66066 0
M  V30 921 C 90.4491 3.19526 1.1881 0
M  V30 922 H 91.6421 2.93802 -0.601717 0
M  V30 923 H 89.1951 1.52325 -0.350254 0
M  V30 924 H 89.9301 2.59345 1.94707 0
M  V30 925 H 89.7151 3.85766 0.701936 0
M  V30 926 H 91.2051 3.81817 1.69132 0
M  V30 927 N 91.6422 0.330177 1.54103 0
M  V30 928 C 92.8882 -0.263542 2.01685 0
M  V30 929 C 93.2432 -1.49258 1.21408 0
M  V30 930 O 92.5362 -1.89395 0.289852 0
M  V30 931 C 92.7302 -0.643134 3.51566 0
M  V30 932 C 92.5592 0.547571 4.46354 0
M  V30 933 C 91.3292 1.04873 4.94297 0
M  V30 934 C 93.5272 1.40184 4.94826 0
M  V30 935 N 91.5092 2.20316 5.73005 0
M  V30 936 C 92.8802 2.40335 5.71524 0
M  V30 937 C 94.9352 1.42884 4.76958 0
M  V30 938 C 93.6382 3.42998 6.32254 0
M  V30 939 C 95.6642 2.44421 5.38528 0
M  V30 940 C 95.0262 3.43298 6.15082 0
M  V30 941 H 91.1252 -0.0601026 0.779687 0
M  V30 942 H 93.7092 0.466714 1.89023 0
M  V30 943 H 91.8802 -1.34251 3.6446 0
M  V30 944 H 93.6122 -1.21889 3.85908 0
M  V30 945 H 90.3672 0.618956 4.69538 0
M  V30 946 H 90.7912 2.78565 6.17034 0
M  V30 947 H 95.4332 0.678049 4.17328 0
M  V30 948 H 93.1512 4.1898 6.91 0
M  V30 949 H 96.7372 2.4732 5.26616 0
M  V30 950 H 95.6172 4.20579 6.61878 0
M  V30 951 N 93.1203 -1.57491 0.0584922 0
M  V30 952 C 94.3603 -1.94851 -0.617458 0
M  V30 953 C 94.7243 -0.937165 -1.67575 0
M  V30 954 O 95.9253 -1.19795 -2.40629 0
M  V30 955 C 94.1963 -3.36955 -1.19147 0
M  V30 956 S 95.7553 -3.96277 -1.8844 0
M  V30 957 H 92.5733 -0.681539 -0.202547 0
M  V30 958 H 95.1753 -1.95073 0.129176 0
M  V30 959 H 93.8793 -4.08355 -0.409215 0
M  V30 960 H 93.4103 -3.40245 -1.97476 0
M  V30 961 H 95.4253 -3.82099 -3.16568 0
M  V30 962 N 94.5984 0.214957 -1.56127 0
M  V30 963 C 95.5454 1.26642 -1.92952 0
M  V30 964 C 96.5154 1.46244 -0.78753 0
M  V30 965 O 97.7004 1.59704 -1.04399 0
M  V30 966 C 94.8404 2.6104 -2.25726 0
M  V30 967 C 93.9534 2.49183 -3.52891 0
M  V30 968 C 93.0884 3.76149 -3.7508 0
M  V30 969 C 92.1274 3.59041 -4.95738 0
M  V30 970 N 91.2644 4.77972 -5.14283 0
M  V30 971 H 96.1044 0.945384 -2.82607 0
M  V30 972 H 93.6414 0.455489 -1.3987 0
M  V30 973 H 95.5994 3.39313 -2.42739 0
M  V30 974 H 94.2294 2.91227 -1.39236 0
M  V30 975 H 93.2814 1.6231 -3.44034 0
M  V30 976 H 94.5934 2.32466 -4.41318 0
M  V30 977 H 93.7474 4.62865 -3.92226 0
M  V30 978 H 92.4864 3.95799 -2.84947 0
M  V30 979 H 91.4914 2.7071 -4.78535 0
M  V30 980 H 92.7164 3.40856 -5.87362 0
M  V30 981 H 90.6624 4.97923 -4.27093 0
M  V30 982 H 90.5794 4.64006 -5.96853 0
M  V30 983 H 91.8474 5.66096 -5.35869 0
M  V30 984 N 96.0765 1.50051 0.48192 0
M  V30 985 C 97.0085 1.64263 1.59844 0
M  V30 986 C 98.0215 0.52451 1.54119 0
M  V30 987 O 99.2105 0.797293 1.59704 0
M  V30 988 C 96.3105 1.60102 2.98698 0
M  V30 989 C 95.4835 2.87767 3.29407 0
M  V30 990 C 94.5425 2.76397 4.47762 0
M  V30 991 O 93.5685 3.50348 4.48603 0
M  V30 992 N 94.7705 1.89222 5.48794 0
M  V30 993 H 97.5355 2.60566 1.48073 0
M  V30 994 H 95.0965 1.47379 0.670149 0
M  V30 995 H 97.0885 1.50123 3.75826 0
M  V30 996 H 95.6585 0.715798 3.04294 0
M  V30 997 H 94.8785 3.11954 2.40994 0
M  V30 998 H 96.1665 3.72365 3.4673 0
M  V30 999 H 95.5645 1.28434 5.50928 0
M  V30 1000 H 94.1215 1.85154 6.24949 0
M  V30 1001 N 97.5546 -0.734337 1.39446 0
M  V30 1002 C 98.4846 -1.86155 1.40955 0
M  V30 1003 C 99.4656 -1.67898 0.272827 0
M  V30 1004 O 100.651 -1.88207 0.478743 0
M  V30 1005 C 97.7806 -3.23912 1.25294 0
M  V30 1006 C 96.7346 -3.56808 2.36373 0
M  V30 1007 C 96.0606 -4.93508 2.058 0
M  V30 1008 C 97.3606 -3.59713 3.78687 0
M  V30 1009 H 99.0546 -1.8515 2.35287 0
M  V30 1010 H 96.6006 -0.889367 1.13253 0
M  V30 1011 H 98.5536 -4.02443 1.2497 0
M  V30 1012 H 97.2776 -3.25446 0.274308 0
M  V30 1013 H 95.9366 -2.80606 2.35914 0
M  V30 1014 H 95.5846 -4.91623 1.06374 0
M  V30 1015 H 95.2846 -5.16486 2.80208 0
M  V30 1016 H 96.8086 -5.74396 2.07128 0
M  V30 1017 H 98.2226 -4.2832 3.81071 0
M  V30 1018 H 96.6196 -3.94209 4.52459 0
M  V30 1019 H 97.6896 -2.59504 4.09617 0
M  V30 1020 N 99.0327 -1.24633 -0.964593 0
M  V30 1021 C 99.9807 -1.03917 -2.08096 0
M  V30 1022 C 100.975 0.0268581 -1.69379 0
M  V30 1023 O 102.181 -0.127952 -1.79545 0
M  V30 1024 H 98.5557 -0.319044 -0.680966 0
M  V30 1025 H 100.527 -1.98581 -2.22729 0
M  V30 1026 C 99.2757 -0.663983 -3.41301 0
M  V30 1027 H 98.5987 -1.47605 -3.71555 0
M  V30 1028 H 100.039 -0.558663 -4.20303 0
M  V30 1029 C 98.4977 0.629169 -3.30973 0
M  V30 1030 O 99.0277 1.67404 -3.65156 0
M  V30 1031 N 97.2337 0.611057 -2.84103 0
M  V30 1032 H 96.7807 -0.239593 -2.56483 0
M  V30 1033 H 96.7387 1.47647 -2.77575 0
M  V30 1034 N 100.511 1.16574 -1.06058 0
M  V30 1035 C 101.758 1.87047 -0.775873 0
M  V30 1036 C 102.086 1.81562 0.697534 0
M  V30 1037 O 101.341 1.22445 1.52662 0
M  V30 1038 C 101.64 3.36195 -1.21275 0
M  V30 1039 C 101.306 3.6188 -2.68986 0
M  V30 1040 C 99.9678 3.68599 -3.09335 0
M  V30 1041 C 102.32 3.72648 -3.64394 0
M  V30 1042 C 99.6478 3.83584 -4.43937 0
M  V30 1043 C 102 3.89154 -4.98741 0
M  V30 1044 C 100.664 3.94114 -5.3873 0
M  V30 1045 H 99.9338 0.684452 -0.283912 0
M  V30 1046 H 102.581 1.37853 -1.32925 0
M  V30 1047 H 100.886 3.87505 -0.578528 0
M  V30 1048 H 102.583 3.89103 -0.969542 0
M  V30 1049 H 99.1728 3.57281 -2.36744 0
M  V30 1050 H 103.357 3.66769 -3.34356 0
M  V30 1051 H 98.6128 3.85677 -4.74409 0
M  V30 1052 H 102.787 3.96427 -5.72554 0
M  V30 1053 H 100.414 4.05478 -6.43033 0
M  V30 1054 N 101.989 0.842826 1.3317 0
M  V30 1055 C 103.217 0.454055 2.01856 0
M  V30 1056 C 103.632 -0.94587 1.63397 0
M  V30 1057 O 102.989 -1.61534 0.849302 0
M  V30 1058 C 103.04 0.569715 3.56982 0
M  V30 1059 O 102.761 1.91448 3.94055 0
M  V30 1060 C 104.262 0.178412 4.42941 0
M  V30 1061 H 101.482 0.17979 0.646465 0
M  V30 1062 H 104.026 1.1365 1.70012 0
M  V30 1063 H 102.181 -0.0648587 3.87346 0
M  V30 1064 H 102.595 1.90282 4.88767 0
M  V30 1065 H 104.069 0.310376 5.51127 0
M  V30 1066 H 104.546 -0.880056 4.30293 0
M  V30 1067 H 105.152 0.787579 4.17944 0
M  V30 1068 N 103.467 -1.45747 0.599634 0
M  V30 1069 C 104.43 -2.28917 -0.113835 0
M  V30 1070 C 105.43 -1.3933 -0.802729 0
M  V30 1071 O 106.62 -1.61534 -0.652103 0
M  V30 1072 C 103.752 -3.20152 -1.17114 0
M  V30 1073 H 104.945 -2.93478 0.617289 0
M  V30 1074 H 102.498 -1.52137 0.358327 0
M  V30 1075 H 103.233 -2.60374 -1.93329 0
M  V30 1076 H 103.018 -3.86133 -0.681468 0
M  V30 1077 H 104.508 -3.82708 -1.67105 0
M  V30 1078 N 104.945 -0.338344 -1.53925 0
M  V30 1079 C 106.17 0.263987 -2.05713 0
M  V30 1080 C 106.595 1.43847 -1.21201 0
M  V30 1081 O 105.953 1.79904 -0.224535 0
M  V30 1082 C 106.001 0.662 -3.54471 0
M  V30 1083 O 105.105 1.76265 -3.72833 0
M  V30 1084 H 104.446 0.0448722 -0.662482 0
M  V30 1085 H 106.976 -0.491048 -1.9862 0
M  V30 1086 H 106.986 0.940594 -3.9701 0
M  V30 1087 H 105.661 -0.196937 -4.15433 0
M  V30 1088 H 104.238 1.48173 -3.42198 0
M  V30 1089 N 106.423 1.57458 -0.0668435 0
M  V30 1090 C 107.671 1.92919 0.602214 0
M  V30 1091 C 107.992 0.947215 1.70449 0
M  V30 1092 O 107.262 -0.00544117 1.95899 0
M  V30 1093 H 105.842 0.71217 0.22544 0
M  V30 1094 H 108.504 1.94508 -0.123535 0
M  V30 1095 H 107.6 2.94589 1.03073 0
M  V30 1096 N 107.901 -0.206675 1.56239 0
M  V30 1097 C 108.811 -1.27686 1.96808 0
M  V30 1098 C 109.827 -1.50455 0.874035 0
M  V30 1099 O 111.003 -1.63295 1.17884 0
M  V30 1100 C 108.068 -2.60358 2.28942 0
M  V30 1101 C 107.129 -2.45762 3.51994 0
M  V30 1102 C 106.362 -3.72108 3.82585 0
M  V30 1103 O 106.585 -4.75776 3.14631 0
M  V30 1104 O 105.519 -3.6833 4.76043 0
M  V30 1105 H 109.345 -0.962593 2.88041 0
M  V30 1106 H 106.93 -0.410746 1.43643 0
M  V30 1107 H 108.812 -3.38687 2.50737 0
M  V30 1108 H 107.487 -2.91435 1.4088 0
M  V30 1109 H 106.394 -1.65584 3.35459 0
M  V30 1110 H 107.727 -2.19621 4.40486 0
M  V30 1111 N 109.379 -1.50304 -0.473955 0
M  V30 1112 C 110.342 -1.6841 -1.55469 0
M  V30 1113 C 111.342 -0.554905 -1.50922 0
M  V30 1114 O 112.532 -0.821882 -1.53593 0
M  V30 1115 C 109.664 -1.70667 -2.95102 0
M  V30 1116 H 110.857 -2.64828 -1.40733 0
M  V30 1117 H 108.41 -1.39742 -0.700132 0
M  V30 1118 H 109.145 -0.75932 -3.15285 0
M  V30 1119 H 108.93 -2.52698 -2.9981 0
M  V30 1120 H 110.42 -1.8664 -3.73571 0
M  V30 1121 N 110.857 0.726932 -1.39834 0
M  V30 1122 C 111.767 1.87131 -1.41489 0
M  V30 1123 C 112.783 1.71239 -0.308757 0
M  V30 1124 O 113.959 1.93701 -0.551529 0
M  V30 1125 C 111.024 3.22811 -1.26468 0
M  V30 1126 C 110.085 3.51039 -2.47124 0
M  V30 1127 C 109.318 4.80245 -2.3281 0
M  V30 1128 O 109.541 5.54537 -1.33585 0
M  V30 1129 O 108.475 5.08554 -3.21957 0
M  V30 1130 H 112.301 1.8869 -2.3797 0
M  V30 1131 H 109.886 0.875837 -1.21035 0
M  V30 1132 H 111.768 4.03877 -1.20255 0
M  V30 1133 H 110.443 3.22005 -0.330862 0
M  V30 1134 H 109.35 2.70027 -2.58914 0
M  V30 1135 H 110.683 3.56632 -3.39227 0
M  V30 1136 N 112.336 1.25143 0.95797 0
M  V30 1137 C 113.299 1.05321 2.03569 0
M  V30 1138 C 114.299 0.007152 1.60798 0
M  V30 1139 O 115.489 0.24903 1.72411 0
M  V30 1140 C 112.621 0.598394 3.35607 0
M  V30 1141 H 113.814 2.00986 2.22586 0
M  V30 1142 H 111.367 1.07502 1.13459 0
M  V30 1143 H 112.102 -0.361014 3.22284 0
M  V30 1144 H 111.887 1.35351 3.67998 0
M  V30 1145 H 113.377 0.48104 4.1482 0
M  V30 1146 N 113.814 -1.1601 1.06675 0
M  V30 1147 C 115.23 -1.38622 0.790948 0
M  V30 1148 C 115.43 -1.92109 -0.607965 0
M  V30 1149 O 114.486 -2.12239 -1.36787 0
M  V30 1150 C 115.799 -2.36347 1.85905 0
M  V30 1151 C 117.347 -2.50023 1.88301 0
M  V30 1152 C 117.822 -3.51033 2.94176 0
M  V30 1153 N 119.313 -3.58563 2.93235 0
M  V30 1154 C 120.048 -4.36521 3.71803 0
M  V30 1155 N 119.544 -5.17869 4.602 0
M  V30 1156 N 121.337 -4.31541 3.60178 0
M  V30 1157 H 113.488 -0.796294 1.96908 0
M  V30 1158 H 115.751 -0.412597 0.853503 0
M  V30 1159 H 115.457 -2.04147 2.86386 0
M  V30 1160 H 115.331 -3.36042 1.71334 0
M  V30 1161 H 117.718 -2.81524 0.884769 0
M  V30 1162 H 117.799 -1.5035 2.06951 0
M  V30 1163 H 117.443 -3.20268 3.94196 0
M  V30 1164 H 117.373 -4.50445 2.72776 0
M  V30 1165 H 119.864 -3.00496 2.29152 0
M  V30 1166 H 120.177 -5.74578 5.16797 0
M  V30 1167 H 118.522 -5.17199 4.64253 0
M  V30 1168 H 121.713 -3.67051 2.90502 0
M  V30 1169 H 121.886 -4.9205 4.21653 0
M  V30 1170 N 115.292 -0.849877 -1.32721 0
M  V30 1171 C 116.708 -0.539102 -1.50219 0
M  V30 1172 C 116.908 0.931271 -1.78689 0
M  V30 1173 O 115.964 1.71455 -1.85363 0
M  V30 1174 C 117.277 -1.42196 -2.64954 0
M  V30 1175 C 118.825 -1.42189 -2.78839 0
M  V30 1176 C 119.3 -2.28985 -3.96648 0
M  V30 1177 N 120.791 -2.26754 -4.03902 0
M  V30 1178 C 121.526 -2.90644 -4.94281 0
M  V30 1179 N 121.022 -3.63629 -5.897 0
M  V30 1180 N 122.815 -2.80057 -4.87365 0
M  V30 1181 H 114.966 -1.80156 -1.12506 0
M  V30 1182 H 117.229 -0.769217 -0.554085 0
M  V30 1183 H 116.935 -2.46733 -2.50631 0
M  V30 1184 H 116.809 -1.10591 -3.60624 0
M  V30 1185 H 119.196 -0.38419 -2.92588 0
M  V30 1186 H 119.277 -1.77807 -1.83898 0
M  V30 1187 H 118.921 -3.32819 -3.83658 0
M  V30 1188 H 118.851 -1.90702 -4.90857 0
M  V30 1189 H 121.342 -1.73688 -3.3562 0
M  V30 1190 H 121.655 -4.09558 -6.55349 0
M  V30 1191 H 120 -3.67737 -5.89741 0
M  V30 1192 H 123.191 -2.22593 -4.11789 0
M  V30 1193 H 123.364 -3.30132 -5.57599 0
M  V30 1194 N 116.77 1.45427 -0.607355 0
M  V30 1195 C 118.01 2.04128 -0.105458 0
M  V30 1196 C 118.374 1.46555 1.24039 0
M  V30 1197 O 119.575 1.96608 1.833 0
M  V30 1198 C 117.846 3.57338 -0.0665324 0
M  V30 1199 S 119.405 4.37201 0.374207 0
M  V30 1200 H 116.223 0.709278 -0.0494575 0
M  V30 1201 H 118.825 1.78139 -0.805404 0
M  V30 1202 H 117.529 3.96752 -1.04957 0
M  V30 1203 H 117.06 3.87902 0.655415 0
M  V30 1204 H 119.075 4.6888 1.62377 0
M  V30 1205 N 118.248 0.346503 1.53744 0
M  V30 1206 C 119.211 -0.496439 2.23759 0
M  V30 1207 C 120.211 -1.0252 1.2388 0
M  V30 1208 O 121.401 -0.913974 1.48297 0
M  V30 1209 C 118.533 -1.69187 2.95954 0
M  V30 1210 H 119.726 0.115952 2.99676 0
M  V30 1211 H 117.279 0.0978939 1.55993 0
M  V30 1212 H 118.014 -2.34288 2.24231 0
M  V30 1213 H 117.799 -1.31989 3.69217 0
M  V30 1214 H 119.289 -2.28969 3.49232 0
M  V30 1215 N 119.726 -1.57421 0.075193 0
M  V30 1216 C 121.142 -1.57099 -0.281444 0
M  V30 1217 C 121.342 -1.08486 -1.69803 0
M  V30 1218 O 120.398 -0.752279 -2.41033 0
M  V30 1219 C 121.711 -3.00571 -0.0880041 0
M  V30 1220 C 123.259 -3.12605 -0.157281 0
M  V30 1221 C 123.734 -4.57999 0.0079207 0
M  V30 1222 N 125.225 -4.63176 -0.0475725 0
M  V30 1223 C 125.96 -5.73373 0.0557876 0
M  V30 1224 N 125.456 -6.92473 0.21286 0
M  V30 1225 N 127.249 -5.621 -0.00152098 0
M  V30 1226 H 119.4 -1.87335 1.00098 0
M  V30 1227 H 121.663 -0.86377 0.390646 0
M  V30 1228 H 121.369 -3.40262 0.889629 0
M  V30 1229 H 121.243 -3.67754 -0.838875 0
M  V30 1230 H 123.63 -2.72798 -1.1254 0
M  V30 1231 H 123.711 -2.48053 0.62475 0
M  V30 1232 H 123.355 -4.98496 0.972824 0
M  V30 1233 H 123.285 -5.20586 -0.793556 0
M  V30 1234 H 125.776 -3.7753 -0.167244 0
M  V30 1235 H 126.089 -7.72279 0.283781 0
M  V30 1236 H 124.434 -6.94556 0.248267 0
M  V30 1237 H 127.625 -4.67938 -0.122958 0
M  V30 1238 H 127.798 -6.47948 0.0824844 0
M  V30 1239 N 121.204 0.198386 -1.56346 0
M  V30 1240 C 122.62 0.549085 -1.49857 0
M  V30 1241 C 122.82 1.86016 -0.774611 0
M  V30 1242 O 121.876 2.50416 -0.323776 0
M  V30 1243 C 123.189 0.606868 -2.94512 0
M  V30 1244 C 124.737 0.695925 -3.05165 0
M  V30 1245 C 125.212 0.784848 -4.51225 0
M  V30 1246 N 126.703 0.848463 -4.55363 0
M  V30 1247 C 127.438 0.937378 -5.65686 0
M  V30 1248 N 126.934 0.9888 -6.85707 0
M  V30 1249 N 128.727 0.974312 -5.53592 0
M  V30 1250 H 120.878 -0.661655 -2.01831 0
M  V30 1251 H 123.141 -0.235261 -0.918344 0
M  V30 1252 H 122.847 -0.28732 -3.50524 0
M  V30 1253 H 122.721 1.46268 -3.47686 0
M  V30 1254 H 125.108 1.58055 -2.49204 0
M  V30 1255 H 125.189 -0.186022 -2.55123 0
M  V30 1256 H 124.833 -0.0954072 -5.0781 0
M  V30 1257 H 124.763 1.68255 -4.98997 0
M  V30 1258 H 127.254 0.818103 -3.68938 0
M  V30 1259 H 127.567 1.05707 -7.65536 0
M  V30 1260 H 125.912 0.957534 -6.88372 0
M  V30 1261 H 129.103 0.930954 -4.58749 0
M  V30 1262 H 129.276 1.04015 -6.39597 0
M  V30 1263 N 122.682 1.50554 0.465978 0
M  V30 1264 C 123.592 1.72585 1.58907 0
M  V30 1265 C 124.608 0.60911 1.6299 0
M  V30 1266 O 125.784 0.88804 1.80765 0
M  V30 1267 C 122.849 1.81995 2.95091 0
M  V30 1268 C 121.91 3.05751 3.01355 0
M  V30 1269 C 121.143 3.14702 4.31043 0
M  V30 1270 O 121.366 2.30313 5.21835 0
M  V30 1271 O 120.3 4.07468 4.43005 0
M  V30 1272 H 124.126 2.67799 1.43239 0
M  V30 1273 H 121.711 1.34711 0.646013 0
M  V30 1274 H 123.593 1.90335 3.75966 0
M  V30 1275 H 122.268 0.899659 3.10947 0
M  V30 1276 H 121.175 3.02908 2.19539 0
M  V30 1277 H 122.508 3.97375 2.90437 0
M  V30 1278 N 124.16 -0.719506 1.40217 0
M  V30 1279 C 125.07 -1.86378 1.42479 0
M  V30 1280 C 126.086 -1.71073 0.317834 0
M  V30 1281 O 127.262 -1.93406 0.561794 0
M  V30 1282 C 124.327 -3.22136 1.28178 0
M  V30 1283 C 123.388 -3.49723 2.48982 0
M  V30 1284 C 122.621 -4.79004 2.35353 0
M  V30 1285 O 122.844 -5.53821 1.36524 0
M  V30 1286 O 121.778 -5.06839 3.2465 0
M  V30 1287 H 125.604 -1.87425 2.38968 0
M  V30 1288 H 123.189 -0.869405 1.21498 0
M  V30 1289 H 125.071 -4.03234 1.22395 0
M  V30 1290 H 123.746 -3.21825 0.347934 0
M  V30 1291 H 122.653 -2.6865 2.60342 0
M  V30 1292 H 123.986 -3.54828 3.41113 0
M  V30 1293 N 125.638 -1.25649 -0.95132 0
M  V30 1294 C 126.568 -1.08808 -2.06599 0
M  V30 1295 C 127.549 0.00382547 -1.701 0
M  V30 1296 O 128.734 -0.166325 -1.93486 0
M  V30 1297 C 125.864 -0.709542 -3.39975 0
M  V30 1298 C 124.818 -1.75206 -3.90496 0
M  V30 1299 C 124.144 -1.22811 -5.20405 0
M  V30 1300 C 125.444 -3.15153 -4.16504 0
M  V30 1301 H 127.138 -2.02048 -2.20946 0
M  V30 1302 H 124.684 -0.972835 -1.06169 0
M  V30 1303 H 126.637 -0.578649 -4.17408 0
M  V30 1304 H 125.361 0.258556 -3.25575 0
M  V30 1305 H 124.02 -1.87145 -3.15234 0
M  V30 1306 H 123.668 -0.250145 -5.02378 0
M  V30 1307 H 123.368 -1.92492 -5.55176 0
M  V30 1308 H 124.892 -1.10968 -6.00432 0
M  V30 1309 H 126.306 -3.06349 -4.84586 0
M  V30 1310 H 124.703 -3.82333 -4.62538 0
M  V30 1311 H 125.773 -3.61966 -3.22658 0
M  V30 1312 N 127.117 1.15442 -1.07289 0
M  V30 1313 C 128.047 2.22312 -0.714107 0
M  V30 1314 C 129.028 1.67467 0.298155 0
M  V30 1315 O 130.213 1.93445 0.171048 0
M  V30 1316 C 127.343 3.47124 -0.110448 0
M  V30 1317 C 126.297 4.14926 -1.04979 0
M  V30 1318 C 125.623 5.33807 -0.308924 0
M  V30 1319 C 126.923 4.64762 -2.38314 0
M  V30 1320 H 128.617 2.5258 -1.6076 0
M  V30 1321 H 126.163 1.21404 -0.77441 0
M  V30 1322 H 128.116 4.21124 0.152482 0
M  V30 1323 H 126.84 3.16187 0.81812 0
M  V30 1324 H 125.499 3.42866 -1.29764 0
M  V30 1325 H 125.147 4.99126 0.623084 0
M  V30 1326 H 124.847 5.80113 -0.935036 0
M  V30 1327 H 126.371 6.10576 -0.0537771 0
M  V30 1328 H 127.785 5.30292 -2.1786 0
M  V30 1329 H 126.182 5.21728 -2.96514 0
M  V30 1330 H 127.252 3.80434 -3.00663 0
M  V30 1331 N 128.595 0.856903 1.32268 0
M  V30 1332 C 129.558 0.308171 2.27119 0
M  V30 1333 C 130.558 -0.533421 1.51695 0
M  V30 1334 O 131.748 -0.344607 1.70757 0
M  V30 1335 C 128.88 -0.563757 3.36206 0
M  V30 1336 H 130.073 1.14535 2.77167 0
M  V30 1337 H 127.626 0.631421 1.42978 0
M  V30 1338 H 128.361 -1.42266 2.91429 0
M  V30 1339 H 128.146 0.0386749 3.92081 0
M  V30 1340 H 129.636 -0.940386 4.06874 0
M  V30 1341 N 130.073 -1.45103 0.615059 0
M  V30 1342 C 131.489 -1.57137 0.279322 0
M  V30 1343 C 131.689 -1.60523 -1.21797 0
M  V30 1344 O 130.745 -1.53956 -2.00134 0
M  V30 1345 C 132.058 -2.85062 0.957083 0
M  V30 1346 C 133.606 -2.98749 0.933706 0
M  V30 1347 C 134.081 -4.29455 1.59162 0
M  V30 1348 N 135.572 -4.36231 1.55746 0
M  V30 1349 C 136.307 -5.36051 2.0356 0
M  V30 1350 N 135.803 -6.42367 2.59494 0
M  V30 1351 N 137.596 -5.27456 1.94284 0
M  V30 1352 H 129.747 -1.41148 1.58717 0
M  V30 1353 H 132.01 -0.675331 0.665306 0
M  V30 1354 H 131.716 -2.88488 2.01166 0
M  V30 1355 H 131.59 -3.7407 0.48494 0
M  V30 1356 H 133.977 -2.94886 -0.112347 0
M  V30 1357 H 134.058 -2.11132 1.44419 0
M  V30 1358 H 133.702 -4.34077 2.63704 0
M  V30 1359 H 133.632 -5.15901 1.0561 0
M  V30 1360 H 136.123 -3.60011 1.14893 0
M  V30 1361 H 136.436 -7.14793 2.93752 0
M  V30 1362 H 134.781 -6.43097 2.63537 0
M  V30 1363 H 137.972 -4.43308 1.5032 0
M  V30 1364 H 138.145 -6.05099 2.3186 0
M  V30 1365 N 131.551 -0.354651 -1.53558 0
M  V30 1366 C 132.799 0.237972 -2.00694 0
M  V30 1367 C 133.12 1.50173 -1.24391 0
M  V30 1368 O 132.39 1.92673 -0.354135 0
M  V30 1369 H 130.97 0.0909256 -0.741446 0
M  V30 1370 H 133.632 -0.478368 -1.88938 0
M  V30 1371 H 132.728 0.47264 -3.085 0
M  V30 1372 N 133.029 1.57378 -0.0835403 0
M  V30 1373 C 134.269 1.95808 0.586381 0
M  V30 1374 C 134.633 0.963706 1.66062 0
M  V30 1375 O 135.834 1.23608 2.38693 0
M  V30 1376 C 134.105 3.38808 1.13771 0
M  V30 1377 S 135.664 3.99225 1.82112 0
M  V30 1378 H 132.482 0.684675 0.191679 0
M  V30 1379 H 135.084 1.94843 -0.160194 0
M  V30 1380 H 133.788 4.08954 0.344197 0
M  V30 1381 H 133.319 3.43344 1.92038 0
M  V30 1382 H 135.334 3.87087 3.10449 0
M  V30 1383 N 134.507 -0.190092 1.56449 0
M  V30 1384 C 135.918 -0.754312 1.70784 0
M  V30 1385 C 136.269 -1.83631 0.690951 0
M  V30 1386 O 135.394 -2.15868 -0.151604 0
M  V30 1387 C 135.989 -1.37503 3.09642 0
M  V30 1388 C 134.548 -1.88628 3.25725 0
M  V30 1389 C 133.695 -0.758098 2.66736 0
M  V30 1390 H 136.646 0.0350524 1.58661 0
M  V30 1391 H 136.667 -2.2445 3.0725 0
M  V30 1392 H 136.179 -0.587302 3.83631 0
M  V30 1393 H 134.28 -2.70103 2.56661 0
M  V30 1394 H 134.393 -2.04462 4.3328 0
M  V30 1395 H 132.757 -1.17369 2.26046 0
M  V30 1396 H 133.54 0.0174705 3.43296 0
M  V30 1397 N 135.985 -1.50799 -0.457987 0
M  V30 1398 C 136.915 -1.73553 -1.5621 0
M  V30 1399 C 137.896 -0.584774 -1.59732 0
M  V30 1400 O 139.081 -0.825314 -1.7579 0
M  V30 1401 C 136.211 -1.84169 -2.94447 0
M  V30 1402 C 135.165 -2.99461 -3.0579 0
M  V30 1403 C 134.491 -2.95235 -4.45803 0
M  V30 1404 C 135.791 -4.39766 -2.81786 0
M  V30 1405 H 137.485 -2.66 -1.37421 0
M  V30 1406 H 135.031 -1.28002 -0.659662 0
M  V30 1407 H 136.984 -1.98672 -3.71628 0
M  V30 1408 H 135.708 -0.883545 -3.14422 0
M  V30 1409 H 134.367 -2.8463 -2.31044 0
M  V30 1410 H 134.015 -1.97239 -4.62715 0
M  V30 1411 H 133.715 -3.72642 -4.54326 0
M  V30 1412 H 135.239 -3.11803 -5.24987 0
M  V30 1413 H 136.653 -4.55054 -3.4871 0
M  V30 1414 H 135.05 -5.18722 -3.0174 0
M  V30 1415 H 136.12 -4.51229 -1.7754 0
M  V30 1416 N 137.463 0.71206 -1.40597 0
M  V30 1417 C 138.373 1.8562 -1.43466 0
M  V30 1418 C 139.389 1.70902 -0.326902 0
M  V30 1419 O 140.565 1.93105 -0.572043 0
M  V30 1420 C 137.63 3.21451 -1.29884 0
M  V30 1421 C 136.691 3.48398 -2.50833 0
M  V30 1422 C 135.924 4.77749 -2.3789 0
M  V30 1423 O 136.147 5.53089 -1.39459 0
M  V30 1424 O 135.081 5.05111 -3.27333 0
M  V30 1425 H 138.907 1.86155 -2.39958 0
M  V30 1426 H 136.492 0.86295 -1.21957 0
M  V30 1427 H 138.374 4.02579 -1.24531 0
M  V30 1428 H 137.049 3.21636 -0.364997 0
M  V30 1429 H 135.956 2.67265 -2.61763 0
M  V30 1430 H 137.289 3.53014 -3.4299 0
M  V30 1431 N 138.941 1.26152 0.944643 0
M  V30 1432 C 139.851 1.09176 2.07648 0
M  V30 1433 C 140.867 0.0261935 1.7398 0
M  V30 1434 O 142.043 0.229208 2.00091 0
M  V30 1435 C 139.108 0.722915 3.39079 0
M  V30 1436 C 138.169 1.86752 3.86552 0
M  V30 1437 C 137.402 1.51617 5.11711 0
M  V30 1438 O 137.625 0.416331 5.68879 0
M  V30 1439 O 136.559 2.34975 5.54139 0
M  V30 1440 H 140.385 2.0412 2.24875 0
M  V30 1441 H 137.97 1.05182 1.061 0
M  V30 1442 H 139.852 0.529787 4.18056 0
M  V30 1443 H 138.527 -0.197159 3.23099 0
M  V30 1444 H 137.434 2.11558 3.08535 0
M  V30 1445 H 138.767 2.76719 4.07047 0
M  V30 1446 N 140.419 -1.14872 1.07899 0
M  V30 1447 C 141.349 -2.2193 0.725887 0
M  V30 1448 C 142.33 -1.67622 -0.28927 0
M  V30 1449 O 143.515 -1.93533 -0.160787 0
M  V30 1450 C 140.645 -3.47061 0.128856 0
M  V30 1451 C 139.599 -4.14363 1.07178 0
M  V30 1452 C 138.925 -5.33636 0.337229 0
M  V30 1453 C 140.225 -4.63492 2.40775 0
M  V30 1454 H 141.919 -2.51724 1.62097 0
M  V30 1455 H 139.465 -1.20991 0.780838 0
M  V30 1456 H 141.418 -4.21199 -0.130147 0
M  V30 1457 H 140.142 -3.16617 -0.80134 0
M  V30 1458 H 138.801 -3.42173 1.3158 0
M  V30 1459 H 138.449 -4.99449 -0.596606 0
M  V30 1460 H 138.149 -5.79609 0.965788 0
M  V30 1461 H 139.673 -6.10539 0.0861567 0
M  V30 1462 H 141.087 -5.2913 2.20669 0
M  V30 1463 H 139.484 -5.20148 2.99276 0
M  V30 1464 H 140.554 -3.78834 3.02676 0
M  V30 1465 N 141.898 -0.863906 -1.31812 0
M  V30 1466 C 142.808 -0.318461 -2.32428 0
M  V30 1467 C 143.824 0.568496 -1.64451 0
M  V30 1468 O 145 0.46666 -1.95919 0
M  V30 1469 C 142.065 0.476355 -3.43412 0
M  V30 1470 C 141.126 -0.43784 -4.27061 0
M  V30 1471 C 140.359 0.319138 -5.32745 0
M  V30 1472 O 140.582 1.54799 -5.48993 0
M  V30 1473 O 139.516 -0.319861 -6.01049 0
M  V30 1474 H 143.342 -1.15229 -2.80991 0
M  V30 1475 H 140.927 -0.627103 -1.35602 0
M  V30 1476 H 142.809 0.927156 -4.11074 0
M  V30 1477 H 141.484 1.28683 -2.97022 0
M  V30 1478 H 140.391 -0.937013 -3.62175 0
M  V30 1479 H 141.724 -1.21375 -4.77 0
M  V30 1480 N 143.376 1.44774 -0.622745 0
M  V30 1481 C 144.286 2.34433 0.0886031 0
M  V30 1482 C 145.302 1.52131 0.844529 0
M  V30 1483 O 146.478 1.84886 0.798691 0
M  V30 1484 C 143.543 3.29986 1.0635 0
M  V30 1485 C 142.604 4.28195 0.307873 0
M  V30 1486 C 141.837 5.19183 1.23633 0
M  V30 1487 O 142.06 5.13918 2.47476 0
M  V30 1488 O 140.994 5.97515 0.725189 0
M  V30 1489 H 144.82 2.96693 -0.648599 0
M  V30 1490 H 142.405 1.44408 -0.382957 0
M  V30 1491 H 144.287 3.88825 1.6246 0
M  V30 1492 H 142.962 2.70269 1.78146 0
M  V30 1493 H 141.869 3.72927 -0.296064 0
M  V30 1494 H 143.202 4.90808 -0.3699 0
M  V30 1495 N 144.854 0.36279 1.53368 0
M  V30 1496 C 146.265 -0.117022 1.86333 0
M  V30 1497 C 146.616 -1.48397 1.28347 0
M  V30 1498 O 145.741 -2.07787 0.604428 0
M  V30 1499 C 146.336 -0.21912 3.38091 0
M  V30 1500 C 144.895 -0.643184 3.70864 0
M  V30 1501 C 144.042 0.211318 2.76494 0
M  V30 1502 H 146.993 0.581687 1.47655 0
M  V30 1503 H 147.014 -1.04319 3.6592 0
M  V30 1504 H 146.526 0.775902 3.80265 0
M  V30 1505 H 144.627 -1.64654 3.34245 0
M  V30 1506 H 144.74 -0.41973 4.77258 0
M  V30 1507 H 143.104 -0.319367 2.5269 0
M  V30 1508 H 143.887 1.20383 3.21501 0
M  V30 1509 N 146.332 -1.57332 0.0918853 0
M  V30 1510 C 147.748 -1.57389 -0.264766 0
M  V30 1511 C 147.948 -1.10281 -1.68643 0
M  V30 1512 O 147.004 -0.777801 -2.40222 0
M  V30 1513 C 148.317 -3.00648 -0.0561195 0
M  V30 1514 C 149.865 -3.12754 -0.124116 0
M  V30 1515 C 150.34 -4.57965 0.0564972 0
M  V30 1516 N 151.831 -4.632 0.00155611 0
M  V30 1517 C 152.566 -5.73281 0.116598 0
M  V30 1518 N 152.062 -6.92208 0.286294 0
M  V30 1519 N 153.855 -5.6207 0.0580973 0
M  V30 1520 H 146.006 -1.86262 1.02079 0
M  V30 1521 H 148.269 -0.859579 0.399786 0
M  V30 1522 H 147.975 -3.393 0.925669 0
M  V30 1523 H 147.849 -3.68623 -0.799823 0
M  V30 1524 H 150.236 -2.73976 -1.09641 0
M  V30 1525 H 150.317 -2.47377 0.651024 0
M  V30 1526 H 149.961 -4.97436 1.02564 0
M  V30 1527 H 149.891 -5.21399 -0.738297 0
M  V30 1528 H 152.382 -3.77686 -0.127192 0
M  V30 1529 H 152.695 -7.71934 0.365676 0
M  V30 1530 H 151.04 -6.94254 0.32192 0
M  V30 1531 H 154.231 -4.68043 -0.0733204 0
M  V30 1532 H 154.404 -6.47824 0.151203 0
M  V30 1533 N 147.81 0.181792 -1.56548 0
M  V30 1534 C 149.058 0.89832 -1.81038 0
M  V30 1535 C 149.379 1.83232 -0.667164 0
M  V30 1536 O 148.649 1.93372 0.313673 0
M  V30 1537 H 147.229 0.33471 -0.667816 0
M  V30 1538 H 149.891 0.184116 -1.94028 0
M  V30 1539 H 148.987 1.4815 -2.74696 0
M  V30 1540 N 149.288 1.51039 0.449983 0
M  V30 1541 C 150.22 1.67617 1.56324 0
M  V30 1542 C 151.233 0.557083 1.52972 0
M  V30 1543 O 152.422 0.830989 1.57977 0
M  V30 1544 C 149.522 1.66402 2.95235 0
M  V30 1545 C 148.695 2.9469 3.23229 0
M  V30 1546 C 147.754 2.85832 4.41799 0
M  V30 1547 O 146.78 3.59785 4.41071 0
M  V30 1548 N 147.982 2.00821 5.44657 0
M  V30 1549 H 150.747 2.63648 1.42512 0
M  V30 1550 H 148.308 1.48767 0.638737 0
M  V30 1551 H 150.3 1.58062 3.72557 0
M  V30 1552 H 148.87 0.780182 3.02708 0
M  V30 1553 H 148.09 3.16996 2.34323 0
M  V30 1554 H 149.378 3.79636 3.38754 0
M  V30 1555 H 148.776 1.40091 5.48079 0
M  V30 1556 H 147.333 1.98368 6.20881 0
M  V30 1557 N 150.766 -0.704594 1.40972 0
M  V30 1558 C 151.698 -1.82974 1.38033 0
M  V30 1559 C 152.711 -1.60305 0.283931 0
M  V30 1560 O 153.9 -1.69975 0.545042 0
M  V30 1561 C 151 -3.19578 1.12795 0
M  V30 1562 C 150.173 -3.69352 2.34302 0
M  V30 1563 C 149.232 -4.84601 2.05058 0
M  V30 1564 O 148.258 -4.96682 2.7802 0
M  V30 1565 N 149.46 -5.71194 1.03528 0
M  V30 1566 H 152.225 -1.85991 2.35005 0
M  V30 1567 H 149.786 -0.886567 1.35468 0
M  V30 1568 H 151.778 -3.9429 0.911987 0
M  V30 1569 H 150.348 -3.11642 0.24452 0
M  V30 1570 H 149.568 -2.85649 2.71659 0
M  V30 1571 H 150.856 -3.99345 3.1528 0
M  V30 1572 H 150.254 -5.64054 0.431217 0
M  V30 1573 H 148.811 -6.45843 0.879205 0
M  V30 1574 N 152.244 -1.26651 -0.937939 0
M  V30 1575 C 153.154 -1.10276 -2.07066 0
M  V30 1576 C 154.17 -0.0354197 -1.73964 0
M  V30 1577 O 155.346 -0.239816 -1.99967 0
M  V30 1578 C 152.411 -0.740887 -3.38691 0
M  V30 1579 C 151.472 -1.88799 -3.85556 0
M  V30 1580 C 150.705 -1.54329 -5.10899 0
M  V30 1581 O 150.928 -0.446494 -5.6865 0
M  V30 1582 O 149.862 -2.37911 -5.52885 0
M  V30 1583 H 153.688 -2.05309 -2.23789 0
M  V30 1584 H 151.273 -1.05743 -1.0554 0
M  V30 1585 H 153.155 -0.55195 -4.1777 0
M  V30 1586 H 151.83 0.180022 -3.23199 0
M  V30 1587 H 150.737 -2.13191 -3.07409 0
M  V30 1588 H 152.07 -2.78874 -4.05574 0
M  V30 1589 N 153.722 1.14298 -1.08507 0
M  V30 1590 C 154.968 1.85633 -0.816581 0
M  V30 1591 C 155.301 1.82784 0.656021 0
M  V30 1592 O 154.576 1.25926 1.48233 0
M  V30 1593 C 154.859 3.34223 -1.34041 0
M  V30 1594 C 154.712 3.45639 -2.87843 0
M  V30 1595 C 156.031 4.29356 -0.9665 0
M  V30 1596 H 153.15 0.67402 -0.298104 0
M  V30 1597 H 155.792 1.34214 -1.34487 0
M  V30 1598 H 153.942 3.78144 -0.89104 0
M  V30 1599 H 155.614 3.10498 -3.41158 0
M  V30 1600 H 153.857 2.86817 -3.25451 0
M  V30 1601 H 154.528 4.50089 -3.19569 0
M  V30 1602 H 157.004 3.93457 -1.35391 0
M  V30 1603 H 155.88 5.3178 -1.3602 0
M  V30 1604 H 156.141 4.41919 0.126362 0
M  V30 1605 N 155.201 0.870884 1.31352 0
M  V30 1606 C 156.131 0.343096 2.30966 0
M  V30 1607 C 157.112 -0.566507 1.60389 0
M  V30 1608 O 158.297 -0.483336 1.88089 0
M  V30 1609 C 155.427 -0.455487 3.443 0
M  V30 1610 C 154.381 0.361103 4.26474 0
M  V30 1611 C 153.707 -0.563221 5.31725 0
M  V30 1612 C 155.007 1.59566 4.97329 0
M  V30 1613 H 156.701 1.17548 2.75359 0
M  V30 1614 H 154.247 0.566686 1.32381 0
M  V30 1615 H 156.2 -0.83525 4.13039 0
M  V30 1616 H 154.924 -1.32139 2.98675 0
M  V30 1617 H 153.583 0.722825 3.59403 0
M  V30 1618 H 153.231 -1.42643 4.82351 0
M  V30 1619 H 152.931 -0.0207409 5.87596 0
M  V30 1620 H 154.455 -0.939808 6.03324 0
M  V30 1621 H 155.869 1.28728 5.58661 0
M  V30 1622 H 154.266 2.07728 5.63 0
M  V30 1623 H 155.336 2.34798 4.24262 0
M  V30 1624 N 156.679 -1.44442 0.630414 0
M  V30 1625 C 157.611 -2.2892 -0.113347 0
M  V30 1626 C 158.624 -1.41243 -0.80959 0
M  V30 1627 O 159.813 -1.65402 -0.671156 0
M  V30 1628 C 156.913 -3.17594 -1.18266 0
M  V30 1629 C 156.086 -4.33682 -0.569073 0
M  V30 1630 C 155.145 -5.03397 -1.53226 0
M  V30 1631 O 154.171 -5.59438 -1.04967 0
M  V30 1632 N 155.373 -5.04783 -2.86661 0
M  V30 1633 H 158.138 -2.93392 0.611636 0
M  V30 1634 H 155.699 -1.54881 0.471523 0
M  V30 1635 H 157.691 -3.61097 -1.82732 0
M  V30 1636 H 156.261 -2.54876 -1.80988 0
M  V30 1637 H 155.481 -3.9338 0.254187 0
M  V30 1638 H 156.769 -5.08608 -0.139767 0
M  V30 1639 H 156.167 -4.60584 -3.28449 0
M  V30 1640 H 154.724 -5.52077 -3.46489 0
M  V30 1641 N 158.157 -0.370918 -1.53173 0
M  V30 1642 C 159.434 0.273754 -1.93675 0
M  V30 1643 C 159.814 1.65938 -1.3049 0
M  V30 1644 O 159.162 2.23698 -0.465999 0
M  V30 1645 C 159.372 0.318602 -3.47543 0
M  V30 1646 C 160.72 0.556392 -4.20939 0
M  V30 1647 O 161.744 0.399587 -3.53952 0
M  V30 1648 O 160.603 0.862133 -5.39657 0
M  V30 1649 H 157.697 0.165448 -0.810281 0
M  V30 1650 H 160.243 -0.42409 -1.64315 0
M  V30 1651 H 159.015 -0.652687 -3.85818 0
M  V30 1652 H 158.638 1.06212 -3.83151 0
M  V30 1653 N 159.635 1.57281 -0.100228 0
M  V30 1654 C 160.567 2.11342 0.886972 0
M  V30 1655 C 161.58 1.05182 1.24261 0
M  V30 1656 O 162.769 1.32613 1.19483 0
M  V30 1657 C 159.869 2.5825 2.19454 0
M  V30 1658 C 159.042 3.88302 2.01346 0
M  V30 1659 C 158.101 4.21004 3.15661 0
M  V30 1660 O 157.127 4.9014 2.89398 0
M  V30 1661 N 158.329 3.76818 4.41575 0
M  V30 1662 H 161.094 2.96668 0.425216 0
M  V30 1663 H 158.655 1.61678 0.0847334 0
M  V30 1664 H 160.647 2.7717 2.94888 0
M  V30 1665 H 159.217 1.77907 2.57037 0
M  V30 1666 H 158.437 3.7848 1.10212 0
M  V30 1667 H 159.725 4.73375 1.8653 0
M  V30 1668 H 159.123 3.2102 4.65792 0
M  V30 1669 H 157.68 4.00882 5.13942 0
M  V30 1670 N 161.113 -0.173488 1.56642 0
M  V30 1671 C 162.524 -0.736155 1.71574 0
M  V30 1672 C 162.875 -1.82888 0.710389 0
M  V30 1673 O 162 -2.16017 -0.1287 0
M  V30 1674 C 162.595 -1.34211 3.11083 0
M  V30 1675 C 161.154 -1.85162 3.27707 0
M  V30 1676 C 160.301 -0.729765 2.67525 0
M  V30 1677 H 163.252 0.0518786 1.58615 0
M  V30 1678 H 163.273 -2.21178 3.09613 0
M  V30 1679 H 162.785 -0.546579 3.84232 0
M  V30 1680 H 160.886 -2.67366 2.59512 0
M  V30 1681 H 160.999 -1.99855 4.35425 0
M  V30 1682 H 159.363 -1.14965 2.27278 0
M  V30 1683 H 160.146 0.0538806 3.43258 0
M  V30 1684 N 162.591 -1.51276 -0.441967 0
M  V30 1685 C 163.521 -1.752 -1.54361 0
M  V30 1686 C 164.502 -0.601682 -1.59103 0
M  V30 1687 O 165.687 -0.843913 -1.74905 0
M  V30 1688 C 162.817 -1.87282 -2.92477 0
M  V30 1689 C 161.771 -3.02687 -3.02596 0
M  V30 1690 C 161.097 -2.99947 -4.42647 0
M  V30 1691 C 162.397 -4.4273 -2.77106 0
M  V30 1692 H 164.091 -2.67442 -1.34592 0
M  V30 1693 H 161.637 -1.28694 -0.646048 0
M  V30 1694 H 163.59 -2.02602 -3.695 0
M  V30 1695 H 162.314 -0.916844 -3.13467 0
M  V30 1696 H 160.973 -2.87065 -2.28012 0
M  V30 1697 H 160.621 -2.02136 -4.60597 0
M  V30 1698 H 160.321 -3.77439 -4.50348 0
M  V30 1699 H 161.845 -3.17354 -5.2165 0
M  V30 1700 H 163.259 -4.58727 -3.43864 0
M  V30 1701 H 161.656 -5.21893 -2.96222 0
M  V30 1702 H 162.726 -4.53087 -1.72744 0
M  V30 1703 N 164.069 0.697108 -1.41344 0
M  V30 1704 C 165.294 1.49096 -1.44171 0
M  V30 1705 C 165.719 1.88038 -0.0481568 0
M  V30 1706 O 165.077 1.54525 0.948243 0
M  V30 1707 C 165.125 2.73088 -2.3549 0
M  V30 1708 O 164.229 3.70514 -1.81088 0
M  V30 1709 H 163.57 0.448801 -0.489361 0
M  V30 1710 H 166.1 0.856992 -1.85787 0
M  V30 1711 H 166.11 3.21413 -2.51312 0
M  V30 1712 H 164.785 2.44081 -3.36745 0
M  V30 1713 H 163.362 3.29441 -1.74708 0
M  V30 1714 N 165.547 1.27147 0.931209 0
M  V30 1715 C 166.479 1.05364 2.03546 0
M  V30 1716 C 167.492 0.0108438 1.62796 0
M  V30 1717 O 168.681 0.25202 1.76712 0
M  V30 1718 C 165.781 0.575566 3.33977 0
M  V30 1719 C 164.954 1.68985 4.03439 0
M  V30 1720 C 164.013 1.20813 5.12143 0
M  V30 1721 O 163.039 1.90712 5.363 0
M  V30 1722 N 164.241 0.0618851 5.80467 0
M  V30 1723 H 167.006 2.00454 2.22796 0
M  V30 1724 H 164.567 1.18666 1.10136 0
M  V30 1725 H 166.559 0.237264 4.04004 0
M  V30 1726 H 165.129 -0.282016 3.11325 0
M  V30 1727 H 164.349 2.19861 3.27192 0
M  V30 1728 H 165.637 2.4378 4.46597 0
M  V30 1729 H 165.035 -0.521621 5.6329 0
M  V30 1730 H 163.592 -0.217264 6.51438 0
M  V30 1731 N 167.025 -1.13721 1.09112 0
M  V30 1732 C 168.273 -1.84559 0.823562 0
M  V30 1733 C 168.594 -1.83754 -0.652658 0
M  V30 1734 O 167.864 -1.29102 -1.47342 0
M  V30 1735 H 166.444 -0.683376 0.301673 0
M  V30 1736 H 169.106 -1.37771 1.37859 0
M  V30 1737 H 168.202 -2.8917 1.17419 0
M  V30 1738 N 168.503 -0.877838 -1.30888 0
M  V30 1739 C 169.466 -0.344265 -2.266 0
M  V30 1740 C 170.466 0.50922 -1.52524 0
M  V30 1741 O 171.656 0.317398 -1.71284 0
M  V30 1742 C 168.788 0.510198 -3.37061 0
M  V30 1743 H 169.981 -1.1893 -2.7531 0
M  V30 1744 H 167.534 -0.654088 -1.41956 0
M  V30 1745 H 168.269 1.37612 -2.93655 0
M  V30 1746 H 168.054 -0.101047 -3.9197 0
M  V30 1747 H 169.544 0.875537 -4.08319 0
M  V30 1748 N 169.982 1.44106 -0.638065 0
M  V30 1749 C 171.398 1.56672 -0.304286 0
M  V30 1750 C 171.598 1.6244 1.19228 0
M  V30 1751 O 170.654 1.57121 1.9766 0
M  V30 1752 C 171.967 2.83503 -1.00231 0
M  V30 1753 C 173.515 2.97226 -0.981116 0
M  V30 1754 C 173.99 4.26868 -1.65974 0
M  V30 1755 N 175.481 4.33698 -1.62666 0
M  V30 1756 C 176.216 5.32745 -2.12063 0
M  V30 1757 N 175.712 6.38157 -2.6968 0
M  V30 1758 N 177.505 5.24299 -2.02651 0
M  V30 1759 H 169.656 1.38605 -1.60942 0
M  V30 1760 H 171.919 0.664661 -0.675965 0
M  V30 1761 H 171.625 2.85251 -2.0573 0
M  V30 1762 H 171.499 3.73251 -0.54439 0
M  V30 1763 H 173.886 2.95027 0.0654188 0
M  V30 1764 H 173.967 2.08808 -1.47759 0
M  V30 1765 H 173.611 4.29826 -2.70576 0
M  V30 1766 H 173.541 5.14156 -1.13804 0
M  V30 1767 H 176.032 3.58138 -1.20606 0
M  V30 1768 H 176.345 7.10029 -3.05087 0
M  V30 1769 H 174.69 6.38823 -2.73734 0
M  V30 1770 H 177.881 4.4086 -1.57353 0
M  V30 1771 H 178.054 6.01334 -2.41457 0
M  V30 1772 N 171.46 0.379036 1.52974 0
M  V30 1773 C 172.708 -0.206014 2.01047 0
M  V30 1774 C 173.029 -1.48175 1.26765 0
M  V30 1775 O 172.299 -1.92085 0.384743 0
M  V30 1776 H 170.879 -0.0791184 0.742798 0
M  V30 1777 H 173.541 0.508366 1.88153 0
M  V30 1778 H 172.637 -0.423501 3.09213 0
M  V30 1779 N 172.938 -1.57226 0.108567 0
M  V30 1780 C 173.848 -2.18292 -0.859401 0
M  V30 1781 C 174.864 -1.15612 -1.30038 0
M  V30 1782 O 176.04 -1.48039 -1.36552 0
M  V30 1783 C 173.105 -2.762 -2.09558 0
M  V30 1784 C 172.166 -3.93881 -1.70752 0
M  V30 1785 C 171.399 -4.49018 -2.88477 0
M  V30 1786 O 171.622 -4.03068 -4.036 0
M  V30 1787 O 170.556 -5.39852 -2.66164 0
M  V30 1788 H 174.382 -3.01441 -0.369769 0
M  V30 1789 H 171.967 -1.48945 -0.1165 0
M  V30 1790 H 173.849 -3.13156 -2.81978 0
M  V30 1791 H 172.524 -1.96089 -2.57548 0
M  V30 1792 H 171.431 -3.61713 -0.954714 0
M  V30 1793 H 172.764 -4.75396 -1.27513 0
M  V30 1794 N 174.416 0.165178 -1.56732 0
M  V30 1795 C 175.664 0.879068 -1.8198 0
M  V30 1796 C 175.985 1.82514 -0.686561 0
M  V30 1797 O 175.255 1.93694 0.293146 0
M  V30 1798 H 173.835 0.327608 -0.671329 0
M  V30 1799 H 176.497 0.163526 -1.94213 0
M  V30 1800 H 175.593 1.45228 -2.76252 0
M  V30 1801 N 175.894 1.51508 0.433938 0
M  V30 1802 C 176.857 1.72473 1.50949 0
M  V30 1803 C 177.857 0.594725 1.49398 0
M  V30 1804 O 179.047 0.862315 1.5136 0
M  V30 1805 C 176.179 1.78431 2.90474 0
M  V30 1806 H 177.372 2.68467 1.33662 0
M  V30 1807 H 174.925 1.41549 0.662836 0
M  V30 1808 H 175.66 0.842645 3.13161 0
M  V30 1809 H 175.445 2.60558 2.93005 0
M  V30 1810 H 176.935 1.96479 3.68491 0
M  V30 1811 N 177.372 -0.689602 1.41712 0
M  V30 1812 C 178.6 -1.47827 1.44758 0
M  V30 1813 C 179.015 -1.88721 0.0545703 0
M  V30 1814 O 178.372 -1.57176 -0.927463 0
M  V30 1815 C 178.423 -2.73698 2.3616 0
M  V30 1816 O 178.144 -2.34524 3.7004 0
M  V30 1817 C 179.645 -3.67389 2.48072 0
M  V30 1818 H 176.865 -0.455357 0.49284 0
M  V30 1819 H 179.409 -0.848574 1.86063 0
M  V30 1820 H 177.564 -3.32891 1.98148 0
M  V30 1821 H 177.978 -3.15701 4.18847 0
M  V30 1822 H 179.452 -4.52475 3.16181 0
M  V30 1823 H 179.929 -4.12284 1.51388 0
M  V30 1824 H 180.535 -3.14097 2.86746 0
M  V30 1825 N 178.85 -1.27639 -0.924453 0
M  V30 1826 C 179.782 -1.06442 -2.02985 0
M  V30 1827 C 180.795 -0.0194771 -1.62788 0
M  V30 1828 O 181.984 -0.261388 -1.76576 0
M  V30 1829 C 179.084 -0.59327 -3.33667 0
M  V30 1830 C 178.257 -1.71123 -4.02537 0
M  V30 1831 C 177.316 -1.23527 -5.11495 0
M  V30 1832 O 176.342 -1.93553 -5.35281 0
M  V30 1833 N 177.544 -0.0926678 -5.80426 0
M  V30 1834 H 180.309 -2.01633 -2.2173 0
M  V30 1835 H 177.87 -1.19248 -1.09505 0
M  V30 1836 H 179.862 -0.258686 -4.03872 0
M  V30 1837 H 178.432 0.265502 -3.1147 0
M  V30 1838 H 177.652 -2.21593 -3.26022 0
M  V30 1839 H 178.94 -2.46145 -4.45298 0
M  V30 1840 H 178.338 0.491741 -5.63559 0
M  V30 1841 H 176.895 0.182714 -6.51544 0
M  V30 1842 N 180.328 1.1314 -1.09713 0
M  V30 1843 C 181.258 2.20748 -0.761102 0
M  V30 1844 C 182.239 1.68061 0.262566 0
M  V30 1845 O 183.424 1.93765 0.129977 0
M  V30 1846 C 180.554 3.46812 -0.184054 0
M  V30 1847 C 179.508 4.12606 -1.13757 0
M  V30 1848 C 178.834 5.33031 -0.422083 0
M  V30 1849 C 180.134 4.59603 -2.48118 0
M  V30 1850 H 181.828 2.49113 -1.66082 0
M  V30 1851 H 179.374 1.19734 -0.799987 0
M  V30 1852 H 181.327 4.21353 0.0631215 0
M  V30 1853 H 180.051 3.17851 0.750868 0
M  V30 1854 H 178.71 3.40036 -1.37007 0
M  V30 1855 H 178.358 5.00335 0.517072 0
M  V30 1856 H 178.058 5.77999 -1.05788 0
M  V30 1857 H 179.582 6.10325 -0.183277 0
M  V30 1858 H 180.996 5.25552 -2.29059 0
M  V30 1859 H 179.393 5.15321 -3.07514 0
M  V30 1860 H 180.463 3.73971 -3.08665 0
M  V30 1861 N 181.806 0.884767 1.30421 0
M  V30 1862 C 182.769 0.356277 2.26414 0
M  V30 1863 C 183.769 -0.501124 1.52792 0
M  V30 1864 O 184.959 -0.30831 1.7145 0
M  V30 1865 C 182.091 -0.492316 3.37326 0
M  V30 1866 H 183.284 1.20389 2.74675 0
M  V30 1867 H 180.837 0.661607 1.41607 0
M  V30 1868 H 181.572 -1.36052 2.94381 0
M  V30 1869 H 181.357 0.121832 3.91911 0
M  V30 1870 H 182.847 -0.853871 4.08777 0
M  V30 1871 N 183.284 -1.43765 0.645699 0
M  V30 1872 C 184.695 -1.85193 0.236719 0
M  V30 1873 C 185.046 -1.54045 -1.21509 0
M  V30 1874 O 184.171 -0.985694 -1.92647 0
M  V30 1875 C 184.766 -3.36151 0.422845 0
M  V30 1876 C 183.325 -3.76338 0.0682492 0
M  V30 1877 C 182.472 -2.67538 0.729306 0
M  V30 1878 H 185.423 -1.34025 0.849883 0
M  V30 1879 H 185.444 -3.79032 -0.333904 0
M  V30 1880 H 184.956 -3.5879 1.47958 0
M  V30 1881 H 183.057 -3.59312 -0.986179 0
M  V30 1882 H 183.17 -4.76603 0.488469 0
M  V30 1883 H 181.534 -2.54176 0.163235 0
M  V30 1884 H 182.317 -2.93006 1.78892 0
M  V30 1885 N 184.763 -0.387143 -1.52771 0
M  V30 1886 C 185.695 0.484089 -2.2403 0
M  V30 1887 C 186.708 1.02849 -1.26198 0
M  V30 1888 O 187.897 0.931186 -1.52286 0
M  V30 1889 C 184.997 1.68337 -2.94136 0
M  V30 1890 C 184.17 1.26672 -4.18656 0
M  V30 1891 C 183.229 2.33045 -4.7178 0
M  V30 1892 O 182.255 1.94541 -5.34923 0
M  V30 1893 N 183.457 3.64929 -4.5145 0
M  V30 1894 H 186.222 -0.126404 -2.99433 0
M  V30 1895 H 183.783 -0.213392 -1.60488 0
M  V30 1896 H 185.775 2.39019 -3.26577 0
M  V30 1897 H 184.345 2.20025 -2.22053 0
M  V30 1898 H 183.565 0.388878 -3.92277 0
M  V30 1899 H 184.853 0.964964 -4.99566 0
M  V30 1900 H 184.251 3.98974 -4.01044 0
M  V30 1901 H 182.808 4.31651 -4.88386 0
M  V30 1902 N 186.241 1.57166 -0.116904 0
M  V30 1903 C 187.657 1.5779 0.239693 0
M  V30 1904 C 187.857 1.1295 1.66867 0
M  V30 1905 O 186.913 0.81592 2.38954 0
M  V30 1906 C 188.226 3.00699 0.00828202 0
M  V30 1907 C 189.774 3.12912 0.0743438 0
M  V30 1908 C 190.249 4.57817 -0.129348 0
M  V30 1909 N 191.74 4.63139 -0.075247 0
M  V30 1910 C 192.475 5.73023 -0.207788 0
M  V30 1911 N 191.971 6.91665 -0.396382 0
M  V30 1912 N 193.764 5.61906 -0.14751 0
M  V30 1913 H 185.915 1.84615 -1.05029 0
M  V30 1914 H 188.178 0.85311 -0.41341 0
M  V30 1915 H 187.884 3.37784 -0.979531 0
M  V30 1916 H 187.758 3.69848 0.741077 0
M  V30 1917 H 190.145 2.75686 1.05268 0
M  V30 1918 H 190.226 2.4631 -0.690297 0
M  V30 1919 H 189.87 4.95742 -1.10465 0
M  V30 1920 H 189.8 5.22507 0.655253 0
M  V30 1921 H 192.291 3.7784 0.0670898 0
M  V30 1922 H 192.604 7.71255 -0.488437 0
M  V30 1923 H 190.949 6.93654 -0.432329 0
M  V30 1924 H 194.14 4.681 -0.00115036 0
M  V30 1925 H 194.313 6.47501 -0.254247 0
M  V30 1926 N 187.719 -0.156864 1.56817 0
M  V30 1927 C 188.965 -0.872416 1.83076 0
M  V30 1928 C 189.298 -1.81261 0.697001 0
M  V30 1929 O 188.573 -1.92171 -0.30008 0
M  V30 1930 C 188.856 -1.65551 3.19789 0
M  V30 1931 C 188.709 -0.737467 4.43713 0
M  V30 1932 C 190.028 -2.62012 3.53606 0
M  V30 1933 H 187.147 -0.315715 0.665953 0
M  V30 1934 H 189.789 -0.138004 1.89498 0
M  V30 1935 H 187.939 -2.28159 3.14445 0
M  V30 1936 H 189.611 -0.123143 4.61136 0
M  V30 1937 H 187.854 -0.0464067 4.33775 0
M  V30 1938 H 188.525 -1.32122 5.35955 0
M  V30 1939 H 191.001 -2.09525 3.59497 0
M  V30 1940 H 189.877 -3.13861 4.50314 0
M  V30 1941 H 190.138 -3.42902 2.79053 0
M  V30 1942 N 189.197 -1.51736 -0.425897 0
M  V30 1943 C 190.613 -1.40166 -0.76326 0
M  V30 1944 C 190.813 -0.492962 -1.95377 0
M  V30 1945 O 189.869 0.0475815 -2.52455 0
M  V30 1946 C 191.182 -2.82403 -1.03291 0
M  V30 1947 C 192.73 -2.91632 -1.13665 0
M  V30 1948 C 193.205 -4.34801 -1.43916 0
M  V30 1949 N 194.696 -4.3796 -1.50816 0
M  V30 1950 C 195.431 -5.4578 -1.75817 0
M  V30 1951 N 194.927 -6.63744 -1.98534 0
M  V30 1952 N 196.72 -5.33274 -1.77694 0
M  V30 1953 H 188.871 -2.09361 0.358 0
M  V30 1954 H 191.134 -0.942941 0.0978094 0
M  V30 1955 H 190.84 -3.50943 -0.230696 0
M  V30 1956 H 190.714 -3.22428 -1.95754 0
M  V30 1957 H 193.101 -2.23284 -1.92947 0
M  V30 1958 H 193.182 -2.55088 -0.190756 0
M  V30 1959 H 192.826 -5.03703 -0.65157 0
M  V30 1960 H 192.756 -4.68868 -2.39729 0
M  V30 1961 H 195.247 -3.52919 -1.35118 0
M  V30 1962 H 195.56 -7.41704 -2.17013 0
M  V30 1963 H 193.905 -6.66839 -1.95832 0
M  V30 1964 H 197.096 -4.40098 -1.59473 0
M  V30 1965 H 197.269 -6.1738 -1.9684 0
M  V30 1966 N 190.675 0.682077 -1.42076 0
M  V30 1967 C 191.921 1.44428 -1.42367 0
M  V30 1968 C 192.254 1.94164 -0.0373056 0
M  V30 1969 O 191.529 1.70429 0.937239 0
M  V30 1970 C 191.812 2.64654 -2.44194 0
M  V30 1971 C 191.665 2.20596 -3.91991 0
M  V30 1972 C 192.984 3.66865 -2.431 0
M  V30 1973 H 190.103 0.523834 -0.518428 0
M  V30 1974 H 192.745 0.77576 -1.73442 0
M  V30 1975 H 190.895 3.2169 -2.17826 0
M  V30 1976 H 192.567 1.68783 -4.29313 0
M  V30 1977 H 190.81 1.52242 -4.06208 0
M  V30 1978 H 191.481 3.06921 -4.58807 0
M  V30 1979 H 193.957 3.19531 -2.66532 0
M  V30 1980 H 192.833 4.48577 -3.16339 0
M  V30 1981 H 193.094 4.17493 -1.45437 0
M  V30 1982 N 192.153 1.28127 0.917671 0
M  V30 1983 C 193.381 1.17892 1.70026 0
M  V30 1984 C 193.796 -0.262958 1.8696 0
M  V30 1985 O 193.153 -1.17811 1.3938 0
M  V30 1986 C 193.204 1.86872 3.09453 0
M  V30 1987 O 192.925 3.25428 2.93306 0
M  V30 1988 C 194.426 1.8289 4.03815 0
M  V30 1989 H 191.646 0.40942 0.531617 0
M  V30 1990 H 194.19 1.69181 1.14883 0
M  V30 1991 H 192.345 1.39464 3.61426 0
M  V30 1992 H 192.759 3.59918 3.81523 0
M  V30 1993 H 194.233 2.35751 4.99125 0
M  V30 1994 H 194.71 0.800412 4.31845 0
M  V30 1995 H 195.316 2.29959 3.57769 0
M  V30 1996 N 193.631 -1.12557 1.10312 0
M  V30 1997 C 194.561 -2.20341 0.772798 0
M  V30 1998 C 195.542 -1.68198 -0.25365 0
M  V30 1999 O 196.727 -1.93831 -0.119699 0
M  V30 2000 C 193.857 -3.46709 0.202443 0
M  V30 2001 C 192.811 -4.11996 1.15943 0
M  V30 2002 C 192.137 -5.328 0.450345 0
M  V30 2003 C 193.437 -4.5828 2.50552 0
M  V30 2004 H 195.131 -2.48229 1.674 0
M  V30 2005 H 192.677 -1.19308 0.806326 0
M  V30 2006 H 194.63 -4.2138 -0.0407752 0
M  V30 2007 H 193.354 -3.18245 -0.734001 0
M  V30 2008 H 192.013 -3.39305 1.38808 0
M  V30 2009 H 191.661 -5.00602 -0.490531 0
M  V30 2010 H 191.361 -5.7743 1.08851 0
M  V30 2011 H 192.885 -6.10219 0.215642 0
M  V30 2012 H 194.299 -5.2433 2.31843 0
M  V30 2013 H 192.696 -5.13683 3.10242 0
M  V30 2014 H 193.766 -3.72329 3.10643 0
M  V30 2015 N 195.109 -0.891671 -1.2995 0
M  V30 2016 C 196.525 -0.58662 -1.48428 0
M  V30 2017 C 196.725 0.873951 -1.81561 0
M  V30 2018 O 195.781 1.65471 -1.90724 0
M  V30 2019 C 197.094 -1.50553 -2.60296 0
M  V30 2020 C 198.642 -1.50988 -2.74175 0
M  V30 2021 C 199.117 -2.41488 -3.89163 0
M  V30 2022 N 200.608 -2.39489 -3.96483 0
M  V30 2023 C 201.343 -3.06223 -4.84784 0
M  V30 2024 N 200.839 -3.82206 -5.77833 0
M  V30 2025 N 202.632 -2.95421 -4.78208 0
M  V30 2026 H 194.783 -1.83644 -1.06718 0
M  V30 2027 H 197.046 -0.786455 -0.529332 0
M  V30 2028 H 196.752 -2.54581 -2.42654 0
M  V30 2029 H 196.626 -1.22008 -3.56923 0
M  V30 2030 H 199.013 -0.47708 -2.91218 0
M  V30 2031 H 199.094 -1.83567 -1.78148 0
M  V30 2032 H 198.738 -3.44857 -3.72876 0
M  V30 2033 H 198.668 -2.06222 -4.84541 0
M  V30 2034 H 201.159 -1.84278 -3.29924 0
M  V30 2035 H 201.472 -4.302 -6.41988 0
M  V30 2036 H 199.817 -3.86313 -5.77743 0
M  V30 2037 H 203.008 -2.35581 -4.04499 0
M  V30 2038 H 203.181 -3.47704 -5.46814 0
M  V30 2039 N 196.587 1.43421 -0.653314 0
M  V30 2040 C 197.998 1.85065 -0.246537 0
M  V30 2041 C 198.349 1.54688 1.2069 0
M  V30 2042 O 197.474 0.995896 1.92122 0
M  V30 2043 C 198.069 3.35922 -0.440666 0
M  V30 2044 C 196.628 3.76297 -0.0882064 0
M  V30 2045 C 195.775 2.67147 -0.743484 0
M  V30 2046 H 198.726 1.33572 -0.856979 0
M  V30 2047 H 198.747 3.79204 0.313798 0
M  V30 2048 H 198.259 3.58 -1.49858 0
M  V30 2049 H 196.36 3.5983 0.96711 0
M  V30 2050 H 196.473 4.76338 -0.513738 0
M  V30 2051 H 194.837 2.54086 -0.176712 0
M  V30 2052 H 195.62 2.92053 -1.80443 0
M  V30 2053 N 198.065 0.39524 1.52563 0
M  V30 2054 C 199.313 -0.184678 2.01254 0
M  V30 2055 C 199.634 -1.46822 1.28329 0
M  V30 2056 O 198.904 -1.91666 0.405094 0
M  V30 2057 H 197.484 -0.0712355 0.743596 0
M  V30 2058 H 200.146 0.528293 1.87603 0
M  V30 2059 H 199.242 -0.390681 3.09645 0
M  V30 2060 N 199.544 -1.57102 0.125237 0
M  V30 2061 C 200.454 -2.19191 -0.8362 0
M  V30 2062 C 201.47 -1.16985 -1.28805 0
M  V30 2063 O 202.646 -1.49479 -1.34974 0
M  V30 2064 C 199.711 -2.78407 -2.06617 0
M  V30 2065 C 198.772 -3.9567 -1.66565 0
M  V30 2066 C 198.005 -4.52052 -2.83698 0
M  V30 2067 O 198.228 -4.07326 -3.99302 0
M  V30 2068 O 197.162 -5.42645 -2.60423 0
M  V30 2069 H 200.988 -3.01816 -0.337776 0
M  V30 2070 H 198.573 -1.4906 -0.100695 0
M  V30 2071 H 200.455 -3.16129 -2.7864 0
M  V30 2072 H 199.13 -1.9881 -2.55453 0
M  V30 2073 H 198.037 -3.62705 -0.916296 0
M  V30 2074 H 199.37 -4.76722 -1.22464 0
M  V30 2075 N 201.022 0.148545 -1.56898 0
M  V30 2076 C 202.433 0.708766 -1.72723 0
M  V30 2077 C 202.784 1.81734 -0.739395 0
M  V30 2078 O 201.909 2.16194 0.0943169 0
M  V30 2079 C 202.504 1.29245 -3.13179 0
M  V30 2080 C 201.063 1.79925 -3.30611 0
M  V30 2081 C 200.21 0.687111 -2.68652 0
M  V30 2082 H 203.161 -0.0771063 -1.58513 0
M  V30 2083 H 203.182 2.16224 -3.13093 0
M  V30 2084 H 202.694 0.485382 -3.85053 0
M  V30 2085 H 200.795 2.63203 -2.63732 0
M  V30 2086 H 200.908 1.92903 -4.38549 0
M  V30 2087 H 199.272 1.11335 -2.29078 0
M  V30 2088 H 200.055 -0.108483 -3.43129 0
M  V30 2089 N 202.5 1.5196 0.417844 0
M  V30 2090 C 203.432 1.70895 1.52733 0
M  V30 2091 C 204.445 0.589405 1.51756 0
M  V30 2092 O 205.634 0.864312 1.56179 0
M  V30 2093 C 202.734 1.72627 2.91639 0
M  V30 2094 C 201.907 3.01479 3.16905 0
M  V30 2095 C 200.966 2.95139 4.35637 0
M  V30 2096 O 199.992 3.69059 4.3334 0
M  V30 2097 N 201.194 2.12328 5.40275 0
M  V30 2098 H 203.959 2.66612 1.36888 0
M  V30 2099 H 201.52 1.50089 0.607037 0
M  V30 2100 H 203.512 1.65928 3.6912 0
M  V30 2101 H 202.082 0.844216 3.00985 0
M  V30 2102 H 201.302 3.21895 2.27546 0
M  V30 2103 H 202.59 3.86736 3.30625 0
M  V30 2104 H 201.988 1.51685 5.44985 0
M  V30 2105 H 200.545 2.11494 6.16534 0
M  V30 2106 N 203.978 -0.674533 1.42435 0
M  V30 2107 C 204.91 -1.80005 1.41883 0
M  V30 2108 C 205.923 -1.59667 0.31787 0
M  V30 2109 O 207.112 -1.68781 0.580973 0
M  V30 2110 C 204.212 -3.17114 1.19549 0
M  V30 2111 C 203.385 -3.64299 2.42084 0
M  V30 2112 C 202.444 -4.80142 2.15291 0
M  V30 2113 O 201.47 -4.90673 2.88493 0
M  V30 2114 N 202.672 -5.68869 1.1562 0
M  V30 2115 H 205.437 -1.80964 2.38898 0
M  V30 2116 H 202.998 -0.857633 1.37318 0
M  V30 2117 H 204.99 -3.92267 0.995417 0
M  V30 2118 H 203.56 -3.11053 0.310569 0
M  V30 2119 H 202.78 -2.79822 2.77657 0
M  V30 2120 H 204.068 -3.92567 3.23679 0
M  V30 2121 H 203.466 -5.63012 0.550765 0
M  V30 2122 H 202.023 -6.43833 1.016 0
M  V30 2123 N 205.456 -1.28612 -0.910864 0
M  V30 2124 C 206.386 -1.15326 -2.03032 0
M  V30 2125 C 207.367 -0.0502924 -1.70026 0
M  V30 2126 O 208.552 -0.227797 -1.92859 0
M  V30 2127 C 205.682 -0.817343 -3.37545 0
M  V30 2128 C 204.636 -1.8754 -3.84724 0
M  V30 2129 C 203.962 -1.39305 -5.16235 0
M  V30 2130 C 205.262 -3.28244 -4.06267 0
M  V30 2131 H 206.956 -2.08975 -2.14406 0
M  V30 2132 H 204.502 -1.00612 -1.03021 0
M  V30 2133 H 206.455 -0.711151 -4.15356 0
M  V30 2134 H 205.179 0.154846 -3.26233 0
M  V30 2135 H 203.838 -1.97079 -3.09121 0
M  V30 2136 H 203.486 -0.409846 -5.01328 0
M  V30 2137 H 203.186 -2.10057 -5.48771 0
M  V30 2138 H 204.71 -1.30014 -5.96598 0
M  V30 2139 H 206.124 -3.21611 -4.74594 0
M  V30 2140 H 204.521 -3.96855 -4.5014 0
M  V30 2141 H 205.591 -3.72048 -3.10979 0
M  V30 2142 N 206.934 1.1197 -1.10907 0
M  V30 2143 C 207.866 2.17592 -0.720175 0
M  V30 2144 C 208.879 1.60938 0.245495 0
M  V30 2145 O 210.068 1.78476 0.0292245 0
M  V30 2146 C 207.168 3.38873 -0.0427917 0
M  V30 2147 C 206.341 4.25006 -1.03388 0
M  V30 2148 C 205.4 5.24774 -0.387075 0
M  V30 2149 O 204.426 5.59631 -1.03934 0
M  V30 2150 N 205.628 5.74208 0.852407 0
M  V30 2151 H 208.393 2.51567 -1.62893 0
M  V30 2152 H 205.954 1.27439 -0.998543 0
M  V30 2153 H 207.946 4.02703 0.401501 0
M  V30 2154 H 206.516 3.03007 0.768456 0
M  V30 2155 H 205.736 3.57716 -1.65629 0
M  V30 2156 H 207.024 4.79397 -1.70458 0
M  V30 2157 H 206.422 5.48062 1.40161 0
M  V30 2158 H 204.979 6.39901 1.23977 0
M  V30 2159 N 208.412 0.89855 1.29475 0
M  V30 2160 C 209.658 0.524658 1.95896 0
M  V30 2161 C 209.991 -0.926468 1.70676 0
M  V30 2162 O 209.266 -1.65665 1.01908 0
M  V30 2163 C 209.549 0.81633 3.50725 0
M  V30 2164 C 209.402 2.31907 3.85408 0
M  V30 2165 C 210.721 0.302038 4.39062 0
M  V30 2166 H 207.84 0.19209 0.711527 0
M  V30 2167 H 210.482 1.12502 1.53112 0
M  V30 2168 H 208.632 0.305369 3.87298 0
M  V30 2169 H 210.304 2.89949 3.58786 0
M  V30 2170 H 208.547 2.78027 3.32992 0
M  V30 2171 H 209.218 2.47373 4.93468 0
M  V30 2172 H 211.694 0.739551 4.09475 0
M  V30 2173 H 210.57 0.535331 5.46283 0
M  V30 2174 H 210.831 -0.797216 4.34853 0
M  V30 2175 N 209.89 -1.43072 0.660911 0
M  V30 2176 C 211.306 -1.56169 0.329173 0
M  V30 2177 C 211.506 -1.64317 -1.16629 0
M  V30 2178 O 210.562 -1.60245 -1.95135 0
M  V30 2179 C 211.875 -2.81873 1.04729 0
M  V30 2180 C 213.423 -2.95627 1.02828 0
M  V30 2181 C 213.898 -4.24174 1.72744 0
M  V30 2182 N 215.389 -4.31055 1.69545 0
M  V30 2183 C 216.124 -5.29304 2.20511 0
M  V30 2184 N 215.62 -6.33786 2.79799 0
M  V30 2185 N 217.413 -5.21008 2.10966 0
M  V30 2186 H 209.564 -1.36027 1.63127 0
M  V30 2187 H 211.827 -0.653823 0.686454 0
M  V30 2188 H 211.533 -2.81942 2.10242 0
M  V30 2189 H 211.407 -3.72338 0.603702 0
M  V30 2190 H 213.794 -2.95094 -0.0184742 0
M  V30 2191 H 213.875 -2.06431 1.51063 0
M  V30 2192 H 213.519 -4.25467 2.7738 0
M  V30 2193 H 213.449 -5.1228 1.2197 0
M  V30 2194 H 215.94 -3.56174 1.26288 0
M  V30 2195 H 216.253 -7.05086 3.16344 0
M  V30 2196 H 214.598 -6.34387 2.83863 0
M  V30 2197 H 217.789 -4.38301 1.64347 0
M  V30 2198 H 217.962 -5.97416 2.50993 0
M  V30 2199 N 211.368 -0.403325 -1.52352 0
M  V30 2200 C 212.615 0.174347 -2.01748 0
M  V30 2201 C 212.943 1.45636 -1.2892 0
M  V30 2202 O 212.198 1.9193 -0.382258 0
M  V30 2203 C 212.497 0.474665 -3.54234 0
M  V30 2204 C 212.163 -0.717458 -4.45155 0
M  V30 2205 C 210.825 -1.04447 -4.69728 0
M  V30 2206 C 213.177 -1.51432 -4.98716 0
M  V30 2207 C 210.505 -2.16963 -5.45109 0
M  V30 2208 C 212.857 -2.6302 -5.75329 0
M  V30 2209 C 211.521 -2.96213 -5.98175 0
M  V30 2210 H 210.791 0.0637981 -0.738248 0
M  V30 2211 H 213.438 -0.543553 -1.83624 0
M  V30 2212 H 211.743 1.27406 -3.70506 0
M  V30 2213 H 213.44 0.934496 -3.89959 0
M  V30 2214 H 210.03 -0.452596 -4.26204 0
M  V30 2215 H 214.214 -1.27491 -4.79645 0
M  V30 2216 H 209.47 -2.43034 -5.61021 0
M  V30 2217 H 213.644 -3.25158 -6.15829 0
M  V30 2218 H 211.271 -3.83516 -6.56368 0
M  V30 2219 N 212.846 1.57033 -0.133567 0
M  V30 2220 C 213.776 2.1909 0.807567 0
M  V30 2221 C 214.757 1.13517 1.26681 0
M  V30 2222 O 215.942 1.41809 1.32679 0
M  V30 2223 C 213.072 2.80188 2.05212 0
M  V30 2224 C 212.026 3.91471 1.73015 0
M  V30 2225 C 211.352 4.39443 3.04622 0
M  V30 2226 C 212.652 5.12886 0.987168 0
M  V30 2227 H 214.346 2.97988 0.290403 0
M  V30 2228 H 211.892 1.43335 0.138239 0
M  V30 2229 H 213.845 3.22264 2.71521 0
M  V30 2230 H 212.569 1.98601 2.59278 0
M  V30 2231 H 211.228 3.49993 1.0909 0
M  V30 2232 H 210.876 3.54695 3.56651 0
M  V30 2233 H 210.576 5.14495 2.83847 0
M  V30 2234 H 212.1 4.8418 3.72024 0
M  V30 2235 H 213.514 5.51891 1.55208 0
M  V30 2236 H 211.911 5.93615 0.87985 0
M  V30 2237 H 212.981 4.84894 -0.0235286 0
M  V30 2238 N 214.325 -0.140222 1.56975 0
M  V30 2239 C 215.741 -0.493088 1.51792 0
M  V30 2240 C 215.941 -1.83013 0.843116 0
M  V30 2241 O 214.997 -2.49041 0.416493 0
M  V30 2242 C 216.31 -0.497144 2.96562 0
M  V30 2243 C 217.858 -0.582186 3.07538 0
M  V30 2244 C 218.333 -0.616838 4.53827 0
M  V30 2245 N 219.824 -0.678873 4.58198 0
M  V30 2246 C 220.559 -0.726782 5.68775 0
M  V30 2247 N 220.055 -0.733623 6.88905 0
M  V30 2248 N 221.848 -0.768179 5.56826 0
M  V30 2249 H 213.999 0.736108 1.99237 0
M  V30 2250 H 216.262 0.269182 0.90898 0
M  V30 2251 H 215.968 0.417217 3.49217 0
M  V30 2252 H 215.842 -1.33263 3.52875 0
M  V30 2253 H 218.229 -1.48697 2.54899 0
M  V30 2254 H 218.31 0.280581 2.54257 0
M  V30 2255 H 217.954 0.283812 5.07106 0
M  V30 2256 H 217.884 -1.49619 5.04898 0
M  V30 2257 H 220.375 -0.68061 3.7172 0
M  V30 2258 H 220.688 -0.772215 7.68932 0
M  V30 2259 H 219.033 -0.701389 6.91452 0
M  V30 2260 H 222.224 -0.760051 4.61888 0
M  V30 2261 H 222.397 -0.80205 6.43017 0
M  V30 2262 N 215.803 -1.52179 -0.40978 0
M  V30 2263 C 216.766 -1.74853 -1.48186 0
M  V30 2264 C 217.766 -0.618417 -1.48433 0
M  V30 2265 O 218.956 -0.886286 -1.49969 0
M  V30 2266 C 216.088 -1.8303 -2.87598 0
M  V30 2267 H 217.281 -2.70559 -1.29374 0
M  V30 2268 H 214.834 -1.42586 -0.640233 0
M  V30 2269 H 215.569 -0.89236 -3.11781 0
M  V30 2270 H 215.354 -2.65187 -2.88822 0
M  V30 2271 H 216.844 -2.02316 -3.65319 0
M  V30 2272 N 217.281 0.66697 -1.42791 0
M  V30 2273 C 218.191 1.80962 -1.49299 0
M  V30 2274 C 219.207 1.69775 -0.381108 0
M  V30 2275 O 220.383 1.91188 -0.633188 0
M  V30 2276 C 217.448 3.17156 -1.40045 0
M  V30 2277 C 216.509 3.40242 -2.6179 0
M  V30 2278 C 215.742 4.69939 -2.52969 0
M  V30 2279 O 215.965 5.48372 -1.56985 0
M  V30 2280 O 214.899 4.94441 -3.43237 0
M  V30 2281 H 218.725 1.78427 -2.45759 0
M  V30 2282 H 216.31 0.823713 -1.24641 0
M  V30 2283 H 218.192 3.98413 -1.37276 0
M  V30 2284 H 216.867 3.20312 -0.467138 0
M  V30 2285 H 215.774 2.58802 -2.70134 0
M  V30 2286 H 217.107 3.41923 -3.54047 0
M  V30 2287 N 218.759 1.29093 0.90403 0
M  V30 2288 C 220.007 1.16583 1.65085 0
M  V30 2289 C 220.328 -0.283933 1.92922 0
M  V30 2290 O 219.598 -1.19509 1.55224 0
M  V30 2291 H 218.178 0.428467 0.611903 0
M  V30 2292 H 220.84 1.61959 1.08422 0
M  V30 2293 H 219.936 1.71266 2.6091 0
M  V30 2294 N 220.237 -1.11381 1.11499 0
M  V30 2295 C 221.467 -1.86663 0.885464 0
M  V30 2296 C 221.875 -1.80464 -0.568281 0
M  V30 2297 O 221.218 -1.18445 -1.40415 0
M  V30 2298 C 221.28 -3.36337 1.26956 0
M  V30 2299 C 220.944 -3.66304 2.73259 0
M  V30 2300 C 221.941 -3.63733 3.71476 0
M  V30 2301 C 219.626 -3.9529 3.09921 0
M  V30 2302 C 221.62 -3.89725 5.04374 0
M  V30 2303 C 219.307 -4.20941 4.43004 0
M  V30 2304 C 220.305 -4.18147 5.40039 0
M  V30 2305 O 219.993 -4.43153 6.70724 0
M  V30 2306 H 219.725 -0.597114 0.316908 0
M  V30 2307 H 222.279 -1.41782 1.48617 0
M  V30 2308 H 220.509 -3.81826 0.611999 0
M  V30 2309 H 222.198 -3.92986 1.01573 0
M  V30 2310 H 222.964 -3.41389 3.44498 0
M  V30 2311 H 218.843 -3.966 2.35009 0
M  V30 2312 H 222.387 -3.8746 5.80104 0
M  V30 2313 H 218.284 -4.42761 4.69716 0
M  V30 2314 H 219.052 -4.60717 6.76522 0
M  V30 2315 N 221.715 -0.905404 -1.28997 0
M  V30 2316 C 223.126 -0.581953 -1.77398 0
M  V30 2317 C 223.477 0.902552 -1.74208 0
M  V30 2318 O 222.602 1.70584 -1.33154 0
M  V30 2319 C 223.197 -1.04961 -3.22131 0
M  V30 2320 C 221.756 -0.777229 -3.68288 0
M  V30 2321 C 220.903 -1.22109 -2.48967 0
M  V30 2322 H 223.854 -1.08754 -1.15578 0
M  V30 2323 H 223.875 -0.387387 -3.78523 0
M  V30 2324 H 223.387 -2.13008 -3.24421 0
M  V30 2325 H 221.488 0.290383 -3.71467 0
M  V30 2326 H 221.601 -1.37911 -4.58822 0
M  V30 2327 H 219.965 -0.639971 -2.46529 0
M  V30 2328 H 220.748 -2.30972 -2.53982 0
M  V30 2329 N 223.193 1.4272 -0.668489 0
M  V30 2330 C 224.439 2.01923 -0.188419 0
M  V30 2331 C 224.772 1.52704 1.19979 0
M  V30 2332 O 224.047 0.726566 1.8042 0
M  V30 2333 C 224.33 3.59451 -0.216085 0
M  V30 2334 C 224.183 4.18864 -1.6393 0
M  V30 2335 C 225.502 4.37903 0.439179 0
M  V30 2336 H 222.621 0.733674 -0.0699412 0
M  V30 2337 H 225.263 1.69822 -0.852076 0
M  V30 2338 H 223.413 3.86929 0.349012 0
M  V30 2339 H 225.085 4.02362 -2.25616 0
M  V30 2340 H 223.328 3.74933 -2.18193 0
M  V30 2341 H 223.999 5.27987 -1.61039 0
M  V30 2342 H 226.475 4.16079 -0.0417878 0
M  V30 2343 H 225.351 5.47519 0.389157 0
M  V30 2344 H 225.612 4.15303 1.51577 0
M  V30 2345 N 224.671 0.411399 1.52136 0
M  V30 2346 C 225.948 -0.222308 1.94333 0
M  V30 2347 C 226.328 -1.6242 1.34844 0
M  V30 2348 O 225.676 -2.22384 0.525145 0
M  V30 2349 C 225.886 -0.226345 3.48265 0
M  V30 2350 C 227.234 -0.444592 4.22266 0
M  V30 2351 O 228.258 -0.305602 3.54887 0
M  V30 2352 O 227.117 -0.718749 5.41753 0
M  V30 2353 H 224.211 -0.143907 0.814383 0
M  V30 2354 H 226.757 0.467506 1.63133 0
M  V30 2355 H 225.529 0.75475 3.83952 0
M  V30 2356 H 225.152 -0.960163 3.85832 0
M  V30 2357 N 226.149 -1.5696 0.141893 0
M  V30 2358 C 227.079 -2.19516 -0.795936 0
M  V30 2359 C 228.06 -1.14187 -1.26077 0
M  V30 2360 O 229.245 -1.42511 -1.31925 0
M  V30 2361 C 226.375 -2.81272 -2.03723 0
M  V30 2362 C 225.329 -3.92384 -1.70936 0
M  V30 2363 C 224.655 -4.41052 -3.02287 0
M  V30 2364 C 225.955 -5.13403 -0.959954 0
M  V30 2365 H 227.649 -2.98138 -0.274596 0
M  V30 2366 H 225.195 -1.43406 -0.130636 0
M  V30 2367 H 227.148 -3.237 -2.69808 0
M  V30 2368 H 225.872 -1.99973 -2.58221 0
M  V30 2369 H 224.531 -3.50566 -1.07232 0
M  V30 2370 H 224.179 -3.56582 -3.54765 0
M  V30 2371 H 223.879 -5.15993 -2.81114 0
M  V30 2372 H 225.403 -4.86146 -3.69451 0
M  V30 2373 H 226.817 -5.52706 -1.52279 0
M  V30 2374 H 225.214 -5.94073 -0.848357 0
M  V30 2375 H 226.284 -4.84875 0.0492434 0
M  V30 2376 N 227.627 0.131896 -1.57047 0
M  V30 2377 C 228.857 0.855219 -1.88068 0
M  V30 2378 C 229.265 1.74557 -0.729817 0
M  V30 2379 O 228.608 1.81083 0.308962 0
M  V30 2380 C 228.67 1.75119 -3.13964 0
M  V30 2381 C 228.334 1.03646 -4.45091 0
M  V30 2382 C 229.331 0.383276 -5.18485 0
M  V30 2383 C 227.016 1.02148 -4.91804 0
M  V30 2384 C 229.01 -0.275347 -6.36805 0
M  V30 2385 C 226.697 0.359047 -6.10044 0
M  V30 2386 C 227.695 -0.288222 -6.82392 0
M  V30 2387 O 227.383 -0.94011 -7.98384 0
M  V30 2388 H 227.115 0.251864 -0.627328 0
M  V30 2389 H 229.669 0.124782 -2.05021 0
M  V30 2390 H 227.899 2.52295 -2.9306 0
M  V30 2391 H 229.588 2.3478 -3.31109 0
M  V30 2392 H 230.354 0.386562 -4.83457 0
M  V30 2393 H 226.233 1.5147 -4.35405 0
M  V30 2394 H 229.777 -0.781148 -6.93213 0
M  V30 2395 H 225.674 0.35348 -6.44531 0
M  V30 2396 H 226.442 -0.84329 -8.14144 0
M  V30 2397 N 229.106 1.52395 0.401703 0
M  V30 2398 C 230.336 1.70429 1.1678 0
M  V30 2399 C 230.744 0.416702 1.84554 0
M  V30 2400 O 230.087 -0.617697 1.73003 0
M  V30 2401 C 230.149 2.78919 2.26814 0
M  V30 2402 C 229.813 4.20437 1.79113 0
M  V30 2403 C 230.81 5.04028 1.27482 0
M  V30 2404 C 228.495 4.66704 1.85722 0
M  V30 2405 C 230.489 6.31961 0.830913 0
M  V30 2406 C 228.176 5.94625 1.40942 0
M  V30 2407 C 229.174 6.77082 0.897128 0
M  V30 2408 O 228.862 8.02607 0.455822 0
M  V30 2409 H 228.594 0.574272 0.356634 0
M  V30 2410 H 231.148 1.99767 0.477724 0
M  V30 2411 H 229.378 2.44973 2.99207 0
M  V30 2412 H 231.067 2.8548 2.88541 0
M  V30 2413 H 231.833 4.69471 1.21744 0
M  V30 2414 H 227.712 4.0262 2.24539 0
M  V30 2415 H 231.256 6.96271 0.430368 0
M  V30 2416 H 227.153 6.28688 1.46362 0
M  V30 2417 H 227.921 8.16453 0.578457 0
M  V30 2418 N 230.584 -0.659388 1.43143 0
M  V30 2419 C 231.514 -1.78422 1.50625 0
M  V30 2420 C 232.495 -1.66216 0.361443 0
M  V30 2421 O 233.68 -1.85404 0.577834 0
M  V30 2422 C 230.81 -3.16815 1.42287 0
M  V30 2423 C 229.764 -3.43777 2.54954 0
M  V30 2424 C 229.09 -4.81905 2.31671 0
M  V30 2425 C 230.39 -3.39134 3.97222 0
M  V30 2426 H 232.084 -1.72417 2.44771 0
M  V30 2427 H 229.63 -0.828084 1.17808 0
M  V30 2428 H 231.583 -3.95253 1.46127 0
M  V30 2429 H 230.307 -3.23534 0.446435 0
M  V30 2430 H 228.966 -2.67707 2.50457 0
M  V30 2431 H 228.614 -4.85294 1.32284 0
M  V30 2432 H 228.314 -5.00906 3.07192 0
M  V30 2433 H 229.838 -5.62609 2.37284 0
M  V30 2434 H 231.252 -4.07518 4.03239 0
M  V30 2435 H 229.649 -3.69671 4.72719 0
M  V30 2436 H 230.719 -2.37426 4.22797 0
M  V30 2437 N 232.062 -1.29571 -0.897171 0
M  V30 2438 C 232.995 -1.0924 -2.00354 0
M  V30 2439 C 233.973 -0.00354011 -1.626 0
M  V30 2440 O 235.157 -0.15473 -1.87864 0
M  V30 2441 C 232.284 -0.66352 -3.32137 0
M  V30 2442 C 231.33 -1.75146 -3.88878 0
M  V30 2443 S 232.163 -3.35124 -4.17674 0
M  V30 2444 C 233.319 -2.9411 -5.52494 0
M  V30 2445 H 233.552 -2.02907 -2.17292 0
M  V30 2446 H 231.085 -1.13746 -1.04408 0
M  V30 2447 H 233.043 -0.422791 -4.08317 0
M  V30 2448 H 231.704 0.253588 -3.13075 0
M  V30 2449 H 230.897 -1.40337 -4.84068 0
M  V30 2450 H 230.499 -1.94584 -3.19395 0
M  V30 2451 H 232.791 -2.41312 -6.33068 0
M  V30 2452 H 233.734 -3.88161 -5.9223 0
M  V30 2453 H 234.142 -2.32332 -5.14473 0
M  V30 2454 N 233.54 1.10788 -1.12088 0
M  V30 2455 C 234.817 1.79136 -0.785476 0
M  V30 2456 C 235.197 1.98246 0.725377 0
M  V30 2457 O 234.545 1.57258 1.65778 0
M  V30 2458 C 234.755 3.12375 -1.55636 0
M  V30 2459 C 236.103 3.8731 -1.74001 0
M  V30 2460 O 237.127 3.22085 -1.52117 0
M  V30 2461 O 235.986 5.04369 -2.10415 0
M  V30 2462 H 233.08 0.776226 -0.285311 0
M  V30 2463 H 235.626 1.1747 -1.2247 0
M  V30 2464 H 234.398 2.93863 -2.5838 0
M  V30 2465 H 234.021 3.81758 -1.11114 0
M  V30 2466 N 235.018 0.912232 1.28515 0
M  V30 2467 C 235.948 0.416403 2.29757 0
M  V30 2468 C 236.929 -0.515194 1.6211 0
M  V30 2469 O 238.114 -0.423253 1.89532 0
M  V30 2470 C 235.244 -0.34572 3.45575 0
M  V30 2471 C 234.198 0.496599 4.25109 0
M  V30 2472 C 233.524 -0.393771 5.33248 0
M  V30 2473 C 234.824 1.75307 4.92001 0
M  V30 2474 H 236.518 1.26249 2.7148 0
M  V30 2475 H 234.064 0.608515 1.30511 0
M  V30 2476 H 236.017 -0.703422 4.15488 0
M  V30 2477 H 234.741 -1.2257 3.02728 0
M  V30 2478 H 233.4 0.8368 3.56922 0
M  V30 2479 H 233.048 -1.27225 4.86644 0
M  V30 2480 H 232.748 0.166209 5.87365 0
M  V30 2481 H 234.272 -0.747389 6.06009 0
M  V30 2482 H 235.686 1.46437 5.54283 0
M  V30 2483 H 234.083 2.25534 5.56106 0
M  V30 2484 H 235.153 2.48176 4.16577 0
M  V30 2485 N 236.496 -1.42363 0.676048 0
M  V30 2486 C 237.721 -2.06377 0.205705 0
M  V30 2487 C 238.146 -1.50463 -1.12883 0
M  V30 2488 O 237.504 -0.623619 -1.70237 0
M  V30 2489 C 237.552 -3.60277 0.152655 0
M  V30 2490 O 236.656 -4.02935 -0.87845 0
M  V30 2491 H 235.997 -0.655588 0.105359 0
M  V30 2492 H 238.527 -1.82475 0.925412 0
M  V30 2493 H 238.537 -4.07993 -0.0230675 0
M  V30 2494 H 237.212 -4.00346 1.12675 0
M  V30 2495 H 235.789 -3.66764 -0.673668 0
M  V30 2496 N 237.974 -0.419461 -1.51915 0
M  V30 2497 C 239.204 0.151915 -2.06041 0
M  V30 2498 C 239.612 1.38539 -1.28855 0
M  V30 2499 O 238.955 1.80592 -0.336463 0
M  V30 2500 C 239.017 0.557119 -3.55157 0
M  V30 2501 C 238.681 -0.567054 -4.53468 0
M  V30 2502 C 239.678 -1.43379 -4.99738 0
M  V30 2503 C 237.363 -0.742693 -4.96779 0
M  V30 2504 C 239.357 -2.46102 -5.87973 0
M  V30 2505 C 237.044 -1.77322 -5.84808 0
M  V30 2506 C 238.042 -2.63078 -6.30301 0
M  V30 2507 O 237.73 -3.64364 -7.16585 0
M  V30 2508 H 237.462 0.0193293 -0.675724 0
M  V30 2509 H 240.016 -0.592073 -1.96682 0
M  V30 2510 H 238.246 1.35355 -3.62238 0
M  V30 2511 H 239.935 1.05759 -3.9188 0
M  V30 2512 H 240.701 -1.30954 -4.66986 0
M  V30 2513 H 236.58 -0.0848307 -4.60922 0
M  V30 2514 H 240.124 -3.13071 -6.23404 0
M  V30 2515 H 236.021 -1.89773 -6.16974 0
M  V30 2516 H 236.789 -3.60731 -7.34721 0
M  V30 2517 N 239.452 1.56882 -0.150215 0
M  V30 2518 C 240.677 2.01027 0.510184 0
M  V30 2519 C 241.102 1.02966 1.57415 0
M  V30 2520 O 240.46 0.00590158 1.81299 0
M  V30 2521 C 240.508 3.43899 1.08472 0
M  V30 2522 O 239.612 3.4885 2.19948 0
M  V30 2523 H 238.953 0.652233 0.124451 0
M  V30 2524 H 241.483 2.03093 -0.247894 0
M  V30 2525 H 241.493 3.82766 1.41259 0
M  V30 2526 H 240.168 4.14776 0.305582 0
M  V30 2527 H 238.745 3.21827 1.88366 0
M  V30 2528 N 240.93 -0.123565 1.57115 0
M  V30 2529 C 241.863 -1.18202 1.95201 0
M  V30 2530 C 242.841 -1.40349 0.821031 0
M  V30 2531 O 244.025 -1.54578 1.07879 0
M  V30 2532 C 241.152 -2.53671 2.24429 0
M  V30 2533 C 240.198 -2.4798 3.46999 0
M  V30 2534 S 241.031 -1.92389 4.99747 0
M  V30 2535 C 242.187 -3.2954 5.32123 0
M  V30 2536 H 242.42 -0.857212 2.84674 0
M  V30 2537 H 239.953 -0.33014 1.50829 0
M  V30 2538 H 241.911 -3.3162 2.41947 0
M  V30 2539 H 240.572 -2.83332 1.35579 0
M  V30 2540 H 239.765 -3.47758 3.64801 0
M  V30 2541 H 239.367 -1.7815 3.28844 0
M  V30 2542 H 241.659 -4.25736 5.27025 0
M  V30 2543 H 242.602 -3.16569 6.33395 0
M  V30 2544 H 243.01 -3.27758 4.59603 0
M  V30 2545 N 242.408 -1.52605 -0.393616 0
M  V30 2546 C 243.355 -1.77055 -1.48054 0
M  V30 2547 C 244.325 -0.61358 -1.54352 0
M  V30 2548 O 245.51 -0.852806 -1.70681 0
M  V30 2549 C 242.65 -1.94108 -2.85335 0
M  V30 2550 C 241.763 -3.21792 -2.88226 0
M  V30 2551 C 240.898 -3.29188 -4.16904 0
M  V30 2552 C 239.937 -4.51013 -4.13828 0
M  V30 2553 N 239.074 -4.55716 -5.34105 0
M  V30 2554 H 243.914 -2.69815 -1.26506 0
M  V30 2555 H 241.451 -1.33683 -0.61379 0
M  V30 2556 H 243.409 -2.01979 -3.65049 0
M  V30 2557 H 242.039 -1.04713 -3.05344 0
M  V30 2558 H 241.091 -3.23015 -2.00911 0
M  V30 2559 H 242.403 -4.11557 -2.8182 0
M  V30 2560 H 241.557 -3.36216 -5.05018 0
M  V30 2561 H 240.296 -2.37389 -4.26026 0
M  V30 2562 H 239.301 -4.44115 -3.24102 0
M  V30 2563 H 240.526 -5.44123 -4.06333 0
M  V30 2564 H 238.472 -3.66807 -5.43865 0
M  V30 2565 H 238.389 -5.39346 -5.29756 0
M  V30 2566 H 239.657 -4.66993 -6.2413 0
M  V30 2567 N 243.887 0.651787 -1.4349 0
M  V30 2568 C 245.164 1.40909 -1.35661 0
M  V30 2569 C 245.544 2.11099 -0.00511733 0
M  V30 2570 O 244.892 2.04892 1.0115 0
M  V30 2571 C 245.102 2.3926 -2.54078 0
M  V30 2572 C 246.45 3.03217 -2.97228 0
M  V30 2573 O 247.474 2.49588 -2.54135 0
M  V30 2574 O 246.333 4.00455 -3.71885 0
M  V30 2575 H 243.427 0.629625 -0.536191 0
M  V30 2576 H 245.973 0.678575 -1.55542 0
M  V30 2577 H 244.745 1.86352 -3.44076 0
M  V30 2578 H 244.368 3.1976 -2.36303 0
M  V30 2579 N 245.365 1.30045 0.890287 0
M  V30 2580 C 246.642 1.09227 1.62262 0
M  V30 2581 C 247.022 -0.360305 2.08002 0
M  V30 2582 O 246.37 -1.35084 1.84295 0
M  V30 2583 C 246.58 2.08835 2.79623 0
M  V30 2584 C 247.928 2.40266 3.50082 0
M  V30 2585 O 248.952 2.07104 2.89804 0
M  V30 2586 O 247.811 2.96967 4.58773 0
M  V30 2587 H 244.905 0.419132 0.712922 0
M  V30 2588 H 247.451 1.41451 0.937529 0
M  V30 2589 H 246.223 3.06633 2.43089 0
M  V30 2590 H 245.846 1.77397 3.55832 0
M  V30 2591 N 246.843 -1.10192 1.12674 0
M  V30 2592 C 247.773 -2.18652 0.819362 0
M  V30 2593 C 248.754 -1.68698 -0.217915 0
M  V30 2594 O 249.939 -1.94041 -0.0785581 0
M  V30 2595 C 247.069 -3.46202 0.27594 0
M  V30 2596 C 246.023 -4.09444 1.24656 0
M  V30 2597 C 245.349 -5.31725 0.563258 0
M  V30 2598 C 246.649 -4.52863 2.60217 0
M  V30 2599 H 248.343 -2.44622 1.72628 0
M  V30 2600 H 245.889 -1.17571 0.831451 0
M  V30 2601 H 247.842 -4.21372 0.0486149 0
M  V30 2602 H 246.566 -3.1973 -0.666331 0
M  V30 2603 H 245.225 -3.36284 1.45974 0
M  V30 2604 H 244.873 -5.0153 -0.384235 0
M  V30 2605 H 244.573 -5.74991 1.21075 0
M  V30 2606 H 246.097 -6.09624 0.34503 0
M  V30 2607 H 247.511 -5.19294 2.42913 0
M  V30 2608 H 245.908 -5.06986 3.21068 0
M  V30 2609 H 246.978 -3.65656 3.18471 0
M  V30 2610 N 248.321 -0.919034 -1.28029 0
M  V30 2611 C 249.231 -0.416756 -2.30869 0
M  V30 2612 C 250.247 0.498235 -1.66714 0
M  V30 2613 O 251.423 0.383144 -1.97722 0
M  V30 2614 C 248.488 0.330274 -3.45123 0
M  V30 2615 C 247.549 -0.618578 -4.2482 0
M  V30 2616 C 246.782 0.0928959 -5.33619 0
M  V30 2617 O 247.005 1.31375 -5.55065 0
M  V30 2618 O 245.939 -0.574499 -5.99152 0
M  V30 2619 H 249.765 -1.27043 -2.75851 0
M  V30 2620 H 247.35 -0.684052 -1.3282 0
M  V30 2621 H 249.232 0.751972 -4.14636 0
M  V30 2622 H 247.907 1.1597 -3.02213 0
M  V30 2623 H 246.814 -1.08978 -3.57875 0
M  V30 2624 H 248.147 -1.41497 -4.71423 0
M  V30 2625 N 249.799 1.42003 -0.683588 0
M  V30 2626 C 251.215 1.55625 -0.353976 0
M  V30 2627 C 251.415 1.66151 1.14 0
M  V30 2628 O 250.471 1.63329 1.92561 0
M  V30 2629 C 251.784 2.80171 -1.092 0
M  V30 2630 C 253.332 2.93954 -1.07518 0
M  V30 2631 C 253.807 4.21372 -1.79471 0
M  V30 2632 N 255.298 4.28303 -1.76381 0
M  V30 2633 C 256.033 5.25729 -2.28904 0
M  V30 2634 N 255.529 6.29254 -2.89846 0
M  V30 2635 N 257.322 5.17586 -2.19228 0
M  V30 2636 H 249.473 1.33415 -1.6527 0
M  V30 2637 H 251.736 0.64282 -0.696769 0
M  V30 2638 H 251.442 2.78561 -2.14701 0
M  V30 2639 H 251.316 3.7133 -0.662862 0
M  V30 2640 H 253.703 2.95086 -0.028475 0
M  V30 2641 H 253.784 2.04002 -1.54328 0
M  V30 2642 H 253.428 4.21001 -2.84114 0
M  V30 2643 H 253.358 5.10275 -1.30104 0
M  V30 2644 H 255.849 3.54119 -1.31939 0
M  V30 2645 H 256.162 6.99964 -3.27522 0
M  V30 2646 H 254.507 6.29791 -2.93919 0
M  V30 2647 H 257.698 4.35631 -1.71299 0
M  V30 2648 H 257.871 5.93348 -2.60466 0
M  V30 2649 N 251.277 0.427512 1.51691 0
M  V30 2650 C 252.523 -0.142439 2.02299 0
M  V30 2651 C 252.856 -1.43214 1.31162 0
M  V30 2652 O 252.131 -1.89833 0.423511 0
M  V30 2653 C 252.414 -0.371301 3.58181 0
M  V30 2654 C 252.267 0.936358 4.39946 0
M  V30 2655 C 253.586 -1.14542 4.24933 0
M  V30 2656 H 250.705 -0.0502937 0.735282 0
M  V30 2657 H 253.347 0.564584 1.81418 0
M  V30 2658 H 251.497 -0.973559 3.76104 0
M  V30 2659 H 253.169 1.57184 4.33694 0
M  V30 2660 H 251.412 1.5432 4.05423 0
M  V30 2661 H 252.083 0.730388 5.47147 0
M  V30 2662 H 254.559 -0.635362 4.11221 0
M  V30 2663 H 253.435 -1.27431 5.33903 0
M  V30 2664 H 253.696 -2.17093 3.85127 0
M  V30 2665 N 252.755 -1.56801 0.158532 0
M  V30 2666 C 254.171 -1.5837 -0.197774 0
M  V30 2667 C 254.371 -1.17334 -1.63814 0
M  V30 2668 O 253.427 -0.878988 -2.36707 0
M  V30 2669 C 254.74 -3.00615 0.0714459 0
M  V30 2670 C 256.288 -3.12999 0.00864533 0
M  V30 2671 C 256.763 -4.57313 0.250685 0
M  V30 2672 N 258.254 -4.62777 0.198014 0
M  V30 2673 C 258.989 -5.72271 0.359642 0
M  V30 2674 N 258.485 -6.90371 0.579625 0
M  V30 2675 N 260.278 -5.61318 0.296438 0
M  V30 2676 H 252.429 -1.81765 1.09887 0
M  V30 2677 H 254.692 -0.841849 0.435884 0
M  V30 2678 H 254.398 -3.35068 1.06874 0
M  V30 2679 H 254.272 -3.71683 -0.642757 0
M  V30 2680 H 256.659 -2.7838 -0.979217 0
M  V30 2681 H 256.74 -2.44393 0.755359 0
M  V30 2682 H 256.384 -4.92639 1.2357 0
M  V30 2683 H 256.314 -5.24061 -0.516489 0
M  V30 2684 H 258.805 -3.77885 0.0331115 0
M  V30 2685 H 259.118 -7.69689 0.69275 0
M  V30 2686 H 257.463 -6.92264 0.616087 0
M  V30 2687 H 260.654 -4.67932 0.125258 0
M  V30 2688 H 260.827 -6.46599 0.425831 0
M  V30 2689 N 254.233 0.115231 -1.57178 0
M  V30 2690 C 255.165 1.16694 -1.97269 0
M  V30 2691 C 256.178 1.37445 -0.872502 0
M  V30 2692 O 257.367 1.36454 -1.15077 0
M  V30 2693 C 254.467 2.52627 -2.25905 0
M  V30 2694 C 253.64 2.52427 -3.57211 0
M  V30 2695 C 252.699 3.70134 -3.74016 0
M  V30 2696 O 251.725 3.53546 -4.46087 0
M  V30 2697 N 252.927 4.88844 -3.13068 0
M  V30 2698 H 255.692 0.82588 -2.88096 0
M  V30 2699 H 253.253 0.304461 -1.59011 0
M  V30 2700 H 255.245 3.29937 -2.34359 0
M  V30 2701 H 253.815 2.789 -1.41186 0
M  V30 2702 H 253.035 1.60805 -3.5991 0
M  V30 2703 H 254.323 2.49353 -4.43509 0
M  V30 2704 H 253.721 5.05225 -2.54489 0
M  V30 2705 H 252.278 5.63817 -3.27037 0
M  V30 2706 N 255.711 1.52812 0.385517 0
M  V30 2707 C 256.641 1.80808 1.47752 0
M  V30 2708 C 257.622 0.660318 1.5676 0
M  V30 2709 O 258.807 0.908246 1.71652 0
M  V30 2710 C 255.937 1.98008 2.85324 0
M  V30 2711 C 254.891 3.13709 2.91154 0
M  V30 2712 C 254.217 3.16169 4.31209 0
M  V30 2713 C 255.517 4.52709 2.60483 0
M  V30 2714 H 257.211 2.72253 1.24573 0
M  V30 2715 H 254.757 1.31003 0.597839 0
M  V30 2716 H 256.71 2.16176 3.61726 0
M  V30 2717 H 255.434 1.03255 3.09848 0
M  V30 2718 H 254.093 2.95329 2.17201 0
M  V30 2719 H 253.741 2.19092 4.52778 0
M  V30 2720 H 253.441 3.93894 4.36029 0
M  V30 2721 H 254.965 3.36496 5.09512 0
M  V30 2722 H 256.379 4.71173 3.26602 0
M  V30 2723 H 254.776 5.32528 2.76648 0
M  V30 2724 H 255.846 4.59186 1.55809 0
M  V30 2725 N 257.189 -0.644168 1.43834 0
M  V30 2726 C 258.437 -1.40117 1.45642 0
M  V30 2727 C 258.758 -1.94814 0.0852413 0
M  V30 2728 O 258.028 -1.74988 -0.880688 0
M  V30 2729 H 256.608 -0.52005 0.536243 0
M  V30 2730 H 259.27 -0.7591 1.7951 0
M  V30 2731 H 258.366 -2.23902 2.17427 0
M  V30 2732 N 258.668 -1.30515 -0.883378 0
M  V30 2733 C 259.618 -1.13641 -1.9766 0
M  V30 2734 C 260.602 -0.0511314 -1.60819 0
M  V30 2735 O 261.794 -0.274623 -1.74857 0
M  V30 2736 C 258.923 -0.831976 -3.33066 0
M  V30 2737 C 258.009 -1.95759 -3.76217 0
M  V30 2738 N 258.4 -3.20313 -3.9145 0
M  V30 2739 C 256.698 -1.85431 -4.05625 0
M  V30 2740 C 257.399 -3.93856 -4.2808 0
M  V30 2741 N 256.375 -3.21919 -4.38029 0
M  V30 2742 H 260.177 -2.08106 -2.07531 0
M  V30 2743 H 257.691 -1.21877 -1.0733 0
M  V30 2744 H 259.688 -0.692102 -4.11115 0
M  V30 2745 H 258.348 0.104588 -3.24532 0
M  V30 2746 H 259.359 -3.55583 -3.76538 0
M  V30 2747 H 256.036 -0.991531 -4.05555 0
M  V30 2748 H 257.426 -5.01125 -4.47575 0
M  V30 2749 N 260.146 1.09593 -1.13257 0
M  V30 2750 C 261.109 2.14359 -0.811358 0
M  V30 2751 C 262.109 1.59808 0.178377 0
M  V30 2752 O 263.299 1.74132 -0.0484911 0
M  V30 2753 C 260.431 3.40269 -0.207276 0
M  V30 2754 H 261.624 2.44284 -1.73969 0
M  V30 2755 H 259.177 1.25102 -0.936973 0
M  V30 2756 H 259.912 3.15969 0.73036 0
M  V30 2757 H 259.697 3.81154 -0.919992 0
M  V30 2758 H 261.187 4.176 0.000667944 0
M  V30 2759 N 261.624 0.925811 1.2754 0
M  V30 2760 C 262.554 0.440748 2.29303 0
M  V30 2761 C 263.535 -0.497971 1.62648 0
M  V30 2762 O 264.72 -0.403126 1.8997 0
M  V30 2763 C 261.85 -0.309048 3.45922 0
M  V30 2764 C 260.804 0.54166 4.24559 0
M  V30 2765 C 260.13 -0.337191 5.33636 0
M  V30 2766 C 261.43 1.80516 4.90114 0
M  V30 2767 H 263.124 1.29121 2.70126 0
M  V30 2768 H 260.67 0.622323 1.29858 0
M  V30 2769 H 262.623 -0.659315 4.1621 0
M  V30 2770 H 261.347 -1.19352 3.04011 0
M  V30 2771 H 260.006 0.874609 3.56014 0
M  V30 2772 H 259.654 -1.22056 4.87966 0
M  V30 2773 H 259.354 0.228497 5.87156 0
M  V30 2774 H 260.878 -0.683072 6.06767 0
M  V30 2775 H 262.292 1.52307 5.52698 0
M  V30 2776 H 260.689 2.3142 5.53683 0
M  V30 2777 H 261.759 2.52581 4.13921 0
M  V30 2778 N 263.102 -1.41638 0.69111 0
M  V30 2779 C 264.032 -2.3347 0.037248 0
M  V30 2780 C 265.013 -1.51575 -0.771947 0
M  V30 2781 O 266.198 -1.80126 -0.72582 0
M  V30 2782 C 263.328 -3.35354 -0.903064 0
M  V30 2783 C 262.282 -4.27526 -0.201288 0
M  V30 2784 C 261.608 -5.19747 -1.25565 0
M  V30 2785 C 262.908 -5.13959 0.929689 0
M  V30 2786 H 264.602 -2.88397 0.804227 0
M  V30 2787 H 262.148 -1.38669 0.388189 0
M  V30 2788 H 264.101 -3.98519 -1.36969 0
M  V30 2789 H 262.825 -2.78767 -1.70166 0
M  V30 2790 H 261.484 -3.65779 0.245265 0
M  V30 2791 H 261.132 -4.59479 -2.04666 0
M  V30 2792 H 260.832 -5.8225 -0.791128 0
M  V30 2793 H 262.356 -5.85789 -1.72288 0
M  V30 2794 H 263.77 -5.70718 0.543546 0
M  V30 2795 H 262.167 -5.85379 1.32103 0
M  V30 2796 H 263.237 -4.51389 1.77133 0
M  V30 2797 N 264.58 -0.43555 -1.51462 0
M  V30 2798 C 265.826 0.131709 -2.02372 0
M  V30 2799 C 266.159 1.42516 -1.3192 0
M  V30 2800 O 265.434 1.89606 -0.433573 0
M  V30 2801 C 265.717 0.352301 -3.58373 0
M  V30 2802 C 265.57 -0.959676 -4.39443 0
M  V30 2803 C 266.889 1.12286 -4.25535 0
M  V30 2804 H 264.008 0.0463936 -0.735538 0
M  V30 2805 H 266.65 -0.574197 -1.81116 0
M  V30 2806 H 264.8 0.9536 -3.76615 0
M  V30 2807 H 266.472 -1.59482 -4.32855 0
M  V30 2808 H 264.715 -1.56468 -4.04599 0
M  V30 2809 H 265.386 -0.759394 -5.46752 0
M  V30 2810 H 267.862 0.613545 -4.11552 0
M  V30 2811 H 266.738 1.24598 -5.34571 0
M  V30 2812 H 266.999 2.15048 -3.86273 0
M  V30 2813 N 266.058 1.56714 -0.166846 0
M  V30 2814 C 267.474 1.58473 0.189372 0
M  V30 2815 C 267.674 1.18201 1.63189 0
M  V30 2816 O 266.73 0.891528 2.36237 0
M  V30 2817 C 268.043 3.00573 -0.0873872 0
M  V30 2818 C 269.591 3.1299 -0.0252443 0
M  V30 2819 C 270.066 4.57174 -0.274934 0
M  V30 2820 N 271.557 4.62665 -0.222553 0
M  V30 2821 C 272.292 5.72072 -0.389985 0
M  V30 2822 N 271.788 6.90054 -0.616229 0
M  V30 2823 N 273.581 5.61153 -0.326202 0
M  V30 2824 H 265.732 1.8118 -1.10849 0
M  V30 2825 H 267.995 0.839525 -0.440342 0
M  V30 2826 H 267.701 3.34497 -1.0865 0
M  V30 2827 H 267.575 3.72019 0.623037 0
M  V30 2828 H 269.962 2.78895 0.96444 0
M  V30 2829 H 270.043 2.43989 -0.768309 0
M  V30 2830 H 269.687 4.91976 -1.26181 0
M  V30 2831 H 269.617 5.24328 0.48869 0
M  V30 2832 H 272.108 3.77863 -0.0531512 0
M  V30 2833 H 272.421 7.69311 -0.733559 0
M  V30 2834 H 270.766 6.91927 -0.652791 0
M  V30 2835 H 273.957 4.67859 -0.150072 0
M  V30 2836 H 274.13 6.46364 -0.460116 0
M  V30 2837 N 267.536 -0.106894 1.57237 0
M  V30 2838 C 268.466 -1.13148 2.04254 0
M  V30 2839 C 269.447 -1.42476 0.929224 0
M  V30 2840 O 270.632 -1.52709 1.19973 0
M  V30 2841 C 267.762 -2.4545 2.45706 0
M  V30 2842 C 266.716 -2.30558 3.60592 0
M  V30 2843 C 266.042 -3.67931 3.87983 0
M  V30 2844 C 267.342 -1.75597 4.91897 0
M  V30 2845 H 269.036 -0.740374 2.90101 0
M  V30 2846 H 266.582 -0.354696 1.39563 0
M  V30 2847 H 268.535 -3.17389 2.77205 0
M  V30 2848 H 267.259 -2.86475 1.56843 0
M  V30 2849 H 265.918 -1.61067 3.29322 0
M  V30 2850 H 265.566 -4.06462 2.96306 0
M  V30 2851 H 265.266 -3.58817 4.65322 0
M  V30 2852 H 266.79 -4.41356 4.21945 0
M  V30 2853 H 268.204 -2.37364 5.21854 0
M  V30 2854 H 266.601 -1.77272 5.73319 0
M  V30 2855 H 267.671 -0.714451 4.79608 0
M  V30 2856 N 269.014 -1.53014 -0.377408 0
M  V30 2857 C 269.946 -1.74884 -1.48149 0
M  V30 2858 C 270.959 -0.629433 -1.5014 0
M  V30 2859 O 272.148 -0.905416 -1.53833 0
M  V30 2860 C 269.248 -1.80299 -2.86959 0
M  V30 2861 C 268.421 -3.09776 -3.08801 0
M  V30 2862 C 267.48 -3.06586 -4.27658 0
M  V30 2863 O 266.506 -3.80419 -4.23403 0
M  V30 2864 N 267.708 -2.26578 -5.34455 0
M  V30 2865 H 270.473 -2.70147 -1.29771 0
M  V30 2866 H 268.034 -1.51646 -0.56703 0
M  V30 2867 H 270.026 -1.75657 -3.64591 0
M  V30 2868 H 268.596 -0.92372 -2.98641 0
M  V30 2869 H 267.816 -3.27815 -2.18931 0
M  V30 2870 H 269.104 -3.95366 -3.20255 0
M  V30 2871 H 268.502 -1.66081 -5.40771 0
M  V30 2872 H 267.059 -2.27766 -6.10709 0
M  V30 2873 N 270.492 0.636531 -1.44174 0
M  V30 2874 C 271.402 1.77754 -1.53103 0
M  V30 2875 C 272.418 1.68928 -0.417034 0
M  V30 2876 O 273.594 1.89801 -0.6736 0
M  V30 2877 C 270.659 3.14115 -1.46741 0
M  V30 2878 C 269.72 3.34612 -2.68948 0
M  V30 2879 C 268.953 4.64467 -2.6288 0
M  V30 2880 O 269.176 5.44919 -1.68581 0
M  V30 2881 O 268.11 4.87049 -3.53648 0
M  V30 2882 H 271.936 1.73174 -2.49489 0
M  V30 2883 H 269.521 0.79709 -1.2636 0
M  V30 2884 H 271.403 3.95412 -1.45696 0
M  V30 2885 H 270.078 3.19249 -0.534975 0
M  V30 2886 H 268.985 2.53014 -2.75562 0
M  V30 2887 H 270.318 3.34336 -3.61221 0
M  V30 2888 N 271.97 1.30982 0.876444 0
M  V30 2889 C 273.216 1.20474 1.63138 0
M  V30 2890 C 273.549 -0.238096 1.92735 0
M  V30 2891 O 272.824 -1.1692 1.55435 0
M  V30 2892 C 273.107 2.04244 2.96574 0
M  V30 2893 C 272.96 3.56793 2.73896 0
M  V30 2894 C 274.279 1.88684 3.97601 0
M  V30 2895 H 271.398 0.439001 0.591985 0
M  V30 2896 H 274.04 1.60704 1.01361 0
M  V30 2897 H 272.19 1.70063 3.493 0
M  V30 2898 H 273.862 4.01077 2.27892 0
M  V30 2899 H 272.105 3.80548 2.08245 0
M  V30 2900 H 272.776 4.10706 3.68815 0
M  V30 2901 H 275.252 2.18584 3.54062 0
M  V30 2902 H 274.128 2.4961 4.88862 0
M  V30 2903 H 274.389 0.848343 4.33884 0
M  V30 2904 N 273.449 -1.08991 1.13837 0
M  V30 2905 C 274.677 -1.85011 0.926202 0
M  V30 2906 C 275.092 -1.8135 -0.525127 0
M  V30 2907 O 274.449 -1.21287 -1.36366 0
M  V30 2908 C 274.5 -3.32802 1.41155 0
M  V30 2909 O 274.221 -3.36444 2.80601 0
M  V30 2910 C 275.722 -4.25649 1.23847 0
M  V30 2911 H 272.942 -0.584249 0.32999 0
M  V30 2912 H 275.486 -1.37688 1.51202 0
M  V30 2913 H 273.641 -3.77536 0.868631 0
M  V30 2914 H 274.055 -4.28657 3.02248 0
M  V30 2915 H 275.529 -5.27485 1.62675 0
M  V30 2916 H 276.006 -4.38828 0.18065 0
M  V30 2917 H 276.612 -3.86735 1.76964 0
M  V30 2918 N 274.927 -0.932562 -1.27047 0
M  V30 2919 C 275.877 -0.406392 -2.24349 0
M  V30 2920 C 276.861 0.492066 -1.53191 0
M  V30 2921 O 278.053 0.328717 -1.73921 0
M  V30 2922 C 275.182 0.335214 -3.41659 0
M  V30 2923 C 274.268 -0.58004 -4.20115 0
M  V30 2924 N 274.659 -1.70203 -4.76303 0
M  V30 2925 C 272.957 -0.383974 -4.44344 0
M  V30 2926 C 273.658 -2.27167 -5.35509 0
M  V30 2927 N 272.634 -1.56068 -5.20715 0
M  V30 2928 H 276.436 -1.26299 -2.65378 0
M  V30 2929 H 273.95 -0.787408 -1.42034 0
M  V30 2930 H 275.947 0.729142 -4.10474 0
M  V30 2931 H 274.607 1.18868 -3.0216 0
M  V30 2932 H 275.618 -2.08433 -4.74106 0
M  V30 2933 H 272.295 0.428436 -4.15296 0
M  V30 2934 H 273.685 -3.21654 -5.89905 0
M  V30 2935 N 276.405 1.4127 -0.698611 0
M  V30 2936 C 277.63 2.06024 -0.238512 0
M  V30 2937 C 278.055 1.5224 1.10475 0
M  V30 2938 O 277.413 0.650623 1.69223 0
M  V30 2939 C 277.461 3.59988 -0.209952 0
M  V30 2940 O 276.565 4.04282 0.814235 0
M  V30 2941 H 275.906 0.653829 -0.115775 0
M  V30 2942 H 278.436 1.8098 -0.954326 0
M  V30 2943 H 278.446 4.07979 -0.0418436 0
M  V30 2944 H 277.121 3.98503 -1.1903 0
M  V30 2945 H 275.698 3.6779 0.615234 0
M  V30 2946 N 277.883 0.443576 1.51229 0
M  V30 2947 C 279.129 -0.120975 2.02439 0
M  V30 2948 C 279.462 -1.41815 1.32674 0
M  V30 2949 O 278.737 -1.89373 0.443622 0
M  V30 2950 C 279.02 -0.333291 3.58554 0
M  V30 2951 C 278.873 0.982968 4.38928 0
M  V30 2952 C 280.192 -1.10028 4.26124 0
M  V30 2953 H 277.311 -0.0424923 0.735774 0
M  V30 2954 H 279.953 0.583794 1.80809 0
M  V30 2955 H 278.103 -0.933614 3.77115 0
M  V30 2956 H 279.775 1.61775 4.32003 0
M  V30 2957 H 278.018 1.58611 4.03763 0
M  V30 2958 H 278.689 0.788379 5.46341 0
M  V30 2959 H 281.165 -0.591711 4.11871 0
M  V30 2960 H 280.041 -1.21761 5.35225 0
M  V30 2961 H 280.302 -2.12996 3.87408 0
M  V30 2962 N 279.361 -1.56624 0.175154 0
M  V30 2963 C 280.777 -1.58571 -0.180966 0
M  V30 2964 C 280.977 -1.19065 -1.6256 0
M  V30 2965 O 280.033 -0.904044 -2.35761 0
M  V30 2966 C 281.346 -3.00522 0.103326 0
M  V30 2967 C 282.894 -3.12972 0.0418426 0
M  V30 2968 C 283.369 -4.57022 0.299175 0
M  V30 2969 N 284.86 -4.62541 0.247086 0
M  V30 2970 C 285.595 -5.71857 0.420318 0
M  V30 2971 N 285.091 -6.89717 0.652816 0
M  V30 2972 N 286.884 -5.60972 0.355957 0
M  V30 2973 H 279.035 -1.80589 1.11809 0
M  V30 2974 H 281.298 -0.837178 0.444788 0
M  V30 2975 H 281.004 -3.33916 1.10422 0
M  V30 2976 H 280.878 -3.72344 -0.603299 0
M  V30 2977 H 283.265 -2.79403 -0.949636 0
M  V30 2978 H 283.346 -2.43578 0.781238 0
M  V30 2979 H 282.99 -4.913 1.28788 0
M  V30 2980 H 282.92 -5.24579 -0.460876 0
M  V30 2981 H 285.411 -3.77829 0.0731895 0
M  V30 2982 H 285.724 -7.68911 0.774347 0
M  V30 2983 H 284.069 -6.91572 0.689476 0
M  V30 2984 H 287.26 -4.67773 0.174882 0
M  V30 2985 H 287.433 -6.46111 0.494388 0
M  V30 2986 N 280.839 0.0985539 -1.57292 0
M  V30 2987 C 282.088 0.801358 -1.85098 0
M  V30 2988 C 282.401 1.80066 -0.763902 0
M  V30 2989 O 283.607 2.55112 -0.928981 0
M  V30 2990 C 282.063 1.47599 -3.28242 0
M  V30 2991 C 281.671 0.516624 -4.45011 0
M  V30 2992 C 283.415 2.16272 -3.65276 0
M  V30 2993 C 281.322 1.19564 -5.79188 0
M  V30 2994 H 280.252 0.303022 -0.69043 0
M  V30 2995 H 282.903 0.0542623 -1.8342 0
M  V30 2996 H 281.285 2.27042 -3.2445 0
M  V30 2997 H 282.459 -0.246065 -4.60143 0
M  V30 2998 H 280.774 -0.064227 -4.1635 0
M  V30 2999 H 283.371 2.67802 -4.62803 0
M  V30 3000 H 283.714 2.95009 -2.93727 0
M  V30 3001 H 284.247 1.43693 -3.70941 0
M  V30 3002 H 280.986 0.449157 -6.53959 0
M  V30 3003 H 280.506 1.92984 -5.67906 0
M  V30 3004 H 282.185 1.7231 -6.23633 0
M  V30 3005 N 282.317 1.53212 0.369288 0
M  V30 3006 C 283.565 1.68881 1.11012 0
M  V30 3007 C 283.886 0.441285 1.89941 0
M  V30 3008 O 283.156 -0.544623 1.88177 0
M  V30 3009 H 281.736 0.622569 0.412816 0
M  V30 3010 H 284.398 1.90391 0.416802 0
M  V30 3011 H 283.494 2.54822 1.80201 0
M  V30 3012 N 283.795 -0.628877 1.44509 0
M  V30 3013 C 285.042 -1.38839 1.47411 0
M  V30 3014 C 285.37 -1.94202 0.10757 0
M  V30 3015 O 284.625 -1.74243 -0.890947 0
M  V30 3016 C 284.924 -2.56995 2.48371 0
M  V30 3017 C 284.59 -2.19908 3.93639 0
M  V30 3018 C 283.252 -2.09506 4.33198 0
M  V30 3019 C 285.604 -1.9064 4.85083 0
M  V30 3020 C 282.932 -1.68028 5.62124 0
M  V30 3021 C 285.284 -1.50655 6.14399 0
M  V30 3022 C 283.948 -1.38796 6.5291 0
M  V30 3023 H 283.218 -0.508048 0.539414 0
M  V30 3024 H 285.865 -0.712913 1.77735 0
M  V30 3025 H 284.17 -3.29786 2.11538 0
M  V30 3026 H 285.867 -3.15223 2.47861 0
M  V30 3027 H 282.457 -2.28922 3.62343 0
M  V30 3028 H 286.641 -1.97585 4.55273 0
M  V30 3029 H 281.897 -1.57452 5.90778 0
M  V30 3030 H 286.071 -1.27048 6.84713 0
M  V30 3031 H 283.698 -1.06429 7.52713 0
M  V30 3032 N 285.273 -1.31445 -0.869486 0
M  V30 3033 C 286.521 -1.20918 -1.61936 0
M  V30 3034 C 286.842 0.232683 -1.93607 0
M  V30 3035 O 286.112 1.15352 -1.58338 0
M  V30 3036 H 284.692 -0.44454 -0.600328 0
M  V30 3037 H 287.354 -1.64776 -1.0409 0
M  V30 3038 H 286.45 -1.78124 -2.56278 0
M  V30 3039 N 286.751 1.08385 -1.14413 0
M  V30 3040 C 287.976 1.85057 -0.936413 0
M  V30 3041 C 288.401 1.81055 0.509971 0
M  V30 3042 O 287.759 1.1958 1.36273 0
M  V30 3043 C 287.807 3.30505 -1.44217 0
M  V30 3044 O 286.911 4.07491 -0.634409 0
M  V30 3045 H 286.252 0.573425 -0.334784 0
M  V30 3046 H 288.782 1.36799 -1.52142 0
M  V30 3047 H 288.792 3.81348 -1.45043 0
M  V30 3048 H 287.467 3.32734 -2.49522 0
M  V30 3049 H 286.044 3.66368 -0.694902 0
M  V30 3050 N 288.23 0.939286 1.26551 0
M  V30 3051 C 289.477 0.585847 1.9384 0
M  V30 3052 C 289.805 -0.874784 1.73718 0
M  V30 3053 O 289.06 -1.64092 1.06642 0
M  V30 3054 C 289.359 0.872106 3.46596 0
M  V30 3055 C 289.025 2.31632 3.86856 0
M  V30 3056 C 287.687 2.71111 3.97558 0
M  V30 3057 C 290.039 3.25494 4.07066 0
M  V30 3058 C 287.367 4.03553 4.25866 0
M  V30 3059 C 289.719 4.57531 4.36862 0
M  V30 3060 C 288.383 4.96828 4.45778 0
M  V30 3061 H 287.653 0.214377 0.709312 0
M  V30 3062 H 290.3 1.18544 1.50398 0
M  V30 3063 H 288.605 0.18996 3.91339 0
M  V30 3064 H 290.302 0.577442 3.96821 0
M  V30 3065 H 286.892 2.00008 3.79071 0
M  V30 3066 H 291.076 2.9619 3.98227 0
M  V30 3067 H 286.332 4.33665 4.30981 0
M  V30 3068 H 290.506 5.30254 4.51446 0
M  V30 3069 H 288.133 5.99482 4.67468 0
M  V30 3070 N 289.708 -1.40897 0.706093 0
M  V30 3071 C 290.954 -2.01352 0.241889 0
M  V30 3072 C 291.287 -1.55832 -1.15888 0
M  V30 3073 O 290.562 -0.774145 -1.7843 0
M  V30 3074 C 290.845 -3.58752 0.311311 0
M  V30 3075 C 290.698 -4.1437 1.74978 0
M  V30 3076 C 292.017 -4.38914 -0.322922 0
M  V30 3077 H 289.136 -0.731562 0.0893687 0
M  V30 3078 H 291.778 -1.67504 0.896802 0
M  V30 3079 H 289.928 -3.87718 -0.246302 0
M  V30 3080 H 291.6 -3.96239 2.36205 0
M  V30 3081 H 289.843 -3.69016 2.28057 0
M  V30 3082 H 290.514 -5.23532 1.74981 0
M  V30 3083 H 292.99 -4.15822 0.152089 0
M  V30 3084 H 291.866 -5.48358 -0.243855 0
M  V30 3085 H 292.127 -4.19176 -1.40513 0
M  V30 3086 N 291.186 -0.45159 -1.50991 0
M  V30 3087 C 292.463 0.170707 -1.94854 0
M  V30 3088 C 292.843 1.58788 -1.39103 0
M  V30 3089 O 292.191 2.20913 -0.583921 0
M  V30 3090 C 292.401 0.133929 -3.48743 0
M  V30 3091 C 293.749 0.33248 -4.23296 0
M  V30 3092 O 294.773 0.211403 -3.55572 0
M  V30 3093 O 293.632 0.57486 -5.43468 0
M  V30 3094 H 290.726 0.122264 -0.817912 0
M  V30 3095 H 293.272 -0.510594 -1.61836 0
M  V30 3096 H 292.044 -0.856283 -3.81816 0
M  V30 3097 H 291.667 0.857529 -3.88242 0
M  V30 3098 N 292.664 1.56529 -0.183458 0
M  V30 3099 C 293.611 2.18546 0.742055 0
M  V30 3100 C 294.581 1.12912 1.2182 0
M  V30 3101 O 295.766 1.41115 1.28418 0
M  V30 3102 C 292.906 2.83977 1.96089 0
M  V30 3103 C 292.019 4.04105 1.52719 0
M  V30 3104 C 291.154 4.57427 2.70063 0
M  V30 3105 C 290.193 5.69938 2.23243 0
M  V30 3106 N 289.33 6.17717 3.33722 0
M  V30 3107 H 294.17 2.97284 0.206432 0
M  V30 3108 H 291.707 1.46823 0.0901571 0
M  V30 3109 H 293.665 3.20077 2.67594 0
M  V30 3110 H 292.295 2.07822 2.47002 0
M  V30 3111 H 291.347 3.73745 0.708436 0
M  V30 3112 H 292.659 4.85513 1.1436 0
M  V30 3113 H 291.813 4.95772 3.49708 0
M  V30 3114 H 290.552 3.75101 3.11689 0
M  V30 3115 H 289.557 5.31133 1.42048 0
M  V30 3116 H 290.782 6.54073 1.82661 0
M  V30 3117 H 288.728 5.38317 3.74902 0
M  V30 3118 H 288.645 6.94146 2.99495 0
M  V30 3119 H 289.913 6.60713 4.13616 0
M  V30 3120 N 294.142 -0.090211 1.57342 0
M  V30 3121 C 295.37 -0.806224 1.90546 0
M  V30 3122 C 295.785 -1.72041 0.777644 0
M  V30 3123 O 295.142 -1.80778 -0.250103 0
M  V30 3124 C 295.193 -1.61546 3.23396 0
M  V30 3125 O 294.914 -0.738043 4.31839 0
M  V30 3126 C 296.415 -2.4341 3.70495 0
M  V30 3127 H 293.635 -0.230256 0.630257 0
M  V30 3128 H 296.179 -0.0659843 2.04394 0
M  V30 3129 H 294.334 -2.30816 3.11131 0
M  V30 3130 H 294.748 -1.29901 5.08159 0
M  V30 3131 H 296.222 -2.95676 4.66133 0
M  V30 3132 H 296.699 -3.22098 2.98579 0
M  V30 3133 H 297.305 -1.79331 3.85643 0
M  V30 3134 N 295.62 -1.53406 -0.361157 0
M  V30 3135 C 296.866 -1.70054 -1.10496 0
M  V30 3136 C 297.199 -0.453278 -1.88836 0
M  V30 3137 O 296.474 0.5495 -1.86576 0
M  V30 3138 C 296.757 -2.95317 -2.06058 0
M  V30 3139 C 296.61 -4.3021 -1.31298 0
M  V30 3140 C 297.929 -3.16193 -3.06121 0
M  V30 3141 H 295.048 -0.618799 -0.400321 0
M  V30 3142 H 297.69 -1.86052 -0.385318 0
M  V30 3143 H 295.84 -2.81809 -2.67425 0
M  V30 3144 H 297.512 -4.55538 -0.726807 0
M  V30 3145 H 295.755 -4.29421 -0.614853 0
M  V30 3146 H 296.426 -5.14 -2.01265 0
M  V30 3147 H 298.902 -3.28916 -2.5486 0
M  V30 3148 H 297.778 -4.05266 -3.70204 0
M  V30 3149 H 298.039 -2.31676 -3.76535 0
M  V30 3150 N 297.098 0.621204 -1.44841 0
M  V30 3151 C 298.028 1.74366 -1.55303 0
M  V30 3152 C 299.009 1.65199 -0.405385 0
M  V30 3153 O 300.194 1.83807 -0.626787 0
M  V30 3154 C 297.324 3.12931 -1.50637 0
M  V30 3155 C 296.278 3.36896 -2.63979 0
M  V30 3156 C 295.604 4.75594 -2.44366 0
M  V30 3157 C 296.904 3.28483 -4.06074 0
M  V30 3158 H 298.598 1.65867 -2.49256 0
M  V30 3159 H 296.144 0.796558 -1.19962 0
M  V30 3160 H 298.097 3.9124 -1.56555 0
M  V30 3161 H 296.821 3.22237 -0.532057 0
M  V30 3162 H 295.48 2.60972 -2.57467 0
M  V30 3163 H 295.128 4.81616 -1.45105 0
M  V30 3164 H 294.828 4.92586 -3.20364 0
M  V30 3165 H 296.352 5.5612 -2.52117 0
M  V30 3166 H 297.766 3.96684 -4.13902 0
M  V30 3167 H 296.163 3.57008 -4.82354 0
M  V30 3168 H 297.233 2.26133 -4.28943 0
M  V30 3169 N 298.576 1.31904 0.862503 0
M  V30 3170 C 299.987 1.19803 1.43193 0
M  V30 3171 C 300.338 -0.192567 1.95253 0
M  V30 3172 O 299.463 -1.09081 1.86896 0
M  V30 3173 C 300.058 2.16883 2.60283 0
M  V30 3174 C 298.617 2.08692 3.13248 0
M  V30 3175 C 297.764 2.05691 1.85975 0
M  V30 3176 H 300.715 1.43846 0.670365 0
M  V30 3177 H 300.736 1.76278 3.37204 0
M  V30 3178 H 300.248 3.18083 2.22363 0
M  V30 3179 H 298.349 1.10713 3.55771 0
M  V30 3180 H 298.462 2.9815 3.75025 0
M  V30 3181 H 296.826 1.50814 2.05249 0
M  V30 3182 H 297.609 3.08659 1.50282 0
M  V30 3183 N 300.054 -1.07777 1.14986 0
M  V30 3184 C 301.301 -1.8029 0.922056 0
M  V30 3185 C 301.629 -1.86531 -0.55105 0
M  V30 3186 O 300.884 -1.34189 -1.42449 0
M  V30 3187 C 301.183 -3.25495 1.47608 0
M  V30 3188 C 300.849 -3.39361 2.96893 0
M  V30 3189 C 299.511 -3.42852 3.37647 0
M  V30 3190 C 301.863 -3.42512 3.92854 0
M  V30 3191 C 299.191 -3.47094 4.73015 0
M  V30 3192 C 301.543 -3.4829 5.28088 0
M  V30 3193 C 300.207 -3.50058 5.68345 0
M  V30 3194 H 299.477 -0.659727 0.337404 0
M  V30 3195 H 302.124 -1.26854 1.43459 0
M  V30 3196 H 300.429 -3.81683 0.88463 0
M  V30 3197 H 302.126 -3.80168 1.27568 0
M  V30 3198 H 298.716 -3.37339 2.64387 0
M  V30 3199 H 302.9 -3.3904 3.62444 0
M  V30 3200 H 298.156 -3.46758 5.03556 0
M  V30 3201 H 302.33 -3.49675 6.02246 0
M  V30 3202 H 299.957 -3.53097 6.73221 0
M  V30 3203 N 301.532 -0.945985 -1.26051 0
M  V30 3204 C 302.778 -0.597002 -1.93814 0
M  V30 3205 C 303.111 0.862484 -1.73997 0
M  V30 3206 O 302.386 1.61769 -1.07986 0
M  V30 3207 C 302.669 -0.945937 -3.47454 0
M  V30 3208 C 302.522 -2.46052 -3.76535 0
M  V30 3209 C 303.841 -0.464785 -4.37639 0
M  V30 3210 H 300.96 -0.218366 -0.703907 0
M  V30 3211 H 303.602 -1.18107 -1.48831 0
M  V30 3212 H 301.752 -0.448902 -3.85898 0
M  V30 3213 H 303.424 -3.03065 -3.47778 0
M  V30 3214 H 301.667 -2.90194 -3.22444 0
M  V30 3215 H 302.338 -2.65517 -4.83947 0
M  V30 3216 H 304.814 -0.891016 -4.06448 0
M  V30 3217 H 303.69 -0.737712 -5.4392 0
M  V30 3218 H 303.951 0.635274 -4.37512 0
M  V30 3219 N 303.011 1.40521 -0.713556 0
M  V30 3220 C 304.236 2.05759 -0.26035 0
M  V30 3221 C 304.661 1.53403 1.08854 0
M  V30 3222 O 304.019 0.668535 1.68524 0
M  V30 3223 C 304.067 3.59745 -0.248122 0
M  V30 3224 O 303.171 4.05123 0.77131 0
M  V30 3225 H 302.512 0.652564 -0.122703 0
M  V30 3226 H 305.042 1.79958 -0.973467 0
M  V30 3227 H 305.052 4.07911 -0.0851129 0
M  V30 3228 H 303.727 3.97218 -1.2325 0
M  V30 3229 H 302.304 3.68422 0.57619 0
M  V30 3230 N 304.489 0.459591 1.5075 0
M  V30 3231 C 305.717 -0.0973749 2.06671 0
M  V30 3232 C 306.132 -1.34524 1.32472 0
M  V30 3233 O 305.489 -1.7827 0.390634 0
M  V30 3234 C 305.54 -0.39714 3.59312 0
M  V30 3235 O 305.261 0.801214 4.30711 0
M  V30 3236 C 306.762 -1.00234 4.31819 0
M  V30 3237 H 303.982 0.00195854 0.670997 0
M  V30 3238 H 306.526 0.645072 1.94059 0
M  V30 3239 H 304.681 -1.08951 3.71764 0
M  V30 3240 H 305.095 0.538857 5.21725 0
M  V30 3241 H 306.569 -1.16193 5.39632 0
M  V30 3242 H 307.046 -1.98939 3.91561 0
M  V30 3243 H 307.652 -0.348699 4.23868 0
M  V30 3244 N 305.967 -1.56429 0.191757 0
M  V30 3245 C 307.213 -1.97777 -0.448554 0
M  V30 3246 C 307.546 -1.07847 -1.61501 0
M  V30 3247 O 306.821 -0.129774 -1.94067 0
M  V30 3248 C 307.104 -3.48362 -0.911906 0
M  V30 3249 C 306.957 -4.4907 0.256136 0
M  V30 3250 C 308.276 -4.02561 -1.77857 0
M  V30 3251 H 305.395 -0.719071 -0.161572 0
M  V30 3252 H 308.037 -1.87896 0.282007 0
M  V30 3253 H 306.187 -3.56914 -1.53442 0
M  V30 3254 H 307.859 -4.5256 0.893733 0
M  V30 3255 H 306.102 -4.24181 0.908436 0
M  V30 3256 H 306.773 -5.51889 -0.11053 0
M  V30 3257 H 309.249 -3.96767 -1.25359 0
M  V30 3258 H 308.125 -5.08301 -2.07174 0
M  V30 3259 H 308.386 -3.47616 -2.73158 0
M  V30 3260 N 307.445 0.0818655 -1.57387 0
M  V30 3261 C 308.856 0.634871 -1.75574 0
M  V30 3262 C 309.207 1.78435 -0.815809 0
M  V30 3263 O 308.332 2.164 0.0025366 0
M  V30 3264 C 308.927 1.15845 -3.18379 0
M  V30 3265 C 307.486 1.65741 -3.37945 0
M  V30 3266 C 306.633 0.572549 -2.71325 0
M  V30 3267 H 309.584 -0.144268 -1.58043 0
M  V30 3268 H 309.605 2.02751 -3.21982 0
M  V30 3269 H 309.117 0.321631 -3.86765 0
M  V30 3270 H 307.218 2.51781 -2.74658 0
M  V30 3271 H 307.331 1.74129 -4.46336 0
M  V30 3272 H 305.695 1.01518 -2.33594 0
M  V30 3273 H 306.478 -0.253918 -3.4236 0
M  V30 3274 N 308.923 1.53595 0.353017 0
M  V30 3275 C 310.148 1.7462 1.11904 0
M  V30 3276 C 310.573 0.479721 1.8188 0
M  V30 3277 O 309.931 -0.567066 1.72204 0
M  V30 3278 C 309.979 2.92029 2.11545 0
M  V30 3279 O 309.083 2.61516 3.18878 0
M  V30 3280 H 308.424 0.579531 0.324099 0
M  V30 3281 H 310.954 2.00525 0.406301 0
M  V30 3282 H 310.964 3.18551 2.5493 0
M  V30 3283 H 309.639 3.83888 1.60008 0
M  V30 3284 H 308.216 2.45852 2.80377 0
M  V30 3285 N 310.401 -0.613514 1.45168 0
M  V30 3286 C 311.348 -1.72456 1.53387 0
M  V30 3287 C 312.318 -1.6169 0.380191 0
M  V30 3288 O 313.503 -1.81356 0.592836 0
M  V30 3289 C 310.643 -3.10753 1.50088 0
M  V30 3290 C 309.756 -3.32368 2.75963 0
M  V30 3291 C 308.891 -4.60737 2.64376 0
M  V30 3292 C 307.93 -4.7559 3.85332 0
M  V30 3293 N 307.067 -5.95253 3.72315 0
M  V30 3294 H 311.907 -1.64768 2.48305 0
M  V30 3295 H 309.444 -0.803503 1.23216 0
M  V30 3296 H 311.402 -3.90758 1.46164 0
M  V30 3297 H 310.032 -3.17413 0.587243 0
M  V30 3298 H 309.084 -2.4618 2.89999 0
M  V30 3299 H 310.396 -3.39218 3.65695 0
M  V30 3300 H 309.55 -5.48928 2.58385 0
M  V30 3301 H 308.289 -4.56275 1.72233 0
M  V30 3302 H 307.294 -3.85824 3.91688 0
M  V30 3303 H 308.519 -4.81854 4.78533 0
M  V30 3304 H 306.465 -5.91847 2.82937 0
M  V30 3305 H 306.382 -6.03236 4.55677 0
M  V30 3306 H 307.65 -6.85958 3.70246 0
M  V30 3307 N 311.879 -1.3236 -0.855495 0
M  V30 3308 C 312.809 -1.23833 -1.97958 0
M  V30 3309 C 313.79 -0.122361 -1.69659 0
M  V30 3310 O 314.975 -0.30939 -1.9172 0
M  V30 3311 C 312.105 -0.959772 -3.33775 0
M  V30 3312 C 311.059 -2.03689 -3.76424 0
M  V30 3313 C 310.385 -1.61075 -5.09862 0
M  V30 3314 C 311.685 -3.4518 -3.9198 0
M  V30 3315 H 313.379 -2.1788 -2.0535 0
M  V30 3316 H 310.925 -1.04891 -0.986605 0
M  V30 3317 H 312.878 -0.886678 -4.11966 0
M  V30 3318 H 311.602 0.0163404 -3.26596 0
M  V30 3319 H 310.261 -2.10012 -3.00484 0
M  V30 3320 H 309.909 -0.622107 -4.99138 0
M  V30 3321 H 309.609 -2.33143 -5.39368 0
M  V30 3322 H 311.133 -1.55201 -5.90546 0
M  V30 3323 H 312.547 -3.4145 -4.60526 0
M  V30 3324 H 310.944 -4.1559 -4.32903 0
M  V30 3325 H 312.014 -3.84903 -2.94919 0
M  V30 3326 N 313.357 1.07166 -1.15556 0
M  V30 3327 C 314.773 1.31899 -0.898603 0
M  V30 3328 C 314.973 1.96333 0.453383 0
M  V30 3329 O 314.029 2.22438 1.19489 0
M  V30 3330 C 315.342 2.20826 -2.04099 0
M  V30 3331 C 316.89 2.34269 -2.07574 0
M  V30 3332 C 317.365 3.26546 -3.21141 0
M  V30 3333 N 318.856 3.34127 -3.20801 0
M  V30 3334 C 319.591 4.05595 -4.05315 0
M  V30 3335 N 319.087 4.79661 -4.99897 0
M  V30 3336 N 320.88 4.01555 -3.93332 0
M  V30 3337 H 313.031 0.637302 -2.02613 0
M  V30 3338 H 315.294 0.343468 -0.883591 0
M  V30 3339 H 315 1.80744 -3.01703 0
M  V30 3340 H 314.874 3.21364 -1.97496 0
M  V30 3341 H 317.261 2.73603 -1.10568 0
M  V30 3342 H 317.342 1.33429 -2.18244 0
M  V30 3343 H 316.986 2.87931 -4.184 0
M  V30 3344 H 316.916 4.27345 -3.07708 0
M  V30 3345 H 319.407 2.81336 -2.52306 0
M  V30 3346 H 319.72 5.31694 -5.60822 0
M  V30 3347 H 318.065 4.78671 -5.03884 0
M  V30 3348 H 321.256 3.42806 -3.18751 0
M  V30 3349 H 321.429 4.56987 -4.5942 0
M  V30 3350 N 314.835 0.952656 1.25548 0
M  V30 3351 C 315.785 0.442033 2.23674 0
M  V30 3352 C 316.769 -0.467632 1.53955 0
M  V30 3353 O 317.961 -0.301006 1.74422 0
M  V30 3354 C 315.09 -0.280816 3.4215 0
M  V30 3355 C 314.176 0.646803 4.19139 0
M  V30 3356 N 314.567 1.77759 4.73535 0
M  V30 3357 C 312.865 0.454617 4.43677 0
M  V30 3358 C 313.566 2.35658 5.31827 0
M  V30 3359 N 312.542 1.64333 5.18166 0
M  V30 3360 H 316.344 1.30505 2.63336 0
M  V30 3361 H 313.858 0.809904 1.40763 0
M  V30 3362 H 315.855 -0.663747 4.11582 0
M  V30 3363 H 314.515 -1.14046 3.04012 0
M  V30 3364 H 315.526 2.15949 4.7073 0
M  V30 3365 H 312.203 -0.362312 4.15925 0
M  V30 3366 H 313.593 3.30998 5.84713 0
M  V30 3367 N 316.313 -1.40141 0.720998 0
M  V30 3368 C 317.724 -1.83678 0.334553 0
M  V30 3369 C 318.075 -1.6027 -1.13173 0
M  V30 3370 O 317.2 -1.08643 -1.87152 0
M  V30 3371 C 317.795 -3.33437 0.600437 0
M  V30 3372 C 316.354 -3.75447 0.267642 0
M  V30 3373 C 315.501 -2.63296 0.870097 0
M  V30 3374 H 318.452 -1.29331 0.919732 0
M  V30 3375 H 318.473 -3.80269 -0.132517 0
M  V30 3376 H 317.985 -3.50442 1.66768 0
M  V30 3377 H 316.086 -3.64035 -0.794329 0
M  V30 3378 H 316.199 -4.73344 0.74042 0
M  V30 3379 H 314.563 -2.52954 0.297739 0
M  V30 3380 H 315.346 -2.83112 1.94172 0
M  V30 3381 N 317.792 -0.46758 -1.50504 0
M  V30 3382 C 319.032 0.0874114 -2.04213 0
M  V30 3383 C 319.396 1.37301 -1.34211 0
M  V30 3384 O 320.597 2.01015 -1.78456 0
M  V30 3385 C 318.868 0.270571 -3.56374 0
M  V30 3386 S 320.427 0.784623 -4.31728 0
M  V30 3387 H 317.245 0.0176153 -0.710782 0
M  V30 3388 H 319.847 -0.633915 -1.84937 0
M  V30 3389 H 318.551 -0.670942 -4.04878 0
M  V30 3390 H 318.082 1.01811 -3.79997 0
M  V30 3391 H 320.097 2.05849 -4.51487 0
M  V30 3392 N 319.27 1.56325 -0.20005 0
M  V30 3393 C 320.681 1.8408 0.31167 0
M  V30 3394 C 321.032 1.12087 1.61031 0
M  V30 3395 O 320.157 0.38332 2.12978 0
M  V30 3396 C 320.752 3.33932 0.57226 0
M  V30 3397 C 319.311 3.6208 1.02834 0
M  V30 3398 C 318.458 2.77186 0.079634 0
M  V30 3399 H 321.409 1.52939 -0.423729 0
M  V30 3400 H 321.43 3.52971 1.42096 0
M  V30 3401 H 320.942 3.86303 -0.37308 0
M  V30 3402 H 319.043 3.15147 1.98778 0
M  V30 3403 H 319.156 4.7023 0.917624 0
M  V30 3404 H 317.52 2.47951 0.582448 0
M  V30 3405 H 318.303 3.32347 -0.860238 0
M  V30 3406 N 320.748 -0.0735177 1.57428 0
M  V30 3407 C 321.976 -0.785969 1.9139 0
M  V30 3408 C 322.391 -1.71207 0.795847 0
M  V30 3409 O 321.748 -1.81033 -0.230915 0
M  V30 3410 C 321.799 -1.58107 3.25091 0
M  V30 3411 O 321.52 -0.6922 4.32597 0
M  V30 3412 C 323.021 -2.39467 3.73055 0
M  V30 3413 H 320.241 -0.223558 0.632663 0
M  V30 3414 H 322.785 -0.044302 2.04452 0
M  V30 3415 H 320.94 -2.27503 3.13562 0
M  V30 3416 H 321.354 -1.24504 5.09508 0
M  V30 3417 H 322.828 -2.90716 4.69242 0
M  V30 3418 H 323.305 -3.18913 3.01979 0
M  V30 3419 H 323.911 -1.7523 3.87523 0
M  V30 3420 N 322.226 -1.5378 -0.344866 0
M  V30 3421 C 323.642 -1.44015 -0.687888 0
M  V30 3422 C 323.842 -0.595834 -1.92489 0
M  V30 3423 O 322.898 -0.0863064 -2.52352 0
M  V30 3424 C 324.211 -2.87481 -0.881758 0
M  V30 3425 C 325.759 -2.97247 -0.980459 0
M  V30 3426 C 326.234 -4.41819 -1.20665 0
M  V30 3427 N 327.725 -4.45339 -1.27389 0
M  V30 3428 C 328.46 -5.54333 -1.46639 0
M  V30 3429 N 327.956 -6.73335 -1.63071 0
M  V30 3430 N 329.749 -5.41944 -1.49176 0
M  V30 3431 H 321.9 -2.07169 0.468475 0
M  V30 3432 H 324.163 -0.93643 0.147655 0
M  V30 3433 H 323.869 -3.51672 -0.0443444 0
M  V30 3434 H 323.743 -3.32352 -1.78388 0
M  V30 3435 H 326.13 -2.33197 -1.8084 0
M  V30 3436 H 326.211 -2.5574 -0.0552713 0
M  V30 3437 H 325.855 -5.06449 -0.383652 0
M  V30 3438 H 325.785 -4.80917 -2.14539 0
M  V30 3439 H 328.276 -3.59585 -1.1622 0
M  V30 3440 H 328.589 -7.52165 -1.77391 0
M  V30 3441 H 326.934 -6.76282 -1.60209 0
M  V30 3442 H 330.125 -4.47932 -1.3592 0
M  V30 3443 H 330.298 -6.26946 -1.63837 0
M  V30 3444 N 323.704 0.605807 -1.45491 0
M  V30 3445 C 324.634 1.72709 -1.57143 0
M  V30 3446 C 325.615 1.6476 -0.422884 0
M  V30 3447 O 326.8 1.83132 -0.646247 0
M  V30 3448 C 323.93 3.11316 -1.53948 0
M  V30 3449 C 322.884 3.34077 -2.67537 0
M  V30 3450 C 322.21 4.72975 -2.49397 0
M  V30 3451 C 323.51 3.24158 -4.09535 0
M  V30 3452 H 325.204 1.63214 -2.51001 0
M  V30 3453 H 322.75 0.78379 -1.208 0
M  V30 3454 H 324.703 3.89557 -1.60696 0
M  V30 3455 H 323.427 3.21655 -0.566205 0
M  V30 3456 H 322.086 2.58227 -2.6022 0
M  V30 3457 H 321.734 4.8005 -1.50205 0
M  V30 3458 H 321.434 4.8916 -3.25571 0
M  V30 3459 H 322.958 5.53414 -2.58002 0
M  V30 3460 H 324.372 3.92271 -4.18086 0
M  V30 3461 H 322.769 3.51872 -4.86113 0
M  V30 3462 H 323.839 2.2157 -4.31317 0
M  V30 3463 N 325.182 1.32811 0.848464 0
M  V30 3464 C 326.092 1.24278 1.98978 0
M  V30 3465 C 327.108 0.155176 1.73307 0
M  V30 3466 O 328.284 0.376999 1.9784 0
M  V30 3467 C 325.349 0.972444 3.32783 0
M  V30 3468 C 324.41 2.14911 3.71634 0
M  V30 3469 C 323.643 1.89157 4.99054 0
M  V30 3470 O 323.866 0.837165 5.64223 0
M  V30 3471 O 322.8 2.75433 5.35183 0
M  V30 3472 H 326.626 2.20238 2.09115 0
M  V30 3473 H 324.211 1.12762 0.980052 0
M  V30 3474 H 326.093 0.838432 4.12975 0
M  V30 3475 H 324.768 0.043051 3.23671 0
M  V30 3476 H 323.675 2.33862 2.91992 0
M  V30 3477 H 325.008 3.06151 3.85399 0
M  V30 3478 N 326.66 -1.06551 1.16123 0
M  V30 3479 C 328.076 -1.3142 0.905585 0
M  V30 3480 C 328.276 -1.96571 -0.442964 0
M  V30 3481 O 327.332 -2.23068 -1.18308 0
M  V30 3482 C 328.645 -2.19741 2.05267 0
M  V30 3483 C 330.193 -2.33165 2.08813 0
M  V30 3484 C 330.668 -3.24838 3.22868 0
M  V30 3485 N 332.159 -3.32421 3.22568 0
M  V30 3486 C 332.894 -4.0344 4.0746 0
M  V30 3487 N 332.39 -4.77003 5.02434 0
M  V30 3488 N 334.183 -3.99464 3.95456 0
M  V30 3489 H 326.334 -0.626548 2.02949 0
M  V30 3490 H 328.597 -0.338777 0.8854 0
M  V30 3491 H 328.303 -1.79142 3.02657 0
M  V30 3492 H 328.177 -3.20313 1.99198 0
M  V30 3493 H 330.564 -2.73013 1.12018 0
M  V30 3494 H 330.645 -1.3227 2.18948 0
M  V30 3495 H 330.289 -2.85708 4.19921 0
M  V30 3496 H 330.219 -4.25707 3.0997 0
M  V30 3497 H 332.71 -2.79994 2.53795 0
M  V30 3498 H 333.023 -5.28712 5.63634 0
M  V30 3499 H 331.368 -4.75992 5.06415 0
M  V30 3500 H 334.559 -3.4111 3.20564 0
M  V30 3501 H 334.732 -4.54544 4.61837 0
M  V30 3502 N 328.138 -0.959301 -1.25041 0
M  V30 3503 C 329.378 -0.624343 -1.94631 0
M  V30 3504 C 329.742 0.82403 -1.73418 0
M  V30 3505 O 330.943 1.26881 -2.3697 0
M  V30 3506 C 329.214 -0.978805 -3.43736 0
M  V30 3507 S 330.773 -0.757127 -4.32219 0
M  V30 3508 H 327.591 -0.229327 -0.673001 0
M  V30 3509 H 330.193 -1.23447 -1.51595 0
M  V30 3510 H 328.897 -2.02997 -3.56679 0
M  V30 3511 H 328.428 -0.359117 -3.91757 0
M  V30 3512 H 330.443 0.369759 -4.9482 0
M  V30 3513 N 329.616 1.39756 -0.72842 0
M  V30 3514 C 330.548 2.29157 -0.0446202 0
M  V30 3515 C 331.561 1.46484 0.710367 0
M  V30 3516 O 332.75 1.69632 0.55562 0
M  V30 3517 C 329.85 3.24987 0.961071 0
M  V30 3518 C 329.023 4.36572 0.268967 0
M  V30 3519 C 328.082 5.12756 1.18184 0
M  V30 3520 O 327.108 5.6534 0.661794 0
M  V30 3521 N 328.31 5.23331 2.51206 0
M  V30 3522 H 331.075 2.88482 -0.812295 0
M  V30 3523 H 328.636 1.51265 -0.577098 0
M  V30 3524 H 330.628 3.72827 1.57423 0
M  V30 3525 H 329.198 2.66739 1.63 0
M  V30 3526 H 328.418 3.90694 -0.524574 0
M  V30 3527 H 329.706 5.08363 -0.210934 0
M  V30 3528 H 329.104 4.82116 2.9594 0
M  V30 3529 H 327.661 5.74634 3.07634 0
M  V30 3530 N 331.094 0.475555 1.50254 0
M  V30 3531 C 332.319 -0.0777042 2.07254 0
M  V30 3532 C 332.744 -1.3235 1.3366 0
M  V30 3533 O 332.102 -1.77152 0.385597 0
M  V30 3534 C 332.15 -0.340169 3.58992 0
M  V30 3535 O 331.254 -1.41982 3.87188 0
M  V30 3536 H 330.595 0.0149556 0.663832 0
M  V30 3537 H 333.125 0.667878 1.93392 0
M  V30 3538 H 333.135 -0.579332 4.03866 0
M  V30 3539 H 331.81 0.570167 4.11973 0
M  V30 3540 H 330.387 -1.16762 3.54148 0
M  V30 3541 N 332.573 -1.56217 0.208337 0
M  V30 3542 C 333.984 -1.84243 -0.301904 0
M  V30 3543 C 334.335 -1.12939 -1.60434 0
M  V30 3544 O 333.46 -0.39461 -2.12772 0
M  V30 3545 C 334.055 -3.34231 -0.554543 0
M  V30 3546 C 332.614 -3.62621 -1.00912 0
M  V30 3547 C 331.761 -2.77224 -0.064933 0
M  V30 3548 H 334.712 -1.52712 0.431833 0
M  V30 3549 H 334.733 -3.5372 -1.40223 0
M  V30 3550 H 334.245 -3.86099 0.393561 0
M  V30 3551 H 332.346 -3.16197 -1.97104 0
M  V30 3552 H 332.459 -4.7071 -0.892674 0
M  V30 3553 H 330.823 -2.48256 -0.56929 0
M  V30 3554 H 331.606 -3.31887 0.877851 0
M  V30 3555 N 334.051 0.0651679 -1.57465 0
M  V30 3556 C 335.298 0.763063 -1.87573 0
M  V30 3557 C 335.626 1.77242 -0.800961 0
M  V30 3558 O 334.881 1.94651 0.202316 0
M  V30 3559 C 335.18 1.50081 -3.24362 0
M  V30 3560 C 334.846 0.630816 -4.46466 0
M  V30 3561 C 333.508 0.391082 -4.79608 0
M  V30 3562 C 335.86 0.0279465 -5.21193 0
M  V30 3563 C 333.188 -0.460894 -5.84887 0
M  V30 3564 C 335.54 -0.811522 -6.27373 0
M  V30 3565 C 334.204 -1.06106 -6.59013 0
M  V30 3566 H 333.474 0.279224 -0.686378 0
M  V30 3567 H 336.121 0.0236726 -1.91485 0
M  V30 3568 H 334.426 2.31258 -3.16271 0
M  V30 3569 H 336.123 2.04571 -3.44894 0
M  V30 3570 H 332.713 0.8278 -4.2053 0
M  V30 3571 H 336.897 0.200262 -4.95896 0
M  V30 3572 H 332.153 -0.662907 -6.07796 0
M  V30 3573 H 336.327 -1.28537 -6.84435 0
M  V30 3574 H 333.954 -1.723 -7.40417 0
M  V30 3575 N 335.529 1.53961 0.336706 0
M  V30 3576 C 336.754 1.75797 1.10046 0
M  V30 3577 C 337.179 0.498985 1.81361 0
M  V30 3578 O 336.537 -0.548769 1.72795 0
M  V30 3579 C 336.585 2.94257 2.08436 0
M  V30 3580 O 335.689 2.64883 3.16087 0
M  V30 3581 H 335.03 0.582936 0.317934 0
M  V30 3582 H 337.56 2.00945 0.38501 0
M  V30 3583 H 337.57 3.21237 2.51537 0
M  V30 3584 H 336.245 3.85564 1.55927 0
M  V30 3585 H 334.822 2.48812 2.77753 0
M  V30 3586 N 337.007 -0.598083 1.45811 0
M  V30 3587 C 338.254 -1.35681 1.50323 0
M  V30 3588 C 338.582 -1.9393 0.148739 0
M  V30 3589 O 337.837 -1.76094 -0.853787 0
M  V30 3590 C 338.136 -2.51669 2.53766 0
M  V30 3591 C 337.802 -2.11508 3.98215 0
M  V30 3592 C 336.464 -2.0027 4.37545 0
M  V30 3593 C 338.816 -1.80308 4.89018 0
M  V30 3594 C 336.144 -1.56067 5.65562 0
M  V30 3595 C 338.496 -1.37589 6.17456 0
M  V30 3596 C 337.16 -1.24916 6.55708 0
M  V30 3597 H 336.43 -0.496492 0.550069 0
M  V30 3598 H 339.077 -0.675052 1.79207 0
M  V30 3599 H 337.382 -3.25225 2.18486 0
M  V30 3600 H 339.079 -3.09895 2.54492 0
M  V30 3601 H 335.669 -2.21185 3.67117 0
M  V30 3602 H 339.853 -1.87884 4.59362 0
M  V30 3603 H 335.109 -1.44886 5.93985 0
M  V30 3604 H 339.283 -1.12495 6.87254 0
M  V30 3605 H 336.91 -0.904386 7.54801 0
M  V30 3606 N 338.485 -1.33259 -0.841409 0
M  V30 3607 C 339.435 -1.19872 -1.93945 0
M  V30 3608 C 340.419 -0.102269 -1.60575 0
M  V30 3609 O 341.611 -0.330114 -1.73894 0
M  V30 3610 C 338.74 -0.937517 -3.30251 0
M  V30 3611 C 337.826 -2.07629 -3.69799 0
M  V30 3612 N 338.217 -3.32604 -3.81062 0
M  V30 3613 C 336.515 -1.98242 -3.9952 0
M  V30 3614 C 337.216 -4.07275 -4.15333 0
M  V30 3615 N 336.192 -3.35691 -4.27566 0
M  V30 3616 H 339.994 -2.14604 -2.00805 0
M  V30 3617 H 337.508 -1.2523 -1.03398 0
M  V30 3618 H 339.505 -0.822545 -4.08705 0
M  V30 3619 H 338.165 0.00128798 -3.247 0
M  V30 3620 H 339.176 -3.67382 -3.65035 0
M  V30 3621 H 335.853 -1.12005 -4.02195 0
M  V30 3622 H 337.243 -5.1511 -4.31406 0
M  V30 3623 N 339.963 1.05934 -1.16686 0
M  V30 3624 C 340.913 2.11764 -0.844978 0
M  V30 3625 C 341.897 1.59922 0.177178 0
M  V30 3626 O 343.089 1.76983 -0.0241768 0
M  V30 3627 C 340.218 3.41493 -0.351812 0
M  V30 3628 C 339.304 4.00152 -1.40496 0
M  V30 3629 N 339.695 4.32874 -2.61636 0
M  V30 3630 C 337.993 4.278 -1.26106 0
M  V30 3631 C 338.694 4.79552 -3.29249 0
M  V30 3632 N 337.67 4.79211 -2.56628 0
M  V30 3633 H 341.472 2.34916 -1.76612 0
M  V30 3634 H 338.986 1.23511 -1.05446 0
M  V30 3635 H 340.983 4.16773 -0.102796 0
M  V30 3636 H 339.643 3.19778 0.56322 0
M  V30 3637 H 340.654 4.23109 -2.98663 0
M  V30 3638 H 337.331 4.15511 -0.407081 0
M  V30 3639 H 338.721 5.14045 -4.32675 0
M  V30 3640 N 341.441 0.965919 1.2453 0
M  V30 3641 C 342.687 0.62776 1.92839 0
M  V30 3642 C 343.02 -0.834694 1.75347 0
M  V30 3643 O 342.295 -1.60031 1.10546 0
M  V30 3644 C 342.578 1.00109 3.45905 0
M  V30 3645 C 342.431 2.52011 3.72573 0
M  V30 3646 C 343.75 0.53435 4.36844 0
M  V30 3647 H 340.869 0.229537 0.700344 0
M  V30 3648 H 343.511 1.2046 1.46933 0
M  V30 3649 H 341.661 0.510238 3.85135 0
M  V30 3650 H 343.333 3.08559 3.42912 0
M  V30 3651 H 341.576 2.95287 3.17786 0
M  V30 3652 H 342.247 2.73183 4.79661 0
M  V30 3653 H 344.723 0.955565 4.04979 0
M  V30 3654 H 343.599 0.824152 5.42678 0
M  V30 3655 H 343.86 -0.565589 4.38467 0
M  V30 3656 N 342.919 -1.39368 0.735821 0
M  V30 3657 C 343.849 -2.33234 0.111506 0
M  V30 3658 C 344.83 -1.53954 -0.723334 0
M  V30 3659 O 346.015 -1.82344 -0.668147 0
M  V30 3660 C 343.145 -3.38057 -0.795917 0
M  V30 3661 C 342.099 -4.2795 -0.065172 0
M  V30 3662 C 341.425 -5.23479 -1.08967 0
M  V30 3663 C 342.725 -5.10741 1.09273 0
M  V30 3664 H 344.419 -2.85692 0.895571 0
M  V30 3665 H 341.965 -1.37364 0.432109 0
M  V30 3666 H 343.918 -4.02675 -1.24221 0
M  V30 3667 H 342.642 -2.8404 -1.61211 0
M  V30 3668 H 341.301 -3.64813 0.361511 0
M  V30 3669 H 340.949 -4.65758 -1.89944 0
M  V30 3670 H 340.649 -5.84472 -0.605489 0
M  V30 3671 H 342.173 -5.90974 -1.53565 0
M  V30 3672 H 343.587 -5.68699 0.724841 0
M  V30 3673 H 341.984 -5.8088 1.50659 0
M  V30 3674 H 343.054 -4.45525 1.91404 0
M  V30 3675 N 344.397 -0.483516 -1.5 0
M  V30 3676 C 345.622 0.0667119 -2.07293 0
M  V30 3677 C 346.047 1.3164 -1.3436 0
M  V30 3678 O 345.405 1.76945 -0.394987 0
M  V30 3679 C 345.453 0.321126 -3.59167 0
M  V30 3680 O 344.557 1.39927 -3.87936 0
M  V30 3681 H 343.898 -0.0184758 -0.663743 0
M  V30 3682 H 346.428 -0.678125 -1.93035 0
M  V30 3683 H 346.438 0.557906 -4.04168 0
M  V30 3684 H 345.113 -0.592007 -4.11665 0
M  V30 3685 H 343.69 1.14882 -3.54763 0
M  V30 3686 N 345.875 1.56104 -0.216619 0
M  V30 3687 C 346.805 2.23063 0.690296 0
M  V30 3688 C 347.786 1.20072 1.20485 0
M  V30 3689 O 348.971 1.48643 1.24976 0
M  V30 3690 C 346.101 2.90672 1.90072 0
M  V30 3691 C 345.055 4.00092 1.5202 0
M  V30 3692 C 344.381 4.54972 2.80899 0
M  V30 3693 C 345.681 5.17398 0.71391 0
M  V30 3694 H 347.375 2.99109 0.132038 0
M  V30 3695 H 344.921 1.43866 0.0620664 0
M  V30 3696 H 346.874 3.36204 2.54057 0
M  V30 3697 H 345.598 2.12066 2.48386 0
M  V30 3698 H 344.257 3.55283 0.903839 0
M  V30 3699 H 343.905 3.73102 3.37348 0
M  V30 3700 H 343.605 5.28817 2.56176 0
M  V30 3701 H 345.129 5.0322 3.45836 0
M  V30 3702 H 346.543 5.59342 1.25735 0
M  V30 3703 H 344.94 5.97444 0.563951 0
M  V30 3704 H 346.01 4.84088 -0.280527 0
M  V30 3705 N 347.353 -0.0568162 1.57498 0
M  V30 3706 C 348.581 -0.765626 1.92213 0
M  V30 3707 C 348.996 -1.70353 0.813961 0
M  V30 3708 O 348.353 -1.81268 -0.211701 0
M  V30 3709 C 348.404 -1.5465 3.2675 0
M  V30 3710 O 348.125 -0.646278 4.33307 0
M  V30 3711 C 349.626 -2.35497 3.75574 0
M  V30 3712 H 346.846 -0.216835 0.634999 0
M  V30 3713 H 349.39 -0.0226146 2.04487 0
M  V30 3714 H 347.545 -2.24165 3.15957 0
M  V30 3715 H 347.959 -1.19093 5.108 0
M  V30 3716 H 349.433 -2.85722 4.72299 0
M  V30 3717 H 349.91 -3.15692 3.05344 0
M  V30 3718 H 350.516 -1.7111 3.8936 0
M  V30 3719 N 348.832 -1.54138 -0.328536 0
M  V30 3720 C 350.08 -1.71765 -1.06496 0
M  V30 3721 C 350.401 -0.49149 -1.88704 0
M  V30 3722 O 349.671 0.494539 -1.89555 0
M  V30 3723 H 348.251 -0.633295 -0.396164 0
M  V30 3724 H 350.913 -1.91429 -0.366176 0
M  V30 3725 H 350.009 -2.5951 -1.73381 0
M  V30 3726 N 350.31 0.590341 -1.46126 0
M  V30 3727 C 351.587 1.35029 -1.41515 0
M  V30 3728 C 351.967 2.10888 -0.0946472 0
M  V30 3729 O 351.315 2.08998 0.923693 0
M  V30 3730 C 351.525 2.28269 -2.63997 0
M  V30 3731 C 352.873 2.90338 -3.09821 0
M  V30 3732 O 353.897 2.38585 -2.64492 0
M  V30 3733 O 352.756 3.84321 -3.88535 0
M  V30 3734 H 349.85 0.606317 -0.562413 0
M  V30 3735 H 352.396 0.611994 -1.58281 0
M  V30 3736 H 351.168 1.71591 -3.51671 0
M  V30 3737 H 350.791 3.0945 -2.49652 0
M  V30 3738 N 351.788 1.33704 0.83433 0
M  V30 3739 C 352.751 1.24244 1.92603 0
M  V30 3740 C 353.751 0.160383 1.59998 0
M  V30 3741 O 354.941 0.412228 1.69252 0
M  V30 3742 C 352.073 0.91555 3.28376 0
M  V30 3743 H 353.266 2.21287 2.02416 0
M  V30 3744 H 350.819 1.17827 1.02696 0
M  V30 3745 H 351.554 -0.0521886 3.24258 0
M  V30 3746 H 351.339 1.69811 3.53422 0
M  V30 3747 H 352.829 0.874231 4.08347 0
M  V30 3748 N 353.266 -1.05314 1.17247 0
M  V30 3749 C 354.198 -2.13023 0.845812 0
M  V30 3750 C 355.211 -1.62096 -0.151246 0
M  V30 3751 O 356.4 -1.78343 0.0748818 0
M  V30 3752 C 353.5 -3.38047 0.240292 0
M  V30 3753 C 352.673 -4.18255 1.27991 0
M  V30 3754 C 351.732 -5.21625 0.692375 0
M  V30 3755 O 350.758 -5.52619 1.36385 0
M  V30 3756 N 351.96 -5.78201 -0.516178 0
M  V30 3757 H 354.725 -2.41642 1.77283 0
M  V30 3758 H 352.286 -1.21401 1.07115 0
M  V30 3759 H 354.278 -4.04359 -0.16603 0
M  V30 3760 H 352.848 -3.06972 -0.590487 0
M  V30 3761 H 352.068 -3.47451 1.86203 0
M  V30 3762 H 353.356 -4.68643 1.98119 0
M  V30 3763 H 352.754 -5.55301 -1.07969 0
M  V30 3764 H 351.311 -6.4604 -0.86458 0
M  V30 3765 N 354.744 -0.972509 -1.24016 0
M  V30 3766 C 355.707 -0.511403 -2.23422 0
M  V30 3767 C 356.707 0.394679 -1.55881 0
M  V30 3768 O 357.897 0.189469 -1.73167 0
M  V30 3769 C 355.029 0.258769 -3.39916 0
M  V30 3770 H 356.222 -1.39024 -2.6573 0
M  V30 3771 H 353.775 -0.757585 -1.36713 0
M  V30 3772 H 354.51 1.1545 -3.03054 0
M  V30 3773 H 354.295 -0.391522 -3.9014 0
M  V30 3774 H 355.785 0.570244 -4.13688 0
M  V30 3775 N 356.222 1.38976 -0.743202 0
M  V30 3776 C 357.469 2.00343 -0.294752 0
M  V30 3777 C 357.797 1.58983 1.12047 0
M  V30 3778 O 357.052 0.813809 1.77977 0
M  V30 3779 C 357.351 3.55647 -0.353517 0
M  V30 3780 C 357.017 4.16685 -1.72292 0
M  V30 3781 C 355.679 4.3307 -2.09771 0
M  V30 3782 C 358.031 4.50464 -2.62168 0
M  V30 3783 C 355.359 4.80526 -3.36618 0
M  V30 3784 C 357.711 4.99332 -3.88395 0
M  V30 3785 C 356.375 5.13924 -4.25956 0
M  V30 3786 H 355.645 0.733108 -0.107857 0
M  V30 3787 H 358.292 1.6618 -0.951651 0
M  V30 3788 H 356.597 3.89884 0.386954 0
M  V30 3789 H 358.294 4.00998 0.0117269 0
M  V30 3790 H 354.884 4.04339 -1.42155 0
M  V30 3791 H 359.068 4.37416 -2.3448 0
M  V30 3792 H 354.324 4.90008 -3.65653 0
M  V30 3793 H 358.498 5.2444 -4.58187 0
M  V30 3794 H 356.125 5.50457 -5.2431 0
M  V30 3795 N 357.7 0.491464 1.49741 0
M  V30 3796 C 358.61 -0.296835 2.32715 0
M  V30 3797 C 359.626 -0.976536 1.44013 0
M  V30 3798 O 360.802 -0.960023 1.77047 0
M  V30 3799 C 357.867 -1.35288 3.19215 0
M  V30 3800 C 356.928 -0.687632 4.23757 0
M  V30 3801 C 356.161 -1.69336 5.06123 0
M  V30 3802 O 356.384 -2.92219 4.89861 0
M  V30 3803 O 355.318 -1.25394 5.88693 0
M  V30 3804 H 359.144 0.382048 3.01287 0
M  V30 3805 H 356.729 0.252953 1.47243 0
M  V30 3806 H 358.611 -1.96411 3.72828 0
M  V30 3807 H 357.286 -2.01487 2.53347 0
M  V30 3808 H 356.193 -0.0369159 3.74082 0
M  V30 3809 H 357.526 -0.0682566 4.92153 0
M  V30 3810 N 359.178 -1.55987 0.224894 0
M  V30 3811 C 360.594 -1.59066 -0.130426 0
M  V30 3812 C 360.794 -1.24176 -1.5869 0
M  V30 3813 O 359.85 -0.978592 -2.32766 0
M  V30 3814 C 361.163 -3.00042 0.198883 0
M  V30 3815 C 362.711 -3.1268 0.141391 0
M  V30 3816 C 363.186 -4.55839 0.444422 0
M  V30 3817 N 364.677 -4.6152 0.394115 0
M  V30 3818 C 365.412 -5.70231 0.602038 0
M  V30 3819 N 364.908 -6.87291 0.871914 0
M  V30 3820 N 366.701 -5.59555 0.534245 0
M  V30 3821 H 358.852 -1.76941 1.17497 0
M  V30 3822 H 361.115 -0.822604 0.471197 0
M  V30 3823 H 360.821 -3.30234 1.2099 0
M  V30 3824 H 360.695 -3.74075 -0.484535 0
M  V30 3825 H 363.082 -2.82283 -0.860265 0
M  V30 3826 H 363.163 -2.40969 0.858335 0
M  V30 3827 H 362.807 -4.86954 1.44353 0
M  V30 3828 H 362.737 -5.2578 -0.293752 0
M  V30 3829 H 365.228 -3.77405 0.193356 0
M  V30 3830 H 365.541 -7.66058 1.01858 0
M  V30 3831 H 363.886 -6.89028 0.909145 0
M  V30 3832 H 367.077 -4.6698 0.323612 0
M  V30 3833 H 367.25 -6.44211 0.699693 0
M  V30 3834 N 360.656 0.0484629 -1.57525 0
M  V30 3835 C 361.566 1.07241 -2.08654 0
M  V30 3836 C 362.582 1.409 -1.02095 0
M  V30 3837 O 363.758 1.50609 -1.33712 0
M  V30 3838 C 360.823 2.36008 -2.5397 0
M  V30 3839 C 359.884 2.09108 -3.7493 0
M  V30 3840 C 359.117 3.31736 -4.18075 0
M  V30 3841 O 359.34 4.41714 -3.60895 0
M  V30 3842 O 358.274 3.18576 -5.10679 0
M  V30 3843 H 362.1 0.667965 -2.96263 0
M  V30 3844 H 359.685 0.26417 -1.47046 0
M  V30 3845 H 361.567 3.11747 -2.83535 0
M  V30 3846 H 360.242 2.75786 -1.69481 0
M  V30 3847 H 359.149 1.31 -3.50414 0
M  V30 3848 H 360.482 1.74198 -4.60343 0
M  V30 3849 N 362.134 1.5431 0.320358 0
M  V30 3850 C 363.38 1.72924 1.05949 0
M  V30 3851 C 363.713 0.503185 1.87568 0
M  V30 3852 O 362.988 -0.499839 1.87968 0
M  V30 3853 C 363.271 3.00676 1.98156 0
M  V30 3854 C 363.124 4.3354 1.19845 0
M  V30 3855 C 364.443 3.24198 2.9763 0
M  V30 3856 H 361.562 0.629195 0.383774 0
M  V30 3857 H 364.204 1.87008 0.335854 0
M  V30 3858 H 362.354 2.888 2.59859 0
M  V30 3859 H 364.026 4.57305 0.605773 0
M  V30 3860 H 362.269 4.309 0.500784 0
M  V30 3861 H 362.94 5.19156 1.87567 0
M  V30 3862 H 365.416 3.35557 2.4605 0
M  V30 3863 H 364.292 4.14938 3.59329 0
M  V30 3864 H 364.553 2.41577 3.7026 0
M  V30 3865 N 363.613 -0.582584 1.46437 0
M  V30 3866 C 364.861 -1.33814 1.51453 0
M  V30 3867 C 365.182 -1.94277 0.167792 0
M  V30 3868 O 364.452 -1.78566 -0.805677 0
M  V30 3869 H 363.032 -0.496838 0.557818 0
M  V30 3870 H 365.694 -0.682281 1.82568 0
M  V30 3871 H 364.79 -2.14479 2.26728 0
M  V30 3872 N 365.091 -1.34144 -0.827227 0
M  V30 3873 C 366.507 -1.13732 -1.11969 0
M  V30 3874 C 366.707 0.0640463 -2.01398 0
M  V30 3875 O 365.763 0.740856 -2.41387 0
M  V30 3876 C 367.076 -2.43047 -1.77055 0
M  V30 3877 C 368.624 -2.49063 -1.89569 0
M  V30 3878 C 369.099 -3.78369 -2.58072 0
M  V30 3879 N 370.59 -3.79505 -2.65575 0
M  V30 3880 C 371.325 -4.76274 -3.19297 0
M  V30 3881 N 370.821 -5.83424 -3.73616 0
M  V30 3882 N 372.614 -4.63735 -3.17658 0
M  V30 3883 H 364.765 -2.11126 -0.232296 0
M  V30 3884 H 367.028 -0.933424 -0.165602 0
M  V30 3885 H 366.734 -3.31025 -1.18807 0
M  V30 3886 H 366.608 -2.56066 -2.76966 0
M  V30 3887 H 368.995 -1.61527 -2.46968 0
M  V30 3888 H 369.076 -2.39975 -0.885745 0
M  V30 3889 H 368.72 -4.66293 -2.01329 0
M  V30 3890 H 368.65 -3.84737 -3.59562 0
M  V30 3891 H 371.141 -3.02074 -2.27068 0
M  V30 3892 H 371.454 -6.53282 -4.12846 0
M  V30 3893 H 369.799 -5.87143 -3.71871 0
M  V30 3894 H 372.99 -3.79177 -2.74486 0
M  V30 3895 H 373.163 -5.39318 -3.59221 0
M  V30 3896 N 366.569 1.04691 -1.17803 0
M  V30 3897 C 367.501 2.12571 -0.857097 0
M  V30 3898 C 368.514 1.62174 0.142647 0
M  V30 3899 O 369.703 1.78301 -0.0843387 0
M  V30 3900 C 366.803 3.37915 -0.258216 0
M  V30 3901 C 365.976 4.1757 -1.30207 0
M  V30 3902 C 365.035 5.2125 -0.720029 0
M  V30 3903 O 364.061 5.51888 -1.39314 0
M  V30 3904 N 365.263 5.78466 0.485507 0
M  V30 3905 H 368.028 2.40698 -1.78562 0
M  V30 3906 H 365.589 1.20831 -1.07757 0
M  V30 3907 H 367.581 4.04442 0.144584 0
M  V30 3908 H 366.151 3.07281 0.574199 0
M  V30 3909 H 365.371 3.46458 -1.88043 0
M  V30 3910 H 366.659 4.67586 -2.00601 0
M  V30 3911 H 366.057 5.55866 1.05022 0
M  V30 3912 H 364.614 6.4649 0.830307 0
M  V30 3913 N 368.047 0.979072 1.23499 0
M  V30 3914 C 369.272 0.664845 1.96455 0
M  V30 3915 C 369.697 -0.761287 1.72006 0
M  V30 3916 O 369.055 -1.51837 0.990713 0
M  V30 3917 C 369.103 0.959479 3.47601 0
M  V30 3918 O 368.207 0.0508168 4.12369 0
M  V30 3919 H 367.548 0.250185 0.615064 0
M  V30 3920 H 370.078 1.31231 1.5697 0
M  V30 3921 H 370.088 0.895642 3.98048 0
M  V30 3922 H 368.763 1.99876 3.64723 0
M  V30 3923 H 367.34 0.16895 3.72517 0
M  V30 3924 N 369.525 -1.3858 0.750561 0
M  V30 3925 C 370.771 -2.00481 0.305825 0
M  V30 3926 C 371.104 -1.5944 -1.10872 0
M  V30 3927 O 370.379 -0.83052 -1.75877 0
M  V30 3928 C 370.662 -3.5758 0.425287 0
M  V30 3929 C 370.515 -4.08594 1.88072 0
M  V30 3930 C 371.834 -4.39719 -0.183122 0
M  V30 3931 H 368.953 -0.728348 0.112598 0
M  V30 3932 H 371.595 -1.64566 0.949638 0
M  V30 3933 H 369.745 -3.88306 -0.122828 0
M  V30 3934 H 371.417 -3.88523 2.48691 0
M  V30 3935 H 369.66 -3.61574 2.39681 0
M  V30 3936 H 370.331 -5.177 1.91548 0
M  V30 3937 H 372.807 -4.15128 0.284303 0
M  V30 3938 H 371.683 -5.48856 -0.0692757 0
M  V30 3939 H 371.944 -4.23434 -1.27106 0
M  V30 3940 N 371.003 -0.499398 -1.49478 0
M  V30 3941 C 372.228 0.044722 -2.07352 0
M  V30 3942 C 372.653 1.30207 -1.35749 0
M  V30 3943 O 372.011 1.76516 -0.413732 0
M  V30 3944 C 372.059 0.283013 -3.59488 0
M  V30 3945 O 371.163 1.35804 -3.89398 0
M  V30 3946 H 370.504 -0.0255147 -0.66351 0
M  V30 3947 H 373.034 -0.698561 -1.92305 0
M  V30 3948 H 373.044 0.515007 -4.04737 0
M  V30 3949 H 371.719 -0.635636 -4.11014 0
M  V30 3950 H 370.296 1.11113 -3.55961 0
M  V30 3951 N 372.481 1.55866 -0.233164 0
M  V30 3952 C 373.729 1.9821 0.394593 0
M  V30 3953 C 374.05 1.12234 1.59463 0
M  V30 3954 O 373.32 0.201981 1.94856 0
M  V30 3955 H 371.9 0.732034 0.148778 0
M  V30 3956 H 374.562 1.92107 -0.32876 0
M  V30 3957 H 373.658 3.03845 0.713063 0
M  V30 3958 N 373.959 -0.0401083 1.57549 0
M  V30 3959 C 374.907 -1.06264 2.06908 0
M  V30 3960 C 375.901 -1.38132 0.980608 0
M  V30 3961 O 377.107 -1.37167 1.16556 0
M  V30 3962 H 373.482 -0.360166 0.660139 0
M  V30 3963 H 375.453 -0.620445 2.91878 0
M  V30 3964 C 374.202 -2.35846 2.55483 0
M  V30 3965 H 373.525 -2.12183 3.38849 0
M  V30 3966 H 374.965 -3.05765 2.93741 0
M  V30 3967 C 373.424 -3.0404 1.45126 0
M  V30 3968 O 373.954 -3.93424 0.811216 0
M  V30 3969 N 372.16 -2.65184 1.18852 0
M  V30 3970 H 371.707 -1.92584 1.71083 0
M  V30 3971 H 371.665 -3.1113 0.452244 0
M  V30 3972 N 375.437 -1.54477 -0.31217 0
M  V30 3973 C 376.367 -1.87652 -1.38957 0
M  V30 3974 C 377.348 -0.734358 -1.53431 0
M  V30 3975 O 378.533 -0.98911 -1.67123 0
M  V30 3976 C 375.663 -2.11396 -2.75552 0
M  V30 3977 C 374.617 -3.27243 -2.75855 0
M  V30 3978 C 373.943 -3.36382 -4.15633 0
M  V30 3979 C 375.243 -4.64622 -2.38587 0
M  V30 3980 H 376.937 -2.77887 -1.11442 0
M  V30 3981 H 374.483 -1.33707 -0.534655 0
M  V30 3982 H 376.436 -2.33189 -3.51 0
M  V30 3983 H 375.16 -1.17921 -3.04569 0
M  V30 3984 H 373.819 -3.05356 -2.02863 0
M  V30 3985 H 373.467 -2.40445 -4.41809 0
M  V30 3986 H 373.167 -4.14249 -4.1674 0
M  V30 3987 H 374.691 -3.60422 -4.92877 0
M  V30 3988 H 376.105 -4.86219 -3.03749 0
M  V30 3989 H 374.502 -5.45121 -2.50925 0
M  V30 3990 H 375.572 -4.66097 -1.33723 0
M  V30 3991 N 376.915 0.57481 -1.46744 0
M  V30 3992 C 378.192 1.3352 -1.4294 0
M  V30 3993 C 378.572 2.10775 -0.117009 0
M  V30 3994 O 377.92 2.09966 0.901474 0
M  V30 3995 C 378.13 2.25456 -2.66403 0
M  V30 3996 C 379.478 2.87035 -3.12883 0
M  V30 3997 O 380.502 2.35766 -2.67007 0
M  V30 3998 O 379.361 3.80179 -3.92589 0
M  V30 3999 H 376.455 0.600318 -0.568812 0
M  V30 4000 H 379.001 0.595171 -1.58921 0
M  V30 4001 H 377.773 1.67851 -3.53471 0
M  V30 4002 H 377.396 3.06785 -2.52921 0
M  V30 4003 N 378.394 1.34581 0.820102 0
M  V30 4004 C 379.619 1.30333 1.61332 0
M  V30 4005 C 380.044 -0.119339 1.87721 0
M  V30 4006 O 379.402 -1.08197 1.45475 0
M  V30 4007 C 379.45 2.10258 2.92957 0
M  V30 4008 O 378.554 1.47404 3.85157 0
M  V30 4009 H 377.895 0.447488 0.490561 0
M  V30 4010 H 380.425 1.77425 1.01889 0
M  V30 4011 H 380.435 2.21718 3.42498 0
M  V30 4012 H 379.11 3.13693 2.73074 0
M  V30 4013 H 377.687 1.44703 3.43679 0
M  V30 4014 N 379.872 -1.04064 1.18357 0
M  V30 4015 C 381.283 -1.58719 0.98312 0
M  V30 4016 C 381.634 -1.90556 -0.467193 0
M  V30 4017 O 380.759 -1.69561 -1.34454 0
M  V30 4018 C 381.354 -2.88379 1.77828 0
M  V30 4019 C 379.913 -3.3965 1.62218 0
M  V30 4020 C 379.06 -2.13235 1.77274 0
M  V30 4021 H 382.011 -0.867359 1.32901 0
M  V30 4022 H 382.032 -3.58773 1.26737 0
M  V30 4023 H 381.544 -2.65176 2.83379 0
M  V30 4024 H 379.645 -3.67866 0.592036 0
M  V30 4025 H 379.758 -4.13475 2.42023 0
M  V30 4026 H 378.122 -2.24542 1.20221 0
M  V30 4027 H 378.905 -1.92487 2.8426 0
M  V30 4028 N 381.35 -0.985608 -1.22978 0
M  V30 4029 C 382.26 -0.538548 -2.28335 0
M  V30 4030 C 383.276 0.409163 -1.69121 0
M  V30 4031 O 384.452 0.277797 -1.99475 0
M  V30 4032 C 381.517 0.146867 -3.46389 0
M  V30 4033 C 380.578 -0.842896 -4.20944 0
M  V30 4034 C 379.811 -0.190095 -5.33361 0
M  V30 4035 O 380.034 1.01767 -5.61248 0
M  V30 4036 O 378.968 -0.891289 -5.95264 0
M  V30 4037 H 382.794 -1.41487 -2.68729 0
M  V30 4038 H 380.379 -0.753495 -1.29007 0
M  V30 4039 H 382.261 0.531125 -4.1804 0
M  V30 4040 H 380.936 0.997871 -3.07935 0
M  V30 4041 H 379.843 -1.27795 -3.51595 0
M  V30 4042 H 381.176 -1.66287 -4.6326 0
M  V30 4043 N 382.828 1.3818 -0.7579 0
M  V30 4044 C 384.076 1.99624 -0.315361 0
M  V30 4045 C 384.397 1.60464 1.10799 0
M  V30 4046 O 383.667 0.863507 1.75842 0
M  V30 4047 H 382.247 0.73831 -0.113611 0
M  V30 4048 H 384.909 1.68878 -0.972952 0
M  V30 4049 H 384.005 3.09754 -0.381931 0
M  V30 4050 N 384.306 0.507319 1.49211 0
M  V30 4051 C 385.554 -0.0348839 2.0207 0
M  V30 4052 C 385.875 -1.36898 1.38866 0
M  V30 4053 O 385.145 -1.88133 0.546151 0
M  V30 4054 H 383.725 -0.0158812 0.746831 0
M  V30 4055 H 386.387 0.665998 1.83168 0
M  V30 4056 H 385.483 -0.159917 3.1169 0
M  V30 4057 N 385.784 -1.5574 0.241426 0
M  V30 4058 C 387.031 -1.9881 -0.384836 0
M  V30 4059 C 387.359 -1.12947 -1.58346 0
M  V30 4060 O 386.614 -0.178993 -1.9488 0
M  V30 4061 C 386.913 -3.47308 -0.843317 0
M  V30 4062 C 386.579 -4.50223 0.246946 0
M  V30 4063 C 385.241 -4.78088 0.546399 0
M  V30 4064 C 387.593 -5.11841 0.983282 0
M  V30 4065 C 384.921 -5.64846 1.58636 0
M  V30 4066 C 387.273 -5.99727 2.01272 0
M  V30 4067 C 385.937 -6.25927 2.31888 0
M  V30 4068 H 385.207 -0.727496 -0.140821 0
M  V30 4069 H 387.854 -1.8831 0.348106 0
M  V30 4070 H 386.159 -3.55112 -1.65537 0
M  V30 4071 H 387.856 -3.78017 -1.33806 0
M  V30 4072 H 384.446 -4.286 0.00340639 0
M  V30 4073 H 388.63 -4.90366 0.765182 0
M  V30 4074 H 383.886 -5.83403 1.82896 0
M  V30 4075 H 388.06 -6.46517 2.58823 0
M  V30 4076 H 385.687 -6.92949 3.12611 0
M  V30 4077 N 387.262 0.0317525 -1.57568 0
M  V30 4078 C 388.539 0.758366 -1.803 0
M  V30 4079 C 388.919 1.93718 -0.838845 0
M  V30 4080 O 388.267 2.28187 0.119571 0
M  V30 4081 C 388.477 1.19392 -3.27943 0
M  V30 4082 C 389.825 1.61094 -3.92854 0
M  V30 4083 O 390.849 1.28857 -3.32076 0
M  V30 4084 O 389.708 2.20918 -4.99858 0
M  V30 4085 H 386.802 0.366514 -0.741348 0
M  V30 4086 H 389.348 0.00873765 -1.69698 0
M  V30 4087 H 388.12 0.352275 -3.89711 0
M  V30 4088 H 387.743 2.00365 -3.43424 0
M  V30 4089 N 388.74 1.54641 0.303973 0
M  V30 4090 C 389.703 1.84646 1.35789 0
M  V30 4091 C 390.703 0.7192 1.4382 0
M  V30 4092 O 391.893 0.987491 1.43507 0
M  V30 4093 C 389.025 2.02407 2.74307 0
M  V30 4094 H 390.218 2.78829 1.10429 0
M  V30 4095 H 387.771 1.46658 0.540487 0
M  V30 4096 H 388.506 1.10502 3.04893 0
M  V30 4097 H 388.291 2.84453 2.69868 0
M  V30 4098 H 389.781 2.27002 3.50514 0
M  V30 4099 N 390.218 -0.567019 1.47046 0
M  V30 4100 C 391.467 -1.32091 1.5243 0
M  V30 4101 C 391.78 -1.94704 0.187021 0
M  V30 4102 O 392.986 -2.7124 0.118771 0
M  V30 4103 C 391.442 -2.39479 2.68659 0
M  V30 4104 C 391.05 -1.831 4.08874 0
M  V30 4105 C 392.794 -3.16111 2.83327 0
M  V30 4106 C 390.701 -2.8821 5.16419 0
M  V30 4107 H 389.631 -0.496629 0.56734 0
M  V30 4108 H 392.282 -0.603354 1.73297 0
M  V30 4109 H 390.664 -3.14105 2.41152 0
M  V30 4110 H 391.838 -1.14913 4.46242 0
M  V30 4111 H 390.153 -1.19085 3.99008 0
M  V30 4112 H 392.75 -3.94585 3.60842 0
M  V30 4113 H 393.093 -3.69686 1.91411 0
M  V30 4114 H 393.626 -2.48595 3.10556 0
M  V30 4115 H 390.365 -2.39504 6.10179 0
M  V30 4116 H 389.885 -3.54839 4.8358 0
M  V30 4117 H 391.564 -3.51881 5.42945 0
M  V30 4118 N 391.696 -1.35014 -0.812953 0
M  V30 4119 C 392.626 -1.30069 -1.93919 0
M  V30 4120 C 393.607 -0.176275 -1.69184 0
M  V30 4121 O 394.792 -0.370227 -1.90638 0
M  V30 4122 C 391.922 -1.06547 -3.30552 0
M  V30 4123 C 390.876 -2.15561 -3.69753 0
M  V30 4124 C 390.202 -1.77214 -5.04479 0
M  V30 4125 C 391.502 -3.57476 -3.808 0
M  V30 4126 H 393.196 -2.24303 -1.98314 0
M  V30 4127 H 390.742 -1.07977 -0.952736 0
M  V30 4128 H 392.695 -1.01729 -4.08937 0
M  V30 4129 H 391.419 -0.0875719 -3.26483 0
M  V30 4130 H 390.078 -2.19466 -2.9365 0
M  V30 4131 H 389.726 -0.780589 -4.96906 0
M  V30 4132 H 389.426 -2.50184 -5.31678 0
M  V30 4133 H 390.95 -1.7391 -5.8531 0
M  V30 4134 H 392.364 -3.55929 -4.4943 0
M  V30 4135 H 390.761 -4.29152 -4.19462 0
M  V30 4136 H 391.831 -3.94091 -2.82525 0
M  V30 4137 N 393.175 1.03435 -1.18907 0
M  V30 4138 C 394.107 2.1165 -0.879595 0
M  V30 4139 C 395.12 1.62316 0.125439 0
M  V30 4140 O 396.309 1.78201 -0.103245 0
M  V30 4141 C 393.409 3.37622 -0.294042 0
M  V30 4142 C 392.582 4.16166 -1.34629 0
M  V30 4143 C 391.641 5.20457 -0.775274 0
M  V30 4144 O 390.667 5.50379 -1.4516 0
M  V30 4145 N 391.869 5.78949 0.424126 0
M  V30 4146 H 394.634 2.38791 -1.81105 0
M  V30 4147 H 392.195 1.19681 -1.09032 0
M  V30 4148 H 394.187 4.04572 0.101679 0
M  V30 4149 H 392.757 3.07873 0.541575 0
M  V30 4150 H 391.977 3.44444 -1.91707 0
M  V30 4151 H 393.265 4.65432 -2.05549 0
M  V30 4152 H 392.663 5.56948 0.991209 0
M  V30 4153 H 391.22 6.47334 0.761691 0
M  V30 4154 N 394.653 0.992116 1.22453 0
M  V30 4155 C 395.616 0.546883 2.2258 0
M  V30 4156 C 396.616 -0.369829 1.56489 0
M  V30 4157 O 397.806 -0.161896 1.73446 0
M  V30 4158 C 394.938 -0.204659 3.40285 0
M  V30 4159 H 396.131 1.43234 2.63484 0
M  V30 4160 H 393.684 0.779239 1.3549 0
M  V30 4161 H 394.419 -1.10614 3.04853 0
M  V30 4162 H 394.204 0.45354 3.89468 0
M  V30 4163 H 395.694 -0.504358 4.14543 0
M  V30 4164 N 396.131 -1.37776 0.765217 0
M  V30 4165 C 397.094 -2.28686 0.153416 0
M  V30 4166 C 398.094 -1.47727 -0.635081 0
M  V30 4167 O 399.284 -1.68027 -0.459632 0
M  V30 4168 C 396.416 -3.31608 -0.790495 0
M  V30 4169 H 397.609 -2.84297 0.954723 0
M  V30 4170 H 395.162 -1.46932 0.53299 0
M  V30 4171 H 395.897 -2.81109 -1.61705 0
M  V30 4172 H 395.682 -3.9144 -0.227348 0
M  V30 4173 H 397.172 -3.99559 -1.21419 0
M  V30 4174 N 397.609 -0.515225 -1.4894 0
M  V30 4175 C 398.539 0.244628 -2.32215 0
M  V30 4176 C 399.52 0.949136 -1.41157 0
M  V30 4177 O 400.705 0.937783 -1.70057 0
M  V30 4178 C 397.835 1.30096 -3.22013 0
M  V30 4179 C 396.789 0.715486 -4.21977 0
M  V30 4180 C 396.115 1.87339 -5.00808 0
M  V30 4181 C 397.415 -0.302982 -5.2142 0
M  V30 4182 H 399.109 -0.450501 -2.95991 0
M  V30 4183 H 396.655 -0.218098 -1.42339 0
M  V30 4184 H 398.608 1.84037 -3.79089 0
M  V30 4185 H 397.332 2.02547 -2.56207 0
M  V30 4186 H 395.991 0.197715 -3.66066 0
M  V30 4187 H 395.639 2.58592 -4.31438 0
M  V30 4188 H 395.339 1.48764 -5.68457 0
M  V30 4189 H 396.863 2.41686 -5.60732 0
M  V30 4190 H 398.277 0.148802 -5.73107 0
M  V30 4191 H 396.674 -0.60532 -5.97039 0
M  V30 4192 H 397.744 -1.21395 -4.69459 0
M  V30 4193 N 399.087 1.5561 -0.249682 0
M  V30 4194 C 400.327 2.00916 0.37579 0
M  V30 4195 C 400.691 1.13409 1.54927 0
M  V30 4196 O 401.892 1.48183 2.24266 0
M  V30 4197 C 400.163 3.48949 0.772633 0
M  V30 4198 S 401.722 4.16261 1.38824 0
M  V30 4199 H 398.54 0.70112 0.118117 0
M  V30 4200 H 401.142 1.92052 -0.365567 0
M  V30 4201 H 399.846 4.103 -0.090683 0
M  V30 4202 H 399.377 3.61745 1.5461 0
M  V30 4203 H 401.392 4.17778 2.67724 0
M  V30 4204 N 400.565 -0.0233959 1.57583 0
M  V30 4205 C 401.497 -1.04994 2.03737 0
M  V30 4206 C 402.51 -1.32125 0.951152 0
M  V30 4207 O 403.699 -1.29512 1.22837 0
M  V30 4208 C 400.799 -2.39026 2.40249 0
M  V30 4209 C 399.972 -2.31171 3.7132 0
M  V30 4210 C 399.031 -3.47698 3.94959 0
M  V30 4211 O 398.057 -3.26937 4.65941 0
M  V30 4212 N 399.259 -4.6976 3.41037 0
M  V30 4213 H 402.024 -0.656507 2.92421 0
M  V30 4214 H 399.585 -0.211235 1.60516 0
M  V30 4215 H 401.577 -3.15712 2.53196 0
M  V30 4216 H 400.147 -2.70194 1.57207 0
M  V30 4217 H 399.367 -1.39547 3.68674 0
M  V30 4218 H 400.655 -2.23071 4.57293 0
M  V30 4219 H 400.053 -4.89528 2.83512 0
M  V30 4220 H 398.61 -5.43791 3.59353 0
M  V30 4221 N 402.043 -1.548 -0.295768 0
M  V30 4222 C 402.953 -1.89177 -1.38742 0
M  V30 4223 C 403.969 -0.786481 -1.55211 0
M  V30 4224 O 405.145 -1.08344 -1.69775 0
M  V30 4225 C 402.21 -2.13663 -2.73036 0
M  V30 4226 C 401.271 -3.37349 -2.65508 0
M  V30 4227 C 400.504 -3.60658 -3.93398 0
M  V30 4228 O 400.727 -2.86882 -4.93006 0
M  V30 4229 O 399.661 -4.54179 -3.94975 0
M  V30 4230 H 403.487 -2.82059 -1.12589 0
M  V30 4231 H 401.072 -1.41056 -0.492295 0
M  V30 4232 H 402.954 -2.3094 -3.52484 0
M  V30 4233 H 401.629 -1.23967 -2.99022 0
M  V30 4234 H 400.536 -3.25431 -1.84514 0
M  V30 4235 H 401.869 -4.27192 -2.44474 0
M  V30 4236 N 403.521 0.559213 -1.47345 0
M  V30 4237 C 404.453 1.68161 -1.55738 0
M  V30 4238 C 405.466 1.56636 -0.443744 0
M  V30 4239 O 406.655 1.6363 -0.713258 0
M  V30 4240 C 403.755 3.06611 -1.4437 0
M  V30 4241 C 402.928 3.4391 -2.70268 0
M  V30 4242 C 401.987 4.61515 -2.52765 0
M  V30 4243 O 401.013 4.66197 -3.26572 0
M  V30 4244 N 402.215 5.57883 -1.6046 0
M  V30 4245 H 404.98 1.61408 -2.52522 0
M  V30 4246 H 402.541 0.7458 -1.43699 0
M  V30 4247 H 404.533 3.83117 -1.30398 0
M  V30 4248 H 403.103 3.07602 -0.556766 0
M  V30 4249 H 402.323 2.56873 -2.99015 0
M  V30 4250 H 403.611 3.65605 -3.53851 0
M  V30 4251 H 403.009 5.56855 -0.996422 0
M  V30 4252 H 401.566 6.33723 -1.52441 0
M  V30 4253 N 404.999 1.35443 0.805782 0
M  V30 4254 C 406.248 1.28097 1.55801 0
M  V30 4255 C 406.561 -0.142428 1.95081 0
M  V30 4256 O 407.767 -0.33817 2.69386 0
M  V30 4257 C 406.223 2.24653 2.81174 0
M  V30 4258 C 405.831 3.72342 2.49129 0
M  V30 4259 C 407.575 2.2625 3.59181 0
M  V30 4260 C 405.482 4.60719 3.70799 0
M  V30 4261 H 404.412 0.475937 0.584808 0
M  V30 4262 H 407.063 1.60712 0.885661 0
M  V30 4263 H 405.445 1.85011 3.50124 0
M  V30 4264 H 406.619 4.20624 1.88181 0
M  V30 4265 H 404.934 3.73361 1.84366 0
M  V30 4266 H 407.531 2.89495 4.49552 0
M  V30 4267 H 407.874 1.26647 3.96568 0
M  V30 4268 H 408.407 2.64426 2.97193 0
M  V30 4269 H 405.146 5.61324 3.3852 0
M  V30 4270 H 404.666 4.17163 4.3097 0
M  V30 4271 H 406.345 4.76182 4.38018 0
M  V30 4272 N 406.477 -1.02803 1.19454 0
M  V30 4273 C 407.725 -1.75869 0.995722 0
M  V30 4274 C 408.046 -1.89138 -0.474543 0
M  V30 4275 O 407.316 -1.42558 -1.34366 0
M  V30 4276 H 405.896 -0.651511 0.365435 0
M  V30 4277 H 408.558 -1.24004 1.50363 0
M  V30 4278 H 407.654 -2.76661 1.44447 0
M  V30 4279 N 407.956 -0.998596 -1.21925 0
M  V30 4280 C 409.202 -0.688337 -1.91399 0
M  V30 4281 C 409.557 0.771805 -1.76241 0
M  V30 4282 O 408.85 1.55153 -1.1242 0
M  V30 4283 C 409.044 -1.03648 -3.42041 0
M  V30 4284 C 408.873 -2.52892 -3.71855 0
M  V30 4285 C 407.643 -3.19389 -3.91559 0
M  V30 4286 C 409.841 -3.5103 -3.75875 0
M  V30 4287 N 407.823 -4.5805 -4.08734 0
M  V30 4288 C 409.194 -4.75174 -3.98259 0
M  V30 4289 C 411.249 -3.45257 -3.58751 0
M  V30 4290 C 409.952 -5.94247 -4.05294 0
M  V30 4291 C 411.978 -4.63712 -3.67049 0
M  V30 4292 C 411.34 -5.86658 -3.89887 0
M  V30 4293 H 407.439 -0.303251 -0.720807 0
M  V30 4294 H 410.023 -1.27977 -1.46731 0
M  V30 4295 H 408.194 -0.473569 -3.85502 0
M  V30 4296 H 409.926 -0.681619 -3.98919 0
M  V30 4297 H 406.681 -2.69846 -3.89205 0
M  V30 4298 H 407.105 -5.29989 -4.21237 0
M  V30 4299 H 411.747 -2.51215 -3.40075 0
M  V30 4300 H 409.465 -6.88687 -4.22772 0
M  V30 4301 H 413.051 -4.6084 -3.5513 0
M  V30 4302 H 411.931 -6.76786 -3.96144 0
M  V30 4303 N 409.434 1.37368 -0.772513 0
M  V30 4304 C 410.85 1.53059 -0.452231 0
M  V30 4305 C 411.05 1.73065 1.03203 0
M  V30 4306 O 410.106 1.75245 1.81784 0
M  V30 4307 C 411.419 2.72659 -1.26797 0
M  V30 4308 C 412.967 2.86521 -1.25995 0
M  V30 4309 C 413.442 4.09105 -2.05905 0
M  V30 4310 N 414.933 4.16219 -2.03263 0
M  V30 4311 C 415.668 5.10107 -2.61875 0
M  V30 4312 N 415.164 6.09547 -3.29278 0
M  V30 4313 N 416.957 5.02596 -2.51701 0
M  V30 4314 H 409.108 1.22634 -1.7342 0
M  V30 4315 H 411.371 0.597206 -0.736239 0
M  V30 4316 H 411.077 2.64343 -2.31982 0
M  V30 4317 H 410.951 3.66363 -0.897672 0
M  V30 4318 H 413.338 2.94308 -0.216081 0
M  V30 4319 H 413.419 1.93774 -1.66989 0
M  V30 4320 H 413.063 4.0208 -3.10313 0
M  V30 4321 H 412.993 5.00968 -1.62292 0
M  V30 4322 H 415.484 3.45012 -1.54192 0
M  V30 4323 H 415.797 6.77718 -3.71374 0
M  V30 4324 H 414.142 6.09824 -3.33377 0
M  V30 4325 H 417.333 4.23855 -1.98657 0
M  V30 4326 H 417.506 5.75582 -2.97673 0
M  V30 4327 N 410.912 0.523116 1.48665 0
M  V30 4328 C 411.86 -0.256859 2.31177 0
M  V30 4329 C 412.854 -0.94199 1.40794 0
M  V30 4330 O 414.06 -0.867157 1.57735 0
M  V30 4331 H 410.435 -0.1017 0.745091 0
M  V30 4332 H 412.406 0.458739 2.94853 0
M  V30 4333 C 411.155 -1.29503 3.22683 0
M  V30 4334 H 410.478 -0.777248 3.92172 0
M  V30 4335 H 411.918 -1.81233 3.83315 0
M  V30 4336 C 410.377 -2.32501 2.43813 0
M  V30 4337 O 410.907 -3.3881 2.15803 0
M  V30 4338 N 409.113 -2.05538 2.05432 0
M  V30 4339 H 408.66 -1.19104 2.28412 0
M  V30 4340 H 408.618 -2.74676 1.52973 0
M  V30 4341 N 412.39 -1.55475 0.257931 0
M  V30 4342 C 413.636 -1.99502 -0.364266 0
M  V30 4343 C 413.969 -1.146 -1.56782 0
M  V30 4344 O 413.244 -0.211968 -1.93342 0
M  V30 4345 C 413.527 -3.51917 -0.763333 0
M  V30 4346 C 413.38 -4.4758 0.446371 0
M  V30 4347 C 414.699 -4.09742 -1.60623 0
M  V30 4348 H 411.818 -0.725277 -0.130929 0
M  V30 4349 H 414.46 -1.8653 0.361446 0
M  V30 4350 H 412.61 -3.63101 -1.38166 0
M  V30 4351 H 414.282 -4.48362 1.08487 0
M  V30 4352 H 412.525 -4.19947 1.08753 0
M  V30 4353 H 413.196 -5.51862 0.123645 0
M  V30 4354 H 415.672 -4.01727 -1.08418 0
M  V30 4355 H 414.548 -5.16631 -1.85429 0
M  V30 4356 H 414.809 -3.58889 -2.58169 0
M  V30 4357 N 413.868 0.0150385 -1.57593 0
M  V30 4358 C 415.093 0.718067 -1.94573 0
M  V30 4359 C 415.518 1.6734 -0.859005 0
M  V30 4360 O 414.876 1.80362 0.184147 0
M  V30 4361 C 414.924 1.43918 -3.30636 0
M  V30 4362 O 414.028 2.55299 -3.23876 0
M  V30 4363 H 413.369 0.192125 -0.635597 0
M  V30 4364 H 415.899 -0.0336708 -2.04572 0
M  V30 4365 H 415.909 1.80598 -3.65853 0
M  V30 4366 H 414.584 0.738619 -4.09289 0
M  V30 4367 H 413.161 2.21058 -3.00312 0
M  V30 4368 N 415.346 1.54954 0.287554 0
M  V30 4369 C 416.762 1.46469 0.633964 0
M  V30 4370 C 416.962 0.666865 1.90145 0
M  V30 4371 O 416.018 0.179906 2.51858 0
M  V30 4372 C 417.331 2.90556 0.774454 0
M  V30 4373 C 418.879 3.00681 0.869462 0
M  V30 4374 C 419.354 4.45993 1.04184 0
M  V30 4375 N 420.845 4.4976 1.10772 0
M  V30 4376 C 421.58 5.59393 1.25964 0
M  V30 4377 N 421.076 6.78923 1.37968 0
M  V30 4378 N 422.869 5.47107 1.28959 0
M  V30 4379 H 415.02 2.05288 -0.545041 0
M  V30 4380 H 417.283 0.930305 -0.182308 0
M  V30 4381 H 416.989 3.51594 -0.086207 0
M  V30 4382 H 416.863 3.38743 1.6593 0
M  V30 4383 H 419.25 2.39749 1.7206 0
M  V30 4384 H 419.331 2.55769 -0.0396831 0
M  V30 4385 H 418.975 5.07524 0.195422 0
M  V30 4386 H 418.905 4.88548 1.96542 0
M  V30 4387 H 421.396 3.63651 1.02794 0
M  V30 4388 H 421.709 7.58231 1.49353 0
M  V30 4389 H 420.054 6.81763 1.34999 0
M  V30 4390 H 423.245 4.52668 1.19202 0
M  V30 4391 H 423.418 6.32595 1.40455 0
M  V30 4392 N 416.824 -0.551391 1.4764 0
M  V30 4393 C 417.754 -1.66757 1.63445 0
M  V30 4394 C 418.735 -1.63077 0.483742 0
M  V30 4395 O 419.92 -1.80607 0.71377 0
M  V30 4396 C 417.05 -3.05387 1.65396 0
M  V30 4397 C 416.004 -3.23918 2.79752 0
M  V30 4398 C 415.33 -4.63393 2.66779 0
M  V30 4399 C 416.63 -3.08735 4.21284 0
M  V30 4400 H 418.324 -1.53786 2.56886 0
M  V30 4401 H 415.87 -0.738415 1.23626 0
M  V30 4402 H 417.823 -3.83325 1.75043 0
M  V30 4403 H 416.547 -3.19332 0.685195 0
M  V30 4404 H 415.206 -2.48391 2.69625 0
M  V30 4405 H 414.854 -4.74144 1.67918 0
M  V30 4406 H 414.554 -4.7674 3.43501 0
M  V30 4407 H 416.078 -5.43458 2.78364 0
M  V30 4408 H 417.492 -3.76484 4.32357 0
M  V30 4409 H 415.889 -3.33588 4.98838 0
M  V30 4410 H 416.959 -2.0541 4.39243 0
M  V30 4411 N 418.302 -1.35869 -0.798587 0
M  V30 4412 C 419.232 -1.32118 -1.92528 0
M  V30 4413 C 420.213 -0.194209 -1.68988 0
M  V30 4414 O 421.398 -0.390426 -1.90235 0
M  V30 4415 C 418.528 -1.10047 -3.29404 0
M  V30 4416 C 417.482 -2.19471 -3.67446 0
M  V30 4417 C 416.808 -1.82555 -5.02571 0
M  V30 4418 C 418.108 -3.61495 -3.76987 0
M  V30 4419 H 419.802 -2.26394 -1.95924 0
M  V30 4420 H 417.348 -1.08981 -0.94123 0
M  V30 4421 H 419.301 -1.06061 -4.07835 0
M  V30 4422 H 418.025 -0.122195 -3.26371 0
M  V30 4423 H 416.684 -2.22568 -2.91306 0
M  V30 4424 H 416.332 -0.833249 -4.9605 0
M  V30 4425 H 416.032 -2.5581 -5.28995 0
M  V30 4426 H 417.556 -1.80108 -5.83432 0
M  V30 4427 H 418.97 -3.60676 -4.4563 0
M  V30 4428 H 417.367 -4.33577 -4.14887 0
M  V30 4429 H 418.437 -3.97065 -2.78329 0
M  V30 4430 N 419.78 1.02168 -1.19998 0
M  V30 4431 C 421.026 1.75945 -1.00852 0
M  V30 4432 C 421.359 1.88702 0.458828 0
M  V30 4433 O 420.634 1.40911 1.34069 0
M  V30 4434 C 420.917 3.18154 -1.68671 0
M  V30 4435 C 420.77 3.13224 -3.22817 0
M  V30 4436 C 422.089 4.16711 -1.41561 0
M  V30 4437 H 419.208 0.638673 -0.367785 0
M  V30 4438 H 421.85 1.19222 -1.4794 0
M  V30 4439 H 420 3.66586 -1.28636 0
M  V30 4440 H 421.672 2.72635 -3.72112 0
M  V30 4441 H 419.915 2.50751 -3.53986 0
M  V30 4442 H 420.586 4.13728 -3.65422 0
M  V30 4443 H 423.062 3.76913 -1.76284 0
M  V30 4444 H 421.938 5.14391 -1.91553 0
M  V30 4445 H 422.199 4.40774 -0.342193 0
M  V30 4446 N 421.258 1.00505 1.21394 0
M  V30 4447 C 422.505 0.687774 1.90462 0
M  V30 4448 C 422.833 -0.78147 1.7811 0
M  V30 4449 O 422.088 -1.58208 1.1519 0
M  V30 4450 C 422.387 1.0546 3.41486 0
M  V30 4451 C 422.053 2.51812 3.74034 0
M  V30 4452 C 420.715 2.91804 3.82628 0
M  V30 4453 C 423.067 3.46614 3.8924 0
M  V30 4454 C 420.395 4.2556 4.03876 0
M  V30 4455 C 422.747 4.80044 4.11995 0
M  V30 4456 C 421.411 5.19759 4.18816 0
M  V30 4457 H 420.681 0.251674 0.696951 0
M  V30 4458 H 423.328 1.26349 1.43903 0
M  V30 4459 H 421.633 0.397133 3.89782 0
M  V30 4460 H 423.33 0.786976 3.93202 0
M  V30 4461 H 419.92 2.1982 3.67936 0
M  V30 4462 H 424.104 3.16883 3.81967 0
M  V30 4463 H 419.36 4.55901 4.07387 0
M  V30 4464 H 423.534 5.53439 4.22704 0
M  V30 4465 H 421.161 6.23418 4.35033 0
M  V30 4466 N 422.737 -1.36956 0.779787 0
M  V30 4467 C 423.965 -2.03755 0.359398 0
M  V30 4468 C 424.38 -1.58807 -1.02106 0
M  V30 4469 O 423.737 -0.773024 -1.6532 0
M  V30 4470 C 423.788 -3.59251 0.402568 0
M  V30 4471 O 423.509 -4.02557 1.72858 0
M  V30 4472 C 425.01 -4.43291 -0.0284068 0
M  V30 4473 H 422.23 -0.654148 0.149437 0
M  V30 4474 H 424.774 -1.75128 1.05595 0
M  V30 4475 H 422.929 -3.86621 -0.245478 0
M  V30 4476 H 423.343 -4.97111 1.67275 0
M  V30 4477 H 424.817 -5.51975 0.0529466 0
M  V30 4478 H 425.294 -4.25719 -1.07982 0
M  V30 4479 H 425.9 -4.21163 0.591758 0
M  V30 4480 N 424.215 -0.530993 -1.48385 0
M  V30 4481 C 425.44 0.000729535 -2.074 0
M  V30 4482 C 425.865 1.27298 -1.3848 0
M  V30 4483 O 425.223 1.75599 -0.451081 0
M  V30 4484 C 425.271 0.206697 -3.60007 0
M  V30 4485 O 424.375 1.27514 -3.92191 0
M  V30 4486 H 423.716 -0.039583 -0.662819 0
M  V30 4487 H 426.246 -0.739194 -1.9078 0
M  V30 4488 H 426.256 0.42904 -4.05738 0
M  V30 4489 H 424.931 -0.722675 -4.09573 0
M  V30 4490 H 423.508 1.03537 -3.58238 0
M  V30 4491 N 425.693 1.55336 -0.266172 0
M  V30 4492 C 426.97 1.91372 0.404486 0
M  V30 4493 C 427.35 1.18935 1.74407 0
M  V30 4494 O 426.698 0.3132 2.26343 0
M  V30 4495 C 426.908 3.44581 0.553593 0
M  V30 4496 C 428.256 4.16196 0.840618 0
M  V30 4497 O 429.28 3.50426 0.638739 0
M  V30 4498 O 428.139 5.32567 1.22618 0
M  V30 4499 H 425.233 0.797194 0.220025 0
M  V30 4500 H 427.779 1.66813 -0.311664 0
M  V30 4501 H 426.551 3.89357 -0.389498 0
M  V30 4502 H 426.174 3.75065 1.31955 0
M  V30 4503 N 427.171 -0.0066808 1.57599 0
M  V30 4504 C 428.448 -0.729586 1.81484 0
M  V30 4505 C 428.828 -1.92359 0.869558 0
M  V30 4506 O 428.176 -2.28348 -0.0832533 0
M  V30 4507 C 428.386 -1.1416 3.29801 0
M  V30 4508 C 429.734 -1.54823 3.95367 0
M  V30 4509 O 430.758 -1.23558 3.34084 0
M  V30 4510 O 429.617 -2.12937 5.03309 0
M  V30 4511 H 426.711 -0.354674 0.747085 0
M  V30 4512 H 429.257 0.0182609 1.6969 0
M  V30 4513 H 428.029 -0.290231 3.90222 0
M  V30 4514 H 427.652 -1.94876 3.46568 0
M  V30 4515 N 428.649 -1.55105 -0.279332 0
M  V30 4516 C 429.877 -1.7943 -1.03017 0
M  V30 4517 C 430.292 -0.564456 -1.80165 0
M  V30 4518 O 429.649 0.466326 -1.76442 0
M  V30 4519 C 429.7 -3.0155 -1.99374 0
M  V30 4520 O 429.421 -4.19784 -1.25352 0
M  V30 4521 C 430.922 -3.3843 -2.86321 0
M  V30 4522 H 428.142 -0.597882 -0.304594 0
M  V30 4523 H 430.686 -2.02105 -0.312035 0
M  V30 4524 H 428.841 -2.81019 -2.66659 0
M  V30 4525 H 429.255 -4.88781 -1.90246 0
M  V30 4526 H 430.729 -4.27066 -3.49741 0
M  V30 4527 H 431.206 -2.57549 -3.5576 0
M  V30 4528 H 431.812 -3.61197 -2.24536 0
M  V30 4529 N 430.127 0.543554 -1.4793 0
M  V30 4530 C 431.374 1.30008 -1.55255 0
M  V30 4531 C 431.702 1.93245 -0.220612 0
M  V30 4532 O 430.957 1.79141 0.787843 0
M  V30 4533 C 431.256 2.42078 -2.62932 0
M  V30 4534 C 430.922 1.96583 -4.0579 0
M  V30 4535 C 429.584 1.83893 -4.44676 0
M  V30 4536 C 431.936 1.62034 -4.95373 0
M  V30 4537 C 429.264 1.34969 -5.70964 0
M  V30 4538 C 431.616 1.14577 -6.22137 0
M  V30 4539 C 430.28 1.00493 -6.59892 0
M  V30 4540 H 429.55 0.475735 -0.568117 0
M  V30 4541 H 432.197 0.608075 -1.81589 0
M  V30 4542 H 430.502 3.16892 -2.30406 0
M  V30 4543 H 432.199 3.00236 -2.65818 0
M  V30 4544 H 428.789 2.07407 -3.75074 0
M  V30 4545 H 432.973 1.70705 -4.66019 0
M  V30 4546 H 428.229 1.2274 -5.98953 0
M  V30 4547 H 432.403 0.869109 -6.90955 0
M  V30 4548 H 430.03 0.623624 -7.57638 0
M  V30 4549 N 431.605 1.3629 0.791371 0
M  V30 4550 C 432.555 1.26988 1.89362 0
M  V30 4551 C 433.539 0.161795 1.60084 0
M  V30 4552 O 434.731 0.394426 1.72549 0
M  V30 4553 C 431.86 1.05944 3.26544 0
M  V30 4554 C 430.946 2.21211 3.61838 0
M  V30 4555 N 431.337 3.46518 3.68455 0
M  V30 4556 C 429.635 2.12933 3.91887 0
M  V30 4557 C 430.336 4.2241 3.99931 0
M  V30 4558 N 429.312 3.51329 4.14812 0
M  V30 4559 H 433.114 2.21908 1.92702 0
M  V30 4560 H 430.628 1.28982 0.986787 0
M  V30 4561 H 432.625 0.973666 4.05371 0
M  V30 4562 H 431.285 0.119223 3.24481 0
M  V30 4563 H 432.296 3.80677 3.51148 0
M  V30 4564 H 428.973 1.26855 3.97761 0
M  V30 4565 H 430.363 5.30767 4.1199 0
M  V30 4566 N 433.083 -1.0153 1.20538 0
M  V30 4567 C 434.311 -1.78746 1.04199 0
M  V30 4568 C 434.726 -1.84323 -0.408733 0
M  V30 4569 O 434.083 -1.29714 -1.28377 0
M  V30 4570 C 434.134 -3.23152 1.62035 0
M  V30 4571 O 433.855 -3.17918 3.0143 0
M  V30 4572 C 435.356 -4.16911 1.50666 0
M  V30 4573 H 432.576 -0.56208 0.366479 0
M  V30 4574 H 435.12 -1.27794 1.59653 0
M  V30 4575 H 433.275 -3.71248 1.10697 0
M  V30 4576 H 433.689 -4.08567 3.28897 0
M  V30 4577 H 435.163 -5.16072 1.95892 0
M  V30 4578 H 435.64 -4.36791 0.459363 0
M  V30 4579 H 436.246 -3.74698 2.01201 0
M  V30 4580 N 434.561 -1.01147 -1.20859 0
M  V30 4581 C 435.524 -0.582224 -2.21682 0
M  V30 4582 C 436.524 0.344887 -1.57058 0
M  V30 4583 O 437.714 0.134281 -1.73682 0
M  V30 4584 C 434.846 0.150496 -3.40568 0
M  V30 4585 H 436.039 -1.47408 -2.61172 0
M  V30 4586 H 433.592 -0.800695 -1.34233 0
M  V30 4587 H 434.327 1.0575 -3.06574 0
M  V30 4588 H 434.112 -0.515444 -3.88697 0
M  V30 4589 H 435.602 0.438344 -4.15293 0
M  V30 4590 N 436.039 1.36541 -0.78704 0
M  V30 4591 C 437.287 1.98911 -0.357633 0
M  V30 4592 C 437.608 1.62778 1.07371 0
M  V30 4593 O 436.878 0.900612 1.73971 0
M  V30 4594 H 435.458 0.735734 -0.129246 0
M  V30 4595 H 438.12 1.66776 -1.00855 0
M  V30 4596 H 437.216 3.08874 -0.447549 0
M  V30 4597 N 437.518 0.538854 1.48102 0
M  V30 4598 C 438.795 -0.0568108 1.95517 0
M  V30 4599 C 439.175 -1.50408 1.48124 0
M  V30 4600 O 438.523 -2.17133 0.711727 0
M  V30 4601 C 438.733 0.0696262 3.48931 0
M  V30 4602 C 440.081 -0.0851202 4.24515 0
M  V30 4603 O 441.105 -0.0037347 3.562 0
M  V30 4604 O 439.964 -0.257025 5.45895 0
M  V30 4605 H 437.058 -0.0743695 0.823649 0
M  V30 4606 H 439.604 0.604081 1.58584 0
M  V30 4607 H 438.376 1.07744 3.76174 0
M  V30 4608 H 437.999 -0.629714 3.92582 0
M  V30 4609 N 438.996 -1.55193 0.274407 0
M  V30 4610 C 440.244 -1.99187 -0.341902 0
M  V30 4611 C 440.565 -1.16422 -1.56431 0
M  V30 4612 O 439.835 -0.253573 -1.94252 0
M  V30 4613 H 438.415 -0.735721 -0.129317 0
M  V30 4614 H 441.077 -1.91168 0.379578 0
M  V30 4615 H 440.173 -3.05629 -0.632253 0
M  V30 4616 N 440.474 -0.00167713 -1.576 0
M  V30 4617 C 441.421 0.989195 -2.08527 0
M  V30 4618 C 442.391 1.34031 -0.981065 0
M  V30 4619 O 443.576 1.43839 -1.2536 0
M  V30 4620 C 440.716 2.27537 -2.59463 0
M  V30 4621 C 439.829 1.98314 -3.83791 0
M  V30 4622 C 438.964 3.21025 -4.23222 0
M  V30 4623 C 438.003 2.87495 -5.40382 0
M  V30 4624 N 437.14 4.02749 -5.75098 0
M  V30 4625 H 441.98 0.547973 -2.92919 0
M  V30 4626 H 439.517 0.258917 -1.44803 0
M  V30 4627 H 441.475 3.02729 -2.87073 0
M  V30 4628 H 440.105 2.69325 -1.77943 0
M  V30 4629 H 439.157 1.13482 -3.63078 0
M  V30 4630 H 440.469 1.69601 -4.69081 0
M  V30 4631 H 439.623 4.04561 -4.52123 0
M  V30 4632 H 438.362 3.52877 -3.36644 0
M  V30 4633 H 437.367 2.02367 -5.11202 0
M  V30 4634 H 438.592 2.56889 -6.28637 0
M  V30 4635 H 436.538 4.34494 -4.91478 0
M  V30 4636 H 436.455 3.77566 -6.54966 0
M  V30 4637 H 437.723 4.87068 -6.08592 0
M  V30 4638 N 441.952 1.55251 0.271103 0
M  V30 4639 C 442.882 1.9127 1.33933 0
M  V30 4640 C 443.863 0.77478 1.5143 0
M  V30 4641 O 445.048 1.03307 1.64442 0
M  V30 4642 C 442.178 2.18627 2.69851 0
M  V30 4643 C 441.132 3.34442 2.67081 0
M  V30 4644 C 440.458 3.47284 4.06569 0
M  V30 4645 C 441.758 4.70784 2.26185 0
M  V30 4646 H 443.452 2.80744 1.04035 0
M  V30 4647 H 440.998 1.35077 0.499017 0
M  V30 4648 H 442.951 2.42413 3.44694 0
M  V30 4649 H 441.675 1.25955 3.01335 0
M  V30 4650 H 440.334 3.10627 1.94695 0
M  V30 4651 H 439.982 2.52074 4.35279 0
M  V30 4652 H 439.682 4.25152 4.0561 0
M  V30 4653 H 441.206 3.73363 4.83148 0
M  V30 4654 H 442.62 4.94102 2.90751 0
M  V30 4655 H 441.017 5.51582 2.36384 0
M  V30 4656 H 442.087 4.69478 1.21319 0
M  V30 4657 N 443.43 -0.535701 1.48216 0
M  V30 4658 C 444.678 -1.28928 1.55634 0
M  V30 4659 C 444.999 -1.93645 0.229514 0
M  V30 4660 O 444.269 -1.81038 -0.74846 0
M  V30 4661 H 442.849 -0.47884 0.573342 0
M  V30 4662 H 445.511 -0.623853 1.84646 0
M  V30 4663 H 444.607 -2.07157 2.33436 0
M  V30 4664 N 444.908 -1.36708 -0.784132 0
M  V30 4665 C 446.156 -1.30972 -1.53918 0
M  V30 4666 C 446.477 0.109086 -1.94695 0
M  V30 4667 O 445.747 1.05048 -1.65353 0
M  V30 4668 H 444.327 -0.481819 -0.570841 0
M  V30 4669 H 446.989 -1.71063 -0.934002 0
M  V30 4670 H 446.085 -1.94061 -2.44431 0
M  V30 4671 N 446.386 1.0089 -1.21074 0
M  V30 4672 C 447.635 1.74019 -1.01981 0
M  V30 4673 C 447.948 1.90408 0.447665 0
M  V30 4674 O 449.154 2.60707 0.757906 0
M  V30 4675 C 447.61 3.13026 -1.77603 0
M  V30 4676 C 447.218 3.04623 -3.28495 0
M  V30 4677 C 448.962 3.90312 -1.66904 0
M  V30 4678 C 446.869 4.38685 -3.96623 0
M  V30 4679 H 445.799 0.652422 -0.377971 0
M  V30 4680 H 448.45 1.12755 -1.44771 0
M  V30 4681 H 446.832 3.74878 -1.27604 0
M  V30 4682 H 448.006 2.52032 -3.85767 0
M  V30 4683 H 446.321 2.40827 -3.39693 0
M  V30 4684 H 448.918 4.8951 -2.15138 0
M  V30 4685 H 449.261 4.11558 -0.62658 0
M  V30 4686 H 449.794 3.35104 -2.14359 0
M  V30 4687 H 446.533 4.22641 -5.01054 0
M  V30 4688 H 446.053 4.91252 -3.4414 0
M  V30 4689 H 447.732 5.075 -4.01314 0
M  V30 4690 N 447.864 1.01787 1.20321 0
M  V30 4691 C 449.111 0.707936 1.89722 0
M  V30 4692 C 449.439 -0.762535 1.78929 0
M  V30 4693 O 448.694 -1.56977 1.16861 0
M  V30 4694 C 448.993 1.09076 3.40349 0
M  V30 4695 C 448.659 2.55765 3.71342 0
M  V30 4696 C 447.321 2.95845 3.79511 0
M  V30 4697 C 449.673 3.50723 3.85542 0
M  V30 4698 C 447.001 4.2982 3.99339 0
M  V30 4699 C 449.353 4.84387 4.06881 0
M  V30 4700 C 448.017 5.24172 4.1328 0
M  V30 4701 H 447.287 0.259052 0.694243 0
M  V30 4702 H 449.934 1.27868 1.42555 0
M  V30 4703 H 448.239 0.438453 3.89339 0
M  V30 4704 H 449.936 0.828636 3.92345 0
M  V30 4705 H 446.526 2.2371 3.65584 0
M  V30 4706 H 450.71 3.20916 3.78585 0
M  V30 4707 H 445.966 4.60196 4.02529 0
M  V30 4708 H 450.14 5.57891 4.1681 0
M  V30 4709 H 447.767 6.27997 4.28396 0
M  V30 4710 N 449.342 -1.36122 0.79427 0
M  V30 4711 C 450.275 -2.27759 0.141845 0
M  V30 4712 C 451.253 -1.47471 -0.684921 0
M  V30 4713 O 452.437 -1.76759 -0.654857 0
M  V30 4714 C 449.564 -3.29008 -0.804446 0
M  V30 4715 C 448.61 -4.26459 -0.0588617 0
M  V30 4716 S 449.443 -5.20253 1.26873 0
M  V30 4717 C 450.599 -6.25048 0.326562 0
M  V30 4718 H 450.832 -2.82746 0.918818 0
M  V30 4719 H 448.365 -1.42736 0.588722 0
M  V30 4720 H 450.323 -3.87842 -1.34495 0
M  V30 4721 H 448.984 -2.72924 -1.5547 0
M  V30 4722 H 448.177 -4.97973 -0.777087 0
M  V30 4723 H 447.779 -3.71731 0.411309 0
M  V30 4724 H 450.071 -6.75705 -0.492795 0
M  V30 4725 H 451.014 -7.00852 1.01053 0
M  V30 4726 H 451.422 -5.64454 -0.0722627 0
M  V30 4727 N 450.82 -0.546701 -1.47814 0
M  V30 4728 C 452.231 -0.110564 -1.86372 0
M  V30 4729 C 452.582 1.31678 -1.45449 0
M  V30 4730 O 451.707 1.98889 -0.852758 0
M  V30 4731 C 452.302 -0.193873 -3.38245 0
M  V30 4732 C 450.861 0.187164 -3.75934 0
M  V30 4733 C 450.008 -0.546166 -2.71868 0
M  V30 4734 H 452.959 -0.757022 -1.39481 0
M  V30 4735 H 452.98 0.590218 -3.75895 0
M  V30 4736 H 452.492 -1.23282 -3.67999 0
M  V30 4737 H 450.593 1.22762 -3.51796 0
M  V30 4738 H 450.706 -0.164083 -4.78819 0
M  V30 4739 H 449.07 0.00953904 -2.54698 0
M  V30 4740 H 449.853 -1.58606 -3.04465 0
M  V30 4741 N 452.299 1.55045 -0.282633 0
M  V30 4742 C 453.524 2.04628 0.337977 0
M  V30 4743 C 453.949 1.15937 1.48123 0
M  V30 4744 O 453.307 0.159532 1.80597 0
M  V30 4745 C 453.355 3.51854 0.78936 0
M  V30 4746 O 452.459 3.66236 1.89592 0
M  V30 4747 H 451.8 0.660434 0.0687261 0
M  V30 4748 H 454.33 2.00261 -0.419124 0
M  V30 4749 H 454.34 3.93361 1.08311 0
M  V30 4750 H 453.015 4.15873 -0.0470419 0
M  V30 4751 H 451.592 3.36633 1.60413 0
M  V30 4752 N 453.777 0.010035 1.57597 0
M  V30 4753 C 455.054 -0.710296 1.82248 0
M  V30 4754 C 455.434 -1.91426 0.889911 0
M  V30 4755 O 454.782 -2.28424 -0.0590292 0
M  V30 4756 C 454.992 -1.10655 3.30993 0
M  V30 4757 C 456.34 -1.50621 3.96987 0
M  V30 4758 O 457.364 -1.20007 3.35375 0
M  V30 4759 O 456.223 -2.07587 5.05539 0
M  V30 4760 H 453.317 -0.34673 0.750804 0
M  V30 4761 H 455.863 0.0362578 1.69661 0
M  V30 4762 H 454.635 -0.248826 3.90508 0
M  V30 4763 H 454.258 -1.91189 3.48615 0
M  V30 4764 N 455.255 -1.55392 -0.262866 0
M  V30 4765 C 456.503 -1.76127 -0.991147 0
M  V30 4766 C 456.824 -0.571083 -1.8645 0
M  V30 4767 O 456.094 0.413698 -1.91482 0
M  V30 4768 H 454.674 -0.649528 -0.368948 0
M  V30 4769 H 457.336 -1.9281 -0.284655 0
M  V30 4770 H 456.432 -2.6663 -1.62219 0
M  V30 4771 N 456.733 0.527833 -1.48498 0
M  V30 4772 C 457.683 1.62844 -1.5958 0
M  V30 4773 C 458.667 1.54397 -0.452809 0
M  V30 4774 O 459.859 1.62381 -0.704364 0
M  V30 4775 C 456.988 3.01557 -1.64067 0
M  V30 4776 C 456.074 3.151 -2.83853 0
M  V30 4777 N 456.465 2.9861 -4.08247 0
M  V30 4778 C 454.763 3.46158 -2.8123 0
M  V30 4779 C 455.464 3.15626 -4.88626 0
M  V30 4780 N 454.44 3.43298 -4.21483 0
M  V30 4781 H 458.242 1.48708 -2.53502 0
M  V30 4782 H 455.756 0.733343 -1.44899 0
M  V30 4783 H 457.753 3.8062 -1.70101 0
M  V30 4784 H 456.413 3.16783 -0.712636 0
M  V30 4785 H 457.424 2.75329 -4.3865 0
M  V30 4786 H 454.101 3.67728 -1.97692 0
M  V30 4787 H 455.491 3.07596 -5.97356 0
M  V30 4788 N 458.211 1.37122 0.776871 0
M  V30 4789 C 459.451 1.33441 1.54831 0
M  V30 4790 C 459.815 -0.0818963 1.91825 0
M  V30 4791 O 461.016 -0.24338 2.67696 0
M  V30 4792 C 459.287 2.24267 2.78279 0
M  V30 4793 S 460.846 2.38389 3.68397 0
M  V30 4794 H 457.664 0.473791 0.530135 0
M  V30 4795 H 460.266 1.7282 0.913968 0
M  V30 4796 H 458.97 3.261 2.49173 0
M  V30 4797 H 458.501 1.85953 3.46677 0
M  V30 4798 H 460.516 1.59068 4.70013 0
M  V30 4799 N 459.689 -1.00246 1.21608 0
M  V30 4800 C 460.639 -2.07492 0.945051 0
M  V30 4801 C 461.623 -1.60585 -0.100675 0
M  V30 4802 O 462.815 -1.76667 0.10859 0
M  V30 4803 C 459.944 -3.39425 0.514342 0
M  V30 4804 C 459.03 -3.92993 1.59428 0
M  V30 4805 N 459.421 -4.19898 2.81991 0
M  V30 4806 C 457.719 -4.21297 1.46374 0
M  V30 4807 C 458.42 -4.63297 3.51754 0
M  V30 4808 N 457.396 -4.66421 2.79199 0
M  V30 4809 H 461.198 -2.26222 1.87619 0
M  V30 4810 H 458.712 -1.18339 1.11219 0
M  V30 4811 H 460.709 -4.15808 0.301527 0
M  V30 4812 H 459.369 -3.22101 -0.410008 0
M  V30 4813 H 460.38 -4.08377 3.1851 0
M  V30 4814 H 457.057 -4.13095 0.604863 0
M  V30 4815 H 458.447 -4.92816 4.56708 0
M  V30 4816 N 461.167 -1.02423 -1.1978 0
M  V30 4817 C 462.097 -0.62157 -2.25075 0
M  V30 4818 C 463.078 0.367148 -1.6609 0
M  V30 4819 O 464.263 0.250892 -1.92573 0
M  V30 4820 C 461.393 0.0331826 -3.47284 0
M  V30 4821 C 460.347 -0.877323 -4.18912 0
M  V30 4822 C 459.673 -0.0879296 -5.34628 0
M  V30 4823 C 460.973 -2.18892 -4.74219 0
M  V30 4824 H 462.667 -1.50179 -2.59011 0
M  V30 4825 H 460.213 -0.723547 -1.24502 0
M  V30 4826 H 462.166 0.326488 -4.20133 0
M  V30 4827 H 460.89 0.948164 -3.12534 0
M  V30 4828 H 459.549 -1.15475 -3.47938 0
M  V30 4829 H 459.197 0.828941 -4.96123 0
M  V30 4830 H 458.897 -0.694359 -5.83483 0
M  V30 4831 H 460.421 0.198743 -6.10276 0
M  V30 4832 H 461.835 -1.95746 -5.38847 0
M  V30 4833 H 460.232 -2.74686 -5.33542 0
M  V30 4834 H 461.302 -2.84674 -3.92541 0
M  V30 4835 N 462.645 1.35699 -0.801477 0
M  V30 4836 C 463.922 1.9324 -0.302937 0
M  V30 4837 C 464.302 1.73209 1.20672 0
M  V30 4838 O 463.65 1.09809 2.00385 0
M  V30 4839 C 463.86 3.41728 -0.708747 0
M  V30 4840 C 465.208 4.18868 -0.695328 0
M  V30 4841 O 466.232 3.5022 -0.649971 0
M  V30 4842 O 465.091 5.41342 -0.749081 0
M  V30 4843 H 462.185 0.82331 -0.0780367 0
M  V30 4844 H 464.731 1.44806 -0.884832 0
M  V30 4845 H 463.503 3.50015 -1.74944 0
M  V30 4846 H 463.126 3.97471 -0.101384 0
M  V30 4847 N 464.123 0.554532 1.47522 0
M  V30 4848 C 465.348 0.0322661 2.07375 0
M  V30 4849 C 465.773 -1.25079 1.40488 0
M  V30 4850 O 465.131 -1.74859 0.47896 0
M  V30 4851 C 465.179 -0.149397 3.6029 0
M  V30 4852 O 464.283 -1.21259 3.9417 0
M  V30 4853 H 463.624 0.0501228 0.662106 0
M  V30 4854 H 466.154 0.769452 1.8958 0
M  V30 4855 H 466.164 -0.364437 4.06369 0
M  V30 4856 H 464.839 0.787743 4.08372 0
M  V30 4857 H 463.416 -0.97825 3.5984 0
M  V30 4858 N 465.601 -1.54893 0.290851 0
M  V30 4859 C 466.549 -2.24579 -0.605576 0
M  V30 4860 C 467.543 -1.24824 -1.14522 0
M  V30 4861 O 468.749 -1.42706 -1.09704 0
M  V30 4862 H 465.124 -0.720946 -0.213872 0
M  V30 4863 H 467.095 -2.984 0.0048173 0
M  V30 4864 C 465.844 -2.99224 -1.77088 0
M  V30 4865 H 465.167 -3.75782 -1.36484 0
M  V30 4866 H 466.607 -3.51281 -2.3744 0
M  V30 4867 C 465.066 -2.05602 -2.66888 0
M  V30 4868 O 465.596 -1.61745 -3.67698 0
M  V30 4869 N 463.802 -1.71771 -2.34399 0
M  V30 4870 H 463.349 -2.07633 -1.52468 0
M  V30 4871 H 463.307 -1.09403 -2.94751 0
M  V30 4872 N 467.08 -0.0183926 -1.57589 0
M  V30 4873 C 468.328 0.661253 -1.90976 0
M  V30 4874 C 468.649 1.73281 -0.894353 0
M  V30 4875 O 467.919 1.9579 0.0656788 0
M  V30 4876 H 466.499 0.247233 -0.704901 0
M  V30 4877 H 469.161 -0.0636639 -1.94796 0
M  V30 4878 H 468.257 1.12083 -2.9128 0
M  V30 4879 N 468.558 1.5553 0.254621 0
M  V30 4880 C 469.488 1.9268 1.31897 0
M  V30 4881 C 470.469 0.790797 1.506 0
M  V30 4882 O 471.654 1.05045 1.63337 0
M  V30 4883 C 468.784 2.21477 2.67517 0
M  V30 4884 C 467.738 3.37256 2.63519 0
M  V30 4885 C 467.064 3.51576 4.02862 0
M  V30 4886 C 468.364 4.73157 2.21179 0
M  V30 4887 H 470.058 2.81832 1.01051 0
M  V30 4888 H 467.604 1.35599 0.484662 0
M  V30 4889 H 469.557 2.46055 3.42104 0
M  V30 4890 H 468.281 1.29144 2.99982 0
M  V30 4891 H 466.94 3.12675 1.9139 0
M  V30 4892 H 466.588 2.56676 4.32581 0
M  V30 4893 H 466.288 4.2943 4.01078 0
M  V30 4894 H 467.812 3.78467 4.79161 0
M  V30 4895 H 469.226 4.97158 2.85494 0
M  V30 4896 H 467.623 5.54058 2.30521 0
M  V30 4897 H 468.693 4.70739 1.16332 0
M  V30 4898 N 470.036 -0.519951 1.48776 0
M  V30 4899 C 471.266 -1.29783 1.60748 0
M  V30 4900 C 471.674 -1.87253 0.27072 0
M  V30 4901 O 471.017 -1.67628 -0.751438 0
M  V30 4902 C 471.079 -2.47984 2.60277 0
M  V30 4903 C 470.743 -2.11526 4.051 0
M  V30 4904 C 471.74 -1.66608 4.92481 0
M  V30 4905 C 469.425 -2.21742 4.50706 0
M  V30 4906 C 471.419 -1.32384 6.23501 0
M  V30 4907 C 469.106 -1.87129 5.81744 0
M  V30 4908 C 470.104 -1.42523 6.67964 0
M  V30 4909 O 469.792 -1.0837 7.96562 0
M  V30 4910 H 469.524 -0.400562 0.544542 0
M  V30 4911 H 472.078 -0.632879 1.95407 0
M  V30 4912 H 470.308 -3.17493 2.2076 0
M  V30 4913 H 471.997 -3.10036 2.61978 0
M  V30 4914 H 472.763 -1.58178 4.58481 0
M  V30 4915 H 468.642 -2.55415 3.83776 0
M  V30 4916 H 472.186 -0.974949 6.90754 0
M  V30 4917 H 468.083 -1.95204 6.15277 0
M  V30 4918 H 468.851 -1.21681 8.09405 0
M  V30 4919 N 471.514 -1.37532 -0.769588 0
M  V30 4920 C 472.739 -1.36231 -1.56384 0
M  V30 4921 C 473.164 0.0495849 -1.88035 0
M  V30 4922 O 472.522 1.02723 -1.49391 0
M  V30 4923 C 472.57 -2.20986 -2.84952 0
M  V30 4924 O 471.674 -1.61597 -3.79421 0
M  V30 4925 H 471.015 -0.465387 -0.473615 0
M  V30 4926 H 473.545 -1.81085 -0.952342 0
M  V30 4927 H 473.555 -2.34277 -3.34034 0
M  V30 4928 H 472.23 -3.23612 -2.61243 0
M  V30 4929 H 470.807 -1.57359 -3.38072 0
M  V30 4930 N 472.992 0.995999 -1.22138 0
M  V30 4931 C 474.408 1.25917 -0.980667 0
M  V30 4932 C 474.608 1.98819 0.327604 0
M  V30 4933 O 473.664 2.29587 1.05101 0
M  V30 4934 C 474.977 2.07399 -2.17729 0
M  V30 4935 C 476.525 2.20594 -2.22052 0
M  V30 4936 C 477 3.05462 -3.41258 0
M  V30 4937 N 478.491 3.13049 -3.41401 0
M  V30 4938 C 479.226 3.78997 -4.30289 0
M  V30 4939 N 478.722 4.46899 -5.2939 0
M  V30 4940 N 480.515 3.75728 -4.18073 0
M  V30 4941 H 472.666 0.507158 -2.06256 0
M  V30 4942 H 474.929 0.28658 -0.903646 0
M  V30 4943 H 474.635 1.61191 -3.12586 0
M  V30 4944 H 474.509 3.08154 -2.17534 0
M  V30 4945 H 476.896 2.66017 -1.27745 0
M  V30 4946 H 476.977 1.1928 -2.26287 0
M  V30 4947 H 476.621 2.60739 -4.35864 0
M  V30 4948 H 476.551 4.06911 -3.34262 0
M  V30 4949 H 479.042 2.64721 -2.69688 0
M  V30 4950 H 479.355 4.94952 -5.935 0
M  V30 4951 H 477.7 4.45657 -5.33306 0
M  V30 4952 H 480.891 3.2184 -3.39907 0
M  V30 4953 H 481.064 4.26845 -4.87553 0
M  V30 4954 N 474.47 1.03057 1.19235 0
M  V30 4955 C 475.695 0.74757 1.93458 0
M  V30 4956 C 476.12 -0.687648 1.7508 0
M  V30 4957 O 475.478 -1.47499 1.05422 0
M  V30 4958 C 475.526 1.10604 3.43219 0
M  V30 4959 O 474.63 0.225671 4.11782 0
M  V30 4960 H 473.971 0.276047 0.603899 0
M  V30 4961 H 476.501 1.3777 1.51263 0
M  V30 4962 H 476.511 1.06366 3.93891 0
M  V30 4963 H 475.186 2.15165 3.55917 0
M  V30 4964 H 473.763 0.326795 3.71465 0
M  V30 4965 N 475.948 -1.35272 0.808662 0
M  V30 4966 C 477.176 -2.02946 0.402537 0
M  V30 4967 C 477.591 -1.60937 -0.987147 0
M  V30 4968 O 476.948 -0.807917 -1.63643 0
M  V30 4969 C 476.999 -3.58317 0.47868 0
M  V30 4970 O 476.72 -3.98799 1.81358 0
M  V30 4971 C 478.221 -4.43251 0.0656281 0
M  V30 4972 H 475.441 -0.650831 0.163279 0
M  V30 4973 H 477.985 -1.72849 1.09286 0
M  V30 4974 H 476.14 -3.87055 -0.163415 0
M  V30 4975 H 476.554 -4.93451 1.77781 0
M  V30 4976 H 478.028 -5.51738 0.170017 0
M  V30 4977 H 478.505 -4.27913 -0.989278 0
M  V30 4978 H 479.111 -4.19813 0.68096 0
M  V30 4979 N 477.426 -0.562348 -1.47226 0
M  V30 4980 C 478.336 0.185466 -2.33866 0
M  V30 4981 C 479.352 0.906713 -1.48508 0
M  V30 4982 O 480.528 0.874458 -1.81425 0
M  V30 4983 C 477.593 1.19904 -3.25306 0
M  V30 4984 C 476.654 0.484669 -4.26555 0
M  V30 4985 C 475.887 1.44996 -5.13626 0
M  V30 4986 O 476.11 2.68515 -5.03245 0
M  V30 4987 O 475.044 0.971642 -5.94006 0
M  V30 4988 H 478.87 -0.525361 -2.99121 0
M  V30 4989 H 476.455 -0.322916 -1.45868 0
M  V30 4990 H 478.337 1.78399 -3.81774 0
M  V30 4991 H 477.012 1.8917 -2.62672 0
M  V30 4992 H 475.919 -0.141605 -3.73832 0
M  V30 4993 H 477.252 -0.166634 -4.91918 0
M  V30 4994 N 478.904 1.54736 -0.299062 0
M  V30 4995 C 480.151 2.00101 0.310784 0
M  V30 4996 C 480.479 1.18746 1.54045 0
M  V30 4997 O 479.734 0.251198 1.94081 0
M  V30 4998 C 480.033 3.50199 0.713835 0
M  V30 4999 C 479.699 4.48997 -0.413873 0
M  V30 5000 C 478.361 4.7573 -0.723462 0
M  V30 5001 C 480.713 5.07839 -1.17257 0
M  V30 5002 C 478.041 5.5857 -1.79491 0
M  V30 5003 C 480.393 5.91844 -2.23392 0
M  V30 5004 C 479.057 6.16889 -2.54959 0
M  V30 5005 H 478.327 0.732221 0.113724 0
M  V30 5006 H 480.974 1.86888 -0.417756 0
M  V30 5007 H 479.279 3.61012 1.52243 0
M  V30 5008 H 480.976 3.82723 1.19684 0
M  V30 5009 H 477.566 4.28292 -0.162476 0
M  V30 5010 H 481.75 4.87188 -0.946651 0
M  V30 5011 H 477.006 5.76213 -2.04423 0
M  V30 5012 H 481.18 6.36465 -2.8264 0
M  V30 5013 H 478.807 6.80869 -3.38114 0
M  V30 5014 N 480.382 0.0267497 1.57577 0
M  V30 5015 C 481.659 -0.690926 1.82991 0
M  V30 5016 C 482.039 -1.90471 0.910164 0
M  V30 5017 O 481.387 -2.28474 -0.0347985 0
M  V30 5018 C 481.597 -1.07139 3.32148 0
M  V30 5019 C 482.945 -1.46402 3.98562 0
M  V30 5020 O 483.969 -1.16443 3.36629 0
M  V30 5021 O 482.828 -2.02214 5.07712 0
M  V30 5022 H 479.922 -0.338747 0.75444 0
M  V30 5023 H 482.468 0.0542506 1.69613 0
M  V30 5024 H 481.24 -0.207394 3.9075 0
M  V30 5025 H 480.863 -1.87481 3.50623 0
M  V30 5026 N 481.861 -1.55662 -0.24637 0
M  V30 5027 C 483.091 -1.81312 -0.990438 0
M  V30 5028 C 483.499 -0.600234 -1.79426 0
M  V30 5029 O 482.842 0.440537 -1.78339 0
M  V30 5030 C 482.904 -3.0032 -1.97607 0
M  V30 5031 C 482.568 -4.36322 -1.35912 0
M  V30 5032 C 483.565 -5.14295 -0.761348 0
M  V30 5033 C 481.25 -4.83019 -1.37833 0
M  V30 5034 C 483.244 -6.37114 -0.190998 0
M  V30 5035 C 480.931 -6.05786 -0.804128 0
M  V30 5036 C 481.929 -6.82672 -0.211489 0
M  V30 5037 O 481.617 -8.03121 0.353845 0
M  V30 5038 H 481.349 -0.607233 -0.297058 0
M  V30 5039 H 483.903 -2.0356 -0.274351 0
M  V30 5040 H 482.133 -2.73829 -2.73047 0
M  V30 5041 H 483.822 -3.13057 -2.58361 0
M  V30 5042 H 484.588 -4.79337 -0.739013 0
M  V30 5043 H 480.467 -4.23165 -1.829 0
M  V30 5044 H 484.011 -6.97069 0.272206 0
M  V30 5045 H 479.908 -6.40222 -0.823792 0
M  V30 5046 H 480.676 -8.18131 0.245761 0
M  V30 5047 N 483.339 0.512053 -1.4905 0
M  V30 5048 C 484.75 1.09376 -1.51307 0
M  V30 5049 C 485.101 1.94 -0.292971 0
M  V30 5050 O 484.226 2.07965 0.598277 0
M  V30 5051 C 484.821 1.99031 -2.74176 0
M  V30 5052 C 483.38 2.52385 -2.79247 0
M  V30 5053 C 482.527 1.29749 -2.45073 0
M  V30 5054 H 485.478 0.296467 -1.55906 0
M  V30 5055 H 485.499 2.83569 -2.53711 0
M  V30 5056 H 485.011 1.37412 -3.62959 0
M  V30 5057 H 483.112 3.17673 -1.94716 0
M  V30 5058 H 483.225 2.90293 -3.81139 0
M  V30 5059 H 481.589 1.61912 -1.96612 0
M  V30 5060 H 482.372 0.698555 -3.36118 0
M  V30 5061 N 484.817 1.37938 0.762283 0
M  V30 5062 C 486.042 1.37059 1.55659 0
M  V30 5063 C 486.467 -0.0396123 1.88058 0
M  V30 5064 O 485.825 -1.01929 1.49934 0
M  V30 5065 C 485.873 2.22494 2.83776 0
M  V30 5066 O 484.977 1.63607 3.78559 0
M  V30 5067 H 484.318 0.467892 0.47114 0
M  V30 5068 H 486.848 1.81587 0.942725 0
M  V30 5069 H 486.858 2.36045 3.32786 0
M  V30 5070 H 485.533 3.24993 2.59524 0
M  V30 5071 H 484.11 1.5915 3.37233 0
M  V30 5072 N 486.295 -0.989507 1.22664 0
M  V30 5073 C 487.541 -1.7321 1.05481 0
M  V30 5074 C 487.874 -1.89852 -0.408635 0
M  V30 5075 O 487.149 -1.44416 -1.30285 0
M  V30 5076 C 487.432 -3.1357 1.77047 0
M  V30 5077 C 487.285 -3.04555 3.31008 0
M  V30 5078 C 488.604 -4.12812 1.5256 0
M  V30 5079 H 485.723 -0.628697 0.384589 0
M  V30 5080 H 488.365 -1.15258 1.51049 0
M  V30 5081 H 486.515 -3.63046 1.3831 0
M  V30 5082 H 488.187 -2.62674 3.7921 0
M  V30 5083 H 486.43 -2.41278 3.6051 0
M  V30 5084 H 487.101 -4.03894 3.76263 0
M  V30 5085 H 489.577 -3.72106 1.86215 0
M  V30 5086 H 488.453 -5.09132 2.05124 0
M  V30 5087 H 488.714 -4.39711 0.458936 0
M  V30 5088 N 487.773 -1.03688 -1.18687 0
M  V30 5089 C 489.021 -0.736572 -1.88199 0
M  V30 5090 C 489.342 0.737665 -1.80509 0
M  V30 5091 O 488.612 1.53204 -1.22088 0
M  V30 5092 H 487.192 -0.269466 -0.696704 0
M  V30 5093 H 489.854 -1.31282 -1.44052 0
M  V30 5094 H 488.95 -1.03802 -2.94332 0
M  V30 5095 N 489.251 1.34841 -0.815825 0
M  V30 5096 C 490.183 2.28409 -0.190265 0
M  V30 5097 C 491.196 1.50705 0.615771 0
M  V30 5098 O 492.385 1.72822 0.446616 0
M  V30 5099 C 489.485 3.30441 0.752446 0
M  V30 5100 C 488.658 4.37399 -0.00922152 0
M  V30 5101 C 487.717 5.19234 0.853351 0
M  V30 5102 O 486.743 5.68404 0.300919 0
M  V30 5103 N 487.945 5.38248 2.17416 0
M  V30 5104 H 490.71 2.82732 -0.994114 0
M  V30 5105 H 488.271 1.47289 -0.672129 0
M  V30 5106 H 490.263 3.82084 1.33394 0
M  V30 5107 H 488.833 2.76565 1.45707 0
M  V30 5108 H 488.053 3.86567 -0.771979 0
M  V30 5109 H 489.341 5.05992 -0.533807 0
M  V30 5110 H 488.739 4.99961 2.6468 0
M  V30 5111 H 487.296 5.93035 2.70467 0
M  V30 5112 N 490.729 0.570148 1.46925 0
M  V30 5113 C 491.975 0.0510284 2.02736 0
M  V30 5114 C 492.308 -1.3006 1.44215 0
M  V30 5115 O 491.583 -1.84932 0.602521 0
M  V30 5116 C 491.866 -0.028215 3.60089 0
M  V30 5117 C 491.719 1.35142 4.29018 0
M  V30 5118 C 493.038 -0.735181 4.33916 0
M  V30 5119 H 490.157 0.0200178 0.736728 0
M  V30 5120 H 492.799 0.73493 1.75211 0
M  V30 5121 H 490.949 -0.610648 3.83671 0
M  V30 5122 H 492.621 1.97806 4.16738 0
M  V30 5123 H 490.864 1.9226 3.88868 0
M  V30 5124 H 491.535 1.24857 5.37694 0
M  V30 5125 H 494.011 -0.240519 4.15404 0
M  V30 5126 H 492.887 -0.759622 5.43618 0
M  V30 5127 H 493.148 -1.79397 4.04066 0
M  V30 5128 N 492.207 -1.54576 0.307264 0
M  V30 5129 C 493.17 -2.22423 -0.553224 0
M  V30 5130 C 494.17 -1.21231 -1.05639 0
M  V30 5131 O 495.36 -1.45923 -0.951419 0
M  V30 5132 C 492.492 -2.91552 -1.76664 0
M  V30 5133 H 493.685 -2.99874 0.0396484 0
M  V30 5134 H 491.238 -1.56192 0.0581629 0
M  V30 5135 H 491.973 -2.18196 -2.39918 0
M  V30 5136 H 491.758 -3.65738 -1.41343 0
M  V30 5137 H 493.248 -3.43292 -2.37783 0
M  V30 5138 N 493.685 -0.035106 -1.57561 0
M  V30 5139 C 494.617 0.973604 -2.07494 0
M  V30 5140 C 495.63 1.28504 -0.999534 0
M  V30 5141 O 496.819 1.24864 -1.27559 0
M  V30 5142 C 493.919 2.29945 -2.48955 0
M  V30 5143 C 493.092 2.1723 -3.79644 0
M  V30 5144 C 492.151 3.328 -4.07592 0
M  V30 5145 O 491.177 3.09418 -4.77754 0
M  V30 5146 N 492.379 4.56779 -3.58236 0
M  V30 5147 H 495.144 0.547525 -2.94656 0
M  V30 5148 H 492.705 0.151515 -1.61189 0
M  V30 5149 H 494.697 3.06097 -2.64739 0
M  V30 5150 H 493.267 2.64173 -1.67126 0
M  V30 5151 H 492.487 1.25768 -3.73599 0
M  V30 5152 H 493.775 2.05945 -4.65257 0
M  V30 5153 H 493.173 4.78668 -3.01485 0
M  V30 5154 H 491.73 5.30079 -3.79288 0
M  V30 5155 N 495.163 1.55791 0.238111 0
M  V30 5156 C 496.126 1.90239 1.27835 0
M  V30 5157 C 497.126 0.779552 1.4064 0
M  V30 5158 O 498.316 1.04747 1.3919 0
M  V30 5159 C 495.448 2.13859 2.65475 0
M  V30 5160 H 496.641 2.83262 0.985034 0
M  V30 5161 H 494.194 1.48818 0.477799 0
M  V30 5162 H 494.929 1.23334 2.99932 0
M  V30 5163 H 494.714 2.95643 2.57561 0
M  V30 5164 H 496.204 2.41664 3.40571 0
M  V30 5165 N 496.642 -0.504142 1.49319 0
M  V30 5166 C 497.572 -1.61473 1.68667 0
M  V30 5167 C 498.553 -1.61455 0.535378 0
M  V30 5168 O 499.738 -1.78245 0.770868 0
M  V30 5169 C 496.868 -2.99971 1.75028 0
M  V30 5170 C 495.822 -3.14854 2.89916 0
M  V30 5171 C 495.148 -4.54671 2.81387 0
M  V30 5172 C 496.448 -2.95176 4.30893 0
M  V30 5173 H 498.142 -1.45535 2.61648 0
M  V30 5174 H 495.688 -0.698711 1.25913 0
M  V30 5175 H 497.641 -3.77562 1.8715 0
M  V30 5176 H 496.365 -3.1699 0.786441 0
M  V30 5177 H 495.024 -2.39687 2.77391 0
M  V30 5178 H 494.672 -4.68562 1.82917 0
M  V30 5179 H 494.372 -4.6557 3.58494 0
M  V30 5180 H 495.896 -5.34327 2.95512 0
M  V30 5181 H 497.31 -3.62538 4.44116 0
M  V30 5182 H 495.707 -3.17549 5.09198 0
M  V30 5183 H 496.777 -1.91332 4.45556 0
M  V30 5184 N 498.12 -1.38341 -0.754957 0
M  V30 5185 C 499.345 -1.37882 -1.5493 0
M  V30 5186 C 499.77 0.0296385 -1.88077 0
M  V30 5187 O 499.128 1.01133 -1.50472 0
M  V30 5188 C 499.176 -2.23996 -2.82592 0
M  V30 5189 O 498.28 -1.65612 -3.77686 0
M  V30 5190 H 497.621 -0.470384 -0.468652 0
M  V30 5191 H 500.151 -1.82084 -0.933082 0
M  V30 5192 H 500.161 -2.37806 -3.3153 0
M  V30 5193 H 498.836 -3.26365 -2.57796 0
M  V30 5194 H 497.413 -1.60936 -3.36384 0
M  V30 5195 N 499.598 0.982988 -1.23187 0
M  V30 5196 C 500.561 2.05649 -1.01198 0
M  V30 5197 C 501.561 1.6078 0.0252464 0
M  V30 5198 O 502.751 1.72878 -0.214243 0
M  V30 5199 C 499.883 3.36744 -0.530656 0
M  V30 5200 H 501.076 2.2659 -1.96461 0
M  V30 5201 H 498.629 1.15602 -1.05195 0
M  V30 5202 H 499.364 3.21492 0.425873 0
M  V30 5203 H 499.149 3.7065 -1.2791 0
M  V30 5204 H 500.639 4.15705 -0.397366 0
M  V30 5205 N 501.076 1.04316 1.18135 0
M  V30 5206 C 502.039 0.640794 2.2006 0
M  V30 5207 C 503.039 -0.303124 1.57917 0
M  V30 5208 O 504.229 -0.0881855 1.73977 0
M  V30 5209 C 501.361 -0.060148 3.40847 0
M  V30 5210 H 502.554 1.54281 2.57172 0
M  V30 5211 H 500.107 0.836004 1.32063 0
M  V30 5212 H 500.842 -0.975845 3.0927 0
M  V30 5213 H 500.627 0.618319 3.87194 0
M  V30 5214 H 502.117 -0.328082 4.16309 0
M  V30 5215 N 502.554 -1.34406 0.822964 0
M  V30 5216 C 503.502 -2.31428 0.233165 0
M  V30 5217 C 504.496 -1.57404 -0.626118 0
M  V30 5218 O 505.702 -1.72402 -0.517453 0
M  V30 5219 H 502.077 -0.749863 0.0566557 0
M  V30 5220 H 504.048 -2.78699 1.06628 0
M  V30 5221 C 502.797 -3.42653 -0.590264 0
M  V30 5222 H 502.12 -3.99753 0.0616129 0
M  V30 5223 H 503.56 -4.12778 -0.969054 0
M  V30 5224 C 502.019 -2.87112 -1.76262 0
M  V30 5225 O 502.549 -2.81995 -2.8608 0
M  V30 5226 N 500.755 -2.43934 -1.57938 0
M  V30 5227 H 500.302 -2.48296 -0.686078 0
M  V30 5228 H 500.26 -2.07123 -2.36532 0
M  V30 5229 N 504.032 -0.577932 -1.46621 0
M  V30 5230 C 505.281 -0.0594281 -2.01612 0
M  V30 5231 C 505.594 1.30663 -1.45556 0
M  V30 5232 O 506.8 1.91621 -1.92337 0
M  V30 5233 C 505.256 -0.0556666 -3.59857 0
M  V30 5234 C 504.864 -1.41975 -4.24908 0
M  V30 5235 C 506.608 0.409143 -4.22524 0
M  V30 5236 C 504.515 -1.37397 -5.75218 0
M  V30 5237 H 503.445 -0.0184469 -0.753774 0
M  V30 5238 H 506.096 -0.728869 -1.68404 0
M  V30 5239 H 504.478 0.679843 -3.90121 0
M  V30 5240 H 505.652 -2.17461 -4.0626 0
M  V30 5241 H 503.967 -1.82419 -3.74316 0
M  V30 5242 H 506.564 0.46211 -5.32699 0
M  V30 5243 H 506.907 1.42565 -3.91128 0
M  V30 5244 H 507.44 -0.272152 -3.96868 0
M  V30 5245 H 504.179 -2.36714 -6.11267 0
M  V30 5246 H 503.699 -0.661239 -5.96144 0
M  V30 5247 H 505.378 -1.08484 -6.3784 0
M  V30 5248 N 505.51 1.54411 -0.315457 0
M  V30 5249 C 506.442 2.21527 0.588067 0
M  V30 5250 C 507.455 1.21263 1.08624 0
M  V30 5251 O 508.644 1.47777 1.00121 0
M  V30 5252 C 505.744 2.85963 1.81875 0
M  V30 5253 C 504.917 4.12291 1.46063 0
M  V30 5254 C 503.976 4.60396 2.54799 0
M  V30 5255 O 503.002 5.25265 2.19283 0
M  V30 5256 N 504.204 4.33935 3.85591 0
M  V30 5257 H 506.969 2.99697 0.013414 0
M  V30 5258 H 504.53 1.61308 -0.138295 0
M  V30 5259 H 506.522 3.15071 2.53993 0
M  V30 5260 H 505.092 2.11548 2.30144 0
M  V30 5261 H 504.312 3.90036 0.571445 0
M  V30 5262 H 505.6 4.9452 1.19695 0
M  V30 5263 H 504.998 3.81996 4.17248 0
M  V30 5264 H 503.555 4.67718 4.53964 0
M  V30 5265 N 506.988 0.0434614 1.5754 0
M  V30 5266 C 508.399 -0.493343 1.80064 0
M  V30 5267 C 508.75 -1.71388 0.955023 0
M  V30 5268 O 507.875 -2.15736 0.169434 0
M  V30 5269 C 508.47 -0.90179 3.26578 0
M  V30 5270 C 507.029 -1.38362 3.50047 0
M  V30 5271 C 506.176 -0.355129 2.75017 0
M  V30 5272 H 509.127 0.2694 1.56397 0
M  V30 5273 H 509.148 -1.76523 3.37075 0
M  V30 5274 H 508.66 -0.013271 3.88098 0
M  V30 5275 H 506.761 -2.29159 2.93798 0
M  V30 5276 H 506.874 -1.3811 4.58762 0
M  V30 5277 H 505.238 -0.826348 2.40922 0
M  V30 5278 H 506.021 0.525172 3.39259 0
M  V30 5279 N 508.466 -1.55915 -0.229846 0
M  V30 5280 C 509.715 -1.77742 -0.953455 0
M  V30 5281 C 510.028 -0.610524 -1.85828 0
M  V30 5282 O 511.234 -0.712219 -2.61992 0
M  V30 5283 C 509.69 -3.14738 -1.74551 0
M  V30 5284 C 509.298 -4.39126 -0.887242 0
M  V30 5285 C 511.042 -3.45895 -2.46084 0
M  V30 5286 C 508.949 -5.67149 -1.67617 0
M  V30 5287 H 507.879 -0.662648 -0.359741 0
M  V30 5288 H 510.53 -1.82322 -0.207576 0
M  V30 5289 H 508.912 -3.04311 -2.53399 0
M  V30 5290 H 510.086 -4.60588 -0.139892 0
M  V30 5291 H 508.401 -4.15427 -0.284443 0
M  V30 5292 H 510.998 -4.38767 -3.05594 0
M  V30 5293 H 511.341 -2.68007 -3.18556 0
M  V30 5294 H 511.874 -3.57614 -1.74233 0
M  V30 5295 H 508.613 -6.47906 -0.994881 0
M  V30 5296 H 508.133 -5.49763 -2.39836 0
M  V30 5297 H 509.812 -6.07025 -2.23898 0
M  V30 5298 N 509.944 0.496216 -1.49584 0
M  V30 5299 C 511.191 1.25003 -1.59312 0
M  V30 5300 C 511.519 1.92445 -0.28198 0
M  V30 5301 O 510.774 1.81557 0.730452 0
M  V30 5302 C 511.073 2.3359 -2.705 0
M  V30 5303 C 510.739 1.83574 -4.11839 0
M  V30 5304 C 509.401 1.69653 -4.50302 0
M  V30 5305 C 511.753 1.46193 -5.00277 0
M  V30 5306 C 509.081 1.16736 -5.74969 0
M  V30 5307 C 511.433 0.947265 -6.25468 0
M  V30 5308 C 510.097 0.794485 -6.62755 0
M  V30 5309 H 509.367 0.45742 -0.582965 0
M  V30 5310 H 512.014 0.549996 -1.83432 0
M  V30 5311 H 510.319 3.09401 -2.40371 0
M  V30 5312 H 512.016 2.91627 -2.75235 0
M  V30 5313 H 508.606 1.9537 -3.81482 0
M  V30 5314 H 512.79 1.55793 -4.71214 0
M  V30 5315 H 508.046 1.03623 -6.02555 0
M  V30 5316 H 512.22 0.648846 -6.93371 0
M  V30 5317 H 509.847 0.382271 -7.59238 0
M  V30 5318 N 511.423 1.38739 0.74761 0
M  V30 5319 C 512.386 1.36241 1.84312 0
M  V30 5320 C 513.386 0.261811 1.58654 0
M  V30 5321 O 514.576 0.519031 1.66288 0
M  V30 5322 C 511.708 1.12253 3.21888 0
M  V30 5323 H 512.901 2.33712 1.87933 0
M  V30 5324 H 510.454 1.2412 0.949946 0
M  V30 5325 H 511.189 0.154133 3.23934 0
M  V30 5326 H 510.974 1.91943 3.41907 0
M  V30 5327 H 512.464 1.13215 4.0196 0
M  V30 5328 N 512.901 -0.976442 1.23707 0
M  V30 5329 C 514.147 -1.72081 1.07312 0
M  V30 5330 C 514.48 -1.90275 -0.388476 0
M  V30 5331 O 513.755 -1.4579 -1.28746 0
M  V30 5332 C 514.038 -3.11675 1.80363 0
M  V30 5333 C 513.891 -3.01027 3.3422 0
M  V30 5334 C 515.21 -4.1117 1.5693 0
M  V30 5335 H 512.329 -0.624583 0.391236 0
M  V30 5336 H 514.971 -1.13649 1.52263 0
M  V30 5337 H 513.121 -3.61559 1.42153 0
M  V30 5338 H 514.793 -2.58637 3.81975 0
M  V30 5339 H 513.036 -2.3744 3.63049 0
M  V30 5340 H 513.707 -3.9988 3.80525 0
M  V30 5341 H 516.183 -3.7011 1.90151 0
M  V30 5342 H 515.059 -5.06928 2.10513 0
M  V30 5343 H 515.32 -4.392 0.505548 0
M  V30 5344 N 514.379 -1.04941 -1.1758 0
M  V30 5345 C 515.607 -0.778294 -1.91703 0
M  V30 5346 C 516.022 0.665697 -1.76675 0
M  V30 5347 O 515.379 1.45456 -1.10222 0
M  V30 5348 C 515.43 -1.14628 -3.42845 0
M  V30 5349 O 515.151 -2.53359 -3.57409 0
M  V30 5350 C 516.652 -0.900931 -4.34049 0
M  V30 5351 H 513.872 -0.283167 -0.608323 0
M  V30 5352 H 516.416 -1.39942 -1.49119 0
M  V30 5353 H 514.571 -0.569953 -3.83184 0
M  V30 5354 H 514.985 -2.67709 -4.51035 0
M  V30 5355 H 516.459 -1.20817 -5.38616 0
M  V30 5356 H 516.936 0.163966 -4.38894 0
M  V30 5357 H 517.542 -1.46097 -3.99419 0
M  V30 5358 N 515.857 1.33968 -0.830081 0
M  V30 5359 C 517.082 2.02813 -0.433796 0
M  V30 5360 C 517.507 1.62076 0.954614 0
M  V30 5361 O 516.865 0.808955 1.62252 0
M  V30 5362 C 516.913 3.56348 -0.552115 0
M  V30 5363 O 516.017 4.10202 0.425191 0
M  V30 5364 H 515.358 0.639817 -0.177567 0
M  V30 5365 H 517.888 1.7106 -1.12248 0
M  V30 5366 H 517.898 4.05722 -0.430513 0
M  V30 5367 H 516.573 3.85344 -1.56471 0
M  V30 5368 H 515.15 3.71979 0.261878 0
M  V30 5369 N 517.335 0.585699 1.46312 0
M  V30 5370 C 518.298 -0.135673 2.28798 0
M  V30 5371 C 519.298 -0.815988 1.38558 0
M  V30 5372 O 520.488 -0.667487 1.60904 0
M  V30 5373 C 517.62 -1.20163 3.1902 0
M  V30 5374 H 518.813 0.589257 2.94054 0
M  V30 5375 H 516.366 0.343794 1.52472 0
M  V30 5376 H 517.101 -1.95804 2.58517 0
M  V30 5377 H 516.886 -0.718282 3.85465 0
M  V30 5378 H 518.376 -1.70749 3.81096 0
M  V30 5379 N 518.813 -1.54241 0.323641 0
M  V30 5380 C 519.776 -2.22997 -0.529602 0
M  V30 5381 C 520.776 -1.22345 -1.04347 0
M  V30 5382 O 521.966 -1.46924 -0.935889 0
M  V30 5383 C 519.098 -2.93409 -1.73562 0
M  V30 5384 H 520.291 -2.99815 0.0714518 0
M  V30 5385 H 517.844 -1.56121 0.0747258 0
M  V30 5386 H 518.579 -2.20729 -2.37591 0
M  V30 5387 H 518.364 -3.67217 -1.37456 0
M  V30 5388 H 519.854 -3.45794 -2.34128 0
M  V30 5389 N 520.291 -0.0518155 -1.57515 0
M  V30 5390 C 521.221 0.920283 -2.146 0
M  V30 5391 C 522.202 1.32406 -1.06783 0
M  V30 5392 O 523.387 1.39866 -1.34726 0
M  V30 5393 C 520.517 2.1949 -2.6915 0
M  V30 5394 C 519.471 1.93116 -3.81956 0
M  V30 5395 C 518.797 3.27037 -4.23026 0
M  V30 5396 C 520.097 1.25225 -5.07066 0
M  V30 5397 H 521.791 0.444801 -2.96077 0
M  V30 5398 H 519.337 0.212508 -1.42423 0
M  V30 5399 H 521.29 2.87894 -3.07725 0
M  V30 5400 H 520.014 2.69244 -1.84865 0
M  V30 5401 H 518.673 1.27123 -3.43854 0
M  V30 5402 H 518.321 3.74595 -3.3569 0
M  V30 5403 H 518.021 3.10189 -4.99056 0
M  V30 5404 H 519.545 3.96673 -4.64202 0
M  V30 5405 H 520.959 1.83666 -5.43083 0
M  V30 5406 H 519.356 1.18702 -5.88243 0
M  V30 5407 H 520.426 0.228382 -4.84362 0
M  V30 5408 N 521.769 1.56035 0.221574 0
M  V30 5409 C 523.18 1.69229 0.788567 0
M  V30 5410 C 523.531 0.653814 1.84986 0
M  V30 5411 O 522.656 -0.195065 2.15519 0
M  V30 5412 C 523.251 3.06809 1.43713 0
M  V30 5413 C 521.81 3.21858 1.95152 0
M  V30 5414 C 520.957 2.65155 0.811685 0
M  V30 5415 H 523.908 1.587 -0.00307894 0
M  V30 5416 H 523.929 3.02666 2.30594 0
M  V30 5417 H 523.441 3.82369 0.664475 0
M  V30 5418 H 521.542 2.51167 2.7522 0
M  V30 5419 H 521.655 4.29073 2.1315 0
M  V30 5420 H 520.019 2.23635 1.21899 0
M  V30 5421 H 520.802 3.43261 0.0516987 0
M  V30 5422 N 523.247 -0.488276 1.49845 0
M  V30 5423 C 524.493 -1.24341 1.6021 0
M  V30 5424 C 524.826 -1.91967 0.293651 0
M  V30 5425 O 524.101 -1.81323 -0.703718 0
M  V30 5426 C 524.384 -2.3005 2.77036 0
M  V30 5427 C 524.237 -1.66842 4.17713 0
M  V30 5428 C 525.556 -3.31509 2.89464 0
M  V30 5429 H 522.675 -0.450704 0.583125 0
M  V30 5430 H 525.317 -0.539673 1.82174 0
M  V30 5431 H 523.467 -2.90071 2.58439 0
M  V30 5432 H 525.139 -1.1055 4.47858 0
M  V30 5433 H 523.382 -0.972079 4.22768 0
M  V30 5434 H 524.053 -2.43576 4.95353 0
M  V30 5435 H 526.529 -2.81493 3.06433 0
M  V30 5436 H 525.405 -4.02822 3.72861 0
M  V30 5437 H 525.666 -3.94603 1.99351 0
M  V30 5438 N 524.725 -1.39134 -0.740242 0
M  V30 5439 C 525.955 -1.39132 -1.52728 0
M  V30 5440 C 526.363 0.0173133 -1.89192 0
M  V30 5441 O 525.706 0.997715 -1.54244 0
M  V30 5442 C 525.768 -2.1952 -2.84695 0
M  V30 5443 C 525.432 -3.68203 -2.70695 0
M  V30 5444 C 526.429 -4.61401 -2.39593 0
M  V30 5445 C 524.114 -4.11724 -2.8773 0
M  V30 5446 C 526.108 -5.96102 -2.25701 0
M  V30 5447 C 523.795 -5.46503 -2.73456 0
M  V30 5448 C 524.793 -6.38506 -2.42486 0
M  V30 5449 O 524.481 -7.70803 -2.28295 0
M  V30 5450 H 524.213 -0.477263 -0.478744 0
M  V30 5451 H 526.767 -1.83504 -0.922799 0
M  V30 5452 H 524.997 -1.69888 -3.47383 0
M  V30 5453 H 526.686 -2.1176 -3.46284 0
M  V30 5454 H 527.452 -4.29079 -2.26088 0
M  V30 5455 H 523.331 -3.4045 -3.10829 0
M  V30 5456 H 526.875 -6.6788 -2.0145 0
M  V30 5457 H 522.772 -5.78417 -2.86538 0
M  V30 5458 H 523.54 -7.8147 -2.43405 0
M  V30 5459 N 526.204 0.969867 -1.24223 0
M  V30 5460 C 527.136 2.0669 -0.99055 0
M  V30 5461 C 528.149 1.62753 0.0392222 0
M  V30 5462 O 529.338 1.77403 -0.197561 0
M  V30 5463 C 526.438 3.35589 -0.472594 0
M  V30 5464 C 525.611 4.08444 -1.56499 0
M  V30 5465 C 524.67 5.15616 -1.05007 0
M  V30 5466 O 523.696 5.41911 -1.7413 0
M  V30 5467 N 524.898 5.80383 0.116641 0
M  V30 5468 H 527.663 2.28855 -1.93508 0
M  V30 5469 H 525.224 1.13733 -1.15223 0
M  V30 5470 H 527.216 4.04542 -0.112919 0
M  V30 5471 H 525.786 3.10311 0.377617 0
M  V30 5472 H 525.006 3.33798 -2.09696 0
M  V30 5473 H 526.294 4.53882 -2.29932 0
M  V30 5474 H 525.692 5.6142 0.694589 0
M  V30 5475 H 524.249 6.50462 0.417483 0
M  V30 5476 N 527.682 1.05563 1.17022 0
M  V30 5477 C 528.592 0.670758 2.24807 0
M  V30 5478 C 529.608 -0.309865 1.71219 0
M  V30 5479 O 530.784 -0.161025 2.00755 0
M  V30 5480 C 527.849 0.055337 3.46656 0
M  V30 5481 C 526.91 1.08688 4.15314 0
M  V30 5482 C 526.143 0.500736 5.31346 0
M  V30 5483 O 526.366 -0.688718 5.66227 0
M  V30 5484 O 525.3 1.23683 5.89055 0
M  V30 5485 H 529.126 1.56914 2.60023 0
M  V30 5486 H 526.711 0.827428 1.24395 0
M  V30 5487 H 528.593 -0.286492 4.20425 0
M  V30 5488 H 527.268 -0.816638 3.13229 0
M  V30 5489 H 526.175 1.48077 3.43546 0
M  V30 5490 H 527.508 1.93014 4.52777 0
M  V30 5491 N 529.16 -1.33526 0.837174 0
M  V30 5492 C 530.09 -2.31764 0.284206 0
M  V30 5493 C 531.071 -1.58896 -0.607142 0
M  V30 5494 O 532.256 -1.86798 -0.531047 0
M  V30 5495 C 529.386 -3.43029 -0.542962 0
M  V30 5496 C 528.34 -4.27255 0.252451 0
M  V30 5497 C 527.666 -5.3012 -0.69836 0
M  V30 5498 C 528.966 -5.01229 1.46858 0
M  V30 5499 H 530.66 -2.78262 1.10502 0
M  V30 5500 H 528.206 -1.3378 0.532812 0
M  V30 5501 H 530.159 -4.1078 -0.940096 0
M  V30 5502 H 528.883 -2.95216 -1.39697 0
M  V30 5503 H 527.542 -3.61127 0.631124 0
M  V30 5504 H 527.19 -4.78564 -1.54872 0
M  V30 5505 H 526.89 -5.87353 -0.170274 0
M  V30 5506 H 528.414 -6.00737 -1.09305 0
M  V30 5507 H 529.828 -5.61756 1.14469 0
M  V30 5508 H 528.225 -5.68104 1.93333 0
M  V30 5509 H 529.295 -4.301 2.23924 0
M  V30 5510 N 530.638 -0.59345 -1.46 0
M  V30 5511 C 531.863 -0.0872365 -2.07216 0
M  V30 5512 C 532.288 1.2131 -1.43755 0
M  V30 5513 O 531.646 1.73528 -0.525152 0
M  V30 5514 C 531.694 0.0538197 -3.6056 0
M  V30 5515 O 530.798 1.10765 -3.97247 0
M  V30 5516 H 530.139 -0.0676598 -0.660544 0
M  V30 5517 H 532.669 -0.819445 -1.87473 0
M  V30 5518 H 532.679 0.256567 -4.07193 0
M  V30 5519 H 531.354 -0.895739 -4.0614 0
M  V30 5520 H 529.931 0.882501 -3.62307 0
M  V30 5521 N 532.116 1.54067 -0.331816 0
M  V30 5522 C 533.063 2.24623 0.530372 0
M  V30 5523 C 534.033 1.24009 1.10503 0
M  V30 5524 O 535.218 1.52712 1.14384 0
M  V30 5525 C 532.358 3.01374 1.68129 0
M  V30 5526 C 531.471 4.16821 1.13507 0
M  V30 5527 C 530.606 4.81085 2.25234 0
M  V30 5528 C 529.645 5.88621 1.67903 0
M  V30 5529 N 528.782 6.46713 2.73326 0
M  V30 5530 H 533.622 2.97898 -0.0778607 0
M  V30 5531 H 531.159 1.47014 -0.0501965 0
M  V30 5532 H 533.117 3.44125 2.35868 0
M  V30 5533 H 531.747 2.30419 2.26069 0
M  V30 5534 H 530.799 3.78796 0.348979 0
M  V30 5535 H 532.111 4.94203 0.675633 0
M  V30 5536 H 531.265 5.26846 3.00862 0
M  V30 5537 H 530.004 4.03102 2.74518 0
M  V30 5538 H 529.009 5.42254 0.907773 0
M  V30 5539 H 530.234 6.68506 1.19487 0
M  V30 5540 H 528.18 5.71599 3.21886 0
M  V30 5541 H 528.097 7.19532 2.3197 0
M  V30 5542 H 529.365 6.97129 3.48758 0
M  V30 5543 N 533.594 0.0601682 1.57485 0
M  V30 5544 C 534.524 -0.90889 2.15085 0
M  V30 5545 C 535.505 -1.31838 1.07484 0
M  V30 5546 O 536.69 -1.3915 1.35466 0
M  V30 5547 C 533.82 -2.18059 2.7031 0
M  V30 5548 C 532.774 -1.91088 3.82974 0
M  V30 5549 C 532.1 -3.24789 4.24754 0
M  V30 5550 C 533.4 -1.22535 5.07723 0
M  V30 5551 H 535.094 -0.429093 2.96309 0
M  V30 5552 H 532.64 -0.204952 1.42534 0
M  V30 5553 H 534.593 -2.86258 3.09248 0
M  V30 5554 H 533.317 -2.6826 1.8629 0
M  V30 5555 H 531.976 -1.25297 3.44523 0
M  V30 5556 H 531.624 -3.72809 3.37672 0
M  V30 5557 H 531.324 -3.07538 5.00694 0
M  V30 5558 H 532.848 -3.94205 4.66299 0
M  V30 5559 H 534.262 -1.80783 5.4405 0
M  V30 5560 H 532.659 -1.1558 5.88864 0
M  V30 5561 H 533.729 -0.202692 4.84476 0
M  V30 5562 N 535.072 -1.5615 -0.213296 0
M  V30 5563 C 536.321 -1.78743 -0.93455 0
M  V30 5564 C 536.634 -0.630199 -1.8517 0
M  V30 5565 O 537.84 -0.739966 -2.61222 0
M  V30 5566 C 536.296 -3.16571 -1.71203 0
M  V30 5567 C 535.904 -4.40043 -0.840617 0
M  V30 5568 C 537.648 -3.48485 -2.42401 0
M  V30 5569 C 535.555 -5.68895 -1.61592 0
M  V30 5570 H 534.485 -0.666426 -0.352692 0
M  V30 5571 H 537.136 -1.82532 -0.188227 0
M  V30 5572 H 535.518 -3.06981 -2.50157 0
M  V30 5573 H 536.692 -4.6071 -0.0910326 0
M  V30 5574 H 535.007 -4.15706 -0.240365 0
M  V30 5575 H 537.604 -4.41983 -3.00924 0
M  V30 5576 H 537.947 -2.71371 -3.15695 0
M  V30 5577 H 538.48 -3.59442 -1.7043 0
M  V30 5578 H 535.219 -6.48925 -0.926106 0
M  V30 5579 H 534.739 -5.52275 -2.33991 0
M  V30 5580 H 536.418 -6.09365 -2.17447 0
M  V30 5581 N 536.55 0.480323 -1.50102 0
M  V30 5582 C 537.961 1.06142 -1.53593 0
M  V30 5583 C 538.312 1.93335 -0.334055 0
M  V30 5584 O 537.437 2.09188 0.55403 0
M  V30 5585 C 538.032 1.9317 -2.78336 0
M  V30 5586 C 536.591 2.46405 -2.84538 0
M  V30 5587 C 535.738 1.24521 -2.4777 0
M  V30 5588 H 538.689 0.26333 -1.565 0
M  V30 5589 H 538.71 2.78123 -2.59669 0
M  V30 5590 H 538.222 1.29683 -3.65792 0
M  V30 5591 H 536.323 3.13472 -2.01411 0
M  V30 5592 H 536.436 2.82143 -3.87211 0
M  V30 5593 H 534.8 1.57706 -2.00003 0
M  V30 5594 H 535.583 0.627102 -3.37524 0
M  V30 5595 N 538.028 1.39524 0.732853 0
M  V30 5596 C 538.975 1.38416 1.84688 0
M  V30 5597 C 539.945 0.243539 1.64305 0
M  V30 5598 O 541.13 0.438979 1.85681 0
M  V30 5599 C 538.27 1.23555 3.22224 0
M  V30 5600 C 537.383 2.47179 3.54298 0
M  V30 5601 C 536.518 2.2489 4.81246 0
M  V30 5602 C 535.557 3.44178 5.0617 0
M  V30 5603 N 534.694 3.21192 6.24323 0
M  V30 5604 H 539.534 2.33645 1.84971 0
M  V30 5605 H 537.071 1.16059 0.903804 0
M  V30 5606 H 539.029 1.12949 4.0162 0
M  V30 5607 H 537.659 0.31954 3.21215 0
M  V30 5608 H 536.711 2.68379 2.69587 0
M  V30 5609 H 538.023 3.36022 3.68633 0
M  V30 5610 H 537.177 2.11538 5.68627 0
M  V30 5611 H 535.916 1.33443 4.69089 0
M  V30 5612 H 534.921 3.58025 4.17251 0
M  V30 5613 H 536.146 4.36528 5.20212 0
M  V30 5614 H 534.092 2.32413 6.1345 0
M  V30 5615 H 534.009 4.03594 6.39256 0
M  V30 5616 H 535.277 3.1154 7.14537 0
M  V30 5617 N 539.506 -0.963266 1.24736 0
M  V30 5618 C 540.731 -1.74699 1.11781 0
M  V30 5619 C 541.156 -1.85267 -0.325258 0
M  V30 5620 O 540.514 -1.32681 -1.23553 0
M  V30 5621 C 540.562 -3.14322 1.76731 0
M  V30 5622 O 539.666 -3.99043 1.04109 0
M  V30 5623 H 539.007 -0.53684 0.390767 0
M  V30 5624 H 541.537 -1.20801 1.65131 0
M  V30 5625 H 541.547 -3.64824 1.82668 0
M  V30 5626 H 540.222 -3.05946 2.81726 0
M  V30 5627 H 538.799 -3.5752 1.05991 0
M  V30 5628 N 540.985 -1.06182 -1.16461 0
M  V30 5629 C 541.948 -0.675723 -2.19013 0
M  V30 5630 C 542.948 0.277963 -1.58379 0
M  V30 5631 O 544.138 0.0604962 -1.74095 0
M  V30 5632 C 541.27 0.00591459 -3.40899 0
M  V30 5633 H 542.463 -1.58353 -2.54685 0
M  V30 5634 H 540.016 -0.856908 -1.30716 0
M  V30 5635 H 540.751 0.92652 -3.10783 0
M  V30 5636 H 540.536 -0.67984 -3.86161 0
M  V30 5637 H 542.026 0.26181 -4.16778 0
M  V30 5638 N 542.463 1.3308 -0.844243 0
M  V30 5639 C 543.709 1.97898 -0.443206 0
M  V30 5640 C 544.042 1.66699 0.99625 0
M  V30 5641 O 543.317 0.949704 1.69738 0
M  V30 5642 C 543.6 3.53801 -0.670606 0
M  V30 5643 C 543.453 3.94667 -2.15772 0
M  V30 5644 C 544.772 4.39936 -0.120226 0
M  V30 5645 H 541.891 0.718861 -0.162504 0
M  V30 5646 H 544.533 1.57633 -1.06075 0
M  V30 5647 H 542.683 3.88229 -0.14496 0
M  V30 5648 H 544.355 3.70469 -2.74865 0
M  V30 5649 H 542.598 3.44203 -2.6402 0
M  V30 5650 H 543.269 5.03275 -2.26757 0
M  V30 5651 H 545.745 4.12183 -0.5696 0
M  V30 5652 H 544.621 5.4803 -0.308984 0
M  V30 5653 H 544.882 4.31184 0.976347 0
M  V30 5654 N 543.941 0.601185 1.45683 0
M  V30 5655 C 545.189 0.0936957 2.01883 0
M  V30 5656 C 545.51 -1.2779 1.47291 0
M  V30 5657 O 544.78 -1.84279 0.664691 0
M  V30 5658 H 543.36 0.0316466 0.746329 0
M  V30 5659 H 546.022 0.781137 1.78562 0
M  V30 5660 H 545.118 0.0386297 3.12076 0
M  V30 5661 N 545.419 -1.53889 0.339982 0
M  V30 5662 C 546.329 -2.28604 -0.526988 0
M  V30 5663 C 547.345 -1.33578 -1.11503 0
M  V30 5664 O 548.521 -1.66612 -1.13148 0
M  V30 5665 C 545.586 -3.04164 -1.66389 0
M  V30 5666 C 544.647 -4.14809 -1.10599 0
M  V30 5667 C 543.88 -4.86756 -2.18871 0
M  V30 5668 O 544.103 -4.58343 -3.39526 0
M  V30 5669 O 543.037 -5.73289 -1.83366 0
M  V30 5670 H 546.863 -3.03594 0.0802707 0
M  V30 5671 H 544.448 -1.4903 0.105141 0
M  V30 5672 H 546.33 -3.51427 -2.32544 0
M  V30 5673 H 545.005 -2.32035 -2.25703 0
M  V30 5674 H 543.912 -3.71857 -0.409067 0
M  V30 5675 H 545.245 -4.89029 -0.557771 0
M  V30 5676 N 546.897 -0.0685191 -1.57451 0
M  V30 5677 C 547.827 0.89747 -2.15564 0
M  V30 5678 C 548.808 1.31266 -1.08181 0
M  V30 5679 O 549.993 1.38429 -1.36202 0
M  V30 5680 C 547.123 2.16623 -2.71463 0
M  V30 5681 C 546.077 1.89054 -3.83982 0
M  V30 5682 C 545.403 3.22532 -4.26471 0
M  V30 5683 C 546.703 1.1984 -5.08366 0
M  V30 5684 H 548.397 0.413373 -2.96533 0
M  V30 5685 H 545.943 0.197391 -1.42641 0
M  V30 5686 H 547.896 2.84614 -3.10761 0
M  V30 5687 H 546.62 2.67269 -1.8771 0
M  V30 5688 H 545.279 1.23469 -3.45183 0
M  V30 5689 H 544.927 3.71013 -3.39644 0
M  V30 5690 H 544.627 3.04879 -5.02317 0
M  V30 5691 H 546.151 3.91727 -4.68383 0
M  V30 5692 H 547.565 1.77896 -5.45001 0
M  V30 5693 H 545.962 1.12456 -5.89469 0
M  V30 5694 H 547.032 0.176996 -4.84577 0
M  V30 5695 N 548.375 1.56261 0.205012 0
M  V30 5696 C 549.6 1.84491 0.947512 0
M  V30 5697 C 550.025 0.650894 1.76479 0
M  V30 5698 O 549.383 -0.40035 1.76824 0
M  V30 5699 C 549.431 3.10863 1.82747 0
M  V30 5700 O 548.535 2.90719 2.925 0
M  V30 5701 H 547.876 0.607783 0.267386 0
M  V30 5702 H 550.406 2.03485 0.213323 0
M  V30 5703 H 550.416 3.41399 2.23407 0
M  V30 5704 H 549.091 3.97392 1.2269 0
M  V30 5705 H 547.668 2.71457 2.55667 0
M  V30 5706 N 549.853 -0.472356 1.50355 0
M  V30 5707 C 550.763 -1.59637 1.7191 0
M  V30 5708 C 551.779 -1.63247 0.602195 0
M  V30 5709 O 552.955 -1.81139 0.880369 0
M  V30 5710 C 550.02 -2.9586 1.80742 0
M  V30 5711 C 549.081 -3.02649 3.04471 0
M  V30 5712 C 548.314 -4.32374 3.12872 0
M  V30 5713 O 548.537 -5.22807 2.28099 0
M  V30 5714 O 547.471 -4.44728 4.05587 0
M  V30 5715 H 551.297 -1.44373 2.67189 0
M  V30 5716 H 548.882 -0.651717 1.34436 0
M  V30 5717 H 550.764 -3.7677 1.88739 0
M  V30 5718 H 549.439 -3.11325 0.88647 0
M  V30 5719 H 548.346 -2.20821 3.01975 0
M  V30 5720 H 549.679 -2.92119 3.9614 0
M  V30 5721 N 551.331 -1.39911 -0.725443 0
M  V30 5722 C 552.608 -1.28158 -1.47766 0
M  V30 5723 C 552.988 0.104545 -2.10841 0
M  V30 5724 O 552.336 1.11657 -1.99361 0
M  V30 5725 C 552.546 -2.41306 -2.52135 0
M  V30 5726 C 553.894 -2.81076 -3.18247 0
M  V30 5727 O 554.918 -2.40827 -2.62452 0
M  V30 5728 O 553.777 -3.50581 -4.19231 0
M  V30 5729 H 550.871 -0.502761 -0.656628 0
M  V30 5730 H 553.417 -1.51808 -0.758456 0
M  V30 5731 H 552.189 -3.33932 -2.03974 0
M  V30 5732 H 551.812 -2.19374 -3.31603 0
M  V30 5733 N 552.809 0.956637 -1.25245 0
M  V30 5734 C 554.034 1.74104 -1.12706 0
M  V30 5735 C 554.459 1.85436 0.315429 0
M  V30 5736 O 553.817 1.33334 1.22848 0
M  V30 5737 C 553.865 3.1338 -1.78396 0
M  V30 5738 O 552.969 3.98485 -1.06224 0
M  V30 5739 H 552.31 0.53476 -0.393609 0
M  V30 5740 H 554.84 1.19924 -1.65769 0
M  V30 5741 H 554.85 3.6385 -1.846 0
M  V30 5742 H 553.525 3.04448 -2.83345 0
M  V30 5743 H 552.102 3.56952 -1.07886 0
M  V30 5744 N 554.287 1.06798 1.15896 0
M  V30 5745 C 555.512 0.808739 1.90982 0
M  V30 5746 C 555.937 -0.6316 1.77179 0
M  V30 5747 O 555.295 -1.4407 1.10061 0
M  V30 5748 C 555.343 1.21468 3.39526 0
M  V30 5749 O 554.447 0.356562 4.10856 0
M  V30 5750 H 553.788 0.29512 0.594811 0
M  V30 5751 H 556.318 1.42513 1.46804 0
M  V30 5752 H 556.328 1.18844 3.90308 0
M  V30 5753 H 555.003 2.26379 3.48891 0
M  V30 5754 H 553.58 0.444808 3.70238 0
M  V30 5755 N 555.766 -1.3263 0.851289 0
M  V30 5756 C 556.714 -2.30882 0.282202 0
M  V30 5757 C 557.708 -1.58697 -0.592589 0
M  V30 5758 O 558.914 -1.73461 -0.480768 0
M  V30 5759 H 555.289 -0.748492 0.0725487 0
M  V30 5760 H 557.26 -2.76374 1.12516 0
M  V30 5761 C 556.009 -3.43828 -0.517449 0
M  V30 5762 H 555.332 -3.99532 0.146392 0
M  V30 5763 H 556.772 -4.1474 -0.88128 0
M  V30 5764 C 555.231 -2.90786 -1.70133 0
M  V30 5765 O 555.761 -2.88 -2.80034 0
M  V30 5766 N 553.967 -2.4723 -1.52728 0
M  V30 5767 H 553.514 -2.49695 -0.633257 0
M  V30 5768 H 553.472 -2.12094 -2.32085 0
M  V30 5769 N 557.244 -0.608902 -1.45362 0
M  V30 5770 C 558.49 -0.104762 -2.02529 0
M  V30 5771 C 558.823 1.26191 -1.47613 0
M  V30 5772 O 558.098 1.8327 -0.65134 0
M  V30 5773 C 558.381 -0.0672661 -3.60037 0
M  V30 5774 C 558.234 -1.4647 -4.25284 0
M  V30 5775 C 559.553 0.619877 -4.35713 0
M  V30 5776 H 556.672 -0.0395438 -0.735938 0
M  V30 5777 H 559.314 -0.781126 -1.73201 0
M  V30 5778 H 557.464 0.50871 -3.85155 0
M  V30 5779 H 559.136 -2.08785 -4.11347 0
M  V30 5780 H 557.379 -2.02502 -3.83634 0
M  V30 5781 H 558.05 -1.39069 -5.34195 0
M  V30 5782 H 560.526 0.130297 -4.15896 0
M  V30 5783 H 559.402 0.615224 -5.45441 0
M  V30 5784 H 559.663 1.68621 -4.0868 0
M  V30 5785 N 558.722 1.53707 -0.348139 0
M  V30 5786 C 559.968 2.01286 0.247332 0
M  V30 5787 C 560.301 1.23546 1.49834 0
M  V30 5788 O 559.576 0.324331 1.91777 0
M  V30 5789 C 559.859 3.55768 0.556858 0
M  V30 5790 C 559.712 4.44216 -0.706564 0
M  V30 5791 C 561.031 4.1841 1.3646 0
M  V30 5792 H 558.15 0.731677 0.0884201 0
M  V30 5793 H 560.792 1.84106 -0.469584 0
M  V30 5794 H 558.942 3.70539 1.16761 0
M  V30 5795 H 560.614 4.41274 -1.34444 0
M  V30 5796 H 558.857 4.12892 -1.33052 0
M  V30 5797 H 559.528 5.50202 -0.445186 0
M  V30 5798 H 562.004 4.07365 0.848113 0
M  V30 5799 H 560.88 5.26563 1.54992 0
M  V30 5800 H 561.141 3.7333 2.36805 0
M  V30 5801 N 560.2 0.0768682 1.57412 0
M  V30 5802 C 561.132 -0.918248 2.10002 0
M  V30 5803 C 562.145 -1.25808 1.03325 0
M  V30 5804 O 563.334 -1.21438 1.30824 0
M  V30 5805 C 560.434 -2.23263 2.54964 0
M  V30 5806 C 559.607 -2.07088 3.8527 0
M  V30 5807 C 558.666 -3.21876 4.16272 0
M  V30 5808 O 557.692 -2.96643 4.8579 0
M  V30 5809 N 558.894 -4.4712 3.70221 0
M  V30 5810 H 561.659 -0.469209 2.96004 0
M  V30 5811 H 559.22 -0.108725 1.61535 0
M  V30 5812 H 561.212 -2.9897 2.72762 0
M  V30 5813 H 559.782 -2.59649 1.74072 0
M  V30 5814 H 559.002 -1.15818 3.76802 0
M  V30 5815 H 560.29 -1.93537 4.70554 0
M  V30 5816 H 559.688 -4.70506 3.1407 0
M  V30 5817 H 558.245 -5.19837 3.93209 0
M  V30 5818 N 561.678 -1.56367 -0.196722 0
M  V30 5819 C 562.608 -1.97442 -1.24655 0
M  V30 5820 C 563.589 -0.846147 -1.47561 0
M  V30 5821 O 564.774 -1.11035 -1.59326 0
M  V30 5822 C 561.904 -2.31253 -2.59112 0
M  V30 5823 C 560.858 -3.46804 -2.50821 0
M  V30 5824 C 560.184 -3.66286 -3.89536 0
M  V30 5825 C 561.484 -4.8104 -2.03465 0
M  V30 5826 H 563.178 -2.85388 -0.905216 0
M  V30 5827 H 560.724 -1.37304 -0.434002 0
M  V30 5828 H 562.677 -2.58583 -3.32736 0
M  V30 5829 H 561.401 -1.40188 -2.94983 0
M  V30 5830 H 560.06 -3.19563 -1.79653 0
M  V30 5831 H 559.708 -2.72555 -4.22756 0
M  V30 5832 H 559.408 -4.4402 -3.84864 0
M  V30 5833 H 560.932 -3.9599 -4.64784 0
M  V30 5834 H 562.346 -5.07411 -2.66846 0
M  V30 5835 H 560.743 -5.62232 -2.09798 0
M  V30 5836 H 561.813 -4.74732 -0.98781 0
M  V30 5837 N 563.156 0.464375 -1.50603 0
M  V30 5838 C 564.405 1.21277 -1.61167 0
M  V30 5839 C 564.718 1.92953 -0.320704 0
M  V30 5840 O 565.924 2.69778 -0.30534 0
M  V30 5841 C 564.38 2.20403 -2.84518 0
M  V30 5842 C 563.988 1.54499 -4.20516 0
M  V30 5843 C 565.732 2.95843 -3.0443 0
M  V30 5844 C 563.639 2.51951 -5.35047 0
M  V30 5845 H 562.569 0.456367 -0.600204 0
M  V30 5846 H 565.22 0.48254 -1.77042 0
M  V30 5847 H 563.602 2.96746 -2.62217 0
M  V30 5848 H 564.776 0.83899 -4.53098 0
M  V30 5849 H 563.091 0.913152 -4.06264 0
M  V30 5850 H 565.688 3.6879 -3.87167 0
M  V30 5851 H 566.031 3.55622 -2.16423 0
M  V30 5852 H 566.564 2.26611 -3.26944 0
M  V30 5853 H 563.303 1.96901 -6.25228 0
M  V30 5854 H 562.823 3.20683 -5.06875 0
M  V30 5855 H 564.502 3.13643 -5.65895 0
M  V30 5856 N 564.634 1.40294 0.718013 0
M  V30 5857 C 565.567 1.34767 1.84155 0
M  V30 5858 C 566.545 0.218455 1.61126 0
M  V30 5859 O 567.729 0.401716 1.8417 0
M  V30 5860 C 564.856 1.09676 3.20451 0
M  V30 5861 C 563.902 2.25016 3.62312 0
M  V30 5862 S 564.735 3.87397 3.69707 0
M  V30 5863 C 565.891 3.64565 5.08766 0
M  V30 5864 H 566.124 2.29851 1.88562 0
M  V30 5865 H 563.657 1.2655 0.884555 0
M  V30 5866 H 565.615 0.95885 3.99144 0
M  V30 5867 H 564.276 0.162502 3.13679 0
M  V30 5868 H 563.469 2.03097 4.61268 0
M  V30 5869 H 563.071 2.35098 2.90869 0
M  V30 5870 H 565.363 3.22882 5.95612 0
M  V30 5871 H 566.306 4.63043 5.35721 0
M  V30 5872 H 566.714 2.98303 4.79245 0
M  V30 5873 N 566.112 -0.949982 1.2575 0
M  V30 5874 C 567.389 -1.6718 1.01539 0
M  V30 5875 C 567.769 -2.06095 -0.456942 0
M  V30 5876 O 567.117 -1.77792 -1.43534 0
M  V30 5877 C 567.327 -2.8906 1.95564 0
M  V30 5878 C 568.675 -3.60909 2.23673 0
M  V30 5879 O 569.699 -2.9915 1.9336 0
M  V30 5880 O 568.558 -4.72127 2.75243 0
M  V30 5881 H 565.652 -0.731697 0.385419 0
M  V30 5882 H 568.198 -1.00249 1.36924 0
M  V30 5883 H 566.97 -2.57128 2.94959 0
M  V30 5884 H 566.593 -3.63719 1.60605 0
M  V30 5885 N 567.59 -1.07411 -1.15328 0
M  V30 5886 C 568.553 -0.698914 -2.18284 0
M  V30 5887 C 569.553 0.261149 -1.58665 0
M  V30 5888 O 570.743 0.0420277 -1.74149 0
M  V30 5889 C 567.875 -0.0302427 -3.40887 0
M  V30 5890 H 569.068 -1.61045 -2.52991 0
M  V30 5891 H 566.621 -0.870724 -1.298 0
M  V30 5892 H 567.356 0.893505 -3.11748 0
M  V30 5893 H 567.141 -0.720759 -3.85419 0
M  V30 5894 H 568.631 0.21759 -4.17033 0
M  V30 5895 N 569.068 1.32177 -0.85831 0
M  V30 5896 C 570.298 2.01021 -0.476889 0
M  V30 5897 C 570.706 1.64653 0.931995 0
M  V30 5898 O 570.049 0.865713 1.62022 0
M  V30 5899 C 570.111 3.55413 -0.540528 0
M  V30 5900 C 569.775 4.1522 -1.90895 0
M  V30 5901 C 570.772 4.3318 -2.87491 0
M  V30 5902 C 568.457 4.51212 -2.20709 0
M  V30 5903 C 570.451 4.86306 -4.1205 0
M  V30 5904 C 568.138 5.04042 -3.45521 0
M  V30 5905 C 569.136 5.21538 -4.41007 0
M  V30 5906 O 568.824 5.73238 -5.63608 0
M  V30 5907 H 568.556 0.650059 -0.18547 0
M  V30 5908 H 571.11 1.69648 -1.15796 0
M  V30 5909 H 569.34 3.86196 0.19741 0
M  V30 5910 H 571.029 4.05526 -0.174191 0
M  V30 5911 H 571.795 4.05704 -2.65762 0
M  V30 5912 H 567.674 4.36878 -1.4717 0
M  V30 5913 H 571.218 4.99877 -4.86589 0
M  V30 5914 H 567.115 5.30952 -3.67098 0
M  V30 5915 H 567.883 5.91625 -5.65617 0
M  V30 5916 N 570.547 0.616602 1.45037 0
M  V30 5917 C 571.495 -0.109318 2.32343 0
M  V30 5918 C 572.489 -0.850543 1.465 0
M  V30 5919 O 573.695 -0.765088 1.62931 0
M  V30 5920 H 570.07 -0.0541091 0.750051 0
M  V30 5921 H 572.041 0.645326 2.91338 0
M  V30 5922 C 570.79 -1.0872 3.30266 0
M  V30 5923 H 570.113 -0.526267 3.96321 0
M  V30 5924 H 571.553 -1.56489 3.94065 0
M  V30 5925 C 570.012 -2.16525 2.58105 0
M  V30 5926 O 570.542 -3.244 2.36913 0
M  V30 5927 N 568.748 -1.92057 2.18088 0
M  V30 5928 H 568.295 -1.04337 2.35524 0
M  V30 5929 H 568.253 -2.64391 1.70131 0
M  V30 5930 N 572.025 -1.5352 0.356285 0
M  V30 5931 C 573.25 -2.06007 -0.239961 0
M  V30 5932 C 573.675 -1.22872 -1.42422 0
M  V30 5933 O 573.033 -0.245516 -1.7963 0
M  V30 5934 C 573.081 -3.5522 -0.620587 0
M  V30 5935 O 572.185 -3.74864 -1.71902 0
M  V30 5936 H 571.526 -0.662961 -0.0371377 0
M  V30 5937 H 574.056 -1.98033 0.514194 0
M  V30 5938 H 574.066 -3.98081 -0.894197 0
M  V30 5939 H 572.741 -4.15175 0.245407 0
M  V30 5940 H 571.318 -3.43904 -1.44169 0
M  V30 5941 N 573.503 -0.0852151 -1.57369 0
M  V30 5942 C 574.433 0.874556 -2.16503 0
M  V30 5943 C 575.414 1.30111 -1.09568 0
M  V30 5944 O 576.599 1.36977 -1.37662 0
M  V30 5945 C 573.729 2.13731 -2.73745 0
M  V30 5946 C 572.683 1.84971 -3.85966 0
M  V30 5947 C 572.009 3.17991 -4.29867 0
M  V30 5948 C 573.309 1.14442 -5.09608 0
M  V30 5949 H 575.003 0.381899 -2.96954 0
M  V30 5950 H 572.549 0.18225 -1.42842 0
M  V30 5951 H 574.502 2.81302 -3.13763 0
M  V30 5952 H 573.226 2.65263 -1.90534 0
M  V30 5953 H 571.885 1.19801 -3.46473 0
M  V30 5954 H 571.533 3.6739 -3.4356 0
M  V30 5955 H 571.233 2.99534 -5.05523 0
M  V30 5956 H 572.757 3.86737 -4.72511 0
M  V30 5957 H 574.171 1.72105 -5.46857 0
M  V30 5958 H 572.568 1.06197 -5.90629 0
M  V30 5959 H 573.638 0.12559 -4.84737 0
M  V30 5960 N 574.981 1.5647 0.188427 0
M  V30 5961 C 576.206 1.85486 0.927891 0
M  V30 5962 C 576.631 0.669575 1.75779 0
M  V30 5963 O 575.989 -0.381573 1.77239 0
M  V30 5964 C 576.037 3.12784 1.7944 0
M  V30 5965 O 575.141 2.93805 2.894 0
M  V30 5966 H 574.482 0.610585 0.260925 0
M  V30 5967 H 577.012 2.037 0.191729 0
M  V30 5968 H 577.022 3.43749 2.19774 0
M  V30 5969 H 575.697 3.98671 1.18468 0
M  V30 5970 H 574.274 2.74153 2.52774 0
M  V30 5971 N 576.459 -0.456382 1.50847 0
M  V30 5972 C 577.684 -1.2349 1.66628 0
M  V30 5973 C 578.109 -1.84715 0.355254 0
M  V30 5974 O 577.467 -1.67961 -0.682559 0
M  V30 5975 C 577.515 -2.30865 2.77009 0
M  V30 5976 O 576.619 -3.35882 2.39285 0
M  V30 5977 H 575.96 -0.36266 0.556214 0
M  V30 5978 H 578.49 -0.541374 1.97308 0
M  V30 5979 H 578.5 -2.75949 3.00526 0
M  V30 5980 H 577.175 -1.85677 3.72152 0
M  V30 5981 H 575.752 -2.96406 2.26269 0
M  V30 5982 N 577.937 -1.40673 -0.710563 0
M  V30 5983 C 579.165 -1.42547 -1.4996 0
M  V30 5984 C 579.58 -0.0265485 -1.88781 0
M  V30 5985 O 578.937 0.950694 -1.55782 0
M  V30 5986 C 578.988 -2.32071 -2.77173 0
M  V30 5987 O 578.709 -3.66518 -2.39992 0
M  V30 5988 C 580.21 -2.42591 -3.71032 0
M  V30 5989 H 577.43 -0.486025 -0.462623 0
M  V30 5990 H 579.974 -1.84783 -0.876102 0
M  V30 5991 H 578.129 -1.93184 -3.35795 0
M  V30 5992 H 578.543 -4.14115 -3.21884 0
M  V30 5993 H 580.017 -3.09429 -4.57119 0
M  V30 5994 H 580.494 -1.4525 -4.14486 0
M  V30 5995 H 581.1 -2.82051 -3.18319 0
M  V30 5996 N 579.415 0.9433 -1.26252 0
M  V30 5997 C 580.661 1.69175 -1.11837 0
M  V30 5998 C 580.994 1.91238 0.337891 0
M  V30 5999 O 580.269 1.49152 1.24836 0
M  V30 6000 C 580.552 3.06783 -1.88563 0
M  V30 6001 C 580.405 2.9206 -3.42083 0
M  V30 6002 C 581.724 4.06865 -1.67776 0
M  V30 6003 H 578.843 0.61399 -0.407658 0
M  V30 6004 H 581.485 1.09572 -1.55222 0
M  V30 6005 H 579.635 3.57663 -1.51689 0
M  V30 6006 H 581.307 2.48419 -3.88698 0
M  V30 6007 H 579.55 2.27731 -3.69217 0
M  V30 6008 H 580.221 3.89651 -3.90994 0
M  V30 6009 H 582.697 3.64939 -1.99897 0
M  V30 6010 H 581.573 5.01168 -2.23879 0
M  V30 6011 H 581.834 4.37705 -0.621816 0
M  V30 6012 N 580.893 1.08022 1.14757 0
M  V30 6013 C 582.121 0.828847 1.89572 0
M  V30 6014 C 582.536 -0.618621 1.78377 0
M  V30 6015 O 581.893 -1.42482 1.1404 0
M  V30 6016 C 581.944 1.23677 3.39685 0
M  V30 6017 O 581.665 2.62746 3.50566 0
M  V30 6018 C 583.166 1.01569 4.31507 0
M  V30 6019 H 580.386 0.299196 0.600602 0
M  V30 6020 H 582.93 1.43846 1.45357 0
M  V30 6021 H 581.085 0.671347 3.81539 0
M  V30 6022 H 581.499 2.79573 4.43778 0
M  V30 6023 H 582.973 1.35055 5.35223 0
M  V30 6024 H 583.45 -0.0475433 4.39174 0
M  V30 6025 H 584.056 1.56636 3.95405 0
M  V30 6026 N 582.371 -1.3172 0.865308 0
M  V30 6027 C 583.301 -2.31109 0.333302 0
M  V30 6028 C 584.282 -1.60148 -0.573301 0
M  V30 6029 O 585.467 -1.87882 -0.491305 0
M  V30 6030 C 582.597 -3.44104 -0.470078 0
M  V30 6031 C 581.551 -4.26623 0.343021 0
M  V30 6032 C 580.877 -5.31482 -0.585756 0
M  V30 6033 C 582.177 -4.98001 1.57456 0
M  V30 6034 H 583.871 -2.75855 1.1638 0
M  V30 6035 H 581.417 -1.3262 0.561069 0
M  V30 6036 H 583.37 -4.12682 -0.852752 0
M  V30 6037 H 582.094 -2.98112 -1.33404 0
M  V30 6038 H 580.753 -3.59707 0.707583 0
M  V30 6039 H 580.401 -4.81741 -1.44686 0
M  V30 6040 H 580.101 -5.87582 -0.0456494 0
M  V30 6041 H 581.625 -6.0292 -0.965375 0
M  V30 6042 H 583.039 -5.59201 1.26359 0
M  V30 6043 H 581.436 -5.63876 2.05339 0
M  V30 6044 H 582.506 -4.25253 2.32997 0
M  V30 6045 N 583.85 -0.624285 -1.44708 0
M  V30 6046 C 584.76 0.0861083 -2.34442 0
M  V30 6047 C 585.776 0.84291 -1.5222 0
M  V30 6048 O 586.952 0.796723 -1.84971 0
M  V30 6049 C 584.017 1.05999 -3.30099 0
M  V30 6050 C 583.077 0.303316 -4.28227 0
M  V30 6051 C 582.311 1.23081 -5.19314 0
M  V30 6052 O 582.534 2.46929 -5.14181 0
M  V30 6053 O 581.468 0.71883 -5.97592 0
M  V30 6054 H 585.293 -0.651756 -2.96624 0
M  V30 6055 H 582.879 -0.384493 -1.44368 0
M  V30 6056 H 584.76 1.62046 -3.88997 0
M  V30 6057 H 583.436 1.77859 -2.70459 0
M  V30 6058 H 582.343 -0.300033 -3.72895 0
M  V30 6059 H 583.676 -0.375123 -4.90768 0
M  V30 6060 N 585.328 1.53329 -0.364422 0
M  V30 6061 C 586.278 2.22472 0.499024 0
M  V30 6062 C 587.262 1.21952 1.0496 0
M  V30 6063 O 588.454 1.47405 0.979836 0
M  V30 6064 C 585.583 3.01659 1.6388 0
M  V30 6065 C 584.669 4.09555 1.10116 0
M  V30 6066 N 585.06 5.04988 0.286414 0
M  V30 6067 C 583.358 4.2424 1.37608 0
M  V30 6068 C 584.059 5.81699 -0.00781682 0
M  V30 6069 N 583.035 5.40394 0.589494 0
M  V30 6070 H 586.837 2.93611 -0.130284 0
M  V30 6071 H 584.351 1.61483 -0.172377 0
M  V30 6072 H 586.348 3.4971 2.26954 0
M  V30 6073 H 585.008 2.32051 2.27118 0
M  V30 6074 H 586.019 5.17847 -0.0742839 0
M  V30 6075 H 582.696 3.65858 2.01133 0
M  V30 6076 H 584.086 6.68587 -0.666394 0
M  V30 6077 N 586.806 0.0935595 1.57322 0
M  V30 6078 C 588.031 -0.582324 1.99057 0
M  V30 6079 C 588.456 -1.61025 0.972242 0
M  V30 6080 O 587.814 -1.81202 -0.0594622 0
M  V30 6081 C 587.862 -1.20799 3.39765 0
M  V30 6082 O 586.966 -2.32382 3.40694 0
M  V30 6083 H 586.307 -0.147884 0.647323 0
M  V30 6084 H 588.837 0.174516 2.03854 0
M  V30 6085 H 588.847 -1.54966 3.77425 0
M  V30 6086 H 587.522 -0.454914 4.13405 0
M  V30 6087 H 586.099 -1.99845 3.14827 0
M  V30 6088 N 588.284 -1.56567 -0.180126 0
M  V30 6089 C 589.509 -1.85975 -0.918041 0
M  V30 6090 C 589.934 -0.678888 -1.75422 0
M  V30 6091 O 589.292 0.372168 -1.77439 0
M  V30 6092 C 589.34 -3.13731 -1.77779 0
M  V30 6093 O 588.444 -2.95335 -2.87838 0
M  V30 6094 H 587.785 -0.61196 -0.257683 0
M  V30 6095 H 590.315 -2.03798 -0.180923 0
M  V30 6096 H 590.325 -3.4491 -2.17948 0
M  V30 6097 H 589 -3.99293 -1.16352 0
M  V30 6098 H 587.577 -2.7549 -2.51316 0
M  V30 6099 N 589.762 0.448376 -1.51087 0
M  V30 6100 C 590.692 1.55102 -1.74544 0
M  V30 6101 C 591.673 1.59357 -0.594932 0
M  V30 6102 O 592.858 1.75261 -0.836491 0
M  V30 6103 C 589.988 2.93268 -1.86041 0
M  V30 6104 C 588.942 3.03877 -3.01402 0
M  V30 6105 C 588.268 4.43914 -2.98068 0
M  V30 6106 C 589.568 2.7898 -4.41551 0
M  V30 6107 H 591.262 1.35724 -2.66869 0
M  V30 6108 H 588.808 0.651498 -1.28419 0
M  V30 6109 H 590.761 3.70356 -2.01034 0
M  V30 6110 H 589.485 3.13853 -0.903548 0
M  V30 6111 H 588.144 2.29227 -2.86096 0
M  V30 6112 H 587.792 4.6145 -2.00182 0
M  V30 6113 H 587.492 4.51944 -3.75527 0
M  V30 6114 H 589.016 5.22991 -3.1514 0
M  V30 6115 H 590.43 3.45805 -4.57265 0
M  V30 6116 H 588.827 2.98431 -5.20633 0
M  V30 6117 H 589.897 1.74663 -4.5235 0
M  V30 6118 N 591.24 1.41047 0.703093 0
M  V30 6119 C 592.651 1.35657 1.28274 0
M  V30 6120 C 593.002 0.0360309 1.96167 0
M  V30 6121 O 592.127 -0.865833 1.98324 0
M  V30 6122 C 592.722 2.45707 2.33267 0
M  V30 6123 C 591.281 2.43738 2.86825 0
M  V30 6124 C 590.428 2.25941 1.60767 0
M  V30 6125 H 593.379 1.50672 0.49836 0
M  V30 6126 H 593.4 2.14333 3.14391 0
M  V30 6127 H 592.912 3.41805 1.83824 0
M  V30 6128 H 591.013 1.51375 3.40465 0
M  V30 6129 H 591.126 3.39779 3.37768 0
M  V30 6130 H 589.49 1.73681 1.86298 0
M  V30 6131 H 590.273 3.24054 1.1333 0
M  V30 6132 N 592.718 -0.936591 1.26751 0
M  V30 6133 C 594.129 -1.49816 1.1141 0
M  V30 6134 C 594.48 -1.9383 -0.304015 0
M  V30 6135 O 593.605 -1.80346 -1.196 0
M  V30 6136 C 594.2 -2.72271 2.01629 0
M  V30 6137 C 592.759 -3.2468 1.9042 0
M  V30 6138 C 591.906 -1.97444 1.94708 0
M  V30 6139 H 594.857 -0.751604 1.39773 0
M  V30 6140 H 594.878 -3.46741 1.56688 0
M  V30 6141 H 594.39 -2.40205 3.04833 0
M  V30 6142 H 592.491 -3.61525 0.901674 0
M  V30 6143 H 592.604 -3.91476 2.76195 0
M  V30 6144 H 590.968 -2.13545 1.38818 0
M  V30 6145 H 591.751 -1.67703 2.9955 0
M  V30 6146 N 594.196 -1.08629 -1.14182 0
M  V30 6147 C 595.444 -0.815731 -1.84906 0
M  V30 6148 C 595.765 0.660441 -1.83475 0
M  V30 6149 O 595.035 1.47888 -1.28476 0
M  V30 6150 H 593.615 -0.298773 -0.684648 0
M  V30 6151 H 596.277 -1.37274 -1.38354 0
M  V30 6152 H 595.373 -1.16193 -2.89665 0
M  V30 6153 N 595.674 1.31259 -0.872281 0
M  V30 6154 C 596.92 1.96913 -0.485083 0
M  V30 6155 C 597.253 1.68774 0.960667 0
M  V30 6156 O 596.528 0.985495 1.67685 0
M  V30 6157 C 596.811 3.52299 -0.745502 0
M  V30 6158 C 596.664 3.90002 -2.24095 0
M  V30 6159 C 597.983 4.39582 -0.213516 0
M  V30 6160 H 595.102 0.715252 -0.177716 0
M  V30 6161 H 597.744 1.55347 -1.09395 0
M  V30 6162 H 595.894 3.87835 -0.227276 0
M  V30 6163 H 597.566 3.64555 -2.82661 0
M  V30 6164 H 595.809 3.38526 -2.71261 0
M  V30 6165 H 596.48 4.98352 -2.37381 0
M  V30 6166 H 598.956 4.10882 -0.656902 0
M  V30 6167 H 597.832 5.47251 -0.42516 0
M  V30 6168 H 598.093 4.33158 0.884666 0
M  V30 6169 N 597.152 0.631951 1.44375 0
M  V30 6170 C 598.102 -0.0943862 2.27805 0
M  V30 6171 C 599.086 -0.815359 1.38711 0
M  V30 6172 O 600.278 -0.701331 1.62513 0
M  V30 6173 C 597.407 -1.07472 3.26044 0
M  V30 6174 C 596.493 -0.353329 4.22626 0
M  V30 6175 N 596.884 0.618512 5.02004 0
M  V30 6176 C 595.182 -0.597662 4.41977 0
M  V30 6177 C 595.883 1.0448 5.7224 0
M  V30 6178 N 594.859 0.383413 5.42246 0
M  V30 6179 H 598.661 0.651672 2.86584 0
M  V30 6180 H 596.175 0.45752 1.55822 0
M  V30 6181 H 598.172 -1.60969 3.84571 0
M  V30 6182 H 596.832 -1.82107 2.68825 0
M  V30 6183 H 597.843 0.996356 5.08226 0
M  V30 6184 H 594.52 -1.32682 3.95856 0
M  V30 6185 H 595.91 1.84773 6.45994 0
M  V30 6186 N 598.631 -1.53133 0.372548 0
M  V30 6187 C 599.88 -2.00539 -0.216115 0
M  V30 6188 C 600.193 -1.26374 -1.49295 0
M  V30 6189 O 601.399 -1.64404 -2.16064 0
M  V30 6190 C 599.855 -3.57253 -0.435678 0
M  V30 6191 C 599.463 -4.40302 0.82693 0
M  V30 6192 C 601.207 -4.12995 -0.981618 0
M  V30 6193 C 599.114 -5.88583 0.576567 0
M  V30 6194 H 598.044 -0.749246 -0.084536 0
M  V30 6195 H 600.695 -1.76771 0.492364 0
M  V30 6196 H 599.077 -3.77202 -1.20559 0
M  V30 6197 H 600.251 -4.32124 1.60017 0
M  V30 6198 H 598.566 -3.95699 1.29659 0
M  V30 6199 H 601.163 -5.21418 -1.18436 0
M  V30 6200 H 601.506 -3.68027 -1.94581 0
M  V30 6201 H 602.039 -3.96871 -0.271696 0
M  V30 6202 H 598.778 -6.37841 1.51128 0
M  V30 6203 H 598.298 -5.99592 -0.158047 0
M  V30 6204 H 599.977 -6.46676 0.204722 0
M  V30 6205 N 600.109 -0.101901 -1.5727 0
M  V30 6206 C 601.334 0.571759 -1.99363 0
M  V30 6207 C 601.759 1.60507 -0.980768 0
M  V30 6208 O 601.117 1.81231 0.0498517 0
M  V30 6209 C 601.165 1.18996 -3.404 0
M  V30 6210 O 600.269 2.30572 -3.41922 0
M  V30 6211 H 599.61 0.144449 -0.648098 0
M  V30 6212 H 602.14 -0.185325 -2.03759 0
M  V30 6213 H 602.15 1.52962 -3.78241 0
M  V30 6214 H 600.825 0.432984 -4.1364 0
M  V30 6215 H 599.402 1.98173 -3.15883 0
M  V30 6216 N 601.587 1.56661 0.17182 0
M  V30 6217 C 602.817 1.85831 0.902804 0
M  V30 6218 C 603.225 0.685157 1.76358 0
M  V30 6219 O 602.568 -0.354947 1.80238 0
M  V30 6220 C 602.63 3.09406 1.83053 0
M  V30 6221 C 602.294 4.4231 1.1494 0
M  V30 6222 C 603.291 5.17342 0.515104 0
M  V30 6223 C 600.976 4.89045 1.14631 0
M  V30 6224 C 602.97 6.37299 -0.113194 0
M  V30 6225 C 600.657 6.08933 0.514184 0
M  V30 6226 C 601.655 6.82904 -0.114463 0
M  V30 6227 O 601.343 8.00518 -0.736622 0
M  V30 6228 H 601.075 0.620715 0.267748 0
M  V30 6229 H 603.629 2.04637 0.176918 0
M  V30 6230 H 601.859 2.86544 2.59672 0
M  V30 6231 H 603.548 3.25027 2.4313 0
M  V30 6232 H 604.314 4.82317 0.509474 0
M  V30 6233 H 600.193 4.31409 1.62502 0
M  V30 6234 H 603.737 6.94976 -0.604477 0
M  V30 6235 H 599.634 6.43423 0.517395 0
M  V30 6236 H 600.402 8.16027 -0.635822 0
M  V30 6237 N 603.065 -0.440357 1.51323 0
M  V30 6238 C 603.975 -1.55955 1.75258 0
M  V30 6239 C 604.991 -1.61933 0.636687 0
M  V30 6240 O 606.167 -1.79231 0.918593 0
M  V30 6241 C 603.232 -2.9196 1.86977 0
M  V30 6242 C 602.293 -2.96122 3.10822 0
M  V30 6243 C 601.526 -4.2564 3.21973 0
M  V30 6244 O 601.749 -5.17851 2.39137 0
M  V30 6245 O 600.683 -4.36025 4.14929 0
M  V30 6246 H 604.509 -1.38673 2.70191 0
M  V30 6247 H 602.094 -0.623055 1.35788 0
M  V30 6248 H 603.976 -3.72682 1.96688 0
M  V30 6249 H 602.651 -3.09375 0.952307 0
M  V30 6250 H 601.558 -2.14366 3.06591 0
M  V30 6251 H 602.891 -2.83651 4.02247 0
M  V30 6252 N 604.543 -1.41418 -0.695603 0
M  V30 6253 C 605.768 -1.44329 -1.48942 0
M  V30 6254 C 606.193 -0.0501579 -1.88033 0
M  V30 6255 O 605.551 0.946598 -1.54626 0
M  V30 6256 C 605.599 -2.3578 -2.72837 0
M  V30 6257 O 604.703 -1.81482 -3.70322 0
M  V30 6258 H 604.044 -0.489838 -0.44828 0
M  V30 6259 H 606.574 -1.85878 -0.855014 0
M  V30 6260 H 606.584 -2.51654 -3.21145 0
M  V30 6261 H 605.259 -3.37005 -2.43722 0
M  V30 6262 H 603.836 -1.75058 -3.29255 0
M  V30 6263 N 606.021 0.929856 -1.27246 0
M  V30 6264 C 606.953 2.03434 -1.0558 0
M  V30 6265 C 607.966 1.62795 -0.0125762 0
M  V30 6266 O 609.155 1.76685 -0.2539 0
M  V30 6267 C 606.255 3.33915 -0.57912 0
M  V30 6268 C 605.428 4.03259 -1.69415 0
M  V30 6269 C 604.487 5.12014 -1.21357 0
M  V30 6270 O 603.513 5.36097 -1.91282 0
M  V30 6271 N 604.715 5.8046 -0.0680622 0
M  V30 6272 H 607.48 2.22583 -2.00691 0
M  V30 6273 H 605.041 1.1001 -1.18783 0
M  V30 6274 H 607.033 4.03978 -0.241563 0
M  V30 6275 H 605.603 3.11355 0.278703 0
M  V30 6276 H 604.823 3.26958 -2.20209 0
M  V30 6277 H 606.111 4.46337 -2.44255 0
M  V30 6278 H 605.509 5.63345 0.515626 0
M  V30 6279 H 604.066 6.51461 0.210332 0
M  V30 6280 N 607.499 1.09233 1.13605 0
M  V30 6281 C 608.739 0.836786 1.86487 0
M  V30 6282 C 609.103 -0.626191 1.81502 0
M  V30 6283 O 610.304 -0.99758 2.49603 0
M  V30 6284 C 608.575 1.35476 3.30728 0
M  V30 6285 S 610.134 1.2328 4.21126 0
M  V30 6286 H 606.952 0.302702 0.643345 0
M  V30 6287 H 609.554 1.3953 1.36936 0
M  V30 6288 H 608.258 2.41381 3.31909 0
M  V30 6289 H 607.789 0.792286 3.85339 0
M  V30 6290 H 609.804 0.182468 4.95864 0
M  V30 6291 N 608.977 -1.30795 0.87923 0
M  V30 6292 C 609.887 -2.32041 0.345565 0
M  V30 6293 C 610.903 -1.65103 -0.549265 0
M  V30 6294 O 612.079 -1.9645 -0.443763 0
M  V30 6295 C 609.144 -3.43944 -0.436245 0
M  V30 6296 C 608.205 -4.26521 0.48765 0
M  V30 6297 C 607.438 -5.33081 -0.256943 0
M  V30 6298 O 607.661 -5.50762 -1.48381 0
M  V30 6299 O 606.595 -6.00635 0.389985 0
M  V30 6300 H 610.421 -2.79627 1.18501 0
M  V30 6301 H 608.006 -1.3486 0.642885 0
M  V30 6302 H 609.888 -4.12128 -0.879119 0
M  V30 6303 H 608.563 -2.98504 -1.25208 0
M  V30 6304 H 607.47 -3.61057 0.979216 0
M  V30 6305 H 608.803 -4.75551 1.26933 0
M  V30 6306 N 610.455 -0.639598 -1.44038 0
M  V30 6307 C 611.703 -0.147188 -2.01563 0
M  V30 6308 C 612.024 1.2384 -1.50628 0
M  V30 6309 O 611.294 1.82452 -0.713316 0
M  V30 6310 H 609.874 -0.0514231 -0.745228 0
M  V30 6311 H 612.536 -0.828205 -1.76428 0
M  V30 6312 H 611.632 -0.121358 -3.11864 0
M  V30 6313 N 611.933 1.52934 -0.380664 0
M  V30 6314 C 613.344 1.86457 0.0952684 0
M  V30 6315 C 613.695 1.3007 1.46889 0
M  V30 6316 O 612.82 0.628636 2.07068 0
M  V30 6317 C 613.415 3.38323 0.179648 0
M  V30 6318 C 611.974 3.71589 0.599858 0
M  V30 6319 C 611.121 2.76228 -0.243572 0
M  V30 6320 H 614.072 1.46966 -0.59888 0
M  V30 6321 H 614.093 3.67113 1.00042 0
M  V30 6322 H 613.605 3.79333 -0.820228 0
M  V30 6323 H 611.706 3.36144 1.60742 0
M  V30 6324 H 611.819 4.77715 0.364003 0
M  V30 6325 H 610.183 2.53045 0.289855 0
M  V30 6326 H 610.966 3.20074 -1.24127 0
M  V30 6327 N 613.412 0.11024 1.57214 0
M  V30 6328 C 614.322 -0.857077 2.18383 0
M  V30 6329 C 615.338 -1.29915 1.1575 0
M  V30 6330 O 616.514 -1.36394 1.48184 0
M  V30 6331 C 613.579 -2.09264 2.76423 0
M  V30 6332 C 612.64 -1.70333 3.94063 0
M  V30 6333 C 611.873 -2.87999 4.49324 0
M  V30 6334 O 612.096 -4.0317 4.03497 0
M  V30 6335 O 611.03 -2.6559 5.40135 0
M  V30 6336 H 614.856 -0.366561 3.0148 0
M  V30 6337 H 612.441 -0.114914 1.48957 0
M  V30 6338 H 614.323 -2.81644 3.13456 0
M  V30 6339 H 612.998 -2.57339 1.96363 0
M  V30 6340 H 611.905 -0.950864 3.61814 0
M  V30 6341 H 613.238 -1.27007 4.75531 0
M  V30 6342 N 614.89 -1.56749 -0.16351 0
M  V30 6343 C 615.837 -1.97011 -1.2023 0
M  V30 6344 C 616.807 -0.835186 -1.43575 0
M  V30 6345 O 617.992 -1.09594 -1.56185 0
M  V30 6346 C 615.132 -2.34186 -2.53478 0
M  V30 6347 C 614.245 -3.60893 -2.37446 0
M  V30 6348 C 613.38 -3.87245 -3.63614 0
M  V30 6349 C 612.419 -5.07274 -3.42548 0
M  V30 6350 N 611.556 -5.29719 -4.60806 0
M  V30 6351 H 616.396 -2.85562 -0.851958 0
M  V30 6352 H 613.933 -1.41292 -0.409257 0
M  V30 6353 H 615.891 -2.53764 -3.31149 0
M  V30 6354 H 614.521 -1.48736 -2.86492 0
M  V30 6355 H 613.573 -3.49185 -1.50911 0
M  V30 6356 H 614.885 -4.48722 -2.1783 0
M  V30 6357 H 614.039 -4.07232 -4.49719 0
M  V30 6358 H 612.778 -2.97806 -3.86216 0
M  V30 6359 H 611.783 -4.87177 -2.5483 0
M  V30 6360 H 613.008 -5.98251 -3.2136 0
M  V30 6361 H 610.954 -4.43233 -4.83612 0
M  V30 6362 H 610.871 -6.11786 -4.44132 0
M  V30 6363 H 612.139 -5.54192 -5.48171 0
M  V30 6364 N 616.368 0.432326 -1.51554 0
M  V30 6365 C 617.784 0.769195 -1.39841 0
M  V30 6366 C 617.984 1.95584 -0.484675 0
M  V30 6367 O 617.04 2.52433 0.0582829 0
M  V30 6368 C 618.353 1.04487 -2.81963 0
M  V30 6369 C 619.901 1.149 -2.91148 0
M  V30 6370 C 620.376 1.45758 -4.34187 0
M  V30 6371 N 621.867 1.52671 -4.37317 0
M  V30 6372 C 622.602 1.78129 -5.4503 0
M  V30 6373 N 622.098 2.01345 -6.62897 0
M  V30 6374 N 623.891 1.79953 -5.32516 0
M  V30 6375 H 616.042 -0.349122 -2.09511 0
M  V30 6376 H 618.305 -0.0938113 -0.943347 0
M  V30 6377 H 618.011 0.24557 -3.50842 0
M  V30 6378 H 617.885 1.97119 -3.21596 0
M  V30 6379 H 620.272 1.93891 -2.22464 0
M  V30 6380 H 620.353 0.201568 -2.55005 0
M  V30 6381 H 619.997 0.672917 -5.03423 0
M  V30 6382 H 619.927 2.41715 -4.67848 0
M  V30 6383 H 622.418 1.36612 -3.52343 0
M  V30 6384 H 622.731 2.20155 -7.40778 0
M  V30 6385 H 621.076 1.98657 -6.66003 0
M  V30 6386 H 624.267 1.61337 -4.39418 0
M  V30 6387 H 624.44 1.99455 -6.1654 0
M  V30 6388 N 617.846 1.41785 0.688094 0
M  V30 6389 C 618.756 1.46596 1.83158 0
M  V30 6390 C 619.772 0.355862 1.70322 0
M  V30 6391 O 620.948 0.604737 1.92106 0
M  V30 6392 C 618.013 1.35322 3.192 0
M  V30 6393 C 617.074 2.56711 3.4409 0
M  V30 6394 C 616.307 2.45965 4.73642 0
M  V30 6395 O 616.53 1.48827 5.50642 0
M  V30 6396 O 615.464 3.35859 4.99482 0
M  V30 6397 H 619.29 2.43083 1.82056 0
M  V30 6398 H 616.875 1.23404 0.842126 0
M  V30 6399 H 618.757 1.31347 4.00407 0
M  V30 6400 H 617.432 0.419536 3.2097 0
M  V30 6401 H 616.339 2.66262 2.62784 0
M  V30 6402 H 617.672 3.48933 3.47141 0
M  V30 6403 N 619.324 -0.923095 1.27737 0
M  V30 6404 C 620.572 -1.66797 1.14119 0
M  V30 6405 C 620.893 -1.92479 -0.312541 0
M  V30 6406 O 620.163 -1.53432 -1.218 0
M  V30 6407 H 618.743 -0.618196 0.419336 0
M  V30 6408 H 621.405 -1.10815 1.60331 0
M  V30 6409 H 620.501 -2.63424 1.67374 0
M  V30 6410 N 620.802 -1.09834 -1.13024 0
M  V30 6411 C 621.749 -0.741522 -2.18564 0
M  V30 6412 C 622.719 0.279236 -1.63736 0
M  V30 6413 O 623.904 0.159923 -1.90129 0
M  V30 6414 C 621.044 -0.17277 -3.44667 0
M  V30 6415 C 620.157 -1.24808 -4.13578 0
M  V30 6416 C 619.292 -0.641631 -5.27311 0
M  V30 6417 C 618.331 -1.69795 -5.88078 0
M  V30 6418 N 617.468 -1.11223 -6.93234 0
M  V30 6419 H 622.308 -1.64576 -2.48432 0
M  V30 6420 H 619.845 -0.822174 -1.21978 0
M  V30 6421 H 621.803 0.17482 -4.16834 0
M  V30 6422 H 620.433 0.694725 -3.15235 0
M  V30 6423 H 619.485 -1.71288 -3.39653 0
M  V30 6424 H 620.797 -2.04795 -4.54819 0
M  V30 6425 H 619.951 -0.243128 -6.06213 0
M  V30 6426 H 618.69 0.189742 -4.87331 0
M  V30 6427 H 617.695 -2.10595 -5.07868 0
M  V30 6428 H 618.92 -2.53206 -6.3013 0
M  V30 6429 H 616.866 -0.302208 -6.55304 0
M  V30 6430 H 616.783 -1.84901 -7.3304 0
M  V30 6431 H 618.051 -0.740068 -7.75979 0
M  V30 6432 N 622.28 1.30327 -0.886154 0
M  V30 6433 C 623.243 2.26376 -0.358687 0
M  V30 6434 C 624.243 1.52845 0.499498 0
M  V30 6435 O 625.433 1.71483 0.306485 0
M  V30 6436 C 622.565 3.37379 0.488726 0
M  V30 6437 H 623.758 2.74547 -1.20681 0
M  V30 6438 H 621.311 1.41536 -0.663113 0
M  V30 6439 H 622.046 2.94526 1.35739 0
M  V30 6440 H 621.831 3.91897 -0.126003 0
M  V30 6441 H 623.321 4.08868 0.84952 0
M  V30 6442 N 623.758 0.647228 1.43697 0
M  V30 6443 C 624.668 -0.0487997 2.34549 0
M  V30 6444 C 625.684 -0.818586 1.53542 0
M  V30 6445 O 626.86 -0.767195 1.86215 0
M  V30 6446 C 623.925 -1.00734 3.31743 0
M  V30 6447 C 622.986 -0.23515 4.28655 0
M  V30 6448 C 622.219 -1.14803 5.21206 0
M  V30 6449 O 622.442 -2.38717 5.18045 0
M  V30 6450 O 621.376 -0.623667 5.9866 0
M  V30 6451 H 625.202 0.698863 2.9555 0
M  V30 6452 H 622.787 0.407412 1.43738 0
M  V30 6453 H 624.669 -1.55837 3.91526 0
M  V30 6454 H 623.344 -1.73534 2.73254 0
M  V30 6455 H 622.251 0.359319 3.7237 0
M  V30 6456 H 623.584 0.453152 4.9011 0
M  V30 6457 N 625.236 -1.5273 0.388769 0
M  V30 6458 C 626.513 -1.93981 -0.251133 0
M  V30 6459 C 626.893 -1.32418 -1.64404 0
M  V30 6460 O 626.241 -0.492074 -2.23139 0
M  V30 6461 C 626.451 -3.47891 -0.27802 0
M  V30 6462 C 627.799 -4.21559 -0.507229 0
M  V30 6463 O 628.823 -3.54394 -0.358252 0
M  V30 6464 O 627.682 -5.40626 -0.799094 0
M  V30 6465 H 624.776 -0.812157 -0.15598 0
M  V30 6466 H 627.322 -1.63809 0.443237 0
M  V30 6467 H 626.094 -3.8503 0.697669 0
M  V30 6468 H 625.717 -3.84364 -1.01733 0
M  V30 6469 N 626.714 -0.118576 -1.57153 0
M  V30 6470 C 628.13 0.238014 -1.57815 0
M  V30 6471 C 628.33 1.66747 -1.13127 0
M  V30 6472 O 627.386 2.38867 -0.818462 0
M  V30 6473 C 628.699 0.00508207 -3.007 0
M  V30 6474 C 630.247 0.0710139 -3.12919 0
M  V30 6475 C 630.722 -0.13422 -4.57803 0
M  V30 6476 N 632.213 -0.0801755 -4.63131 0
M  V30 6477 C 632.948 -0.213885 -5.73001 0
M  V30 6478 N 632.444 -0.403742 -6.91623 0
M  V30 6479 N 634.237 -0.15349 -5.6189 0
M  V30 6480 H 626.388 -1.05226 -1.84503 0
M  V30 6481 H 628.651 -0.414318 -0.852669 0
M  V30 6482 H 628.357 -0.983125 -3.3768 0
M  V30 6483 H 628.231 0.73714 -3.69927 0
M  V30 6484 H 630.618 1.04975 -2.75798 0
M  V30 6485 H 630.699 -0.692918 -2.46236 0
M  V30 6486 H 630.343 -1.10992 -4.95624 0
M  V30 6487 H 630.273 0.649692 -5.22577 0
M  V30 6488 H 632.764 0.0630689 -3.77847 0
M  V30 6489 H 633.077 -0.496645 -7.71202 0
M  V30 6490 H 631.422 -0.43971 -6.93608 0
M  V30 6491 H 634.613 -0.00613174 -4.681 0
M  V30 6492 H 634.786 -0.261138 -6.47474 0
M  V30 6493 N 628.193 1.56834 0.155195 0
M  V30 6494 C 629.441 1.82536 0.867462 0
M  V30 6495 C 629.762 0.698168 1.82073 0
M  V30 6496 O 629.032 -0.280807 1.93877 0
M  V30 6497 H 627.612 0.673401 0.323327 0
M  V30 6498 H 630.274 1.94313 0.151156 0
M  V30 6499 H 629.37 2.77171 1.43466 0
M  V30 6500 N 629.671 -0.424282 1.51781 0
M  V30 6501 C 630.603 -1.53457 1.70246 0
M  V30 6502 C 631.616 -1.52004 0.582967 0
M  V30 6503 O 632.805 -1.56544 0.857683 0
M  V30 6504 C 629.905 -2.92368 1.71389 0
M  V30 6505 C 629.078 -3.1818 3.00133 0
M  V30 6506 C 628.137 -4.36884 2.9329 0
M  V30 6507 O 627.163 -4.34901 3.67219 0
M  V30 6508 N 628.365 -5.4117 2.10036 0
M  V30 6509 H 631.13 -1.38017 2.66029 0
M  V30 6510 H 628.691 -0.613394 1.4983 0
M  V30 6511 H 630.683 -3.6982 1.64362 0
M  V30 6512 H 629.253 -3.0134 0.831449 0
M  V30 6513 H 628.473 -2.28908 3.20928 0
M  V30 6514 H 629.761 -3.32261 3.85331 0
M  V30 6515 H 629.159 -5.45623 1.49373 0
M  V30 6516 H 627.716 -6.17425 2.08878 0
M  V30 6517 N 631.149 -1.42148 -0.680565 0
M  V30 6518 C 632.389 -1.4379 -1.45271 0
M  V30 6519 C 632.753 -0.0504426 -1.91934 0
M  V30 6520 O 633.954 0.0583916 -2.68737 0
M  V30 6521 C 632.225 -2.42904 -2.62168 0
M  V30 6522 S 633.784 -2.63201 -3.51099 0
M  V30 6523 H 630.602 -0.509185 -0.496237 0
M  V30 6524 H 633.204 -1.78706 -0.792744 0
M  V30 6525 H 631.908 -3.4249 -2.26116 0
M  V30 6526 H 631.439 -2.09394 -3.33043 0
M  V30 6527 H 633.454 -1.91068 -4.57938 0
M  V30 6528 N 632.627 0.916307 -1.28225 0
M  V30 6529 C 633.575 2.03977 -1.11786 0
M  V30 6530 C 634.569 1.69358 -0.0378265 0
M  V30 6531 O 635.775 1.78925 -0.196405 0
M  V30 6532 H 632.15 0.66829 -0.344809 0
M  V30 6533 H 634.121 2.14985 -2.06939 0
M  V30 6534 C 632.87 3.38518 -0.7938 0
M  V30 6535 H 632.193 3.65649 -1.61682 0
M  V30 6536 H 633.633 4.17864 -0.718719 0
M  V30 6537 C 632.092 3.33134 0.502353 0
M  V30 6538 O 632.622 3.71281 1.53341 0
M  V30 6539 N 630.828 2.86229 0.502147 0
M  V30 6540 H 630.375 2.55382 -0.337338 0
M  V30 6541 H 630.333 2.83009 1.36942 0
M  V30 6542 N 634.105 1.10431 1.1244 0
M  V30 6543 C 635.055 0.722378 2.16254 0
M  V30 6544 C 636.039 -0.268427 1.58645 0
M  V30 6545 O 637.231 -0.077169 1.76832 0
M  V30 6546 C 634.36 0.155763 3.42946 0
M  V30 6547 C 633.446 1.17361 4.07538 0
M  V30 6548 N 633.837 2.36429 4.47141 0
M  V30 6549 C 632.135 1.01412 4.34317 0
M  V30 6550 C 632.836 3.01259 4.97612 0
M  V30 6551 N 631.812 2.28777 4.93115 0
M  V30 6552 H 635.614 1.62876 2.4464 0
M  V30 6553 H 633.128 0.982031 1.29344 0
M  V30 6554 H 635.125 -0.135936 4.16678 0
M  V30 6555 H 633.785 -0.745339 3.1603 0
M  V30 6556 H 634.796 2.73954 4.39511 0
M  V30 6557 H 631.473 0.168574 4.1716 0
M  V30 6558 H 632.863 4.02541 5.37968 0
M  V30 6559 N 635.583 -1.29855 0.893053 0
M  V30 6560 C 636.829 -1.96116 0.516349 0
M  V30 6561 C 637.162 -1.70281 -0.933695 0
M  V30 6562 O 636.437 -1.01205 -1.66096 0
M  V30 6563 C 636.72 -3.51068 0.801455 0
M  V30 6564 C 636.573 -3.86387 2.30272 0
M  V30 6565 C 637.892 -4.39186 0.283423 0
M  V30 6566 H 635.011 -0.712335 0.189072 0
M  V30 6567 H 637.653 -1.53587 1.11852 0
M  V30 6568 H 635.803 -3.87424 0.288949 0
M  V30 6569 H 637.475 -3.60012 2.88425 0
M  V30 6570 H 635.718 -3.34167 2.76613 0
M  V30 6571 H 636.389 -4.94512 2.45279 0
M  V30 6572 H 638.865 -4.09785 0.722187 0
M  V30 6573 H 637.741 -5.46505 0.512169 0
M  V30 6574 H 638.002 -4.34511 -0.815643 0
M  V30 6575 N 637.061 -0.65484 -1.43351 0
M  V30 6576 C 638.477 -0.32255 -1.56307 0
M  V30 6577 C 638.677 1.17324 -1.63821 0
M  V30 6578 O 637.733 1.95813 -1.59417 0
M  V30 6579 C 639.046 -1.03533 -2.82314 0
M  V30 6580 C 640.594 -1.01574 -2.9606 0
M  V30 6581 C 641.069 -1.70945 -4.24902 0
M  V30 6582 N 642.56 -1.67716 -4.3177 0
M  V30 6583 C 643.295 -2.18265 -5.30234 0
M  V30 6584 N 642.791 -2.7711 -6.34966 0
M  V30 6585 N 644.584 -2.08756 -5.21898 0
M  V30 6586 H 636.735 -1.62549 -1.36717 0
M  V30 6587 H 638.998 -0.683676 -0.656727 0
M  V30 6588 H 638.704 -2.09045 -2.8283 0
M  V30 6589 H 638.578 -0.587913 -3.7259 0
M  V30 6590 H 640.965 0.0309834 -2.95084 0
M  V30 6591 H 641.046 -1.50186 -2.07069 0
M  V30 6592 H 640.69 -2.75574 -4.26639 0
M  V30 6593 H 640.62 -1.19797 -5.12793 0
M  V30 6594 H 643.111 -1.24777 -3.56706 0
M  V30 6595 H 643.424 -3.13353 -7.06421 0
M  V30 6596 H 641.769 -2.81171 -6.35585 0
M  V30 6597 H 644.96 -1.62488 -4.38994 0
M  V30 6598 H 645.133 -2.48459 -5.98475 0
M  V30 6599 N 638.539 1.52521 -0.396863 0
M  V30 6600 C 639.788 2.00857 0.184184 0
M  V30 6601 C 640.101 1.28733 1.47265 0
M  V30 6602 O 641.307 1.67821 2.13421 0
M  V30 6603 C 639.763 3.57901 0.378787 0
M  V30 6604 C 639.371 4.38931 -0.896873 0
M  V30 6605 C 641.115 4.14504 0.915789 0
M  V30 6606 C 639.022 5.87591 -0.670133 0
M  V30 6607 H 637.952 0.750496 0.0726055 0
M  V30 6608 H 640.603 1.75965 -0.520425 0
M  V30 6609 H 638.985 3.79072 1.14543 0
M  V30 6610 H 640.159 4.29524 -1.66872 0
M  V30 6611 H 638.474 3.93586 -1.35938 0
M  V30 6612 H 641.071 5.23236 1.10126 0
M  V30 6613 H 641.414 3.71076 1.88701 0
M  V30 6614 H 641.947 3.97253 0.208523 0
M  V30 6615 H 638.686 6.35355 -1.61257 0
M  V30 6616 H 638.206 5.99767 0.0626368 0
M  V30 6617 H 639.885 6.46268 -0.307577 0
M  V30 6618 N 640.017 0.126909 1.57088 0
M  V30 6619 C 640.965 -0.837618 2.16995 0
M  V30 6620 C 641.959 -1.26974 1.12133 0
M  V30 6621 O 643.165 -1.24056 1.30423 0
M  V30 6622 H 639.54 -0.288256 0.694559 0
M  V30 6623 H 641.511 -0.307957 2.96807 0
M  V30 6624 C 640.26 -2.07474 2.79016 0
M  V30 6625 H 639.583 -1.75117 3.59408 0
M  V30 6626 H 641.023 -2.72949 3.24461 0
M  V30 6627 C 639.482 -2.86967 1.76498 0
M  V30 6628 O 640.012 -3.82625 1.22316 0
M  V30 6629 N 638.218 -2.51111 1.46258 0
M  V30 6630 H 637.765 -1.73389 1.90509 0
M  V30 6631 H 637.723 -3.04594 0.779085 0
M  V30 6632 N 641.495 -1.56914 -0.146875 0
M  V30 6633 C 642.427 -1.94878 -1.20645 0
M  V30 6634 C 643.44 -0.844633 -1.39175 0
M  V30 6635 O 644.629 -1.12304 -1.38744 0
M  V30 6636 C 641.729 -2.20769 -2.57127 0
M  V30 6637 C 640.902 -3.52053 -2.59572 0
M  V30 6638 C 639.961 -3.66482 -3.77594 0
M  V30 6639 O 638.987 -4.38873 -3.62462 0
M  V30 6640 N 640.189 -3.03156 -4.95052 0
M  V30 6641 H 642.954 -2.86374 -0.883757 0
M  V30 6642 H 640.515 -1.58366 -0.336436 0
M  V30 6643 H 642.507 -2.27664 -3.34591 0
M  V30 6644 H 641.077 -1.35538 -2.81688 0
M  V30 6645 H 640.297 -3.56598 -1.68023 0
M  V30 6646 H 641.585 -4.38396 -2.58238 0
M  V30 6647 H 640.983 -2.44258 -5.10249 0
M  V30 6648 H 639.54 -3.15611 -5.70292 0
M  V30 6649 N 642.974 0.416227 -1.52004 0
M  V30 6650 C 644.202 1.18573 -1.69553 0
M  V30 6651 C 644.617 1.84472 -0.401919 0
M  V30 6652 O 643.974 1.71593 0.621463 0
M  V30 6653 C 644.025 2.25413 -2.82615 0
M  V30 6654 O 643.746 1.62205 -4.06966 0
M  V30 6655 C 645.247 3.15297 -3.11613 0
M  V30 6656 H 642.467 0.356582 -0.56841 0
M  V30 6657 H 645.011 0.490618 -1.98528 0
M  V30 6658 H 643.166 2.90604 -2.56179 0
M  V30 6659 H 643.58 2.3298 -4.69916 0
M  V30 6660 H 645.054 3.86351 -3.94255 0
M  V30 6661 H 645.531 3.77264 -2.24874 0
M  V30 6662 H 646.137 2.55783 -3.39787 0
M  V30 6663 N 644.452 1.42507 0.673017 0
M  V30 6664 C 645.698 1.43284 1.43519 0
M  V30 6665 C 646.031 0.049668 1.94136 0
M  V30 6666 O 645.306 -0.926369 1.71022 0
M  V30 6667 C 645.589 2.45874 2.63093 0
M  V30 6668 C 645.442 3.93388 2.18096 0
M  V30 6669 C 646.761 2.45431 3.6531 0
M  V30 6670 H 643.88 0.521752 0.520522 0
M  V30 6671 H 646.522 1.73932 0.764701 0
M  V30 6672 H 644.672 2.19869 3.20296 0
M  V30 6673 H 646.344 4.30379 1.66046 0
M  V30 6674 H 644.587 4.07169 1.49652 0
M  V30 6675 H 645.258 4.60752 3.03993 0
M  V30 6676 H 647.734 2.68561 3.17827 0
M  V30 6677 H 646.61 3.19189 4.46553 0
M  V30 6678 H 646.871 1.48092 4.16559 0
M  V30 6679 N 645.93 -0.909495 1.28709 0
M  V30 6680 C 647.158 -1.69272 1.18973 0
M  V30 6681 C 647.573 -1.87123 -0.251048 0
M  V30 6682 O 646.93 -1.40127 -1.16922 0
M  V30 6683 C 646.981 -3.08257 1.88839 0
M  V30 6684 O 646.702 -2.91228 3.27289 0
M  V30 6685 C 648.203 -4.02642 1.85457 0
M  V30 6686 H 645.423 -0.528999 0.412797 0
M  V30 6687 H 647.967 -1.13803 1.69909 0
M  V30 6688 H 646.122 -3.6053 1.41762 0
M  V30 6689 H 646.536 -3.79223 3.6234 0
M  V30 6690 H 648.01 -4.97613 2.38925 0
M  V30 6691 H 648.487 -4.31327 0.827893 0
M  V30 6692 H 649.093 -3.56298 2.32233 0
M  V30 6693 N 647.408 -1.11026 -1.11852 0
M  V30 6694 C 648.655 -0.85646 -1.83497 0
M  V30 6695 C 648.983 0.617938 -1.84423 0
M  V30 6696 O 648.238 1.47194 -1.28966 0
M  V30 6697 C 648.537 -1.35777 -3.30604 0
M  V30 6698 C 648.203 -2.84465 -3.49843 0
M  V30 6699 C 646.865 -3.25068 -3.54802 0
M  V30 6700 C 649.217 -3.80251 -3.56453 0
M  V30 6701 C 646.545 -4.60194 -3.63921 0
M  V30 6702 C 648.897 -5.15188 -3.67102 0
M  V30 6703 C 647.561 -5.55356 -3.70319 0
M  V30 6704 H 646.831 -0.313401 -0.671462 0
M  V30 6705 H 649.478 -1.38792 -1.31943 0
M  V30 6706 H 647.783 -0.746455 -3.84624 0
M  V30 6707 H 649.48 -1.13779 -3.8452 0
M  V30 6708 H 646.07 -2.52054 -3.46651 0
M  V30 6709 H 650.254 -3.49986 -3.51886 0
M  V30 6710 H 645.51 -4.90728 -3.64686 0
M  V30 6711 H 649.684 -5.89248 -3.71159 0
M  V30 6712 H 647.311 -6.60054 -3.77138 0
M  V30 6713 N 648.886 1.2938 -0.899927 0
M  V30 6714 C 650.132 1.96206 -0.536153 0
M  V30 6715 C 650.487 1.69647 0.90761 0
M  V30 6716 O 649.78 0.999089 1.63489 0
M  V30 6717 C 649.974 3.49114 -0.765113 0
M  V30 6718 C 649.803 3.90538 -2.22958 0
M  V30 6719 C 648.573 4.15395 -2.87706 0
M  V30 6720 C 650.771 4.0224 -3.20479 0
M  V30 6721 N 648.753 4.43389 -4.24593 0
M  V30 6722 C 650.124 4.34288 -4.42486 0
M  V30 6723 C 652.179 3.84716 -3.16066 0
M  V30 6724 C 650.882 4.50638 -5.6064 0
M  V30 6725 C 652.908 4.02276 -4.33507 0
M  V30 6726 C 652.27 4.34684 -5.54283 0
M  V30 6727 H 648.369 0.742364 -0.245804 0
M  V30 6728 H 650.953 1.56314 -1.16078 0
M  V30 6729 H 649.124 3.88028 -0.169861 0
M  V30 6730 H 650.856 4.03035 -0.366751 0
M  V30 6731 H 647.611 4.09164 -2.385 0
M  V30 6732 H 648.035 4.61494 -4.95331 0
M  V30 6733 H 652.677 3.58724 -2.23778 0
M  V30 6734 H 650.395 4.75467 -6.5342 0
M  V30 6735 H 653.981 3.90169 -4.31578 0
M  V30 6736 H 652.861 4.47988 -6.43643 0
M  V30 6737 N 650.364 0.662433 1.43002 0
M  V30 6738 C 651.61 0.179857 2.02001 0
M  V30 6739 C 651.943 -1.20625 1.52195 0
M  V30 6740 O 651.218 -1.80726 0.718911 0
M  V30 6741 C 651.501 0.200845 3.59539 0
M  V30 6742 C 651.354 1.62153 4.19555 0
M  V30 6743 C 652.673 -0.457738 4.37713 0
M  V30 6744 H 649.792 0.0668305 0.733964 0
M  V30 6745 H 652.434 0.84487 1.70182 0
M  V30 6746 H 650.584 -0.365411 3.86778 0
M  V30 6747 H 652.256 2.23908 4.03315 0
M  V30 6748 H 650.499 2.16601 3.75854 0
M  V30 6749 H 651.17 1.58799 5.28665 0
M  V30 6750 H 653.646 0.0241495 4.16093 0
M  V30 6751 H 652.522 -0.412363 5.47349 0
M  V30 6752 H 652.783 -1.53336 4.14657 0
M  V30 6753 N 651.842 -1.52309 0.404946 0
M  V30 6754 C 653.067 -2.06666 -0.1743 0
M  V30 6755 C 653.492 -1.27341 -1.38441 0
M  V30 6756 O 652.85 -0.302539 -1.78758 0
M  V30 6757 C 652.898 -3.57014 -0.507262 0
M  V30 6758 O 652.002 -3.80144 -1.59889 0
M  V30 6759 H 651.343 -0.663807 -0.0160273 0
M  V30 6760 H 653.873 -1.96297 0.576937 0
M  V30 6761 H 653.883 -4.00724 -0.767098 0
M  V30 6762 H 652.558 -4.14184 0.377368 0
M  V30 6763 H 651.135 -3.48316 -1.33155 0
M  V30 6764 N 653.32 -0.135238 -1.57019 0
M  V30 6765 C 654.25 0.805235 -2.19176 0
M  V30 6766 C 655.231 1.2656 -1.13651 0
M  V30 6767 O 656.416 1.32528 -1.4195 0
M  V30 6768 C 653.546 2.04914 -2.80406 0
M  V30 6769 C 652.5 1.72598 -3.91655 0
M  V30 6770 C 651.826 3.04154 -4.39766 0
M  V30 6771 C 653.126 0.981709 -5.12991 0
M  V30 6772 H 654.82 0.287232 -2.98019 0
M  V30 6773 H 652.366 0.136714 -1.4335 0
M  V30 6774 H 654.319 2.71178 -3.22553 0
M  V30 6775 H 653.043 2.59067 -1.98877 0
M  V30 6776 H 651.702 1.08717 -3.50109 0
M  V30 6777 H 651.35 3.56274 -3.55075 0
M  V30 6778 H 651.05 2.83299 -5.14796 0
M  V30 6779 H 652.574 3.71509 -4.84576 0
M  V30 6780 H 653.988 1.5462 -5.52056 0
M  V30 6781 H 652.385 0.873533 -5.93708 0
M  V30 6782 H 653.455 -0.0286887 -4.84892 0
M  V30 6783 N 654.798 1.5699 0.138552 0
M  V30 6784 C 655.73 1.95515 1.1961 0
M  V30 6785 C 656.743 0.852002 1.38726 0
M  V30 6786 O 657.932 1.13038 1.38147 0
M  V30 6787 C 655.032 2.2213 2.55952 0
M  V30 6788 C 654.205 3.53424 2.57702 0
M  V30 6789 C 653.264 3.6848 3.75645 0
M  V30 6790 O 652.29 4.4079 3.60129 0
M  V30 6791 N 653.492 3.05777 4.93438 0
M  V30 6792 H 656.257 2.86838 0.868557 0
M  V30 6793 H 653.818 1.58542 0.328033 0
M  V30 6794 H 655.81 2.29435 3.33379 0
M  V30 6795 H 654.38 1.3703 2.80965 0
M  V30 6796 H 653.6 3.57484 1.6613 0
M  V30 6797 H 654.888 4.39759 2.55909 0
M  V30 6798 H 654.286 2.46961 5.08947 0
M  V30 6799 H 652.843 3.18631 5.6861 0
M  V30 6800 N 656.276 -0.40816 1.52223 0
M  V30 6801 C 657.239 -1.48 1.7501 0
M  V30 6802 C 658.239 -1.48367 0.619996 0
M  V30 6803 O 659.429 -1.49874 0.887881 0
M  V30 6804 C 656.561 -2.87403 1.83336 0
M  V30 6805 H 657.754 -1.29086 2.70697 0
M  V30 6806 H 655.307 -0.638715 1.42654 0
M  V30 6807 H 656.042 -3.11686 0.895677 0
M  V30 6808 H 655.827 -2.8854 2.65494 0
M  V30 6809 H 657.317 -3.65103 2.02705 0
M  V30 6810 N 657.755 -1.42862 -0.66545 0
M  V30 6811 C 658.983 -1.47246 -1.45349 0
M  V30 6812 C 659.398 -0.0865944 -1.88601 0
M  V30 6813 O 658.755 0.900652 -1.58728 0
M  V30 6814 C 658.806 -2.40772 -2.6965 0
M  V30 6815 O 658.527 -3.73968 -2.2821 0
M  V30 6816 C 660.028 -2.54272 -3.63126 0
M  V30 6817 H 657.248 -0.500497 -0.446927 0
M  V30 6818 H 659.792 -1.87477 -0.816871 0
M  V30 6819 H 657.947 -2.0377 -3.29479 0
M  V30 6820 H 658.361 -4.24146 -3.08546 0
M  V30 6821 H 659.835 -3.23815 -4.47043 0
M  V30 6822 H 660.312 -1.58364 -4.09656 0
M  V30 6823 H 660.918 -2.92036 -3.09185 0
M  V30 6824 N 659.233 0.902656 -1.29189 0
M  V30 6825 C 660.183 1.99326 -1.10695 0
M  V30 6826 C 661.167 1.60877 -0.0272521 0
M  V30 6827 O 662.359 1.75245 -0.248635 0
M  V30 6828 C 659.488 3.34265 -0.78244 0
M  V30 6829 C 658.574 3.79081 -1.90153 0
M  V30 6830 N 658.965 3.96162 -3.14466 0
M  V30 6831 C 657.263 4.08333 -1.79389 0
M  V30 6832 C 657.964 4.3388 -3.87458 0
M  V30 6833 N 656.94 4.42759 -3.15381 0
M  V30 6834 H 660.742 2.10597 -2.05003 0
M  V30 6835 H 658.256 1.09127 -1.20271 0
M  V30 6836 H 660.253 4.12097 -0.630996 0
M  V30 6837 H 658.913 3.2434 0.152754 0
M  V30 6838 H 659.924 3.81775 -3.49954 0
M  V30 6839 H 656.601 4.06982 -0.931217 0
M  V30 6840 H 657.991 4.54965 -4.94425 0
M  V30 6841 N 660.711 1.11618 1.11262 0
M  V30 6842 C 661.951 0.876154 1.8467 0
M  V30 6843 C 662.315 -0.587551 1.82789 0
M  V30 6844 O 663.516 -0.944411 2.51663 0
M  V30 6845 C 661.787 1.42461 3.2778 0
M  V30 6846 S 663.346 1.32185 4.18417 0
M  V30 6847 H 660.164 0.31628 0.636779 0
M  V30 6848 H 662.766 1.42404 1.33946 0
M  V30 6849 H 661.47 2.48367 3.26714 0
M  V30 6850 H 661.001 0.873844 3.83572 0
M  V30 6851 H 663.016 0.287607 4.95366 0
M  V30 6852 N 662.189 -1.289 0.906776 0
M  V30 6853 C 663.119 -2.29932 0.406659 0
M  V30 6854 C 664.1 -1.6189 -0.522061 0
M  V30 6855 O 665.285 -1.8935 -0.431283 0
M  V30 6856 C 662.415 -3.45425 -0.360366 0
M  V30 6857 C 661.369 -4.25316 0.478574 0
M  V30 6858 C 660.695 -5.33076 -0.416373 0
M  V30 6859 C 661.995 -4.92739 1.7322 0
M  V30 6860 H 663.689 -2.72013 1.25097 0
M  V30 6861 H 661.235 -1.30768 0.602977 0
M  V30 6862 H 663.188 -4.15186 -0.721029 0
M  V30 6863 H 661.912 -3.02206 -1.23852 0
M  V30 6864 H 660.571 -3.57273 0.821662 0
M  V30 6865 H 660.219 -4.86101 -1.29287 0
M  V30 6866 H 659.919 -5.8743 0.141309 0
M  V30 6867 H 661.443 -6.05686 -0.773072 0
M  V30 6868 H 662.857 -5.54898 1.44086 0
M  V30 6869 H 661.254 -5.57057 2.23175 0
M  V30 6870 H 662.324 -4.17625 2.46408 0
M  V30 6871 N 663.667 -0.670007 -1.42649 0
M  V30 6872 C 665.078 -0.268118 -1.84765 0
M  V30 6873 C 665.429 1.18877 -1.56086 0
M  V30 6874 O 664.554 1.90947 -1.01825 0
M  V30 6875 C 665.149 -0.47984 -3.35385 0
M  V30 6876 C 663.708 -0.132116 -3.76168 0
M  V30 6877 C 662.855 -0.774611 -2.66261 0
M  V30 6878 H 665.806 -0.872509 -1.32563 0
M  V30 6879 H 665.827 0.269522 -3.79544 0
M  V30 6880 H 665.339 -1.54026 -3.56227 0
M  V30 6881 H 663.44 0.92505 -3.60934 0
M  V30 6882 H 663.553 -0.569294 -4.75706 0
M  V30 6883 H 661.917 -0.206353 -2.53863 0
M  V30 6884 H 662.7 -1.83839 -2.89928 0
M  V30 6885 N 665.145 1.52092 -0.413018 0
M  V30 6886 C 666.055 2.30858 0.417318 0
M  V30 6887 C 667.071 1.38746 1.05003 0
M  V30 6888 O 668.247 1.71821 1.05069 0
M  V30 6889 C 665.312 3.11756 1.51687 0
M  V30 6890 C 664.373 4.19613 0.906825 0
M  V30 6891 C 663.606 4.96644 1.95399 0
M  V30 6892 O 663.829 4.7402 3.17271 0
M  V30 6893 O 662.763 5.81385 1.55805 0
M  V30 6894 H 666.589 3.02865 -0.225028 0
M  V30 6895 H 664.174 1.48358 -0.176126 0
M  V30 6896 H 666.056 3.62122 2.15512 0
M  V30 6897 H 664.731 2.42539 2.14375 0
M  V30 6898 H 663.638 3.73385 0.231183 0
M  V30 6899 H 664.971 4.91134 0.323814 0
M  V30 6900 N 666.623 0.143563 1.56945 0
M  V30 6901 C 668.034 -0.37783 1.82837 0
M  V30 6902 C 668.385 -1.64967 1.06209 0
M  V30 6903 O 667.51 -2.14221 0.306291 0
M  V30 6904 C 668.105 -0.692274 3.31652 0
M  V30 6905 C 666.664 -1.1582 3.58138 0
M  V30 6906 C 665.811 -0.17951 2.76718 0
M  V30 6907 H 668.762 0.368317 1.54367 0
M  V30 6908 H 668.783 -1.54729 3.47619 0
M  V30 6909 H 668.295 0.233572 3.87397 0
M  V30 6910 H 666.396 -2.10011 3.07776 0
M  V30 6911 H 666.509 -1.08655 4.66616 0
M  V30 6912 H 664.873 -0.671458 2.4569 0
M  V30 6913 H 665.656 0.739865 3.35233 0
M  V30 6914 N 668.101 -1.57061 -0.130224 0
M  V30 6915 C 669.051 -1.95941 -1.16582 0
M  V30 6916 C 670.035 -0.832858 -1.37667 0
M  V30 6917 O 671.227 -1.09647 -1.38948 0
M  V30 6918 C 668.356 -2.35777 -2.49528 0
M  V30 6919 C 667.442 -3.5504 -2.31964 0
M  V30 6920 N 667.833 -4.71071 -1.84189 0
M  V30 6921 C 666.131 -3.60453 -2.62659 0
M  V30 6922 C 666.832 -5.53128 -1.80068 0
M  V30 6923 N 665.808 -4.95303 -2.24001 0
M  V30 6924 H 669.61 -2.83117 -0.788806 0
M  V30 6925 H 667.124 -1.58842 -0.3381 0
M  V30 6926 H 669.121 -2.61843 -3.24413 0
M  V30 6927 H 667.781 -1.49961 -2.87996 0
M  V30 6928 H 668.792 -4.94504 -1.53903 0
M  V30 6929 H 665.469 -2.85217 -3.0489 0
M  V30 6930 H 666.859 -6.56182 -1.4448 0
M  V30 6931 N 669.579 0.400081 -1.52437 0
M  V30 6932 C 670.509 1.4947 -1.7939 0
M  V30 6933 C 671.49 1.57383 -0.645329 0
M  V30 6934 O 672.675 1.72511 -0.891826 0
M  V30 6935 C 669.805 2.87201 -1.95276 0
M  V30 6936 C 668.759 2.94134 -3.10917 0
M  V30 6937 C 668.085 4.34207 -3.1204 0
M  V30 6938 C 669.385 2.64791 -4.50203 0
M  V30 6939 H 671.079 1.27165 -2.71052 0
M  V30 6940 H 668.625 0.610312 -1.30427 0
M  V30 6941 H 670.578 3.63772 -2.12715 0
M  V30 6942 H 669.302 3.10819 -1.00294 0
M  V30 6943 H 667.961 2.20009 -2.93243 0
M  V30 6944 H 667.609 4.54848 -2.14761 0
M  V30 6945 H 667.309 4.39768 -3.89715 0
M  V30 6946 H 668.833 5.127 -3.31619 0
M  V30 6947 H 670.247 3.31083 -4.68035 0
M  V30 6948 H 668.644 2.81717 -5.29864 0
M  V30 6949 H 669.714 1.60184 -4.57678 0
M  V30 6950 N 671.057 1.43213 0.657864 0
M  V30 6951 C 671.987 1.50815 1.78262 0
M  V30 6952 C 672.968 0.363211 1.66177 0
M  V30 6953 O 674.153 0.579806 1.85343 0
M  V30 6954 C 671.283 1.42625 3.16663 0
M  V30 6955 C 670.237 2.5532 3.43505 0
M  V30 6956 C 669.563 2.32184 4.81658 0
M  V30 6957 C 670.863 3.97583 3.38711 0
M  V30 6958 H 672.557 2.44954 1.72157 0
M  V30 6959 H 670.103 1.17896 0.82683 0
M  V30 6960 H 672.056 1.46548 3.95097 0
M  V30 6961 H 670.78 0.449877 3.23487 0
M  V30 6962 H 669.439 2.50742 2.6744 0
M  V30 6963 H 669.087 1.32801 4.85153 0
M  V30 6964 H 668.787 3.07724 5.00579 0
M  V30 6965 H 670.311 2.37883 5.62356 0
M  V30 6966 H 671.725 4.03673 4.07089 0
M  V30 6967 H 670.122 4.73112 3.69168 0
M  V30 6968 H 671.192 4.23049 2.36976 0
M  V30 6969 N 672.536 -0.895792 1.29666 0
M  V30 6970 C 673.952 -1.17726 1.07763 0
M  V30 6971 C 674.152 -2.00794 -0.168576 0
M  V30 6972 O 673.208 -2.37213 -0.865244 0
M  V30 6973 C 674.521 -1.89441 2.33522 0
M  V30 6974 C 676.069 -2.02251 2.3888 0
M  V30 6975 C 676.544 -2.77378 3.64452 0
M  V30 6976 N 678.035 -2.8493 3.65198 0
M  V30 6977 C 678.77 -3.43606 4.59045 0
M  V30 6978 N 678.266 -4.03417 5.63228 0
M  V30 6979 N 680.059 -3.41317 4.46608 0
M  V30 6980 H 672.21 -0.341652 2.09634 0
M  V30 6981 H 674.473 -0.213865 0.923561 0
M  V30 6982 H 674.179 -1.35842 3.24407 0
M  V30 6983 H 674.053 -2.89893 2.41334 0
M  V30 6984 H 676.44 -2.55025 1.4848 0
M  V30 6985 H 676.521 -1.0092 2.3505 0
M  V30 6986 H 676.165 -2.25279 4.55205 0
M  V30 6987 H 676.095 -3.79062 3.65541 0
M  V30 6988 H 678.586 -2.42453 2.89871 0
M  V30 6989 H 678.899 -4.46224 6.30955 0
M  V30 6990 H 677.244 -4.01868 5.67033 0
M  V30 6991 H 680.435 -2.93812 3.64407 0
M  V30 6992 H 680.608 -3.86751 5.1993 0
M  V30 6993 N 674.014 -1.12206 -1.10668 0
M  V30 6994 C 674.944 -0.810086 -2.18997 0
M  V30 6995 C 675.925 0.225065 -1.68604 0
M  V30 6996 O 677.11 0.086783 -1.94006 0
M  V30 6997 C 674.24 -0.261262 -3.46316 0
M  V30 6998 C 673.194 -1.2292 -4.09969 0
M  V30 6999 C 672.52 -0.540713 -5.31959 0
M  V30 7000 C 673.82 -2.58295 -4.53962 0
M  V30 7001 H 675.514 -1.7159 -2.45352 0
M  V30 7002 H 673.06 -0.82646 -1.17922 0
M  V30 7003 H 675.013 -0.0307522 -4.21389 0
M  V30 7004 H 673.737 0.679879 -3.19445 0
M  V30 7005 H 672.396 -1.44548 -3.369 0
M  V30 7006 H 672.044 0.405492 -5.01363 0
M  V30 7007 H 671.744 -1.18637 -5.75499 0
M  V30 7008 H 673.268 -0.319184 -6.09765 0
M  V30 7009 H 674.682 -2.40709 -5.20319 0
M  V30 7010 H 673.079 -3.18916 -5.08343 0
M  V30 7011 H 674.149 -3.16918 -3.67002 0
M  V30 7012 N 675.492 1.28418 -0.913599 0
M  V30 7013 C 676.908 1.47411 -0.611728 0
M  V30 7014 C 677.108 1.83018 0.843008 0
M  V30 7015 O 676.164 1.93505 1.6221 0
M  V30 7016 C 677.477 2.57703 -1.5495 0
M  V30 7017 C 679.025 2.71572 -1.5562 0
M  V30 7018 C 679.5 3.85008 -2.48058 0
M  V30 7019 N 680.991 3.92361 -2.46184 0
M  V30 7020 C 681.726 4.79516 -3.14407 0
M  V30 7021 N 681.222 5.71262 -3.91958 0
M  V30 7022 N 683.015 4.73125 -3.03495 0
M  V30 7023 H 675.166 1.03585 -1.85429 0
M  V30 7024 H 677.429 0.515907 -0.795326 0
M  V30 7025 H 677.135 2.38298 -2.58663 0
M  V30 7026 H 677.009 3.54801 -1.28048 0
M  V30 7027 H 679.396 2.90366 -0.526441 0
M  V30 7028 H 679.477 1.75006 -1.86565 0
M  V30 7029 H 679.121 3.66969 -3.51136 0
M  V30 7030 H 679.051 4.80971 -2.14416 0
M  V30 7031 H 681.542 3.26749 -1.89851 0
M  V30 7032 H 681.855 6.34593 -4.41034 0
M  V30 7033 H 680.2 5.71103 -3.96063 0
M  V30 7034 H 683.391 4.00442 -2.42413 0
M  V30 7035 H 683.564 5.40834 -3.56935 0
M  V30 7036 N 676.97 0.677563 1.42291 0
M  V30 7037 C 677.933 0.0101085 2.29198 0
M  V30 7038 C 678.933 -0.726219 1.43467 0
M  V30 7039 O 680.123 -0.563807 1.64824 0
M  V30 7040 C 677.255 -0.996316 3.26016 0
M  V30 7041 H 678.448 0.775071 2.89711 0
M  V30 7042 H 676.001 0.440065 1.49977 0
M  V30 7043 H 676.736 -1.78967 2.70446 0
M  V30 7044 H 676.521 -0.471687 3.89253 0
M  V30 7045 H 678.011 -1.46167 3.91184 0
M  V30 7046 N 678.448 -1.51871 0.421078 0
M  V30 7047 C 679.378 -2.30231 -0.389363 0
M  V30 7048 C 680.359 -1.34946 -1.03555 0
M  V30 7049 O 681.544 -1.63859 -1.04229 0
M  V30 7050 C 678.674 -3.13247 -1.49979 0
M  V30 7051 C 677.628 -4.16677 -0.977966 0
M  V30 7052 C 676.954 -4.88112 -2.1829 0
M  V30 7053 C 678.254 -5.22295 -0.0236775 0
M  V30 7054 H 679.948 -2.98229 0.264524 0
M  V30 7055 H 677.494 -1.43424 0.12866 0
M  V30 7056 H 679.447 -3.66838 -2.07383 0
M  V30 7057 H 678.171 -2.4304 -2.18173 0
M  V30 7058 H 676.83 -3.64114 -0.426245 0
M  V30 7059 H 676.478 -4.14423 -2.85066 0
M  V30 7060 H 676.178 -5.58041 -1.84021 0
M  V30 7061 H 677.702 -5.44521 -2.76278 0
M  V30 7062 H 679.116 -5.71055 -0.506899 0
M  V30 7063 H 677.513 -5.99656 0.230782 0
M  V30 7064 H 678.583 -4.76131 0.917999 0
M  V30 7065 N 679.926 -0.151884 -1.56866 0
M  V30 7066 C 681.174 0.497021 -1.95893 0
M  V30 7067 C 681.495 1.65078 -1.03799 0
M  V30 7068 O 680.765 1.95642 -0.10049 0
M  V30 7069 H 679.345 0.186603 -0.723318 0
M  V30 7070 H 682.007 -0.228525 -1.93556 0
M  V30 7071 H 681.103 0.869933 -2.99731 0
M  V30 7072 N 681.404 1.57128 0.121893 0
M  V30 7073 C 682.651 1.847 0.830188 0
M  V30 7074 C 682.979 0.736543 1.80015 0
M  V30 7075 O 682.234 -0.272358 1.93796 0
M  V30 7076 C 682.533 3.1874 1.61677 0
M  V30 7077 C 682.199 4.43901 0.791361 0
M  V30 7078 C 680.861 4.77887 0.563731 0
M  V30 7079 C 683.213 5.20753 0.215823 0
M  V30 7080 C 680.541 5.86168 -0.249737 0
M  V30 7081 C 682.893 6.29891 -0.584821 0
M  V30 7082 C 681.557 6.6241 -0.822794 0
M  V30 7083 H 680.827 0.675866 0.303787 0
M  V30 7084 H 683.474 1.91276 0.0926894 0
M  V30 7085 H 681.779 3.07728 2.42509 0
M  V30 7086 H 683.476 3.37295 2.16872 0
M  V30 7087 H 680.066 4.17272 0.978867 0
M  V30 7088 H 684.25 4.94851 0.378907 0
M  V30 7089 H 679.506 6.0979 -0.44336 0
M  V30 7090 H 683.68 6.88624 -1.03779 0
M  V30 7091 H 681.307 7.46147 -1.45496 0
M  V30 7092 N 682.882 -0.391992 1.52647 0
M  V30 7093 C 684.107 -1.16312 1.71716 0
M  V30 7094 C 684.532 -1.83042 0.433279 0
M  V30 7095 O 683.89 -1.70705 -0.610707 0
M  V30 7096 C 683.938 -2.18908 2.86551 0
M  V30 7097 O 683.042 -3.2543 2.53316 0
M  V30 7098 H 682.383 -0.338743 0.571095 0
M  V30 7099 H 684.913 -0.457202 1.99426 0
M  V30 7100 H 684.923 -2.62954 3.1196 0
M  V30 7101 H 683.598 -1.69726 3.79692 0
M  V30 7102 H 682.175 -2.86543 2.38637 0
M  V30 7103 N 684.36 -1.4356 -0.65026 0
M  V30 7104 C 685.27 -1.514 -1.79207 0
M  V30 7105 C 686.286 -0.400895 -1.69319 0
M  V30 7106 O 687.462 -0.655458 -1.90436 0
M  V30 7107 C 684.527 -1.43737 -3.155 0
M  V30 7108 C 683.588 -2.65743 -3.37163 0
M  V30 7109 C 682.821 -2.58436 -4.66954 0
M  V30 7110 O 683.044 -1.63374 -5.46503 0
M  V30 7111 O 681.978 -3.48984 -4.90402 0
M  V30 7112 H 685.804 -2.47825 -1.75547 0
M  V30 7113 H 683.389 -1.25594 -0.809111 0
M  V30 7114 H 685.271 -1.41916 -3.96784 0
M  V30 7115 H 683.946 -0.504488 -3.19745 0
M  V30 7116 H 682.853 -2.73136 -2.55632 0
M  V30 7117 H 684.186 -3.58014 -3.37768 0
M  V30 7118 N 685.838 0.888903 -1.30139 0
M  V30 7119 C 686.748 2.02705 -1.18101 0
M  V30 7120 C 687.764 1.73702 -0.101809 0
M  V30 7121 O 688.94 1.98906 -0.315984 0
M  V30 7122 C 686.005 3.35616 -0.869651 0
M  V30 7123 C 685.066 3.78067 -2.03381 0
M  V30 7124 C 684.299 5.04635 -1.73721 0
M  V30 7125 O 684.522 5.66531 -0.663267 0
M  V30 7126 O 683.456 5.43399 -2.58845 0
M  V30 7127 H 687.282 2.15788 -2.13704 0
M  V30 7128 H 684.867 1.01426 -1.09695 0
M  V30 7129 H 686.749 4.15358 -0.711043 0
M  V30 7130 H 685.424 3.23651 0.0565002 0
M  V30 7131 H 684.331 2.99046 -2.24772 0
M  V30 7132 H 685.664 3.94631 -2.94155 0
M  V30 7133 N 687.317 1.12792 1.10072 0
M  V30 7134 C 688.247 0.821688 2.18565 0
M  V30 7135 C 689.228 -0.21612 1.68721 0
M  V30 7136 O 690.413 -0.0764932 1.94049 0
M  V30 7137 C 687.543 0.279624 3.46172 0
M  V30 7138 C 686.497 1.25092 4.09312 0
M  V30 7139 C 685.823 0.568916 5.31665 0
M  V30 7140 C 687.123 2.60699 4.52585 0
M  V30 7141 H 688.817 1.72888 2.44438 0
M  V30 7142 H 686.363 0.832702 1.17482 0
M  V30 7143 H 688.316 0.053099 4.21367 0
M  V30 7144 H 687.04 -0.662929 3.19801 0
M  V30 7145 H 685.699 1.46332 3.36129 0
M  V30 7146 H 685.347 -0.378898 5.01571 0
M  V30 7147 H 685.047 1.21687 5.74862 0
M  V30 7148 H 686.571 0.351517 6.09587 0
M  V30 7149 H 687.985 2.43465 5.19035 0
M  V30 7150 H 686.382 3.21608 5.06644 0
M  V30 7151 H 687.452 3.1886 3.65317 0
M  V30 7152 N 688.795 -1.27931 0.920396 0
M  V30 7153 C 690.044 -1.93975 0.552867 0
M  V30 7154 C 690.357 -1.73193 -0.909035 0
M  V30 7155 O 691.563 -2.33515 -1.38502 0
M  V30 7156 C 690.019 -3.47463 0.937947 0
M  V30 7157 C 689.627 -3.77013 2.42003 0
M  V30 7158 C 691.371 -4.19628 0.64132 0
M  V30 7159 C 689.278 -5.23841 2.74489 0
M  V30 7160 H 688.208 -0.726146 0.203046 0
M  V30 7161 H 690.859 -1.45339 1.12022 0
M  V30 7162 H 689.241 -3.94867 0.299317 0
M  V30 7163 H 690.415 -3.40393 3.10595 0
M  V30 7164 H 688.73 -3.18035 2.6878 0
M  V30 7165 H 691.327 -5.27729 0.860622 0
M  V30 7166 H 691.67 -4.14164 -0.421168 0
M  V30 7167 H 692.203 -3.78022 1.23872 0
M  V30 7168 H 688.942 -5.34388 3.79618 0
M  V30 7169 H 688.462 -5.61634 2.1054 0
M  V30 7170 H 690.141 -5.91647 2.61845 0
M  V30 7171 N 690.273 -0.685099 -1.4193 0
M  V30 7172 C 691.519 -0.211971 -2.01689 0
M  V30 7173 C 691.852 1.18189 -1.54094 0
M  V30 7174 O 691.127 1.79559 -0.747572 0
M  V30 7175 C 691.41 -0.258019 -3.59174 0
M  V30 7176 C 691.263 -1.68807 -4.16922 0
M  V30 7177 C 692.582 0.388044 -4.38386 0
M  V30 7178 H 689.701 -0.0784987 -0.732808 0
M  V30 7179 H 692.343 -0.871837 -1.68816 0
M  V30 7180 H 690.493 0.303832 -3.8731 0
M  V30 7181 H 692.165 -2.30296 -3.99702 0
M  V30 7182 H 690.408 -2.22553 -3.72361 0
M  V30 7183 H 691.079 -1.6719 -5.26072 0
M  V30 7184 H 693.555 -0.0903432 -4.16002 0
M  V30 7185 H 692.431 0.325232 -5.47936 0
M  V30 7186 H 692.692 1.4672 -4.17044 0
M  V30 7187 N 691.751 1.51645 -0.429126 0
M  V30 7188 C 692.661 2.31288 0.392809 0
M  V30 7189 C 693.677 1.39852 1.03525 0
M  V30 7190 O 694.853 1.72926 1.03241 0
M  V30 7191 C 691.918 3.13347 1.48372 0
M  V30 7192 C 690.979 4.20551 0.862268 0
M  V30 7193 C 690.212 4.98688 1.9012 0
M  V30 7194 O 690.435 4.77359 3.12225 0
M  V30 7195 O 689.369 5.83005 1.4963 0
M  V30 7196 H 693.195 3.02609 -0.257138 0
M  V30 7197 H 690.78 1.48163 -0.191851 0
M  V30 7198 H 692.662 3.64387 2.1166 0
M  V30 7199 H 691.337 2.44799 2.1179 0
M  V30 7200 H 690.244 3.73609 0.191568 0
M  V30 7201 H 691.577 4.91449 0.271704 0
M  V30 7202 N 693.229 0.160201 1.56784 0
M  V30 7203 C 694.159 -0.770264 2.2043 0
M  V30 7204 C 695.14 -1.24736 1.15651 0
M  V30 7205 O 696.325 -1.30253 1.44041 0
M  V30 7206 C 693.455 -2.00427 2.83631 0
M  V30 7207 C 692.409 -1.66345 3.94352 0
M  V30 7208 C 691.735 -2.97119 4.4455 0
M  V30 7209 C 693.035 -0.899972 5.14488 0
M  V30 7210 H 694.729 -0.239783 2.98438 0
M  V30 7211 H 692.275 -0.113891 1.43549 0
M  V30 7212 H 694.228 -2.66012 3.26827 0
M  V30 7213 H 692.952 -2.5587 2.02973 0
M  V30 7214 H 691.611 -1.03133 3.51794 0
M  V30 7215 H 691.259 -3.5058 3.60698 0
M  V30 7216 H 690.959 -2.75073 5.19238 0
M  V30 7217 H 692.483 -3.63753 4.90425 0
M  V30 7218 H 693.897 -1.45818 5.54446 0
M  V30 7219 H 692.294 -0.778968 5.95023 0
M  V30 7220 H 693.364 0.105827 4.84785 0
M  V30 7221 N 694.707 -1.5719 -0.113559 0
M  V30 7222 C 695.657 -1.97166 -1.14497 0
M  V30 7223 C 696.641 -0.847413 -1.36776 0
M  V30 7224 O 697.833 -1.11114 -1.37777 0
M  V30 7225 C 694.962 -2.38411 -2.47013 0
M  V30 7226 C 694.048 -3.5748 -2.28185 0
M  V30 7227 N 694.439 -4.72998 -1.79182 0
M  V30 7228 C 692.737 -3.63218 -2.58821 0
M  V30 7229 C 693.438 -5.55007 -1.74191 0
M  V30 7230 N 692.414 -4.9765 -2.18735 0
M  V30 7231 H 696.216 -2.83937 -0.758733 0
M  V30 7232 H 693.73 -1.59191 -0.321234 0
M  V30 7233 H 695.727 -2.65269 -3.21618 0
M  V30 7234 H 694.387 -1.53007 -2.8639 0
M  V30 7235 H 695.398 -4.96109 -1.48649 0
M  V30 7236 H 692.075 -2.88434 -3.01847 0
M  V30 7237 H 693.465 -6.57678 -1.37512 0
M  V30 7238 N 696.185 0.383891 -1.52853 0
M  V30 7239 C 697.413 1.1495 -1.7203 0
M  V30 7240 C 697.828 1.83578 -0.440957 0
M  V30 7241 O 697.185 1.72872 0.584925 0
M  V30 7242 C 697.236 2.19368 -2.87333 0
M  V30 7243 O 696.957 1.53536 -4.10315 0
M  V30 7244 C 698.458 3.08616 -3.18231 0
M  V30 7245 H 695.678 0.344445 -0.575846 0
M  V30 7246 H 698.222 0.448397 -1.99524 0
M  V30 7247 H 696.377 2.85105 -2.62286 0
M  V30 7248 H 696.791 2.2296 -4.74752 0
M  V30 7249 H 698.265 3.77902 -4.02361 0
M  V30 7250 H 698.742 3.72409 -2.32826 0
M  V30 7251 H 699.348 2.48518 -3.45136 0
M  V30 7252 N 697.663 1.43903 0.642637 0
M  V30 7253 C 698.593 1.52697 1.76652 0
M  V30 7254 C 699.574 0.380816 1.65782 0
M  V30 7255 O 700.759 0.599432 1.84717 0
M  V30 7256 C 697.889 1.45975 3.15133 0
M  V30 7257 C 696.843 2.58949 3.40778 0
M  V30 7258 C 696.169 2.37279 4.79169 0
M  V30 7259 C 697.469 4.01153 3.34475 0
M  V30 7260 H 699.163 2.46766 1.69549 0
M  V30 7261 H 696.709 1.18767 0.814279 0
M  V30 7262 H 698.662 1.5073 3.93521 0
M  V30 7263 H 697.386 0.484162 3.22991 0
M  V30 7264 H 696.045 2.53564 2.64765 0
M  V30 7265 H 695.693 1.37939 4.83717 0
M  V30 7266 H 695.393 3.13016 4.97287 0
M  V30 7267 H 696.917 2.43834 5.59801 0
M  V30 7268 H 698.331 4.07968 4.02784 0
M  V30 7269 H 696.728 4.77001 3.64129 0
M  V30 7270 H 697.798 4.25539 2.32475 0
M  V30 7271 N 699.141 -0.881989 1.30609 0
M  V30 7272 C 700.381 -1.64817 1.20891 0
M  V30 7273 C 700.745 -1.90593 -0.232043 0
M  V30 7274 O 701.946 -2.64964 -0.452516 0
M  V30 7275 C 700.217 -2.95006 2.01758 0
M  V30 7276 S 701.776 -3.85953 2.08771 0
M  V30 7277 H 698.594 -0.565651 0.430767 0
M  V30 7278 H 701.196 -1.04665 1.65122 0
M  V30 7279 H 699.9 -2.73973 3.0556 0
M  V30 7280 H 699.431 -3.60189 1.582 0
M  V30 7281 H 701.446 -4.81037 1.21727 0
M  V30 7282 N 700.619 -1.13374 -1.09472 0
M  V30 7283 C 701.896 -0.806329 -1.78207 0
M  V30 7284 C 702.276 0.702191 -1.99079 0
M  V30 7285 O 701.624 1.63931 -1.59182 0
M  V30 7286 C 701.834 -1.59271 -3.10538 0
M  V30 7287 C 703.182 -1.78509 -3.85253 0
M  V30 7288 O 704.206 -1.55866 -3.20288 0
M  V30 7289 O 703.065 -2.16287 -5.01879 0
M  V30 7290 H 700.159 -0.29435 -0.772843 0
M  V30 7291 H 702.705 -1.23833 -1.16033 0
M  V30 7292 H 701.477 -2.61792 -2.90828 0
M  V30 7293 H 701.1 -1.15562 -3.80436 0
M  V30 7294 N 702.098 1.27442 -0.927168 0
M  V30 7295 C 703.338 1.96157 -0.574608 0
M  V30 7296 C 703.702 1.71265 0.867897 0
M  V30 7297 O 704.903 2.33664 1.3287 0
M  V30 7298 C 703.174 3.46115 -0.891009 0
M  V30 7299 S 704.733 4.34006 -0.646885 0
M  V30 7300 H 701.551 0.678619 -0.212125 0
M  V30 7301 H 704.153 1.54688 -1.19549 0
M  V30 7302 H 702.857 3.6173 -1.93854 0
M  V30 7303 H 702.388 3.92545 -0.259301 0
M  V30 7304 H 704.403 4.93719 0.495568 0
M  V30 7305 N 703.576 0.692616 1.41565 0
M  V30 7306 C 704.524 0.0139952 2.32596 0
M  V30 7307 C 705.518 -0.771691 1.50802 0
M  V30 7308 O 706.724 -0.677646 1.66757 0
M  V30 7309 H 703.099 -0.0142745 0.751865 0
M  V30 7310 H 705.07 0.798851 2.87508 0
M  V30 7311 C 703.819 -0.910602 3.35564 0
M  V30 7312 H 703.142 -0.315446 3.98554 0
M  V30 7313 H 704.582 -1.3538 4.01806 0
M  V30 7314 C 703.041 -2.02539 2.6922 0
M  V30 7315 O 703.571 -3.11386 2.53775 0
M  V30 7316 N 701.777 -1.80227 2.27962 0
M  V30 7317 H 701.324 -0.917054 2.40724 0
M  V30 7318 H 701.282 -2.55001 1.83907 0
M  V30 7319 N 705.054 -1.51416 0.437162 0
M  V30 7320 C 706.294 -2.03995 -0.128538 0
M  V30 7321 C 706.658 -1.31417 -1.39977 0
M  V30 7322 O 707.859 -1.74369 -2.0457 0
M  V30 7323 C 706.13 -3.55757 -0.342317 0
M  V30 7324 S 707.689 -4.3006 -0.871446 0
M  V30 7325 H 704.507 -0.710283 -0.0319322 0
M  V30 7326 H 707.109 -1.86177 0.596526 0
M  V30 7327 H 705.813 -4.06148 0.589233 0
M  V30 7328 H 705.344 -3.77869 -1.09447 0
M  V30 7329 H 707.359 -4.47248 -2.14903 0
M  V30 7330 N 706.532 -0.168513 -1.56696 0
M  V30 7331 C 707.757 0.486688 -2.01609 0
M  V30 7332 C 708.182 1.56203 -1.04796 0
M  V30 7333 O 707.54 1.8128 -0.0270596 0
M  V30 7334 C 707.588 1.04451 -3.45141 0
M  V30 7335 O 706.692 2.15862 -3.51393 0
M  V30 7336 H 706.033 0.116831 -0.653641 0
M  V30 7337 H 708.563 -0.271579 -2.0279 0
M  V30 7338 H 708.573 1.36782 -3.84389 0
M  V30 7339 H 707.248 0.257155 -4.15104 0
M  V30 7340 H 705.825 1.84597 -3.24004 0
M  V30 7341 N 708.01 1.57248 0.105221 0
M  V30 7342 C 709.287 1.76566 0.841647 0
M  V30 7343 C 709.667 0.747566 1.9742 0
M  V30 7344 O 709.015 -0.225886 2.27381 0
M  V30 7345 C 709.225 3.22016 1.3456 0
M  V30 7346 C 710.573 3.84911 1.79244 0
M  V30 7347 O 711.597 3.25703 1.44207 0
M  V30 7348 O 710.456 4.89008 2.43995 0
M  V30 7349 H 707.55 0.723443 0.400698 0
M  V30 7350 H 710.096 1.69472 0.0878893 0
M  V30 7351 H 708.868 3.87644 0.533685 0
M  V30 7352 H 708.491 3.33703 2.16167 0
M  V30 7353 N 709.488 -0.375779 1.53054 0
M  V30 7354 C 710.716 -1.14036 1.72637 0
M  V30 7355 C 711.131 -1.83342 0.450687 0
M  V30 7356 O 710.488 -1.7318 -0.575749 0
M  V30 7357 C 710.539 -2.17841 2.88492 0
M  V30 7358 O 710.26 -1.51358 4.11123 0
M  V30 7359 C 711.761 -3.06924 3.19863 0
M  V30 7360 H 708.981 -0.341386 0.577665 0
M  V30 7361 H 711.525 -0.437809 1.99759 0
M  V30 7362 H 709.68 -2.8371 2.63794 0
M  V30 7363 H 710.094 -2.20439 4.75928 0
M  V30 7364 H 711.568 -3.75763 4.04359 0
M  V30 7365 H 712.045 -3.71169 2.34798 0
M  V30 7366 H 712.651 -2.46684 3.46449 0
M  V30 7367 N 710.966 -1.44241 -0.634997 0
M  V30 7368 C 711.898 -1.46793 -1.76024 0
M  V30 7369 C 712.911 -0.361781 -1.58729 0
M  V30 7370 O 714.1 -0.627297 -1.67114 0
M  V30 7371 C 711.2 -1.28248 -3.13697 0
M  V30 7372 C 710.373 -2.52038 -3.57485 0
M  V30 7373 C 709.432 -2.2845 -4.74022 0
M  V30 7374 O 708.458 -3.01915 -4.82531 0
M  V30 7375 N 709.66 -1.31264 -5.65464 0
M  V30 7376 H 712.425 -2.43797 -1.74307 0
M  V30 7377 H 709.986 -1.39631 -0.819438 0
M  V30 7378 H 711.978 -1.10321 -3.89373 0
M  V30 7379 H 710.548 -0.39623 -3.10079 0
M  V30 7380 H 709.768 -2.85268 -2.72059 0
M  V30 7381 H 711.056 -3.34382 -3.83492 0
M  V30 7382 H 710.454 -0.705817 -5.6128 0
M  V30 7383 H 709.011 -1.19316 -6.40786 0
M  V30 7384 N 712.444 0.87505 -1.31075 0
M  V30 7385 C 713.855 1.4433 -1.18431 0
M  V30 7386 C 714.206 1.9506 0.211189 0
M  V30 7387 O 713.331 1.85847 1.10859 0
M  V30 7388 C 713.926 2.62341 -2.14389 0
M  V30 7389 C 712.485 3.15225 -2.05694 0
M  V30 7390 C 711.632 1.87929 -2.03907 0
M  V30 7391 H 714.583 0.684061 -1.432 0
M  V30 7392 H 714.604 3.3887 -1.73053 0
M  V30 7393 H 714.116 2.25388 -3.15946 0
M  V30 7394 H 712.217 3.56812 -1.07314 0
M  V30 7395 H 712.33 3.77853 -2.94558 0
M  V30 7396 H 710.694 2.06679 -1.48849 0
M  V30 7397 H 711.477 1.53221 -3.07211 0
M  V30 7398 N 713.922 1.13953 1.08869 0
M  V30 7399 C 714.854 0.779906 2.15523 0
M  V30 7400 C 715.867 -0.20102 1.61554 0
M  V30 7401 O 717.056 0.0200049 1.78489 0
M  V30 7402 C 714.156 0.136226 3.38626 0
M  V30 7403 C 713.329 1.15069 4.21993 0
M  V30 7404 C 712.388 0.531645 5.23507 0
M  V30 7405 O 711.414 1.19327 5.56552 0
M  V30 7406 N 712.616 -0.693734 5.7634 0
M  V30 7407 H 715.381 1.69769 2.46979 0
M  V30 7408 H 712.942 1.03331 1.24637 0
M  V30 7409 H 714.934 -0.290295 4.03658 0
M  V30 7410 H 713.504 -0.684603 3.05011 0
M  V30 7411 H 712.724 1.75431 3.53012 0
M  V30 7412 H 714.012 1.83614 4.74514 0
M  V30 7413 H 713.41 -1.24994 5.51718 0
M  V30 7414 H 711.967 -1.06283 6.43076 0
M  V30 7415 N 715.4 -1.26948 0.933913 0
M  V30 7416 C 716.363 -2.24889 0.442457 0
M  V30 7417 C 717.363 -1.54594 -0.442426 0
M  V30 7418 O 718.553 -1.72502 -0.242629 0
M  V30 7419 C 715.685 -3.3896 -0.363173 0
M  V30 7420 H 716.878 -2.69879 1.30787 0
M  V30 7421 H 714.431 -1.38978 0.715187 0
M  V30 7422 H 715.166 -2.99361 -1.24714 0
M  V30 7423 H 714.951 -3.9116 0.271366 0
M  V30 7424 H 716.441 -4.11739 -0.697186 0
M  V30 7425 N 716.879 -0.700114 -1.41195 0
M  V30 7426 C 718.29 -0.307249 -1.84154 0
M  V30 7427 C 718.641 1.15539 -1.58572 0
M  V30 7428 O 717.766 1.88744 -1.05852 0
M  V30 7429 C 718.361 -0.550872 -3.34292 0
M  V30 7430 C 716.92 -0.211877 -3.75803 0
M  V30 7431 C 716.067 -0.830915 -2.64558 0
M  V30 7432 H 719.018 -0.900431 -1.30683 0
M  V30 7433 H 719.039 0.188954 -3.80031 0
M  V30 7434 H 718.551 -1.61548 -3.5288 0
M  V30 7435 H 716.652 0.848283 -3.62815 0
M  V30 7436 H 716.765 -0.67007 -4.74391 0
M  V30 7437 H 715.129 -0.260155 -2.53368 0
M  V30 7438 H 715.912 -1.89948 -2.85963 0
M  V30 7439 N 718.357 1.51182 -0.445186 0
M  V30 7440 C 719.307 2.24804 0.380394 0
M  V30 7441 C 720.291 1.27344 0.983482 0
M  V30 7442 O 721.483 1.52392 0.900322 0
M  V30 7443 C 718.612 3.09922 1.4766 0
M  V30 7444 C 717.698 4.14816 0.882517 0
M  V30 7445 N 718.089 5.05797 0.0183278 0
M  V30 7446 C 716.387 4.30938 1.14927 0
M  V30 7447 C 717.088 5.8084 -0.316152 0
M  V30 7448 N 716.064 5.42759 0.302214 0
M  V30 7449 H 719.866 2.92508 -0.285737 0
M  V30 7450 H 717.38 1.60342 -0.257733 0
M  V30 7451 H 719.377 3.61249 2.08098 0
M  V30 7452 H 718.037 2.43763 2.14498 0
M  V30 7453 H 719.048 5.16725 -0.348679 0
M  V30 7454 H 715.725 3.76005 1.81457 0
M  V30 7455 H 717.115 6.64115 -1.01986 0
M  V30 7456 N 719.835 0.176821 1.56605 0
M  V30 7457 C 721.075 -0.469104 1.98944 0
M  V30 7458 C 721.439 -1.60048 1.06059 0
M  V30 7459 O 722.64 -2.30934 1.3756 0
M  V30 7460 C 720.911 -0.934571 3.44965 0
M  V30 7461 S 722.47 -1.58091 4.09332 0
M  V30 7462 H 719.288 -0.150695 0.694847 0
M  V30 7463 H 721.89 0.27558 1.93548 0
M  V30 7464 H 720.594 -0.100814 4.10276 0
M  V30 7465 H 720.125 -1.71316 3.54139 0
M  V30 7466 H 722.14 -2.86922 4.04834 0
M  V30 7467 N 721.313 -1.57302 -0.09688 0
M  V30 7468 C 722.538 -1.9058 -0.818169 0
M  V30 7469 C 722.963 -0.770921 -1.71576 0
M  V30 7470 O 722.321 0.277588 -1.79162 0
M  V30 7471 C 722.369 -3.22714 -1.60898 0
M  V30 7472 O 721.473 -3.10178 -2.71779 0
M  V30 7473 H 720.814 -0.624759 -0.224882 0
M  V30 7474 H 723.344 -2.04471 -0.07264 0
M  V30 7475 H 723.354 -3.55978 -1.99358 0
M  V30 7476 H 722.029 -4.04899 -0.950227 0
M  V30 7477 H 720.606 -2.88424 -2.3636 0
M  V30 7478 N 722.791 0.367657 -1.53252 0
M  V30 7479 C 724.068 1.12606 -1.59935 0
M  V30 7480 C 724.448 2.07167 -0.405606 0
M  V30 7481 O 723.796 2.20364 0.604323 0
M  V30 7482 C 724.006 1.86699 -2.94863 0
M  V30 7483 C 725.354 2.41306 -3.49366 0
M  V30 7484 O 726.378 1.96828 -2.96879 0
M  V30 7485 O 725.237 3.2261 -4.41118 0
M  V30 7486 H 722.331 0.516438 -0.645926 0
M  V30 7487 H 724.877 0.371088 -1.65593 0
M  V30 7488 H 723.649 1.17674 -3.73187 0
M  V30 7489 H 723.272 2.6911 -2.92687 0
M  V30 7490 N 724.269 1.44576 0.627338 0
M  V30 7491 C 725.517 1.47267 1.38408 0
M  V30 7492 C 725.838 0.107971 1.94701 0
M  V30 7493 O 725.108 -0.860206 1.76004 0
M  V30 7494 H 723.688 0.542276 0.513756 0
M  V30 7495 H 726.35 1.80383 0.738099 0
M  V30 7496 H 725.446 2.20025 2.21349 0
M  V30 7497 N 725.747 -0.868086 1.31537 0
M  V30 7498 C 726.679 -1.98165 1.15166 0
M  V30 7499 C 727.692 -1.6255 0.0902335 0
M  V30 7500 O 728.881 -1.75272 0.33791 0
M  V30 7501 C 725.981 -3.30772 0.737776 0
M  V30 7502 C 725.154 -3.94716 1.88462 0
M  V30 7503 C 724.213 -5.05641 1.45648 0
M  V30 7504 O 723.239 -5.2636 2.16642 0
M  V30 7505 N 724.441 -5.79474 0.34493 0
M  V30 7506 H 727.206 -2.12754 2.11083 0
M  V30 7507 H 724.767 -1.04217 1.23897 0
M  V30 7508 H 726.759 -4.02366 0.434032 0
M  V30 7509 H 725.329 -3.1233 -0.129834 0
M  V30 7510 H 724.549 -3.16079 2.35558 0
M  V30 7511 H 725.837 -4.34175 2.65273 0
M  V30 7512 H 725.235 -5.65164 -0.246259 0
M  V30 7513 H 723.792 -6.51722 0.100728 0
M  V30 7514 N 727.225 -1.14528 -1.08264 0
M  V30 7515 C 728.473 -0.912599 -1.80322 0
M  V30 7516 C 728.794 0.562256 -1.86718 0
M  V30 7517 O 728.064 1.40869 -1.36135 0
M  V30 7518 H 726.644 -0.334645 -0.667849 0
M  V30 7519 H 729.306 -1.44415 -1.30883 0
M  V30 7520 H 728.402 -1.31384 -2.83098 0
M  V30 7521 N 728.703 1.26451 -0.940633 0
M  V30 7522 C 729.653 2.24086 -0.420669 0
M  V30 7523 C 730.637 1.53501 0.482301 0
M  V30 7524 O 731.829 1.74127 0.317636 0
M  V30 7525 C 728.958 3.41866 0.313452 0
M  V30 7526 C 728.044 4.19737 -0.606779 0
M  V30 7527 N 728.435 4.7521 -1.73232 0
M  V30 7528 C 726.733 4.44091 -0.41226 0
M  V30 7529 C 727.434 5.34052 -2.30572 0
M  V30 7530 N 726.41 5.1971 -1.59381 0
M  V30 7531 H 730.212 2.64569 -1.27986 0
M  V30 7532 H 727.726 1.4153 -0.796436 0
M  V30 7533 H 729.723 4.1093 0.702991 0
M  V30 7534 H 728.383 3.0291 1.16942 0
M  V30 7535 H 729.394 4.72769 -2.11447 0
M  V30 7536 H 726.071 4.1556 0.401984 0
M  V30 7537 H 727.461 5.87845 -3.25404 0
M  V30 7538 N 730.181 0.707592 1.40822 0
M  V30 7539 C 731.111 0.0644925 2.33411 0
M  V30 7540 C 732.092 -0.754205 1.52466 0
M  V30 7541 O 733.277 -0.704749 1.80961 0
M  V30 7542 C 730.407 -0.863865 3.36385 0
M  V30 7543 C 729.361 -0.15138 4.27732 0
M  V30 7544 C 728.687 -1.19491 5.21177 0
M  V30 7545 C 729.987 0.989607 5.12839 0
M  V30 7546 H 731.681 0.837829 2.87438 0
M  V30 7547 H 729.227 0.404346 1.38207 0
M  V30 7548 H 731.18 -1.32309 4.0009 0
M  V30 7549 H 729.904 -1.66901 2.80734 0
M  V30 7550 H 728.563 0.287937 3.65467 0
M  V30 7551 H 728.211 -1.9929 4.61836 0
M  V30 7552 H 727.911 -0.723123 5.83134 0
M  V30 7553 H 729.435 -1.6544 5.8776 0
M  V30 7554 H 730.849 0.610114 5.70044 0
M  V30 7555 H 729.246 1.38926 5.83798 0
M  V30 7556 H 730.316 1.82389 4.49291 0
M  V30 7557 N 731.66 -1.50943 0.453197 0
M  V30 7558 C 732.592 -2.25922 -0.38623 0
M  V30 7559 C 733.605 -1.3055 -0.972652 0
M  V30 7560 O 734.794 -1.56191 -0.864097 0
M  V30 7561 C 731.894 -3.01176 -1.5539 0
M  V30 7562 C 731.067 -4.23768 -1.0835 0
M  V30 7563 C 730.126 -4.81466 -2.12313 0
M  V30 7564 O 729.152 -5.42875 -1.71101 0
M  V30 7565 N 730.354 -4.66889 -3.44956 0
M  V30 7566 H 733.119 -2.98601 0.256468 0
M  V30 7567 H 730.68 -1.59408 0.282965 0
M  V30 7568 H 732.672 -3.36659 -2.24594 0
M  V30 7569 H 731.242 -2.31409 -2.10163 0
M  V30 7570 H 730.462 -3.93597 -0.217961 0
M  V30 7571 H 731.75 -5.03289 -0.746857 0
M  V30 7572 H 731.148 -4.18011 -3.81161 0
M  V30 7573 H 729.705 -5.06691 -4.1001 0
M  V30 7574 N 733.138 -0.185124 -1.56509 0
M  V30 7575 C 734.378 0.458547 -1.9919 0
M  V30 7576 C 734.742 1.59484 -1.06906 0
M  V30 7577 O 735.943 2.30201 -1.38783 0
M  V30 7578 C 734.214 0.916263 -3.45455 0
M  V30 7579 S 735.773 1.55918 -4.10165 0
M  V30 7580 H 732.591 0.147008 -0.695636 0
M  V30 7581 H 735.193 -0.285841 -1.93399 0
M  V30 7582 H 733.897 0.0790543 -4.10324 0
M  V30 7583 H 733.428 1.69436 -3.55042 0
M  V30 7584 H 735.443 2.84771 -4.0635 0
M  V30 7585 N 734.616 1.57351 0.0885366 0
M  V30 7586 C 735.864 1.86051 0.789262 0
M  V30 7587 C 736.185 0.774763 1.78948 0
M  V30 7588 O 735.455 -0.198324 1.94894 0
M  V30 7589 H 734.035 0.686508 0.294475 0
M  V30 7590 H 736.697 1.94779 0.0686055 0
M  V30 7591 H 735.793 2.83007 1.31581 0
M  V30 7592 N 736.094 -0.359525 1.53444 0
M  V30 7593 C 737.34 -1.10315 1.70172 0
M  V30 7594 C 737.673 -1.88788 0.455287 0
M  V30 7595 O 736.948 -1.86635 -0.547514 0
M  V30 7596 C 737.231 -2.05744 2.95536 0
M  V30 7597 C 737.084 -1.3084 4.3035 0
M  V30 7598 C 738.403 -3.05784 3.16518 0
M  V30 7599 H 735.522 -0.399662 0.619225 0
M  V30 7600 H 738.164 -0.383338 1.86093 0
M  V30 7601 H 736.314 -2.67125 2.82093 0
M  V30 7602 H 737.986 -0.721959 4.55615 0
M  V30 7603 H 736.229 -0.610283 4.29486 0
M  V30 7604 H 736.9 -2.00718 5.14214 0
M  V30 7605 H 739.376 -2.5451 3.29187 0
M  V30 7606 H 738.252 -3.69772 4.05659 0
M  V30 7607 H 738.513 -3.76289 2.32076 0
M  V30 7608 N 737.572 -1.44907 -0.619662 0
M  V30 7609 C 738.812 -1.49822 -1.39042 0
M  V30 7610 C 739.176 -0.131803 -1.91547 0
M  V30 7611 O 740.377 -0.0556413 -2.68742 0
M  V30 7612 C 738.648 -2.53805 -2.5163 0
M  V30 7613 S 740.207 -2.77855 -3.3962 0
M  V30 7614 H 737.025 -0.529774 -0.474195 0
M  V30 7615 H 739.627 -1.81907 -0.716236 0
M  V30 7616 H 738.331 -3.51772 -2.11387 0
M  V30 7617 H 737.862 -2.23331 -3.23863 0
M  V30 7618 H 739.877 -2.10319 -4.49422 0
M  V30 7619 N 739.05 0.861098 -1.31996 0
M  V30 7620 C 740.275 1.65264 -1.2531 0
M  V30 7621 C 740.7 1.87265 0.177007 0
M  V30 7622 O 740.058 1.4208 1.12619 0
M  V30 7623 C 740.106 2.99284 -2.0115 0
M  V30 7624 O 739.21 3.89508 -1.3549 0
M  V30 7625 H 738.551 0.50409 -0.432192 0
M  V30 7626 H 741.081 1.07297 -1.74208 0
M  V30 7627 H 741.091 3.49154 -2.11081 0
M  V30 7628 H 739.766 2.82591 -3.05148 0
M  V30 7629 H 738.343 3.47966 -1.34066 0
M  V30 7630 N 740.528 1.15101 1.07655 0
M  V30 7631 C 741.768 0.934462 1.81789 0
M  V30 7632 C 742.132 -0.529101 1.84566 0
M  V30 7633 O 743.333 -0.863868 2.5454 0
M  V30 7634 C 741.604 1.52817 3.23082 0
M  V30 7635 S 743.163 1.45429 4.14 0
M  V30 7636 H 739.981 0.336379 0.626395 0
M  V30 7637 H 742.583 1.46593 1.29347 0
M  V30 7638 H 741.287 2.58635 3.18647 0
M  V30 7639 H 740.818 0.995432 3.80598 0
M  V30 7640 H 742.833 0.445058 4.942 0
M  V30 7641 N 742.006 -1.2595 0.947325 0
M  V30 7642 C 742.969 -2.24407 0.466285 0
M  V30 7643 C 743.969 -1.55054 -0.426005 0
M  V30 7644 O 745.159 -1.7275 -0.224319 0
M  V30 7645 C 742.291 -3.39326 -0.327201 0
M  V30 7646 H 743.484 -2.68477 1.33642 0
M  V30 7647 H 741.037 -1.38211 0.729887 0
M  V30 7648 H 741.772 -3.00667 -1.21532 0
M  V30 7649 H 741.557 -3.9085 0.312839 0
M  V30 7650 H 743.047 -4.12455 -0.653477 0
M  V30 7651 N 743.484 -0.715051 -1.40445 0
M  V30 7652 C 744.895 -0.326763 -1.83818 0
M  V30 7653 C 745.246 1.13851 -1.59789 0
M  V30 7654 O 744.371 1.87611 -1.07848 0
M  V30 7655 C 744.966 -0.586297 -3.33688 0
M  V30 7656 C 743.525 -0.251724 -3.75557 0
M  V30 7657 C 742.672 -0.858928 -2.63662 0
M  V30 7658 H 745.623 -0.914241 -1.2972 0
M  V30 7659 H 745.644 0.148636 -3.8021 0
M  V30 7660 H 745.156 -1.65281 -3.51146 0
M  V30 7661 H 743.257 0.809754 -3.63695 0
M  V30 7662 H 743.37 -0.720348 -4.73654 0
M  V30 7663 H 741.734 -0.287013 -2.53078 0
M  V30 7664 H 742.517 -1.9297 -2.83932 0
M  V30 7665 N 744.962 1.50701 -0.461195 0
M  V30 7666 C 746.21 2.01867 0.0970051 0
M  V30 7667 C 746.531 1.34591 1.41104 0
M  V30 7668 O 745.801 0.488041 1.89723 0
M  V30 7669 H 744.381 0.74599 0.0388392 0
M  V30 7670 H 747.043 1.85129 -0.609357 0
M  V30 7671 H 746.139 3.11051 0.255688 0
M  V30 7672 N 746.441 0.193421 1.56409 0
M  V30 7673 C 747.857 -0.162447 1.58771 0
M  V30 7674 C 748.057 -1.6116 1.20954 0
M  V30 7675 O 747.113 -2.3469 0.931497 0
M  V30 7676 C 748.426 0.138391 3.00381 0
M  V30 7677 C 749.974 0.0783649 3.12902 0
M  V30 7678 C 750.449 0.352491 4.56642 0
M  V30 7679 N 751.94 0.30105 4.62221 0
M  V30 7680 C 752.675 0.487028 5.71328 0
M  V30 7681 N 752.171 0.733265 6.88909 0
M  V30 7682 N 753.964 0.4214 5.60518 0
M  V30 7683 H 746.115 1.13909 1.79272 0
M  V30 7684 H 748.378 0.454528 0.83193 0
M  V30 7685 H 748.084 1.14312 3.32604 0
M  V30 7686 H 747.958 -0.559804 3.73023 0
M  V30 7687 H 750.345 -0.916963 2.80492 0
M  V30 7688 H 750.426 0.809611 2.4265 0
M  V30 7689 H 750.07 1.34513 4.89764 0
M  V30 7690 H 750 -0.399624 5.25081 0
M  V30 7691 H 752.491 0.117279 3.77718 0
M  V30 7692 H 752.804 0.86403 7.67955 0
M  V30 7693 H 751.149 0.770138 6.9072 0
M  V30 7694 H 754.34 0.229461 4.67537 0
M  V30 7695 H 754.513 0.569758 6.4549 0
M  V30 7696 N 747.919 -1.57396 -0.0801906 0
M  V30 7697 C 748.849 -2.06145 -1.09665 0
M  V30 7698 C 749.83 -0.953273 -1.40878 0
M  V30 7699 O 751.015 -1.22548 -1.50651 0
M  V30 7700 C 748.145 -2.49836 -2.41245 0
M  V30 7701 C 747.099 -3.64454 -2.24405 0
M  V30 7702 C 746.425 -3.94172 -3.61293 0
M  V30 7703 C 747.725 -4.94807 -1.67223 0
M  V30 7704 H 749.419 -2.91316 -0.691028 0
M  V30 7705 H 746.965 -1.40145 -0.330957 0
M  V30 7706 H 748.918 -2.82552 -3.12638 0
M  V30 7707 H 747.642 -1.61683 -2.83771 0
M  V30 7708 H 746.301 -3.32008 -1.55454 0
M  V30 7709 H 745.949 -3.03163 -4.01374 0
M  V30 7710 H 745.649 -4.71345 -3.50867 0
M  V30 7711 H 747.173 -4.29376 -4.3413 0
M  V30 7712 H 748.587 -5.25807 -2.28472 0
M  V30 7713 H 746.984 -5.76245 -1.67515 0
M  V30 7714 H 748.054 -4.80751 -0.632944 0
M  V30 7715 N 749.397 0.351382 -1.53633 0
M  V30 7716 C 750.645 1.09034 -1.70165 0
M  V30 7717 C 750.966 1.89413 -0.463422 0
M  V30 7718 O 750.236 1.888 0.522624 0
M  V30 7719 H 748.816 0.405522 -0.627344 0
M  V30 7720 H 751.478 0.394554 -1.90865 0
M  V30 7721 H 750.574 1.77215 -2.56907 0
M  V30 7722 N 750.875 1.45233 0.611969 0
M  V30 7723 C 752.291 1.29542 0.932251 0
M  V30 7724 C 752.491 0.24523 2.00002 0
M  V30 7725 O 751.547 -0.362333 2.49887 0
M  V30 7726 C 752.86 2.67301 1.37733 0
M  V30 7727 C 754.408 2.75163 1.49178 0
M  V30 7728 C 754.883 4.13437 1.97064 0
M  V30 7729 N 756.374 4.15709 2.04304 0
M  V30 7730 C 757.109 5.19566 2.42568 0
M  V30 7731 N 756.605 6.33771 2.79832 0
M  V30 7732 N 758.398 5.06923 2.42869 0
M  V30 7733 H 750.549 2.12192 -0.0938679 0
M  V30 7734 H 752.812 0.947775 0.0206569 0
M  V30 7735 H 752.518 3.45318 0.666951 0
M  V30 7736 H 752.392 2.95472 2.3447 0
M  V30 7737 H 754.779 1.97453 2.19309 0
M  V30 7738 H 754.86 2.50712 0.507674 0
M  V30 7739 H 754.504 4.91631 1.27521 0
M  V30 7740 H 754.434 4.35277 2.9638 0
M  V30 7741 H 756.925 3.33293 1.78113 0
M  V30 7742 H 757.238 7.08815 3.07898 0
M  V30 7743 H 755.583 6.37179 2.77538 0
M  V30 7744 H 758.774 4.1675 2.1316 0
M  V30 7745 H 758.947 5.87981 2.72364 0
M  V30 7746 N 752.353 -0.854086 1.3245 0
M  V30 7747 C 753.283 -1.97827 1.24044 0
M  V30 7748 C 754.264 -1.69646 0.124166 0
M  V30 7749 O 755.449 -1.91687 0.31143 0
M  V30 7750 C 752.579 -3.33673 0.963324 0
M  V30 7751 C 751.533 -3.76207 2.04089 0
M  V30 7752 C 750.859 -5.0969 1.61618 0
M  V30 7753 C 752.159 -3.91612 3.45597 0
M  V30 7754 H 753.853 -2.05118 2.18099 0
M  V30 7755 H 751.399 -0.985489 1.04996 0
M  V30 7756 H 753.352 -4.11871 0.891061 0
M  V30 7757 H 752.076 -3.26597 -0.0128649 0
M  V30 7758 H 750.735 -3.0026 2.10332 0
M  V30 7759 H 750.383 -4.99072 0.627418 0
M  V30 7760 H 750.083 -5.3912 2.33717 0
M  V30 7761 H 751.607 -5.90381 1.55829 0
M  V30 7762 H 753.021 -4.60163 3.4194 0
M  V30 7763 H 751.418 -4.3246 4.16051 0
M  V30 7764 H 752.488 -2.9451 3.85217 0
M  V30 7765 N 753.831 -1.1567 -1.07043 0
M  V30 7766 C 755.071 -0.944089 -1.81291 0
M  V30 7767 C 755.435 0.519305 -1.84844 0
M  V30 7768 O 756.636 0.850357 -2.54995 0
M  V30 7769 C 754.907 -1.54528 -3.22267 0
M  V30 7770 S 756.466 -1.47623 -4.13223 0
M  V30 7771 H 753.284 -0.339696 -0.624602 0
M  V30 7772 H 755.886 -1.47277 -1.28568 0
M  V30 7773 H 754.59 -2.60321 -3.17271 0
M  V30 7774 H 754.121 -1.0156 -3.80065 0
M  V30 7775 H 756.136 -0.471261 -4.93957 0
M  V30 7776 N 755.309 1.25446 -0.953992 0
M  V30 7777 C 756.219 2.29632 -0.480264 0
M  V30 7778 C 757.235 1.68025 0.452071 0
M  V30 7779 O 758.411 1.98703 0.328472 0
M  V30 7780 C 755.476 3.45903 0.234974 0
M  V30 7781 C 754.537 4.22953 -0.735495 0
M  V30 7782 C 753.77 5.33672 -0.0542957 0
M  V30 7783 O 753.993 5.58477 1.16018 0
M  V30 7784 O 752.927 5.9734 -0.739509 0
M  V30 7785 H 756.753 2.72242 -1.34602 0
M  V30 7786 H 754.338 1.30883 -0.720419 0
M  V30 7787 H 756.22 4.16552 0.637341 0
M  V30 7788 H 754.895 3.05296 1.07592 0
M  V30 7789 H 753.802 3.54734 -1.18806 0
M  V30 7790 H 755.135 4.67341 -1.54444 0
M  V30 7791 N 756.787 0.722489 1.40064 0
M  V30 7792 C 758.027 0.269491 2.02616 0
M  V30 7793 C 758.391 -1.11835 1.56067 0
M  V30 7794 O 759.592 -1.66873 2.1073 0
M  V30 7795 C 757.863 0.354066 3.55642 0
M  V30 7796 S 759.422 -0.0209309 4.38795 0
M  V30 7797 H 756.24 0.106412 0.702992 0
M  V30 7798 H 758.842 0.946237 1.71075 0
M  V30 7799 H 757.546 1.36565 3.87012 0
M  V30 7800 H 757.077 -0.340925 3.9192 0
M  V30 7801 H 759.092 -1.24093 4.80432 0
M  V30 7802 N 758.265 -1.50454 0.469181 0
M  V30 7803 C 759.49 -2.0722 -0.0864892 0
M  V30 7804 C 759.915 -1.33098 -1.32916 0
M  V30 7805 O 759.273 -0.378084 -1.77314 0
M  V30 7806 C 759.321 -3.58845 -0.355384 0
M  V30 7807 O 758.425 -3.86583 -1.43622 0
M  V30 7808 H 757.766 -0.663889 0.0121414 0
M  V30 7809 H 760.296 -1.93674 0.659674 0
M  V30 7810 H 760.306 -4.03617 -0.596447 0
M  V30 7811 H 758.981 -4.12211 0.552698 0
M  V30 7812 H 757.558 -3.5365 -1.18262 0
M  V30 7813 N 759.743 -0.201713 -1.56304 0
M  V30 7814 C 760.989 0.435952 -1.98059 0
M  V30 7815 C 761.322 1.60811 -1.08873 0
M  V30 7816 O 760.597 1.9398 -0.142128 0
M  V30 7817 C 760.88 0.889706 -3.48936 0
M  V30 7818 C 760.733 -0.284725 -4.48898 0
M  V30 7819 C 762.052 1.7529 -4.03685 0
M  V30 7820 H 759.171 0.15699 -0.720085 0
M  V30 7821 H 761.813 -0.293965 -1.87712 0
M  V30 7822 H 759.963 1.51166 -3.57884 0
M  V30 7823 H 761.635 -0.922531 -4.51981 0
M  V30 7824 H 759.878 -0.935427 -4.23594 0
M  V30 7825 H 760.549 0.0753865 -5.51949 0
M  V30 7826 H 763.025 1.2283 -3.97558 0
M  V30 7827 H 761.901 2.03933 -5.0961 0
M  V30 7828 H 762.162 2.70939 -3.49348 0
M  V30 7829 N 761.222 1.57436 0.0718424 0
M  V30 7830 C 762.185 2.02703 1.06977 0
M  V30 7831 C 763.185 0.924062 1.31597 0
M  V30 7832 O 764.375 1.18894 1.27318 0
M  V30 7833 C 761.507 2.40763 2.41342 0
M  V30 7834 H 762.7 2.92098 0.679619 0
M  V30 7835 H 760.253 1.5304 0.317565 0
M  V30 7836 H 760.988 1.54394 2.8519 0
M  V30 7837 H 760.773 3.21249 2.24814 0
M  V30 7838 H 762.263 2.76361 3.13073 0
M  V30 7839 N 762.7 -0.34323 1.53817 0
M  V30 7840 C 763.61 -1.44493 1.84821 0
M  V30 7841 C 764.626 -1.57556 0.738381 0
M  V30 7842 O 765.802 -1.73026 1.03072 0
M  V30 7843 C 762.867 -2.79478 2.05166 0
M  V30 7844 C 761.928 -2.75756 3.29025 0
M  V30 7845 C 761.161 -4.04302 3.4839 0
M  V30 7846 O 761.384 -5.01595 2.71586 0
M  V30 7847 O 760.318 -4.08754 4.41819 0
M  V30 7848 H 764.144 -1.21209 2.78464 0
M  V30 7849 H 761.729 -0.535437 1.39476 0
M  V30 7850 H 763.611 -3.59419 2.19991 0
M  V30 7851 H 762.286 -3.02692 1.14713 0
M  V30 7852 H 761.193 -1.94434 3.19603 0
M  V30 7853 H 762.526 -2.57495 4.19472 0
M  V30 7854 N 764.178 -1.45556 -0.604258 0
M  V30 7855 C 765.108 -1.57327 -1.72541 0
M  V30 7856 C 766.089 -0.424637 -1.64714 0
M  V30 7857 O 767.274 -0.648196 -1.83063 0
M  V30 7858 C 764.404 -1.54279 -3.11152 0
M  V30 7859 C 763.358 -2.67893 -3.33792 0
M  V30 7860 C 762.684 -2.499 -4.72709 0
M  V30 7861 C 763.984 -4.0988 -3.23722 0
M  V30 7862 H 765.678 -2.51175 -1.62947 0
M  V30 7863 H 763.224 -1.20884 -0.782504 0
M  V30 7864 H 765.177 -1.6111 -3.89386 0
M  V30 7865 H 763.901 -0.569627 -3.21594 0
M  V30 7866 H 762.56 -2.60495 -2.57949 0
M  V30 7867 H 762.208 -1.50715 -4.79889 0
M  V30 7868 H 761.908 -3.26091 -4.88813 0
M  V30 7869 H 763.432 -2.5859 -5.5314 0
M  V30 7870 H 764.846 -4.18503 -3.91826 0
M  V30 7871 H 763.243 -4.86487 -3.51355 0
M  V30 7872 H 764.313 -4.31553 -2.21111 0
M  V30 7873 N 765.656 0.84705 -1.32902 0
M  V30 7874 C 766.881 1.63925 -1.27056 0
M  V30 7875 C 767.306 1.87443 0.157136 0
M  V30 7876 O 766.664 1.43266 1.11106 0
M  V30 7877 C 766.712 2.97134 -2.04313 0
M  V30 7878 O 765.816 3.88049 -1.39614 0
M  V30 7879 H 765.157 0.499477 -0.437514 0
M  V30 7880 H 767.687 1.05443 -1.75336 0
M  V30 7881 H 767.697 3.46896 -2.14772 0
M  V30 7882 H 766.372 2.79339 -3.08128 0
M  V30 7883 H 764.949 3.46525 -1.3775 0
M  V30 7884 N 767.134 1.16236 1.06428 0
M  V30 7885 C 768.359 0.967688 1.83441 0
M  V30 7886 C 768.784 -0.479167 1.81894 0
M  V30 7887 O 768.142 -1.34224 1.21875 0
M  V30 7888 C 768.19 1.49806 3.2801 0
M  V30 7889 O 767.294 0.703481 4.06356 0
M  V30 7890 H 766.635 0.344468 0.56766 0
M  V30 7891 H 769.165 1.54442 1.34197 0
M  V30 7892 H 769.175 1.51495 3.78831 0
M  V30 7893 H 767.85 2.55133 3.2845 0
M  V30 7894 H 766.427 0.756986 3.65136 0
M  V30 7895 N 768.612 -1.24939 0.960631 0
M  V30 7896 C 770.023 -1.74701 0.658529 0
M  V30 7897 C 770.374 -1.77967 -0.825959 0
M  V30 7898 O 769.499 -1.40444 -1.64634 0
M  V30 7899 C 770.094 -3.17263 1.18867 0
M  V30 7900 C 768.653 -3.64561 0.936614 0
M  V30 7901 C 767.8 -2.43423 1.32817 0
M  V30 7902 H 770.751 -1.10741 1.13676 0
M  V30 7903 H 770.772 -3.76481 0.551589 0
M  V30 7904 H 770.284 -3.14854 2.26912 0
M  V30 7905 H 768.385 -3.72378 -0.128608 0
M  V30 7906 H 768.498 -4.52392 1.57729 0
M  V30 7907 H 766.862 -2.43513 0.746548 0
M  V30 7908 H 767.645 -2.437 2.41796 0
M  V30 7909 N 770.09 -0.729906 -1.39679 0
M  V30 7910 C 771.367 -0.202149 -1.94553 0
M  V30 7911 C 771.747 1.29507 -1.66707 0
M  V30 7912 O 771.095 2.05819 -0.992517 0
M  V30 7913 C 771.305 -0.530279 -3.44948 0
M  V30 7914 C 772.653 -0.476808 -4.21914 0
M  V30 7915 O 773.677 -0.467171 -3.53123 0
M  V30 7916 O 772.536 -0.466869 -5.44502 0
M  V30 7917 H 769.63 -0.0351644 -0.826252 0
M  V30 7918 H 772.176 -0.808417 -1.49207 0
M  V30 7919 H 770.948 -1.56526 -3.5863 0
M  V30 7920 H 770.571 0.10522 -3.97461 0
M  V30 7921 N 771.568 1.50203 -0.477153 0
M  V30 7922 C 772.498 2.31517 0.303646 0
M  V30 7923 C 773.479 1.38696 0.984753 0
M  V30 7924 O 774.664 1.67615 0.980758 0
M  V30 7925 C 771.794 3.18598 1.38249 0
M  V30 7926 C 770.748 4.2002 0.822645 0
M  V30 7927 C 770.074 4.95878 2.00024 0
M  V30 7928 C 771.374 5.22023 -0.170185 0
M  V30 7929 H 773.068 2.97042 -0.375027 0
M  V30 7930 H 770.614 1.42848 -0.181802 0
M  V30 7931 H 772.567 3.74282 1.93625 0
M  V30 7932 H 771.291 2.5097 2.09002 0
M  V30 7933 H 769.95 3.65445 0.290813 0
M  V30 7934 H 769.598 4.24717 2.69489 0
M  V30 7935 H 769.298 5.64487 1.63183 0
M  V30 7936 H 770.822 5.54399 2.55878 0
M  V30 7937 H 772.236 5.72543 0.294606 0
M  V30 7938 H 770.633 5.98386 -0.453181 0
M  V30 7939 H 771.703 4.72396 -1.09408 0
M  V30 7940 N 773.046 0.209999 1.56195 0
M  V30 7941 C 773.956 -0.716459 2.23392 0
M  V30 7942 C 774.972 -1.22291 1.23778 0
M  V30 7943 O 776.148 -1.26694 1.56558 0
M  V30 7944 C 773.213 -1.91261 2.89172 0
M  V30 7945 C 772.274 -1.44927 4.04097 0
M  V30 7946 C 771.507 -2.5884 4.66731 0
M  V30 7947 O 771.73 -3.76693 4.2832 0
M  V30 7948 O 770.664 -2.30701 5.55932 0
M  V30 7949 H 774.49 -0.174089 3.03201 0
M  V30 7950 H 772.075 -0.0199505 1.49387 0
M  V30 7951 H 773.957 -2.6114 3.30733 0
M  V30 7952 H 772.632 -2.4433 2.12331 0
M  V30 7953 H 771.539 -0.718839 3.67129 0
M  V30 7954 H 772.872 -0.965084 4.82646 0
M  V30 7955 N 774.524 -1.57472 -0.0634922 0
M  V30 7956 C 775.749 -1.92273 -0.77756 0
M  V30 7957 C 776.174 -0.807141 -1.69902 0
M  V30 7958 O 775.532 0.239523 -1.79711 0
M  V30 7959 C 775.58 -3.26054 -1.54017 0
M  V30 7960 O 774.684 -3.15873 -2.65138 0
M  V30 7961 H 774.025 -0.629389 -0.211579 0
M  V30 7962 H 776.555 -2.04579 -0.0292523 0
M  V30 7963 H 776.565 -3.60127 -1.91763 0
M  V30 7964 H 775.24 -4.06824 -0.864128 0
M  V30 7965 H 773.817 -2.93373 -2.30189 0
M  V30 7966 N 776.003 0.335068 -1.53997 0
M  V30 7967 C 777.251 1.07223 -1.71312 0
M  V30 7968 C 777.572 1.88911 -0.483486 0
M  V30 7969 O 776.842 1.89344 0.50257 0
M  V30 7970 H 775.422 0.398846 -0.63161 0
M  V30 7971 H 778.084 0.374288 -1.91272 0
M  V30 7972 H 777.18 1.7448 -2.58772 0
M  V30 7973 N 777.481 1.45874 0.596531 0
M  V30 7974 C 778.721 1.52015 1.36641 0
M  V30 7975 C 779.085 0.16226 1.91313 0
M  V30 7976 O 780.286 0.0983889 2.6862 0
M  V30 7977 C 778.557 2.57776 2.4756 0
M  V30 7978 S 780.116 2.83223 3.35157 0
M  V30 7979 H 776.934 0.537251 0.465706 0
M  V30 7980 H 779.536 1.83024 0.687205 0
M  V30 7981 H 778.24 3.55091 2.05764 0
M  V30 7982 H 777.771 2.28455 3.20269 0
M  V30 7983 H 779.786 2.17442 4.4602 0
M  V30 7984 N 778.959 -0.83999 1.33349 0
M  V30 7985 C 780.375 -1.13049 1.12659 0
M  V30 7986 C 780.575 -2.01328 -0.0832613 0
M  V30 7987 O 779.631 -2.40669 -0.763856 0
M  V30 7988 C 780.944 -1.79366 2.41347 0
M  V30 7989 C 782.492 -1.91937 2.47243 0
M  V30 7990 C 782.967 -2.6167 3.75889 0
M  V30 7991 N 784.458 -2.69184 3.76954 0
M  V30 7992 C 785.193 -3.23827 4.73206 0
M  V30 7993 N 784.689 -3.79166 5.79832 0
M  V30 7994 N 786.482 -3.22068 4.60683 0
M  V30 7995 H 778.633 -0.252432 2.10895 0
M  V30 7996 H 780.896 -0.174501 0.931801 0
M  V30 7997 H 780.602 -1.2196 3.29877 0
M  V30 7998 H 780.476 -2.79396 2.53412 0
M  V30 7999 H 782.863 -2.48498 1.59163 0
M  V30 8000 H 782.944 -0.908604 2.39119 0
M  V30 8001 H 782.588 -2.05769 4.64351 0
M  V30 8002 H 782.518 -3.63217 3.81289 0
M  V30 8003 H 785.009 -2.2994 2.99893 0
M  V30 8004 H 785.322 -4.19061 6.49313 0
M  V30 8005 H 783.667 -3.77457 5.83568 0
M  V30 8006 H 786.858 -2.78092 3.7654 0
M  V30 8007 H 787.031 -3.64351 5.35866 0
M  V30 8008 N 780.437 -1.16799 -1.0581 0
M  V30 8009 C 781.4 -0.881396 -2.11575 0
M  V30 8010 C 782.4 0.12574 -1.60308 0
M  V30 8011 O 783.59 -0.105716 -1.73879 0
M  V30 8012 C 780.722 -0.319037 -3.39404 0
M  V30 8013 H 781.915 -1.81907 -2.38432 0
M  V30 8014 H 779.468 -0.977597 -1.21954 0
M  V30 8015 H 780.203 0.626082 -3.18199 0
M  V30 8016 H 779.988 -1.04481 -3.77923 0
M  V30 8017 H 781.478 -0.13663 -4.17376 0
M  V30 8018 N 781.915 1.24427 -0.967243 0
M  V30 8019 C 783.326 1.74349 -0.667785 0
M  V30 8020 C 783.677 1.78403 0.816509 0
M  V30 8021 O 782.802 1.41315 1.63887 0
M  V30 8022 C 783.397 3.16628 -1.20548 0
M  V30 8023 C 781.956 3.64059 -0.955934 0
M  V30 8024 C 781.103 2.42715 -1.34106 0
M  V30 8025 H 784.054 1.10136 -1.14262 0
M  V30 8026 H 784.075 3.76183 -0.571547 0
M  V30 8027 H 783.587 3.13646 -2.28578 0
M  V30 8028 H 781.688 3.72441 0.108858 0
M  V30 8029 H 781.801 4.51549 -1.60126 0
M  V30 8030 H 780.165 2.43114 -0.759452 0
M  V30 8031 H 780.948 2.42414 -2.43085 0
M  V30 8032 N 783.393 0.737304 1.3929 0
M  V30 8033 C 784.341 0.0879867 2.32434 0
M  V30 8034 C 785.335 -0.723324 1.53181 0
M  V30 8035 O 786.541 -0.624251 1.68829 0
M  V30 8036 H 782.916 0.00965277 0.751938 0
M  V30 8037 H 784.887 0.889915 2.84821 0
M  V30 8038 C 783.636 -0.803384 3.38291 0
M  V30 8039 H 782.959 -0.18849 3.99355 0
M  V30 8040 H 784.399 -1.22528 4.0591 0
M  V30 8041 C 782.858 -1.93872 2.75527 0
M  V30 8042 O 783.388 -3.03154 2.63553 0
M  V30 8043 N 781.594 -1.72883 2.3358 0
M  V30 8044 H 781.141 -0.840005 2.43519 0
M  V30 8045 H 781.099 -2.49021 1.91927 0
M  V30 8046 N 784.871 -1.49948 0.485112 0
M  V30 8047 C 786.119 -2.01996 -0.0648775 0
M  V30 8048 C 786.44 -1.36819 -1.38945 0
M  V30 8049 O 785.71 -0.518163 -1.88923 0
M  V30 8050 H 784.29 -0.746513 -0.0269662 0
M  V30 8051 H 786.952 -1.84136 0.638733 0
M  V30 8052 H 786.048 -3.11418 -0.20617 0
M  V30 8053 N 786.349 -0.21828 -1.56081 0
M  V30 8054 C 787.577 0.419258 -2.02608 0
M  V30 8055 C 787.992 1.53578 -1.09814 0
M  V30 8056 O 787.349 1.82185 -0.107149 0
M  V30 8057 C 787.4 0.953955 -3.48686 0
M  V30 8058 O 787.121 -0.11805 -4.37941 0
M  V30 8059 C 788.622 1.66506 -4.10841 0
M  V30 8060 H 785.842 0.10296 -0.663054 0
M  V30 8061 H 788.386 -0.333776 -2.01758 0
M  V30 8062 H 786.541 1.65727 -3.50162 0
M  V30 8063 H 786.955 0.283359 -5.23734 0
M  V30 8064 H 788.429 1.99123 -5.14834 0
M  V30 8065 H 788.906 2.57705 -3.55647 0
M  V30 8066 H 789.512 1.00703 -4.13206 0
M  V30 8067 N 787.827 1.57504 0.0551401 0
M  V30 8068 C 789.075 1.87684 0.74962 0
M  V30 8069 C 789.396 0.812547 1.77264 0
M  V30 8070 O 788.666 -0.15694 1.9527 0
M  V30 8071 H 787.246 0.6926 0.279846 0
M  V30 8072 H 789.908 1.94881 0.0272745 0
M  V30 8073 H 789.004 2.85734 1.25548 0
M  V30 8074 N 789.305 -0.326896 1.54172 0
M  V30 8075 C 790.716 -0.901533 1.63491 0
M  V30 8076 C 791.067 -1.88994 0.52684 0
M  V30 8077 O 790.192 -2.137 -0.340794 0
M  V30 8078 C 790.787 -1.64192 2.96355 0
M  V30 8079 C 789.346 -2.16533 3.07881 0
M  V30 8080 C 788.493 -0.98966 2.59039 0
M  V30 8081 H 791.444 -0.104568 1.58355 0
M  V30 8082 H 791.465 -2.50592 2.86328 0
M  V30 8083 H 790.977 -0.922291 3.76982 0
M  V30 8084 H 789.078 -2.91622 2.31922 0
M  V30 8085 H 789.191 -2.41762 4.13628 0
M  V30 8086 H 787.555 -1.36787 2.14852 0
M  V30 8087 H 788.338 -0.284401 3.4212 0
M  V30 8088 N 790.784 -1.46188 -0.588786 0
M  V30 8089 C 791.714 -1.59148 -1.70863 0
M  V30 8090 C 792.695 -0.442083 -1.64255 0
M  V30 8091 O 793.88 -0.667575 -1.82365 0
M  V30 8092 C 791.01 -1.5757 -3.09498 0
M  V30 8093 C 789.964 -2.71418 -3.30932 0
M  V30 8094 C 789.29 -2.549 -4.70032 0
M  V30 8095 C 790.59 -4.1329 -3.19356 0
M  V30 8096 H 792.284 -2.52889 -1.60274 0
M  V30 8097 H 789.83 -1.21707 -0.769638 0
M  V30 8098 H 791.783 -1.65231 -3.87655 0
M  V30 8099 H 790.507 -0.603705 -3.20972 0
M  V30 8100 H 789.166 -2.63216 -2.55172 0
M  V30 8101 H 788.814 -1.55797 -4.78264 0
M  V30 8102 H 788.514 -3.31257 -4.85327 0
M  V30 8103 H 790.038 -2.64443 -5.50366 0
M  V30 8104 H 791.452 -4.22636 -3.87365 0
M  V30 8105 H 789.849 -4.90187 -3.46175 0
M  V30 8106 H 790.919 -4.33874 -2.16522 0
M  V30 8107 N 792.262 0.832906 -1.33792 0
M  V30 8108 C 793.502 1.60217 -1.26925 0
M  V30 8109 C 793.866 1.91323 0.161146 0
M  V30 8110 O 795.067 2.66461 0.353864 0
M  V30 8111 C 793.338 2.87314 -2.12568 0
M  V30 8112 S 794.897 3.77939 -2.22952 0
M  V30 8113 H 791.715 0.549273 -0.451464 0
M  V30 8114 H 794.317 0.984648 -1.68893 0
M  V30 8115 H 793.021 2.62444 -3.15518 0
M  V30 8116 H 792.552 3.5407 -1.71459 0
M  V30 8117 H 794.567 4.76188 -1.39496 0
M  V30 8118 N 793.74 1.17359 1.05189 0
M  V30 8119 C 794.965 0.98709 1.82404 0
M  V30 8120 C 795.39 -0.459848 1.82392 0
M  V30 8121 O 794.748 -1.32924 1.23292 0
M  V30 8122 C 794.796 1.53276 3.26403 0
M  V30 8123 O 793.9 0.746541 4.05587 0
M  V30 8124 H 793.241 0.35047 0.563974 0
M  V30 8125 H 795.771 1.55856 1.32552 0
M  V30 8126 H 795.781 1.55504 3.77203 0
M  V30 8127 H 794.456 2.58603 3.25726 0
M  V30 8128 H 793.033 0.795671 3.64312 0
M  V30 8129 N 795.218 -1.23913 0.973828 0
M  V30 8130 C 796.466 -1.91771 0.637817 0
M  V30 8131 C 796.787 -1.76434 -0.830435 0
M  V30 8132 O 796.057 -1.13965 -1.59339 0
M  V30 8133 H 794.637 -0.709761 0.232912 0
M  V30 8134 H 797.299 -1.50677 1.23622 0
M  V30 8135 H 796.395 -2.99327 0.883731 0
M  V30 8136 N 796.696 -0.74468 -1.38897 0
M  V30 8137 C 797.643 -0.111064 -2.30533 0
M  V30 8138 C 798.613 0.719276 -1.49719 0
M  V30 8139 O 799.798 0.677244 -1.78376 0
M  V30 8140 C 796.938 0.78292 -3.36102 0
M  V30 8141 C 796.051 -0.0610817 -4.31957 0
M  V30 8142 C 795.186 0.835075 -5.24595 0
M  V30 8143 C 794.225 -0.0130974 -6.12099 0
M  V30 8144 N 793.362 0.839525 -6.97063 0
M  V30 8145 H 798.202 -0.898113 -2.84144 0
M  V30 8146 H 795.739 -0.454537 -1.39901 0
M  V30 8147 H 797.697 1.31578 -3.95908 0
M  V30 8148 H 796.327 1.53585 -2.83922 0
M  V30 8149 H 795.379 -0.711469 -3.73687 0
M  V30 8150 H 796.691 -0.716482 -4.93627 0
M  V30 8151 H 795.845 1.43542 -5.89475 0
M  V30 8152 H 794.584 1.52423 -4.63269 0
M  V30 8153 H 793.589 -0.626179 -5.46223 0
M  V30 8154 H 794.814 -0.699181 -6.75491 0
M  V30 8155 H 792.76 1.5138 -6.38295 0
M  V30 8156 H 792.677 0.240823 -7.55616 0
M  V30 8157 H 793.945 1.42513 -7.66362 0
M  V30 8158 N 798.174 1.49689 -0.493057 0
M  V30 8159 C 799.422 2.02027 0.0541642 0
M  V30 8160 C 799.743 1.37554 1.38217 0
M  V30 8161 O 799.013 0.528174 1.88646 0
M  V30 8162 H 797.593 0.746646 0.0230069 0
M  V30 8163 H 800.255 1.83795 -0.648489 0
M  V30 8164 H 799.351 3.11523 0.189652 0
M  V30 8165 N 799.652 0.226554 1.55963 0
M  V30 8166 C 800.602 -0.694986 2.1715 0
M  V30 8167 C 801.586 -1.15394 1.12129 0
M  V30 8168 O 802.778 -1.1071 1.38102 0
M  V30 8169 C 799.907 -1.9007 2.85882 0
M  V30 8170 C 798.993 -1.46119 3.98133 0
M  V30 8171 N 799.384 -0.734584 5.00437 0
M  V30 8172 C 797.682 -1.74809 4.10314 0
M  V30 8173 C 798.383 -0.509773 5.79462 0
M  V30 8174 N 797.359 -1.06796 5.33006 0
M  V30 8175 H 801.161 -0.131469 2.93606 0
M  V30 8176 H 798.675 0.0280165 1.62376 0
M  V30 8177 H 800.672 -2.57169 3.28131 0
M  V30 8178 H 799.332 -2.46864 2.10923 0
M  V30 8179 H 800.343 -0.386757 5.16454 0
M  V30 8180 H 797.02 -2.32887 3.46511 0
M  V30 8181 H 798.41 0.0688847 6.71865 0
M  V30 8182 N 801.13 -1.57531 -0.0467866 0
M  V30 8183 C 802.37 -1.90294 -0.746171 0
M  V30 8184 C 802.734 -0.823194 -1.73458 0
M  V30 8185 O 803.935 -1.03463 -2.48091 0
M  V30 8186 C 802.206 -3.28249 -1.41378 0
M  V30 8187 S 803.765 -3.82812 -2.14477 0
M  V30 8188 H 800.583 -0.666496 -0.247598 0
M  V30 8189 H 803.185 -1.955 -0.00135143 0
M  V30 8190 H 801.889 -4.04712 -0.680937 0
M  V30 8191 H 801.42 -3.26302 -2.19751 0
M  V30 8192 H 803.435 -3.60111 -3.41372 0
M  V30 8193 N 802.608 0.318715 -1.54344 0
M  V30 8194 C 803.54 1.41364 -1.80413 0
M  V30 8195 C 804.553 1.47627 -0.686294 0
M  V30 8196 O 805.742 1.50264 -0.963486 0
M  V30 8197 C 802.842 2.79867 -1.91123 0
M  V30 8198 C 802.015 2.96749 -3.21339 0
M  V30 8199 C 801.074 4.15642 -3.22689 0
M  V30 8200 O 800.1 4.08571 -3.96306 0
M  V30 8201 N 801.302 5.25416 -2.46817 0
M  V30 8202 H 804.067 1.19363 -2.74905 0
M  V30 8203 H 801.628 0.508722 -1.537 0
M  V30 8204 H 803.62 3.57619 -1.89448 0
M  V30 8205 H 802.19 2.94896 -1.03706 0
M  V30 8206 H 801.41 2.06257 -3.35934 0
M  V30 8207 H 802.698 3.04927 -4.07304 0
M  V30 8208 H 802.096 5.34037 -1.86605 0
M  V30 8209 H 800.653 6.01569 -2.50915 0
M  V30 8210 N 804.086 1.46499 0.581025 0
M  V30 8211 C 805.326 1.53456 1.35021 0
M  V30 8212 C 805.69 0.182542 1.9113 0
M  V30 8213 O 806.891 0.126874 2.685 0
M  V30 8214 C 805.162 2.60387 2.44812 0
M  V30 8215 S 806.721 2.86762 3.32134 0
M  V30 8216 H 803.539 0.54216 0.459982 0
M  V30 8217 H 806.141 1.83742 0.667754 0
M  V30 8218 H 804.845 3.57253 2.01986 0
M  V30 8219 H 804.376 2.31839 3.17828 0
M  V30 8220 H 806.391 2.2216 4.43688 0
M  V30 8221 N 805.565 -0.825799 1.34232 0
M  V30 8222 C 806.813 -1.57873 1.26177 0
M  V30 8223 C 807.134 -1.94267 -0.168904 0
M  V30 8224 O 806.404 -1.62045 -1.10084 0
M  V30 8225 H 804.984 -0.585388 0.464037 0
M  V30 8226 H 807.646 -0.986163 1.6811 0
M  V30 8227 H 806.742 -2.50283 1.86453 0
M  V30 8228 N 807.043 -1.17915 -1.04565 0
M  V30 8229 C 808.459 -0.927761 -1.29864 0
M  V30 8230 C 808.659 0.409536 -1.97294 0
M  V30 8231 O 807.715 1.14505 -2.25044 0
M  V30 8232 C 809.028 -2.08967 -2.16225 0
M  V30 8233 C 810.576 -2.12741 -2.29587 0
M  V30 8234 C 811.051 -3.28335 -3.19312 0
M  V30 8235 N 812.542 -3.28164 -3.26898 0
M  V30 8236 C 813.277 -4.14249 -3.96466 0
M  V30 8237 N 812.773 -5.10457 -4.68407 0
M  V30 8238 N 814.566 -4.02179 -3.92694 0
M  V30 8239 H 806.717 -2.03983 -0.592011 0
M  V30 8240 H 808.98 -0.891023 -0.323701 0
M  V30 8241 H 808.686 -3.05654 -1.73979 0
M  V30 8242 H 808.56 -2.04606 -3.16885 0
M  V30 8243 H 810.947 -1.16636 -2.71072 0
M  V30 8244 H 811.028 -2.21162 -1.28535 0
M  V30 8245 H 810.672 -4.2471 -2.78539 0
M  V30 8246 H 810.602 -3.17151 -4.20384 0
M  V30 8247 H 813.093 -2.58511 -2.75646 0
M  V30 8248 H 813.406 -5.72526 -5.1907 0
M  V30 8249 H 811.751 -5.14422 -4.67328 0
M  V30 8250 H 814.942 -3.26308 -3.3562 0
M  V30 8251 H 815.115 -4.69486 -4.4664 0
M  V30 8252 N 808.521 1.23394 -0.980386 0
M  V30 8253 C 809.761 1.93543 -0.657288 0
M  V30 8254 C 810.125 1.74791 0.794477 0
M  V30 8255 O 811.326 2.39089 1.2284 0
M  V30 8256 C 809.597 3.42025 -1.03701 0
M  V30 8257 S 811.156 4.30871 -0.830379 0
M  V30 8258 H 807.974 0.669012 -0.240717 0
M  V30 8259 H 810.576 1.49478 -1.26002 0
M  V30 8260 H 809.28 3.53183 -2.09022 0
M  V30 8261 H 808.811 3.91091 -0.425559 0
M  V30 8262 H 810.826 4.95377 0.285719 0
M  V30 8263 N 809.999 0.752036 1.385 0
M  V30 8264 C 811.224 0.316993 2.04963 0
M  V30 8265 C 811.649 -1.04582 1.56346 0
M  V30 8266 O 811.007 -1.66616 0.714755 0
M  V30 8267 C 811.055 0.347235 3.58924 0
M  V30 8268 O 810.159 -0.659296 4.07096 0
M  V30 8269 H 809.5 0.140652 0.648932 0
M  V30 8270 H 812.03 1.02272 1.77205 0
M  V30 8271 H 812.04 0.19757 4.07521 0
M  V30 8272 H 810.715 1.34157 3.93668 0
M  V30 8273 H 809.292 -0.474371 3.6987 0
M  V30 8274 N 811.477 -1.49425 0.500989 0
M  V30 8275 C 812.717 -2.04357 -0.0419004 0
M  V30 8276 C 813.081 -1.37236 -1.34277 0
M  V30 8277 O 814.282 -1.82889 -1.9699 0
M  V30 8278 C 812.553 -3.56889 -0.19112 0
M  V30 8279 S 814.112 -4.33369 -0.688259 0
M  V30 8280 H 810.93 -0.710998 -0.00177796 0
M  V30 8281 H 813.532 -1.83479 0.674953 0
M  V30 8282 H 812.236 -4.03283 0.760964 0
M  V30 8283 H 811.767 -3.82171 -0.933214 0
M  V30 8284 H 813.782 -4.55961 -1.9574 0
M  V30 8285 N 812.955 -0.234822 -1.55841 0
M  V30 8286 C 814.18 0.400741 -2.03492 0
M  V30 8287 C 814.605 1.51618 -1.11327 0
M  V30 8288 O 813.963 1.81002 -0.103922 0
M  V30 8289 C 814.011 0.897184 -3.49261 0
M  V30 8290 O 813.115 2.00764 -3.60233 0
M  V30 8291 H 812.456 0.0890023 -0.658008 0
M  V30 8292 H 814.986 -0.357345 -2.01455 0
M  V30 8293 H 814.996 1.20356 -3.89844 0
M  V30 8294 H 813.671 0.0808639 -4.15821 0
M  V30 8295 H 812.248 1.70689 -3.31541 0
M  V30 8296 N 814.433 1.57553 0.0384317 0
M  V30 8297 C 815.681 1.88468 0.729672 0
M  V30 8298 C 816.002 0.831302 1.76393 0
M  V30 8299 O 815.272 -0.13622 1.95426 0
M  V30 8300 H 813.852 0.695529 0.272485 0
M  V30 8301 H 816.514 1.94899 0.0066032 0
M  V30 8302 H 815.61 2.8705 1.22511 0
M  V30 8303 N 815.911 -0.310526 1.54511 0
M  V30 8304 C 816.843 -1.40405 1.8116 0
M  V30 8305 C 817.856 -1.47261 0.694114 0
M  V30 8306 O 819.045 -1.49751 0.971441 0
M  V30 8307 C 816.145 -2.78849 1.92604 0
M  V30 8308 C 815.318 -2.95041 3.22908 0
M  V30 8309 C 814.377 -4.13925 3.24889 0
M  V30 8310 O 813.403 -4.06463 3.98467 0
M  V30 8311 N 814.605 -5.24099 2.496 0
M  V30 8312 H 817.37 -1.17903 2.75534 0
M  V30 8313 H 814.931 -0.500564 1.53967 0
M  V30 8314 H 816.923 -3.5661 1.91342 0
M  V30 8315 H 815.493 -2.94342 1.05268 0
M  V30 8316 H 814.713 -2.04472 3.37023 0
M  V30 8317 H 816.001 -3.02763 4.08916 0
M  V30 8318 H 815.399 -5.33039 1.89435 0
M  V30 8319 H 813.956 -6.0023 2.54102 0
M  V30 8320 N 817.389 -1.46805 -0.573248 0
M  V30 8321 C 818.614 -1.56433 -1.36175 0
M  V30 8322 C 819.039 -0.209336 -1.86932 0
M  V30 8323 O 818.397 0.812146 -1.62092 0
M  V30 8324 C 818.445 -2.58055 -2.51873 0
M  V30 8325 O 817.549 -2.12214 -3.53609 0
M  V30 8326 H 816.89 -0.526068 -0.405153 0
M  V30 8327 H 819.42 -1.92456 -0.694405 0
M  V30 8328 H 819.43 -2.77966 -2.98662 0
M  V30 8329 H 818.105 -3.56448 -2.14284 0
M  V30 8330 H 816.682 -2.02333 -3.13234 0
M  V30 8331 N 818.867 0.818669 -1.34668 0
M  V30 8332 C 820.092 1.61193 -1.30505 0
M  V30 8333 C 820.517 1.87734 0.117341 0
M  V30 8334 O 819.875 1.45591 1.08042 0
M  V30 8335 C 819.923 2.92733 -2.1057 0
M  V30 8336 O 819.027 3.85 -1.47813 0
M  V30 8337 H 818.368 0.490085 -0.44801 0
M  V30 8338 H 820.898 1.01701 -1.77534 0
M  V30 8339 H 820.908 3.42262 -2.22082 0
M  V30 8340 H 819.583 2.7274 -3.13984 0
M  V30 8341 H 818.16 3.43525 -1.45069 0
M  V30 8342 N 820.346 1.18468 1.03938 0
M  V30 8343 C 821.594 0.978895 1.76811 0
M  V30 8344 C 821.915 -0.49257 1.88676 0
M  V30 8345 O 821.185 -1.3572 1.41269 0
M  V30 8346 H 819.765 0.359201 0.654968 0
M  V30 8347 H 822.427 1.49173 1.25433 0
M  V30 8348 H 821.523 1.418 2.78027 0
M  V30 8349 N 821.824 -1.22873 0.986916 0
M  V30 8350 C 822.774 -2.2237 0.503547 0
M  V30 8351 C 823.758 -1.55186 -0.424998 0
M  V30 8352 O 824.95 -1.75186 -0.252791 0
M  V30 8353 C 822.079 -3.42794 -0.186355 0
M  V30 8354 C 821.165 -4.17196 0.762143 0
M  V30 8355 N 821.556 -4.68453 1.9075 0
M  V30 8356 C 819.854 -4.42255 0.576797 0
M  V30 8357 C 820.555 -5.25126 2.50235 0
M  V30 8358 N 819.531 -5.13437 1.7856 0
M  V30 8359 H 823.333 -2.59636 1.37718 0
M  V30 8360 H 820.847 -1.38476 0.848415 0
M  V30 8361 H 822.844 -4.13256 -0.549993 0
M  V30 8362 H 821.504 -3.07042 -1.05619 0
M  V30 8363 H 822.515 -4.64595 2.28848 0
M  V30 8364 H 819.192 -4.16766 -0.247474 0
M  V30 8365 H 820.582 -5.75363 3.46997 0
M  V30 8366 N 823.302 -0.75937 -1.38099 0
M  V30 8367 C 824.232 -0.151077 -2.33011 0
M  V30 8368 C 825.213 0.697099 -1.5516 0
M  V30 8369 O 826.398 0.637101 -1.83452 0
M  V30 8370 C 823.528 0.738423 -3.39359 0
M  V30 8371 C 822.482 -0.0074741 -4.27999 0
M  V30 8372 C 821.808 1.00066 -5.25253 0
M  V30 8373 C 823.108 -1.17926 -5.08813 0
M  V30 8374 H 824.802 -0.943933 -2.84131 0
M  V30 8375 H 822.348 -0.455362 -1.36611 0
M  V30 8376 H 824.301 1.17369 -4.04725 0
M  V30 8377 H 823.025 1.56366 -2.86735 0
M  V30 8378 H 821.684 -0.423379 -3.64147 0
M  V30 8379 H 821.332 1.82012 -4.68914 0
M  V30 8380 H 821.032 0.506199 -5.85416 0
M  V30 8381 H 822.556 1.43512 -5.93495 0
M  V30 8382 H 823.97 -0.821262 -5.67387 0
M  V30 8383 H 822.367 -1.60497 -5.78239 0
M  V30 8384 H 823.437 -1.98938 -4.42212 0
M  V30 8385 N 824.78 1.49157 -0.508906 0
M  V30 8386 C 826.02 2.04376 0.0310623 0
M  V30 8387 C 826.384 1.37946 1.33547 0
M  V30 8388 O 827.585 1.83931 1.96017 0
M  V30 8389 C 825.856 3.56985 0.172191 0
M  V30 8390 S 827.415 4.33728 0.665267 0
M  V30 8391 H 824.233 0.710997 -0.00199266 0
M  V30 8392 H 826.835 1.83119 -0.684674 0
M  V30 8393 H 825.539 4.02874 -0.78234 0
M  V30 8394 H 825.07 3.82661 0.912933 0
M  V30 8395 H 827.085 4.56992 1.9332 0
M  V30 8396 N 826.258 0.243083 1.55714 0
M  V30 8397 C 827.168 -0.668913 2.24862 0
M  V30 8398 C 828.184 -1.19638 1.26344 0
M  V30 8399 O 829.36 -1.23345 1.5921 0
M  V30 8400 C 826.425 -1.85084 2.93163 0
M  V30 8401 C 825.486 -1.36323 4.07081 0
M  V30 8402 C 824.719 -2.48882 4.72116 0
M  V30 8403 O 824.942 -3.67523 4.36214 0
M  V30 8404 O 823.876 -2.18857 5.60701 0
M  V30 8405 H 827.702 -0.109737 3.03502 0
M  V30 8406 H 825.287 0.0117411 1.49395 0
M  V30 8407 H 827.169 -2.54065 3.36197 0
M  V30 8408 H 825.844 -2.39771 2.17466 0
M  V30 8409 H 824.751 -0.640804 3.68571 0
M  V30 8410 H 826.084 -0.86249 4.84584 0
M  V30 8411 N 827.736 -1.57571 -0.0300757 0
M  V30 8412 C 828.976 -1.91074 -0.725946 0
M  V30 8413 C 829.34 -0.841545 -1.72575 0
M  V30 8414 O 830.541 -1.06088 -2.46979 0
M  V30 8415 C 828.812 -3.2973 -1.37888 0
M  V30 8416 S 830.371 -3.85065 -2.10405 0
M  V30 8417 H 827.189 -0.669084 -0.240515 0
M  V30 8418 H 829.791 -1.9549 0.019384 0
M  V30 8419 H 828.495 -4.05411 -0.637974 0
M  V30 8420 H 828.026 -3.28614 -2.16278 0
M  V30 8421 H 830.041 -3.63711 -3.37533 0
M  V30 8422 N 829.214 0.302327 -1.54673 0
M  V30 8423 C 830.491 1.05721 -1.64567 0
M  V30 8424 C 830.871 2.0526 -0.493108 0
M  V30 8425 O 830.219 2.22729 0.510315 0
M  V30 8426 C 830.429 1.74025 -3.02517 0
M  V30 8427 C 831.777 2.26271 -3.59286 0
M  V30 8428 O 832.801 1.8406 -3.0496 0
M  V30 8429 O 831.66 3.0361 -4.54404 0
M  V30 8430 H 828.754 0.488577 -0.667249 0
M  V30 8431 H 831.3 0.300521 -1.67018 0
M  V30 8432 H 830.072 1.0174 -3.77842 0
M  V30 8433 H 829.695 2.56454 -3.03838 0
M  V30 8434 N 830.692 1.47107 0.565454 0
M  V30 8435 C 831.969 1.43787 1.32607 0
M  V30 8436 C 832.349 0.130428 2.10697 0
M  V30 8437 O 831.697 -0.888086 2.10536 0
M  V30 8438 C 831.907 2.67833 2.23755 0
M  V30 8439 C 833.255 3.14704 2.85037 0
M  V30 8440 O 834.279 2.68503 2.34061 0
M  V30 8441 O 833.138 3.95002 3.77671 0
M  V30 8442 H 830.232 0.572623 0.596684 0
M  V30 8443 H 832.778 1.59296 0.58504 0
M  V30 8444 H 831.55 3.54532 1.65597 0
M  V30 8445 H 831.173 2.54869 3.05168 0
M  V30 8446 N 832.17 -0.811516 1.35101 0
M  V30 8447 C 833.133 -1.90467 1.27495 0
M  V30 8448 C 834.133 -1.59703 0.187516 0
M  V30 8449 O 835.323 -1.68528 0.440896 0
M  V30 8450 C 832.455 -3.26774 0.971154 0
M  V30 8451 H 833.648 -1.98631 2.2469 0
M  V30 8452 H 831.201 -1.00681 1.19553 0
M  V30 8453 H 831.936 -3.243 0.0028557 0
M  V30 8454 H 831.721 -3.50488 1.75785 0
M  V30 8455 H 833.211 -4.06804 0.943414 0
M  V30 8456 N 833.648 -1.19017 -1.03309 0
M  V30 8457 C 834.873 -1.01598 -1.80811 0
M  V30 8458 C 835.298 0.430773 -1.83101 0
M  V30 8459 O 834.656 1.30946 -1.25391 0
M  V30 8460 C 834.704 -1.5845 -3.23923 0
M  V30 8461 O 833.808 -0.810972 -4.04348 0
M  V30 8462 H 833.149 -0.359398 -0.558327 0
M  V30 8463 H 835.679 -1.57945 -1.30055 0
M  V30 8464 H 835.689 -1.61486 -3.74682 0
M  V30 8465 H 834.364 -2.63752 -3.21571 0
M  V30 8466 H 832.941 -0.85353 -3.63 0
M  V30 8467 N 835.127 1.22348 -0.993418 0
M  V30 8468 C 836.367 1.92835 -0.677779 0
M  V30 8469 C 836.731 1.75624 0.775893 0
M  V30 8470 O 837.932 2.40379 1.20297 0
M  V30 8471 C 836.203 3.40906 -1.07322 0
M  V30 8472 S 837.762 4.29966 -0.876032 0
M  V30 8473 H 834.58 0.666421 -0.247799 0
M  V30 8474 H 837.182 1.48133 -1.27581 0
M  V30 8475 H 835.886 3.50946 -2.12756 0
M  V30 8476 H 835.417 3.90618 -0.467015 0
M  V30 8477 H 837.432 4.95652 0.233162 0
M  V30 8478 N 836.605 0.766683 1.37694 0
M  V30 8479 C 837.515 0.150158 2.34119 0
M  V30 8480 C 838.531 -0.685513 1.59927 0
M  V30 8481 O 839.707 -0.606616 1.92047 0
M  V30 8482 C 836.772 -0.722562 3.39087 0
M  V30 8483 C 835.833 0.128983 4.29106 0
M  V30 8484 C 835.066 -0.702178 5.29061 0
M  V30 8485 O 835.289 -1.93954 5.36412 0
M  V30 8486 O 834.223 -0.114056 6.01792 0
M  V30 8487 H 838.049 0.946829 2.88563 0
M  V30 8488 H 835.634 0.527765 1.39768 0
M  V30 8489 H 837.516 -1.22095 4.03325 0
M  V30 8490 H 836.191 -1.49751 2.86978 0
M  V30 8491 H 835.098 0.673612 3.67985 0
M  V30 8492 H 836.431 0.866892 4.84506 0
M  V30 8493 N 838.083 -1.48885 0.516809 0
M  V30 8494 C 839.499 -1.58651 0.173788 0
M  V30 8495 C 839.699 -1.52033 -1.32243 0
M  V30 8496 O 838.755 -1.40251 -2.09967 0
M  V30 8497 C 840.068 -2.90816 0.764628 0
M  V30 8498 C 841.616 -3.04316 0.732164 0
M  V30 8499 C 842.091 -4.39123 1.30135 0
M  V30 8500 N 843.582 -4.45656 1.26273 0
M  V30 8501 C 844.317 -5.48446 1.67317 0
M  V30 8502 N 843.813 -6.58258 2.16028 0
M  V30 8503 N 845.606 -5.39251 1.58635 0
M  V30 8504 H 837.757 -1.5143 1.48939 0
M  V30 8505 H 840.02 -0.718243 0.618733 0
M  V30 8506 H 839.726 -3.01275 1.81456 0
M  V30 8507 H 839.6 -3.76473 0.234113 0
M  V30 8508 H 841.987 -2.93478 -0.308975 0
M  V30 8509 H 842.068 -2.20303 1.3 0
M  V30 8510 H 841.712 -4.50714 2.34135 0
M  V30 8511 H 841.642 -5.21801 0.709305 0
M  V30 8512 H 844.133 -3.66879 0.906006 0
M  V30 8513 H 844.446 -7.32811 2.45374 0
M  V30 8514 H 842.791 -6.59257 2.20013 0
M  V30 8515 H 845.982 -4.52354 1.20387 0
M  V30 8516 H 846.155 -6.19229 1.90944 0
M  V30 8517 N 839.561 -0.251338 -1.55583 0
M  V30 8518 C 840.511 0.660351 -2.18228 0
M  V30 8519 C 841.495 1.13596 -1.13951 0
M  V30 8520 O 842.687 1.08499 -1.39846 0
M  V30 8521 C 839.816 1.85498 -2.88869 0
M  V30 8522 C 838.902 1.39767 -4.00407 0
M  V30 8523 N 839.293 0.654876 -5.01543 0
M  V30 8524 C 837.591 1.68259 -4.13044 0
M  V30 8525 C 838.292 0.417521 -5.802 0
M  V30 8526 N 837.268 0.983032 -5.34638 0
M  V30 8527 H 841.07 0.0847425 -2.93778 0
M  V30 8528 H 838.584 -0.0538456 -1.62311 0
M  V30 8529 H 840.581 2.51916 -3.3218 0
M  V30 8530 H 839.241 2.43477 -2.14823 0
M  V30 8531 H 840.252 0.304545 -5.17004 0
M  V30 8532 H 836.929 2.27344 -3.50172 0
M  V30 8533 H 838.319 -0.175764 -6.7167 0
M  V30 8534 N 841.039 1.57585 0.0217189 0
M  V30 8535 C 841.949 2.10444 1.03684 0
M  V30 8536 C 842.965 1.04472 1.39146 0
M  V30 8537 O 844.141 1.36249 1.48317 0
M  V30 8538 C 841.206 2.5794 2.31664 0
M  V30 8539 C 840.267 3.78425 2.02714 0
M  V30 8540 C 839.5 4.23646 3.24592 0
M  V30 8541 O 839.723 3.6834 4.35525 0
M  V30 8542 O 838.657 5.16013 3.09862 0
M  V30 8543 H 842.483 2.97354 0.617584 0
M  V30 8544 H 840.068 1.47473 0.239174 0
M  V30 8545 H 841.95 2.88785 3.06889 0
M  V30 8546 H 840.625 1.74138 2.7287 0
M  V30 8547 H 839.532 3.52587 1.25033 0
M  V30 8548 H 840.865 4.63234 1.66359 0
M  V30 8549 N 842.517 -0.29412 1.54831 0
M  V30 8550 C 843.765 -1.02643 1.74094 0
M  V30 8551 C 844.086 -1.87563 0.533402 0
M  V30 8552 O 843.356 -1.9061 -0.452192 0
M  V30 8553 H 841.936 -0.381959 0.641963 0
M  V30 8554 H 844.598 -0.323444 1.92197 0
M  V30 8555 H 843.694 -1.67558 2.63307 0
M  V30 8556 N 843.995 -1.47404 -0.557645 0
M  V30 8557 C 845.244 -1.53268 -1.31118 0
M  V30 8558 C 845.557 -0.199414 -1.94581 0
M  V30 8559 O 846.763 -0.136039 -2.71159 0
M  V30 8560 C 845.219 -2.70178 -2.37764 0
M  V30 8561 C 844.827 -4.10032 -1.80493 0
M  V30 8562 C 846.571 -2.85334 -3.14301 0
M  V30 8563 C 844.478 -5.18244 -2.84916 0
M  V30 8564 H 843.408 -0.570491 -0.493007 0
M  V30 8565 H 846.059 -1.73678 -0.592308 0
M  V30 8566 H 844.441 -2.43147 -3.12563 0
M  V30 8567 H 845.615 -4.46964 -1.12069 0
M  V30 8568 H 843.93 -3.99759 -1.16542 0
M  V30 8569 H 846.527 -3.63347 -3.92279 0
M  V30 8570 H 846.87 -1.93761 -3.68459 0
M  V30 8571 H 847.403 -3.12133 -2.46613 0
M  V30 8572 H 844.142 -6.11691 -2.35614 0
M  V30 8573 H 843.662 -4.85829 -3.51753 0
M  V30 8574 H 845.341 -5.45174 -3.48417 0
M  V30 8575 N 845.473 0.80434 -1.35529 0
M  V30 8576 C 846.403 1.93086 -1.31301 0
M  V30 8577 C 847.384 1.69068 -0.187044 0
M  V30 8578 O 848.569 1.90399 -0.382359 0
M  V30 8579 C 845.699 3.29867 -1.0865 0
M  V30 8580 C 844.653 3.68373 -2.17911 0
M  V30 8581 C 843.979 5.0334 -1.80423 0
M  V30 8582 C 845.279 3.78516 -3.59893 0
M  V30 8583 H 846.973 1.96882 -2.25561 0
M  V30 8584 H 844.519 0.945841 -1.08581 0
M  V30 8585 H 846.472 4.08281 -1.04331 0
M  V30 8586 H 845.196 3.2642 -0.108359 0
M  V30 8587 H 843.855 2.92247 -2.21331 0
M  V30 8588 H 843.503 4.96399 -0.812213 0
M  V30 8589 H 843.203 5.30074 -2.53565 0
M  V30 8590 H 844.727 5.84191 -1.77633 0
M  V30 8591 H 846.141 4.47155 -3.58783 0
M  V30 8592 H 844.538 4.16721 -4.31814 0
M  V30 8593 H 845.608 2.8001 -3.95882 0
M  V30 8594 N 846.951 1.19563 1.02676 0
M  V30 8595 C 848.191 1.01072 1.77662 0
M  V30 8596 C 848.555 -0.450344 1.86644 0
M  V30 8597 O 849.756 -0.755132 2.57975 0
M  V30 8598 C 848.027 1.66383 3.16309 0
M  V30 8599 S 849.586 1.62858 4.07459 0
M  V30 8600 H 846.404 0.362644 0.611564 0
M  V30 8601 H 849.006 1.51947 1.23014 0
M  V30 8602 H 847.71 2.71917 3.07391 0
M  V30 8603 H 847.241 1.15596 3.76033 0
M  V30 8604 H 849.256 0.654265 4.91868 0
M  V30 8605 N 848.429 -1.21819 0.999893 0
M  V30 8606 C 849.677 -1.90375 0.678351 0
M  V30 8607 C 849.998 -1.78155 -0.792824 0
M  V30 8608 O 849.268 -1.17319 -1.56885 0
M  V30 8609 H 847.848 -0.704661 0.247915 0
M  V30 8610 H 850.51 -1.48021 1.2679 0
M  V30 8611 H 849.606 -2.97385 0.947023 0
M  V30 8612 N 849.908 -0.773975 -1.37286 0
M  V30 8613 C 851.156 -0.338636 -1.99243 0
M  V30 8614 C 851.477 1.08919 -1.61746 0
M  V30 8615 O 850.747 1.74822 -0.88397 0
M  V30 8616 H 849.327 -0.12222 -0.736934 0
M  V30 8617 H 851.989 -0.992595 -1.67731 0
M  V30 8618 H 851.085 -0.418055 -3.09287 0
M  V30 8619 N 851.386 1.48609 -0.524698 0
M  V30 8620 C 852.633 2.02497 0.0113214 0
M  V30 8621 C 852.961 1.40229 1.34781 0
M  V30 8622 O 852.216 0.53557 1.88229 0
M  V30 8623 C 852.515 3.56906 0.187873 0
M  V30 8624 C 852.181 4.37932 -1.07359 0
M  V30 8625 C 850.843 4.59792 -1.41933 0
M  V30 8626 C 853.195 4.84902 -1.911 0
M  V30 8627 C 850.523 5.25868 -2.60154 0
M  V30 8628 C 852.875 5.52281 -3.08495 0
M  V30 8629 C 851.539 5.7238 -3.4342 0
M  V30 8630 H 850.809 0.740988 0.0041428 0
M  V30 8631 H 853.456 1.78651 -0.689652 0
M  V30 8632 H 851.761 3.79563 0.971572 0
M  V30 8633 H 853.458 3.96218 0.617443 0
M  V30 8634 H 850.048 4.21175 -0.794331 0
M  V30 8635 H 854.232 4.67821 -1.65701 0
M  V30 8636 H 849.488 5.39628 -2.87422 0
M  V30 8637 H 853.662 5.87645 -3.73692 0
M  V30 8638 H 851.289 6.23354 -4.35126 0
M  V30 8639 N 852.864 0.259585 1.55447 0
M  V30 8640 C 854.112 -0.360893 1.98852 0
M  V30 8641 C 854.433 -1.57535 1.14924 0
M  V30 8642 O 853.703 -1.94485 0.235025 0
M  V30 8643 H 852.283 -0.136332 0.734454 0
M  V30 8644 H 854.945 0.361319 1.91522 0
M  V30 8645 H 854.041 -0.661388 3.05012 0
M  V30 8646 N 854.342 -1.57594 -0.0133615 0
M  V30 8647 C 855.758 -1.5527 -0.369255 0
M  V30 8648 C 855.958 -0.987751 -1.7563 0
M  V30 8649 O 855.014 -0.615683 -2.44879 0
M  V30 8650 C 856.327 -2.99602 -0.25672 0
M  V30 8651 C 857.875 -3.11227 -0.332647 0
M  V30 8652 C 858.35 -4.57321 -0.249387 0
M  V30 8653 N 859.841 -4.62177 -0.3077 0
M  V30 8654 C 860.576 -5.72781 -0.26641 0
M  V30 8655 N 860.072 -6.92575 -0.176494 0
M  V30 8656 N 861.865 -5.61204 -0.317295 0
M  V30 8657 H 854.016 -1.92662 0.894154 0
M  V30 8658 H 856.279 -0.884352 0.341505 0
M  V30 8659 H 855.985 -3.44723 0.697072 0
M  V30 8660 H 855.859 -3.6246 -1.04415 0
M  V30 8661 H 858.246 -2.66045 -1.27688 0
M  V30 8662 H 858.327 -2.51171 0.484412 0
M  V30 8663 H 857.971 -5.03174 0.691242 0
M  V30 8664 H 857.901 -5.15306 -1.08476 0
M  V30 8665 H 860.392 -3.75994 -0.379069 0
M  V30 8666 H 860.705 -7.72653 -0.150518 0
M  V30 8667 H 859.05 -6.94854 -0.142314 0
M  V30 8668 H 862.241 -4.66509 -0.385643 0
M  V30 8669 H 862.414 -6.47388 -0.28165 0
M  V30 8670 N 855.82 0.285905 -1.54985 0
M  V30 8671 C 857.06 1.02699 -1.76726 0
M  V30 8672 C 857.424 1.83962 -0.549717 0
M  V30 8673 O 858.625 2.60943 -0.645142 0
M  V30 8674 C 856.896 1.89671 -3.02919 0
M  V30 8675 S 858.455 2.7022 -3.45726 0
M  V30 8676 H 855.273 0.346114 -0.621068 0
M  V30 8677 H 857.875 0.298764 -1.93204 0
M  V30 8678 H 856.579 1.28873 -3.89641 0
M  V30 8679 H 856.11 2.66836 -2.89071 0
M  V30 8680 H 858.125 3.92184 -3.03983 0
M  V30 8681 N 857.298 1.47698 0.54982 0
M  V30 8682 C 858.23 1.56806 1.67166 0
M  V30 8683 C 859.243 0.453709 1.5635 0
M  V30 8684 O 860.432 0.723663 1.63173 0
M  V30 8685 C 857.532 1.4632 3.05686 0
M  V30 8686 C 856.705 2.72452 3.42182 0
M  V30 8687 C 855.764 2.55698 4.59897 0
M  V30 8688 O 854.79 3.29534 4.64108 0
M  V30 8689 N 855.992 1.64009 5.56849 0
M  V30 8690 H 858.757 2.53545 1.59797 0
M  V30 8691 H 856.318 1.44171 0.736635 0
M  V30 8692 H 858.31 1.32835 3.82279 0
M  V30 8693 H 856.88 0.57634 3.07241 0
M  V30 8694 H 856.1 3.00644 2.54964 0
M  V30 8695 H 857.388 3.56172 3.63344 0
M  V30 8696 H 856.786 1.03186 5.5621 0
M  V30 8697 H 855.343 1.56473 6.3274 0
M  V30 8698 N 858.776 -0.797141 1.35954 0
M  V30 8699 C 860.016 -1.56795 1.31128 0
M  V30 8700 C 860.38 -1.91683 -0.110364 0
M  V30 8701 O 861.581 -2.67305 -0.283093 0
M  V30 8702 C 859.852 -2.81577 2.20111 0
M  V30 8703 S 861.411 -3.71895 2.32894 0
M  V30 8704 H 858.229 -0.53711 0.465869 0
M  V30 8705 H 860.831 -0.939522 1.71445 0
M  V30 8706 H 859.535 -2.53986 3.22365 0
M  V30 8707 H 859.066 -3.49399 1.80786 0
M  V30 8708 H 861.081 -4.72322 1.52073 0
M  V30 8709 N 860.254 -1.20106 -1.0204 0
M  V30 8710 C 861.502 -1.0069 -1.75231 0
M  V30 8711 C 861.823 0.462491 -1.89436 0
M  V30 8712 O 861.093 1.33455 -1.4341 0
M  V30 8713 H 859.673 -0.369576 -0.649171 0
M  V30 8714 H 862.335 -1.51149 -1.23044 0
M  V30 8715 H 861.431 -1.46205 -2.75736 0
M  V30 8716 N 861.732 1.21287 -1.00634 0
M  V30 8717 C 862.978 1.90671 -0.690822 0
M  V30 8718 C 863.311 1.77996 0.776592 0
M  V30 8719 O 862.586 1.15748 1.5631 0
M  V30 8720 C 862.869 3.42426 -1.11428 0
M  V30 8721 C 862.722 3.64086 -2.64124 0
M  V30 8722 C 864.041 4.34851 -0.677686 0
M  V30 8723 H 861.16 0.692419 -0.252439 0
M  V30 8724 H 863.802 1.42893 -1.25226 0
M  V30 8725 H 861.952 3.83249 -0.636586 0
M  V30 8726 H 863.624 3.32582 -3.19667 0
M  V30 8727 H 861.867 3.07906 -3.05576 0
M  V30 8728 H 862.538 4.7042 -2.88806 0
M  V30 8729 H 865.014 4.01619 -1.0882 0
M  V30 8730 H 863.89 5.39675 -1.00213 0
M  V30 8731 H 864.151 4.4009 0.421125 0
M  V30 8732 N 863.21 0.781244 1.36873 0
M  V30 8733 C 864.45 0.355185 2.0129 0
M  V30 8734 C 864.814 -1.05115 1.6067 0
M  V30 8735 O 866.015 -1.57785 2.17618 0
M  V30 8736 C 864.286 0.504587 3.5382 0
M  V30 8737 S 865.845 0.165196 4.38489 0
M  V30 8738 H 862.663 0.136133 0.697846 0
M  V30 8739 H 865.265 1.01794 1.66908 0
M  V30 8740 H 863.969 1.52857 3.80871 0
M  V30 8741 H 863.5 -0.174392 3.93013 0
M  V30 8742 H 865.515 -1.03605 4.85263 0
M  V30 8743 N 864.689 -1.48329 0.532571 0
M  V30 8744 C 865.639 -2.2664 -0.24868 0
M  V30 8745 C 866.623 -1.32861 -0.907563 0
M  V30 8746 O 867.815 -1.57382 -0.809942 0
M  V30 8747 C 864.944 -3.18004 -1.29339 0
M  V30 8748 C 864.03 -4.19256 -0.639166 0
M  V30 8749 N 864.421 -5.05043 0.276597 0
M  V30 8750 C 862.719 -4.36906 -0.896062 0
M  V30 8751 C 863.42 -5.78009 0.654261 0
M  V30 8752 N 862.396 -5.43598 0.0147447 0
M  V30 8753 H 866.198 -2.90344 0.455792 0
M  V30 8754 H 863.712 -1.58566 0.350778 0
M  V30 8755 H 865.709 -3.72767 -1.86682 0
M  V30 8756 H 864.369 -2.55855 -1.99921 0
M  V30 8757 H 865.38 -5.13813 0.649351 0
M  V30 8758 H 862.057 -3.85945 -1.59226 0
M  V30 8759 H 863.447 -6.57039 1.40532 0
M  V30 8760 N 866.167 -0.267825 -1.55308 0
M  V30 8761 C 867.407 0.352316 -2.01341 0
M  V30 8762 C 867.771 1.53593 -1.1521 0
M  V30 8763 O 868.972 2.22521 -1.50791 0
M  V30 8764 C 867.243 0.731857 -3.49827 0
M  V30 8765 S 868.802 1.33956 -4.17853 0
M  V30 8766 H 865.62 0.109927 -0.702451 0
M  V30 8767 H 868.222 -0.387955 -1.91612 0
M  V30 8768 H 866.926 -0.138561 -4.10166 0
M  V30 8769 H 866.457 1.50378 -3.63525 0
M  V30 8770 H 868.472 2.62831 -4.20874 0
M  V30 8771 N 867.645 1.57599 0.00500368 0
M  V30 8772 C 868.595 2.04585 1.00643 0
M  V30 8773 C 869.579 0.939622 1.30614 0
M  V30 8774 O 870.771 1.20342 1.29796 0
M  V30 8775 C 867.9 2.5486 2.30002 0
M  V30 8776 C 866.986 3.7235 2.03017 0
M  V30 8777 N 867.377 4.84218 1.46173 0
M  V30 8778 C 865.675 3.80185 2.33185 0
M  V30 8779 C 866.376 5.65688 1.35544 0
M  V30 8780 N 865.352 5.11536 1.83933 0
M  V30 8781 H 869.154 2.8849 0.561332 0
M  V30 8782 H 866.668 1.61026 0.210808 0
M  V30 8783 H 868.665 2.86794 3.0258 0
M  V30 8784 H 867.325 1.72372 2.75169 0
M  V30 8785 H 868.336 5.0517 1.1412 0
M  V30 8786 H 865.013 3.08543 2.81261 0
M  V30 8787 H 866.403 6.65588 0.918791 0
M  V30 8788 N 869.123 -0.277682 1.55134 0
M  V30 8789 C 870.086 -1.32635 1.86924 0
M  V30 8790 C 871.086 -1.42578 0.743507 0
M  V30 8791 O 872.276 -1.4181 1.01171 0
M  V30 8792 C 869.408 -2.70832 2.07034 0
M  V30 8793 H 870.601 -1.0568 2.80663 0
M  V30 8794 H 868.154 -0.515517 1.47554 0
M  V30 8795 H 868.889 -3.02974 1.15661 0
M  V30 8796 H 868.674 -2.65001 2.88993 0
M  V30 8797 H 870.164 -3.46611 2.32918 0
M  V30 8798 N 870.601 -1.47988 -0.541979 0
M  V30 8799 C 871.549 -1.62044 -1.66867 0
M  V30 8800 C 872.543 -0.487217 -1.62242 0
M  V30 8801 O 873.749 -0.66554 -1.67244 0
M  V30 8802 H 870.124 -0.51024 -0.552412 0
M  V30 8803 H 872.095 -2.56695 -1.52153 0
M  V30 8804 C 870.844 -1.66615 -3.0518 0
M  V30 8805 H 870.167 -2.5317 -3.09427 0
M  V30 8806 H 871.607 -1.80496 -3.83663 0
M  V30 8807 C 870.066 -0.402421 -3.34488 0
M  V30 8808 O 870.596 0.48992 -3.98701 0
M  V30 8809 N 868.802 -0.277778 -2.89269 0
M  V30 8810 H 868.349 -1.00488 -2.37192 0
M  V30 8811 H 868.307 0.566784 -3.09249 0
M  V30 8812 N 872.079 0.78992 -1.36375 0
M  V30 8813 C 873.495 1.0879 -1.16777 0
M  V30 8814 C 873.695 2.01498 0.00848236 0
M  V30 8815 O 872.751 2.43338 0.674007 0
M  V30 8816 C 874.064 1.70285 -2.47837 0
M  V30 8817 C 875.612 1.82629 -2.54196 0
M  V30 8818 C 876.087 2.47539 -3.85342 0
M  V30 8819 N 877.578 2.55008 -3.86685 0
M  V30 8820 C 878.313 3.06041 -4.84898 0
M  V30 8821 N 877.809 3.57385 -5.93505 0
M  V30 8822 N 879.602 3.04748 -4.72319 0
M  V30 8823 H 871.753 0.173985 -2.11686 0
M  V30 8824 H 874.016 0.139798 -0.937636 0
M  V30 8825 H 873.722 1.09633 -3.34176 0
M  V30 8826 H 873.596 2.69799 -2.63607 0
M  V30 8827 H 875.983 2.42419 -1.68276 0
M  V30 8828 H 876.064 0.81923 -2.42327 0
M  V30 8829 H 875.708 1.88393 -4.71668 0
M  V30 8830 H 875.638 3.48815 -3.94507 0
M  V30 8831 H 878.129 2.18651 -3.08221 0
M  V30 8832 H 878.442 3.94674 -6.64419 0
M  V30 8833 H 876.787 3.55538 -5.97175 0
M  V30 8834 H 879.978 2.63925 -3.86602 0
M  V30 8835 H 880.151 3.44212 -5.49019 0
M  V30 8836 N 873.557 1.20646 1.01402 0
M  V30 8837 C 874.785 1.04389 1.78635 0
M  V30 8838 C 875.2 -0.406771 1.84366 0
M  V30 8839 O 874.557 -1.28239 1.2985 0
M  V30 8840 C 874.608 1.62378 3.22979 0
M  V30 8841 O 874.329 3.01768 3.17597 0
M  V30 8842 C 875.83 1.5111 4.1675 0
M  V30 8843 H 873.05 0.367077 0.56169 0
M  V30 8844 H 875.594 1.59789 1.27624 0
M  V30 8845 H 873.749 1.11092 3.7113 0
M  V30 8846 H 874.163 3.29331 4.08217 0
M  V30 8847 H 875.637 1.96441 5.15863 0
M  V30 8848 H 876.114 0.464011 4.36742 0
M  V30 8849 H 876.72 2.01599 3.74483 0
M  V30 8850 N 875.035 -1.20752 1.01276 0
M  V30 8851 C 876.283 -1.89645 0.698505 0
M  V30 8852 C 876.604 -1.78986 -0.773883 0
M  V30 8853 O 875.874 -1.18977 -1.55632 0
M  V30 8854 H 874.454 -0.701992 0.255375 0
M  V30 8855 H 877.116 -1.46668 1.28353 0
M  V30 8856 H 876.212 -2.96364 0.978512 0
M  V30 8857 N 876.513 -0.788492 -1.36457 0
M  V30 8858 C 877.929 -0.470063 -1.52521 0
M  V30 8859 C 878.129 1.01176 -1.74258 0
M  V30 8860 O 877.185 1.79726 -1.77355 0
M  V30 8861 C 878.498 -1.2997 -2.71161 0
M  V30 8862 C 880.046 -1.2933 -2.85031 0
M  V30 8863 C 880.521 -2.10665 -4.06674 0
M  V30 8864 N 882.012 -2.08107 -4.13819 0
M  V30 8865 C 882.747 -2.6781 -5.07016 0
M  V30 8866 N 882.243 -3.36369 -6.05663 0
M  V30 8867 N 884.036 -2.57549 -4.99625 0
M  V30 8868 H 876.187 -1.7484 -1.20602 0
M  V30 8869 H 878.45 -0.743159 -0.588574 0
M  V30 8870 H 878.156 -2.35051 -2.61618 0
M  V30 8871 H 878.03 -0.940367 -3.6529 0
M  V30 8872 H 880.417 -0.250414 -2.94036 0
M  V30 8873 H 880.498 -1.69239 -1.91812 0
M  V30 8874 H 880.142 -3.14984 -3.98431 0
M  V30 8875 H 880.072 -1.68128 -4.9904 0
M  V30 8876 H 882.563 -1.58208 -3.43189 0
M  V30 8877 H 882.876 -3.79258 -6.73338 0
M  V30 8878 H 881.221 -3.40471 -6.05891 0
M  V30 8879 H 884.412 -2.0359 -4.21508 0
M  V30 8880 H 884.585 -3.0437 -5.72069 0
M  V30 8881 N 877.991 1.48044 -0.54043 0
M  V30 8882 C 878.954 2.28273 0.205966 0
M  V30 8883 C 879.954 1.35983 0.858209 0
M  V30 8884 O 881.144 1.58776 0.716651 0
M  V30 8885 C 878.276 3.15174 1.29917 0
M  V30 8886 H 879.469 2.95727 -0.498555 0
M  V30 8887 H 877.022 1.53457 -0.296745 0
M  V30 8888 H 877.757 2.52374 2.03661 0
M  V30 8889 H 877.542 3.83074 0.836475 0
M  V30 8890 H 879.032 3.75666 1.82387 0
M  V30 8891 N 879.47 0.276058 1.55163 0
M  V30 8892 C 880.71 -0.341634 2.01525 0
M  V30 8893 C 881.074 -1.52979 1.16023 0
M  V30 8894 O 882.275 -2.21718 1.51968 0
M  V30 8895 C 880.546 -0.713294 3.5021 0
M  V30 8896 S 882.105 -1.31739 4.18558 0
M  V30 8897 H 878.923 -0.1062 0.703024 0
M  V30 8898 H 881.525 0.398112 1.91404 0
M  V30 8899 H 880.229 0.160311 4.10087 0
M  V30 8900 H 879.76 -1.48448 3.64317 0
M  V30 8901 H 881.775 -2.60595 4.22261 0
M  V30 8902 N 880.948 -1.576 0.00335426 0
M  V30 8903 C 881.858 -2.12067 -1.00322 0
M  V30 8904 C 882.874 -1.06672 -1.37467 0
M  V30 8905 O 884.05 -1.38592 -1.46131 0
M  V30 8906 C 881.115 -2.61593 -2.27531 0
M  V30 8907 C 880.176 -3.81602 -1.96668 0
M  V30 8908 C 879.409 -4.28756 -3.17811 0
M  V30 8909 O 879.632 -3.75222 -4.2961 0
M  V30 8910 O 878.566 -5.20877 -3.01613 0
M  V30 8911 H 882.392 -2.98299 -0.570199 0
M  V30 8912 H 879.977 -1.47835 -0.215682 0
M  V30 8913 H 881.859 -2.93631 -3.02256 0
M  V30 8914 H 880.534 -1.78457 -2.70065 0
M  V30 8915 H 879.441 -3.54531 -1.19408 0
M  V30 8916 H 880.774 -4.65822 -1.58968 0
M  V30 8917 N 882.426 0.269451 -1.5528 0
M  V30 8918 C 883.666 1.00819 -1.77806 0
M  V30 8919 C 884.03 1.83369 -0.569198 0
M  V30 8920 O 885.231 2.60244 -0.672783 0
M  V30 8921 C 883.502 1.86447 -3.04913 0
M  V30 8922 S 885.061 2.66538 -3.48573 0
M  V30 8923 H 881.879 0.339508 -0.624704 0
M  V30 8924 H 884.481 0.278256 -1.9351 0
M  V30 8925 H 883.185 1.24733 -3.90986 0
M  V30 8926 H 882.716 2.63755 -2.91885 0
M  V30 8927 H 884.731 3.88938 -3.08126 0
M  V30 8928 N 883.904 1.48273 0.534124 0
M  V30 8929 C 885.129 1.59988 1.31979 0
M  V30 8930 C 885.554 0.258824 1.86311 0
M  V30 8931 O 884.912 -0.768885 1.64188 0
M  V30 8932 C 884.96 2.64642 2.44943 0
M  V30 8933 O 884.064 2.21515 3.47858 0
M  V30 8934 H 883.405 0.536625 0.391063 0
M  V30 8935 H 885.935 1.94229 0.643135 0
M  V30 8936 H 885.945 2.85786 2.91187 0
M  V30 8937 H 884.62 3.62004 2.04758 0
M  V30 8938 H 883.197 2.10567 3.0776 0
M  V30 8939 N 885.382 -0.782676 1.36792 0
M  V30 8940 C 886.63 -1.53778 1.31136 0
M  V30 8941 C 886.951 -1.94706 -0.107014 0
M  V30 8942 O 886.221 -1.65465 -1.04872 0
M  V30 8943 H 884.801 -0.570328 0.482426 0
M  V30 8944 H 887.463 -0.932181 1.71162 0
M  V30 8945 H 886.559 -2.44224 1.94321 0
M  V30 8946 N 886.86 -1.21182 -1.00761 0
M  V30 8947 C 888.137 -0.936297 -1.71735 0
M  V30 8948 C 888.517 0.552585 -2.03739 0
M  V30 8949 O 887.865 1.51672 -1.70903 0
M  V30 8950 C 888.075 -1.81867 -2.97868 0
M  V30 8951 C 889.423 -2.06594 -3.7095 0
M  V30 8952 O 890.447 -1.79194 -3.07844 0
M  V30 8953 O 889.306 -2.5292 -4.84452 0
M  V30 8954 H 886.4 -0.350867 -0.74888 0
M  V30 8955 H 888.946 -1.32098 -1.06527 0
M  V30 8956 H 887.718 -2.82643 -2.70607 0
M  V30 8957 H 887.341 -1.43463 -3.70815 0
M  V30 8958 N 888.338 1.20213 -1.01915 0
M  V30 8959 C 889.271 2.2181 -0.536243 0
M  V30 8960 C 890.249 1.57144 0.417689 0
M  V30 8961 O 891.433 1.85461 0.337088 0
M  V30 8962 C 888.56 3.37989 0.219303 0
M  V30 8963 C 887.606 4.2097 -0.684571 0
M  V30 8964 S 888.439 4.90216 -2.15519 0
M  V30 8965 C 889.595 6.09814 -1.40988 0
M  V30 8966 H 889.828 2.62429 -1.39709 0
M  V30 8967 H 887.361 1.30305 -0.828254 0
M  V30 8968 H 889.319 4.05335 0.649112 0
M  V30 8969 H 887.98 2.95825 1.05575 0
M  V30 8970 H 887.173 5.03897 -0.101833 0
M  V30 8971 H 886.775 3.58892 -1.05227 0
M  V30 8972 H 889.067 6.73964 -0.691243 0
M  V30 8973 H 890.01 6.72552 -2.21539 0
M  V30 8974 H 890.418 5.5709 -0.911645 0
M  V30 8975 N 889.816 0.795718 1.36037 0
M  V30 8976 C 891.093 0.294743 1.93367 0
M  V30 8977 C 891.473 -1.21406 1.72696 0
M  V30 8978 O 890.821 -2.00849 1.08959 0
M  V30 8979 C 891.031 0.694254 3.42025 0
M  V30 8980 C 892.379 0.677566 4.19159 0
M  V30 8981 O 893.403 0.635119 3.50492 0
M  V30 8982 O 892.262 0.726127 5.41655 0
M  V30 8983 H 889.356 0.0745459 0.823633 0
M  V30 8984 H 891.902 0.878685 1.4518 0
M  V30 8985 H 890.674 1.73458 3.50753 0
M  V30 8986 H 890.297 0.0845338 3.9751 0
M  V30 8987 N 891.294 -1.47756 0.548274 0
M  V30 8988 C 892.519 -2.07387 0.023475 0
M  V30 8989 C 892.944 -1.39956 -1.25674 0
M  V30 8990 O 892.302 -0.471543 -1.7506 0
M  V30 8991 C 892.35 -3.60224 -0.164669 0
M  V30 8992 O 891.454 -3.93653 -1.22928 0
M  V30 8993 H 890.795 -0.662312 0.0473156 0
M  V30 8994 H 893.325 -1.89905 0.761409 0
M  V30 8995 H 893.335 -4.06211 -0.38166 0
M  V30 8996 H 892.01 -4.08702 0.770425 0
M  V30 8997 H 890.587 -3.59422 -0.993495 0
M  V30 8998 N 892.772 -0.284283 -1.55015 0
M  V30 8999 C 894.012 0.330942 -2.01703 0
M  V30 9000 C 894.376 1.52362 -1.16832 0
M  V30 9001 O 895.577 2.20909 -1.53142 0
M  V30 9002 C 893.848 0.694712 -3.50583 0
M  V30 9003 S 895.407 1.29517 -4.1925 0
M  V30 9004 H 892.225 0.10247 -0.703577 0
M  V30 9005 H 894.827 -0.408257 -1.9119 0
M  V30 9006 H 893.531 -0.182056 -4.09996 0
M  V30 9007 H 893.062 1.46513 -3.65099 0
M  V30 9008 H 895.077 2.58352 -4.23638 0
M  V30 9009 N 894.251 1.57596 -0.0117121 0
M  V30 9010 C 895.5 1.9025 0.669921 0
M  V30 9011 C 895.813 0.887986 1.74282 0
M  V30 9012 O 897.019 1.10516 2.47989 0
M  V30 9013 C 895.475 3.37762 1.24277 0
M  V30 9014 C 895.083 4.47535 0.204076 0
M  V30 9015 C 896.827 3.79509 1.90192 0
M  V30 9016 C 894.734 5.86132 0.787577 0
M  V30 9017 H 893.664 0.709935 0.253984 0
M  V30 9018 H 896.315 1.8335 -0.0741718 0
M  V30 9019 H 894.697 3.39537 2.03791 0
M  V30 9020 H 895.871 4.57294 -0.56733 0
M  V30 9021 H 894.186 4.14881 -0.355305 0
M  V30 9022 H 896.783 4.80402 2.34773 0
M  V30 9023 H 897.126 3.13643 2.7374 0
M  V30 9024 H 897.659 3.80084 1.17394 0
M  V30 9025 H 894.398 6.55499 -0.00938418 0
M  V30 9026 H 893.918 5.80014 1.52787 0
M  V30 9027 H 895.597 6.34158 1.28265 0
M  V30 9028 N 895.729 -0.261212 1.5542 0
M  V30 9029 C 896.954 -1.01341 1.80955 0
M  V30 9030 C 897.379 -1.78711 0.586849 0
M  V30 9031 O 896.737 -1.75266 -0.463837 0
M  V30 9032 C 896.785 -1.93835 3.04073 0
M  V30 9033 O 895.889 -3.02791 2.79985 0
M  V30 9034 H 895.23 -0.289123 0.597749 0
M  V30 9035 H 897.76 -0.286543 2.02584 0
M  V30 9036 H 897.77 -2.3557 3.33123 0
M  V30 9037 H 896.445 -1.36936 3.9271 0
M  V30 9038 H 895.022 -2.65287 2.62063 0
M  V30 9039 N 897.207 -1.48554 -0.526253 0
M  V30 9040 C 898.618 -1.50256 -1.10815 0
M  V30 9041 C 898.969 -0.274445 -1.94271 0
M  V30 9042 O 898.094 0.618094 -2.07385 0
M  V30 9043 C 898.689 -2.72264 -2.01638 0
M  V30 9044 C 897.248 -2.76826 -2.55038 0
M  V30 9045 C 896.395 -2.43823 -1.32081 0
M  V30 9046 H 899.346 -1.55616 -0.31133 0
M  V30 9047 H 899.367 -2.50993 -2.85977 0
M  V30 9048 H 898.879 -3.61632 -1.4087 0
M  V30 9049 H 896.98 -1.91676 -3.19517 0
M  V30 9050 H 897.093 -3.78351 -2.93917 0
M  V30 9051 H 895.457 -1.95058 -1.63781 0
M  V30 9052 H 896.24 -3.35436 -0.730596 0
M  V30 9053 N 898.685 0.775411 -1.37205 0
M  V30 9054 C 899.595 1.91967 -1.34855 0
M  V30 9055 C 900.611 1.72214 -0.248656 0
M  V30 9056 O 901.787 1.95512 -0.483421 0
M  V30 9057 C 898.852 3.27038 -1.15096 0
M  V30 9058 C 897.913 3.5947 -2.34691 0
M  V30 9059 C 897.146 4.88097 -2.15865 0
M  V30 9060 O 897.369 5.58871 -1.14102 0
M  V30 9061 O 896.303 5.19507 -3.03967 0
M  V30 9062 H 900.129 1.969 -2.31223 0
M  V30 9063 H 897.714 0.917647 -1.17897 0
M  V30 9064 H 899.596 4.07837 -1.0605 0
M  V30 9065 H 898.271 3.22965 -0.217999 0
M  V30 9066 H 897.178 2.7892 -2.49308 0
M  V30 9067 H 898.511 3.68282 -3.26541 0
M  V30 9068 N 900.163 1.21714 1.00117 0
M  V30 9069 C 901.411 1.03465 1.73607 0
M  V30 9070 C 901.732 -0.432295 1.90148 0
M  V30 9071 O 901.002 -1.31157 1.45515 0
M  V30 9072 H 899.582 0.379857 0.643209 0
M  V30 9073 H 902.244 1.53088 1.20624 0
M  V30 9074 H 901.34 1.50574 2.73375 0
M  V30 9075 N 901.641 -1.19671 1.02551 0
M  V30 9076 C 902.889 -1.88894 0.71858 0
M  V30 9077 C 903.21 -1.79797 -0.754856 0
M  V30 9078 O 902.48 -1.20621 -1.54362 0
M  V30 9079 H 901.06 -0.699244 0.262806 0
M  V30 9080 H 903.722 -1.45298 1.29902 0
M  V30 9081 H 902.818 -2.95309 1.00989 0
M  V30 9082 N 903.119 -0.802921 -1.35613 0
M  V30 9083 C 904.049 -0.225131 -2.32412 0
M  V30 9084 C 905.03 0.647383 -1.57299 0
M  V30 9085 O 906.215 0.578414 -1.85386 0
M  V30 9086 C 903.345 0.630085 -3.41537 0
M  V30 9087 C 902.299 -0.143635 -4.27759 0
M  V30 9088 C 901.625 0.833046 -5.28171 0
M  V30 9089 C 902.925 -1.34054 -5.04804 0
M  V30 9090 H 904.619 -1.03385 -2.80984 0
M  V30 9091 H 902.165 -0.498593 -1.35093 0
M  V30 9092 H 904.118 1.04433 -4.08254 0
M  V30 9093 H 902.842 1.47165 -2.91565 0
M  V30 9094 H 901.501 -0.539015 -3.62616 0
M  V30 9095 H 901.149 1.67001 -4.74468 0
M  V30 9096 H 900.849 0.319697 -5.8673 0
M  V30 9097 H 902.373 1.24558 -5.97761 0
M  V30 9098 H 903.787 -1.00136 -5.64487 0
M  V30 9099 H 902.184 -1.78812 -5.72841 0
M  V30 9100 H 903.254 -2.12906 -4.35659 0
M  V30 9101 N 904.597 1.47463 -0.556102 0
M  V30 9102 C 905.837 2.04372 -0.0339743 0
M  V30 9103 C 906.201 1.42125 1.29091 0
M  V30 9104 O 907.402 1.90074 1.90066 0
M  V30 9105 C 905.673 3.57352 0.0585316 0
M  V30 9106 S 907.232 4.35625 0.526943 0
M  V30 9107 H 904.05 0.710574 -0.0246115 0
M  V30 9108 H 906.652 1.80848 -0.742585 0
M  V30 9109 H 905.356 4.00181 -0.910116 0
M  V30 9110 H 904.887 3.85371 0.790731 0
M  V30 9111 H 906.902 4.62911 1.78683 0
M  V30 9112 N 906.075 0.2925 1.54862 0
M  V30 9113 C 907.3 -0.32494 2.04839 0
M  V30 9114 C 907.725 -1.47381 1.16877 0
M  V30 9115 O 907.083 -1.80492 0.171028 0
M  V30 9116 C 907.131 -0.76694 3.5235 0
M  V30 9117 O 906.235 -1.87256 3.67436 0
M  V30 9118 H 905.576 -0.0645195 0.660858 0
M  V30 9119 H 908.106 0.431867 1.9999 0
M  V30 9120 H 908.116 -1.05804 3.94043 0
M  V30 9121 H 906.791 0.0735212 4.15835 0
M  V30 9122 H 905.368 -1.58266 3.37648 0
M  V30 9123 N 907.553 -1.57587 0.0200696 0
M  V30 9124 C 908.801 -1.91046 -0.65922 0
M  V30 9125 C 909.122 -0.896197 -1.73186 0
M  V30 9126 O 908.392 0.0635952 -1.95797 0
M  V30 9127 H 906.972 -0.705163 -0.246483 0
M  V30 9128 H 909.634 -1.94789 0.0657368 0
M  V30 9129 H 908.73 -2.91399 -1.11773 0
M  V30 9130 N 909.032 0.252966 -1.55557 0
M  V30 9131 C 909.982 1.31585 -1.86197 0
M  V30 9132 C 910.966 1.43773 -0.722357 0
M  V30 9133 O 912.158 1.47117 -0.984152 0
M  V30 9134 C 909.287 2.67245 -2.15487 0
M  V30 9135 C 908.373 2.59087 -3.3576 0
M  V30 9136 N 908.764 2.20556 -4.5518 0
M  V30 9137 C 907.062 2.90112 -3.3875 0
M  V30 9138 C 907.763 2.22881 -5.37307 0
M  V30 9139 N 906.739 2.62145 -4.76215 0
M  V30 9140 H 910.541 1.00835 -2.76061 0
M  V30 9141 H 908.055 0.461598 -1.55702 0
M  V30 9142 H 910.052 3.43944 -2.35602 0
M  V30 9143 H 908.712 2.98867 -1.26919 0
M  V30 9144 H 909.723 1.922 -4.80915 0
M  V30 9145 H 906.4 3.26313 -2.60434 0
M  V30 9146 H 907.79 1.95482 -6.42835 0
M  V30 9147 N 910.51 1.48831 0.518367 0
M  V30 9148 C 911.758 1.57128 1.27103 0
M  V30 9149 C 912.079 0.252098 1.93364 0
M  V30 9150 O 911.349 -0.727281 1.819 0
M  V30 9151 H 909.929 0.578891 0.472116 0
M  V30 9152 H 912.591 1.85361 0.602262 0
M  V30 9153 H 911.687 2.35838 2.04418 0
M  V30 9154 N 911.988 -0.768124 1.37614 0
M  V30 9155 C 913.404 -1.06919 1.18493 0
M  V30 9156 C 913.604 -2.01486 0.0235753 0
M  V30 9157 O 912.66 -2.4438 -0.635209 0
M  V30 9158 C 913.973 -1.66321 2.50515 0
M  V30 9159 C 915.521 -1.78562 2.57069 0
M  V30 9160 C 915.996 -2.41377 3.89231 0
M  V30 9161 N 917.487 -2.48824 3.90693 0
M  V30 9162 C 918.222 -2.98288 4.89706 0
M  V30 9163 N 917.718 -3.47897 5.99115 0
M  V30 9164 N 919.511 -2.97196 4.77107 0
M  V30 9165 H 911.662 -0.140286 2.11936 0
M  V30 9166 H 913.925 -0.124863 0.939741 0
M  V30 9167 H 913.631 -1.04303 3.35878 0
M  V30 9168 H 913.505 -2.65571 2.67866 0
M  V30 9169 H 915.892 -2.39712 1.72111 0
M  V30 9170 H 915.973 -0.780574 2.43599 0
M  V30 9171 H 915.617 -1.80866 4.74605 0
M  V30 9172 H 915.547 -3.42495 4.00006 0
M  V30 9173 H 918.038 -2.1372 3.1166 0
M  V30 9174 H 918.351 -3.84053 6.70614 0
M  V30 9175 H 916.696 -3.45993 6.02755 0
M  V30 9176 H 919.887 -2.57741 3.90752 0
M  V30 9177 H 920.06 -3.35434 5.54426 0
M  V30 9178 N 913.466 -1.22244 -0.994698 0
M  V30 9179 C 914.706 -1.05747 -1.7492 0
M  V30 9180 C 915.07 0.4007 -1.87772 0
M  V30 9181 O 916.271 0.686469 -2.59887 0
M  V30 9182 C 914.542 -1.7471 -3.11787 0
M  V30 9183 S 916.101 -1.73604 -4.02998 0
M  V30 9184 H 912.919 -0.378731 -0.601734 0
M  V30 9185 H 915.521 -1.55155 -1.18942 0
M  V30 9186 H 914.225 -2.79972 -3.00073 0
M  V30 9187 H 913.756 -1.25525 -3.72836 0
M  V30 9188 H 915.771 -0.784445 -4.8996 0
M  V30 9189 N 914.944 1.19125 -1.03184 0
M  V30 9190 C 915.891 2.2245 -0.6152 0
M  V30 9191 C 916.861 1.61869 0.372502 0
M  V30 9192 O 918.046 1.88901 0.268491 0
M  V30 9193 C 915.186 3.45091 0.0248027 0
M  V30 9194 C 914.299 4.20044 -1.0093 0
M  V30 9195 C 913.434 5.30119 -0.338744 0
M  V30 9196 C 912.473 5.96833 -1.35855 0
M  V30 9197 N 911.61 6.98464 -0.713594 0
M  V30 9198 H 916.45 2.57445 -1.50086 0
M  V30 9199 H 913.987 1.26485 -0.751005 0
M  V30 9200 H 915.945 4.15149 0.413131 0
M  V30 9201 H 914.575 3.10742 0.874028 0
M  V30 9202 H 913.627 3.48901 -1.51566 0
M  V30 9203 H 914.939 4.65796 -1.78425 0
M  V30 9204 H 914.093 6.0661 0.104269 0
M  V30 9205 H 912.832 4.85446 0.468382 0
M  V30 9206 H 911.837 5.1909 -1.81179 0
M  V30 9207 H 913.062 6.4359 -2.16722 0
M  V30 9208 H 911.008 6.55959 0.0733863 0
M  V30 9209 H 910.925 7.42422 -1.42638 0
M  V30 9210 H 912.193 7.78943 -0.294681 0
M  V30 9211 N 916.422 0.810101 1.35185 0
M  V30 9212 C 917.662 0.397802 2.00492 0
M  V30 9213 C 918.026 -1.01684 1.62863 0
M  V30 9214 O 919.227 -1.53133 2.20916 0
M  V30 9215 C 917.498 0.579524 3.5267 0
M  V30 9216 S 919.057 0.258169 4.3804 0
M  V30 9217 H 915.875 0.150904 0.694801 0
M  V30 9218 H 918.477 1.05312 1.64711 0
M  V30 9219 H 917.181 1.60901 3.77543 0
M  V30 9220 H 916.712 -0.0909886 3.93295 0
M  V30 9221 H 918.727 -0.932882 4.87352 0
M  V30 9222 N 917.9 -1.47166 0.563914 0
M  V30 9223 C 918.848 -2.31798 -0.193009 0
M  V30 9224 C 919.842 -1.43338 -0.902805 0
M  V30 9225 O 921.048 -1.60067 -0.823328 0
M  V30 9226 H 917.423 -0.747613 -0.0811139 0
M  V30 9227 H 919.394 -2.93476 0.539876 0
M  V30 9228 C 918.143 -3.26131 -1.20555 0
M  V30 9229 H 917.466 -3.94166 -0.668803 0
M  V30 9230 H 918.906 -3.88167 -1.70593 0
M  V30 9231 C 917.365 -2.50132 -2.25689 0
M  V30 9232 O 917.895 -2.25064 -3.3273 0
M  V30 9233 N 916.101 -2.11022 -1.99795 0
M  V30 9234 H 915.648 -2.3161 -1.1276 0
M  V30 9235 H 915.606 -1.60489 -2.70353 0
M  V30 9236 N 919.378 -0.300708 -1.54705 0
M  V30 9237 C 920.794 0.0526874 -1.59513 0
M  V30 9238 C 920.994 1.52444 -1.31769 0
M  V30 9239 O 920.05 2.27716 -1.09096 0
M  V30 9240 C 921.363 -0.344989 -2.98714 0
M  V30 9241 C 922.911 -0.29373 -3.11619 0
M  V30 9242 C 923.386 -0.666225 -4.53129 0
M  V30 9243 N 924.877 -0.618749 -4.59049 0
M  V30 9244 C 925.612 -0.879447 -5.66616 0
M  V30 9245 N 925.108 -1.2061 -6.82221 0
M  V30 9246 N 926.901 -0.806528 -5.56284 0
M  V30 9247 H 919.052 -1.25988 -1.71 0
M  V30 9248 H 921.315 -0.510758 -0.798643 0
M  V30 9249 H 921.021 -1.36953 -3.2394 0
M  V30 9250 H 920.895 0.301507 -3.75993 0
M  V30 9251 H 923.282 0.72156 -2.86142 0
M  V30 9252 H 923.363 -0.974844 -2.36496 0
M  V30 9253 H 923.007 -1.67932 -4.79334 0
M  V30 9254 H 922.937 0.0369575 -5.26587 0
M  V30 9255 H 925.428 -0.377202 -3.76013 0
M  V30 9256 H 925.741 -1.391 -7.60178 0
M  V30 9257 H 924.086 -1.24413 -6.83774 0
M  V30 9258 H 927.277 -0.550993 -4.64846 0
M  V30 9259 H 927.45 -1.01307 -6.40032 0
M  V30 9260 N 920.856 1.57574 -0.0284266 0
M  V30 9261 C 922.096 1.93637 0.65453 0
M  V30 9262 C 922.46 0.905015 1.69332 0
M  V30 9263 O 923.661 1.15181 2.42872 0
M  V30 9264 C 921.932 3.3462 1.25555 0
M  V30 9265 S 923.491 3.92609 1.95968 0
M  V30 9266 H 920.309 0.67755 0.215516 0
M  V30 9267 H 922.911 1.95284 -0.0919257 0
M  V30 9268 H 921.615 4.07499 0.487069 0
M  V30 9269 H 921.146 3.36415 2.03933 0
M  V30 9270 H 923.161 3.75988 3.23802 0
M  V30 9271 N 922.334 -0.244713 1.55689 0
M  V30 9272 C 923.266 -1.32595 1.86952 0
M  V30 9273 C 924.279 -1.44185 0.755948 0
M  V30 9274 O 925.468 -1.45496 1.03408 0
M  V30 9275 C 922.568 -2.70429 2.04258 0
M  V30 9276 C 921.741 -2.8108 3.35131 0
M  V30 9277 C 920.8 -3.99773 3.42152 0
M  V30 9278 O 919.826 -3.89197 4.15348 0
M  V30 9279 N 921.028 -5.13041 2.71604 0
M  V30 9280 H 923.793 -1.06111 2.80287 0
M  V30 9281 H 921.354 -0.434811 1.55952 0
M  V30 9282 H 923.346 -3.48173 2.06295 0
M  V30 9283 H 921.916 -2.89612 1.17658 0
M  V30 9284 H 921.136 -1.89994 3.45392 0
M  V30 9285 H 922.424 -2.85147 4.21389 0
M  V30 9286 H 921.822 -5.24525 2.11872 0
M  V30 9287 H 920.379 -5.88912 2.79331 0
M  V30 9288 N 923.813 -1.49104 -0.510467 0
M  V30 9289 C 925.053 -1.59723 -1.27545 0
M  V30 9290 C 925.417 -0.273525 -1.90042 0
M  V30 9291 O 926.618 -0.254835 -2.67589 0
M  V30 9292 C 924.889 -2.71771 -2.3211 0
M  V30 9293 S 926.448 -3.02282 -3.18074 0
M  V30 9294 H 923.266 -0.563489 -0.433591 0
M  V30 9295 H 925.868 -1.86719 -0.579328 0
M  V30 9296 H 924.572 -3.66483 -1.84711 0
M  V30 9297 H 924.103 -2.46739 -3.06404 0
M  V30 9298 H 926.118 -2.43076 -4.32583 0
M  V30 9299 N 925.291 0.760815 -1.38019 0
M  V30 9300 C 926.221 1.88811 -1.37377 0
M  V30 9301 C 927.202 1.68388 -0.240737 0
M  V30 9302 O 928.387 1.89086 -0.442739 0
M  V30 9303 C 925.517 3.26244 -1.1909 0
M  V30 9304 C 924.471 3.61254 -2.29521 0
M  V30 9305 C 923.797 4.97346 -1.96345 0
M  V30 9306 C 925.097 3.66874 -3.71753 0
M  V30 9307 H 926.791 1.89606 -2.31711 0
M  V30 9308 H 924.337 0.910818 -1.11535 0
M  V30 9309 H 926.29 4.04755 -1.17267 0
M  V30 9310 H 925.014 3.2591 -0.212152 0
M  V30 9311 H 923.673 2.85057 -2.30517 0
M  V30 9312 H 923.321 4.93564 -0.969728 0
M  V30 9313 H 923.021 5.21739 -2.703 0
M  V30 9314 H 924.545 5.78244 -1.96129 0
M  V30 9315 H 925.959 4.35514 -3.72828 0
M  V30 9316 H 924.356 4.02772 -4.44853 0
M  V30 9317 H 925.426 2.67273 -4.0459 0
M  V30 9318 N 926.769 1.22769 0.988202 0
M  V30 9319 C 928.046 0.9635 1.70223 0
M  V30 9320 C 928.426 -0.520102 2.04593 0
M  V30 9321 O 927.774 -1.48934 1.73295 0
M  V30 9322 C 927.984 1.86583 2.94937 0
M  V30 9323 C 929.332 2.12469 3.67616 0
M  V30 9324 O 930.356 1.84069 3.04954 0
M  V30 9325 O 929.215 2.60595 4.80367 0
M  V30 9326 H 926.309 0.362737 0.743203 0
M  V30 9327 H 928.855 1.33776 1.04412 0
M  V30 9328 H 927.627 2.86913 2.66077 0
M  V30 9329 H 927.25 1.49344 3.68486 0
M  V30 9330 N 928.247 -1.18576 1.03814 0
M  V30 9331 C 929.495 -1.88121 0.738574 0
M  V30 9332 C 929.816 -1.80587 -0.735744 0
M  V30 9333 O 929.086 -1.22251 -1.53074 0
M  V30 9334 H 927.666 -0.696417 0.270208 0
M  V30 9335 H 930.328 -1.43912 1.31435 0
M  V30 9336 H 929.424 -2.94222 1.04115 0
M  V30 9337 N 929.725 -0.817259 -1.34754 0
M  V30 9338 C 930.955 -0.414849 -2.02392 0
M  V30 9339 C 931.363 0.982186 -1.61709 0
M  V30 9340 O 930.706 1.64607 -0.815481 0
M  V30 9341 C 930.768 -0.430981 -3.56907 0
M  V30 9342 C 930.432 -1.78037 -4.20894 0
M  V30 9343 C 931.429 -2.74034 -4.41816 0
M  V30 9344 C 929.114 -2.0673 -4.57786 0
M  V30 9345 C 931.108 -3.96901 -4.98747 0
M  V30 9346 C 928.795 -3.29858 -5.14429 0
M  V30 9347 C 929.793 -4.24761 -5.34853 0
M  V30 9348 O 929.481 -5.45714 -5.90298 0
M  V30 9349 H 929.213 -0.165392 -0.655455 0
M  V30 9350 H 931.767 -1.10524 -1.73129 0
M  V30 9351 H 929.997 0.316074 -3.85406 0
M  V30 9352 H 931.686 -0.0494067 -4.0587 0
M  V30 9353 H 932.452 -2.53161 -4.13684 0
M  V30 9354 H 928.331 -1.33666 -4.41197 0
M  V30 9355 H 931.875 -4.70987 -5.14604 0
M  V30 9356 H 927.772 -3.50597 -5.41989 0
M  V30 9357 H 928.54 -5.47157 -6.08738 0
M  V30 9358 N 931.203 1.46865 -0.571711 0
M  V30 9359 C 932.433 2.06518 -0.0583129 0
M  V30 9360 C 932.841 1.4227 1.24723 0
M  V30 9361 O 932.184 0.518293 1.76237 0
M  V30 9362 C 932.246 3.5898 0.193214 0
M  V30 9363 C 931.91 4.45355 -1.02507 0
M  V30 9364 C 932.907 4.82575 -1.93435 0
M  V30 9365 C 930.592 4.86656 -1.24382 0
M  V30 9366 C 932.586 5.59912 -3.04595 0
M  V30 9367 C 930.273 5.63754 -2.35849 0
M  V30 9368 C 931.271 6.00294 -3.25785 0
M  V30 9369 O 930.959 6.75836 -4.35318 0
M  V30 9370 H 930.691 0.674188 -0.0494584 0
M  V30 9371 H 933.245 1.89644 -0.788934 0
M  V30 9372 H 931.475 3.7412 0.978319 0
M  V30 9373 H 933.164 4.006 0.653769 0
M  V30 9374 H 933.93 4.51256 -1.77745 0
M  V30 9375 H 929.809 4.57672 -0.55292 0
M  V30 9376 H 933.353 5.88351 -3.74818 0
M  V30 9377 H 929.25 5.94487 -2.51506 0
M  V30 9378 H 930.018 6.94247 -4.33547 0
M  V30 9379 N 932.681 0.308908 1.54543 0
M  V30 9380 C 933.929 -0.297447 1.99899 0
M  V30 9381 C 934.25 -1.53799 1.19878 0
M  V30 9382 O 933.52 -1.93639 0.29678 0
M  V30 9383 H 932.1 -0.112897 0.738419 0
M  V30 9384 H 934.762 0.422067 1.90275 0
M  V30 9385 H 933.858 -0.564016 3.06961 0
M  V30 9386 N 934.159 -1.57557 0.0367827 0
M  V30 9387 C 935.122 -2.09591 -0.927589 0
M  V30 9388 C 936.122 -1.01252 -1.24919 0
M  V30 9389 O 937.312 -1.27382 -1.18825 0
M  V30 9390 C 934.444 -2.56816 -2.24184 0
M  V30 9391 H 935.637 -2.96086 -0.476784 0
M  V30 9392 H 933.19 -1.54864 -0.211385 0
M  V30 9393 H 933.925 -1.73673 -2.73876 0
M  V30 9394 H 933.71 -3.35973 -2.0215 0
M  V30 9395 H 935.2 -2.97271 -2.93291 0
M  V30 9396 N 935.637 0.236453 -1.55816 0
M  V30 9397 C 936.567 1.29639 -1.94206 0
M  V30 9398 C 937.548 1.49667 -0.808319 0
M  V30 9399 O 938.733 1.621 -1.06945 0
M  V30 9400 C 935.863 2.64914 -2.24584 0
M  V30 9401 C 934.817 2.59565 -3.40308 0
M  V30 9402 C 934.143 3.98732 -3.56254 0
M  V30 9403 C 935.443 2.15642 -4.75706 0
M  V30 9404 H 937.137 0.977552 -2.82992 0
M  V30 9405 H 934.683 0.468804 -1.36155 0
M  V30 9406 H 936.636 3.39209 -2.50031 0
M  V30 9407 H 935.36 2.98455 -1.32636 0
M  V30 9408 H 934.019 1.87728 -3.14887 0
M  V30 9409 H 933.667 4.29556 -2.61707 0
M  V30 9410 H 933.367 3.96039 -4.34082 0
M  V30 9411 H 934.891 4.74711 -3.84033 0
M  V30 9412 H 936.305 2.79673 -5.00456 0
M  V30 9413 H 934.702 2.24039 -5.56711 0
M  V30 9414 H 935.772 1.10831 -4.72064 0
M  V30 9415 N 937.115 1.49373 0.502552 0
M  V30 9416 C 938.355 1.60398 1.26696 0
M  V30 9417 C 938.719 0.283599 1.89894 0
M  V30 9418 O 939.92 0.269022 2.6745 0
M  V30 9419 C 938.191 2.72998 2.30666 0
M  V30 9420 S 939.75 3.03964 3.16466 0
M  V30 9421 H 936.568 0.565781 0.430596 0
M  V30 9422 H 939.17 1.87024 0.569418 0
M  V30 9423 H 937.874 3.67458 1.82765 0
M  V30 9424 H 937.405 2.4836 3.05091 0
M  V30 9425 H 939.42 2.45367 4.31288 0
M  V30 9426 N 938.594 -0.753485 1.38421 0
M  V30 9427 C 939.871 -1.50318 1.25155 0
M  V30 9428 C 940.251 -2.10588 -0.147003 0
M  V30 9429 O 939.599 -1.97071 -1.15651 0
M  V30 9430 C 939.809 -2.56946 2.36177 0
M  V30 9431 C 941.157 -3.23846 2.74607 0
M  V30 9432 O 942.181 -2.67251 2.3549 0
M  V30 9433 O 941.04 -4.2621 3.42064 0
M  V30 9434 H 938.134 -0.666624 0.48943 0
M  V30 9435 H 940.68 -0.788887 1.50249 0
M  V30 9436 H 939.452 -2.1066 3.29754 0
M  V30 9437 H 939.075 -3.35956 2.12648 0
M  V30 9438 N 940.072 -1.23292 -0.981677 0
M  V30 9439 C 941.004 -0.970782 -2.07626 0
M  V30 9440 C 942.017 0.0547506 -1.62708 0
M  V30 9441 O 943.206 -0.180623 -1.77584 0
M  V30 9442 C 940.306 -0.44055 -3.36024 0
M  V30 9443 C 939.479 -1.52595 -4.09919 0
M  V30 9444 C 938.538 -1.00082 -5.16595 0
M  V30 9445 O 937.564 -1.68951 -5.43548 0
M  V30 9446 N 938.766 0.172017 -5.80245 0
M  V30 9447 H 941.531 -1.91316 -2.30691 0
M  V30 9448 H 939.092 -1.14133 -1.14828 0
M  V30 9449 H 941.084 -0.0743111 -4.04632 0
M  V30 9450 H 939.654 0.407211 -3.09936 0
M  V30 9451 H 938.874 -2.06501 -3.35784 0
M  V30 9452 H 940.162 -2.2559 -4.56055 0
M  V30 9453 H 939.56 0.748129 -5.60731 0
M  V30 9454 H 938.117 0.479532 -6.50034 0
M  V30 9455 N 941.55 1.18024 -1.04442 0
M  V30 9456 C 942.79 1.89787 -0.758957 0
M  V30 9457 C 943.154 1.78757 0.700707 0
M  V30 9458 O 944.355 2.45265 1.09994 0
M  V30 9459 C 942.626 3.36047 -1.21685 0
M  V30 9460 S 944.185 4.25864 -1.05761 0
M  V30 9461 H 941.003 0.655311 -0.275841 0
M  V30 9462 H 943.605 1.42589 -1.33749 0
M  V30 9463 H 942.309 3.41606 -2.2745 0
M  V30 9464 H 941.84 3.88286 -0.63227 0
M  V30 9465 H 943.855 4.96195 0.022729 0
M  V30 9466 N 943.028 0.824394 1.34319 0
M  V30 9467 C 944.439 0.471802 1.8064 0
M  V30 9468 C 944.79 -1.00793 1.6833 0
M  V30 9469 O 943.915 -1.78447 1.22416 0
M  V30 9470 C 944.51 0.849609 3.27974 0
M  V30 9471 C 943.069 0.549365 3.72369 0
M  V30 9472 C 942.216 1.06573 2.56003 0
M  V30 9473 H 945.167 1.01443 1.22045 0
M  V30 9474 H 945.188 0.153968 3.80188 0
M  V30 9475 H 944.7 1.92663 3.36902 0
M  V30 9476 H 942.801 -0.518182 3.68979 0
M  V30 9477 H 942.914 1.09446 4.66432 0
M  V30 9478 H 941.278 0.487214 2.49997 0
M  V30 9479 H 942.061 2.14923 2.677 0
M  V30 9480 N 944.506 -1.46559 0.579492 0
M  V30 9481 C 945.754 -2.02 0.0637157 0
M  V30 9482 C 946.075 -1.45378 -1.29962 0
M  V30 9483 O 945.345 -0.637262 -1.85245 0
M  V30 9484 H 943.925 -0.746717 0.0205638 0
M  V30 9485 H 946.587 -1.79702 0.754544 0
M  V30 9486 H 945.683 -3.12099 -0.00770254 0
M  V30 9487 N 945.984 -0.3171 -1.54377 0
M  V30 9488 C 947.224 0.288083 -2.0236 0
M  V30 9489 C 947.588 1.4985 -1.20038 0
M  V30 9490 O 948.789 2.17611 -1.57794 0
M  V30 9491 C 947.06 0.620192 -3.51978 0
M  V30 9492 S 948.619 1.20595 -4.21903 0
M  V30 9493 H 945.437 0.0875231 -0.705592 0
M  V30 9494 H 948.039 -0.448719 -1.90281 0
M  V30 9495 H 946.743 -0.268982 -4.09518 0
M  V30 9496 H 946.274 1.38736 -3.68125 0
M  V30 9497 H 948.289 2.49308 -4.29022 0
M  V30 9498 N 947.462 1.57535 -0.0451378 0
M  V30 9499 C 948.409 2.11176 0.931313 0
M  V30 9500 C 949.379 1.01765 1.31275 0
M  V30 9501 O 950.564 1.29279 1.40327 0
M  V30 9502 C 947.704 2.65639 2.20295 0
M  V30 9503 C 946.817 3.89114 1.87654 0
M  V30 9504 C 945.952 4.31914 3.09232 0
M  V30 9505 C 944.991 5.48105 2.72484 0
M  V30 9506 N 944.128 5.85986 3.86736 0
M  V30 9507 H 948.968 2.94318 0.466986 0
M  V30 9508 H 946.505 1.45462 0.218886 0
M  V30 9509 H 948.463 2.95312 2.94697 0
M  V30 9510 H 947.093 1.85303 2.64316 0
M  V30 9511 H 946.145 3.6607 1.03427 0
M  V30 9512 H 947.457 4.7358 1.56601 0
M  V30 9513 H 946.611 4.63108 3.91939 0
M  V30 9514 H 945.35 3.46247 3.43459 0
M  V30 9515 H 944.355 5.16589 1.88192 0
M  V30 9516 H 945.58 6.35482 2.39455 0
M  V30 9517 H 943.526 5.03273 4.20775 0
M  V30 9518 H 943.443 6.65129 3.5936 0
M  V30 9519 H 944.711 6.21793 4.701 0
M  V30 9520 N 948.94 -0.228186 1.55939 0
M  V30 9521 C 950.168 -0.970618 1.8272 0
M  V30 9522 C 950.583 -1.78212 0.623385 0
M  V30 9523 O 949.94 -1.77879 -0.408063 0
M  V30 9524 C 949.991 -1.89352 3.07942 0
M  V30 9525 O 949.712 -1.11483 4.23678 0
M  V30 9526 C 951.213 -2.75039 3.47661 0
M  V30 9527 H 948.433 -0.284772 0.607574 0
M  V30 9528 H 950.977 -0.245419 2.03022 0
M  V30 9529 H 949.132 -2.57275 2.89635 0
M  V30 9530 H 949.546 -1.74073 4.94772 0
M  V30 9531 H 951.02 -3.35511 4.38334 0
M  V30 9532 H 951.497 -3.471 2.69106 0
M  V30 9533 H 952.103 -2.1254 3.68384 0
M  V30 9534 N 950.418 -1.49637 -0.494624 0
M  V30 9535 C 951.829 -1.52573 -1.07603 0
M  V30 9536 C 952.18 -0.315591 -1.93645 0
M  V30 9537 O 951.305 0.573966 -2.08649 0
M  V30 9538 C 951.9 -2.7648 -1.95817 0
M  V30 9539 C 950.459 -2.82173 -2.49109 0
M  V30 9540 C 949.606 -2.4657 -1.2688 0
M  V30 9541 H 952.557 -1.56242 -0.278251 0
M  V30 9542 H 952.578 -2.57003 -2.80588 0
M  V30 9543 H 952.09 -3.64538 -1.33167 0
M  V30 9544 H 950.191 -1.9841 -3.15379 0
M  V30 9545 H 950.304 -3.84501 -2.85825 0
M  V30 9546 H 948.668 -1.98489 -1.59607 0
M  V30 9547 H 949.451 -3.3691 -0.659281 0
M  V30 9548 N 951.896 0.746133 -1.38819 0
M  V30 9549 C 953.136 1.51821 -1.36857 0
M  V30 9550 C 953.5 1.9196 0.0391461 0
M  V30 9551 O 954.701 2.68172 0.183689 0
M  V30 9552 C 952.972 2.73214 -2.3041 0
M  V30 9553 S 954.531 3.62995 -2.46536 0
M  V30 9554 H 951.349 0.51945 -0.485482 0
M  V30 9555 H 953.951 0.875244 -1.74813 0
M  V30 9556 H 952.655 2.41847 -3.31569 0
M  V30 9557 H 952.186 3.42449 -1.9363 0
M  V30 9558 H 954.201 4.66353 -1.69498 0
M  V30 9559 N 953.375 1.23811 0.975125 0
M  V30 9560 C 954.285 1.0408 2.10249 0
M  V30 9561 C 955.301 -0.0162404 1.73992 0
M  V30 9562 O 956.477 0.180346 2.00591 0
M  V30 9563 C 953.542 0.640013 3.40741 0
M  V30 9564 C 952.603 1.7727 3.90991 0
M  V30 9565 C 951.836 1.39094 5.15256 0
M  V30 9566 O 952.059 0.277483 5.69725 0
M  V30 9567 O 950.993 2.21392 5.59704 0
M  V30 9568 H 954.819 1.98575 2.29786 0
M  V30 9569 H 952.404 1.02563 1.08633 0
M  V30 9570 H 954.286 0.427684 4.19224 0
M  V30 9571 H 952.961 -0.27589 3.22522 0
M  V30 9572 H 951.868 2.03971 3.13602 0
M  V30 9573 H 953.201 2.66711 4.13674 0
M  V30 9574 N 954.853 -1.17469 1.05066 0
M  V30 9575 C 956.269 -1.39699 0.771769 0
M  V30 9576 C 956.469 -1.91253 -0.634382 0
M  V30 9577 O 955.525 -2.10334 -1.39699 0
M  V30 9578 C 956.838 -2.38886 1.82631 0
M  V30 9579 C 958.386 -2.52595 1.84838 0
M  V30 9580 C 958.861 -3.55054 2.89311 0
M  V30 9581 N 960.352 -3.6257 2.88266 0
M  V30 9582 C 961.087 -4.41603 3.65752 0
M  V30 9583 N 960.583 -5.24162 4.53019 0
M  V30 9584 N 962.376 -4.36464 3.54197 0
M  V30 9585 H 954.527 -0.823355 1.95792 0
M  V30 9586 H 956.79 -0.42432 0.847736 0
M  V30 9587 H 956.496 -2.08075 2.83545 0
M  V30 9588 H 956.37 -3.38371 1.66687 0
M  V30 9589 H 958.757 -2.82717 0.845888 0
M  V30 9590 H 958.838 -1.53188 2.04859 0
M  V30 9591 H 958.482 -3.2567 3.89745 0
M  V30 9592 H 958.412 -4.54162 2.66542 0
M  V30 9593 H 960.903 -3.03625 2.24989 0
M  V30 9594 H 961.216 -5.81646 5.0883 0
M  V30 9595 H 959.561 -5.23547 4.57081 0
M  V30 9596 H 962.752 -3.7102 2.85416 0
M  V30 9597 H 962.925 -4.97814 4.14832 0
M  V30 9598 N 956.331 -0.831506 -1.3388 0
M  V30 9599 C 957.281 -0.231656 -2.2682 0
M  V30 9600 C 958.265 0.609075 -1.48926 0
M  V30 9601 O 959.457 0.462249 -1.70857 0
M  V30 9602 C 956.586 0.59846 -3.38043 0
M  V30 9603 C 955.672 -0.253372 -4.23342 0
M  V30 9604 N 956.063 -1.32854 -4.8804 0
M  V30 9605 C 954.361 -0.0391537 -4.45983 0
M  V30 9606 C 955.062 -1.85069 -5.51475 0
M  V30 9607 N 954.038 -1.15327 -5.31226 0
M  V30 9608 H 957.84 -1.05396 -2.74352 0
M  V30 9609 H 955.354 -0.675195 -1.47699 0
M  V30 9610 H 957.351 1.04443 -4.03605 0
M  V30 9611 H 956.011 1.41882 -2.92061 0
M  V30 9612 H 957.022 -1.71139 -4.88806 0
M  V30 9613 H 953.699 0.748356 -4.10738 0
M  V30 9614 H 955.089 -2.75065 -6.13016 0
M  V30 9615 N 957.809 1.4625 -0.587256 0
M  V30 9616 C 959.225 1.57641 -0.249284 0
M  V30 9617 C 959.425 1.58169 1.24839 0
M  V30 9618 O 958.481 1.50109 2.03036 0
M  V30 9619 C 959.794 2.86837 -0.902509 0
M  V30 9620 C 961.342 3.00476 -0.876524 0
M  V30 9621 C 961.817 4.32414 -1.50938 0
M  V30 9622 N 963.308 4.39124 -1.47392 0
M  V30 9623 C 964.043 5.39838 -1.93293 0
M  V30 9624 N 963.539 6.47202 -2.47188 0
M  V30 9625 N 965.332 5.31068 -1.84183 0
M  V30 9626 H 957.483 1.44151 -1.55994 0
M  V30 9627 H 959.746 0.687905 -0.652297 0
M  V30 9628 H 959.452 2.92274 -1.95624 0
M  V30 9629 H 959.326 3.74927 -0.413466 0
M  V30 9630 H 961.713 2.94618 0.168601 0
M  V30 9631 H 961.794 2.1385 -1.40363 0
M  V30 9632 H 961.438 4.3903 -2.55372 0
M  V30 9633 H 961.368 5.17823 -0.957455 0
M  V30 9634 H 963.859 3.62138 -1.08002 0
M  V30 9635 H 964.172 7.20269 -2.80058 0
M  V30 9636 H 962.517 6.48009 -2.51216 0
M  V30 9637 H 965.708 4.46095 -1.41833 0
M  V30 9638 H 965.881 6.09414 -2.2027 0
M  V30 9639 N 959.287 0.325282 1.54207 0
M  V30 9640 C 960.564 -0.33113 1.92777 0
M  V30 9641 C 960.944 -1.69739 1.25506 0
M  V30 9642 O 960.292 -2.24983 0.399385 0
M  V30 9643 C 960.502 -0.421636 3.46444 0
M  V30 9644 C 961.85 -0.681111 4.19101 0
M  V30 9645 O 962.874 -0.504488 3.52609 0
M  V30 9646 O 961.733 -1.02196 5.3686 0
M  V30 9647 H 958.827 -0.18943 0.805013 0
M  V30 9648 H 961.373 0.375123 1.65502 0
M  V30 9649 H 960.145 0.537862 3.87586 0
M  V30 9650 H 959.768 -1.1754 3.79829 0
M  V30 9651 N 960.765 -1.57509 0.0534917 0
M  V30 9652 C 962.005 -1.94654 -0.623641 0
M  V30 9653 C 962.369 -0.93184 -1.67871 0
M  V30 9654 O 963.57 -1.19031 -2.41009 0
M  V30 9655 C 961.841 -3.36575 -1.20216 0
M  V30 9656 S 963.4 -3.95677 -1.89697 0
M  V30 9657 H 960.218 -0.680893 -0.20471 0
M  V30 9658 H 962.82 -1.95113 0.122982 0
M  V30 9659 H 961.524 -4.08223 -0.422177 0
M  V30 9660 H 961.055 -3.39617 -1.98555 0
M  V30 9661 H 963.07 -3.81092 -3.17779 0
M  V30 9662 N 962.243 0.219913 -1.56058 0
M  V30 9663 C 963.206 1.25606 -1.91718 0
M  V30 9664 C 964.206 1.39721 -0.795912 0
M  V30 9665 O 965.396 1.37958 -1.06364 0
M  V30 9666 C 962.528 2.62961 -2.16943 0
M  V30 9667 H 963.721 0.951909 -2.84392 0
M  V30 9668 H 961.274 0.460398 -1.49365 0
M  V30 9669 H 962.009 2.98472 -1.26826 0
M  V30 9670 H 961.794 2.54093 -2.98629 0
M  V30 9671 H 963.284 3.37727 -2.45622 0
M  V30 9672 N 963.721 1.49897 0.486681 0
M  V30 9673 C 964.631 1.70379 1.6127 0
M  V30 9674 C 965.647 0.58659 1.63814 0
M  V30 9675 O 966.823 0.863044 1.81971 0
M  V30 9676 C 963.888 1.77911 2.97571 0
M  V30 9677 C 962.949 3.01569 3.0554 0
M  V30 9678 C 962.182 3.08732 4.35339 0
M  V30 9679 O 962.405 2.23099 5.2496 0
M  V30 9680 O 961.339 4.01325 4.48578 0
M  V30 9681 H 965.165 2.65799 1.46916 0
M  V30 9682 H 962.75 1.33808 0.664516 0
M  V30 9683 H 964.632 1.85135 3.78554 0
M  V30 9684 H 963.307 0.856722 3.12157 0
M  V30 9685 H 962.214 2.99854 2.23693 0
M  V30 9686 H 963.547 3.93335 2.95886 0
M  V30 9687 N 965.199 -0.738761 1.39212 0
M  V30 9688 C 966.439 -1.51093 1.3766 0
M  V30 9689 C 966.803 -1.91978 -0.0289655 0
M  V30 9690 O 968.004 -2.68265 -0.169465 0
M  V30 9691 C 966.275 -2.71988 2.31856 0
M  V30 9692 S 967.834 -3.61683 2.48458 0
M  V30 9693 H 964.652 -0.516868 0.48823 0
M  V30 9694 H 967.254 -0.865961 1.75275 0
M  V30 9695 H 965.958 -2.40085 3.32847 0
M  V30 9696 H 965.489 -3.41417 1.95443 0
M  V30 9697 H 967.504 -4.65447 1.71969 0
M  V30 9698 N 966.677 -1.24326 -0.968545 0
M  V30 9699 C 967.925 -1.08032 -1.70803 0
M  V30 9700 C 968.246 0.381728 -1.91227 0
M  V30 9701 O 967.516 1.27253 -1.48942 0
M  V30 9702 H 966.096 -0.396777 -0.632912 0
M  V30 9703 H 968.758 -1.56232 -1.16523 0
M  V30 9704 H 967.854 -1.57769 -2.69287 0
M  V30 9705 N 968.156 1.1691 -1.05688 0
M  V30 9706 C 969.119 2.19297 -0.666433 0
M  V30 9707 C 970.119 1.5826 0.284674 0
M  V30 9708 O 971.309 1.74068 0.0678757 0
M  V30 9709 C 968.441 3.40894 0.0203656 0
M  V30 9710 H 969.634 2.55354 -1.57272 0
M  V30 9711 H 967.187 1.31078 -0.851359 0
M  V30 9712 H 967.922 3.10388 0.939686 0
M  V30 9713 H 967.707 3.86446 -0.663464 0
M  V30 9714 H 969.197 4.16664 0.279475 0
M  V30 9715 N 969.634 0.838594 1.33437 0
M  V30 9716 C 970.881 0.434169 1.97791 0
M  V30 9717 C 971.209 -1.00652 1.66431 0
M  V30 9718 O 970.464 -1.71848 0.936309 0
M  V30 9719 C 970.763 0.601425 3.52303 0
M  V30 9720 C 970.429 2.01017 4.03612 0
M  V30 9721 C 969.091 2.39551 4.17336 0
M  V30 9722 C 971.443 2.93035 4.31022 0
M  V30 9723 C 968.771 3.69406 4.55802 0
M  V30 9724 C 971.123 4.22372 4.7094 0
M  V30 9725 C 969.787 4.60862 4.82869 0
M  V30 9726 H 969.057 0.158874 0.723768 0
M  V30 9727 H 971.704 1.06556 1.59116 0
M  V30 9728 H 970.009 -0.113284 3.91636 0
M  V30 9729 H 971.706 0.268798 4.00098 0
M  V30 9730 H 968.296 1.7009 3.93405 0
M  V30 9731 H 972.48 2.64503 4.19943 0
M  V30 9732 H 967.736 3.99033 4.63231 0
M  V30 9733 H 971.91 4.93749 4.91106 0
M  V30 9734 H 969.537 5.6153 5.12433 0
M  V30 9735 N 971.112 -1.45937 0.595003 0
M  V30 9736 C 972.528 -1.57507 0.257641 0
M  V30 9737 C 972.728 -1.58829 -1.23998 0
M  V30 9738 O 971.784 -1.51183 -2.02237 0
M  V30 9739 C 973.097 -2.86354 0.917708 0
M  V30 9740 C 974.645 -3.00007 0.892446 0
M  V30 9741 C 975.12 -4.31607 1.53229 0
M  V30 9742 N 976.611 -4.38336 1.49719 0
M  V30 9743 C 977.346 -5.38805 1.96154 0
M  V30 9744 N 976.842 -6.45882 2.50617 0
M  V30 9745 N 978.635 -5.30084 1.86997 0
M  V30 9746 H 970.786 -1.43322 1.56756 0
M  V30 9747 H 973.049 -0.684436 0.655936 0
M  V30 9748 H 972.755 -2.91233 1.97171 0
M  V30 9749 H 972.629 -3.74703 0.433344 0
M  V30 9750 H 975.016 -2.94703 -0.152975 0
M  V30 9751 H 975.097 -2.13103 1.41495 0
M  V30 9752 H 974.741 -4.3767 2.57697 0
M  V30 9753 H 974.671 -5.17308 0.984903 0
M  V30 9754 H 977.162 -3.6156 1.09921 0
M  V30 9755 H 977.475 -7.18774 2.83874 0
M  V30 9756 H 975.82 -6.46668 2.54649 0
M  V30 9757 H 979.011 -4.45337 1.44196 0
M  V30 9758 H 979.184 -6.08237 2.23499 0
M  V30 9759 N 972.59 -0.333456 -1.54032 0
M  V30 9760 C 973.818 0.267813 -2.05159 0
M  V30 9761 C 974.233 1.4501 -1.20903 0
M  V30 9762 O 973.59 1.80888 -0.241994 0
M  V30 9763 C 973.641 0.69268 -3.54802 0
M  V30 9764 O 973.362 -0.442579 -4.35859 0
M  V30 9765 C 974.863 1.35572 -4.2206 0
M  V30 9766 H 972.083 0.0534924 -0.668864 0
M  V30 9767 H 974.627 -0.482515 -1.98726 0
M  V30 9768 H 972.782 1.39297 -3.6149 0
M  V30 9769 H 973.196 -0.105915 -5.24393 0
M  V30 9770 H 974.67 1.60385 -5.28186 0
M  V30 9771 H 975.147 2.30614 -3.73783 0
M  V30 9772 H 975.753 0.697748 -4.19537 0
M  V30 9773 N 974.068 1.57479 -0.061844 0
M  V30 9774 C 975.316 1.92727 0.608336 0
M  V30 9775 C 975.637 0.941799 1.70749 0
M  V30 9776 O 974.907 -0.0116608 1.95897 0
M  V30 9777 H 973.487 0.71145 0.2277 0
M  V30 9778 H 976.149 1.94546 -0.117359 0
M  V30 9779 H 975.245 2.9426 1.04007 0
M  V30 9780 N 975.546 -0.211634 1.56173 0
M  V30 9781 C 976.957 -0.777776 1.69728 0
M  V30 9782 C 977.308 -1.84566 0.66558 0
M  V30 9783 O 976.433 -2.15639 -0.181338 0
M  V30 9784 C 977.028 -1.41757 3.07718 0
M  V30 9785 C 975.587 -1.93098 3.23094 0
M  V30 9786 C 974.734 -0.794785 2.65666 0
M  V30 9787 H 977.685 0.0131839 1.58695 0
M  V30 9788 H 977.706 -2.28662 3.04128 0
M  V30 9789 H 977.218 -0.640114 3.82785 0
M  V30 9790 H 975.319 -2.73615 2.52914 0
M  V30 9791 H 975.432 -2.10414 4.30422 0
M  V30 9792 H 973.796 -1.20473 2.24407 0
M  V30 9793 H 974.579 -0.0298408 3.43287 0
M  V30 9794 N 977.024 -1.50153 -0.478725 0
M  V30 9795 C 977.954 -1.71384 -1.58587 0
M  V30 9796 C 978.935 -0.562705 -1.60523 0
M  V30 9797 O 980.12 -0.80101 -1.76911 0
M  V30 9798 C 977.25 -1.80094 -2.96957 0
M  V30 9799 C 976.204 -2.95218 -3.09888 0
M  V30 9800 C 975.53 -2.89063 -4.49829 0
M  V30 9801 C 976.83 -4.35841 -2.8782 0
M  V30 9802 H 978.524 -2.64081 -1.41073 0
M  V30 9803 H 976.07 -1.27081 -0.677239 0
M  V30 9804 H 978.023 -1.93531 -3.74331 0
M  V30 9805 H 976.747 -0.840131 -3.1561 0
M  V30 9806 H 975.406 -2.81419 -2.34944 0
M  V30 9807 H 975.054 -1.90844 -4.6539 0
M  V30 9808 H 974.754 -3.66345 -4.59418 0
M  V30 9809 H 976.278 -3.04539 -5.29234 0
M  V30 9810 H 977.692 -4.50205 -3.54948 0
M  V30 9811 H 976.089 -5.14515 -3.0886 0
M  V30 9812 H 977.159 -4.48739 -1.83742 0
M  V30 9813 N 978.502 0.731368 -1.39602 0
M  V30 9814 C 979.465 1.8271 -1.38383 0
M  V30 9815 C 980.465 1.58338 -0.280309 0
M  V30 9816 O 981.655 1.65671 -0.538402 0
M  V30 9817 C 978.787 3.20556 -1.16002 0
M  V30 9818 H 979.98 1.85193 -2.35889 0
M  V30 9819 H 977.533 0.935396 -1.2522 0
M  V30 9820 H 978.268 3.23732 -0.191927 0
M  V30 9821 H 978.053 3.39643 -1.9592 0
M  V30 9822 H 979.543 4.00612 -1.17899 0
M  V30 9823 N 979.98 1.24838 0.961938 0
M  V30 9824 C 981.208 1.11871 1.74047 0
M  V30 9825 C 981.623 -0.328209 1.85925 0
M  V30 9826 O 980.98 -1.22616 1.35173 0
M  V30 9827 C 981.031 1.75931 3.15801 0
M  V30 9828 O 980.752 3.14967 3.04512 0
M  V30 9829 C 982.253 1.68649 4.09966 0
M  V30 9830 H 979.473 0.390569 0.545616 0
M  V30 9831 H 982.017 1.65058 1.20732 0
M  V30 9832 H 980.172 1.26733 3.66084 0
M  V30 9833 H 980.586 3.46349 3.93882 0
M  V30 9834 H 982.06 2.18144 5.07067 0
M  V30 9835 H 982.537 0.648831 4.34381 0
M  V30 9836 H 983.143 2.17301 3.65596 0
M  V30 9837 N 981.458 -1.16348 1.06306 0
M  V30 9838 C 982.406 -2.22799 0.668087 0
M  V30 9839 C 983.4 -1.66426 -0.316051 0
M  V30 9840 O 984.606 -1.79089 -0.180902 0
M  V30 9841 H 980.981 -0.725487 0.19792 0
M  V30 9842 H 982.952 -2.53401 1.57577 0
M  V30 9843 C 981.701 -3.47628 0.0706797 0
M  V30 9844 H 981.024 -3.9132 0.819064 0
M  V30 9845 H 982.464 -4.23666 -0.16816 0
M  V30 9846 C 980.923 -3.15343 -1.18577 0
M  V30 9847 O 981.453 -3.31158 -2.27371 0
M  V30 9848 N 979.659 -2.69472 -1.08779 0
M  V30 9849 H 979.206 -2.56803 -0.202447 0
M  V30 9850 H 979.164 -2.48244 -1.92931 0
M  V30 9851 N 982.937 -0.845659 -1.3299 0
M  V30 9852 C 984.177 -0.450819 -1.99366 0
M  V30 9853 C 984.541 0.973297 -1.65502 0
M  V30 9854 O 985.742 1.47222 -2.24898 0
M  V30 9855 C 984.013 -0.672825 -3.5101 0
M  V30 9856 S 985.572 -0.374216 -4.37201 0
M  V30 9857 H 982.39 -0.169273 -0.690556 0
M  V30 9858 H 984.992 -1.09642 -1.61861 0
M  V30 9859 H 983.696 -1.70855 -3.73145 0
M  V30 9860 H 983.227 -0.0133185 -3.93398 0
M  V30 9861 H 985.242 0.803342 -4.89654 0
M  V30 9862 N 984.415 1.45619 -0.602734 0
M  V30 9863 C 985.64 2.07157 -0.100429 0
M  V30 9864 C 986.065 1.44524 1.20393 0
M  V30 9865 O 985.423 0.536191 1.7319 0
M  V30 9866 C 985.471 3.60587 0.0308604 0
M  V30 9867 O 984.575 3.97944 1.08234 0
M  V30 9868 H 983.916 0.6601 -0.0718643 0
M  V30 9869 H 986.446 1.86948 -0.831366 0
M  V30 9870 H 986.456 4.07348 0.230634 0
M  V30 9871 H 985.131 4.05561 -0.921581 0
M  V30 9872 H 983.708 3.62862 0.859414 0
M  V30 9873 N 985.893 0.34162 1.53853 0
M  V30 9874 C 987.121 -0.256929 2.05299 0
M  V30 9875 C 987.536 -1.44366 1.21671 0
M  V30 9876 O 986.893 -1.80758 0.251584 0
M  V30 9877 C 986.944 -0.673854 3.55164 0
M  V30 9878 O 986.665 0.465687 4.35618 0
M  V30 9879 C 988.166 -1.33332 4.22773 0
M  V30 9880 H 985.386 -0.0499445 0.669139 0
M  V30 9881 H 987.93 0.493048 1.98467 0
M  V30 9882 H 986.085 -1.37378 3.62224 0
M  V30 9883 H 986.499 0.133723 5.2433 0
M  V30 9884 H 987.973 -1.57582 5.29029 0
M  V30 9885 H 988.45 -2.28628 3.75001 0
M  V30 9886 H 989.056 -0.675489 4.19901 0
M  V30 9887 N 987.371 -1.57444 0.0701946 0
M  V30 9888 C 988.334 -2.11511 -0.882923 0
M  V30 9889 C 989.334 -1.03879 -1.22743 0
M  V30 9890 O 990.524 -1.29874 -1.16097 0
M  V30 9891 C 987.656 -2.61514 -2.18686 0
M  V30 9892 H 988.849 -2.9703 -0.413873 0
M  V30 9893 H 986.402 -1.55278 -0.178488 0
M  V30 9894 H 987.137 -1.79443 -2.70131 0
M  V30 9895 H 986.922 -3.40185 -1.94978 0
M  V30 9896 H 988.412 -3.03425 -2.86919 0
M  V30 9897 N 988.849 0.203349 -1.56283 0
M  V30 9898 C 990.089 0.931871 -1.81922 0
M  V30 9899 C 990.453 1.8079 -0.646459 0
M  V30 9900 O 991.654 2.57157 -0.782556 0
M  V30 9901 C 989.925 1.73347 -3.12547 0
M  V30 9902 S 991.484 2.51514 -3.59564 0
M  V30 9903 H 988.302 0.312706 -0.638542 0
M  V30 9904 H 990.904 0.195931 -1.94516 0
M  V30 9905 H 989.608 1.08038 -3.95924 0
M  V30 9906 H 989.139 2.51138 -3.02809 0
M  V30 9907 H 991.154 3.7552 -3.24345 0
M  V30 9908 N 990.327 1.50405 0.470755 0
M  V30 9909 C 991.29 1.68741 1.5511 0
M  V30 9910 C 992.29 0.558116 1.50804 0
M  V30 9911 O 993.48 0.825149 1.53418 0
M  V30 9912 C 990.612 1.71295 2.94739 0
M  V30 9913 H 991.805 2.65127 1.40169 0
M  V30 9914 H 989.358 1.39891 0.697156 0
M  V30 9915 H 990.093 0.766029 3.15123 0
M  V30 9916 H 989.878 2.53336 2.99271 0
M  V30 9917 H 991.368 1.87434 3.73173 0
M  V30 9918 N 991.805 -0.723954 1.39988 0
M  V30 9919 C 992.755 -1.82943 1.36073 0
M  V30 9920 C 993.739 -1.59105 0.239682 0
M  V30 9921 O 994.931 -1.7042 0.478116 0
M  V30 9922 C 992.06 -3.20988 1.21745 0
M  V30 9923 C 991.146 -3.50618 2.38596 0
M  V30 9924 N 991.537 -3.51115 3.64077 0
M  V30 9925 C 989.835 -3.81035 2.31794 0
M  V30 9926 C 990.536 -3.78852 4.41413 0
M  V30 9927 N 989.512 -3.97182 3.71143 0
M  V30 9928 H 993.314 -1.81649 2.31043 0
M  V30 9929 H 990.828 -0.922703 1.33641 0
M  V30 9930 H 992.825 -4.00139 1.17022 0
M  V30 9931 H 991.485 -3.23513 0.277344 0
M  V30 9932 H 992.496 -3.32163 3.97351 0
M  V30 9933 H 989.173 -3.911 1.46105 0
M  V30 9934 H 990.563 -3.85612 5.5023 0
M  V30 9935 N 993.283 -1.25346 -0.955304 0
M  V30 9936 C 994.511 -1.12793 -1.73451 0
M  V30 9937 C 994.926 0.318344 -1.86097 0
M  V30 9938 O 994.283 1.21897 -1.35821 0
M  V30 9939 C 994.334 -1.77603 -3.14864 0
M  V30 9940 O 994.055 -3.16577 -3.02837 0
M  V30 9941 C 995.556 -1.70821 -4.09066 0
M  V30 9942 H 992.776 -0.393457 -0.543537 0
M  V30 9943 H 995.32 -1.65696 -1.19855 0
M  V30 9944 H 993.475 -1.28673 -3.65407 0
M  V30 9945 H 993.889 -3.48433 -3.92039 0
M  V30 9946 H 995.363 -2.2083 -5.05903 0
M  V30 9947 H 995.84 -0.671858 -4.34031 0
M  V30 9948 H 996.446 -2.19237 -3.64438 0
M  V30 9949 N 994.761 1.15782 -1.06922 0
M  V30 9950 C 995.709 2.22441 -0.679893 0
M  V30 9951 C 996.703 1.66591 0.307221 0
M  V30 9952 O 997.909 1.79182 0.171402 0
M  V30 9953 H 994.284 0.724427 -0.201765 0
M  V30 9954 H 996.255 2.52562 -1.58918 0
M  V30 9955 C 995.004 3.47586 -0.0891142 0
M  V30 9956 H 994.327 3.9088 -0.839805 0
M  V30 9957 H 995.767 4.2375 0.14569 0
M  V30 9958 C 994.226 3.15967 1.16903 0
M  V30 9959 O 994.756 3.32359 2.25611 0
M  V30 9960 N 992.962 2.70046 1.07349 0
M  V30 9961 H 992.509 2.56907 0.188825 0
M  V30 9962 H 992.467 2.49264 1.91611 0
M  V30 9963 N 996.239 0.8527 1.3254 0
M  V30 9964 C 997.485 0.455798 1.97612 0
M  V30 9965 C 997.818 -0.985616 1.6733 0
M  V30 9966 O 997.093 -1.69129 0.960493 0
M  V30 9967 C 997.376 0.69312 3.53366 0
M  V30 9968 C 997.229 2.18281 3.93285 0
M  V30 9969 C 998.548 0.148236 4.3985 0
M  V30 9970 H 995.667 0.167078 0.717812 0
M  V30 9971 H 998.309 1.07076 1.56954 0
M  V30 9972 H 996.459 0.169677 3.88129 0
M  V30 9973 H 998.131 2.77218 3.68711 0
M  V30 9974 H 996.374 2.66206 3.42515 0
M  V30 9975 H 997.045 2.29957 5.01821 0
M  V30 9976 H 999.521 0.595834 4.11812 0
M  V30 9977 H 998.397 0.343873 5.47822 0
M  V30 9978 H 998.658 -0.948872 4.31797 0
M  V30 9979 N 997.718 -1.45297 0.610449 0
M  V30 9980 C 998.946 -2.0659 0.113211 0
M  V30 9981 C 999.361 -1.4546 -1.20361 0
M  V30 9982 O 998.718 -0.569823 -1.73376 0
M  V30 9983 C 998.769 -3.61488 -0.0298411 0
M  V30 9984 O 998.49 -4.20336 1.23488 0
M  V30 9985 C 999.991 -4.39772 -0.558202 0
M  V30 9986 H 997.211 -0.667322 0.0701555 0
M  V30 9987 H 999.755 -1.86497 0.838993 0
M  V30 9988 H 997.91 -3.80913 -0.705963 0
M  V30 9989 H 998.324 -5.13545 1.0664 0
M  V30 9990 H 999.798 -5.48648 -0.607375 0
M  V30 9991 H 1000.27 -4.09755 -1.58107 0
M  V30 9992 H 1000.88 -4.25217 0.0839704 0
M  V30 9993 N 999.196 -0.349774 -1.5367 0
M  V30 9994 C 1000.13 0.496338 -2.28164 0
M  V30 9995 C 1001.11 1.09737 -1.29968 0
M  V30 9996 O 1002.29 1.11759 -1.58819 0
M  V30 9997 C 999.422 1.64428 -3.0591 0
M  V30 9998 C 998.376 1.17127 -4.11661 0
M  V30 9999 C 997.702 2.40822 -4.77398 0
M  V30 10000 C 999.002 0.267293 -5.21616 0
M  V30 10001 H 1000.7 -0.125117 -2.99138 0
M  V30 10002 H 998.242 -0.0616152 -1.43868 0
M  V30 10003 H 1000.19 2.2427 -3.56765 0
M  V30 10004 H 998.919 2.29272 -2.32598 0
M  V30 10005 H 997.578 0.595634 -3.61729 0
M  V30 10006 H 997.226 3.04088 -4.00674 0
M  V30 10007 H 996.926 2.09852 -5.48849 0
M  V30 10008 H 998.45 3.01378 -5.3104 0
M  V30 10009 H 999.864 0.772734 -5.68068 0
M  V30 10010 H 998.261 0.0491991 -6.0008 0
M  V30 10011 H 999.331 -0.694892 -4.79895 0
M  V30 10012 N 1000.67 1.57404 -0.0785433 0
M  V30 10013 C 1001.64 2.11977 0.871693 0
M  V30 10014 C 1002.64 1.04529 1.2219 0
M  V30 10015 O 1003.83 1.30488 1.15406 0
M  V30 10016 C 1000.96 2.6267 2.17296 0
M  V30 10017 H 1002.15 2.97246 0.398115 0
M  V30 10018 H 999.705 1.5537 0.170251 0
M  V30 10019 H 1000.44 1.80873 2.69175 0
M  V30 10020 H 1000.22 3.41214 1.93171 0
M  V30 10021 H 1001.71 3.04943 2.85306 0
M  V30 10022 N 1002.15 -0.195058 1.56388 0
M  V30 10023 C 1003.08 -1.24444 1.97575 0
M  V30 10024 C 1004.06 -1.47471 0.847717 0
M  V30 10025 O 1005.25 -1.59208 1.11205 0
M  V30 10026 C 1002.38 -2.58866 2.31529 0
M  V30 10027 C 1001.33 -2.50451 3.47071 0
M  V30 10028 C 1000.66 -3.89146 3.667 0
M  V30 10029 C 1001.96 -2.02953 4.81256 0
M  V30 10030 H 1003.65 -0.902178 2.85484 0
M  V30 10031 H 1001.2 -0.43254 1.3735 0
M  V30 10032 H 1003.15 -3.3246 2.58936 0
M  V30 10033 H 1001.87 -2.94833 1.40502 0
M  V30 10034 H 1000.53 -1.79313 3.19754 0
M  V30 10035 H 1000.18 -4.22466 2.73004 0
M  V30 10036 H 999.882 -3.84391 4.44429 0
M  V30 10037 H 1001.41 -4.64363 3.96484 0
M  V30 10038 H 1002.82 -2.66306 5.07695 0
M  V30 10039 H 1001.22 -2.092 5.62455 0
M  V30 10040 H 1002.29 -0.982757 4.74837 0
M  V30 10041 N 1003.63 -1.50653 -0.462772 0
M  V30 10042 C 1004.59 -1.69561 -1.54213 0
M  V30 10043 C 1005.59 -0.566106 -1.50505 0
M  V30 10044 O 1006.78 -0.833273 -1.52978 0
M  V30 10045 C 1003.91 -1.72856 -2.93826 0
M  V30 10046 H 1005.11 -2.65867 -1.38761 0
M  V30 10047 H 1002.66 -1.40259 -0.689728 0
M  V30 10048 H 1003.4 -0.78273 -3.14712 0
M  V30 10049 H 1003.18 -2.54919 -2.97924 0
M  V30 10050 H 1004.67 -1.89411 -3.72174 0
M  V30 10051 N 1005.11 0.71652 -1.4037 0
M  V30 10052 C 1006.52 1.29562 -1.34427 0
M  V30 10053 C 1006.87 1.96192 -0.0173106 0
M  V30 10054 O 1006 1.97488 0.884719 0
M  V30 10055 C 1006.59 2.35601 -2.4347 0
M  V30 10056 C 1005.15 2.89138 -2.4099 0
M  V30 10057 C 1004.3 1.62915 -2.24397 0
M  V30 10058 H 1007.25 0.512715 -1.5019 0
M  V30 10059 H 1007.27 3.16422 -2.11323 0
M  V30 10060 H 1006.78 1.87077 -3.40035 0
M  V30 10061 H 1004.88 3.41894 -1.4812 0
M  V30 10062 H 1004.99 3.40995 -3.3654 0
M  V30 10063 H 1003.36 1.87947 -1.71896 0
M  V30 10064 H 1004.14 1.16417 -3.22958 0
M  V30 10065 N 1006.59 1.25851 0.948643 0
M  V30 10066 C 1007.84 1.10347 1.68838 0
M  V30 10067 C 1008.15 -0.354262 1.92365 0
M  V30 10068 O 1009.35 -0.629847 2.64093 0
M  V30 10069 C 1007.81 1.92659 3.03991 0
M  V30 10070 C 1007.42 3.42962 2.88238 0
M  V30 10071 C 1009.16 1.85743 3.81707 0
M  V30 10072 C 1007.07 4.17547 4.18818 0
M  V30 10073 H 1006 0.409342 0.63321 0
M  V30 10074 H 1008.65 1.50098 1.05559 0
M  V30 10075 H 1007.03 1.45736 3.68208 0
M  V30 10076 H 1008.21 3.97601 2.32917 0
M  V30 10077 H 1006.52 3.51035 2.23972 0
M  V30 10078 H 1009.12 2.38758 4.78434 0
M  V30 10079 H 1009.46 0.826568 4.08012 0
M  V30 10080 H 1009.99 2.30449 3.2425 0
M  V30 10081 H 1006.73 5.21072 3.97699 0
M  V30 10082 H 1006.25 3.6769 4.73882 0
M  V30 10083 H 1007.93 4.25589 4.87322 0
M  V30 10084 N 1008.06 -1.15214 1.07534 0
M  V30 10085 C 1008.99 -2.2216 0.718837 0
M  V30 10086 C 1009.98 -1.6753 -0.29459 0
M  V30 10087 O 1011.16 -1.93481 -0.166931 0
M  V30 10088 C 1008.29 -3.471 0.117836 0
M  V30 10089 C 1007.24 -4.14701 1.05862 0
M  V30 10090 C 1006.57 -5.3374 0.320284 0
M  V30 10091 C 1007.87 -4.64254 2.39302 0
M  V30 10092 H 1009.56 -2.52237 1.61297 0
M  V30 10093 H 1007.11 -1.21239 0.776992 0
M  V30 10094 H 1009.06 -4.21156 -0.143519 0
M  V30 10095 H 1007.79 -3.16361 -0.811389 0
M  V30 10096 H 1006.45 -3.42589 1.30493 0
M  V30 10097 H 1006.09 -4.99257 -0.61246 0
M  V30 10098 H 1005.79 -5.79912 0.947381 0
M  V30 10099 H 1007.32 -6.10563 0.0667721 0
M  V30 10100 H 1008.73 -5.29827 2.18988 0
M  V30 10101 H 1007.13 -5.21095 2.97623 0
M  V30 10102 H 1008.2 -3.79793 3.01472 0
M  V30 10103 N 1009.54 -0.859717 -1.32086 0
M  V30 10104 C 1010.82 -0.386665 -1.9174 0
M  V30 10105 C 1011.2 1.13028 -1.78292 0
M  V30 10106 O 1010.55 1.95422 -1.18417 0
M  V30 10107 C 1010.76 -0.856648 -3.38323 0
M  V30 10108 C 1012.11 -0.87678 -4.15449 0
M  V30 10109 O 1013.13 -0.80162 -3.47063 0
M  V30 10110 O 1011.99 -0.98373 -5.37573 0
M  V30 10111 H 1009.08 -0.113758 -0.819139 0
M  V30 10112 H 1011.63 -0.946952 -1.40822 0
M  V30 10113 H 1010.4 -1.89996 -3.42078 0
M  V30 10114 H 1010.02 -0.274095 -3.96654 0
M  V30 10115 N 1011.02 1.44971 -0.618145 0
M  V30 10116 C 1012.3 1.95539 -0.0489895 0
M  V30 10117 C 1012.68 1.5604 1.42179 0
M  V30 10118 O 1012.03 0.82809 2.12967 0
M  V30 10119 C 1012.24 3.48044 -0.258193 0
M  V30 10120 C 1013.58 4.24354 -0.144541 0
M  V30 10121 O 1014.61 3.55699 -0.18887 0
M  V30 10122 O 1013.47 5.46486 -0.038519 0
M  V30 10123 H 1010.56 0.826466 0.0297256 0
M  V30 10124 H 1013.11 1.55086 -0.688944 0
M  V30 10125 H 1011.88 3.69798 -1.27926 0
M  V30 10126 H 1011.5 3.95412 0.416522 0
M  V30 10127 N 1012.5 0.357919 1.53482 0
M  V30 10128 C 1013.75 -0.2337 2.00744 0
M  V30 10129 C 1014.07 -1.49908 1.2471 0
M  V30 10130 O 1013.34 -1.92597 0.358235 0
M  V30 10131 H 1011.92 -0.0893474 0.741637 0
M  V30 10132 H 1014.58 0.482388 1.88836 0
M  V30 10133 H 1013.68 -0.466073 3.086 0
M  V30 10134 N 1013.98 -1.5736 0.0868897 0
M  V30 10135 C 1015.22 -1.95147 -0.573512 0
M  V30 10136 C 1015.58 -0.967591 -1.66299 0
M  V30 10137 O 1014.87 0.00774571 -1.91598 0
M  V30 10138 C 1015.06 -3.37316 -1.18123 0
M  V30 10139 C 1014.89 -4.49443 -0.152145 0
M  V30 10140 C 1013.66 -5.04586 0.268496 0
M  V30 10141 C 1015.86 -5.10592 0.616502 0
M  V30 10142 N 1013.84 -6.00264 1.28671 0
M  V30 10143 C 1015.21 -6.0191 1.48677 0
M  V30 10144 C 1017.27 -4.93359 0.67092 0
M  V30 10145 C 1015.97 -6.77844 2.40664 0
M  V30 10146 C 1018 -5.69949 1.57837 0
M  V30 10147 C 1017.36 -6.60927 2.43628 0
M  V30 10148 H 1013.46 -0.760898 -0.180439 0
M  V30 10149 H 1016.04 -1.93978 0.167548 0
M  V30 10150 H 1014.21 -3.39194 -1.89214 0
M  V30 10151 H 1015.95 -3.62301 -1.80332 0
M  V30 10152 H 1012.7 -4.73454 -0.117625 0
M  V30 10153 H 1013.13 -6.52804 1.79377 0
M  V30 10154 H 1017.77 -4.22794 0.0218207 0
M  V30 10155 H 1015.49 -7.47677 3.06603 0
M  V30 10156 H 1019.07 -5.58631 1.6255 0
M  V30 10157 H 1017.95 -7.19156 3.12705 0
M  V30 10158 N 1015.45 0.186762 -1.56489 0
M  V30 10159 C 1016.69 0.912523 -1.829 0
M  V30 10160 C 1017.06 1.80094 -0.665598 0
M  V30 10161 O 1018.26 2.56312 -0.809787 0
M  V30 10162 C 1016.53 1.70022 -3.14368 0
M  V30 10163 S 1018.09 2.47686 -3.62211 0
M  V30 10164 H 1014.91 0.305916 -0.641823 0
M  V30 10165 H 1017.51 0.175289 -1.94713 0
M  V30 10166 H 1016.21 1.03832 -3.97048 0
M  V30 10167 H 1015.74 2.47912 -3.05456 0
M  V30 10168 H 1017.76 3.72058 -3.28309 0
M  V30 10169 N 1016.93 1.50896 0.454776 0
M  V30 10170 C 1017.88 1.70947 1.55067 0
M  V30 10171 C 1018.85 0.550899 1.56698 0
M  V30 10172 O 1020.03 0.783352 1.73978 0
M  V30 10173 C 1017.17 1.82455 2.92924 0
M  V30 10174 C 1016.29 3.09919 3.00956 0
M  V30 10175 C 1015.42 3.12125 4.29827 0
M  V30 10176 C 1014.46 4.33975 4.31662 0
M  V30 10177 N 1013.6 4.33828 5.5203 0
M  V30 10178 H 1018.44 2.645 1.37273 0
M  V30 10179 H 1015.98 1.31101 0.667148 0
M  V30 10180 H 1017.93 1.87108 3.72889 0
M  V30 10181 H 1016.56 0.92327 3.09315 0
M  V30 10182 H 1015.62 3.14659 2.13761 0
M  V30 10183 H 1016.93 3.99869 2.98172 0
M  V30 10184 H 1016.08 3.15598 5.18154 0
M  V30 10185 H 1014.82 2.20033 4.35243 0
M  V30 10186 H 1013.83 4.30697 3.41731 0
M  V30 10187 H 1015.05 5.27312 4.27924 0
M  V30 10188 H 1013 3.44598 5.58201 0
M  V30 10189 H 1012.91 5.17566 5.51055 0
M  V30 10190 H 1014.18 4.4147 6.42437 0
M  V30 10191 N 1018.41 -0.709066 1.40748 0
M  V30 10192 C 1019.32 -1.85314 1.43861 0
M  V30 10193 C 1020.34 -1.70832 0.330539 0
M  V30 10194 O 1021.51 -1.92983 0.576152 0
M  V30 10195 C 1018.58 -3.21174 1.30568 0
M  V30 10196 C 1017.64 -3.47863 2.51574 0
M  V30 10197 C 1016.87 -4.77241 2.38906 0
M  V30 10198 O 1017.09 -5.52791 1.40636 0
M  V30 10199 O 1016.03 -5.04413 3.28407 0
M  V30 10200 H 1019.85 -1.85644 2.40354 0
M  V30 10201 H 1017.44 -0.860352 1.2214 0
M  V30 10202 H 1019.32 -4.02313 1.25388 0
M  V30 10203 H 1018 -3.21557 0.371841 0
M  V30 10204 H 1016.9 -2.66708 2.62331 0
M  V30 10205 H 1018.24 -3.52283 3.43741 0
M  V30 10206 N 1019.89 -1.26353 -0.941956 0
M  V30 10207 C 1021.31 -1.03448 -1.21534 0
M  V30 10208 C 1021.51 0.240855 -2.00055 0
M  V30 10209 O 1020.56 0.950199 -2.33939 0
M  V30 10210 C 1021.87 -2.2654 -1.97737 0
M  V30 10211 C 1023.42 -2.31433 -2.10731 0
M  V30 10212 C 1023.9 -3.54216 -2.90336 0
M  V30 10213 N 1025.39 -3.54688 -2.9791 0
M  V30 10214 C 1026.12 -4.4636 -3.59931 0
M  V30 10215 N 1025.62 -5.48319 -4.2346 0
M  V30 10216 N 1027.41 -4.34013 -3.57196 0
M  V30 10217 H 1019.56 -2.08266 -0.417005 0
M  V30 10218 H 1021.83 -0.915251 -0.247021 0
M  V30 10219 H 1021.53 -3.19299 -1.47449 0
M  V30 10220 H 1021.41 -2.30726 -2.98405 0
M  V30 10221 H 1023.79 -1.3919 -2.60212 0
M  V30 10222 H 1023.87 -2.31259 -1.09329 0
M  V30 10223 H 1023.52 -4.46788 -2.41543 0
M  V30 10224 H 1023.45 -3.51637 -3.91993 0
M  V30 10225 H 1025.94 -2.80942 -2.52745 0
M  V30 10226 H 1026.25 -6.14458 -4.6868 0
M  V30 10227 H 1024.6 -5.52177 -4.22049 0
M  V30 10228 H 1027.79 -3.53578 -3.06758 0
M  V30 10229 H 1027.96 -5.0565 -4.05244 0
M  V30 10230 N 1021.37 1.14642 -1.08144 0
M  V30 10231 C 1022.6 1.89484 -0.830864 0
M  V30 10232 C 1023.01 1.78443 0.616722 0
M  V30 10233 O 1022.37 1.14191 1.42361 0
M  V30 10234 C 1022.42 3.39554 -1.24039 0
M  V30 10235 O 1022.14 3.50286 -2.63119 0
M  V30 10236 C 1023.64 4.31399 -1.02029 0
M  V30 10237 H 1020.86 0.600283 -0.299835 0
M  V30 10238 H 1023.4 1.45204 -1.44001 0
M  V30 10239 H 1021.56 3.81467 -0.675407 0
M  V30 10240 H 1021.97 4.43481 -2.80045 0
M  V30 10241 H 1023.45 5.35079 -1.35625 0
M  V30 10242 H 1023.92 4.39179 0.0428697 0
M  V30 10243 H 1024.53 3.95238 -1.57057 0
M  V30 10244 N 1022.85 0.866709 1.31628 0
M  V30 10245 C 1023.78 0.335762 2.31073 0
M  V30 10246 C 1024.76 -0.571597 1.60209 0
M  V30 10247 O 1025.94 -0.489306 1.87935 0
M  V30 10248 C 1023.07 -0.466416 3.44154 0
M  V30 10249 C 1022.03 0.347561 4.26586 0
M  V30 10250 C 1021.35 -0.5801 5.31544 0
M  V30 10251 C 1022.65 1.57986 4.97833 0
M  V30 10252 H 1024.35 1.16673 2.75731 0
M  V30 10253 H 1021.89 0.56248 1.3256 0
M  V30 10254 H 1023.84 -0.84836 4.12772 0
M  V30 10255 H 1022.57 -1.33086 2.98254 0
M  V30 10256 H 1021.23 0.71141 3.59631 0
M  V30 10257 H 1020.88 -1.44174 4.81895 0
M  V30 10258 H 1020.58 -0.0393965 5.87587 0
M  V30 10259 H 1022.1 -0.958958 6.03023 0
M  V30 10260 H 1023.51 1.26954 5.59067 0
M  V30 10261 H 1021.91 2.05939 5.63657 0
M  V30 10262 H 1022.98 2.3345 4.25005 0
M  V30 10263 N 1024.32 -1.44642 0.625825 0
M  V30 10264 C 1025.6 -1.9551 0.0593587 0
M  V30 10265 C 1025.98 -1.56792 -1.41349 0
M  V30 10266 O 1025.33 -0.839373 -2.12525 0
M  V30 10267 C 1025.54 -3.47902 0.276647 0
M  V30 10268 C 1026.89 -4.24271 0.167044 0
M  V30 10269 O 1027.91 -3.55594 0.207731 0
M  V30 10270 O 1026.77 -5.46458 0.0675 0
M  V30 10271 H 1023.86 -0.826612 -0.0253422 0
M  V30 10272 H 1026.41 -1.54718 0.697159 0
M  V30 10273 H 1025.18 -3.69115 1.29885 0
M  V30 10274 H 1024.8 -3.95628 -0.395547 0
M  V30 10275 N 1025.8 -0.366053 -1.5329 0
M  V30 10276 C 1026.75 0.495319 -2.27265 0
M  V30 10277 C 1027.74 1.08298 -1.30261 0
M  V30 10278 O 1028.95 1.02613 -1.47887 0
M  V30 10279 H 1025.32 0.178454 -0.730519 0
M  V30 10280 H 1027.3 -0.150354 -2.98021 0
M  V30 10281 C 1026.04 1.62283 -3.07505 0
M  V30 10282 H 1025.37 1.17993 -3.81992 0
M  V30 10283 H 1026.81 2.20024 -3.62444 0
M  V30 10284 C 1025.27 2.56542 -2.18375 0
M  V30 10285 O 1025.8 3.59371 -1.79486 0
M  V30 10286 N 1024 2.25742 -1.82999 0
M  V30 10287 H 1023.55 1.42159 -2.14822 0
M  V30 10288 H 1023.51 2.89064 -1.2365 0
M  V30 10289 N 1027.28 1.57312 -0.0952337 0
M  V30 10290 C 1028.21 2.11059 0.893678 0
M  V30 10291 C 1029.22 1.04787 1.24594 0
M  V30 10292 O 1030.41 1.32233 1.19903 0
M  V30 10293 C 1027.51 2.57552 2.20272 0
M  V30 10294 C 1026.69 3.87661 2.02578 0
M  V30 10295 C 1025.75 4.2 3.16996 0
M  V30 10296 O 1024.77 4.89219 2.90953 0
M  V30 10297 N 1025.97 3.75414 4.42769 0
M  V30 10298 H 1028.74 2.96532 0.434632 0
M  V30 10299 H 1026.3 1.6165 0.0898661 0
M  V30 10300 H 1028.29 2.76232 2.95766 0
M  V30 10301 H 1026.86 1.7709 2.576 0
M  V30 10302 H 1026.08 3.78128 1.11413 0
M  V30 10303 H 1027.37 4.7278 1.88032 0
M  V30 10304 H 1026.77 3.1954 4.66809 0
M  V30 10305 H 1025.32 3.99249 5.15212 0
M  V30 10306 N 1028.76 -0.17846 1.56586 0
M  V30 10307 C 1029.69 -1.22342 1.98884 0
M  V30 10308 C 1030.67 -1.46564 0.86331 0
M  V30 10309 O 1031.85 -1.58019 1.12887 0
M  V30 10310 C 1028.98 -2.56396 2.34261 0
M  V30 10311 C 1027.94 -2.46756 3.49708 0
M  V30 10312 C 1027.26 -3.85235 3.70807 0
M  V30 10313 C 1028.56 -1.97838 4.83381 0
M  V30 10314 H 1030.26 -0.871848 2.86425 0
M  V30 10315 H 1027.8 -0.417948 1.37801 0
M  V30 10316 H 1029.76 -3.29695 2.62448 0
M  V30 10317 H 1028.48 -2.93327 1.43621 0
M  V30 10318 H 1027.14 -1.75912 3.21637 0
M  V30 10319 H 1026.79 -4.19547 2.7747 0
M  V30 10320 H 1026.49 -3.79655 4.48481 0
M  V30 10321 H 1028.01 -4.60131 4.01387 0
M  V30 10322 H 1029.43 -2.60906 5.10491 0
M  V30 10323 H 1027.82 -2.03223 5.64642 0
M  V30 10324 H 1028.89 -0.932339 4.75852 0
M  V30 10325 N 1030.24 -1.51135 -0.446768 0
M  V30 10326 C 1031.48 -1.63336 -1.19698 0
M  V30 10327 C 1031.81 -0.345099 -1.91414 0
M  V30 10328 O 1031.07 0.670365 -1.8386 0
M  V30 10329 C 1031.36 -2.78034 -2.2457 0
M  V30 10330 C 1031.03 -4.17652 -1.69934 0
M  V30 10331 C 1029.69 -4.55636 -1.54756 0
M  V30 10332 C 1032.04 -5.04813 -1.29665 0
M  V30 10333 C 1029.37 -5.78496 -0.977689 0
M  V30 10334 C 1031.72 -6.28244 -0.741112 0
M  V30 10335 C 1030.39 -6.65009 -0.576156 0
M  V30 10336 H 1029.66 -0.597689 -0.438006 0
M  V30 10337 H 1032.31 -1.85141 -0.48939 0
M  V30 10338 H 1030.61 -2.50413 -3.01331 0
M  V30 10339 H 1032.31 -2.84675 -2.8242 0
M  V30 10340 H 1028.9 -3.87699 -1.82722 0
M  V30 10341 H 1033.08 -4.76081 -1.40216 0
M  V30 10342 H 1028.34 -6.05636 -0.837563 0
M  V30 10343 H 1032.51 -6.95129 -0.42053 0
M  V30 10344 H 1030.14 -7.60085 -0.132443 0
M  V30 10345 N 1031.71 0.701592 -1.41122 0
M  V30 10346 C 1032.96 1.4616 -1.40155 0
M  V30 10347 C 1033.29 1.94498 -0.00861553 0
M  V30 10348 O 1032.54 1.69484 0.978452 0
M  V30 10349 C 1032.84 2.693 -2.34973 0
M  V30 10350 C 1032.51 2.39652 -3.81939 0
M  V30 10351 C 1031.17 2.31277 -4.21977 0
M  V30 10352 C 1033.52 2.15076 -4.74755 0
M  V30 10353 C 1030.85 1.96413 -5.52846 0
M  V30 10354 C 1033.2 1.81722 -6.05937 0
M  V30 10355 C 1031.87 1.71838 -6.45002 0
M  V30 10356 H 1031.14 0.534837 -0.512865 0
M  V30 10357 H 1033.78 0.802425 -1.73878 0
M  V30 10358 H 1032.09 3.40123 -1.94484 0
M  V30 10359 H 1033.79 3.27427 -2.31501 0
M  V30 10360 H 1030.38 2.47063 -3.50226 0
M  V30 10361 H 1034.56 2.20495 -4.4463 0
M  V30 10362 H 1029.82 1.87308 -5.82001 0
M  V30 10363 H 1033.99 1.61723 -6.77362 0
M  V30 10364 H 1031.62 1.44591 -7.46323 0
M  V30 10365 N 1033.19 1.2685 0.935242 0
M  V30 10366 C 1034.44 1.12745 1.68211 0
M  V30 10367 C 1034.77 -0.328128 1.91712 0
M  V30 10368 O 1034.02 -1.25701 1.49993 0
M  V30 10369 C 1034.32 1.8482 3.05903 0
M  V30 10370 C 1033.99 3.347 3.02137 0
M  V30 10371 C 1032.65 3.75583 3.00817 0
M  V30 10372 C 1035 4.30368 2.93995 0
M  V30 10373 C 1032.33 5.10511 2.89129 0
M  V30 10374 C 1034.68 5.65343 2.83848 0
M  V30 10375 C 1033.34 6.0553 2.80874 0
M  V30 10376 H 1032.61 0.412563 0.615527 0
M  V30 10377 H 1035.26 1.57366 1.09124 0
M  V30 10378 H 1033.57 1.32685 3.68649 0
M  V30 10379 H 1035.26 1.71341 3.62551 0
M  V30 10380 H 1031.85 3.02182 3.03947 0
M  V30 10381 H 1036.04 3.9976 2.94118 0
M  V30 10382 H 1031.29 5.40802 2.85208 0
M  V30 10383 H 1035.47 6.39151 2.76512 0
M  V30 10384 H 1033.09 7.10037 2.71573 0
M  V30 10385 N 1034.67 -1.14067 1.0875 0
M  V30 10386 C 1035.6 -2.21385 0.74236 0
M  V30 10387 C 1036.58 -1.67833 -0.276805 0
M  V30 10388 O 1037.77 -1.93647 -0.1464 0
M  V30 10389 C 1034.9 -3.46956 0.154644 0
M  V30 10390 C 1033.85 -4.13555 1.10255 0
M  V30 10391 C 1033.18 -5.3337 0.376877 0
M  V30 10392 C 1034.48 -4.6169 2.44213 0
M  V30 10393 H 1036.17 -2.50512 1.63964 0
M  V30 10394 H 1033.72 -1.20408 0.789807 0
M  V30 10395 H 1035.67 -4.21284 -0.0988419 0
M  V30 10396 H 1034.39 -3.17203 -0.777789 0
M  V30 10397 H 1033.05 -3.41186 1.34119 0
M  V30 10398 H 1032.7 -4.99879 -0.559472 0
M  V30 10399 H 1032.4 -5.78875 1.00884 0
M  V30 10400 H 1033.92 -6.10458 0.131527 0
M  V30 10401 H 1035.34 -5.27475 2.24595 0
M  V30 10402 H 1033.74 -5.17909 3.03134 0
M  V30 10403 H 1034.81 -3.76574 3.05483 0
M  V30 10404 N 1036.15 -0.873678 -1.31166 0
M  V30 10405 C 1037.39 -0.487178 -1.96861 0
M  V30 10406 C 1037.73 0.95887 -1.68877 0
M  V30 10407 O 1037 1.6758 -0.987279 0
M  V30 10408 C 1037.29 -0.74925 -3.52219 0
M  V30 10409 C 1037.14 -2.2451 -3.89763 0
M  V30 10410 C 1038.46 -0.218194 -4.39559 0
M  V30 10411 H 1035.58 -0.178477 -0.715063 0
M  V30 10412 H 1038.22 -1.0956 -1.55231 0
M  V30 10413 H 1036.37 -0.231403 -3.8781 0
M  V30 10414 H 1038.04 -2.83049 -3.64254 0
M  V30 10415 H 1036.28 -2.71621 -3.38237 0
M  V30 10416 H 1036.95 -2.37911 -4.98099 0
M  V30 10417 H 1039.43 -0.661274 -4.10812 0
M  V30 10418 H 1038.31 -0.430983 -5.47205 0
M  V30 10419 H 1038.57 0.880056 -4.33252 0
M  V30 10420 N 1037.63 1.44308 -0.633487 0
M  V30 10421 C 1038.54 2.34492 0.0711787 0
M  V30 10422 C 1039.55 1.52754 0.8332 0
M  V30 10423 O 1040.73 1.85475 0.784929 0
M  V30 10424 C 1037.79 3.30767 1.03895 0
M  V30 10425 C 1036.85 4.28412 0.276043 0
M  V30 10426 C 1036.09 5.20087 1.19772 0
M  V30 10427 O 1036.31 5.15743 2.4365 0
M  V30 10428 O 1035.24 5.98038 0.680764 0
M  V30 10429 H 1039.07 2.96203 -0.67063 0
M  V30 10430 H 1036.66 1.4412 -0.393678 0
M  V30 10431 H 1038.54 3.90021 1.59566 0
M  V30 10432 H 1037.21 2.71586 1.76133 0
M  V30 10433 H 1036.12 3.72696 -0.32377 0
M  V30 10434 H 1037.45 4.9052 -0.406364 0
M  V30 10435 N 1039.1 0.374177 1.53094 0
M  V30 10436 C 1040.38 -0.269632 1.93733 0
M  V30 10437 C 1040.76 -1.6566 1.30843 0
M  V30 10438 O 1040.11 -2.23598 0.470759 0
M  V30 10439 C 1040.32 -0.311204 3.4761 0
M  V30 10440 C 1041.67 -0.547432 4.21056 0
M  V30 10441 O 1042.69 -0.392053 3.54036 0
M  V30 10442 O 1041.55 -0.850645 5.39839 0
M  V30 10443 H 1038.64 -0.163723 0.810632 0
M  V30 10444 H 1041.19 0.427586 1.64225 0
M  V30 10445 H 1039.96 0.660897 3.85678 0
M  V30 10446 H 1039.59 -1.05397 3.83376 0
M  V30 10447 N 1040.58 -1.57259 0.103575 0
M  V30 10448 C 1041.86 -1.86143 -0.600852 0
M  V30 10449 C 1042.24 -1.00198 -1.85805 0
M  V30 10450 O 1041.59 -0.0766791 -2.28371 0
M  V30 10451 C 1041.8 -3.36978 -0.908108 0
M  V30 10452 C 1043.15 -4.05228 -1.26788 0
M  V30 10453 O 1044.17 -3.41908 -0.998859 0
M  V30 10454 O 1043.03 -5.16971 -1.7721 0
M  V30 10455 H 1040.12 -0.770064 -0.301547 0
M  V30 10456 H 1042.67 -1.69147 0.136914 0
M  V30 10457 H 1041.44 -3.91296 -0.0165615 0
M  V30 10458 H 1041.06 -3.5935 -1.70156 0
M  V30 10459 N 1042.06 0.170153 -1.56679 0
M  V30 10460 C 1043.02 1.19443 -1.95617 0
M  V30 10461 C 1044.02 1.37118 -0.83996 0
M  V30 10462 O 1045.21 1.34504 -1.10699 0
M  V30 10463 C 1042.35 2.55926 -2.25199 0
M  V30 10464 H 1043.54 0.86095 -2.87276 0
M  V30 10465 H 1041.09 0.412646 -1.50755 0
M  V30 10466 H 1041.83 2.94286 -1.36257 0
M  V30 10467 H 1041.61 2.44464 -3.06562 0
M  V30 10468 H 1043.1 3.29742 -2.56242 0
M  V30 10469 N 1043.54 1.5137 0.438746 0
M  V30 10470 C 1044.95 1.39514 0.775116 0
M  V30 10471 C 1045.15 0.47638 1.95788 0
M  V30 10472 O 1044.21 -0.0689832 2.52406 0
M  V30 10473 C 1045.52 2.81517 1.05681 0
M  V30 10474 C 1047.07 2.90658 1.16133 0
M  V30 10475 C 1047.55 4.33566 1.47597 0
M  V30 10476 N 1049.04 4.36665 1.54524 0
M  V30 10477 C 1049.77 5.4427 1.80438 0
M  V30 10478 N 1049.27 6.62037 2.04154 0
M  V30 10479 N 1051.06 5.31749 1.82208 0
M  V30 10480 H 1043.21 2.09657 -0.340237 0
M  V30 10481 H 1045.48 0.943736 -0.0898115 0
M  V30 10482 H 1045.18 3.50734 0.260441 0
M  V30 10483 H 1045.06 3.20757 1.98481 0
M  V30 10484 H 1047.44 2.2164 1.94833 0
M  V30 10485 H 1047.52 2.54917 0.212376 0
M  V30 10486 H 1047.17 5.03133 0.694251 0
M  V30 10487 H 1047.1 4.66819 2.43696 0
M  V30 10488 H 1049.59 3.51761 1.38105 0
M  V30 10489 H 1049.9 7.39838 2.23293 0
M  V30 10490 H 1048.25 6.65155 2.01479 0
M  V30 10491 H 1051.44 4.3873 1.63198 0
M  V30 10492 H 1051.61 6.15689 2.02067 0
M  V30 10493 N 1045.02 -0.694098 1.41492 0
M  V30 10494 C 1046.26 -1.45127 1.4065 0
M  V30 10495 C 1046.59 -1.94993 0.0170289 0
M  V30 10496 O 1045.86 -1.71799 -0.941372 0
M  V30 10497 H 1044.44 -0.538493 0.51772 0
M  V30 10498 H 1047.1 -0.821441 1.76744 0
M  V30 10499 H 1046.19 -2.31372 2.0946 0
M  V30 10500 N 1046.49 -1.27344 -0.928501 0
M  V30 10501 C 1047.72 -1.16447 -1.7102 0
M  V30 10502 C 1048.14 0.278799 -1.8673 0
M  V30 10503 O 1047.49 1.18989 -1.38376 0
M  V30 10504 C 1047.55 -1.84242 -3.11026 0
M  V30 10505 O 1047.27 -3.2293 -2.96054 0
M  V30 10506 C 1048.77 -1.7946 -4.05351 0
M  V30 10507 H 1045.99 -0.404898 -0.535069 0
M  V30 10508 H 1048.53 -1.68201 -1.16313 0
M  V30 10509 H 1046.69 -1.36395 -3.62595 0
M  V30 10510 H 1047.1 -3.5667 -3.8456 0
M  V30 10511 H 1048.57 -2.31511 -5.01105 0
M  V30 10512 H 1049.05 -0.763771 -4.32508 0
M  V30 10513 H 1049.66 -2.26918 -3.59706 0
M  V30 10514 N 1047.97 1.13488 -1.09353 0
M  V30 10515 C 1049.22 1.85022 -0.830354 0
M  V30 10516 C 1049.55 1.83266 0.64242 0
M  V30 10517 O 1048.83 1.27024 1.47293 0
M  V30 10518 C 1049.11 3.33218 -1.36521 0
M  V30 10519 C 1048.96 3.43491 -2.90404 0
M  V30 10520 C 1050.28 4.28626 -0.998381 0
M  V30 10521 H 1047.4 0.671786 -0.303105 0
M  V30 10522 H 1050.04 1.33211 -1.3548 0
M  V30 10523 H 1048.19 3.77471 -0.919117 0
M  V30 10524 H 1049.86 3.07954 -3.43456 0
M  V30 10525 H 1048.11 2.84391 -3.27573 0
M  V30 10526 H 1048.78 4.47702 -3.22905 0
M  V30 10527 H 1051.25 3.9244 -1.38311 0
M  V30 10528 H 1050.13 5.30754 -1.39968 0
M  V30 10529 H 1050.39 4.42001 0.093517 0
M  V30 10530 N 1049.45 0.880621 1.30701 0
M  V30 10531 C 1050.7 0.497611 1.966 0
M  V30 10532 C 1051.03 -0.949901 1.69383 0
M  V30 10533 O 1050.31 -1.67054 0.996152 0
M  V30 10534 C 1050.59 0.767919 3.51817 0
M  V30 10535 C 1050.44 2.26574 3.88567 0
M  V30 10536 C 1051.76 0.241502 4.39437 0
M  V30 10537 H 1048.88 0.182267 0.714106 0
M  V30 10538 H 1051.52 1.10382 1.54648 0
M  V30 10539 H 1049.67 0.251967 3.87682 0
M  V30 10540 H 1051.34 2.84977 3.62748 0
M  V30 10541 H 1049.59 2.73411 3.36792 0
M  V30 10542 H 1050.26 2.40549 4.9683 0
M  V30 10543 H 1052.73 0.683051 4.10455 0
M  V30 10544 H 1051.61 0.459997 5.46969 0
M  V30 10545 H 1051.87 -0.857068 4.33713 0
M  V30 10546 N 1050.93 -1.4397 0.641131 0
M  V30 10547 C 1051.86 -2.33458 -0.04446 0
M  V30 10548 C 1052.84 -1.48781 -0.824507 0
M  V30 10549 O 1054.03 -1.77477 -0.788397 0
M  V30 10550 C 1051.16 -3.31989 -1.01984 0
M  V30 10551 C 1050.11 -4.2656 -0.350745 0
M  V30 10552 C 1049.44 -5.15036 -1.43673 0
M  V30 10553 C 1050.74 -5.16897 0.749299 0
M  V30 10554 H 1052.43 -2.91034 0.702832 0
M  V30 10555 H 1049.98 -1.39942 0.339435 0
M  V30 10556 H 1051.93 -3.93483 -1.50828 0
M  V30 10557 H 1050.65 -2.72643 -1.79815 0
M  V30 10558 H 1049.31 -3.66413 0.117139 0
M  V30 10559 H 1048.96 -4.52037 -2.20617 0
M  V30 10560 H 1048.66 -5.79125 -0.994358 0
M  V30 10561 H 1050.18 -5.79403 -1.92678 0
M  V30 10562 H 1051.6 -5.7227 0.343534 0
M  V30 10563 H 1049.99 -5.89643 1.11541 0
M  V30 10564 H 1051.06 -4.5731 1.61232 0
M  V30 10565 N 1052.41 -0.382291 -1.52893 0
M  V30 10566 C 1053.82 -0.031941 -1.59568 0
M  V30 10567 C 1054.02 1.45245 -1.39664 0
M  V30 10568 O 1053.08 2.21612 -1.21013 0
M  V30 10569 C 1054.39 -0.502846 -2.96466 0
M  V30 10570 C 1055.94 -0.4585 -3.09624 0
M  V30 10571 C 1056.42 -0.905481 -4.4896 0
M  V30 10572 N 1057.91 -0.861211 -4.55124 0
M  V30 10573 C 1058.64 -1.17856 -5.61157 0
M  V30 10574 N 1058.14 -1.56603 -6.74868 0
M  V30 10575 N 1059.93 -1.10027 -5.51226 0
M  V30 10576 H 1052.08 -1.34875 -1.64081 0
M  V30 10577 H 1054.34 -0.552375 -0.770446 0
M  V30 10578 H 1054.05 -1.53931 -3.16225 0
M  V30 10579 H 1053.92 0.101777 -3.77063 0
M  V30 10580 H 1056.31 0.568868 -2.89565 0
M  V30 10581 H 1056.39 -1.09884 -2.30996 0
M  V30 10582 H 1056.04 -1.93105 -4.69759 0
M  V30 10583 H 1055.97 -0.242227 -5.26043 0
M  V30 10584 H 1058.46 -0.575988 -3.73485 0
M  V30 10585 H 1058.77 -1.792 -7.51736 0
M  V30 10586 H 1057.12 -1.60484 -6.76217 0
M  V30 10587 H 1060.31 -0.796623 -4.61272 0
M  V30 10588 H 1060.48 -1.35091 -6.33762 0
M  V30 10589 N 1053.89 1.57202 -0.111913 0
M  V30 10590 C 1055.13 1.95239 0.548607 0
M  V30 10591 C 1055.46 0.994897 1.6678 0
M  V30 10592 O 1054.74 0.0308603 1.94476 0
M  V30 10593 C 1055.02 3.43271 1.08798 0
M  V30 10594 C 1054.88 4.49792 -0.0273064 0
M  V30 10595 C 1056.19 3.92989 1.98109 0
M  V30 10596 H 1053.31 0.709919 0.197951 0
M  V30 10597 H 1055.96 1.89087 -0.186036 0
M  V30 10598 H 1054.11 3.48644 1.71404 0
M  V30 10599 H 1055.78 4.56521 -0.662302 0
M  V30 10600 H 1054.02 4.28254 -0.691426 0
M  V30 10601 H 1054.69 5.50612 0.391201 0
M  V30 10602 H 1057.17 3.89875 1.45385 0
M  V30 10603 H 1056.04 4.97101 2.32769 0
M  V30 10604 H 1056.3 3.33267 2.90492 0
M  V30 10605 N 1055.36 -0.161842 1.56767 0
M  V30 10606 C 1056.78 -0.51396 1.51098 0
M  V30 10607 C 1056.98 -1.84158 0.817815 0
M  V30 10608 O 1056.04 -2.49592 0.382133 0
M  V30 10609 C 1057.35 -0.537966 2.95849 0
M  V30 10610 C 1058.9 -0.624512 3.06706 0
M  V30 10611 C 1059.37 -0.679322 4.52934 0
M  V30 10612 N 1060.86 -0.741953 4.57219 0
M  V30 10613 C 1061.6 -0.805096 5.6772 0
M  V30 10614 N 1061.09 -0.828492 6.87828 0
M  V30 10615 N 1062.89 -0.844843 5.55715 0
M  V30 10616 H 1055.04 0.708581 2.00232 0
M  V30 10617 H 1057.3 0.25663 0.912603 0
M  V30 10618 H 1057.01 0.369052 3.49758 0
M  V30 10619 H 1056.88 -1.38113 3.51005 0
M  V30 10620 H 1059.27 -1.52195 2.52825 0
M  V30 10621 H 1059.35 0.245515 2.54619 0
M  V30 10622 H 1058.99 0.213901 5.07449 0
M  V30 10623 H 1058.92 -1.56563 5.02788 0
M  V30 10624 H 1061.41 -0.731772 3.70747 0
M  V30 10625 H 1061.73 -0.878109 7.67795 0
M  V30 10626 H 1060.07 -0.796612 6.9042 0
M  V30 10627 H 1063.26 -0.823632 4.60797 0
M  V30 10628 H 1063.44 -0.890588 6.41851 0
M  V30 10629 N 1056.84 -1.516 -0.430713 0
M  V30 10630 C 1058.25 -1.57 -1.01035 0
M  V30 10631 C 1058.6 -0.397439 -1.92132 0
M  V30 10632 O 1057.73 0.484954 -2.10896 0
M  V30 10633 C 1058.32 -2.84536 -1.83915 0
M  V30 10634 C 1056.88 -2.92485 -2.36917 0
M  V30 10635 C 1056.03 -2.5173 -1.16308 0
M  V30 10636 H 1058.98 -1.57281 -0.211734 0
M  V30 10637 H 1059 -2.68672 -2.69435 0
M  V30 10638 H 1058.51 -3.69858 -1.17586 0
M  V30 10639 H 1056.61 -2.11608 -3.0668 0
M  V30 10640 H 1056.73 -3.96277 -2.6926 0
M  V30 10641 H 1055.09 -2.05079 -1.51045 0
M  V30 10642 H 1055.87 -3.39403 -0.515793 0
M  V30 10643 N 1058.32 0.686584 -1.41858 0
M  V30 10644 C 1059.25 1.81202 -1.40352 0
M  V30 10645 C 1060.26 1.5993 -0.304322 0
M  V30 10646 O 1061.45 1.69267 -0.566643 0
M  V30 10647 C 1058.55 3.18116 -1.16856 0
M  V30 10648 C 1057.73 3.66339 -2.38987 0
M  V30 10649 C 1056.79 4.8195 -2.11212 0
M  V30 10650 O 1055.81 4.93102 -2.84323 0
M  V30 10651 N 1057.01 5.69829 -1.10793 0
M  V30 10652 H 1059.78 1.82983 -2.37355 0
M  V30 10653 H 1057.34 0.869244 -1.36586 0
M  V30 10654 H 1059.33 3.93097 -0.962125 0
M  V30 10655 H 1057.9 3.11306 -0.284186 0
M  V30 10656 H 1057.12 2.82166 -2.75274 0
M  V30 10657 H 1058.41 3.95297 -3.2034 0
M  V30 10658 H 1057.81 5.63459 -0.503012 0
M  V30 10659 H 1056.36 6.44671 -0.961379 0
M  V30 10660 N 1059.8 1.27835 0.921735 0
M  V30 10661 C 1060.71 1.12904 2.05645 0
M  V30 10662 C 1061.72 0.0575704 1.73905 0
M  V30 10663 O 1062.9 0.265261 1.99645 0
M  V30 10664 C 1059.96 0.783957 3.3772 0
M  V30 10665 C 1059.03 1.93694 3.8312 0
M  V30 10666 C 1058.26 1.60823 5.08893 0
M  V30 10667 O 1058.48 0.518873 5.68035 0
M  V30 10668 O 1057.42 2.44932 5.49811 0
M  V30 10669 H 1061.24 2.08143 2.21157 0
M  V30 10670 H 1058.83 1.07078 1.04185 0
M  V30 10671 H 1060.71 0.605107 4.17033 0
M  V30 10672 H 1059.38 -0.138849 3.23402 0
M  V30 10673 H 1058.29 2.17089 3.04669 0
M  V30 10674 H 1059.62 2.84016 4.0199 0
M  V30 10675 N 1061.28 -1.12907 1.09954 0
M  V30 10676 C 1062.22 -2.18485 0.743848 0
M  V30 10677 C 1063.19 -1.63766 -0.277494 0
M  V30 10678 O 1064.38 -1.90146 -0.157899 0
M  V30 10679 C 1061.52 -3.44649 0.176437 0
M  V30 10680 C 1060.63 -4.13445 1.25248 0
M  V30 10681 C 1059.77 -5.27242 0.647242 0
M  V30 10682 C 1058.8 -5.87897 1.70421 0
M  V30 10683 N 1057.94 -6.93116 1.1196 0
M  V30 10684 H 1062.78 -2.48257 1.64841 0
M  V30 10685 H 1060.32 -1.21891 0.823471 0
M  V30 10686 H 1062.28 -4.16852 -0.170384 0
M  V30 10687 H 1060.91 -3.15309 -0.69137 0
M  V30 10688 H 1059.96 -3.39471 1.7165 0
M  V30 10689 H 1061.27 -4.54601 2.05279 0
M  V30 10690 H 1060.42 -6.06186 0.249579 0
M  V30 10691 H 1059.16 -4.87351 -0.184556 0
M  V30 10692 H 1058.17 -5.07643 2.11136 0
M  V30 10693 H 1059.39 -6.2986 2.53877 0
M  V30 10694 H 1057.34 -6.55271 0.309181 0
M  V30 10695 H 1057.26 -7.32843 1.85681 0
M  V30 10696 H 1058.52 -7.759 0.748326 0
M  V30 10697 N 1062.75 -0.88754 -1.30232 0
M  V30 10698 C 1064 -0.506277 -1.95656 0
M  V30 10699 C 1064.32 0.948191 -1.70395 0
M  V30 10700 O 1063.59 1.66701 -1.02895 0
M  V30 10701 H 1062.17 -0.184235 -0.723924 0
M  V30 10702 H 1064.83 -1.13118 -1.58715 0
M  V30 10703 H 1063.93 -0.678673 -3.04632 0
M  V30 10704 N 1064.23 1.43628 -0.648757 0
M  V30 10705 C 1065.2 2.29172 0.0360713 0
M  V30 10706 C 1066.2 1.41974 0.754976 0
M  V30 10707 O 1067.39 1.63654 0.5969 0
M  V30 10708 C 1064.52 3.23942 1.0618 0
M  V30 10709 H 1065.71 2.91214 -0.716544 0
M  V30 10710 H 1063.26 1.50833 -0.409759 0
M  V30 10711 H 1064 2.66786 1.8438 0
M  V30 10712 H 1063.78 3.88223 0.550016 0
M  V30 10713 H 1065.27 3.8816 1.54019 0
M  V30 10714 N 1065.71 0.390394 1.52688 0
M  V30 10715 C 1066.99 -0.249068 1.94008 0
M  V30 10716 C 1067.37 -1.64263 1.32593 0
M  V30 10717 O 1066.72 -2.23086 0.494448 0
M  V30 10718 C 1066.93 -0.274318 3.4792 0
M  V30 10719 C 1068.27 -0.502743 4.21613 0
M  V30 10720 O 1069.3 -0.35448 3.54432 0
M  V30 10721 O 1068.16 -0.79334 5.40711 0
M  V30 10722 H 1065.25 -0.155116 0.812323 0
M  V30 10723 H 1067.8 0.44498 1.63762 0
M  V30 10724 H 1066.57 0.701766 3.84956 0
M  V30 10725 H 1066.19 -1.01324 3.84473 0
M  V30 10726 N 1067.19 -1.57141 0.120249 0
M  V30 10727 C 1068.14 -2.11936 -0.84067 0
M  V30 10728 C 1069.12 -1.04044 -1.22734 0
M  V30 10729 O 1070.31 -1.30275 -1.19822 0
M  V30 10730 C 1067.44 -2.72332 -2.09023 0
M  V30 10731 C 1066.53 -3.87306 -1.72786 0
M  V30 10732 N 1066.92 -4.94302 -1.07232 0
M  V30 10733 C 1065.22 -3.97513 -2.02236 0
M  V30 10734 C 1065.92 -5.7467 -0.901626 0
M  V30 10735 N 1064.9 -5.24535 -1.42702 0
M  V30 10736 H 1068.7 -2.92038 -0.330308 0
M  V30 10737 H 1066.21 -1.62192 -0.0821814 0
M  V30 10738 H 1068.21 -3.09932 -2.78833 0
M  V30 10739 H 1066.87 -1.93693 -2.60601 0
M  V30 10740 H 1067.88 -5.12641 -0.736158 0
M  V30 10741 H 1064.56 -3.29917 -2.55853 0
M  V30 10742 H 1065.95 -6.70785 -0.386974 0
M  V30 10743 N 1068.67 0.153526 -1.5685 0
M  V30 10744 C 1069.89 0.882335 -1.87143 0
M  V30 10745 C 1070.31 1.75034 -0.707702 0
M  V30 10746 O 1069.67 1.79624 0.32273 0
M  V30 10747 C 1069.72 1.74444 -3.16625 0
M  V30 10748 O 1069.44 0.911419 -4.28515 0
M  V30 10749 C 1070.94 2.58139 -3.60388 0
M  V30 10750 H 1068.16 0.25546 -0.620469 0
M  V30 10751 H 1070.7 0.148275 -2.03962 0
M  V30 10752 H 1068.86 2.43163 -3.0158 0
M  V30 10753 H 1069.27 1.50268 -5.02513 0
M  V30 10754 H 1070.75 3.14215 -4.53842 0
M  V30 10755 H 1071.22 3.33865 -2.85361 0
M  V30 10756 H 1071.83 1.94721 -3.78105 0
M  V30 10757 N 1070.14 1.51827 0.422667 0
M  V30 10758 C 1071.08 1.70409 1.53275 0
M  V30 10759 C 1072.09 0.584584 1.51942 0
M  V30 10760 O 1073.28 0.859349 1.56453 0
M  V30 10761 C 1070.38 1.717 2.92185 0
M  V30 10762 C 1069.55 3.00472 3.17861 0
M  V30 10763 C 1068.61 2.93755 4.36571 0
M  V30 10764 O 1067.64 3.67682 4.3451 0
M  V30 10765 N 1068.84 2.10612 5.40946 0
M  V30 10766 H 1071.6 2.66176 1.37734 0
M  V30 10767 H 1069.16 1.49895 0.611799 0
M  V30 10768 H 1071.16 1.64756 3.69645 0
M  V30 10769 H 1069.73 0.834655 3.01251 0
M  V30 10770 H 1068.95 3.21171 2.28567 0
M  V30 10771 H 1070.23 3.85684 3.31851 0
M  V30 10772 H 1069.63 1.49954 5.45463 0
M  V30 10773 H 1068.19 2.09535 6.17202 0
M  V30 10774 N 1071.62 -0.679052 1.4222 0
M  V30 10775 C 1072.59 -1.77448 1.45069 0
M  V30 10776 C 1073.59 -1.57189 0.338882 0
M  V30 10777 O 1074.78 -1.63559 0.599519 0
M  V30 10778 C 1071.91 -3.1603 1.27819 0
M  V30 10779 H 1073.1 -1.7631 2.426 0
M  V30 10780 H 1070.65 -0.888277 1.28605 0
M  V30 10781 H 1071.39 -3.22796 0.311946 0
M  V30 10782 H 1071.17 -3.32138 2.08391 0
M  V30 10783 H 1072.66 -3.9596 1.32686 0
M  V30 10784 N 1073.1 -1.28322 -0.914942 0
M  V30 10785 C 1074.35 -1.14785 -1.65853 0
M  V30 10786 C 1074.66 0.303135 -1.93237 0
M  V30 10787 O 1075.87 0.559606 -2.6567 0
M  V30 10788 C 1074.32 -2.00652 -2.98776 0
M  V30 10789 C 1073.93 -3.50483 -2.79044 0
M  V30 10790 C 1075.68 -1.95798 -3.76648 0
M  V30 10791 C 1073.58 -4.28505 -4.076 0
M  V30 10792 H 1072.51 -0.425987 -0.622135 0
M  V30 10793 H 1075.16 -1.52844 -1.01543 0
M  V30 10794 H 1073.55 -1.55447 -3.64214 0
M  V30 10795 H 1074.72 -4.03636 -2.22293 0
M  V30 10796 H 1073.04 -3.5685 -2.14586 0
M  V30 10797 H 1075.63 -2.51359 -4.71935 0
M  V30 10798 H 1075.98 -0.934455 -4.05677 0
M  V30 10799 H 1076.51 -2.38965 -3.18026 0
M  V30 10800 H 1073.25 -5.31433 -3.83744 0
M  V30 10801 H 1072.77 -3.80125 -4.63966 0
M  V30 10802 H 1074.45 -4.3836 -4.75867 0
M  V30 10803 N 1074.58 1.12322 -1.10551 0
M  V30 10804 C 1075.82 1.8413 -0.849932 0
M  V30 10805 C 1076.16 1.83938 0.622946 0
M  V30 10806 O 1075.43 1.28579 1.45937 0
M  V30 10807 C 1075.72 3.31751 -1.40048 0
M  V30 10808 C 1075.57 3.40391 -2.9403 0
M  V30 10809 C 1076.89 4.27543 -1.04379 0
M  V30 10810 H 1074.01 0.668533 -0.310213 0
M  V30 10811 H 1076.65 1.31766 -1.36886 0
M  V30 10812 H 1074.8 3.76475 -0.959102 0
M  V30 10813 H 1076.47 3.04294 -3.46703 0
M  V30 10814 H 1074.71 2.809 -3.30571 0
M  V30 10815 H 1075.38 4.44252 -3.27635 0
M  V30 10816 H 1077.86 3.90951 -1.42466 0
M  V30 10817 H 1076.74 5.2924 -1.4559 0
M  V30 10818 H 1077 4.42075 0.0466316 0
M  V30 10819 N 1076.06 0.894434 1.2976 0
M  V30 10820 C 1076.99 0.3847 2.30309 0
M  V30 10821 C 1077.97 -0.537486 1.61385 0
M  V30 10822 O 1079.15 -0.449332 1.8893 0
M  V30 10823 C 1076.28 -0.393311 3.45066 0
M  V30 10824 C 1075.24 0.437968 4.25753 0
M  V30 10825 C 1074.56 -0.467221 5.32655 0
M  V30 10826 C 1075.86 1.6851 4.9437 0
M  V30 10827 H 1077.56 1.22496 2.73194 0
M  V30 10828 H 1075.1 0.590471 1.31337 0
M  V30 10829 H 1077.06 -0.760614 4.14479 0
M  V30 10830 H 1075.78 -1.2673 3.0101 0
M  V30 10831 H 1074.44 0.787533 3.58041 0
M  V30 10832 H 1074.09 -1.33919 4.84845 0
M  V30 10833 H 1073.79 0.0852482 5.87538 0
M  V30 10834 H 1075.31 -0.830833 6.04921 0
M  V30 10835 H 1076.72 1.38784 5.56248 0
M  V30 10836 H 1075.12 2.17849 5.59162 0
M  V30 10837 H 1076.19 2.42412 4.19958 0
M  V30 10838 N 1077.53 -1.43282 0.656365 0
M  V30 10839 C 1078.78 -2.01378 0.170702 0
M  V30 10840 C 1079.1 -1.52063 -1.22073 0
M  V30 10841 O 1078.37 -0.73456 -1.81607 0
M  V30 10842 H 1076.95 -0.744577 0.0601168 0
M  V30 10843 H 1079.62 -1.75449 0.848739 0
M  V30 10844 H 1078.71 -3.11701 0.157745 0
M  V30 10845 N 1079.01 -0.398486 -1.52479 0
M  V30 10846 C 1080.25 0.180412 -2.03602 0
M  V30 10847 C 1080.62 1.43276 -1.27812 0
M  V30 10848 O 1081.82 2.08941 -1.69107 0
M  V30 10849 C 1080.09 0.432744 -3.5477 0
M  V30 10850 S 1081.65 0.980612 -4.27703 0
M  V30 10851 H 1078.47 0.0499981 -0.70924 0
M  V30 10852 H 1081.07 -0.548952 -1.87635 0
M  V30 10853 H 1079.77 -0.48568 -4.07516 0
M  V30 10854 H 1079.3 1.19028 -3.74961 0
M  V30 10855 H 1081.32 2.26216 -4.41634 0
M  V30 10856 N 1080.49 1.57075 -0.12858 0
M  V30 10857 C 1081.74 1.9581 0.527868 0
M  V30 10858 C 1082.07 1.01253 1.65715 0
M  V30 10859 O 1081.35 0.0514853 1.94432 0
M  V30 10860 C 1081.63 3.44406 1.05151 0
M  V30 10861 C 1081.48 4.49737 -0.0750113 0
M  V30 10862 C 1082.8 3.95069 1.9393 0
M  V30 10863 H 1079.92 0.711978 0.19041 0
M  V30 10864 H 1082.56 1.88879 -0.206081 0
M  V30 10865 H 1080.71 3.50443 1.67697 0
M  V30 10866 H 1082.38 4.55793 -0.710685 0
M  V30 10867 H 1080.63 4.27497 -0.736809 0
M  V30 10868 H 1081.3 5.50996 0.332779 0
M  V30 10869 H 1083.77 3.91395 1.41241 0
M  V30 10870 H 1082.65 4.99542 2.27484 0
M  V30 10871 H 1082.91 3.36329 2.86941 0
M  V30 10872 N 1081.97 -0.145205 1.5693 0
M  V30 10873 C 1083.22 -0.855822 1.83085 0
M  V30 10874 C 1083.54 -1.81625 0.709747 0
M  V30 10875 O 1082.81 -1.94052 -0.268456 0
M  V30 10876 H 1081.39 -0.319032 0.675446 0
M  V30 10877 H 1084.05 -0.138781 1.94405 0
M  V30 10878 H 1083.15 -1.41698 2.78079 0
M  V30 10879 N 1083.45 -1.52049 -0.414609 0
M  V30 10880 C 1084.7 -1.65511 -1.15977 0
M  V30 10881 C 1085.02 -0.384703 -1.91168 0
M  V30 10882 O 1084.29 0.600247 -1.86477 0
M  V30 10883 H 1082.87 -0.610039 -0.431116 0
M  V30 10884 H 1085.53 -1.8907 -0.473139 0
M  V30 10885 H 1084.62 -2.4936 -1.87686 0
M  V30 10886 N 1084.93 0.6715 -1.42579 0
M  V30 10887 C 1086.17 1.42731 -1.42516 0
M  V30 10888 C 1086.49 1.95545 -0.0462407 0
M  V30 10889 O 1087.69 2.71391 0.0769798 0
M  V30 10890 C 1086.15 2.58215 -2.50705 0
M  V30 10891 C 1085.76 2.12086 -3.94618 0
M  V30 10892 C 1087.5 3.35705 -2.59813 0
M  V30 10893 C 1085.41 3.24672 -4.9431 0
M  V30 10894 H 1084.34 0.536218 -0.530081 0
M  V30 10895 H 1086.99 0.726655 -1.68499 0
M  V30 10896 H 1085.37 3.30665 -2.17892 0
M  V30 10897 H 1086.55 1.46768 -4.36802 0
M  V30 10898 H 1084.86 1.47526 -3.89391 0
M  V30 10899 H 1087.46 4.1956 -3.31472 0
M  V30 10900 H 1087.8 3.82517 -1.64276 0
M  V30 10901 H 1088.33 2.70326 -2.91836 0
M  V30 10902 H 1085.07 2.82848 -5.91335 0
M  V30 10903 H 1084.59 3.88761 -4.56755 0
M  V30 10904 H 1086.27 3.90088 -5.16179 0
M  V30 10905 N 1086.4 1.28806 0.908124 0
M  V30 10906 C 1087.65 1.1646 1.66027 0
M  V30 10907 C 1087.98 -0.285025 1.92097 0
M  V30 10908 O 1087.26 -1.20675 1.52538 0
M  V30 10909 C 1087.54 1.96951 3.01467 0
M  V30 10910 C 1087.39 3.50007 2.82515 0
M  V30 10911 C 1088.71 1.78932 4.02084 0
M  V30 10912 H 1085.83 0.424435 0.602515 0
M  V30 10913 H 1088.47 1.58185 1.0525 0
M  V30 10914 H 1086.62 1.61495 3.53344 0
M  V30 10915 H 1088.3 3.95401 2.37605 0
M  V30 10916 H 1086.54 3.75356 2.17463 0
M  V30 10917 H 1087.21 4.01591 3.7872 0
M  V30 10918 H 1089.69 2.09885 3.59287 0
M  V30 10919 H 1088.56 2.37615 4.94803 0
M  V30 10920 H 1088.82 0.742286 4.35824 0
M  V30 10921 N 1087.88 -1.11734 1.11145 0
M  V30 10922 C 1088.84 -2.15868 0.770303 0
M  V30 10923 C 1089.84 -1.59438 -0.208842 0
M  V30 10924 O 1091.03 -1.74193 0.0152516 0
M  V30 10925 C 1088.17 -3.40603 0.142303 0
M  V30 10926 H 1089.36 -2.4756 1.69276 0
M  V30 10927 H 1086.91 -1.26867 0.912929 0
M  V30 10928 H 1087.65 -3.14517 -0.790526 0
M  V30 10929 H 1087.43 -3.8284 0.847087 0
M  V30 10930 H 1088.92 -4.17523 -0.0803608 0
M  V30 10931 N 1089.36 -0.901303 -1.29284 0
M  V30 10932 C 1090.61 -0.528826 -1.95784 0
M  V30 10933 C 1090.94 0.922833 -1.70873 0
M  V30 10934 O 1090.21 1.65448 -1.0226 0
M  V30 10935 C 1090.5 -0.823793 -3.50551 0
M  V30 10936 C 1090.35 -2.32727 -3.84913 0
M  V30 10937 C 1091.67 -0.311382 -4.38997 0
M  V30 10938 H 1088.79 -0.193604 -0.711116 0
M  V30 10939 H 1091.43 -1.12828 -1.52872 0
M  V30 10940 H 1089.58 -0.313612 -3.87232 0
M  V30 10941 H 1091.25 -2.90712 -3.58168 0
M  V30 10942 H 1089.49 -2.78735 -3.32399 0
M  V30 10943 H 1090.17 -2.48423 -4.9294 0
M  V30 10944 H 1092.64 -0.748265 -4.09317 0
M  V30 10945 H 1091.52 -0.546957 -5.46168 0
M  V30 10946 H 1091.78 0.787959 -4.35021 0
M  V30 10947 N 1090.84 1.42931 -0.663954 0
M  V30 10948 C 1092.09 2.01284 -0.181379 0
M  V30 10949 C 1092.41 1.52708 1.21265 0
M  V30 10950 O 1091.68 0.744181 1.81215 0
M  V30 10951 H 1090.26 0.744248 -0.0640646 0
M  V30 10952 H 1092.92 1.74997 -0.858031 0
M  V30 10953 H 1092.01 3.11613 -0.174273 0
M  V30 10954 N 1092.32 0.406567 1.52266 0
M  V30 10955 C 1093.25 -0.411314 2.29849 0
M  V30 10956 C 1094.23 -1.04838 1.33952 0
M  V30 10957 O 1095.41 -1.05788 1.62857 0
M  V30 10958 C 1092.54 -1.52961 3.11802 0
M  V30 10959 C 1091.5 -1.01768 4.15725 0
M  V30 10960 C 1090.82 -2.22938 4.86007 0
M  V30 10961 C 1092.12 -0.073515 5.22248 0
M  V30 10962 H 1093.82 0.236054 2.98468 0
M  V30 10963 H 1091.36 0.114968 1.4354 0
M  V30 10964 H 1093.31 -2.10874 3.64843 0
M  V30 10965 H 1092.04 -2.20482 2.40947 0
M  V30 10966 H 1090.7 -0.46097 3.6369 0
M  V30 10967 H 1090.35 -2.89007 4.11684 0
M  V30 10968 H 1090.05 -1.89338 5.5626 0
M  V30 10969 H 1091.57 -2.81462 5.41859 0
M  V30 10970 H 1092.98 -0.561367 5.70545 0
M  V30 10971 H 1091.38 0.173551 5.99849 0
M  V30 10972 H 1092.45 0.872524 4.76985 0
M  V30 10973 N 1093.79 -1.57004 0.136909 0
M  V30 10974 C 1095.04 -1.9541 -0.51569 0
M  V30 10975 C 1095.36 -1.02219 -1.66061 0
M  V30 10976 O 1094.63 -0.0818172 -1.95729 0
M  V30 10977 H 1093.21 -0.721504 -0.193497 0
M  V30 10978 H 1095.88 -1.93765 0.210046 0
M  V30 10979 H 1094.97 -2.98887 -0.898494 0
M  V30 10980 N 1095.27 0.136881 -1.57004 0
M  V30 10981 C 1096.2 1.17026 -2.02057 0
M  V30 10982 C 1097.18 1.44223 -0.901866 0
M  V30 10983 O 1098.37 1.54971 -1.17037 0
M  V30 10984 C 1095.5 2.50095 -2.40977 0
M  V30 10985 C 1094.45 2.37398 -3.56127 0
M  V30 10986 C 1093.78 3.75268 -3.80891 0
M  V30 10987 C 1095.08 1.84952 -4.88457 0
M  V30 10988 H 1096.77 0.795601 -2.88636 0
M  V30 10989 H 1094.32 0.381266 -1.38861 0
M  V30 10990 H 1096.27 3.22621 -2.71097 0
M  V30 10991 H 1095 2.89416 -1.51348 0
M  V30 10992 H 1093.65 1.67322 -3.26188 0
M  V30 10993 H 1093.3 4.12043 -2.88496 0
M  V30 10994 H 1093 3.67631 -4.5839 0
M  V30 10995 H 1094.53 4.49327 -4.13446 0
M  V30 10996 H 1095.94 2.4728 -5.17229 0
M  V30 10997 H 1094.34 1.88181 -5.69832 0
M  V30 10998 H 1095.41 0.805848 -4.78157 0
M  V30 10999 N 1096.75 1.52266 0.40654 0
M  V30 11000 C 1098 1.66699 1.15496 0
M  V30 11001 C 1098.33 0.397019 1.90098 0
M  V30 11002 O 1097.6 -0.604646 1.84863 0
M  V30 11003 C 1097.89 2.8907 2.14734 0
M  V30 11004 C 1097.74 4.26123 1.44012 0
M  V30 11005 C 1099.06 3.06966 3.15373 0
M  V30 11006 H 1096.18 0.606642 0.418515 0
M  V30 11007 H 1098.82 1.84826 0.440381 0
M  V30 11008 H 1096.97 2.73745 2.75673 0
M  V30 11009 H 1098.64 4.5318 0.861722 0
M  V30 11010 H 1096.89 4.27406 0.742064 0
M  V30 11011 H 1097.56 5.07799 2.16436 0
M  V30 11012 H 1100.03 3.21205 2.64512 0
M  V30 11013 H 1098.91 3.94097 3.82072 0
M  V30 11014 H 1099.17 2.20395 3.83247 0
M  V30 11015 N 1098.23 -0.663929 1.42933 0
M  V30 11016 C 1099.16 -1.78899 1.50058 0
M  V30 11017 C 1100.14 -1.66329 0.356164 0
M  V30 11018 O 1101.32 -1.85587 0.571944 0
M  V30 11019 C 1098.45 -3.17265 1.41281 0
M  V30 11020 C 1097.41 -3.44584 2.53861 0
M  V30 11021 C 1096.73 -4.82638 2.3014 0
M  V30 11022 C 1098.03 -3.40394 3.96143 0
M  V30 11023 H 1099.73 -1.73194 2.44222 0
M  V30 11024 H 1097.27 -0.83182 1.17545 0
M  V30 11025 H 1099.23 -3.95715 1.44872 0
M  V30 11026 H 1097.95 -3.23675 0.43616 0
M  V30 11027 H 1096.61 -2.685 2.49606 0
M  V30 11028 H 1096.26 -4.85711 1.30743 0
M  V30 11029 H 1095.96 -5.01879 3.056 0
M  V30 11030 H 1097.48 -5.63359 2.35497 0
M  V30 11031 H 1098.9 -4.08796 4.01943 0
M  V30 11032 H 1097.29 -3.7117 4.71543 0
M  V30 11033 H 1098.36 -2.38767 4.22041 0
M  V30 11034 N 1099.71 -1.29285 -0.901281 0
M  V30 11035 C 1100.67 -1.14283 -1.98676 0
M  V30 11036 C 1101.67 -0.0787641 -1.60607 0
M  V30 11037 O 1102.86 -0.325574 -1.71131 0
M  V30 11038 C 1099.99 -0.747279 -3.32609 0
M  V30 11039 H 1101.18 -2.10701 -2.13413 0
M  V30 11040 H 1098.74 -1.12449 -1.08558 0
M  V30 11041 H 1099.47 0.217111 -3.23572 0
M  V30 11042 H 1099.26 -1.51608 -3.61604 0
M  V30 11043 H 1100.75 -0.665322 -4.12266 0
M  V30 11044 N 1101.18 1.11143 -1.11736 0
M  V30 11045 C 1102.41 1.86474 -0.889435 0
M  V30 11046 C 1102.82 1.80584 0.564438 0
M  V30 11047 O 1102.17 1.18743 1.40163 0
M  V30 11048 C 1102.23 3.36066 -1.27671 0
M  V30 11049 C 1101.89 3.65721 -2.74038 0
M  V30 11050 C 1102.89 3.62941 -3.7225 0
M  V30 11051 C 1100.57 3.94629 -3.10762 0
M  V30 11052 C 1102.57 3.88651 -5.05202 0
M  V30 11053 C 1100.25 4.19997 -4.43899 0
M  V30 11054 C 1101.25 4.16996 -5.40928 0
M  V30 11055 O 1100.94 4.41724 -6.71666 0
M  V30 11056 H 1100.67 0.596438 -0.318178 0
M  V30 11057 H 1103.23 1.41465 -1.48918 0
M  V30 11058 H 1101.46 3.81695 -0.620124 0
M  V30 11059 H 1103.15 3.92769 -1.02409 0
M  V30 11060 H 1103.91 3.40655 -3.45223 0
M  V30 11061 H 1099.79 3.96099 -2.35853 0
M  V30 11062 H 1103.33 3.86224 -5.80927 0
M  V30 11063 H 1099.23 4.4176 -4.70657 0
M  V30 11064 H 1100 4.59276 -6.77501 0
M  V30 11065 N 1102.66 0.908147 1.28804 0
M  V30 11066 C 1104.08 0.605474 1.47669 0
M  V30 11067 C 1104.28 -0.850759 1.82659 0
M  V30 11068 O 1103.33 -1.63029 1.92816 0
M  V30 11069 C 1104.65 1.53856 2.58358 0
M  V30 11070 C 1106.2 1.54467 2.7223 0
M  V30 11071 C 1106.67 2.46424 3.86056 0
M  V30 11072 N 1108.16 2.44519 3.93402 0
M  V30 11073 C 1108.9 3.12371 4.80845 0
M  V30 11074 N 1108.39 3.89533 5.72919 0
M  V30 11075 N 1110.19 3.01486 4.74407 0
M  V30 11076 H 1102.34 1.84988 1.04371 0
M  V30 11077 H 1104.6 0.793132 0.519274 0
M  V30 11078 H 1104.31 2.57651 2.39393 0
M  V30 11079 H 1104.18 1.26543 3.5534 0
M  V30 11080 H 1106.57 0.514127 2.90587 0
M  V30 11081 H 1106.65 1.85821 1.75796 0
M  V30 11082 H 1106.29 3.49577 3.68454 0
M  V30 11083 H 1106.22 2.12375 4.81876 0
M  V30 11084 H 1108.71 1.88464 3.27551 0
M  V30 11085 H 1109.03 4.3834 6.36457 0
M  V30 11086 H 1107.37 3.93639 5.72777 0
M  V30 11087 H 1110.56 2.40713 4.01466 0
M  V30 11088 H 1110.73 3.5464 5.42342 0
M  V30 11089 N 1104.14 -1.42577 0.671525 0
M  V30 11090 C 1105.07 -2.33499 0.00506984 0
M  V30 11091 C 1106.05 -1.50497 -0.792763 0
M  V30 11092 O 1107.24 -1.79109 -0.750574 0
M  V30 11093 C 1104.37 -3.34077 -0.949194 0
M  V30 11094 C 1103.32 -4.27208 -0.260187 0
M  V30 11095 C 1102.65 -5.17968 -1.32716 0
M  V30 11096 C 1103.95 -5.15192 0.858772 0
M  V30 11097 H 1105.64 -2.89477 0.764407 0
M  V30 11098 H 1103.19 -1.39191 0.369043 0
M  V30 11099 H 1105.14 -3.96594 -1.42448 0
M  V30 11100 H 1103.86 -2.76396 -1.73991 0
M  V30 11101 H 1102.52 -3.66082 0.194834 0
M  V30 11102 H 1102.17 -4.56615 -2.10979 0
M  V30 11103 H 1101.87 -5.81104 -0.871293 0
M  V30 11104 H 1103.39 -5.83359 -1.80345 0
M  V30 11105 H 1104.81 -5.71412 0.464844 0
M  V30 11106 H 1103.21 -5.87144 1.24023 0
M  V30 11107 H 1104.28 -4.53787 1.70895 0
M  V30 11108 N 1105.62 -0.414636 -1.52048 0
M  V30 11109 C 1106.84 0.161137 -2.06773 0
M  V30 11110 C 1107.27 1.37628 -1.2822 0
M  V30 11111 O 1106.63 1.78562 -0.313915 0
M  V30 11112 C 1106.67 0.48452 -3.5733 0
M  V30 11113 O 1105.78 1.57466 -3.81154 0
M  V30 11114 H 1105.12 0.0118003 -0.663895 0
M  V30 11115 H 1107.65 -0.589424 -1.95926 0
M  V30 11116 H 1107.66 0.741567 -4.01204 0
M  V30 11117 H 1106.33 -0.403733 -4.13936 0
M  V30 11118 H 1104.91 1.30935 -3.49157 0
M  V30 11119 N 1107.1 1.56929 -0.145233 0
M  V30 11120 C 1108.34 1.96358 0.50707 0
M  V30 11121 C 1108.68 1.03005 1.64632 0
M  V30 11122 O 1107.95 0.0721045 1.94366 0
M  V30 11123 C 1108.23 3.45502 1.01492 0
M  V30 11124 C 1108.09 4.49633 -0.122708 0
M  V30 11125 C 1109.41 3.97103 1.89729 0
M  V30 11126 H 1106.52 0.713958 0.182848 0
M  V30 11127 H 1109.17 1.8865 -0.226102 0
M  V30 11128 H 1107.32 3.52202 1.6397 0
M  V30 11129 H 1108.99 4.55013 -0.758988 0
M  V30 11130 H 1107.23 4.26691 -0.782109 0
M  V30 11131 H 1107.9 5.51318 0.27432 0
M  V30 11132 H 1110.38 3.92871 1.37082 0
M  V30 11133 H 1109.25 5.01927 2.22173 0
M  V30 11134 H 1109.52 3.39354 2.83357 0
M  V30 11135 N 1108.58 -0.128553 1.57075 0
M  V30 11136 C 1109.49 -1.17718 2.02927 0
M  V30 11137 C 1110.5 -1.45912 0.947932 0
M  V30 11138 O 1111.68 -1.57217 1.25876 0
M  V30 11139 C 1108.74 -2.48625 2.41633 0
M  V30 11140 C 1107.8 -2.27914 3.63804 0
M  V30 11141 C 1107.04 -3.52579 4.00654 0
M  V30 11142 O 1107.26 -4.59505 3.37952 0
M  V30 11143 O 1106.19 -3.44147 4.93808 0
M  V30 11144 H 1110.02 -0.817846 2.92481 0
M  V30 11145 H 1107.6 -0.338649 1.45511 0
M  V30 11146 H 1109.49 -3.2577 2.67305 0
M  V30 11147 H 1108.16 -2.84052 1.55229 0
M  V30 11148 H 1107.07 -1.4866 3.43294 0
M  V30 11149 H 1108.4 -1.97395 4.50883 0
M  V30 11150 N 1110.05 -1.5248 -0.398459 0
M  V30 11151 C 1111.3 -1.66287 -1.14155 0
M  V30 11152 C 1111.62 -0.40429 -1.91376 0
M  V30 11153 O 1112.82 -0.422341 -2.68195 0
M  V30 11154 C 1111.28 -2.93831 -2.07825 0
M  V30 11155 C 1110.89 -4.26836 -1.3607 0
M  V30 11156 C 1112.63 -3.17004 -2.82327 0
M  V30 11157 C 1110.54 -5.45495 -2.28451 0
M  V30 11158 H 1109.47 -0.619478 -0.42984 0
M  V30 11159 H 1112.12 -1.78972 -0.405112 0
M  V30 11160 H 1110.5 -2.7487 -2.85065 0
M  V30 11161 H 1111.67 -4.56317 -0.641205 0
M  V30 11162 H 1109.99 -4.0985 -0.735659 0
M  V30 11163 H 1112.59 -4.02834 -3.51609 0
M  V30 11164 H 1112.93 -2.3168 -3.45876 0
M  V30 11165 H 1113.46 -3.36487 -2.12183 0
M  V30 11166 H 1110.2 -6.33198 -1.69532 0
M  V30 11167 H 1109.72 -5.20338 -2.98343 0
M  V30 11168 H 1111.4 -5.78996 -2.88743 0
M  V30 11169 N 1111.53 0.65634 -1.43283 0
M  V30 11170 C 1112.76 1.44199 -1.47954 0
M  V30 11171 C 1113.17 1.88961 -0.0950315 0
M  V30 11172 O 1112.51 1.59895 0.904388 0
M  V30 11173 C 1112.57 2.71161 -2.36033 0
M  V30 11174 C 1112.24 2.48359 -3.83623 0
M  V30 11175 C 1113.24 2.1178 -4.74811 0
M  V30 11176 C 1110.92 2.6278 -4.28079 0
M  V30 11177 C 1112.91 1.89915 -6.0845 0
M  V30 11178 C 1110.6 2.4053 -5.61772 0
M  V30 11179 C 1111.6 2.04154 -6.51775 0
M  V30 11180 O 1111.29 1.82134 -7.82996 0
M  V30 11181 H 1111.02 0.449567 -0.504842 0
M  V30 11182 H 1113.57 0.812234 -1.88658 0
M  V30 11183 H 1111.8 3.36685 -1.9021 0
M  V30 11184 H 1113.49 3.33102 -2.31944 0
M  V30 11185 H 1114.26 2.00217 -4.41744 0
M  V30 11186 H 1110.14 2.9007 -3.58302 0
M  V30 11187 H 1113.68 1.61445 -6.78661 0
M  V30 11188 H 1109.58 2.51695 -5.94407 0
M  V30 11189 H 1110.35 1.96584 -7.94542 0
M  V30 11190 N 1113.01 1.29761 0.894412 0
M  V30 11191 C 1114.29 1.08711 1.62608 0
M  V30 11192 C 1114.67 -0.366907 2.07887 0
M  V30 11193 O 1114.01 -1.35669 1.83865 0
M  V30 11194 C 1114.22 2.07947 2.80284 0
M  V30 11195 C 1115.57 2.39153 3.50843 0
M  V30 11196 O 1116.6 2.06183 2.9046 0
M  V30 11197 O 1115.46 2.95509 4.59713 0
M  V30 11198 H 1112.55 0.416866 0.714249 0
M  V30 11199 H 1115.1 1.41153 0.942015 0
M  V30 11200 H 1113.87 3.05859 2.44061 0
M  V30 11201 H 1113.49 1.76266 3.56393 0
M  V30 11202 N 1114.49 -1.10549 1.12324 0
M  V30 11203 C 1115.9 -1.34508 0.85905 0
M  V30 11204 C 1116.1 -1.94901 -0.511468 0
M  V30 11205 O 1115.16 -2.18793 -1.2604 0
M  V30 11206 C 1116.47 -2.26788 1.97453 0
M  V30 11207 C 1118.02 -2.40328 2.00528 0
M  V30 11208 C 1118.5 -3.35936 3.11305 0
M  V30 11209 N 1119.99 -3.43504 3.1074 0
M  V30 11210 C 1120.72 -4.17449 3.93096 0
M  V30 11211 N 1120.22 -4.9429 4.85437 0
M  V30 11212 N 1122.01 -4.13055 3.81237 0
M  V30 11213 H 1114.16 -0.697171 2.00632 0
M  V30 11214 H 1116.42 -0.369548 0.873005 0
M  V30 11215 H 1116.13 -1.89621 2.96204 0
M  V30 11216 H 1116 -3.27086 1.87869 0
M  V30 11217 H 1118.39 -2.76765 1.02397 0
M  V30 11218 H 1118.47 -1.39849 2.14186 0
M  V30 11219 H 1118.12 -3.00225 4.09667 0
M  V30 11220 H 1118.05 -4.36291 2.94886 0
M  V30 11221 H 1120.54 -2.88702 2.43843 0
M  V30 11222 H 1120.85 -5.48109 5.4479 0
M  V30 11223 H 1119.2 -4.93419 4.89452 0
M  V30 11224 H 1122.39 -3.52117 3.08433 0
M  V30 11225 H 1122.56 -4.70424 4.45651 0
M  V30 11226 N 1115.97 -0.914965 -1.28321 0
M  V30 11227 C 1117.38 -0.613297 -1.47346 0
M  V30 11228 C 1117.58 0.84106 -1.83108 0
M  V30 11229 O 1116.64 1.62004 -1.93678 0
M  V30 11230 C 1117.95 -1.55224 -2.57538 0
M  V30 11231 C 1119.5 -1.55909 -2.71407 0
M  V30 11232 C 1119.97 -2.48468 -3.84744 0
M  V30 11233 N 1121.46 -2.46602 -3.92099 0
M  V30 11234 C 1122.2 -3.14917 -4.79182 0
M  V30 11235 N 1121.7 -3.92566 -5.70845 0
M  V30 11236 N 1123.49 -3.03998 -4.72802 0
M  V30 11237 H 1115.64 -1.85539 -1.03388 0
M  V30 11238 H 1117.9 -0.795875 -0.515061 0
M  V30 11239 H 1117.61 -2.58917 -2.38023 0
M  V30 11240 H 1117.48 -1.28426 -3.54664 0
M  V30 11241 H 1119.87 -0.52953 -2.9031 0
M  V30 11242 H 1119.95 -1.86751 -1.74808 0
M  V30 11243 H 1119.59 -3.51526 -3.66595 0
M  V30 11244 H 1119.52 -2.14928 -4.80743 0
M  V30 11245 H 1122.02 -1.90199 -3.26547 0
M  V30 11246 H 1122.33 -4.41709 -6.34123 0
M  V30 11247 H 1120.67 -3.96671 -5.70681 0
M  V30 11248 H 1123.86 -2.42839 -4.00184 0
M  V30 11249 H 1124.04 -3.57511 -5.40454 0
M  V30 11250 N 1117.44 1.42219 -0.679077 0
M  V30 11251 C 1118.35 2.346 -0.00345919 0
M  V30 11252 C 1119.37 1.55327 0.784181 0
M  V30 11253 O 1120.55 1.87878 0.725524 0
M  V30 11254 C 1117.61 3.33905 0.933194 0
M  V30 11255 C 1116.67 4.29073 0.139607 0
M  V30 11256 C 1115.9 5.23634 1.03165 0
M  V30 11257 O 1116.13 5.23234 2.27119 0
M  V30 11258 O 1115.06 5.99901 0.490159 0
M  V30 11259 H 1118.89 2.9392 -0.764525 0
M  V30 11260 H 1116.47 1.42794 -0.439329 0
M  V30 11261 H 1118.35 3.949 1.47077 0
M  V30 11262 H 1117.03 2.77052 1.67404 0
M  V30 11263 H 1115.94 3.71478 -0.442177 0
M  V30 11264 H 1117.27 4.88979 -0.562214 0
M  V30 11265 N 1118.92 0.422693 1.51826 0
M  V30 11266 C 1120.15 -0.14753 2.06073 0
M  V30 11267 C 1120.56 -1.38264 1.2915 0
M  V30 11268 O 1119.9 -1.8052 0.340306 0
M  V30 11269 C 1119.96 -0.549558 3.55275 0
M  V30 11270 C 1119.63 0.576704 4.53347 0
M  V30 11271 C 1120.63 1.44442 4.99432 0
M  V30 11272 C 1118.31 0.753264 4.9662 0
M  V30 11273 C 1120.3 2.47352 5.87448 0
M  V30 11274 C 1117.99 1.78566 5.84429 0
M  V30 11275 C 1118.99 2.64419 6.29739 0
M  V30 11276 O 1118.68 3.65888 7.15808 0
M  V30 11277 H 1118.41 -0.0178911 0.675763 0
M  V30 11278 H 1120.96 0.596258 1.96555 0
M  V30 11279 H 1119.19 -1.34583 3.62525 0
M  V30 11280 H 1120.88 -1.04925 3.92104 0
M  V30 11281 H 1121.65 1.31948 4.66706 0
M  V30 11282 H 1117.53 0.0946405 4.60903 0
M  V30 11283 H 1121.07 3.14397 6.22736 0
M  V30 11284 H 1116.97 1.91086 6.16568 0
M  V30 11285 H 1117.74 3.62294 7.33952 0
M  V30 11286 N 1120.4 -1.5685 0.153553 0
M  V30 11287 C 1121.62 -2.01135 -0.505904 0
M  V30 11288 C 1122.05 -1.03301 -1.57196 0
M  V30 11289 O 1121.41 -0.00976022 -1.81297 0
M  V30 11290 C 1121.46 -3.44129 -1.0774 0
M  V30 11291 O 1120.56 -3.49318 -2.19205 0
M  V30 11292 H 1119.9 -0.652496 -0.123062 0
M  V30 11293 H 1122.43 -2.03039 0.252216 0
M  V30 11294 H 1122.44 -3.83066 -1.40444 0
M  V30 11295 H 1121.12 -4.1484 -0.296754 0
M  V30 11296 H 1119.69 -3.22227 -1.8768 0
M  V30 11297 N 1121.88 0.120221 -1.57141 0
M  V30 11298 C 1123.29 0.473718 -1.52408 0
M  V30 11299 C 1123.49 1.81925 -0.866354 0
M  V30 11300 O 1122.55 2.48491 -0.448173 0
M  V30 11301 C 1123.86 0.459338 -2.97171 0
M  V30 11302 C 1125.41 0.542975 -3.08254 0
M  V30 11303 C 1125.89 0.558996 -4.54576 0
M  V30 11304 N 1127.38 0.620469 -4.59026 0
M  V30 11305 C 1128.11 0.654292 -5.69655 0
M  V30 11306 N 1127.61 0.645835 -6.89783 0
M  V30 11307 N 1129.4 0.697208 -5.57759 0
M  V30 11308 H 1121.55 -0.76142 -1.98283 0
M  V30 11309 H 1123.81 -0.280736 -0.905479 0
M  V30 11310 H 1123.52 -0.461654 -3.48657 0
M  V30 11311 H 1123.39 1.28759 -3.54543 0
M  V30 11312 H 1125.78 1.45439 -2.56772 0
M  V30 11313 H 1125.86 -0.312936 -2.53879 0
M  V30 11314 H 1125.51 -0.348367 -5.06704 0
M  V30 11315 H 1125.44 1.43177 -5.06762 0
M  V30 11316 H 1127.93 0.633218 -3.72557 0
M  V30 11317 H 1128.24 0.674233 -7.69853 0
M  V30 11318 H 1126.59 0.613279 -6.92289 0
M  V30 11319 H 1129.78 0.70117 -4.62819 0
M  V30 11320 H 1129.95 0.7201 -6.43986 0
M  V30 11321 N 1123.36 1.52689 0.390367 0
M  V30 11322 C 1124.6 1.67666 1.13553 0
M  V30 11323 C 1124.93 0.415903 1.90001 0
M  V30 11324 O 1124.19 -0.601664 1.86222 0
M  V30 11325 C 1124.49 2.86177 2.14096 0
M  V30 11326 C 1124.15 4.23671 1.54316 0
M  V30 11327 C 1122.81 4.61066 1.37739 0
M  V30 11328 C 1125.17 5.09278 1.1084 0
M  V30 11329 C 1122.49 5.81727 0.76231 0
M  V30 11330 C 1124.85 6.30562 0.507433 0
M  V30 11331 C 1123.51 6.66689 0.328945 0
M  V30 11332 H 1122.78 0.613533 0.415521 0
M  V30 11333 H 1125.43 1.8683 0.420339 0
M  V30 11334 H 1123.73 2.61424 2.9183 0
M  V30 11335 H 1125.43 2.9496 2.7166 0
M  V30 11336 H 1122.02 3.94214 1.68207 0
M  V30 11337 H 1126.2 4.80957 1.2245 0
M  V30 11338 H 1121.46 6.08327 0.612208 0
M  V30 11339 H 1125.63 6.96211 0.162248 0
M  V30 11340 H 1123.26 7.60052 -0.149748 0
M  V30 11341 N 1124.83 -0.648732 1.43629 0
M  V30 11342 C 1125.74 -1.79046 1.51591 0
M  V30 11343 C 1126.76 -1.69276 0.402697 0
M  V30 11344 O 1127.94 -1.90366 0.657484 0
M  V30 11345 C 1125 -3.15347 1.44073 0
M  V30 11346 C 1124.06 -3.3688 2.66102 0
M  V30 11347 C 1123.3 -4.66679 2.58933 0
M  V30 11348 O 1123.52 -5.46328 1.63956 0
M  V30 11349 O 1122.45 -4.9003 3.49506 0
M  V30 11350 H 1126.28 -1.75283 2.48011 0
M  V30 11351 H 1123.86 -0.807774 1.2568 0
M  V30 11352 H 1125.75 -3.96633 1.42339 0
M  V30 11353 H 1124.42 -3.19691 0.50789 0
M  V30 11354 H 1123.33 -2.55341 2.73407 0
M  V30 11355 H 1124.66 -3.37386 3.58373 0
M  V30 11356 N 1126.31 -1.30234 -0.887518 0
M  V30 11357 C 1127.26 -1.164 -1.99298 0
M  V30 11358 C 1128.23 -0.0541536 -1.66012 0
M  V30 11359 O 1129.41 -0.223881 -1.89482 0
M  V30 11360 C 1126.55 -0.859169 -3.34234 0
M  V30 11361 C 1125.67 -2.05065 -3.80227 0
M  V30 11362 C 1124.8 -1.68413 -5.03796 0
M  V30 11363 C 1123.84 -2.8407 -5.4219 0
M  V30 11364 N 1122.98 -2.47732 -6.56942 0
M  V30 11365 H 1127.82 -2.10973 -2.10463 0
M  V30 11366 H 1125.36 -1.04969 -1.03053 0
M  V30 11367 H 1127.31 -0.663064 -4.11897 0
M  V30 11368 H 1125.94 0.0496808 -3.22762 0
M  V30 11369 H 1125 -2.35808 -2.98494 0
M  V30 11370 H 1126.31 -2.91688 -4.04623 0
M  V30 11371 H 1125.46 -1.45162 -5.89078 0
M  V30 11372 H 1124.2 -0.789553 -4.81266 0
M  V30 11373 H 1123.21 -3.0799 -4.55437 0
M  V30 11374 H 1124.43 -3.74211 -5.66695 0
M  V30 11375 H 1122.38 -1.60777 -6.35993 0
M  V30 11376 H 1122.29 -3.27887 -6.81195 0
M  V30 11377 H 1123.56 -2.27831 -7.45462 0
M  V30 11378 N 1127.79 1.09952 -1.12909 0
M  V30 11379 C 1128.7 2.19999 -0.81471 0
M  V30 11380 C 1129.72 1.72864 0.19851 0
M  V30 11381 O 1130.89 2.01376 0.0308832 0
M  V30 11382 C 1127.96 3.45573 -0.279363 0
M  V30 11383 C 1127.02 4.07417 -1.35314 0
M  V30 11384 C 1126.25 5.26996 -0.843247 0
M  V30 11385 O 1126.47 5.69495 0.321164 0
M  V30 11386 O 1125.41 5.79826 -1.61511 0
M  V30 11387 H 1129.23 2.49333 -1.73398 0
M  V30 11388 H 1126.82 1.18784 -0.906128 0
M  V30 11389 H 1128.7 4.21398 0.0140531 0
M  V30 11390 H 1127.38 3.17854 0.612401 0
M  V30 11391 H 1126.28 3.33253 -1.6998 0
M  V30 11392 H 1127.62 4.39349 -2.21885 0
M  V30 11393 N 1129.27 0.921757 1.27833 0
M  V30 11394 C 1130.2 0.373575 2.26135 0
M  V30 11395 C 1131.21 -0.492414 1.55174 0
M  V30 11396 O 1132.4 -0.305998 1.75858 0
M  V30 11397 C 1129.5 -0.483911 3.35427 0
M  V30 11398 C 1128.68 0.361411 4.35904 0
M  V30 11399 C 1127.73 -0.432461 5.2442 0
M  V30 11400 O 1126.76 0.15777 5.68981 0
M  V30 11401 N 1127.96 -1.73367 5.54007 0
M  V30 11402 H 1130.73 1.21856 2.73809 0
M  V30 11403 H 1128.29 0.788552 1.41398 0
M  V30 11404 H 1130.28 -1.02193 3.91585 0
M  V30 11405 H 1128.85 -1.22963 2.874 0
M  V30 11406 H 1128.07 1.08076 3.79095 0
M  V30 11407 H 1129.36 0.939528 5.0005 0
M  V30 11408 H 1128.76 -2.23561 5.19651 0
M  V30 11409 H 1127.31 -2.21834 6.12889 0
M  V30 11410 N 1130.75 -1.41857 0.686609 0
M  V30 11411 C 1131.68 -2.29188 -0.0234289 0
M  V30 11412 C 1132.69 -1.44311 -0.753541 0
M  V30 11413 O 1133.88 -1.67908 -0.605734 0
M  V30 11414 C 1130.98 -3.21991 -1.05713 0
M  V30 11415 C 1130.15 -4.35581 -0.398453 0
M  V30 11416 C 1129.21 -5.09022 -1.33354 0
M  V30 11417 O 1128.24 -5.63126 -0.829334 0
M  V30 11418 N 1129.44 -5.15643 -2.66632 0
M  V30 11419 H 1132.21 -2.90766 0.726295 0
M  V30 11420 H 1129.77 -1.52912 0.531937 0
M  V30 11421 H 1131.76 -3.6799 -1.68421 0
M  V30 11422 H 1130.33 -2.61782 -1.70847 0
M  V30 11423 H 1129.55 -3.92079 0.408358 0
M  V30 11424 H 1130.84 -5.08765 0.0599239 0
M  V30 11425 H 1130.23 -4.73118 -3.10122 0
M  V30 11426 H 1128.79 -5.65248 -3.24558 0
M  V30 11427 N 1132.22 -0.430739 -1.51599 0
M  V30 11428 C 1133.16 0.419726 -2.25324 0
M  V30 11429 C 1134.17 0.991925 -1.29092 0
M  V30 11430 O 1135.36 0.887188 -1.54891 0
M  V30 11431 C 1132.46 1.59844 -2.98836 0
M  V30 11432 C 1131.63 1.14629 -4.22112 0
M  V30 11433 C 1130.69 2.19437 -4.78261 0
M  V30 11434 O 1129.72 1.79141 -5.40275 0
M  V30 11435 N 1130.92 3.51849 -4.61717 0
M  V30 11436 H 1133.68 -0.212112 -2.98948 0
M  V30 11437 H 1131.24 -0.259269 -1.59811 0
M  V30 11438 H 1133.24 2.29567 -3.33288 0
M  V30 11439 H 1131.81 2.13575 -2.28264 0
M  V30 11440 H 1131.03 0.276367 -3.9323 0
M  V30 11441 H 1132.31 0.821488 -5.02124 0
M  V30 11442 H 1131.71 3.87324 -4.12306 0
M  V30 11443 H 1130.27 4.17486 -5.00548 0
M  V30 11444 N 1133.7 1.56767 -0.161869 0
M  V30 11445 C 1134.63 2.20511 0.767918 0
M  V30 11446 C 1135.61 1.15783 1.24612 0
M  V30 11447 O 1136.8 1.44179 1.301 0
M  V30 11448 C 1133.93 2.83844 2.00125 0
M  V30 11449 C 1132.88 3.94528 1.65926 0
M  V30 11450 C 1132.21 4.44866 2.96646 0
M  V30 11451 C 1133.51 5.14583 0.894497 0
M  V30 11452 H 1135.2 2.98464 0.236607 0
M  V30 11453 H 1132.75 1.43561 0.112363 0
M  V30 11454 H 1134.7 3.27109 2.65664 0
M  V30 11455 H 1133.43 2.03246 2.55654 0
M  V30 11456 H 1132.08 3.51904 1.02759 0
M  V30 11457 H 1131.73 3.61071 3.50196 0
M  V30 11458 H 1131.43 5.19531 2.74521 0
M  V30 11459 H 1132.96 4.90812 3.6323 0
M  V30 11460 H 1134.37 5.54601 1.45228 0
M  V30 11461 H 1132.77 5.95105 0.772636 0
M  V30 11462 H 1133.84 4.84773 -0.110986 0
M  V30 11463 N 1135.18 -0.111886 1.57202 0
M  V30 11464 C 1136.13 -1.15585 2.01849 0
M  V30 11465 C 1137.12 -1.42458 0.916621 0
M  V30 11466 O 1138.33 -1.42337 1.10182 0
M  V30 11467 H 1134.7 -0.389885 0.643035 0
M  V30 11468 H 1136.67 -0.752854 2.88747 0
M  V30 11469 C 1135.42 -2.47247 2.44467 0
M  V30 11470 H 1134.75 -2.27409 3.28824 0
M  V30 11471 H 1136.19 -3.18837 2.79497 0
M  V30 11472 C 1134.65 -3.10339 1.31115 0
M  V30 11473 O 1135.18 -3.96713 0.631029 0
M  V30 11474 N 1133.38 -2.70326 1.0664 0
M  V30 11475 H 1132.93 -2.00182 1.62126 0
M  V30 11476 H 1132.89 -3.12869 0.309944 0
M  V30 11477 N 1136.66 -1.52894 -0.382264 0
M  V30 11478 C 1137.9 -1.69465 -1.12486 0
M  V30 11479 C 1138.26 -0.432631 -1.87473 0
M  V30 11480 O 1137.55 0.573901 -1.82803 0
M  V30 11481 C 1137.75 -2.87309 -2.12576 0
M  V30 11482 C 1137.58 -4.24849 -1.47421 0
M  V30 11483 C 1136.35 -4.89965 -1.23542 0
M  V30 11484 C 1138.54 -5.05991 -0.920733 0
M  V30 11485 N 1136.53 -6.1147 -0.545631 0
M  V30 11486 C 1137.9 -6.18958 -0.359379 0
M  V30 11487 C 1139.95 -4.91138 -0.817797 0
M  V30 11488 C 1138.65 -7.18695 0.294853 0
M  V30 11489 C 1140.68 -5.91134 -0.177375 0
M  V30 11490 C 1140.04 -7.03411 0.373179 0
M  V30 11491 H 1136.14 -0.673527 -0.397347 0
M  V30 11492 H 1138.73 -1.90259 -0.413479 0
M  V30 11493 H 1136.9 -2.68083 -2.81044 0
M  V30 11494 H 1138.63 -2.92784 -2.79392 0
M  V30 11495 H 1135.38 -4.48808 -1.51223 0
M  V30 11496 H 1135.81 -6.76653 -0.216582 0
M  V30 11497 H 1140.45 -4.04536 -1.22924 0
M  V30 11498 H 1138.17 -8.04901 0.718285 0
M  V30 11499 H 1141.75 -5.81716 -0.0988833 0
M  V30 11500 H 1140.63 -7.7946 0.860905 0
M  V30 11501 N 1138.14 0.641106 -1.43971 0
M  V30 11502 C 1139.08 1.75352 -1.50068 0
M  V30 11503 C 1140.05 1.62386 -0.349266 0
M  V30 11504 O 1141.24 1.82455 -0.558118 0
M  V30 11505 C 1138.38 3.13561 -1.4413 0
M  V30 11506 C 1137.49 3.37574 -2.6957 0
M  V30 11507 C 1136.63 4.65698 -2.55535 0
M  V30 11508 C 1135.67 4.82857 -3.76186 0
M  V30 11509 N 1134.8 6.02249 -3.60888 0
M  V30 11510 H 1139.64 1.69477 -2.45116 0
M  V30 11511 H 1137.18 0.826871 -1.2166 0
M  V30 11512 H 1139.14 3.93476 -1.38681 0
M  V30 11513 H 1137.77 3.18476 -0.526563 0
M  V30 11514 H 1136.82 2.5167 -2.85248 0
M  V30 11515 H 1138.13 3.46135 -3.59154 0
M  V30 11516 H 1137.29 5.53759 -2.47862 0
M  V30 11517 H 1136.03 4.59479 -1.63495 0
M  V30 11518 H 1135.03 3.93229 -3.84254 0
M  V30 11519 H 1136.26 4.90898 -4.6925 0
M  V30 11520 H 1134.2 5.97138 -2.71591 0
M  V30 11521 H 1134.12 6.11822 -4.44083 0
M  V30 11522 H 1135.39 6.92898 -3.57088 0
M  V30 11523 N 1139.62 1.30703 0.880598 0
M  V30 11524 C 1140.55 1.1327 1.99255 0
M  V30 11525 C 1141.56 0.0747186 1.62628 0
M  V30 11526 O 1142.75 0.321169 1.75587 0
M  V30 11527 C 1139.85 0.706179 3.31461 0
M  V30 11528 C 1139.02 1.84687 3.96497 0
M  V30 11529 C 1138.08 1.40817 5.07008 0
M  V30 11530 O 1137.11 2.1161 5.28403 0
M  V30 11531 N 1138.31 0.289619 5.79777 0
M  V30 11532 H 1141.07 2.09043 2.14759 0
M  V30 11533 H 1138.64 1.22896 1.05395 0
M  V30 11534 H 1140.63 0.395617 4.02762 0
M  V30 11535 H 1139.2 -0.159631 3.12192 0
M  V30 11536 H 1138.42 2.32531 3.18312 0
M  V30 11537 H 1139.71 2.61117 4.36687 0
M  V30 11538 H 1139.1 -0.300177 5.64903 0
M  V30 11539 H 1137.66 0.0385346 6.51789 0
M  V30 11540 N 1141.09 -1.09351 1.1349 0
M  V30 11541 C 1142.37 -1.78121 0.808225 0
M  V30 11542 C 1142.75 -1.99154 -0.700072 0
M  V30 11543 O 1142.1 -1.59356 -1.63762 0
M  V30 11544 C 1142.31 -3.10368 1.59601 0
M  V30 11545 C 1143.66 -3.85063 1.78919 0
M  V30 11546 O 1144.68 -3.20122 1.56206 0
M  V30 11547 O 1143.54 -5.01648 2.16821 0
M  V30 11548 H 1140.63 -0.77253 0.295173 0
M  V30 11549 H 1143.18 -1.15901 1.23956 0
M  V30 11550 H 1141.95 -2.90549 2.62101 0
M  V30 11551 H 1141.57 -3.80312 1.15967 0
M  V30 11552 N 1142.57 -0.928524 -1.27343 0
M  V30 11553 C 1143.8 -0.58516 -1.98974 0
M  V30 11554 C 1144.22 0.829964 -1.68799 0
M  V30 11555 O 1143.58 1.55705 -0.928738 0
M  V30 11556 C 1143.63 -0.818662 -3.51184 0
M  V30 11557 O 1142.73 0.115355 -4.12239 0
M  V30 11558 H 1142.07 -0.225203 -0.624644 0
M  V30 11559 H 1144.6 -1.248 -1.6213 0
M  V30 11560 H 1144.61 -0.734554 -4.01333 0
M  V30 11561 H 1143.29 -1.8502 -3.72479 0
M  V30 11562 H 1141.86 -0.0187371 -3.72895 0
M  V30 11563 N 1144.05 1.41491 -0.694123 0
M  V30 11564 C 1145 2.32594 -0.0164704 0
M  V30 11565 C 1145.99 1.50884 0.770086 0
M  V30 11566 O 1147.2 1.66829 0.675871 0
M  V30 11567 H 1143.57 0.751879 0.0134743 0
M  V30 11568 H 1145.54 2.87423 -0.80191 0
M  V30 11569 C 1144.29 3.35661 0.90703 0
M  V30 11570 H 1143.62 3.98587 0.311205 0
M  V30 11571 H 1145.06 4.0195 1.34952 0
M  V30 11572 C 1143.51 2.69436 2.02253 0
M  V30 11573 O 1144.04 2.54107 3.11115 0
M  V30 11574 N 1142.25 2.28154 1.79984 0
M  V30 11575 H 1141.8 2.40821 0.914492 0
M  V30 11576 H 1141.76 1.84178 2.54805 0
M  V30 11577 N 1145.53 0.438773 1.51369 0
M  V30 11578 C 1146.94 -0.0240139 1.86685 0
M  V30 11579 C 1147.29 -1.41816 1.35583 0
M  V30 11580 O 1146.41 -2.04517 0.707232 0
M  V30 11581 C 1147.01 -0.0503527 3.38763 0
M  V30 11582 C 1145.57 -0.457556 3.73609 0
M  V30 11583 C 1144.72 0.348852 2.75097 0
M  V30 11584 H 1147.67 0.654552 1.44573 0
M  V30 11585 H 1147.69 -0.859534 3.70665 0
M  V30 11586 H 1147.2 0.964451 3.75925 0
M  V30 11587 H 1145.3 -1.47791 3.42036 0
M  V30 11588 H 1145.41 -0.181357 4.78757 0
M  V30 11589 H 1143.78 -0.193037 2.53967 0
M  V30 11590 H 1144.56 1.36256 3.15102 0
M  V30 11591 N 1147.01 -1.56678 0.170181 0
M  V30 11592 C 1147.94 -2.20916 -0.756213 0
M  V30 11593 C 1148.92 -1.16442 -1.23997 0
M  V30 11594 O 1150.1 -1.44867 -1.29333 0
M  V30 11595 C 1147.23 -2.84901 -1.98617 0
M  V30 11596 C 1146.19 -3.95403 -1.63831 0
M  V30 11597 C 1145.51 -4.46432 -2.94282 0
M  V30 11598 C 1146.81 -5.15051 -0.867195 0
M  V30 11599 H 1148.51 -2.98585 -0.220776 0
M  V30 11600 H 1146.05 -1.43619 -0.104748 0
M  V30 11601 H 1148 -3.28514 -2.63926 0
M  V30 11602 H 1146.73 -2.04598 -2.54572 0
M  V30 11603 H 1145.39 -3.52444 -1.00891 0
M  V30 11604 H 1145.04 -3.62923 -3.48276 0
M  V30 11605 H 1144.74 -5.20979 -2.71762 0
M  V30 11606 H 1146.26 -4.92731 -3.60622 0
M  V30 11607 H 1147.67 -5.55363 -1.42285 0
M  V30 11608 H 1146.07 -5.95507 -0.741065 0
M  V30 11609 H 1147.14 -4.84707 0.136693 0
M  V30 11610 N 1148.48 0.103547 -1.57259 0
M  V30 11611 C 1149.71 0.821158 -1.8958 0
M  V30 11612 C 1150.12 1.73213 -0.761184 0
M  V30 11613 O 1149.46 1.81611 0.27625 0
M  V30 11614 C 1149.53 1.69428 -3.17072 0
M  V30 11615 C 1149.19 0.956014 -4.46889 0
M  V30 11616 C 1150.19 0.289694 -5.19092 0
M  V30 11617 C 1147.87 0.932602 -4.93566 0
M  V30 11618 C 1149.87 -0.390164 -6.36205 0
M  V30 11619 C 1147.55 0.248954 -6.10593 0
M  V30 11620 C 1148.55 -0.411259 -6.81761 0
M  V30 11621 O 1148.24 -1.08396 -7.96559 0
M  V30 11622 H 1147.97 0.240508 -0.631769 0
M  V30 11623 H 1150.53 0.0877817 -2.05212 0
M  V30 11624 H 1148.76 2.46968 -2.97563 0
M  V30 11625 H 1150.44 2.28769 -3.3529 0
M  V30 11626 H 1151.21 0.299297 -4.84076 0
M  V30 11627 H 1147.09 1.43592 -4.38067 0
M  V30 11628 H 1150.63 -0.906057 -6.91691 0
M  V30 11629 H 1146.53 0.237168 -6.45064 0
M  V30 11630 H 1147.3 -0.990002 -8.12491 0
M  V30 11631 N 1149.96 1.53094 0.37415 0
M  V30 11632 C 1150.91 1.78927 1.45787 0
M  V30 11633 C 1151.88 0.633187 1.53558 0
M  V30 11634 O 1153.06 0.874472 1.69581 0
M  V30 11635 C 1150.2 1.97726 2.8284 0
M  V30 11636 C 1149.32 3.25436 2.84104 0
M  V30 11637 C 1148.45 3.3447 4.12678 0
M  V30 11638 C 1147.49 4.56246 4.08051 0
M  V30 11639 N 1146.63 4.6248 5.28258 0
M  V30 11640 H 1151.47 2.71404 1.2306 0
M  V30 11641 H 1149 1.34453 0.596716 0
M  V30 11642 H 1150.96 2.06611 3.62447 0
M  V30 11643 H 1149.59 1.08593 3.03986 0
M  V30 11644 H 1148.64 3.25548 1.96781 0
M  V30 11645 H 1149.96 4.15112 2.76556 0
M  V30 11646 H 1149.11 3.4262 5.00696 0
M  V30 11647 H 1147.85 2.42795 4.22968 0
M  V30 11648 H 1146.85 4.48206 3.1842 0
M  V30 11649 H 1148.08 5.49254 3.99371 0
M  V30 11650 H 1146.03 3.73703 5.3915 0
M  V30 11651 H 1145.94 5.46049 5.22845 0
M  V30 11652 H 1147.21 4.74903 6.18132 0
M  V30 11653 N 1151.44 -0.633461 1.44309 0
M  V30 11654 C 1152.66 -1.42527 1.50668 0
M  V30 11655 C 1153.09 -1.87637 0.131861 0
M  V30 11656 O 1152.45 -1.58595 -0.878477 0
M  V30 11657 C 1152.5 -2.62328 2.47419 0
M  V30 11658 O 1151.6 -3.62081 1.97411 0
M  V30 11659 H 1150.94 -0.426559 0.508864 0
M  V30 11660 H 1153.47 -0.773392 1.8942 0
M  V30 11661 H 1153.48 -3.09901 2.65378 0
M  V30 11662 H 1152.16 -2.2884 3.47283 0
M  V30 11663 H 1150.73 -3.21333 1.89208 0
M  V30 11664 N 1152.92 -1.31168 -0.873655 0
M  V30 11665 C 1153.88 -1.18471 -1.96207 0
M  V30 11666 C 1154.88 -0.112814 -1.60404 0
M  V30 11667 O 1156.07 -0.3618 -1.70401 0
M  V30 11668 C 1153.2 -0.817662 -3.30949 0
M  V30 11669 H 1154.4 -2.1518 -2.08896 0
M  V30 11670 H 1151.95 -1.14727 -1.06149 0
M  V30 11671 H 1152.68 0.148428 -3.2396 0
M  V30 11672 H 1152.47 -1.59244 -3.58307 0
M  V30 11673 H 1153.96 -0.75262 -4.10762 0
M  V30 11674 N 1154.4 1.08748 -1.14068 0
M  V30 11675 C 1155.65 1.8044 -0.901352 0
M  V30 11676 C 1155.96 1.86995 0.573791 0
M  V30 11677 O 1157.16 2.55065 0.930275 0
M  V30 11678 C 1155.62 3.24185 -1.56308 0
M  V30 11679 C 1155.23 3.25875 -3.07424 0
M  V30 11680 C 1156.97 4.00584 -1.40473 0
M  V30 11681 C 1154.88 4.64186 -3.66449 0
M  V30 11682 H 1153.81 0.676201 -0.333569 0
M  V30 11683 H 1156.46 1.22169 -1.3692 0
M  V30 11684 H 1154.84 3.82561 -1.0229 0
M  V30 11685 H 1156.02 2.77225 -3.6808 0
M  V30 11686 H 1154.33 2.62969 -3.22856 0
M  V30 11687 H 1156.93 5.02781 -1.81976 0
M  V30 11688 H 1157.27 4.14823 -0.350408 0
M  V30 11689 H 1157.8 3.48668 -1.91508 0
M  V30 11690 H 1154.54 4.5515 -4.71719 0
M  V30 11691 H 1154.06 5.13132 -3.10574 0
M  V30 11692 H 1155.74 5.33161 -3.66536 0
M  V30 11693 N 1155.87 0.935264 1.26849 0
M  V30 11694 C 1157.1 0.596249 1.98122 0
M  V30 11695 C 1157.52 -0.827452 1.69702 0
M  V30 11696 O 1156.87 -1.55095 0.961864 0
M  V30 11697 C 1156.93 0.821773 3.52036 0
M  V30 11698 O 1156.65 2.18947 3.79465 0
M  V30 11699 C 1158.15 0.492498 4.40556 0
M  V30 11700 H 1155.37 0.225242 0.632066 0
M  V30 11701 H 1157.91 1.25435 1.61512 0
M  V30 11702 H 1156.07 0.210363 3.86828 0
M  V30 11703 H 1156.48 2.24509 4.74021 0
M  V30 11704 H 1157.95 0.700953 5.47531 0
M  V30 11705 H 1158.43 -0.57228 4.35456 0
M  V30 11706 H 1159.04 1.08238 4.11296 0
M  V30 11707 N 1157.35 -1.41121 0.701616 0
M  V30 11708 C 1158.58 -2.05452 0.244365 0
M  V30 11709 C 1159 -1.5282 -1.10866 0
M  V30 11710 O 1158.35 -0.67893 -1.69401 0
M  V30 11711 C 1158.4 -3.60946 0.200112 0
M  V30 11712 O 1158.12 -4.11632 1.4997 0
M  V30 11713 C 1159.63 -4.42431 -0.277394 0
M  V30 11714 H 1156.85 -0.66151 0.112453 0
M  V30 11715 H 1159.39 -1.80784 0.9559 0
M  V30 11716 H 1157.54 -3.84632 -0.462287 0
M  V30 11717 H 1157.96 -5.05723 1.39084 0
M  V30 11718 H 1159.43 -5.514 -0.257225 0
M  V30 11719 H 1159.91 -4.1898 -1.31728 0
M  V30 11720 H 1160.52 -4.23822 0.354223 0
M  V30 11721 N 1158.83 -0.446794 -1.51134 0
M  V30 11722 C 1160.06 0.114893 -2.06581 0
M  V30 11723 C 1160.47 1.35642 -1.31327 0
M  V30 11724 O 1159.83 1.78595 -0.375506 0
M  V30 11725 C 1159.88 0.427589 -3.58962 0
M  V30 11726 O 1159.6 -0.764669 -4.31375 0
M  V30 11727 C 1161.1 1.03891 -4.30954 0
M  V30 11728 H 1158.32 0.00373031 -0.67099 0
M  V30 11729 H 1160.87 -0.628596 -1.94599 0
M  V30 11730 H 1159.02 1.12099 -3.70827 0
M  V30 11731 H 1159.44 -0.494605 -5.22163 0
M  V30 11732 H 1160.91 1.20764 -5.38628 0
M  V30 11733 H 1161.39 2.02252 -3.8986 0
M  V30 11734 H 1161.99 0.384623 -4.23557 0
M  V30 11735 N 1160.31 1.56586 -0.178487 0
M  V30 11736 C 1161.56 1.96273 0.464745 0
M  V30 11737 C 1161.87 1.0675 1.63902 0
M  V30 11738 O 1163.08 1.36148 2.34896 0
M  V30 11739 C 1161.53 3.49021 0.878207 0
M  V30 11740 C 1161.14 4.4718 -0.270861 0
M  V30 11741 C 1162.88 3.97512 1.48946 0
M  V30 11742 C 1160.79 5.91176 0.162632 0
M  V30 11743 H 1159.72 0.732834 0.177398 0
M  V30 11744 H 1162.37 1.81534 -0.267861 0
M  V30 11745 H 1160.75 3.59203 1.667 0
M  V30 11746 H 1161.93 4.48718 -1.04826 0
M  V30 11747 H 1160.24 4.08788 -0.792529 0
M  V30 11748 H 1162.84 5.02556 1.82595 0
M  V30 11749 H 1163.18 3.40861 2.38997 0
M  V30 11750 H 1163.72 3.90376 0.76496 0
M  V30 11751 H 1160.46 6.51716 -0.703286 0
M  V30 11752 H 1159.98 5.9293 0.905243 0
M  V30 11753 H 1161.65 6.44174 0.604084 0
M  V30 11754 N 1161.79 -0.095206 1.57312 0
M  V30 11755 C 1162.73 -1.13438 2.03063 0
M  V30 11756 C 1163.73 -1.41478 0.931679 0
M  V30 11757 O 1164.93 -1.41161 1.11686 0
M  V30 11758 H 1161.31 -0.383042 0.647134 0
M  V30 11759 H 1163.28 -0.722186 2.89529 0
M  V30 11760 C 1162.03 -2.44641 2.47075 0
M  V30 11761 H 1161.35 -2.23908 3.31218 0
M  V30 11762 H 1162.79 -3.15855 2.82863 0
M  V30 11763 C 1161.25 -3.08931 1.34399 0
M  V30 11764 O 1161.78 -3.96021 0.673071 0
M  V30 11765 N 1159.99 -2.6918 1.09501 0
M  V30 11766 H 1159.53 -1.98451 1.6424 0
M  V30 11767 H 1159.49 -3.12522 0.34311 0
M  V30 11768 N 1163.26 -1.53291 -0.366026 0
M  V30 11769 C 1164.68 -1.61144 -0.942849 0
M  V30 11770 C 1165.03 -0.478571 -1.90274 0
M  V30 11771 O 1164.15 0.395069 -2.12763 0
M  V30 11772 C 1164.75 -2.92081 -1.71681 0
M  V30 11773 C 1163.31 -3.0227 -2.24298 0
M  V30 11774 C 1162.45 -2.56436 -1.05526 0
M  V30 11775 H 1165.4 -1.58038 -0.144835 0
M  V30 11776 H 1165.42 -2.79858 -2.57798 0
M  V30 11777 H 1164.94 -3.74513 -1.01793 0
M  V30 11778 H 1163.04 -2.24425 -2.97429 0
M  V30 11779 H 1163.15 -4.07341 -2.5221 0
M  V30 11780 H 1161.51 -2.11301 -1.42211 0
M  V30 11781 H 1162.3 -3.41285 -0.371376 0
M  V30 11782 N 1164.74 0.6258 -1.44643 0
M  V30 11783 C 1166.16 0.944569 -1.28647 0
M  V30 11784 C 1166.36 2.00227 -0.226134 0
M  V30 11785 O 1165.41 2.4953 0.386161 0
M  V30 11786 C 1166.73 1.40278 -2.65975 0
M  V30 11787 C 1168.28 1.51797 -2.73727 0
M  V30 11788 C 1168.75 2.01 -4.11537 0
M  V30 11789 N 1170.24 2.08262 -4.13741 0
M  V30 11790 C 1170.98 2.47515 -5.17227 0
M  V30 11791 N 1170.47 2.85867 -6.31072 0
M  V30 11792 N 1172.27 2.47695 -5.04583 0
M  V30 11793 H 1164.42 -0.0736157 -2.12272 0
M  V30 11794 H 1166.68 0.0296998 -0.947535 0
M  V30 11795 H 1166.39 0.699871 -3.44666 0
M  V30 11796 H 1166.26 2.37279 -2.93221 0
M  V30 11797 H 1168.65 2.21183 -1.95351 0
M  V30 11798 H 1168.73 0.531574 -2.50216 0
M  V30 11799 H 1168.37 1.32207 -4.90391 0
M  V30 11800 H 1168.3 3.0052 -4.32429 0
M  V30 11801 H 1170.79 1.81286 -3.31578 0
M  V30 11802 H 1171.11 3.14647 -7.05845 0
M  V30 11803 H 1169.45 2.83605 -6.34502 0
M  V30 11804 H 1172.64 2.17127 -4.14697 0
M  V30 11805 H 1172.81 2.77962 -5.85356 0
M  V30 11806 N 1166.22 1.31629 0.866686 0
M  V30 11807 C 1167.47 1.21503 1.61998 0
M  V30 11808 C 1167.8 -0.226044 1.93182 0
M  V30 11809 O 1167.05 -1.17573 1.56445 0
M  V30 11810 C 1167.35 2.00775 2.95676 0
M  V30 11811 C 1167.02 3.50245 2.83971 0
M  V30 11812 C 1165.68 3.91 2.80485 0
M  V30 11813 C 1168.03 4.45347 2.70769 0
M  V30 11814 C 1165.36 5.25119 2.61661 0
M  V30 11815 C 1167.71 5.79595 2.53481 0
M  V30 11816 C 1166.37 6.19567 2.48381 0
M  V30 11817 H 1165.64 0.44461 0.592792 0
M  V30 11818 H 1168.29 1.62929 1.00629 0
M  V30 11819 H 1166.6 1.52039 3.61097 0
M  V30 11820 H 1168.29 1.90318 3.52959 0
M  V30 11821 H 1164.88 3.17869 2.87502 0
M  V30 11822 H 1169.07 4.14789 2.72514 0
M  V30 11823 H 1164.32 5.5516 2.5614 0
M  V30 11824 H 1168.5 6.5291 2.42243 0
M  V30 11825 H 1166.12 7.23434 2.33554 0
M  V30 11826 N 1167.7 -1.08142 1.14644 0
M  V30 11827 C 1168.63 -2.15022 0.793614 0
M  V30 11828 C 1169.64 -1.61679 -0.190729 0
M  V30 11829 O 1170.83 -1.78472 0.0313696 0
M  V30 11830 C 1167.93 -3.38532 0.157785 0
M  V30 11831 C 1167.11 -4.21252 1.17753 0
M  V30 11832 C 1166.17 -5.23158 0.564968 0
M  V30 11833 O 1165.19 -5.5578 1.22869 0
M  V30 11834 N 1166.39 -5.7677 -0.657022 0
M  V30 11835 H 1169.16 -2.45893 1.71338 0
M  V30 11836 H 1166.72 -1.23976 1.04122 0
M  V30 11837 H 1168.71 -4.03834 -0.264586 0
M  V30 11838 H 1167.28 -3.05441 -0.665168 0
M  V30 11839 H 1166.5 -3.51888 1.77675 0
M  V30 11840 H 1167.79 -4.73335 1.86632 0
M  V30 11841 H 1167.19 -5.52503 -1.21478 0
M  V30 11842 H 1165.74 -6.4374 -1.02186 0
M  V30 11843 N 1169.18 -0.941978 -1.26351 0
M  V30 11844 C 1170.09 -0.45833 -2.30079 0
M  V30 11845 C 1171.1 0.468084 -1.67586 0
M  V30 11846 O 1172.28 0.347418 -1.98381 0
M  V30 11847 C 1169.34 0.26797 -3.45663 0
M  V30 11848 C 1168.41 -0.695102 -4.23635 0
M  V30 11849 C 1167.64 -0.003369 -5.337 0
M  V30 11850 O 1167.86 1.21342 -5.57344 0
M  V30 11851 O 1166.8 -0.682476 -5.98018 0
M  V30 11852 H 1170.62 -1.31998 -2.73514 0
M  V30 11853 H 1168.21 -0.707897 -1.31564 0
M  V30 11854 H 1170.09 0.677061 -4.15925 0
M  V30 11855 H 1168.76 1.105 -3.04256 0
M  V30 11856 H 1167.67 -1.15415 -3.55851 0
M  V30 11857 H 1169 -1.49977 -4.68794 0
M  V30 11858 N 1170.66 1.40747 -0.709091 0
M  V30 11859 C 1171.62 2.29118 -0.0611607 0
M  V30 11860 C 1172.62 1.45049 0.694081 0
M  V30 11861 O 1173.81 1.66039 0.526952 0
M  V30 11862 C 1170.94 3.28154 0.923447 0
M  V30 11863 H 1172.13 2.87913 -0.839413 0
M  V30 11864 H 1169.69 1.4896 -0.473363 0
M  V30 11865 H 1170.42 2.74366 1.72899 0
M  V30 11866 H 1170.21 3.90207 0.384862 0
M  V30 11867 H 1171.7 3.94343 1.37417 0
M  V30 11868 N 1172.13 0.454803 1.50895 0
M  V30 11869 C 1173.41 -0.166559 1.9489 0
M  V30 11870 C 1173.79 -1.58492 1.3944 0
M  V30 11871 O 1173.14 -2.20788 0.588622 0
M  V30 11872 C 1173.35 -0.126506 3.48771 0
M  V30 11873 C 1174.7 -0.32347 4.23366 0
M  V30 11874 O 1175.72 -0.203835 3.55616 0
M  V30 11875 O 1174.58 -0.563292 5.43589 0
M  V30 11876 H 1171.67 -0.120523 0.818171 0
M  V30 11877 H 1174.22 0.514037 1.61727 0
M  V30 11878 H 1172.99 0.864407 3.81633 0
M  V30 11879 H 1172.61 -0.849264 3.88424 0
M  V30 11880 N 1173.61 -1.56489 0.186789 0
M  V30 11881 C 1174.84 -2.02163 -0.463126 0
M  V30 11882 C 1175.26 -1.06612 -1.54969 0
M  V30 11883 O 1174.62 -0.0482139 -1.81236 0
M  V30 11884 C 1174.67 -3.46337 -1.00416 0
M  V30 11885 O 1173.77 -3.53889 -2.11747 0
M  V30 11886 H 1173.11 -0.65496 -0.109194 0
M  V30 11887 H 1175.64 -2.02459 0.295227 0
M  V30 11888 H 1175.65 -3.85959 -1.32287 0
M  V30 11889 H 1174.33 -4.15376 -0.208693 0
M  V30 11890 H 1172.9 -3.26136 -1.80803 0
M  V30 11891 N 1175.09 0.086862 -1.5736 0
M  V30 11892 C 1176.5 0.640442 -1.75372 0
M  V30 11893 C 1176.85 1.78693 -0.81014 0
M  V30 11894 O 1175.98 2.16398 0.00940712 0
M  V30 11895 C 1176.57 1.16856 -3.1801 0
M  V30 11896 C 1175.13 1.66813 -3.37417 0
M  V30 11897 C 1174.28 0.58116 -2.71142 0
M  V30 11898 H 1177.23 -0.139249 -1.58088 0
M  V30 11899 H 1177.25 2.03772 -3.21337 0
M  V30 11900 H 1176.76 0.333909 -3.86661 0
M  V30 11901 H 1174.86 2.52652 -2.73858 0
M  V30 11902 H 1174.98 1.75545 -4.45781 0
M  V30 11903 H 1173.34 1.0226 -2.3327 0
M  V30 11904 H 1174.12 -0.243047 -3.42439 0
M  V30 11905 N 1176.57 1.53483 0.357892 0
M  V30 11906 C 1177.8 1.73956 1.12013 0
M  V30 11907 C 1178.21 0.472053 1.82803 0
M  V30 11908 O 1177.57 -0.555499 1.7384 0
M  V30 11909 C 1177.62 2.91015 2.14459 0
M  V30 11910 O 1177.34 4.12862 1.4655 0
M  V30 11911 C 1178.84 3.23423 3.0317 0
M  V30 11912 H 1176.06 0.58161 0.334621 0
M  V30 11913 H 1178.6 2.00256 0.414467 0
M  V30 11914 H 1176.76 2.67087 2.80612 0
M  V30 11915 H 1177.17 4.78468 2.14869 0
M  V30 11916 H 1178.65 4.08717 3.71018 0
M  V30 11917 H 1179.12 2.39114 3.68404 0
M  V30 11918 H 1179.73 3.49305 2.42624 0
M  V30 11919 N 1178.05 -0.61812 1.44973 0
M  V30 11920 C 1178.98 -1.74035 1.55673 0
M  V30 11921 C 1179.96 -1.65112 0.4089 0
M  V30 11922 O 1181.14 -1.83673 0.630698 0
M  V30 11923 C 1178.27 -3.1261 1.51303 0
M  V30 11924 C 1177.23 -3.36334 2.64696 0
M  V30 11925 C 1176.55 -4.75072 2.45378 0
M  V30 11926 C 1177.85 -3.27618 4.06772 0
M  V30 11927 H 1179.55 -1.65336 2.49608 0
M  V30 11928 H 1177.09 -0.794003 1.20132 0
M  V30 11929 H 1179.04 -3.90906 1.57388 0
M  V30 11930 H 1177.77 -3.22123 0.538914 0
M  V30 11931 H 1176.43 -2.60423 2.58022 0
M  V30 11932 H 1176.08 -4.81306 1.46129 0
M  V30 11933 H 1175.78 -4.91903 3.21412 0
M  V30 11934 H 1177.3 -5.55582 2.53301 0
M  V30 11935 H 1178.71 -3.95802 4.14746 0
M  V30 11936 H 1177.11 -3.55981 4.83113 0
M  V30 11937 H 1178.18 -2.25219 4.29423 0
M  V30 11938 O 1179.56 -1.42403 -0.761819 0
M  V30 11939 H 1180.25 -1.3282 -1.40992 0
M  V30 END ATOM
M  V30 BEGIN BOND
M  V30 END BOND
M  V30 END CTAB
M  END
$$$$
