drugbank_target|Q96RI1 Bile acid receptor (DB00132; DB01586; DB02509; DB02545; DB02659; DB03619; DB04348; DB04557; DB05990; DB06777; DB08220; DB11605)
 OpenBabel12092119593D

  0  0  0     0  0            999 V3000
M  V30 BEGIN CTAB
M  V30 COUNTS 7780 7859 0 0 0
M  V30 BEGIN ATOM
M  V30 1 H -0.908 1.98254 -0.117106 0
M  V30 2 N 0 1.576 0 0
M  V30 3 C 0.933 2.03868 1.02534 0
M  V30 4 C 1.911 0.928543 1.3348 0
M  V30 5 O 3.095 1.19667 1.45644 0
M  V30 6 C 0.222 2.43627 2.35294 0
M  V30 7 C -0.732 3.65373 2.2001 0
M  V30 8 S 0.101 5.13292 1.52614 0
M  V30 9 C 1.257 5.56322 2.86805 0
M  V30 10 H 1.49 2.90518 0.631377 0
M  V30 11 H -0.977 1.52953 0.210867 0
M  V30 12 H 0.981 2.67203 3.11629 0
M  V30 13 H -0.358 1.57376 2.7183 0
M  V30 14 H -1.165 3.90944 3.18086 0
M  V30 15 H -1.563 3.418 1.51819 0
M  V30 16 H 0.729 5.58782 3.83104 0
M  V30 17 H 1.672 6.56266 2.65933 0
M  V30 18 H 2.08 4.83886 2.90714 0
M  V30 19 N 1.4781 -0.272755 1.55222 0
M  V30 20 C 2.7241 -1.00581 1.761 0
M  V30 21 C 3.0571 -1.85932 0.560625 0
M  V30 22 O 2.3321 -1.89416 -0.441801 0
M  V30 23 C 2.6151 -1.88816 3.06628 0
M  V30 24 C 2.4681 -1.06457 4.37021 0
M  V30 25 C 3.7871 -2.8752 3.33197 0
M  V30 26 H 0.9061 -0.364244 0.640699 0
M  V30 27 H 3.5481 -0.278189 1.87952 0
M  V30 28 H 1.6981 -2.50856 2.96654 0
M  V30 29 H 3.3701 -0.464863 4.58952 0
M  V30 30 H 1.6131 -0.368043 4.32236 0
M  V30 31 H 2.2841 -1.71514 5.24678 0
M  V30 32 H 4.7601 -2.35615 3.42965 0
M  V30 33 H 3.6361 -3.46399 4.25792 0
M  V30 34 H 3.8971 -3.62657 2.52849 0
M  V30 35 N 2.9562 -1.48159 -0.537278 0
M  V30 36 C 3.8892 -1.567 -1.65893 0
M  V30 37 C 4.8672 -0.41787 -1.57139 0
M  V30 38 O 6.0512 -0.628461 -1.77715 0
M  V30 39 C 3.1782 -1.48818 -3.04255 0
M  V30 40 C 2.2242 -2.68482 -3.31391 0
M  V30 41 S 3.0572 -4.30516 -3.1846 0
M  V30 42 C 4.2132 -4.2522 -4.59281 0
M  V30 43 H 4.4462 -2.5159 -1.58397 0
M  V30 44 H 1.9792 -1.36602 -0.719672 0
M  V30 45 H 3.9372 -1.44958 -3.84054 0
M  V30 46 H 2.5982 -0.552777 -3.09198 0
M  V30 47 H 1.7912 -2.59085 -4.32309 0
M  V30 48 H 1.3932 -2.69567 -2.59248 0
M  V30 49 H 3.6852 -3.94703 -5.5065 0
M  V30 50 H 4.6282 -5.26292 -4.73732 0
M  V30 51 H 5.0362 -3.55791 -4.38261 0
M  V30 52 N 4.4343 0.785586 -1.36625 0
M  V30 53 C 5.3663 1.90711 -1.2713 0
M  V30 54 C 6.3793 1.61688 -0.189986 0
M  V30 55 O 7.5683 1.72864 -0.445014 0
M  V30 56 C 4.6683 3.25611 -0.939713 0
M  V30 57 C 3.8413 3.82385 -2.12369 0
M  V30 58 C 2.9003 4.95732 -1.76456 0
M  V30 59 O 1.9263 5.12047 -2.48589 0
M  V30 60 N 3.1283 5.76258 -0.700492 0
M  V30 61 H 5.8933 1.99376 -2.23762 0
M  V30 62 H 3.4543 0.964041 -1.30069 0
M  V30 63 H 5.4463 3.98937 -0.680554 0
M  V30 64 H 4.0163 3.12538 -0.0624074 0
M  V30 65 H 3.2363 3.01001 -2.54543 0
M  V30 66 H 4.5243 4.17047 -2.9146 0
M  V30 67 H 3.9223 5.65609 -0.101624 0
M  V30 68 H 2.4793 6.4987 -0.501165 0
M  V30 69 N 5.9124 1.20967 1.01018 0
M  V30 70 C 7.1594 1.02374 1.74716 0
M  V30 71 C 7.4874 -0.443375 1.89379 0
M  V30 72 O 6.7424 -1.34535 1.42123 0
M  V30 73 C 7.0414 1.65997 3.16512 0
M  V30 74 C 6.7074 3.15831 3.2181 0
M  V30 75 C 5.3694 3.56719 3.22963 0
M  V30 76 C 7.7214 4.11816 3.19464 0
M  V30 77 C 5.0494 4.92107 3.19449 0
M  V30 78 C 7.4014 5.47158 3.17491 0
M  V30 79 C 6.0654 5.87451 3.16951 0
M  V30 80 H 5.3354 0.374614 0.639332 0
M  V30 81 H 7.9824 1.50485 1.18434 0
M  V30 82 H 6.2874 1.10166 3.75993 0
M  V30 83 H 7.9844 1.49119 3.72242 0
M  V30 84 H 4.5744 2.83263 3.21652 0
M  V30 85 H 8.7584 3.81257 3.17737 0
M  V30 86 H 4.0144 5.22579 3.17366 0
M  V30 87 H 8.1884 6.21274 3.14629 0
M  V30 88 H 5.8154 6.92329 3.13983 0
M  V30 89 N 7.3905 -1.2043 1.01659 0
M  V30 90 C 8.3225 -2.22626 0.544988 0
M  V30 91 C 9.3355 -1.58479 -0.372609 0
M  V30 92 O 10.5245 -1.77679 -0.170958 0
M  V30 93 C 7.6245 -3.38141 -0.22663 0
M  V30 94 C 6.7975 -4.31877 0.692876 0
M  V30 95 C 5.8565 -5.26191 -0.0311616 0
M  V30 96 O 4.8825 -5.6612 0.591343 0
M  V30 97 N 6.0845 -5.65618 -1.30601 0
M  V30 98 H 8.8495 -2.63716 1.42388 0
M  V30 99 H 6.4105 -1.34971 0.894116 0
M  V30 100 H 8.4025 -3.98239 -0.72024 0
M  V30 101 H 6.9725 -2.95943 -1.00681 0
M  V30 102 H 6.1925 -3.69746 1.36679 0
M  V30 103 H 7.4805 -4.91426 1.31824 0
M  V30 104 H 6.8785 -5.3519 -1.83269 0
M  V30 105 H 5.4355 -6.28025 -1.74435 0
M  V30 106 N 8.8686 -0.792821 -1.36206 0
M  V30 107 C 10.1166 -0.366062 -1.98757 0
M  V30 108 C 10.4376 1.0668 -1.63231 0
M  V30 109 O 9.7076 1.73587 -0.907978 0
M  V30 110 H 8.2876 -0.132364 -0.735179 0
M  V30 111 H 10.9496 -1.01562 -1.66347 0
M  V30 112 H 10.0456 -0.460638 -3.08682 0
M  V30 113 N 10.3467 1.47872 -0.545128 0
M  V30 114 C 11.2767 2.32661 0.197793 0
M  V30 115 C 12.2577 1.43041 0.920504 0
M  V30 116 O 13.4427 1.71912 0.90333 0
M  V30 117 C 10.5727 3.24569 1.23582 0
M  V30 118 C 9.5267 4.23333 0.630323 0
M  V30 119 C 8.8527 5.0448 1.77211 0
M  V30 120 C 10.1527 5.20704 -0.407974 0
M  V30 121 H 11.8467 2.95024 -0.510045 0
M  V30 122 H 9.3927 1.4187 -0.246731 0
M  V30 123 H 11.3457 3.8272 1.76362 0
M  V30 124 H 10.0697 2.60236 1.97344 0
M  V30 125 H 8.7287 3.6639 0.123922 0
M  V30 126 H 8.3767 4.36561 2.49847 0
M  V30 127 H 8.0767 5.71339 1.37281 0
M  V30 128 H 9.6007 5.65487 2.3034 0
M  V30 129 H 11.0147 5.7329 0.033305 0
M  V30 130 H 9.4117 5.95699 -0.725486 0
M  V30 131 H 10.4817 4.66917 -1.30828 0
M  V30 132 N 11.8248 0.280983 1.55075 0
M  V30 133 C 12.7348 -0.61388 2.26426 0
M  V30 134 C 13.7508 -1.16521 1.29224 0
M  V30 135 O 14.9268 -1.19426 1.62171 0
M  V30 136 C 11.9918 -1.7788 2.9759 0
M  V30 137 C 11.0528 -1.26355 4.10284 0
M  V30 138 C 10.2858 -2.37295 4.78045 0
M  V30 139 O 10.5088 -3.56777 4.45047 0
M  V30 140 O 9.4428 -2.05119 5.65871 0
M  V30 141 H 13.2688 -0.0356932 3.03679 0
M  V30 142 H 10.8538 0.0481686 1.49322 0
M  V30 143 H 12.7358 -2.45791 3.42293 0
M  V30 144 H 11.4108 -2.34397 2.23249 0
M  V30 145 H 10.3178 -0.550735 3.70024 0
M  V30 146 H 11.6508 -0.744065 4.86543 0
M  V30 147 N 13.3029 -1.57598 0.00835791 0
M  V30 148 C 14.2509 -2.10078 -0.998508 0
M  V30 149 C 15.2449 -1.02262 -1.35051 0
M  V30 150 O 16.4509 -1.20719 -1.33518 0
M  V30 151 H 12.8259 -0.670903 -0.339696 0
M  V30 152 H 14.7969 -2.93648 -0.530398 0
M  V30 153 C 13.5459 -2.62615 -2.27879 0
M  V30 154 H 12.8689 -3.45213 -2.01662 0
M  V30 155 H 14.3089 -3.03004 -2.96588 0
M  V30 156 C 12.7679 -1.54407 -2.99433 0
M  V30 157 O 13.2979 -0.931812 -3.90743 0
M  V30 158 N 11.5039 -1.2695 -2.61404 0
M  V30 159 H 11.0509 -1.76924 -1.87232 0
M  V30 160 H 11.0089 -0.547704 -3.09593 0
M  V30 161 N 14.781 0.264519 -1.55364 0
M  V30 162 C 16.192 0.834936 -1.6699 0
M  V30 163 C 16.543 1.86718 -0.602552 0
M  V30 164 O 15.668 2.14899 0.254425 0
M  V30 165 C 16.263 1.5212 -3.02729 0
M  V30 166 C 14.822 2.03954 -3.16354 0
M  V30 167 C 13.969 0.884498 -2.62815 0
M  V30 168 H 16.92 0.0406869 -1.58648 0
M  V30 169 H 16.941 2.38853 -2.96191 0
M  V30 170 H 16.453 0.769668 -3.80392 0
M  V30 171 H 14.554 2.82041 -2.43482 0
M  V30 172 H 14.667 2.24902 -4.23032 0
M  V30 173 H 13.031 1.2802 -2.20188 0
M  V30 174 H 13.814 0.14634 -3.42988 0
M  V30 175 N 16.2591 1.48442 0.529413 0
M  V30 176 C 17.5081 1.55742 1.28169 0
M  V30 177 C 17.8211 0.236511 1.94165 0
M  V30 178 O 19.0271 0.187761 2.7085 0
M  V30 179 C 17.4831 2.74667 2.32564 0
M  V30 180 C 17.0911 4.13402 1.72636 0
M  V30 181 C 18.8351 2.9128 3.08798 0
M  V30 182 C 16.7421 5.23587 2.74975 0
M  V30 183 H 15.6721 0.579796 0.48203 0
M  V30 184 H 18.3231 1.74776 0.559056 0
M  V30 185 H 16.7051 2.49067 3.07866 0
M  V30 186 H 17.8791 4.49022 1.03519 0
M  V30 187 H 16.1941 4.0191 1.08892 0
M  V30 188 H 18.7911 3.70767 3.85274 0
M  V30 189 H 19.1341 2.00757 3.64695 0
M  V30 190 H 19.6671 3.16782 2.40611 0
M  V30 191 H 16.4061 6.16076 2.23897 0
M  V30 192 H 15.9261 4.92454 3.42417 0
M  V30 193 H 17.6051 5.51724 3.37949 0
M  V30 194 N 17.7372 -0.778329 1.37039 0
M  V30 195 C 18.6692 -1.90034 1.2814 0
M  V30 196 C 19.6822 -1.61585 0.198558 0
M  V30 197 O 20.8712 -1.72625 0.454175 0
M  V30 198 C 17.9712 -3.25108 0.956968 0
M  V30 199 C 17.1442 -3.81253 2.14394 0
M  V30 200 C 16.2032 -4.94789 1.79082 0
M  V30 201 O 15.2292 -5.10721 2.51301 0
M  V30 202 N 16.4312 -5.75878 0.731043 0
M  V30 203 H 19.1962 -1.98186 2.24816 0
M  V30 204 H 16.7572 -0.957129 1.30578 0
M  V30 205 H 18.7492 -3.9857 0.701701 0
M  V30 206 H 17.3192 -3.125 0.0789812 0
M  V30 207 H 16.5392 -2.99647 2.56135 0
M  V30 208 H 17.8272 -4.15495 2.93668 0
M  V30 209 H 17.2252 -5.65547 0.131618 0
M  V30 210 H 15.7822 -6.49596 0.535622 0
M  V30 211 N 19.2153 -1.21501 -1.00376 0
M  V30 212 C 20.4643 -1.02718 -1.73586 0
M  V30 213 C 20.7773 0.439589 -1.90596 0
M  V30 214 O 21.9833 0.746848 -2.61026 0
M  V30 215 C 20.4393 -1.78929 -3.1227 0
M  V30 216 C 20.0473 -3.29783 -3.03228 0
M  V30 217 C 21.7913 -1.68557 -3.89601 0
M  V30 218 C 19.6983 -3.98479 -4.36999 0
M  V30 219 H 18.6283 -0.380733 -0.650814 0
M  V30 220 H 21.2793 -1.45248 -1.1214 0
M  V30 221 H 19.6613 -1.29192 -3.74333 0
M  V30 222 H 20.8353 -3.86832 -2.50395 0
M  V30 223 H 19.1503 -3.40711 -2.39385 0
M  V30 224 H 21.7473 -2.17211 -4.88593 0
M  V30 225 H 22.0903 -0.644021 -4.11288 0
M  V30 226 H 22.6233 -2.15778 -3.34193 0
M  V30 227 H 19.3623 -5.02841 -4.20513 0
M  V30 228 H 18.8823 -3.46219 -4.89788 0
M  V30 229 H 20.5613 -4.03462 -5.05794 0
M  V30 230 N 20.6934 1.19889 -1.02296 0
M  V30 231 C 21.9184 1.9393 -0.735237 0
M  V30 232 C 22.3434 1.74639 0.698782 0
M  V30 233 O 21.7014 1.04481 1.48167 0
M  V30 234 C 21.7494 3.43916 -1.08417 0
M  V30 235 O 20.8534 4.11917 -0.199446 0
M  V30 236 H 20.1944 0.605645 -0.272196 0
M  V30 237 H 22.7244 1.52137 -1.36804 0
M  V30 238 H 22.7344 3.9456 -1.03856 0
M  V30 239 H 21.4094 3.5728 -2.12894 0
M  V30 240 H 19.9864 3.71666 -0.303136 0
M  V30 241 N 22.1715 0.800033 1.35784 0
M  V30 242 C 23.5825 0.439142 1.81462 0
M  V30 243 C 23.9335 -1.03813 1.66485 0
M  V30 244 O 23.0585 -1.80626 1.19177 0
M  V30 245 C 23.6535 0.790314 3.29453 0
M  V30 246 C 22.2125 0.482111 3.733 0
M  V30 247 C 21.3595 1.01938 2.57883 0
M  V30 248 H 24.3105 0.992254 1.23855 0
M  V30 249 H 24.3315 0.0853677 3.80404 0
M  V30 250 H 23.8435 1.86554 3.40322 0
M  V30 251 H 21.9445 -0.584652 3.67984 0
M  V30 252 H 22.0575 1.01015 4.6833 0
M  V30 253 H 20.4215 0.442043 2.50835 0
M  V30 254 H 21.2045 2.10059 2.71533 0
M  V30 255 N 23.6496 -1.47581 0.552962 0
M  V30 256 C 24.5996 -2.26961 -0.217423 0
M  V30 257 C 25.5836 -1.34099 -0.889168 0
M  V30 258 O 26.7756 -1.58483 -0.788176 0
M  V30 259 C 23.9046 -3.19756 -1.24944 0
M  V30 260 C 22.9906 -4.20097 -0.581327 0
M  V30 261 N 23.3816 -5.04614 0.346171 0
M  V30 262 C 21.6796 -4.38099 -0.835767 0
M  V30 263 C 22.3806 -5.77052 0.733854 0
M  V30 264 N 21.3566 -5.43526 0.0896567 0
M  V30 265 H 25.1586 -2.89688 0.495761 0
M  V30 266 H 22.6726 -1.58068 0.372597 0
M  V30 267 H 24.6696 -3.75305 -1.81527 0
M  V30 268 H 23.3296 -2.58585 -1.96376 0
M  V30 269 H 24.3406 -5.12869 0.720098 0
M  V30 270 H 21.0176 -3.88102 -1.53892 0
M  V30 271 H 22.4076 -6.5504 1.49574 0
M  V30 272 N 25.1277 -0.289203 -1.54924 0
M  V30 273 C 26.3677 0.324536 -2.01807 0
M  V30 274 C 26.7317 1.5199 -1.17316 0
M  V30 275 O 27.9327 2.20422 -1.53843 0
M  V30 276 C 26.2037 0.683578 -3.50802 0
M  V30 277 S 27.7627 1.28185 -4.19659 0
M  V30 278 H 24.5807 0.100236 -0.703899 0
M  V30 279 H 27.1827 -0.414325 -1.91059 0
M  V30 280 H 25.8867 -0.195073 -4.09936 0
M  V30 281 H 25.4177 1.45354 -3.65562 0
M  V30 282 H 27.4327 2.57006 -4.24456 0
M  V30 283 N 26.6058 1.57591 -0.0167156 0
M  V30 284 C 27.8308 1.9598 0.67872 0
M  V30 285 C 28.2558 0.892546 1.65575 0
M  V30 286 O 27.6138 -0.147772 1.80697 0
M  V30 287 C 27.6618 3.33468 1.37227 0
M  V30 288 O 26.7658 3.28954 2.48722 0
M  V30 289 H 26.1068 0.639339 0.17928 0
M  V30 290 H 28.6368 2.04463 -0.0748802 0
M  V30 291 H 28.6468 3.69417 1.7319 0
M  V30 292 H 27.3218 4.10694 0.656007 0
M  V30 293 H 25.8988 3.04705 2.14963 0
M  V30 294 N 28.0839 -0.256276 1.55502 0
M  V30 295 C 29.3239 -0.993081 1.78654 0
M  V30 296 C 29.6879 -1.8288 0.584724 0
M  V30 297 O 30.8889 -2.59665 0.694822 0
M  V30 298 C 29.1599 -1.83856 3.06483 0
M  V30 299 S 30.7189 -2.63573 3.5082 0
M  V30 300 H 27.5369 -0.334199 0.62756 0
M  V30 301 H 30.1389 -0.26184 1.93739 0
M  V30 302 H 28.8429 -1.21414 3.92029 0
M  V30 303 H 28.3739 -2.61271 2.94111 0
M  V30 304 H 30.3889 -3.86312 3.11412 0
M  V30 305 N 29.562 -1.4872 -0.521534 0
M  V30 306 C 30.79 -1.60843 -1.30142 0
M  V30 307 C 31.205 -0.271897 -1.86832 0
M  V30 308 O 30.562 0.739969 -1.66825 0
M  V30 309 C 30.613 -2.66155 -2.4463 0
M  V30 310 O 30.334 -3.94623 -1.90275 0
M  V30 311 C 31.835 -2.88795 -3.36322 0
M  V30 312 H 29.055 -0.542075 -0.395468 0
M  V30 313 H 31.599 -1.94609 -0.628285 0
M  V30 314 H 29.754 -2.35224 -3.07812 0
M  V30 315 H 30.168 -4.52468 -2.65279 0
M  V30 316 H 31.642 -3.66264 -4.12983 0
M  V30 317 H 32.119 -1.97934 -3.9207 0
M  V30 318 H 32.725 -3.21063 -2.78924 0
M  V30 319 N 31.0401 0.771051 -1.3745 0
M  V30 320 C 32.4511 1.34737 -1.29239 0
M  V30 321 C 32.8021 1.96109 0.0596908 0
M  V30 322 O 31.9271 1.93865 0.961534 0
M  V30 323 C 32.5221 2.44973 -2.34037 0
M  V30 324 C 31.0811 2.98372 -2.29458 0
M  V30 325 C 30.2281 1.71595 -2.17831 0
M  V30 326 H 33.1791 0.571256 -1.48062 0
M  V30 327 H 33.2001 3.24471 -1.98744 0
M  V30 328 H 32.7121 2.00276 -3.32432 0
M  V30 329 H 30.8131 3.47443 -1.34589 0
M  V30 330 H 30.9261 3.53939 -3.229 0
M  V30 331 H 29.2901 1.94547 -1.64388 0
M  V30 332 H 30.0731 1.29001 -3.18141 0
M  V30 333 N 32.5182 1.22032 0.997298 0
M  V30 334 C 33.7432 1.06921 1.77715 0
M  V30 335 C 34.1682 -0.376226 1.84299 0
M  V30 336 O 33.5262 -1.27165 1.29223 0
M  V30 337 C 33.5742 1.67996 3.19076 0
M  V30 338 O 32.6782 0.930653 4.01762 0
M  V30 339 H 32.0192 0.375814 0.547412 0
M  V30 340 H 34.5492 1.61737 1.25309 0
M  V30 341 H 34.5592 1.72538 3.69723 0
M  V30 342 H 33.2342 2.73182 3.13599 0
M  V30 343 H 31.8112 0.960917 3.60307 0
M  V30 344 N 33.9963 -1.19345 1.0293 0
M  V30 345 C 35.2443 -1.88665 0.724574 0
M  V30 346 C 35.5653 -1.80036 -0.749144 0
M  V30 347 O 34.8353 -1.2111 -1.53978 0
M  V30 348 H 33.4153 -0.698406 0.265025 0
M  V30 349 H 36.0773 -1.44885 1.30362 0
M  V30 350 H 35.1733 -2.94987 1.01926 0
M  V30 351 N 35.4744 -0.807222 -1.35358 0
M  V30 352 C 36.7214 -0.387888 -1.9875 0
M  V30 353 C 37.0494 1.04509 -1.64037 0
M  V30 354 O 36.3044 1.73986 -0.895946 0
M  V30 355 C 36.6034 -0.519036 -3.53611 0
M  V30 356 C 36.2694 -1.91542 -4.08194 0
M  V30 357 C 34.9314 -2.29745 -4.22813 0
M  V30 358 C 37.2834 -2.82896 -4.37744 0
M  V30 359 C 34.6114 -3.58668 -4.643 0
M  V30 360 C 36.9634 -4.11265 -4.8067 0
M  V30 361 C 35.6274 -4.49466 -4.93494 0
M  V30 362 H 34.8974 -0.141938 -0.727279 0
M  V30 363 H 37.5444 -1.02814 -1.6156 0
M  V30 364 H 35.8494 0.204658 -3.91265 0
M  V30 365 H 37.5464 -0.175345 -4.00616 0
M  V30 366 H 34.1364 -1.60862 -3.97268 0
M  V30 367 H 38.3204 -2.54629 -4.26002 0
M  V30 368 H 33.5764 -3.88113 -4.72418 0
M  V30 369 H 37.7504 -4.82153 -5.02496 0
M  V30 370 H 35.3774 -5.49418 -5.25399 0
M  V30 371 N 36.9525 1.47285 -0.560781 0
M  V30 372 C 38.1995 2.02464 -0.038062 0
M  V30 373 C 38.5275 1.43474 1.31322 0
M  V30 374 O 37.7825 0.581311 1.86867 0
M  V30 375 C 38.0815 3.57258 0.100784 0
M  V30 376 C 37.7475 4.35184 -1.18007 0
M  V30 377 C 36.4095 4.56194 -1.53103 0
M  V30 378 C 38.7615 4.80098 -2.02867 0
M  V30 379 C 36.0895 5.19367 -2.729 0
M  V30 380 C 38.4415 5.44593 -3.21871 0
M  V30 381 C 37.1055 5.63835 -3.57276 0
M  V30 382 H 36.3755 0.740869 -0.0139279 0
M  V30 383 H 39.0225 1.76916 -0.733012 0
M  V30 384 H 37.3275 3.81819 0.878724 0
M  V30 385 H 39.0245 3.97606 0.520639 0
M  V30 386 H 35.6145 4.19113 -0.8968 0
M  V30 387 H 39.7985 4.63642 -1.7706 0
M  V30 388 H 35.0545 5.32459 -3.00496 0
M  V30 389 H 39.2285 5.78358 -3.87911 0
M  V30 390 H 36.8555 6.12557 -4.50197 0
M  V30 391 N 38.4306 0.297415 1.54768 0
M  V30 392 C 39.3636 -0.622188 2.19554 0
M  V30 393 C 40.3416 -1.13558 1.16376 0
M  V30 394 O 41.5256 -1.20444 1.45002 0
M  V30 395 C 38.6526 -1.8509 2.83653 0
M  V30 396 C 37.6986 -1.47106 4.00328 0
M  V30 397 S 38.5316 -0.53006 5.3287 0
M  V30 398 C 39.6876 -1.76665 6.0045 0
M  V30 399 H 39.9206 -0.0717806 2.97213 0
M  V30 400 H 37.4536 0.0815678 1.54184 0
M  V30 401 H 39.4116 -2.55605 3.21211 0
M  V30 402 H 38.0726 -2.37247 2.05846 0
M  V30 403 H 37.2656 -2.38594 4.43947 0
M  V30 404 H 36.8676 -0.845885 3.64309 0
M  V30 405 H 39.1596 -2.7077 6.21039 0
M  V30 406 H 40.1026 -1.37308 6.9466 0
M  V30 407 H 40.5106 -1.94174 5.30054 0
M  V30 408 N 39.9087 -1.5758 0.0250728 0
M  V30 409 C 40.8187 -2.1343 -0.973905 0
M  V30 410 C 41.8347 -1.08556 -1.35984 0
M  V30 411 O 43.0107 -1.40592 -1.44207 0
M  V30 412 C 40.0757 -2.64703 -2.23904 0
M  V30 413 C 39.1367 -3.84276 -1.91391 0
M  V30 414 C 38.3697 -4.33095 -3.11873 0
M  V30 415 O 38.5927 -3.81107 -4.24398 0
M  V30 416 O 37.5267 -5.24984 -2.94406 0
M  V30 417 H 41.3527 -2.99057 -0.529036 0
M  V30 418 H 38.9377 -1.48118 -0.195288 0
M  V30 419 H 40.8197 -2.97769 -2.98181 0
M  V30 420 H 39.4947 -1.82161 -2.6758 0
M  V30 421 H 38.4017 -3.56143 -1.14511 0
M  V30 422 H 39.7347 -4.67968 -1.52534 0
M  V30 423 N 41.3868 0.248026 -1.55636 0
M  V30 424 C 42.3198 1.3334 -1.85191 0
M  V30 425 C 43.2978 1.46429 -0.706906 0
M  V30 426 O 44.4818 1.62662 -0.952544 0
M  V30 427 C 41.6088 2.70703 -2.03562 0
M  V30 428 C 40.6548 2.7477 -3.26196 0
M  V30 429 S 41.4878 2.31493 -4.82878 0
M  V30 430 C 42.6438 3.70783 -5.04253 0
M  V30 431 H 42.8768 1.08072 -2.76962 0
M  V30 432 H 40.4098 0.448952 -1.47729 0
M  V30 433 H 42.3678 3.49798 -2.1483 0
M  V30 434 H 41.0288 2.9321 -1.12635 0
M  V30 435 H 40.2218 3.75648 -3.36013 0
M  V30 436 H 39.8238 2.03719 -3.13647 0
M  V30 437 H 42.1158 4.6627 -4.91527 0
M  V30 438 H 43.0588 3.65901 -6.06236 0
M  V30 439 H 43.4668 3.63244 -4.32105 0
M  V30 440 N 42.8649 1.48995 0.513639 0
M  V30 441 C 43.7979 1.59319 1.63379 0
M  V30 442 C 44.7759 0.442816 1.56454 0
M  V30 443 O 45.9599 0.656655 1.76693 0
M  V30 444 C 43.0869 1.5364 3.01848 0
M  V30 445 C 42.1329 2.7372 3.27078 0
M  V30 446 S 42.9659 4.35528 3.1157 0
M  V30 447 C 44.1219 4.32473 4.52458 0
M  V30 448 H 44.3549 2.54079 1.54374 0
M  V30 449 H 41.8879 1.3773 0.697849 0
M  V30 450 H 43.8459 1.51049 3.81699 0
M  V30 451 H 42.5069 0.601898 3.08279 0
M  V30 452 H 41.6999 2.6593 4.28132 0
M  V30 453 H 41.3019 2.73657 2.54927 0
M  V30 454 H 43.5939 4.03414 5.44301 0
M  V30 455 H 44.5369 5.33762 4.65299 0
M  V30 456 H 44.9449 3.62718 4.32546 0
M  V30 457 N 44.343 -0.763751 1.37857 0
M  V30 458 C 45.568 -1.55805 1.36893 0
M  V30 459 C 45.993 -1.88054 -0.0416135 0
M  V30 460 O 45.351 -1.49825 -1.02089 0
M  V30 461 C 45.399 -2.84012 2.22192 0
M  V30 462 O 44.503 -3.78732 1.63204 0
M  V30 463 H 43.844 -0.471638 0.46739 0
M  V30 464 H 46.374 -0.944657 1.81487 0
M  V30 465 H 46.384 -3.33037 2.35691 0
M  V30 466 H 45.059 -2.59869 3.24716 0
M  V30 467 H 43.636 -3.37402 1.58791 0
M  V30 468 N 45.8211 -1.22559 -0.990812 0
M  V30 469 C 46.7541 -0.940773 -2.07905 0
M  V30 470 C 47.7321 0.117082 -1.62178 0
M  V30 471 O 48.9161 -0.0149506 -1.88494 0
M  V30 472 C 46.0431 -0.415321 -3.36144 0
M  V30 473 C 45.0891 -1.45818 -4.00799 0
M  V30 474 S 45.9221 -3.03219 -4.41382 0
M  V30 475 C 47.0781 -2.52317 -5.72789 0
M  V30 476 H 47.3111 -1.8623 -2.31745 0
M  V30 477 H 44.8441 -1.05688 -1.12558 0
M  V30 478 H 46.8021 -0.118747 -4.10328 0
M  V30 479 H 45.4631 0.485121 -3.10331 0
M  V30 480 H 44.6561 -1.04044 -4.93144 0
M  V30 481 H 44.2581 -1.70356 -3.32949 0
M  V30 482 H 46.5501 -1.93688 -6.49224 0
M  V30 483 H 47.4931 -3.43161 -6.19392 0
M  V30 484 H 47.9011 -1.93529 -5.30289 0
M  V30 485 N 47.2992 1.18797 -1.03562 0
M  V30 486 C 48.2462 2.22253 -0.622259 0
M  V30 487 C 49.2162 1.61987 0.36736 0
M  V30 488 O 50.4012 1.88986 0.262492 0
M  V30 489 C 47.5412 3.45097 0.0138462 0
M  V30 490 C 46.6542 4.19722 -1.02263 0
M  V30 491 C 45.7892 5.30009 -0.355573 0
M  V30 492 C 44.8282 5.96399 -1.37749 0
M  V30 493 N 43.9652 6.98234 -0.735766 0
M  V30 494 H 48.8052 2.56968 -1.50903 0
M  V30 495 H 46.3422 1.26245 -0.755017 0
M  V30 496 H 48.3002 4.15279 0.399948 0
M  V30 497 H 46.9302 3.11018 0.864158 0
M  V30 498 H 45.9822 3.48418 -1.52673 0
M  V30 499 H 47.2942 4.65227 -1.79903 0
M  V30 500 H 46.4482 6.0664 0.0850095 0
M  V30 501 H 45.1872 4.85592 0.452967 0
M  V30 502 H 44.1922 5.18512 -1.82826 0
M  V30 503 H 45.4172 6.42899 -2.18764 0
M  V30 504 H 43.3632 6.55979 0.0525597 0
M  V30 505 H 43.2802 7.41965 -1.44995 0
M  V30 506 H 44.5482 7.78845 -0.31941 0
M  V30 507 N 48.7773 0.814389 1.34928 0
M  V30 508 C 50.1883 0.458364 1.80986 0
M  V30 509 C 50.5393 -1.02042 1.67577 0
M  V30 510 O 49.6643 -1.79352 1.21086 0
M  V30 511 C 50.2593 0.825212 3.28597 0
M  V30 512 C 48.8183 0.521677 3.72767 0
M  V30 513 C 47.9653 1.04668 2.56788 0
M  V30 514 H 50.9163 1.00533 1.22795 0
M  V30 515 H 50.9373 0.12571 3.80292 0
M  V30 516 H 50.4493 1.90154 3.38324 0
M  V30 517 H 48.5503 -0.545589 3.68584 0
M  V30 518 H 48.6633 1.05977 4.67232 0
M  V30 519 H 47.0273 0.468622 2.50352 0
M  V30 520 H 47.8103 2.12927 2.6929 0
M  V30 521 N 50.2554 -1.46986 0.568584 0
M  V30 522 C 51.2184 -2.28624 -0.162366 0
M  V30 523 C 52.2184 -1.37596 -0.832103 0
M  V30 524 O 53.4084 -1.60115 -0.68622 0
M  V30 525 C 50.5404 -3.17596 -1.23878 0
M  V30 526 H 51.7334 -2.94722 0.554899 0
M  V30 527 H 49.2864 -1.52863 0.325976 0
M  V30 528 H 50.0214 -2.56214 -1.98808 0
M  V30 529 H 49.8064 -3.846 -0.763219 0
M  V30 530 H 51.2964 -3.79078 -1.75185 0
M  V30 531 N 51.7335 -0.305618 -1.54608 0
M  V30 532 C 52.6805 0.568421 -2.23691 0
M  V30 533 C 53.6505 1.12592 -1.22116 0
M  V30 534 O 54.8355 1.16959 -1.50749 0
M  V30 535 C 51.9755 1.7322 -2.98477 0
M  V30 536 C 51.0885 1.20566 -4.14835 0
M  V30 537 C 50.2235 2.33368 -4.77193 0
M  V30 538 C 49.2625 1.7787 -5.85686 0
M  V30 539 N 48.3995 2.84263 -6.4198 0
M  V30 540 H 53.2395 -0.0272867 -2.97988 0
M  V30 541 H 50.7765 -0.0252363 -1.47078 0
M  V30 542 H 52.7345 2.41675 -3.40072 0
M  V30 543 H 51.3645 2.29947 -2.26548 0
M  V30 544 H 50.4165 0.413223 -3.78149 0
M  V30 545 H 51.7285 0.759417 -4.92985 0
M  V30 546 H 50.8825 3.09761 -5.21664 0
M  V30 547 H 49.6215 2.8132 -3.98385 0
M  V30 548 H 48.6265 0.99968 -5.40635 0
M  V30 549 H 49.8515 1.30816 -6.66381 0
M  V30 550 H 47.7975 3.31541 -5.66053 0
M  V30 551 H 47.7145 2.44149 -7.15491 0
M  V30 552 H 48.9825 3.6054 -6.91109 0
M  V30 553 N 53.2116 1.57565 -0.0334293 0
M  V30 554 C 54.4596 1.91598 0.642999 0
M  V30 555 C 54.7806 0.910847 1.7242 0
M  V30 556 O 54.0506 -0.0469931 1.95844 0
M  V30 557 H 52.6306 0.707228 0.240496 0
M  V30 558 H 55.2926 1.94726 -0.0822488 0
M  V30 559 H 54.3886 2.92336 1.09298 0
M  V30 560 N 54.6897 -0.239769 1.55765 0
M  V30 561 C 55.9357 -0.968234 1.78194 0
M  V30 562 C 56.2687 -1.84701 0.599938 0
M  V30 563 O 55.5437 -1.9031 -0.401524 0
M  V30 564 C 55.8267 -1.8227 3.10564 0
M  V30 565 C 55.6797 -0.971633 4.3918 0
M  V30 566 C 56.9987 -2.80388 3.39221 0
M  V30 567 H 54.1177 -0.350572 0.648281 0
M  V30 568 H 56.7597 -0.238259 1.885 0
M  V30 569 H 54.9097 -2.44507 3.01908 0
M  V30 570 H 56.5817 -0.367408 4.59835 0
M  V30 571 H 54.8247 -0.276276 4.32919 0
M  V30 572 H 55.4957 -1.60346 5.28198 0
M  V30 573 H 57.9717 -2.28287 3.47885 0
M  V30 574 H 56.8477 -3.3729 4.33044 0
M  V30 575 H 57.1087 -3.57212 2.60484 0
M  V30 576 N 56.1678 -1.49265 -0.50573 0
M  V30 577 C 57.0978 -1.68495 -1.61653 0
M  V30 578 C 58.0788 -0.53366 -1.61512 0
M  V30 579 O 59.2638 -0.76897 -1.78327 0
M  V30 580 C 56.3938 -1.74709 -3.00157 0
M  V30 581 C 55.3478 -2.89581 -3.15162 0
M  V30 582 C 54.6738 -2.80903 -4.5497 0
M  V30 583 C 55.9738 -4.30578 -2.95634 0
M  V30 584 H 57.6678 -2.61493 -1.45814 0
M  V30 585 H 55.2138 -1.25838 -0.70005 0
M  V30 586 H 57.1668 -1.86748 -3.77761 0
M  V30 587 H 55.8908 -0.783067 -3.17074 0
M  V30 588 H 54.5498 -2.77136 -2.39982 0
M  V30 589 H 54.1978 -1.82419 -4.68756 0
M  V30 590 H 53.8978 -3.57999 -4.65951 0
M  V30 591 H 55.4218 -2.94944 -5.34641 0
M  V30 592 H 56.8358 -4.4373 -3.63011 0
M  V30 593 H 55.2328 -5.0886 -3.18091 0
M  V30 594 H 56.3028 -4.45352 -1.91806 0
M  V30 595 N 57.6459 0.756429 -1.3826 0
M  V30 596 C 58.8739 1.54565 -1.3754 0
M  V30 597 C 59.2889 1.88767 0.0355331 0
M  V30 598 O 58.6459 1.52572 1.0014 0
M  V30 599 C 58.6969 2.84654 -2.22833 0
M  V30 600 O 58.4179 2.51912 -3.5843 0
M  V30 601 C 59.9189 3.78807 -2.30261 0
M  V30 602 H 57.1389 0.478353 -0.470553 0
M  V30 603 H 59.6829 0.936381 -1.81803 0
M  V30 604 H 57.8379 3.41965 -1.8204 0
M  V30 605 H 58.2519 3.35325 -4.03308 0
M  V30 606 H 59.7259 4.67045 -2.94233 0
M  V30 607 H 60.2029 4.19038 -1.31545 0
M  V30 608 H 60.8089 3.2742 -2.71433 0
M  V30 609 N 59.124 1.23083 0.984299 0
M  V30 610 C 60.034 1.02515 2.11016 0
M  V30 611 C 61.05 -0.0291702 1.73976 0
M  V30 612 O 62.226 0.165434 2.00719 0
M  V30 613 C 59.291 0.614673 3.41208 0
M  V30 614 C 58.352 1.74359 3.92297 0
M  V30 615 C 57.585 1.35261 5.16275 0
M  V30 616 O 57.808 0.235136 5.69915 0
M  V30 617 O 56.742 2.17227 5.61334 0
M  V30 618 H 60.568 1.96862 2.31255 0
M  V30 619 H 58.153 1.01753 1.09392 0
M  V30 620 H 60.035 0.396518 4.1953 0
M  V30 621 H 58.71 -0.299851 3.22308 0
M  V30 622 H 57.617 2.01635 3.1511 0
M  V30 623 H 58.95 2.63629 4.15645 0
M  V30 624 N 60.6021 -1.18246 1.0419 0
M  V30 625 C 61.5341 -2.2142 0.592088 0
M  V30 626 C 62.5471 -1.59233 -0.338909 0
M  V30 627 O 63.7361 -1.78002 -0.133231 0
M  V30 628 C 60.8361 -3.38546 -0.154854 0
M  V30 629 C 60.0091 -4.3031 0.784328 0
M  V30 630 C 59.0681 -5.26138 0.0804583 0
M  V30 631 O 58.0941 -5.64738 0.711292 0
M  V30 632 N 59.2961 -5.68261 -1.18574 0
M  V30 633 H 62.0611 -2.60636 1.47949 0
M  V30 634 H 59.6221 -1.33044 0.922544 0
M  V30 635 H 61.6141 -3.99678 -0.635606 0
M  V30 636 H 60.1841 -2.98012 -0.943811 0
M  V30 637 H 59.4041 -3.66764 1.44491 0
M  V30 638 H 60.6921 -4.8852 1.42218 0
M  V30 639 H 60.0901 -5.38957 -1.71876 0
M  V30 640 H 58.6471 -6.31584 -1.61074 0
M  V30 641 N 62.0802 -0.821533 -1.34494 0
M  V30 642 C 63.3262 -0.409552 -1.98622 0
M  V30 643 C 63.6592 1.0244 -1.64984 0
M  V30 644 O 62.9342 1.71325 -0.920758 0
M  V30 645 C 63.2172 -0.610458 -3.54888 0
M  V30 646 C 63.0702 -2.09043 -3.98273 0
M  V30 647 C 64.3892 -0.0455379 -4.40076 0
M  V30 648 H 61.5082 -0.15028 -0.721516 0
M  V30 649 H 64.1502 -1.03384 -1.59411 0
M  V30 650 H 62.3002 -0.079044 -3.8842 0
M  V30 651 H 63.9722 -2.68537 -3.75081 0
M  V30 652 H 62.2152 -2.58139 -3.48635 0
M  V30 653 H 62.8862 -2.18182 -5.07051 0
M  V30 654 H 65.3622 -0.499557 -4.1309 0
M  V30 655 H 64.2382 -0.215922 -5.48475 0
M  V30 656 H 64.4992 1.04939 -4.29465 0
M  V30 657 N 63.5583 1.46682 -0.576371 0
M  V30 658 C 64.5213 2.28707 0.150239 0
M  V30 659 C 65.5213 1.38035 0.824794 0
M  V30 660 O 66.7113 1.60476 0.677719 0
M  V30 661 C 63.8433 3.18248 1.22192 0
M  V30 662 H 65.0363 2.94423 -0.570521 0
M  V30 663 H 62.5893 1.52688 -0.334078 0
M  V30 664 H 63.3243 2.57265 1.97447 0
M  V30 665 H 63.1093 3.85 0.742812 0
M  V30 666 H 64.5993 3.80001 1.73172 0
M  V30 667 N 65.0364 0.313813 1.54444 0
M  V30 668 C 66.2844 -0.291099 1.99993 0
M  V30 669 C 66.6054 -1.53418 1.20366 0
M  V30 670 O 65.8754 -1.93544 0.302927 0
M  V30 671 H 64.4554 -0.110552 0.738774 0
M  V30 672 H 67.1174 0.428106 1.9014 0
M  V30 673 H 66.2134 -0.554268 3.07139 0
M  V30 674 N 66.5145 -1.57545 0.0417849 0
M  V30 675 C 67.9255 -1.80011 -0.495259 0
M  V30 676 C 68.2765 -0.953199 -1.71489 0
M  V30 677 O 67.4015 -0.167138 -2.15754 0
M  V30 678 C 67.9965 -3.26482 -0.905265 0
M  V30 679 C 66.5555 -3.499 -1.38734 0
M  V30 680 C 65.7025 -2.74979 -0.358056 0
M  V30 681 H 68.6535 -1.56425 0.267736 0
M  V30 682 H 68.6745 -3.36887 -1.76882 0
M  V30 683 H 68.1865 -3.88096 -0.017401 0
M  V30 684 H 66.2875 -2.93553 -2.29471 0
M  V30 685 H 66.4005 -4.58615 -1.38598 0
M  V30 686 H 64.7645 -2.40834 -0.828912 0
M  V30 687 H 65.5475 -3.39315 0.521561 0
M  V30 688 N 67.9926 0.231505 -1.5589 0
M  V30 689 C 68.9226 1.29022 -1.94617 0
M  V30 690 C 69.9036 1.4941 -0.813067 0
M  V30 691 O 71.0886 1.6176 -1.07459 0
M  V30 692 C 68.2186 2.64199 -2.25424 0
M  V30 693 C 67.1726 2.58484 -3.41131 0
M  V30 694 C 66.4986 3.97599 -3.57518 0
M  V30 695 C 67.7986 2.1413 -4.76388 0
M  V30 696 H 69.4926 0.968563 -2.83301 0
M  V30 697 H 67.0386 0.464479 -1.36303 0
M  V30 698 H 68.9916 3.38413 -2.51107 0
M  V30 699 H 67.7156 2.98032 -1.33583 0
M  V30 700 H 66.3746 1.86727 -3.15481 0
M  V30 701 H 66.0226 4.28723 -2.6307 0
M  V30 702 H 65.7226 3.94659 -4.35337 0
M  V30 703 H 67.2466 4.7349 -3.85538 0
M  V30 704 H 68.6606 2.78083 -5.01341 0
M  V30 705 H 67.0576 2.2227 -5.57419 0
M  V30 706 H 68.1276 1.09331 -4.72414 0
M  V30 707 N 69.4707 1.49531 0.497807 0
M  V30 708 C 70.7187 1.58865 1.24926 0
M  V30 709 C 71.0397 0.278721 1.92998 0
M  V30 710 O 70.3097 -0.702144 1.82885 0
M  V30 711 H 68.8897 0.585343 0.464094 0
M  V30 712 H 71.5517 1.86174 0.57666 0
M  V30 713 H 70.6477 2.38633 2.01149 0
M  V30 714 N 70.9488 -0.749086 1.3866 0
M  V30 715 C 71.8808 -1.87273 1.32142 0
M  V30 716 C 72.8938 -1.61127 0.232787 0
M  V30 717 O 74.0828 -1.71623 0.49069 0
M  V30 718 C 71.1828 -3.23005 1.02571 0
M  V30 719 C 70.3558 -3.7662 2.22433 0
M  V30 720 C 69.4148 -4.90879 1.89537 0
M  V30 721 O 68.4408 -5.05276 2.62078 0
M  V30 722 N 69.6428 -5.74198 0.853031 0
M  V30 723 H 72.4078 -1.93373 2.28969 0
M  V30 724 H 69.9688 -0.929216 1.32579 0
M  V30 725 H 71.9608 -3.96992 0.786085 0
M  V30 726 H 70.5308 -3.12262 0.145249 0
M  V30 727 H 69.7508 -2.94147 2.62434 0
M  V30 728 H 71.0388 -4.09173 3.02415 0
M  V30 729 H 70.4368 -5.6514 0.25155 0
M  V30 730 H 68.9938 -6.48313 0.67329 0
M  V30 731 N 72.4269 -1.23603 -0.977757 0
M  V30 732 C 73.3749 -1.01704 -2.09187 0
M  V30 733 C 74.3689 0.0448214 -1.69341 0
M  V30 734 O 75.5749 -0.108902 -1.7967 0
M  V30 735 H 71.9499 -0.311803 -0.684312 0
M  V30 736 H 73.9209 -1.96207 -2.24823 0
M  V30 737 C 72.6699 -0.627746 -3.41986 0
M  V30 738 H 71.9929 -1.43656 -3.73099 0
M  V30 739 H 73.4329 -0.514053 -4.20872 0
M  V30 740 C 71.8919 0.664238 -3.30287 0
M  V30 741 O 72.4219 1.71268 -3.6336 0
M  V30 742 N 70.6279 0.641156 -2.83439 0
M  V30 743 H 70.1749 -0.212376 -2.56723 0
M  V30 744 H 70.1329 1.50583 -2.75993 0
M  V30 745 N 73.905 1.17692 -1.04816 0
M  V30 746 C 74.835 2.23777 -0.666791 0
M  V30 747 C 75.816 1.66796 0.33361 0
M  V30 748 O 77.001 1.93039 0.212042 0
M  V30 749 C 74.131 3.47281 -0.0367933 0
M  V30 750 C 73.085 4.17059 -0.961546 0
M  V30 751 C 72.411 5.34342 -0.195626 0
M  V30 752 C 73.711 4.69713 -2.28402 0
M  V30 753 H 75.405 2.55933 -1.55367 0
M  V30 754 H 72.951 1.23019 -0.748484 0
M  V30 755 H 74.904 4.20706 0.241775 0
M  V30 756 H 73.628 3.14381 0.885004 0
M  V30 757 H 72.287 3.45541 -1.22462 0
M  V30 758 H 71.935 4.97692 0.728816 0
M  V30 759 H 71.635 5.81966 -0.811775 0
M  V30 760 H 73.159 6.10553 0.0757473 0
M  V30 761 H 74.573 5.34794 -2.06563 0
M  V30 762 H 72.97 5.279 -2.8538 0
M  V30 763 H 74.04 3.86726 -2.92525 0
M  V30 764 N 75.3831 0.828654 1.34056 0
M  V30 765 C 76.2931 0.256725 2.33191 0
M  V30 766 C 77.3091 -0.611898 1.62886 0
M  V30 767 O 78.4851 -0.51844 1.94613 0
M  V30 768 C 75.5501 -0.567238 3.42028 0
M  V30 769 C 74.6111 0.324458 4.28072 0
M  V30 770 C 73.8441 -0.460274 5.31712 0
M  V30 771 O 74.0671 -1.693 5.44696 0
M  V30 772 O 73.0011 0.160391 6.01686 0
M  V30 773 H 76.8271 1.07739 2.83947 0
M  V30 774 H 74.4121 0.59093 1.37217 0
M  V30 775 H 76.2941 -1.03582 4.08471 0
M  V30 776 H 74.9691 -1.36513 2.93506 0
M  V30 777 H 73.8761 0.840659 3.64532 0
M  V30 778 H 75.2091 1.08685 4.8005 0
M  V30 779 N 76.8612 -1.46375 0.584142 0
M  V30 780 C 78.1072 -2.02678 0.0703716 0
M  V30 781 C 78.4402 -1.4545 -1.28678 0
M  V30 782 O 77.7152 -0.62014 -1.84349 0
M  V30 783 C 77.9982 -3.60099 0.00614674 0
M  V30 784 C 77.8512 -4.27709 1.3923 0
M  V30 785 C 79.1702 -4.34598 -0.693742 0
M  V30 786 H 76.2892 -0.736504 0.027047 0
M  V30 787 H 78.9312 -1.74501 0.751615 0
M  V30 788 H 77.0812 -3.84236 -0.574009 0
M  V30 789 H 78.7532 -4.14832 2.01773 0
M  V30 790 H 76.9962 -3.87016 1.95962 0
M  V30 791 H 77.6672 -5.36478 1.29982 0
M  V30 792 H 80.1432 -4.15615 -0.200869 0
M  V30 793 H 79.0192 -5.44318 -0.707714 0
M  V30 794 H 79.2802 -4.05759 -1.75533 0
M  V30 795 N 78.3393 -0.321999 -1.54275 0
M  V30 796 C 79.2493 0.553631 -2.27974 0
M  V30 797 C 80.2653 1.13054 -1.32268 0
M  V30 798 O 81.4413 1.15084 -1.6528 0
M  V30 799 C 78.5063 1.69927 -3.02201 0
M  V30 800 C 77.5673 1.15433 -4.1349 0
M  V30 801 C 76.8003 2.24537 -4.84168 0
M  V30 802 O 77.0233 3.44852 -4.5435 0
M  V30 803 O 75.9573 1.90044 -5.7111 0
M  V30 804 H 79.7833 -0.0448345 -3.03667 0
M  V30 805 H 77.3683 -0.0877418 -1.49142 0
M  V30 806 H 79.2503 2.3663 -3.48689 0
M  V30 807 H 77.9253 2.28395 -2.29385 0
M  V30 808 H 76.8323 0.452436 -3.71354 0
M  V30 809 H 78.1653 0.614805 -4.88345 0
M  V30 810 N 79.8174 1.5752 -0.0501392 0
M  V30 811 C 81.2284 1.80271 0.485705 0
M  V30 812 C 81.5794 0.96228 1.70981 0
M  V30 813 O 80.7044 0.178578 2.15662 0
M  V30 814 C 81.2994 3.26957 0.887938 0
M  V30 815 C 79.8584 3.5063 1.36877 0
M  V30 816 C 79.0054 2.75165 0.343468 0
M  V30 817 H 81.9564 1.56281 -0.276028 0
M  V30 818 H 81.9774 3.37821 1.75093 0
M  V30 819 H 81.4894 3.881 -0.0031809 0
M  V30 820 H 79.5904 2.94766 2.27911 0
M  V30 821 H 79.7034 4.59343 1.36164 0
M  V30 822 H 78.0674 2.4127 0.816128 0
M  V30 823 H 78.8504 3.39034 -0.539548 0
M  V30 824 N 81.2955 -0.223234 1.56011 0
M  V30 825 C 82.5255 -0.963413 1.82762 0
M  V30 826 C 82.9335 -1.78516 0.626804 0
M  V30 827 O 82.2765 -1.78974 -0.414014 0
M  V30 828 C 82.3385 -1.93126 3.0322 0
M  V30 829 C 82.0025 -1.2942 4.38291 0
M  V30 830 C 82.9995 -0.684916 5.15369 0
M  V30 831 C 80.6845 -1.30647 4.85012 0
M  V30 832 C 82.6785 -0.0963971 6.37327 0
M  V30 833 C 80.3655 -0.71411 6.06913 0
M  V30 834 C 81.3635 -0.110123 6.82911 0
M  V30 835 O 81.0515 0.47303 8.02507 0
M  V30 836 H 80.7835 -0.288011 0.611576 0
M  V30 837 H 83.3375 -0.244103 2.03944 0
M  V30 838 H 81.5675 -2.68952 2.77852 0
M  V30 839 H 83.2565 -2.53685 3.16857 0
M  V30 840 H 84.0225 -0.667774 4.80381 0
M  V30 841 H 79.9015 -1.76598 4.25833 0
M  V30 842 H 83.4455 0.375657 6.96588 0
M  V30 843 H 79.3425 -0.728659 6.41374 0
M  V30 844 H 80.1105 0.367186 8.17676 0
M  V30 845 N 82.7736 -1.49793 -0.48987 0
M  V30 846 C 83.9986 -1.63836 -1.27172 0
M  V30 847 C 84.4236 -0.31402 -1.8546 0
M  V30 848 O 83.7816 0.719803 -1.66399 0
M  V30 849 C 83.8296 -2.71797 -2.36978 0
M  V30 850 O 82.9336 -2.31744 -3.41128 0
M  V30 851 H 82.2746 -0.547997 -0.37496 0
M  V30 852 H 84.8046 -1.96053 -0.585191 0
M  V30 853 H 84.8146 -2.94305 -2.82575 0
M  V30 854 H 83.4896 -3.67923 -1.93921 0
M  V30 855 H 82.0666 -2.1961 -3.01373 0
M  V30 856 N 84.2517 0.741722 -1.39055 0
M  V30 857 C 85.1837 1.8657 -1.33133 0
M  V30 858 C 86.1967 1.61001 -0.241329 0
M  V30 859 O 87.3857 1.7136 -0.499784 0
M  V30 860 C 84.4857 3.22457 -1.04283 0
M  V30 861 C 83.6587 3.75435 -2.24427 0
M  V30 862 C 82.7177 4.89867 -1.92138 0
M  V30 863 O 81.7437 5.03879 -2.64754 0
M  V30 864 N 82.9457 5.73738 -0.88347 0
M  V30 865 H 85.7107 1.92156 -2.29991 0
M  V30 866 H 83.2717 0.922172 -1.3307 0
M  V30 867 H 85.2637 3.9657 -0.807128 0
M  V30 868 H 83.8337 3.12181 -0.161807 0
M  V30 869 H 83.0537 2.92751 -2.6399 0
M  V30 870 H 84.3417 4.07563 -3.04581 0
M  V30 871 H 83.7397 5.64999 -0.281517 0
M  V30 872 H 82.2967 6.47947 -0.707662 0
M  V30 873 N 85.7298 1.2412 0.971189 0
M  V30 874 C 86.9598 1.10415 1.7462 0
M  V30 875 C 87.3678 -0.346462 1.86001 0
M  V30 876 O 86.7108 -1.25104 1.34517 0
M  V30 877 C 86.7728 1.66596 3.18568 0
M  V30 878 C 86.4368 3.15446 3.3067 0
M  V30 879 C 87.4338 4.12636 3.16271 0
M  V30 880 C 85.1188 3.55337 3.55022 0
M  V30 881 C 87.1128 5.47699 3.26044 0
M  V30 882 C 84.7998 4.90542 3.64434 0
M  V30 883 C 85.7978 5.86532 3.49956 0
M  V30 884 O 85.4858 7.19279 3.59017 0
M  V30 885 H 85.2178 0.386616 0.55453 0
M  V30 886 H 87.7718 1.64633 1.22821 0
M  V30 887 H 86.0018 1.06808 3.71657 0
M  V30 888 H 87.6908 1.48232 3.77865 0
M  V30 889 H 88.4568 3.8316 2.97344 0
M  V30 890 H 84.3358 2.8113 3.65359 0
M  V30 891 H 87.8798 6.22603 3.14661 0
M  V30 892 H 83.7768 5.19691 3.82873 0
M  V30 893 H 84.5448 7.27153 3.75754 0
M  V30 894 N 87.2079 -1.17134 1.05439 0
M  V30 895 C 88.4329 -1.91913 0.786396 0
M  V30 896 C 88.8579 -1.7643 -0.652234 0
M  V30 897 O 88.2159 -1.08372 -1.45345 0
M  V30 898 C 88.2639 -3.40921 1.17497 0
M  V30 899 O 87.3679 -4.11244 0.308589 0
M  V30 900 H 86.7089 -0.598215 0.288158 0
M  V30 901 H 89.2389 -1.48457 1.4079 0
M  V30 902 H 89.2489 -3.91668 1.14281 0
M  V30 903 H 87.9239 -3.5151 2.22292 0
M  V30 904 H 86.5009 -3.70731 0.40157 0
M  V30 905 N 88.686 -0.835752 -1.33615 0
M  V30 906 C 89.634 -0.255238 -2.31195 0
M  V30 907 C 90.628 0.61107 -1.57995 0
M  V30 908 O 91.834 0.500979 -1.72888 0
M  V30 909 H 88.209 -0.0638085 -0.749288 0
M  V30 910 H 90.18 -1.09283 -2.77669 0
M  V30 911 C 88.929 0.55754 -3.43201 0
M  V30 912 H 88.252 -0.0997553 -3.99676 0
M  V30 913 H 89.692 0.929622 -4.13683 0
M  V30 914 C 88.151 1.73515 -2.88781 0
M  V30 915 O 88.681 2.83376 -2.84712 0
M  V30 916 N 86.887 1.55603 -2.4543 0
M  V30 917 H 86.434 0.662354 -2.48939 0
M  V30 918 H 86.392 2.34545 -2.09371 0
M  V30 919 N 90.1641 1.46063 -0.591896 0
M  V30 920 C 91.4101 2.02638 -0.0811191 0
M  V30 921 C 91.7431 1.4613 1.27905 0
M  V30 922 O 91.0181 0.629908 1.84017 0
M  V30 923 C 91.3011 3.60091 -0.0252436 0
M  V30 924 C 91.1541 4.26965 -1.41496 0
M  V30 925 C 92.4731 4.3496 0.670685 0
M  V30 926 H 89.5921 0.73635 -0.0309524 0
M  V30 927 H 92.2341 1.741 -0.760859 0
M  V30 928 H 90.3841 3.84535 0.553624 0
M  V30 929 H 92.0561 4.13756 -2.0397 0
M  V30 930 H 90.2991 3.85971 -1.98011 0
M  V30 931 H 90.9701 5.35781 -1.32825 0
M  V30 932 H 93.4461 4.15716 0.178825 0
M  V30 933 H 92.3221 5.44686 0.678837 0
M  V30 934 H 92.5831 4.06685 1.73379 0
M  V30 935 N 91.6422 0.330177 1.54103 0
M  V30 936 C 92.5742 -0.566902 2.22079 0
M  V30 937 C 93.5872 -1.07462 1.22294 0
M  V30 938 O 94.7762 -0.987065 1.48726 0
M  V30 939 C 91.8762 -1.79138 2.87685 0
M  V30 940 C 91.0492 -1.42123 4.13666 0
M  V30 941 C 90.1082 -2.50394 4.62806 0
M  V30 942 O 89.1342 -2.14261 5.27334 0
M  V30 943 N 90.3362 -3.81433 4.37595 0
M  V30 944 H 93.1012 0.0151844 2.99696 0
M  V30 945 H 90.6622 0.153681 1.61169 0
M  V30 946 H 92.6542 -2.50975 3.1748 0
M  V30 947 H 91.2242 -2.28115 2.13734 0
M  V30 948 H 90.4442 -0.534201 3.90564 0
M  V30 949 H 91.7322 -1.14971 4.9564 0
M  V30 950 H 91.1302 -4.13584 3.8596 0
M  V30 951 H 89.6872 -4.4948 4.72029 0
M  V30 952 N 93.1203 -1.57491 0.0584922 0
M  V30 953 C 94.3673 -1.92978 -0.613648 0
M  V30 954 C 94.6953 -0.937461 -1.70417 0
M  V30 955 O 93.9503 0.049078 -1.95638 0
M  V30 956 C 94.2493 -3.3513 -1.24188 0
M  V30 957 C 93.9153 -4.50037 -0.278826 0
M  V30 958 C 92.5773 -4.81198 -0.0138447 0
M  V30 959 C 94.9293 -5.19807 0.380777 0
M  V30 960 C 92.2573 -5.79473 0.918052 0
M  V30 961 C 94.6093 -6.19079 1.30091 0
M  V30 962 C 93.2733 -6.48665 1.57449 0
M  V30 963 H 92.5433 -0.706157 -0.22455 0
M  V30 964 H 95.1903 -1.91082 0.126533 0
M  V30 965 H 93.4953 -3.33429 -2.05749 0
M  V30 966 H 95.1923 -3.59871 -1.769 0
M  V30 967 H 91.7823 -4.25726 -0.495539 0
M  V30 968 H 95.9663 -4.95939 0.189158 0
M  V30 969 H 91.2223 -6.00727 1.1374 0
M  V30 970 H 95.3963 -6.7225 1.81804 0
M  V30 971 H 93.0233 -7.24628 2.29822 0
M  V30 972 N 94.5984 0.214957 -1.56127 0
M  V30 973 C 96.0094 0.781386 -1.69562 0
M  V30 974 C 96.3604 1.84707 -0.66165 0
M  V30 975 O 95.4854 2.156 0.185927 0
M  V30 976 C 96.0804 1.42411 -3.07416 0
M  V30 977 C 94.6394 1.93786 -3.22683 0
M  V30 978 C 93.7864 0.800438 -2.65496 0
M  V30 979 H 96.7374 -0.00980633 -1.58697 0
M  V30 980 H 96.7584 2.29309 -3.0364 0
M  V30 981 H 96.2704 0.64826 -3.82648 0
M  V30 982 H 94.3714 2.74152 -2.52332 0
M  V30 983 H 94.4844 2.1133 -4.29973 0
M  V30 984 H 92.8484 1.2095 -2.2415 0
M  V30 985 H 93.6314 0.0371471 -3.4328 0
M  V30 986 N 96.0765 1.50051 0.48192 0
M  V30 987 C 97.0085 1.64263 1.59844 0
M  V30 988 C 98.0215 0.52451 1.54119 0
M  V30 989 O 99.2105 0.797293 1.59704 0
M  V30 990 C 96.3105 1.60102 2.98698 0
M  V30 991 C 95.4835 2.87767 3.29407 0
M  V30 992 C 94.5425 2.76397 4.47762 0
M  V30 993 O 93.5685 3.50348 4.48603 0
M  V30 994 N 94.7705 1.89222 5.48794 0
M  V30 995 H 97.5355 2.60566 1.48073 0
M  V30 996 H 95.0965 1.47379 0.670149 0
M  V30 997 H 97.0885 1.50123 3.75826 0
M  V30 998 H 95.6585 0.715798 3.04294 0
M  V30 999 H 94.8785 3.11954 2.40994 0
M  V30 1000 H 96.1665 3.72365 3.4673 0
M  V30 1001 H 95.5645 1.28434 5.50928 0
M  V30 1002 H 94.1215 1.85154 6.24949 0
M  V30 1003 N 97.5546 -0.734337 1.39446 0
M  V30 1004 C 98.8006 -1.49613 1.36908 0
M  V30 1005 C 99.1336 -1.94169 -0.0347829 0
M  V30 1006 O 98.4086 -1.66833 -0.999847 0
M  V30 1007 C 98.6916 -2.73534 2.34203 0
M  V30 1008 C 98.5446 -2.34993 3.83534 0
M  V30 1009 C 99.8636 -3.75635 2.29317 0
M  V30 1010 H 96.9826 -0.542714 0.498629 0
M  V30 1011 H 99.6246 -0.839597 1.70443 0
M  V30 1012 H 97.7746 -3.29553 2.05736 0
M  V30 1013 H 99.4466 -1.84601 4.22753 0
M  V30 1014 H 97.6896 -1.67213 4.00278 0
M  V30 1015 H 98.3606 -3.23738 4.47099 0
M  V30 1016 H 100.837 -3.29203 2.54489 0
M  V30 1017 H 99.7126 -4.60008 2.99472 0
M  V30 1018 H 99.9736 -4.22603 1.29842 0
M  V30 1019 N 99.0327 -1.24633 -0.964593 0
M  V30 1020 C 99.9647 -0.999302 -2.06268 0
M  V30 1021 C 100.978 0.0323226 -1.62768 0
M  V30 1022 O 102.167 -0.205079 -1.77318 0
M  V30 1023 C 99.2667 -0.486816 -3.35385 0
M  V30 1024 C 98.4397 -1.5823 -4.07777 0
M  V30 1025 C 97.4987 -1.07191 -5.15166 0
M  V30 1026 O 96.5247 -1.76426 -5.41168 0
M  V30 1027 N 97.7267 0.0920373 -5.80427 0
M  V30 1028 H 100.492 -1.94477 -2.28033 0
M  V30 1029 H 98.0527 -1.15704 -1.13244 0
M  V30 1030 H 100.045 -0.130066 -4.04491 0
M  V30 1031 H 98.6147 0.364459 -3.10468 0
M  V30 1032 H 97.8347 -2.11109 -3.32906 0
M  V30 1033 H 99.1227 -2.31854 -4.52903 0
M  V30 1034 H 98.5207 0.670784 -5.61709 0
M  V30 1035 H 97.0777 0.389905 -6.50633 0
M  V30 1036 N 100.511 1.16574 -1.06058 0
M  V30 1037 C 101.922 1.68662 -0.800632 0
M  V30 1038 C 102.273 1.84184 0.67608 0
M  V30 1039 O 101.398 1.53568 1.52466 0
M  V30 1040 C 101.993 3.06356 -1.44676 0
M  V30 1041 C 100.552 3.55575 -1.23465 0
M  V30 1042 C 99.6988 2.31616 -1.52477 0
M  V30 1043 H 102.65 1.00969 -1.22438 0
M  V30 1044 H 102.671 3.70636 -0.860788 0
M  V30 1045 H 102.183 2.95027 -2.52152 0
M  V30 1046 H 100.284 3.72167 -0.179527 0
M  V30 1047 H 100.397 4.37812 -1.94571 0
M  V30 1048 H 98.7608 2.36512 -0.945209 0
M  V30 1049 H 99.5438 2.22887 -2.61106 0
M  V30 1050 N 101.989 0.842826 1.3317 0
M  V30 1051 C 102.921 0.236245 2.27979 0
M  V30 1052 C 103.934 -0.585282 1.51915 0
M  V30 1053 O 105.123 -0.411705 1.73687 0
M  V30 1054 C 102.223 -0.685717 3.3189 0
M  V30 1055 C 101.396 0.0973448 4.37292 0
M  V30 1056 C 100.455 -0.748565 5.20848 0
M  V30 1057 O 99.4809 -0.186339 5.68895 0
M  V30 1058 N 100.683 -2.06527 5.42519 0
M  V30 1059 H 103.448 1.05088 2.80672 0
M  V30 1060 H 101.009 0.701667 1.45905 0
M  V30 1061 H 103.001 -1.25669 3.84694 0
M  V30 1062 H 101.571 -1.40105 2.79445 0
M  V30 1063 H 100.791 0.849706 3.84933 0
M  V30 1064 H 102.079 0.635643 5.04814 0
M  V30 1065 H 101.477 -2.54554 5.05192 0
M  V30 1066 H 100.034 -2.58464 5.98364 0
M  V30 1067 N 103.467 -1.45747 0.599634 0
M  V30 1068 C 104.716 -2.01502 0.0893511 0
M  V30 1069 C 105.029 -1.4748 -1.28488 0
M  V30 1070 O 106.235 -1.95161 -1.88745 0
M  V30 1071 C 104.691 -3.59735 0.109082 0
M  V30 1072 C 104.299 -4.22754 1.48267 0
M  V30 1073 C 106.043 -4.23085 -0.346374 0
M  V30 1074 C 103.95 -5.73115 1.45921 0
M  V30 1075 H 102.88 -0.753417 0.0296347 0
M  V30 1076 H 105.531 -1.67303 0.753788 0
M  V30 1077 H 103.913 -3.91087 -0.621854 0
M  V30 1078 H 105.087 -4.02987 2.23468 0
M  V30 1079 H 103.402 -3.71567 1.87955 0
M  V30 1080 H 105.999 -5.33327 -0.38298 0
M  V30 1081 H 106.342 -3.93201 -1.36743 0
M  V30 1082 H 106.875 -3.9642 0.331038 0
M  V30 1083 H 103.614 -6.07685 2.45762 0
M  V30 1084 H 103.134 -5.95097 0.749665 0
M  V30 1085 H 104.813 -6.3616 1.17941 0
M  V30 1086 N 104.945 -0.338344 -1.53925 0
M  V30 1087 C 106.17 0.263987 -2.05713 0
M  V30 1088 C 106.595 1.43847 -1.21201 0
M  V30 1089 O 105.953 1.79904 -0.224535 0
M  V30 1090 C 106.001 0.662 -3.54471 0
M  V30 1091 O 105.105 1.76265 -3.72833 0
M  V30 1092 H 104.446 0.0448722 -0.662482 0
M  V30 1093 H 106.976 -0.491048 -1.9862 0
M  V30 1094 H 106.986 0.940594 -3.9701 0
M  V30 1095 H 105.661 -0.196937 -4.15433 0
M  V30 1096 H 104.238 1.48173 -3.42198 0
M  V30 1097 N 106.423 1.57458 -0.0668435 0
M  V30 1098 C 107.648 1.9804 0.616027 0
M  V30 1099 C 108.073 0.944771 1.62652 0
M  V30 1100 O 107.431 -0.0902094 1.81075 0
M  V30 1101 C 107.479 3.37665 1.26549 0
M  V30 1102 O 106.583 3.36701 2.38131 0
M  V30 1103 H 105.924 0.644719 0.158849 0
M  V30 1104 H 108.454 2.04121 -0.139891 0
M  V30 1105 H 108.464 3.7474 1.6135 0
M  V30 1106 H 107.139 4.12573 0.525016 0
M  V30 1107 H 105.716 3.1139 2.0516 0
M  V30 1108 N 107.901 -0.206675 1.56239 0
M  V30 1109 C 109.126 -0.949474 1.8439 0
M  V30 1110 C 109.551 -1.76549 0.649016 0
M  V30 1111 O 108.909 -1.76782 -0.402231 0
M  V30 1112 C 108.957 -1.83078 3.10668 0
M  V30 1113 O 108.061 -2.9281 2.90407 0
M  V30 1114 H 107.402 -0.268033 0.607499 0
M  V30 1115 H 109.932 -0.215488 2.03462 0
M  V30 1116 H 109.942 -2.2377 3.41161 0
M  V30 1117 H 108.617 -1.23112 3.97261 0
M  V30 1118 H 107.194 -2.55956 2.71184 0
M  V30 1119 N 109.379 -1.50304 -0.473955 0
M  V30 1120 C 110.604 -1.65175 -1.25427 0
M  V30 1121 C 111.029 -0.333673 -1.85117 0
M  V30 1122 O 110.387 0.702114 -1.67153 0
M  V30 1123 C 110.435 -2.74295 -2.34082 0
M  V30 1124 O 109.539 -2.35349 -3.38651 0
M  V30 1125 H 108.88 -0.551944 -0.369126 0
M  V30 1126 H 111.41 -1.96662 -0.564364 0
M  V30 1127 H 111.42 -2.97285 -2.79438 0
M  V30 1128 H 110.095 -3.69959 -1.90008 0
M  V30 1129 H 108.672 -2.22794 -2.99027 0
M  V30 1130 N 110.857 0.726932 -1.39834 0
M  V30 1131 C 112.087 1.51393 -1.40583 0
M  V30 1132 C 112.495 1.892 -0.000740625 0
M  V30 1133 O 111.838 1.55189 0.982951 0
M  V30 1134 C 111.9 2.82588 -2.22226 0
M  V30 1135 C 111.564 2.67169 -3.70769 0
M  V30 1136 C 112.561 2.3518 -4.63666 0
M  V30 1137 C 110.246 2.83788 -4.14451 0
M  V30 1138 C 112.24 2.20002 -5.98229 0
M  V30 1139 C 109.927 2.68229 -5.49087 0
M  V30 1140 C 110.925 2.36382 -6.4079 0
M  V30 1141 O 110.613 2.2093 -7.72946 0
M  V30 1142 H 110.345 0.474168 -0.48181 0
M  V30 1143 H 112.899 0.905247 -1.84376 0
M  V30 1144 H 111.129 3.45746 -1.73195 0
M  V30 1145 H 112.818 3.44247 -2.15055 0
M  V30 1146 H 113.584 2.21984 -4.31217 0
M  V30 1147 H 109.463 3.07566 -3.43401 0
M  V30 1148 H 113.007 1.95067 -6.69772 0
M  V30 1149 H 108.904 2.81006 -5.81125 0
M  V30 1150 H 109.672 2.35937 -7.83757 0
M  V30 1151 N 112.336 1.25143 0.95797 0
M  V30 1152 C 113.566 1.12261 1.73439 0
M  V30 1153 C 113.974 -0.326715 1.86358 0
M  V30 1154 O 113.317 -1.2367 1.35836 0
M  V30 1155 C 113.379 1.69966 3.16784 0
M  V30 1156 C 113.043 3.18936 3.27305 0
M  V30 1157 C 114.04 4.15968 3.11877 0
M  V30 1158 C 111.725 3.59083 3.51234 0
M  V30 1159 C 113.719 5.51126 3.20217 0
M  V30 1160 C 111.406 4.9438 3.5921 0
M  V30 1161 C 112.404 5.90211 3.43716 0
M  V30 1162 O 112.092 7.23046 3.51368 0
M  V30 1163 H 111.824 0.392476 0.550399 0
M  V30 1164 H 114.378 1.65927 1.21068 0
M  V30 1165 H 112.608 1.10744 3.70503 0
M  V30 1166 H 114.297 1.52232 3.76272 0
M  V30 1167 H 115.063 3.86292 2.93264 0
M  V30 1168 H 110.942 2.84989 3.62356 0
M  V30 1169 H 114.486 6.25905 3.0804 0
M  V30 1170 H 110.383 5.23723 3.77339 0
M  V30 1171 H 111.151 7.31097 3.6802 0
M  V30 1172 N 113.814 -1.1601 1.06675 0
M  V30 1173 C 115.039 -1.91068 0.806706 0
M  V30 1174 C 115.464 -1.77112 -0.633485 0
M  V30 1175 O 114.822 -1.09908 -1.44187 0
M  V30 1176 C 114.87 -3.39655 1.21106 0
M  V30 1177 O 113.974 -4.10893 0.352189 0
M  V30 1178 H 113.315 -0.595125 0.294486 0
M  V30 1179 H 115.845 -1.46955 1.42356 0
M  V30 1180 H 115.855 -3.90434 1.18428 0
M  V30 1181 H 114.53 -3.49132 2.26008 0
M  V30 1182 H 113.107 -3.70285 0.440868 0
M  V30 1183 N 115.292 -0.849877 -1.32721 0
M  V30 1184 C 116.24 -0.279745 -2.30912 0
M  V30 1185 C 117.234 0.594278 -1.58634 0
M  V30 1186 O 118.44 0.482613 -1.73409 0
M  V30 1187 H 114.815 -0.0717521 -0.748569 0
M  V30 1188 H 116.786 -1.12222 -2.76494 0
M  V30 1189 C 115.535 0.521108 -3.43773 0
M  V30 1190 H 114.858 -0.142141 -3.99547 0
M  V30 1191 H 116.298 0.885693 -4.14646 0
M  V30 1192 C 114.757 1.70442 -2.90605 0
M  V30 1193 O 115.287 2.8034 -2.87702 0
M  V30 1194 N 113.493 1.52991 -2.47067 0
M  V30 1195 H 113.04 0.635914 -2.49628 0
M  V30 1196 H 112.998 2.32311 -2.11847 0
M  V30 1197 N 116.77 1.45427 -0.607355 0
M  V30 1198 C 117.7 2.3329 0.0989352 0
M  V30 1199 C 118.681 1.46816 0.859007 0
M  V30 1200 O 119.866 1.75588 0.829604 0
M  V30 1201 C 116.996 3.29518 1.09705 0
M  V30 1202 C 115.95 4.25626 0.450206 0
M  V30 1203 C 115.276 5.11542 1.55655 0
M  V30 1204 C 116.576 5.18505 -0.628455 0
M  V30 1205 H 118.27 2.92595 -0.634716 0
M  V30 1206 H 115.816 1.40696 -0.306681 0
M  V30 1207 H 117.769 3.89855 1.59971 0
M  V30 1208 H 116.493 2.68372 1.86129 0
M  V30 1209 H 115.152 3.66586 -0.0315886 0
M  V30 1210 H 114.8 4.46765 2.31107 0
M  V30 1211 H 114.5 5.76647 1.12925 0
M  V30 1212 H 116.024 5.74748 2.06148 0
M  V30 1213 H 117.438 5.72916 -0.209877 0
M  V30 1214 H 115.835 5.92085 -0.977489 0
M  V30 1215 H 116.905 4.60948 -1.50514 0
M  V30 1216 N 118.248 0.346503 1.53744 0
M  V30 1217 C 119.496 -0.248612 2.00565 0
M  V30 1218 C 119.817 -1.5083 1.23593 0
M  V30 1219 O 119.087 -1.92858 0.343912 0
M  V30 1220 H 117.667 -0.0948564 0.740953 0
M  V30 1221 H 120.329 0.468341 1.89189 0
M  V30 1222 H 119.425 -0.488994 3.08245 0
M  V30 1223 N 119.726 -1.57421 0.075193 0
M  V30 1224 C 120.973 -1.93618 -0.593146 0
M  V30 1225 C 121.301 -0.955484 -1.69413 0
M  V30 1226 O 120.556 0.0283251 -1.9568 0
M  V30 1227 C 120.855 -3.36428 -1.20626 0
M  V30 1228 C 120.521 -4.50307 -0.231078 0
M  V30 1229 C 119.183 -4.81186 0.0371936 0
M  V30 1230 C 121.535 -5.19374 0.435888 0
M  V30 1231 C 118.863 -5.78466 0.979461 0
M  V30 1232 C 121.215 -6.17665 1.3665 0
M  V30 1233 C 119.879 -6.46958 1.6432 0
M  V30 1234 H 119.149 -0.708499 -0.217047 0
M  V30 1235 H 121.796 -1.90937 0.146793 0
M  V30 1236 H 120.101 -3.35592 -2.02201 0
M  V30 1237 H 121.798 -3.61727 -1.73073 0
M  V30 1238 H 118.388 -4.26227 -0.450357 0
M  V30 1239 H 122.572 -4.95711 0.241748 0
M  V30 1240 H 117.828 -5.99487 1.20106 0
M  V30 1241 H 122.002 -6.70284 1.88924 0
M  V30 1242 H 119.629 -7.2215 2.37494 0
M  V30 1243 N 121.204 0.198386 -1.56346 0
M  V30 1244 C 122.434 0.934215 -1.84271 0
M  V30 1245 C 122.842 1.77496 -0.655125 0
M  V30 1246 O 122.185 1.7961 0.385488 0
M  V30 1247 C 122.247 1.88278 -3.06254 0
M  V30 1248 C 121.911 1.22431 -4.40295 0
M  V30 1249 C 122.908 0.602839 -5.16393 0
M  V30 1250 C 120.593 1.22915 -4.87029 0
M  V30 1251 C 122.587 -0.0050083 -6.374 0
M  V30 1252 C 120.274 0.617465 -6.07973 0
M  V30 1253 C 121.272 0.00146341 -6.83 0
M  V30 1254 O 120.96 -0.600642 -8.01653 0
M  V30 1255 H 120.692 0.278245 -0.616081 0
M  V30 1256 H 123.246 0.211626 -2.04307 0
M  V30 1257 H 121.476 2.64498 -2.82095 0
M  V30 1258 H 123.165 2.48612 -3.20853 0
M  V30 1259 H 123.931 0.591265 -4.81382 0
M  V30 1260 H 119.81 1.69801 -4.28589 0
M  V30 1261 H 123.354 -0.48643 -6.95902 0
M  V30 1262 H 119.251 0.62653 -6.42452 0
M  V30 1263 H 120.019 -0.497225 -8.16988 0
M  V30 1264 N 122.682 1.50554 0.465978 0
M  V30 1265 C 124.093 1.54599 1.04671 0
M  V30 1266 C 124.444 0.352488 1.93008 0
M  V30 1267 O 123.569 -0.534044 2.09707 0
M  V30 1268 C 124.164 2.80166 1.90505 0
M  V30 1269 C 122.723 2.86876 2.43678 0
M  V30 1270 C 121.87 2.48947 1.22151 0
M  V30 1271 H 124.821 1.56744 0.248384 0
M  V30 1272 H 124.842 2.62311 2.75633 0
M  V30 1273 H 124.354 3.67013 1.26186 0
M  V30 1274 H 122.455 2.04393 3.11536 0
M  V30 1275 H 122.568 3.89885 2.78436 0
M  V30 1276 H 120.932 2.01498 1.5579 0
M  V30 1277 H 121.715 3.38107 0.594866 0
M  V30 1278 N 124.16 -0.719506 1.40217 0
M  V30 1279 C 125.092 -1.84428 1.36084 0
M  V30 1280 C 126.105 -1.60597 0.266913 0
M  V30 1281 O 127.294 -1.70544 0.526983 0
M  V30 1282 C 124.394 -3.20757 1.094 0
M  V30 1283 C 123.567 -3.71817 2.30372 0
M  V30 1284 C 122.626 -4.86748 1.99907 0
M  V30 1285 O 121.652 -4.99603 2.72737 0
M  V30 1286 N 122.854 -5.7226 0.974635 0
M  V30 1287 H 125.619 -1.88473 2.33019 0
M  V30 1288 H 123.18 -0.900885 1.3452 0
M  V30 1289 H 125.172 -3.95235 0.870116 0
M  V30 1290 H 123.742 -3.11884 0.211452 0
M  V30 1291 H 122.962 -2.88514 2.68614 0
M  V30 1292 H 124.25 -4.02666 3.11026 0
M  V30 1293 H 123.648 -5.6448 0.371368 0
M  V30 1294 H 122.205 -6.46739 0.810656 0
M  V30 1295 N 125.638 -1.25649 -0.95132 0
M  V30 1296 C 126.57 -1.02112 -2.05197 0
M  V30 1297 C 127.583 0.0150571 -1.62793 0
M  V30 1298 O 128.772 -0.223874 -1.77091 0
M  V30 1299 C 125.872 -0.522361 -3.3485 0
M  V30 1300 C 125.045 -1.62546 -4.06076 0
M  V30 1301 C 124.104 -1.12649 -5.14001 0
M  V30 1302 O 123.13 -1.82156 -5.39266 0
M  V30 1303 N 124.332 0.03047 -5.80492 0
M  V30 1304 H 127.097 -1.96885 -2.25957 0
M  V30 1305 H 124.658 -1.16899 -1.1201 0
M  V30 1306 H 126.65 -0.172961 -4.0433 0
M  V30 1307 H 125.22 0.33151 -3.10837 0
M  V30 1308 H 124.44 -2.14628 -3.30649 0
M  V30 1309 H 125.728 -2.36644 -4.50419 0
M  V30 1310 H 125.126 0.611169 -5.62389 0
M  V30 1311 H 123.683 0.320875 -6.5101 0
M  V30 1312 N 127.117 1.15442 -1.07289 0
M  V30 1313 C 128.528 1.67803 -0.818475 0
M  V30 1314 C 128.879 1.8489 0.656507 0
M  V30 1315 O 128.004 1.55176 1.50829 0
M  V30 1316 C 128.599 3.04805 -1.47917 0
M  V30 1317 C 127.158 3.54245 -1.27229 0
M  V30 1318 C 126.305 2.29986 -1.54925 0
M  V30 1319 H 129.256 0.996646 -1.23502 0
M  V30 1320 H 129.277 3.69702 -0.90005 0
M  V30 1321 H 128.789 2.92336 -2.55267 0
M  V30 1322 H 126.89 3.71956 -0.21899 0
M  V30 1323 H 127.003 4.35723 -1.99203 0
M  V30 1324 H 125.367 2.35496 -0.970242 0
M  V30 1325 H 126.15 2.20105 -2.63455 0
M  V30 1326 N 128.595 0.856903 1.32268 0
M  V30 1327 C 129.505 0.306131 2.32594 0
M  V30 1328 C 130.521 -0.577209 1.64147 0
M  V30 1329 O 131.697 -0.477043 1.95669 0
M  V30 1330 C 128.762 -0.494561 3.43154 0
M  V30 1331 C 127.823 0.415186 4.27288 0
M  V30 1332 C 127.056 -0.347387 5.32568 0
M  V30 1333 O 127.279 -1.57708 5.48165 0
M  V30 1334 O 126.213 0.287982 6.01211 0
M  V30 1335 H 130.039 1.13737 2.81598 0
M  V30 1336 H 127.624 0.619902 1.35932 0
M  V30 1337 H 129.506 -0.948944 4.10576 0
M  V30 1338 H 128.181 -1.30257 2.96336 0
M  V30 1339 H 127.088 0.917793 3.62667 0
M  V30 1340 H 128.421 1.18844 4.77637 0
M  V30 1341 N 130.073 -1.45103 0.615059 0
M  V30 1342 C 130.983 -2.34382 -0.101034 0
M  V30 1343 C 131.999 -1.51681 -0.852585 0
M  V30 1344 O 133.175 -1.8446 -0.808484 0
M  V30 1345 C 130.24 -3.29417 -1.08099 0
M  V30 1346 C 129.301 -4.28025 -0.330577 0
M  V30 1347 C 128.534 -5.1852 -1.26385 0
M  V30 1348 O 128.757 -5.12598 -2.50198 0
M  V30 1349 O 127.691 -5.97122 -0.756866 0
M  V30 1350 H 131.517 -2.97033 0.632855 0
M  V30 1351 H 129.102 -1.4461 0.375293 0
M  V30 1352 H 130.984 -3.87958 -1.6452 0
M  V30 1353 H 129.659 -2.69321 -1.79577 0
M  V30 1354 H 128.566 -3.73078 0.276283 0
M  V30 1355 H 129.899 -4.90997 0.343866 0
M  V30 1356 N 131.551 -0.354651 -1.53558 0
M  V30 1357 C 132.797 0.231422 -2.02079 0
M  V30 1358 C 133.152 1.47308 -1.23767 0
M  V30 1359 O 132.445 1.8891 -0.319947 0
M  V30 1360 C 132.639 0.587121 -3.52545 0
M  V30 1361 C 132.468 -0.618513 -4.45426 0
M  V30 1362 C 131.238 -1.12724 -4.92566 0
M  V30 1363 C 133.436 -1.48039 -4.92533 0
M  V30 1364 N 131.418 -2.29404 -5.69427 0
M  V30 1365 C 132.789 -2.49397 -5.67628 0
M  V30 1366 C 134.844 -1.50454 -4.74624 0
M  V30 1367 C 133.547 -3.53013 -6.26717 0
M  V30 1368 C 135.573 -2.52958 -5.34571 0
M  V30 1369 C 134.935 -3.5304 -6.09543 0
M  V30 1370 H 131.034 0.0476909 -0.780544 0
M  V30 1371 H 133.618 -0.496727 -1.88257 0
M  V30 1372 H 131.789 1.28436 -3.6655 0
M  V30 1373 H 133.521 1.15734 -3.87799 0
M  V30 1374 H 130.276 -0.693577 -4.68494 0
M  V30 1375 H 130.7 -2.88347 -6.12524 0
M  V30 1376 H 135.342 -0.744356 -4.16196 0
M  V30 1377 H 133.06 -4.2992 -6.84247 0
M  V30 1378 H 136.646 -2.55667 -5.22614 0
M  V30 1379 H 135.526 -4.31056 -6.55103 0
M  V30 1380 N 133.029 1.57378 -0.0835403 0
M  V30 1381 C 134.259 1.97975 0.590713 0
M  V30 1382 C 134.667 0.961083 1.62972 0
M  V30 1383 O 134.01 -0.0590879 1.83605 0
M  V30 1384 C 134.072 3.34915 1.3066 0
M  V30 1385 C 133.736 4.55069 0.419698 0
M  V30 1386 C 134.733 5.18868 -0.32749 0
M  V30 1387 C 132.418 5.0114 0.341137 0
M  V30 1388 C 134.412 6.27098 -1.14134 0
M  V30 1389 C 132.099 6.0924 -0.476374 0
M  V30 1390 C 133.097 6.72083 -1.21627 0
M  V30 1391 O 132.785 7.781 -2.02028 0
M  V30 1392 H 132.517 0.655818 0.163947 0
M  V30 1393 H 135.071 2.04807 -0.156021 0
M  V30 1394 H 133.301 3.24733 2.09966 0
M  V30 1395 H 134.99 3.60037 1.87424 0
M  V30 1396 H 135.756 4.84211 -0.276459 0
M  V30 1397 H 131.635 4.51996 0.90668 0
M  V30 1398 H 135.179 6.7608 -1.71935 0
M  V30 1399 H 131.076 6.43329 -0.528927 0
M  V30 1400 H 131.844 7.95034 -1.94586 0
M  V30 1401 N 134.507 -0.190092 1.56449 0
M  V30 1402 C 135.732 -0.929864 1.85387 0
M  V30 1403 C 136.157 -1.7585 0.667704 0
M  V30 1404 O 135.515 -1.77198 -0.383459 0
M  V30 1405 C 135.563 -1.79773 3.12593 0
M  V30 1406 O 134.667 -2.89713 2.93496 0
M  V30 1407 H 134.008 -0.261574 0.610307 0
M  V30 1408 H 136.538 -0.193896 2.03679 0
M  V30 1409 H 136.548 -2.20139 3.43515 0
M  V30 1410 H 135.223 -1.18892 3.98544 0
M  V30 1411 H 133.8 -2.53065 2.73884 0
M  V30 1412 N 135.985 -1.50799 -0.457987 0
M  V30 1413 C 137.396 -1.55152 -1.0385 0
M  V30 1414 C 137.747 -0.362719 -1.92818 0
M  V30 1415 O 136.872 0.522915 -2.09987 0
M  V30 1416 C 137.467 -2.81173 -1.89017 0
M  V30 1417 C 136.026 -2.88164 -2.42154 0
M  V30 1418 C 135.173 -2.49591 -1.20829 0
M  V30 1419 H 138.124 -1.56874 -0.240068 0
M  V30 1420 H 138.145 -2.63769 -2.74238 0
M  V30 1421 H 137.657 -3.67677 -1.24238 0
M  V30 1422 H 135.758 -2.06042 -3.10447 0
M  V30 1423 H 135.871 -3.91356 -2.76364 0
M  V30 1424 H 134.235 -2.02322 -1.54719 0
M  V30 1425 H 135.018 -3.38418 -0.576927 0
M  V30 1426 N 137.463 0.71206 -1.40597 0
M  V30 1427 C 138.711 1.46907 -1.38791 0
M  V30 1428 C 139.032 1.94998 0.00780391 0
M  V30 1429 O 138.302 1.70587 0.963174 0
M  V30 1430 H 136.882 0.545043 -0.51082 0
M  V30 1431 H 139.544 0.843882 -1.75683 0
M  V30 1432 H 138.64 2.34021 -2.06496 0
M  V30 1433 N 138.941 1.26152 0.944643 0
M  V30 1434 C 140.19 1.10883 1.68487 0
M  V30 1435 C 140.503 -0.348153 1.92477 0
M  V30 1436 O 141.709 -0.621459 2.64292 0
M  V30 1437 C 140.165 1.93624 3.03377 0
M  V30 1438 C 139.773 3.43875 2.87148 0
M  V30 1439 C 141.517 1.86954 3.81115 0
M  V30 1440 C 139.424 4.18875 4.1749 0
M  V30 1441 H 138.354 0.41135 0.631907 0
M  V30 1442 H 141.005 1.50433 1.05082 0
M  V30 1443 H 139.387 1.46904 3.67743 0
M  V30 1444 H 140.561 3.98338 2.31653 0
M  V30 1445 H 138.876 3.51744 2.22856 0
M  V30 1446 H 141.473 2.40275 4.77673 0
M  V30 1447 H 141.816 0.839518 4.07747 0
M  V30 1448 H 142.349 2.31477 3.23517 0
M  V30 1449 H 139.088 5.22332 3.96043 0
M  V30 1450 H 138.608 3.69193 4.72712 0
M  V30 1451 H 140.287 4.27134 4.85968 0
M  V30 1452 N 140.419 -1.14872 1.07899 0
M  V30 1453 C 141.649 -1.89386 0.825631 0
M  V30 1454 C 142.057 -1.78565 -0.625406 0
M  V30 1455 O 141.4 -1.13918 -1.44113 0
M  V30 1456 C 141.462 -3.40206 1.16191 0
M  V30 1457 C 141.126 -3.74812 2.61467 0
M  V30 1458 C 142.123 -3.75367 3.59716 0
M  V30 1459 C 139.808 -4.0495 2.97189 0
M  V30 1460 C 141.802 -4.05574 4.9172 0
M  V30 1461 C 139.489 -4.34821 4.29388 0
M  V30 1462 C 140.487 -4.35116 5.26463 0
M  V30 1463 O 140.175 -4.64267 6.56286 0
M  V30 1464 H 139.907 -0.606894 0.297751 0
M  V30 1465 H 142.461 -1.46438 1.44031 0
M  V30 1466 H 140.691 -3.8358 0.490214 0
M  V30 1467 H 142.38 -3.96018 0.890193 0
M  V30 1468 H 143.146 -3.52176 3.33462 0
M  V30 1469 H 139.025 -4.03876 2.22273 0
M  V30 1470 H 142.569 -4.05719 5.67484 0
M  V30 1471 H 138.466 -4.5748 4.55392 0
M  V30 1472 H 139.234 -4.82007 6.61522 0
M  V30 1473 N 141.898 -0.863906 -1.31812 0
M  V30 1474 C 142.808 -0.318461 -2.32428 0
M  V30 1475 C 143.824 0.568496 -1.64451 0
M  V30 1476 O 145 0.46666 -1.95919 0
M  V30 1477 C 142.065 0.476355 -3.43412 0
M  V30 1478 C 141.126 -0.43784 -4.27061 0
M  V30 1479 C 140.359 0.319138 -5.32745 0
M  V30 1480 O 140.582 1.54799 -5.48993 0
M  V30 1481 O 139.516 -0.319861 -6.01049 0
M  V30 1482 H 143.342 -1.15229 -2.80991 0
M  V30 1483 H 140.927 -0.627103 -1.35602 0
M  V30 1484 H 142.809 0.927156 -4.11074 0
M  V30 1485 H 141.484 1.28683 -2.97022 0
M  V30 1486 H 140.391 -0.937013 -3.62175 0
M  V30 1487 H 141.724 -1.21375 -4.77 0
M  V30 1488 N 143.376 1.44774 -0.622745 0
M  V30 1489 C 144.306 2.33382 0.0741861 0
M  V30 1490 C 145.287 1.47719 0.843387 0
M  V30 1491 O 146.472 1.76458 0.810934 0
M  V30 1492 C 143.602 3.30663 1.06204 0
M  V30 1493 C 142.556 4.26079 0.405037 0
M  V30 1494 C 141.882 5.13165 1.5022 0
M  V30 1495 C 143.182 5.1781 -0.683414 0
M  V30 1496 H 144.876 2.91905 -0.665713 0
M  V30 1497 H 142.422 1.40363 -0.321587 0
M  V30 1498 H 144.375 3.9153 1.55827 0
M  V30 1499 H 143.099 2.70331 1.83272 0
M  V30 1500 H 141.758 3.66532 -0.0704683 0
M  V30 1501 H 141.406 4.49191 2.26355 0
M  V30 1502 H 141.106 5.77812 1.06803 0
M  V30 1503 H 142.63 5.76902 2.00041 0
M  V30 1504 H 144.044 5.72661 -0.270631 0
M  V30 1505 H 142.441 5.91015 -1.04023 0
M  V30 1506 H 143.511 4.59326 -1.55395 0
M  V30 1507 N 144.854 0.36279 1.53368 0
M  V30 1508 C 146.27 0.0116182 1.59596 0
M  V30 1509 C 146.47 -1.47012 1.37803 0
M  V30 1510 O 145.526 -2.23136 1.18181 0
M  V30 1511 C 146.839 0.465052 2.97082 0
M  V30 1512 C 148.387 0.419033 3.10182 0
M  V30 1513 C 148.862 0.848235 4.50077 0
M  V30 1514 N 150.353 0.803183 4.56183 0
M  V30 1515 C 151.088 1.107 5.62613 0
M  V30 1516 N 150.584 1.47996 6.76808 0
M  V30 1517 N 152.377 1.02998 5.52583 0
M  V30 1518 H 144.528 1.32775 1.65785 0
M  V30 1519 H 146.791 0.542518 0.777417 0
M  V30 1520 H 146.497 1.49892 3.18159 0
M  V30 1521 H 146.371 -0.149786 3.76902 0
M  V30 1522 H 148.758 -0.605696 2.88817 0
M  V30 1523 H 148.839 1.06933 2.32377 0
M  V30 1524 H 148.483 1.87107 4.7218 0
M  V30 1525 H 148.413 0.175218 5.26308 0
M  V30 1526 H 150.904 0.52838 3.74188 0
M  V30 1527 H 151.217 1.69613 7.53957 0
M  V30 1528 H 149.562 1.51859 6.78206 0
M  V30 1529 H 152.753 0.737817 4.62249 0
M  V30 1530 H 152.926 1.2701 6.35431 0
M  V30 1531 N 146.332 -1.57332 0.0918853 0
M  V30 1532 C 147.748 -1.57389 -0.264766 0
M  V30 1533 C 147.948 -1.10281 -1.68643 0
M  V30 1534 O 147.004 -0.777801 -2.40222 0
M  V30 1535 C 148.317 -3.00648 -0.0561195 0
M  V30 1536 C 149.865 -3.12754 -0.124116 0
M  V30 1537 C 150.34 -4.57965 0.0564972 0
M  V30 1538 N 151.831 -4.632 0.00155611 0
M  V30 1539 C 152.566 -5.73281 0.116598 0
M  V30 1540 N 152.062 -6.92208 0.286294 0
M  V30 1541 N 153.855 -5.6207 0.0580973 0
M  V30 1542 H 146.006 -1.86262 1.02079 0
M  V30 1543 H 148.269 -0.859579 0.399786 0
M  V30 1544 H 147.975 -3.393 0.925669 0
M  V30 1545 H 147.849 -3.68623 -0.799823 0
M  V30 1546 H 150.236 -2.73976 -1.09641 0
M  V30 1547 H 150.317 -2.47377 0.651024 0
M  V30 1548 H 149.961 -4.97436 1.02564 0
M  V30 1549 H 149.891 -5.21399 -0.738297 0
M  V30 1550 H 152.382 -3.77686 -0.127192 0
M  V30 1551 H 152.695 -7.71934 0.365676 0
M  V30 1552 H 151.04 -6.94254 0.32192 0
M  V30 1553 H 154.231 -4.68043 -0.0733204 0
M  V30 1554 H 154.404 -6.47824 0.151203 0
M  V30 1555 N 147.81 0.181792 -1.56548 0
M  V30 1556 C 148.743 1.25366 -1.90679 0
M  V30 1557 C 149.721 1.43299 -0.768376 0
M  V30 1558 O 150.905 1.58475 -1.02068 0
M  V30 1559 C 148.032 2.61826 -2.1486 0
M  V30 1560 C 147.078 2.60688 -3.37556 0
M  V30 1561 S 147.911 2.10804 -4.92262 0
M  V30 1562 C 149.067 3.49062 -5.19525 0
M  V30 1563 H 149.3 0.962277 -2.81296 0
M  V30 1564 H 146.833 0.385892 -1.495 0
M  V30 1565 H 148.791 3.40371 -2.29473 0
M  V30 1566 H 147.452 2.88169 -1.24969 0
M  V30 1567 H 146.645 3.61058 -3.51643 0
M  V30 1568 H 146.247 1.90232 -3.22006 0
M  V30 1569 H 148.539 4.45003 -5.10861 0
M  V30 1570 H 149.482 3.39859 -6.2121 0
M  V30 1571 H 149.89 3.4459 -4.47122 0
M  V30 1572 N 149.288 1.51039 0.449983 0
M  V30 1573 C 150.699 1.557 1.03026 0
M  V30 1574 C 151.05 0.372939 1.92623 0
M  V30 1575 O 150.175 -0.511771 2.10261 0
M  V30 1576 C 150.77 2.82171 1.87523 0
M  V30 1577 C 149.329 2.89444 2.40622 0
M  V30 1578 C 148.476 2.50228 1.19504 0
M  V30 1579 H 151.427 1.56999 0.231745 0
M  V30 1580 H 151.448 2.65219 2.72835 0
M  V30 1581 H 150.96 3.68331 1.22286 0
M  V30 1582 H 149.061 2.07685 3.0935 0
M  V30 1583 H 149.174 3.92816 2.74285 0
M  V30 1584 H 147.538 2.03139 1.53644 0
M  V30 1585 H 148.321 3.38719 0.558972 0
M  V30 1586 N 150.766 -0.704594 1.40972 0
M  V30 1587 C 151.729 -1.80035 1.41845 0
M  V30 1588 C 152.729 -1.57774 0.310474 0
M  V30 1589 O 153.919 -1.64613 0.56992 0
M  V30 1590 C 151.051 -3.18284 1.22098 0
M  V30 1591 H 152.244 -1.80658 2.3938 0
M  V30 1592 H 149.797 -0.911329 1.26982 0
M  V30 1593 H 150.532 -3.23306 0.253672 0
M  V30 1594 H 150.317 -3.35843 2.02366 0
M  V30 1595 H 151.807 -3.98289 1.25522 0
M  V30 1596 N 152.244 -1.26651 -0.937939 0
M  V30 1597 C 153.154 -1.10276 -2.07066 0
M  V30 1598 C 154.17 -0.0354197 -1.73964 0
M  V30 1599 O 155.346 -0.239816 -1.99967 0
M  V30 1600 C 152.411 -0.740887 -3.38691 0
M  V30 1601 C 151.472 -1.88799 -3.85556 0
M  V30 1602 C 150.705 -1.54329 -5.10899 0
M  V30 1603 O 150.928 -0.446494 -5.6865 0
M  V30 1604 O 149.862 -2.37911 -5.52885 0
M  V30 1605 H 153.688 -2.05309 -2.23789 0
M  V30 1606 H 151.273 -1.05743 -1.0554 0
M  V30 1607 H 153.155 -0.55195 -4.1777 0
M  V30 1608 H 151.83 0.180022 -3.23199 0
M  V30 1609 H 150.737 -2.13191 -3.07409 0
M  V30 1610 H 152.07 -2.78874 -4.05574 0
M  V30 1611 N 153.722 1.14298 -1.08507 0
M  V30 1612 C 154.95 1.89219 -0.836876 0
M  V30 1613 C 155.365 1.78638 0.611054 0
M  V30 1614 O 154.722 1.14643 1.41998 0
M  V30 1615 C 154.773 3.39158 -1.25116 0
M  V30 1616 O 154.494 3.49449 -2.64229 0
M  V30 1617 C 155.995 4.31073 -1.03398 0
M  V30 1618 H 153.215 0.599328 -0.301739 0
M  V30 1619 H 155.759 1.44746 -1.44461 0
M  V30 1620 H 153.914 3.81251 -0.687514 0
M  V30 1621 H 154.328 4.42589 -2.81452 0
M  V30 1622 H 155.802 5.34646 -1.37323 0
M  V30 1623 H 156.279 4.3919 0.0289259 0
M  V30 1624 H 156.885 3.94738 -1.58311 0
M  V30 1625 N 155.201 0.870884 1.31352 0
M  V30 1626 C 156.131 0.343096 2.30966 0
M  V30 1627 C 157.112 -0.566507 1.60389 0
M  V30 1628 O 158.297 -0.483336 1.88089 0
M  V30 1629 C 155.427 -0.455487 3.443 0
M  V30 1630 C 154.381 0.361103 4.26474 0
M  V30 1631 C 153.707 -0.563221 5.31725 0
M  V30 1632 C 155.007 1.59566 4.97329 0
M  V30 1633 H 156.701 1.17548 2.75359 0
M  V30 1634 H 154.247 0.566686 1.32381 0
M  V30 1635 H 156.2 -0.83525 4.13039 0
M  V30 1636 H 154.924 -1.32139 2.98675 0
M  V30 1637 H 153.583 0.722825 3.59403 0
M  V30 1638 H 153.231 -1.42643 4.82351 0
M  V30 1639 H 152.931 -0.0207409 5.87596 0
M  V30 1640 H 154.455 -0.939808 6.03324 0
M  V30 1641 H 155.869 1.28728 5.58661 0
M  V30 1642 H 154.266 2.07728 5.63 0
M  V30 1643 H 155.336 2.34798 4.24262 0
M  V30 1644 N 156.679 -1.44442 0.630414 0
M  V30 1645 C 157.909 -2.06115 0.141465 0
M  V30 1646 C 158.317 -1.47179 -1.1889 0
M  V30 1647 O 157.66 -0.588873 -1.74006 0
M  V30 1648 C 157.722 -3.59467 -0.0484355 0
M  V30 1649 C 157.386 -4.40864 1.20366 0
M  V30 1650 C 158.383 -4.74391 2.12719 0
M  V30 1651 C 156.068 -4.8125 1.43887 0
M  V30 1652 C 158.062 -5.47186 3.26904 0
M  V30 1653 C 155.749 -5.53795 2.5837 0
M  V30 1654 C 156.747 -5.86682 3.49705 0
M  V30 1655 O 156.435 -6.57749 4.62191 0
M  V30 1656 H 156.167 -0.671648 0.0765792 0
M  V30 1657 H 158.721 -1.86312 0.864695 0
M  V30 1658 H 156.951 -3.77758 -0.826803 0
M  V30 1659 H 158.64 -4.02909 -0.491849 0
M  V30 1660 H 159.406 -4.43728 1.95781 0
M  V30 1661 H 155.285 -4.55073 0.736853 0
M  V30 1662 H 158.829 -5.72773 3.98217 0
M  V30 1663 H 154.726 -5.83872 2.75251 0
M  V30 1664 H 155.494 -6.76217 4.61164 0
M  V30 1665 N 158.157 -0.370918 -1.53173 0
M  V30 1666 C 159.089 0.507823 -2.23503 0
M  V30 1667 C 160.102 1.04182 -1.251 0
M  V30 1668 O 161.291 0.947286 -1.5129 0
M  V30 1669 C 158.391 1.71447 -2.92334 0
M  V30 1670 C 157.564 1.31105 -4.17289 0
M  V30 1671 C 156.623 2.38035 -4.69282 0
M  V30 1672 O 155.649 2.00204 -5.32829 0
M  V30 1673 N 156.851 3.69697 -4.47554 0
M  V30 1674 H 159.616 -0.0946382 -2.99551 0
M  V30 1675 H 157.177 -0.196358 -1.60705 0
M  V30 1676 H 159.169 2.42469 -3.24023 0
M  V30 1677 H 157.739 2.22368 -2.19707 0
M  V30 1678 H 156.959 0.430462 -3.91843 0
M  V30 1679 H 158.247 1.0179 -4.98514 0
M  V30 1680 H 157.645 4.03205 -3.9679 0
M  V30 1681 H 156.202 4.36807 -4.8378 0
M  V30 1682 N 159.635 1.57281 -0.100228 0
M  V30 1683 C 160.883 1.94153 0.561157 0
M  V30 1684 C 161.204 0.983157 1.68401 0
M  V30 1685 O 160.474 0.0361132 1.95867 0
M  V30 1686 H 159.054 0.716791 0.210283 0
M  V30 1687 H 161.716 1.94202 -0.164765 0
M  V30 1688 H 160.812 2.96709 0.968008 0
M  V30 1689 N 161.113 -0.173488 1.56642 0
M  V30 1690 C 162.023 -1.23482 1.99473 0
M  V30 1691 C 163.039 -1.48567 0.905752 0
M  V30 1692 O 164.215 -1.60758 1.21321 0
M  V30 1693 C 161.28 -2.55444 2.34413 0
M  V30 1694 C 160.341 -2.38241 3.57127 0
M  V30 1695 C 159.574 -3.63909 3.90392 0
M  V30 1696 O 159.797 -4.68996 3.24653 0
M  V30 1697 O 158.731 -3.58149 4.83749 0
M  V30 1698 H 162.557 -0.901279 2.90018 0
M  V30 1699 H 160.142 -0.380185 1.44482 0
M  V30 1700 H 162.024 -3.33292 2.57865 0
M  V30 1701 H 160.699 -2.88382 1.4703 0
M  V30 1702 H 159.606 -1.58431 3.38896 0
M  V30 1703 H 160.939 -2.10228 4.45045 0
M  V30 1704 N 162.591 -1.51276 -0.441967 0
M  V30 1705 C 163.819 -1.67516 -1.21434 0
M  V30 1706 C 164.234 -0.37055 -1.85128 0
M  V30 1707 O 163.591 0.650498 -1.70513 0
M  V30 1708 C 163.642 -2.78748 -2.30177 0
M  V30 1709 O 163.363 -4.04154 -1.69089 0
M  V30 1710 C 164.864 -3.06217 -3.20541 0
M  V30 1711 H 162.084 -0.562276 -0.366178 0
M  V30 1712 H 164.628 -1.97666 -0.524244 0
M  V30 1713 H 162.783 -2.5121 -2.94911 0
M  V30 1714 H 163.197 -4.65894 -2.40922 0
M  V30 1715 H 164.671 -3.8764 -3.92987 0
M  V30 1716 H 165.148 -2.18439 -3.81026 0
M  V30 1717 H 165.754 -3.35397 -2.61513 0
M  V30 1718 N 164.069 0.697108 -1.41344 0
M  V30 1719 C 164.979 1.84088 -1.45427 0
M  V30 1720 C 165.995 1.70545 -0.34501 0
M  V30 1721 O 167.171 1.92488 -0.592492 0
M  V30 1722 C 164.236 3.20056 -1.33286 0
M  V30 1723 C 163.297 3.45718 -2.54514 0
M  V30 1724 C 162.53 4.75199 -2.42944 0
M  V30 1725 O 162.753 5.51579 -1.45318 0
M  V30 1726 O 161.687 5.0161 -3.32672 0
M  V30 1727 H 165.513 1.836 -2.41919 0
M  V30 1728 H 163.098 0.849966 -1.22866 0
M  V30 1729 H 164.98 4.01236 -1.28794 0
M  V30 1730 H 163.655 3.2123 -0.39909 0
M  V30 1731 H 162.562 2.64474 -2.64583 0
M  V30 1732 H 163.895 3.49356 -3.46715 0
M  V30 1733 N 165.547 1.27147 0.931209 0
M  V30 1734 C 166.793 1.13446 1.68101 0
M  V30 1735 C 167.126 -0.319628 1.91552 0
M  V30 1736 O 166.401 -1.23407 1.50336 0
M  V30 1737 C 166.684 1.91482 3.0497 0
M  V30 1738 C 166.537 3.44855 2.88782 0
M  V30 1739 C 167.856 1.71651 4.05246 0
M  V30 1740 H 164.975 0.413498 0.610072 0
M  V30 1741 H 167.617 1.56261 1.08086 0
M  V30 1742 H 165.767 1.55095 3.56199 0
M  V30 1743 H 167.439 3.9105 2.44698 0
M  V30 1744 H 165.682 3.71373 2.24198 0
M  V30 1745 H 166.353 3.94694 3.85902 0
M  V30 1746 H 168.829 2.0337 3.63015 0
M  V30 1747 H 167.705 2.28651 4.99009 0
M  V30 1748 H 167.966 0.663555 4.37092 0
M  V30 1749 N 167.025 -1.13721 1.09112 0
M  V30 1750 C 167.988 -2.17222 0.731241 0
M  V30 1751 C 168.988 -1.59035 -0.237566 0
M  V30 1752 O 170.178 -1.74192 -0.0161704 0
M  V30 1753 C 167.31 -3.40804 0.0808443 0
M  V30 1754 H 168.503 -2.50573 1.64783 0
M  V30 1755 H 166.056 -1.28493 0.889897 0
M  V30 1756 H 166.791 -3.1304 -0.847127 0
M  V30 1757 H 166.576 -3.84306 0.777896 0
M  V30 1758 H 168.066 -4.1731 -0.155657 0
M  V30 1759 N 168.503 -0.877838 -1.30888 0
M  V30 1760 C 169.413 -0.343096 -2.32078 0
M  V30 1761 C 170.429 0.551022 -1.65045 0
M  V30 1762 O 171.605 0.445854 -1.96403 0
M  V30 1763 C 168.67 0.439905 -3.43898 0
M  V30 1764 C 167.731 -0.483111 -4.26573 0
M  V30 1765 C 166.964 0.262616 -5.33053 0
M  V30 1766 O 167.187 1.48967 -5.50604 0
M  V30 1767 O 166.121 -0.383593 -6.00676 0
M  V30 1768 H 169.947 -1.18203 -2.79753 0
M  V30 1769 H 167.532 -0.64145 -1.34929 0
M  V30 1770 H 169.414 0.883504 -4.12034 0
M  V30 1771 H 168.089 1.25526 -2.98371 0
M  V30 1772 H 166.996 -0.975374 -3.61161 0
M  V30 1773 H 168.329 -1.26427 -4.75686 0
M  V30 1774 N 169.982 1.44106 -0.638065 0
M  V30 1775 C 170.915 2.27924 0.112161 0
M  V30 1776 C 171.893 1.38945 0.844574 0
M  V30 1777 O 173.077 1.68386 0.847248 0
M  V30 1778 C 170.204 3.18029 1.16512 0
M  V30 1779 C 169.25 4.23163 0.532458 0
M  V30 1780 S 170.083 5.31131 -0.682666 0
M  V30 1781 C 171.239 6.24805 0.37013 0
M  V30 1782 H 171.472 2.91205 -0.598887 0
M  V30 1783 H 169.005 1.48394 -0.426441 0
M  V30 1784 H 170.963 3.70492 1.76766 0
M  V30 1785 H 169.624 2.53955 1.8484 0
M  V30 1786 H 168.817 4.86252 1.32571 0
M  V30 1787 H 168.419 3.74 0.00437644 0
M  V30 1788 H 170.711 6.66042 1.24071 0
M  V30 1789 H 171.654 7.07741 -0.225349 0
M  V30 1790 H 172.062 5.60154 0.699141 0
M  V30 1791 N 171.46 0.379036 1.52974 0
M  V30 1792 C 172.871 -0.0972525 1.86447 0
M  V30 1793 C 173.222 -1.47027 1.29914 0
M  V30 1794 O 172.347 -2.07135 0.626433 0
M  V30 1795 C 172.942 -0.183248 3.38304 0
M  V30 1796 C 171.501 -0.603812 3.71525 0
M  V30 1797 C 170.648 0.240632 2.76254 0
M  V30 1798 H 173.599 0.597316 1.4703 0
M  V30 1799 H 173.62 -1.00432 3.67006 0
M  V30 1800 H 173.132 0.816191 3.79421 0
M  V30 1801 H 171.233 -1.61099 3.35973 0
M  V30 1802 H 171.346 -0.369086 4.77676 0
M  V30 1803 H 169.71 -0.292548 2.53014 0
M  V30 1804 H 170.493 1.23786 3.20206 0
M  V30 1805 N 172.938 -1.57226 0.108567 0
M  V30 1806 C 174.184 -1.95121 -0.552761 0
M  V30 1807 C 174.517 -0.991345 -1.66991 0
M  V30 1808 O 173.792 -0.0267211 -1.94482 0
M  V30 1809 C 174.075 -3.43039 -1.09528 0
M  V30 1810 C 173.928 -4.49797 0.0177332 0
M  V30 1811 C 175.247 -3.92567 -1.98945 0
M  V30 1812 H 172.366 -0.709496 -0.199461 0
M  V30 1813 H 175.008 -1.89126 0.182011 0
M  V30 1814 H 173.158 -3.48279 -1.72146 0
M  V30 1815 H 174.83 -4.56661 0.652584 0
M  V30 1816 H 173.073 -4.284 0.682309 0
M  V30 1817 H 173.744 -5.50528 -0.402919 0
M  V30 1818 H 176.22 -3.89565 -1.46214 0
M  V30 1819 H 175.096 -4.96605 -2.33827 0
M  V30 1820 H 175.357 -3.32648 -2.91201 0
M  V30 1821 N 174.416 0.165178 -1.56732 0
M  V30 1822 C 175.644 0.896218 -1.86482 0
M  V30 1823 C 176.059 1.75555 -0.694675 0
M  V30 1824 O 175.416 1.79379 0.33607 0
M  V30 1825 C 175.467 1.76792 -3.1532 0
M  V30 1826 O 175.188 0.943239 -4.27825 0
M  V30 1827 C 176.689 2.6081 -3.58459 0
M  V30 1828 H 173.909 0.260064 -0.618553 0
M  V30 1829 H 176.453 0.163428 -2.03846 0
M  V30 1830 H 174.608 2.45398 -2.99764 0
M  V30 1831 H 175.022 1.53998 -5.01383 0
M  V30 1832 H 176.496 3.17579 -4.51495 0
M  V30 1833 H 176.973 3.35977 -2.82872 0
M  V30 1834 H 177.579 1.97526 -3.76648 0
M  V30 1835 N 175.894 1.51508 0.433938 0
M  V30 1836 C 176.841 1.73068 1.52696 0
M  V30 1837 C 177.811 0.572441 1.55924 0
M  V30 1838 O 178.996 0.807253 1.72882 0
M  V30 1839 C 176.136 1.86474 2.90381 0
M  V30 1840 C 175.249 3.14037 2.96656 0
M  V30 1841 C 174.384 3.18019 4.25485 0
M  V30 1842 C 173.423 4.39882 4.2564 0
M  V30 1843 N 172.56 4.41394 5.45999 0
M  V30 1844 H 177.4 2.66366 1.33615 0
M  V30 1845 H 174.937 1.32008 0.649018 0
M  V30 1846 H 176.895 1.92229 3.70275 0
M  V30 1847 H 175.525 0.965809 3.08013 0
M  V30 1848 H 174.577 3.17575 2.09404 0
M  V30 1849 H 175.889 4.0394 2.92633 0
M  V30 1850 H 175.043 3.22708 5.13755 0
M  V30 1851 H 173.782 2.2601 4.3217 0
M  V30 1852 H 172.787 4.35366 3.35763 0
M  V30 1853 H 174.012 5.33159 4.20617 0
M  V30 1854 H 171.958 3.52258 5.53399 0
M  V30 1855 H 171.875 5.25111 5.4387 0
M  V30 1856 H 173.143 4.50281 6.36292 0
M  V30 1857 N 177.372 -0.689602 1.41712 0
M  V30 1858 C 178.319 -1.80345 1.44029 0
M  V30 1859 C 179.289 -1.63478 0.293948 0
M  V30 1860 O 180.474 -1.84244 0.495869 0
M  V30 1861 C 177.614 -3.18272 1.33405 0
M  V30 1862 C 176.727 -3.46529 2.57956 0
M  V30 1863 C 175.862 -4.74103 2.39582 0
M  V30 1864 C 174.901 -4.95347 3.5958 0
M  V30 1865 N 174.038 -6.14151 3.40239 0
M  V30 1866 H 178.878 -1.77698 2.39222 0
M  V30 1867 H 176.415 -0.867688 1.18784 0
M  V30 1868 H 178.373 -3.97956 1.25246 0
M  V30 1869 H 177.003 -3.2008 0.418164 0
M  V30 1870 H 176.055 -2.61207 2.76542 0
M  V30 1871 H 177.367 -3.58126 3.47199 0
M  V30 1872 H 176.521 -5.61853 2.28924 0
M  V30 1873 H 175.26 -4.64763 1.47805 0
M  V30 1874 H 174.265 -4.06044 3.70686 0
M  V30 1875 H 175.49 -5.06542 4.52318 0
M  V30 1876 H 173.436 -6.06013 2.51167 0
M  V30 1877 H 173.353 -6.26543 4.23061 0
M  V30 1878 H 174.621 -7.04619 3.33365 0
M  V30 1879 N 178.85 -1.27639 -0.924453 0
M  V30 1880 C 180.261 -1.12834 -1.48746 0
M  V30 1881 C 180.612 0.285505 -1.94112 0
M  V30 1882 O 179.737 1.17874 -1.81479 0
M  V30 1883 C 180.332 -2.04217 -2.70334 0
M  V30 1884 C 178.891 -1.93509 -3.22848 0
M  V30 1885 C 178.038 -1.96583 -1.95577 0
M  V30 1886 H 180.989 -1.40484 -0.738233 0
M  V30 1887 H 181.01 -1.59989 -3.4523 0
M  V30 1888 H 180.522 -3.07111 -2.37285 0
M  V30 1889 H 178.623 -0.936131 -3.60649 0
M  V30 1890 H 178.736 -2.79917 -3.88823 0
M  V30 1891 H 177.1 -1.4085 -2.12211 0
M  V30 1892 H 177.883 -3.01137 -1.64837 0
M  V30 1893 N 180.328 1.1314 -1.09713 0
M  V30 1894 C 181.744 1.36477 -0.827423 0
M  V30 1895 C 181.944 1.93654 0.556817 0
M  V30 1896 O 181 2.15791 1.31112 0
M  V30 1897 C 182.313 2.31334 -1.92106 0
M  V30 1898 C 183.861 2.44943 -1.94864 0
M  V30 1899 C 184.336 3.4311 -3.0338 0
M  V30 1900 N 185.827 3.50662 -3.02639 0
M  V30 1901 C 186.562 4.2651 -3.83246 0
M  V30 1902 N 186.058 5.05485 -4.73768 0
M  V30 1903 N 187.851 4.2184 -3.71493 0
M  V30 1904 H 180.002 0.743807 -1.9895 0
M  V30 1905 H 182.265 0.389823 -0.864143 0
M  V30 1906 H 181.971 1.96483 -2.91698 0
M  V30 1907 H 181.845 3.31381 -1.80184 0
M  V30 1908 H 184.232 2.79079 -0.959099 0
M  V30 1909 H 184.313 1.4481 -2.10864 0
M  V30 1910 H 183.957 3.09704 -4.02549 0
M  V30 1911 H 183.887 4.43055 -2.84622 0
M  V30 1912 H 186.378 2.94315 -2.37039 0
M  V30 1913 H 186.691 5.60675 -5.3185 0
M  V30 1914 H 185.036 5.04708 -4.77802 0
M  V30 1915 H 188.227 3.5922 -3.00131 0
M  V30 1916 H 188.4 4.80697 -4.3455 0
M  V30 1917 N 181.806 0.884767 1.30421 0
M  V30 1918 C 182.739 0.295999 2.26272 0
M  V30 1919 C 183.717 -0.58332 1.51777 0
M  V30 1920 O 184.901 -0.53346 1.80794 0
M  V30 1921 C 182.028 -0.57944 3.33707 0
M  V30 1922 C 181.074 0.230525 4.25877 0
M  V30 1923 S 181.907 1.61867 5.1045 0
M  V30 1924 C 183.063 0.749756 6.21393 0
M  V30 1925 H 183.296 1.10848 2.75862 0
M  V30 1926 H 180.829 0.684178 1.38414 0
M  V30 1927 H 182.787 -1.07879 3.96071 0
M  V30 1928 H 181.448 -1.36601 2.82841 0
M  V30 1929 H 180.641 -0.437542 5.02097 0
M  V30 1930 H 180.243 0.662493 3.68086 0
M  V30 1931 H 182.535 -0.0333547 6.77492 0
M  V30 1932 H 183.478 1.48356 6.92384 0
M  V30 1933 H 183.886 0.310751 5.63644 0
M  V30 1934 N 183.284 -1.43765 0.645699 0
M  V30 1935 C 184.532 -2.01499 0.155731 0
M  V30 1936 C 184.853 -1.51151 -1.232 0
M  V30 1937 O 184.123 -0.721044 -1.82148 0
M  V30 1938 H 182.703 -0.745003 0.0545817 0
M  V30 1939 H 185.365 -1.76075 0.835677 0
M  V30 1940 H 184.461 -3.1181 0.134577 0
M  V30 1941 N 184.763 -0.387143 -1.52771 0
M  V30 1942 C 185.726 0.436939 -2.24997 0
M  V30 1943 C 186.726 0.991991 -1.26555 0
M  V30 1944 O 187.916 0.874335 -1.50669 0
M  V30 1945 C 185.048 1.61281 -3.00335 0
M  V30 1946 H 186.241 -0.195365 -2.99263 0
M  V30 1947 H 183.794 -0.139218 -1.55679 0
M  V30 1948 H 184.529 2.2826 -2.30364 0
M  V30 1949 H 184.314 1.22154 -3.72587 0
M  V30 1950 H 185.804 2.19629 -3.5518 0
M  V30 1951 N 186.241 1.57166 -0.116904 0
M  V30 1952 C 187.466 1.999 0.55271 0
M  V30 1953 C 187.891 0.996039 1.59564 0
M  V30 1954 O 187.249 -0.032556 1.81271 0
M  V30 1955 C 187.297 3.4152 1.15742 0
M  V30 1956 O 186.401 3.44106 2.27299 0
M  V30 1957 H 185.742 0.649447 0.138258 0
M  V30 1958 H 188.272 2.03573 -0.204759 0
M  V30 1959 H 188.282 3.79684 1.49346 0
M  V30 1960 H 186.957 4.14034 0.393493 0
M  V30 1961 H 185.534 3.17759 1.9515 0
M  V30 1962 N 187.719 -0.156864 1.56817 0
M  V30 1963 C 188.682 -1.17781 1.96622 0
M  V30 1964 C 189.682 -1.36401 0.851555 0
M  V30 1965 O 190.872 -1.33561 1.11836 0
M  V30 1966 C 188.004 -2.54008 2.27361 0
M  V30 1967 H 189.197 -0.836564 2.87996 0
M  V30 1968 H 186.75 -0.39985 1.51099 0
M  V30 1969 H 187.485 -2.9312 1.38748 0
M  V30 1970 H 187.27 -2.41856 3.08623 0
M  V30 1971 H 188.76 -3.27558 2.59029 0
M  V30 1972 N 189.197 -1.51736 -0.425897 0
M  V30 1973 C 190.445 -1.64644 -1.17204 0
M  V30 1974 C 190.766 -0.370486 -1.91448 0
M  V30 1975 O 190.036 0.614088 -1.86026 0
M  V30 1976 H 188.616 -0.606819 -0.435638 0
M  V30 1977 H 191.278 -1.88713 -0.487177 0
M  V30 1978 H 190.374 -2.47958 -1.89534 0
M  V30 1979 N 190.675 0.682077 -1.42076 0
M  V30 1980 C 192.091 0.994324 -1.24841 0
M  V30 1981 C 192.291 2.0096 -0.147389 0
M  V30 1982 O 191.347 2.47822 0.483782 0
M  V30 1983 C 192.66 1.50607 -2.60265 0
M  V30 1984 C 194.208 1.62421 -2.6756 0
M  V30 1985 C 194.683 2.16994 -4.03333 0
M  V30 1986 N 196.174 2.24337 -4.0525 0
M  V30 1987 C 196.909 2.67621 -5.07116 0
M  V30 1988 N 196.405 3.1041 -6.19368 0
M  V30 1989 N 198.198 2.67305 -4.94474 0
M  V30 1990 H 190.349 0.00973908 -2.12398 0
M  V30 1991 H 192.612 0.0668593 -0.945639 0
M  V30 1992 H 192.318 0.834583 -3.41654 0
M  V30 1993 H 192.192 2.48602 -2.83684 0
M  V30 1994 H 194.579 2.28678 -1.86521 0
M  V30 1995 H 194.66 0.629352 -2.47937 0
M  V30 1996 H 194.304 1.51349 -4.84826 0
M  V30 1997 H 194.234 3.17258 -4.20304 0
M  V30 1998 H 196.725 1.94158 -3.24209 0
M  V30 1999 H 197.038 3.42103 -6.92954 0
M  V30 2000 H 195.383 3.08286 -6.22884 0
M  V30 2001 H 198.574 2.33233 -4.05857 0
M  V30 2002 H 198.747 3.00718 -5.73997 0
M  V30 2003 N 192.153 1.28127 0.917671 0
M  V30 2004 C 193.402 1.14432 1.66097 0
M  V30 2005 C 193.715 -0.307247 1.93172 0
M  V30 2006 O 194.921 -0.565259 2.65551 0
M  V30 2007 C 193.377 2.00015 2.99202 0
M  V30 2008 C 192.985 3.49889 2.79789 0
M  V30 2009 C 194.729 1.94996 3.77064 0
M  V30 2010 C 192.636 4.27636 4.08511 0
M  V30 2011 H 191.566 0.424662 0.62304 0
M  V30 2012 H 194.217 1.52628 1.01868 0
M  V30 2013 H 192.599 1.54672 3.64544 0
M  V30 2014 H 193.773 4.03162 2.23152 0
M  V30 2015 H 192.088 3.56392 2.15345 0
M  V30 2016 H 194.685 2.50354 4.72469 0
M  V30 2017 H 195.028 0.925819 4.05875 0
M  V30 2018 H 195.561 2.38287 3.18534 0
M  V30 2019 H 192.3 5.30615 3.84874 0
M  V30 2020 H 191.82 3.79137 4.64774 0
M  V30 2021 H 193.499 4.37346 4.76799 0
M  V30 2022 N 193.631 -1.12557 1.10312 0
M  V30 2023 C 194.578 -2.18247 0.750781 0
M  V30 2024 C 195.548 -1.63853 -0.272293 0
M  V30 2025 O 196.733 -1.90195 -0.151862 0
M  V30 2026 C 193.873 -3.44591 0.187379 0
M  V30 2027 C 192.986 -4.13046 1.2656 0
M  V30 2028 C 192.121 -5.27034 0.663978 0
M  V30 2029 C 191.16 -5.87353 1.72287 0
M  V30 2030 N 190.297 -6.92757 1.1416 0
M  V30 2031 H 195.137 -2.47732 1.65628 0
M  V30 2032 H 192.674 -1.21629 0.827337 0
M  V30 2033 H 194.632 -4.16904 -0.157148 0
M  V30 2034 H 193.262 -3.15527 -0.681355 0
M  V30 2035 H 192.314 -3.38924 1.72727 0
M  V30 2036 H 193.626 -4.53947 2.06721 0
M  V30 2037 H 192.78 -6.06104 0.268824 0
M  V30 2038 H 191.519 -4.87407 -0.169082 0
M  V30 2039 H 190.524 -5.06971 2.12746 0
M  V30 2040 H 191.749 -6.29051 2.55875 0
M  V30 2041 H 189.695 -6.5517 0.329984 0
M  V30 2042 H 189.612 -7.3225 1.88007 0
M  V30 2043 H 190.88 -7.75658 0.772956 0
M  V30 2044 N 195.109 -0.891671 -1.2995 0
M  V30 2045 C 196.357 -0.512486 -1.95494 0
M  V30 2046 C 196.678 0.942776 -1.70695 0
M  V30 2047 O 195.948 1.66374 -1.03424 0
M  V30 2048 H 194.528 -0.186533 -0.723336 0
M  V30 2049 H 197.19 -1.13621 -1.58355 0
M  V30 2050 H 196.286 -0.688342 -3.04415 0
M  V30 2051 N 196.587 1.43421 -0.653314 0
M  V30 2052 C 197.864 1.95361 -0.0966581 0
M  V30 2053 C 198.244 1.59461 1.38331 0
M  V30 2054 O 197.592 0.879777 2.10884 0
M  V30 2055 C 197.802 3.47311 -0.342988 0
M  V30 2056 C 199.15 4.23875 -0.24798 0
M  V30 2057 O 200.174 3.55133 -0.275553 0
M  V30 2058 O 199.033 5.4623 -0.171771 0
M  V30 2059 H 196.127 0.826945 0.00956291 0
M  V30 2060 H 198.673 1.5336 -0.726558 0
M  V30 2061 H 197.445 3.66569 -1.36906 0
M  V30 2062 H 197.068 3.9631 0.319975 0
M  V30 2063 N 198.065 0.39524 1.52563 0
M  V30 2064 C 198.975 -0.444232 2.30356 0
M  V30 2065 C 199.991 -1.06615 1.37511 0
M  V30 2066 O 201.167 -1.07067 1.70583 0
M  V30 2067 C 198.232 -1.55315 3.09964 0
M  V30 2068 C 197.293 -0.955734 4.18526 0
M  V30 2069 C 196.526 -2.01181 4.9433 0
M  V30 2070 O 196.749 -3.22781 4.70285 0
M  V30 2071 O 195.683 -1.62579 5.79527 0
M  V30 2072 H 199.509 0.189667 3.03107 0
M  V30 2073 H 197.094 0.1588 1.48554 0
M  V30 2074 H 198.976 -2.19724 3.59582 0
M  V30 2075 H 197.651 -2.17191 2.4002 0
M  V30 2076 H 196.558 -0.274743 3.7309 0
M  V30 2077 H 197.891 -0.381109 4.90722 0
M  V30 2078 N 199.544 -1.57102 0.125237 0
M  V30 2079 C 200.474 -2.18659 -0.819174 0
M  V30 2080 C 201.455 -1.12843 -1.27281 0
M  V30 2081 O 202.64 -1.41104 -1.33429 0
M  V30 2082 C 199.77 -2.79096 -2.06695 0
M  V30 2083 C 198.724 -3.90548 -1.75088 0
M  V30 2084 C 198.05 -4.37821 -3.06948 0
M  V30 2085 C 199.35 -5.12356 -1.01435 0
M  V30 2086 H 201.044 -2.9783 -0.306202 0
M  V30 2087 H 198.59 -1.4326 -0.145839 0
M  V30 2088 H 200.543 -3.2082 -2.73226 0
M  V30 2089 H 199.267 -1.97223 -2.60328 0
M  V30 2090 H 197.926 -3.49409 -1.10944 0
M  V30 2091 H 197.574 -3.52799 -3.58527 0
M  V30 2092 H 197.274 -5.12982 -2.86571 0
M  V30 2093 H 198.798 -4.822 -3.74587 0
M  V30 2094 H 200.212 -5.5106 -1.58132 0
M  V30 2095 H 198.609 -5.9314 -0.911319 0
M  V30 2096 H 199.679 -4.849 -0.00218681 0
M  V30 2097 N 201.022 0.148545 -1.56898 0
M  V30 2098 C 202.262 0.86765 -1.85071 0
M  V30 2099 C 202.626 1.78417 -0.709317 0
M  V30 2100 O 203.827 2.54261 -0.872049 0
M  V30 2101 C 202.098 1.62306 -3.1842 0
M  V30 2102 S 203.657 2.3878 -3.68143 0
M  V30 2103 H 200.475 0.290174 -0.649092 0
M  V30 2104 H 203.077 0.127755 -1.95082 0
M  V30 2105 H 201.781 0.941192 -3.99462 0
M  V30 2106 H 201.312 2.4039 -3.1141 0
M  V30 2107 H 203.327 3.63942 -3.37285 0
M  V30 2108 N 202.5 1.5196 0.417844 0
M  V30 2109 C 203.746 1.65836 1.16732 0
M  V30 2110 C 204.079 0.382881 1.90388 0
M  V30 2111 O 203.354 -0.618368 1.84408 0
M  V30 2112 C 203.637 2.87466 2.16876 0
M  V30 2113 C 203.49 4.25041 1.47174 0
M  V30 2114 C 204.809 3.04613 3.17646 0
M  V30 2115 H 201.928 0.603515 0.423011 0
M  V30 2116 H 204.57 1.84494 0.454105 0
M  V30 2117 H 202.72 2.71689 2.777 0
M  V30 2118 H 204.392 4.52527 0.895376 0
M  V30 2119 H 202.635 4.26843 0.773806 0
M  V30 2120 H 203.306 5.06176 2.20204 0
M  V30 2121 H 205.782 3.1923 2.66892 0
M  V30 2122 H 204.658 3.91247 3.8499 0
M  V30 2123 H 204.919 2.17541 3.84874 0
M  V30 2124 N 203.978 -0.674533 1.42435 0
M  V30 2125 C 205.224 -1.43671 1.43131 0
M  V30 2126 C 205.557 -1.94142 0.0476021 0
M  V30 2127 O 204.832 -1.70924 -0.928188 0
M  V30 2128 C 205.115 -2.63355 2.45594 0
M  V30 2129 C 204.968 -2.18514 3.93156 0
M  V30 2130 C 206.287 -3.65571 2.45043 0
M  V30 2131 H 203.406 -0.521077 0.521198 0
M  V30 2132 H 206.048 -0.766551 1.7385 0
M  V30 2133 H 204.198 -3.2053 2.19528 0
M  V30 2134 H 205.87 -1.66504 4.30202 0
M  V30 2135 H 204.113 -1.50086 4.07009 0
M  V30 2136 H 204.784 -3.04484 4.60428 0
M  V30 2137 H 207.26 -3.18113 2.68223 0
M  V30 2138 H 206.136 -4.46893 3.18713 0
M  V30 2139 H 206.397 -4.16716 1.47649 0
M  V30 2140 N 205.456 -1.28612 -0.910864 0
M  V30 2141 C 206.696 -1.1719 -1.67469 0
M  V30 2142 C 207.06 0.274441 -1.90028 0
M  V30 2143 O 208.261 0.511425 -2.6389 0
M  V30 2144 C 206.532 -1.95137 -2.99427 0
M  V30 2145 S 208.091 -2.00122 -3.90508 0
M  V30 2146 H 204.909 -0.41806 -0.575106 0
M  V30 2147 H 207.511 -1.6275 -1.08317 0
M  V30 2148 H 206.215 -2.99381 -2.80712 0
M  V30 2149 H 205.746 -1.50137 -3.63624 0
M  V30 2150 H 207.761 -1.10981 -4.8363 0
M  V30 2151 N 206.934 1.1197 -1.10907 0
M  V30 2152 C 208.182 1.83225 -0.852819 0
M  V30 2153 C 208.503 1.84769 0.623341 0
M  V30 2154 O 207.773 1.3143 1.45269 0
M  V30 2155 H 206.353 0.67849 -0.312507 0
M  V30 2156 H 209.015 1.3556 -1.40033 0
M  V30 2157 H 208.111 2.87265 -1.22005 0
M  V30 2158 N 208.412 0.89855 1.29475 0
M  V30 2159 C 209.689 0.443416 1.90508 0
M  V30 2160 C 210.069 -1.07685 1.81569 0
M  V30 2161 O 209.417 -1.9182 1.24166 0
M  V30 2162 C 209.627 0.956708 3.35631 0
M  V30 2163 C 210.975 0.999728 4.12663 0
M  V30 2164 O 211.999 0.904299 3.4453 0
M  V30 2165 O 210.858 1.14289 5.34416 0
M  V30 2166 H 207.952 0.138025 0.815401 0
M  V30 2167 H 210.498 0.98834 1.37949 0
M  V30 2168 H 209.27 2.00067 3.36287 0
M  V30 2169 H 208.893 0.391728 3.95666 0
M  V30 2170 N 209.89 -1.43072 0.660911 0
M  V30 2171 C 211.306 -1.56169 0.329173 0
M  V30 2172 C 211.506 -1.64317 -1.16629 0
M  V30 2173 O 210.562 -1.60245 -1.95135 0
M  V30 2174 C 211.875 -2.81873 1.04729 0
M  V30 2175 C 213.423 -2.95627 1.02828 0
M  V30 2176 C 213.898 -4.24174 1.72744 0
M  V30 2177 N 215.389 -4.31055 1.69545 0
M  V30 2178 C 216.124 -5.29304 2.20511 0
M  V30 2179 N 215.62 -6.33786 2.79799 0
M  V30 2180 N 217.413 -5.21008 2.10966 0
M  V30 2181 H 209.564 -1.36027 1.63127 0
M  V30 2182 H 211.827 -0.653823 0.686454 0
M  V30 2183 H 211.533 -2.81942 2.10242 0
M  V30 2184 H 211.407 -3.72338 0.603702 0
M  V30 2185 H 213.794 -2.95094 -0.0184742 0
M  V30 2186 H 213.875 -2.06431 1.51063 0
M  V30 2187 H 213.519 -4.25467 2.7738 0
M  V30 2188 H 213.449 -5.1228 1.2197 0
M  V30 2189 H 215.94 -3.56174 1.26288 0
M  V30 2190 H 216.253 -7.05086 3.16344 0
M  V30 2191 H 214.598 -6.34387 2.83863 0
M  V30 2192 H 217.789 -4.38301 1.64347 0
M  V30 2193 H 217.962 -5.97416 2.50993 0
M  V30 2194 N 211.368 -0.403325 -1.52352 0
M  V30 2195 C 212.331 0.413051 -2.25447 0
M  V30 2196 C 213.331 0.978513 -1.276 0
M  V30 2197 O 214.521 0.858305 -1.51587 0
M  V30 2198 C 211.653 1.58087 -3.02029 0
M  V30 2199 H 212.846 -0.227094 -2.99039 0
M  V30 2200 H 210.399 -0.155722 -1.55522 0
M  V30 2201 H 211.134 2.25804 -2.32772 0
M  V30 2202 H 210.919 1.18195 -3.73861 0
M  V30 2203 H 212.409 2.1585 -3.57489 0
M  V30 2204 N 212.846 1.57033 -0.133567 0
M  V30 2205 C 214.071 2.00475 0.531477 0
M  V30 2206 C 214.496 1.01291 1.58499 0
M  V30 2207 O 213.854 -0.0133279 1.81295 0
M  V30 2208 C 213.902 3.42729 1.12113 0
M  V30 2209 O 213.006 3.46498 2.23636 0
M  V30 2210 H 212.347 0.650876 0.131362 0
M  V30 2211 H 214.877 2.03344 -0.22634 0
M  V30 2212 H 214.887 3.81246 1.4531 0
M  V30 2213 H 213.562 4.14428 0.349557 0
M  V30 2214 H 212.139 3.19811 1.91769 0
M  V30 2215 N 214.325 -0.140222 1.56975 0
M  V30 2216 C 215.573 -0.850005 1.83356 0
M  V30 2217 C 215.894 -1.81399 0.71551 0
M  V30 2218 O 215.164 -1.94136 -0.262294 0
M  V30 2219 H 213.744 -0.316886 0.676456 0
M  V30 2220 H 216.406 -0.132608 1.94448 0
M  V30 2221 H 215.502 -1.40814 2.78528 0
M  V30 2222 N 215.803 -1.52179 -0.40978 0
M  V30 2223 C 217.033 -1.69807 -1.17682 0
M  V30 2224 C 217.441 -0.406908 -1.84773 0
M  V30 2225 O 216.784 0.626863 -1.72673 0
M  V30 2226 C 216.846 -2.77712 -2.2829 0
M  V30 2227 C 216.51 -4.19481 -1.81341 0
M  V30 2228 C 217.507 -5.03345 -1.30154 0
M  V30 2229 C 215.192 -4.65713 -1.88194 0
M  V30 2230 C 217.186 -6.31511 -0.864416 0
M  V30 2231 C 214.873 -5.93869 -1.44093 0
M  V30 2232 C 215.871 -6.76597 -0.933023 0
M  V30 2233 O 215.559 -8.02354 -0.49838 0
M  V30 2234 H 215.291 -0.572372 -0.359675 0
M  V30 2235 H 217.845 -1.99511 -0.488311 0
M  V30 2236 H 216.075 -2.43383 -3.00502 0
M  V30 2237 H 217.764 -2.83946 -2.90051 0
M  V30 2238 H 218.53 -4.68819 -1.24232 0
M  V30 2239 H 214.409 -4.01424 -2.26671 0
M  V30 2240 H 217.953 -6.96033 -0.467286 0
M  V30 2241 H 213.85 -6.27903 -1.49694 0
M  V30 2242 H 214.618 -8.16135 -0.621747 0
M  V30 2243 N 217.281 0.66697 -1.42791 0
M  V30 2244 C 218.231 1.77313 -1.43332 0
M  V30 2245 C 219.215 1.5801 -0.303586 0
M  V30 2246 O 220.407 1.68356 -0.546385 0
M  V30 2247 C 217.536 3.15822 -1.34578 0
M  V30 2248 C 216.622 3.40721 -2.52528 0
M  V30 2249 N 217.013 3.36162 -3.77927 0
M  V30 2250 C 215.311 3.71387 -2.46956 0
M  V30 2251 C 216.012 3.60762 -4.56318 0
M  V30 2252 N 214.988 3.81908 -3.86843 0
M  V30 2253 H 218.79 1.72193 -2.38174 0
M  V30 2254 H 216.304 0.868114 -1.3725 0
M  V30 2255 H 218.301 3.951 -1.33048 0
M  V30 2256 H 216.961 3.22133 -0.407453 0
M  V30 2257 H 217.972 3.15885 -4.10411 0
M  V30 2258 H 214.649 3.84897 -1.61743 0
M  V30 2259 H 216.039 3.63132 -5.65318 0
M  V30 2260 N 218.759 1.29093 0.90403 0
M  V30 2261 C 219.989 1.19516 1.68522 0
M  V30 2262 C 220.397 -0.24738 1.87576 0
M  V30 2263 O 219.74 -1.17798 1.40959 0
M  V30 2264 C 219.802 1.83249 3.0929 0
M  V30 2265 C 219.466 3.32531 3.13484 0
M  V30 2266 C 220.463 4.28821 2.93953 0
M  V30 2267 C 218.148 3.73656 3.35688 0
M  V30 2268 C 220.142 5.64212 2.96553 0
M  V30 2269 C 217.829 5.0917 3.37919 0
M  V30 2270 C 218.827 6.04258 3.18373 0
M  V30 2271 O 218.515 7.37298 3.20385 0
M  V30 2272 H 218.247 0.415467 0.533257 0
M  V30 2273 H 220.801 1.70912 1.13922 0
M  V30 2274 H 219.031 1.26358 3.65473 0
M  V30 2275 H 220.72 1.68054 3.69476 0
M  V30 2276 H 221.486 3.98382 2.76616 0
M  V30 2277 H 217.365 3.00101 3.49943 0
M  V30 2278 H 220.909 6.38407 2.81216 0
M  V30 2279 H 216.806 5.39256 3.54787 0
M  V30 2280 H 217.574 7.46048 3.36681 0
M  V30 2281 N 220.237 -1.11381 1.11499 0
M  V30 2282 C 221.185 -2.19522 0.768956 0
M  V30 2283 C 222.179 -1.67693 -0.239857 0
M  V30 2284 O 223.385 -1.79727 -0.0990755 0
M  V30 2285 H 219.76 -0.715711 0.230786 0
M  V30 2286 H 221.731 -2.45954 1.68964 0
M  V30 2287 C 220.48 -3.46945 0.229073 0
M  V30 2288 H 219.803 -3.8718 0.996596 0
M  V30 2289 H 221.243 -4.23993 0.0251441 0
M  V30 2290 C 219.702 -3.2042 -1.04079 0
M  V30 2291 O 220.232 -3.41178 -2.12038 0
M  V30 2292 N 218.438 -2.74151 -0.963823 0
M  V30 2293 H 217.985 -2.57459 -0.0851722 0
M  V30 2294 H 217.943 -2.56781 -1.81414 0
M  V30 2295 N 221.715 -0.905404 -1.28997 0
M  V30 2296 C 222.678 -0.392253 -2.25819 0
M  V30 2297 C 223.678 0.476753 -1.5357 0
M  V30 2298 O 224.868 0.280994 -1.71919 0
M  V30 2299 C 222 0.438588 -3.38067 0
M  V30 2300 H 223.193 -1.24743 -2.72725 0
M  V30 2301 H 220.746 -0.684051 -1.40536 0
M  V30 2302 H 221.481 1.31352 -2.96508 0
M  V30 2303 H 221.266 -0.184167 -3.91667 0
M  V30 2304 H 222.756 0.78873 -4.10084 0
M  V30 2305 N 223.193 1.4272 -0.668489 0
M  V30 2306 C 224.123 2.335 -0.000100175 0
M  V30 2307 C 225.104 1.50328 0.795964 0
M  V30 2308 O 226.289 1.78949 0.754385 0
M  V30 2309 C 223.419 3.33874 0.956302 0
M  V30 2310 C 222.373 4.27152 0.269278 0
M  V30 2311 C 221.699 5.17684 1.33818 0
M  V30 2312 C 222.999 5.15373 -0.847805 0
M  V30 2313 H 224.693 2.89639 -0.758244 0
M  V30 2314 H 222.239 1.39269 -0.366079 0
M  V30 2315 H 224.192 3.9629 1.43292 0
M  V30 2316 H 222.916 2.76025 1.74579 0
M  V30 2317 H 221.575 3.66123 -0.187042 0
M  V30 2318 H 221.223 4.56165 2.1195 0
M  V30 2319 H 220.923 5.80918 0.883659 0
M  V30 2320 H 222.447 5.82974 1.81586 0
M  V30 2321 H 223.861 5.7151 -0.452681 0
M  V30 2322 H 222.258 5.87407 -1.22773 0
M  V30 2323 H 223.328 4.5415 -1.69929 0
M  V30 2324 N 224.671 0.411399 1.52136 0
M  V30 2325 C 225.899 -0.163076 2.06256 0
M  V30 2326 C 226.314 -1.3867 1.28125 0
M  V30 2327 O 225.671 -1.79423 0.333721 0
M  V30 2328 C 225.722 -0.511252 3.57867 0
M  V30 2329 O 225.443 0.66378 4.33042 0
M  V30 2330 C 226.944 -1.13921 4.28412 0
M  V30 2331 H 224.164 -0.0193897 0.67072 0
M  V30 2332 H 226.708 0.583007 1.96013 0
M  V30 2333 H 224.863 -1.20723 3.6811 0
M  V30 2334 H 225.277 0.372601 5.23175 0
M  V30 2335 H 226.751 -1.33302 5.35663 0
M  V30 2336 H 227.228 -2.11296 3.85033 0
M  V30 2337 H 227.834 -0.483373 4.22544 0
M  V30 2338 N 226.149 -1.5696 0.141893 0
M  V30 2339 C 227.389 -1.9785 -0.513304 0
M  V30 2340 C 227.753 -1.02467 -1.62371 0
M  V30 2341 O 228.954 -1.32382 -2.33941 0
M  V30 2342 C 227.225 -3.42797 -1.01118 0
M  V30 2343 S 228.784 -4.05709 -1.67169 0
M  V30 2344 H 225.602 -0.691318 -0.166135 0
M  V30 2345 H 228.204 -1.94114 0.232398 0
M  V30 2346 H 226.908 -4.0995 -0.192179 0
M  V30 2347 H 226.439 -3.50235 -1.79162 0
M  V30 2348 H 228.454 -3.98342 -2.95868 0
M  V30 2349 N 227.627 0.131896 -1.57047 0
M  V30 2350 C 228.537 1.1815 -2.02676 0
M  V30 2351 C 229.553 1.46113 -0.944824 0
M  V30 2352 O 230.729 1.57485 -1.25541 0
M  V30 2353 C 227.794 2.49139 -2.41103 0
M  V30 2354 C 226.855 2.28688 -3.63318 0
M  V30 2355 C 226.088 3.53431 -3.99903 0
M  V30 2356 O 226.311 4.60223 -3.36973 0
M  V30 2357 O 225.245 3.45198 -4.93074 0
M  V30 2358 H 229.071 0.824069 -2.92306 0
M  V30 2359 H 226.656 0.341745 -1.45439 0
M  V30 2360 H 228.538 3.26338 -2.66611 0
M  V30 2361 H 227.213 2.84382 -1.54624 0
M  V30 2362 H 226.12 1.4939 -3.42977 0
M  V30 2363 H 227.453 1.98355 -4.50462 0
M  V30 2364 N 229.106 1.52395 0.401703 0
M  V30 2365 C 230.354 1.66488 1.14569 0
M  V30 2366 C 230.675 0.400897 1.90835 0
M  V30 2367 O 229.945 -0.584415 1.8698 0
M  V30 2368 H 228.525 0.613672 0.425929 0
M  V30 2369 H 231.187 1.89464 0.457093 0
M  V30 2370 H 230.283 2.50942 1.85566 0
M  V30 2371 N 230.584 -0.659388 1.43143 0
M  V30 2372 C 231.824 -1.43121 1.45931 0
M  V30 2373 C 232.188 -1.91838 0.0789298 0
M  V30 2374 O 233.389 -2.68794 -0.018491 0
M  V30 2375 C 231.66 -2.58534 2.46769 0
M  V30 2376 S 233.219 -3.47154 2.68384 0
M  V30 2377 H 230.037 -0.488624 0.516496 0
M  V30 2378 H 232.639 -0.766128 1.79863 0
M  V30 2379 H 231.343 -2.21007 3.45809 0
M  V30 2380 H 230.874 -3.29898 2.14315 0
M  V30 2381 H 232.889 -4.55051 1.97845 0
M  V30 2382 N 232.062 -1.29571 -0.897171 0
M  V30 2383 C 233.009 -1.14916 -2.00158 0
M  V30 2384 C 233.979 -0.0418149 -1.66047 0
M  V30 2385 O 235.164 -0.209793 -1.89643 0
M  V30 2386 C 232.304 -0.834307 -3.34863 0
M  V30 2387 C 231.417 -2.02234 -3.8174 0
M  V30 2388 C 230.552 -1.64664 -5.05034 0
M  V30 2389 C 229.591 -2.80033 -5.44286 0
M  V30 2390 N 228.728 -2.42843 -6.58765 0
M  V30 2391 H 233.568 -2.09403 -2.12025 0
M  V30 2392 H 231.105 -1.042 -1.0383 0
M  V30 2393 H 233.063 -0.632436 -4.12379 0
M  V30 2394 H 231.693 0.0736656 -3.22716 0
M  V30 2395 H 230.745 -2.33583 -3.00238 0
M  V30 2396 H 232.057 -2.88673 -4.06779 0
M  V30 2397 H 231.211 -1.4078 -5.9014 0
M  V30 2398 H 229.95 -0.753766 -4.8184 0
M  V30 2399 H 228.955 -3.04596 -4.57713 0
M  V30 2400 H 230.18 -3.69989 -5.6946 0
M  V30 2401 H 228.126 -1.56046 -6.3717 0
M  V30 2402 H 228.043 -3.22815 -6.83613 0
M  V30 2403 H 229.311 -2.22285 -7.47134 0
M  V30 2404 N 233.54 1.10788 -1.12088 0
M  V30 2405 C 234.788 1.8231 -0.872205 0
M  V30 2406 C 235.109 1.85419 0.603709 0
M  V30 2407 O 234.379 1.32963 1.43867 0
M  V30 2408 H 232.959 0.675137 -0.319686 0
M  V30 2409 H 235.621 1.34068 -1.41463 0
M  V30 2410 H 234.717 2.85955 -1.25045 0
M  V30 2411 N 235.018 0.912232 1.28515 0
M  V30 2412 C 236.265 0.544599 1.95039 0
M  V30 2413 C 236.593 -0.911435 1.71823 0
M  V30 2414 O 235.848 -1.66317 1.03137 0
M  V30 2415 C 236.147 0.798392 3.48368 0
M  V30 2416 C 235.813 2.23374 3.91682 0
M  V30 2417 C 234.475 2.62617 4.03219 0
M  V30 2418 C 236.827 3.16786 4.13879 0
M  V30 2419 C 234.155 3.94429 4.3433 0
M  V30 2420 C 236.507 4.48161 4.46469 0
M  V30 2421 C 235.171 4.8726 4.56217 0
M  V30 2422 H 234.441 0.199283 0.7137 0
M  V30 2423 H 237.088 1.15327 1.52879 0
M  V30 2424 H 235.393 0.106908 3.91654 0
M  V30 2425 H 237.09 0.493141 3.97956 0
M  V30 2426 H 233.68 1.91922 3.83228 0
M  V30 2427 H 237.864 2.87677 4.0442 0
M  V30 2428 H 233.12 4.24426 4.40082 0
M  V30 2429 H 237.294 5.20559 4.62592 0
M  V30 2430 H 234.921 5.89431 4.80078 0
M  V30 2431 N 236.496 -1.42363 0.676048 0
M  V30 2432 C 237.743 -2.01522 0.19883 0
M  V30 2433 C 238.071 -1.53456 -1.19505 0
M  V30 2434 O 237.326 -0.727967 -1.81657 0
M  V30 2435 C 237.625 -3.56929 0.183431 0
M  V30 2436 C 237.291 -4.24431 1.52215 0
M  V30 2437 C 235.953 -4.42585 1.8887 0
M  V30 2438 C 238.305 -4.62459 2.40377 0
M  V30 2439 C 235.633 -4.96039 3.13309 0
M  V30 2440 C 237.985 -5.17294 3.64129 0
M  V30 2441 C 236.649 -5.33661 4.00951 0
M  V30 2442 H 235.919 -0.737419 0.0727571 0
M  V30 2443 H 238.566 -1.70531 0.871281 0
M  V30 2444 H 236.871 -3.87594 -0.572532 0
M  V30 2445 H 238.568 -4.00486 -0.203035 0
M  V30 2446 H 235.158 -4.10661 1.22701 0
M  V30 2447 H 239.342 -4.48105 2.13343 0
M  V30 2448 H 234.598 -5.06896 3.41857 0
M  V30 2449 H 238.772 -5.45704 4.32644 0
M  V30 2450 H 236.399 -5.74845 4.9745 0
M  V30 2451 N 237.974 -0.419461 -1.51915 0
M  V30 2452 C 239.39 -0.0708431 -1.59443 0
M  V30 2453 C 239.59 1.41796 -1.43164 0
M  V30 2454 O 238.646 2.18596 -1.26381 0
M  V30 2455 C 239.959 -0.574991 -2.95151 0
M  V30 2456 C 241.507 -0.533867 -3.08413 0
M  V30 2457 C 241.982 -1.01469 -4.46618 0
M  V30 2458 N 243.473 -0.971939 -4.52888 0
M  V30 2459 C 244.208 -1.31505 -5.58116 0
M  V30 2460 N 243.704 -1.73014 -6.70849 0
M  V30 2461 N 245.497 -1.23436 -5.48379 0
M  V30 2462 H 237.648 -1.38836 -1.60743 0
M  V30 2463 H 239.911 -0.570998 -0.756747 0
M  V30 2464 H 239.617 -1.61597 -3.12377 0
M  V30 2465 H 239.491 0.00979777 -3.77199 0
M  V30 2466 H 241.878 0.498086 -2.90866 0
M  V30 2467 H 241.959 -1.15484 -2.28248 0
M  V30 2468 H 241.603 -2.04502 -4.6491 0
M  V30 2469 H 241.533 -0.370433 -5.25295 0
M  V30 2470 H 244.024 -0.666893 -3.71969 0
M  V30 2471 H 244.337 -1.97479 -7.47143 0
M  V30 2472 H 242.682 -1.76926 -6.72103 0
M  V30 2473 H 245.873 -0.908869 -4.59192 0
M  V30 2474 H 246.046 -1.50506 -6.30279 0
M  V30 2475 N 239.452 1.56882 -0.150215 0
M  V30 2476 C 240.868 1.58263 0.20617 0
M  V30 2477 C 241.068 1.16464 1.64434 0
M  V30 2478 O 240.124 0.866422 2.3717 0
M  V30 2479 C 241.437 3.00649 -0.0555025 0
M  V30 2480 C 242.985 3.12999 0.00795388 0
M  V30 2481 C 243.46 4.5744 -0.226429 0
M  V30 2482 N 244.951 4.62875 -0.173469 0
M  V30 2483 C 245.686 5.72454 -0.329288 0
M  V30 2484 N 245.182 6.90669 -0.543005 0
M  V30 2485 N 246.975 5.61467 -0.266666 0
M  V30 2486 H 239.126 1.82345 -1.08922 0
M  V30 2487 H 241.389 0.844149 -0.431413 0
M  V30 2488 H 241.095 3.3563 -1.05096 0
M  V30 2489 H 240.969 3.71337 0.66246 0
M  V30 2490 H 243.356 2.77857 0.993966 0
M  V30 2491 H 243.437 2.4479 -0.742388 0
M  V30 2492 H 243.081 4.93287 -1.20956 0
M  V30 2493 H 243.011 5.2378 0.544274 0
M  V30 2494 H 245.502 3.77898 -0.0130709 0
M  V30 2495 H 245.815 7.70045 -0.651922 0
M  V30 2496 H 244.16 6.92581 -0.579366 0
M  V30 2497 H 247.351 4.67992 -0.100441 0
M  V30 2498 H 247.524 6.46816 -0.391535 0
M  V30 2499 N 240.93 -0.123565 1.57115 0
M  V30 2500 C 242.155 -0.850398 1.89164 0
M  V30 2501 C 242.58 -1.7286 0.741688 0
M  V30 2502 O 241.938 -1.78665 -0.307958 0
M  V30 2503 C 241.986 -1.66353 3.19936 0
M  V30 2504 O 241.09 -2.77004 3.0552 0
M  V30 2505 H 240.431 -0.235454 0.620852 0
M  V30 2506 H 242.961 -0.107335 2.04318 0
M  V30 2507 H 242.971 -2.05372 3.52543 0
M  V30 2508 H 241.646 -1.01881 4.03228 0
M  V30 2509 H 240.223 -2.41221 2.84371 0
M  V30 2510 N 242.408 -1.52605 -0.393616 0
M  V30 2511 C 243.657 -1.66649 -1.13627 0
M  V30 2512 C 243.97 -0.410364 -1.91247 0
M  V30 2513 O 245.176 -0.430854 -2.68059 0
M  V30 2514 C 243.632 -2.9449 -2.06891 0
M  V30 2515 C 243.24 -4.27266 -1.34714 0
M  V30 2516 C 244.984 -3.17899 -2.81319 0
M  V30 2517 C 242.891 -5.46217 -2.26717 0
M  V30 2518 H 241.821 -0.62084 -0.427871 0
M  V30 2519 H 244.472 -1.791 -0.399428 0
M  V30 2520 H 242.854 -2.75774 -2.84191 0
M  V30 2521 H 244.028 -4.56518 -0.626714 0
M  V30 2522 H 242.343 -4.10081 -0.722643 0
M  V30 2523 H 244.94 -4.03949 -3.50328 0
M  V30 2524 H 245.283 -2.32777 -3.45139 0
M  V30 2525 H 245.816 -3.37159 -2.11113 0
M  V30 2526 H 242.555 -6.33733 -1.67521 0
M  V30 2527 H 242.075 -5.21283 -2.96689 0
M  V30 2528 H 243.754 -5.7991 -2.86903 0
M  V30 2529 N 243.887 0.651787 -1.4349 0
M  V30 2530 C 245.115 1.43937 -1.48626 0
M  V30 2531 C 245.53 1.8851 -0.104587 0
M  V30 2532 O 244.887 1.5958 0.885464 0
M  V30 2533 C 244.938 2.6734 -2.43334 0
M  V30 2534 O 244.659 2.24631 -3.76128 0
M  V30 2535 C 246.16 3.60683 -2.57726 0
M  V30 2536 H 243.38 0.44213 -0.504739 0
M  V30 2537 H 245.924 0.798944 -1.88248 0
M  V30 2538 H 244.079 3.2752 -2.06904 0
M  V30 2539 H 244.493 3.04485 -4.2707 0
M  V30 2540 H 245.967 4.43933 -3.28067 0
M  V30 2541 H 246.444 4.08126 -1.62265 0
M  V30 2542 H 247.05 3.06384 -2.94973 0
M  V30 2543 N 245.365 1.30045 0.890287 0
M  V30 2544 C 246.312 1.15976 1.99545 0
M  V30 2545 C 247.282 0.0506202 1.66023 0
M  V30 2546 O 248.467 0.219847 1.89529 0
M  V30 2547 C 245.607 0.852054 3.34416 0
M  V30 2548 C 244.72 2.04255 3.80662 0
M  V30 2549 C 243.855 1.6734 5.04154 0
M  V30 2550 C 242.894 2.82916 5.42794 0
M  V30 2551 N 242.031 2.46333 6.57468 0
M  V30 2552 H 246.871 2.10524 2.10911 0
M  V30 2553 H 244.408 1.04749 1.03276 0
M  V30 2554 H 246.366 0.654296 4.12037 0
M  V30 2555 H 244.996 -0.0565502 3.2275 0
M  V30 2556 H 244.048 2.35172 2.98995 0
M  V30 2557 H 245.36 2.90826 4.05242 0
M  V30 2558 H 244.514 1.43908 5.89386 0
M  V30 2559 H 243.253 0.779308 4.81433 0
M  V30 2560 H 242.258 3.0702 4.56091 0
M  V30 2561 H 243.483 3.73004 5.6749 0
M  V30 2562 H 241.429 1.59423 6.36334 0
M  V30 2563 H 241.346 3.26436 6.81891 0
M  V30 2564 H 242.614 2.26244 7.45945 0
M  V30 2565 N 246.843 -1.10192 1.12674 0
M  V30 2566 C 247.791 -2.18694 0.792196 0
M  V30 2567 C 248.785 -1.67938 -0.222058 0
M  V30 2568 O 249.991 -1.79822 -0.0800074 0
M  V30 2569 H 246.366 -0.713223 0.238364 0
M  V30 2570 H 248.337 -2.44149 1.71564 0
M  V30 2571 C 247.086 -3.46682 0.265859 0
M  V30 2572 H 246.409 -3.86101 1.03761 0
M  V30 2573 H 247.849 -4.23942 0.0701128 0
M  V30 2574 C 246.308 -3.21506 -1.00675 0
M  V30 2575 O 246.838 -3.43408 -2.08408 0
M  V30 2576 N 245.044 -2.75158 -0.934692 0
M  V30 2577 H 244.591 -2.57535 -0.0578604 0
M  V30 2578 H 244.549 -2.58691 -1.7868 0
M  V30 2579 N 248.321 -0.919034 -1.28029 0
M  V30 2580 C 249.284 -0.416182 -2.2539 0
M  V30 2581 C 250.284 0.460438 -1.54067 0
M  V30 2582 O 251.474 0.262744 -1.72207 0
M  V30 2583 C 248.606 0.402707 -3.38513 0
M  V30 2584 H 249.799 -1.27629 -2.71387 0
M  V30 2585 H 247.352 -0.698919 -1.39803 0
M  V30 2586 H 248.087 1.282 -2.97885 0
M  V30 2587 H 247.872 -0.225698 -3.9145 0
M  V30 2588 H 249.362 0.745191 -4.10897 0
M  V30 2589 N 249.799 1.42003 -0.683588 0
M  V30 2590 C 251.045 2.01712 -0.209825 0
M  V30 2591 C 251.378 1.53968 1.18353 0
M  V30 2592 O 250.653 0.745661 1.79639 0
M  V30 2593 C 250.936 3.59202 -0.254197 0
M  V30 2594 C 250.789 4.17102 -1.68363 0
M  V30 2595 C 252.108 4.38344 0.392709 0
M  V30 2596 H 249.227 0.732891 -0.0777189 0
M  V30 2597 H 251.869 1.68909 -0.87004 0
M  V30 2598 H 250.019 3.87278 0.307954 0
M  V30 2599 H 251.691 3.99946 -2.29871 0
M  V30 2600 H 249.934 3.72597 -2.22157 0
M  V30 2601 H 250.605 5.26249 -1.6663 0
M  V30 2602 H 253.081 4.16011 -0.0859162 0
M  V30 2603 H 251.957 5.47901 0.331063 0
M  V30 2604 H 252.218 4.16887 1.47164 0
M  V30 2605 N 251.277 0.427512 1.51691 0
M  V30 2606 C 252.507 -0.140986 2.06118 0
M  V30 2607 C 252.915 -1.37854 1.29588 0
M  V30 2608 O 252.258 -1.80411 0.346036 0
M  V30 2609 C 252.32 -0.538276 3.55447 0
M  V30 2610 C 251.984 0.591095 4.53161 0
M  V30 2611 C 252.981 1.46027 4.98971 0
M  V30 2612 C 250.666 0.769028 4.96378 0
M  V30 2613 C 252.66 2.49216 5.8666 0
M  V30 2614 C 250.347 1.80421 5.83859 0
M  V30 2615 C 251.345 2.66417 6.28897 0
M  V30 2616 O 251.033 3.68159 7.14643 0
M  V30 2617 H 250.765 -0.0157455 0.675817 0
M  V30 2618 H 253.319 0.602495 1.96365 0
M  V30 2619 H 251.549 -1.33432 3.6295 0
M  V30 2620 H 253.238 -1.0368 3.92435 0
M  V30 2621 H 254.004 1.33429 4.66285 0
M  V30 2622 H 249.883 0.109273 4.6087 0
M  V30 2623 H 253.427 3.16372 6.21735 0
M  V30 2624 H 249.324 1.93042 6.15959 0
M  V30 2625 H 250.092 3.64622 7.32798 0
M  V30 2626 N 252.755 -1.56801 0.158532 0
M  V30 2627 C 253.702 -2.17337 -0.776729 0
M  V30 2628 C 254.672 -1.1096 -1.23601 0
M  V30 2629 O 255.857 -1.39054 -1.30647 0
M  V30 2630 C 252.997 -2.80822 -2.00582 0
M  V30 2631 C 252.11 -4.01624 -1.59129 0
M  V30 2632 C 251.245 -4.53072 -2.77306 0
M  V30 2633 C 250.284 -5.66314 -2.32282 0
M  V30 2634 N 249.421 -6.12329 -3.43508 0
M  V30 2635 H 254.261 -2.96918 -0.253701 0
M  V30 2636 H 251.798 -1.46661 -0.113504 0
M  V30 2637 H 253.756 -3.15779 -2.72652 0
M  V30 2638 H 252.386 -2.03866 -2.50277 0
M  V30 2639 H 251.438 -3.72571 -0.767806 0
M  V30 2640 H 252.75 -4.83633 -1.2207 0
M  V30 2641 H 251.904 -4.90145 -3.57551 0
M  V30 2642 H 250.643 -3.70095 -3.17617 0
M  V30 2643 H 249.648 -5.28806 -1.5048 0
M  V30 2644 H 250.873 -6.51085 -1.93043 0
M  V30 2645 H 248.819 -5.32284 -3.83418 0
M  V30 2646 H 248.736 -6.89293 -3.105 0
M  V30 2647 H 250.004 -6.5405 -4.24075 0
M  V30 2648 N 254.233 0.115231 -1.57178 0
M  V30 2649 C 255.473 0.828199 -1.8687 0
M  V30 2650 C 255.837 1.76873 -0.747002 0
M  V30 2651 O 257.038 2.52354 -0.925785 0
M  V30 2652 C 255.309 1.55515 -3.21792 0
M  V30 2653 S 256.868 2.30917 -3.73125 0
M  V30 2654 H 253.686 0.27634 -0.655101 0
M  V30 2655 H 256.288 0.0863469 -1.95309 0
M  V30 2656 H 254.992 0.856248 -4.01368 0
M  V30 2657 H 254.523 2.3373 -3.16439 0
M  V30 2658 H 256.538 3.56705 -3.44929 0
M  V30 2659 N 255.711 1.52812 0.385517 0
M  V30 2660 C 256.658 1.77838 1.47113 0
M  V30 2661 C 257.628 0.621757 1.54024 0
M  V30 2662 O 258.813 0.861846 1.70226 0
M  V30 2663 C 255.953 1.95618 2.84302 0
M  V30 2664 C 255.066 3.23316 2.86515 0
M  V30 2665 C 254.201 3.31394 4.15152 0
M  V30 2666 C 253.24 4.53201 4.1143 0
M  V30 2667 N 252.377 4.58542 5.3168 0
M  V30 2668 H 257.217 2.70482 1.25073 0
M  V30 2669 H 254.754 1.34006 0.606692 0
M  V30 2670 H 256.712 2.03912 3.63972 0
M  V30 2671 H 255.342 1.06331 3.04784 0
M  V30 2672 H 254.394 3.24076 1.99195 0
M  V30 2673 H 255.706 4.13045 2.79634 0
M  V30 2674 H 254.86 3.3889 5.03228 0
M  V30 2675 H 253.599 2.39645 4.24761 0
M  V30 2676 H 252.604 4.45827 3.21742 0
M  V30 2677 H 253.829 5.46271 4.03442 0
M  V30 2678 H 251.775 3.69686 5.41912 0
M  V30 2679 H 251.692 5.42148 5.26889 0
M  V30 2680 H 252.96 4.70296 6.21644 0
M  V30 2681 N 257.189 -0.644168 1.43834 0
M  V30 2682 C 258.137 -1.77793 1.49974 0
M  V30 2683 C 259.131 -1.65253 0.372536 0
M  V30 2684 O 260.337 -1.7149 0.546924 0
M  V30 2685 H 256.712 -0.58675 0.47035 0
M  V30 2686 H 258.683 -1.69736 2.45423 0
M  V30 2687 C 257.432 -3.16087 1.4486 0
M  V30 2688 H 256.755 -3.26378 2.30905 0
M  V30 2689 H 258.195 -3.95349 1.53217 0
M  V30 2690 C 256.654 -3.36484 0.167463 0
M  V30 2691 O 257.184 -3.94298 -0.767609 0
M  V30 2692 N 255.39 -2.90504 0.0747556 0
M  V30 2693 H 254.937 -2.4364 0.836507 0
M  V30 2694 H 254.895 -3.04527 -0.781714 0
M  V30 2695 N 258.668 -1.30515 -0.883378 0
M  V30 2696 C 259.916 -1.19194 -1.63209 0
M  V30 2697 C 260.237 0.253205 -1.93349 0
M  V30 2698 O 259.507 1.17025 -1.57105 0
M  V30 2699 H 258.087 -0.438148 -0.605009 0
M  V30 2700 H 260.749 -1.63663 -1.05832 0
M  V30 2701 H 259.845 -1.75396 -2.58153 0
M  V30 2702 N 260.146 1.09593 -1.13257 0
M  V30 2703 C 261.394 1.81375 -0.891492 0
M  V30 2704 C 261.715 1.86049 0.584009 0
M  V30 2705 O 260.985 1.34481 1.42449 0
M  V30 2706 H 259.565 0.671708 -0.326828 0
M  V30 2707 H 262.227 1.3256 -1.42877 0
M  V30 2708 H 261.323 2.84612 -1.28071 0
M  V30 2709 N 261.624 0.925811 1.2754 0
M  V30 2710 C 262.572 0.413897 2.28888 0
M  V30 2711 C 263.566 -0.500779 1.61829 0
M  V30 2712 O 264.772 -0.38069 1.75928 0
M  V30 2713 H 261.147 0.115274 0.743112 0
M  V30 2714 H 263.118 1.28151 2.69481 0
M  V30 2715 C 261.867 -0.319792 3.46226 0
M  V30 2716 H 261.19 0.374846 3.98039 0
M  V30 2717 H 262.63 -0.642435 4.19105 0
M  V30 2718 C 261.089 -1.53209 3.00048 0
M  V30 2719 O 261.619 -2.6309 3.03557 0
M  V30 2720 N 259.825 -1.38326 2.55566 0
M  V30 2721 H 259.372 -0.489292 2.5291 0
M  V30 2722 H 259.33 -2.19564 2.25031 0
M  V30 2723 N 263.102 -1.41638 0.69111 0
M  V30 2724 C 264.342 -2.03166 0.224291 0
M  V30 2725 C 264.706 -1.53537 -1.15284 0
M  V30 2726 O 265.907 -2.0696 -1.71525 0
M  V30 2727 C 264.178 -3.56342 0.274758 0
M  V30 2728 S 265.737 -4.3864 -0.118669 0
M  V30 2729 H 262.555 -0.705188 0.0907263 0
M  V30 2730 H 265.157 -1.7314 0.907895 0
M  V30 2731 H 263.861 -3.89958 1.2791 0
M  V30 2732 H 263.392 -3.91063 -0.428142 0
M  V30 2733 H 265.407 -4.77549 -1.34764 0
M  V30 2734 N 264.58 -0.43555 -1.51462 0
M  V30 2735 C 265.826 0.131709 -2.02372 0
M  V30 2736 C 266.159 1.42516 -1.3192 0
M  V30 2737 O 265.434 1.89606 -0.433573 0
M  V30 2738 C 265.717 0.352301 -3.58373 0
M  V30 2739 C 265.57 -0.959676 -4.39443 0
M  V30 2740 C 266.889 1.12286 -4.25535 0
M  V30 2741 H 264.008 0.0463936 -0.735538 0
M  V30 2742 H 266.65 -0.574197 -1.81116 0
M  V30 2743 H 264.8 0.9536 -3.76615 0
M  V30 2744 H 266.472 -1.59482 -4.32855 0
M  V30 2745 H 264.715 -1.56468 -4.04599 0
M  V30 2746 H 265.386 -0.759394 -5.46752 0
M  V30 2747 H 267.862 0.613545 -4.11552 0
M  V30 2748 H 266.738 1.24598 -5.34571 0
M  V30 2749 H 266.999 2.15048 -3.86273 0
M  V30 2750 N 266.058 1.56714 -0.166846 0
M  V30 2751 C 266.991 2.13577 0.80375 0
M  V30 2752 C 267.969 1.06464 1.22899 0
M  V30 2753 O 269.153 1.34413 1.32157 0
M  V30 2754 C 266.28 2.67168 2.0818 0
M  V30 2755 C 265.326 3.86612 1.80093 0
M  V30 2756 S 266.159 5.26565 0.97416 0
M  V30 2757 C 267.315 5.83558 2.26297 0
M  V30 2758 H 267.548 2.9557 0.320267 0
M  V30 2759 H 265.081 1.54326 0.0477555 0
M  V30 2760 H 267.039 2.98692 2.8159 0
M  V30 2761 H 265.7 1.85269 2.53642 0
M  V30 2762 H 264.893 4.22422 2.7491 0
M  V30 2763 H 264.495 3.55951 1.14781 0
M  V30 2764 H 266.787 5.962 3.21795 0
M  V30 2765 H 267.73 6.80731 1.94962 0
M  V30 2766 H 268.138 5.11944 2.37853 0
M  V30 2767 N 267.536 -0.106894 1.57237 0
M  V30 2768 C 268.813 -0.843526 1.76477 0
M  V30 2769 C 269.193 -1.97499 0.745464 0
M  V30 2770 O 268.541 -2.27357 -0.228306 0
M  V30 2771 C 268.751 -1.34903 3.21873 0
M  V30 2772 C 270.099 -1.79654 3.8472 0
M  V30 2773 O 271.123 -1.44554 3.2555 0
M  V30 2774 O 269.982 -2.44515 4.88748 0
M  V30 2775 H 267.076 -0.401468 0.723016 0
M  V30 2776 H 269.622 -0.0896927 1.69463 0
M  V30 2777 H 268.394 -0.53781 3.87586 0
M  V30 2778 H 268.017 -2.16522 3.33473 0
M  V30 2779 N 269.014 -1.53014 -0.377408 0
M  V30 2780 C 269.947 -1.73382 -1.48371 0
M  V30 2781 C 270.925 -0.581879 -1.51832 0
M  V30 2782 O 272.109 -0.81307 -1.70063 0
M  V30 2783 C 269.236 -1.80192 -2.8679 0
M  V30 2784 C 268.282 -3.02056 -3.01105 0
M  V30 2785 S 269.115 -4.61811 -2.71093 0
M  V30 2786 C 270.271 -4.71453 -4.11683 0
M  V30 2787 H 270.504 -2.66946 -1.30872 0
M  V30 2788 H 268.037 -1.43453 -0.571012 0
M  V30 2789 H 269.995 -1.84802 -3.6655 0
M  V30 2790 H 268.656 -0.877008 -3.01608 0
M  V30 2791 H 267.849 -3.03396 -4.02451 0
M  V30 2792 H 267.451 -2.95498 -2.29253 0
M  V30 2793 H 269.743 -4.50781 -5.0577 0
M  V30 2794 H 270.686 -5.73487 -4.15353 0
M  V30 2795 H 271.094 -4.00189 -3.98132 0
M  V30 2796 N 270.492 0.636531 -1.44174 0
M  V30 2797 C 271.722 1.42146 -1.49927 0
M  V30 2798 C 272.13 1.88812 -0.121063 0
M  V30 2799 O 271.473 1.61126 0.882267 0
M  V30 2800 C 271.535 2.67883 -2.39748 0
M  V30 2801 C 271.199 2.43048 -3.8701 0
M  V30 2802 C 272.196 2.05216 -4.77684 0
M  V30 2803 C 269.881 2.56856 -4.3166 0
M  V30 2804 C 271.875 1.81512 -6.11009 0
M  V30 2805 C 269.562 2.32766 -5.65034 0
M  V30 2806 C 270.56 1.95152 -6.54526 0
M  V30 2807 O 270.248 1.71326 -7.85431 0
M  V30 2808 H 269.98 0.442567 -0.51099 0
M  V30 2809 H 272.534 0.786158 -1.8976 0
M  V30 2810 H 270.764 3.34032 -1.94832 0
M  V30 2811 H 272.453 3.29874 -2.36513 0
M  V30 2812 H 273.219 1.94111 -4.44462 0
M  V30 2813 H 269.098 2.85104 -3.62266 0
M  V30 2814 H 272.642 1.52077 -6.80822 0
M  V30 2815 H 268.539 2.43479 -5.97819 0
M  V30 2816 H 269.307 1.85616 -7.97176 0
M  V30 2817 N 271.97 1.30982 0.876444 0
M  V30 2818 C 272.903 1.12414 1.98591 0
M  V30 2819 C 273.881 0.0294078 1.62573 0
M  V30 2820 O 275.065 0.184598 1.87594 0
M  V30 2821 C 272.192 0.716276 3.3104 0
M  V30 2822 C 271.238 1.81311 3.86042 0
M  V30 2823 S 272.071 3.41727 4.1229 0
M  V30 2824 C 273.227 3.02863 5.47745 0
M  V30 2825 H 273.46 2.06338 2.14037 0
M  V30 2826 H 270.993 1.15393 1.02586 0
M  V30 2827 H 272.951 0.487697 4.07593 0
M  V30 2828 H 271.612 -0.203749 3.13438 0
M  V30 2829 H 270.805 1.48021 4.81774 0
M  V30 2830 H 270.407 1.99641 3.16259 0
M  V30 2831 H 272.699 2.51353 6.29148 0
M  V30 2832 H 273.642 3.97533 5.8598 0
M  V30 2833 H 274.05 2.40487 5.10711 0
M  V30 2834 N 273.449 -1.08991 1.13837 0
M  V30 2835 C 274.865 -1.33312 0.877506 0
M  V30 2836 C 275.065 -1.95587 -0.48456 0
M  V30 2837 O 274.121 -2.20509 -1.23013 0
M  V30 2838 C 275.434 -2.24045 2.0056 0
M  V30 2839 C 276.982 -2.37542 2.03821 0
M  V30 2840 C 277.457 -3.31614 3.15905 0
M  V30 2841 N 278.948 -3.39189 3.15445 0
M  V30 2842 C 279.683 -4.11992 3.98811 0
M  V30 2843 N 279.179 -4.87553 4.92203 0
M  V30 2844 N 280.972 -4.07762 3.86894 0
M  V30 2845 H 273.123 -0.669456 2.01574 0
M  V30 2846 H 275.386 -0.357482 0.878015 0
M  V30 2847 H 275.092 -1.85521 2.98789 0
M  V30 2848 H 274.966 -3.24466 1.92359 0
M  V30 2849 H 277.353 -2.75327 1.06202 0
M  V30 2850 H 277.434 -1.36884 2.16093 0
M  V30 2851 H 277.078 -2.94551 4.13766 0
M  V30 2852 H 277.008 -4.32186 3.0087 0
M  V30 2853 H 279.499 -2.85314 2.47799 0
M  V30 2854 H 279.812 -5.40549 5.52292 0
M  V30 2855 H 278.157 -4.86627 4.96205 0
M  V30 2856 H 281.348 -3.47833 3.13257 0
M  V30 2857 H 281.521 -4.64238 4.52092 0
M  V30 2858 N 274.927 -0.932562 -1.27047 0
M  V30 2859 C 276.343 -0.633544 -1.46487 0
M  V30 2860 C 276.543 0.815746 -1.84249 0
M  V30 2861 O 275.599 1.59319 -1.95892 0
M  V30 2862 C 276.912 -1.58758 -2.55375 0
M  V30 2863 C 278.46 -1.59634 -2.69232 0
M  V30 2864 C 278.935 -2.53747 -3.81283 0
M  V30 2865 N 280.426 -2.51982 -3.88664 0
M  V30 2866 C 281.161 -3.21491 -4.74796 0
M  V30 2867 N 280.657 -4.00395 -5.65381 0
M  V30 2868 N 282.45 -3.10485 -4.68568 0
M  V30 2869 H 274.601 -1.86946 -1.00821 0
M  V30 2870 H 276.864 -0.802897 -0.504044 0
M  V30 2871 H 276.57 -2.62172 -2.34432 0
M  V30 2872 H 276.444 -1.33301 -3.52861 0
M  V30 2873 H 278.831 -0.569488 -2.89553 0
M  V30 2874 H 278.912 -1.89142 -1.72218 0
M  V30 2875 H 278.556 -3.56545 -3.61715 0
M  V30 2876 H 278.486 -2.21532 -4.77735 0
M  V30 2877 H 280.977 -1.94681 -3.23895 0
M  V30 2878 H 281.29 -4.50406 -6.27976 0
M  V30 2879 H 279.635 -4.04498 -5.65161 0
M  V30 2880 H 282.826 -2.48331 -3.96799 0
M  V30 2881 H 282.999 -3.64925 -5.35475 0
M  V30 2882 N 276.405 1.4127 -0.698611 0
M  V30 2883 C 277.352 2.30773 -0.0352094 0
M  V30 2884 C 278.322 1.47273 0.768111 0
M  V30 2885 O 279.507 1.76053 0.735524 0
M  V30 2886 C 276.647 3.33346 0.893 0
M  V30 2887 C 275.76 4.31924 0.0809695 0
M  V30 2888 C 274.895 5.21566 1.0071 0
M  V30 2889 C 273.934 6.11811 0.188155 0
M  V30 2890 N 273.071 6.93926 1.06825 0
M  V30 2891 H 277.911 2.86943 -0.804207 0
M  V30 2892 H 275.448 1.4132 -0.408294 0
M  V30 2893 H 277.406 3.91368 1.44523 0
M  V30 2894 H 276.036 2.78719 1.62836 0
M  V30 2895 H 275.088 3.75825 -0.588224 0
M  V30 2896 H 276.4 4.95716 -0.553801 0
M  V30 2897 H 275.554 5.84437 1.62845 0
M  V30 2898 H 274.293 4.58008 1.67572 0
M  V30 2899 H 273.298 5.47986 -0.446254 0
M  V30 2900 H 274.523 6.77425 -0.476716 0
M  V30 2901 H 272.469 6.32973 1.72283 0
M  V30 2902 H 272.386 7.54416 0.489123 0
M  V30 2903 H 273.654 7.61262 1.67632 0
M  V30 2904 N 277.883 0.443576 1.51229 0
M  V30 2905 C 279.123 -0.119889 2.04048 0
M  V30 2906 C 279.487 -1.39418 1.32009 0
M  V30 2907 O 280.688 -2.03829 1.75235 0
M  V30 2908 C 278.959 -0.327233 3.55899 0
M  V30 2909 S 280.518 -0.853208 4.30425 0
M  V30 2910 H 277.336 -0.028921 0.710412 0
M  V30 2911 H 279.938 0.604413 1.85922 0
M  V30 2912 H 278.642 0.606445 4.05895 0
M  V30 2913 H 278.173 -1.07844 3.7833 0
M  V30 2914 H 280.188 -2.13005 4.48155 0
M  V30 2915 N 279.361 -1.56624 0.175154 0
M  V30 2916 C 280.293 -2.15333 -0.785128 0
M  V30 2917 C 281.306 -1.1099 -1.19101 0
M  V30 2918 O 282.495 -1.38162 -1.13019 0
M  V30 2919 C 279.595 -2.68427 -2.06882 0
M  V30 2920 C 278.768 -3.97466 -1.8259 0
M  V30 2921 C 277.827 -4.35585 -2.95215 0
M  V30 2922 O 276.853 -5.03389 -2.65684 0
M  V30 2923 N 278.055 -3.97457 -4.23094 0
M  V30 2924 H 280.82 -2.98359 -0.283187 0
M  V30 2925 H 278.381 -1.61898 -0.00749817 0
M  V30 2926 H 280.373 -2.90924 -2.81328 0
M  V30 2927 H 278.943 -1.89968 -2.48256 0
M  V30 2928 H 278.163 -3.83307 -0.920287 0
M  V30 2929 H 279.451 -4.81736 -1.63733 0
M  V30 2930 H 278.849 -3.42878 -4.49945 0
M  V30 2931 H 277.406 -4.24947 -4.9423 0
M  V30 2932 N 280.839 0.0985539 -1.57292 0
M  V30 2933 C 281.749 1.13824 -2.05137 0
M  V30 2934 C 282.765 1.44076 -0.975604 0
M  V30 2935 O 283.941 1.54786 -1.28853 0
M  V30 2936 C 281.006 2.43969 -2.46333 0
M  V30 2937 C 280.067 2.2093 -3.68087 0
M  V30 2938 C 279.3 3.44869 -4.0731 0
M  V30 2939 O 279.523 4.52972 -3.46659 0
M  V30 2940 O 278.457 3.34661 -5.00285 0
M  V30 2941 H 282.283 0.761881 -2.93988 0
M  V30 2942 H 279.868 0.310818 -1.46131 0
M  V30 2943 H 281.75 3.20609 -2.73473 0
M  V30 2944 H 280.425 2.81038 -1.60621 0
M  V30 2945 H 279.332 1.42081 -3.46069 0
M  V30 2946 H 280.665 1.88755 -4.54568 0
M  V30 2947 N 282.317 1.53212 0.369288 0
M  V30 2948 C 283.557 1.70915 1.12105 0
M  V30 2949 C 283.921 0.449444 1.86665 0
M  V30 2950 O 285.122 0.503105 2.6405 0
M  V30 2951 C 283.393 2.9222 2.05772 0
M  V30 2952 S 284.952 3.30609 2.88519 0
M  V30 2953 H 281.77 0.601445 0.379189 0
M  V30 2954 H 284.372 1.91306 0.402794 0
M  V30 2955 H 283.076 3.82103 1.49752 0
M  V30 2956 H 282.607 2.7422 2.82076 0
M  V30 2957 H 284.622 2.82333 4.08047 0
M  V30 2958 N 283.795 -0.628877 1.44509 0
M  V30 2959 C 285.211 -0.947305 1.28446 0
M  V30 2960 C 285.411 -2.00275 0.221872 0
M  V30 2961 O 284.467 -2.49447 -0.391471 0
M  V30 2962 C 285.78 -1.40843 2.65676 0
M  V30 2963 C 287.328 -1.52379 2.73404 0
M  V30 2964 C 287.803 -2.01875 4.11109 0
M  V30 2965 N 289.294 -2.09142 4.13296 0
M  V30 2966 C 290.029 -2.48615 5.16699 0
M  V30 2967 N 289.525 -2.87209 6.30462 0
M  V30 2968 N 291.318 -2.48768 5.04054 0
M  V30 2969 H 283.469 0.0690977 2.12288 0
M  V30 2970 H 285.732 -0.0317164 0.947469 0
M  V30 2971 H 285.438 -0.707206 3.44516 0
M  V30 2972 H 285.312 -2.37902 2.92716 0
M  V30 2973 H 287.699 -2.21598 1.9488 0
M  V30 2974 H 287.78 -0.536898 2.50102 0
M  V30 2975 H 287.424 -1.3325 4.90109 0
M  V30 2976 H 287.354 -3.0144 4.31789 0
M  V30 2977 H 289.845 -1.81991 3.31191 0
M  V30 2978 H 290.158 -3.16149 7.05174 0
M  V30 2979 H 288.503 -2.84955 6.33897 0
M  V30 2980 H 291.694 -2.18009 4.14234 0
M  V30 2981 H 291.867 -2.79207 5.84763 0
M  V30 2982 N 285.273 -1.31445 -0.869486 0
M  V30 2983 C 286.203 -1.21727 -1.99261 0
M  V30 2984 C 287.184 -0.104359 -1.6978 0
M  V30 2985 O 288.369 -0.289038 -1.92037 0
M  V30 2986 C 285.499 -0.924317 -3.34774 0
M  V30 2987 C 284.453 -1.99685 -3.78563 0
M  V30 2988 C 283.779 -1.55658 -5.11541 0
M  V30 2989 C 285.079 -3.41003 -3.95619 0
M  V30 2990 H 286.773 -2.1569 -2.07649 0
M  V30 2991 H 284.319 -1.03839 -0.997675 0
M  V30 2992 H 286.272 -0.842934 -4.12883 0
M  V30 2993 H 284.996 0.0509793 -3.2656 0
M  V30 2994 H 283.655 -2.06813 -3.02694 0
M  V30 2995 H 283.303 -0.569132 -4.9977 0
M  V30 2996 H 283.003 -2.27409 -5.41811 0
M  V30 2997 H 284.527 -1.48928 -5.92159 0
M  V30 2998 H 285.941 -3.36547 -4.64122 0
M  V30 2999 H 284.338 -4.10975 -4.37286 0
M  V30 3000 H 285.408 -3.81754 -2.98985 0
M  V30 3001 N 286.751 1.08385 -1.14413 0
M  V30 3002 C 288.167 1.32844 -0.884563 0
M  V30 3003 C 288.367 1.95841 0.474181 0
M  V30 3004 O 287.423 2.21158 1.21842 0
M  V30 3005 C 288.736 2.22978 -2.01745 0
M  V30 3006 C 290.284 2.36458 -2.05077 0
M  V30 3007 C 290.759 3.29934 -3.1766 0
M  V30 3008 N 292.25 3.37511 -3.17239 0
M  V30 3009 C 292.985 4.09871 -4.0099 0
M  V30 3010 N 292.481 4.84936 -4.94781 0
M  V30 3011 N 294.274 4.05704 -3.89051 0
M  V30 3012 H 286.425 0.658756 -2.01926 0
M  V30 3013 H 288.688 0.352821 -0.879899 0
M  V30 3014 H 288.394 1.83934 -2.99769 0
M  V30 3015 H 288.268 3.23441 -1.94077 0
M  V30 3016 H 290.655 2.7476 -1.0766 0
M  V30 3017 H 290.736 1.35736 -2.16816 0
M  V30 3018 H 290.38 2.92352 -4.15322 0
M  V30 3019 H 290.31 4.30584 -3.03158 0
M  V30 3020 H 292.801 2.83996 -2.49308 0
M  V30 3021 H 293.114 5.37612 -5.55151 0
M  V30 3022 H 291.459 4.83988 -4.98779 0
M  V30 3023 H 294.65 3.46167 -3.15097 0
M  V30 3024 H 294.823 4.61834 -4.54547 0
M  V30 3025 N 288.23 0.939286 1.26551 0
M  V30 3026 C 289.177 0.446088 2.26448 0
M  V30 3027 C 290.147 -0.493234 1.58608 0
M  V30 3028 O 291.332 -0.409857 1.86346 0
M  V30 3029 C 288.472 -0.284375 3.43926 0
M  V30 3030 C 287.585 0.690399 4.26448 0
M  V30 3031 C 286.72 -0.0610712 5.31165 0
M  V30 3032 C 285.759 0.905649 6.05363 0
M  V30 3033 N 284.896 0.186055 7.01853 0
M  V30 3034 H 289.736 1.30291 2.68008 0
M  V30 3035 H 287.273 0.65371 1.31776 0
M  V30 3036 H 289.231 -0.724313 4.10864 0
M  V30 3037 H 287.861 -1.10535 3.03285 0
M  V30 3038 H 286.913 1.24885 3.59316 0
M  V30 3039 H 288.225 1.42873 4.779 0
M  V30 3040 H 287.379 -0.56038 6.04106 0
M  V30 3041 H 286.118 -0.832297 4.80546 0
M  V30 3042 H 285.123 1.4161 5.3125 0
M  V30 3043 H 286.348 1.67685 6.58072 0
M  V30 3044 H 284.294 -0.566714 6.53548 0
M  V30 3045 H 284.211 0.863752 7.51049 0
M  V30 3046 H 285.479 -0.292221 7.78952 0
M  V30 3047 N 289.708 -1.40897 0.706093 0
M  V30 3048 C 290.948 -2.02916 0.245827 0
M  V30 3049 C 291.312 -1.54751 -1.13649 0
M  V30 3050 O 292.513 -2.08768 -1.69321 0
M  V30 3051 C 290.784 -3.56031 0.312537 0
M  V30 3052 S 292.343 -4.38741 -0.0721388 0
M  V30 3053 H 289.161 -0.704186 0.0982007 0
M  V30 3054 H 291.763 -1.72168 0.926207 0
M  V30 3055 H 290.467 -3.88579 1.32039 0
M  V30 3056 H 289.998 -3.91495 -0.386641 0
M  V30 3057 H 292.013 -4.78952 -1.29692 0
M  V30 3058 N 291.186 -0.45159 -1.50991 0
M  V30 3059 C 292.133 0.352625 -2.2809 0
M  V30 3060 C 293.103 1.0044 -1.32291 0
M  V30 3061 O 294.288 1.02058 -1.6121 0
M  V30 3062 C 291.428 1.43983 -3.13629 0
M  V30 3063 C 290.541 0.804772 -4.24438 0
M  V30 3064 C 289.676 1.86822 -4.97263 0
M  V30 3065 C 288.715 1.21236 -5.99973 0
M  V30 3066 N 287.852 2.2178 -6.66152 0
M  V30 3067 H 292.692 -0.311186 -2.96371 0
M  V30 3068 H 290.229 -0.165308 -1.46168 0
M  V30 3069 H 292.187 2.08161 -3.61559 0
M  V30 3070 H 290.817 2.07307 -2.47434 0
M  V30 3071 H 289.869 0.0509129 -3.80366 0
M  V30 3072 H 291.181 0.286076 -4.97979 0
M  V30 3073 H 290.335 2.58628 -5.48813 0
M  V30 3074 H 289.074 2.42068 -4.23385 0
M  V30 3075 H 288.079 0.479828 -5.47702 0
M  V30 3076 H 289.304 0.667051 -6.75816 0
M  V30 3077 H 287.25 2.76079 -5.95077 0
M  V30 3078 H 287.167 1.74841 -7.35504 0
M  V30 3079 H 288.435 2.93026 -7.22327 0
M  V30 3080 N 292.664 1.56529 -0.183458 0
M  V30 3081 C 293.574 2.22144 0.754272 0
M  V30 3082 C 294.59 1.21684 1.24374 0
M  V30 3083 O 295.766 1.54385 1.29333 0
M  V30 3084 C 292.831 2.85884 1.96141 0
M  V30 3085 C 291.892 4.01579 1.51765 0
M  V30 3086 C 291.125 4.6227 2.66725 0
M  V30 3087 O 291.348 4.21865 3.83909 0
M  V30 3088 O 290.282 5.51936 2.40104 0
M  V30 3089 H 294.108 3.02861 0.225527 0
M  V30 3090 H 291.693 1.49331 0.0453032 0
M  V30 3091 H 293.575 3.26253 2.66715 0
M  V30 3092 H 292.25 2.08154 2.47899 0
M  V30 3093 H 291.157 3.65856 0.781049 0
M  V30 3094 H 292.49 4.80938 1.04686 0
M  V30 3095 N 294.142 -0.090211 1.57342 0
M  V30 3096 C 295.075 -1.14035 1.97664 0
M  V30 3097 C 296.053 -1.38576 0.850616 0
M  V30 3098 O 297.237 -1.52255 1.11134 0
M  V30 3099 C 294.364 -2.48854 2.2976 0
M  V30 3100 C 293.41 -2.40564 3.52181 0
M  V30 3101 S 294.243 -1.81745 5.03715 0
M  V30 3102 C 295.399 -3.18178 5.38993 0
M  V30 3103 H 295.632 -0.796636 2.86428 0
M  V30 3104 H 293.165 -0.298072 1.51496 0
M  V30 3105 H 295.123 -3.26413 2.48927 0
M  V30 3106 H 293.784 -2.80393 1.41558 0
M  V30 3107 H 292.977 -3.39942 3.72096 0
M  V30 3108 H 292.579 -1.71135 3.32549 0
M  V30 3109 H 294.871 -4.14461 5.35937 0
M  V30 3110 H 295.814 -3.03062 6.39968 0
M  V30 3111 H 296.222 -3.17935 4.66452 0
M  V30 3112 N 295.62 -1.53406 -0.361157 0
M  V30 3113 C 296.868 -1.69467 -1.10115 0
M  V30 3114 C 297.189 -0.451352 -1.89705 0
M  V30 3115 O 296.459 0.534636 -1.88463 0
M  V30 3116 H 295.039 -0.624749 -0.409508 0
M  V30 3117 H 297.701 -1.90609 -0.406699 0
M  V30 3118 H 296.797 -2.55774 -1.78847 0
M  V30 3119 N 297.098 0.621204 -1.44841 0
M  V30 3120 C 298.031 1.7459 -1.46947 0
M  V30 3121 C 299.009 1.59273 -0.327238 0
M  V30 3122 O 300.193 1.81021 -0.525706 0
M  V30 3123 C 297.32 3.12274 -1.31159 0
M  V30 3124 C 296.366 3.46216 -2.49072 0
M  V30 3125 S 297.199 3.4258 -4.11581 0
M  V30 3126 C 298.355 4.82867 -3.98233 0
M  V30 3127 H 298.588 1.72538 -2.42111 0
M  V30 3128 H 296.121 0.796683 -1.32259 0
M  V30 3129 H 298.079 3.91722 -1.22737 0
M  V30 3130 H 296.74 3.11855 -0.374885 0
M  V30 3131 H 295.933 4.4643 -2.33915 0
M  V30 3132 H 295.535 2.74253 -2.54286 0
M  V30 3133 H 297.827 5.7234 -3.62537 0
M  V30 3134 H 298.77 5.0308 -4.98313 0
M  V30 3135 H 299.178 4.57908 -3.30121 0
M  V30 3136 N 298.576 1.31904 0.862503 0
M  V30 3137 C 299.506 1.22782 1.98612 0
M  V30 3138 C 300.487 0.113362 1.69722 0
M  V30 3139 O 301.672 0.299218 1.91881 0
M  V30 3140 C 298.802 0.942058 3.34279 0
M  V30 3141 C 297.756 2.0169 3.77499 0
M  V30 3142 C 297.082 1.58369 5.10709 0
M  V30 3143 C 298.382 3.43096 3.93805 0
M  V30 3144 H 300.076 2.16788 2.06502 0
M  V30 3145 H 297.622 1.04366 0.992154 0
M  V30 3146 H 299.575 0.864818 4.1243 0
M  V30 3147 H 298.299 -0.0336603 3.26583 0
M  V30 3148 H 296.958 2.08416 3.01593 0
M  V30 3149 H 296.606 0.595628 4.99461 0
M  V30 3150 H 296.306 2.30279 5.40597 0
M  V30 3151 H 297.83 1.52067 5.91361 0
M  V30 3152 H 299.244 3.39003 4.62331 0
M  V30 3153 H 297.641 4.13288 4.35101 0
M  V30 3154 H 298.711 3.83334 2.96957 0
M  V30 3155 N 300.054 -1.07777 1.14986 0
M  V30 3156 C 301.017 -2.13041 0.845358 0
M  V30 3157 C 302.017 -1.60071 -0.152931 0
M  V30 3158 O 303.207 -1.74033 0.0761879 0
M  V30 3159 C 300.339 -3.39896 0.261383 0
M  V30 3160 H 301.532 -2.41485 1.77834 0
M  V30 3161 H 299.085 -1.23595 0.956757 0
M  V30 3162 H 299.82 -3.17091 -0.68 0
M  V30 3163 H 299.605 -3.79642 0.980514 0
M  V30 3164 H 301.095 -4.17548 0.0657687 0
M  V30 3165 N 301.532 -0.945985 -1.26051 0
M  V30 3166 C 302.442 -0.465633 -2.29933 0
M  V30 3167 C 303.458 0.462761 -1.67733 0
M  V30 3168 O 304.634 0.341118 -1.9849 0
M  V30 3169 C 301.699 0.256994 -3.45746 0
M  V30 3170 C 300.76 -0.708549 -4.23412 0
M  V30 3171 C 299.993 -0.0203135 -5.33696 0
M  V30 3172 O 300.216 1.19571 -5.57726 0
M  V30 3173 O 299.15 -0.701459 -5.97799 0
M  V30 3174 H 302.976 -1.32866 -2.73094 0
M  V30 3175 H 300.561 -0.712071 -1.31339 0
M  V30 3176 H 302.443 0.663852 -4.16138 0
M  V30 3177 H 301.118 1.09533 -3.04605 0
M  V30 3178 H 300.025 -1.16545 -3.55483 0
M  V30 3179 H 301.358 -1.51465 -4.68315 0
M  V30 3180 N 303.011 1.40521 -0.713556 0
M  V30 3181 C 304.251 2.02783 -0.256584 0
M  V30 3182 C 304.615 1.55352 1.12827 0
M  V30 3183 O 305.816 2.09663 1.68211 0
M  V30 3184 C 304.087 3.5586 -0.331414 0
M  V30 3185 S 305.646 4.38773 0.0488703 0
M  V30 3186 H 302.464 0.703655 -0.101934 0
M  V30 3187 H 305.066 1.71674 -0.935325 0
M  V30 3188 H 303.77 3.87874 -1.34098 0
M  V30 3189 H 303.301 3.91695 0.365873 0
M  V30 3190 H 305.316 4.79633 1.2715 0
M  V30 3191 N 304.489 0.459591 1.5075 0
M  V30 3192 C 305.422 -0.386257 2.24907 0
M  V30 3193 C 306.4 -1.006 1.27744 0
M  V30 3194 O 307.584 -1.04416 1.56938 0
M  V30 3195 C 304.711 -1.54021 3.01654 0
M  V30 3196 C 303.757 -1.03898 4.13651 0
M  V30 3197 S 304.59 0.0370501 5.35487 0
M  V30 3198 C 305.746 -1.12105 6.15779 0
M  V30 3199 H 305.979 0.243272 2.96303 0
M  V30 3200 H 303.512 0.244339 1.52454 0
M  V30 3201 H 305.47 -2.20163 3.46466 0
M  V30 3202 H 304.131 -2.14121 2.29806 0
M  V30 3203 H 303.324 -1.90254 4.66711 0
M  V30 3204 H 302.926 -0.45545 3.71216 0
M  V30 3205 H 305.218 -2.03501 6.46215 0
M  V30 3206 H 306.161 -0.62995 7.05292 0
M  V30 3207 H 306.569 -1.36967 5.47631 0
M  V30 3208 N 305.967 -1.56429 0.191757 0
M  V30 3209 C 307.197 -2.01574 -0.452928 0
M  V30 3210 C 307.605 -1.07107 -1.55964 0
M  V30 3211 O 306.948 -0.067534 -1.83576 0
M  V30 3212 C 307.01 -3.43121 -1.07278 0
M  V30 3213 C 306.674 -4.56879 -0.105214 0
M  V30 3214 C 307.671 -5.15379 0.684149 0
M  V30 3215 C 305.356 -5.023 0.00489824 0
M  V30 3216 C 307.35 -6.17746 1.57062 0
M  V30 3217 C 305.037 -6.04511 0.894935 0
M  V30 3218 C 306.035 -6.62108 1.67637 0
M  V30 3219 O 305.723 -7.62335 2.55149 0
M  V30 3220 H 305.455 -0.665554 -0.118379 0
M  V30 3221 H 308.009 -2.03245 0.296737 0
M  V30 3222 H 306.239 -3.38425 -1.87097 0
M  V30 3223 H 307.928 -3.72093 -1.62177 0
M  V30 3224 H 308.694 -4.81157 0.609365 0
M  V30 3225 H 304.573 -4.57168 -0.593156 0
M  V30 3226 H 308.117 -6.6263 2.181 0
M  V30 3227 H 304.014 -6.38157 0.970847 0
M  V30 3228 H 304.782 -7.79741 2.48892 0
M  V30 3229 N 307.445 0.0818655 -1.57387 0
M  V30 3230 C 308.673 0.796108 -1.9097 0
M  V30 3231 C 309.088 1.71626 -0.786757 0
M  V30 3232 O 308.445 1.80908 0.240513 0
M  V30 3233 C 308.496 1.59829 -3.24248 0
M  V30 3234 O 308.217 0.715131 -4.32224 0
M  V30 3235 C 309.718 2.41442 -3.7178 0
M  V30 3236 H 306.938 0.22691 -0.631469 0
M  V30 3237 H 309.482 0.0551439 -2.04426 0
M  V30 3238 H 307.637 2.29163 -3.12351 0
M  V30 3239 H 308.051 1.27205 -5.08841 0
M  V30 3240 H 309.525 2.932 -4.67694 0
M  V30 3241 H 310.002 3.2051 -3.00283 0
M  V30 3242 H 310.608 1.77283 -3.86589 0
M  V30 3243 N 308.923 1.53595 0.353017 0
M  V30 3244 C 310.171 1.70049 1.09215 0
M  V30 3245 C 310.492 0.461406 1.89463 0
M  V30 3246 O 309.762 -0.524633 1.88744 0
M  V30 3247 H 308.342 0.626912 0.40619 0
M  V30 3248 H 311.004 1.90822 0.396585 0
M  V30 3249 H 310.1 2.56718 1.77488 0
M  V30 3250 N 310.401 -0.613514 1.45168 0
M  V30 3251 C 311.331 -1.7354 1.56225 0
M  V30 3252 C 312.312 -1.64981 0.41414 0
M  V30 3253 O 313.497 -1.83472 0.636526 0
M  V30 3254 C 310.627 -3.12128 1.52295 0
M  V30 3255 C 309.581 -3.35491 2.65762 0
M  V30 3256 C 308.907 -4.74291 2.46885 0
M  V30 3257 C 310.207 -3.26325 4.0781 0
M  V30 3258 H 311.901 -1.64543 2.50132 0
M  V30 3259 H 309.447 -0.790185 1.20383 0
M  V30 3260 H 311.4 -3.90404 1.58628 0
M  V30 3261 H 310.124 -3.2195 0.549139 0
M  V30 3262 H 308.783 -2.59603 2.58847 0
M  V30 3263 H 308.431 -4.80839 1.47657 0
M  V30 3264 H 308.131 -4.9088 3.22972 0
M  V30 3265 H 309.655 -5.54775 2.55063 0
M  V30 3266 H 311.069 -3.94483 4.16 0
M  V30 3267 H 309.466 -3.54445 4.8424 0
M  V30 3268 H 310.536 -2.23855 4.30136 0
M  V30 3269 N 311.879 -1.3236 -0.855495 0
M  V30 3270 C 312.809 -1.23833 -1.97958 0
M  V30 3271 C 313.79 -0.122361 -1.69659 0
M  V30 3272 O 314.975 -0.30939 -1.9172 0
M  V30 3273 C 312.105 -0.959772 -3.33775 0
M  V30 3274 C 311.059 -2.03689 -3.76424 0
M  V30 3275 C 310.385 -1.61075 -5.09862 0
M  V30 3276 C 311.685 -3.4518 -3.9198 0
M  V30 3277 H 313.379 -2.1788 -2.0535 0
M  V30 3278 H 310.925 -1.04891 -0.986605 0
M  V30 3279 H 312.878 -0.886678 -4.11966 0
M  V30 3280 H 311.602 0.0163404 -3.26596 0
M  V30 3281 H 310.261 -2.10012 -3.00484 0
M  V30 3282 H 309.909 -0.622107 -4.99138 0
M  V30 3283 H 309.609 -2.33143 -5.39368 0
M  V30 3284 H 311.133 -1.55201 -5.90546 0
M  V30 3285 H 312.547 -3.4145 -4.60526 0
M  V30 3286 H 310.944 -4.1559 -4.32903 0
M  V30 3287 H 312.014 -3.84903 -2.94919 0
M  V30 3288 N 313.357 1.07166 -1.15556 0
M  V30 3289 C 314.585 1.83514 -0.955519 0
M  V30 3290 C 315 1.82163 0.49621 0
M  V30 3291 O 314.357 1.23441 1.34419 0
M  V30 3292 C 314.408 3.30515 -1.46432 0
M  V30 3293 O 314.129 3.31937 -2.85918 0
M  V30 3294 C 315.63 4.23625 -1.30603 0
M  V30 3295 H 312.85 0.578926 -0.339244 0
M  V30 3296 H 315.394 1.35265 -1.53374 0
M  V30 3297 H 313.549 3.76106 -0.928584 0
M  V30 3298 H 313.963 4.23794 -3.09029 0
M  V30 3299 H 315.437 5.24831 -1.71047 0
M  V30 3300 H 315.914 4.38485 -0.250441 0
M  V30 3301 H 316.52 3.83871 -1.83094 0
M  V30 3302 N 314.835 0.952656 1.25548 0
M  V30 3303 C 315.745 0.47782 2.29682 0
M  V30 3304 C 316.761 -0.453859 1.67977 0
M  V30 3305 O 317.937 -0.330587 1.98668 0
M  V30 3306 C 315.002 -0.238655 3.45878 0
M  V30 3307 C 314.063 0.730994 4.23031 0
M  V30 3308 C 313.296 0.0486165 5.33678 0
M  V30 3309 O 313.519 -1.16612 5.58353 0
M  V30 3310 O 312.453 0.733152 5.97418 0
M  V30 3311 H 316.279 1.34312 2.72386 0
M  V30 3312 H 313.864 0.719026 1.30959 0
M  V30 3313 H 315.746 -0.641774 4.16484 0
M  V30 3314 H 314.421 -1.07916 3.05181 0
M  V30 3315 H 313.328 1.18428 3.5486 0
M  V30 3316 H 314.661 1.53946 4.67506 0
M  V30 3317 N 316.313 -1.40141 0.720998 0
M  V30 3318 C 317.562 -2.0002 0.259804 0
M  V30 3319 C 317.875 -1.57839 -1.15526 0
M  V30 3320 O 319.081 -2.10455 -1.71525 0
M  V30 3321 C 317.537 -3.57516 0.413566 0
M  V30 3322 C 317.145 -4.08667 1.83562 0
M  V30 3323 C 318.889 -4.24498 0.0134387 0
M  V30 3324 C 316.796 -5.58686 1.93968 0
M  V30 3325 H 315.726 -0.748195 0.0933806 0
M  V30 3326 H 318.377 -1.60313 0.892866 0
M  V30 3327 H 316.759 -3.9495 -0.288169 0
M  V30 3328 H 317.933 -3.82598 2.56817 0
M  V30 3329 H 316.248 -3.543 2.1877 0
M  V30 3330 H 318.845 -5.34654 0.0703954 0
M  V30 3331 H 319.188 -4.03375 -1.02927 0
M  V30 3332 H 319.721 -3.92188 0.665815 0
M  V30 3333 H 316.46 -5.8467 2.96379 0
M  V30 3334 H 315.98 -5.86602 1.25131 0
M  V30 3335 H 317.659 -6.23875 1.71431 0
M  V30 3336 N 317.792 -0.46758 -1.50504 0
M  V30 3337 C 318.724 0.364655 -2.26281 0
M  V30 3338 C 319.737 0.960151 -1.31472 0
M  V30 3339 O 320.926 0.849153 -1.57008 0
M  V30 3340 C 318.026 1.52509 -3.02645 0
M  V30 3341 C 317.199 1.04302 -4.24782 0
M  V30 3342 C 316.258 2.07709 -4.8347 0
M  V30 3343 O 315.284 1.65913 -5.44483 0
M  V30 3344 N 316.486 3.40485 -4.70159 0
M  V30 3345 H 319.251 -0.28495 -2.98342 0
M  V30 3346 H 316.812 -0.298163 -1.59131 0
M  V30 3347 H 318.804 2.21371 -3.38787 0
M  V30 3348 H 317.374 2.07945 -2.33404 0
M  V30 3349 H 316.594 0.180393 -3.93787 0
M  V30 3350 H 317.882 0.698798 -5.03978 0
M  V30 3351 H 317.28 3.77155 -4.21629 0
M  V30 3352 H 315.837 4.05156 -5.1058 0
M  V30 3353 N 319.27 1.56325 -0.20005 0
M  V30 3354 C 320.51 1.99619 0.439519 0
M  V30 3355 C 320.874 1.08423 1.58456 0
M  V30 3356 O 322.075 1.40973 2.28867 0
M  V30 3357 C 320.346 3.46314 0.883258 0
M  V30 3358 S 321.905 4.11634 1.51997 0
M  V30 3359 H 318.723 0.697007 0.140363 0
M  V30 3360 H 321.325 1.93118 -0.304282 0
M  V30 3361 H 320.029 4.10381 0.0398967 0
M  V30 3362 H 319.56 3.56643 1.6604 0
M  V30 3363 H 321.575 4.09049 2.8088 0
M  V30 3364 N 320.748 -0.0735177 1.57428 0
M  V30 3365 C 321.695 -1.08756 2.0357 0
M  V30 3366 C 322.665 -1.38559 0.916 0
M  V30 3367 O 323.85 -1.49656 1.18354 0
M  V30 3368 C 320.99 -2.39657 2.48311 0
M  V30 3369 C 320.103 -2.16399 3.73892 0
M  V30 3370 C 319.238 -3.40852 4.07423 0
M  V30 3371 C 318.277 -3.1295 5.2605 0
M  V30 3372 N 317.414 -4.29729 5.55228 0
M  V30 3373 H 322.254 -0.687104 2.8997 0
M  V30 3374 H 319.791 -0.327709 1.43403 0
M  V30 3375 H 321.749 -3.16081 2.72303 0
M  V30 3376 H 320.379 -2.77508 1.64891 0
M  V30 3377 H 319.431 -1.30676 3.57251 0
M  V30 3378 H 320.743 -1.91788 4.60455 0
M  V30 3379 H 319.897 -4.25671 4.32306 0
M  V30 3380 H 318.636 -3.68537 3.19425 0
M  V30 3381 H 317.641 -2.26526 5.00965 0
M  V30 3382 H 318.866 -2.86589 6.15665 0
M  V30 3383 H 316.812 -4.57448 4.70188 0
M  V30 3384 H 316.729 -4.08385 6.36206 0
M  V30 3385 H 317.997 -5.1555 5.84661 0
M  V30 3386 N 322.226 -1.5378 -0.344866 0
M  V30 3387 C 323.451 -1.75211 -1.10977 0
M  V30 3388 C 323.876 -0.48936 -1.81623 0
M  V30 3389 O 323.234 0.557925 -1.72502 0
M  V30 3390 C 323.282 -2.93147 -2.09993 0
M  V30 3391 O 322.386 -2.63203 -3.17487 0
M  V30 3392 H 321.727 -0.581241 -0.321021 0
M  V30 3393 H 324.257 -2.00738 -0.395661 0
M  V30 3394 H 324.267 -3.19898 -2.53237 0
M  V30 3395 H 322.942 -3.84731 -1.5797 0
M  V30 3396 H 321.519 -2.47336 -2.79069 0
M  V30 3397 N 323.704 0.605807 -1.45491 0
M  V30 3398 C 324.651 1.7164 -1.54299 0
M  V30 3399 C 325.621 1.61486 -0.388761 0
M  V30 3400 O 326.806 1.81039 -0.602445 0
M  V30 3401 C 323.946 3.09953 -1.51734 0
M  V30 3402 C 323.059 3.309 -2.77721 0
M  V30 3403 C 322.194 4.59329 -2.66816 0
M  V30 3404 C 321.233 4.7354 -3.87848 0
M  V30 3405 N 320.37 5.9327 -3.75467 0
M  V30 3406 H 325.21 1.63449 -2.49176 0
M  V30 3407 H 322.747 0.796957 -1.23641 0
M  V30 3408 H 324.705 3.89977 -1.48235 0
M  V30 3409 H 323.335 3.17098 -0.604068 0
M  V30 3410 H 322.387 2.44639 -2.913 0
M  V30 3411 H 323.699 3.37274 -3.67488 0
M  V30 3412 H 322.853 5.4755 -2.61292 0
M  V30 3413 H 321.592 4.55355 -1.74651 0
M  V30 3414 H 320.597 3.83741 -3.93729 0
M  V30 3415 H 321.822 4.79309 -4.81082 0
M  V30 3416 H 319.768 5.90338 -2.86072 0
M  V30 3417 H 319.685 6.00811 -4.5887 0
M  V30 3418 H 320.953 6.83984 -3.73879 0
M  V30 3419 N 325.182 1.32811 0.848464 0
M  V30 3420 C 326.598 1.11937 1.13764 0
M  V30 3421 C 326.798 -0.0960789 2.01271 0
M  V30 3422 O 325.854 -0.779165 2.40178 0
M  V30 3423 C 327.167 2.402 1.809 0
M  V30 3424 C 328.715 2.46016 1.93508 0
M  V30 3425 C 329.19 3.74215 2.64059 0
M  V30 3426 N 330.681 3.75232 2.71579 0
M  V30 3427 C 331.416 4.71134 3.26833 0
M  V30 3428 N 330.912 5.77406 3.8285 0
M  V30 3429 N 332.705 4.58623 3.24995 0
M  V30 3430 H 324.856 2.1073 0.265855 0
M  V30 3431 H 327.119 0.930671 0.180431 0
M  V30 3432 H 326.825 3.29093 1.24058 0
M  V30 3433 H 326.699 2.51628 2.81004 0
M  V30 3434 H 329.086 1.57577 2.49506 0
M  V30 3435 H 329.167 2.38536 0.923811 0
M  V30 3436 H 328.811 4.63031 2.08722 0
M  V30 3437 H 328.741 3.78968 3.65637 0
M  V30 3438 H 331.232 2.98423 2.31845 0
M  V30 3439 H 331.545 6.46632 4.23187 0
M  V30 3440 H 329.89 5.81152 3.81165 0
M  V30 3441 H 333.081 3.74762 2.80484 0
M  V30 3442 H 333.254 5.33535 3.67756 0
M  V30 3443 N 326.66 -1.06551 1.16123 0
M  V30 3444 C 327.59 -2.15935 0.88851 0
M  V30 3445 C 328.571 -1.69306 -0.164135 0
M  V30 3446 O 329.756 -1.94193 -0.0167857 0
M  V30 3447 C 326.886 -3.45149 0.385942 0
M  V30 3448 C 325.84 -4.05271 1.3762 0
M  V30 3449 C 325.166 -5.29664 0.732137 0
M  V30 3450 C 326.466 -4.44355 2.74493 0
M  V30 3451 H 328.16 -2.39006 1.80323 0
M  V30 3452 H 325.706 -1.14866 0.868435 0
M  V30 3453 H 327.659 -4.21004 0.182647 0
M  V30 3454 H 326.383 -3.21689 -0.564274 0
M  V30 3455 H 325.042 -3.3147 1.56599 0
M  V30 3456 H 324.69 -5.02499 -0.224483 0
M  V30 3457 H 324.39 -5.70848 1.39307 0
M  V30 3458 H 325.914 -6.08218 0.538802 0
M  V30 3459 H 327.328 -5.11303 2.59311 0
M  V30 3460 H 325.725 -4.96515 3.37035 0
M  V30 3461 H 326.795 -3.55339 3.29943 0
M  V30 3462 N 328.138 -0.959301 -1.25041 0
M  V30 3463 C 329.554 -0.664474 -1.4511 0
M  V30 3464 C 329.754 0.776481 -1.85938 0
M  V30 3465 O 328.81 1.55128 -1.99227 0
M  V30 3466 C 330.123 -1.64139 -2.5195 0
M  V30 3467 C 331.671 -1.65309 -2.65786 0
M  V30 3468 C 332.146 -2.61777 -3.75815 0
M  V30 3469 N 333.637 -2.60169 -3.83231 0
M  V30 3470 C 334.372 -3.31489 -4.6787 0
M  V30 3471 N 333.868 -4.12298 -5.56761 0
M  V30 3472 N 335.661 -3.20354 -4.61876 0
M  V30 3473 H 327.812 -1.89043 -0.968332 0
M  V30 3474 H 330.075 -0.813408 -0.4869 0
M  V30 3475 H 329.781 -2.67086 -2.28819 0
M  V30 3476 H 329.655 -1.40756 -3.49954 0
M  V30 3477 H 332.042 -0.630778 -2.8828 0
M  V30 3478 H 332.123 -1.92753 -1.68167 0
M  V30 3479 H 331.767 -3.64137 -3.54071 0
M  V30 3480 H 331.697 -2.31616 -4.72929 0
M  V30 3481 H 334.188 -2.01507 -3.19692 0
M  V30 3482 H 334.501 -4.63625 -6.18281 0
M  V30 3483 H 332.846 -4.16395 -5.56454 0
M  V30 3484 H 336.037 -2.56692 -3.91442 0
M  V30 3485 H 336.21 -3.76201 -5.27614 0
M  V30 3486 N 329.616 1.39756 -0.72842 0
M  V30 3487 C 330.563 2.30647 -0.0841519 0
M  V30 3488 C 331.533 1.48869 0.7367 0
M  V30 3489 O 332.718 1.77574 0.698015 0
M  V30 3490 C 329.858 3.35165 0.822091 0
M  V30 3491 C 328.971 4.31999 -0.0106663 0
M  V30 3492 C 328.106 5.23585 0.896241 0
M  V30 3493 C 327.145 6.12072 0.0583381 0
M  V30 3494 N 326.282 6.96035 0.920818 0
M  V30 3495 H 331.122 2.85173 -0.864891 0
M  V30 3496 H 328.659 1.40422 -0.438179 0
M  V30 3497 H 330.617 3.94345 1.36189 0
M  V30 3498 H 329.247 2.8211 1.56888 0
M  V30 3499 H 328.299 3.74492 -0.66781 0
M  V30 3500 H 329.611 4.9443 -0.658825 0
M  V30 3501 H 328.765 5.87759 1.50412 0
M  V30 3502 H 327.504 4.61459 1.57819 0
M  V30 3503 H 326.509 5.46916 -0.562389 0
M  V30 3504 H 327.734 6.76261 -0.6203 0
M  V30 3505 H 325.68 6.36485 1.58818 0
M  V30 3506 H 325.597 7.55284 0.32899 0
M  V30 3507 H 326.865 7.64646 1.51447 0
M  V30 3508 N 331.094 0.475555 1.50254 0
M  V30 3509 C 332.042 -0.330276 2.30243 0
M  V30 3510 C 333.036 -0.986306 1.37726 0
M  V30 3511 O 334.242 -0.9169 1.54897 0
M  V30 3512 H 330.617 -0.125353 0.741479 0
M  V30 3513 H 332.588 0.364702 2.96163 0
M  V30 3514 C 331.337 -1.39704 3.18399 0
M  V30 3515 H 330.66 -0.901621 3.89501 0
M  V30 3516 H 332.1 -1.93336 3.77355 0
M  V30 3517 C 330.559 -2.4014 2.36293 0
M  V30 3518 O 331.089 -3.45504 2.04914 0
M  V30 3519 N 329.295 -2.1197 1.98789 0
M  V30 3520 H 328.842 -1.2631 2.24507 0
M  V30 3521 H 328.8 -2.79403 1.44157 0
M  V30 3522 N 332.573 -1.56217 0.208337 0
M  V30 3523 C 333.819 -1.98242 -0.427552 0
M  V30 3524 C 334.152 -1.09554 -1.60348 0
M  V30 3525 O 333.427 -0.15035 -1.93918 0
M  V30 3526 C 333.71 -3.4931 -0.874907 0
M  V30 3527 C 333.563 -4.48773 0.303751 0
M  V30 3528 C 334.882 -4.04424 -1.73577 0
M  V30 3529 H 332.001 -0.720744 -0.153936 0
M  V30 3530 H 334.643 -1.87586 0.30192 0
M  V30 3531 H 332.793 -3.58522 -1.49648 0
M  V30 3532 H 334.465 -4.51586 0.941682 0
M  V30 3533 H 332.708 -4.23194 0.953375 0
M  V30 3534 H 333.379 -5.51976 -0.0519883 0
M  V30 3535 H 335.855 -3.98075 -1.21143 0
M  V30 3536 H 334.731 -5.1047 -2.01771 0
M  V30 3537 H 334.992 -3.50494 -2.69456 0
M  V30 3538 N 334.051 0.0651679 -1.57465 0
M  V30 3539 C 334.998 1.07675 -2.04144 0
M  V30 3540 C 335.968 1.38071 -0.923335 0
M  V30 3541 O 337.153 1.49026 -1.19146 0
M  V30 3542 C 334.293 2.38337 -2.49579 0
M  V30 3543 C 333.406 2.14413 -3.75035 0
M  V30 3544 C 332.541 3.38686 -4.09225 0
M  V30 3545 C 331.58 3.10156 -5.27702 0
M  V30 3546 N 330.717 4.26778 -5.57499 0
M  V30 3547 H 335.557 0.671716 -2.90331 0
M  V30 3548 H 333.094 0.3201 -1.43575 0
M  V30 3549 H 335.052 3.14632 -2.73975 0
M  V30 3550 H 333.682 2.7663 -1.6636 0
M  V30 3551 H 332.734 1.2878 -3.57939 0
M  V30 3552 H 334.046 1.89344 -4.61466 0
M  V30 3553 H 333.2 4.23373 -4.34558 0
M  V30 3554 H 331.939 3.66837 -3.21374 0
M  V30 3555 H 330.944 2.23866 -5.02159 0
M  V30 3556 H 332.169 2.8332 -6.17176 0
M  V30 3557 H 330.115 4.54948 -4.72608 0
M  V30 3558 H 330.032 4.05005 -6.38362 0
M  V30 3559 H 331.3 5.12443 -5.87386 0
M  V30 3560 N 335.529 1.53961 0.336706 0
M  V30 3561 C 336.461 1.78751 1.4346 0
M  V30 3562 C 337.474 0.669019 1.48418 0
M  V30 3563 O 338.663 0.945884 1.51378 0
M  V30 3564 C 335.763 1.87844 2.82078 0
M  V30 3565 C 334.936 3.17854 3.00479 0
M  V30 3566 C 333.995 3.17816 4.19379 0
M  V30 3567 O 333.021 3.91511 4.13168 0
M  V30 3568 N 334.223 2.40669 5.2826 0
M  V30 3569 H 336.988 2.73493 1.22563 0
M  V30 3570 H 334.549 1.53096 0.526625 0
M  V30 3571 H 336.541 1.85261 3.59806 0
M  V30 3572 H 335.111 1.00257 2.96086 0
M  V30 3573 H 334.331 3.33504 2.10163 0
M  V30 3574 H 335.619 4.03718 3.0966 0
M  V30 3575 H 335.017 1.8036 5.36178 0
M  V30 3576 H 333.574 2.43877 6.04456 0
M  V30 3577 N 337.007 -0.598083 1.45811 0
M  V30 3578 C 337.957 -1.70272 1.51629 0
M  V30 3579 C 338.941 -1.56382 0.378629 0
M  V30 3580 O 340.133 -1.65557 0.626087 0
M  V30 3581 C 337.262 -3.09042 1.49493 0
M  V30 3582 C 336.348 -3.28284 2.68496 0
M  V30 3583 N 336.739 -3.17748 3.93535 0
M  V30 3584 C 335.037 -3.59182 2.64394 0
M  V30 3585 C 335.738 -3.38579 4.7301 0
M  V30 3586 N 334.714 -3.63016 4.04624 0
M  V30 3587 H 338.516 -1.60634 2.46118 0
M  V30 3588 H 336.03 -0.801642 1.41235 0
M  V30 3589 H 338.027 -3.88302 1.51747 0
M  V30 3590 H 336.687 -3.19823 0.560683 0
M  V30 3591 H 337.698 -2.95944 4.25014 0
M  V30 3592 H 334.375 -3.76742 1.79922 0
M  V30 3593 H 335.765 -3.35747 5.82 0
M  V30 3594 N 338.485 -1.33259 -0.841409 0
M  V30 3595 C 339.448 -1.23221 -1.9326 0
M  V30 3596 C 340.448 -0.151895 -1.60081 0
M  V30 3597 O 341.638 -0.403246 -1.69468 0
M  V30 3598 C 338.77 -0.898123 -3.28856 0
M  V30 3599 H 339.963 -2.2021 -2.03587 0
M  V30 3600 H 337.516 -1.17281 -1.03319 0
M  V30 3601 H 338.251 0.0693841 -3.24226 0
M  V30 3602 H 338.036 -1.67934 -3.54317 0
M  V30 3603 H 339.526 -0.852563 -4.08805 0
M  V30 3604 N 339.963 1.05934 -1.16686 0
M  V30 3605 C 341.24 1.75643 -0.860747 0
M  V30 3606 C 341.62 2.01144 0.640641 0
M  V30 3607 O 340.968 1.64147 1.58959 0
M  V30 3608 C 341.178 3.05493 -1.68745 0
M  V30 3609 C 342.526 3.79581 -1.90271 0
M  V30 3610 O 343.55 3.15344 -1.65641 0
M  V30 3611 O 342.409 4.9499 -2.31618 0
M  V30 3612 H 339.503 0.763426 -0.317977 0
M  V30 3613 H 342.049 1.1217 -1.27342 0
M  V30 3614 H 340.821 2.8264 -2.70611 0
M  V30 3615 H 340.444 3.76702 -1.27206 0
M  V30 3616 N 341.441 0.965919 1.2453 0
M  V30 3617 C 342.373 0.452465 2.2469 0
M  V30 3618 C 343.386 -0.437821 1.56802 0
M  V30 3619 O 344.575 -0.244283 1.76821 0
M  V30 3620 C 341.675 -0.366258 3.36915 0
M  V30 3621 C 340.848 0.513701 4.34373 0
M  V30 3622 C 339.907 -0.248716 5.25612 0
M  V30 3623 O 338.933 0.356745 5.68081 0
M  V30 3624 N 340.135 -1.53877 5.59734 0
M  V30 3625 H 342.9 1.31361 2.69378 0
M  V30 3626 H 340.461 0.837541 1.38553 0
M  V30 3627 H 342.453 -0.884297 3.94921 0
M  V30 3628 H 341.023 -1.12832 2.91526 0
M  V30 3629 H 340.243 1.21273 3.75082 0
M  V30 3630 H 341.531 1.11391 4.96457 0
M  V30 3631 H 340.929 -2.05243 5.27154 0
M  V30 3632 H 339.486 -2.00254 6.20275 0
M  V30 3633 N 342.919 -1.39368 0.735821 0
M  V30 3634 C 344.147 -2.04795 0.294393 0
M  V30 3635 C 344.562 -1.55478 -1.07107 0
M  V30 3636 O 343.919 -0.720038 -1.67695 0
M  V30 3637 C 343.97 -3.6035 0.288071 0
M  V30 3638 O 343.691 -4.07852 1.59963 0
M  V30 3639 C 345.192 -4.42976 -0.169422 0
M  V30 3640 H 342.412 -0.658571 0.128551 0
M  V30 3641 H 344.956 -1.78399 0.999701 0
M  V30 3642 H 343.111 -3.85645 -0.368355 0
M  V30 3643 H 343.525 -5.02181 1.51375 0
M  V30 3644 H 344.999 -5.51864 -0.122687 0
M  V30 3645 H 345.476 -4.22068 -1.21472 0
M  V30 3646 H 346.082 -4.22832 0.457469 0
M  V30 3647 N 344.397 -0.483516 -1.5 0
M  V30 3648 C 345.643 0.0672592 -2.02688 0
M  V30 3649 C 345.976 1.38247 -1.36387 0
M  V30 3650 O 345.251 1.88131 -0.493675 0
M  V30 3651 C 345.534 0.238109 -3.59312 0
M  V30 3652 C 345.387 -1.099 -4.36168 0
M  V30 3653 C 346.706 0.986916 -4.28892 0
M  V30 3654 H 343.825 0.0229696 -0.736642 0
M  V30 3655 H 346.467 -0.631527 -1.79197 0
M  V30 3656 H 344.617 0.8333 -3.79458 0
M  V30 3657 H 346.289 -1.73172 -4.27562 0
M  V30 3658 H 344.532 -1.69261 -3.99416 0
M  V30 3659 H 345.203 -0.932954 -5.44059 0
M  V30 3660 H 347.679 0.482302 -4.13295 0
M  V30 3661 H 346.555 1.07527 -5.38265 0
M  V30 3662 H 346.816 2.0265 -3.92919 0
M  V30 3663 N 345.875 1.56104 -0.216619 0
M  V30 3664 C 346.823 2.21434 0.712036 0
M  V30 3665 C 347.817 1.19218 1.20348 0
M  V30 3666 O 349.023 1.3731 1.16387 0
M  V30 3667 H 345.398 0.70992 0.248026 0
M  V30 3668 H 347.369 2.98083 0.137558 0
M  V30 3669 C 346.118 2.90434 1.91163 0
M  V30 3670 H 345.441 3.68842 1.54258 0
M  V30 3671 H 346.881 3.39552 2.5393 0
M  V30 3672 C 345.34 1.92635 2.76394 0
M  V30 3673 O 345.87 1.44017 3.74996 0
M  V30 3674 N 344.076 1.60392 2.42328 0
M  V30 3675 H 343.623 2.00122 1.622 0
M  V30 3676 H 343.581 0.952159 2.99635 0
M  V30 3677 N 347.353 -0.0568162 1.57498 0
M  V30 3678 C 348.263 -1.08346 2.08083 0
M  V30 3679 C 349.279 -1.41439 1.01346 0
M  V30 3680 O 350.455 -1.51316 1.32912 0
M  V30 3681 C 347.52 -2.37352 2.52715 0
M  V30 3682 C 346.581 -2.11093 3.73816 0
M  V30 3683 C 345.814 -3.33949 4.1631 0
M  V30 3684 O 346.037 -4.43622 3.58547 0
M  V30 3685 O 344.971 -3.21279 5.08983 0
M  V30 3686 H 348.797 -0.683667 2.95905 0
M  V30 3687 H 346.382 -0.271965 1.46904 0
M  V30 3688 H 348.264 -3.13246 2.81877 0
M  V30 3689 H 346.939 -2.76681 1.68016 0
M  V30 3690 H 345.846 -1.32856 3.49714 0
M  V30 3691 H 347.179 -1.76637 4.59413 0
M  V30 3692 N 348.832 -1.54138 -0.328536 0
M  V30 3693 C 350.109 -1.62749 -1.08499 0
M  V30 3694 C 350.489 -0.458198 -2.06067 0
M  V30 3695 O 349.837 0.548046 -2.2183 0
M  V30 3696 C 350.047 -2.99519 -1.79135 0
M  V30 3697 C 351.395 -3.55394 -2.32337 0
M  V30 3698 O 352.419 -3.01792 -1.89209 0
M  V30 3699 O 351.278 -4.49186 -3.11279 0
M  V30 3700 H 348.372 -0.65886 -0.499832 0
M  V30 3701 H 350.918 -1.66484 -0.328826 0
M  V30 3702 H 349.69 -3.76061 -1.08139 0
M  V30 3703 H 349.313 -2.99441 -2.61574 0
M  V30 3704 N 350.31 0.590341 -1.46126 0
M  V30 3705 C 351.535 1.37991 -1.54833 0
M  V30 3706 C 351.96 1.87163 -0.187506 0
M  V30 3707 O 351.318 1.61133 0.831008 0
M  V30 3708 C 351.366 2.54867 -2.55098 0
M  V30 3709 O 350.47 3.56061 -2.08073 0
M  V30 3710 H 349.811 0.411265 -0.521303 0
M  V30 3711 H 352.341 0.716819 -1.91632 0
M  V30 3712 H 352.351 3.01886 -2.74461 0
M  V30 3713 H 351.026 2.18429 -3.53923 0
M  V30 3714 H 349.603 3.15574 -1.98664 0
M  V30 3715 N 351.788 1.33704 0.83433 0
M  V30 3716 C 352.698 1.26382 1.97648 0
M  V30 3717 C 353.714 0.173548 1.73132 0
M  V30 3718 O 354.89 0.397962 1.97429 0
M  V30 3719 C 351.955 1.00769 3.31733 0
M  V30 3720 C 351.016 2.1884 3.69334 0
M  V30 3721 C 350.249 1.9444 4.9702 0
M  V30 3722 O 350.472 0.896961 5.63303 0
M  V30 3723 O 349.406 2.81093 5.32231 0
M  V30 3724 H 353.232 2.22444 2.06767 0
M  V30 3725 H 350.817 1.13795 0.968037 0
M  V30 3726 H 352.699 0.882186 4.12062 0
M  V30 3727 H 351.374 0.0773783 3.23608 0
M  V30 3728 H 350.281 2.36946 2.89495 0
M  V30 3729 H 351.614 3.10221 3.82131 0
M  V30 3730 N 353.266 -1.05314 1.17247 0
M  V30 3731 C 354.514 -1.77941 0.958194 0
M  V30 3732 C 354.835 -1.88089 -0.514556 0
M  V30 3733 O 354.105 -1.39676 -1.37359 0
M  V30 3734 H 352.685 -0.659116 0.351533 0
M  V30 3735 H 355.347 -1.27166 1.47699 0
M  V30 3736 H 354.443 -2.79663 1.38546 0
M  V30 3737 N 354.744 -0.972509 -1.24016 0
M  V30 3738 C 356.16 -0.679827 -1.44397 0
M  V30 3739 C 356.36 0.756716 -1.86751 0
M  V30 3740 O 355.416 1.53007 -2.00861 0
M  V30 3741 C 356.729 -1.66803 -2.50195 0
M  V30 3742 C 358.277 -1.68119 -2.64017 0
M  V30 3743 C 358.752 -2.65748 -3.73017 0
M  V30 3744 N 360.243 -2.64219 -3.8045 0
M  V30 3745 C 360.978 -3.36433 -4.64328 0
M  V30 3746 N 360.474 -4.1818 -5.52356 0
M  V30 3747 N 362.267 -3.25235 -4.58453 0
M  V30 3748 H 354.418 -1.90059 -0.948228 0
M  V30 3749 H 356.681 -0.818527 -0.478245 0
M  V30 3750 H 356.387 -2.69498 -2.25973 0
M  V30 3751 H 356.261 -1.4446 -3.48441 0
M  V30 3752 H 358.648 -0.661319 -2.87594 0
M  V30 3753 H 358.729 -1.94525 -1.66113 0
M  V30 3754 H 358.373 -3.67872 -3.50189 0
M  V30 3755 H 358.303 -2.36619 -4.70446 0
M  V30 3756 H 360.794 -2.04887 -3.17537 0
M  V30 3757 H 361.107 -4.70157 -6.13329 0
M  V30 3758 H 359.452 -4.22273 -5.52006 0
M  V30 3759 H 362.643 -2.60829 -3.88698 0
M  V30 3760 H 362.816 -3.81776 -5.23594 0
M  V30 3761 N 356.222 1.38976 -0.743202 0
M  V30 3762 C 357.499 1.94351 -0.220705 0
M  V30 3763 C 357.879 1.67935 1.2791 0
M  V30 3764 O 357.227 1.01211 2.04862 0
M  V30 3765 C 357.437 3.44426 -0.563171 0
M  V30 3766 C 358.785 4.2144 -0.517046 0
M  V30 3767 O 359.809 3.52661 -0.500846 0
M  V30 3768 O 358.668 5.44032 -0.518806 0
M  V30 3769 H 355.762 0.825879 -0.043047 0
M  V30 3770 H 358.308 1.48429 -0.822618 0
M  V30 3771 H 357.08 3.5712 -1.59941 0
M  V30 3772 H 356.703 3.97543 0.0672883 0
M  V30 3773 N 357.7 0.491464 1.49741 0
M  V30 3774 C 358.63 -0.28154 2.31796 0
M  V30 3775 C 359.611 -0.971473 1.3963 0
M  V30 3776 O 360.796 -0.964719 1.68543 0
M  V30 3777 C 357.926 -1.35203 3.19902 0
M  V30 3778 C 356.88 -0.782529 4.20786 0
M  V30 3779 C 356.206 -1.95283 4.97764 0
M  V30 3780 C 357.506 0.21999 5.21837 0
M  V30 3781 H 359.2 0.403355 2.96671 0
M  V30 3782 H 356.746 0.195425 1.42668 0
M  V30 3783 H 358.699 -1.90045 3.76113 0
M  V30 3784 H 357.423 -2.06598 2.52953 0
M  V30 3785 H 356.082 -0.255928 3.65706 0
M  V30 3786 H 355.73 -2.65423 4.2727 0
M  V30 3787 H 355.43 -1.57789 5.66018 0
M  V30 3788 H 356.954 -2.50577 5.56816 0
M  V30 3789 H 358.368 -0.23996 5.72798 0
M  V30 3790 H 356.765 0.51026 5.97927 0
M  V30 3791 H 357.835 1.13911 4.7133 0
M  V30 3792 N 359.178 -1.55987 0.224894 0
M  V30 3793 C 360.594 -1.59066 -0.130426 0
M  V30 3794 C 360.794 -1.24176 -1.5869 0
M  V30 3795 O 359.85 -0.978592 -2.32766 0
M  V30 3796 C 361.163 -3.00042 0.198883 0
M  V30 3797 C 362.711 -3.1268 0.141391 0
M  V30 3798 C 363.186 -4.55839 0.444422 0
M  V30 3799 N 364.677 -4.6152 0.394115 0
M  V30 3800 C 365.412 -5.70231 0.602038 0
M  V30 3801 N 364.908 -6.87291 0.871914 0
M  V30 3802 N 366.701 -5.59555 0.534245 0
M  V30 3803 H 358.852 -1.76941 1.17497 0
M  V30 3804 H 361.115 -0.822604 0.471197 0
M  V30 3805 H 360.821 -3.30234 1.2099 0
M  V30 3806 H 360.695 -3.74075 -0.484535 0
M  V30 3807 H 363.082 -2.82283 -0.860265 0
M  V30 3808 H 363.163 -2.40969 0.858335 0
M  V30 3809 H 362.807 -4.86954 1.44353 0
M  V30 3810 H 362.737 -5.2578 -0.293752 0
M  V30 3811 H 365.228 -3.77405 0.193356 0
M  V30 3812 H 365.541 -7.66058 1.01858 0
M  V30 3813 H 363.886 -6.89028 0.909145 0
M  V30 3814 H 367.077 -4.6698 0.323612 0
M  V30 3815 H 367.25 -6.44211 0.699693 0
M  V30 3816 N 360.656 0.0484629 -1.57525 0
M  V30 3817 C 361.588 1.08222 -2.02041 0
M  V30 3818 C 362.601 1.33621 -0.930012 0
M  V30 3819 O 363.79 1.3145 -1.20761 0
M  V30 3820 C 360.89 2.42818 -2.36416 0
M  V30 3821 C 360.063 2.37049 -3.67596 0
M  V30 3822 C 359.122 3.53937 -3.89378 0
M  V30 3823 O 358.148 3.34308 -4.60681 0
M  V30 3824 N 359.35 4.75126 -3.3352 0
M  V30 3825 H 362.115 0.702946 -2.9134 0
M  V30 3826 H 359.676 0.236745 -1.6016 0
M  V30 3827 H 361.668 3.197 -2.48141 0
M  V30 3828 H 360.238 2.72661 -1.52888 0
M  V30 3829 H 359.458 1.45395 -3.66407 0
M  V30 3830 H 360.746 2.30318 -4.53686 0
M  V30 3831 H 360.144 4.93976 -2.75688 0
M  V30 3832 H 358.701 5.49439 -3.50656 0
M  V30 3833 N 362.134 1.5431 0.320358 0
M  V30 3834 C 363.38 1.72924 1.05949 0
M  V30 3835 C 363.713 0.503185 1.87568 0
M  V30 3836 O 362.988 -0.499839 1.87968 0
M  V30 3837 C 363.271 3.00676 1.98156 0
M  V30 3838 C 363.124 4.3354 1.19845 0
M  V30 3839 C 364.443 3.24198 2.9763 0
M  V30 3840 H 361.562 0.629195 0.383774 0
M  V30 3841 H 364.204 1.87008 0.335854 0
M  V30 3842 H 362.354 2.888 2.59859 0
M  V30 3843 H 364.026 4.57305 0.605773 0
M  V30 3844 H 362.269 4.309 0.500784 0
M  V30 3845 H 362.94 5.19156 1.87567 0
M  V30 3846 H 365.416 3.35557 2.4605 0
M  V30 3847 H 364.292 4.14938 3.59329 0
M  V30 3848 H 364.553 2.41577 3.7026 0
M  V30 3849 N 363.613 -0.582584 1.46437 0
M  V30 3850 C 364.841 -1.36682 1.55324 0
M  V30 3851 C 365.256 -1.87796 0.194409 0
M  V30 3852 O 364.613 -1.63623 -0.808318 0
M  V30 3853 C 364.664 -2.55426 2.55812 0
M  V30 3854 O 364.385 -2.0643 3.86417 0
M  V30 3855 C 365.886 -3.47976 2.74641 0
M  V30 3856 H 363.106 -0.417545 0.525259 0
M  V30 3857 H 365.65 -0.708219 1.91845 0
M  V30 3858 H 363.805 -3.17275 2.22295 0
M  V30 3859 H 364.219 -2.83762 4.41111 0
M  V30 3860 H 365.693 -4.27775 3.48874 0
M  V30 3861 H 366.17 -3.99919 1.81553 0
M  V30 3862 H 366.776 -2.91962 3.09255 0
M  V30 3863 N 365.091 -1.34144 -0.827227 0
M  V30 3864 C 366.316 -1.29476 -1.62021 0
M  V30 3865 C 366.741 0.129292 -1.87655 0
M  V30 3866 O 366.099 1.08967 -1.449 0
M  V30 3867 C 366.147 -2.08702 -2.94068 0
M  V30 3868 O 365.251 -1.45359 -3.85933 0
M  V30 3869 H 364.592 -0.444881 -0.492927 0
M  V30 3870 H 367.122 -1.76882 -1.02829 0
M  V30 3871 H 367.132 -2.19898 -3.43669 0
M  V30 3872 H 365.807 -3.12241 -2.74734 0
M  V30 3873 H 364.384 -1.42879 -3.44442 0
M  V30 3874 N 366.569 1.04691 -1.17803 0
M  V30 3875 C 367.797 1.81446 -0.99423 0
M  V30 3876 C 368.212 1.83174 0.457459 0
M  V30 3877 O 367.569 1.26265 1.31771 0
M  V30 3878 C 367.62 3.27334 -1.5341 0
M  V30 3879 O 367.341 3.25798 -2.92895 0
M  V30 3880 C 368.842 4.20759 -1.39559 0
M  V30 3881 H 366.062 0.571599 -0.351447 0
M  V30 3882 H 368.606 1.31982 -1.56208 0
M  V30 3883 H 366.761 3.74052 -1.00815 0
M  V30 3884 H 367.175 4.17144 -3.17949 0
M  V30 3885 H 368.649 5.21084 -1.82141 0
M  V30 3886 H 369.126 4.37856 -0.343394 0
M  V30 3887 H 369.732 3.79901 -1.91195 0
M  V30 3888 N 368.047 0.979072 1.23499 0
M  V30 3889 C 369.275 0.665202 1.95915 0
M  V30 3890 C 369.69 -0.767571 1.72493 0
M  V30 3891 O 369.047 -1.51635 1.01554 0
M  V30 3892 C 369.098 0.944438 3.48945 0
M  V30 3893 O 368.819 2.3209 3.71572 0
M  V30 3894 C 370.32 0.646336 4.38563 0
M  V30 3895 H 367.54 0.247218 0.623798 0
M  V30 3896 H 370.084 1.31009 1.57025 0
M  V30 3897 H 368.239 0.345575 3.85856 0
M  V30 3898 H 368.653 2.40957 4.65876 0
M  V30 3899 H 370.127 0.892091 5.44744 0
M  V30 3900 H 370.604 -0.419575 4.37191 0
M  V30 3901 H 371.21 1.22562 4.07258 0
M  V30 3902 N 369.525 -1.3858 0.750561 0
M  V30 3903 C 370.472 -2.30483 0.120835 0
M  V30 3904 C 371.442 -1.50022 -0.712923 0
M  V30 3905 O 372.627 -1.78662 -0.669676 0
M  V30 3906 C 369.767 -3.36431 -0.768666 0
M  V30 3907 C 368.88 -4.31927 0.0793922 0
M  V30 3908 C 368.015 -5.24944 -0.81283 0
M  V30 3909 C 367.054 -6.12088 0.0390447 0
M  V30 3910 N 366.191 -6.97412 -0.809969 0
M  V30 3911 H 371.031 -2.83761 0.91015 0
M  V30 3912 H 368.568 -1.39707 0.460463 0
M  V30 3913 H 370.526 -3.96462 -1.29898 0
M  V30 3914 H 369.156 -2.8457 -1.5238 0
M  V30 3915 H 368.208 -3.73382 0.727303 0
M  V30 3916 H 369.52 -4.93319 0.737401 0
M  V30 3917 H 368.674 -5.90078 -1.41042 0
M  V30 3918 H 367.413 -4.63911 -1.50458 0
M  V30 3919 H 366.418 -5.45952 0.649328 0
M  V30 3920 H 367.643 -6.75189 0.727809 0
M  V30 3921 H 365.589 -6.38931 -1.48672 0
M  V30 3922 H 365.506 -7.55712 -0.208789 0
M  V30 3923 H 366.774 -7.66959 -1.39263 0
M  V30 3924 N 371.003 -0.499398 -1.49478 0
M  V30 3925 C 372.228 0.044722 -2.07352 0
M  V30 3926 C 372.653 1.30207 -1.35749 0
M  V30 3927 O 372.011 1.76516 -0.413732 0
M  V30 3928 C 372.059 0.283013 -3.59488 0
M  V30 3929 O 371.163 1.35804 -3.89398 0
M  V30 3930 H 370.504 -0.0255147 -0.66351 0
M  V30 3931 H 373.034 -0.698561 -1.92305 0
M  V30 3932 H 373.044 0.515007 -4.04737 0
M  V30 3933 H 371.719 -0.635636 -4.11014 0
M  V30 3934 H 370.296 1.11113 -3.55961 0
M  V30 3935 N 372.481 1.55866 -0.233164 0
M  V30 3936 C 373.721 2.00506 0.397078 0
M  V30 3937 C 374.085 1.1176 1.56121 0
M  V30 3938 O 375.286 1.45796 2.25825 0
M  V30 3939 C 373.557 3.4811 0.809601 0
M  V30 3940 S 375.116 4.14765 1.43231 0
M  V30 3941 H 371.934 0.699828 0.125547 0
M  V30 3942 H 374.536 1.92429 -0.345177 0
M  V30 3943 H 373.24 4.10373 -0.0471601 0
M  V30 3944 H 372.771 3.60085 1.58438 0
M  V30 3945 H 374.786 4.14914 2.7214 0
M  V30 3946 N 373.959 -0.0401083 1.57549 0
M  V30 3947 C 375.375 -0.395556 1.54621 0
M  V30 3948 C 375.575 -1.77281 0.957799 0
M  V30 3949 O 374.631 -2.45888 0.574031 0
M  V30 3950 C 375.944 -0.307535 2.99123 0
M  V30 3951 C 377.492 -0.385425 3.10618 0
M  V30 3952 C 377.967 -0.326973 4.56831 0
M  V30 3953 N 379.458 -0.386102 4.61588 0
M  V30 3954 C 380.193 -0.363591 5.72246 0
M  V30 3955 N 379.689 -0.29402 6.92176 0
M  V30 3956 N 381.482 -0.412503 5.60584 0
M  V30 3957 H 373.633 0.861325 1.94152 0
M  V30 3958 H 375.896 0.326445 0.890021 0
M  V30 3959 H 375.602 0.638461 3.45856 0
M  V30 3960 H 375.476 -1.10552 3.60636 0
M  V30 3961 H 377.863 -1.32185 2.63839 0
M  V30 3962 H 377.944 0.44171 2.51957 0
M  V30 3963 H 377.588 0.605738 5.04275 0
M  V30 3964 H 377.518 -1.17207 5.13391 0
M  V30 3965 H 380.009 -0.442832 3.75296 0
M  V30 3966 H 380.322 -0.28164 7.72287 0
M  V30 3967 H 378.667 -0.260232 6.94513 0
M  V30 3968 H 381.858 -0.464769 4.65787 0
M  V30 3969 H 382.031 -0.391492 6.46816 0
M  V30 3970 N 375.437 -1.54477 -0.31217 0
M  V30 3971 C 376.347 -1.87695 -1.4074 0
M  V30 3972 C 377.363 -0.769975 -1.56036 0
M  V30 3973 O 378.539 -1.06537 -1.70915 0
M  V30 3974 C 375.604 -2.10755 -2.75287 0
M  V30 3975 C 374.665 -3.34514 -2.69071 0
M  V30 3976 C 373.898 -3.56465 -3.97201 0
M  V30 3977 O 374.121 -2.81637 -4.96021 0
M  V30 3978 O 373.055 -4.49964 -3.9977 0
M  V30 3979 H 376.881 -2.80849 -1.15574 0
M  V30 3980 H 374.466 -1.40526 -0.507228 0
M  V30 3981 H 376.348 -2.27188 -3.54913 0
M  V30 3982 H 375.023 -1.20788 -3.0032 0
M  V30 3983 H 373.93 -3.23456 -1.87955 0
M  V30 3984 H 375.263 -4.24575 -2.48992 0
M  V30 3985 N 376.915 0.57481 -1.46744 0
M  V30 3986 C 377.862 1.68329 -1.57905 0
M  V30 3987 C 378.832 1.60625 -0.422927 0
M  V30 3988 O 380.017 1.79721 -0.640711 0
M  V30 3989 C 377.157 3.06665 -1.58274 0
M  V30 3990 C 376.27 3.24935 -2.84678 0
M  V30 3991 C 375.405 4.53566 -2.76499 0
M  V30 3992 C 374.444 4.65207 -3.97806 0
M  V30 3993 N 373.581 5.85172 -3.87967 0
M  V30 3994 H 378.421 1.58127 -2.52587 0
M  V30 3995 H 375.958 0.770552 -1.25303 0
M  V30 3996 H 377.916 3.86745 -1.56473 0
M  V30 3997 H 376.546 3.15745 -0.671194 0
M  V30 3998 H 375.598 2.38405 -2.96424 0
M  V30 3999 H 376.91 3.29403 -3.7456 0
M  V30 4000 H 376.064 5.41885 -2.72848 0
M  V30 4001 H 374.803 4.51548 -1.8427 0
M  V30 4002 H 373.808 3.75304 -4.0178 0
M  V30 4003 H 375.033 4.68997 -4.9114 0
M  V30 4004 H 372.979 5.84137 -2.98529 0
M  V30 4005 H 372.896 5.90943 -4.71511 0
M  V30 4006 H 374.164 6.759 -3.88303 0
M  V30 4007 N 378.394 1.34581 0.820102 0
M  V30 4008 C 379.622 1.3018 1.60813 0
M  V30 4009 C 380.037 -0.123551 1.88395 0
M  V30 4010 O 379.394 -1.07148 1.47735 0
M  V30 4011 C 379.445 2.09312 2.94739 0
M  V30 4012 O 379.166 3.46288 2.68358 0
M  V30 4013 C 380.667 2.1234 3.89136 0
M  V30 4014 H 377.887 0.447726 0.499782 0
M  V30 4015 H 380.431 1.77237 1.02017 0
M  V30 4016 H 378.586 1.65889 3.50085 0
M  V30 4017 H 379 3.87227 3.53774 0
M  V30 4018 H 380.474 2.72126 4.80262 0
M  V30 4019 H 380.951 1.11854 4.24718 0
M  V30 4020 H 381.557 2.55864 3.39726 0
M  V30 4021 N 379.872 -1.04064 1.18357 0
M  V30 4022 C 380.782 -2.15569 0.925596 0
M  V30 4023 C 381.798 -1.7365 -0.110295 0
M  V30 4024 O 382.974 -2.01273 0.0716218 0
M  V30 4025 C 380.039 -3.43704 0.454836 0
M  V30 4026 C 379.1 -4.00004 1.55869 0
M  V30 4027 C 378.333 -5.22023 1.1103 0
M  V30 4028 O 378.556 -5.70392 -0.0309756 0
M  V30 4029 O 377.49 -5.70856 1.90805 0
M  V30 4030 H 381.316 -2.40187 1.8586 0
M  V30 4031 H 378.901 -1.1402 0.965394 0
M  V30 4032 H 380.783 -4.20923 0.200382 0
M  V30 4033 H 379.458 -3.20559 -0.449876 0
M  V30 4034 H 378.365 -3.24172 1.86716 0
M  V30 4035 H 379.698 -4.2749 2.43953 0
M  V30 4036 N 381.35 -0.985608 -1.22978 0
M  V30 4037 C 382.28 -0.549649 -2.26939 0
M  V30 4038 C 383.261 0.419803 -1.64838 0
M  V30 4039 O 384.446 0.31203 -1.91677 0
M  V30 4040 C 381.576 0.143652 -3.47003 0
M  V30 4041 C 380.53 -0.743606 -4.21491 0
M  V30 4042 C 379.856 0.0822027 -5.34637 0
M  V30 4043 C 381.156 -2.03694 -4.80943 0
M  V30 4044 H 382.85 -1.41862 -2.63658 0
M  V30 4045 H 380.396 -0.683571 -1.26741 0
M  V30 4046 H 382.349 0.459985 -4.18882 0
M  V30 4047 H 381.073 1.04711 -3.09359 0
M  V30 4048 H 379.732 -1.04347 -3.51436 0
M  V30 4049 H 379.38 0.986359 -4.93234 0
M  V30 4050 H 379.08 -0.508377 -5.85397 0
M  V30 4051 H 380.604 0.392797 -6.09335 0
M  V30 4052 H 382.018 -1.78504 -5.44802 0
M  V30 4053 H 380.415 -2.57573 -5.42011 0
M  V30 4054 H 381.485 -2.72042 -4.01399 0
M  V30 4055 N 382.828 1.3818 -0.7579 0
M  V30 4056 C 384.056 2.04301 -0.326937 0
M  V30 4057 C 384.471 1.57163 1.0462 0
M  V30 4058 O 383.828 0.746626 1.66529 0
M  V30 4059 C 383.879 3.59846 -0.345363 0
M  V30 4060 O 383.6 4.05256 -1.66432 0
M  V30 4061 C 385.101 4.4319 0.098927 0
M  V30 4062 H 382.321 0.656443 -0.139012 0
M  V30 4063 H 384.865 1.76786 -1.02796 0
M  V30 4064 H 383.02 3.86182 0.306955 0
M  V30 4065 H 383.434 4.99709 -1.59345 0
M  V30 4066 H 384.908 5.51989 0.0348745 0
M  V30 4067 H 385.385 4.23947 1.14741 0
M  V30 4068 H 385.991 4.22051 -0.52468 0
M  V30 4069 N 384.306 0.507319 1.49211 0
M  V30 4070 C 385.717 0.0611118 1.866 0
M  V30 4071 C 386.068 -1.35488 1.41907 0
M  V30 4072 O 385.193 -2.0108 0.799726 0
M  V30 4073 C 385.788 0.104125 3.3864 0
M  V30 4074 C 384.347 -0.28677 3.75306 0
M  V30 4075 C 383.494 0.473893 2.73221 0
M  V30 4076 H 386.445 0.719775 1.41439 0
M  V30 4077 H 386.466 -0.689672 3.74198 0
M  V30 4078 H 385.978 1.13482 3.71138 0
M  V30 4079 H 384.079 -1.32046 3.48417 0
M  V30 4080 H 384.192 0.0370745 4.79086 0
M  V30 4081 H 382.556 -0.0770644 2.54583 0
M  V30 4082 H 383.339 1.50478 3.08563 0
M  V30 4083 N 385.784 -1.5574 0.241426 0
M  V30 4084 C 387.061 -1.90704 -0.434881 0
M  V30 4085 C 387.441 -1.16145 -1.76277 0
M  V30 4086 O 386.789 -0.277152 -2.26813 0
M  V30 4087 C 386.999 -3.43657 -0.608343 0
M  V30 4088 C 388.347 -4.14806 -0.906725 0
M  V30 4089 O 389.371 -3.49366 -0.694408 0
M  V30 4090 O 388.23 -5.30548 -1.31075 0
M  V30 4091 H 385.324 -0.793592 -0.23268 0
M  V30 4092 H 387.87 -1.67288 0.285086 0
M  V30 4093 H 386.642 -3.89927 0.327505 0
M  V30 4094 H 386.265 -3.72918 -1.37906 0
M  V30 4095 N 387.262 0.0317525 -1.57568 0
M  V30 4096 C 388.194 1.06073 -2.03178 0
M  V30 4097 C 389.207 1.32627 -0.944132 0
M  V30 4098 O 390.396 1.30162 -1.22148 0
M  V30 4099 C 387.496 2.40297 -2.38978 0
M  V30 4100 C 386.669 2.33137 -3.70089 0
M  V30 4101 C 385.728 3.49787 -3.9311 0
M  V30 4102 O 384.754 3.29403 -4.64201 0
M  V30 4103 N 385.956 4.71562 -3.38541 0
M  V30 4104 H 388.721 0.672006 -2.92069 0
M  V30 4105 H 386.282 0.219745 -1.60402 0
M  V30 4106 H 388.274 3.1705 -2.51518 0
M  V30 4107 H 386.844 2.71024 -1.55771 0
M  V30 4108 H 386.064 1.415 -3.67928 0
M  V30 4109 H 387.352 2.25493 -4.56104 0
M  V30 4110 H 386.75 4.91024 -2.80912 0
M  V30 4111 H 385.307 5.45689 -3.56464 0
M  V30 4112 N 388.74 1.54641 0.303973 0
M  V30 4113 C 389.672 1.81754 1.39636 0
M  V30 4114 C 390.685 0.70035 1.46966 0
M  V30 4115 O 391.874 0.97778 1.49338 0
M  V30 4116 C 388.974 1.93785 2.7803 0
M  V30 4117 C 388.147 3.24156 2.93669 0
M  V30 4118 C 387.206 3.26641 4.12544 0
M  V30 4119 O 386.232 4.00187 4.04771 0
M  V30 4120 N 387.434 2.5182 5.23036 0
M  V30 4121 H 390.199 2.76031 1.16734 0
M  V30 4122 H 387.76 1.54178 0.494033 0
M  V30 4123 H 389.752 1.92852 3.55795 0
M  V30 4124 H 388.322 1.06515 2.93893 0
M  V30 4125 H 387.542 3.37887 2.03042 0
M  V30 4126 H 388.83 4.10195 3.01027 0
M  V30 4127 H 388.228 1.91692 5.32232 0
M  V30 4128 H 386.785 2.56644 5.99147 0
M  V30 4129 N 390.218 -0.567019 1.47046 0
M  V30 4130 C 391.446 -1.35027 1.56765 0
M  V30 4131 C 391.861 -1.8758 0.214316 0
M  V30 4132 O 391.218 -1.64471 -0.790919 0
M  V30 4133 C 391.269 -2.52698 2.58507 0
M  V30 4134 O 390.99 -2.0232 3.88585 0
M  V30 4135 C 392.491 -3.45043 2.78316 0
M  V30 4136 H 389.711 -0.41195 0.529658 0
M  V30 4137 H 392.255 -0.687832 1.92585 0
M  V30 4138 H 390.41 -3.149 2.25648 0
M  V30 4139 H 390.824 -2.79068 4.44096 0
M  V30 4140 H 392.298 -4.2405 3.53391 0
M  V30 4141 H 392.775 -3.97971 1.85784 0
M  V30 4142 H 393.381 -2.88665 3.12334 0
M  V30 4143 N 391.696 -1.35014 -0.812953 0
M  V30 4144 C 392.626 -1.30069 -1.93919 0
M  V30 4145 C 393.607 -0.176275 -1.69184 0
M  V30 4146 O 394.792 -0.370227 -1.90638 0
M  V30 4147 C 391.922 -1.06547 -3.30552 0
M  V30 4148 C 390.876 -2.15561 -3.69753 0
M  V30 4149 C 390.202 -1.77214 -5.04479 0
M  V30 4150 C 391.502 -3.57476 -3.808 0
M  V30 4151 H 393.196 -2.24303 -1.98314 0
M  V30 4152 H 390.742 -1.07977 -0.952736 0
M  V30 4153 H 392.695 -1.01729 -4.08937 0
M  V30 4154 H 391.419 -0.0875719 -3.26483 0
M  V30 4155 H 390.078 -2.19466 -2.9365 0
M  V30 4156 H 389.726 -0.780589 -4.96906 0
M  V30 4157 H 389.426 -2.50184 -5.31678 0
M  V30 4158 H 390.95 -1.7391 -5.8531 0
M  V30 4159 H 392.364 -3.55929 -4.4943 0
M  V30 4160 H 390.761 -4.29152 -4.19462 0
M  V30 4161 H 391.831 -3.94091 -2.82525 0
M  V30 4162 N 393.175 1.03435 -1.18907 0
M  V30 4163 C 394.105 2.13503 -0.945448 0
M  V30 4164 C 395.086 1.69682 0.119189 0
M  V30 4165 O 396.271 1.94169 -0.034707 0
M  V30 4166 C 393.401 3.44004 -0.477316 0
M  V30 4167 C 392.355 4.0148 -1.48316 0
M  V30 4168 C 391.681 5.27537 -0.872311 0
M  V30 4169 C 392.981 4.36921 -2.86177 0
M  V30 4170 H 394.675 2.34141 -1.86597 0
M  V30 4171 H 392.221 1.12523 -0.898584 0
M  V30 4172 H 394.174 4.20372 -0.294204 0
M  V30 4173 H 392.898 3.23072 0.478786 0
M  V30 4174 H 391.557 3.27201 -1.65332 0
M  V30 4175 H 391.205 5.02917 0.0911752 0
M  V30 4176 H 390.905 5.66954 -1.54393 0
M  V30 4177 H 392.429 6.06576 -0.699871 0
M  V30 4178 H 393.843 5.04248 -2.72776 0
M  V30 4179 H 392.24 4.87405 -3.50081 0
M  V30 4180 H 393.31 3.46466 -3.39248 0
M  V30 4181 N 394.653 0.992116 1.22453 0
M  V30 4182 C 395.603 0.512969 2.22155 0
M  V30 4183 C 396.587 -0.418416 1.55364 0
M  V30 4184 O 397.779 -0.245363 1.75291 0
M  V30 4185 C 394.908 -0.171822 3.4287 0
M  V30 4186 C 393.994 0.779822 4.16869 0
M  V30 4187 N 394.385 1.92734 4.6764 0
M  V30 4188 C 392.683 0.59554 4.42006 0
M  V30 4189 C 393.384 2.52458 5.24061 0
M  V30 4190 N 392.36 1.80735 5.12675 0
M  V30 4191 H 396.162 1.38817 2.5905 0
M  V30 4192 H 393.676 0.854277 1.38115 0
M  V30 4193 H 395.673 -0.532469 4.13486 0
M  V30 4194 H 394.333 -1.04317 3.07487 0
M  V30 4195 H 395.344 2.30816 4.63621 0
M  V30 4196 H 392.021 -0.229805 4.16867 0
M  V30 4197 H 393.411 3.49433 5.73887 0
M  V30 4198 N 396.131 -1.37776 0.765217 0
M  V30 4199 C 397.378 -1.99849 0.326588 0
M  V30 4200 C 397.706 -1.60746 -1.09504 0
M  V30 4201 O 396.961 -0.84202 -1.76659 0
M  V30 4202 C 397.26 -3.5504 0.410053 0
M  V30 4203 C 396.926 -4.13891 1.78899 0
M  V30 4204 C 395.588 -4.29678 2.16635 0
M  V30 4205 C 397.94 -4.46236 2.69301 0
M  V30 4206 C 395.268 -4.7511 3.44221 0
M  V30 4207 C 397.62 -4.93089 3.9629 0
M  V30 4208 C 396.284 -5.07082 4.34078 0
M  V30 4209 H 395.554 -0.7313 0.119507 0
M  V30 4210 H 398.201 -1.64645 0.977968 0
M  V30 4211 H 396.506 -3.90451 -0.324878 0
M  V30 4212 H 398.203 -4.00966 0.0520699 0
M  V30 4213 H 394.793 -4.02026 1.48569 0
M  V30 4214 H 398.977 -4.3363 2.41409 0
M  V30 4215 H 394.233 -4.84129 3.73402 0
M  V30 4216 H 398.407 -5.17084 4.66472 0
M  V30 4217 H 396.034 -5.42046 5.33001 0
M  V30 4218 N 397.609 -0.515225 -1.4894 0
M  V30 4219 C 398.858 0.0261361 -2.01683 0
M  V30 4220 C 399.171 1.36719 -1.39883 0
M  V30 4221 O 400.377 1.99606 -1.84037 0
M  V30 4222 C 398.833 0.0970111 -3.59769 0
M  V30 4223 C 398.441 -1.23825 -4.30548 0
M  V30 4224 C 400.185 0.587981 -4.20408 0
M  V30 4225 C 398.092 -1.12877 -5.80528 0
M  V30 4226 H 397.022 0.0135398 -0.753878 0
M  V30 4227 H 399.673 -0.656787 -1.71343 0
M  V30 4228 H 398.055 0.844694 -3.86886 0
M  V30 4229 H 399.229 -2.00034 -4.15118 0
M  V30 4230 H 397.544 -1.66379 -3.81716 0
M  V30 4231 H 400.141 0.68763 -5.3026 0
M  V30 4232 H 400.484 1.59026 -3.84729 0
M  V30 4233 H 401.017 -0.103582 -3.97665 0
M  V30 4234 H 397.756 -2.10575 -6.20756 0
M  V30 4235 H 397.276 -0.407799 -5.98412 0
M  V30 4236 H 398.955 -0.813332 -6.41868 0
M  V30 4237 N 399.087 1.5561 -0.249682 0
M  V30 4238 C 400.02 2.17537 0.689408 0
M  V30 4239 C 400.998 1.12829 1.17083 0
M  V30 4240 O 402.182 1.41229 1.24846 0
M  V30 4241 C 399.309 2.77828 1.93725 0
M  V30 4242 C 398.355 3.95615 1.59346 0
M  V30 4243 S 399.188 5.30988 0.69367 0
M  V30 4244 C 400.344 5.94734 1.95046 0
M  V30 4245 H 400.577 2.96852 0.163142 0
M  V30 4246 H 398.11 1.54362 -0.0341166 0
M  V30 4247 H 400.068 3.13199 2.65361 0
M  V30 4248 H 398.729 1.98454 2.43465 0
M  V30 4249 H 397.922 4.364 2.52132 0
M  V30 4250 H 397.524 3.61535 0.957512 0
M  V30 4251 H 399.816 6.12419 2.89739 0
M  V30 4252 H 400.759 6.90109 1.58604 0
M  V30 4253 H 401.167 5.23832 2.10381 0
M  V30 4254 N 400.565 -0.0233959 1.57583 0
M  V30 4255 C 401.842 -0.748794 1.807 0
M  V30 4256 C 402.222 -1.9327 0.849106 0
M  V30 4257 O 401.57 -2.28247 -0.107468 0
M  V30 4258 C 401.78 -1.17651 3.28571 0
M  V30 4259 C 403.128 -1.59008 3.93702 0
M  V30 4260 O 404.152 -1.27094 3.32755 0
M  V30 4261 O 403.011 -2.18264 5.01022 0
M  V30 4262 H 400.105 -0.362578 0.743281 0
M  V30 4263 H 402.651 0.000261958 1.697 0
M  V30 4264 H 401.423 -0.331603 3.89892 0
M  V30 4265 H 401.046 -1.98541 3.44481 0
M  V30 4266 N 402.043 -1.548 -0.295768 0
M  V30 4267 C 403.268 -1.78653 -1.05346 0
M  V30 4268 C 403.693 -0.546894 -1.79974 0
M  V30 4269 O 403.051 0.502763 -1.7419 0
M  V30 4270 C 403.099 -2.99679 -2.00561 0
M  V30 4271 O 402.203 -2.7317 -3.08953 0
M  V30 4272 H 401.544 -0.59116 -0.302367 0
M  V30 4273 H 404.074 -2.01895 -0.331598 0
M  V30 4274 H 404.084 -3.27793 -2.42932 0
M  V30 4275 H 402.759 -3.89562 -1.4565 0
M  V30 4276 H 401.336 -2.56089 -2.71059 0
M  V30 4277 N 403.521 0.559213 -1.47345 0
M  V30 4278 C 404.751 1.33999 -1.57251 0
M  V30 4279 C 405.159 1.87905 -0.220978 0
M  V30 4280 O 404.502 1.65577 0.795617 0
M  V30 4281 C 404.564 2.54798 -2.53611 0
M  V30 4282 C 404.228 2.22192 -3.99349 0
M  V30 4283 C 405.225 1.79607 -4.87891 0
M  V30 4284 C 402.91 2.33613 -4.44669 0
M  V30 4285 C 404.904 1.48868 -6.19772 0
M  V30 4286 C 402.591 2.02487 -5.76578 0
M  V30 4287 C 403.589 1.60183 -6.63951 0
M  V30 4288 O 403.277 1.29451 -7.93409 0
M  V30 4289 H 403.009 0.414858 -0.533731 0
M  V30 4290 H 405.563 0.684465 -1.9366 0
M  V30 4291 H 403.793 3.23235 -2.12265 0
M  V30 4292 H 405.482 3.16873 -2.53666 0
M  V30 4293 H 406.248 1.70278 -4.54126 0
M  V30 4294 H 402.127 2.65501 -3.76869 0
M  V30 4295 H 405.671 1.15775 -6.87926 0
M  V30 4296 H 401.568 2.11448 -6.09885 0
M  V30 4297 H 402.336 1.43098 -8.05894 0
M  V30 4298 N 404.999 1.35443 0.805782 0
M  V30 4299 C 405.947 1.28465 1.93906 0
M  V30 4300 C 406.941 0.17943 1.68447 0
M  V30 4301 O 408.147 0.345459 1.76654 0
M  V30 4302 H 404.522 0.399528 0.637088 0
M  V30 4303 H 406.493 2.24206 1.96912 0
M  V30 4304 C 405.242 1.07432 3.30687 0
M  V30 4305 H 404.565 1.91716 3.50835 0
M  V30 4306 H 406.005 1.06591 4.10383 0
M  V30 4307 C 404.464 -0.22179 3.36169 0
M  V30 4308 O 404.994 -1.21731 3.82811 0
M  V30 4309 N 403.2 -0.260841 2.89427 0
M  V30 4310 H 402.747 0.549884 2.51663 0
M  V30 4311 H 402.705 -1.12777 2.93477 0
M  V30 4312 N 406.477 -1.02803 1.19454 0
M  V30 4313 C 407.424 -2.11099 0.933046 0
M  V30 4314 C 408.394 -1.65571 -0.132447 0
M  V30 4315 O 409.579 -1.90797 0.00987576 0
M  V30 4316 C 406.719 -3.41763 0.478747 0
M  V30 4317 C 405.832 -4.00833 1.6111 0
M  V30 4318 C 404.967 -5.19511 1.10825 0
M  V30 4319 C 404.006 -5.70639 2.21445 0
M  V30 4320 N 403.143 -6.80589 1.72461 0
M  V30 4321 H 407.983 -2.32804 1.86028 0
M  V30 4322 H 405.52 -1.14179 0.927441 0
M  V30 4323 H 407.478 -4.16736 0.196745 0
M  V30 4324 H 406.108 -3.20166 -0.411493 0
M  V30 4325 H 405.16 -3.23066 2.00829 0
M  V30 4326 H 406.472 -4.34794 2.4445 0
M  V30 4327 H 405.626 -6.01645 0.781533 0
M  V30 4328 H 404.365 -4.87086 0.244606 0
M  V30 4329 H 403.37 -4.87116 2.54947 0
M  V30 4330 H 404.595 -6.05102 3.08267 0
M  V30 4331 H 402.541 -6.50016 0.884056 0
M  V30 4332 H 402.458 -7.13681 2.49389 0
M  V30 4333 H 403.726 -7.66317 1.42755 0
M  V30 4334 N 407.956 -0.998596 -1.21925 0
M  V30 4335 C 408.888 -0.511879 -2.23411 0
M  V30 4336 C 409.901 0.396094 -1.57908 0
M  V30 4337 O 411.09 0.197316 -1.77406 0
M  V30 4338 C 408.19 0.276802 -3.37768 0
M  V30 4339 C 407.363 -0.628687 -4.32858 0
M  V30 4340 C 406.422 0.109272 -5.26087 0
M  V30 4341 O 405.448 -0.507237 -5.66935 0
M  V30 4342 N 406.65 1.38983 -5.63617 0
M  V30 4343 H 409.415 -1.38457 -2.658 0
M  V30 4344 H 406.976 -0.873981 -1.36283 0
M  V30 4345 H 408.968 0.77928 -3.97126 0
M  V30 4346 H 407.538 1.05063 -2.94415 0
M  V30 4347 H 406.758 -1.31175 -3.71735 0
M  V30 4348 H 408.046 -1.24514 -4.93329 0
M  V30 4349 H 407.444 1.91194 -5.32411 0
M  V30 4350 H 406.001 1.83739 -6.25367 0
M  V30 4351 N 409.434 1.37368 -0.772513 0
M  V30 4352 C 410.85 1.53059 -0.452231 0
M  V30 4353 C 411.05 1.73065 1.03203 0
M  V30 4354 O 410.106 1.75245 1.81784 0
M  V30 4355 C 411.419 2.72659 -1.26797 0
M  V30 4356 C 412.967 2.86521 -1.25995 0
M  V30 4357 C 413.442 4.09105 -2.05905 0
M  V30 4358 N 414.933 4.16219 -2.03263 0
M  V30 4359 C 415.668 5.10107 -2.61875 0
M  V30 4360 N 415.164 6.09547 -3.29278 0
M  V30 4361 N 416.957 5.02596 -2.51701 0
M  V30 4362 H 409.108 1.22634 -1.7342 0
M  V30 4363 H 411.371 0.597206 -0.736239 0
M  V30 4364 H 411.077 2.64343 -2.31982 0
M  V30 4365 H 410.951 3.66363 -0.897672 0
M  V30 4366 H 413.338 2.94308 -0.216081 0
M  V30 4367 H 413.419 1.93774 -1.66989 0
M  V30 4368 H 413.063 4.0208 -3.10313 0
M  V30 4369 H 412.993 5.00968 -1.62292 0
M  V30 4370 H 415.484 3.45012 -1.54192 0
M  V30 4371 H 415.797 6.77718 -3.71374 0
M  V30 4372 H 414.142 6.09824 -3.33377 0
M  V30 4373 H 417.333 4.23855 -1.98657 0
M  V30 4374 H 417.506 5.75582 -2.97673 0
M  V30 4375 N 410.912 0.523116 1.48665 0
M  V30 4376 C 411.845 -0.290518 2.26343 0
M  V30 4377 C 412.823 -0.950913 1.31895 0
M  V30 4378 O 414.007 -0.976662 1.61225 0
M  V30 4379 C 411.134 -1.41088 3.07915 0
M  V30 4380 C 410.18 -0.862597 4.17686 0
M  V30 4381 S 411.013 0.264135 5.34848 0
M  V30 4382 C 412.169 -0.858864 6.19979 0
M  V30 4383 H 412.402 0.368726 2.95005 0
M  V30 4384 H 409.935 0.30878 1.51281 0
M  V30 4385 H 411.893 -2.0527 3.55492 0
M  V30 4386 H 410.554 -2.04182 2.38681 0
M  V30 4387 H 409.747 -1.70287 4.74361 0
M  V30 4388 H 409.349 -0.297595 3.72814 0
M  V30 4389 H 411.641 -1.7591 6.54264 0
M  V30 4390 H 412.584 -0.330244 7.07329 0
M  V30 4391 H 412.992 -1.13617 5.52948 0
M  V30 4392 N 412.39 -1.55475 0.257931 0
M  V30 4393 C 413.801 -1.8511 -0.243135 0
M  V30 4394 C 414.152 -1.17986 -1.5676 0
M  V30 4395 O 413.277 -0.462102 -2.11409 0
M  V30 4396 C 413.872 -3.35826 -0.447929 0
M  V30 4397 C 412.431 -3.65647 -0.893245 0
M  V30 4398 C 411.578 -2.7729 0.0232965 0
M  V30 4399 H 414.529 -1.51261 0.480199 0
M  V30 4400 H 414.55 -3.58002 -1.28898 0
M  V30 4401 H 414.062 -3.84652 0.516196 0
M  V30 4402 H 412.163 -3.22308 -1.86945 0
M  V30 4403 H 412.276 -4.73312 -0.742469 0
M  V30 4404 H 410.64 -2.49942 -0.490021 0
M  V30 4405 H 411.423 -3.28926 0.982994 0
M  V30 4406 N 413.868 0.0150385 -1.57593 0
M  V30 4407 C 414.8 1.03912 -2.04291 0
M  V30 4408 C 415.813 1.31618 -0.958146 0
M  V30 4409 O 417.002 1.28859 -1.23522 0
M  V30 4410 C 414.102 2.37749 -2.41514 0
M  V30 4411 C 413.275 2.29198 -3.72541 0
M  V30 4412 C 412.334 3.45598 -3.96797 0
M  V30 4413 O 411.36 3.24461 -4.67668 0
M  V30 4414 N 412.562 4.67945 -3.43523 0
M  V30 4415 H 415.327 0.64099 -2.92765 0
M  V30 4416 H 412.888 0.20272 -1.60626 0
M  V30 4417 H 414.88 3.14364 -2.54867 0
M  V30 4418 H 413.45 2.69357 -1.58637 0
M  V30 4419 H 412.67 1.3759 -3.69408 0
M  V30 4420 H 413.958 2.20642 -4.5847 0
M  V30 4421 H 413.356 4.88017 -2.86104 0
M  V30 4422 H 411.913 5.41878 -3.62232 0
M  V30 4423 N 415.346 1.54954 0.287554 0
M  V30 4424 C 416.256 1.8991 1.37736 0
M  V30 4425 C 417.272 0.794701 1.54792 0
M  V30 4426 O 418.448 1.09243 1.69198 0
M  V30 4427 C 415.513 2.15108 2.71899 0
M  V30 4428 C 414.574 3.38752 2.63715 0
M  V30 4429 C 413.807 3.62739 3.91479 0
M  V30 4430 O 414.03 2.89492 4.91478 0
M  V30 4431 O 412.964 4.56267 3.92561 0
M  V30 4432 H 416.79 2.82652 1.11092 0
M  V30 4433 H 414.375 1.41315 0.484807 0
M  V30 4434 H 416.257 2.32806 3.51254 0
M  V30 4435 H 414.932 1.25551 2.9836 0
M  V30 4436 H 413.839 3.26405 1.82786 0
M  V30 4437 H 415.172 4.28483 2.42205 0
M  V30 4438 N 416.824 -0.551391 1.4764 0
M  V30 4439 C 418.073 -1.30467 1.53822 0
M  V30 4440 C 418.386 -1.94495 0.207661 0
M  V30 4441 O 419.592 -2.71099 0.147533 0
M  V30 4442 C 418.048 -2.36616 2.71184 0
M  V30 4443 C 417.656 -1.78754 4.10793 0
M  V30 4444 C 419.4 -3.13088 2.86663 0
M  V30 4445 C 417.307 -2.82717 5.19447 0
M  V30 4446 H 416.237 -0.490584 0.572576 0
M  V30 4447 H 418.888 -0.58494 1.73927 0
M  V30 4448 H 417.27 -3.11529 2.4447 0
M  V30 4449 H 418.444 -1.10173 4.47435 0
M  V30 4450 H 416.759 -1.14846 4.00249 0
M  V30 4451 H 419.356 -3.90736 3.65007 0
M  V30 4452 H 419.699 -3.67635 1.95321 0
M  V30 4453 H 420.232 -2.45288 3.13175 0
M  V30 4454 H 416.971 -2.33018 6.12685 0
M  V30 4455 H 416.491 -3.4969 4.87316 0
M  V30 4456 H 418.17 -3.46102 5.46646 0
M  V30 4457 N 418.302 -1.35869 -0.798587 0
M  V30 4458 C 419.53 -1.32722 -1.58722 0
M  V30 4459 C 419.945 0.0935631 -1.88568 0
M  V30 4460 O 419.302 1.04784 -1.49421 0
M  V30 4461 C 419.353 -2.13974 -2.91371 0
M  V30 4462 O 419.074 -3.50514 -2.62815 0
M  V30 4463 C 420.575 -2.18504 -3.85708 0
M  V30 4464 H 417.795 -0.45562 -0.492596 0
M  V30 4465 H 420.339 -1.78837 -0.991843 0
M  V30 4466 H 418.494 -1.71438 -3.47402 0
M  V30 4467 H 418.908 -3.92806 -3.47568 0
M  V30 4468 H 420.382 -2.79732 -4.75872 0
M  V30 4469 H 420.859 -1.18597 -4.22885 0
M  V30 4470 H 421.465 -2.61236 -3.35612 0
M  V30 4471 N 419.78 1.02168 -1.19998 0
M  V30 4472 C 420.728 2.12717 -0.940967 0
M  V30 4473 C 421.722 1.69069 0.105841 0
M  V30 4474 O 422.928 1.79946 -0.0440583 0
M  V30 4475 H 419.303 0.695108 -0.28693 0
M  V30 4476 H 421.274 2.3175 -1.87975 0
M  V30 4477 C 420.023 3.44027 -0.504049 0
M  V30 4478 H 419.346 3.78036 -1.30112 0
M  V30 4479 H 420.786 4.22452 -0.361991 0
M  V30 4480 C 419.245 3.27678 0.782878 0
M  V30 4481 O 419.775 3.56949 1.84256 0
M  V30 4482 N 417.981 2.80943 0.742921 0
M  V30 4483 H 417.528 2.57322 -0.119687 0
M  V30 4484 H 417.486 2.70385 1.60435 0
M  V30 4485 N 421.258 1.00505 1.21394 0
M  V30 4486 C 422.205 0.565496 2.23765 0
M  V30 4487 C 423.175 -0.408466 1.60999 0
M  V30 4488 O 424.36 -0.310503 1.88257 0
M  V30 4489 C 421.5 -0.101667 3.4495 0
M  V30 4490 C 420.613 0.915479 4.22188 0
M  V30 4491 C 419.748 0.220574 5.30742 0
M  V30 4492 C 418.787 1.22527 5.99711 0
M  V30 4493 N 417.924 0.557831 6.9988 0
M  V30 4494 H 422.764 1.44314 2.60725 0
M  V30 4495 H 420.301 0.722643 1.28126 0
M  V30 4496 H 422.259 -0.505504 4.14126 0
M  V30 4497 H 420.889 -0.94303 3.08718 0
M  V30 4498 H 419.941 1.43756 3.52191 0
M  V30 4499 H 421.253 1.68005 4.69655 0
M  V30 4500 H 420.407 -0.239368 6.06228 0
M  V30 4501 H 419.146 -0.576401 4.84282 0
M  V30 4502 H 418.151 1.69571 5.22997 0
M  V30 4503 H 419.376 2.02332 6.48258 0
M  V30 4504 H 417.322 -0.219486 6.55633 0
M  V30 4505 H 417.239 1.26065 7.45415 0
M  V30 4506 H 418.507 0.121095 7.79406 0
M  V30 4507 N 422.737 -1.36956 0.779787 0
M  V30 4508 C 423.986 -1.98738 0.344405 0
M  V30 4509 C 424.299 -1.62596 -1.08728 0
M  V30 4510 O 425.505 -2.1754 -1.62445 0
M  V30 4511 C 423.961 -3.5544 0.564829 0
M  V30 4512 C 423.569 -4.00514 2.0073 0
M  V30 4513 C 425.313 -4.24059 0.193471 0
M  V30 4514 C 423.22 -5.49957 2.17489 0
M  V30 4515 H 422.15 -0.743561 0.12503 0
M  V30 4516 H 424.801 -1.56381 0.960057 0
M  V30 4517 H 423.183 -3.95817 -0.120397 0
M  V30 4518 H 424.357 -3.71362 2.72814 0
M  V30 4519 H 422.672 -3.44703 2.336 0
M  V30 4520 H 425.269 -5.33874 0.297097 0
M  V30 4521 H 425.612 -4.07378 -0.857263 0
M  V30 4522 H 426.145 -3.89012 0.831556 0
M  V30 4523 H 422.884 -5.71574 3.2091 0
M  V30 4524 H 422.404 -5.80767 1.49899 0
M  V30 4525 H 424.083 -6.16043 1.97738 0
M  V30 4526 N 424.215 -0.530993 -1.48385 0
M  V30 4527 C 425.145 0.219985 -2.32461 0
M  V30 4528 C 426.126 0.934111 -1.42156 0
M  V30 4529 O 427.311 0.919694 -1.71042 0
M  V30 4530 C 424.441 1.26674 -3.23375 0
M  V30 4531 C 423.395 0.67069 -4.22712 0
M  V30 4532 C 422.721 1.82017 -5.02766 0
M  V30 4533 C 424.021 -0.358268 -5.2107 0
M  V30 4534 H 425.715 -0.48187 -2.95497 0
M  V30 4535 H 423.261 -0.233182 -1.42099 0
M  V30 4536 H 425.214 1.80006 -3.81019 0
M  V30 4537 H 423.938 1.99818 -2.58341 0
M  V30 4538 H 422.597 0.158878 -3.66256 0
M  V30 4539 H 422.245 2.54002 -4.34157 0
M  V30 4540 H 421.945 1.42727 -5.70003 0
M  V30 4541 H 423.469 2.35725 -5.63264 0
M  V30 4542 H 424.883 0.0880081 -5.73232 0
M  V30 4543 H 423.28 -0.66861 -5.96364 0
M  V30 4544 H 424.35 -1.26367 -4.68145 0
M  V30 4545 N 425.693 1.55336 -0.266172 0
M  V30 4546 C 426.64 2.22172 0.625165 0
M  V30 4547 C 427.61 1.19211 1.15663 0
M  V30 4548 O 428.795 1.47723 1.20758 0
M  V30 4549 C 425.935 2.93972 1.8076 0
M  V30 4550 C 425.048 4.11632 1.31084 0
M  V30 4551 C 424.183 4.71099 2.45436 0
M  V30 4552 C 423.222 5.8097 1.92718 0
M  V30 4553 N 422.359 6.34538 3.00509 0
M  V30 4554 H 427.199 2.9796 0.0485582 0
M  V30 4555 H 424.736 1.47095 0.0122024 0
M  V30 4556 H 426.694 3.33811 2.50251 0
M  V30 4557 H 425.324 2.20623 2.35638 0
M  V30 4558 H 424.376 3.76975 0.509326 0
M  V30 4559 H 425.688 4.90893 0.884633 0
M  V30 4560 H 424.842 5.13612 3.22936 0
M  V30 4561 H 423.581 3.91096 2.91368 0
M  V30 4562 H 422.586 5.37916 1.13695 0
M  V30 4563 H 423.811 6.62836 1.47733 0
M  V30 4564 H 421.757 5.57433 3.45839 0
M  V30 4565 H 421.674 7.09046 2.62279 0
M  V30 4566 H 422.942 6.81709 3.78011 0
M  V30 4567 N 427.171 -0.0066808 1.57599 0
M  V30 4568 C 428.081 -1.01671 2.11424 0
M  V30 4569 C 429.097 -1.38143 1.05795 0
M  V30 4570 O 430.273 -1.47011 1.37658 0
M  V30 4571 C 427.338 -2.29192 2.60139 0
M  V30 4572 C 426.399 -1.99094 3.80342 0
M  V30 4573 C 425.632 -3.20535 4.26724 0
M  V30 4574 O 425.855 -4.3199 3.72479 0
M  V30 4575 O 424.789 -3.04924 5.18946 0
M  V30 4576 H 428.615 -0.589181 2.9793 0
M  V30 4577 H 426.2 -0.225091 1.47695 0
M  V30 4578 H 428.082 -3.0412 2.917 0
M  V30 4579 H 426.757 -2.71195 1.76733 0
M  V30 4580 H 425.664 -1.21663 3.53764 0
M  V30 4581 H 426.997 -1.61931 4.648 0
M  V30 4582 N 428.649 -1.55105 -0.279332 0
M  V30 4583 C 429.559 -1.90638 -1.36727 0
M  V30 4584 C 430.575 -0.802899 -1.54368 0
M  V30 4585 O 431.751 -1.10138 -1.68616 0
M  V30 4586 C 428.816 -2.16547 -2.70755 0
M  V30 4587 C 427.877 -3.40146 -2.61915 0
M  V30 4588 C 427.11 -3.6481 -3.8955 0
M  V30 4589 O 427.333 -2.92095 -4.89935 0
M  V30 4590 O 426.267 -4.58343 -3.90135 0
M  V30 4591 H 430.093 -2.83237 -1.09591 0
M  V30 4592 H 427.678 -1.4157 -0.477306 0
M  V30 4593 H 429.56 -2.34665 -3.50014 0
M  V30 4594 H 428.235 -1.27131 -2.9769 0
M  V30 4595 H 427.142 -3.2737 -1.81052 0
M  V30 4596 H 428.475 -4.29761 -2.3993 0
M  V30 4597 N 430.127 0.543554 -1.4793 0
M  V30 4598 C 431.374 1.30008 -1.55255 0
M  V30 4599 C 431.702 1.93245 -0.220612 0
M  V30 4600 O 430.957 1.79141 0.787843 0
M  V30 4601 C 431.256 2.42078 -2.62932 0
M  V30 4602 C 430.922 1.96583 -4.0579 0
M  V30 4603 C 429.584 1.83893 -4.44676 0
M  V30 4604 C 431.936 1.62034 -4.95373 0
M  V30 4605 C 429.264 1.34969 -5.70964 0
M  V30 4606 C 431.616 1.14577 -6.22137 0
M  V30 4607 C 430.28 1.00493 -6.59892 0
M  V30 4608 H 429.55 0.475735 -0.568117 0
M  V30 4609 H 432.197 0.608075 -1.81589 0
M  V30 4610 H 430.502 3.16892 -2.30406 0
M  V30 4611 H 432.199 3.00236 -2.65818 0
M  V30 4612 H 428.789 2.07407 -3.75074 0
M  V30 4613 H 432.973 1.70705 -4.66019 0
M  V30 4614 H 428.229 1.2274 -5.98953 0
M  V30 4615 H 432.403 0.869109 -6.90955 0
M  V30 4616 H 430.03 0.623624 -7.57638 0
M  V30 4617 N 431.605 1.3629 0.791371 0
M  V30 4618 C 432.83 1.33726 1.58531 0
M  V30 4619 C 433.255 -0.0794933 1.87932 0
M  V30 4620 O 432.613 -1.05087 1.47738 0
M  V30 4621 C 432.661 2.16425 2.88431 0
M  V30 4622 O 431.765 1.5554 3.81944 0
M  V30 4623 H 431.106 0.457793 0.480959 0
M  V30 4624 H 433.636 1.79547 0.981031 0
M  V30 4625 H 433.646 2.28933 3.37718 0
M  V30 4626 H 432.321 3.19415 2.66359 0
M  V30 4627 H 430.898 1.51961 3.40532 0
M  V30 4628 N 433.083 -1.0153 1.20538 0
M  V30 4629 C 434.046 -2.0826 0.957098 0
M  V30 4630 C 435.046 -1.60657 -0.0678655 0
M  V30 4631 O 436.236 -1.73385 0.168332 0
M  V30 4632 C 433.368 -3.38033 0.441188 0
M  V30 4633 H 434.561 -2.31719 1.90384 0
M  V30 4634 H 432.114 -1.1835 1.02093 0
M  V30 4635 H 432.849 -3.20249 -0.510961 0
M  V30 4636 H 432.634 -3.73911 1.18038 0
M  V30 4637 H 434.124 -4.16613 0.287009 0
M  V30 4638 N 434.561 -1.01147 -1.20859 0
M  V30 4639 C 435.471 -0.58686 -2.27141 0
M  V30 4640 C 436.487 0.373198 -1.69951 0
M  V30 4641 O 437.663 0.235423 -2.00019 0
M  V30 4642 C 434.728 0.0733602 -3.46622 0
M  V30 4643 C 433.789 -0.931995 -4.19061 0
M  V30 4644 C 433.022 -0.303186 -5.32838 0
M  V30 4645 O 433.245 0.898395 -5.63281 0
M  V30 4646 O 432.179 -1.01735 -5.9324 0
M  V30 4647 H 436.005 -1.47155 -2.65667 0
M  V30 4648 H 433.59 -0.780689 -1.2738 0
M  V30 4649 H 435.472 0.442333 -4.19072 0
M  V30 4650 H 434.147 0.932329 -3.09983 0
M  V30 4651 H 433.054 -1.35224 -3.48805 0
M  V30 4652 H 434.387 -1.76076 -4.59628 0
M  V30 4653 N 436.039 1.36541 -0.78704 0
M  V30 4654 C 436.949 2.3387 -0.184896 0
M  V30 4655 C 437.965 1.60927 0.661697 0
M  V30 4656 O 439.141 1.92927 0.57804 0
M  V30 4657 C 436.206 3.40122 0.672145 0
M  V30 4658 C 435.267 4.28867 -0.19267 0
M  V30 4659 C 434.5 5.30045 0.623561 0
M  V30 4660 O 434.723 5.39232 1.8597 0
M  V30 4661 O 433.657 6.01895 0.0247068 0
M  V30 4662 H 437.483 2.87126 -0.989562 0
M  V30 4663 H 435.068 1.38969 -0.548455 0
M  V30 4664 H 436.95 4.05093 1.16094 0
M  V30 4665 H 435.625 2.89169 1.45474 0
M  V30 4666 H 434.532 3.66945 -0.728166 0
M  V30 4667 H 435.865 4.83165 -0.938722 0
M  V30 4668 N 437.518 0.538854 1.48102 0
M  V30 4669 C 438.466 -0.232325 2.31437 0
M  V30 4670 C 439.46 -0.927004 1.41785 0
M  V30 4671 O 440.666 -0.850378 1.58646 0
M  V30 4672 H 437.041 -0.0937916 0.746128 0
M  V30 4673 H 439.012 0.489986 2.9435 0
M  V30 4674 C 437.761 -1.26074 3.24038 0
M  V30 4675 H 437.084 -0.735609 3.92974 0
M  V30 4676 H 438.524 -1.77157 3.85216 0
M  V30 4677 C 436.983 -2.29902 2.46265 0
M  V30 4678 O 437.513 -3.36502 2.19384 0
M  V30 4679 N 435.719 -2.03348 2.07601 0
M  V30 4680 H 435.266 -1.16675 2.29662 0
M  V30 4681 H 435.224 -2.73038 1.55877 0
M  V30 4682 N 438.996 -1.55193 0.274407 0
M  V30 4683 C 440.243 -1.99581 -0.342579 0
M  V30 4684 C 440.571 -1.1628 -1.55914 0
M  V30 4685 O 439.826 -0.22029 -1.94456 0
M  V30 4686 C 440.125 -3.49019 -0.769458 0
M  V30 4687 C 439.791 -4.49598 0.342389 0
M  V30 4688 C 438.453 -4.76821 0.647686 0
M  V30 4689 C 440.805 -5.0964 1.09163 0
M  V30 4690 C 438.133 -5.61354 1.70581 0
M  V30 4691 C 440.485 -5.95323 2.13948 0
M  V30 4692 C 439.149 -6.20867 2.45113 0
M  V30 4693 H 438.419 -0.730319 -0.125358 0
M  V30 4694 H 441.066 -1.87529 0.387971 0
M  V30 4695 H 439.371 -3.58544 -1.57967 0
M  V30 4696 H 441.068 -3.8077 -1.25757 0
M  V30 4697 H 437.658 -4.28496 0.094318 0
M  V30 4698 H 441.842 -4.88632 0.869024 0
M  V30 4699 H 437.098 -5.79392 1.9523 0
M  V30 4700 H 441.272 -6.40881 2.72478 0
M  V30 4701 H 438.899 -6.86162 3.27239 0
M  V30 4702 N 440.474 -0.00167713 -1.576 0
M  V30 4703 C 441.404 0.988091 -2.11563 0
M  V30 4704 C 442.385 1.35736 -1.02517 0
M  V30 4705 O 443.57 1.44082 -1.30208 0
M  V30 4706 C 440.7 2.27941 -2.62031 0
M  V30 4707 C 439.654 2.0517 -3.75619 0
M  V30 4708 C 438.98 3.4033 -4.12407 0
M  V30 4709 C 440.28 1.41294 -5.02825 0
M  V30 4710 H 441.974 0.538771 -2.94513 0
M  V30 4711 H 439.52 0.257712 -1.41675 0
M  V30 4712 H 441.473 2.97539 -2.9841 0
M  V30 4713 H 440.197 2.74989 -1.76205 0
M  V30 4714 H 438.856 1.37998 -3.39635 0
M  V30 4715 H 438.504 3.85085 -3.23603 0
M  V30 4716 H 438.204 3.25909 -4.88935 0
M  V30 4717 H 439.728 4.1124 -4.51347 0
M  V30 4718 H 441.142 2.00851 -5.36965 0
M  V30 4719 H 439.539 1.37356 -5.84169 0
M  V30 4720 H 440.609 0.382362 -4.8339 0
M  V30 4721 N 441.952 1.55251 0.271103 0
M  V30 4722 C 443.201 1.75151 1.00025 0
M  V30 4723 C 443.514 0.561041 1.87381 0
M  V30 4724 O 444.72 0.642506 2.63788 0
M  V30 4725 C 443.176 3.09999 1.82835 0
M  V30 4726 C 442.784 4.3662 1.00336 0
M  V30 4727 C 444.528 3.39249 2.55168 0
M  V30 4728 C 442.435 5.62506 1.82595 0
M  V30 4729 H 441.365 0.652877 0.377183 0
M  V30 4730 H 444.016 1.81708 0.255843 0
M  V30 4731 H 442.398 2.97485 2.61378 0
M  V30 4732 H 443.572 4.60055 0.261959 0
M  V30 4733 H 441.887 4.14527 0.394486 0
M  V30 4734 H 444.484 4.3051 3.1712 0
M  V30 4735 H 444.827 2.59467 3.2555 0
M  V30 4736 H 445.36 3.52869 1.83653 0
M  V30 4737 H 442.099 6.45041 1.16631 0
M  V30 4738 H 441.619 5.43211 2.54327 0
M  V30 4739 H 443.298 6.00875 2.39913 0
M  V30 4740 N 443.43 -0.535701 1.48216 0
M  V30 4741 C 444.36 -1.65014 1.65204 0
M  V30 4742 C 445.341 -1.62554 0.501011 0
M  V30 4743 O 446.526 -1.7984 0.732886 0
M  V30 4744 C 443.656 -3.03616 1.68626 0
M  V30 4745 C 442.61 -3.20932 2.83172 0
M  V30 4746 C 441.936 -4.60537 2.71679 0
M  V30 4747 C 443.236 -3.04249 4.24535 0
M  V30 4748 H 444.93 -1.51053 2.58502 0
M  V30 4749 H 442.476 -0.725262 1.24402 0
M  V30 4750 H 444.429 -3.81446 1.79099 0
M  V30 4751 H 443.153 -3.18587 0.719026 0
M  V30 4752 H 441.812 -2.45517 2.72244 0
M  V30 4753 H 441.46 -4.72336 1.72937 0
M  V30 4754 H 441.16 -4.73069 3.48538 0
M  V30 4755 H 442.684 -5.40475 2.84112 0
M  V30 4756 H 444.098 -3.71877 4.36326 0
M  V30 4757 H 442.495 -3.28278 5.02348 0
M  V30 4758 H 443.565 -2.00739 4.41397 0
M  V30 4759 N 444.908 -1.36708 -0.784132 0
M  V30 4760 C 446.136 -1.34398 -1.57305 0
M  V30 4761 C 446.551 0.0735577 -1.88657 0
M  V30 4762 O 445.908 1.03193 -1.50524 0
M  V30 4763 C 445.959 -2.17053 -2.89085 0
M  V30 4764 O 445.68 -3.53281 -2.59083 0
M  V30 4765 C 447.181 -2.22583 -3.83369 0
M  V30 4766 H 444.401 -0.460819 -0.487736 0
M  V30 4767 H 446.945 -1.79879 -0.972819 0
M  V30 4768 H 445.1 -1.75113 -3.45564 0
M  V30 4769 H 445.514 -3.9647 -3.43383 0
M  V30 4770 H 446.988 -2.84763 -4.72878 0
M  V30 4771 H 447.465 -1.23075 -4.21603 0
M  V30 4772 H 448.071 -2.64781 -3.32823 0
M  V30 4773 N 446.386 1.0089 -1.21074 0
M  V30 4774 C 447.296 2.13039 -0.982425 0
M  V30 4775 C 448.312 1.73881 0.0642161 0
M  V30 4776 O 449.488 2.01012 -0.12496 0
M  V30 4777 C 446.553 3.42377 -0.545803 0
M  V30 4778 C 445.614 3.95731 -1.6642 0
M  V30 4779 C 444.847 5.18896 -1.24832 0
M  V30 4780 O 445.07 5.70273 -0.120265 0
M  V30 4781 O 444.004 5.65597 -2.05873 0
M  V30 4782 H 447.83 2.35175 -1.92163 0
M  V30 4783 H 445.415 1.1142 -0.995285 0
M  V30 4784 H 447.297 4.20244 -0.311912 0
M  V30 4785 H 445.972 3.21639 0.364727 0
M  V30 4786 H 444.879 3.19108 -1.95246 0
M  V30 4787 H 446.212 4.20872 -2.55201 0
M  V30 4788 N 447.864 1.01787 1.20321 0
M  V30 4789 C 448.797 0.533882 2.21867 0
M  V30 4790 C 449.775 -0.419361 1.57099 0
M  V30 4791 O 450.959 -0.339062 1.85426 0
M  V30 4792 C 448.086 -0.222899 3.37966 0
M  V30 4793 C 447.132 0.680091 4.21043 0
M  V30 4794 S 447.965 2.14997 4.90445 0
M  V30 4795 C 449.121 1.40339 6.09964 0
M  V30 4796 H 449.354 1.39429 2.62577 0
M  V30 4797 H 446.887 0.826867 1.30393 0
M  V30 4798 H 448.845 -0.653425 4.05266 0
M  V30 4799 H 447.506 -1.0589 2.95713 0
M  V30 4800 H 446.699 0.0964704 5.03908 0
M  V30 4801 H 446.301 1.04845 3.59004 0
M  V30 4802 H 448.593 0.68407 6.74038 0
M  V30 4803 H 449.536 2.20823 6.72787 0
M  V30 4804 H 449.944 0.905716 5.57187 0
M  V30 4805 N 449.342 -1.36122 0.79427 0
M  V30 4806 C 450.305 -2.28309 0.201889 0
M  V30 4807 C 451.305 -1.49041 -0.603603 0
M  V30 4808 O 452.495 -1.68964 -0.423888 0
M  V30 4809 C 449.627 -3.3321 -0.719978 0
M  V30 4810 H 450.82 -2.82208 1.01481 0
M  V30 4811 H 448.373 -1.45768 0.564037 0
M  V30 4812 H 449.108 -2.84475 -1.55706 0
M  V30 4813 H 448.893 -3.91835 -0.144266 0
M  V30 4814 H 450.383 -4.02044 -1.12916 0
M  V30 4815 N 450.82 -0.546701 -1.47814 0
M  V30 4816 C 452.048 -0.0232857 -2.06887 0
M  V30 4817 C 452.463 1.26571 -1.4009 0
M  V30 4818 O 451.82 1.7569 -0.493906 0
M  V30 4819 C 451.871 0.186975 -3.61016 0
M  V30 4820 O 451.592 -1.05097 -4.25307 0
M  V30 4821 C 453.093 0.748872 -4.36929 0
M  V30 4822 H 450.313 -0.0410763 -0.669742 0
M  V30 4823 H 452.857 -0.757117 -1.89968 0
M  V30 4824 H 451.012 0.870903 -3.77484 0
M  V30 4825 H 451.426 -0.842121 -5.17695 0
M  V30 4826 H 452.9 0.845334 -5.45489 0
M  V30 4827 H 453.377 1.75772 -4.02493 0
M  V30 4828 H 453.983 0.100979 -4.2518 0
M  V30 4829 N 452.299 1.55045 -0.282633 0
M  V30 4830 C 453.247 2.24254 0.617478 0
M  V30 4831 C 454.241 1.24215 1.15183 0
M  V30 4832 O 455.447 1.42123 1.10459 0
M  V30 4833 H 451.822 0.719801 0.217693 0
M  V30 4834 H 453.793 2.98398 0.0110076 0
M  V30 4835 C 452.542 2.98281 1.78672 0
M  V30 4836 H 451.865 3.75053 1.38475 0
M  V30 4837 H 453.305 3.50017 2.393 0
M  V30 4838 C 451.764 2.04184 2.67975 0
M  V30 4839 O 452.294 1.59792 3.6855 0
M  V30 4840 N 450.5 1.70526 2.35307 0
M  V30 4841 H 450.047 2.06821 1.53567 0
M  V30 4842 H 450.005 1.07839 2.95327 0
M  V30 4843 N 453.777 0.010035 1.57597 0
M  V30 4844 C 454.727 -0.986858 2.05536 0
M  V30 4845 C 455.711 -1.29711 0.952042 0
M  V30 4846 O 456.903 -1.28641 1.21575 0
M  V30 4847 C 454.032 -2.2756 2.57043 0
M  V30 4848 C 453.118 -1.99455 3.74271 0
M  V30 4849 N 453.509 -1.41546 4.85591 0
M  V30 4850 C 451.807 -2.29547 3.82393 0
M  V30 4851 C 452.508 -1.3014 5.66956 0
M  V30 4852 N 451.484 -1.79044 5.13268 0
M  V30 4853 H 455.286 -0.533778 2.89012 0
M  V30 4854 H 452.8 -0.195432 1.6122 0
M  V30 4855 H 454.797 -2.99829 2.89669 0
M  V30 4856 H 453.457 -2.73512 1.7499 0
M  V30 4857 H 454.468 -1.09294 5.06236 0
M  V30 4858 H 451.145 -2.78304 3.11213 0
M  V30 4859 H 452.535 -0.855237 6.66435 0
M  V30 4860 N 455.255 -1.55392 -0.262866 0
M  V30 4861 C 456.501 -1.76737 -0.99458 0
M  V30 4862 C 456.834 -0.572453 -1.85571 0
M  V30 4863 O 456.109 0.429732 -1.89693 0
M  V30 4864 C 456.392 -3.07824 -1.8686 0
M  V30 4865 C 456.245 -4.3769 -1.03672 0
M  V30 4866 C 457.564 -3.35021 -2.85393 0
M  V30 4867 H 454.683 -0.643005 -0.360157 0
M  V30 4868 H 457.325 -1.88126 -0.266216 0
M  V30 4869 H 455.475 -2.98245 -2.48962 0
M  V30 4870 H 457.147 -4.59238 -0.43563 0
M  V30 4871 H 455.39 -4.32461 -0.340513 0
M  V30 4872 H 456.061 -5.25759 -1.6817 0
M  V30 4873 H 458.537 -3.44458 -2.33426 0
M  V30 4874 H 457.413 -4.27989 -3.43681 0
M  V30 4875 H 457.674 -2.55153 -3.61039 0
M  V30 4876 N 456.733 0.527833 -1.48498 0
M  V30 4877 C 457.665 1.6482 -1.5927 0
M  V30 4878 C 458.678 1.55659 -0.476869 0
M  V30 4879 O 459.867 1.62081 -0.747806 0
M  V30 4880 C 456.967 3.0348 -1.50842 0
M  V30 4881 C 456.14 3.381 -2.77502 0
M  V30 4882 C 455.199 4.5605 -2.62497 0
M  V30 4883 O 454.225 4.59165 -3.36387 0
M  V30 4884 N 455.427 5.54353 -1.72257 0
M  V30 4885 H 458.192 1.56015 -2.55889 0
M  V30 4886 H 455.753 0.715152 -1.45249 0
M  V30 4887 H 457.745 3.80264 -1.38496 0
M  V30 4888 H 456.315 3.06352 -0.621887 0
M  V30 4889 H 455.535 2.50473 -3.04396 0
M  V30 4890 H 456.823 3.58017 -3.61527 0
M  V30 4891 H 456.221 5.54617 -1.11431 0
M  V30 4892 H 454.778 6.30347 -1.65849 0
M  V30 4893 N 458.211 1.37122 0.776871 0
M  V30 4894 C 459.457 1.32243 1.53752 0
M  V30 4895 C 459.79 -0.0944745 1.9397 0
M  V30 4896 O 459.065 -1.05068 1.6368 0
M  V30 4897 C 459.348 2.25681 2.80607 0
M  V30 4898 C 459.201 3.76127 2.46676 0
M  V30 4899 C 460.52 2.17657 3.82509 0
M  V30 4900 H 457.639 0.481704 0.557791 0
M  V30 4901 H 460.281 1.6778 0.891612 0
M  V30 4902 H 458.431 1.95505 3.35723 0
M  V30 4903 H 460.103 4.16877 1.97513 0
M  V30 4904 H 458.346 3.94946 1.79443 0
M  V30 4905 H 459.017 4.36933 3.37333 0
M  V30 4906 H 461.493 2.44245 3.36873 0
M  V30 4907 H 460.369 2.85185 4.69 0
M  V30 4908 H 460.63 1.16785 4.26396 0
M  V30 4909 N 459.689 -1.00246 1.21608 0
M  V30 4910 C 460.619 -2.10921 1.00172 0
M  V30 4911 C 461.6 -1.69938 -0.0741587 0
M  V30 4912 O 462.785 -1.94009 0.0861753 0
M  V30 4913 C 459.915 -3.42618 0.568355 0
M  V30 4914 C 458.869 -3.97407 1.58909 0
M  V30 4915 C 458.195 -5.25038 1.01187 0
M  V30 4916 C 459.495 -4.2918 2.97661 0
M  V30 4917 H 461.189 -2.29112 1.92739 0
M  V30 4918 H 458.735 -1.10101 0.928102 0
M  V30 4919 H 460.688 -4.19444 0.405555 0
M  V30 4920 H 459.412 -3.24227 -0.392961 0
M  V30 4921 H 458.071 -3.22703 1.73949 0
M  V30 4922 H 457.719 -5.02982 0.0421965 0
M  V30 4923 H 457.419 -5.62661 1.6937 0
M  V30 4924 H 458.943 -6.04507 0.860448 0
M  V30 4925 H 460.357 -4.96839 2.86049 0
M  V30 4926 H 458.754 -4.77952 3.6288 0
M  V30 4927 H 459.824 -3.3735 3.48315 0
M  V30 4928 N 461.167 -1.02423 -1.1978 0
M  V30 4929 C 462.413 -0.719051 -1.89625 0
M  V30 4930 C 462.746 0.750083 -1.7913 0
M  V30 4931 O 462.021 1.54574 -1.18056 0
M  V30 4932 C 462.304 -1.16499 -3.40735 0
M  V30 4933 C 462.157 -2.695 -3.60125 0
M  V30 4934 C 463.476 -0.742166 -4.33797 0
M  V30 4935 H 460.595 -0.26269 -0.688595 0
M  V30 4936 H 463.237 -1.27333 -1.41018 0
M  V30 4937 H 461.387 -0.69341 -3.82262 0
M  V30 4938 H 463.059 -3.24569 -3.278 0
M  V30 4939 H 461.302 -3.10113 -3.03336 0
M  V30 4940 H 461.973 -2.95757 -4.66081 0
M  V30 4941 H 464.449 -1.1477 -3.99959 0
M  V30 4942 H 463.325 -1.08213 -5.38127 0
M  V30 4943 H 463.586 0.355747 -4.40666 0
M  V30 4944 N 462.645 1.35699 -0.801477 0
M  V30 4945 C 463.555 2.33661 -0.209691 0
M  V30 4946 C 464.571 1.6162 0.644591 0
M  V30 4947 O 465.747 1.93529 0.557545 0
M  V30 4948 C 462.812 3.40816 0.636033 0
M  V30 4949 C 461.873 4.28639 -0.238147 0
M  V30 4950 C 461.106 5.30676 0.567307 0
M  V30 4951 O 461.329 5.41174 1.8024 0
M  V30 4952 O 460.263 6.01887 -0.0391336 0
M  V30 4953 H 464.089 2.8606 -1.01996 0
M  V30 4954 H 461.674 1.38379 -0.563164 0
M  V30 4955 H 463.556 4.06301 1.11791 0
M  V30 4956 H 462.231 2.90696 1.42399 0
M  V30 4957 H 461.138 3.66152 -0.767044 0
M  V30 4958 H 462.471 4.82143 -0.989915 0
M  V30 4959 N 464.123 0.554532 1.47522 0
M  V30 4960 C 465.37 0.029479 2.02479 0
M  V30 4961 C 465.698 -1.31929 1.42916 0
M  V30 4962 O 464.953 -1.87112 0.573385 0
M  V30 4963 C 465.252 -0.115927 3.57212 0
M  V30 4964 C 464.918 1.16161 4.3568 0
M  V30 4965 C 463.58 1.51168 4.56839 0
M  V30 4966 C 465.932 2.0083 4.80954 0
M  V30 4967 C 463.26 2.70696 5.2052 0
M  V30 4968 C 465.612 3.19559 5.45953 0
M  V30 4969 C 464.276 3.54882 5.65345 0
M  V30 4970 H 463.546 0.0107871 0.740921 0
M  V30 4971 H 466.193 0.725506 1.77225 0
M  V30 4972 H 464.498 -0.894902 3.81443 0
M  V30 4973 H 466.195 -0.53749 3.97381 0
M  V30 4974 H 462.785 0.879026 4.19489 0
M  V30 4975 H 466.969 1.75093 4.64388 0
M  V30 4976 H 462.225 2.98236 5.33728 0
M  V30 4977 H 466.399 3.85456 5.79997 0
M  V30 4978 H 464.026 4.47596 6.1446 0
M  V30 4979 N 465.601 -1.54893 0.290851 0
M  V30 4980 C 466.829 -2.04343 -0.324288 0
M  V30 4981 C 467.244 -1.16859 -1.48289 0
M  V30 4982 O 466.601 -0.192018 -1.81487 0
M  V30 4983 C 466.652 -3.52756 -0.79026 0
M  V30 4984 O 466.373 -4.36913 0.322213 0
M  V30 4985 C 467.874 -4.18161 -1.4716 0
M  V30 4986 H 465.094 -0.667135 -0.0719173 0
M  V30 4987 H 467.638 -1.99981 0.427529 0
M  V30 4988 H 465.793 -3.57511 -1.49213 0
M  V30 4989 H 466.207 -5.24486 -0.0387372 0
M  V30 4990 H 467.681 -5.23562 -1.7489 0
M  V30 4991 H 468.158 -3.67282 -2.40834 0
M  V30 4992 H 468.764 -4.17454 -0.813178 0
M  V30 4993 N 467.08 -0.0183926 -1.57589 0
M  V30 4994 C 468.027 0.967022 -2.09565 0
M  V30 4995 C 468.997 1.32983 -0.995225 0
M  V30 4996 O 470.182 1.42501 -1.26878 0
M  V30 4997 C 467.322 2.24772 -2.61861 0
M  V30 4998 C 466.435 1.94232 -3.85873 0
M  V30 4999 C 465.57 3.16518 -4.26603 0
M  V30 5000 C 464.609 2.81748 -5.43401 0
M  V30 5001 N 463.746 3.96626 -5.79338 0
M  V30 5002 H 468.586 0.516874 -2.93483 0
M  V30 5003 H 466.123 0.243544 -1.4507 0
M  V30 5004 H 468.081 2.99667 -2.90268 0
M  V30 5005 H 466.711 2.67423 -1.8079 0
M  V30 5006 H 465.763 1.09625 -3.64262 0
M  V30 5007 H 467.075 1.64616 -4.70853 0
M  V30 5008 H 466.229 3.99743 -4.56389 0
M  V30 5009 H 464.968 3.49286 -3.40368 0
M  V30 5010 H 463.973 1.96933 -5.1332 0
M  V30 5011 H 465.198 2.50207 -6.31327 0
M  V30 5012 H 463.144 4.29257 -4.96059 0
M  V30 5013 H 463.061 3.70598 -6.58933 0
M  V30 5014 H 464.329 4.80586 -6.13724 0
M  V30 5015 N 468.558 1.5553 0.254621 0
M  V30 5016 C 469.505 1.89666 1.31512 0
M  V30 5017 C 470.475 0.750057 1.482 0
M  V30 5018 O 471.66 1.00301 1.62309 0
M  V30 5019 C 468.8 2.19009 2.667 0
M  V30 5020 C 467.913 3.46435 2.58083 0
M  V30 5021 C 467.048 3.65386 3.85573 0
M  V30 5022 C 466.087 4.8644 3.71541 0
M  V30 5023 N 465.224 5.01952 4.90906 0
M  V30 5024 H 470.064 2.80109 1.017 0
M  V30 5025 H 467.601 1.38666 0.490938 0
M  V30 5026 H 469.559 2.34025 3.45381 0
M  V30 5027 H 468.189 1.31779 2.94676 0
M  V30 5028 H 467.241 3.39792 1.71013 0
M  V30 5029 H 468.553 4.35258 2.43622 0
M  V30 5030 H 467.707 3.80319 4.72697 0
M  V30 5031 H 466.446 2.74781 4.02922 0
M  V30 5032 H 465.451 4.71491 2.82801 0
M  V30 5033 H 466.676 5.78497 3.55694 0
M  V30 5034 H 464.622 4.14283 5.08631 0
M  V30 5035 H 464.539 5.84851 4.79046 0
M  V30 5036 H 465.807 5.21289 5.7955 0
M  V30 5037 N 470.036 -0.519951 1.48776 0
M  V30 5038 C 470.966 -1.63253 1.66945 0
M  V30 5039 C 471.947 -1.62014 0.518224 0
M  V30 5040 O 473.132 -1.79053 0.751919 0
M  V30 5041 C 470.262 -3.0181 1.71836 0
M  V30 5042 C 469.216 -3.17911 2.8656 0
M  V30 5043 C 468.542 -4.5763 2.76548 0
M  V30 5044 C 469.842 -2.99729 4.27738 0
M  V30 5045 H 471.536 -1.48302 2.6009 0
M  V30 5046 H 469.082 -0.712026 1.25165 0
M  V30 5047 H 471.035 -3.79525 1.83135 0
M  V30 5048 H 469.759 -3.17806 0.752775 0
M  V30 5049 H 468.418 -2.42616 2.74833 0
M  V30 5050 H 468.066 -4.70476 1.77937 0
M  V30 5051 H 467.766 -4.69346 3.53536 0
M  V30 5052 H 469.29 -5.37431 2.89828 0
M  V30 5053 H 470.704 -3.67228 4.40246 0
M  V30 5054 H 469.101 -3.22932 5.05801 0
M  V30 5055 H 470.171 -1.96047 4.43502 0
M  V30 5056 N 471.514 -1.37532 -0.769588 0
M  V30 5057 C 472.925 -1.29382 -1.346 0
M  V30 5058 C 473.276 0.0576039 -1.96115 0
M  V30 5059 O 472.401 0.95947 -1.93967 0
M  V30 5060 C 472.996 -2.34298 -2.44724 0
M  V30 5061 C 471.555 -2.29776 -2.98128 0
M  V30 5062 C 470.702 -2.18013 -1.71364 0
M  V30 5063 H 473.653 -1.48123 -0.56968 0
M  V30 5064 H 473.674 -1.99089 -3.24259 0
M  V30 5065 H 473.186 -3.32645 -1.99922 0
M  V30 5066 H 471.287 -1.34959 -3.47299 0
M  V30 5067 H 471.4 -3.23276 -3.53595 0
M  V30 5068 H 469.764 -1.64595 -1.94372 0
M  V30 5069 H 470.547 -3.18278 -1.28662 0
M  V30 5070 N 472.992 0.995999 -1.22138 0
M  V30 5071 C 474.24 1.73167 -1.042 0
M  V30 5072 C 474.561 1.90329 0.42423 0
M  V30 5073 O 473.831 1.4607 1.30539 0
M  V30 5074 H 472.411 0.641593 -0.38258 0
M  V30 5075 H 475.073 1.19974 -1.53598 0
M  V30 5076 H 474.169 2.72734 -1.51731 0
M  V30 5077 N 474.47 1.03057 1.19235 0
M  V30 5078 C 475.717 0.728019 1.88961 0
M  V30 5079 C 476.045 -0.743515 1.79728 0
M  V30 5080 O 475.3 -1.55729 1.1852 0
M  V30 5081 C 475.599 1.1268 3.39172 0
M  V30 5082 C 475.265 2.5969 3.68608 0
M  V30 5083 C 473.927 2.99854 3.76352 0
M  V30 5084 C 476.279 3.54793 3.81801 0
M  V30 5085 C 473.607 4.34031 3.94758 0
M  V30 5086 C 475.959 4.88675 4.0172 0
M  V30 5087 C 474.623 5.28526 4.07697 0
M  V30 5088 H 473.893 0.266401 0.691456 0
M  V30 5089 H 476.54 1.29373 1.41191 0
M  V30 5090 H 474.845 0.479722 3.88852 0
M  V30 5091 H 476.542 0.870203 3.91444 0
M  V30 5092 H 473.132 2.27575 3.63191 0
M  V30 5093 H 477.316 3.24914 3.7516 0
M  V30 5094 H 472.572 4.6444 3.97625 0
M  V30 5095 H 476.746 5.6228 4.1087 0
M  V30 5096 H 474.373 6.32506 4.21712 0
M  V30 5097 N 475.948 -1.35272 0.808662 0
M  V30 5098 C 476.88 -2.28507 0.178149 0
M  V30 5099 C 477.893 -1.50377 -0.623754 0
M  V30 5100 O 479.082 -1.72583 -0.455774 0
M  V30 5101 C 476.182 -3.30038 -0.769959 0
M  V30 5102 C 475.355 -4.37398 -0.0139749 0
M  V30 5103 C 474.414 -5.18775 -0.880875 0
M  V30 5104 O 473.44 -5.68236 -0.331059 0
M  V30 5105 N 474.642 -5.37087 -2.20267 0
M  V30 5106 H 477.407 -2.83255 0.979106 0
M  V30 5107 H 474.968 -1.47643 0.664308 0
M  V30 5108 H 476.96 -3.81371 -1.35418 0
M  V30 5109 H 475.53 -2.75789 -1.47171 0
M  V30 5110 H 474.75 -3.86971 0.751468 0
M  V30 5111 H 476.038 -5.06268 0.506965 0
M  V30 5112 H 475.436 -4.9855 -2.67328 0
M  V30 5113 H 473.993 -5.91593 -2.73608 0
M  V30 5114 N 477.426 -0.562348 -1.47226 0
M  V30 5115 C 478.654 -0.0452275 -2.06851 0
M  V30 5116 C 479.069 1.25078 -1.41424 0
M  V30 5117 O 478.426 1.75156 -0.512513 0
M  V30 5118 C 478.477 0.148674 -3.61194 0
M  V30 5119 O 478.198 -1.09602 -4.24169 0
M  V30 5120 C 479.699 0.702488 -4.37699 0
M  V30 5121 H 476.919 -0.0481775 -0.669268 0
M  V30 5122 H 479.463 -0.777223 -1.89155 0
M  V30 5123 H 477.618 0.830817 -3.78386 0
M  V30 5124 H 478.032 -0.896982 -5.16773 0
M  V30 5125 H 479.506 0.78743 -5.46355 0
M  V30 5126 H 479.983 1.71493 -4.04335 0
M  V30 5127 H 480.589 0.0558772 -4.25263 0
M  V30 5128 N 478.904 1.54736 -0.299062 0
M  V30 5129 C 479.834 2.26409 0.571085 0
M  V30 5130 C 480.815 1.2629 1.13951 0
M  V30 5131 O 482 1.55059 1.16921 0
M  V30 5132 C 479.13 3.00338 1.74396 0
M  V30 5133 C 478.084 4.07588 1.30599 0
M  V30 5134 C 477.41 4.69222 2.56387 0
M  V30 5135 C 478.71 5.20455 0.438645 0
M  V30 5136 H 480.404 2.99388 -0.0266991 0
M  V30 5137 H 477.95 1.43993 -0.0142812 0
M  V30 5138 H 479.903 3.49198 2.35878 0
M  V30 5139 H 478.627 2.24934 2.36796 0
M  V30 5140 H 477.286 3.59575 0.71424 0
M  V30 5141 H 476.934 3.9046 3.17097 0
M  V30 5142 H 476.634 5.41653 2.27784 0
M  V30 5143 H 478.158 5.20844 3.18675 0
M  V30 5144 H 479.572 5.65221 0.959085 0
M  V30 5145 H 477.969 5.99594 0.246466 0
M  V30 5146 H 479.039 4.8192 -0.536738 0
M  V30 5147 N 480.382 0.0267497 1.57577 0
M  V30 5148 C 481.659 -0.690926 1.82991 0
M  V30 5149 C 482.039 -1.90471 0.910164 0
M  V30 5150 O 481.387 -2.28474 -0.0347985 0
M  V30 5151 C 481.597 -1.07139 3.32148 0
M  V30 5152 C 482.945 -1.46402 3.98562 0
M  V30 5153 O 483.969 -1.16443 3.36629 0
M  V30 5154 O 482.828 -2.02214 5.07712 0
M  V30 5155 H 479.922 -0.338747 0.75444 0
M  V30 5156 H 482.468 0.0542506 1.69613 0
M  V30 5157 H 481.24 -0.207394 3.9075 0
M  V30 5158 H 480.863 -1.87481 3.50623 0
M  V30 5159 N 481.861 -1.55662 -0.24637 0
M  V30 5160 C 482.811 -1.86753 -1.30795 0
M  V30 5161 C 483.795 -0.728445 -1.43466 0
M  V30 5162 O 484.987 -0.99038 -1.46699 0
M  V30 5163 C 482.116 -2.16618 -2.66329 0
M  V30 5164 C 481.202 -3.36855 -2.57661 0
M  V30 5165 N 481.593 -4.56111 -2.18624 0
M  V30 5166 C 479.891 -3.39976 -2.88673 0
M  V30 5167 C 480.592 -5.38247 -2.20601 0
M  V30 5168 N 479.568 -4.77322 -2.60124 0
M  V30 5169 H 483.37 -2.76486 -0.996642 0
M  V30 5170 H 480.884 -1.55896 -0.454994 0
M  V30 5171 H 482.881 -2.37057 -3.42942 0
M  V30 5172 H 481.541 -1.28185 -2.98327 0
M  V30 5173 H 482.552 -4.81726 -1.9016 0
M  V30 5174 H 479.229 -2.61815 -3.25206 0
M  V30 5175 H 480.619 -6.43657 -1.92756 0
M  V30 5176 N 483.339 0.512053 -1.4905 0
M  V30 5177 C 484.249 1.64139 -1.67617 0
M  V30 5178 C 485.265 1.64786 -0.558701 0
M  V30 5179 O 486.441 1.8341 -0.832034 0
M  V30 5180 C 483.506 3.00548 -1.72835 0
M  V30 5181 C 482.567 3.10615 -2.96339 0
M  V30 5182 C 481.8 4.40517 -3.01298 0
M  V30 5183 O 482.023 5.28671 -2.14157 0
M  V30 5184 O 480.957 4.55325 -3.93653 0
M  V30 5185 H 484.783 1.51407 -2.63267 0
M  V30 5186 H 482.368 0.687131 -1.32661 0
M  V30 5187 H 484.25 3.81641 -1.78683 0
M  V30 5188 H 482.925 3.13566 -0.803616 0
M  V30 5189 H 481.832 2.2875 -2.96014 0
M  V30 5190 H 483.165 3.0252 -3.88256 0
M  V30 5191 N 484.817 1.37938 0.762283 0
M  V30 5192 C 486.094 1.24196 1.51112 0
M  V30 5193 C 486.474 -0.160409 2.1049 0
M  V30 5194 O 485.822 -1.16904 1.96331 0
M  V30 5195 C 486.032 2.34537 2.58445 0
M  V30 5196 C 487.38 2.7254 3.25588 0
M  V30 5197 O 488.404 2.33783 2.68745 0
M  V30 5198 O 487.263 3.39343 4.28379 0
M  V30 5199 H 484.357 0.485175 0.669727 0
M  V30 5200 H 486.903 1.49743 0.798438 0
M  V30 5201 H 485.675 3.28406 2.12756 0
M  V30 5202 H 485.298 2.10505 3.37303 0
M  V30 5203 N 486.295 -0.989507 1.22664 0
M  V30 5204 C 487.227 -2.0824 0.957542 0
M  V30 5205 C 488.24 -1.6267 -0.0651098 0
M  V30 5206 O 489.429 -1.77695 0.169312 0
M  V30 5207 C 486.529 -3.36298 0.419145 0
M  V30 5208 C 485.702 -4.10882 1.49982 0
M  V30 5209 C 484.761 -5.17221 0.967904 0
M  V30 5210 O 483.787 -5.44613 1.65487 0
M  V30 5211 N 484.989 -5.80124 -0.20896 0
M  V30 5212 H 487.754 -2.31904 1.89843 0
M  V30 5213 H 485.315 -1.15552 1.13399 0
M  V30 5214 H 487.307 -4.04671 0.0485451 0
M  V30 5215 H 485.877 -3.09671 -0.426937 0
M  V30 5216 H 485.097 -3.37092 2.04359 0
M  V30 5217 H 486.385 -4.57482 2.22682 0
M  V30 5218 H 485.783 -5.60244 -0.783818 0
M  V30 5219 H 484.34 -6.49715 -0.520913 0
M  V30 5220 N 487.773 -1.03688 -1.18687 0
M  V30 5221 C 489.022 -0.733235 -1.879 0
M  V30 5222 C 489.335 0.741745 -1.8099 0
M  V30 5223 O 490.541 1.15875 -2.4553 0
M  V30 5224 C 488.997 -1.26127 -3.37076 0
M  V30 5225 C 488.605 -2.76461 -3.52524 0
M  V30 5226 C 490.349 -1.03398 -4.11715 0
M  V30 5227 C 488.256 -3.22642 -4.95637 0
M  V30 5228 H 487.186 -0.270584 -0.703776 0
M  V30 5229 H 489.837 -1.25222 -1.34133 0
M  V30 5230 H 488.219 -0.670165 -3.90288 0
M  V30 5231 H 489.393 -3.41296 -3.09602 0
M  V30 5232 H 487.708 -2.97559 -2.91286 0
M  V30 5233 H 490.305 -1.3542 -5.17267 0
M  V30 5234 H 490.648 0.0289246 -4.1629 0
M  V30 5235 H 491.181 -1.5895 -3.64664 0
M  V30 5236 H 487.92 -4.28296 -4.96228 0
M  V30 5237 H 487.44 -2.62539 -5.39289 0
M  V30 5238 H 489.119 -3.16444 -5.64333 0
M  V30 5239 N 489.251 1.34841 -0.815825 0
M  V30 5240 C 490.214 2.27959 -0.238185 0
M  V30 5241 C 491.214 1.49983 0.579816 0
M  V30 5242 O 492.404 1.69617 0.396953 0
M  V30 5243 C 489.536 3.34314 0.666876 0
M  V30 5244 H 490.729 2.80558 -1.05958 0
M  V30 5245 H 488.282 1.44852 -0.587156 0
M  V30 5246 H 489.017 2.86916 1.5116 0
M  V30 5247 H 488.802 3.92014 0.0819106 0
M  V30 5248 H 490.292 4.0379 1.06506 0
M  V30 5249 N 490.729 0.570148 1.46925 0
M  V30 5250 C 491.659 -0.158274 2.32963 0
M  V30 5251 C 492.64 -0.896093 1.44583 0
M  V30 5252 O 493.825 -0.874022 1.7342 0
M  V30 5253 C 490.955 -1.18055 3.26619 0
M  V30 5254 C 489.909 -0.558379 4.24342 0
M  V30 5255 C 489.235 -1.68623 5.07415 0
M  V30 5256 C 490.535 0.496295 5.19937 0
M  V30 5257 H 492.229 0.560046 2.94115 0
M  V30 5258 H 489.775 0.270775 1.41431 0
M  V30 5259 H 491.728 -1.69841 3.85658 0
M  V30 5260 H 490.452 -1.92899 2.63548 0
M  V30 5261 H 489.111 -0.0617157 3.66548 0
M  V30 5262 H 488.759 -2.42402 4.40738 0
M  V30 5263 H 488.459 -1.27564 5.73586 0
M  V30 5264 H 489.983 -2.20709 5.69315 0
M  V30 5265 H 491.397 0.0640052 5.73264 0
M  V30 5266 H 489.794 0.82649 5.94381 0
M  V30 5267 H 490.864 1.38735 4.6463 0
M  V30 5268 N 492.207 -1.54576 0.307264 0
M  V30 5269 C 493.137 -2.26708 -0.55907 0
M  V30 5270 C 494.118 -1.26893 -1.1328 0
M  V30 5271 O 495.303 -1.55677 -1.16097 0
M  V30 5272 C 492.433 -3.01259 -1.72801 0
M  V30 5273 C 491.387 -4.08275 -1.28435 0
M  V30 5274 C 490.713 -4.70575 -2.53895 0
M  V30 5275 C 492.013 -5.2068 -0.411038 0
M  V30 5276 H 493.707 -2.9937 0.042576 0
M  V30 5277 H 491.253 -1.43983 0.0219173 0
M  V30 5278 H 493.206 -3.50444 -2.34023 0
M  V30 5279 H 491.93 -2.26187 -2.356 0
M  V30 5280 H 490.589 -3.59949 -0.695161 0
M  V30 5281 H 490.237 -3.92136 -3.15021 0
M  V30 5282 H 489.937 -5.42854 -2.24908 0
M  V30 5283 H 491.461 -5.22527 -3.15908 0
M  V30 5284 H 492.875 -5.65721 -0.929097 0
M  V30 5285 H 491.272 -5.99716 -0.214664 0
M  V30 5286 H 492.342 -4.81629 0.562287 0
M  V30 5287 N 493.685 -0.035106 -1.57561 0
M  V30 5288 C 494.632 0.94474 -2.10578 0
M  V30 5289 C 495.602 1.3192 -1.00927 0
M  V30 5290 O 496.787 1.41147 -1.28382 0
M  V30 5291 C 493.927 2.21982 -2.64231 0
M  V30 5292 C 493.04 1.90128 -3.87911 0
M  V30 5293 C 492.175 3.11975 -4.29936 0
M  V30 5294 C 491.214 2.75968 -5.46359 0
M  V30 5295 N 490.351 3.90459 -5.83512 0
M  V30 5296 H 495.191 0.485717 -2.94015 0
M  V30 5297 H 492.728 0.228143 -1.4532 0
M  V30 5298 H 494.686 2.96572 -2.9343 0
M  V30 5299 H 493.316 2.6549 -1.83616 0
M  V30 5300 H 492.368 1.05755 -3.65404 0
M  V30 5301 H 493.68 1.59613 -4.72573 0
M  V30 5302 H 492.834 3.9488 -4.60603 0
M  V30 5303 H 491.573 3.45657 -3.44053 0
M  V30 5304 H 490.578 1.91478 -5.1538 0
M  V30 5305 H 491.803 2.43497 -6.33945 0
M  V30 5306 H 489.749 4.23971 -5.00584 0
M  V30 5307 H 489.666 3.63588 -6.62827 0
M  V30 5308 H 490.934 4.7405 -6.18787 0
M  V30 5309 N 495.163 1.55791 0.238111 0
M  V30 5310 C 496.411 1.77681 0.963001 0
M  V30 5311 C 496.732 0.600674 1.85518 0
M  V30 5312 O 496.002 -0.383182 1.92116 0
M  V30 5313 H 494.582 0.655315 0.358568 0
M  V30 5314 H 497.244 1.93239 0.253945 0
M  V30 5315 H 496.34 2.69177 1.57956 0
M  V30 5316 N 496.642 -0.504142 1.49319 0
M  V30 5317 C 497.867 -1.28729 1.62615 0
M  V30 5318 C 498.292 -1.85752 0.296309 0
M  V30 5319 O 497.65 -1.65704 -0.735649 0
M  V30 5320 C 497.698 -2.39561 2.69524 0
M  V30 5321 O 496.802 -3.43324 2.28478 0
M  V30 5322 H 496.143 -0.380172 0.544395 0
M  V30 5323 H 498.673 -0.603872 1.95485 0
M  V30 5324 H 498.683 -2.8537 2.91595 0
M  V30 5325 H 497.358 -1.97423 3.66056 0
M  V30 5326 H 495.935 -3.03455 2.16725 0
M  V30 5327 N 498.12 -1.38341 -0.754957 0
M  V30 5328 C 499.083 -1.35262 -1.85032 0
M  V30 5329 C 500.083 -0.253393 -1.58791 0
M  V30 5330 O 501.273 -0.510205 -1.66561 0
M  V30 5331 C 498.405 -1.10544 -3.22479 0
M  V30 5332 H 499.598 -2.32712 -1.8917 0
M  V30 5333 H 497.151 -1.23614 -0.956515 0
M  V30 5334 H 497.886 -0.136952 -3.24011 0
M  V30 5335 H 497.671 -1.90127 -3.4292 0
M  V30 5336 H 499.161 -1.11082 -4.02555 0
M  V30 5337 N 499.598 0.982988 -1.23187 0
M  V30 5338 C 500.844 1.72648 -1.06398 0
M  V30 5339 C 501.177 1.90066 0.398561 0
M  V30 5340 O 500.452 1.45105 1.29518 0
M  V30 5341 C 500.735 3.12627 -1.78707 0
M  V30 5342 C 500.588 3.02795 -3.32618 0
M  V30 5343 C 501.907 4.11997 -1.54747 0
M  V30 5344 H 499.026 0.626649 -0.387918 0
M  V30 5345 H 501.668 1.14455 -1.51658 0
M  V30 5346 H 499.818 3.62308 -1.40234 0
M  V30 5347 H 501.49 2.60659 -3.80598 0
M  V30 5348 H 499.733 2.39362 -3.61785 0
M  V30 5349 H 500.404 4.01893 -3.78399 0
M  V30 5350 H 502.88 3.71114 -1.88186 0
M  V30 5351 H 501.756 5.08037 -2.07821 0
M  V30 5352 H 502.017 4.39462 -0.482249 0
M  V30 5353 N 501.076 1.04316 1.18135 0
M  V30 5354 C 501.986 0.646876 2.25505 0
M  V30 5355 C 503.002 -0.328008 1.7088 0
M  V30 5356 O 504.178 -0.182309 2.00573 0
M  V30 5357 C 501.243 0.0185664 3.46695 0
M  V30 5358 C 500.304 1.04277 4.16443 0
M  V30 5359 C 499.537 0.444352 5.31847 0
M  V30 5360 O 499.76 -0.748735 5.65465 0
M  V30 5361 O 498.694 1.17428 5.90334 0
M  V30 5362 H 502.52 1.54147 2.61672 0
M  V30 5363 H 500.105 0.814188 1.25265 0
M  V30 5364 H 501.987 -0.331068 4.20097 0
M  V30 5365 H 500.662 -0.849814 3.12346 0
M  V30 5366 H 499.569 1.44425 3.45098 0
M  V30 5367 H 500.902 1.882 4.54798 0
M  V30 5368 N 502.554 -1.34406 0.822964 0
M  V30 5369 C 503.517 -2.2783 0.250271 0
M  V30 5370 C 504.517 -1.50288 -0.571854 0
M  V30 5371 O 505.707 -1.69825 -0.387952 0
M  V30 5372 C 502.839 -3.34663 -0.649137 0
M  V30 5373 H 504.032 -2.79992 1.07444 0
M  V30 5374 H 501.585 -1.44539 0.594829 0
M  V30 5375 H 502.32 -2.87714 -1.49637 0
M  V30 5376 H 502.105 -3.92052 -0.0611199 0
M  V30 5377 H 503.595 -4.04349 -1.04363 0
M  V30 5378 N 504.032 -0.577932 -1.46621 0
M  V30 5379 C 504.965 0.206312 -2.27265 0
M  V30 5380 C 505.943 0.901306 -1.35334 0
M  V30 5381 O 507.127 0.916151 -1.64739 0
M  V30 5382 C 504.254 1.29563 -3.1294 0
M  V30 5383 C 503.3 0.706981 -4.206 0
M  V30 5384 S 504.133 -0.462459 -5.33499 0
M  V30 5385 C 505.289 0.628171 -6.2274 0
M  V30 5386 H 505.522 -0.477961 -2.93433 0
M  V30 5387 H 503.055 -0.364715 -1.50031 0
M  V30 5388 H 505.013 1.91935 -3.62865 0
M  V30 5389 H 503.674 1.95183 -2.46095 0
M  V30 5390 H 502.867 1.52565 -4.80354 0
M  V30 5391 H 502.469 0.159022 -3.73662 0
M  V30 5392 H 504.761 1.51506 -6.60342 0
M  V30 5393 H 505.704 0.0674961 -7.08068 0
M  V30 5394 H 506.112 0.930167 -5.56784 0
M  V30 5395 N 505.51 1.54411 -0.315457 0
M  V30 5396 C 506.757 2.00419 0.289543 0
M  V30 5397 C 507.085 1.20373 1.52776 0
M  V30 5398 O 506.34 0.271769 1.93804 0
M  V30 5399 C 506.639 3.50936 0.676652 0
M  V30 5400 C 506.305 4.48532 -0.461472 0
M  V30 5401 C 504.967 4.74936 -0.773879 0
M  V30 5402 C 507.319 5.06567 -1.22637 0
M  V30 5403 C 504.647 5.56634 -1.85405 0
M  V30 5404 C 506.999 5.89441 -2.29657 0
M  V30 5405 C 505.663 6.1415 -2.61488 0
M  V30 5406 H 504.933 0.733386 0.105951 0
M  V30 5407 H 507.58 1.86434 -0.437554 0
M  V30 5408 H 505.885 3.62606 1.48405 0
M  V30 5409 H 507.582 3.83971 1.15618 0
M  V30 5410 H 504.172 4.28096 -0.207893 0
M  V30 5411 H 508.356 4.86157 -0.998271 0
M  V30 5412 H 503.612 5.74012 -2.10523 0
M  V30 5413 H 507.786 6.33432 -2.89374 0
M  V30 5414 H 505.413 6.77245 -3.45317 0
M  V30 5415 N 506.988 0.0434614 1.5754 0
M  V30 5416 C 507.918 -0.931651 2.14109 0
M  V30 5417 C 508.899 -1.32971 1.06079 0
M  V30 5418 O 510.084 -1.40579 1.33982 0
M  V30 5419 C 507.214 -2.20914 2.67982 0
M  V30 5420 C 506.168 -1.95139 3.80926 0
M  V30 5421 C 505.494 -3.29276 4.21285 0
M  V30 5422 C 506.794 -1.27913 5.06395 0
M  V30 5423 H 508.488 -0.460497 2.95837 0
M  V30 5424 H 506.034 -0.220058 1.42309 0
M  V30 5425 H 507.987 -2.89522 3.06194 0
M  V30 5426 H 506.711 -2.70221 1.83434 0
M  V30 5427 H 505.37 -1.28945 3.43175 0
M  V30 5428 H 505.018 -3.76369 3.33699 0
M  V30 5429 H 504.718 -3.12831 4.97404 0
M  V30 5430 H 506.242 -3.99129 4.62091 0
M  V30 5431 H 507.656 -1.86544 5.42102 0
M  V30 5432 H 506.053 -1.2182 5.87605 0
M  V30 5433 H 507.123 -0.254066 4.84234 0
M  V30 5434 N 508.466 -1.55915 -0.229846 0
M  V30 5435 C 509.882 -1.48721 -0.579166 0
M  V30 5436 C 510.082 -0.736976 -1.87539 0
M  V30 5437 O 509.138 -0.273258 -2.51017 0
M  V30 5438 C 510.451 -2.9323 -0.666082 0
M  V30 5439 C 511.999 -3.03701 -0.757267 0
M  V30 5440 C 512.474 -4.49552 -0.8756 0
M  V30 5441 N 513.965 -4.53561 -0.940035 0
M  V30 5442 C 514.7 -5.63683 -1.05116 0
M  V30 5443 N 514.196 -6.83576 -1.12675 0
M  V30 5444 N 515.989 -5.51516 -1.08565 0
M  V30 5445 H 508.14 -2.03123 0.620857 0
M  V30 5446 H 510.403 -0.922898 0.21671 0
M  V30 5447 H 510.109 -3.51032 0.21664 0
M  V30 5448 H 509.983 -3.44668 -1.53243 0
M  V30 5449 H 512.37 -2.45969 -1.63043 0
M  V30 5450 H 512.451 -2.55446 0.134583 0
M  V30 5451 H 512.095 -5.079 -0.00692351 0
M  V30 5452 H 512.025 -4.95506 -1.78274 0
M  V30 5453 H 514.516 -3.67215 -0.892269 0
M  V30 5454 H 514.829 -7.63251 -1.21109 0
M  V30 5455 H 513.174 -6.86303 -1.09603 0
M  V30 5456 H 516.365 -4.5678 -1.02319 0
M  V30 5457 H 516.538 -6.37372 -1.1688 0
M  V30 5458 N 509.944 0.496216 -1.49584 0
M  V30 5459 C 511.169 1.27865 -1.63295 0
M  V30 5460 C 511.594 1.85592 -0.306156 0
M  V30 5461 O 510.952 1.66092 0.726851 0
M  V30 5462 C 511 2.38128 -2.7079 0
M  V30 5463 O 510.104 3.42108 -2.30296 0
M  V30 5464 H 509.445 0.377279 -0.546403 0
M  V30 5465 H 511.975 0.593497 -1.95803 0
M  V30 5466 H 511.985 2.8382 -2.93104 0
M  V30 5467 H 510.66 1.95479 -3.67098 0
M  V30 5468 H 509.237 3.02301 -2.18331 0
M  V30 5469 N 511.423 1.38739 0.74761 0
M  V30 5470 C 512.386 1.36241 1.84312 0
M  V30 5471 C 513.386 0.261811 1.58654 0
M  V30 5472 O 514.576 0.519031 1.66288 0
M  V30 5473 C 511.708 1.12253 3.21888 0
M  V30 5474 H 512.901 2.33712 1.87933 0
M  V30 5475 H 510.454 1.2412 0.949946 0
M  V30 5476 H 511.189 0.154133 3.23934 0
M  V30 5477 H 510.974 1.91943 3.41907 0
M  V30 5478 H 512.464 1.13215 4.0196 0
M  V30 5479 N 512.901 -0.976442 1.23707 0
M  V30 5480 C 513.811 -2.10359 1.03856 0
M  V30 5481 C 514.827 -1.73991 -0.0180919 0
M  V30 5482 O 516.003 -2.0061 0.178211 0
M  V30 5483 C 513.068 -3.40809 0.636387 0
M  V30 5484 C 512.129 -3.91179 1.76854 0
M  V30 5485 C 511.362 -5.15404 1.38546 0
M  V30 5486 O 511.585 -5.69754 0.27142 0
M  V30 5487 O 510.519 -5.5994 2.20797 0
M  V30 5488 H 514.345 -2.29997 1.98331 0
M  V30 5489 H 511.93 -1.08742 1.02448 0
M  V30 5490 H 513.812 -4.19269 0.423223 0
M  V30 5491 H 512.487 -3.22493 -0.279322 0
M  V30 5492 H 511.394 -3.13819 2.03638 0
M  V30 5493 H 512.727 -4.13958 2.6627 0
M  V30 5494 N 514.379 -1.04941 -1.1758 0
M  V30 5495 C 515.628 -0.753124 -1.87112 0
M  V30 5496 C 515.941 0.722507 -1.81767 0
M  V30 5497 O 517.147 1.13265 -2.46746 0
M  V30 5498 C 515.603 -1.29695 -3.35719 0
M  V30 5499 C 515.211 -2.80184 -3.49572 0
M  V30 5500 C 516.955 -1.07759 -4.10595 0
M  V30 5501 C 514.862 -3.2788 -4.92187 0
M  V30 5502 H 513.792 -0.278034 -0.700866 0
M  V30 5503 H 516.443 -1.26637 -1.32798 0
M  V30 5504 H 514.825 -0.711522 -3.89555 0
M  V30 5505 H 515.999 -3.44561 -3.05965 0
M  V30 5506 H 514.314 -3.00632 -2.88113 0
M  V30 5507 H 516.911 -1.40899 -5.15802 0
M  V30 5508 H 517.254 -0.0152302 -4.16297 0
M  V30 5509 H 517.787 -1.62809 -3.62957 0
M  V30 5510 H 514.526 -4.33535 -4.91658 0
M  V30 5511 H 514.046 -2.68245 -5.36475 0
M  V30 5512 H 515.725 -3.22412 -5.60945 0
M  V30 5513 N 515.857 1.33968 -0.830081 0
M  V30 5514 C 517.104 1.98063 -0.421566 0
M  V30 5515 C 517.432 1.65787 1.0171 0
M  V30 5516 O 516.687 0.925348 1.72441 0
M  V30 5517 C 516.986 3.52679 -0.57898 0
M  V30 5518 C 516.652 4.04884 -1.98443 0
M  V30 5519 C 515.314 4.18852 -2.36888 0
M  V30 5520 C 517.666 4.32879 -2.90285 0
M  V30 5521 C 514.994 4.58145 -3.66497 0
M  V30 5522 C 517.346 4.7362 -4.19364 0
M  V30 5523 C 516.01 4.85794 -4.57778 0
M  V30 5524 H 515.28 0.724765 -0.154262 0
M  V30 5525 H 517.927 1.59792 -1.05541 0
M  V30 5526 H 516.232 3.91556 0.138219 0
M  V30 5527 H 517.929 4.00261 -0.243317 0
M  V30 5528 H 514.519 3.9448 -1.67581 0
M  V30 5529 H 518.703 4.21619 -2.61823 0
M  V30 5530 H 513.959 4.65762 -3.96075 0
M  V30 5531 H 518.133 4.9424 -4.90612 0
M  V30 5532 H 515.76 5.15998 -5.58256 0
M  V30 5533 N 517.335 0.585699 1.46312 0
M  V30 5534 C 518.283 -0.158577 2.32059 0
M  V30 5535 C 519.277 -0.881427 1.44662 0
M  V30 5536 O 520.483 -0.799476 1.61271 0
M  V30 5537 H 516.858 -0.0700066 0.748734 0
M  V30 5538 H 518.829 0.583383 2.92642 0
M  V30 5539 C 517.578 -1.15701 3.27885 0
M  V30 5540 H 516.901 -0.610215 3.95116 0
M  V30 5541 H 518.341 -1.64812 3.90657 0
M  V30 5542 C 516.8 -2.21951 2.53455 0
M  V30 5543 O 517.33 -3.29352 2.29978 0
M  V30 5544 N 515.536 -1.9664 2.13965 0
M  V30 5545 H 515.083 -1.09309 2.33258 0
M  V30 5546 H 515.041 -2.6794 1.64485 0
M  V30 5547 N 518.813 -1.54241 0.323641 0
M  V30 5548 C 519.76 -2.24339 -0.542277 0
M  V30 5549 C 520.73 -1.23421 -1.11159 0
M  V30 5550 O 521.915 -1.52104 -1.15192 0
M  V30 5551 C 519.055 -3.00479 -1.69725 0
M  V30 5552 C 518.168 -4.16214 -1.15716 0
M  V30 5553 C 517.303 -4.79884 -2.27783 0
M  V30 5554 C 516.342 -5.87722 -1.71023 0
M  V30 5555 N 515.479 -6.45254 -2.76752 0
M  V30 5556 H 520.319 -2.97935 0.0620613 0
M  V30 5557 H 517.856 -1.47039 0.0423993 0
M  V30 5558 H 519.814 -3.42869 -2.3769 0
M  V30 5559 H 518.444 -2.29217 -2.27288 0
M  V30 5560 H 517.496 -3.78605 -0.369063 0
M  V30 5561 H 518.808 -4.93838 -0.701832 0
M  V30 5562 H 517.962 -5.25243 -3.03651 0
M  V30 5563 H 516.701 -4.01641 -2.76652 0
M  V30 5564 H 515.706 -5.41765 -0.936518 0
M  V30 5565 H 516.931 -6.67863 -1.2303 0
M  V30 5566 H 514.877 -5.69884 -3.24912 0
M  V30 5567 H 514.794 -7.18292 -2.35782 0
M  V30 5568 H 516.062 -6.95269 -3.5245 0
M  V30 5569 N 520.291 -0.0518155 -1.57515 0
M  V30 5570 C 521.238 0.922352 -2.11569 0
M  V30 5571 C 522.208 1.30842 -1.02321 0
M  V30 5572 O 523.393 1.39778 -1.29872 0
M  V30 5573 C 520.533 2.19167 -2.6657 0
M  V30 5574 C 519.646 1.86003 -3.89906 0
M  V30 5575 C 518.781 3.07398 -4.33221 0
M  V30 5576 C 517.82 2.70158 -5.49255 0
M  V30 5577 N 516.957 3.84248 -5.8762 0
M  V30 5578 H 521.797 0.454506 -2.94514 0
M  V30 5579 H 519.334 0.212718 -1.45554 0
M  V30 5580 H 521.292 2.93443 -2.96559 0
M  V30 5581 H 519.922 2.63528 -1.86421 0
M  V30 5582 H 518.974 1.01874 -3.66505 0
M  V30 5583 H 520.286 1.54592 -4.74239 0
M  V30 5584 H 519.44 3.89972 -4.64765 0
M  V30 5585 H 518.179 3.41988 -3.477 0
M  V30 5586 H 517.184 1.86001 -5.17382 0
M  V30 5587 H 518.409 2.36759 -6.36492 0
M  V30 5588 H 516.355 4.18638 -5.05053 0
M  V30 5589 H 516.272 3.56538 -6.66646 0
M  V30 5590 H 517.54 4.6746 -6.2378 0
M  V30 5591 N 521.769 1.56035 0.221574 0
M  V30 5592 C 522.699 1.95434 1.2778 0
M  V30 5593 C 523.68 0.822564 1.48889 0
M  V30 5594 O 524.865 1.08486 1.61072 0
M  V30 5595 C 521.995 2.27102 2.62759 0
M  V30 5596 C 520.949 3.4277 2.56306 0
M  V30 5597 C 520.275 3.60043 3.95314 0
M  V30 5598 C 521.575 4.77742 2.11093 0
M  V30 5599 H 523.269 2.83912 0.950504 0
M  V30 5600 H 520.815 1.36596 0.455791 0
M  V30 5601 H 522.768 2.53256 3.36807 0
M  V30 5602 H 521.492 1.35478 2.97176 0
M  V30 5603 H 520.151 3.16664 1.84715 0
M  V30 5604 H 519.799 2.65794 4.27039 0
M  V30 5605 H 519.499 4.37841 3.91879 0
M  V30 5606 H 521.023 3.88545 4.71025 0
M  V30 5607 H 522.437 5.03102 2.74885 0
M  V30 5608 H 520.834 5.58823 2.18716 0
M  V30 5609 H 521.904 4.731 1.06321 0
M  V30 5610 N 523.247 -0.488276 1.49845 0
M  V30 5611 C 524.658 -1.06955 1.53028 0
M  V30 5612 C 525.009 -1.9351 0.323797 0
M  V30 5613 O 524.134 -2.08891 -0.565116 0
M  V30 5614 C 524.729 -1.94643 2.77307 0
M  V30 5615 C 523.288 -2.4791 2.83227 0
M  V30 5616 C 522.435 -1.25833 2.47106 0
M  V30 5617 H 525.386 -0.271626 1.56358 0
M  V30 5618 H 525.407 -2.79496 2.5819 0
M  V30 5619 H 524.919 -1.31621 3.65099 0
M  V30 5620 H 523.02 -3.14535 1.99745 0
M  V30 5621 H 523.133 -2.84193 3.85709 0
M  V30 5622 H 521.497 -1.58764 1.99163 0
M  V30 5623 H 522.28 -0.644993 3.37186 0
M  V30 5624 N 524.725 -1.39134 -0.740242 0
M  V30 5625 C 525.95 -1.39518 -1.53459 0
M  V30 5626 C 526.375 0.00968883 -1.88098 0
M  V30 5627 O 525.733 0.995312 -1.51536 0
M  V30 5628 C 525.781 -2.26981 -2.802 0
M  V30 5629 O 524.885 -1.69609 -3.75908 0
M  V30 5630 H 524.226 -0.475328 -0.463637 0
M  V30 5631 H 526.756 -1.83064 -0.913717 0
M  V30 5632 H 526.766 -2.41309 -3.28989 0
M  V30 5633 H 525.441 -3.29081 -2.5432 0
M  V30 5634 H 524.018 -1.64495 -3.34658 0
M  V30 5635 N 526.204 0.969867 -1.24223 0
M  V30 5636 C 527.452 1.70918 -1.0785 0
M  V30 5637 C 527.773 1.91186 0.383763 0
M  V30 5638 O 527.043 1.48806 1.27411 0
M  V30 5639 H 525.623 0.633334 -0.396103 0
M  V30 5640 H 528.285 1.16689 -1.56108 0
M  V30 5641 H 527.381 2.69455 -1.57482 0
M  V30 5642 N 527.682 1.05563 1.17022 0
M  V30 5643 C 528.632 0.630007 2.19123 0
M  V30 5644 C 529.616 -0.335472 1.57364 0
M  V30 5645 O 530.808 -0.1521 1.76345 0
M  V30 5646 C 527.937 0.0101676 3.43298 0
M  V30 5647 C 527.023 0.999698 4.12149 0
M  V30 5648 N 527.414 2.17251 4.56766 0
M  V30 5649 C 525.712 0.829 4.38228 0
M  V30 5650 C 526.413 2.79883 5.09942 0
M  V30 5651 N 525.389 2.07656 5.02374 0
M  V30 5652 H 529.191 1.52353 2.51328 0
M  V30 5653 H 526.705 0.926288 1.33393 0
M  V30 5654 H 528.702 -0.312541 4.15727 0
M  V30 5655 H 527.362 -0.878707 3.12584 0
M  V30 5656 H 528.373 2.55067 4.50734 0
M  V30 5657 H 525.05 -0.00850974 4.17499 0
M  V30 5658 H 526.44 3.79362 5.54558 0
M  V30 5659 N 529.16 -1.33526 0.837174 0
M  V30 5660 C 530.385 -2.0258 0.444545 0
M  V30 5661 C 530.81 -1.6258 -0.946006 0
M  V30 5662 O 530.168 -0.817548 -1.6182 0
M  V30 5663 C 530.216 -3.5605 0.571006 0
M  V30 5664 O 529.32 -4.10422 -0.403431 0
M  V30 5665 H 528.661 -0.638866 0.180958 0
M  V30 5666 H 531.191 -1.70462 1.13154 0
M  V30 5667 H 531.201 -4.05488 0.452024 0
M  V30 5668 H 529.876 -3.84509 1.58512 0
M  V30 5669 H 528.453 -3.72113 -0.242147 0
M  V30 5670 N 530.638 -0.59345 -1.46 0
M  V30 5671 C 531.915 -0.0157933 -1.95594 0
M  V30 5672 C 532.295 1.44807 -1.53604 0
M  V30 5673 O 531.643 2.14342 -0.791824 0
M  V30 5674 C 531.853 -0.199081 -3.48432 0
M  V30 5675 C 533.201 -0.0724943 -4.24538 0
M  V30 5676 O 534.225 -0.128469 -3.55968 0
M  V30 5677 O 533.084 0.0542426 -5.46473 0
M  V30 5678 H 530.178 0.043749 -0.825842 0
M  V30 5679 H 532.724 -0.662522 -1.56233 0
M  V30 5680 H 531.496 -1.21631 -3.71916 0
M  V30 5681 H 531.119 0.483576 -3.94648 0
M  V30 5682 N 532.116 1.54067 -0.331816 0
M  V30 5683 C 533.046 2.27569 0.522932 0
M  V30 5684 C 534.027 1.28679 1.11247 0
M  V30 5685 O 535.212 1.57504 1.13605 0
M  V30 5686 C 532.342 3.0397 1.67987 0
M  V30 5687 C 531.296 4.10267 1.21924 0
M  V30 5688 C 530.622 4.74555 2.46377 0
M  V30 5689 C 531.922 5.21268 0.32815 0
M  V30 5690 H 533.616 2.99264 -0.0901977 0
M  V30 5691 H 531.162 1.4393 -0.044821 0
M  V30 5692 H 533.115 3.54123 2.28418 0
M  V30 5693 H 531.839 2.29906 2.31971 0
M  V30 5694 H 530.498 3.61009 0.637809 0
M  V30 5695 H 530.146 3.97098 3.08743 0
M  V30 5696 H 529.846 5.46363 2.16243 0
M  V30 5697 H 531.37 5.27487 3.07555 0
M  V30 5698 H 532.784 5.67128 0.838978 0
M  V30 5699 H 531.181 5.99982 0.119228 0
M  V30 5700 H 532.251 4.80673 -0.638839 0
M  V30 5701 N 533.594 0.0601682 1.57485 0
M  V30 5702 C 534.524 -0.90889 2.15085 0
M  V30 5703 C 535.505 -1.31838 1.07484 0
M  V30 5704 O 536.69 -1.3915 1.35466 0
M  V30 5705 C 533.82 -2.18059 2.7031 0
M  V30 5706 C 532.774 -1.91088 3.82974 0
M  V30 5707 C 532.1 -3.24789 4.24754 0
M  V30 5708 C 533.4 -1.22535 5.07723 0
M  V30 5709 H 535.094 -0.429093 2.96309 0
M  V30 5710 H 532.64 -0.204952 1.42534 0
M  V30 5711 H 534.593 -2.86258 3.09248 0
M  V30 5712 H 533.317 -2.6826 1.8629 0
M  V30 5713 H 531.976 -1.25297 3.44523 0
M  V30 5714 H 531.624 -3.72809 3.37672 0
M  V30 5715 H 531.324 -3.07538 5.00694 0
M  V30 5716 H 532.848 -3.94205 4.66299 0
M  V30 5717 H 534.262 -1.80783 5.4405 0
M  V30 5718 H 532.659 -1.1558 5.88864 0
M  V30 5719 H 533.729 -0.202692 4.84476 0
M  V30 5720 N 535.072 -1.5615 -0.213296 0
M  V30 5721 C 535.982 -1.96265 -1.28519 0
M  V30 5722 C 536.998 -0.86765 -1.50824 0
M  V30 5723 O 538.174 -1.17191 -1.63793 0
M  V30 5724 C 535.239 -2.27836 -2.61327 0
M  V30 5725 C 534.3 -3.50949 -2.47252 0
M  V30 5726 C 533.533 -3.81004 -3.73727 0
M  V30 5727 O 533.756 -3.12612 -4.77106 0
M  V30 5728 O 532.69 -4.74477 -3.70344 0
M  V30 5729 H 536.516 -2.87631 -0.974795 0
M  V30 5730 H 534.101 -1.43467 -0.416832 0
M  V30 5731 H 535.983 -2.49299 -3.39747 0
M  V30 5732 H 534.658 -1.39643 -2.9203 0
M  V30 5733 H 533.565 -3.34754 -1.67004 0
M  V30 5734 H 534.898 -4.39551 -2.21486 0
M  V30 5735 N 536.55 0.480323 -1.50102 0
M  V30 5736 C 537.46 1.60547 -1.71061 0
M  V30 5737 C 538.476 1.63564 -0.593529 0
M  V30 5738 O 539.652 1.81604 -0.870751 0
M  V30 5739 C 536.717 2.96814 -1.79171 0
M  V30 5740 C 535.778 3.04259 -3.02861 0
M  V30 5741 C 535.011 4.34027 -3.10574 0
M  V30 5742 O 535.234 5.24009 -2.25323 0
M  V30 5743 O 534.168 4.46873 -4.03223 0
M  V30 5744 H 537.994 1.45788 -2.6642 0
M  V30 5745 H 535.579 0.658838 -1.34088 0
M  V30 5746 H 537.461 3.77765 -1.86738 0
M  V30 5747 H 536.136 3.11791 -0.869947 0
M  V30 5748 H 535.043 2.22419 -3.008 0
M  V30 5749 H 536.376 2.94216 -3.94586 0
M  V30 5750 N 538.028 1.39524 0.732853 0
M  V30 5751 C 539.444 1.21176 1.03868 0
M  V30 5752 C 539.644 0.0748448 2.01361 0
M  V30 5753 O 538.7 -0.57281 2.45917 0
M  V30 5754 C 540.013 2.54667 1.59892 0
M  V30 5755 C 541.561 2.6153 1.71962 0
M  V30 5756 C 542.036 3.95248 2.31394 0
M  V30 5757 N 543.527 3.96899 2.38801 0
M  V30 5758 C 544.262 4.97138 2.85729 0
M  V30 5759 N 543.758 6.07775 3.32537 0
M  V30 5760 N 545.551 4.84516 2.84957 0
M  V30 5761 H 537.702 2.12225 0.086304 0
M  V30 5762 H 539.965 0.942614 0.100907 0
M  V30 5763 H 539.671 3.38423 0.95721 0
M  V30 5764 H 539.545 2.74538 2.58668 0
M  V30 5765 H 541.932 1.78156 2.35254 0
M  V30 5766 H 542.013 2.45507 0.718327 0
M  V30 5767 H 541.657 4.79054 1.68729 0
M  V30 5768 H 541.587 4.08593 3.32204 0
M  V30 5769 H 544.078 3.16998 2.05719 0
M  V30 5770 H 544.391 6.8017 3.66862 0
M  V30 5771 H 542.736 6.11366 3.30541 0
M  V30 5772 H 545.927 3.97185 2.47713 0
M  V30 5773 H 546.1 5.62783 3.21215 0
M  V30 5774 N 539.506 -0.963266 1.24736 0
M  V30 5775 C 540.755 -1.70115 1.08369 0
M  V30 5776 C 541.068 -1.91939 -0.376688 0
M  V30 5777 O 542.274 -2.6334 -0.660624 0
M  V30 5778 C 540.73 -3.06218 1.89099 0
M  V30 5779 C 540.338 -2.92221 3.39574 0
M  V30 5780 C 542.082 -3.83848 1.81275 0
M  V30 5781 C 539.989 -4.23662 4.12631 0
M  V30 5782 H 538.919 -0.637944 0.401924 0
M  V30 5783 H 541.57 -1.07304 1.48856 0
M  V30 5784 H 539.952 -3.69884 1.41429 0
M  V30 5785 H 541.126 -2.37541 3.94856 0
M  V30 5786 H 539.441 -2.28054 3.48397 0
M  V30 5787 H 542.038 -4.81188 2.33158 0
M  V30 5788 H 542.381 -4.08949 0.778895 0
M  V30 5789 H 542.914 -3.26918 2.26649 0
M  V30 5790 H 539.653 -4.03753 5.16395 0
M  V30 5791 H 539.173 -4.78141 3.62135 0
M  V30 5792 H 540.852 -4.92256 4.19873 0
M  V30 5793 N 540.985 -1.06182 -1.16461 0
M  V30 5794 C 542.401 -0.785065 -1.38956 0
M  V30 5795 C 542.601 0.616103 -1.9185 0
M  V30 5796 O 541.657 1.37686 -2.11657 0
M  V30 5797 C 542.97 -1.84902 -2.37132 0
M  V30 5798 C 544.518 -1.8724 -2.50819 0
M  V30 5799 C 544.993 -2.92686 -3.52277 0
M  V30 5800 N 546.484 -2.91712 -3.59803 0
M  V30 5801 C 547.219 -3.69949 -4.38093 0
M  V30 5802 N 546.715 -4.58 -5.19815 0
M  V30 5803 N 548.508 -3.58346 -4.33064 0
M  V30 5804 H 540.659 -1.96569 -0.804634 0
M  V30 5805 H 542.922 -0.851747 -0.416211 0
M  V30 5806 H 542.628 -2.85518 -2.0536 0
M  V30 5807 H 542.502 -1.69908 -3.36766 0
M  V30 5808 H 544.889 -0.872827 -2.81897 0
M  V30 5809 H 544.97 -2.06311 -1.51226 0
M  V30 5810 H 544.614 -3.92835 -3.21937 0
M  V30 5811 H 544.544 -2.70864 -4.51598 0
M  V30 5812 H 547.035 -2.27876 -3.01464 0
M  V30 5813 H 547.348 -5.14357 -5.76764 0
M  V30 5814 H 545.693 -4.62056 -5.19162 0
M  V30 5815 H 548.884 -2.88943 -3.68279 0
M  V30 5816 H 549.057 -4.19563 -4.93833 0
M  V30 5817 N 542.463 1.3308 -0.844243 0
M  V30 5818 C 543.411 2.31028 -0.269954 0
M  V30 5819 C 544.405 1.58381 0.600997 0
M  V30 5820 O 545.611 1.73203 0.48996 0
M  V30 5821 H 541.986 0.748866 -0.0685782 0
M  V30 5822 H 543.957 2.76967 -1.11049 0
M  V30 5823 C 542.706 3.43549 0.535676 0
M  V30 5824 H 542.029 3.99604 -0.125202 0
M  V30 5825 H 543.469 4.14267 0.903262 0
M  V30 5826 C 541.928 2.8988 1.71672 0
M  V30 5827 O 542.458 2.86511 2.81557 0
M  V30 5828 N 540.664 2.46416 1.54037 0
M  V30 5829 H 540.211 2.49356 0.64649 0
M  V30 5830 H 540.169 2.1086 2.33207 0
M  V30 5831 N 543.941 0.601185 1.45683 0
M  V30 5832 C 545.166 0.0982245 2.07167 0
M  V30 5833 C 545.591 -1.20546 1.44396 0
M  V30 5834 O 544.949 -1.73247 0.534347 0
M  V30 5835 C 544.997 -0.0346976 3.60583 0
M  V30 5836 O 544.101 -1.08657 3.97828 0
M  V30 5837 H 543.442 0.0711618 0.660176 0
M  V30 5838 H 545.972 0.829376 1.87036 0
M  V30 5839 H 545.982 -0.234969 4.07323 0
M  V30 5840 H 544.657 0.917265 4.05659 0
M  V30 5841 H 543.234 -0.863275 3.6277 0
M  V30 5842 N 545.419 -1.53889 0.339982 0
M  V30 5843 C 546.667 -2.00458 -0.257112 0
M  V30 5844 C 546.988 -1.22953 -1.51353 0
M  V30 5845 O 546.258 -0.335734 -1.93002 0
M  V30 5846 H 544.838 -0.740544 -0.0979965 0
M  V30 5847 H 547.5 -1.89386 0.460317 0
M  V30 5848 H 546.596 -3.08035 -0.502057 0
M  V30 5849 N 546.897 -0.0685191 -1.57451 0
M  V30 5850 C 548.146 0.600898 -1.92541 0
M  V30 5851 C 548.459 1.70967 -0.950239 0
M  V30 5852 O 549.665 2.43844 -1.19384 0
M  V30 5853 C 548.121 1.12019 -3.42023 0
M  V30 5854 C 547.729 0.0426028 -4.4798 0
M  V30 5855 C 549.473 1.76386 -3.86119 0
M  V30 5856 C 547.38 0.575759 -5.88591 0
M  V30 5857 H 546.31 0.228225 -0.71863 0
M  V30 5858 H 548.961 -0.140223 -1.82963 0
M  V30 5859 H 547.343 1.91418 -3.46663 0
M  V30 5860 H 548.517 -0.73182 -4.54952 0
M  V30 5861 H 546.832 -0.504642 -4.13331 0
M  V30 5862 H 549.429 2.17302 -4.88553 0
M  V30 5863 H 549.772 2.62255 -3.23308 0
M  V30 5864 H 550.305 1.03615 -3.84069 0
M  V30 5865 H 547.044 -0.245691 -6.55039 0
M  V30 5866 H 546.564 1.31778 -5.85145 0
M  V30 5867 H 548.243 1.0532 -6.3837 0
M  V30 5868 N 548.375 1.56261 0.205012 0
M  V30 5869 C 549.6 1.84491 0.947512 0
M  V30 5870 C 550.025 0.650894 1.76479 0
M  V30 5871 O 549.383 -0.40035 1.76824 0
M  V30 5872 C 549.431 3.10863 1.82747 0
M  V30 5873 O 548.535 2.90719 2.925 0
M  V30 5874 H 547.876 0.607783 0.267386 0
M  V30 5875 H 550.406 2.03485 0.213323 0
M  V30 5876 H 550.416 3.41399 2.23407 0
M  V30 5877 H 549.091 3.97392 1.2269 0
M  V30 5878 H 547.668 2.71457 2.55667 0
M  V30 5879 N 549.853 -0.472356 1.50355 0
M  V30 5880 C 551.13 -1.23356 1.51798 0
M  V30 5881 C 551.51 -2.09469 0.26193 0
M  V30 5882 O 550.858 -2.15677 -0.754691 0
M  V30 5883 C 551.068 -2.06568 2.81302 0
M  V30 5884 C 552.416 -2.648 3.31913 0
M  V30 5885 O 553.44 -2.16812 2.82614 0
M  V30 5886 O 552.299 -3.52231 4.17846 0
M  V30 5887 H 549.393 -0.559707 0.608816 0
M  V30 5888 H 551.939 -0.48428 1.62643 0
M  V30 5889 H 550.711 -1.43103 3.64194 0
M  V30 5890 H 550.334 -2.88633 2.73454 0
M  V30 5891 N 551.331 -1.39911 -0.725443 0
M  V30 5892 C 552.241 -1.41688 -1.8698 0
M  V30 5893 C 553.257 -0.310579 -1.71206 0
M  V30 5894 O 554.433 -0.55359 -1.93642 0
M  V30 5895 C 551.498 -1.26811 -3.22676 0
M  V30 5896 C 550.559 -2.47497 -3.50776 0
M  V30 5897 C 549.792 -2.3332 -4.79997 0
M  V30 5898 O 550.015 -1.34175 -5.54394 0
M  V30 5899 O 548.949 -3.22498 -5.08211 0
M  V30 5900 H 552.775 -2.38171 -1.88436 0
M  V30 5901 H 550.36 -1.21128 -0.874548 0
M  V30 5902 H 552.242 -1.20684 -4.03749 0
M  V30 5903 H 550.917 -0.334289 -3.21969 0
M  V30 5904 H 549.824 -2.59201 -2.69751 0
M  V30 5905 H 551.157 -3.39606 -3.5627 0
M  V30 5906 N 552.809 0.956637 -1.25245 0
M  V30 5907 C 554.039 1.7332 -1.12445 0
M  V30 5908 C 554.447 1.86392 0.324732 0
M  V30 5909 O 553.79 1.35967 1.23526 0
M  V30 5910 C 553.852 3.16603 -1.70303 0
M  V30 5911 C 553.516 3.26966 -3.19284 0
M  V30 5912 C 554.513 3.11434 -4.16299 0
M  V30 5913 C 552.198 3.50851 -3.59456 0
M  V30 5914 C 554.192 3.1963 -5.51467 0
M  V30 5915 C 551.879 3.58684 -4.94761 0
M  V30 5916 C 552.877 3.43087 -5.90576 0
M  V30 5917 O 552.565 3.50598 -7.2342 0
M  V30 5918 H 552.297 0.549981 -0.393061 0
M  V30 5919 H 554.851 1.20892 -1.66055 0
M  V30 5920 H 553.081 3.70385 -1.11138 0
M  V30 5921 H 554.77 3.76109 -1.52632 0
M  V30 5922 H 555.536 2.92853 -3.86604 0
M  V30 5923 H 551.415 3.62053 -2.85375 0
M  V30 5924 H 554.959 3.07373 -6.26233 0
M  V30 5925 H 550.856 3.76782 -5.24124 0
M  V30 5926 H 551.624 3.67242 -7.31489 0
M  V30 5927 N 554.287 1.06798 1.15896 0
M  V30 5928 C 555.536 0.782796 1.8589 0
M  V30 5929 C 555.849 -0.693498 1.82893 0
M  V30 5930 O 557.055 -1.09325 2.48516 0
M  V30 5931 C 555.511 1.3502 3.33613 0
M  V30 5932 C 555.119 2.8571 3.45071 0
M  V30 5933 C 556.863 1.14278 4.08829 0
M  V30 5934 C 554.77 3.35669 4.86909 0
M  V30 5935 H 553.7 0.289149 0.696354 0
M  V30 5936 H 556.351 1.28734 1.30766 0
M  V30 5937 H 554.733 0.773407 3.88374 0
M  V30 5938 H 555.907 3.49385 3.00445 0
M  V30 5939 H 554.222 3.05178 2.83294 0
M  V30 5940 H 556.819 1.49087 5.13495 0
M  V30 5941 H 557.162 0.0814575 4.1622 0
M  V30 5942 H 557.695 1.68563 3.60321 0
M  V30 5943 H 554.434 4.41302 4.84698 0
M  V30 5944 H 553.954 2.76745 5.32139 0
M  V30 5945 H 555.633 3.31296 5.55745 0
M  V30 5946 N 555.766 -1.3263 0.851289 0
M  V30 5947 C 556.994 -2.01563 0.466899 0
M  V30 5948 C 557.409 -1.63996 -0.935447 0
M  V30 5949 O 556.766 -0.85957 -1.6099 0
M  V30 5950 C 556.817 -3.56613 0.592433 0
M  V30 5951 O 556.538 -3.92828 1.93954 0
M  V30 5952 C 558.039 -4.42818 0.206612 0
M  V30 5953 H 555.259 -0.645307 0.183902 0
M  V30 5954 H 557.803 -1.69285 1.1473 0
M  V30 5955 H 555.958 -3.87379 -0.0401936 0
M  V30 5956 H 556.372 -4.87545 1.9339 0
M  V30 5957 H 557.846 -5.50918 0.345462 0
M  V30 5958 H 558.323 -4.30844 -0.85264 0
M  V30 5959 H 558.929 -4.17434 0.814176 0
M  V30 5960 N 557.244 -0.608902 -1.45362 0
M  V30 5961 C 558.655 -0.189511 -1.85736 0
M  V30 5962 C 559.006 1.2539 -1.50903 0
M  V30 5963 O 558.131 1.95094 -0.936347 0
M  V30 5964 C 558.726 -0.33716 -3.37118 0
M  V30 5965 C 557.285 0.0275487 -3.7639 0
M  V30 5966 C 556.432 -0.660983 -2.69307 0
M  V30 5967 H 559.383 -0.815499 -1.36144 0
M  V30 5968 H 559.404 0.430257 -3.7806 0
M  V30 5969 H 558.916 -1.38779 -3.62439 0
M  V30 5970 H 557.017 1.0773 -3.56686 0
M  V30 5971 H 557.13 -0.367018 -4.77692 0
M  V30 5972 H 555.494 -0.0984958 -2.54509 0
M  V30 5973 H 556.277 -1.71377 -2.97464 0
M  V30 5974 N 558.722 1.53707 -0.348139 0
M  V30 5975 C 559.655 2.21481 0.549667 0
M  V30 5976 C 560.633 1.20046 1.09671 0
M  V30 5977 O 561.817 1.48883 1.15612 0
M  V30 5978 C 558.944 2.89585 1.75664 0
M  V30 5979 C 557.99 4.04948 1.33864 0
M  V30 5980 S 558.823 5.34325 0.354577 0
M  V30 5981 C 559.979 6.05934 1.56828 0
M  V30 5982 H 560.212 2.97289 -0.0259755 0
M  V30 5983 H 557.745 1.53833 -0.132216 0
M  V30 5984 H 559.703 3.29441 2.44906 0
M  V30 5985 H 558.364 2.13535 2.30351 0
M  V30 5986 H 557.557 4.51552 2.23868 0
M  V30 5987 H 557.159 3.66893 0.725651 0
M  V30 5988 H 559.451 6.29606 2.50205 0
M  V30 5989 H 560.394 6.98799 1.14395 0
M  V30 5990 H 560.802 5.36151 1.76642 0
M  V30 5991 N 560.2 0.0768682 1.57412 0
M  V30 5992 C 561.447 -0.591085 1.93681 0
M  V30 5993 C 561.775 -1.69311 0.957286 0
M  V30 5994 O 561.03 -1.95682 -0.0262428 0
M  V30 5995 C 561.329 -1.20268 3.36557 0
M  V30 5996 C 560.995 -0.226286 4.50332 0
M  V30 5997 C 559.657 0.0423142 4.81181 0
M  V30 5998 C 562.009 0.441415 5.19327 0
M  V30 5999 C 559.337 0.985616 5.78362 0
M  V30 6000 C 561.689 1.37307 6.17519 0
M  V30 6001 C 560.353 1.65009 6.46783 0
M  V30 6002 H 559.623 -0.216293 0.70873 0
M  V30 6003 H 562.27 0.148824 1.90921 0
M  V30 6004 H 560.575 -2.01844 3.35807 0
M  V30 6005 H 562.272 -1.72688 3.61911 0
M  V30 6006 H 558.862 -0.445821 4.26275 0
M  V30 6007 H 563.046 0.247023 4.95685 0
M  V30 6008 H 558.302 1.20743 5.99359 0
M  V30 6009 H 562.476 1.89637 6.70083 0
M  V30 6010 H 560.103 2.38263 7.21897 0
M  V30 6011 N 561.678 -1.56367 -0.196722 0
M  V30 6012 C 562.903 -1.84991 -0.937714 0
M  V30 6013 C 563.328 -0.660244 -1.76132 0
M  V30 6014 O 562.686 0.390967 -1.77034 0
M  V30 6015 C 562.734 -3.11828 -1.81096 0
M  V30 6016 O 561.838 -2.92266 -2.90955 0
M  V30 6017 H 561.179 -0.609193 -0.264159 0
M  V30 6018 H 563.709 -2.03595 -0.202529 0
M  V30 6019 H 563.719 -3.42579 -2.21594 0
M  V30 6020 H 562.394 -3.98037 -1.2058 0
M  V30 6021 H 560.971 -2.72809 -2.54224 0
M  V30 6022 N 563.156 0.464375 -1.50603 0
M  V30 6023 C 564.403 1.21596 -1.61928 0
M  V30 6024 C 564.731 1.91804 -0.322737 0
M  V30 6025 O 563.986 1.83065 0.691776 0
M  V30 6026 C 564.285 2.278 -2.75394 0
M  V30 6027 C 563.951 1.74797 -4.1564 0
M  V30 6028 C 562.613 1.60063 -4.53799 0
M  V30 6029 C 564.965 1.35548 -5.03266 0
M  V30 6030 C 562.293 1.04514 -5.77316 0
M  V30 6031 C 564.645 0.814381 -6.27336 0
M  V30 6032 C 563.309 0.653726 -6.64291 0
M  V30 6033 H 562.579 0.444951 -0.592536 0
M  V30 6034 H 565.226 0.510964 -1.84557 0
M  V30 6035 H 563.531 3.04233 -2.46879 0
M  V30 6036 H 565.228 2.85723 -2.81359 0
M  V30 6037 H 561.818 1.87234 -3.8554 0
M  V30 6038 H 566.002 1.45763 -4.74412 0
M  V30 6039 H 561.258 0.908186 -6.04617 0
M  V30 6040 H 565.432 0.501626 -6.94591 0
M  V30 6041 H 563.059 0.22114 -7.59878 0
M  V30 6042 N 564.634 1.40294 0.718013 0
M  V30 6043 C 565.864 1.41544 1.50495 0
M  V30 6044 C 566.272 0.0127877 1.89196 0
M  V30 6045 O 565.615 -0.97305 1.55812 0
M  V30 6046 C 565.677 2.24021 2.81167 0
M  V30 6047 C 565.341 3.72463 2.64803 0
M  V30 6048 C 566.338 4.65154 2.32223 0
M  V30 6049 C 564.023 4.1625 2.81143 0
M  V30 6050 C 566.017 5.99618 2.16189 0
M  V30 6051 C 563.704 5.50784 2.64727 0
M  V30 6052 C 564.702 6.42283 2.32297 0
M  V30 6053 O 564.39 7.74337 2.16004 0
M  V30 6054 H 564.122 0.484819 0.471091 0
M  V30 6055 H 566.676 1.84948 0.893488 0
M  V30 6056 H 564.906 1.75393 3.44636 0
M  V30 6057 H 566.595 2.17243 3.42871 0
M  V30 6058 H 567.361 4.32622 2.19234 0
M  V30 6059 H 563.24 3.45352 3.05373 0
M  V30 6060 H 566.784 6.71 1.90799 0
M  V30 6061 H 562.681 5.82902 2.773 0
M  V30 6062 H 563.449 7.85244 2.30942 0
M  V30 6063 N 566.112 -0.949982 1.2575 0
M  V30 6064 C 567.059 -2.04738 1.06541 0
M  V30 6065 C 568.029 -1.66078 -0.0268818 0
M  V30 6066 O 569.214 -1.90348 0.131196 0
M  V30 6067 C 566.354 -3.38027 0.695127 0
M  V30 6068 C 565.467 -3.89776 1.86276 0
M  V30 6069 C 564.602 -5.11411 1.4364 0
M  V30 6070 C 563.641 -5.554 2.57287 0
M  V30 6071 N 562.778 -6.68244 2.15395 0
M  V30 6072 H 567.618 -2.20502 2.00457 0
M  V30 6073 H 565.155 -1.0805 0.998178 0
M  V30 6074 H 567.113 -4.14641 0.461375 0
M  V30 6075 H 565.743 -3.22135 -0.207046 0
M  V30 6076 H 564.795 -3.0964 2.20969 0
M  V30 6077 H 566.107 -4.18368 2.71606 0
M  V30 6078 H 565.261 -5.95457 1.16257 0
M  V30 6079 H 564 -4.84545 0.553879 0
M  V30 6080 H 563.005 -4.69916 2.85409 0
M  V30 6081 H 564.23 -5.84272 3.46125 0
M  V30 6082 H 562.176 -6.43078 1.29565 0
M  V30 6083 H 562.093 -6.96377 2.94272 0
M  V30 6084 H 563.361 -7.55687 1.91201 0
M  V30 6085 N 567.59 -1.07411 -1.15328 0
M  V30 6086 C 568.815 -0.818856 -1.90551 0
M  V30 6087 C 569.24 0.622194 -1.77512 0
M  V30 6088 O 568.598 1.43484 -1.10824 0
M  V30 6089 C 568.646 -1.23267 -3.38877 0
M  V30 6090 O 567.75 -0.378345 -4.10661 0
M  V30 6091 H 567.091 -0.29827 -0.593238 0
M  V30 6092 H 569.621 -1.43289 -1.46046 0
M  V30 6093 H 569.631 -1.20912 -3.89672 0
M  V30 6094 H 568.306 -2.28226 -3.47686 0
M  V30 6095 H 566.883 -0.464437 -3.69996 0
M  V30 6096 N 569.068 1.32177 -0.85831 0
M  V30 6097 C 570.317 1.96392 -0.459689 0
M  V30 6098 C 570.63 1.68659 0.990632 0
M  V30 6099 O 571.836 2.26641 1.49485 0
M  V30 6100 C 570.292 3.51542 -0.7711 0
M  V30 6101 C 569.9 3.8813 -2.2374 0
M  V30 6102 C 571.644 4.2221 -0.44038 0
M  V30 6103 C 569.551 5.36341 -2.49183 0
M  V30 6104 H 568.481 0.735007 -0.168169 0
M  V30 6105 H 571.132 1.50518 -1.0496 0
M  V30 6106 H 569.514 3.95846 -0.11058 0
M  V30 6107 H 570.688 3.54824 -2.94001 0
M  V30 6108 H 569.003 3.30497 -2.533 0
M  V30 6109 H 571.6 5.31234 -0.607855 0
M  V30 6110 H 571.943 4.11683 0.618291 0
M  V30 6111 H 572.476 3.83502 -1.05695 0
M  V30 6112 H 569.215 5.51892 -3.53689 0
M  V30 6113 H 568.735 5.7104 -1.83504 0
M  V30 6114 H 570.414 6.03466 -2.33318 0
M  V30 6115 N 570.547 0.616602 1.45037 0
M  V30 6116 C 571.795 0.115103 2.01772 0
M  V30 6117 C 572.116 -1.2622 1.48639 0
M  V30 6118 O 571.386 -1.83563 0.684199 0
M  V30 6119 H 569.966 0.0395607 0.745952 0
M  V30 6120 H 572.628 0.800032 1.77723 0
M  V30 6121 H 571.724 0.0717274 3.12018 0
M  V30 6122 N 572.025 -1.5352 0.356285 0
M  V30 6123 C 572.935 -2.29151 -0.502712 0
M  V30 6124 C 573.951 -1.34753 -1.1008 0
M  V30 6125 O 575.127 -1.67803 -1.11374 0
M  V30 6126 C 572.192 -3.05911 -1.63154 0
M  V30 6127 C 571.253 -4.15958 -1.06194 0
M  V30 6128 C 570.486 -4.8905 -2.13696 0
M  V30 6129 O 570.709 -4.61919 -3.34645 0
M  V30 6130 O 569.643 -5.75202 -1.77275 0
M  V30 6131 H 573.469 -3.03492 0.112466 0
M  V30 6132 H 571.054 -1.4891 0.120942 0
M  V30 6133 H 572.936 -3.53874 -2.28804 0
M  V30 6134 H 571.611 -2.34415 -2.23229 0
M  V30 6135 H 570.518 -3.7227 -0.369603 0
M  V30 6136 H 571.851 -4.89593 -0.505872 0
M  V30 6137 N 573.503 -0.0852151 -1.57369 0
M  V30 6138 C 574.433 0.874556 -2.16503 0
M  V30 6139 C 575.414 1.30111 -1.09568 0
M  V30 6140 O 576.599 1.36977 -1.37662 0
M  V30 6141 C 573.729 2.13731 -2.73745 0
M  V30 6142 C 572.683 1.84971 -3.85966 0
M  V30 6143 C 572.009 3.17991 -4.29867 0
M  V30 6144 C 573.309 1.14442 -5.09608 0
M  V30 6145 H 575.003 0.381899 -2.96954 0
M  V30 6146 H 572.549 0.18225 -1.42842 0
M  V30 6147 H 574.502 2.81302 -3.13763 0
M  V30 6148 H 573.226 2.65263 -1.90534 0
M  V30 6149 H 571.885 1.19801 -3.46473 0
M  V30 6150 H 571.533 3.6739 -3.4356 0
M  V30 6151 H 571.233 2.99534 -5.05523 0
M  V30 6152 H 572.757 3.86737 -4.72511 0
M  V30 6153 H 574.171 1.72105 -5.46857 0
M  V30 6154 H 572.568 1.06197 -5.90629 0
M  V30 6155 H 573.638 0.12559 -4.84737 0
M  V30 6156 N 574.981 1.5647 0.188427 0
M  V30 6157 C 575.928 1.95073 1.23349 0
M  V30 6158 C 576.898 0.812238 1.44886 0
M  V30 6159 O 578.083 1.07095 1.57909 0
M  V30 6160 C 575.223 2.30124 2.57171 0
M  V30 6161 C 574.336 3.57069 2.43157 0
M  V30 6162 C 573.471 3.81411 3.69729 0
M  V30 6163 C 572.51 5.0176 3.50575 0
M  V30 6164 N 571.647 5.22321 4.69175 0
M  V30 6165 H 576.487 2.84171 0.89728 0
M  V30 6166 H 574.024 1.40623 0.431683 0
M  V30 6167 H 575.982 2.48463 3.35145 0
M  V30 6168 H 574.612 1.44159 2.88822 0
M  V30 6169 H 573.664 3.4674 1.56447 0
M  V30 6170 H 574.976 4.452 2.24942 0
M  V30 6171 H 574.13 4.00026 4.56141 0
M  V30 6172 H 572.869 2.91624 3.90905 0
M  V30 6173 H 571.874 4.83061 2.62549 0
M  V30 6174 H 573.099 5.93063 3.30837 0
M  V30 6175 H 571.045 4.35483 4.90602 0
M  V30 6176 H 570.962 6.04643 4.53809 0
M  V30 6177 H 572.23 5.45401 5.56919 0
M  V30 6178 N 576.459 -0.456382 1.50847 0
M  V30 6179 C 577.392 -1.57177 1.65441 0
M  V30 6180 C 578.37 -1.54649 0.502224 0
M  V30 6181 O 579.554 -1.74057 0.723633 0
M  V30 6182 C 576.681 -2.95763 1.65052 0
M  V30 6183 C 575.727 -3.16389 2.86007 0
M  V30 6184 S 576.56 -2.94716 4.47105 0
M  V30 6185 C 577.716 -4.35617 4.49432 0
M  V30 6186 H 577.949 -1.44561 2.59787 0
M  V30 6187 H 575.482 -0.644758 1.40293 0
M  V30 6188 H 577.44 -3.75654 1.65512 0
M  V30 6189 H 576.101 -3.05756 0.719153 0
M  V30 6190 H 575.294 -4.17667 2.82081 0
M  V30 6191 H 574.896 -2.44293 2.8319 0
M  V30 6192 H 577.188 -5.28503 4.239 0
M  V30 6193 H 578.131 -4.44582 5.51137 0
M  V30 6194 H 578.539 -4.18382 3.78967 0
M  V30 6195 N 577.937 -1.40673 -0.710563 0
M  V30 6196 C 579.165 -1.42547 -1.4996 0
M  V30 6197 C 579.58 -0.0265485 -1.88781 0
M  V30 6198 O 578.937 0.950694 -1.55782 0
M  V30 6199 C 578.988 -2.32071 -2.77173 0
M  V30 6200 O 578.709 -3.66518 -2.39992 0
M  V30 6201 C 580.21 -2.42591 -3.71032 0
M  V30 6202 H 577.43 -0.486025 -0.462623 0
M  V30 6203 H 579.974 -1.84783 -0.876102 0
M  V30 6204 H 578.129 -1.93184 -3.35795 0
M  V30 6205 H 578.543 -4.14115 -3.21884 0
M  V30 6206 H 580.017 -3.09429 -4.57119 0
M  V30 6207 H 580.494 -1.4525 -4.14486 0
M  V30 6208 H 581.1 -2.82051 -3.18319 0
M  V30 6209 N 579.415 0.9433 -1.26252 0
M  V30 6210 C 580.347 2.04542 -1.03417 0
M  V30 6211 C 581.36 1.62799 0.0046911 0
M  V30 6212 O 582.549 1.76944 -0.235146 0
M  V30 6213 C 579.649 3.34511 -0.543671 0
M  V30 6214 C 578.822 4.05033 -1.65128 0
M  V30 6215 C 577.881 5.13273 -1.1592 0
M  V30 6216 O 576.907 5.38095 -1.85586 0
M  V30 6217 N 578.109 5.805 -0.00649279 0
M  V30 6218 H 580.874 2.24699 -1.98319 0
M  V30 6219 H 578.435 1.11264 -1.1761 0
M  V30 6220 H 580.427 4.04212 -0.198703 0
M  V30 6221 H 578.997 3.11042 0.311711 0
M  V30 6222 H 578.217 3.29275 -2.16729 0
M  V30 6223 H 579.505 4.48903 -2.39508 0
M  V30 6224 H 578.903 5.62767 0.575347 0
M  V30 6225 H 577.46 6.51201 0.279416 0
M  V30 6226 N 580.893 1.08022 1.14757 0
M  V30 6227 C 581.803 0.718292 2.23333 0
M  V30 6228 C 582.819 -0.273477 1.71837 0
M  V30 6229 O 583.995 -0.118406 2.01052 0
M  V30 6230 C 581.06 0.128855 3.4646 0
M  V30 6231 C 580.121 1.17473 4.12915 0
M  V30 6232 C 579.354 0.61333 5.30164 0
M  V30 6233 O 579.577 -0.568458 5.6756 0
M  V30 6234 O 578.511 1.3615 5.86299 0
M  V30 6235 H 582.337 1.62394 2.56636 0
M  V30 6236 H 579.922 0.853628 1.22611 0
M  V30 6237 H 581.804 -0.197249 4.20938 0
M  V30 6238 H 580.479 -0.750014 3.14891 0
M  V30 6239 H 579.386 1.5533 3.40328 0
M  V30 6240 H 580.719 2.02574 4.48581 0
M  V30 6241 N 582.371 -1.3172 0.865308 0
M  V30 6242 C 583.281 -2.32394 0.320935 0
M  V30 6243 C 584.297 -1.64511 -0.566746 0
M  V30 6244 O 585.473 -1.95969 -0.464575 0
M  V30 6245 C 582.538 -3.43462 -0.472701 0
M  V30 6246 C 581.599 -4.27015 0.442385 0
M  V30 6247 C 580.832 -5.32779 -0.313469 0
M  V30 6248 O 581.055 -5.49158 -1.54214 0
M  V30 6249 O 579.989 -6.01015 0.326257 0
M  V30 6250 H 583.815 -2.80868 1.15528 0
M  V30 6251 H 581.4 -1.35535 0.628545 0
M  V30 6252 H 583.282 -4.11172 -0.922781 0
M  V30 6253 H 581.957 -2.97159 -1.28367 0
M  V30 6254 H 580.864 -3.62075 0.940866 0
M  V30 6255 H 582.197 -4.76871 1.21882 0
M  V30 6256 N 583.85 -0.624285 -1.44708 0
M  V30 6257 C 585.08 -0.132726 -2.06173 0
M  V30 6258 C 585.488 1.19513 -1.46674 0
M  V30 6259 O 584.831 1.74254 -0.581491 0
M  V30 6260 C 584.893 0.0636732 -3.59444 0
M  V30 6261 C 584.557 -1.18496 -4.4137 0
M  V30 6262 C 585.553 -2.10706 -4.75288 0
M  V30 6263 C 583.239 -1.41846 -4.81856 0
M  V30 6264 C 585.233 -3.24582 -5.48567 0
M  V30 6265 C 582.92 -2.5602 -5.54885 0
M  V30 6266 C 583.918 -3.47215 -5.88159 0
M  V30 6267 O 583.606 -4.59399 -6.59703 0
M  V30 6268 H 583.338 -0.0737313 -0.671967 0
M  V30 6269 H 585.892 -0.856789 -1.86677 0
M  V30 6270 H 584.122 0.842809 -3.77404 0
M  V30 6271 H 585.811 0.508924 -4.02697 0
M  V30 6272 H 586.577 -1.93898 -4.44554 0
M  V30 6273 H 582.456 -0.717556 -4.55381 0
M  V30 6274 H 586 -3.95785 -5.74456 0
M  V30 6275 H 581.897 -2.72774 -5.85034 0
M  V30 6276 H 582.665 -4.58293 -6.78166 0
M  V30 6277 N 585.328 1.53329 -0.364422 0
M  V30 6278 C 586.291 2.24323 0.470292 0
M  V30 6279 C 587.291 1.25068 1.01067 0
M  V30 6280 O 588.481 1.49354 0.896605 0
M  V30 6281 C 585.613 2.97908 1.65722 0
M  V30 6282 H 586.806 2.9952 -0.150917 0
M  V30 6283 H 584.359 1.55868 -0.116092 0
M  V30 6284 H 585.094 2.2695 2.31655 0
M  V30 6285 H 584.879 3.70732 1.27671 0
M  V30 6286 H 586.369 3.5188 2.24878 0
M  V30 6287 N 586.806 0.0935595 1.57322 0
M  V30 6288 C 587.736 -0.863062 2.16964 0
M  V30 6289 C 588.717 -1.29528 1.10256 0
M  V30 6290 O 589.902 -1.36245 1.38387 0
M  V30 6291 C 587.032 -2.12276 2.74875 0
M  V30 6292 C 585.986 -1.82921 3.86942 0
M  V30 6293 C 585.312 -3.15707 4.31548 0
M  V30 6294 C 586.612 -1.11737 5.10208 0
M  V30 6295 H 588.306 -0.366145 2.97153 0
M  V30 6296 H 585.852 -0.174673 1.42937 0
M  V30 6297 H 587.805 -2.79634 3.1525 0
M  V30 6298 H 586.529 -2.64248 1.91938 0
M  V30 6299 H 585.188 -1.17961 3.47103 0
M  V30 6300 H 584.836 -3.65563 3.45504 0
M  V30 6301 H 584.536 -2.96849 5.07104 0
M  V30 6302 H 586.06 -3.84226 4.74555 0
M  V30 6303 H 587.474 -1.69203 5.47762 0
M  V30 6304 H 585.871 -1.03064 5.91183 0
M  V30 6305 H 586.941 -0.0998818 4.84797 0
M  V30 6306 N 588.284 -1.56567 -0.180126 0
M  V30 6307 C 589.214 -1.98753 -1.22553 0
M  V30 6308 C 590.195 -0.86175 -1.46656 0
M  V30 6309 O 591.38 -1.12719 -1.58139 0
M  V30 6310 C 588.51 -2.33988 -2.56645 0
M  V30 6311 C 587.464 -3.49445 -2.47128 0
M  V30 6312 C 586.79 -3.70397 -3.8563 0
M  V30 6313 C 588.09 -4.83171 -1.98352 0
M  V30 6314 H 589.784 -2.86332 -0.874896 0
M  V30 6315 H 587.33 -1.37757 -0.419414 0
M  V30 6316 H 589.283 -2.62097 -3.29974 0
M  V30 6317 H 588.007 -1.43309 -2.93479 0
M  V30 6318 H 586.666 -3.2145 -1.76254 0
M  V30 6319 H 586.314 -2.77023 -4.19842 0
M  V30 6320 H 586.014 -4.48077 -3.80132 0
M  V30 6321 H 587.538 -4.00897 -4.60558 0
M  V30 6322 H 588.952 -5.10213 -2.61449 0
M  V30 6323 H 587.349 -5.64425 -2.03823 0
M  V30 6324 H 588.419 -4.75753 -0.937402 0
M  V30 6325 N 589.762 0.448376 -1.51087 0
M  V30 6326 C 590.99 1.22143 -1.66999 0
M  V30 6327 C 591.405 1.85283 -0.362699 0
M  V30 6328 O 590.762 1.70236 0.65772 0
M  V30 6329 C 590.813 2.31357 -2.7777 0
M  V30 6330 O 590.534 1.70801 -4.03434 0
M  V30 6331 C 592.035 3.21836 -3.04855 0
M  V30 6332 H 589.255 0.368558 -0.560719 0
M  V30 6333 H 591.799 0.532618 -1.97442 0
M  V30 6334 H 589.954 2.95973 -2.49958 0
M  V30 6335 H 590.368 2.42895 -4.64868 0
M  V30 6336 H 591.842 3.94627 -3.85971 0
M  V30 6337 H 592.319 3.81949 -2.16821 0
M  V30 6338 H 592.925 2.62933 -3.34285 0
M  V30 6339 N 591.24 1.41047 0.703093 0
M  V30 6340 C 592.203 1.42036 1.79884 0
M  V30 6341 C 593.203 0.312153 1.57741 0
M  V30 6342 O 594.393 0.571672 1.64553 0
M  V30 6343 C 591.525 1.22437 3.18154 0
M  V30 6344 H 592.718 2.39572 1.80403 0
M  V30 6345 H 590.271 1.27079 0.909977 0
M  V30 6346 H 591.006 0.257112 3.23279 0
M  V30 6347 H 590.791 2.02723 3.35627 0
M  V30 6348 H 592.281 1.25946 3.98155 0
M  V30 6349 N 592.718 -0.936591 1.26751 0
M  V30 6350 C 593.967 -1.67778 1.11953 0
M  V30 6351 C 594.28 -1.92694 -0.33589 0
M  V30 6352 O 595.486 -2.64682 -0.604618 0
M  V30 6353 C 593.942 -3.02138 1.95551 0
M  V30 6354 C 593.55 -2.84953 3.45696 0
M  V30 6355 C 595.294 -3.79917 1.89377 0
M  V30 6356 C 593.201 -4.14814 4.21525 0
M  V30 6357 H 592.131 -0.629275 0.415366 0
M  V30 6358 H 594.782 -1.04122 1.51099 0
M  V30 6359 H 593.164 -3.668 1.49243 0
M  V30 6360 H 594.338 -2.29112 3.99805 0
M  V30 6361 H 592.653 -2.20612 3.53156 0
M  V30 6362 H 595.25 -4.76134 2.43312 0
M  V30 6363 H 595.593 -4.07204 0.865464 0
M  V30 6364 H 596.126 -3.22037 2.33532 0
M  V30 6365 H 592.865 -3.92709 5.24843 0
M  V30 6366 H 592.385 -4.70352 3.72195 0
M  V30 6367 H 594.064 -4.83239 4.3022 0
M  V30 6368 N 594.196 -1.08629 -1.14182 0
M  V30 6369 C 595.442 -0.818556 -1.85546 0
M  V30 6370 C 595.775 0.654076 -1.82854 0
M  V30 6371 O 595.05 1.48099 -1.26083 0
M  V30 6372 C 595.333 -1.34397 -3.3408 0
M  V30 6373 C 595.186 -2.8821 -3.45333 0
M  V30 6374 C 596.505 -0.971069 -4.29253 0
M  V30 6375 H 593.624 -0.298821 -0.673702 0
M  V30 6376 H 596.266 -1.34629 -1.34071 0
M  V30 6377 H 594.416 -0.895064 -3.78049 0
M  V30 6378 H 596.088 -3.41488 -3.10134 0
M  V30 6379 H 594.331 -3.25756 -2.86471 0
M  V30 6380 H 595.002 -3.20047 -4.49749 0
M  V30 6381 H 597.478 -1.35809 -3.93313 0
M  V30 6382 H 596.354 -1.36586 -5.31635 0
M  V30 6383 H 596.615 0.121659 -4.41933 0
M  V30 6384 N 595.674 1.31259 -0.872281 0
M  V30 6385 C 596.923 1.95893 -0.480493 0
M  V30 6386 C 597.236 1.697 0.972688 0
M  V30 6387 O 598.442 2.28214 1.47073 0
M  V30 6388 C 596.898 3.50705 -0.808342 0
M  V30 6389 C 596.506 3.85735 -2.27844 0
M  V30 6390 C 598.25 4.21719 -0.485136 0
M  V30 6391 C 596.157 5.33668 -2.54858 0
M  V30 6392 H 595.087 0.733182 -0.175955 0
M  V30 6393 H 597.738 1.49396 -1.0655 0
M  V30 6394 H 596.12 3.95706 -0.152558 0
M  V30 6395 H 597.294 3.51686 -2.97748 0
M  V30 6396 H 595.609 3.27792 -2.56791 0
M  V30 6397 H 598.206 5.30559 -0.664166 0
M  V30 6398 H 598.549 4.12316 0.574592 0
M  V30 6399 H 599.082 3.82359 -1.09756 0
M  V30 6400 H 595.821 5.48109 -3.59523 0
M  V30 6401 H 595.341 5.69061 -1.8955 0
M  V30 6402 H 597.02 6.00958 -2.39706 0
M  V30 6403 N 597.152 0.631951 1.44375 0
M  V30 6404 C 598.082 -0.0593243 2.33425 0
M  V30 6405 C 599.063 -0.833964 1.48253 0
M  V30 6406 O 600.248 -0.799682 1.76971 0
M  V30 6407 C 597.378 -1.04096 3.31333 0
M  V30 6408 C 596.332 -0.377899 4.26328 0
M  V30 6409 C 595.658 -1.4695 5.14111 0
M  V30 6410 C 596.958 0.716371 5.17364 0
M  V30 6411 H 598.652 0.684287 2.91475 0
M  V30 6412 H 596.198 0.330518 1.40156 0
M  V30 6413 H 598.151 -1.53331 3.92514 0
M  V30 6414 H 596.875 -1.81547 2.71493 0
M  V30 6415 H 595.534 0.0938054 3.6648 0
M  V30 6416 H 595.182 -2.2349 4.50623 0
M  V30 6417 H 594.882 -1.03121 5.78481 0
M  V30 6418 H 596.406 -1.96363 5.78164 0
M  V30 6419 H 597.82 0.307089 5.72477 0
M  V30 6420 H 596.217 1.07784 5.90341 0
M  V30 6421 H 597.287 1.58316 4.58327 0
M  V30 6422 N 598.631 -1.53133 0.372548 0
M  V30 6423 C 599.856 -2.0625 -0.218098 0
M  V30 6424 C 600.281 -1.24375 -1.41111 0
M  V30 6425 O 599.639 -0.264554 -1.79359 0
M  V30 6426 C 599.687 -3.55858 -0.582876 0
M  V30 6427 O 598.791 -3.76667 -1.67917 0
M  V30 6428 H 598.132 -0.663317 -0.030104 0
M  V30 6429 H 600.662 -1.97477 0.535169 0
M  V30 6430 H 600.672 -3.99007 -0.851925 0
M  V30 6431 H 599.347 -4.14892 0.289428 0
M  V30 6432 H 597.924 -3.45413 -1.40513 0
M  V30 6433 N 600.109 -0.101901 -1.5727 0
M  V30 6434 C 601.52 0.426173 -1.81771 0
M  V30 6435 C 601.871 1.67725 -1.01797 0
M  V30 6436 O 600.996 2.14958 -0.249386 0
M  V30 6437 C 601.591 0.779962 -3.297 0
M  V30 6438 C 600.15 1.25275 -3.54941 0
M  V30 6439 C 599.297 0.252814 -2.76145 0
M  V30 6440 H 602.248 -0.32726 -1.55289 0
M  V30 6441 H 602.269 1.63891 -3.43395 0
M  V30 6442 H 601.781 -0.130778 -3.8788 0
M  V30 6443 H 599.882 2.18097 -3.021 0
M  V30 6444 H 599.995 1.20988 -4.63572 0
M  V30 6445 H 598.359 0.736362 -2.43823 0
M  V30 6446 H 599.142 -0.650724 -3.37076 0
M  V30 6447 N 601.587 1.56661 0.17182 0
M  V30 6448 C 602.864 1.72838 0.915778 0
M  V30 6449 C 603.244 0.66316 2.00413 0
M  V30 6450 O 602.592 -0.322123 2.26218 0
M  V30 6451 C 602.802 3.16019 1.48097 0
M  V30 6452 C 604.15 3.76962 1.95408 0
M  V30 6453 O 605.174 3.19294 1.57892 0
M  V30 6454 O 604.033 4.78219 2.64516 0
M  V30 6455 H 601.127 0.705797 0.431021 0
M  V30 6456 H 603.673 1.68947 0.159689 0
M  V30 6457 H 602.445 3.85031 0.697618 0
M  V30 6458 H 602.068 3.24234 2.30126 0
M  V30 6459 N 603.065 -0.440357 1.51323 0
M  V30 6460 C 604.481 -0.7766 1.39431 0
M  V30 6461 C 604.681 -1.95838 0.474296 0
M  V30 6462 O 603.737 -2.52398 -0.0716692 0
M  V30 6463 C 605.05 -1.05981 2.81405 0
M  V30 6464 C 606.598 -1.16442 2.90534 0
M  V30 6465 C 607.073 -1.48058 4.33408 0
M  V30 6466 N 608.564 -1.54988 4.36501 0
M  V30 6467 C 609.299 -1.81017 5.44078 0
M  V30 6468 N 608.795 -2.04858 6.61819 0
M  V30 6469 N 610.588 -1.82774 5.31554 0
M  V30 6470 H 602.739 0.338006 2.09693 0
M  V30 6471 H 605.002 0.0888072 0.943831 0
M  V30 6472 H 604.708 -0.264173 3.50706 0
M  V30 6473 H 604.582 -1.98822 3.20546 0
M  V30 6474 H 606.969 -1.95068 2.21432 0
M  V30 6475 H 607.05 -0.215088 2.54894 0
M  V30 6476 H 606.694 -0.699605 5.03059 0
M  V30 6477 H 606.624 -2.44192 4.66559 0
M  V30 6478 H 609.115 -1.38479 3.51613 0
M  V30 6479 H 609.428 -2.2408 7.396 0
M  V30 6480 H 607.773 -2.02187 6.6494 0
M  V30 6481 H 610.964 -1.63665 4.38556 0
M  V30 6482 H 611.137 -2.02722 6.15474 0
M  V30 6483 N 604.543 -1.41418 -0.695603 0
M  V30 6484 C 605.475 -1.39195 -1.82092 0
M  V30 6485 C 606.488 -0.294132 -1.60121 0
M  V30 6486 O 607.677 -0.555854 -1.69625 0
M  V30 6487 C 604.777 -1.14828 -3.18854 0
M  V30 6488 C 603.95 -2.36649 -3.67853 0
M  V30 6489 C 603.009 -2.08139 -4.83285 0
M  V30 6490 O 602.035 -2.81177 -4.94902 0
M  V30 6491 N 603.237 -1.07162 -5.70523 0
M  V30 6492 H 606.002 -2.36185 -1.84491 0
M  V30 6493 H 603.563 -1.3603 -0.877923 0
M  V30 6494 H 605.555 -0.937075 -3.93702 0
M  V30 6495 H 604.125 -0.264358 -3.1148 0
M  V30 6496 H 603.345 -2.73472 -2.83913 0
M  V30 6497 H 604.633 -3.17816 -3.97329 0
M  V30 6498 H 604.031 -0.467124 -5.63768 0
M  V30 6499 H 602.588 -0.920311 -6.4527 0
M  V30 6500 N 606.021 0.929856 -1.27246 0
M  V30 6501 C 607.251 1.70895 -1.16096 0
M  V30 6502 C 607.659 1.87039 0.285122 0
M  V30 6503 O 607.002 1.38557 1.20614 0
M  V30 6504 C 607.064 3.12919 -1.7698 0
M  V30 6505 C 606.728 3.2012 -3.26148 0
M  V30 6506 C 607.725 3.02533 -4.22812 0
M  V30 6507 C 605.41 3.43148 -3.66817 0
M  V30 6508 C 607.404 3.07861 -5.58122 0
M  V30 6509 C 605.091 3.48109 -5.02258 0
M  V30 6510 C 606.089 3.30483 -5.97721 0
M  V30 6511 O 605.777 3.35175 -7.30694 0
M  V30 6512 H 605.509 0.54152 -0.404639 0
M  V30 6513 H 608.063 1.17342 -1.68582 0
M  V30 6514 H 606.293 3.67945 -1.18969 0
M  V30 6515 H 607.982 3.72787 -1.60576 0
M  V30 6516 H 608.748 2.84586 -3.92728 0
M  V30 6517 H 604.627 3.55918 -2.9299 0
M  V30 6518 H 608.171 2.94021 -6.32612 0
M  V30 6519 H 604.068 3.65579 -5.31998 0
M  V30 6520 H 604.836 3.51644 -7.39114 0
M  V30 6521 N 607.499 1.09233 1.13605 0
M  V30 6522 C 608.748 0.82205 1.84188 0
M  V30 6523 C 609.061 -0.654548 1.84323 0
M  V30 6524 O 610.267 -1.04029 2.50779 0
M  V30 6525 C 608.723 1.42066 3.30674 0
M  V30 6526 C 608.331 2.92965 3.38933 0
M  V30 6527 C 610.075 1.22924 4.06313 0
M  V30 6528 C 607.982 3.45922 4.79679 0
M  V30 6529 H 606.912 0.303854 0.690064 0
M  V30 6530 H 609.563 1.31479 1.28006 0
M  V30 6531 H 607.945 0.855613 3.86646 0
M  V30 6532 H 609.119 3.55679 2.92966 0
M  V30 6533 H 607.434 3.11118 2.76757 0
M  V30 6534 H 610.031 1.59945 5.10217 0
M  V30 6535 H 610.374 0.169726 4.15954 0
M  V30 6536 H 610.907 1.76168 3.56665 0
M  V30 6537 H 607.646 4.51484 4.75229 0
M  V30 6538 H 607.166 2.87971 5.26149 0
M  V30 6539 H 608.845 3.43009 5.48592 0
M  V30 6540 N 608.977 -1.30795 0.87923 0
M  V30 6541 C 609.924 -2.28282 0.339968 0
M  V30 6542 C 610.894 -1.56134 -0.566685 0
M  V30 6543 O 612.079 -1.84231 -0.496338 0
M  V30 6544 C 609.219 -3.42225 -0.444501 0
M  V30 6545 C 608.332 -4.29204 0.490717 0
M  V30 6546 C 607.467 -5.30302 -0.308784 0
M  V30 6547 C 606.506 -6.08929 0.622272 0
M  V30 6548 N 605.643 -7.01957 -0.14155 0
M  V30 6549 H 610.483 -2.73794 1.17647 0
M  V30 6550 H 608.02 -1.34682 0.591527 0
M  V30 6551 H 609.978 -4.07038 -0.915186 0
M  V30 6552 H 608.608 -2.97799 -1.24562 0
M  V30 6553 H 607.66 -3.6475 1.07988 0
M  V30 6554 H 608.972 -4.84045 1.20425 0
M  V30 6555 H 608.126 -6.00835 -0.841575 0
M  V30 6556 H 606.865 -4.7614 -1.05556 0
M  V30 6557 H 605.87 -5.37278 1.16674 0
M  V30 6558 H 607.095 -6.65178 1.36804 0
M  V30 6559 H 605.041 -6.50192 -0.870966 0
M  V30 6560 H 604.958 -7.54261 0.51246 0
M  V30 6561 H 606.226 -7.76741 -0.655271 0
M  V30 6562 N 610.455 -0.639598 -1.44038 0
M  V30 6563 C 611.732 -0.078012 -1.95444 0
M  V30 6564 C 612.112 1.39847 -1.58133 0
M  V30 6565 O 611.46 2.11714 -0.859614 0
M  V30 6566 C 611.67 -0.309832 -3.47622 0
M  V30 6567 C 613.018 -0.207521 -4.24093 0
M  V30 6568 O 614.042 -0.241653 -3.55379 0
M  V30 6569 O 612.901 -0.119641 -5.46369 0
M  V30 6570 H 609.995 0.0174534 -0.826816 0
M  V30 6571 H 612.541 -0.711891 -1.54046 0
M  V30 6572 H 611.313 -1.33401 -3.67858 0
M  V30 6573 H 610.936 0.357777 -3.95987 0
M  V30 6574 N 611.933 1.52934 -0.380664 0
M  V30 6575 C 613.349 1.59571 -0.0302429 0
M  V30 6576 C 613.549 1.39509 1.45394 0
M  V30 6577 O 612.605 1.20777 2.21741 0
M  V30 6578 C 613.918 2.96519 -0.499691 0
M  V30 6579 C 615.466 3.09672 -0.455204 0
M  V30 6580 C 615.941 4.49056 -0.900703 0
M  V30 6581 N 617.432 4.55215 -0.856367 0
M  V30 6582 C 618.167 5.61282 -1.17259 0
M  V30 6583 N 617.663 6.75035 -1.55885 0
M  V30 6584 N 619.456 5.51343 -1.0944 0
M  V30 6585 H 611.607 1.64224 -1.347 0
M  V30 6586 H 613.87 0.771033 -0.551554 0
M  V30 6587 H 613.576 3.16388 -1.53595 0
M  V30 6588 H 613.45 3.77052 0.105789 0
M  V30 6589 H 615.837 2.89504 0.571949 0
M  V30 6590 H 615.918 2.31113 -1.09638 0
M  V30 6591 H 615.562 4.69964 -1.92604 0
M  V30 6592 H 615.492 5.26068 -0.236629 0
M  V30 6593 H 617.983 3.73546 -0.572013 0
M  V30 6594 H 618.296 7.51926 -1.784 0
M  V30 6595 H 616.641 6.76388 -1.59764 0
M  V30 6596 H 619.832 4.61356 -0.791713 0
M  V30 6597 H 620.005 6.33905 -1.34417 0
M  V30 6598 N 613.412 0.11024 1.57214 0
M  V30 6599 C 614.322 -0.857077 2.18383 0
M  V30 6600 C 615.338 -1.29915 1.1575 0
M  V30 6601 O 616.514 -1.36394 1.48184 0
M  V30 6602 C 613.579 -2.09264 2.76423 0
M  V30 6603 C 612.64 -1.70333 3.94063 0
M  V30 6604 C 611.873 -2.87999 4.49324 0
M  V30 6605 O 612.096 -4.0317 4.03497 0
M  V30 6606 O 611.03 -2.6559 5.40135 0
M  V30 6607 H 614.856 -0.366561 3.0148 0
M  V30 6608 H 612.441 -0.114914 1.48957 0
M  V30 6609 H 614.323 -2.81644 3.13456 0
M  V30 6610 H 612.998 -2.57339 1.96363 0
M  V30 6611 H 611.905 -0.950864 3.61814 0
M  V30 6612 H 613.238 -1.27007 4.75531 0
M  V30 6613 N 614.89 -1.56749 -0.16351 0
M  V30 6614 C 615.853 -1.96121 -1.18613 0
M  V30 6615 C 616.853 -0.845765 -1.36761 0
M  V30 6616 O 618.043 -1.11268 -1.34033 0
M  V30 6617 C 615.175 -2.26282 -2.54969 0
M  V30 6618 H 616.368 -2.87639 -0.848764 0
M  V30 6619 H 613.921 -1.50928 -0.406251 0
M  V30 6620 H 614.656 -1.37504 -2.93706 0
M  V30 6621 H 614.441 -3.07595 -2.43162 0
M  V30 6622 H 615.931 -2.57638 -3.28653 0
M  V30 6623 N 616.368 0.432326 -1.51554 0
M  V30 6624 C 617.614 1.18309 -1.64714 0
M  V30 6625 C 617.947 1.90745 -0.364696 0
M  V30 6626 O 617.222 1.8381 0.635936 0
M  V30 6627 C 617.505 2.1961 -2.85383 0
M  V30 6628 C 617.358 1.51223 -4.23617 0
M  V30 6629 C 618.677 3.20538 -3.01569 0
M  V30 6630 H 615.796 0.428751 -0.599451 0
M  V30 6631 H 618.438 0.471689 -1.84052 0
M  V30 6632 H 616.588 2.8028 -2.69027 0
M  V30 6633 H 618.26 0.938516 -4.51652 0
M  V30 6634 H 616.503 0.814501 -4.26085 0
M  V30 6635 H 617.174 2.25024 -5.04052 0
M  V30 6636 H 619.65 2.69926 -3.16669 0
M  V30 6637 H 618.526 3.88706 -3.87555 0
M  V30 6638 H 618.787 3.86933 -2.13859 0
M  V30 6639 N 617.846 1.41785 0.688094 0
M  V30 6640 C 618.756 1.46596 1.83158 0
M  V30 6641 C 619.772 0.355862 1.70322 0
M  V30 6642 O 620.948 0.604737 1.92106 0
M  V30 6643 C 618.013 1.35322 3.192 0
M  V30 6644 C 617.074 2.56711 3.4409 0
M  V30 6645 C 616.307 2.45965 4.73642 0
M  V30 6646 O 616.53 1.48827 5.50642 0
M  V30 6647 O 615.464 3.35859 4.99482 0
M  V30 6648 H 619.29 2.43083 1.82056 0
M  V30 6649 H 616.875 1.23404 0.842126 0
M  V30 6650 H 618.757 1.31347 4.00407 0
M  V30 6651 H 617.432 0.419536 3.2097 0
M  V30 6652 H 616.339 2.66262 2.62784 0
M  V30 6653 H 617.672 3.48933 3.47141 0
M  V30 6654 N 619.324 -0.923095 1.27737 0
M  V30 6655 C 620.271 -2.02432 1.1086 0
M  V30 6656 C 621.241 -1.66098 0.00835195 0
M  V30 6657 O 622.426 -1.90027 0.171542 0
M  V30 6658 C 619.566 -3.36476 0.766671 0
M  V30 6659 C 618.679 -3.85737 1.94501 0
M  V30 6660 C 617.814 -5.08249 1.54455 0
M  V30 6661 C 616.853 -5.49818 2.6901 0
M  V30 6662 N 615.99 -6.63524 2.29521 0
M  V30 6663 H 620.83 -2.16201 2.05089 0
M  V30 6664 H 618.367 -1.05909 1.02087 0
M  V30 6665 H 620.325 -4.13569 0.549223 0
M  V30 6666 H 618.955 -3.22502 -0.13867 0
M  V30 6667 H 618.007 -3.04883 2.27487 0
M  V30 6668 H 619.319 -4.12513 2.80419 0
M  V30 6669 H 618.473 -5.92857 1.28862 0
M  V30 6670 H 617.212 -4.83261 0.656534 0
M  V30 6671 H 616.217 -4.63757 2.95313 0
M  V30 6672 H 617.442 -5.76799 3.5844 0
M  V30 6673 H 615.388 -6.40185 1.43177 0
M  V30 6674 H 615.305 -6.89978 3.08977 0
M  V30 6675 H 616.573 -7.51461 2.07187 0
M  V30 6676 N 620.802 -1.09834 -1.13024 0
M  V30 6677 C 621.732 -0.763451 -2.20666 0
M  V30 6678 C 622.713 0.260778 -1.68089 0
M  V30 6679 O 623.898 0.127915 -1.93778 0
M  V30 6680 C 621.028 -0.187744 -3.46792 0
M  V30 6681 C 619.982 -1.14196 -4.12484 0
M  V30 6682 C 619.308 -0.427755 -5.32986 0
M  V30 6683 C 620.608 -2.48607 -4.59338 0
M  V30 6684 H 622.302 -1.66347 -2.48936 0
M  V30 6685 H 619.848 -0.801261 -1.19649 0
M  V30 6686 H 621.801 0.0586375 -4.21359 0
M  V30 6687 H 620.525 0.747485 -3.17931 0
M  V30 6688 H 619.184 -1.37369 -3.3989 0
M  V30 6689 H 618.832 0.511747 -5.0039 0
M  V30 6690 H 618.532 -1.06403 -5.77886 0
M  V30 6691 H 620.056 -0.189772 -6.10305 0
M  V30 6692 H 621.47 -2.29618 -5.25308 0
M  V30 6693 H 619.867 -3.08062 -5.14993 0
M  V30 6694 H 620.937 -3.09062 -3.73642 0
M  V30 6695 N 622.28 1.30327 -0.886154 0
M  V30 6696 C 623.212 2.27079 -0.311072 0
M  V30 6697 C 624.225 1.53758 0.53502 0
M  V30 6698 O 625.414 1.74947 0.354378 0
M  V30 6699 C 622.514 3.33965 0.576228 0
M  V30 6700 C 621.687 4.36735 -0.241064 0
M  V30 6701 C 620.746 5.23028 0.576916 0
M  V30 6702 O 619.772 5.692 -0.000802231 0
M  V30 6703 N 620.974 5.49016 1.88579 0
M  V30 6704 H 623.739 2.77065 -1.14259 0
M  V30 6705 H 621.3 1.43519 -0.749258 0
M  V30 6706 H 623.292 3.88618 1.12953 0
M  V30 6707 H 621.862 2.839 1.30842 0
M  V30 6708 H 621.082 3.81932 -0.975805 0
M  V30 6709 H 622.37 5.02451 -0.801272 0
M  V30 6710 H 621.768 5.13288 2.37806 0
M  V30 6711 H 620.325 6.06539 2.38651 0
M  V30 6712 N 623.758 0.647228 1.43697 0
M  V30 6713 C 624.668 -0.0487997 2.34549 0
M  V30 6714 C 625.684 -0.818586 1.53542 0
M  V30 6715 O 626.86 -0.767195 1.86215 0
M  V30 6716 C 623.925 -1.00734 3.31743 0
M  V30 6717 C 622.986 -0.23515 4.28655 0
M  V30 6718 C 622.219 -1.14803 5.21206 0
M  V30 6719 O 622.442 -2.38717 5.18045 0
M  V30 6720 O 621.376 -0.623667 5.9866 0
M  V30 6721 H 625.202 0.698863 2.9555 0
M  V30 6722 H 622.787 0.407412 1.43738 0
M  V30 6723 H 624.669 -1.55837 3.91526 0
M  V30 6724 H 623.344 -1.73534 2.73254 0
M  V30 6725 H 622.251 0.359319 3.7237 0
M  V30 6726 H 623.584 0.453152 4.9011 0
M  V30 6727 N 625.236 -1.5273 0.388769 0
M  V30 6728 C 626.647 -1.86505 -0.0853788 0
M  V30 6729 C 626.998 -1.30847 -1.46197 0
M  V30 6730 O 626.123 -0.639609 -2.06732 0
M  V30 6731 C 626.718 -3.38414 -0.161703 0
M  V30 6732 C 625.277 -3.71902 -0.580144 0
M  V30 6733 C 624.424 -2.76095 0.258218 0
M  V30 6734 H 627.375 -1.46647 0.606665 0
M  V30 6735 H 627.396 -3.67638 -0.980936 0
M  V30 6736 H 626.908 -3.78893 0.840333 0
M  V30 6737 H 625.009 -3.36992 -1.58957 0
M  V30 6738 H 625.122 -4.77902 -0.338663 0
M  V30 6739 H 623.486 -2.53195 -0.276432 0
M  V30 6740 H 624.269 -3.19411 1.25822 0
M  V30 6741 N 626.714 -0.118576 -1.57153 0
M  V30 6742 C 627.644 0.828436 -2.1831 0
M  V30 6743 C 628.625 1.27758 -1.12303 0
M  V30 6744 O 629.81 1.34026 -1.40537 0
M  V30 6745 C 626.94 2.07876 -2.78217 0
M  V30 6746 C 625.894 1.76742 -3.89803 0
M  V30 6747 C 625.22 3.08801 -4.36516 0
M  V30 6748 C 626.52 1.03606 -5.11921 0
M  V30 6749 H 628.214 0.318824 -2.97698 0
M  V30 6750 H 625.76 0.151911 -1.43196 0
M  V30 6751 H 627.713 2.74584 -3.19659 0
M  V30 6752 H 626.437 2.61161 -1.96118 0
M  V30 6753 H 625.096 1.12424 -3.48936 0
M  V30 6754 H 624.744 3.6002 -3.51276 0
M  V30 6755 H 624.444 2.88743 -5.11763 0
M  V30 6756 H 625.968 3.76627 -4.80608 0
M  V30 6757 H 627.382 1.60467 -5.50385 0
M  V30 6758 H 625.779 0.936454 -5.92748 0
M  V30 6759 H 626.849 0.0227421 -4.84895 0
M  V30 6760 N 628.193 1.56834 0.155195 0
M  V30 6761 C 629.123 2.00678 1.19376 0
M  V30 6762 C 630.104 0.884973 1.45266 0
M  V30 6763 O 631.289 1.1522 1.56326 0
M  V30 6764 C 628.419 2.38042 2.5289 0
M  V30 6765 C 627.373 3.53332 2.41538 0
M  V30 6766 C 626.699 3.76485 3.79688 0
M  V30 6767 C 627.999 4.86265 1.9064 0
M  V30 6768 H 629.693 2.87688 0.829232 0
M  V30 6769 H 627.239 1.38407 0.397445 0
M  V30 6770 H 629.192 2.67314 3.25763 0
M  V30 6771 H 627.916 1.4796 2.91162 0
M  V30 6772 H 626.575 3.24213 1.71117 0
M  V30 6773 H 626.223 2.83667 4.15382 0
M  V30 6774 H 625.923 4.54068 3.72956 0
M  V30 6775 H 627.447 4.08174 4.54122 0
M  V30 6776 H 628.861 5.14308 2.53299 0
M  V30 6777 H 627.258 5.67597 1.94818 0
M  V30 6778 H 628.328 4.77184 0.861596 0
M  V30 6779 N 629.671 -0.424282 1.51781 0
M  V30 6780 C 630.948 -1.18464 1.55646 0
M  V30 6781 C 631.328 -2.08529 0.328438 0
M  V30 6782 O 630.676 -2.17969 -0.685693 0
M  V30 6783 C 630.886 -1.97514 2.87731 0
M  V30 6784 C 632.234 -2.54106 3.40169 0
M  V30 6785 O 633.258 -2.07711 2.89369 0
M  V30 6786 O 632.117 -3.38759 4.28841 0
M  V30 6787 H 629.211 -0.540055 0.626314 0
M  V30 6788 H 631.757 -0.432291 1.64102 0
M  V30 6789 H 630.529 -1.31444 3.68562 0
M  V30 6790 H 630.152 -2.79787 2.82498 0
M  V30 6791 N 631.149 -1.42148 -0.680565 0
M  V30 6792 C 632.395 -1.42521 -1.44277 0
M  V30 6793 C 632.728 -0.0393718 -1.9416 0
M  V30 6794 O 632.003 0.935425 -1.70529 0
M  V30 6795 C 632.286 -2.44475 -2.64394 0
M  V30 6796 C 632.139 -3.92226 -2.20179 0
M  V30 6797 C 633.458 -2.43491 -3.66606 0
M  V30 6798 H 630.577 -0.518985 -0.523282 0
M  V30 6799 H 633.219 -1.73524 -0.773914 0
M  V30 6800 H 631.369 -2.18168 -3.21458 0
M  V30 6801 H 633.041 -4.29493 -1.68327 0
M  V30 6802 H 631.284 -4.0637 -1.5181 0
M  V30 6803 H 631.955 -4.59133 -3.06433 0
M  V30 6804 H 634.431 -2.66872 -3.19247 0
M  V30 6805 H 633.307 -3.16816 -4.4824 0
M  V30 6806 H 633.568 -1.45881 -4.17338 0
M  V30 6807 N 632.627 0.916307 -1.28225 0
M  V30 6808 C 633.557 2.0352 -1.14464 0
M  V30 6809 C 634.538 1.70045 -0.0430844 0
M  V30 6810 O 635.723 1.92954 -0.219619 0
M  V30 6811 C 632.853 3.37889 -0.803027 0
M  V30 6812 C 631.807 3.85516 -1.85908 0
M  V30 6813 C 631.133 5.1682 -1.37116 0
M  V30 6814 C 632.433 4.07655 -3.26519 0
M  V30 6815 H 634.127 2.1529 -2.08064 0
M  V30 6816 H 631.673 1.03446 -1.00174 0
M  V30 6817 H 633.626 4.15654 -0.693537 0
M  V30 6818 H 632.35 3.26164 0.168674 0
M  V30 6819 H 631.009 3.09953 -1.95767 0
M  V30 6820 H 630.657 5.01497 -0.38859 0
M  V30 6821 H 630.357 5.49657 -2.07728 0
M  V30 6822 H 631.881 5.97143 -1.27484 0
M  V30 6823 H 633.295 4.75953 -3.19596 0
M  V30 6824 H 631.692 4.51818 -3.94943 0
M  V30 6825 H 632.762 3.12553 -3.70727 0
M  V30 6826 N 634.105 1.10431 1.1244 0
M  V30 6827 C 635.037 0.710945 2.17895 0
M  V30 6828 C 636.05 -0.252315 1.60833 0
M  V30 6829 O 637.239 -0.03679 1.78462 0
M  V30 6830 C 634.339 0.0284262 3.38888 0
M  V30 6831 C 633.512 1.01585 4.2544 0
M  V30 6832 C 632.571 0.364826 5.24934 0
M  V30 6833 O 631.597 1.01561 5.60066 0
M  V30 6834 N 632.799 -0.87674 5.73841 0
M  V30 6835 H 635.564 1.61826 2.52255 0
M  V30 6836 H 633.125 0.993132 1.27861 0
M  V30 6837 H 635.117 -0.418568 4.0253 0
M  V30 6838 H 633.687 -0.781294 3.02679 0
M  V30 6839 H 632.907 1.64111 3.58415 0
M  V30 6840 H 634.195 1.68425 4.80115 0
M  V30 6841 H 633.593 -1.42483 5.47462 0
M  V30 6842 H 632.15 -1.26688 6.39369 0
M  V30 6843 N 635.583 -1.29855 0.893053 0
M  V30 6844 C 636.53 -2.27909 0.364161 0
M  V30 6845 C 637.5 -1.56726 -0.550093 0
M  V30 6846 O 638.685 -1.84747 -0.47677 0
M  V30 6847 C 635.825 -3.42678 -0.408178 0
M  V30 6848 C 634.938 -4.28659 0.536212 0
M  V30 6849 C 634.073 -5.30599 -0.252521 0
M  V30 6850 C 633.112 -6.08234 0.686822 0
M  V30 6851 N 632.249 -7.02068 -0.0670902 0
M  V30 6852 H 637.089 -2.72531 1.20544 0
M  V30 6853 H 634.626 -1.34047 0.605779 0
M  V30 6854 H 636.584 -4.07986 -0.871962 0
M  V30 6855 H 635.214 -2.99103 -1.21397 0
M  V30 6856 H 634.266 -3.63584 1.1185 0
M  V30 6857 H 635.578 -4.8274 1.25552 0
M  V30 6858 H 634.732 -6.01694 -0.777801 0
M  V30 6859 H 633.471 -4.77233 -1.005 0
M  V30 6860 H 632.476 -5.3601 1.22366 0
M  V30 6861 H 633.701 -6.63689 1.43852 0
M  V30 6862 H 631.647 -6.5108 -0.801955 0
M  V30 6863 H 631.564 -7.53675 0.59243 0
M  V30 6864 H 632.832 -7.77392 -0.572851 0
M  V30 6865 N 637.061 -0.65484 -1.43351 0
M  V30 6866 C 637.991 0.0221809 -2.33489 0
M  V30 6867 C 638.972 0.810272 -1.49561 0
M  V30 6868 O 640.157 0.771426 -1.78221 0
M  V30 6869 C 637.287 0.988117 -3.32947 0
M  V30 6870 C 636.241 0.310026 -4.26876 0
M  V30 6871 C 635.567 1.38752 -5.16384 0
M  V30 6872 C 636.867 -0.798589 -5.16159 0
M  V30 6873 H 638.561 -0.730571 -2.9035 0
M  V30 6874 H 636.107 -0.352773 -1.39612 0
M  V30 6875 H 638.06 1.47067 -3.94904 0
M  V30 6876 H 636.784 1.77205 -2.74346 0
M  V30 6877 H 635.443 -0.152097 -3.66284 0
M  V30 6878 H 635.091 2.16293 -4.54121 0
M  V30 6879 H 634.791 0.939051 -5.80048 0
M  V30 6880 H 636.315 1.87141 -5.81215 0
M  V30 6881 H 637.729 -0.398126 -5.71916 0
M  V30 6882 H 636.126 -1.17163 -5.88552 0
M  V30 6883 H 637.196 -1.65588 -4.55751 0
M  V30 6884 N 638.539 1.52521 -0.396863 0
M  V30 6885 C 639.779 2.03583 0.182578 0
M  V30 6886 C 640.143 1.2766 1.43412 0
M  V30 6887 O 641.344 1.68884 2.09121 0
M  V30 6888 C 639.615 3.54724 0.436519 0
M  V30 6889 S 641.174 4.27598 0.985163 0
M  V30 6890 H 637.992 0.709186 0.0507529 0
M  V30 6891 H 640.594 1.87693 -0.546955 0
M  V30 6892 H 639.298 4.07567 -0.481343 0
M  V30 6893 H 638.829 3.74834 1.19427 0
M  V30 6894 H 640.844 4.41393 2.26686 0
M  V30 6895 N 640.017 0.126909 1.57088 0
M  V30 6896 C 640.964 -0.82036 2.15728 0
M  V30 6897 C 641.934 -1.25811 1.08447 0
M  V30 6898 O 643.119 -1.33422 1.36393 0
M  V30 6899 C 640.259 -2.06199 2.76724 0
M  V30 6900 C 639.372 -1.67188 3.98337 0
M  V30 6901 C 638.507 -2.86378 4.47393 0
M  V30 6902 C 637.546 -2.43644 5.61519 0
M  V30 6903 N 636.683 -3.55775 6.05284 0
M  V30 6904 H 641.523 -0.313472 2.96347 0
M  V30 6905 H 639.06 -0.14303 1.46403 0
M  V30 6906 H 641.018 -2.78959 3.10222 0
M  V30 6907 H 639.648 -2.54333 1.98782 0
M  V30 6908 H 638.7 -0.842714 3.70948 0
M  V30 6909 H 640.012 -1.31789 4.81075 0
M  V30 6910 H 639.166 -3.67353 4.82842 0
M  V30 6911 H 637.905 -3.25009 3.63621 0
M  V30 6912 H 636.91 -1.61104 5.25667 0
M  V30 6913 H 638.135 -2.06122 6.47063 0
M  V30 6914 H 636.081 -3.94065 5.24451 0
M  V30 6915 H 635.998 -3.24325 6.82898 0
M  V30 6916 H 637.266 -4.37166 6.45373 0
M  V30 6917 N 641.495 -1.56914 -0.146875 0
M  V30 6918 C 642.744 -1.82546 -0.857898 0
M  V30 6919 C 643.057 -0.708169 -1.8233 0
M  V30 6920 O 644.263 -0.850093 -2.57848 0
M  V30 6921 C 642.719 -3.23548 -1.57623 0
M  V30 6922 C 642.327 -4.43212 -0.653224 0
M  V30 6923 C 644.071 -3.58453 -2.27402 0
M  V30 6924 C 641.978 -5.75237 -1.37318 0
M  V30 6925 H 640.908 -0.680786 -0.32411 0
M  V30 6926 H 643.559 -1.83166 -0.110639 0
M  V30 6927 H 641.941 -3.17315 -2.36912 0
M  V30 6928 H 643.115 -4.60682 0.104452 0
M  V30 6929 H 641.43 -4.16351 -0.0638336 0
M  V30 6930 H 644.027 -4.54349 -2.81907 0
M  V30 6931 H 644.37 -2.84516 -3.03901 0
M  V30 6932 H 644.903 -3.66347 -1.55032 0
M  V30 6933 H 641.642 -6.52269 -0.650041 0
M  V30 6934 H 641.162 -5.61703 -2.10357 0
M  V30 6935 H 642.841 -6.18039 -1.91406 0
M  V30 6936 N 642.974 0.416227 -1.52004 0
M  V30 6937 C 643.924 1.50558 -1.7122 0
M  V30 6938 C 644.908 1.50613 -0.56609 0
M  V30 6939 O 646.1 1.56709 -0.822874 0
M  V30 6940 C 643.229 2.88556 -1.85984 0
M  V30 6941 C 642.315 2.93177 -3.06445 0
M  V30 6942 N 642.706 2.67505 -4.29272 0
M  V30 6943 C 641.004 3.24343 -3.06133 0
M  V30 6944 C 641.705 2.78511 -5.10692 0
M  V30 6945 N 640.681 3.11087 -4.45787 0
M  V30 6946 H 644.483 1.29494 -2.63834 0
M  V30 6947 H 641.997 0.62384 -1.4994 0
M  V30 6948 H 643.994 3.66954 -1.97865 0
M  V30 6949 H 642.654 3.10624 -0.945654 0
M  V30 6950 H 643.665 2.42033 -4.57865 0
M  V30 6951 H 640.342 3.52051 -2.24425 0
M  V30 6952 H 641.732 2.62438 -6.18527 0
M  V30 6953 N 644.452 1.42507 0.673017 0
M  V30 6954 C 645.384 1.42074 1.79854 0
M  V30 6955 C 646.397 0.319569 1.59633 0
M  V30 6956 O 647.586 0.582769 1.68719 0
M  V30 6957 C 644.686 1.19886 3.16987 0
M  V30 6958 C 643.859 2.42471 3.64042 0
M  V30 6959 C 642.918 2.15802 4.79913 0
M  V30 6960 O 641.944 2.89015 4.90366 0
M  V30 6961 N 643.146 1.16225 5.68746 0
M  V30 6962 H 645.911 2.3909 1.8071 0
M  V30 6963 H 643.472 1.37409 0.856171 0
M  V30 6964 H 645.464 0.999591 3.92161 0
M  V30 6965 H 644.034 0.313879 3.1102 0
M  V30 6966 H 643.254 2.77954 2.79526 0
M  V30 6967 H 644.542 3.24097 3.92223 0
M  V30 6968 H 643.94 0.556756 5.62954 0
M  V30 6969 H 642.497 1.02285 6.43724 0
M  V30 6970 N 645.93 -0.909495 1.28709 0
M  V30 6971 C 647.341 -1.47419 1.14563 0
M  V30 6972 C 647.692 -1.94432 -0.262832 0
M  V30 6973 O 646.817 -1.82842 -1.15748 0
M  V30 6974 C 647.412 -2.67933 2.07358 0
M  V30 6975 C 645.971 -3.20568 1.97264 0
M  V30 6976 C 645.118 -1.93269 1.98852 0
M  V30 6977 H 648.069 -0.721787 1.41336 0
M  V30 6978 H 648.09 -3.43339 1.64007 0
M  V30 6979 H 647.602 -2.33685 3.09859 0
M  V30 6980 H 645.703 -3.59531 0.978157 0
M  V30 6981 H 645.816 -3.85529 2.84436 0
M  V30 6982 H 644.18 -2.10553 1.43317 0
M  V30 6983 H 644.963 -1.61312 3.0304 0
M  V30 6984 N 647.408 -1.11026 -1.11852 0
M  V30 6985 C 648.318 -0.777252 -2.2135 0
M  V30 6986 C 649.334 0.227821 -1.72502 0
M  V30 6987 O 650.51 0.0650587 -2.01295 0
M  V30 6988 C 647.575 -0.220668 -3.45997 0
M  V30 6989 C 646.636 -1.2838 -4.09655 0
M  V30 6990 C 645.869 -0.753678 -5.28352 0
M  V30 6991 O 646.092 0.417779 -5.68868 0
M  V30 6992 O 645.026 -1.51647 -5.82483 0
M  V30 6993 H 648.852 -1.69141 -2.5224 0
M  V30 6994 H 646.437 -0.885836 -1.20305 0
M  V30 6995 H 648.319 0.0855756 -4.21313 0
M  V30 6996 H 646.994 0.666262 -3.16769 0
M  V30 6997 H 645.901 -1.64299 -3.3609 0
M  V30 6998 H 647.234 -2.14396 -4.43052 0
M  V30 6999 N 648.886 1.2938 -0.899927 0
M  V30 7000 C 649.834 2.29675 -0.367698 0
M  V30 7001 C 650.828 1.60787 0.533282 0
M  V30 7002 O 652.034 1.75126 0.416058 0
M  V30 7003 H 648.409 0.745284 -0.100279 0
M  V30 7004 H 650.38 2.72008 -1.22696 0
M  V30 7005 C 649.129 3.45512 0.389483 0
M  V30 7006 H 648.452 3.98713 -0.294575 0
M  V30 7007 H 649.892 4.17725 0.726744 0
M  V30 7008 C 648.351 2.969 1.59223 0
M  V30 7009 O 648.881 2.98195 2.69152 0
M  V30 7010 N 647.087 2.52728 1.43447 0
M  V30 7011 H 646.634 2.51873 0.540148 0
M  V30 7012 H 646.592 2.20561 2.24054 0
M  V30 7013 N 650.364 0.662433 1.43002 0
M  V30 7014 C 651.775 0.258315 1.84904 0
M  V30 7015 C 652.126 -1.19703 1.55453 0
M  V30 7016 O 651.251 -1.91484 1.00811 0
M  V30 7017 C 651.846 0.462047 3.35635 0
M  V30 7018 C 650.405 0.112165 3.76233 0
M  V30 7019 C 649.552 0.760479 2.66668 0
M  V30 7020 H 652.503 0.865467 1.33024 0
M  V30 7021 H 652.524 -0.289646 3.79396 0
M  V30 7022 H 652.036 1.52135 3.57039 0
M  V30 7023 H 650.137 -0.944179 3.60439 0
M  V30 7024 H 650.25 0.544058 4.76001 0
M  V30 7025 H 648.614 0.192887 2.53969 0
M  V30 7026 H 649.397 1.82299 2.90898 0
M  V30 7027 N 651.842 -1.52309 0.404946 0
M  V30 7028 C 652.774 -2.24579 -0.45791 0
M  V30 7029 C 653.787 -1.2739 -1.01369 0
M  V30 7030 O 654.976 -1.53363 -0.91335 0
M  V30 7031 C 652.076 -2.9608 -1.64893 0
M  V30 7032 C 651.249 -4.20106 -1.21777 0
M  V30 7033 C 650.308 -4.74468 -2.27523 0
M  V30 7034 O 649.334 -5.37157 -1.88285 0
M  V30 7035 N 650.536 -4.55678 -3.59635 0
M  V30 7036 H 653.301 -2.99265 0.161341 0
M  V30 7037 H 650.862 -1.60228 0.232107 0
M  V30 7038 H 652.854 -3.29344 -2.35191 0
M  V30 7039 H 651.424 -2.24606 -2.17419 0
M  V30 7040 H 650.644 -3.92704 -0.343071 0
M  V30 7041 H 651.932 -5.00658 -0.906596 0
M  V30 7042 H 651.33 -4.05673 -3.94266 0
M  V30 7043 H 649.887 -4.9339 -4.25922 0
M  V30 7044 N 653.32 -0.135238 -1.57019 0
M  V30 7045 C 654.27 0.820408 -2.12728 0
M  V30 7046 C 655.254 1.21735 -1.05211 0
M  V30 7047 O 656.446 1.18574 -1.31413 0
M  V30 7048 C 653.575 2.06414 -2.74314 0
M  V30 7049 C 652.661 1.69083 -3.88937 0
M  V30 7050 N 653.052 1.0251 -4.95303 0
M  V30 7051 C 651.35 1.98434 -3.99425 0
M  V30 7052 C 652.051 0.846749 -5.75504 0
M  V30 7053 N 651.027 1.3769 -5.25873 0
M  V30 7054 H 654.829 0.302426 -2.9234 0
M  V30 7055 H 652.343 0.0667009 -1.62263 0
M  V30 7056 H 654.34 2.75863 -3.12579 0
M  V30 7057 H 653 2.58741 -1.96171 0
M  V30 7058 H 654.011 0.687207 -5.1332 0
M  V30 7059 H 650.688 2.52693 -3.32344 0
M  V30 7060 H 652.078 0.322949 -6.71123 0
M  V30 7061 N 654.798 1.5699 0.138552 0
M  V30 7062 C 656.045 1.83809 0.849732 0
M  V30 7063 C 656.373 0.717409 1.80786 0
M  V30 7064 O 655.628 -0.292897 1.93496 0
M  V30 7065 C 655.927 3.17007 1.65049 0
M  V30 7066 C 655.593 4.43037 0.838398 0
M  V30 7067 C 654.255 4.77262 0.614385 0
M  V30 7068 C 656.607 5.20495 0.271044 0
M  V30 7069 C 653.935 5.864 -0.187552 0
M  V30 7070 C 656.287 6.30476 -0.517979 0
M  V30 7071 C 654.951 6.63245 -0.75249 0
M  V30 7072 H 654.221 0.672605 0.310939 0
M  V30 7073 H 656.868 1.91166 0.112971 0
M  V30 7074 H 655.173 3.05138 2.4576 0
M  V30 7075 H 656.87 3.34975 2.20437 0
M  V30 7076 H 653.46 4.16211 1.02307 0
M  V30 7077 H 657.644 4.94422 0.431371 0
M  V30 7078 H 652.9 6.10226 -0.378659 0
M  V30 7079 H 657.074 6.89686 -0.964694 0
M  V30 7080 H 654.701 7.47648 -1.37573 0
M  V30 7081 N 656.276 -0.40816 1.52223 0
M  V30 7082 C 657.239 -1.48 1.7501 0
M  V30 7083 C 658.239 -1.48367 0.619996 0
M  V30 7084 O 659.429 -1.49874 0.887881 0
M  V30 7085 C 656.561 -2.87403 1.83336 0
M  V30 7086 H 657.754 -1.29086 2.70697 0
M  V30 7087 H 655.307 -0.638715 1.42654 0
M  V30 7088 H 656.042 -3.11686 0.895677 0
M  V30 7089 H 655.827 -2.8854 2.65494 0
M  V30 7090 H 657.317 -3.65103 2.02705 0
M  V30 7091 N 657.755 -1.42862 -0.66545 0
M  V30 7092 C 658.995 -1.45323 -1.43738 0
M  V30 7093 C 659.359 -0.0707969 -1.91869 0
M  V30 7094 O 660.56 0.0298852 -2.68783 0
M  V30 7095 C 658.831 -2.45671 -2.59577 0
M  V30 7096 S 660.39 -2.6691 -3.48288 0
M  V30 7097 H 657.208 -0.51442 -0.490809 0
M  V30 7098 H 659.81 -1.79537 -0.773745 0
M  V30 7099 H 658.514 -3.44869 -2.22471 0
M  V30 7100 H 658.045 -2.12914 -3.30804 0
M  V30 7101 H 660.06 -1.95914 -4.55886 0
M  V30 7102 N 659.233 0.902656 -1.29189 0
M  V30 7103 C 660.163 2.02294 -1.16616 0
M  V30 7104 C 661.144 1.6999 -0.0611175 0
M  V30 7105 O 662.329 1.9271 -0.240072 0
M  V30 7106 C 659.459 3.37018 -0.83882 0
M  V30 7107 C 658.413 3.83522 -1.89986 0
M  V30 7108 C 657.739 5.15337 -1.42589 0
M  V30 7109 C 659.039 4.04169 -3.30824 0
M  V30 7110 H 660.733 2.13071 -2.10336 0
M  V30 7111 H 658.279 1.02378 -1.01266 0
M  V30 7112 H 660.232 4.14895 -0.737584 0
M  V30 7113 H 658.956 3.26325 0.134071 0
M  V30 7114 H 657.615 3.07859 -1.99043 0
M  V30 7115 H 657.263 5.01056 -0.441759 0
M  V30 7116 H 656.963 5.47423 -2.13547 0
M  V30 7117 H 658.487 5.95758 -1.3381 0
M  V30 7118 H 659.901 4.72537 -3.24626 0
M  V30 7119 H 658.298 4.47604 -3.99713 0
M  V30 7120 H 659.368 3.08604 -3.74021 0
M  V30 7121 N 660.711 1.11618 1.11262 0
M  V30 7122 C 661.641 0.79846 2.19424 0
M  V30 7123 C 662.622 -0.234003 1.68483 0
M  V30 7124 O 663.807 -0.0970704 1.93957 0
M  V30 7125 C 660.937 0.242892 3.4645 0
M  V30 7126 C 659.891 1.20744 4.10615 0
M  V30 7127 C 659.217 0.512494 5.32238 0
M  V30 7128 C 660.517 2.55884 4.55325 0
M  V30 7129 H 662.211 1.70286 2.46258 0
M  V30 7130 H 659.757 0.820195 1.18359 0
M  V30 7131 H 661.71 0.00840447 4.21399 0
M  V30 7132 H 660.434 -0.696811 3.1908 0
M  V30 7133 H 659.093 1.42759 3.37662 0
M  V30 7134 H 658.741 -0.432075 5.01141 0
M  V30 7135 H 658.441 1.15583 5.7612 0
M  V30 7136 H 659.965 0.286842 6.09926 0
M  V30 7137 H 661.379 2.37946 5.21588 0
M  V30 7138 H 659.776 3.16216 5.10027 0
M  V30 7139 H 660.846 3.14968 3.68678 0
M  V30 7140 N 662.189 -1.289 0.906776 0
M  V30 7141 C 663.437 -1.94883 0.535266 0
M  V30 7142 C 663.758 -1.71784 -0.922791 0
M  V30 7143 O 663.028 -1.05359 -1.65156 0
M  V30 7144 H 661.608 -0.721109 0.194962 0
M  V30 7145 H 664.27 -1.57018 1.15461 0
M  V30 7146 H 663.366 -3.03591 0.723821 0
M  V30 7147 N 663.667 -0.670007 -1.42649 0
M  V30 7148 C 665.083 -0.33911 -1.55956 0
M  V30 7149 C 665.283 1.1558 -1.65056 0
M  V30 7150 O 664.339 1.94111 -1.61485 0
M  V30 7151 C 665.652 -1.06522 -2.812 0
M  V30 7152 C 667.2 -1.04708 -2.94966 0
M  V30 7153 C 667.675 -1.75442 -4.23065 0
M  V30 7154 N 669.166 -1.72286 -4.29967 0
M  V30 7155 C 669.901 -2.23877 -5.27889 0
M  V30 7156 N 669.397 -2.83829 -6.31991 0
M  V30 7157 N 671.19 -2.14279 -5.19654 0
M  V30 7158 H 663.341 -1.6399 -1.34986 0
M  V30 7159 H 665.604 -0.690603 -0.649439 0
M  V30 7160 H 665.31 -2.12033 -2.80597 0
M  V30 7161 H 665.184 -0.627398 -3.71946 0
M  V30 7162 H 667.571 -0.000315966 -2.951 0
M  V30 7163 H 667.652 -1.52374 -2.05465 0
M  V30 7164 H 667.296 -2.80084 -4.23693 0
M  V30 7165 H 667.226 -1.25229 -5.11493 0
M  V30 7166 H 669.717 -1.28554 -3.55362 0
M  V30 7167 H 670.03 -3.20827 -7.03057 0
M  V30 7168 H 668.375 -2.87896 -6.32567 0
M  V30 7169 H 671.566 -1.67135 -4.37245 0
M  V30 7170 H 671.739 -2.54792 -5.95806 0
M  V30 7171 N 665.145 1.52092 -0.413018 0
M  V30 7172 C 666.075 2.30021 0.401567 0
M  V30 7173 C 667.056 1.34395 1.04269 0
M  V30 7174 O 668.241 1.63304 1.05097 0
M  V30 7175 C 665.371 3.12447 1.51638 0
M  V30 7176 C 664.325 4.16153 1.00005 0
M  V30 7177 C 663.651 4.86948 2.20875 0
M  V30 7178 C 664.951 5.22275 0.0513757 0
M  V30 7179 H 666.645 2.98365 -0.248704 0
M  V30 7180 H 664.191 1.4349 -0.121052 0
M  V30 7181 H 666.144 3.65733 2.09326 0
M  V30 7182 H 664.868 2.41879 2.19458 0
M  V30 7183 H 663.527 3.63882 0.445549 0
M  V30 7184 H 663.175 4.12905 2.8726 0
M  V30 7185 H 662.875 5.57057 1.86978 0
M  V30 7186 H 664.399 5.43048 2.79162 0
M  V30 7187 H 665.813 5.70778 0.537176 0
M  V30 7188 H 664.21 5.9977 -0.198977 0
M  V30 7189 H 665.28 4.76611 -0.892736 0
M  V30 7190 N 666.623 0.143563 1.56945 0
M  V30 7191 C 667.851 -0.515447 2.00377 0
M  V30 7192 C 668.266 -1.58643 1.02361 0
M  V30 7193 O 667.623 -1.82489 0.0201039 0
M  V30 7194 C 667.674 -1.11923 3.43737 0
M  V30 7195 O 667.395 -0.0910318 4.38005 0
M  V30 7196 C 668.896 -1.85918 4.02429 0
M  V30 7197 H 666.116 -0.134478 0.657386 0
M  V30 7198 H 668.66 0.237135 2.0312 0
M  V30 7199 H 666.815 -1.82245 3.41856 0
M  V30 7200 H 667.229 -0.532916 5.21786 0
M  V30 7201 H 668.703 -2.2346 5.04747 0
M  V30 7202 H 669.18 -2.7438 3.42947 0
M  V30 7203 H 669.786 -1.20303 4.07931 0
M  V30 7204 N 668.101 -1.57061 -0.130224 0
M  V30 7205 C 669.011 -2.02802 -1.17934 0
M  V30 7206 C 670.027 -0.946378 -1.46013 0
M  V30 7207 O 671.203 -1.25708 -1.57351 0
M  V30 7208 C 668.268 -2.41368 -2.48882 0
M  V30 7209 C 667.329 -3.63561 -2.28301 0
M  V30 7210 C 666.562 -4.00279 -3.53005 0
M  V30 7211 O 666.785 -3.37463 -4.59864 0
M  V30 7212 O 665.719 -4.93441 -3.44673 0
M  V30 7213 H 669.545 -2.92394 -0.820958 0
M  V30 7214 H 667.13 -1.45475 -0.340197 0
M  V30 7215 H 669.012 -2.66958 -3.26054 0
M  V30 7216 H 667.687 -1.54926 -2.84217 0
M  V30 7217 H 666.594 -3.43136 -1.49025 0
M  V30 7218 H 667.927 -4.50673 -1.97875 0
M  V30 7219 N 669.579 0.400081 -1.52437 0
M  V30 7220 C 670.509 1.4947 -1.7939 0
M  V30 7221 C 671.49 1.57383 -0.645329 0
M  V30 7222 O 672.675 1.72511 -0.891826 0
M  V30 7223 C 669.805 2.87201 -1.95276 0
M  V30 7224 C 668.759 2.94134 -3.10917 0
M  V30 7225 C 668.085 4.34207 -3.1204 0
M  V30 7226 C 669.385 2.64791 -4.50203 0
M  V30 7227 H 671.079 1.27165 -2.71052 0
M  V30 7228 H 668.625 0.610312 -1.30427 0
M  V30 7229 H 670.578 3.63772 -2.12715 0
M  V30 7230 H 669.302 3.10819 -1.00294 0
M  V30 7231 H 667.961 2.20009 -2.93243 0
M  V30 7232 H 667.609 4.54848 -2.14761 0
M  V30 7233 H 667.309 4.39768 -3.89715 0
M  V30 7234 H 668.833 5.127 -3.31619 0
M  V30 7235 H 670.247 3.31083 -4.68035 0
M  V30 7236 H 668.644 2.81717 -5.29864 0
M  V30 7237 H 669.714 1.60184 -4.57678 0
M  V30 7238 N 671.057 1.43213 0.657864 0
M  V30 7239 C 672.473 1.26511 0.972992 0
M  V30 7240 C 672.673 0.181477 2.00681 0
M  V30 7241 O 671.729 -0.441649 2.48608 0
M  V30 7242 C 673.042 2.62784 1.46168 0
M  V30 7243 C 674.59 2.70278 1.57857 0
M  V30 7244 C 675.065 4.06958 2.10117 0
M  V30 7245 N 676.556 4.08999 2.17426 0
M  V30 7246 C 677.291 5.11585 2.58975 0
M  V30 7247 N 676.787 6.24548 2.99853 0
M  V30 7248 N 678.58 4.9894 2.58873 0
M  V30 7249 H 670.731 2.12384 -0.0263129 0
M  V30 7250 H 672.994 0.946638 0.0507992 0
M  V30 7251 H 672.7 3.43022 0.776474 0
M  V30 7252 H 672.574 2.87863 2.43751 0
M  V30 7253 H 674.961 1.90376 2.25479 0
M  V30 7254 H 675.042 2.4897 0.587179 0
M  V30 7255 H 674.686 4.87325 1.43098 0
M  V30 7256 H 674.616 4.25628 3.10078 0
M  V30 7257 H 677.107 3.27457 1.88627 0
M  V30 7258 H 677.42 6.98661 3.30292 0
M  V30 7259 H 675.765 6.28027 2.97669 0
M  V30 7260 H 678.956 4.09757 2.26311 0
M  V30 7261 H 679.129 5.79019 2.90932 0
M  V30 7262 N 672.536 -0.895792 1.29666 0
M  V30 7263 C 673.764 -1.68001 1.20761 0
M  V30 7264 C 674.179 -1.87379 -0.231187 0
M  V30 7265 O 673.536 -1.41359 -1.15429 0
M  V30 7266 C 673.587 -3.06236 1.92098 0
M  V30 7267 O 673.308 -2.8774 3.30359 0
M  V30 7268 C 674.809 -4.00652 1.89717 0
M  V30 7269 H 672.029 -0.524591 0.418384 0
M  V30 7270 H 674.573 -1.11995 1.71106 0
M  V30 7271 H 672.728 -3.59007 1.45578 0
M  V30 7272 H 673.142 -3.75359 3.66342 0
M  V30 7273 H 674.616 -4.95051 2.44189 0
M  V30 7274 H 675.093 -4.30424 0.873595 0
M  V30 7275 H 675.699 -3.53815 2.35998 0
M  V30 7276 N 674.014 -1.12206 -1.10668 0
M  V30 7277 C 675.261 -0.875875 -1.82578 0
M  V30 7278 C 675.589 0.598342 -1.85068 0
M  V30 7279 O 674.844 1.45818 -1.3052 0
M  V30 7280 C 675.143 -1.39276 -3.29146 0
M  V30 7281 C 674.809 -2.8816 -3.46806 0
M  V30 7282 C 673.471 -3.28813 -3.51334 0
M  V30 7283 C 675.823 -3.8401 -3.52399 0
M  V30 7284 C 673.151 -4.64028 -3.59019 0
M  V30 7285 C 675.503 -5.19053 -3.61617 0
M  V30 7286 C 674.167 -5.59252 -3.64408 0
M  V30 7287 H 673.437 -0.320505 -0.6681 0
M  V30 7288 H 676.084 -1.40184 -1.30464 0
M  V30 7289 H 674.389 -0.787207 -3.8381 0
M  V30 7290 H 676.086 -1.17851 -3.83291 0
M  V30 7291 H 672.676 -2.55716 -3.43958 0
M  V30 7292 H 676.86 -3.53698 -3.48154 0
M  V30 7293 H 672.116 -4.94568 -3.59461 0
M  V30 7294 H 676.29 -5.93152 -3.64889 0
M  V30 7295 H 673.917 -6.64017 -3.70116 0
M  V30 7296 N 675.492 1.28418 -0.913599 0
M  V30 7297 C 676.44 2.29272 -0.392037 0
M  V30 7298 C 677.434 1.61344 0.516198 0
M  V30 7299 O 678.64 1.75557 0.39746 0
M  V30 7300 H 675.015 0.744178 -0.108178 0
M  V30 7301 H 676.986 2.70691 -1.25574 0
M  V30 7302 C 675.735 3.45905 0.352815 0
M  V30 7303 H 675.058 3.98378 -0.336848 0
M  V30 7304 H 676.498 4.18473 0.682398 0
M  V30 7305 C 674.957 2.98572 1.56065 0
M  V30 7306 O 675.487 3.01033 2.65974 0
M  V30 7307 N 673.693 2.54235 1.40759 0
M  V30 7308 H 673.24 2.52432 0.513403 0
M  V30 7309 H 673.198 2.22925 2.21702 0
M  V30 7310 N 676.97 0.677563 1.42291 0
M  V30 7311 C 677.92 -0.0218641 2.2799 0
M  V30 7312 C 678.904 -0.770816 1.41235 0
M  V30 7313 O 680.096 -0.649273 1.64662 0
M  V30 7314 C 677.225 -0.970449 3.29298 0
M  V30 7315 C 676.311 -0.218695 4.23536 0
M  V30 7316 N 676.702 0.777908 4.99782 0
M  V30 7317 C 675 -0.456748 4.43655 0
M  V30 7318 C 675.701 1.22632 5.68627 0
M  V30 7319 N 674.677 0.55573 5.40752 0
M  V30 7320 H 678.479 0.742516 2.84366 0
M  V30 7321 H 675.993 0.506862 1.54288 0
M  V30 7322 H 677.99 -1.48652 3.89497 0
M  V30 7323 H 676.65 -1.73463 2.74483 0
M  V30 7324 H 677.661 1.15754 5.04798 0
M  V30 7325 H 674.338 -1.20021 3.99877 0
M  V30 7326 H 675.728 2.05231 6.39789 0
M  V30 7327 N 678.448 -1.51871 0.421078 0
M  V30 7328 C 679.398 -2.24171 -0.416111 0
M  V30 7329 C 680.382 -1.25763 -1.00362 0
M  V30 7330 O 681.574 -1.5094 -0.924452 0
M  V30 7331 C 678.703 -3.07533 -1.52571 0
M  V30 7332 C 677.789 -4.1336 -0.948399 0
M  V30 7333 N 678.18 -5.05704 -0.0987933 0
M  V30 7334 C 676.478 -4.29055 -1.21768 0
M  V30 7335 C 677.179 -5.8127 0.223705 0
M  V30 7336 N 676.155 -5.4221 -0.388524 0
M  V30 7337 H 679.957 -2.92925 0.239166 0
M  V30 7338 H 677.471 -1.60732 0.232191 0
M  V30 7339 H 679.468 -3.57893 -2.13819 0
M  V30 7340 H 678.128 -2.4032 -2.18349 0
M  V30 7341 H 679.139 -5.17214 0.266428 0
M  V30 7342 H 675.816 -3.73071 -1.87416 0
M  V30 7343 H 677.206 -6.65653 0.914076 0
M  V30 7344 N 679.926 -0.151884 -1.56866 0
M  V30 7345 C 680.876 0.797799 -2.13586 0
M  V30 7346 C 681.86 1.20613 -1.06496 0
M  V30 7347 O 683.052 1.17173 -1.32663 0
M  V30 7348 C 680.181 2.03493 -2.76488 0
M  V30 7349 C 679.267 1.64948 -3.90708 0
M  V30 7350 N 679.658 0.972513 -4.96363 0
M  V30 7351 C 677.956 1.94186 -4.01507 0
M  V30 7352 C 678.657 0.785661 -5.7637 0
M  V30 7353 N 677.633 1.32105 -5.27304 0
M  V30 7354 H 681.435 0.271403 -2.92644 0
M  V30 7355 H 678.949 0.049487 -1.62325 0
M  V30 7356 H 680.946 2.72532 -3.15487 0
M  V30 7357 H 679.606 2.56646 -1.98904 0
M  V30 7358 H 680.617 0.632724 -5.1402 0
M  V30 7359 H 677.294 2.49154 -3.35005 0
M  V30 7360 H 678.684 0.251749 -6.71428 0
M  V30 7361 N 681.404 1.57128 0.121893 0
M  V30 7362 C 682.367 1.99197 1.13372 0
M  V30 7363 C 683.367 0.881728 1.3447 0
M  V30 7364 O 684.557 1.14783 1.31036 0
M  V30 7365 C 681.689 2.32963 2.4888 0
M  V30 7366 H 682.882 2.89788 0.772204 0
M  V30 7367 H 680.435 1.51952 0.366093 0
M  V30 7368 H 681.17 1.45243 2.89957 0
M  V30 7369 H 680.955 3.13934 2.34921 0
M  V30 7370 H 682.445 2.66261 3.21706 0
M  V30 7371 N 682.882 -0.391992 1.52647 0
M  V30 7372 C 683.792 -1.503 1.80131 0
M  V30 7373 C 684.808 -1.59825 0.687882 0
M  V30 7374 O 685.984 -1.76218 0.975149 0
M  V30 7375 C 683.049 -2.85863 1.96171 0
M  V30 7376 C 682.11 -2.86084 3.20085 0
M  V30 7377 C 681.343 -4.15181 3.35351 0
M  V30 7378 O 681.566 -5.09981 2.55491 0
M  V30 7379 O 680.5 -4.22603 4.28591 0
M  V30 7380 H 684.326 -1.30007 2.74466 0
M  V30 7381 H 681.911 -0.579539 1.37701 0
M  V30 7382 H 683.793 -3.66236 2.08445 0
M  V30 7383 H 682.468 -3.06189 1.05025 0
M  V30 7384 H 681.375 -2.04504 3.13256 0
M  V30 7385 H 682.708 -2.7071 4.11068 0
M  V30 7386 N 684.36 -1.4356 -0.65026 0
M  V30 7387 C 685.293 -1.434 -1.77515 0
M  V30 7388 C 686.271 -0.295082 -1.599 0
M  V30 7389 O 687.455 -0.489128 -1.82043 0
M  V30 7390 C 684.582 -1.2484 -3.14853 0
M  V30 7391 C 683.628 -2.42046 -3.51163 0
M  V30 7392 S 684.461 -4.04595 -3.50803 0
M  V30 7393 C 685.617 -3.88424 -4.90793 0
M  V30 7394 H 685.85 -2.38586 -1.77381 0
M  V30 7395 H 683.383 -1.30627 -0.823169 0
M  V30 7396 H 685.341 -1.14819 -3.94115 0
M  V30 7397 H 684.002 -0.311977 -3.12547 0
M  V30 7398 H 683.195 -2.24873 -4.51052 0
M  V30 7399 H 682.797 -2.48708 -2.79321 0
M  V30 7400 H 685.089 -3.50932 -5.79528 0
M  V30 7401 H 686.032 -4.88076 -5.13018 0
M  V30 7402 H 686.44 -3.20829 -4.64467 0
M  V30 7403 N 685.838 0.888903 -1.30139 0
M  V30 7404 C 686.768 2.01046 -1.18755 0
M  V30 7405 C 687.749 1.69916 -0.0791438 0
M  V30 7406 O 688.934 1.92445 -0.260498 0
M  V30 7407 C 686.064 3.36109 -0.874518 0
M  V30 7408 C 685.018 3.81486 -1.94043 0
M  V30 7409 C 684.344 5.13796 -1.48047 0
M  V30 7410 C 685.644 4.00637 -3.35093 0
M  V30 7411 H 687.338 2.10828 -2.12584 0
M  V30 7412 H 684.884 1.01298 -1.02346 0
M  V30 7413 H 686.837 4.14089 -0.781548 0
M  V30 7414 H 685.561 3.26449 0.0994519 0
M  V30 7415 H 684.22 3.05731 -2.02297 0
M  V30 7416 H 683.868 5.0056 -0.494878 0
M  V30 7417 H 683.568 5.45127 -2.19341 0
M  V30 7418 H 685.092 5.94305 -1.40121 0
M  V30 7419 H 686.506 4.69067 -3.2962 0
M  V30 7420 H 684.903 4.43339 -4.04438 0
M  V30 7421 H 685.973 3.0462 -3.77273 0
M  V30 7422 N 687.317 1.12792 1.10072 0
M  V30 7423 C 688.25 0.742921 2.15768 0
M  V30 7424 C 689.228 -0.267714 1.60381 0
M  V30 7425 O 690.412 -0.160782 1.87813 0
M  V30 7426 C 687.539 0.100244 3.38552 0
M  V30 7427 C 686.585 1.07831 4.12644 0
M  V30 7428 S 687.418 2.60765 4.6772 0
M  V30 7429 C 688.574 1.97838 5.9381 0
M  V30 7430 H 688.807 1.63822 2.48092 0
M  V30 7431 H 686.34 0.947385 1.21918 0
M  V30 7432 H 688.298 -0.264175 4.09649 0
M  V30 7433 H 686.959 -0.772223 3.04459 0
M  V30 7434 H 686.152 0.576325 5.00694 0
M  V30 7435 H 685.754 1.38586 3.47376 0
M  V30 7436 H 688.046 1.32341 6.64449 0
M  V30 7437 H 688.989 2.83943 6.48677 0
M  V30 7438 H 689.397 1.43267 5.46017 0
M  V30 7439 N 688.795 -1.27931 0.920396 0
M  V30 7440 C 690.02 -1.99343 0.572478 0
M  V30 7441 C 690.445 -1.68267 -0.840696 0
M  V30 7442 O 689.803 -0.918805 -1.56294 0
M  V30 7443 C 689.851 -3.51698 0.796284 0
M  V30 7444 O 688.955 -4.12157 -0.141602 0
M  V30 7445 H 688.296 -0.626065 0.221221 0
M  V30 7446 H 690.826 -1.62921 1.23765 0
M  V30 7447 H 690.836 -4.01793 0.708984 0
M  V30 7448 H 689.511 -3.73649 1.82644 0
M  V30 7449 H 688.088 -3.729 -0.005007 0
M  V30 7450 N 690.273 -0.685099 -1.4193 0
M  V30 7451 C 691.519 -0.220688 -2.02199 0
M  V30 7452 C 691.874 1.16329 -1.5325 0
M  V30 7453 O 691.167 1.77175 -0.729345 0
M  V30 7454 C 691.361 -0.206154 -3.56805 0
M  V30 7455 C 691.19 -1.58718 -4.2076 0
M  V30 7456 C 689.96 -2.18747 -4.55497 0
M  V30 7457 C 692.158 -2.53182 -4.47664 0
M  V30 7458 N 690.14 -3.49523 -5.04685 0
M  V30 7459 C 691.511 -3.68625 -4.98514 0
M  V30 7460 C 693.566 -2.51582 -4.29664 0
M  V30 7461 C 692.269 -4.82734 -5.33255 0
M  V30 7462 C 694.295 -3.64795 -4.65487 0
M  V30 7463 C 693.657 -4.78967 -5.16498 0
M  V30 7464 H 689.756 -0.12591 -0.771797 0
M  V30 7465 H 692.34 -0.900316 -1.72634 0
M  V30 7466 H 690.511 0.442923 -3.85866 0
M  V30 7467 H 692.243 0.272103 -4.03784 0
M  V30 7468 H 688.998 -1.71135 -4.41599 0
M  V30 7469 H 689.422 -4.1653 -5.33696 0
M  V30 7470 H 694.064 -1.64535 -3.89472 0
M  V30 7471 H 691.782 -5.7045 -5.72375 0
M  V30 7472 H 695.368 -3.64796 -4.53227 0
M  V30 7473 H 694.248 -5.6512 -5.437 0
M  V30 7474 N 691.751 1.51645 -0.429126 0
M  V30 7475 C 693.167 1.59394 -0.080994 0
M  V30 7476 C 693.367 1.44064 1.40882 0
M  V30 7477 O 692.423 1.27771 2.17786 0
M  V30 7478 C 693.736 2.94779 -0.593773 0
M  V30 7479 C 695.284 3.08067 -0.553494 0
M  V30 7480 C 695.759 4.45963 -1.04311 0
M  V30 7481 N 697.25 4.5226 -1.00076 0
M  V30 7482 C 697.985 5.57268 -1.35056 0
M  V30 7483 N 697.481 6.69734 -1.77282 0
M  V30 7484 N 699.274 5.47582 -1.26925 0
M  V30 7485 H 691.425 1.59856 -1.39857 0
M  V30 7486 H 693.688 0.753095 -0.575805 0
M  V30 7487 H 693.394 3.11342 -1.63583 0
M  V30 7488 H 693.268 3.77197 -0.0142202 0
M  V30 7489 H 695.655 2.91177 0.479556 0
M  V30 7490 H 695.736 2.27508 -1.16935 0
M  V30 7491 H 695.38 4.63598 -2.07459 0
M  V30 7492 H 695.31 5.25049 -0.403873 0
M  V30 7493 H 697.801 3.71537 -0.690564 0
M  V30 7494 H 698.114 7.4587 -2.02232 0
M  V30 7495 H 696.459 6.70963 -1.81202 0
M  V30 7496 H 699.65 4.58604 -0.93809 0
M  V30 7497 H 699.823 6.29308 -1.54516 0
M  V30 7498 N 693.229 0.160201 1.56784 0
M  V30 7499 C 694.475 -0.48831 1.96833 0
M  V30 7500 C 694.808 -1.63641 1.04571 0
M  V30 7501 O 694.083 -1.94289 0.0906481 0
M  V30 7502 C 694.366 -0.981908 3.46454 0
M  V30 7503 C 694.219 0.165607 4.49495 0
M  V30 7504 C 695.538 -1.85931 3.98896 0
M  V30 7505 H 692.657 -0.176027 0.71567 0
M  V30 7506 H 695.299 0.244093 1.88426 0
M  V30 7507 H 693.449 -1.60602 3.5375 0
M  V30 7508 H 695.121 0.802372 4.54268 0
M  V30 7509 H 693.364 0.822789 4.25926 0
M  V30 7510 H 694.035 -0.221699 5.51555 0
M  V30 7511 H 696.511 -1.33327 3.94161 0
M  V30 7512 H 695.387 -2.17373 5.04024 0
M  V30 7513 H 695.648 -2.80106 3.42042 0
M  V30 7514 N 694.707 -1.5719 -0.113559 0
M  V30 7515 C 695.655 -2.01725 -1.158 0
M  V30 7516 C 696.649 -0.915105 -1.42556 0
M  V30 7517 O 697.855 -1.10031 -1.42454 0
M  V30 7518 H 694.23 -0.64262 -0.390569 0
M  V30 7519 H 696.201 -2.88666 -0.755926 0
M  V30 7520 C 694.95 -2.44203 -2.47507 0
M  V30 7521 H 694.273 -3.28582 -2.27758 0
M  V30 7522 H 695.713 -2.79158 -3.19135 0
M  V30 7523 C 694.172 -1.30785 -3.10478 0
M  V30 7524 O 694.702 -0.626807 -3.9678 0
M  V30 7525 N 692.908 -1.06352 -2.7044 0
M  V30 7526 H 692.455 -1.61913 -2.00355 0
M  V30 7527 H 692.413 -0.306614 -3.12901 0
M  V30 7528 N 696.185 0.383891 -1.52853 0
M  V30 7529 C 697.462 1.14296 -1.58732 0
M  V30 7530 C 697.842 2.07585 -0.383611 0
M  V30 7531 O 697.19 2.1971 0.627661 0
M  V30 7532 C 697.4 1.89816 -2.92867 0
M  V30 7533 C 698.748 2.44998 -3.46787 0
M  V30 7534 O 699.772 1.99966 -2.94774 0
M  V30 7535 O 698.631 3.2727 -4.37672 0
M  V30 7536 H 695.725 0.52326 -0.640413 0
M  V30 7537 H 698.271 0.388631 -1.6519 0
M  V30 7538 H 697.043 1.21626 -3.71918 0
M  V30 7539 H 696.666 2.72199 -2.89816 0
M  V30 7540 N 697.663 1.43903 0.642637 0
M  V30 7541 C 698.613 1.46321 1.74854 0
M  V30 7542 C 699.597 0.330361 1.57472 0
M  V30 7543 O 700.789 0.574881 1.67404 0
M  V30 7544 C 697.918 1.39919 3.13493 0
M  V30 7545 C 697.004 2.58274 3.36385 0
M  V30 7546 N 697.395 3.83578 3.29699 0
M  V30 7547 C 695.693 2.53224 3.67142 0
M  V30 7548 C 696.394 4.62375 3.52965 0
M  V30 7549 N 695.37 3.93269 3.75287 0
M  V30 7550 H 699.172 2.41062 1.68126 0
M  V30 7551 H 696.686 1.38704 0.844693 0
M  V30 7552 H 698.683 1.39735 3.92785 0
M  V30 7553 H 697.343 0.46207 3.21395 0
M  V30 7554 H 698.354 4.15713 3.08874 0
M  V30 7555 H 695.031 1.68252 3.82096 0
M  V30 7556 H 696.421 5.714 3.53485 0
M  V30 7557 N 699.141 -0.881989 1.30609 0
M  V30 7558 C 700.088 -1.98803 1.17244 0
M  V30 7559 C 701.058 -1.65987 0.0611905 0
M  V30 7560 O 702.243 -1.89385 0.231911 0
M  V30 7561 C 699.383 -3.33867 0.87333 0
M  V30 7562 C 698.496 -3.79354 2.06675 0
M  V30 7563 C 697.631 -5.03078 1.70547 0
M  V30 7564 C 696.67 -5.40981 2.86366 0
M  V30 7565 N 695.807 -6.55886 2.50514 0
M  V30 7566 H 700.647 -2.09566 2.11863 0
M  V30 7567 H 698.184 -1.02607 1.05405 0
M  V30 7568 H 700.142 -4.11612 0.680519 0
M  V30 7569 H 698.772 -3.2278 -0.0359983 0
M  V30 7570 H 697.824 -2.97492 2.37071 0
M  V30 7571 H 699.136 -4.03382 2.93401 0
M  V30 7572 H 698.29 -5.88457 1.47658 0
M  V30 7573 H 697.029 -4.80927 0.809947 0
M  V30 7574 H 696.034 -4.54127 3.09917 0
M  V30 7575 H 697.259 -5.65104 3.76609 0
M  V30 7576 H 695.205 -6.35306 1.63471 0
M  V30 7577 H 695.122 -6.79799 3.30771 0
M  V30 7578 H 696.39 -7.44489 2.30989 0
M  V30 7579 N 700.619 -1.13374 -1.09472 0
M  V30 7580 C 701.866 -0.89519 -1.81639 0
M  V30 7581 C 702.194 0.57868 -1.85692 0
M  V30 7582 O 701.449 1.44426 -1.32059 0
M  V30 7583 C 701.748 -1.42759 -3.2765 0
M  V30 7584 C 701.414 -2.91822 -3.43731 0
M  V30 7585 C 700.076 -3.32521 -3.47827 0
M  V30 7586 C 702.428 -3.87727 -3.48307 0
M  V30 7587 C 699.756 -4.6781 -3.54078 0
M  V30 7588 C 702.108 -5.22859 -3.56091 0
M  V30 7589 C 700.772 -5.63086 -3.58456 0
M  V30 7590 H 700.042 -0.327573 -0.664663 0
M  V30 7591 H 702.689 -1.4156 -1.28969 0
M  V30 7592 H 700.994 -0.827871 -3.82954 0
M  V30 7593 H 702.691 -1.2191 -3.8202 0
M  V30 7594 H 699.281 -2.5935 -3.41226 0
M  V30 7595 H 703.465 -3.57371 -3.44383 0
M  V30 7596 H 698.721 -4.98353 -3.54195 0
M  V30 7597 H 702.895 -5.96989 -3.58577 0
M  V30 7598 H 700.522 -6.67905 -3.63052 0
M  V30 7599 N 702.098 1.27442 -0.927168 0
M  V30 7600 C 703.326 1.98498 -0.583622 0
M  V30 7601 C 703.741 1.69171 0.838241 0
M  V30 7602 O 703.098 0.951969 1.55704 0
M  V30 7603 C 703.149 3.52552 -0.799341 0
M  V30 7604 O 702.87 3.80851 -2.16527 0
M  V30 7605 C 704.371 4.4086 -0.464436 0
M  V30 7606 H 701.591 0.633487 -0.221213 0
M  V30 7607 H 704.135 1.62308 -1.24404 0
M  V30 7608 H 702.29 3.86955 -0.185728 0
M  V30 7609 H 702.704 4.75441 -2.21487 0
M  V30 7610 H 704.178 5.47967 -0.666075 0
M  V30 7611 H 704.655 4.35082 0.599995 0
M  V30 7612 H 705.261 4.11977 -1.05617 0
M  V30 7613 N 703.576 0.692616 1.41565 0
M  V30 7614 C 704.987 0.297478 1.84315 0
M  V30 7615 C 705.338 -1.16379 1.57957 0
M  V30 7616 O 704.463 -1.89303 1.0485 0
M  V30 7617 C 705.058 0.533136 3.34579 0
M  V30 7618 C 703.617 0.191944 3.7591 0
M  V30 7619 C 702.764 0.816873 2.64995 0
M  V30 7620 H 705.715 0.893488 1.31158 0
M  V30 7621 H 705.736 -0.209105 3.79925 0
M  V30 7622 H 705.248 1.59674 3.53731 0
M  V30 7623 H 703.349 -0.867512 3.6236 0
M  V30 7624 H 703.462 0.644902 4.7474 0
M  V30 7625 H 701.826 0.246715 2.53502 0
M  V30 7626 H 702.609 1.88429 2.86966 0
M  V30 7627 N 705.054 -1.51416 0.437162 0
M  V30 7628 C 705.984 -2.30631 -0.364922 0
M  V30 7629 C 706.965 -1.36037 -1.02118 0
M  V30 7630 O 708.15 -1.64956 -1.02485 0
M  V30 7631 C 705.28 -3.1482 -1.46648 0
M  V30 7632 C 704.234 -4.17691 -0.933717 0
M  V30 7633 C 703.56 -4.904 -2.13101 0
M  V30 7634 C 704.86 -5.2229 0.0317201 0
M  V30 7635 H 706.554 -2.97932 0.29614 0
M  V30 7636 H 704.1 -1.4328 0.143865 0
M  V30 7637 H 706.053 -3.69017 -2.03481 0
M  V30 7638 H 704.777 -2.4534 -2.15583 0
M  V30 7639 H 703.436 -3.64545 -0.387602 0
M  V30 7640 H 703.084 -4.17423 -2.80654 0
M  V30 7641 H 702.784 -5.59962 -1.78092 0
M  V30 7642 H 704.308 -5.4742 -2.70487 0
M  V30 7643 H 705.722 -5.7156 -0.446302 0
M  V30 7644 H 704.119 -5.99378 0.29437 0
M  V30 7645 H 705.189 -4.75131 0.968447 0
M  V30 7646 N 706.532 -0.168513 -1.56696 0
M  V30 7647 C 707.462 0.758563 -2.20835 0
M  V30 7648 C 708.443 1.24121 -1.1631 0
M  V30 7649 O 709.628 1.29487 -1.4473 0
M  V30 7650 C 706.758 1.9892 -2.8469 0
M  V30 7651 C 705.712 1.64252 -3.95228 0
M  V30 7652 C 705.038 2.94757 -4.46119 0
M  V30 7653 C 706.338 0.872675 -5.14958 0
M  V30 7654 H 708.032 0.223953 -2.98561 0
M  V30 7655 H 705.578 0.106277 -1.43607 0
M  V30 7656 H 707.531 2.64275 -3.28233 0
M  V30 7657 H 706.255 2.5479 -2.04327 0
M  V30 7658 H 704.914 1.01266 -3.52336 0
M  V30 7659 H 704.562 3.48662 -3.62552 0
M  V30 7660 H 704.262 2.72316 -5.2069 0
M  V30 7661 H 705.786 3.61147 -4.92347 0
M  V30 7662 H 707.2 1.42875 -5.55211 0
M  V30 7663 H 705.597 0.747402 -5.95428 0
M  V30 7664 H 706.667 -0.131535 -4.84722 0
M  V30 7665 N 708.01 1.57248 0.105221 0
M  V30 7666 C 709.25 1.87393 0.816283 0
M  V30 7667 C 709.614 0.758249 1.76393 0
M  V30 7668 O 710.815 0.941835 2.5176 0
M  V30 7669 C 709.086 3.22775 1.53463 0
M  V30 7670 S 710.645 3.74588 2.28537 0
M  V30 7671 H 707.463 0.656847 0.272164 0
M  V30 7672 H 710.065 1.9536 0.073909 0
M  V30 7673 H 708.769 4.01905 0.830674 0
M  V30 7674 H 708.3 3.17921 2.3171 0
M  V30 7675 H 710.315 3.47193 3.54502 0
M  V30 7676 N 709.488 -0.375779 1.53054 0
M  V30 7677 C 710.398 -1.48381 1.81715 0
M  V30 7678 C 711.414 -1.59087 0.704795 0
M  V30 7679 O 712.59 -1.75174 0.993785 0
M  V30 7680 C 709.655 -2.83767 1.99192 0
M  V30 7681 C 708.716 -2.82673 3.23102 0
M  V30 7682 C 707.949 -4.11601 3.39736 0
M  V30 7683 O 708.172 -5.07243 2.60885 0
M  V30 7684 O 707.106 -4.18034 4.33049 0
M  V30 7685 H 710.932 -1.27089 2.7583 0
M  V30 7686 H 708.517 -0.564902 1.38308 0
M  V30 7687 H 710.399 -3.64004 2.12318 0
M  V30 7688 H 709.074 -3.05057 1.08267 0
M  V30 7689 H 707.981 -2.0117 3.15407 0
M  V30 7690 H 709.314 -2.66335 4.13916 0
M  V30 7691 N 710.966 -1.44241 -0.634997 0
M  V30 7692 C 712.215 -1.46102 -1.39058 0
M  V30 7693 C 712.528 -0.0959909 -1.95364 0
M  V30 7694 O 713.734 0.00788751 -2.71499 0
M  V30 7695 C 712.19 -2.57195 -2.51751 0
M  V30 7696 C 711.798 -3.99888 -2.01974 0
M  V30 7697 C 713.542 -2.68272 -3.28984 0
M  V30 7698 C 711.449 -5.02412 -3.11987 0
M  V30 7699 H 710.379 -0.543556 -0.522554 0
M  V30 7700 H 713.03 -1.70294 -0.683538 0
M  V30 7701 H 711.412 -2.26237 -3.25012 0
M  V30 7702 H 712.586 -4.40396 -1.35604 0
M  V30 7703 H 710.901 -3.93019 -1.37568 0
M  V30 7704 H 713.498 -3.42042 -4.10988 0
M  V30 7705 H 713.841 -1.73957 -3.78212 0
M  V30 7706 H 714.374 -2.98622 -2.62812 0
M  V30 7707 H 711.113 -5.98342 -2.67707 0
M  V30 7708 H 710.633 -4.66501 -3.77011 0
M  V30 7709 H 712.312 -5.25939 -3.76825 0
M  V30 7710 N 712.444 0.87505 -1.31075 0
M  V30 7711 C 713.69 1.63006 -1.21657 0
M  V30 7712 C 714.045 1.91088 0.224306 0
M  V30 7713 O 713.338 1.52779 1.15625 0
M  V30 7714 C 713.532 2.96948 -1.98888 0
M  V30 7715 C 713.361 2.81944 -3.50339 0
M  V30 7716 C 712.131 2.814 -4.19693 0
M  V30 7717 C 714.329 2.57171 -4.45385 0
M  V30 7718 N 712.311 2.57392 -5.57335 0
M  V30 7719 C 713.682 2.42379 -5.7066 0
M  V30 7720 C 715.737 2.42474 -4.34868 0
M  V30 7721 C 714.44 2.14385 -6.86609 0
M  V30 7722 C 716.466 2.15868 -5.50595 0
M  V30 7723 C 715.828 2.0186 -6.74857 0
M  V30 7724 H 711.927 0.601043 -0.500271 0
M  V30 7725 H 714.511 1.03033 -1.65204 0
M  V30 7726 H 712.682 3.54936 -1.57718 0
M  V30 7727 H 714.414 3.61702 -1.81531 0
M  V30 7728 H 711.169 2.93596 -3.71616 0
M  V30 7729 H 711.593 2.48373 -6.29794 0
M  V30 7730 H 716.235 2.52035 -3.39468 0
M  V30 7731 H 713.953 2.03562 -7.82041 0
M  V30 7732 H 717.539 2.05304 -5.44372 0
M  V30 7733 H 716.419 1.81562 -7.62892 0
M  V30 7734 N 713.922 1.13953 1.08869 0
M  V30 7735 C 715.199 0.815768 1.77777 0
M  V30 7736 C 715.579 -0.691624 1.99449 0
M  V30 7737 O 714.927 -1.63085 1.60049 0
M  V30 7738 C 715.137 1.60916 3.09689 0
M  V30 7739 C 716.485 1.80549 3.84301 0
M  V30 7740 O 717.509 1.57562 3.19457 0
M  V30 7741 O 716.368 2.18946 5.00724 0
M  V30 7742 H 713.462 0.298445 0.771271 0
M  V30 7743 H 716.008 1.24446 1.15374 0
M  V30 7744 H 714.78 2.6333 2.89435 0
M  V30 7745 H 714.403 1.17578 3.79817 0
M  V30 7746 N 715.4 -1.26948 0.933913 0
M  V30 7747 C 716.646 -1.94374 0.57848 0
M  V30 7748 C 716.979 -1.73166 -0.879048 0
M  V30 7749 O 716.254 -1.06438 -1.62792 0
M  V30 7750 C 716.537 -3.4834 0.912739 0
M  V30 7751 C 716.39 -3.78866 2.42448 0
M  V30 7752 C 717.709 -4.38062 0.423003 0
M  V30 7753 H 714.828 -0.705959 0.211639 0
M  V30 7754 H 717.47 -1.49951 1.16682 0
M  V30 7755 H 715.62 -3.86309 0.412058 0
M  V30 7756 H 717.292 -3.50654 2.99733 0
M  V30 7757 H 715.535 -3.25198 2.87104 0
M  V30 7758 H 716.206 -4.86458 2.60887 0
M  V30 7759 H 718.682 -4.0728 0.852191 0
M  V30 7760 H 717.558 -5.44599 0.685776 0
M  V30 7761 H 717.819 -4.36886 -0.676994 0
M  V30 7762 N 716.879 -0.700114 -1.41195 0
M  V30 7763 C 717.811 0.00155823 -2.292 0
M  V30 7764 C 718.824 0.739736 -1.45023 0
M  V30 7765 O 720.013 0.589684 -1.68478 0
M  V30 7766 C 717.113 1.02635 -3.22985 0
M  V30 7767 C 716.286 0.356871 -4.35942 0
M  V30 7768 C 715.345 1.28491 -5.10271 0
M  V30 7769 O 714.371 0.775562 -5.63892 0
M  V30 7770 N 715.573 2.61699 -5.18164 0
M  V30 7771 H 718.338 -0.754008 -2.9006 0
M  V30 7772 H 715.899 -0.546504 -1.52397 0
M  V30 7773 H 717.891 1.64902 -3.6958 0
M  V30 7774 H 716.461 1.68341 -2.63401 0
M  V30 7775 H 715.681 -0.445753 -3.91672 0
M  V30 7776 H 716.969 -0.108469 -5.08684 0
M  V30 7777 H 716.367 3.05594 -4.76056 0
M  V30 7778 H 714.924 3.19149 -5.6832 0
M  V30 7779 O 718.396 1.50447 -0.587194 0
M  V30 7780 H 719.087 1.93476 -0.0931656 0
M  V30 END ATOM
M  V30 BEGIN BOND
M  V30 END BOND
M  V30 END CTAB
M  END
$$$$
