drugbank_target|Q14353 Guanidinoacetate N-methyltransferase (DB00148; DB00536; DB01752; DB02751; DB13191)
 OpenBabel12092119343D

  0  0  0     0  0            999 V3000
M  V30 BEGIN CTAB
M  V30 COUNTS 3665 3723 0 0 0
M  V30 BEGIN ATOM
M  V30 1 H -0.908 1.98254 -0.117106 0
M  V30 2 N 0 1.576 0 0
M  V30 3 C 0.933 2.03868 1.02534 0
M  V30 4 C 1.911 0.928543 1.3348 0
M  V30 5 O 3.095 1.19667 1.45644 0
M  V30 6 C 0.222 2.43627 2.35294 0
M  V30 7 C -0.732 3.65373 2.2001 0
M  V30 8 S 0.101 5.13292 1.52614 0
M  V30 9 C 1.257 5.56322 2.86805 0
M  V30 10 H 1.49 2.90518 0.631377 0
M  V30 11 H -0.977 1.52953 0.210867 0
M  V30 12 H 0.981 2.67203 3.11629 0
M  V30 13 H -0.358 1.57376 2.7183 0
M  V30 14 H -1.165 3.90944 3.18086 0
M  V30 15 H -1.563 3.418 1.51819 0
M  V30 16 H 0.729 5.58782 3.83104 0
M  V30 17 H 1.672 6.56266 2.65933 0
M  V30 18 H 2.08 4.83886 2.90714 0
M  V30 19 N 1.4781 -0.272755 1.55222 0
M  V30 20 C 2.7031 -1.02683 1.80197 0
M  V30 21 C 3.1281 -1.79142 0.573551 0
M  V30 22 O 2.4861 -1.74917 -0.476849 0
M  V30 23 C 2.5341 -1.9609 3.02624 0
M  V30 24 O 1.6381 -3.04863 2.77727 0
M  V30 25 H 0.9791 -0.293557 0.595584 0
M  V30 26 H 3.5091 -0.30159 2.02365 0
M  V30 27 H 3.5191 -2.38039 3.31363 0
M  V30 28 H 2.1941 -1.39851 3.91682 0
M  V30 29 H 0.7711 -2.67228 2.60084 0
M  V30 30 N 2.9562 -1.48159 -0.537278 0
M  V30 31 C 3.9192 -1.61665 -1.62472 0
M  V30 32 C 4.9192 -0.490395 -1.5314 0
M  V30 33 O 6.1092 -0.755998 -1.5694 0
M  V30 34 C 3.2412 -1.57997 -3.02076 0
M  V30 35 H 4.4342 -2.58621 -1.51839 0
M  V30 36 H 1.9872 -1.36647 -0.758771 0
M  V30 37 H 2.7222 -0.624913 -3.18222 0
M  V30 38 H 2.5072 -2.39755 -3.10258 0
M  V30 39 H 3.9972 -1.70627 -3.81151 0
M  V30 40 N 4.4343 0.785586 -1.36625 0
M  V30 41 C 5.8453 1.36101 -1.27803 0
M  V30 42 C 6.1963 1.96035 0.0804875 0
M  V30 43 O 5.3213 1.92834 0.982042 0
M  V30 44 C 5.9163 2.47442 -2.31426 0
M  V30 45 C 4.4753 3.00789 -2.26281 0
M  V30 46 C 3.6223 1.73896 -2.15999 0
M  V30 47 H 6.5733 0.586928 -1.47448 0
M  V30 48 H 6.5943 3.2656 -1.95291 0
M  V30 49 H 6.1063 2.03791 -3.30289 0
M  V30 50 H 4.2073 3.48851 -1.30896 0
M  V30 51 H 4.3203 3.57343 -3.19128 0
M  V30 52 H 2.6843 1.9628 -1.62316 0
M  V30 53 H 3.4673 1.32368 -3.16755 0
M  V30 54 N 5.9124 1.20967 1.01018 0
M  V30 55 C 7.1374 1.0503 1.78839 0
M  V30 56 C 7.5624 -0.395752 1.8389 0
M  V30 57 O 6.9204 -1.28529 1.27867 0
M  V30 58 C 6.9684 1.64602 3.2084 0
M  V30 59 O 6.0724 0.887988 4.02726 0
M  V30 60 H 5.4134 0.369987 0.551367 0
M  V30 61 H 7.9434 1.60399 1.27018 0
M  V30 62 H 7.9534 1.68607 3.71532 0
M  V30 63 H 6.6284 2.69841 3.16479 0
M  V30 64 H 5.2054 0.922648 3.61305 0
M  V30 65 N 7.3905 -1.2043 1.01659 0
M  V30 66 C 8.3535 -2.21433 0.591616 0
M  V30 67 C 9.3535 -1.57203 -0.338226 0
M  V30 68 O 10.5435 -1.73737 -0.126918 0
M  V30 69 C 7.6755 -3.40628 -0.136058 0
M  V30 70 H 8.8685 -2.60545 1.48514 0
M  V30 71 H 6.4215 -1.33893 0.806379 0
M  V30 72 H 7.1565 -3.07019 -1.04449 0
M  V30 73 H 6.9415 -3.88475 0.531917 0
M  V30 74 H 8.4315 -4.15475 -0.420735 0
M  V30 75 N 8.8686 -0.792821 -1.36206 0
M  V30 76 C 10.0966 -0.378825 -2.03402 0
M  V30 77 C 10.5116 1.00586 -1.59774 0
M  V30 78 O 9.8686 1.64574 -0.788764 0
M  V30 79 C 9.9196 -0.43683 -3.58851 0
M  V30 80 O 9.6406 -1.76691 -4.00889 0
M  V30 81 C 11.1416 -0.0138943 -4.43298 0
M  V30 82 H 8.3616 -0.155673 -0.652692 0
M  V30 83 H 10.9056 -1.07261 -1.74113 0
M  V30 84 H 9.0606 0.208575 -3.86838 0
M  V30 85 H 9.4746 -1.72011 -4.95492 0
M  V30 86 H 10.9486 -0.105615 -5.51899 0
M  V30 87 H 11.4256 1.03915 -4.2673 0
M  V30 88 H 12.0316 -0.63192 -4.20579 0
M  V30 89 N 10.3467 1.47872 -0.545128 0
M  V30 90 C 11.7577 1.86384 -0.108581 0
M  V30 91 C 12.1087 1.45309 1.31832 0
M  V30 92 O 11.2337 0.850641 1.9898 0
M  V30 93 C 11.8287 3.38265 -0.190274 0
M  V30 94 C 10.3877 3.75914 0.191164 0
M  V30 95 C 9.5347 2.71926 -0.543273 0
M  V30 96 H 12.4857 1.39561 -0.755537 0
M  V30 97 H 12.5067 3.75831 0.594217 0
M  V30 98 H 12.0187 3.6813 -1.2289 0
M  V30 99 H 10.1197 3.51665 1.23136 0
M  V30 100 H 10.2327 4.78836 -0.158987 0
M  V30 101 H 8.5967 2.54697 0.0122495 0
M  V30 102 H 9.3797 3.04634 -1.58282 0
M  V30 103 N 11.8248 0.280983 1.55075 0
M  V30 104 C 13.0738 -0.334784 1.98902 0
M  V30 105 C 13.3868 -1.56534 1.17288 0
M  V30 106 O 14.5928 -2.25443 1.51287 0
M  V30 107 C 13.0488 -0.646994 3.54037 0
M  V30 108 C 12.6568 0.564085 4.44435 0
M  V30 109 C 14.4008 -1.22506 4.06439 0
M  V30 110 C 12.3078 0.226137 5.90967 0
M  V30 111 H 11.2378 -0.128866 0.742906 0
M  V30 112 H 13.8888 0.386556 1.79382 0
M  V30 113 H 12.2708 -1.42739 3.6938 0
M  V30 114 H 13.4448 1.34082 4.40861 0
M  V30 115 H 11.7598 1.0594 4.02698 0
M  V30 116 H 14.3568 -1.49182 5.13468 0
M  V30 117 H 14.6998 -2.16085 3.55827 0
M  V30 118 H 15.2328 -0.50682 3.94558 0
M  V30 119 H 11.9718 1.12996 6.45687 0
M  V30 120 H 11.4918 -0.513717 5.97596 0
M  V30 121 H 13.1708 -0.179539 6.46751 0
M  V30 122 N 13.3029 -1.57598 0.00835791 0
M  V30 123 C 14.5499 -1.90928 -0.674732 0
M  V30 124 C 14.8779 -0.88277 -1.73313 0
M  V30 125 O 14.1329 0.111294 -1.95383 0
M  V30 126 C 14.4319 -3.3101 -1.34787 0
M  V30 127 C 14.0979 -4.48922 -0.421861 0
M  V30 128 C 12.7599 -4.8091 -0.166927 0
M  V30 129 C 15.1119 -5.20755 0.215211 0
M  V30 130 C 12.4399 -5.821 0.733232 0
M  V30 131 C 14.7919 -6.22905 1.1033 0
M  V30 132 C 13.4559 -6.53346 1.36733 0
M  V30 133 H 12.7259 -0.698656 -0.246902 0
M  V30 134 H 15.3729 -1.91387 0.0656779 0
M  V30 135 H 13.6779 -3.26714 -2.16253 0
M  V30 136 H 15.3749 -3.54061 -1.8826 0
M  V30 137 H 11.9649 -4.23934 -0.630729 0
M  V30 138 H 16.1489 -4.9629 0.0312829 0
M  V30 139 H 11.4049 -6.04042 0.945712 0
M  V30 140 H 15.5789 -6.77694 1.60325 0
M  V30 141 H 13.2059 -7.31573 2.06652 0
M  V30 142 N 14.781 0.264519 -1.55364 0
M  V30 143 C 15.744 1.31046 -1.88042 0
M  V30 144 C 16.744 1.41943 -0.755569 0
M  V30 145 O 17.934 1.40947 -1.02369 0
M  V30 146 C 15.066 2.69067 -2.09323 0
M  V30 147 H 16.259 1.03297 -2.81549 0
M  V30 148 H 13.812 0.502989 -1.47986 0
M  V30 149 H 14.547 3.01982 -1.18226 0
M  V30 150 H 14.332 2.62542 -2.91229 0
M  V30 151 H 15.822 3.44623 -2.35848 0
M  V30 152 N 16.2591 1.48442 0.529413 0
M  V30 153 C 17.6701 1.5002 1.11134 0
M  V30 154 C 18.0211 0.27031 1.94329 0
M  V30 155 O 17.1461 -0.622507 2.07253 0
M  V30 156 C 17.7411 2.71834 2.02217 0
M  V30 157 C 16.3001 2.76283 2.55627 0
M  V30 158 C 15.4471 2.43542 1.326 0
M  V30 159 H 18.3981 1.5555 0.314641 0
M  V30 160 H 18.4191 2.50384 2.8651 0
M  V30 161 H 17.9311 3.61331 1.41639 0
M  V30 162 H 16.0321 1.90995 3.19924 0
M  V30 163 H 16.1451 3.77725 2.94721 0
M  V30 164 H 14.5091 1.94709 1.64196 0
M  V30 165 H 15.2921 3.3528 0.737734 0
M  V30 166 N 17.7372 -0.778329 1.37039 0
M  V30 167 C 18.9852 -1.53361 1.31623 0
M  V30 168 C 19.3062 -1.94739 -0.100831 0
M  V30 169 O 18.5762 -1.65797 -1.04347 0
M  V30 170 H 17.1562 -0.568794 0.484234 0
M  V30 171 H 19.8182 -0.926742 1.71457 0
M  V30 172 H 18.9142 -2.43606 1.95096 0
M  V30 173 N 19.2153 -1.21501 -1.00376 0
M  V30 174 C 20.1253 -0.991447 -2.12621 0
M  V30 175 C 21.1413 0.0568446 -1.73907 0
M  V30 176 O 22.3173 -0.13348 -2.00957 0
M  V30 177 C 19.3823 -0.560312 -3.42142 0
M  V30 178 C 18.4433 -1.68096 -3.95022 0
M  V30 179 C 17.6763 -1.2703 -5.18362 0
M  V30 180 O 17.8993 -0.144438 -5.70217 0
M  V30 181 O 16.8333 -2.08269 -5.64719 0
M  V30 182 H 20.6593 -1.93158 -2.34358 0
M  V30 183 H 18.2443 -0.999999 -1.10997 0
M  V30 184 H 20.1263 -0.329724 -4.20108 0
M  V30 185 H 18.8013 0.351089 -3.2179 0
M  V30 186 H 17.7083 -1.96597 -3.18278 0
M  V30 187 H 19.0413 -2.56983 -4.19786 0
M  V30 188 N 20.6934 1.19889 -1.02296 0
M  V30 189 C 21.6414 2.24938 -0.592081 0
M  V30 190 C 22.6354 1.65257 0.372357 0
M  V30 191 O 23.8414 1.78371 0.241583 0
M  V30 192 H 20.2164 0.731787 -0.173182 0
M  V30 193 H 22.1874 2.58603 -1.48885 0
M  V30 194 C 20.9364 3.47668 0.047351 0
M  V30 195 H 20.2594 3.93875 -0.685772 0
M  V30 196 H 21.6994 4.22852 0.311862 0
M  V30 197 C 20.1584 3.11136 1.29212 0
M  V30 198 O 20.6884 3.2325 2.38479 0
M  V30 199 N 18.8944 2.65625 1.17863 0
M  V30 200 H 18.4414 2.55968 0.289493 0
M  V30 201 H 18.3994 2.41553 2.01245 0
M  V30 202 N 22.1715 0.800033 1.35784 0
M  V30 203 C 23.4115 0.382891 2.00782 0
M  V30 204 C 23.7755 -1.02891 1.62103 0
M  V30 205 O 24.9765 -1.54771 2.19771 0
M  V30 206 C 23.2475 0.553299 3.53091 0
M  V30 207 S 24.8065 0.225608 4.3822 0
M  V30 208 H 21.6245 0.145737 0.695904 0
M  V30 209 H 24.2265 1.04085 1.65489 0
M  V30 210 H 22.9305 1.58091 3.78729 0
M  V30 211 H 22.4615 -0.120214 3.93216 0
M  V30 212 H 24.4765 -0.969074 4.86645 0
M  V30 213 N 23.6496 -1.47581 0.552962 0
M  V30 214 C 24.8746 -2.07378 0.0300593 0
M  V30 215 C 25.2996 -1.40355 -1.25229 0
M  V30 216 O 24.6576 -0.477099 -1.7491 0
M  V30 217 C 24.7056 -3.60274 -0.153231 0
M  V30 218 O 23.8096 -3.94041 -1.21678 0
M  V30 219 H 23.1506 -0.662158 0.0494182 0
M  V30 220 H 25.6806 -1.89662 0.767434 0
M  V30 221 H 25.6906 -4.0633 -0.368761 0
M  V30 222 H 24.3656 -4.08455 0.783397 0
M  V30 223 H 22.9426 -3.59735 -0.982079 0
M  V30 224 N 25.1277 -0.289203 -1.54924 0
M  V30 225 C 26.5387 0.205791 -1.85562 0
M  V30 226 C 26.8897 1.54351 -1.2112 0
M  V30 227 O 26.0147 2.10435 -0.504601 0
M  V30 228 C 26.6097 0.380177 -3.3666 0
M  V30 229 C 25.1687 0.819395 -3.67373 0
M  V30 230 C 24.3157 -0.079159 -2.77187 0
M  V30 231 H 27.2667 -0.510577 -1.50262 0
M  V30 232 H 27.2877 1.21659 -3.60526 0
M  V30 233 H 26.7997 -0.593589 -3.83534 0
M  V30 234 H 24.9007 1.80413 -3.26009 0
M  V30 235 H 25.0137 0.646957 -4.74712 0
M  V30 236 H 23.3777 0.439565 -2.50878 0
M  V30 237 H 24.1607 -1.04906 -3.26878 0
M  V30 238 N 26.6058 1.57591 -0.0167156 0
M  V30 239 C 27.5688 2.08393 0.954204 0
M  V30 240 C 28.5688 0.996531 1.26198 0
M  V30 241 O 29.7588 1.25858 1.20438 0
M  V30 242 C 26.8908 2.5394 2.27436 0
M  V30 243 H 28.0838 2.95455 0.514451 0
M  V30 244 H 25.6368 1.54582 0.231089 0
M  V30 245 H 26.3718 1.70171 2.76066 0
M  V30 246 H 26.1568 3.33371 2.06412 0
M  V30 247 H 27.6468 2.93512 2.97053 0
M  V30 248 N 28.0839 -0.256276 1.55502 0
M  V30 249 C 29.3299 -0.982884 1.78076 0
M  V30 250 C 29.6849 -1.83319 0.584109 0
M  V30 251 O 28.9779 -1.86875 -0.422877 0
M  V30 252 C 29.1719 -1.88432 3.03691 0
M  V30 253 C 29.0009 -1.12276 4.35459 0
M  V30 254 C 27.7709 -0.831647 4.98409 0
M  V30 255 C 29.9689 -0.504933 5.11815 0
M  V30 256 N 27.9509 -0.0450423 6.13883 0
M  V30 257 C 29.3219 0.146696 6.19826 0
M  V30 258 C 31.3769 -0.414455 4.96172 0
M  V30 259 C 30.0799 0.880103 7.13895 0
M  V30 260 C 32.1059 0.305398 5.90611 0
M  V30 261 C 31.4679 0.945701 6.98023 0
M  V30 262 H 27.5669 -0.341084 0.703694 0
M  V30 263 H 30.1509 -0.256909 1.92998 0
M  V30 264 H 28.3219 -2.58241 2.90114 0
M  V30 265 H 30.0539 -2.54579 3.14598 0
M  V30 266 H 26.8089 -1.14111 4.59647 0
M  V30 267 H 27.2329 0.336079 6.76165 0
M  V30 268 H 31.8749 -0.895163 4.13215 0
M  V30 269 H 29.5929 1.37244 7.9636 0
M  V30 270 H 33.1789 0.375946 5.80584 0
M  V30 271 H 32.0589 1.49383 7.6984 0
M  V30 272 N 29.562 -1.4872 -0.521534 0
M  V30 273 C 30.81 -1.56857 -1.27437 0
M  V30 274 C 31.131 -0.247982 -1.93417 0
M  V30 275 O 30.401 0.731151 -1.81744 0
M  V30 276 H 28.981 -0.577885 -0.473347 0
M  V30 277 H 31.643 -1.85233 -0.606205 0
M  V30 278 H 30.739 -2.35402 -2.0492 0
M  V30 279 N 31.0401 0.771051 -1.3745 0
M  V30 280 C 32.0031 1.86598 -1.33093 0
M  V30 281 C 33.0031 1.59076 -0.234845 0
M  V30 282 O 34.1931 1.67145 -0.490732 0
M  V30 283 C 31.3251 3.23747 -1.06773 0
M  V30 284 H 32.5181 1.91873 -2.30488 0
M  V30 285 H 30.0711 0.970876 -1.2249 0
M  V30 286 H 30.8061 3.24148 -0.099129 0
M  V30 287 H 30.5911 3.45115 -1.86112 0
M  V30 288 H 32.0811 4.03824 -1.06377 0
M  V30 289 N 32.5182 1.22032 0.997298 0
M  V30 290 C 33.4812 0.987909 2.06816 0
M  V30 291 C 34.4812 -0.0440084 1.6074 0
M  V30 292 O 35.6712 0.194053 1.73116 0
M  V30 293 C 32.8032 0.49132 3.37341 0
M  V30 294 H 33.9962 1.93803 2.28868 0
M  V30 295 H 31.5492 1.03838 1.16822 0
M  V30 296 H 32.2842 -0.463364 3.20973 0
M  V30 297 H 32.0692 1.23575 3.72118 0
M  V30 298 H 33.5592 0.348824 4.16141 0
M  V30 299 N 33.9963 -1.19345 1.0293 0
M  V30 300 C 35.4073 -1.70725 0.755633 0
M  V30 301 C 35.7583 -1.82326 -0.724676 0
M  V30 302 O 34.8833 -1.49471 -1.56484 0
M  V30 303 C 35.4783 -3.10084 1.36503 0
M  V30 304 C 34.0373 -3.58723 1.13994 0
M  V30 305 C 33.1843 -2.35577 1.46283 0
M  V30 306 H 36.1353 -1.0418 1.19718 0
M  V30 307 H 36.1563 -3.72787 0.762217 0
M  V30 308 H 35.6683 -3.01609 2.44241 0
M  V30 309 H 33.7693 -3.72512 0.0807901 0
M  V30 310 H 33.8823 -4.42816 1.82894 0
M  V30 311 H 32.2463 -2.38935 0.88217 0
M  V30 312 H 33.0293 -2.29731 2.55105 0
M  V30 313 N 35.4744 -0.807222 -1.35358 0
M  V30 314 C 36.4374 -0.223665 -2.28106 0
M  V30 315 C 37.4374 0.589354 -1.4961 0
M  V30 316 O 38.6274 0.407745 -1.69361 0
M  V30 317 C 35.7594 0.688149 -3.33882 0
M  V30 318 H 36.9524 -1.04169 -2.81227 0
M  V30 319 H 34.5054 -0.577921 -1.45223 0
M  V30 320 H 35.2404 1.52984 -2.85948 0
M  V30 321 H 35.0254 0.10687 -3.91954 0
M  V30 322 H 36.5154 1.09075 -4.03104 0
M  V30 323 N 36.9525 1.47285 -0.560781 0
M  V30 324 C 37.9155 2.28535 0.174488 0
M  V30 325 C 38.9155 1.37153 0.839388 0
M  V30 326 O 40.1055 1.59748 0.694702 0
M  V30 327 C 37.2375 3.16934 1.25561 0
M  V30 328 H 38.4305 2.95012 -0.539262 0
M  V30 329 H 35.9835 1.53034 -0.317865 0
M  V30 330 H 36.7185 2.55157 2.00164 0
M  V30 331 H 36.5035 3.8419 0.783604 0
M  V30 332 H 37.9935 3.78143 1.77193 0
M  V30 333 N 38.4306 0.297415 1.54768 0
M  V30 334 C 39.6606 -0.315165 2.04182 0
M  V30 335 C 40.0686 -1.4834 1.17439 0
M  V30 336 O 39.4116 -1.82695 0.191891 0
M  V30 337 C 39.4736 -0.837583 3.49607 0
M  V30 338 C 39.1376 0.204912 4.5654 0
M  V30 339 C 40.1346 1.03214 5.09552 0
M  V30 340 C 37.8196 0.345578 5.0111 0
M  V30 341 C 39.8136 1.986 6.05671 0
M  V30 342 C 37.5006 1.30289 5.97049 0
M  V30 343 C 38.4986 2.12159 6.49213 0
M  V30 344 O 38.1866 3.06268 7.43273 0
M  V30 345 H 37.9186 -0.0729646 0.672051 0
M  V30 346 H 40.4726 0.433907 2.00765 0
M  V30 347 H 38.7026 -1.63712 3.50336 0
M  V30 348 H 40.3916 -1.36566 3.82236 0
M  V30 349 H 41.1576 0.934312 4.75916 0
M  V30 350 H 37.0366 -0.28171 4.60138 0
M  V30 351 H 40.5806 2.62542 6.46311 0
M  V30 352 H 36.4776 1.40145 6.30103 0
M  V30 353 H 37.2456 3.01205 7.61064 0
M  V30 354 N 39.9087 -1.5758 0.0250728 0
M  V30 355 C 41.1857 -1.82917 -0.692873 0
M  V30 356 C 41.5657 -0.908137 -1.90568 0
M  V30 357 O 40.9137 0.0372298 -2.2847 0
M  V30 358 C 41.1237 -3.32034 -1.07492 0
M  V30 359 C 42.4717 -3.98406 -1.46826 0
M  V30 360 O 43.4957 -3.36505 -1.16801 0
M  V30 361 O 42.3547 -5.07497 -2.02754 0
M  V30 362 H 39.4487 -0.754079 -0.33955 0
M  V30 363 H 41.9947 -1.69619 0.0524456 0
M  V30 364 H 40.7667 -3.90728 -0.211552 0
M  V30 365 H 40.3897 -3.50424 -1.87854 0
M  V30 366 N 41.3868 0.248026 -1.55636 0
M  V30 367 C 42.3498 1.29044 -1.89421 0
M  V30 368 C 43.3498 1.41134 -0.770581 0
M  V30 369 O 44.5398 1.39854 -1.03858 0
M  V30 370 C 41.6718 2.66831 -2.12165 0
M  V30 371 H 42.8648 1.00305 -2.82629 0
M  V30 372 H 40.4178 0.487265 -1.48511 0
M  V30 373 H 41.1528 3.00711 -1.21422 0
M  V30 374 H 40.9378 2.59438 -2.93997 0
M  V30 375 H 42.4278 3.42103 -2.3949 0
M  V30 376 N 42.8649 1.48995 0.513639 0
M  V30 377 C 43.8279 1.64229 1.59879 0
M  V30 378 C 44.8279 0.514696 1.5234 0
M  V30 379 O 46.0179 0.78087 1.55718 0
M  V30 380 C 43.1499 1.62783 2.99524 0
M  V30 381 H 44.3429 2.61004 1.47705 0
M  V30 382 H 41.8959 1.37837 0.736936 0
M  V30 383 H 42.6309 0.675461 3.17188 0
M  V30 384 H 42.4159 2.4466 3.06404 0
M  V30 385 H 43.9059 1.76669 3.78388 0
M  V30 386 N 44.343 -0.763751 1.37857 0
M  V30 387 C 45.62 -1.51244 1.24035 0
M  V30 388 C 46 -2.10472 -0.162649 0
M  V30 389 O 45.348 -1.96206 -1.17112 0
M  V30 390 C 45.558 -2.58694 2.34261 0
M  V30 391 C 46.906 -3.25878 2.72193 0
M  V30 392 O 47.93 -2.68993 2.33497 0
M  V30 393 O 46.789 -4.2874 3.38887 0
M  V30 394 H 43.883 -0.670243 0.484462 0
M  V30 395 H 46.429 -0.800031 1.49658 0
M  V30 396 H 45.201 -2.13105 3.2818 0
M  V30 397 H 44.824 -3.37527 2.10146 0
M  V30 398 N 45.8211 -1.22559 -0.990812 0
M  V30 399 C 47.0491 -1.07779 -1.76611 0
M  V30 400 C 47.4641 0.371513 -1.85109 0
M  V30 401 O 46.8211 1.25737 -1.32274 0
M  V30 402 C 46.8721 -1.68512 -3.19822 0
M  V30 403 O 46.5931 -3.07774 -3.1178 0
M  V30 404 C 48.0941 -1.59035 -4.13791 0
M  V30 405 H 45.3141 -0.377729 -0.554583 0
M  V30 406 H 47.8581 -1.62195 -1.24551 0
M  V30 407 H 46.0131 -1.18154 -3.68942 0
M  V30 408 H 46.4271 -3.37062 -4.01858 0
M  V30 409 H 47.9011 -2.0625 -5.1202 0
M  V30 410 H 48.3781 -0.547273 -4.35777 0
M  V30 411 H 48.9841 -2.08709 -3.70568 0
M  V30 412 N 47.2992 1.18797 -1.03562 0
M  V30 413 C 48.2492 2.20161 -0.592724 0
M  V30 414 C 49.2332 1.56772 0.362133 0
M  V30 415 O 50.4252 1.76062 0.182009 0
M  V30 416 C 47.5542 3.43266 0.0481024 0
M  V30 417 C 46.6402 4.13786 -0.9296 0
M  V30 418 N 47.0312 4.60388 -2.09467 0
M  V30 419 C 45.3292 4.39572 -0.754499 0
M  V30 420 C 46.0302 5.14619 -2.71187 0
M  V30 421 N 45.0062 5.05826 -1.991 0
M  V30 422 H 48.8082 2.53877 -1.48066 0
M  V30 423 H 46.3222 1.34946 -0.903514 0
M  V30 424 H 48.3192 4.15136 0.383058 0
M  V30 425 H 46.9792 3.11048 0.931636 0
M  V30 426 H 47.9902 4.54999 -2.47379 0
M  V30 427 H 44.6672 4.17425 0.0793713 0
M  V30 428 H 46.0572 5.60917 -3.69895 0
M  V30 429 N 48.7773 0.814389 1.34928 0
M  V30 430 C 49.7073 0.244827 2.32213 0
M  V30 431 C 50.6883 -0.634024 1.57842 0
M  V30 432 O 51.8733 -0.562676 1.8587 0
M  V30 433 C 49.0033 -0.601106 3.42058 0
M  V30 434 C 47.9573 0.179896 4.27622 0
M  V30 435 C 47.2833 -0.788237 5.28858 0
M  V30 436 C 48.5833 1.38329 5.03649 0
M  V30 437 H 50.2773 1.05763 2.80097 0
M  V30 438 H 47.8233 0.510029 1.34665 0
M  V30 439 H 49.7763 -1.00968 4.09125 0
M  V30 440 H 48.5003 -1.44688 2.92802 0
M  V30 441 H 47.1593 0.569739 3.62146 0
M  V30 442 H 46.8073 -1.62973 4.75866 0
M  V30 443 H 46.5073 -0.269942 5.8698 0
M  V30 444 H 48.0313 -1.19485 5.98795 0
M  V30 445 H 49.4453 1.04918 5.63618 0
M  V30 446 H 47.8423 1.83662 5.71304 0
M  V30 447 H 48.9123 2.16592 4.33839 0
M  V30 448 N 50.2554 -1.46986 0.568584 0
M  V30 449 C 51.6714 -1.57946 0.229189 0
M  V30 450 C 51.8714 -1.56567 -1.26843 0
M  V30 451 O 50.9274 -1.47511 -2.04931 0
M  V30 452 C 52.2404 -2.87963 0.865909 0
M  V30 453 C 53.7884 -3.01568 0.838188 0
M  V30 454 C 54.2634 -4.34301 1.45419 0
M  V30 455 N 55.7544 -4.40965 1.41788 0
M  V30 456 C 56.4894 -5.42256 1.86403 0
M  V30 457 N 55.9854 -6.50297 2.38926 0
M  V30 458 N 57.7784 -5.3337 1.77405 0
M  V30 459 H 49.9294 -1.46126 1.54146 0
M  V30 460 H 52.1924 -0.696156 0.643484 0
M  V30 461 H 51.8984 -2.94742 1.91886 0
M  V30 462 H 51.7724 -3.75423 0.365687 0
M  V30 463 H 54.1594 -2.94379 -0.206106 0
M  V30 464 H 54.2404 -2.1562 1.37629 0
M  V30 465 H 53.8844 -4.42247 2.49761 0
M  V30 466 H 53.8144 -5.19 0.891435 0
M  V30 467 H 56.3054 -3.63484 1.03381 0
M  V30 468 H 56.6184 -7.23777 2.70863 0
M  V30 469 H 54.9634 -6.51155 2.42944 0
M  V30 470 H 58.1544 -4.47865 1.3614 0
M  V30 471 H 58.3274 -6.12169 2.12492 0
M  V30 472 N 51.7335 -0.305618 -1.54608 0
M  V30 473 C 52.9825 0.303098 -1.9941 0
M  V30 474 C 53.2955 1.54648 -1.19764 0
M  V30 475 O 54.5015 2.23007 -1.54855 0
M  V30 476 C 52.9575 0.590588 -3.55021 0
M  V30 477 C 52.5655 -0.634719 -4.43481 0
M  V30 478 C 54.3095 1.16025 -4.08336 0
M  V30 479 C 52.2165 -0.320126 -5.90533 0
M  V30 480 H 51.1465 0.117031 -0.744862 0
M  V30 481 H 53.7975 -0.415045 -1.78745 0
M  V30 482 H 52.1795 1.36845 -3.71604 0
M  V30 483 H 53.3535 -1.41079 -4.38672 0
M  V30 484 H 51.6685 -1.12333 -4.00962 0
M  V30 485 H 54.2655 1.40994 -5.15776 0
M  V30 486 H 54.6085 2.10397 -3.5922 0
M  V30 487 H 55.1415 0.443985 -3.95315 0
M  V30 488 H 51.8805 -1.23254 -6.43808 0
M  V30 489 H 51.4005 0.418579 -5.98338 0
M  V30 490 H 53.0795 0.0766241 -6.46955 0
M  V30 491 N 53.2116 1.57565 -0.0334293 0
M  V30 492 C 54.1416 2.13511 0.945265 0
M  V30 493 C 55.1226 1.05231 1.33643 0
M  V30 494 O 56.3076 1.33084 1.41429 0
M  V30 495 C 53.4376 2.6657 2.22616 0
M  V30 496 C 52.3916 3.79676 1.97561 0
M  V30 497 C 51.7176 4.1918 3.31952 0
M  V30 498 C 53.0176 5.0557 1.31135 0
M  V30 499 H 54.7116 2.95538 0.479325 0
M  V30 500 H 52.2576 1.42166 0.229115 0
M  V30 501 H 54.2106 3.04344 2.91466 0
M  V30 502 H 52.9346 1.8171 2.71384 0
M  V30 503 H 51.5936 3.42347 1.31127 0
M  V30 504 H 51.2416 3.31296 3.78487 0
M  V30 505 H 50.9416 4.95402 3.15992 0
M  V30 506 H 52.4656 4.59541 4.02063 0
M  V30 507 H 53.8796 5.40903 1.89992 0
M  V30 508 H 52.2766 5.86818 1.25559 0
M  V30 509 H 53.3466 4.84062 0.284894 0
M  V30 510 N 54.6897 -0.239769 1.55765 0
M  V30 511 C 55.9377 -0.964892 1.77579 0
M  V30 512 C 56.2587 -1.85582 0.598699 0
M  V30 513 O 55.5287 -1.92075 -0.385226 0
M  V30 514 H 54.1087 -0.359265 0.654933 0
M  V30 515 H 56.7707 -0.256001 1.93211 0
M  V30 516 H 55.8667 -1.58243 2.69009 0
M  V30 517 N 56.1678 -1.49265 -0.50573 0
M  V30 518 C 57.1148 -1.65585 -1.6078 0
M  V30 519 C 58.0848 -0.497396 -1.58478 0
M  V30 520 O 59.2698 -0.72385 -1.76536 0
M  V30 521 C 56.4098 -1.72408 -2.98948 0
M  V30 522 C 55.5228 -2.99525 -3.11301 0
M  V30 523 C 54.6578 -2.97356 -4.40174 0
M  V30 524 C 53.6968 -4.19074 -4.46143 0
M  V30 525 N 52.8338 -4.14841 -5.66437 0
M  V30 526 H 57.6738 -2.59688 -1.46172 0
M  V30 527 H 55.2108 -1.28761 -0.711261 0
M  V30 528 H 57.1688 -1.74344 -3.79025 0
M  V30 529 H 55.7988 -0.817753 -3.1227 0
M  V30 530 H 54.8508 -3.07222 -2.24318 0
M  V30 531 H 56.1628 -3.89518 -3.11572 0
M  V30 532 H 55.3168 -2.97829 -5.28567 0
M  V30 533 H 54.0558 -2.05133 -4.42461 0
M  V30 534 H 53.0608 -4.1885 -3.56153 0
M  V30 535 H 54.2858 -5.12483 -4.45575 0
M  V30 536 H 52.2318 -3.25453 -5.69575 0
M  V30 537 H 52.1488 -4.98564 -5.68304 0
M  V30 538 H 53.4168 -4.1941 -6.57051 0
M  V30 539 N 57.6459 0.756429 -1.3826 0
M  V30 540 C 59.0569 1.33359 -1.30661 0
M  V30 541 C 59.4079 1.96161 0.0388875 0
M  V30 542 O 58.5329 1.94874 0.940918 0
M  V30 543 C 59.1279 2.42477 -2.36622 0
M  V30 544 C 57.6869 2.95922 -2.3261 0
M  V30 545 C 56.8339 1.69275 -2.19639 0
M  V30 546 H 59.7849 0.55552 -1.4866 0
M  V30 547 H 59.8059 3.22345 -2.02174 0
M  V30 548 H 59.3179 1.96739 -3.34538 0
M  V30 549 H 57.4189 3.45996 -1.38267 0
M  V30 550 H 57.5319 3.50494 -3.26636 0
M  V30 551 H 55.8959 1.92793 -1.66442 0
M  V30 552 H 56.6789 1.25619 -3.19491 0
M  V30 553 N 59.124 1.23083 0.984299 0
M  V30 554 C 60.37 1.06214 1.72761 0
M  V30 555 C 60.703 -0.400584 1.90024 0
M  V30 556 O 59.978 -1.29672 1.44967 0
M  V30 557 C 60.261 1.78375 3.12817 0
M  V30 558 C 60.114 3.32296 3.03149 0
M  V30 559 C 61.433 1.54309 4.12161 0
M  V30 560 H 58.552 0.387251 0.627061 0
M  V30 561 H 61.194 1.51536 1.14616 0
M  V30 562 H 59.344 1.39848 3.62457 0
M  V30 563 H 61.016 3.8032 2.61064 0
M  V30 564 H 59.259 3.6153 2.39747 0
M  V30 565 H 59.93 3.77972 4.02295 0
M  V30 566 H 62.406 1.87791 3.71314 0
M  V30 567 H 61.282 2.07281 5.08258 0
M  V30 568 H 61.543 0.477572 4.39513 0
M  V30 569 N 60.6021 -1.18246 1.0419 0
M  V30 570 C 61.5351 -2.20746 0.578474 0
M  V30 571 C 62.5131 -1.57912 -0.387624 0
M  V30 572 O 63.6971 -1.86071 -0.301634 0
M  V30 573 C 60.8241 -3.38346 -0.154762 0
M  V30 574 C 59.8701 -4.19587 0.764782 0
M  V30 575 S 60.7031 -4.86014 2.24835 0
M  V30 576 C 61.8591 -6.07012 1.526 0
M  V30 577 H 62.0921 -2.59715 1.44691 0
M  V30 578 H 59.6251 -1.287 0.85297 0
M  V30 579 H 61.5831 -4.065 -0.571641 0
M  V30 580 H 60.2441 -2.97786 -0.999105 0
M  V30 581 H 59.4371 -5.03611 0.197976 0
M  V30 582 H 59.0391 -3.56818 1.12057 0
M  V30 583 H 61.3311 -6.72523 0.819733 0
M  V30 584 H 62.2741 -6.68202 2.34333 0
M  V30 585 H 62.6821 -5.55249 1.01779 0
M  V30 586 N 62.0802 -0.821533 -1.34494 0
M  V30 587 C 62.9902 -0.244355 -2.33324 0
M  V30 588 C 64.0062 0.620527 -1.62559 0
M  V30 589 O 65.1822 0.528754 -1.94335 0
M  V30 590 C 62.2472 0.585368 -3.41723 0
M  V30 591 C 61.3082 -0.301752 -4.28238 0
M  V30 592 C 60.5412 0.488466 -5.3146 0
M  V30 593 O 60.7642 1.72186 -5.4379 0
M  V30 594 O 59.6982 -0.12848 -6.01763 0
M  V30 595 H 63.5242 -1.06231 -2.84515 0
M  V30 596 H 61.1092 -0.583645 -1.37528 0
M  V30 597 H 62.9912 1.05747 -4.07916 0
M  V30 598 H 61.6662 1.38068 -2.92778 0
M  V30 599 H 60.5732 -0.821315 -3.64973 0
M  V30 600 H 61.9062 -1.06138 -4.8062 0
M  V30 601 N 63.5583 1.46682 -0.576371 0
M  V30 602 C 64.9743 1.57822 -0.237562 0
M  V30 603 C 65.1743 1.57237 1.26011 0
M  V30 604 O 64.2303 1.48596 2.04146 0
M  V30 605 C 65.5433 2.87499 -0.881168 0
M  V30 606 C 67.0913 3.01119 -0.85417 0
M  V30 607 C 67.5663 4.33524 -1.4772 0
M  V30 608 N 69.0573 4.40207 -1.44125 0
M  V30 609 C 69.7923 5.4126 -1.89276 0
M  V30 610 N 69.2883 6.49021 -2.42371 0
M  V30 611 N 71.0813 5.32422 -1.80231 0
M  V30 612 H 63.2323 1.45306 -1.54919 0
M  V30 613 H 65.4953 0.692733 -0.647167 0
M  V30 614 H 65.2013 2.9372 -1.93447 0
M  V30 615 H 65.0753 3.75224 -0.385592 0
M  V30 616 H 67.4623 2.94485 0.190491 0
M  V30 617 H 67.5433 2.14887 -1.3877 0
M  V30 618 H 67.1873 4.40916 -2.52103 0
M  V30 619 H 67.1173 5.1852 -0.918947 0
M  V30 620 H 69.6083 3.62931 -1.05307 0
M  V30 621 H 69.9213 7.2233 -2.74698 0
M  V30 622 H 68.2663 6.49858 -2.46393 0
M  V30 623 H 71.4573 4.47137 -1.38514 0
M  V30 624 H 71.6303 6.11034 -2.15735 0
M  V30 625 N 65.0364 0.313813 1.54444 0
M  V30 626 C 66.2824 -0.284918 2.01395 0
M  V30 627 C 66.6374 -1.50537 1.19818 0
M  V30 628 O 65.9304 -1.89692 0.269748 0
M  V30 629 C 66.1244 -0.680386 3.50864 0
M  V30 630 C 65.9534 0.500198 4.4691 0
M  V30 631 C 64.7234 0.996248 4.95382 0
M  V30 632 C 66.9214 1.34928 4.96285 0
M  V30 633 N 64.9034 2.14226 5.75309 0
M  V30 634 C 66.2744 2.3426 5.7404 0
M  V30 635 C 68.3294 1.37818 4.78446 0
M  V30 636 C 67.0324 3.36272 6.35856 0
M  V30 637 C 69.0584 2.38695 5.4109 0
M  V30 638 C 68.4204 3.36755 6.18688 0
M  V30 639 H 64.5194 -0.0683689 0.779006 0
M  V30 640 H 67.1034 0.44664 1.89508 0
M  V30 641 H 65.2744 -1.38109 3.63016 0
M  V30 642 H 67.0064 -1.25975 3.84594 0
M  V30 643 H 63.7614 0.56912 4.70168 0
M  V30 644 H 64.1854 2.72005 6.19953 0
M  V30 645 H 68.8274 0.633747 4.18023 0
M  V30 646 H 66.5454 4.11627 6.95405 0
M  V30 647 H 70.1314 2.41721 5.29209 0
M  V30 648 H 69.0114 4.13535 6.66302 0
M  V30 649 N 66.5145 -1.57545 0.0417849 0
M  V30 650 C 67.4245 -2.14451 -0.951213 0
M  V30 651 C 68.4405 -1.09992 -1.34825 0
M  V30 652 O 69.6165 -1.42114 -1.42708 0
M  V30 653 C 66.6815 -2.67063 -2.21084 0
M  V30 654 C 65.7425 -3.86284 -1.87304 0
M  V30 655 C 64.9755 -4.36378 -3.07261 0
M  V30 656 O 65.1985 -3.85587 -4.20332 0
M  V30 657 O 64.1325 -5.28077 -2.88822 0
M  V30 658 H 67.9585 -2.99601 -0.497287 0
M  V30 659 H 65.5435 -1.48317 -0.179567 0
M  V30 660 H 67.4255 -3.00914 -2.95006 0
M  V30 661 H 66.1005 -1.84989 -2.65633 0
M  V30 662 H 65.0075 -3.57338 -1.10727 0
M  V30 663 H 66.3405 -4.6956 -1.47562 0
M  V30 664 N 67.9926 0.231505 -1.5589 0
M  V30 665 C 69.2206 0.974505 -1.82513 0
M  V30 666 C 69.6356 1.78344 -0.619591 0
M  V30 667 O 68.9926 1.77792 0.411848 0
M  V30 668 C 69.0436 1.90007 -3.07538 0
M  V30 669 O 68.7646 1.12385 -4.2344 0
M  V30 670 C 70.2656 2.75779 -3.47075 0
M  V30 671 H 67.4856 0.286065 -0.606966 0
M  V30 672 H 70.0296 0.249739 -2.02969 0
M  V30 673 H 68.1846 2.57891 -2.89086 0
M  V30 674 H 68.5986 1.75125 -4.944 0
M  V30 675 H 70.0726 3.36443 -4.37619 0
M  V30 676 H 70.5496 3.47672 -2.68367 0
M  V30 677 H 71.1556 2.13323 -3.67931 0
M  V30 678 N 69.4707 1.49531 0.497807 0
M  V30 679 C 70.8817 1.52344 1.07927 0
M  V30 680 C 71.2327 0.311469 1.93712 0
M  V30 681 O 70.3577 -0.578405 2.08527 0
M  V30 682 C 70.9527 2.76062 1.96405 0
M  V30 683 C 69.5117 2.81643 2.49709 0
M  V30 684 C 68.6587 2.46299 1.27404 0
M  V30 685 H 71.6097 1.56182 0.281576 0
M  V30 686 H 71.6307 2.56405 2.81135 0
M  V30 687 H 71.1427 3.64254 1.33943 0
M  V30 688 H 69.2437 1.97739 3.15801 0
M  V30 689 H 69.3567 3.83891 2.86643 0
M  V30 690 H 67.7207 1.98148 1.60029 0
M  V30 691 H 68.5037 3.36769 0.66645 0
M  V30 692 N 70.9488 -0.749086 1.3866 0
M  V30 693 C 72.1788 -1.53611 1.38157 0
M  V30 694 C 72.5868 -1.89177 -0.0293595 0
M  V30 695 O 71.9298 -1.53606 -1.00752 0
M  V30 696 C 71.9918 -2.86087 2.17702 0
M  V30 697 C 71.6558 -2.73034 3.66472 0
M  V30 698 C 72.6528 -2.42526 4.59866 0
M  V30 699 C 70.3378 -2.90345 4.09884 0
M  V30 700 C 72.3318 -2.29492 5.94653 0
M  V30 701 C 70.0188 -2.7693 5.4475 0
M  V30 702 C 71.0168 -2.46547 6.36949 0
M  V30 703 O 70.7048 -2.33199 7.69333 0
M  V30 704 H 70.4368 -0.481773 0.474205 0
M  V30 705 H 72.9908 -0.934465 1.82912 0
M  V30 706 H 71.2208 -3.48458 1.67672 0
M  V30 707 H 72.9098 -3.47625 2.09551 0
M  V30 708 H 73.6758 -2.28816 4.27631 0
M  V30 709 H 69.5548 -3.1299 3.38464 0
M  V30 710 H 73.0988 -2.05698 6.66584 0
M  V30 711 H 68.9958 -2.90215 5.76581 0
M  V30 712 H 69.7638 -2.48376 7.79905 0
M  V30 713 N 72.4269 -1.23603 -0.977757 0
M  V30 714 C 73.3599 -0.962772 -2.06896 0
M  V30 715 C 74.3379 0.0998743 -1.62293 0
M  V30 716 O 75.5219 -0.0349421 -1.88468 0
M  V30 717 C 72.6489 -0.45095 -3.35685 0
M  V30 718 C 71.6949 -1.50061 -3.99229 0
M  V30 719 S 72.5279 -3.07884 -4.38142 0
M  V30 720 C 73.6839 -2.58378 -5.7008 0
M  V30 721 H 73.9169 -1.88677 -2.29757 0
M  V30 722 H 71.4499 -1.06876 -1.11431 0
M  V30 723 H 73.4079 -0.162261 -4.10179 0
M  V30 724 H 72.0689 0.452179 -3.10828 0
M  V30 725 H 71.2619 -1.09269 -4.92013 0
M  V30 726 H 70.8639 -1.73878 -3.31123 0
M  V30 727 H 73.1559 -2.00563 -6.47133 0
M  V30 728 H 74.0989 -3.49711 -6.15717 0
M  V30 729 H 74.5069 -1.99143 -5.28207 0
M  V30 730 N 73.905 1.17692 -1.04816 0
M  V30 731 C 74.855 2.1952 -0.616042 0
M  V30 732 C 75.839 1.57147 0.345485 0
M  V30 733 O 77.031 1.76245 0.163325 0
M  V30 734 C 74.16 3.43298 0.0116917 0
M  V30 735 C 73.246 4.12777 -0.973435 0
M  V30 736 N 73.637 4.5814 -2.14339 0
M  V30 737 C 71.935 4.38747 -0.80108 0
M  V30 738 C 72.636 5.11713 -2.7663 0
M  V30 739 N 71.612 5.03686 -2.04453 0
M  V30 740 H 75.414 2.52293 -1.5075 0
M  V30 741 H 72.928 1.3398 -0.917776 0
M  V30 742 H 74.925 4.15519 0.339006 0
M  V30 743 H 73.585 3.12018 0.898593 0
M  V30 744 H 74.596 4.52349 -2.52191 0
M  V30 745 H 71.273 4.17485 0.0350934 0
M  V30 746 H 72.663 5.56962 -3.75823 0
M  V30 747 N 75.3831 0.828654 1.34056 0
M  V30 748 C 76.3461 0.259927 2.27721 0
M  V30 749 C 77.3461 -0.565478 1.50529 0
M  V30 750 O 78.5361 -0.38075 1.69988 0
M  V30 751 C 75.6681 -0.634944 3.34935 0
M  V30 752 H 76.8611 1.0863 2.79534 0
M  V30 753 H 74.4141 0.600951 1.44285 0
M  V30 754 H 75.1491 -1.48416 2.88346 0
M  V30 755 H 74.9341 -0.0444999 3.92075 0
M  V30 756 H 76.4241 -1.02648 4.04788 0
M  V30 757 N 76.8612 -1.46375 0.584142 0
M  V30 758 C 77.7912 -2.33103 -0.136037 0
M  V30 759 C 78.7722 -1.45431 -0.882255 0
M  V30 760 O 79.9572 -1.74246 -0.857434 0
M  V30 761 C 77.0872 -3.27731 -1.14933 0
M  V30 762 C 76.0412 -4.24855 -0.517862 0
M  V30 763 C 75.3672 -5.09001 -1.63773 0
M  V30 764 C 76.6672 -5.19439 0.545886 0
M  V30 765 H 78.3612 -2.93568 0.588086 0
M  V30 766 H 75.9072 -1.41166 0.284259 0
M  V30 767 H 77.8602 -3.87261 -1.66153 0
M  V30 768 H 76.5842 -2.65377 -1.90375 0
M  V30 769 H 75.2432 -3.6659 -0.0267361 0
M  V30 770 H 74.8912 -4.43031 -2.38185 0
M  V30 771 H 74.5912 -5.74777 -1.22085 0
M  V30 772 H 76.1152 -5.71396 -2.15266 0
M  V30 773 H 77.5292 -5.73177 0.118704 0
M  V30 774 H 75.9262 -5.93566 0.88317 0
M  V30 775 H 76.9962 -4.63285 1.43162 0
M  V30 776 N 78.3393 -0.321999 -1.54275 0
M  V30 777 C 79.3023 0.531975 -2.22941 0
M  V30 778 C 80.3023 1.04478 -1.22234 0
M  V30 779 O 81.4923 0.937452 -1.46825 0
M  V30 780 C 78.6243 1.73874 -2.93224 0
M  V30 781 H 79.8173 -0.0682612 -2.99822 0
M  V30 782 H 77.3703 -0.0730644 -1.56129 0
M  V30 783 H 78.1053 2.37825 -2.20476 0
M  V30 784 H 77.8903 1.37847 -3.6707 0
M  V30 785 H 79.3803 2.34496 -3.45545 0
M  V30 786 N 79.8174 1.5752 -0.0501392 0
M  V30 787 C 80.7804 2.1037 0.909786 0
M  V30 788 C 81.7804 1.02308 1.24056 0
M  V30 789 O 82.9704 1.28385 1.17741 0
M  V30 790 C 80.1024 2.58708 2.21998 0
M  V30 791 H 81.2954 2.96479 0.451665 0
M  V30 792 H 78.8484 1.55038 0.198248 0
M  V30 793 H 79.5834 1.75989 2.72394 0
M  V30 794 H 79.3684 3.37675 1.99295 0
M  V30 795 H 80.8584 2.99747 2.9076 0
M  V30 796 N 81.2955 -0.223234 1.56011 0
M  V30 797 C 82.2585 -1.26014 1.9145 0
M  V30 798 C 83.2585 -1.3989 0.792937 0
M  V30 799 O 84.4485 -1.38184 1.0607 0
M  V30 800 C 81.5805 -2.63422 2.16383 0
M  V30 801 H 82.7735 -0.95796 2.84189 0
M  V30 802 H 80.3265 -0.463576 1.49267 0
M  V30 803 H 81.0615 -2.98741 1.2619 0
M  V30 804 H 80.8465 -2.54728 2.98088 0
M  V30 805 H 82.3365 -3.38249 2.44903 0
M  V30 806 N 82.7736 -1.49793 -0.48987 0
M  V30 807 C 83.7366 -1.66752 -1.57246 0
M  V30 808 C 84.7366 -0.538867 -1.51502 0
M  V30 809 O 85.9266 -0.805545 -1.54456 0
M  V30 810 C 83.0586 -1.67528 -2.96896 0
M  V30 811 H 84.2516 -2.63321 -1.43534 0
M  V30 812 H 81.8046 -1.38992 -0.714914 0
M  V30 813 H 82.5396 -0.725837 -3.16073 0
M  V30 814 H 82.3246 -2.49504 -3.02473 0
M  V30 815 H 83.8146 -1.82667 -3.7553 0
M  V30 816 N 84.2517 0.741722 -1.39055 0
M  V30 817 C 85.4767 1.53607 -1.39354 0
M  V30 818 C 85.9017 1.88096 0.0116905 0
M  V30 819 O 85.2597 1.5143 0.996924 0
M  V30 820 C 85.3077 2.80441 -2.26682 0
M  V30 821 O 84.4117 3.76088 -1.69208 0
M  V30 822 H 83.7527 0.464142 -0.474835 0
M  V30 823 H 86.2827 0.915665 -1.82967 0
M  V30 824 H 86.2927 3.29246 -2.40959 0
M  V30 825 H 84.9677 2.5467 -3.2881 0
M  V30 826 H 83.5447 3.34833 -1.64138 0
M  V30 827 N 85.7298 1.2412 0.971189 0
M  V30 828 C 86.9548 1.10667 1.75407 0
M  V30 829 C 87.3798 -0.337048 1.85056 0
M  V30 830 O 86.7378 -1.24396 1.31892 0
M  V30 831 C 86.7858 1.74726 3.15441 0
M  V30 832 O 85.8898 1.01566 3.99697 0
M  V30 833 H 85.2308 0.387341 0.539317 0
M  V30 834 H 87.7608 1.64358 1.2185 0
M  V30 835 H 87.7708 1.80341 3.6598 0
M  V30 836 H 86.4458 2.79773 3.07734 0
M  V30 837 H 85.0228 1.03713 3.58187 0
M  V30 838 N 87.2079 -1.17134 1.05439 0
M  V30 839 C 88.1549 -2.21235 0.657539 0
M  V30 840 C 89.1249 -1.62551 -0.341543 0
M  V30 841 O 90.3099 -1.89379 -0.232393 0
M  V30 842 C 87.4499 -3.45076 0.0410575 0
M  V30 843 C 86.5629 -4.18042 1.08927 0
M  V30 844 C 85.6979 -5.29376 0.439848 0
M  V30 845 C 84.7369 -5.94132 1.4722 0
M  V30 846 N 83.8739 -6.96975 0.846756 0
M  V30 847 H 88.7139 -2.54534 1.54972 0
M  V30 848 H 86.2509 -1.25028 0.775006 0
M  V30 849 H 88.2089 -4.15862 -0.33383 0
M  V30 850 H 86.8389 -3.12353 -0.814568 0
M  V30 851 H 85.8909 -3.45945 1.58196 0
M  V30 852 H 87.2029 -4.62306 1.87282 0
M  V30 853 H 86.3569 -6.06699 0.0115125 0
M  V30 854 H 85.0959 -4.86251 -0.375656 0
M  V30 855 H 84.1009 -5.15538 1.91052 0
M  V30 856 H 85.3259 -6.39337 2.28965 0
M  V30 857 H 83.2719 -6.5598 0.0518075 0
M  V30 858 H 83.1889 -7.39565 1.5678 0
M  V30 859 H 84.4569 -7.78239 0.443277 0
M  V30 860 N 88.686 -0.835752 -1.33615 0
M  V30 861 C 89.934 -0.429109 -1.97492 0
M  V30 862 C 90.255 1.01433 -1.66543 0
M  V30 863 O 89.525 1.70611 -0.962744 0
M  V30 864 H 88.105 -0.155686 -0.730596 0
M  V30 865 H 90.767 -1.06802 -1.63031 0
M  V30 866 H 89.863 -0.55861 -3.0706 0
M  V30 867 N 90.1641 1.46063 -0.591896 0
M  V30 868 C 91.4121 2.01938 -0.0808391 0
M  V30 869 C 91.7331 1.46475 1.28725 0
M  V30 870 O 91.0031 0.652944 1.84698 0
M  V30 871 H 89.5831 0.746516 -0.0268938 0
M  V30 872 H 92.2451 1.79055 -0.769752 0
M  V30 873 H 91.3411 3.12094 -0.0187578 0
M  V30 874 N 91.6422 0.330177 1.54103 0
M  V30 875 C 93.0582 -0.0222371 1.59585 0
M  V30 876 C 93.2582 -1.49902 1.34654 0
M  V30 877 O 92.3142 -2.25592 1.13421 0
M  V30 878 C 93.6272 0.401932 2.98002 0
M  V30 879 C 95.1752 0.353145 3.11001 0
M  V30 880 C 95.6502 0.752576 4.51775 0
M  V30 881 N 97.1412 0.706239 4.57784 0
M  V30 882 C 97.8762 0.987417 5.64834 0
M  V30 883 N 97.3722 1.33607 6.79795 0
M  V30 884 N 99.1652 0.91254 5.54643 0
M  V30 885 H 91.3162 1.29228 1.68564 0
M  V30 886 H 93.5792 0.525906 0.78875 0
M  V30 887 H 93.2852 1.4311 3.21267 0
M  V30 888 H 93.1592 -0.229699 3.765 0
M  V30 889 H 95.5462 -0.666822 2.87467 0
M  V30 890 H 95.6272 1.0198 2.34593 0
M  V30 891 H 95.2712 1.77049 4.76042 0
M  V30 892 H 95.2012 0.0635409 5.26562 0
M  V30 893 H 97.6922 0.44889 3.75224 0
M  V30 894 H 98.0052 1.53582 7.57385 0
M  V30 895 H 96.3502 1.37439 6.81275 0
M  V30 896 H 99.5412 0.639601 4.6371 0
M  V30 897 H 99.7142 1.13503 6.37982 0
M  V30 898 N 93.1203 -1.57491 0.0584922 0
M  V30 899 C 94.3663 -1.93264 -0.614558 0
M  V30 900 C 94.6993 -0.937717 -1.7006 0
M  V30 901 O 93.9743 0.0351652 -1.94468 0
M  V30 902 C 94.2573 -3.3938 -1.20386 0
M  V30 903 C 94.1103 -4.49625 -0.125375 0
M  V30 904 C 95.4293 -3.86039 -2.11334 0
M  V30 905 H 92.5483 -0.702791 -0.221933 0
M  V30 906 H 95.1903 -1.8961 0.12175 0
M  V30 907 H 93.3403 -3.42626 -1.83139 0
M  V30 908 H 95.0123 -4.58506 0.506971 0
M  V30 909 H 93.2553 -4.30354 0.545672 0
M  V30 910 H 93.9263 -5.48967 -0.577861 0
M  V30 911 H 96.4023 -3.84716 -1.58534 0
M  V30 912 H 95.2783 -4.88914 -2.49507 0
M  V30 913 H 95.5393 -3.23215 -3.01636 0
M  V30 914 N 94.5984 0.214957 -1.56127 0
M  V30 915 C 95.5284 1.2695 -1.95974 0
M  V30 916 C 96.5094 1.48539 -0.828868 0
M  V30 917 O 97.6944 1.60611 -1.09168 0
M  V30 918 C 94.8244 2.61794 -2.28214 0
M  V30 919 C 93.7784 2.54851 -3.43853 0
M  V30 920 C 93.1044 3.93785 -3.61715 0
M  V30 921 C 94.4044 2.09065 -4.78632 0
M  V30 922 H 96.0984 0.93846 -2.84312 0
M  V30 923 H 93.6444 0.449996 -1.36788 0
M  V30 924 H 95.5974 3.35731 -2.54682 0
M  V30 925 H 94.3214 2.96599 -1.36736 0
M  V30 926 H 92.9804 1.8337 -3.17444 0
M  V30 927 H 92.6284 4.25908 -2.67602 0
M  V30 928 H 92.3284 3.90019 -4.39498 0
M  V30 929 H 93.8524 4.69374 -3.90539 0
M  V30 930 H 95.2664 2.7275 -5.04262 0
M  V30 931 H 93.6634 2.16346 -5.59745 0
M  V30 932 H 94.7334 1.04315 -4.73547 0
M  V30 933 N 96.0765 1.50051 0.48192 0
M  V30 934 C 96.9865 1.7089 1.60728 0
M  V30 935 C 98.0025 0.591788 1.63627 0
M  V30 936 O 99.1785 0.868817 1.81696 0
M  V30 937 C 96.2435 1.78855 2.97005 0
M  V30 938 C 95.3045 3.02537 3.04581 0
M  V30 939 C 94.5375 3.10112 4.34357 0
M  V30 940 O 94.7605 2.24765 5.24249 0
M  V30 941 O 93.6945 4.02747 4.47301 0
M  V30 942 H 97.5205 2.66264 1.46072 0
M  V30 943 H 95.1055 1.34018 0.660264 0
M  V30 944 H 96.9875 1.86336 3.77964 0
M  V30 945 H 95.6625 0.866628 3.11883 0
M  V30 946 H 94.5695 3.00563 2.22739 0
M  V30 947 H 95.9025 3.94272 2.94636 0
M  V30 948 N 97.5546 -0.734337 1.39446 0
M  V30 949 C 98.8006 -1.49613 1.36908 0
M  V30 950 C 99.1336 -1.94169 -0.0347829 0
M  V30 951 O 98.4086 -1.66833 -0.999847 0
M  V30 952 C 98.6916 -2.73534 2.34203 0
M  V30 953 C 98.5446 -2.34993 3.83534 0
M  V30 954 C 99.8636 -3.75635 2.29317 0
M  V30 955 H 96.9826 -0.542714 0.498629 0
M  V30 956 H 99.6246 -0.839597 1.70443 0
M  V30 957 H 97.7746 -3.29553 2.05736 0
M  V30 958 H 99.4466 -1.84601 4.22753 0
M  V30 959 H 97.6896 -1.67213 4.00278 0
M  V30 960 H 98.3606 -3.23738 4.47099 0
M  V30 961 H 100.837 -3.29203 2.54489 0
M  V30 962 H 99.7126 -4.60008 2.99472 0
M  V30 963 H 99.9736 -4.22603 1.29842 0
M  V30 964 N 99.0327 -1.24633 -0.964593 0
M  V30 965 C 100.281 -1.08573 -1.70459 0
M  V30 966 C 100.602 0.375655 -1.91347 0
M  V30 967 O 99.8717 1.26779 -1.49345 0
M  V30 968 H 98.4517 -0.398784 -0.631649 0
M  V30 969 H 101.114 -1.56601 -1.16026 0
M  V30 970 H 100.21 -1.58623 -2.68785 0
M  V30 971 N 100.511 1.16574 -1.06058 0
M  V30 972 C 101.758 1.87047 -0.775873 0
M  V30 973 C 102.086 1.81562 0.697534 0
M  V30 974 O 101.341 1.22445 1.52662 0
M  V30 975 C 101.64 3.36195 -1.21275 0
M  V30 976 C 101.306 3.6188 -2.68986 0
M  V30 977 C 99.9678 3.68599 -3.09335 0
M  V30 978 C 102.32 3.72648 -3.64394 0
M  V30 979 C 99.6478 3.83584 -4.43937 0
M  V30 980 C 102 3.89154 -4.98741 0
M  V30 981 C 100.664 3.94114 -5.3873 0
M  V30 982 H 99.9338 0.684452 -0.283912 0
M  V30 983 H 102.581 1.37853 -1.32925 0
M  V30 984 H 100.886 3.87505 -0.578528 0
M  V30 985 H 102.583 3.89103 -0.969542 0
M  V30 986 H 99.1728 3.57281 -2.36744 0
M  V30 987 H 103.357 3.66769 -3.34356 0
M  V30 988 H 98.6128 3.85677 -4.74409 0
M  V30 989 H 102.787 3.96427 -5.72554 0
M  V30 990 H 100.414 4.05478 -6.43033 0
M  V30 991 N 101.989 0.842826 1.3317 0
M  V30 992 C 103.237 0.439577 1.97262 0
M  V30 993 C 103.558 -1.00548 1.67078 0
M  V30 994 O 102.828 -1.70098 0.971779 0
M  V30 995 H 101.408 0.159558 0.72976 0
M  V30 996 H 104.07 1.07665 1.62463 0
M  V30 997 H 103.166 0.574886 3.0676 0
M  V30 998 N 103.467 -1.45747 0.599634 0
M  V30 999 C 104.4 -2.27547 -0.172552 0
M  V30 1000 C 105.378 -1.36657 -0.881116 0
M  V30 1001 O 106.562 -1.66081 -0.891595 0
M  V30 1002 C 103.689 -3.14829 -1.24903 0
M  V30 1003 C 102.735 -4.21603 -0.644465 0
M  V30 1004 S 103.568 -5.32754 0.541606 0
M  V30 1005 C 104.724 -6.23604 -0.535656 0
M  V30 1006 H 104.957 -2.92691 0.521468 0
M  V30 1007 H 102.49 -1.49473 0.386947 0
M  V30 1008 H 104.448 -3.65675 -1.86527 0
M  V30 1009 H 103.109 -2.48965 -1.91508 0
M  V30 1010 H 102.302 -4.82566 -1.45417 0
M  V30 1011 H 101.904 -3.73857 -0.103534 0
M  V30 1012 H 104.196 -6.62519 -1.41686 0
M  V30 1013 H 105.139 -7.0809 0.0376246 0
M  V30 1014 H 105.547 -5.58103 -0.84741 0
M  V30 1015 N 104.945 -0.338344 -1.53925 0
M  V30 1016 C 105.908 0.508299 -2.23493 0
M  V30 1017 C 106.908 1.03175 -1.23335 0
M  V30 1018 O 108.098 0.921826 -1.47811 0
M  V30 1019 C 105.23 1.70754 -2.95052 0
M  V30 1020 H 106.423 -0.100058 -2.99733 0
M  V30 1021 H 103.976 -0.0896198 -1.56043 0
M  V30 1022 H 104.711 2.35474 -2.22986 0
M  V30 1023 H 104.496 1.33946 -3.68512 0
M  V30 1024 H 105.986 2.30818 -3.48013 0
M  V30 1025 N 106.423 1.57458 -0.0668435 0
M  V30 1026 C 107.672 1.92477 0.602947 0
M  V30 1027 C 107.985 0.948419 1.71068 0
M  V30 1028 O 109.191 1.19124 2.43971 0
M  V30 1029 C 107.647 3.41903 1.12383 0
M  V30 1030 C 107.255 4.47975 0.04737 0
M  V30 1031 C 108.999 3.85931 1.76797 0
M  V30 1032 C 106.906 5.88529 0.582022 0
M  V30 1033 H 105.836 0.718387 0.22899 0
M  V30 1034 H 108.487 1.82978 -0.138276 0
M  V30 1035 H 106.869 3.46459 1.91787 0
M  V30 1036 H 108.043 4.55029 -0.726978 0
M  V30 1037 H 106.358 4.13384 -0.500243 0
M  V30 1038 H 108.955 4.88322 2.17821 0
M  V30 1039 H 109.298 3.23029 2.62599 0
M  V30 1040 H 109.831 3.83958 1.04024 0
M  V30 1041 H 106.57 6.55065 -0.238721 0
M  V30 1042 H 106.09 5.85004 1.324 0
M  V30 1043 H 107.769 6.38258 1.05999 0
M  V30 1044 N 107.901 -0.206675 1.56239 0
M  V30 1045 C 108.864 -1.23976 1.92776 0
M  V30 1046 C 109.864 -1.39041 0.807729 0
M  V30 1047 O 111.054 -1.37051 1.0753 0
M  V30 1048 C 108.186 -2.61112 2.19165 0
M  V30 1049 H 109.379 -0.927764 2.85189 0
M  V30 1050 H 106.932 -0.447718 1.4975 0
M  V30 1051 H 107.667 -2.97386 1.29352 0
M  V30 1052 H 107.452 -2.51552 3.00772 0
M  V30 1053 H 108.942 -3.35633 2.48476 0
M  V30 1054 N 109.379 -1.50304 -0.473955 0
M  V30 1055 C 110.342 -1.6841 -1.55469 0
M  V30 1056 C 111.342 -0.554905 -1.50922 0
M  V30 1057 O 112.532 -0.821882 -1.53593 0
M  V30 1058 C 109.664 -1.70667 -2.95102 0
M  V30 1059 H 110.857 -2.64828 -1.40733 0
M  V30 1060 H 108.41 -1.39742 -0.700132 0
M  V30 1061 H 109.145 -0.75932 -3.15285 0
M  V30 1062 H 108.93 -2.52698 -2.9981 0
M  V30 1063 H 110.42 -1.8664 -3.73571 0
M  V30 1064 N 110.857 0.726932 -1.39834 0
M  V30 1065 C 112.082 1.52121 -1.40976 0
M  V30 1066 C 112.507 1.88098 -0.00826029 0
M  V30 1067 O 111.865 1.52479 0.980807 0
M  V30 1068 C 111.913 2.78021 -2.29644 0
M  V30 1069 O 111.017 3.74272 -1.73188 0
M  V30 1070 H 110.358 0.45908 -0.479731 0
M  V30 1071 H 112.888 0.896207 -1.83927 0
M  V30 1072 H 112.898 3.26671 -2.44438 0
M  V30 1073 H 111.573 2.51169 -3.31492 0
M  V30 1074 H 110.15 3.33073 -1.6768 0
M  V30 1075 N 112.336 1.25143 0.95797 0
M  V30 1076 C 113.283 1.05235 2.05412 0
M  V30 1077 C 114.253 -0.0374561 1.66058 0
M  V30 1078 O 115.438 0.119073 1.90428 0
M  V30 1079 C 112.578 0.673589 3.38462 0
M  V30 1080 C 111.691 1.8379 3.90954 0
M  V30 1081 C 110.826 1.40381 5.12315 0
M  V30 1082 C 109.865 2.53746 5.57027 0
M  V30 1083 N 109.002 2.11136 6.69601 0
M  V30 1084 H 113.842 1.99048 2.21774 0
M  V30 1085 H 111.379 0.991277 1.08683 0
M  V30 1086 H 113.337 0.434964 4.14926 0
M  V30 1087 H 111.967 -0.227554 3.21997 0
M  V30 1088 H 111.019 2.18992 3.11041 0
M  V30 1089 H 112.331 2.68937 4.20089 0
M  V30 1090 H 111.485 1.12464 5.96185 0
M  V30 1091 H 110.224 0.523015 4.84887 0
M  V30 1092 H 109.229 2.82412 4.71724 0
M  V30 1093 H 110.454 3.42398 5.86464 0
M  V30 1094 H 108.4 1.25468 6.4389 0
M  V30 1095 H 108.317 2.89832 6.98236 0
M  V30 1096 H 109.585 1.86385 7.56889 0
M  V30 1097 N 113.814 -1.1601 1.06675 0
M  V30 1098 C 115.06 -1.86909 0.786945 0
M  V30 1099 C 115.393 -1.81717 -0.685018 0
M  V30 1100 O 114.668 -1.23551 -1.50218 0
M  V30 1101 C 114.951 -3.36313 1.28707 0
M  V30 1102 C 114.804 -3.50175 2.82308 0
M  V30 1103 C 116.123 -4.3084 0.898071 0
M  V30 1104 H 113.242 -0.678677 0.287343 0
M  V30 1105 H 115.884 -1.36336 1.32334 0
M  V30 1106 H 114.034 -3.79513 0.830768 0
M  V30 1107 H 115.706 -3.15886 3.36175 0
M  V30 1108 H 113.949 -2.91959 3.20847 0
M  V30 1109 H 114.62 -4.55116 3.12368 0
M  V30 1110 H 117.096 -3.95561 1.29114 0
M  V30 1111 H 115.972 -5.33876 1.27543 0
M  V30 1112 H 116.233 -4.41662 -0.196651 0
M  V30 1113 N 115.292 -0.849877 -1.32721 0
M  V30 1114 C 116.224 -0.248332 -2.27851 0
M  V30 1115 C 117.237 0.577218 -1.52224 0
M  V30 1116 O 118.426 0.402489 -1.73903 0
M  V30 1117 C 115.526 0.668107 -3.32249 0
M  V30 1118 C 114.699 -0.120534 -4.37234 0
M  V30 1119 C 113.758 0.720932 -5.21238 0
M  V30 1120 O 112.784 0.156166 -5.68986 0
M  V30 1121 N 113.986 2.03647 -5.43607 0
M  V30 1122 H 116.751 -1.06575 -2.80111 0
M  V30 1123 H 114.312 -0.709395 -1.45531 0
M  V30 1124 H 116.304 1.23627 -3.85355 0
M  V30 1125 H 114.874 1.38621 -2.80184 0
M  V30 1126 H 114.094 -0.870108 -3.84477 0
M  V30 1127 H 115.382 -0.662406 -5.0447 0
M  V30 1128 H 114.78 2.51871 -5.06535 0
M  V30 1129 H 113.337 2.55287 -5.99727 0
M  V30 1130 N 116.77 1.45427 -0.607355 0
M  V30 1131 C 117.68 2.34325 0.113463 0
M  V30 1132 C 118.696 1.51226 0.860617 0
M  V30 1133 O 119.872 1.84029 0.818255 0
M  V30 1134 C 116.937 3.28839 1.09844 0
M  V30 1135 C 115.998 4.27844 0.353271 0
M  V30 1136 C 115.231 5.17842 1.29133 0
M  V30 1137 O 115.454 5.11264 2.52913 0
M  V30 1138 O 114.388 5.96713 0.788523 0
M  V30 1139 H 118.214 2.97364 -0.617094 0
M  V30 1140 H 115.799 1.44807 -0.367619 0
M  V30 1141 H 117.681 3.8708 1.66575 0
M  V30 1142 H 116.356 2.68365 1.81003 0
M  V30 1143 H 115.263 3.7322 -0.256494 0
M  V30 1144 H 116.596 4.91173 -0.317822 0
M  V30 1145 N 118.248 0.346503 1.53744 0
M  V30 1146 C 119.211 -0.496439 2.23759 0
M  V30 1147 C 120.211 -1.0252 1.2388 0
M  V30 1148 O 121.401 -0.913974 1.48297 0
M  V30 1149 C 118.533 -1.69187 2.95954 0
M  V30 1150 H 119.726 0.115952 2.99676 0
M  V30 1151 H 117.279 0.0978939 1.55993 0
M  V30 1152 H 118.014 -2.34288 2.24231 0
M  V30 1153 H 117.799 -1.31989 3.69217 0
M  V30 1154 H 119.289 -2.28969 3.49232 0
M  V30 1155 N 119.726 -1.57421 0.075193 0
M  V30 1156 C 121.137 -1.81021 -0.456964 0
M  V30 1157 C 121.488 -0.98936 -1.69429 0
M  V30 1158 O 120.613 -0.212865 -2.15351 0
M  V30 1159 C 121.208 -3.28329 -0.83581 0
M  V30 1160 C 119.767 -3.52764 -1.31281 0
M  V30 1161 C 118.914 -2.75676 -0.299648 0
M  V30 1162 H 121.865 -1.55822 0.300856 0
M  V30 1163 H 121.886 -3.40564 -1.69696 0
M  V30 1164 H 121.398 -3.88046 0.0649238 0
M  V30 1165 H 119.499 -2.98355 -2.23193 0
M  V30 1166 H 119.612 -4.61451 -1.28839 0
M  V30 1167 H 117.976 -2.42538 -0.777641 0
M  V30 1168 H 118.759 -3.38132 0.593417 0
M  V30 1169 N 121.204 0.198386 -1.56346 0
M  V30 1170 C 122.453 0.917451 -1.79627 0
M  V30 1171 C 122.766 1.8456 -0.64784 0
M  V30 1172 O 123.972 2.60504 -0.764859 0
M  V30 1173 C 122.428 1.68175 -3.18191 0
M  V30 1174 C 122.036 0.798589 -4.40825 0
M  V30 1175 C 123.78 2.39065 -3.50782 0
M  V30 1176 C 121.687 1.56157 -5.70411 0
M  V30 1177 H 120.617 0.346317 -0.669762 0
M  V30 1178 H 123.268 0.170801 -1.82703 0
M  V30 1179 H 121.65 2.47216 -3.09354 0
M  V30 1180 H 122.824 0.0470665 -4.60776 0
M  V30 1181 H 121.139 0.200686 -4.15916 0
M  V30 1182 H 123.736 2.96692 -4.44835 0
M  V30 1183 H 124.079 3.13091 -2.74371 0
M  V30 1184 H 124.612 1.66993 -3.61052 0
M  V30 1185 H 121.351 0.864142 -6.49779 0
M  V30 1186 H 120.871 2.2871 -5.54483 0
M  V30 1187 H 122.55 2.11622 -6.11412 0
M  V30 1188 N 122.682 1.50554 0.465978 0
M  V30 1189 C 123.959 1.5232 1.22712 0
M  V30 1190 C 124.339 0.270807 2.09356 0
M  V30 1191 O 123.687 -0.745541 2.15995 0
M  V30 1192 C 123.897 2.82175 2.05374 0
M  V30 1193 C 125.245 3.33033 2.6339 0
M  V30 1194 O 126.269 2.83531 2.15612 0
M  V30 1195 O 125.128 4.19336 3.50456 0
M  V30 1196 H 122.222 0.611183 0.557122 0
M  V30 1197 H 124.768 1.62847 0.477381 0
M  V30 1198 H 123.54 3.64797 1.41558 0
M  V30 1199 H 123.163 2.74675 2.87471 0
M  V30 1200 N 124.16 -0.719506 1.40217 0
M  V30 1201 C 125.07 -1.86378 1.42479 0
M  V30 1202 C 126.086 -1.71073 0.317834 0
M  V30 1203 O 127.262 -1.93406 0.561794 0
M  V30 1204 C 124.327 -3.22136 1.28178 0
M  V30 1205 C 123.388 -3.49723 2.48982 0
M  V30 1206 C 122.621 -4.79004 2.35353 0
M  V30 1207 O 122.844 -5.53821 1.36524 0
M  V30 1208 O 121.778 -5.06839 3.2465 0
M  V30 1209 H 125.604 -1.87425 2.38968 0
M  V30 1210 H 123.189 -0.869405 1.21498 0
M  V30 1211 H 125.071 -4.03234 1.22395 0
M  V30 1212 H 123.746 -3.21825 0.347934 0
M  V30 1213 H 122.653 -2.6865 2.60342 0
M  V30 1214 H 123.986 -3.54828 3.41113 0
M  V30 1215 N 125.638 -1.25649 -0.95132 0
M  V30 1216 C 126.588 -1.03004 -2.03406 0
M  V30 1217 C 127.572 0.034187 -1.60864 0
M  V30 1218 O 128.764 -0.181549 -1.76066 0
M  V30 1219 C 125.893 -0.654255 -3.37008 0
M  V30 1220 C 124.979 -1.75542 -3.86065 0
M  V30 1221 N 125.37 -2.99113 -4.07879 0
M  V30 1222 C 123.668 -1.63669 -4.14884 0
M  V30 1223 C 124.369 -3.70611 -4.48356 0
M  V30 1224 N 123.345 -2.98247 -4.54477 0
M  V30 1225 H 127.147 -1.96813 -2.1827 0
M  V30 1226 H 124.661 -1.16017 -1.13639 0
M  V30 1227 H 126.658 -0.473206 -4.14206 0
M  V30 1228 H 125.318 0.276468 -3.23521 0
M  V30 1229 H 126.329 -3.35124 -3.94857 0
M  V30 1230 H 123.006 -0.775161 -4.10241 0
M  V30 1231 H 124.396 -4.76695 -4.73509 0
M  V30 1232 N 127.117 1.15442 -1.07289 0
M  V30 1233 C 128.363 1.8672 -0.806679 0
M  V30 1234 C 128.718 1.80723 0.660084 0
M  V30 1235 O 128.011 1.21902 1.47819 0
M  V30 1236 C 128.205 3.3489 -1.24834 0
M  V30 1237 C 128.034 3.55313 -2.7565 0
M  V30 1238 C 126.804 3.7082 -3.4325 0
M  V30 1239 C 129.002 3.53188 -3.73848 0
M  V30 1240 N 126.984 3.7929 -4.82713 0
M  V30 1241 C 128.355 3.67765 -4.99149 0
M  V30 1242 C 130.41 3.36459 -3.67015 0
M  V30 1243 C 129.113 3.6734 -6.18428 0
M  V30 1244 C 131.139 3.37333 -4.85758 0
M  V30 1245 C 130.501 3.52438 -6.09891 0
M  V30 1246 H 126.6 0.700433 -0.347733 0
M  V30 1247 H 129.184 1.38441 -1.36902 0
M  V30 1248 H 127.355 3.81786 -0.713713 0
M  V30 1249 H 129.087 3.93875 -0.929745 0
M  V30 1250 H 125.842 3.71568 -2.93656 0
M  V30 1251 H 126.266 3.8727 -5.55294 0
M  V30 1252 H 130.908 3.237 -2.71989 0
M  V30 1253 H 128.626 3.78878 -7.13777 0
M  V30 1254 H 132.212 3.25617 -4.82146 0
M  V30 1255 H 131.092 3.53047 -7.00234 0
M  V30 1256 N 128.595 0.856903 1.32268 0
M  V30 1257 C 129.844 0.457599 1.96441 0
M  V30 1258 C 130.157 -0.992426 1.68553 0
M  V30 1259 O 131.363 -1.49727 2.26482 0
M  V30 1260 C 129.819 0.767358 3.51624 0
M  V30 1261 C 129.427 2.23326 3.88367 0
M  V30 1262 C 131.171 0.435887 4.22256 0
M  V30 1263 C 129.078 2.48613 5.36606 0
M  V30 1264 H 128.008 0.167387 0.735185 0
M  V30 1265 H 130.659 1.048 1.5063 0
M  V30 1266 H 129.041 0.106367 3.95857 0
M  V30 1267 H 130.215 2.93623 3.55137 0
M  V30 1268 H 128.53 2.52948 3.30766 0
M  V30 1269 H 131.127 0.602202 5.31298 0
M  V30 1270 H 131.47 -0.622672 4.11617 0
M  V30 1271 H 132.003 1.05286 3.83614 0
M  V30 1272 H 128.742 3.53101 5.52268 0
M  V30 1273 H 128.262 1.82896 5.71235 0
M  V30 1274 H 129.941 2.32676 6.03714 0
M  V30 1275 N 130.073 -1.45103 0.615059 0
M  V30 1276 C 131.322 -2.01396 0.110718 0
M  V30 1277 C 131.635 -1.48834 -1.26916 0
M  V30 1278 O 132.841 -1.97152 -1.86664 0
M  V30 1279 C 131.297 -3.59599 0.14723 0
M  V30 1280 C 130.905 -4.21158 1.52743 0
M  V30 1281 C 132.649 -4.23428 -0.30148 0
M  V30 1282 C 130.556 -5.71535 1.51992 0
M  V30 1283 H 129.486 -0.753061 0.0376241 0
M  V30 1284 H 132.137 -1.66494 0.77149 0
M  V30 1285 H 130.519 -3.91724 -0.580339 0
M  V30 1286 H 131.693 -4.00594 2.2773 0
M  V30 1287 H 130.008 -3.69552 1.91886 0
M  V30 1288 H 132.605 -5.33703 -0.326392 0
M  V30 1289 H 132.948 -3.94629 -1.32565 0
M  V30 1290 H 133.481 -3.96047 0.373065 0
M  V30 1291 H 130.22 -6.05044 2.52193 0
M  V30 1292 H 129.74 -5.94268 0.81274 0
M  V30 1293 H 131.419 -6.34873 1.24681 0
M  V30 1294 N 131.551 -0.354651 -1.53558 0
M  V30 1295 C 132.461 0.50515 -2.29097 0
M  V30 1296 C 133.477 1.10223 -1.34636 0
M  V30 1297 O 134.653 1.11553 -1.67684 0
M  V30 1298 C 131.718 1.63479 -3.05738 0
M  V30 1299 C 130.779 1.06636 -4.15845 0
M  V30 1300 C 130.012 2.14217 -4.88822 0
M  V30 1301 O 130.235 3.35137 -4.61562 0
M  V30 1302 O 129.169 1.77887 -5.75013 0
M  V30 1303 H 132.995 -0.109237 -3.03503 0
M  V30 1304 H 130.58 -0.119357 -1.48922 0
M  V30 1305 H 132.462 2.2918 -3.5363 0
M  V30 1306 H 131.137 2.23478 -2.34178 0
M  V30 1307 H 130.044 0.373565 -3.7223 0
M  V30 1308 H 131.377 0.511081 -4.89539 0
M  V30 1309 N 133.029 1.57378 -0.0835403 0
M  V30 1310 C 134.269 1.95808 0.586381 0
M  V30 1311 C 134.633 0.963706 1.66062 0
M  V30 1312 O 135.834 1.23608 2.38693 0
M  V30 1313 C 134.105 3.38808 1.13771 0
M  V30 1314 S 135.664 3.99225 1.82112 0
M  V30 1315 H 132.482 0.684675 0.191679 0
M  V30 1316 H 135.084 1.94843 -0.160194 0
M  V30 1317 H 133.788 4.08954 0.344197 0
M  V30 1318 H 133.319 3.43344 1.92038 0
M  V30 1319 H 135.334 3.87087 3.10449 0
M  V30 1320 N 134.507 -0.190092 1.56449 0
M  V30 1321 C 135.455 -1.25501 1.95837 0
M  V30 1322 C 136.449 -1.4685 0.844485 0
M  V30 1323 O 137.655 -1.47651 1.02952 0
M  V30 1324 H 134.03 -0.421447 0.622805 0
M  V30 1325 H 136.001 -0.895821 2.84636 0
M  V30 1326 C 134.75 -2.59124 2.31841 0
M  V30 1327 H 134.073 -2.43514 3.17082 0
M  V30 1328 H 135.513 -3.32371 2.6326 0
M  V30 1329 C 133.972 -3.16488 1.15486 0
M  V30 1330 O 134.502 -3.99365 0.432535 0
M  V30 1331 N 132.708 -2.75305 0.930349 0
M  V30 1332 H 132.255 -2.08013 1.51948 0
M  V30 1333 H 132.213 -3.14024 0.153634 0
M  V30 1334 N 135.985 -1.50799 -0.457987 0
M  V30 1335 C 137.262 -1.52968 -1.21902 0
M  V30 1336 C 137.642 -0.281906 -2.09209 0
M  V30 1337 O 136.99 0.734076 -2.16388 0
M  V30 1338 C 137.2 -2.8326 -2.03875 0
M  V30 1339 C 138.548 -3.34425 -2.6162 0
M  V30 1340 O 139.572 -2.8467 -2.14106 0
M  V30 1341 O 138.431 -4.21188 -3.48228 0
M  V30 1342 H 135.525 -0.614129 -0.553873 0
M  V30 1343 H 138.071 -1.63098 -0.468739 0
M  V30 1344 H 136.843 -3.65543 -1.39621 0
M  V30 1345 H 136.466 -2.76195 -2.8601 0
M  V30 1346 N 137.463 0.71206 -1.40597 0
M  V30 1347 C 138.711 1.46907 -1.38791 0
M  V30 1348 C 139.032 1.94998 0.00780391 0
M  V30 1349 O 138.302 1.70587 0.963174 0
M  V30 1350 H 136.882 0.545043 -0.51082 0
M  V30 1351 H 139.544 0.843882 -1.75683 0
M  V30 1352 H 138.64 2.34021 -2.06496 0
M  V30 1353 N 138.941 1.26152 0.944643 0
M  V30 1354 C 140.187 1.11657 1.69294 0
M  V30 1355 C 140.52 -0.339926 1.91202 0
M  V30 1356 O 139.795 -1.24994 1.49019 0
M  V30 1357 C 140.078 1.88236 3.06984 0
M  V30 1358 C 139.931 3.41772 2.92424 0
M  V30 1359 C 141.25 1.67343 4.07043 0
M  V30 1360 H 138.369 0.407004 0.614424 0
M  V30 1361 H 141.011 1.55106 1.09737 0
M  V30 1362 H 139.161 1.51308 3.57824 0
M  V30 1363 H 140.833 3.88433 2.48832 0
M  V30 1364 H 139.076 3.68974 2.28124 0
M  V30 1365 H 139.747 3.90579 3.90067 0
M  V30 1366 H 142.223 1.99509 3.65151 0
M  V30 1367 H 141.099 2.23346 5.01406 0
M  V30 1368 H 141.36 0.617158 4.37771 0
M  V30 1369 N 140.419 -1.14872 1.07899 0
M  V30 1370 C 141.666 -1.85789 0.805532 0
M  V30 1371 C 141.994 -1.82649 -0.668561 0
M  V30 1372 O 141.249 -1.24858 -1.50695 0
M  V30 1373 C 141.548 -3.34223 1.26609 0
M  V30 1374 C 141.214 -3.57555 2.74709 0
M  V30 1375 C 139.876 -3.63631 3.1516 0
M  V30 1376 C 142.228 -3.66803 3.70277 0
M  V30 1377 C 139.556 -3.76473 4.49983 0
M  V30 1378 C 141.908 -3.8117 5.04869 0
M  V30 1379 C 140.572 -3.85494 5.44932 0
M  V30 1380 H 139.842 -0.679849 0.294765 0
M  V30 1381 H 142.489 -1.3572 1.35101 0
M  V30 1382 H 140.794 -3.86536 0.640103 0
M  V30 1383 H 142.491 -3.87511 1.03132 0
M  V30 1384 H 139.081 -3.5347 2.42398 0
M  V30 1385 H 143.265 -3.61404 3.40149 0
M  V30 1386 H 138.521 -3.7808 4.80484 0
M  V30 1387 H 142.695 -3.87268 5.78789 0
M  V30 1388 H 140.322 -3.95197 6.49403 0
M  V30 1389 N 141.898 -0.863906 -1.31812 0
M  V30 1390 C 142.83 -0.272485 -2.27575 0
M  V30 1391 C 143.843 0.56104 -1.52827 0
M  V30 1392 O 145.032 0.384021 -1.7432 0
M  V30 1393 C 142.132 0.63283 -3.32939 0
M  V30 1394 C 141.305 -0.166902 -4.37081 0
M  V30 1395 C 140.364 0.665608 -5.21973 0
M  V30 1396 O 139.39 0.0958091 -5.69119 0
M  V30 1397 N 140.592 1.9787 -5.45736 0
M  V30 1398 H 143.357 -1.0954 -2.78964 0
M  V30 1399 H 140.918 -0.724791 -1.4477 0
M  V30 1400 H 142.91 1.19532 -3.86645 0
M  V30 1401 H 141.48 1.35642 -2.81638 0
M  V30 1402 H 140.7 -0.910838 -3.83533 0
M  V30 1403 H 141.988 -0.715874 -5.03739 0
M  V30 1404 H 141.386 2.46484 -5.09178 0
M  V30 1405 H 139.943 2.48911 -6.024 0
M  V30 1406 N 143.376 1.44774 -0.622745 0
M  V30 1407 C 144.792 1.56986 -0.287652 0
M  V30 1408 C 144.992 1.61167 1.20944 0
M  V30 1409 O 144.048 1.55015 1.99315 0
M  V30 1410 C 145.361 2.84551 -0.972188 0
M  V30 1411 C 146.909 2.9825 -0.949536 0
M  V30 1412 C 147.384 4.28605 -1.61437 0
M  V30 1413 N 148.875 4.35399 -1.58057 0
M  V30 1414 C 149.61 5.34964 -2.064 0
M  V30 1415 N 149.106 6.40981 -2.62897 0
M  V30 1416 N 150.899 5.26419 -1.97078 0
M  V30 1417 H 143.05 1.40304 -1.59463 0
M  V30 1418 H 145.313 0.671794 -0.668878 0
M  V30 1419 H 145.019 2.87417 -2.02693 0
M  V30 1420 H 144.893 3.73807 -0.504771 0
M  V30 1421 H 147.28 2.94941 0.0967067 0
M  V30 1422 H 147.361 2.10364 -1.45536 0
M  V30 1423 H 147.005 4.32672 -2.66002 0
M  V30 1424 H 146.935 5.15334 -1.08344 0
M  V30 1425 H 149.426 3.59397 -1.16801 0
M  V30 1426 H 149.739 7.13225 -2.97539 0
M  V30 1427 H 148.084 6.4169 -2.66943 0
M  V30 1428 H 151.275 4.42504 -1.52669 0
M  V30 1429 H 151.448 6.03861 -2.35066 0
M  V30 1430 N 144.854 0.36279 1.53368 0
M  V30 1431 C 145.784 -0.476976 2.28576 0
M  V30 1432 C 146.765 -1.08631 1.30894 0
M  V30 1433 O 147.95 -1.10409 1.59761 0
M  V30 1434 C 145.08 -1.61828 3.07293 0
M  V30 1435 C 144.034 -1.13633 4.1264 0
M  V30 1436 C 143.36 -2.36766 4.79423 0
M  V30 1437 C 144.66 -0.223061 5.21823 0
M  V30 1438 H 146.354 0.150474 2.99022 0
M  V30 1439 H 143.9 0.0738103 1.43811 0
M  V30 1440 H 145.853 -2.21237 3.58653 0
M  V30 1441 H 144.577 -2.27292 2.34533 0
M  V30 1442 H 143.236 -0.564945 3.62221 0
M  V30 1443 H 142.884 -3.0068 4.03238 0
M  V30 1444 H 142.584 -2.05192 5.50609 0
M  V30 1445 H 144.108 -2.96865 5.33576 0
M  V30 1446 H 145.522 -0.724545 5.68703 0
M  V30 1447 H 143.919 0.001678 6.001 0
M  V30 1448 H 144.989 0.735553 4.79289 0
M  V30 1449 N 146.332 -1.57332 0.0918853 0
M  V30 1450 C 147.748 -1.57389 -0.264766 0
M  V30 1451 C 147.948 -1.10281 -1.68643 0
M  V30 1452 O 147.004 -0.777801 -2.40222 0
M  V30 1453 C 148.317 -3.00648 -0.0561195 0
M  V30 1454 C 149.865 -3.12754 -0.124116 0
M  V30 1455 C 150.34 -4.57965 0.0564972 0
M  V30 1456 N 151.831 -4.632 0.00155611 0
M  V30 1457 C 152.566 -5.73281 0.116598 0
M  V30 1458 N 152.062 -6.92208 0.286294 0
M  V30 1459 N 153.855 -5.6207 0.0580973 0
M  V30 1460 H 146.006 -1.86262 1.02079 0
M  V30 1461 H 148.269 -0.859579 0.399786 0
M  V30 1462 H 147.975 -3.393 0.925669 0
M  V30 1463 H 147.849 -3.68623 -0.799823 0
M  V30 1464 H 150.236 -2.73976 -1.09641 0
M  V30 1465 H 150.317 -2.47377 0.651024 0
M  V30 1466 H 149.961 -4.97436 1.02564 0
M  V30 1467 H 149.891 -5.21399 -0.738297 0
M  V30 1468 H 152.382 -3.77686 -0.127192 0
M  V30 1469 H 152.695 -7.71934 0.365676 0
M  V30 1470 H 151.04 -6.94254 0.32192 0
M  V30 1471 H 154.231 -4.68043 -0.0733204 0
M  V30 1472 H 154.404 -6.47824 0.151203 0
M  V30 1473 N 147.81 0.181792 -1.56548 0
M  V30 1474 C 149.087 0.926765 -1.72251 0
M  V30 1475 C 149.467 2.00831 -0.650386 0
M  V30 1476 O 148.815 2.26008 0.336521 0
M  V30 1477 C 149.025 1.50106 -3.1507 0
M  V30 1478 C 150.373 1.97805 -3.75711 0
M  V30 1479 O 151.397 1.59922 -3.18282 0
M  V30 1480 O 150.256 2.67555 -4.76525 0
M  V30 1481 H 147.35 0.435506 -0.703039 0
M  V30 1482 H 149.896 0.170443 -1.68842 0
M  V30 1483 H 148.668 0.72212 -3.84579 0
M  V30 1484 H 148.291 2.32186 -3.22763 0
M  V30 1485 N 149.288 1.51039 0.449983 0
M  V30 1486 C 150.534 1.64287 1.19923 0
M  V30 1487 C 150.889 0.348701 1.89214 0
M  V30 1488 O 150.182 -0.654751 1.80065 0
M  V30 1489 C 150.376 2.77556 2.25161 0
M  V30 1490 C 150.205 4.17862 1.66198 0
M  V30 1491 C 148.975 4.83976 1.45243 0
M  V30 1492 C 151.173 5.01388 1.14519 0
M  V30 1493 N 149.155 6.08433 0.817437 0
M  V30 1494 C 150.526 6.16743 0.634705 0
M  V30 1495 C 152.581 4.87008 1.03574 0
M  V30 1496 C 151.284 7.19295 0.0255452 0
M  V30 1497 C 153.31 5.89757 0.440489 0
M  V30 1498 C 152.672 7.04375 -0.0595112 0
M  V30 1499 H 148.771 0.655161 0.426952 0
M  V30 1500 H 151.355 1.88228 0.49781 0
M  V30 1501 H 149.526 2.553 2.92706 0
M  V30 1502 H 151.258 2.80049 2.92155 0
M  V30 1503 H 148.013 4.41627 1.71063 0
M  V30 1504 H 148.437 6.75017 0.517747 0
M  V30 1505 H 153.079 3.9866 1.4082 0
M  V30 1506 H 150.797 8.07302 -0.359071 0
M  V30 1507 H 154.383 5.80698 0.35788 0
M  V30 1508 H 153.263 7.82521 -0.512882 0
M  V30 1509 N 150.766 -0.704594 1.40972 0
M  V30 1510 C 151.729 -1.80035 1.41845 0
M  V30 1511 C 152.729 -1.57774 0.310474 0
M  V30 1512 O 153.919 -1.64613 0.56992 0
M  V30 1513 C 151.051 -3.18284 1.22098 0
M  V30 1514 H 152.244 -1.80658 2.3938 0
M  V30 1515 H 149.797 -0.911329 1.26982 0
M  V30 1516 H 150.532 -3.23306 0.253672 0
M  V30 1517 H 150.317 -3.35843 2.02366 0
M  V30 1518 H 151.807 -3.98289 1.25522 0
M  V30 1519 N 152.244 -1.26651 -0.937939 0
M  V30 1520 C 153.655 -1.1125 -1.49934 0
M  V30 1521 C 154.006 0.306077 -1.93798 0
M  V30 1522 O 153.131 1.19792 -1.80219 0
M  V30 1523 C 153.726 -2.01339 -2.72485 0
M  V30 1524 C 152.285 -1.90074 -3.24883 0
M  V30 1525 C 151.432 -1.94498 -1.97651 0
M  V30 1526 H 154.383 -1.39693 -0.753091 0
M  V30 1527 H 154.404 -1.56319 -3.46907 0
M  V30 1528 H 153.916 -3.04577 -2.40529 0
M  V30 1529 H 152.017 -0.897827 -3.61621 0
M  V30 1530 H 152.13 -2.75778 -3.9177 0
M  V30 1531 H 150.494 -1.38591 -2.13693 0
M  V30 1532 H 151.277 -2.99372 -1.68022 0
M  V30 1533 N 153.722 1.14298 -1.08507 0
M  V30 1534 C 155.138 1.37347 -0.812901 0
M  V30 1535 C 155.338 1.93052 0.577325 0
M  V30 1536 O 154.394 2.14389 1.33393 0
M  V30 1537 C 155.707 2.33359 -1.89642 0
M  V30 1538 C 157.255 2.46996 -1.92255 0
M  V30 1539 C 157.73 3.46309 -2.99724 0
M  V30 1540 N 159.221 3.53853 -2.98902 0
M  V30 1541 C 159.956 4.3055 -3.787 0
M  V30 1542 N 159.452 5.10482 -4.6838 0
M  V30 1543 N 161.245 4.25757 -3.66998 0
M  V30 1544 H 153.396 0.764867 -1.9815 0
M  V30 1545 H 155.659 0.398966 -0.859959 0
M  V30 1546 H 155.365 1.99565 -2.89597 0
M  V30 1547 H 155.239 3.33274 -1.76659 0
M  V30 1548 H 157.626 2.80081 -0.929445 0
M  V30 1549 H 157.707 1.47039 -2.09316 0
M  V30 1550 H 157.351 3.13957 -3.99241 0
M  V30 1551 H 157.281 4.46049 -2.79907 0
M  V30 1552 H 159.772 2.96812 -2.33904 0
M  V30 1553 H 160.085 5.66284 -5.25873 0
M  V30 1554 H 158.43 5.09747 -4.72422 0
M  V30 1555 H 161.621 3.62383 -2.96304 0
M  V30 1556 H 161.794 4.85279 -4.29427 0
M  V30 1557 N 155.201 0.870884 1.31352 0
M  V30 1558 C 156.133 0.28455 2.27427 0
M  V30 1559 C 157.146 -0.552927 1.53123 0
M  V30 1560 O 158.335 -0.374771 1.74521 0
M  V30 1561 C 155.435 -0.615164 3.3327 0
M  V30 1562 C 154.608 0.190079 4.36987 0
M  V30 1563 C 153.667 -0.637917 5.22319 0
M  V30 1564 O 152.693 -0.065626 5.69162 0
M  V30 1565 N 153.895 -1.94973 5.46778 0
M  V30 1566 H 156.66 1.11017 2.7838 0
M  V30 1567 H 154.221 0.732458 1.44384 0
M  V30 1568 H 156.213 -1.1748 3.87273 0
M  V30 1569 H 154.783 -1.34146 2.82354 0
M  V30 1570 H 154.003 0.931165 3.83044 0
M  V30 1571 H 155.291 0.742579 5.03352 0
M  V30 1572 H 154.689 -2.4378 5.10478 0
M  V30 1573 H 153.246 -2.45713 6.03712 0
M  V30 1574 N 156.679 -1.44442 0.630414 0
M  V30 1575 C 157.907 -2.06414 0.141671 0
M  V30 1576 C 158.322 -1.47105 -1.18345 0
M  V30 1577 O 157.679 -0.593662 -1.72574 0
M  V30 1578 C 157.73 -3.61494 0.0199784 0
M  V30 1579 O 157.451 -4.18594 1.29269 0
M  V30 1580 C 158.952 -4.40499 -0.497544 0
M  V30 1581 H 156.172 -0.666292 0.0793452 0
M  V30 1582 H 158.716 -1.85323 0.864614 0
M  V30 1583 H 156.871 -3.8185 -0.653402 0
M  V30 1584 H 157.285 -5.12026 1.13707 0
M  V30 1585 H 158.759 -5.49433 -0.531708 0
M  V30 1586 H 159.236 -4.11895 -1.52445 0
M  V30 1587 H 159.842 -4.25061 0.142562 0
M  V30 1588 N 158.157 -0.370918 -1.53173 0
M  V30 1589 C 159.107 0.489588 -2.22681 0
M  V30 1590 C 160.091 1.04442 -1.22395 0
M  V30 1591 O 161.283 0.973578 -1.47819 0
M  V30 1592 C 158.412 1.626 -3.02351 0
M  V30 1593 C 157.498 1.08379 -4.10018 0
M  V30 1594 N 157.889 0.265004 -5.05105 0
M  V30 1595 C 156.187 1.35809 -4.2482 0
M  V30 1596 C 156.888 -0.0324755 -5.81691 0
M  V30 1597 N 155.864 0.566581 -5.40639 0
M  V30 1598 H 159.666 -0.142729 -2.93553 0
M  V30 1599 H 157.18 -0.179221 -1.61408 0
M  V30 1600 H 159.177 2.2547 -3.50669 0
M  V30 1601 H 157.837 2.26132 -2.33011 0
M  V30 1602 H 158.848 -0.0962352 -5.17811 0
M  V30 1603 H 155.525 1.9958 -3.66707 0
M  V30 1604 H 156.915 -0.69473 -6.68299 0
M  V30 1605 N 159.635 1.57281 -0.100228 0
M  V30 1606 C 160.582 2.14305 0.856858 0
M  V30 1607 C 161.552 1.06296 1.27634 0
M  V30 1608 O 162.737 1.34109 1.35718 0
M  V30 1609 C 159.877 2.73184 2.10866 0
M  V30 1610 C 158.99 3.95442 1.73925 0
M  V30 1611 C 158.125 4.42468 2.93931 0
M  V30 1612 C 157.164 5.57303 2.5314 0
M  V30 1613 N 156.301 5.99158 3.65997 0
M  V30 1614 H 161.141 2.95772 0.363726 0
M  V30 1615 H 158.678 1.46139 0.167858 0
M  V30 1616 H 160.636 3.05442 2.84185 0
M  V30 1617 H 159.266 1.94437 2.57671 0
M  V30 1618 H 158.318 3.69464 0.905554 0
M  V30 1619 H 159.63 4.78769 1.39935 0
M  V30 1620 H 158.784 4.76537 3.75496 0
M  V30 1621 H 157.523 3.58052 3.31134 0
M  V30 1622 H 156.528 5.22857 1.70003 0
M  V30 1623 H 157.753 6.43471 2.17075 0
M  V30 1624 H 155.699 5.17687 4.02909 0
M  V30 1625 H 155.616 6.77295 3.35869 0
M  V30 1626 H 156.884 6.3786 4.48057 0
M  V30 1627 N 161.113 -0.173488 1.56642 0
M  V30 1628 C 162.359 -0.891784 1.8214 0
M  V30 1629 C 162.692 -1.8199 0.677736 0
M  V30 1630 O 161.967 -1.91842 -0.320446 0
M  V30 1631 C 162.25 -1.68933 3.18015 0
M  V30 1632 C 162.103 -0.784487 4.42906 0
M  V30 1633 C 163.422 -2.65748 3.50808 0
M  V30 1634 H 160.541 -0.322761 0.662567 0
M  V30 1635 H 163.183 -0.158095 1.89341 0
M  V30 1636 H 161.333 -2.31482 3.12007 0
M  V30 1637 H 163.005 -0.172046 4.60979 0
M  V30 1638 H 161.248 -0.0924117 4.33702 0
M  V30 1639 H 161.919 -1.37799 5.34524 0
M  V30 1640 H 164.395 -2.13327 3.57255 0
M  V30 1641 H 163.271 -3.18619 4.4696 0
M  V30 1642 H 163.532 -3.45842 2.75401 0
M  V30 1643 N 162.591 -1.51276 -0.441967 0
M  V30 1644 C 163.84 -1.6295 -1.18871 0
M  V30 1645 C 164.153 -0.349312 -1.92456 0
M  V30 1646 O 165.359 -0.345355 -2.69295 0
M  V30 1647 C 163.815 -2.87759 -2.16155 0
M  V30 1648 C 163.423 -4.22764 -1.48239 0
M  V30 1649 C 165.167 -3.08788 -2.91291 0
M  V30 1650 C 163.074 -5.38728 -2.4398 0
M  V30 1651 H 162.004 -0.606913 -0.447406 0
M  V30 1652 H 164.655 -1.77739 -0.456205 0
M  V30 1653 H 163.037 -2.66593 -2.92821 0
M  V30 1654 H 164.211 -4.54293 -0.771635 0
M  V30 1655 H 162.526 -4.07575 -0.852741 0
M  V30 1656 H 165.123 -3.92599 -3.63002 0
M  V30 1657 H 165.466 -2.21679 -3.5237 0
M  V30 1658 H 165.999 -3.30272 -2.21733 0
M  V30 1659 H 162.738 -6.28082 -1.87598 0
M  V30 1660 H 162.258 -5.1158 -3.13123 0
M  V30 1661 H 163.937 -5.70489 -3.05207 0
M  V30 1662 N 164.069 0.697108 -1.41344 0
M  V30 1663 C 165.48 1.27697 -1.36199 0
M  V30 1664 C 165.831 1.9615 -0.0443463 0
M  V30 1665 O 164.956 1.98689 0.857419 0
M  V30 1666 C 165.551 2.32223 -2.46694 0
M  V30 1667 C 164.11 2.8579 -2.44952 0
M  V30 1668 C 163.257 1.59807 -2.26621 0
M  V30 1669 H 166.208 0.491968 -1.50882 0
M  V30 1670 H 166.229 3.1348 -2.15664 0
M  V30 1671 H 165.741 1.82373 -3.42581 0
M  V30 1672 H 163.842 3.3982 -1.52817 0
M  V30 1673 H 163.955 3.36325 -3.41207 0
M  V30 1674 H 162.319 1.8556 -1.7447 0
M  V30 1675 H 163.102 1.11956 -3.24532 0
M  V30 1676 N 165.547 1.27147 0.931209 0
M  V30 1677 C 166.477 1.12081 2.04842 0
M  V30 1678 C 167.458 0.0232364 1.70084 0
M  V30 1679 O 168.643 0.197085 1.93197 0
M  V30 1680 C 165.773 0.76354 3.38803 0
M  V30 1681 C 164.727 1.81396 3.87659 0
M  V30 1682 C 164.053 1.31075 5.18385 0
M  V30 1683 C 165.353 3.21739 4.11438 0
M  V30 1684 H 167.047 2.05537 2.17703 0
M  V30 1685 H 164.593 0.989603 1.04608 0
M  V30 1686 H 166.546 0.644982 4.16435 0
M  V30 1687 H 165.27 -0.206727 3.25945 0
M  V30 1688 H 163.929 1.92136 3.12217 0
M  V30 1689 H 163.577 0.330037 5.01916 0
M  V30 1690 H 163.277 2.013 5.52044 0
M  V30 1691 H 164.801 1.20506 5.98591 0
M  V30 1692 H 166.215 3.14019 4.79651 0
M  V30 1693 H 164.612 3.89644 4.56397 0
M  V30 1694 H 165.682 3.67054 3.16859 0
M  V30 1695 N 167.025 -1.13721 1.09112 0
M  V30 1696 C 167.972 -2.19031 0.727591 0
M  V30 1697 C 168.942 -1.63555 -0.289656 0
M  V30 1698 O 170.127 -1.90023 -0.172026 0
M  V30 1699 C 167.267 -3.4477 0.15082 0
M  V30 1700 C 166.38 -4.14365 1.22172 0
M  V30 1701 C 165.515 -5.27709 0.608042 0
M  V30 1702 C 164.554 -5.89147 1.66047 0
M  V30 1703 N 163.691 -6.93929 1.06806 0
M  V30 1704 H 168.531 -2.49475 1.62991 0
M  V30 1705 H 166.068 -1.22499 0.81439 0
M  V30 1706 H 168.026 -4.16714 -0.201358 0
M  V30 1707 H 166.656 -3.14787 -0.714783 0
M  V30 1708 H 165.708 -3.40737 1.69122 0
M  V30 1709 H 167.02 -4.56114 2.01895 0
M  V30 1710 H 166.174 -6.06355 0.204523 0
M  V30 1711 H 164.913 -4.872 -0.220769 0
M  V30 1712 H 163.918 -5.09198 2.07357 0
M  V30 1713 H 165.143 -6.31729 2.49189 0
M  V30 1714 H 163.089 -6.55483 0.260476 0
M  V30 1715 H 163.006 -7.34202 1.8023 0
M  V30 1716 H 164.274 -7.76434 0.690644 0
M  V30 1717 N 168.503 -0.877838 -1.30888 0
M  V30 1718 C 169.751 -0.491723 -1.96027 0
M  V30 1719 C 170.072 0.960827 -1.69685 0
M  V30 1720 O 169.342 1.67462 -1.01654 0
M  V30 1721 H 167.922 -0.17885 -0.725273 0
M  V30 1722 H 170.584 -1.11935 -1.59551 0
M  V30 1723 H 169.68 -0.656016 -3.05128 0
M  V30 1724 N 169.982 1.44106 -0.638065 0
M  V30 1725 C 170.912 2.33448 0.0494287 0
M  V30 1726 C 171.893 1.48606 0.827672 0
M  V30 1727 O 173.078 1.77308 0.792173 0
M  V30 1728 C 170.208 3.31771 1.02691 0
M  V30 1729 C 169.162 4.26485 0.359823 0
M  V30 1730 C 168.488 5.14729 1.44769 0
M  V30 1731 C 169.788 5.17056 -0.738296 0
M  V30 1732 H 171.482 2.91183 -0.696636 0
M  V30 1733 H 169.028 1.40014 -0.336456 0
M  V30 1734 H 170.981 3.93161 1.51666 0
M  V30 1735 H 169.705 2.7226 1.80395 0
M  V30 1736 H 168.364 3.66437 -0.10934 0
M  V30 1737 H 168.012 4.51566 2.21578 0
M  V30 1738 H 167.712 5.78913 1.00668 0
M  V30 1739 H 169.236 5.78991 1.93911 0
M  V30 1740 H 170.65 5.72342 -0.331354 0
M  V30 1741 H 169.047 5.89879 -1.10286 0
M  V30 1742 H 170.117 4.57652 -1.60258 0
M  V30 1743 N 171.46 0.379036 1.52974 0
M  V30 1744 C 172.706 -0.199244 2.02422 0
M  V30 1745 C 173.061 -1.4532 1.26095 0
M  V30 1746 O 172.354 -1.88377 0.34996 0
M  V30 1747 C 172.548 -0.53096 3.53434 0
M  V30 1748 C 172.377 0.689298 4.44386 0
M  V30 1749 C 171.147 1.20546 4.9071 0
M  V30 1750 C 173.345 1.55856 4.90116 0
M  V30 1751 N 171.327 2.38434 5.65705 0
M  V30 1752 C 172.698 2.58396 5.63588 0
M  V30 1753 C 174.753 1.57986 4.7217 0
M  V30 1754 C 173.456 3.62939 6.21022 0
M  V30 1755 C 175.482 2.6143 5.30479 0
M  V30 1756 C 174.844 3.62693 6.03849 0
M  V30 1757 H 170.943 -0.0352671 0.781204 0
M  V30 1758 H 173.527 0.526614 1.87443 0
M  V30 1759 H 171.698 -1.22588 3.68547 0
M  V30 1760 H 173.43 -1.0955 3.89591 0
M  V30 1761 H 170.185 0.768022 4.67331 0
M  V30 1762 H 170.609 2.98055 6.07859 0
M  V30 1763 H 175.251 0.810475 4.14959 0
M  V30 1764 H 172.969 4.40751 6.77321 0
M  V30 1765 H 176.555 2.63949 5.18481 0
M  V30 1766 H 175.435 4.41424 6.48163 0
M  V30 1767 N 172.938 -1.57226 0.108567 0
M  V30 1768 C 173.848 -2.18292 -0.859401 0
M  V30 1769 C 174.864 -1.15612 -1.30038 0
M  V30 1770 O 176.04 -1.48039 -1.36552 0
M  V30 1771 C 173.105 -2.762 -2.09558 0
M  V30 1772 C 172.166 -3.93881 -1.70752 0
M  V30 1773 C 171.399 -4.49018 -2.88477 0
M  V30 1774 O 171.622 -4.03068 -4.036 0
M  V30 1775 O 170.556 -5.39852 -2.66164 0
M  V30 1776 H 174.382 -3.01441 -0.369769 0
M  V30 1777 H 171.967 -1.48945 -0.1165 0
M  V30 1778 H 173.849 -3.13156 -2.81978 0
M  V30 1779 H 172.524 -1.96089 -2.57548 0
M  V30 1780 H 171.431 -3.61713 -0.954714 0
M  V30 1781 H 172.764 -4.75396 -1.27513 0
M  V30 1782 N 174.416 0.165178 -1.56732 0
M  V30 1783 C 175.693 0.908443 -1.73224 0
M  V30 1784 C 176.073 2.0013 -0.67165 0
M  V30 1785 O 175.421 2.26353 0.31253 0
M  V30 1786 C 175.631 1.46756 -3.16644 0
M  V30 1787 C 176.979 1.93809 -3.77787 0
M  V30 1788 O 178.003 1.56537 -3.1996 0
M  V30 1789 O 176.862 2.62486 -4.79336 0
M  V30 1790 H 173.956 0.428025 -0.707618 0
M  V30 1791 H 176.502 0.152526 -1.69013 0
M  V30 1792 H 175.274 0.68129 -3.85323 0
M  V30 1793 H 174.897 2.28749 -3.25207 0
M  V30 1794 N 175.894 1.51508 0.433938 0
M  V30 1795 C 177.14 1.64588 1.18484 0
M  V30 1796 C 177.473 0.362666 1.90784 0
M  V30 1797 O 176.748 -0.637892 1.83742 0
M  V30 1798 C 177.031 2.85149 2.19913 0
M  V30 1799 C 176.884 4.23456 1.51674 0
M  V30 1800 C 178.203 3.01227 3.20858 0
M  V30 1801 H 175.322 0.598994 0.429389 0
M  V30 1802 H 177.964 1.84002 0.473647 0
M  V30 1803 H 176.114 2.68729 2.80566 0
M  V30 1804 H 177.786 4.51552 0.943322 0
M  V30 1805 H 176.029 4.25998 0.819035 0
M  V30 1806 H 176.7 5.03812 2.2556 0
M  V30 1807 H 179.176 3.16382 2.70263 0
M  V30 1808 H 178.052 3.87141 3.89118 0
M  V30 1809 H 178.313 2.13447 3.8716 0
M  V30 1810 N 177.372 -0.689602 1.41712 0
M  V30 1811 C 178.335 -1.78521 1.43746 0
M  V30 1812 C 179.335 -1.57436 0.327191 0
M  V30 1813 O 180.525 -1.64 0.587348 0
M  V30 1814 C 177.657 -3.16971 1.25467 0
M  V30 1815 H 178.85 -1.78108 2.41283 0
M  V30 1816 H 176.403 -0.89781 1.27942 0
M  V30 1817 H 177.138 -3.23019 0.287948 0
M  V30 1818 H 176.923 -3.33678 2.05917 0
M  V30 1819 H 178.413 -3.96935 1.2974 0
M  V30 1820 N 178.85 -1.27639 -0.924453 0
M  V30 1821 C 180.261 -1.12834 -1.48746 0
M  V30 1822 C 180.612 0.285505 -1.94112 0
M  V30 1823 O 179.737 1.17874 -1.81479 0
M  V30 1824 C 180.332 -2.04217 -2.70334 0
M  V30 1825 C 178.891 -1.93509 -3.22848 0
M  V30 1826 C 178.038 -1.96583 -1.95577 0
M  V30 1827 H 180.989 -1.40484 -0.738233 0
M  V30 1828 H 181.01 -1.59989 -3.4523 0
M  V30 1829 H 180.522 -3.07111 -2.37285 0
M  V30 1830 H 178.623 -0.936131 -3.60649 0
M  V30 1831 H 178.736 -2.79917 -3.88823 0
M  V30 1832 H 177.1 -1.4085 -2.12211 0
M  V30 1833 H 177.883 -3.01137 -1.64837 0
M  V30 1834 N 180.328 1.1314 -1.09713 0
M  V30 1835 C 181.556 1.88321 -0.856898 0
M  V30 1836 C 181.971 1.79276 0.592073 0
M  V30 1837 O 181.328 1.16142 1.40774 0
M  V30 1838 C 181.379 3.37812 -1.28706 0
M  V30 1839 O 181.1 3.46627 -2.67921 0
M  V30 1840 C 182.601 4.29952 -1.07964 0
M  V30 1841 H 179.821 0.596094 -0.308079 0
M  V30 1842 H 182.365 1.43205 -1.45988 0
M  V30 1843 H 180.52 3.805 -0.727912 0
M  V30 1844 H 180.934 4.39579 -2.8613 0
M  V30 1845 H 182.408 5.33159 -1.42986 0
M  V30 1846 H 182.885 4.39196 -0.0176577 0
M  V30 1847 H 183.491 3.93036 -1.62489 0
M  V30 1848 N 181.806 0.884767 1.30421 0
M  V30 1849 C 182.736 0.367574 2.30589 0
M  V30 1850 C 183.717 -0.549464 1.60981 0
M  V30 1851 O 184.902 -0.46336 1.88591 0
M  V30 1852 C 182.032 -0.418944 3.44764 0
M  V30 1853 C 180.986 0.406316 4.26067 0
M  V30 1854 C 180.312 -0.506793 5.32293 0
M  V30 1855 C 181.612 1.64832 4.95608 0
M  V30 1856 H 183.306 1.20462 2.74097 0
M  V30 1857 H 180.852 0.580695 1.31772 0
M  V30 1858 H 182.805 -0.791395 4.13902 0
M  V30 1859 H 181.529 -1.28964 3.0006 0
M  V30 1860 H 180.188 0.760903 3.58617 0
M  V30 1861 H 179.836 -1.37519 4.83836 0
M  V30 1862 H 179.536 0.0415828 5.87585 0
M  V30 1863 H 181.06 -0.875764 6.04287 0
M  V30 1864 H 182.474 1.34646 5.57264 0
M  V30 1865 H 180.871 2.13688 5.60765 0
M  V30 1866 H 181.941 2.39284 4.21748 0
M  V30 1867 N 183.284 -1.43765 0.645699 0
M  V30 1868 C 184.695 -1.85193 0.236719 0
M  V30 1869 C 185.046 -1.54045 -1.21509 0
M  V30 1870 O 184.171 -0.985694 -1.92647 0
M  V30 1871 C 184.766 -3.36151 0.422845 0
M  V30 1872 C 183.325 -3.76338 0.0682492 0
M  V30 1873 C 182.472 -2.67538 0.729306 0
M  V30 1874 H 185.423 -1.34025 0.849883 0
M  V30 1875 H 185.444 -3.79032 -0.333904 0
M  V30 1876 H 184.956 -3.5879 1.47958 0
M  V30 1877 H 183.057 -3.59312 -0.986179 0
M  V30 1878 H 183.17 -4.76603 0.488469 0
M  V30 1879 H 181.534 -2.54176 0.163235 0
M  V30 1880 H 182.317 -2.93006 1.78892 0
M  V30 1881 N 184.763 -0.387143 -1.52771 0
M  V30 1882 C 186.04 0.253197 -1.93954 0
M  V30 1883 C 186.42 1.64545 -1.32243 0
M  V30 1884 O 185.768 2.23191 -0.489699 0
M  V30 1885 C 185.978 0.281722 -3.47861 0
M  V30 1886 C 187.326 0.511715 -4.21505 0
M  V30 1887 O 188.35 0.362023 -3.54356 0
M  V30 1888 O 187.209 0.804847 -5.40541 0
M  V30 1889 H 184.303 0.156845 -0.811991 0
M  V30 1890 H 186.849 -0.441494 -1.63856 0
M  V30 1891 H 185.621 -0.693571 -3.85104 0
M  V30 1892 H 185.244 1.02142 -3.84256 0
M  V30 1893 N 186.241 1.57166 -0.116904 0
M  V30 1894 C 187.489 1.94737 0.540533 0
M  V30 1895 C 187.81 1.00096 1.67349 0
M  V30 1896 O 187.08 0.0568854 1.95817 0
M  V30 1897 H 185.66 0.718981 0.202669 0
M  V30 1898 H 188.322 1.94017 -0.185353 0
M  V30 1899 H 187.418 2.97719 0.936483 0
M  V30 1900 N 187.719 -0.156864 1.56817 0
M  V30 1901 C 188.669 -1.19891 1.93934 0
M  V30 1902 C 189.653 -1.39061 0.809372 0
M  V30 1903 O 190.845 -1.40789 1.07273 0
M  V30 1904 C 187.974 -2.53493 2.31508 0
M  V30 1905 C 187.06 -2.37957 3.51052 0
M  V30 1906 N 187.451 -1.92158 4.67877 0
M  V30 1907 C 185.749 -2.68739 3.55943 0
M  V30 1908 C 186.45 -1.8943 5.49992 0
M  V30 1909 N 185.426 -2.32375 4.91429 0
M  V30 1910 H 189.228 -0.836746 2.81737 0
M  V30 1911 H 186.742 -0.365012 1.58245 0
M  V30 1912 H 188.739 -3.28811 2.56299 0
M  V30 1913 H 187.399 -2.905 1.45051 0
M  V30 1914 H 188.41 -1.62274 4.91821 0
M  V30 1915 H 185.087 -3.09687 2.80001 0
M  V30 1916 H 186.477 -1.55596 6.53636 0
M  V30 1917 N 189.197 -1.51736 -0.425897 0
M  V30 1918 C 190.444 -1.6497 -1.17436 0
M  V30 1919 C 190.772 -0.371445 -1.9092 0
M  V30 1920 O 190.027 0.644963 -1.84767 0
M  V30 1921 C 190.326 -2.81103 -2.20717 0
M  V30 1922 C 189.992 -4.19954 -1.64162 0
M  V30 1923 C 188.654 -4.57725 -1.48462 0
M  V30 1924 C 191.006 -5.06552 -1.22696 0
M  V30 1925 C 188.334 -5.79789 -0.897873 0
M  V30 1926 C 190.686 -6.29205 -0.654464 0
M  V30 1927 C 189.35 -6.6574 -0.484456 0
M  V30 1928 H 188.62 -0.603668 -0.429727 0
M  V30 1929 H 191.267 -1.85798 -0.463829 0
M  V30 1930 H 189.572 -2.54542 -2.97852 0
M  V30 1931 H 191.269 -2.8854 -2.78471 0
M  V30 1932 H 187.859 -3.90181 -1.77361 0
M  V30 1933 H 192.043 -4.77968 -1.33642 0
M  V30 1934 H 187.299 -6.06733 -0.75402 0
M  V30 1935 H 191.473 -6.95643 -0.324694 0
M  V30 1936 H 189.1 -7.60195 -0.0276833 0
M  V30 1937 N 190.675 0.682077 -1.42076 0
M  V30 1938 C 191.952 1.43755 -1.32642 0
M  V30 1939 C 192.332 2.11063 0.0396611 0
M  V30 1940 O 191.68 2.02701 1.05474 0
M  V30 1941 C 191.89 2.44596 -2.48946 0
M  V30 1942 C 193.238 3.09454 -2.9073 0
M  V30 1943 O 194.262 2.54922 -2.48783 0
M  V30 1944 O 193.121 4.08253 -3.63307 0
M  V30 1945 H 190.215 0.640857 -0.522715 0
M  V30 1946 H 192.761 0.711415 -1.54068 0
M  V30 1947 H 191.533 1.93609 -3.40046 0
M  V30 1948 H 191.156 3.24701 -2.29467 0
M  V30 1949 N 192.153 1.28127 0.917671 0
M  V30 1950 C 193.401 1.14825 1.66312 0
M  V30 1951 C 193.722 -0.304379 1.9261 0
M  V30 1952 O 192.992 -1.21149 1.53947 0
M  V30 1953 H 191.572 0.421953 0.616413 0
M  V30 1954 H 194.234 1.608 1.10134 0
M  V30 1955 H 193.33 1.68489 2.62712 0
M  V30 1956 N 193.631 -1.12557 1.10312 0
M  V30 1957 C 194.88 -1.83395 0.839588 0
M  V30 1958 C 195.193 -1.84939 -0.636929 0
M  V30 1959 O 196.399 -2.51761 -1.01631 0
M  V30 1960 C 194.855 -3.29303 1.45215 0
M  V30 1961 C 194.463 -3.36122 2.96186 0
M  V30 1962 C 196.207 -4.05121 1.26796 0
M  V30 1963 C 194.114 -4.76357 3.50483 0
M  V30 1964 H 193.044 -0.687133 0.310425 0
M  V30 1965 H 195.695 -1.26746 1.32694 0
M  V30 1966 H 194.077 -3.85812 0.892469 0
M  V30 1967 H 195.251 -2.89559 3.58458 0
M  V30 1968 H 193.566 -2.73776 3.13745 0
M  V30 1969 H 196.163 -5.08668 1.64806 0
M  V30 1970 H 196.506 -4.15773 0.209409 0
M  V30 1971 H 197.039 -3.54967 1.79563 0
M  V30 1972 H 193.778 -4.70899 4.55998 0
M  V30 1973 H 193.298 -5.23377 2.92978 0
M  V30 1974 H 194.977 -5.45294 3.48228 0
M  V30 1975 N 195.109 -0.891671 -1.2995 0
M  V30 1976 C 196.039 -0.379797 -2.30391 0
M  V30 1977 C 197.02 0.540919 -1.6127 0
M  V30 1978 O 198.205 0.453352 -1.88834 0
M  V30 1979 C 195.335 0.400654 -3.44981 0
M  V30 1980 C 194.289 -0.428905 -4.25846 0
M  V30 1981 C 193.615 0.478557 -5.32554 0
M  V30 1982 C 194.915 -1.67458 -4.94727 0
M  V30 1983 H 196.609 -1.21914 -2.73454 0
M  V30 1984 H 194.155 -0.587675 -1.31462 0
M  V30 1985 H 196.108 0.769434 -4.14316 0
M  V30 1986 H 194.832 1.27371 -3.0074 0
M  V30 1987 H 193.491 -0.779911 -3.58208 0
M  V30 1988 H 193.139 1.34951 -4.84559 0
M  V30 1989 H 192.839 -0.0727433 -5.87555 0
M  V30 1990 H 194.363 0.843705 -6.04743 0
M  V30 1991 H 195.777 -1.376 -5.56542 0
M  V30 1992 H 194.174 -2.16659 -5.59624 0
M  V30 1993 H 195.244 -2.41518 -4.20473 0
M  V30 1994 N 196.587 1.43421 -0.653314 0
M  V30 1995 C 197.817 2.05864 -0.174238 0
M  V30 1996 C 198.225 1.49052 1.16534 0
M  V30 1997 O 197.568 0.616481 1.73047 0
M  V30 1998 C 197.63 3.59499 -0.00875873 0
M  V30 1999 C 197.294 4.38893 -1.27364 0
M  V30 2000 C 198.291 4.70947 -2.20239 0
M  V30 2001 C 195.976 4.789 -1.51525 0
M  V30 2002 C 197.97 5.41916 -3.35568 0
M  V30 2003 C 195.657 5.49614 -2.67147 0
M  V30 2004 C 196.655 5.81044 -3.58994 0
M  V30 2005 O 196.343 6.50313 -4.72597 0
M  V30 2006 H 196.075 0.670345 -0.0872549 0
M  V30 2007 H 198.629 1.84913 -0.894226 0
M  V30 2008 H 196.859 3.79025 0.7666 0
M  V30 2009 H 198.548 4.0364 0.427687 0
M  V30 2010 H 199.314 4.40558 -2.02815 0
M  V30 2011 H 195.193 4.53843 -0.809158 0
M  V30 2012 H 198.737 5.66365 -4.07279 0
M  V30 2013 H 194.634 5.79419 -2.84505 0
M  V30 2014 H 195.402 6.68795 -4.71864 0
M  V30 2015 N 198.065 0.39524 1.52563 0
M  V30 2016 C 199.342 -0.242908 1.94086 0
M  V30 2017 C 199.722 -1.63841 1.33114 0
M  V30 2018 O 199.07 -2.22928 0.501529 0
M  V30 2019 C 199.28 -0.26327 3.48006 0
M  V30 2020 C 200.628 -0.489354 4.21771 0
M  V30 2021 O 201.652 -0.343226 3.54543 0
M  V30 2022 O 200.511 -0.776169 5.4096 0
M  V30 2023 H 197.605 -0.152536 0.812811 0
M  V30 2024 H 200.151 0.450178 1.6362 0
M  V30 2025 H 198.923 0.713985 3.84731 0
M  V30 2026 H 198.546 -1.00103 3.84792 0
M  V30 2027 N 199.544 -1.57102 0.125237 0
M  V30 2028 C 200.772 -1.99761 -0.538797 0
M  V30 2029 C 201.187 -1.00503 -1.59827 0
M  V30 2030 O 200.544 0.00119474 -1.825 0
M  V30 2031 C 200.595 -3.42408 -1.15927 0
M  V30 2032 O 200.316 -4.37869 -0.142143 0
M  V30 2033 C 201.817 -4.00232 -1.90602 0
M  V30 2034 H 199.037 -0.655772 -0.14214 0
M  V30 2035 H 201.581 -2.03383 0.213413 0
M  V30 2036 H 199.736 -3.39706 -1.86223 0
M  V30 2037 H 200.15 -5.21128 -0.593775 0
M  V30 2038 H 201.624 -5.02105 -2.29335 0
M  V30 2039 H 202.101 -3.39721 -2.78363 0
M  V30 2040 H 202.707 -4.06499 -1.25055 0
M  V30 2041 N 201.022 0.148545 -1.56898 0
M  V30 2042 C 202.252 0.875118 -1.8715 0
M  V30 2043 C 202.66 1.75322 -0.711262 0
M  V30 2044 O 202.003 1.80745 0.328151 0
M  V30 2045 C 202.065 1.7844 -3.12089 0
M  V30 2046 C 201.729 1.08361 -4.43967 0
M  V30 2047 C 202.726 0.438247 -5.1805 0
M  V30 2048 C 200.411 1.07358 -4.90693 0
M  V30 2049 C 202.405 -0.20779 -6.37061 0
M  V30 2050 C 200.092 0.42373 -6.09629 0
M  V30 2051 C 201.09 -0.215829 -6.82659 0
M  V30 2052 O 200.778 -0.855378 -7.99336 0
M  V30 2053 H 200.51 0.258504 -0.624621 0
M  V30 2054 H 203.064 0.14652 -2.04877 0
M  V30 2055 H 201.294 2.55389 -2.90367 0
M  V30 2056 H 202.983 2.38279 -3.286 0
M  V30 2057 H 203.749 0.437817 -4.8302 0
M  V30 2058 H 199.628 1.5608 -4.33774 0
M  V30 2059 H 203.172 -0.70758 -6.94002 0
M  V30 2060 H 199.069 0.421822 -6.4412 0
M  V30 2061 H 199.837 -0.756892 -8.14993 0
M  V30 2062 N 202.5 1.5196 0.417844 0
M  V30 2063 C 203.911 1.57851 0.997 0
M  V30 2064 C 204.262 0.413714 1.91789 0
M  V30 2065 O 203.387 -0.467057 2.113 0
M  V30 2066 C 203.982 2.86085 1.81496 0
M  V30 2067 C 202.541 2.94483 2.34428 0
M  V30 2068 C 201.688 2.52707 1.14169 0
M  V30 2069 H 204.639 1.57455 0.198392 0
M  V30 2070 H 204.66 2.70947 2.67148 0
M  V30 2071 H 204.172 3.70842 1.14446 0
M  V30 2072 H 202.273 2.142 3.04875 0
M  V30 2073 H 202.386 3.98546 2.65891 0
M  V30 2074 H 200.75 2.06353 1.49301 0
M  V30 2075 H 201.533 3.39828 0.486999 0
M  V30 2076 N 203.978 -0.674533 1.42435 0
M  V30 2077 C 204.908 -1.80009 1.48724 0
M  V30 2078 C 205.889 -1.6659 0.343793 0
M  V30 2079 O 207.074 -1.86007 0.558137 0
M  V30 2080 C 204.204 -3.18306 1.38919 0
M  V30 2081 C 203.158 -3.46461 2.51294 0
M  V30 2082 C 202.484 -4.84335 2.26547 0
M  V30 2083 C 203.784 -3.43328 3.93603 0
M  V30 2084 H 205.478 -1.75004 2.42928 0
M  V30 2085 H 203.024 -0.840533 1.16923 0
M  V30 2086 H 204.977 -3.9678 1.41927 0
M  V30 2087 H 203.701 -3.2399 0.412094 0
M  V30 2088 H 202.36 -2.70348 2.47604 0
M  V30 2089 H 202.008 -4.86669 1.2713 0
M  V30 2090 H 201.708 -5.04136 3.01861 0
M  V30 2091 H 203.232 -5.65094 2.31304 0
M  V30 2092 H 204.646 -4.11772 3.98894 0
M  V30 2093 H 203.043 -3.74664 4.68771 0
M  V30 2094 H 204.113 -2.41897 4.20255 0
M  V30 2095 N 205.456 -1.28612 -0.910864 0
M  V30 2096 C 206.681 -1.1891 -1.69927 0
M  V30 2097 C 207.106 0.248372 -1.86453 0
M  V30 2098 O 206.464 1.17961 -1.37676 0
M  V30 2099 C 206.512 -1.89578 -3.06745 0
M  V30 2100 O 205.616 -1.20521 -3.94396 0
M  V30 2101 H 204.957 -0.412632 -0.520222 0
M  V30 2102 H 207.487 -1.69985 -1.1387 0
M  V30 2103 H 207.497 -1.97597 -3.56958 0
M  V30 2104 H 206.172 -2.94136 -2.94035 0
M  V30 2105 H 204.749 -1.20684 -3.52831 0
M  V30 2106 N 206.934 1.1197 -1.10907 0
M  V30 2107 C 207.844 2.21433 -0.774896 0
M  V30 2108 C 208.86 1.72478 0.229657 0
M  V30 2109 O 210.036 2.01288 0.0672008 0
M  V30 2110 C 207.101 3.4602 -0.216986 0
M  V30 2111 C 206.162 4.09791 -1.27944 0
M  V30 2112 C 205.395 5.28431 -0.748055 0
M  V30 2113 O 205.618 5.68823 0.423833 0
M  V30 2114 O 204.552 5.82644 -1.51027 0
M  V30 2115 H 208.378 2.5242 -1.68873 0
M  V30 2116 H 205.963 1.20399 -0.884555 0
M  V30 2117 H 207.845 4.21304 0.090059 0
M  V30 2118 H 206.52 3.16698 0.669633 0
M  V30 2119 H 205.427 3.36265 -1.63941 0
M  V30 2120 H 206.76 4.4328 -2.13925 0
M  V30 2121 N 208.412 0.89855 1.29475 0
M  V30 2122 C 209.322 0.379974 2.31502 0
M  V30 2123 C 210.338 -0.524695 1.659 0
M  V30 2124 O 211.514 -0.414551 1.97087 0
M  V30 2125 C 208.579 -0.385138 3.44554 0
M  V30 2126 C 207.64 0.550914 4.2575 0
M  V30 2127 C 206.873 -0.177778 5.33404 0
M  V30 2128 O 207.096 -1.40189 5.52904 0
M  V30 2129 O 206.03 0.479106 5.9999 0
M  V30 2130 H 209.856 1.22639 2.77837 0
M  V30 2131 H 207.441 0.662834 1.33891 0
M  V30 2132 H 209.323 -0.817841 4.13388 0
M  V30 2133 H 207.998 -1.20763 3.0033 0
M  V30 2134 H 206.905 1.03271 3.59564 0
M  V30 2135 H 208.238 1.33979 4.73614 0
M  V30 2136 N 209.89 -1.43072 0.660911 0
M  V30 2137 C 211.118 -2.06067 0.185422 0
M  V30 2138 C 211.533 -1.49582 -1.15198 0
M  V30 2139 O 210.89 -0.630134 -1.71276 0
M  V30 2140 C 210.941 -3.61371 0.0966523 0
M  V30 2141 O 210.662 -4.15758 1.38119 0
M  V30 2142 C 212.163 -4.41455 -0.403996 0
M  V30 2143 H 209.383 -0.664459 0.0934604 0
M  V30 2144 H 211.927 -1.83447 0.90373 0
M  V30 2145 H 210.082 -3.8315 -0.572259 0
M  V30 2146 H 210.496 -5.09499 1.24542 0
M  V30 2147 H 211.97 -5.50437 -0.415045 0
M  V30 2148 H 212.447 -4.15036 -1.43674 0
M  V30 2149 H 213.053 -4.24663 0.232691 0
M  V30 2150 N 211.368 -0.403325 -1.52352 0
M  V30 2151 C 212.614 0.167015 -2.02713 0
M  V30 2152 C 212.969 1.43296 -1.28391 0
M  V30 2153 O 212.262 1.87796 -0.379885 0
M  V30 2154 C 212.456 0.474665 -3.54234 0
M  V30 2155 C 212.285 -0.759909 -4.43233 0
M  V30 2156 C 211.055 -1.28338 -4.88731 0
M  V30 2157 C 213.253 -1.63634 -4.87574 0
M  V30 2158 N 211.235 -2.47404 -5.6184 0
M  V30 2159 C 212.606 -2.67329 -5.59406 0
M  V30 2160 C 214.661 -1.65478 -4.69597 0
M  V30 2161 C 213.364 -3.72773 -6.15169 0
M  V30 2162 C 215.39 -2.69837 -5.26253 0
M  V30 2163 C 214.752 -3.72253 -5.98002 0
M  V30 2164 H 210.851 0.0228343 -0.781667 0
M  V30 2165 H 213.435 -0.556368 -1.86581 0
M  V30 2166 H 211.606 1.16709 -3.7045 0
M  V30 2167 H 213.338 1.03338 -3.91284 0
M  V30 2168 H 210.093 -0.842273 -4.6605 0
M  V30 2169 H 210.517 -3.07688 -6.0304 0
M  V30 2170 H 215.159 -0.876389 -4.13617 0
M  V30 2171 H 212.877 -4.51471 -6.70223 0
M  V30 2172 H 216.463 -2.72164 -5.14216 0
M  V30 2173 H 215.343 -4.51679 -6.41058 0
M  V30 2174 N 212.846 1.57033 -0.133567 0
M  V30 2175 C 213.796 2.12641 0.822671 0
M  V30 2176 C 214.78 1.05081 1.21847 0
M  V30 2177 O 215.972 1.31287 1.18713 0
M  V30 2178 C 213.101 2.74094 2.06706 0
M  V30 2179 C 212.187 3.88757 1.69497 0
M  V30 2180 N 212.578 4.95194 1.03037 0
M  V30 2181 C 210.876 3.99213 1.98859 0
M  V30 2182 C 211.577 5.75414 0.852873 0
M  V30 2183 N 210.553 5.25726 1.3825 0
M  V30 2184 H 214.355 2.92308 0.305537 0
M  V30 2185 H 211.869 1.62256 0.0684276 0
M  V30 2186 H 213.866 3.12285 2.76195 0
M  V30 2187 H 212.526 1.95896 2.5895 0
M  V30 2188 H 213.537 5.13247 0.692669 0
M  V30 2189 H 210.214 3.32075 2.53047 0
M  V30 2190 H 211.604 6.71089 0.330091 0
M  V30 2191 N 214.325 -0.140222 1.56975 0
M  V30 2192 C 215.553 -0.866437 1.87884 0
M  V30 2193 C 215.968 -1.74428 0.722517 0
M  V30 2194 O 215.325 -1.79891 -0.30749 0
M  V30 2195 C 215.376 -1.71753 3.18093 0
M  V30 2196 O 215.097 -0.875056 4.29272 0
M  V30 2197 C 216.598 -2.55074 3.62563 0
M  V30 2198 H 213.818 -0.25019 0.622612 0
M  V30 2199 H 216.362 -0.130977 2.0408 0
M  V30 2200 H 214.517 -2.40598 3.03631 0
M  V30 2201 H 214.931 -1.46002 5.03769 0
M  V30 2202 H 216.405 -3.10356 4.5649 0
M  V30 2203 H 216.882 -3.31434 2.88181 0
M  V30 2204 H 217.488 -1.91509 3.79743 0
M  V30 2205 N 215.803 -1.52179 -0.40978 0
M  V30 2206 C 216.753 -1.71857 -1.49831 0
M  V30 2207 C 217.737 -0.572469 -1.50372 0
M  V30 2208 O 218.929 -0.829509 -1.56359 0
M  V30 2209 C 216.058 -1.87206 -2.87765 0
M  V30 2210 C 215.144 -3.07685 -2.91875 0
M  V30 2211 N 215.535 -4.30403 -2.65683 0
M  V30 2212 C 213.833 -3.07505 -3.23043 0
M  V30 2213 C 214.534 -5.11868 -2.76344 0
M  V30 2214 N 213.51 -4.47101 -3.09195 0
M  V30 2215 H 217.312 -2.64381 -1.28375 0
M  V30 2216 H 214.826 -1.50203 -0.617479 0
M  V30 2217 H 216.823 -1.99419 -3.66111 0
M  V30 2218 H 215.483 -0.958814 -3.10221 0
M  V30 2219 H 216.494 -4.58887 -2.4009 0
M  V30 2220 H 213.171 -2.25915 -3.51096 0
M  V30 2221 H 214.561 -6.19634 -2.59814 0
M  V30 2222 N 217.281 0.66697 -1.42791 0
M  V30 2223 C 218.213 1.7925 -1.42836 0
M  V30 2224 C 219.226 1.59496 -0.326333 0
M  V30 2225 O 220.415 1.6847 -0.589916 0
M  V30 2226 C 217.515 3.16476 -1.21229 0
M  V30 2227 C 216.688 3.63011 -2.44013 0
M  V30 2228 C 215.747 4.78993 -2.17834 0
M  V30 2229 O 214.773 4.89137 -2.91091 0
M  V30 2230 N 215.975 5.68248 -1.18635 0
M  V30 2231 H 218.74 1.79695 -2.39854 0
M  V30 2232 H 216.301 0.850338 -1.37771 0
M  V30 2233 H 218.293 3.91734 -1.01621 0
M  V30 2234 H 216.863 3.10884 -0.32706 0
M  V30 2235 H 216.083 2.78346 -2.79137 0
M  V30 2236 H 217.371 3.90845 -3.25757 0
M  V30 2237 H 216.769 5.62712 -0.580615 0
M  V30 2238 H 215.326 6.43285 -1.05013 0
M  V30 2239 N 218.759 1.29093 0.90403 0
M  V30 2240 C 220.006 1.16813 1.65411 0
M  V30 2241 C 220.334 -0.28128 1.92455 0
M  V30 2242 O 219.589 -1.22006 1.53013 0
M  V30 2243 C 219.888 1.92224 3.01305 0
M  V30 2244 C 219.554 3.41968 2.93885 0
M  V30 2245 C 218.216 3.82807 2.91569 0
M  V30 2246 C 220.568 4.37409 2.83413 0
M  V30 2247 C 217.896 5.1741 2.76594 0
M  V30 2248 C 220.248 5.72097 2.69977 0
M  V30 2249 C 218.912 6.12199 2.66024 0
M  V30 2250 H 218.182 0.42745 0.605283 0
M  V30 2251 H 220.829 1.59981 1.05254 0
M  V30 2252 H 219.134 1.41635 3.65304 0
M  V30 2253 H 220.831 1.80131 3.58265 0
M  V30 2254 H 217.421 3.09504 2.96488 0
M  V30 2255 H 221.605 4.06813 2.84283 0
M  V30 2256 H 216.861 5.47596 2.71935 0
M  V30 2257 H 221.035 6.45704 2.60844 0
M  V30 2258 H 218.662 7.16448 2.54178 0
M  V30 2259 N 220.237 -1.11381 1.11499 0
M  V30 2260 C 221.185 -2.19522 0.768956 0
M  V30 2261 C 222.179 -1.67693 -0.239857 0
M  V30 2262 O 223.385 -1.79727 -0.0990755 0
M  V30 2263 H 219.76 -0.715711 0.230786 0
M  V30 2264 H 221.731 -2.45954 1.68964 0
M  V30 2265 C 220.48 -3.46945 0.229073 0
M  V30 2266 H 219.803 -3.8718 0.996596 0
M  V30 2267 H 221.243 -4.23993 0.0251441 0
M  V30 2268 C 219.702 -3.2042 -1.04079 0
M  V30 2269 O 220.232 -3.41178 -2.12038 0
M  V30 2270 N 218.438 -2.74151 -0.963823 0
M  V30 2271 H 217.985 -2.57459 -0.0851722 0
M  V30 2272 H 217.943 -2.56781 -1.81414 0
M  V30 2273 N 221.715 -0.905404 -1.28997 0
M  V30 2274 C 222.962 -0.534248 -1.95325 0
M  V30 2275 C 223.29 0.920535 -1.71337 0
M  V30 2276 O 222.545 1.66861 -1.02254 0
M  V30 2277 C 222.844 -0.779906 -3.48787 0
M  V30 2278 C 222.51 -2.21293 -3.92861 0
M  V30 2279 C 221.172 -2.60475 -4.04606 0
M  V30 2280 C 223.524 -3.14587 -4.15553 0
M  V30 2281 C 220.852 -3.9212 -4.36416 0
M  V30 2282 C 223.204 -4.45787 -4.48839 0
M  V30 2283 C 221.868 -4.84834 -4.58794 0
M  V30 2284 H 221.138 -0.195495 -0.714747 0
M  V30 2285 H 223.785 -1.14514 -1.53488 0
M  V30 2286 H 222.09 -0.0861365 -3.91705 0
M  V30 2287 H 223.787 -0.472029 -3.98212 0
M  V30 2288 H 220.377 -1.89887 -3.84241 0
M  V30 2289 H 224.561 -2.85528 -4.0594 0
M  V30 2290 H 219.817 -4.22086 -4.42327 0
M  V30 2291 H 223.991 -5.18098 -4.65346 0
M  V30 2292 H 221.618 -5.86877 -4.83197 0
M  V30 2293 N 223.193 1.4272 -0.668489 0
M  V30 2294 C 224.442 2.00846 -0.185389 0
M  V30 2295 C 224.755 1.53442 1.21305 0
M  V30 2296 O 225.961 2.03944 1.79218 0
M  V30 2297 C 224.417 3.58805 -0.280591 0
M  V30 2298 C 224.025 4.15198 -1.68268 0
M  V30 2299 C 225.769 4.24255 0.14412 0
M  V30 2300 C 223.676 5.655 -1.73099 0
M  V30 2301 H 222.606 0.751145 -0.0655475 0
M  V30 2302 H 225.257 1.63516 -0.832752 0
M  V30 2303 H 223.639 3.93608 0.434553 0
M  V30 2304 H 224.813 3.91866 -2.42441 0
M  V30 2305 H 223.128 3.62176 -2.05469 0
M  V30 2306 H 225.725 5.34547 0.128086 0
M  V30 2307 H 226.068 3.99277 1.17827 0
M  V30 2308 H 226.601 3.94389 -0.519798 0
M  V30 2309 H 223.34 5.95268 -2.74475 0
M  V30 2310 H 222.86 5.90842 -1.03274 0
M  V30 2311 H 224.539 6.29808 -1.48158 0
M  V30 2312 N 224.671 0.411399 1.52136 0
M  V30 2313 C 225.618 -0.412975 2.27075 0
M  V30 2314 C 226.588 -1.03912 1.29582 0
M  V30 2315 O 227.773 -1.06296 1.58448 0
M  V30 2316 C 224.913 -1.52247 3.09701 0
M  V30 2317 C 224.026 -0.917021 4.22155 0
M  V30 2318 C 223.161 -1.9994 4.92135 0
M  V30 2319 C 222.2 -1.37101 5.96548 0
M  V30 2320 N 221.337 -2.39364 6.60038 0
M  V30 2321 H 226.177 0.232499 2.97092 0
M  V30 2322 H 223.714 0.126496 1.46555 0
M  V30 2323 H 225.672 -2.17674 3.55913 0
M  V30 2324 H 224.302 -2.13794 2.41851 0
M  V30 2325 H 223.354 -0.151742 3.80097 0
M  V30 2326 H 224.666 -0.418006 4.97045 0
M  V30 2327 H 223.82 -2.73088 5.41763 0
M  V30 2328 H 222.559 -2.53208 4.16818 0
M  V30 2329 H 221.564 -0.624873 5.46237 0
M  V30 2330 H 222.789 -0.845998 6.7381 0
M  V30 2331 H 220.735 -2.91759 5.87548 0
M  V30 2332 H 220.652 -1.9428 7.3061 0
M  V30 2333 H 221.92 -3.12074 7.14304 0
M  V30 2334 N 226.149 -1.5696 0.141893 0
M  V30 2335 C 227.097 -2.17784 -0.816874 0
M  V30 2336 C 228.091 -1.1334 -1.25899 0
M  V30 2337 O 229.297 -1.316 -1.22806 0
M  V30 2338 H 225.672 -0.697278 -0.281615 0
M  V30 2339 H 227.643 -2.97087 -0.279621 0
M  V30 2340 C 226.392 -2.80983 -2.04802 0
M  V30 2341 H 225.715 -3.61062 -1.7168 0
M  V30 2342 H 227.155 -3.2705 -2.69841 0
M  V30 2343 C 225.614 -1.79228 -2.8527 0
M  V30 2344 O 226.144 -1.25962 -3.8144 0
M  V30 2345 N 224.35 -1.48647 -2.49704 0
M  V30 2346 H 223.897 -1.92155 -1.71564 0
M  V30 2347 H 223.855 -0.808115 -3.03837 0
M  V30 2348 N 227.627 0.131896 -1.57047 0
M  V30 2349 C 228.577 1.1679 -1.95816 0
M  V30 2350 C 229.561 1.37756 -0.831393 0
M  V30 2351 O 230.753 1.39065 -1.09499 0
M  V30 2352 C 227.882 2.49778 -2.35512 0
M  V30 2353 C 226.968 2.32342 -3.54793 0
M  V30 2354 N 227.359 1.8469 -4.70875 0
M  V30 2355 C 225.657 2.63043 -3.60173 0
M  V30 2356 C 226.358 1.80656 -5.52936 0
M  V30 2357 N 225.334 2.24528 -4.95064 0
M  V30 2358 H 229.136 0.791818 -2.83033 0
M  V30 2359 H 226.65 0.339791 -1.58805 0
M  V30 2360 H 228.647 3.24692 -2.61498 0
M  V30 2361 H 227.307 2.88156 -1.49654 0
M  V30 2362 H 228.318 1.54429 -4.9434 0
M  V30 2363 H 224.995 3.05193 -2.84892 0
M  V30 2364 H 226.385 1.45178 -6.56028 0
M  V30 2365 N 229.106 1.52395 0.401703 0
M  V30 2366 C 230.069 1.75636 1.47257 0
M  V30 2367 C 231.069 0.62628 1.48103 0
M  V30 2368 O 232.259 0.894227 1.49497 0
M  V30 2369 C 229.391 1.84553 2.86624 0
M  V30 2370 H 230.584 2.71241 1.27938 0
M  V30 2371 H 228.137 1.42923 0.632662 0
M  V30 2372 H 228.872 0.908882 3.11303 0
M  V30 2373 H 228.657 2.66715 2.87412 0
M  V30 2374 H 230.147 2.04251 3.64241 0
M  V30 2375 N 230.584 -0.659388 1.43143 0
M  V30 2376 C 231.831 -1.41935 1.44433 0
M  V30 2377 C 232.159 -1.94387 0.0663522 0
M  V30 2378 O 231.414 -1.72314 -0.927706 0
M  V30 2379 C 231.713 -2.62206 2.42864 0
M  V30 2380 C 231.379 -2.28208 3.88886 0
M  V30 2381 C 230.041 -2.18647 4.28657 0
M  V30 2382 C 232.393 -2.00887 4.8093 0
M  V30 2383 C 229.721 -1.79914 5.58433 0
M  V30 2384 C 232.073 -1.63653 6.11065 0
M  V30 2385 C 230.737 -1.52614 6.49819 0
M  V30 2386 H 230.007 -0.519376 0.528517 0
M  V30 2387 H 232.654 -0.750453 1.76183 0
M  V30 2388 H 230.959 -3.34199 2.04495 0
M  V30 2389 H 232.656 -3.2041 2.41119 0
M  V30 2390 H 229.246 -2.36557 3.57406 0
M  V30 2391 H 233.43 -2.07198 4.5098 0
M  V30 2392 H 228.686 -1.69948 5.87305 0
M  V30 2393 H 232.86 -1.41543 6.81864 0
M  V30 2394 H 230.487 -1.22371 7.50286 0
M  V30 2395 N 232.062 -1.29571 -0.897171 0
M  V30 2396 C 233.478 -1.07637 -1.17841 0
M  V30 2397 C 233.678 0.170713 -2.00776 0
M  V30 2398 O 232.734 0.867768 -2.3712 0
M  V30 2399 C 234.047 -2.3332 -1.8969 0
M  V30 2400 C 235.595 -2.38664 -2.02505 0
M  V30 2401 C 236.07 -3.64157 -2.77765 0
M  V30 2402 N 237.561 -3.64894 -2.85318 0
M  V30 2403 C 238.296 -4.58679 -3.44094 0
M  V30 2404 N 237.792 -5.62799 -4.04017 0
M  V30 2405 N 239.585 -4.46245 -3.41793 0
M  V30 2406 H 231.736 -2.09598 -0.343883 0
M  V30 2407 H 233.999 -0.923333 -0.214848 0
M  V30 2408 H 233.705 -3.24262 -1.36187 0
M  V30 2409 H 233.579 -2.41025 -2.9015 0
M  V30 2410 H 235.966 -1.48208 -2.55183 0
M  V30 2411 H 236.047 -2.34943 -1.01171 0
M  V30 2412 H 235.691 -4.54965 -2.25763 0
M  V30 2413 H 235.621 -3.65137 -3.7945 0
M  V30 2414 H 238.112 -2.89613 -2.42761 0
M  V30 2415 H 238.425 -6.3048 -4.46895 0
M  V30 2416 H 236.77 -5.66605 -4.02472 0
M  V30 2417 H 239.961 -3.64094 -2.94199 0
M  V30 2418 H 240.134 -5.19518 -3.87304 0
M  V30 2419 N 233.54 1.10788 -1.12088 0
M  V30 2420 C 234.47 2.19083 -0.807755 0
M  V30 2421 C 235.451 1.6858 0.226859 0
M  V30 2422 O 236.636 1.93997 0.0888475 0
M  V30 2423 C 233.766 3.46344 -0.257576 0
M  V30 2424 C 232.72 4.101 -1.22483 0
M  V30 2425 C 232.046 5.32016 -0.535052 0
M  V30 2426 C 233.346 4.54236 -2.57811 0
M  V30 2427 H 235.04 2.45534 -1.71328 0
M  V30 2428 H 232.586 1.1801 -0.825205 0
M  V30 2429 H 234.539 4.21392 -0.0262679 0
M  V30 2430 H 233.263 3.19373 0.683278 0
M  V30 2431 H 231.922 3.37054 -1.44189 0
M  V30 2432 H 231.57 5.01319 0.410827 0
M  V30 2433 H 231.27 5.75625 -1.18024 0
M  V30 2434 H 232.794 6.09799 -0.312695 0
M  V30 2435 H 234.208 5.20575 -2.40155 0
M  V30 2436 H 232.605 5.08682 -3.18375 0
M  V30 2437 H 233.675 3.6734 -3.16528 0
M  V30 2438 N 235.018 0.912232 1.28515 0
M  V30 2439 C 235.948 0.416403 2.29757 0
M  V30 2440 C 236.929 -0.515194 1.6211 0
M  V30 2441 O 238.114 -0.423253 1.89532 0
M  V30 2442 C 235.244 -0.34572 3.45575 0
M  V30 2443 C 234.198 0.496599 4.25109 0
M  V30 2444 C 233.524 -0.393771 5.33248 0
M  V30 2445 C 234.824 1.75307 4.92001 0
M  V30 2446 H 236.518 1.26249 2.7148 0
M  V30 2447 H 234.064 0.608515 1.30511 0
M  V30 2448 H 236.017 -0.703422 4.15488 0
M  V30 2449 H 234.741 -1.2257 3.02728 0
M  V30 2450 H 233.4 0.8368 3.56922 0
M  V30 2451 H 233.048 -1.27225 4.86644 0
M  V30 2452 H 232.748 0.166209 5.87365 0
M  V30 2453 H 234.272 -0.747389 6.06009 0
M  V30 2454 H 235.686 1.46437 5.54283 0
M  V30 2455 H 234.083 2.25534 5.56106 0
M  V30 2456 H 235.153 2.48176 4.16577 0
M  V30 2457 N 236.496 -1.42363 0.676048 0
M  V30 2458 C 237.443 -2.308 -0.00150904 0
M  V30 2459 C 238.413 -1.46032 -0.791444 0
M  V30 2460 O 239.598 -1.74861 -0.76344 0
M  V30 2461 C 236.738 -3.31883 -0.945919 0
M  V30 2462 C 235.851 -4.31741 -0.149675 0
M  V30 2463 C 234.986 -5.19898 -1.08995 0
M  V30 2464 C 234.025 -6.11434 -0.285465 0
M  V30 2465 N 233.162 -6.92138 -1.17851 0
M  V30 2466 H 238.002 -2.88187 0.758455 0
M  V30 2467 H 235.539 -1.41952 0.38576 0
M  V30 2468 H 237.497 -3.89019 -1.50731 0
M  V30 2469 H 236.127 -2.76093 -1.6725 0
M  V30 2470 H 235.179 -3.76713 0.528359 0
M  V30 2471 H 236.491 -4.96534 0.474866 0
M  V30 2472 H 235.645 -5.81772 -1.72123 0
M  V30 2473 H 234.384 -4.55284 -1.74837 0
M  V30 2474 H 233.389 -5.48627 0.359018 0
M  V30 2475 H 234.614 -6.78097 0.368883 0
M  V30 2476 H 232.56 -6.30152 -1.82332 0
M  V30 2477 H 232.477 -7.53542 -0.609082 0
M  V30 2478 H 233.745 -7.58499 -1.79722 0
M  V30 2479 N 237.974 -0.419461 -1.51915 0
M  V30 2480 C 239.385 0.0477853 -1.86639 0
M  V30 2481 C 239.736 1.43531 -1.33766 0
M  V30 2482 O 238.861 2.05401 -0.68113 0
M  V30 2483 C 239.456 0.0934885 -3.38671 0
M  V30 2484 C 238.015 0.505097 -3.72996 0
M  V30 2485 C 237.162 -0.313792 -2.75519 0
M  V30 2486 H 240.113 -0.636088 -1.45395 0
M  V30 2487 H 240.134 0.906667 -3.6954 0
M  V30 2488 H 239.646 -0.916501 -3.77123 0
M  V30 2489 H 237.747 1.52135 -3.40126 0
M  V30 2490 H 237.86 0.242309 -4.78487 0
M  V30 2491 H 236.224 0.225363 -2.53701 0
M  V30 2492 H 237.007 -1.32232 -3.16812 0
M  V30 2493 N 239.452 1.56882 -0.150215 0
M  V30 2494 C 240.7 1.9584 0.499105 0
M  V30 2495 C 241.021 1.03623 1.65188 0
M  V30 2496 O 240.291 0.0984084 1.95653 0
M  V30 2497 H 238.871 0.723119 0.187373 0
M  V30 2498 H 241.533 1.9358 -0.226466 0
M  V30 2499 H 240.629 2.99638 0.873122 0
M  V30 2500 N 240.93 -0.123565 1.57115 0
M  V30 2501 C 242.178 -0.83051 1.84247 0
M  V30 2502 C 242.499 -1.80629 0.73471 0
M  V30 2503 O 241.769 -1.94403 -0.241688 0
M  V30 2504 H 240.349 -0.309694 0.679778 0
M  V30 2505 H 243.011 -0.111976 1.94578 0
M  V30 2506 H 242.107 -1.37852 2.80006 0
M  V30 2507 N 242.408 -1.52605 -0.393616 0
M  V30 2508 C 243.654 -1.67672 -1.14079 0
M  V30 2509 C 243.987 -0.413121 -1.89755 0
M  V30 2510 O 243.262 0.588952 -1.85369 0
M  V30 2511 C 243.545 -2.9088 -2.12276 0
M  V30 2512 C 243.398 -4.27329 -1.40394 0
M  V30 2513 C 244.717 -3.09628 -3.12759 0
M  V30 2514 H 241.836 -0.610168 -0.413356 0
M  V30 2515 H 244.478 -1.85193 -0.424696 0
M  V30 2516 H 242.628 -2.76073 -2.73342 0
M  V30 2517 H 244.3 -4.53894 -0.82327 0
M  V30 2518 H 242.543 -4.2802 -0.705801 0
M  V30 2519 H 243.214 -5.09615 -2.12123 0
M  V30 2520 H 245.69 -3.23436 -2.61779 0
M  V30 2521 H 244.566 -3.97322 -3.78717 0
M  V30 2522 H 244.827 -2.23637 -3.81365 0
M  V30 2523 N 243.887 0.651787 -1.4349 0
M  V30 2524 C 244.817 1.77621 -1.51569 0
M  V30 2525 C 245.798 1.66022 -0.370253 0
M  V30 2526 O 246.983 1.85095 -0.587658 0
M  V30 2527 C 244.113 3.16056 -1.43966 0
M  V30 2528 C 243.067 3.4242 -2.56774 0
M  V30 2529 C 242.393 4.8067 -2.34223 0
M  V30 2530 C 243.693 3.37023 -3.99015 0
M  V30 2531 H 245.387 1.71117 -2.45681 0
M  V30 2532 H 242.933 0.821825 -1.18246 0
M  V30 2533 H 244.886 3.94472 -1.48221 0
M  V30 2534 H 243.61 3.23293 -0.463586 0
M  V30 2535 H 242.269 2.66375 -2.51873 0
M  V30 2536 H 241.917 4.84585 -1.34856 0
M  V30 2537 H 241.617 4.9927 -3.09844 0
M  V30 2538 H 243.141 5.61342 -2.40265 0
M  V30 2539 H 244.555 4.05374 -4.05395 0
M  V30 2540 H 242.952 3.67159 -4.74673 0
M  V30 2541 H 244.022 2.3518 -4.2405 0
M  V30 2542 N 245.365 1.30045 0.890287 0
M  V30 2543 C 246.593 1.21472 1.67487 0
M  V30 2544 C 247.008 -0.223241 1.87476 0
M  V30 2545 O 246.365 -1.14828 1.41847 0
M  V30 2546 C 246.416 1.93394 3.05419 0
M  V30 2547 O 246.137 3.31576 2.86337 0
M  V30 2548 C 247.638 1.91414 3.99844 0
M  V30 2549 H 244.858 0.420604 0.522813 0
M  V30 2550 H 247.402 1.7158 1.11268 0
M  V30 2551 H 245.557 1.47099 3.58386 0
M  V30 2552 H 245.971 3.67929 3.73802 0
M  V30 2553 H 247.445 2.46285 4.94012 0
M  V30 2554 H 247.922 0.891833 4.3005 0
M  V30 2555 H 248.528 2.37496 3.52811 0
M  V30 2556 N 246.843 -1.10192 1.12674 0
M  V30 2557 C 248.073 -1.85713 0.905213 0
M  V30 2558 C 248.481 -1.81056 -0.549108 0
M  V30 2559 O 247.824 -1.19927 -1.39151 0
M  V30 2560 C 247.886 -3.34972 1.30516 0
M  V30 2561 C 247.55 -3.63385 2.77129 0
M  V30 2562 C 248.547 -3.59772 3.75313 0
M  V30 2563 C 246.232 -3.91981 3.14096 0
M  V30 2564 C 248.226 -3.84354 5.08479 0
M  V30 2565 C 245.913 -4.16218 4.47443 0
M  V30 2566 C 246.911 -4.12395 5.44444 0
M  V30 2567 O 246.599 -4.36014 6.75387 0
M  V30 2568 H 246.331 -0.593719 0.323223 0
M  V30 2569 H 248.885 -1.40198 1.50112 0
M  V30 2570 H 247.115 -3.81156 0.652463 0
M  V30 2571 H 248.804 -3.91886 1.05736 0
M  V30 2572 H 249.57 -3.37716 3.48099 0
M  V30 2573 H 245.449 -3.94085 2.39202 0
M  V30 2574 H 248.993 -3.81285 5.84181 0
M  V30 2575 H 244.89 -4.37754 4.74386 0
M  V30 2576 H 245.658 -4.53516 6.8137 0
M  V30 2577 N 248.321 -0.919034 -1.28029 0
M  V30 2578 C 249.561 -0.562107 -1.96519 0
M  V30 2579 C 249.925 0.878784 -1.70708 0
M  V30 2580 O 251.126 1.34355 -2.32813 0
M  V30 2581 C 249.397 -0.868953 -3.46676 0
M  V30 2582 S 250.956 -0.619237 -4.34409 0
M  V30 2583 H 247.774 -0.2078 -0.679956 0
M  V30 2584 H 250.376 -1.18562 -1.55446 0
M  V30 2585 H 249.08 -1.91547 -3.62957 0
M  V30 2586 H 248.611 -0.234301 -3.92702 0
M  V30 2587 H 250.626 0.526995 -4.93394 0
M  V30 2588 N 249.799 1.42003 -0.683588 0
M  V30 2589 C 250.747 2.326 0.000815408 0
M  V30 2590 C 251.741 1.50308 0.781278 0
M  V30 2591 O 252.947 1.66322 0.688251 0
M  V30 2592 H 249.322 0.751758 0.0190616 0
M  V30 2593 H 251.293 2.88011 -0.780528 0
M  V30 2594 C 250.042 3.34978 0.93195 0
M  V30 2595 H 249.365 3.98345 0.340817 0
M  V30 2596 H 250.805 4.00936 1.37936 0
M  V30 2597 C 249.264 2.67925 2.04249 0
M  V30 2598 O 249.794 2.51788 3.12995 0
M  V30 2599 N 248 2.2681 1.81675 0
M  V30 2600 H 247.547 2.40135 0.932363 0
M  V30 2601 H 247.505 1.8228 2.56167 0
M  V30 2602 N 251.277 0.427512 1.51691 0
M  V30 2603 C 252.207 -0.3796 2.30394 0
M  V30 2604 C 253.188 -1.02982 1.35384 0
M  V30 2605 O 254.373 -1.03534 1.643 0
M  V30 2606 C 251.503 -1.48649 3.1388 0
M  V30 2607 C 250.457 -0.960294 4.17088 0
M  V30 2608 C 249.783 -2.16219 4.89033 0
M  V30 2609 C 251.083 -0.00153679 5.223 0
M  V30 2610 H 252.777 0.277164 2.98114 0
M  V30 2611 H 250.323 0.134739 1.43368 0
M  V30 2612 H 252.276 -2.05826 3.67714 0
M  V30 2613 H 251 -2.1714 2.43962 0
M  V30 2614 H 249.659 -0.410806 3.64291 0
M  V30 2615 H 249.307 -2.83307 4.15628 0
M  V30 2616 H 249.007 -1.81654 5.58816 0
M  V30 2617 H 250.531 -2.73968 5.45687 0
M  V30 2618 H 251.945 -0.482687 5.71264 0
M  V30 2619 H 250.342 0.256199 5.99553 0
M  V30 2620 H 251.412 0.938174 4.75738 0
M  V30 2621 N 252.755 -1.56801 0.158532 0
M  V30 2622 C 253.983 -2.00859 -0.496303 0
M  V30 2623 C 254.398 -1.03871 -1.57659 0
M  V30 2624 O 253.755 -0.0375165 -1.82461 0
M  V30 2625 C 253.806 -3.4479 -1.08638 0
M  V30 2626 O 253.527 -4.38072 -0.0492322 0
M  V30 2627 C 255.028 -4.04185 -1.8207 0
M  V30 2628 H 252.248 -0.65864 -0.128199 0
M  V30 2629 H 254.792 -2.02885 0.256506 0
M  V30 2630 H 252.947 -3.43579 -1.78975 0
M  V30 2631 H 253.361 -5.2227 -0.483102 0
M  V30 2632 H 254.835 -5.06857 -2.18633 0
M  V30 2633 H 255.312 -3.45549 -2.71095 0
M  V30 2634 H 255.918 -4.0906 -1.16405 0
M  V30 2635 N 254.233 0.115231 -1.57178 0
M  V30 2636 C 255.458 0.840354 -1.89612 0
M  V30 2637 C 255.883 1.72464 -0.750845 0
M  V30 2638 O 255.241 1.78826 0.298478 0
M  V30 2639 C 255.289 1.64654 -3.20814 0
M  V30 2640 O 254.393 2.7538 -3.06985 0
M  V30 2641 H 253.734 0.232158 -0.622092 0
M  V30 2642 H 256.264 0.0964977 -2.04372 0
M  V30 2643 H 256.274 2.03499 -3.53627 0
M  V30 2644 H 254.949 0.997416 -4.03763 0
M  V30 2645 H 253.526 2.3971 -2.85646 0
M  V30 2646 N 255.711 1.52812 0.385517 0
M  V30 2647 C 256.957 1.69225 1.12847 0
M  V30 2648 C 257.312 0.42864 1.87564 0
M  V30 2649 O 256.605 -0.57779 1.8268 0
M  V30 2650 C 256.799 2.86856 2.13187 0
M  V30 2651 C 256.628 4.24535 1.48325 0
M  V30 2652 C 255.398 4.89701 1.24585 0
M  V30 2653 C 257.596 5.05794 0.931501 0
M  V30 2654 N 255.578 6.11353 0.558644 0
M  V30 2655 C 256.949 6.1888 0.372552 0
M  V30 2656 C 259.004 4.90963 0.828248 0
M  V30 2657 C 257.707 7.18757 -0.279556 0
M  V30 2658 C 259.733 5.91095 0.189956 0
M  V30 2659 C 259.095 7.03489 -0.358207 0
M  V30 2660 H 255.194 0.67268 0.39878 0
M  V30 2661 H 257.778 1.9017 0.417528 0
M  V30 2662 H 255.949 2.67484 2.81614 0
M  V30 2663 H 257.681 2.92188 2.80014 0
M  V30 2664 H 254.436 4.48485 1.52178 0
M  V30 2665 H 254.86 6.76606 0.230983 0
M  V30 2666 H 259.502 4.04274 1.23784 0
M  V30 2667 H 257.22 8.05052 -0.701152 0
M  V30 2668 H 260.806 5.81694 0.111264 0
M  V30 2669 H 259.686 7.79642 -0.844314 0
M  V30 2670 N 257.189 -0.644168 1.43834 0
M  V30 2671 C 258.437 -1.40117 1.45642 0
M  V30 2672 C 258.758 -1.94814 0.0852413 0
M  V30 2673 O 258.028 -1.74988 -0.880688 0
M  V30 2674 H 256.608 -0.52005 0.536243 0
M  V30 2675 H 259.27 -0.7591 1.7951 0
M  V30 2676 H 258.366 -2.23902 2.17427 0
M  V30 2677 N 258.668 -1.30515 -0.883378 0
M  V30 2678 C 259.578 -1.18959 -2.02203 0
M  V30 2679 C 260.594 -0.109172 -1.73657 0
M  V30 2680 O 261.77 -0.324413 -1.9877 0
M  V30 2681 C 258.835 -0.883871 -3.35244 0
M  V30 2682 C 257.896 -2.04982 -3.77201 0
M  V30 2683 C 257.129 -1.75859 -5.03894 0
M  V30 2684 O 257.352 -0.687276 -5.66244 0
M  V30 2685 O 256.286 -2.61146 -5.42297 0
M  V30 2686 H 260.112 -2.14616 -2.1488 0
M  V30 2687 H 257.697 -1.10124 -1.0096 0
M  V30 2688 H 259.579 -0.728644 -4.15053 0
M  V30 2689 H 258.254 0.0427798 -3.23672 0
M  V30 2690 H 257.161 -2.26038 -2.9809 0
M  V30 2691 H 258.494 -2.95825 -3.93381 0
M  V30 2692 N 260.146 1.09593 -1.13257 0
M  V30 2693 C 261.076 2.18214 -0.830946 0
M  V30 2694 C 262.057 1.68812 0.208966 0
M  V30 2695 O 263.242 1.9408 0.0682666 0
M  V30 2696 C 260.372 3.46051 -0.294296 0
M  V30 2697 C 259.326 4.08778 -1.26826 0
M  V30 2698 C 258.652 5.31419 -0.591449 0
M  V30 2699 C 259.952 4.51476 -2.62615 0
M  V30 2700 H 261.646 2.43703 -1.73923 0
M  V30 2701 H 259.192 1.17128 -0.837675 0
M  V30 2702 H 261.145 4.2134 -0.0709606 0
M  V30 2703 H 259.869 3.20079 0.649366 0
M  V30 2704 H 258.528 3.35505 -1.47756 0
M  V30 2705 H 258.176 5.01727 0.357633 0
M  V30 2706 H 257.876 5.74341 -1.24123 0
M  V30 2707 H 259.4 6.09433 -0.377355 0
M  V30 2708 H 260.814 5.17999 -2.45663 0
M  V30 2709 H 259.211 5.05277 -3.23752 0
M  V30 2710 H 260.281 3.63962 -3.20406 0
M  V30 2711 N 261.624 0.925811 1.2754 0
M  V30 2712 C 262.557 0.367836 2.25216 0
M  V30 2713 C 263.535 -0.534738 1.53556 0
M  V30 2714 O 264.719 -0.475672 1.824 0
M  V30 2715 C 261.846 -0.47298 3.35381 0
M  V30 2716 C 260.892 0.365898 4.24928 0
M  V30 2717 S 261.725 1.78025 5.05042 0
M  V30 2718 C 262.881 0.947068 6.18693 0
M  V30 2719 H 263.114 1.19568 2.72196 0
M  V30 2720 H 260.647 0.727867 1.36167 0
M  V30 2721 H 262.605 -0.952242 3.99303 0
M  V30 2722 H 261.266 -1.27533 2.87044 0
M  V30 2723 H 260.459 -0.277582 5.03235 0
M  V30 2724 H 260.061 0.779261 3.65792 0
M  V30 2725 H 262.353 0.182201 6.77255 0
M  V30 2726 H 263.296 1.70309 6.87314 0
M  V30 2727 H 263.704 0.489913 5.6237 0
M  V30 2728 N 263.102 -1.41638 0.69111 0
M  V30 2729 C 264.049 -2.30789 0.0229705 0
M  V30 2730 C 265.019 -1.46863 -0.775911 0
M  V30 2731 O 266.204 -1.75661 -0.74485 0
M  V30 2732 C 263.344 -3.32868 -0.910666 0
M  V30 2733 C 262.457 -4.31875 -0.103874 0
M  V30 2734 C 261.592 -5.21024 -1.03475 0
M  V30 2735 C 260.631 -6.11702 -0.220598 0
M  V30 2736 N 259.768 -6.93349 -1.10504 0
M  V30 2737 H 264.608 -2.87366 0.788978 0
M  V30 2738 H 262.145 -1.41535 0.400794 0
M  V30 2739 H 264.103 -3.90596 -1.46597 0
M  V30 2740 H 262.733 -2.77851 -1.64312 0
M  V30 2741 H 261.785 -3.76131 0.568285 0
M  V30 2742 H 263.097 -4.96003 0.527504 0
M  V30 2743 H 262.251 -5.83565 -1.65943 0
M  V30 2744 H 260.99 -4.57112 -1.69999 0
M  V30 2745 H 259.995 -5.48215 0.417187 0
M  V30 2746 H 261.22 -6.77668 0.440784 0
M  V30 2747 H 259.166 -6.3205 -1.75638 0
M  V30 2748 H 259.083 -7.54146 -0.529125 0
M  V30 2749 H 260.351 -7.60362 -1.71667 0
M  V30 2750 N 264.58 -0.43555 -1.51462 0
M  V30 2751 C 265.805 0.132627 -2.06976 0
M  V30 2752 C 266.23 1.35848 -1.30104 0
M  V30 2753 O 265.588 1.78112 -0.338493 0
M  V30 2754 C 265.636 0.43523 -3.57964 0
M  V30 2755 O 264.74 1.52198 -3.83288 0
M  V30 2756 H 264.081 0.00265 -0.663995 0
M  V30 2757 H 266.611 -0.616369 -1.95095 0
M  V30 2758 H 266.621 0.686206 -4.02188 0
M  V30 2759 H 265.296 -0.460739 -4.1334 0
M  V30 2760 H 263.873 1.2611 -3.50928 0
M  V30 2761 N 266.058 1.56714 -0.166846 0
M  V30 2762 C 267.005 2.17746 0.765193 0
M  V30 2763 C 267.975 1.11614 1.23011 0
M  V30 2764 O 269.16 1.39745 1.29908 0
M  V30 2765 C 266.3 2.81882 1.9909 0
M  V30 2766 C 265.413 4.02462 1.56997 0
M  V30 2767 C 264.548 4.54537 2.749 0
M  V30 2768 C 263.587 5.67538 2.29275 0
M  V30 2769 N 262.724 6.14142 3.40255 0
M  V30 2770 H 267.564 2.97048 0.237952 0
M  V30 2771 H 265.101 1.4672 0.105725 0
M  V30 2772 H 267.059 3.17221 2.70974 0
M  V30 2773 H 265.689 2.05191 2.49192 0
M  V30 2774 H 264.741 3.72973 0.748037 0
M  V30 2775 H 266.053 4.84273 1.19503 0
M  V30 2776 H 265.207 4.92035 3.54946 0
M  V30 2777 H 263.946 3.71774 3.1565 0
M  V30 2778 H 262.951 5.29597 1.47674 0
M  V30 2779 H 264.176 6.52099 1.89588 0
M  V30 2780 H 262.122 5.3431 3.8059 0
M  V30 2781 H 262.039 6.9093 3.06841 0
M  V30 2782 H 263.307 6.56289 4.206 0
M  V30 2783 N 267.536 -0.106894 1.57237 0
M  V30 2784 C 268.766 -0.825191 1.89405 0
M  V30 2785 C 269.174 -1.73374 0.757496 0
M  V30 2786 O 268.517 -1.81552 -0.280115 0
M  V30 2787 C 268.579 -1.70102 3.1671 0
M  V30 2788 C 268.243 -0.965523 4.46684 0
M  V30 2789 C 269.24 -0.300741 5.19029 0
M  V30 2790 C 266.925 -0.943105 4.93367 0
M  V30 2791 C 268.919 0.376622 6.36286 0
M  V30 2792 C 266.606 -0.261949 6.10538 0
M  V30 2793 C 267.604 0.396748 6.81847 0
M  V30 2794 O 267.292 1.06701 7.96787 0
M  V30 2795 H 267.024 -0.241852 0.631255 0
M  V30 2796 H 269.578 -0.0921491 2.05193 0
M  V30 2797 H 267.808 -2.47601 2.97036 0
M  V30 2798 H 269.497 -2.29483 3.34802 0
M  V30 2799 H 270.263 -0.309599 4.84011 0
M  V30 2800 H 266.142 -1.44524 4.3776 0
M  V30 2801 H 269.686 0.891334 6.91882 0
M  V30 2802 H 265.583 -0.250896 6.45012 0
M  V30 2803 H 266.351 0.972707 8.127 0
M  V30 2804 N 269.014 -1.53014 -0.377408 0
M  V30 2805 C 270.239 -1.72818 -1.14668 0
M  V30 2806 C 270.664 -0.450725 -1.8262 0
M  V30 2807 O 270.022 0.59439 -1.7128 0
M  V30 2808 C 270.07 -2.88627 -2.16164 0
M  V30 2809 O 269.174 -2.56409 -3.22998 0
M  V30 2810 H 268.515 -0.574301 -0.333278 0
M  V30 2811 H 271.045 -1.99853 -0.438152 0
M  V30 2812 H 271.055 -3.14455 -2.59966 0
M  V30 2813 H 269.73 -3.81294 -1.66095 0
M  V30 2814 H 268.307 -2.4136 -2.84253 0
M  V30 2815 N 270.492 0.636531 -1.44174 0
M  V30 2816 C 271.769 1.39463 -1.37148 0
M  V30 2817 C 272.149 2.11082 -0.027507 0
M  V30 2818 O 271.497 2.05954 0.989716 0
M  V30 2819 C 271.707 2.36552 -2.56601 0
M  V30 2820 C 273.055 3.00048 -3.00427 0
M  V30 2821 O 274.079 2.46878 -2.56767 0
M  V30 2822 O 272.938 3.96488 -3.76111 0
M  V30 2823 H 270.032 0.623903 -0.542839 0
M  V30 2824 H 272.578 0.662039 -1.56253 0
M  V30 2825 H 271.35 1.82692 -3.46034 0
M  V30 2826 H 270.973 3.17236 -2.39681 0
M  V30 2827 N 271.97 1.30982 0.876444 0
M  V30 2828 C 273.219 1.19658 1.62373 0
M  V30 2829 C 273.532 -0.245636 1.94052 0
M  V30 2830 O 274.738 -0.48049 2.67214 0
M  V30 2831 C 273.194 2.09433 2.92687 0
M  V30 2832 C 272.802 3.58613 2.68516 0
M  V30 2833 C 274.546 2.06893 3.70669 0
M  V30 2834 C 272.453 4.40416 3.94699 0
M  V30 2835 H 271.383 0.444268 0.609214 0
M  V30 2836 H 274.034 1.55791 0.969605 0
M  V30 2837 H 272.416 1.66191 3.59439 0
M  V30 2838 H 273.59 4.10058 2.10212 0
M  V30 2839 H 271.905 3.63063 2.03898 0
M  V30 2840 H 274.502 2.65258 4.64265 0
M  V30 2841 H 274.845 1.05448 4.02724 0
M  V30 2842 H 275.378 2.48301 3.10792 0
M  V30 2843 H 272.117 5.42591 3.67798 0
M  V30 2844 H 271.637 3.93731 4.52477 0
M  V30 2845 H 273.316 4.52294 4.62644 0
M  V30 2846 N 273.449 -1.08991 1.13837 0
M  V30 2847 C 274.677 -1.85011 0.926202 0
M  V30 2848 C 275.092 -1.8135 -0.525127 0
M  V30 2849 O 274.449 -1.21287 -1.36366 0
M  V30 2850 C 274.5 -3.32802 1.41155 0
M  V30 2851 O 274.221 -3.36444 2.80601 0
M  V30 2852 C 275.722 -4.25649 1.23847 0
M  V30 2853 H 272.942 -0.584249 0.32999 0
M  V30 2854 H 275.486 -1.37688 1.51202 0
M  V30 2855 H 273.641 -3.77536 0.868631 0
M  V30 2856 H 274.055 -4.28657 3.02248 0
M  V30 2857 H 275.529 -5.27485 1.62675 0
M  V30 2858 H 276.006 -4.38828 0.18065 0
M  V30 2859 H 276.612 -3.86735 1.76964 0
M  V30 2860 N 274.927 -0.932562 -1.27047 0
M  V30 2861 C 276.176 -0.571351 -1.93439 0
M  V30 2862 C 276.489 0.892467 -1.74053 0
M  V30 2863 O 277.695 1.36267 -2.34826 0
M  V30 2864 C 276.151 -0.97106 -3.46552 0
M  V30 2865 C 275.759 -2.4559 -3.74686 0
M  V30 2866 C 277.503 -0.681333 -4.18997 0
M  V30 2867 C 275.41 -2.79475 -5.21198 0
M  V30 2868 H 274.34 -0.209966 -0.724176 0
M  V30 2869 H 276.991 -1.13403 -1.44263 0
M  V30 2870 H 275.373 -0.336983 -3.94564 0
M  V30 2871 H 276.547 -3.13829 -3.37414 0
M  V30 2872 H 274.862 -2.71802 -3.15456 0
M  V30 2873 H 277.459 -0.910939 -5.26883 0
M  V30 2874 H 277.802 0.381628 -4.14547 0
M  V30 2875 H 278.335 -1.27473 -3.76823 0
M  V30 2876 H 275.074 -3.847 -5.30741 0
M  V30 2877 H 274.594 -2.1589 -5.596 0
M  V30 2878 H 276.273 -2.67478 -5.89122 0
M  V30 2879 N 276.405 1.4127 -0.698611 0
M  V30 2880 C 277.338 2.28195 0.0153898 0
M  V30 2881 C 278.316 1.42402 0.784883 0
M  V30 2882 O 279.5 1.71828 0.775067 0
M  V30 2883 C 276.627 3.22685 1.02918 0
M  V30 2884 C 275.673 4.25041 0.352501 0
M  V30 2885 S 276.506 5.27757 -0.907322 0
M  V30 2886 C 277.662 6.25812 0.104796 0
M  V30 2887 H 277.895 2.88403 -0.721858 0
M  V30 2888 H 275.428 1.46452 -0.488996 0
M  V30 2889 H 277.386 3.77655 1.60893 0
M  V30 2890 H 276.047 2.61566 1.73902 0
M  V30 2891 H 275.24 4.91437 1.11828 0
M  V30 2892 H 274.842 3.73682 -0.154254 0
M  V30 2893 H 277.134 6.70705 0.957103 0
M  V30 2894 H 278.077 7.06149 -0.525323 0
M  V30 2895 H 278.485 5.62615 0.460931 0
M  V30 2896 N 277.883 0.443576 1.51229 0
M  V30 2897 C 279.13 -0.120796 2.02139 0
M  V30 2898 C 279.458 -1.42166 1.32736 0
M  V30 2899 O 278.713 -1.90849 0.43301 0
M  V30 2900 C 279.012 -0.380579 3.55368 0
M  V30 2901 C 278.678 0.83523 4.43097 0
M  V30 2902 C 277.34 1.16864 4.66794 0
M  V30 2903 C 279.692 1.64601 4.94526 0
M  V30 2904 C 277.02 2.31339 5.39165 0
M  V30 2905 C 279.372 2.78181 5.68153 0
M  V30 2906 C 278.036 3.11969 5.90112 0
M  V30 2907 H 277.306 -0.0442023 0.73968 0
M  V30 2908 H 279.953 0.592046 1.82118 0
M  V30 2909 H 278.258 -1.17538 3.73754 0
M  V30 2910 H 279.955 -0.830777 3.923 0
M  V30 2911 H 276.545 0.565437 4.24854 0
M  V30 2912 H 280.729 1.40163 4.76097 0
M  V30 2913 H 275.985 2.57823 5.5438 0
M  V30 2914 H 280.159 3.41371 6.06992 0
M  V30 2915 H 277.786 4.00784 6.45969 0
M  V30 2916 N 279.361 -1.56624 0.175154 0
M  V30 2917 C 280.271 -2.21741 -0.766042 0
M  V30 2918 C 281.287 -1.21023 -1.25018 0
M  V30 2919 O 282.463 -1.53697 -1.3015 0
M  V30 2920 C 279.528 -2.84839 -1.97655 0
M  V30 2921 C 278.589 -4.00769 -1.53892 0
M  V30 2922 C 277.822 -4.60849 -2.69173 0
M  V30 2923 O 278.045 -4.19823 -3.86141 0
M  V30 2924 O 276.979 -5.50655 -2.43028 0
M  V30 2925 H 280.805 -3.02738 -0.241585 0
M  V30 2926 H 278.39 -1.49305 -0.053222 0
M  V30 2927 H 280.272 -3.24834 -2.68442 0
M  V30 2928 H 278.947 -2.06836 -2.48999 0
M  V30 2929 H 277.854 -3.65436 -0.80044 0
M  V30 2930 H 279.187 -4.80376 -1.07236 0
M  V30 2931 N 280.839 0.0985539 -1.57292 0
M  V30 2932 C 281.749 1.13824 -2.05137 0
M  V30 2933 C 282.765 1.44076 -0.975604 0
M  V30 2934 O 283.941 1.54786 -1.28853 0
M  V30 2935 C 281.006 2.43969 -2.46333 0
M  V30 2936 C 280.067 2.2093 -3.68087 0
M  V30 2937 C 279.3 3.44869 -4.0731 0
M  V30 2938 O 279.523 4.52972 -3.46659 0
M  V30 2939 O 278.457 3.34661 -5.00285 0
M  V30 2940 H 282.283 0.761881 -2.93988 0
M  V30 2941 H 279.868 0.310818 -1.46131 0
M  V30 2942 H 281.75 3.20609 -2.73473 0
M  V30 2943 H 280.425 2.81038 -1.60621 0
M  V30 2944 H 279.332 1.42081 -3.46069 0
M  V30 2945 H 280.665 1.88755 -4.54568 0
M  V30 2946 N 282.317 1.53212 0.369288 0
M  V30 2947 C 283.545 1.73119 1.13303 0
M  V30 2948 C 283.96 0.458455 1.83149 0
M  V30 2949 O 283.317 -0.568403 1.73423 0
M  V30 2950 C 283.368 2.89413 2.16616 0
M  V30 2951 O 283.089 4.11761 1.49614 0
M  V30 2952 C 284.59 3.21161 3.05566 0
M  V30 2953 H 281.81 0.579107 0.338934 0
M  V30 2954 H 284.354 1.99942 0.429338 0
M  V30 2955 H 282.509 2.64994 2.82589 0
M  V30 2956 H 282.923 4.76858 2.18419 0
M  V30 2957 H 284.397 4.05949 3.74045 0
M  V30 2958 H 284.874 2.36369 3.70171 0
M  V30 2959 H 285.48 3.47492 2.45213 0
M  V30 2960 N 283.795 -0.628877 1.44509 0
M  V30 2961 C 284.727 -1.754 1.47538 0
M  V30 2962 C 285.74 -1.58575 0.368506 0
M  V30 2963 O 286.929 -1.66847 0.634376 0
M  V30 2964 C 284.029 -3.1315 1.29577 0
M  V30 2965 C 283.202 -3.56413 2.53551 0
M  V30 2966 C 282.261 -4.7305 2.30457 0
M  V30 2967 O 281.287 -4.81247 3.03957 0
M  V30 2968 N 282.489 -5.64903 1.3366 0
M  V30 2969 H 285.254 -1.73272 2.44534 0
M  V30 2970 H 282.815 -0.813512 1.39977 0
M  V30 2971 H 284.807 -3.88902 1.11971 0
M  V30 2972 H 283.377 -3.09908 0.409371 0
M  V30 2973 H 282.597 -2.70847 2.86419 0
M  V30 2974 H 283.885 -3.82071 3.36005 0
M  V30 2975 H 283.283 -5.60975 0.729604 0
M  V30 2976 H 281.84 -6.40275 1.22032 0
M  V30 2977 N 285.273 -1.31445 -0.869486 0
M  V30 2978 C 286.519 -1.21337 -1.62496 0
M  V30 2979 C 286.852 0.227872 -1.92858 0
M  V30 2980 O 286.127 1.16094 -1.56053 0
M  V30 2981 C 286.41 -2.05814 -2.95487 0
M  V30 2982 C 286.263 -3.5824 -2.72 0
M  V30 2983 C 287.582 -1.9079 -3.96594 0
M  V30 2984 H 284.701 -0.442135 -0.589649 0
M  V30 2985 H 287.343 -1.6124 -1.00507 0
M  V30 2986 H 285.493 -1.71913 -3.48394 0
M  V30 2987 H 287.165 -4.0228 -2.25762 0
M  V30 2988 H 285.408 -3.81647 -2.06224 0
M  V30 2989 H 286.079 -4.12657 -3.66631 0
M  V30 2990 H 288.555 -2.20459 -3.52898 0
M  V30 2991 H 287.431 -2.52199 -4.87531 0
M  V30 2992 H 287.692 -0.871341 -4.33428 0
M  V30 2993 N 286.751 1.08385 -1.14413 0
M  V30 2994 C 288.162 1.62258 -0.923535 0
M  V30 2995 C 288.513 1.88691 0.537595 0
M  V30 2996 O 287.638 1.64454 1.40655 0
M  V30 2997 C 288.233 2.94781 -1.67002 0
M  V30 2998 C 286.792 3.45437 -1.495 0
M  V30 2999 C 285.939 2.19668 -1.69238 0
M  V30 3000 H 288.89 0.916086 -1.2959 0
M  V30 3001 H 288.911 3.63229 -1.13334 0
M  V30 3002 H 288.423 2.7551 -2.73342 0
M  V30 3003 H 286.524 3.6981 -0.455097 0
M  V30 3004 H 286.637 4.22173 -2.2651 0
M  V30 3005 H 285.001 2.28849 -1.11804 0
M  V30 3006 H 285.784 2.02905 -2.7692 0
M  V30 3007 N 288.23 0.939286 1.26551 0
M  V30 3008 C 289.193 0.451987 2.24699 0
M  V30 3009 C 290.193 -0.435869 1.5478 0
M  V30 3010 O 291.383 -0.235314 1.72603 0
M  V30 3011 C 288.515 -0.348801 3.39111 0
M  V30 3012 H 289.708 1.3193 2.69322 0
M  V30 3013 H 287.261 0.721072 1.38673 0
M  V30 3014 H 287.996 -1.23444 2.99887 0
M  V30 3015 H 287.781 0.287945 3.91041 0
M  V30 3016 H 289.271 -0.679726 4.12031 0
M  V30 3017 N 289.708 -1.40897 0.706093 0
M  V30 3018 C 290.638 -2.33418 0.0620085 0
M  V30 3019 C 291.619 -1.52385 -0.755827 0
M  V30 3020 O 292.804 -1.80886 -0.706674 0
M  V30 3021 C 289.934 -3.36293 -0.867445 0
M  V30 3022 C 288.888 -4.27716 -0.155932 0
M  V30 3023 C 288.214 -5.2105 -1.20046 0
M  V30 3024 C 289.514 -5.12944 0.984149 0
M  V30 3025 H 291.208 -2.87527 0.83477 0
M  V30 3026 H 288.754 -1.38249 0.402875 0
M  V30 3027 H 290.707 -3.99949 -1.32735 0
M  V30 3028 H 289.431 -2.80556 -1.67199 0
M  V30 3029 H 288.09 -3.65498 0.284047 0
M  V30 3030 H 287.738 -4.61624 -1.99781 0
M  V30 3031 H 287.438 -5.83056 -0.729328 0
M  V30 3032 H 288.962 -5.87584 -1.66066 0
M  V30 3033 H 290.376 -5.70109 0.604048 0
M  V30 3034 H 288.773 -5.83945 1.38304 0
M  V30 3035 H 289.843 -4.49485 1.81911 0
M  V30 3036 N 291.186 -0.45159 -1.50991 0
M  V30 3037 C 292.116 0.342898 -2.30969 0
M  V30 3038 C 293.097 1.00815 -1.37005 0
M  V30 3039 O 294.282 1.00907 -1.65926 0
M  V30 3040 C 291.412 1.43637 -3.16205 0
M  V30 3041 C 290.366 0.893818 -4.18563 0
M  V30 3042 C 289.692 2.08411 -4.92411 0
M  V30 3043 C 290.992 -0.0815568 -5.22236 0
M  V30 3044 H 292.686 -0.324556 -2.97636 0
M  V30 3045 H 290.232 -0.157531 -1.43136 0
M  V30 3046 H 292.185 1.9995 -3.70942 0
M  V30 3047 H 290.909 2.13232 -2.47386 0
M  V30 3048 H 289.568 0.352798 -3.64898 0
M  V30 3049 H 289.216 2.76658 -4.20082 0
M  V30 3050 H 288.916 1.72741 -5.61636 0
M  V30 3051 H 290.44 2.65251 -5.49976 0
M  V30 3052 H 291.854 0.391742 -5.7196 0
M  V30 3053 H 290.251 -0.351551 -5.99069 0
M  V30 3054 H 291.321 -1.01374 -4.74185 0
M  V30 3055 N 292.664 1.56529 -0.183458 0
M  V30 3056 C 293.574 2.22144 0.754272 0
M  V30 3057 C 294.59 1.21684 1.24374 0
M  V30 3058 O 295.766 1.54385 1.29333 0
M  V30 3059 C 292.831 2.85884 1.96141 0
M  V30 3060 C 291.892 4.01579 1.51765 0
M  V30 3061 C 291.125 4.6227 2.66725 0
M  V30 3062 O 291.348 4.21865 3.83909 0
M  V30 3063 O 290.282 5.51936 2.40104 0
M  V30 3064 H 294.108 3.02861 0.225527 0
M  V30 3065 H 291.693 1.49331 0.0453032 0
M  V30 3066 H 293.575 3.26253 2.66715 0
M  V30 3067 H 292.25 2.08154 2.47899 0
M  V30 3068 H 291.157 3.65856 0.781049 0
M  V30 3069 H 292.49 4.80938 1.04686 0
M  V30 3070 N 294.142 -0.090211 1.57342 0
M  V30 3071 C 295.105 -1.09335 2.01441 0
M  V30 3072 C 296.105 -1.32666 0.908641 0
M  V30 3073 O 297.295 -1.28697 1.174 0
M  V30 3074 C 294.427 -2.44136 2.3793 0
M  V30 3075 H 295.62 -0.713662 2.91285 0
M  V30 3076 H 293.173 -0.335404 1.52659 0
M  V30 3077 H 293.908 -2.86972 1.51055 0
M  V30 3078 H 293.693 -2.28548 3.18603 0
M  V30 3079 H 295.183 -3.16277 2.72688 0
M  V30 3080 N 295.62 -1.53406 -0.361157 0
M  V30 3081 C 296.868 -1.69467 -1.10115 0
M  V30 3082 C 297.189 -0.451352 -1.89705 0
M  V30 3083 O 296.459 0.534636 -1.88463 0
M  V30 3084 H 295.039 -0.624749 -0.409508 0
M  V30 3085 H 297.701 -1.90609 -0.406699 0
M  V30 3086 H 296.797 -2.55774 -1.78847 0
M  V30 3087 N 297.098 0.621204 -1.44841 0
M  V30 3088 C 298.345 1.38055 -1.48145 0
M  V30 3089 C 298.673 1.94143 -0.117867 0
M  V30 3090 O 297.928 1.74713 0.881694 0
M  V30 3091 C 298.227 2.55675 -2.4973 0
M  V30 3092 C 297.893 2.17817 -3.94799 0
M  V30 3093 C 296.555 2.07205 -4.34303 0
M  V30 3094 C 298.907 1.88065 -4.86087 0
M  V30 3095 C 296.235 1.65045 -5.63007 0
M  V30 3096 C 298.587 1.47394 -6.15189 0
M  V30 3097 C 297.251 1.35331 -6.53637 0
M  V30 3098 H 296.521 0.505181 -0.542101 0
M  V30 3099 H 299.168 0.703477 -1.78111 0
M  V30 3100 H 297.473 3.2866 -2.13284 0
M  V30 3101 H 299.17 3.13904 -2.4953 0
M  V30 3102 H 295.76 2.26998 -3.63552 0
M  V30 3103 H 299.944 1.95168 -4.56315 0
M  V30 3104 H 295.2 1.54317 -5.91605 0
M  V30 3105 H 299.374 1.23415 -6.85377 0
M  V30 3106 H 297.001 1.02435 -7.53267 0
M  V30 3107 N 298.576 1.31904 0.862503 0
M  V30 3108 C 299.992 1.10724 1.14945 0
M  V30 3109 C 300.192 -0.117421 2.01158 0
M  V30 3110 O 299.248 -0.804595 2.39338 0
M  V30 3111 C 300.561 2.38267 1.83437 0
M  V30 3112 C 302.109 2.43949 1.96106 0
M  V30 3113 C 302.584 3.71394 2.68013 0
M  V30 3114 N 304.075 3.72331 2.75543 0
M  V30 3115 C 304.81 4.67641 3.31812 0
M  V30 3116 N 304.306 5.73313 3.88953 0
M  V30 3117 N 306.099 4.5515 3.29841 0
M  V30 3118 H 298.25 2.10436 0.288191 0
M  V30 3119 H 300.513 0.928705 0.190292 0
M  V30 3120 H 300.219 3.27759 1.27542 0
M  V30 3121 H 300.093 2.48633 2.83657 0
M  V30 3122 H 302.48 1.54922 2.51164 0
M  V30 3123 H 302.561 2.37543 0.949059 0
M  V30 3124 H 302.205 4.60791 2.13621 0
M  V30 3125 H 302.135 3.75069 3.69636 0
M  V30 3126 H 304.626 2.95947 2.34997 0
M  V30 3127 H 304.939 6.42107 4.30022 0
M  V30 3128 H 303.284 5.77077 3.87308 0
M  V30 3129 H 306.475 3.71766 2.84443 0
M  V30 3130 H 306.648 5.29604 3.73394 0
M  V30 3131 N 300.054 -1.07777 1.14986 0
M  V30 3132 C 301.47 -1.32373 0.891596 0
M  V30 3133 C 301.67 -1.9609 -0.463788 0
M  V30 3134 O 300.726 -2.21801 -1.20667 0
M  V30 3135 C 302.039 -2.21905 2.02925 0
M  V30 3136 C 303.587 -2.35367 2.06329 0
M  V30 3137 C 304.062 -3.28245 3.19405 0
M  V30 3138 N 305.553 -3.35824 3.19024 0
M  V30 3139 C 306.288 -4.07739 4.03158 0
M  V30 3140 N 305.784 -4.82306 4.97346 0
M  V30 3141 N 307.577 -4.03635 3.91197 0
M  V30 3142 H 299.728 -0.648039 2.02273 0
M  V30 3143 H 301.991 -0.348149 0.881757 0
M  V30 3144 H 301.697 -1.82342 3.0074 0
M  V30 3145 H 301.571 -3.22407 1.95789 0
M  V30 3146 H 303.958 -2.74186 1.09116 0
M  V30 3147 H 304.039 -1.34585 2.17533 0
M  V30 3148 H 303.683 -2.90146 4.16867 0
M  V30 3149 H 303.613 -4.28971 3.05437 0
M  V30 3150 H 306.104 -2.8267 2.50811 0
M  V30 3151 H 306.417 -5.34661 5.57994 0
M  V30 3152 H 304.762 -4.81337 5.01338 0
M  V30 3153 H 307.953 -3.44491 3.16928 0
M  V30 3154 H 308.126 -4.59417 4.5699 0
M  V30 3155 N 301.532 -0.945985 -1.26051 0
M  V30 3156 C 302.442 -0.465633 -2.29933 0
M  V30 3157 C 303.458 0.462761 -1.67733 0
M  V30 3158 O 304.634 0.341118 -1.9849 0
M  V30 3159 C 301.699 0.256994 -3.45746 0
M  V30 3160 C 300.76 -0.708549 -4.23412 0
M  V30 3161 C 299.993 -0.0203135 -5.33696 0
M  V30 3162 O 300.216 1.19571 -5.57726 0
M  V30 3163 O 299.15 -0.701459 -5.97799 0
M  V30 3164 H 302.976 -1.32866 -2.73094 0
M  V30 3165 H 300.561 -0.712071 -1.31339 0
M  V30 3166 H 302.443 0.663852 -4.16138 0
M  V30 3167 H 301.118 1.09533 -3.04605 0
M  V30 3168 H 300.025 -1.16545 -3.55483 0
M  V30 3169 H 301.358 -1.51465 -4.68315 0
M  V30 3170 N 303.011 1.40521 -0.713556 0
M  V30 3171 C 303.959 2.32549 -0.0485227 0
M  V30 3172 C 304.953 1.51931 0.74922 0
M  V30 3173 O 306.159 1.67745 0.652816 0
M  V30 3174 H 302.534 0.751994 0.00311138 0
M  V30 3175 H 304.505 2.86291 -0.841443 0
M  V30 3176 C 303.254 3.36879 0.860687 0
M  V30 3177 H 302.577 3.98978 0.256246 0
M  V30 3178 H 304.017 4.03772 1.294 0
M  V30 3179 C 302.476 2.72197 1.9852 0
M  V30 3180 O 303.006 2.5837 3.07584 0
M  V30 3181 N 301.212 2.30612 1.76823 0
M  V30 3182 H 300.759 2.42059 0.881217 0
M  V30 3183 H 300.717 1.87672 2.52243 0
M  V30 3184 N 304.489 0.459591 1.5075 0
M  V30 3185 C 305.738 -0.100971 2.01447 0
M  V30 3186 C 306.051 -1.41816 1.34713 0
M  V30 3187 O 307.257 -2.06299 1.76502 0
M  V30 3188 C 305.713 -0.23047 3.59161 0
M  V30 3189 C 305.321 1.0776 4.34847 0
M  V30 3190 C 307.065 -0.743608 4.17936 0
M  V30 3191 C 304.972 0.91253 5.84317 0
M  V30 3192 H 303.902 -0.0415102 0.752856 0
M  V30 3193 H 306.553 0.592742 1.73663 0
M  V30 3194 H 304.935 -0.987703 3.83485 0
M  V30 3195 H 306.109 1.8449 4.22256 0
M  V30 3196 H 304.424 1.52097 3.87628 0
M  V30 3197 H 307.021 -0.883959 5.27343 0
M  V30 3198 H 307.364 -1.73196 3.78562 0
M  V30 3199 H 307.897 -0.04408 3.97776 0
M  V30 3200 H 304.636 1.87391 6.28144 0
M  V30 3201 H 304.156 0.185422 5.99513 0
M  V30 3202 H 305.835 0.574547 6.44444 0
M  V30 3203 N 305.967 -1.56429 0.191757 0
M  V30 3204 C 307.383 -1.58754 -0.164137 0
M  V30 3205 C 307.583 -1.20782 -1.61288 0
M  V30 3206 O 306.639 -0.928999 -2.34789 0
M  V30 3207 C 307.952 -3.00396 0.135195 0
M  V30 3208 C 309.5 -3.1291 0.0750351 0
M  V30 3209 C 309.975 -4.56679 0.347632 0
M  V30 3210 N 311.466 -4.62252 0.296131 0
M  V30 3211 C 312.201 -5.71379 0.480948 0
M  V30 3212 N 311.697 -6.88986 0.725933 0
M  V30 3213 N 313.49 -5.60563 0.415435 0
M  V30 3214 H 305.641 -1.79393 1.13718 0
M  V30 3215 H 307.904 -0.832414 0.453643 0
M  V30 3216 H 307.61 -3.32726 1.13958 0
M  V30 3217 H 307.484 -3.72963 -0.563773 0
M  V30 3218 H 309.871 -2.80394 -0.919948 0
M  V30 3219 H 309.952 -2.42736 0.807029 0
M  V30 3220 H 309.596 -4.89907 1.33992 0
M  V30 3221 H 309.526 -5.25039 -0.405212 0
M  V30 3222 H 312.017 -3.7773 0.113259 0
M  V30 3223 H 312.33 -7.68046 0.855857 0
M  V30 3224 H 310.675 -6.90801 0.762788 0
M  V30 3225 H 313.866 -4.67561 0.224486 0
M  V30 3226 H 314.039 -6.45551 0.562889 0
M  V30 3227 N 307.445 0.0818655 -1.57387 0
M  V30 3228 C 308.673 0.796108 -1.9097 0
M  V30 3229 C 309.088 1.71626 -0.786757 0
M  V30 3230 O 308.445 1.80908 0.240513 0
M  V30 3231 C 308.496 1.59829 -3.24248 0
M  V30 3232 O 308.217 0.715131 -4.32224 0
M  V30 3233 C 309.718 2.41442 -3.7178 0
M  V30 3234 H 306.938 0.22691 -0.631469 0
M  V30 3235 H 309.482 0.0551439 -2.04426 0
M  V30 3236 H 307.637 2.29163 -3.12351 0
M  V30 3237 H 308.051 1.27205 -5.08841 0
M  V30 3238 H 309.525 2.932 -4.67694 0
M  V30 3239 H 310.002 3.2051 -3.00283 0
M  V30 3240 H 310.608 1.77283 -3.86589 0
M  V30 3241 N 308.923 1.53595 0.353017 0
M  V30 3242 C 309.833 1.83897 1.45667 0
M  V30 3243 C 310.849 0.728334 1.58023 0
M  V30 3244 O 312.025 1.01968 1.73679 0
M  V30 3245 C 309.09 2.03383 2.80778 0
M  V30 3246 C 308.151 3.27262 2.77845 0
M  V30 3247 C 307.384 3.45809 4.06512 0
M  V30 3248 O 307.607 2.68387 5.03314 0
M  V30 3249 O 306.541 4.39207 4.11559 0
M  V30 3250 H 310.367 2.77686 1.2298 0
M  V30 3251 H 307.952 1.39132 0.544308 0
M  V30 3252 H 309.834 2.17698 3.60812 0
M  V30 3253 H 308.509 1.12783 3.03417 0
M  V30 3254 H 307.416 3.18359 1.96465 0
M  V30 3255 H 308.749 4.17824 2.60161 0
M  V30 3256 N 310.401 -0.613514 1.45168 0
M  V30 3257 C 311.647 -1.37471 1.49096 0
M  V30 3258 C 311.98 -1.93765 0.129901 0
M  V30 3259 O 311.255 -1.74707 -0.854858 0
M  V30 3260 C 311.538 -2.52701 2.56542 0
M  V30 3261 C 311.391 -2.01643 4.0207 0
M  V30 3262 C 312.71 -3.54849 2.60327 0
M  V30 3263 H 309.829 -0.498502 0.54283 0
M  V30 3264 H 312.471 -0.692125 1.76945 0
M  V30 3265 H 310.621 -3.10931 2.32926 0
M  V30 3266 H 312.293 -1.48108 4.36877 0
M  V30 3267 H 310.536 -1.32688 4.13009 0
M  V30 3268 H 311.207 -2.84681 4.72928 0
M  V30 3269 H 313.683 -3.0645 2.81474 0
M  V30 3270 H 312.559 -4.32973 3.37381 0
M  V30 3271 H 312.82 -4.10079 1.6519 0
M  V30 3272 N 311.879 -1.3236 -0.855495 0
M  V30 3273 C 312.812 -1.15559 -1.96777 0
M  V30 3274 C 313.79 -0.0552681 -1.62506 0
M  V30 3275 O 314.974 -0.214419 -1.87277 0
M  V30 3276 C 312.101 -0.768851 -3.29858 0
M  V30 3277 C 311.147 -1.87429 -3.83109 0
M  V30 3278 S 311.98 -3.48243 -4.06801 0
M  V30 3279 C 313.136 -3.11539 -5.42858 0
M  V30 3280 H 313.369 -2.09717 -2.10727 0
M  V30 3281 H 310.902 -1.17011 -1.00737 0
M  V30 3282 H 312.86 -0.55248 -4.06765 0
M  V30 3283 H 311.521 0.153857 -3.13723 0
M  V30 3284 H 310.714 -1.55667 -4.79358 0
M  V30 3285 H 310.316 -2.04647 -3.13042 0
M  V30 3286 H 312.608 -2.61331 -6.2507 0
M  V30 3287 H 313.551 -4.06806 -5.79582 0
M  V30 3288 H 313.959 -2.48582 -5.06821 0
M  V30 3289 N 313.357 1.07166 -1.15556 0
M  V30 3290 C 314.32 2.12589 -0.856644 0
M  V30 3291 C 315.32 1.6015 0.14444 0
M  V30 3292 O 316.51 1.7399 -0.0854163 0
M  V30 3293 C 313.642 3.39753 -0.279405 0
M  V30 3294 H 314.835 2.40539 -1.79112 0
M  V30 3295 H 312.388 1.23086 -0.963298 0
M  V30 3296 H 313.123 3.17447 0.663174 0
M  V30 3297 H 312.908 3.79117 -1.00063 0
M  V30 3298 H 314.398 4.17507 -0.0879113 0
M  V30 3299 N 314.835 0.952656 1.25548 0
M  V30 3300 C 315.765 0.489287 2.28316 0
M  V30 3301 C 316.746 -0.463359 1.63667 0
M  V30 3302 O 317.931 -0.36274 1.90782 0
M  V30 3303 C 315.061 -0.235603 3.465 0
M  V30 3304 C 314.015 0.631593 4.23314 0
M  V30 3305 C 313.341 -0.223923 5.34231 0
M  V30 3306 C 314.641 1.90871 4.86174 0
M  V30 3307 H 316.335 1.34822 2.67326 0
M  V30 3308 H 313.881 0.649728 1.28509 0
M  V30 3309 H 315.834 -0.570882 4.17515 0
M  V30 3310 H 314.558 -1.12877 3.06474 0
M  V30 3311 H 313.217 0.949929 3.54079 0
M  V30 3312 H 312.865 -1.11678 4.90446 0
M  V30 3313 H 312.565 0.35299 5.86539 0
M  V30 3314 H 314.089 -0.554214 6.0808 0
M  V30 3315 H 315.503 1.63997 5.49343 0
M  V30 3316 H 313.9 2.43112 5.4865 0
M  V30 3317 H 314.97 2.61304 4.08471 0
M  V30 3318 N 316.313 -1.40141 0.720998 0
M  V30 3319 C 317.559 -2.01084 0.263231 0
M  V30 3320 C 317.892 -1.57052 -1.14229 0
M  V30 3321 O 317.167 -0.793027 -1.77599 0
M  V30 3322 C 317.45 -3.58401 0.349344 0
M  V30 3323 C 317.303 -4.12491 1.79363 0
M  V30 3324 C 318.622 -4.39231 -0.276351 0
M  V30 3325 H 315.741 -0.730572 0.0971228 0
M  V30 3326 H 318.383 -1.66543 0.914518 0
M  V30 3327 H 316.533 -3.87958 -0.205165 0
M  V30 3328 H 318.205 -3.93711 2.40394 0
M  V30 3329 H 316.448 -3.66576 2.31958 0
M  V30 3330 H 317.119 -5.21646 1.80524 0
M  V30 3331 H 319.595 -4.15637 0.196184 0
M  V30 3332 H 318.471 -5.48586 -0.185681 0
M  V30 3333 H 318.732 -4.20643 -1.36059 0
M  V30 3334 N 317.792 -0.46758 -1.50504 0
M  V30 3335 C 319.203 -0.0116166 -1.86696 0
M  V30 3336 C 319.554 1.39202 -1.38265 0
M  V30 3337 O 318.679 2.0313 -0.746132 0
M  V30 3338 C 319.274 -0.0143044 -3.38797 0
M  V30 3339 C 317.833 0.386175 -3.74414 0
M  V30 3340 C 316.98 -0.401287 -2.74381 0
M  V30 3341 H 319.931 -0.682022 -1.43297 0
M  V30 3342 H 319.952 0.788641 -3.72237 0
M  V30 3343 H 319.464 -1.03602 -3.74016 0
M  V30 3344 H 317.565 1.41237 -3.44794 0
M  V30 3345 H 317.678 0.0899596 -4.79016 0
M  V30 3346 H 316.042 0.144536 -2.5429 0
M  V30 3347 H 316.825 -1.42244 -3.12444 0
M  V30 3348 N 319.27 1.56325 -0.20005 0
M  V30 3349 C 320.681 1.8408 0.31167 0
M  V30 3350 C 321.032 1.12087 1.61031 0
M  V30 3351 O 320.157 0.38332 2.12978 0
M  V30 3352 C 320.752 3.33932 0.57226 0
M  V30 3353 C 319.311 3.6208 1.02834 0
M  V30 3354 C 318.458 2.77186 0.079634 0
M  V30 3355 H 321.409 1.52939 -0.423729 0
M  V30 3356 H 321.43 3.52971 1.42096 0
M  V30 3357 H 320.942 3.86303 -0.37308 0
M  V30 3358 H 319.043 3.15147 1.98778 0
M  V30 3359 H 319.156 4.7023 0.917624 0
M  V30 3360 H 317.52 2.47951 0.582448 0
M  V30 3361 H 318.303 3.32347 -0.860238 0
M  V30 3362 N 320.748 -0.0735177 1.57428 0
M  V30 3363 C 321.711 -1.07192 2.02589 0
M  V30 3364 C 322.711 -1.31695 0.922661 0
M  V30 3365 O 323.901 -1.27445 1.18758 0
M  V30 3366 C 321.033 -2.41599 2.40506 0
M  V30 3367 H 322.226 -0.682727 2.92025 0
M  V30 3368 H 319.779 -0.319193 1.53006 0
M  V30 3369 H 320.514 -2.85354 1.5409 0
M  V30 3370 H 320.299 -2.25156 3.21009 0
M  V30 3371 H 321.789 -3.13367 2.76027 0
M  V30 3372 N 322.226 -1.5378 -0.344866 0
M  V30 3373 C 323.503 -1.61589 -1.10219 0
M  V30 3374 C 323.883 -0.436316 -2.06542 0
M  V30 3375 O 323.231 0.571543 -2.21237 0
M  V30 3376 C 323.441 -2.97602 -1.82301 0
M  V30 3377 C 324.789 -3.5291 -2.36093 0
M  V30 3378 O 325.813 -2.99768 -1.924 0
M  V30 3379 O 324.672 -4.45859 -3.16026 0
M  V30 3380 H 321.766 -0.653522 -0.506792 0
M  V30 3381 H 324.312 -1.66126 -0.346465 0
M  V30 3382 H 323.084 -3.74893 -1.12121 0
M  V30 3383 H 322.707 -2.9665 -2.64735 0
M  V30 3384 N 323.704 0.605807 -1.45491 0
M  V30 3385 C 324.944 1.37606 -1.51142 0
M  V30 3386 C 325.308 1.91413 -0.150075 0
M  V30 3387 O 326.509 2.68677 -0.0812828 0
M  V30 3388 C 324.78 2.49197 -2.56195 0
M  V30 3389 S 326.339 3.36953 -2.81083 0
M  V30 3390 H 323.157 0.469118 -0.534275 0
M  V30 3391 H 325.759 0.698845 -1.82583 0
M  V30 3392 H 324.463 2.0802 -3.53773 0
M  V30 3393 H 323.994 3.21717 -2.26411 0
M  V30 3394 H 326.009 4.47395 -2.14598 0
M  V30 3395 N 325.182 1.32811 0.848464 0
M  V30 3396 C 326.598 1.11937 1.13764 0
M  V30 3397 C 326.798 -0.0960789 2.01271 0
M  V30 3398 O 325.854 -0.779165 2.40178 0
M  V30 3399 C 327.167 2.402 1.809 0
M  V30 3400 C 328.715 2.46016 1.93508 0
M  V30 3401 C 329.19 3.74215 2.64059 0
M  V30 3402 N 330.681 3.75232 2.71579 0
M  V30 3403 C 331.416 4.71134 3.26833 0
M  V30 3404 N 330.912 5.77406 3.8285 0
M  V30 3405 N 332.705 4.58623 3.24995 0
M  V30 3406 H 324.856 2.1073 0.265855 0
M  V30 3407 H 327.119 0.930671 0.180431 0
M  V30 3408 H 326.825 3.29093 1.24058 0
M  V30 3409 H 326.699 2.51628 2.81004 0
M  V30 3410 H 329.086 1.57577 2.49506 0
M  V30 3411 H 329.167 2.38536 0.923811 0
M  V30 3412 H 328.811 4.63031 2.08722 0
M  V30 3413 H 328.741 3.78968 3.65637 0
M  V30 3414 H 331.232 2.98423 2.31845 0
M  V30 3415 H 331.545 6.46632 4.23187 0
M  V30 3416 H 329.89 5.81152 3.81165 0
M  V30 3417 H 333.081 3.74762 2.80484 0
M  V30 3418 H 333.254 5.33535 3.67756 0
M  V30 3419 N 326.66 -1.06551 1.16123 0
M  V30 3420 C 327.89 -1.8274 0.963838 0
M  V30 3421 C 328.298 -1.82712 -0.491228 0
M  V30 3422 O 327.641 -1.24294 -1.35265 0
M  V30 3423 C 327.703 -3.3065 1.41106 0
M  V30 3424 C 327.367 -3.54384 2.88549 0
M  V30 3425 C 328.364 -3.4765 3.86569 0
M  V30 3426 C 326.049 -3.81789 3.26408 0
M  V30 3427 C 328.043 -3.67982 5.2045 0
M  V30 3428 C 325.73 -4.01772 4.60459 0
M  V30 3429 C 326.728 -3.94866 5.57288 0
M  V30 3430 O 326.416 -4.14306 6.88916 0
M  V30 3431 H 326.148 -0.583136 0.341948 0
M  V30 3432 H 328.702 -1.35351 1.54497 0
M  V30 3433 H 326.932 -3.78887 0.773394 0
M  V30 3434 H 328.621 -3.88324 1.1815 0
M  V30 3435 H 329.387 -3.2647 3.58667 0
M  V30 3436 H 325.266 -3.86276 2.51619 0
M  V30 3437 H 328.81 -3.62507 5.96015 0
M  V30 3438 H 324.707 -4.2244 4.88072 0
M  V30 3439 H 325.475 -4.31609 6.95454 0
M  V30 3440 N 328.138 -0.959301 -1.25041 0
M  V30 3441 C 329.368 -0.63303 -1.96663 0
M  V30 3442 C 329.776 0.800031 -1.71453 0
M  V30 3443 O 329.119 1.54736 -0.99008 0
M  V30 3444 C 329.181 -0.817523 -3.50081 0
M  V30 3445 C 328.845 -2.22863 -3.98975 0
M  V30 3446 C 329.842 -3.20569 -4.09306 0
M  V30 3447 C 327.527 -2.55407 -4.32519 0
M  V30 3448 C 329.521 -4.4891 -4.52503 0
M  V30 3449 C 327.208 -3.83976 -4.754 0
M  V30 3450 C 328.206 -4.8054 -4.85356 0
M  V30 3451 O 327.894 -6.06817 -5.27284 0
M  V30 3452 H 327.626 -0.235866 -0.633516 0
M  V30 3453 H 330.18 -1.2874 -1.60047 0
M  V30 3454 H 328.41 -0.105992 -3.86555 0
M  V30 3455 H 330.099 -0.491604 -4.02912 0
M  V30 3456 H 330.865 -2.96753 -3.83618 0
M  V30 3457 H 326.744 -1.8097 -4.23994 0
M  V30 3458 H 330.288 -5.24283 -4.60188 0
M  V30 3459 H 326.185 -4.07596 -5.00535 0
M  V30 3460 H 326.953 -6.10262 -5.45457 0
M  V30 3461 N 329.616 1.39756 -0.72842 0
M  V30 3462 C 330.579 2.29012 -0.0927297 0
M  V30 3463 C 331.579 1.45992 0.674025 0
M  V30 3464 O 332.769 1.66749 0.50402 0
M  V30 3465 C 329.901 3.29396 0.878137 0
M  V30 3466 H 331.094 2.86729 -0.879011 0
M  V30 3467 H 328.647 1.48293 -0.493847 0
M  V30 3468 H 329.382 2.76722 1.69101 0
M  V30 3469 H 329.167 3.907 0.331051 0
M  V30 3470 H 330.657 3.96199 1.3197 0
M  V30 3471 N 331.094 0.475555 1.50254 0
M  V30 3472 C 332.341 -0.0778919 2.0235 0
M  V30 3473 C 332.669 -1.39319 1.35722 0
M  V30 3474 O 331.924 -1.89888 0.473395 0
M  V30 3475 C 332.223 -0.305114 3.56095 0
M  V30 3476 C 331.889 0.92903 4.41225 0
M  V30 3477 C 330.551 1.26739 4.6421 0
M  V30 3478 C 332.903 1.75054 4.90923 0
M  V30 3479 C 330.231 2.42724 5.34137 0
M  V30 3480 C 332.583 2.9017 5.62125 0
M  V30 3481 C 331.247 3.24416 5.83362 0
M  V30 3482 H 330.517 -0.0285027 0.740452 0
M  V30 3483 H 333.164 0.630543 1.80821 0
M  V30 3484 H 331.469 -1.09584 3.76163 0
M  V30 3485 H 333.166 -0.747377 3.93974 0
M  V30 3486 H 329.756 0.655428 4.23559 0
M  V30 3487 H 333.94 1.50231 4.73016 0
M  V30 3488 H 329.196 2.69525 5.48786 0
M  V30 3489 H 333.37 3.54169 5.99614 0
M  V30 3490 H 330.997 4.14396 6.37323 0
M  V30 3491 N 332.573 -1.56217 0.208337 0
M  V30 3492 C 333.984 -1.84243 -0.301904 0
M  V30 3493 C 334.335 -1.12939 -1.60434 0
M  V30 3494 O 333.46 -0.39461 -2.12772 0
M  V30 3495 C 334.055 -3.34231 -0.554543 0
M  V30 3496 C 332.614 -3.62621 -1.00912 0
M  V30 3497 C 331.761 -2.77224 -0.064933 0
M  V30 3498 H 334.712 -1.52712 0.431833 0
M  V30 3499 H 334.733 -3.5372 -1.40223 0
M  V30 3500 H 334.245 -3.86099 0.393561 0
M  V30 3501 H 332.346 -3.16197 -1.97104 0
M  V30 3502 H 332.459 -4.7071 -0.892674 0
M  V30 3503 H 330.823 -2.48256 -0.56929 0
M  V30 3504 H 331.606 -3.31887 0.877851 0
M  V30 3505 N 334.051 0.0651679 -1.57465 0
M  V30 3506 C 334.983 1.10359 -2.00882 0
M  V30 3507 C 335.996 1.346 -0.915788 0
M  V30 3508 O 337.185 1.32723 -1.1936 0
M  V30 3509 C 334.285 2.45312 -2.33828 0
M  V30 3510 C 333.458 2.40934 -3.65061 0
M  V30 3511 C 332.517 3.58047 -3.85602 0
M  V30 3512 O 331.543 3.39175 -4.57109 0
M  V30 3513 N 332.745 4.78637 -3.28462 0
M  V30 3514 H 335.51 0.733807 -2.90578 0
M  V30 3515 H 333.071 0.253719 -1.599 0
M  V30 3516 H 335.063 3.22314 -2.44737 0
M  V30 3517 H 333.633 2.74267 -1.49988 0
M  V30 3518 H 332.853 1.49273 -3.64844 0
M  V30 3519 H 334.141 2.35117 -4.51218 0
M  V30 3520 H 333.539 4.96872 -2.70433 0
M  V30 3521 H 332.096 5.53127 -3.44809 0
M  V30 3522 N 335.529 1.53961 0.336706 0
M  V30 3523 C 336.462 1.77255 1.43722 0
M  V30 3524 C 337.44 0.62193 1.50236 0
M  V30 3525 O 338.624 0.857874 1.67847 0
M  V30 3526 C 335.751 1.87733 2.81912 0
M  V30 3527 C 334.797 3.09933 2.92991 0
M  V30 3528 S 335.63 4.68836 2.58753 0
M  V30 3529 C 336.786 4.82202 3.99039 0
M  V30 3530 H 337.019 2.70322 1.23748 0
M  V30 3531 H 334.552 1.44917 0.532777 0
M  V30 3532 H 336.51 1.94455 3.61521 0
M  V30 3533 H 335.171 0.956666 2.99177 0
M  V30 3534 H 334.364 3.1396 3.94265 0
M  V30 3535 H 333.966 3.01472 2.21338 0
M  V30 3536 H 336.258 4.64032 4.9364 0
M  V30 3537 H 337.201 5.84298 4.00002 0
M  V30 3538 H 337.609 4.10604 3.87382 0
M  V30 3539 N 337.007 -0.598083 1.45811 0
M  V30 3540 C 338.256 -1.35295 1.49594 0
M  V30 3541 C 338.569 -1.95057 0.145679 0
M  V30 3542 O 339.775 -2.71431 0.0612099 0
M  V30 3543 C 338.231 -2.45124 2.63519 0
M  V30 3544 C 337.839 -1.91732 4.04899 0
M  V30 3545 C 339.583 -3.2205 2.76558 0
M  V30 3546 C 337.49 -2.991 5.1019 0
M  V30 3547 H 336.42 -0.508552 0.556679 0
M  V30 3548 H 339.071 -0.639977 1.71978 0
M  V30 3549 H 337.453 -3.19149 2.34435 0
M  V30 3550 H 338.627 -1.24352 4.43704 0
M  V30 3551 H 336.942 -1.27522 3.96393 0
M  V30 3552 H 339.539 -4.0215 3.52391 0
M  V30 3553 H 339.882 -3.73663 1.83526 0
M  V30 3554 H 340.415 -2.55127 3.05213 0
M  V30 3555 H 337.154 -2.52393 6.04961 0
M  V30 3556 H 336.674 -3.65017 4.75944 0
M  V30 3557 H 338.353 -3.63318 5.35359 0
M  V30 3558 N 338.485 -1.33259 -0.841409 0
M  V30 3559 C 339.713 -1.27605 -1.62864 0
M  V30 3560 C 340.128 0.153507 -1.88175 0
M  V30 3561 O 339.485 1.09485 -1.46011 0
M  V30 3562 C 339.536 -2.04596 -2.98031 0
M  V30 3563 O 339.257 -3.41975 -2.73834 0
M  V30 3564 C 340.758 -2.06122 -3.92465 0
M  V30 3565 H 337.978 -0.439718 -0.506842 0
M  V30 3566 H 340.522 -1.75591 -1.04824 0
M  V30 3567 H 338.677 -1.60299 -3.5268 0
M  V30 3568 H 339.091 -3.81549 -3.59889 0
M  V30 3569 H 340.565 -2.64451 -4.84531 0
M  V30 3570 H 341.042 -1.05083 -4.26444 0
M  V30 3571 H 341.648 -2.50427 -3.43753 0
M  V30 3572 N 339.963 1.05934 -1.16686 0
M  V30 3573 C 341.374 1.60263 -0.957745 0
M  V30 3574 C 341.725 1.89789 0.49745 0
M  V30 3575 O 340.85 1.67401 1.37135 0
M  V30 3576 C 341.445 2.91172 -1.73218 0
M  V30 3577 C 340.004 3.42188 -1.56794 0
M  V30 3578 C 339.151 2.16028 -1.73859 0
M  V30 3579 H 342.102 0.888392 -1.31504 0
M  V30 3580 H 342.123 3.60744 -1.21014 0
M  V30 3581 H 341.635 2.6965 -2.79124 0
M  V30 3582 H 339.736 3.68762 -0.533437 0
M  V30 3583 H 339.849 4.17273 -2.35414 0
M  V30 3584 H 338.213 2.26426 -1.16633 0
M  V30 3585 H 338.996 1.96985 -2.81161 0
M  V30 3586 N 341.441 0.965919 1.2453 0
M  V30 3587 C 342.371 0.513476 2.27784 0
M  V30 3588 C 343.352 -0.445974 1.6415 0
M  V30 3589 O 344.537 -0.342485 1.91156 0
M  V30 3590 C 341.667 -0.198839 3.4673 0
M  V30 3591 C 340.621 0.676456 4.2262 0
M  V30 3592 C 339.947 -0.167248 5.34438 0
M  V30 3593 C 341.247 1.96017 4.84123 0
M  V30 3594 H 342.941 1.3765 2.65881 0
M  V30 3595 H 340.487 0.663321 1.27813 0
M  V30 3596 H 342.44 -0.526567 4.18097 0
M  V30 3597 H 341.164 -1.0962 3.07654 0
M  V30 3598 H 339.823 0.98743 3.53052 0
M  V30 3599 H 339.471 -1.0647 4.91603 0
M  V30 3600 H 339.171 0.415181 5.86131 0
M  V30 3601 H 340.695 -0.489688 6.08633 0
M  V30 3602 H 342.109 1.69814 5.47573 0
M  V30 3603 H 340.506 2.48918 5.4604 0
M  V30 3604 H 341.576 2.65622 4.05676 0
M  V30 3605 N 342.919 -1.39368 0.735821 0
M  V30 3606 C 344.165 -2.00794 0.284544 0
M  V30 3607 C 344.498 -1.58255 -1.12557 0
M  V30 3608 O 343.773 -0.811819 -1.76748 0
M  V30 3609 C 344.056 -3.58011 0.387337 0
M  V30 3610 C 343.909 -4.10566 1.83728 0
M  V30 3611 C 345.228 -4.395 -0.22975 0
M  V30 3612 H 342.347 -0.729501 0.104866 0
M  V30 3613 H 344.989 -1.65564 0.93213 0
M  V30 3614 H 343.139 -3.88154 -0.164006 0
M  V30 3615 H 344.811 -3.91139 2.44556 0
M  V30 3616 H 343.054 -3.64095 2.35833 0
M  V30 3617 H 343.725 -5.19702 1.86047 0
M  V30 3618 H 346.201 -4.15406 0.240257 0
M  V30 3619 H 345.077 -5.48752 -0.127485 0
M  V30 3620 H 345.338 -4.22062 -1.3159 0
M  V30 3621 N 344.397 -0.483516 -1.5 0
M  V30 3622 C 345.625 0.0644831 -2.06799 0
M  V30 3623 C 346.04 1.32399 -1.34596 0
M  V30 3624 O 345.397 1.77626 -0.418946 0
M  V30 3625 C 345.448 0.339927 -3.59898 0
M  V30 3626 O 345.169 -0.869635 -4.29382 0
M  V30 3627 C 346.67 0.933515 -4.33359 0
M  V30 3628 H 343.89 -0.0126333 -0.670881 0
M  V30 3629 H 346.434 -0.675864 -1.93009 0
M  V30 3630 H 344.589 1.03022 -3.7345 0
M  V30 3631 H 345.003 -0.62179 -5.20801 0
M  V30 3632 H 346.477 1.07593 -5.41413 0
M  V30 3633 H 346.954 1.92685 -3.94676 0
M  V30 3634 H 347.56 0.281221 -4.24369 0
M  V30 3635 N 345.875 1.56104 -0.216619 0
M  V30 3636 C 346.822 2.2007 0.695531 0
M  V30 3637 C 347.792 1.15471 1.19397 0
M  V30 3638 O 348.977 1.43807 1.25396 0
M  V30 3639 C 346.117 2.88073 1.90021 0
M  V30 3640 C 345.23 4.07253 1.44113 0
M  V30 3641 C 344.365 4.63052 2.603 0
M  V30 3642 C 343.404 5.74545 2.11103 0
M  V30 3643 N 342.541 6.24656 3.20545 0
M  V30 3644 H 347.381 2.97655 0.143327 0
M  V30 3645 H 344.918 1.46982 0.0589934 0
M  V30 3646 H 346.876 3.25681 2.60745 0
M  V30 3647 H 345.506 2.13015 2.42538 0
M  V30 3648 H 344.558 3.75164 0.628999 0
M  V30 3649 H 345.87 4.8783 1.04036 0
M  V30 3650 H 345.024 5.03078 3.39113 0
M  V30 3651 H 343.763 3.81628 3.03663 0
M  V30 3652 H 342.768 5.34027 1.3075 0
M  V30 3653 H 343.993 6.57801 1.68746 0
M  V30 3654 H 341.939 5.46148 3.63399 0
M  V30 3655 H 341.856 7.00343 2.84704 0
M  V30 3656 H 343.124 6.69338 3.99508 0
M  V30 3657 N 347.353 -0.0568162 1.57498 0
M  V30 3658 C 348.601 -0.751617 1.87604 0
M  V30 3659 C 348.922 -1.77351 0.81066 0
M  V30 3660 O 348.192 -1.95254 -0.159018 0
M  V30 3661 H 346.772 -0.280583 0.692302 0
M  V30 3662 H 349.434 -0.0293483 1.94878 0
M  V30 3663 H 348.53 -1.25852 2.856 0
M  V30 3664 O 348.87 -1.60255 -0.200168 0
M  V30 3665 H 349.561 -1.74563 -0.839496 0
M  V30 END ATOM
M  V30 BEGIN BOND
M  V30 END BOND
M  V30 END CTAB
M  END
$$$$
