drugbank_target|P0A1P6 Glutamine synthetase (DB02663)
 OpenBabel12092120013D

  0  0  0     0  0            999 V3000
M  V30 BEGIN CTAB
M  V30 COUNTS 7194 7280 0 0 0
M  V30 BEGIN ATOM
M  V30 1 H -0.908 1.98254 -0.117106 0
M  V30 2 N 0 1.576 0 0
M  V30 3 C 0.933 2.03868 1.02534 0
M  V30 4 C 1.911 0.928543 1.3348 0
M  V30 5 O 3.095 1.19667 1.45644 0
M  V30 6 C 0.222 2.43627 2.35294 0
M  V30 7 C -0.732 3.65373 2.2001 0
M  V30 8 S 0.101 5.13292 1.52614 0
M  V30 9 C 1.257 5.56322 2.86805 0
M  V30 10 H 1.49 2.90518 0.631377 0
M  V30 11 H -0.977 1.52953 0.210867 0
M  V30 12 H 0.981 2.67203 3.11629 0
M  V30 13 H -0.358 1.57376 2.7183 0
M  V30 14 H -1.165 3.90944 3.18086 0
M  V30 15 H -1.563 3.418 1.51819 0
M  V30 16 H 0.729 5.58782 3.83104 0
M  V30 17 H 1.672 6.56266 2.65933 0
M  V30 18 H 2.08 4.83886 2.90714 0
M  V30 19 N 1.4781 -0.272755 1.55222 0
M  V30 20 C 2.7031 -1.02683 1.80197 0
M  V30 21 C 3.1281 -1.79142 0.573551 0
M  V30 22 O 2.4861 -1.74917 -0.476849 0
M  V30 23 C 2.5341 -1.9609 3.02624 0
M  V30 24 O 1.6381 -3.04863 2.77727 0
M  V30 25 H 0.9791 -0.293557 0.595584 0
M  V30 26 H 3.5091 -0.30159 2.02365 0
M  V30 27 H 3.5191 -2.38039 3.31363 0
M  V30 28 H 2.1941 -1.39851 3.91682 0
M  V30 29 H 0.7711 -2.67228 2.60084 0
M  V30 30 N 2.9562 -1.48159 -0.537278 0
M  V30 31 C 3.9192 -1.61665 -1.62472 0
M  V30 32 C 4.9192 -0.490395 -1.5314 0
M  V30 33 O 6.1092 -0.755998 -1.5694 0
M  V30 34 C 3.2412 -1.57997 -3.02076 0
M  V30 35 H 4.4342 -2.58621 -1.51839 0
M  V30 36 H 1.9872 -1.36647 -0.758771 0
M  V30 37 H 2.7222 -0.624913 -3.18222 0
M  V30 38 H 2.5072 -2.39755 -3.10258 0
M  V30 39 H 3.9972 -1.70627 -3.81151 0
M  V30 40 N 4.4343 0.785586 -1.36625 0
M  V30 41 C 5.3443 1.92964 -1.33425 0
M  V30 42 C 6.3603 1.72394 -0.235851 0
M  V30 43 O 7.5363 1.95866 -0.468878 0
M  V30 44 C 4.6013 3.27884 -1.12662 0
M  V30 45 C 3.6623 3.61204 -2.32013 0
M  V30 46 C 2.8953 4.89687 -2.12231 0
M  V30 47 O 3.1183 5.59704 -1.09945 0
M  V30 48 O 2.0523 5.21752 -3.00098 0
M  V30 49 H 5.8783 1.98613 -2.29753 0
M  V30 50 H 3.4633 0.926384 -1.17211 0
M  V30 51 H 5.3453 4.08614 -1.03016 0
M  V30 52 H 4.0203 3.23118 -0.193991 0
M  V30 53 H 2.9273 2.80765 -2.47228 0
M  V30 54 H 4.2603 3.70698 -3.23796 0
M  V30 55 N 5.9124 1.20967 1.01018 0
M  V30 56 C 6.8624 0.93182 2.08089 0
M  V30 57 C 7.8464 -0.110898 1.60517 0
M  V30 58 O 9.0384 0.0973392 1.76732 0
M  V30 59 C 6.1674 0.492719 3.39746 0
M  V30 60 C 5.2534 1.56922 3.94 0
M  V30 61 N 5.6444 2.79312 4.21686 0
M  V30 62 C 3.9424 1.43688 4.2222 0
M  V30 63 C 4.6434 3.48797 4.65527 0
M  V30 64 N 3.6194 2.76224 4.68189 0
M  V30 65 H 7.4214 1.86175 2.27412 0
M  V30 66 H 4.9354 1.10463 1.19045 0
M  V30 67 H 6.9324 0.275044 4.15992 0
M  V30 68 H 5.5924 -0.430509 3.21833 0
M  V30 69 H 6.6034 3.15903 4.10397 0
M  V30 70 H 3.2804 0.578548 4.13472 0
M  V30 71 H 4.6704 4.53561 4.95714 0
M  V30 72 N 7.3905 -1.2043 1.01659 0
M  V30 73 C 8.6365 -1.90079 0.706963 0
M  V30 74 C 8.9695 -1.78648 -0.761474 0
M  V30 75 O 8.2445 -1.17069 -1.55323 0
M  V30 76 C 8.5275 -3.41469 1.14327 0
M  V30 77 C 8.3805 -3.61833 2.67201 0
M  V30 78 C 9.6995 -4.34261 0.714529 0
M  V30 79 H 6.8185 -0.690254 0.2583 0
M  V30 80 H 9.4605 -1.41826 1.26433 0
M  V30 81 H 7.6105 -3.82696 0.669056 0
M  V30 82 H 9.2825 -3.2986 3.22475 0
M  V30 83 H 7.5255 -3.05304 3.08175 0
M  V30 84 H 8.1965 -4.67955 2.92783 0
M  V30 85 H 10.6725 -4.00682 1.12221 0
M  V30 86 H 9.5485 -5.38806 1.04784 0
M  V30 87 H 9.8095 -4.40431 -0.383799 0
M  V30 88 N 8.8686 -0.792821 -1.36206 0
M  V30 89 C 9.7986 -0.207853 -2.32573 0
M  V30 90 C 10.7796 0.659055 -1.56813 0
M  V30 91 O 11.9646 0.592176 -1.84951 0
M  V30 92 C 9.0946 0.655449 -3.41059 0
M  V30 93 C 8.0486 -0.111842 -4.27854 0
M  V30 94 C 7.3746 0.872274 -5.27537 0
M  V30 95 C 8.6746 -1.30299 -5.05786 0
M  V30 96 H 10.3686 -1.01294 -2.81744 0
M  V30 97 H 7.9146 -0.48854 -1.3546 0
M  V30 98 H 9.8676 1.07464 -4.07467 0
M  V30 99 H 8.5916 1.49328 -2.90463 0
M  V30 100 H 7.2506 -0.512053 -3.63006 0
M  V30 101 H 6.8986 1.70523 -4.73214 0
M  V30 102 H 6.5986 0.363291 -5.86476 0
M  V30 103 H 8.1226 1.28996 -5.96818 0
M  V30 104 H 9.5366 -0.959379 -5.65216 0
M  V30 105 H 7.9336 -1.7455 -5.74154 0
M  V30 106 H 9.0036 -2.09663 -4.37229 0
M  V30 107 N 10.3467 1.47872 -0.545128 0
M  V30 108 C 11.5747 2.06889 -0.021084 0
M  V30 109 C 11.9897 1.39955 1.2672 0
M  V30 110 O 11.3467 0.492036 1.75742 0
M  V30 111 C 11.3977 3.60996 0.190817 0
M  V30 112 O 11.1187 4.25419 -1.04644 0
M  V30 113 C 12.6197 4.36849 0.753521 0
M  V30 114 H 9.8397 0.669785 -0.0403635 0
M  V30 115 H 12.3837 1.90049 -0.755095 0
M  V30 116 H 10.5387 3.77391 0.87492 0
M  V30 117 H 10.9527 5.17785 -0.836611 0
M  V30 118 H 12.4267 5.45399 0.851139 0
M  V30 119 H 12.9037 4.02306 1.762 0
M  V30 120 H 13.5097 4.25169 0.105503 0
M  V30 121 N 11.8248 0.280983 1.55075 0
M  V30 122 C 12.7578 -0.645439 2.18882 0
M  V30 123 C 13.7358 -1.14786 1.15165 0
M  V30 124 O 14.9198 -1.21975 1.43716 0
M  V30 125 C 12.0468 -1.88088 2.81674 0
M  V30 126 C 11.0928 -1.51343 3.98745 0
M  V30 127 S 11.9258 -0.586548 5.32278 0
M  V30 128 C 13.0818 -1.83024 5.98543 0
M  V30 129 H 13.3148 -0.1033 2.9712 0
M  V30 130 H 10.8478 0.0652099 1.54262 0
M  V30 131 H 12.8058 -2.58997 3.18482 0
M  V30 132 H 11.4668 -2.39417 2.03318 0
M  V30 133 H 10.6598 -2.43289 4.41392 0
M  V30 134 H 10.2618 -0.884477 3.63391 0
M  V30 135 H 12.5538 -2.77342 6.18133 0
M  V30 136 H 13.4968 -1.44668 6.93164 0
M  V30 137 H 13.9048 -1.99785 5.27964 0
M  V30 138 N 13.3029 -1.57598 0.00835791 0
M  V30 139 C 14.2329 -2.1198 -0.979113 0
M  V30 140 C 15.2139 -1.03091 -1.35301 0
M  V30 141 O 16.3989 -1.30818 -1.43528 0
M  V30 142 C 13.5289 -2.62995 -2.26828 0
M  V30 143 C 12.4829 -3.76485 -2.03576 0
M  V30 144 C 11.8089 -4.13846 -3.38579 0
M  V30 145 C 13.1089 -5.0342 -1.39161 0
M  V30 146 H 14.8029 -2.94738 -0.526281 0
M  V30 147 H 12.3489 -1.41783 -0.251704 0
M  V30 148 H 14.3019 -2.99669 -2.96271 0
M  V30 149 H 13.0259 -1.7737 -2.7424 0
M  V30 150 H 11.6849 -3.40217 -1.36557 0
M  V30 151 H 11.3329 -3.25232 -3.83709 0
M  V30 152 H 11.0329 -4.90312 -3.23834 0
M  V30 153 H 12.5569 -4.53086 -4.09323 0
M  V30 154 H 13.9709 -5.37812 -1.98573 0
M  V30 155 H 12.3679 -5.84746 -1.34878 0
M  V30 156 H 13.4379 -4.83548 -0.361868 0
M  V30 157 N 14.781 0.264519 -1.55364 0
M  V30 158 C 15.729 1.34702 -1.89626 0
M  V30 159 C 16.723 1.50712 -0.773459 0
M  V30 160 O 17.929 1.52395 -0.957897 0
M  V30 161 H 14.304 0.450682 -0.601988 0
M  V30 162 H 16.275 1.0306 -2.80038 0
M  V30 163 C 15.024 2.6989 -2.19214 0
M  V30 164 H 14.347 2.58365 -3.05103 0
M  V30 165 H 15.787 3.44553 -2.47102 0
M  V30 166 C 14.246 3.21637 -1.00254 0
M  V30 167 O 14.776 4.00973 -0.241501 0
M  V30 168 N 12.982 2.7943 -0.797938 0
M  V30 169 H 12.529 2.15026 -1.4185 0
M  V30 170 H 12.487 3.144 -0.00363422 0
M  V30 171 N 16.2591 1.48442 0.529413 0
M  V30 172 C 17.1691 1.6569 1.66084 0
M  V30 173 C 18.1851 0.539432 1.65427 0
M  V30 174 O 19.3611 0.810572 1.84368 0
M  V30 175 C 16.4261 1.69315 3.02545 0
M  V30 176 C 15.4871 2.92694 3.14052 0
M  V30 177 C 14.7201 2.96137 4.44003 0
M  V30 178 O 14.9431 2.07973 5.31134 0
M  V30 179 O 13.8771 3.88312 4.59888 0
M  V30 180 H 17.7031 2.61483 1.54469 0
M  V30 181 H 15.2881 1.3185 0.702567 0
M  V30 182 H 17.1701 1.74217 3.83701 0
M  V30 183 H 15.8451 0.766966 3.14483 0
M  V30 184 H 14.7521 2.93324 2.32189 0
M  V30 185 H 16.0851 3.84699 3.0703 0
M  V30 186 N 17.7372 -0.778329 1.37039 0
M  V30 187 C 18.6872 -1.88142 1.28789 0
M  V30 188 C 19.6712 -1.59923 0.177063 0
M  V30 189 O 20.8632 -1.72165 0.410873 0
M  V30 190 C 17.9922 -3.25518 1.09055 0
M  V30 191 C 17.0782 -3.5971 2.24654 0
M  V30 192 N 17.4692 -3.65131 3.50018 0
M  V30 193 C 15.7672 -3.89837 2.16663 0
M  V30 194 C 16.4682 -3.95882 4.26207 0
M  V30 195 N 15.4442 -4.11441 3.55271 0
M  V30 196 H 19.2462 -1.90575 2.23737 0
M  V30 197 H 16.7602 -0.974435 1.29917 0
M  V30 198 H 18.7572 -4.04423 1.0123 0
M  V30 199 H 17.4172 -3.24353 0.15018 0
M  V30 200 H 18.4282 -3.475 3.84011 0
M  V30 201 H 15.1052 -3.96533 1.30645 0
M  V30 202 H 16.4952 -4.06907 5.34674 0
M  V30 203 N 19.2153 -1.21501 -1.00376 0
M  V30 204 C 20.1253 -0.991447 -2.12621 0
M  V30 205 C 21.1413 0.0568446 -1.73907 0
M  V30 206 O 22.3173 -0.13348 -2.00957 0
M  V30 207 C 19.3823 -0.560312 -3.42142 0
M  V30 208 C 18.4433 -1.68096 -3.95022 0
M  V30 209 C 17.6763 -1.2703 -5.18362 0
M  V30 210 O 17.8993 -0.144438 -5.70217 0
M  V30 211 O 16.8333 -2.08269 -5.64719 0
M  V30 212 H 20.6593 -1.93158 -2.34358 0
M  V30 213 H 18.2443 -0.999999 -1.10997 0
M  V30 214 H 20.1263 -0.329724 -4.20108 0
M  V30 215 H 18.8013 0.351089 -3.2179 0
M  V30 216 H 17.7083 -1.96597 -3.18278 0
M  V30 217 H 19.0413 -2.56983 -4.19786 0
M  V30 218 N 20.6934 1.19889 -1.02296 0
M  V30 219 C 21.9394 1.89701 -0.717033 0
M  V30 220 C 22.2724 1.7905 0.751989 0
M  V30 221 O 21.5474 1.17891 1.547 0
M  V30 222 C 21.8304 3.40858 -1.16136 0
M  V30 223 C 21.6834 3.60411 -2.69117 0
M  V30 224 C 23.0024 4.33876 -0.737549 0
M  V30 225 H 20.1214 0.688874 -0.261957 0
M  V30 226 H 22.7634 1.41154 -1.27183 0
M  V30 227 H 20.9134 3.82335 -0.689342 0
M  V30 228 H 22.5854 3.28145 -3.2422 0
M  V30 229 H 20.8284 3.03665 -3.0979 0
M  V30 230 H 21.4994 4.66396 -2.95261 0
M  V30 231 H 23.9754 4.00081 -1.14344 0
M  V30 232 H 22.8514 5.38242 -1.0764 0
M  V30 233 H 23.1124 4.40628 0.360436 0
M  V30 234 N 22.1715 0.800033 1.35784 0
M  V30 235 C 23.1185 0.203848 2.29898 0
M  V30 236 C 24.0885 -0.658375 1.52495 0
M  V30 237 O 25.2735 -0.604832 1.8096 0
M  V30 238 C 22.4135 -0.64688 3.38983 0
M  V30 239 C 21.5265 0.235054 4.3136 0
M  V30 240 C 20.6615 -0.623054 5.27533 0
M  V30 241 C 19.7005 0.259682 6.11549 0
M  V30 242 N 18.8375 -0.558019 6.99879 0
M  V30 243 H 23.6775 1.01186 2.80295 0
M  V30 244 H 21.2145 0.51053 1.37957 0
M  V30 245 H 23.1725 -1.15521 4.00887 0
M  V30 246 H 21.8025 -1.42021 2.89879 0
M  V30 247 H 20.8545 0.861438 3.70518 0
M  V30 248 H 22.1665 0.914768 4.9034 0
M  V30 249 H 21.3205 -1.19678 5.94779 0
M  V30 250 H 20.0595 -1.33636 4.69034 0
M  V30 251 H 19.0645 0.845726 5.43256 0
M  V30 252 H 20.2895 0.970748 6.72126 0
M  V30 253 H 18.2355 -1.25542 6.43875 0
M  V30 254 H 18.1525 0.0637872 7.55973 0
M  V30 255 H 19.4205 -1.11523 7.71481 0
M  V30 256 N 23.6496 -1.47581 0.552962 0
M  V30 257 C 24.8966 -2.02482 0.0273243 0
M  V30 258 C 25.2246 -1.42776 -1.32081 0
M  V30 259 O 24.4796 -0.571393 -1.87173 0
M  V30 260 C 24.7786 -3.57199 -0.119728 0
M  V30 261 C 24.4446 -4.35804 1.15697 0
M  V30 262 C 23.1066 -4.57 1.50681 0
M  V30 263 C 25.4586 -4.81167 2.00319 0
M  V30 264 C 22.7866 -5.20807 2.70142 0
M  V30 265 C 25.1386 -5.46293 3.18978 0
M  V30 266 C 23.8026 -5.65722 3.54281 0
M  V30 267 H 23.0726 -0.740933 0.00999866 0
M  V30 268 H 25.7196 -1.77302 0.72362 0
M  V30 269 H 24.0246 -3.81348 -0.89896 0
M  V30 270 H 25.7216 -3.97324 -0.541718 0
M  V30 271 H 22.3116 -4.19582 0.874561 0
M  V30 272 H 26.4956 -4.64574 1.74599 0
M  V30 273 H 21.7516 -5.34045 2.97668 0
M  V30 274 H 25.9256 -5.80407 3.84838 0
M  V30 275 H 23.5526 -6.14936 4.46942 0
M  V30 276 N 25.1277 -0.289203 -1.54924 0
M  V30 277 C 26.3737 0.323998 -2.00195 0
M  V30 278 C 26.7067 1.54441 -1.17735 0
M  V30 279 O 25.9817 1.92875 -0.250878 0
M  V30 280 C 26.2647 0.692276 -3.53383 0
M  V30 281 C 26.1177 -0.536457 -4.46589 0
M  V30 282 C 27.4367 1.52335 -4.12895 0
M  V30 283 H 24.5557 0.116289 -0.727768 0
M  V30 284 H 27.1977 -0.398954 -1.85764 0
M  V30 285 H 25.3477 1.30822 -3.65811 0
M  V30 286 H 27.0197 -1.17499 -4.46085 0
M  V30 287 H 25.2627 -1.17192 -4.1767 0
M  V30 288 H 25.9337 -0.234806 -5.515 0
M  V30 289 H 28.4097 1.00302 -4.0383 0
M  V30 290 H 27.2857 1.74982 -5.20262 0
M  V30 291 H 27.5467 2.50886 -3.64018 0
M  V30 292 N 26.6058 1.57591 -0.0167156 0
M  V30 293 C 27.8828 1.82547 0.702564 0
M  V30 294 C 28.2628 0.898018 1.91047 0
M  V30 295 O 27.6108 -0.0493456 2.28447 0
M  V30 296 C 27.8208 3.31459 1.09251 0
M  V30 297 C 29.1688 3.97622 1.48937 0
M  V30 298 O 30.1928 3.35881 1.18584 0
M  V30 299 O 29.0518 5.06415 2.05442 0
M  V30 300 H 26.1458 0.752268 0.343544 0
M  V30 301 H 28.6918 1.69644 -0.0434495 0
M  V30 302 H 27.4638 3.9061 0.23227 0
M  V30 303 H 27.0868 3.49422 1.89709 0
M  V30 304 N 28.0839 -0.256276 1.55502 0
M  V30 305 C 29.0139 -1.32102 1.92539 0
M  V30 306 C 29.9949 -1.50684 0.789194 0
M  V30 307 O 31.1799 -1.63449 1.04872 0
M  V30 308 C 28.3099 -2.67752 2.21192 0
M  V30 309 C 27.2639 -2.63878 3.36975 0
M  V30 310 C 26.5899 -4.03236 3.51147 0
M  V30 311 C 27.8899 -2.21682 4.72921 0
M  V30 312 H 29.5839 -1.01351 2.81724 0
M  V30 313 H 27.1299 -0.486105 1.35547 0
M  V30 314 H 29.0829 -3.42365 2.45691 0
M  V30 315 H 27.8069 -3.0012 1.28824 0
M  V30 316 H 26.4659 -1.91722 3.12471 0
M  V30 317 H 26.1139 -4.32854 2.56216 0
M  V30 318 H 25.8139 -4.01535 4.29003 0
M  V30 319 H 27.3379 -4.79563 3.77957 0
M  V30 320 H 28.7519 -2.86023 4.96854 0
M  V30 321 H 27.1489 -2.3111 5.53812 0
M  V30 322 H 28.2189 -1.16833 4.70615 0
M  V30 323 N 29.562 -1.4872 -0.521534 0
M  V30 324 C 30.978 -1.35028 -0.850855 0
M  V30 325 C 31.178 -0.367712 -1.98116 0
M  V30 326 O 30.234 0.208037 -2.51642 0
M  V30 327 C 31.547 -2.75263 -1.21041 0
M  V30 328 C 33.095 -2.83813 -1.31981 0
M  V30 329 C 33.57 -4.24769 -1.71276 0
M  V30 330 N 35.061 -4.27482 -1.78363 0
M  V30 331 C 35.796 -5.33494 -2.1017 0
M  V30 332 N 35.292 -6.49775 -2.40343 0
M  V30 333 N 37.085 -5.20894 -2.11248 0
M  V30 334 H 29.236 -2.11214 0.22413 0
M  V30 335 H 31.499 -0.947252 0.0376439 0
M  V30 336 H 31.205 -3.48765 -0.453415 0
M  V30 337 H 31.079 -3.09327 -2.15863 0
M  V30 338 H 33.466 -2.10561 -2.06756 0
M  V30 339 H 33.547 -2.53358 -0.352596 0
M  V30 340 H 33.191 -4.9854 -0.970588 0
M  V30 341 H 33.121 -4.52673 -2.69062 0
M  V30 342 H 35.612 -3.43611 -1.57288 0
M  V30 343 H 35.925 -7.26402 -2.63743 0
M  V30 344 H 34.27 -6.53035 -2.37844 0
M  V30 345 H 37.461 -4.29065 -1.87139 0
M  V30 346 H 37.634 -6.03612 -2.35704 0
M  V30 347 N 31.0401 0.771051 -1.3745 0
M  V30 348 C 32.2871 1.52963 -1.32697 0
M  V30 349 C 32.6151 1.94299 0.0883274 0
M  V30 350 O 31.8701 1.64397 1.0617 0
M  V30 351 C 32.1691 2.80676 -2.2126 0
M  V30 352 C 31.8351 2.58389 -3.69521 0
M  V30 353 C 30.4971 2.52019 -4.09927 0
M  V30 354 C 32.8491 2.38469 -4.63446 0
M  V30 355 C 30.1771 2.23721 -5.42371 0
M  V30 356 C 32.5291 2.11694 -5.96128 0
M  V30 357 C 31.1931 2.03769 -6.35637 0
M  V30 358 H 30.4631 0.559732 -0.485573 0
M  V30 359 H 33.1101 0.888083 -1.69662 0
M  V30 360 H 31.4151 3.49392 -1.77291 0
M  V30 361 H 33.1121 3.38557 -2.14895 0
M  V30 362 H 29.7021 2.6421 -3.37478 0
M  V30 363 H 33.8861 2.4238 -4.33089 0
M  V30 364 H 29.1421 2.16081 -5.71943 0
M  V30 365 H 33.3161 1.9528 -6.6846 0
M  V30 366 H 30.9431 1.81606 -7.38189 0
M  V30 367 N 32.5182 1.22032 0.997298 0
M  V30 368 C 33.7462 1.06841 1.7718 0
M  V30 369 C 34.1612 -0.381325 1.84909 0
M  V30 370 O 33.5182 -1.26437 1.31605 0
M  V30 371 C 33.5692 1.66814 3.20711 0
M  V30 372 O 33.2902 3.06116 3.13408 0
M  V30 373 C 34.7912 1.56838 4.14628 0
M  V30 374 H 32.0112 0.374782 0.556578 0
M  V30 375 H 34.5552 1.61532 1.2541 0
M  V30 376 H 32.7102 1.16196 3.69564 0
M  V30 377 H 33.1242 3.34926 4.0364 0
M  V30 378 H 34.5982 2.03532 5.13107 0
M  V30 379 H 35.0752 0.524155 4.36061 0
M  V30 380 H 35.6812 2.06741 3.7167 0
M  V30 381 N 33.9963 -1.19345 1.0293 0
M  V30 382 C 35.2733 -1.84811 0.640642 0
M  V30 383 C 35.6533 -1.91855 -0.88062 0
M  V30 384 O 35.0013 -1.43587 -1.7775 0
M  V30 385 C 35.2113 -3.23755 1.30321 0
M  V30 386 C 36.5593 -3.99912 1.42673 0
M  V30 387 O 37.5833 -3.33155 1.26041 0
M  V30 388 O 36.4423 -5.19494 1.6967 0
M  V30 389 H 33.5363 -0.796443 0.222726 0
M  V30 390 H 36.0823 -1.26831 1.12748 0
M  V30 391 H 34.8543 -3.13466 2.34211 0
M  V30 392 H 34.4773 -3.89381 0.804261 0
M  V30 393 N 35.4744 -0.807222 -1.35358 0
M  V30 394 C 36.7024 -0.400377 -2.02989 0
M  V30 395 C 37.1174 0.988859 -1.60832 0
M  V30 396 O 36.4744 1.63729 -0.806175 0
M  V30 397 C 36.5254 -0.474867 -3.58368 0
M  V30 398 O 36.2464 -1.80933 -3.98992 0
M  V30 399 C 37.7474 -0.0609112 -4.43258 0
M  V30 400 H 34.9674 -0.162587 -0.651004 0
M  V30 401 H 37.5114 -1.09102 -1.72965 0
M  V30 402 H 35.6664 0.167534 -3.87038 0
M  V30 403 H 36.0804 -1.77256 -4.9364 0
M  V30 404 H 37.5544 -0.164145 -5.51756 0
M  V30 405 H 38.0314 0.993831 -4.27808 0
M  V30 406 H 38.6374 -0.676492 -4.19885 0
M  V30 407 N 36.9525 1.47285 -0.560781 0
M  V30 408 C 37.8995 2.30058 0.18491 0
M  V30 409 C 38.8695 1.39281 0.904986 0
M  V30 410 O 40.0545 1.68241 0.899979 0
M  V30 411 C 37.1945 3.23317 1.20666 0
M  V30 412 C 36.3075 4.29186 0.492285 0
M  V30 413 C 35.4425 5.09592 1.49964 0
M  V30 414 C 34.4815 6.07232 0.770439 0
M  V30 415 N 33.6185 6.80584 1.72479 0
M  V30 416 H 38.4585 2.93302 -0.527048 0
M  V30 417 H 35.9955 1.44568 -0.271738 0
M  V30 418 H 37.9535 3.75811 1.81168 0
M  V30 419 H 36.5835 2.61929 1.88661 0
M  V30 420 H 35.6355 3.7972 -0.227333 0
M  V30 421 H 36.9475 4.98738 -0.0787929 0
M  V30 422 H 36.1015 5.66254 2.17809 0
M  V30 423 H 34.8405 4.3995 2.10464 0
M  V30 424 H 33.8455 5.49745 0.0780846 0
M  V30 425 H 35.0705 6.78884 0.171134 0
M  V30 426 H 33.0165 6.1367 2.3183 0
M  V30 427 H 32.9335 7.46319 1.20596 0
M  V30 428 H 34.2015 7.41818 2.39428 0
M  V30 429 N 38.4306 0.297415 1.54768 0
M  V30 430 C 39.6786 -0.312295 1.99673 0
M  V30 431 C 39.9996 -1.54686 1.18732 0
M  V30 432 O 39.2696 -1.93854 0.282382 0
M  V30 433 H 37.8496 -0.118381 0.73756 0
M  V30 434 H 40.5116 0.407915 1.90583 0
M  V30 435 H 39.6076 -0.586813 3.06534 0
M  V30 436 N 39.9087 -1.5758 0.0250728 0
M  V30 437 C 40.8557 -2.09973 -0.958129 0
M  V30 438 C 41.8257 -1.00085 -1.3256 0
M  V30 439 O 43.0107 -1.27481 -1.41962 0
M  V30 440 C 40.1507 -2.62812 -2.2366 0
M  V30 441 C 39.2637 -3.86693 -1.92594 0
M  V30 442 C 38.3987 -4.27941 -3.14707 0
M  V30 443 C 37.4377 -5.44591 -2.79442 0
M  V30 444 N 36.5747 -5.81014 -3.94167 0
M  V30 445 H 41.4147 -2.937 -0.504428 0
M  V30 446 H 38.9517 -1.45172 -0.237392 0
M  V30 447 H 40.9097 -2.91536 -2.98434 0
M  V30 448 H 39.5397 -1.81922 -2.66654 0
M  V30 449 H 38.5917 -3.64723 -1.0808 0
M  V30 450 H 39.9037 -4.71547 -1.62619 0
M  V30 451 H 39.0577 -4.58079 -3.97804 0
M  V30 452 H 37.7967 -3.41845 -3.4784 0
M  V30 453 H 36.8017 -5.1415 -1.94755 0
M  V30 454 H 38.0267 -6.32382 -2.47528 0
M  V30 455 H 35.9727 -4.97874 -4.2715 0
M  V30 456 H 35.8897 -6.60498 -3.67801 0
M  V30 457 H 37.1577 -6.15756 -4.7798 0
M  V30 458 N 41.3868 0.248026 -1.55636 0
M  V30 459 C 42.2968 1.32859 -1.93354 0
M  V30 460 C 43.3128 1.52719 -0.833838 0
M  V30 461 O 44.4888 1.66363 -1.13513 0
M  V30 462 C 41.5538 2.66337 -2.21958 0
M  V30 463 C 40.6148 2.55008 -3.45354 0
M  V30 464 C 39.8478 3.82121 -3.72584 0
M  V30 465 O 40.0708 4.83951 -3.01907 0
M  V30 466 O 39.0048 3.80822 -4.6611 0
M  V30 467 H 42.8308 1.03862 -2.85388 0
M  V30 468 H 40.4158 0.448686 -1.42503 0
M  V30 469 H 42.2978 3.45216 -2.4167 0
M  V30 470 H 40.9728 2.95068 -1.33103 0
M  V30 471 H 39.8798 1.7442 -3.30951 0
M  V30 472 H 41.2128 2.31222 -4.34508 0
M  V30 473 N 42.8649 1.48995 0.513639 0
M  V30 474 C 43.7969 1.60836 1.63293 0
M  V30 475 C 44.8099 0.491701 1.55197 0
M  V30 476 O 45.9989 0.763238 1.6136 0
M  V30 477 C 43.0989 1.53731 3.02027 0
M  V30 478 C 42.2719 2.80715 3.35437 0
M  V30 479 C 41.3309 2.66837 4.53525 0
M  V30 480 O 40.3569 3.40753 4.55934 0
M  V30 481 N 41.5589 1.77539 5.52684 0
M  V30 482 H 44.3239 2.57366 1.53566 0
M  V30 483 H 41.8849 1.45925 0.701259 0
M  V30 484 H 43.8769 1.42118 3.78926 0
M  V30 485 H 42.4469 0.651092 3.05744 0
M  V30 486 H 41.6669 3.06772 2.47557 0
M  V30 487 H 42.9549 3.64927 3.54551 0
M  V30 488 H 42.3529 1.16719 5.53528 0
M  V30 489 H 40.9099 1.71856 6.28736 0
M  V30 490 N 44.343 -0.763751 1.37857 0
M  V30 491 C 45.293 -1.86765 1.30777 0
M  V30 492 C 46.277 -1.59726 0.194015 0
M  V30 493 O 47.469 -1.7172 0.42911 0
M  V30 494 C 44.598 -3.24343 1.12502 0
M  V30 495 C 43.684 -3.57307 2.28456 0
M  V30 496 N 44.075 -3.61398 3.53871 0
M  V30 497 C 42.373 -3.87517 2.20786 0
M  V30 498 C 43.074 -3.91339 4.30382 0
M  V30 499 N 42.05 -4.07649 3.59615 0
M  V30 500 H 45.852 -1.88191 2.25746 0
M  V30 501 H 43.366 -0.9606 1.30944 0
M  V30 502 H 45.363 -4.03327 1.05514 0
M  V30 503 H 44.023 -3.24175 0.184574 0
M  V30 504 H 45.034 -3.43407 3.87675 0
M  V30 505 H 41.711 -3.95125 1.34844 0
M  V30 506 H 43.101 -4.01213 5.3896 0
M  V30 507 N 45.8211 -1.22559 -0.990812 0
M  V30 508 C 47.0671 -1.05297 -1.73322 0
M  V30 509 C 47.4001 0.410655 -1.89808 0
M  V30 510 O 46.6751 1.30439 -1.44277 0
M  V30 511 C 46.9581 -1.76713 -3.13759 0
M  V30 512 C 46.8111 -3.30684 -3.04907 0
M  V30 513 C 48.1301 -1.52121 -4.12974 0
M  V30 514 H 45.2491 -0.38392 -0.629106 0
M  V30 515 H 47.8911 -1.50926 -1.15418 0
M  V30 516 H 46.0411 -1.37924 -3.63193 0
M  V30 517 H 47.7131 -3.7893 -2.63077 0
M  V30 518 H 45.9561 -3.60253 -2.41661 0
M  V30 519 H 46.6271 -3.75833 -4.04294 0
M  V30 520 H 49.1031 -1.85819 -3.72304 0
M  V30 521 H 47.9791 -2.04582 -5.0935 0
M  V30 522 H 48.2401 -0.454257 -4.3976 0
M  V30 523 N 47.2992 1.18797 -1.03562 0
M  V30 524 C 48.5272 1.92599 -0.755869 0
M  V30 525 C 48.9422 1.75886 0.686271 0
M  V30 526 O 48.2992 1.08517 1.46732 0
M  V30 527 C 48.3502 3.44159 -1.10619 0
M  V30 528 O 48.0712 3.60341 -2.4917 0
M  V30 529 C 49.5722 4.3507 -0.850214 0
M  V30 530 H 46.7922 0.611587 -0.276048 0
M  V30 531 H 49.3362 1.50742 -1.38192 0
M  V30 532 H 47.4912 3.83823 -0.525194 0
M  V30 533 H 47.9052 4.54128 -2.62427 0
M  V30 534 H 49.3792 5.39989 -1.14523 0
M  V30 535 H 49.8562 4.38673 0.215176 0
M  V30 536 H 50.4622 4.01097 -1.41426 0
M  V30 537 N 48.7773 0.814389 1.34928 0
M  V30 538 C 50.0263 0.394871 1.97797 0
M  V30 539 C 50.3393 -1.04555 1.65311 0
M  V30 540 O 51.5453 -1.56856 2.21604 0
M  V30 541 C 50.0013 0.655103 3.53888 0
M  V30 542 C 49.6093 2.10858 3.95276 0
M  V30 543 C 51.3533 0.301329 4.23429 0
M  V30 544 C 49.2603 2.31415 5.44244 0
M  V30 545 H 48.1903 0.143913 0.740139 0
M  V30 546 H 50.8413 0.999544 1.53888 0
M  V30 547 H 49.2233 -0.0196253 3.95995 0
M  V30 548 H 50.3973 2.82176 3.64298 0
M  V30 549 H 48.7123 2.42297 3.38646 0
M  V30 550 H 51.3093 0.432869 5.32945 0
M  V30 551 H 51.6523 -0.75331 4.09428 0
M  V30 552 H 52.1853 0.930288 3.86769 0
M  V30 553 H 48.9243 3.35353 5.63222 0
M  V30 554 H 48.4443 1.6463 5.76764 0
M  V30 555 H 50.1233 2.13352 6.10811 0
M  V30 556 N 50.2554 -1.46986 0.568584 0
M  V30 557 C 51.6664 -1.86188 0.138219 0
M  V30 558 C 52.0174 -1.47388 -1.29504 0
M  V30 559 O 51.1424 -0.88219 -1.97602 0
M  V30 560 C 51.7374 -3.3792 0.244065 0
M  V30 561 C 50.2964 -3.76171 -0.131335 0
M  V30 562 C 49.4434 -2.71027 0.586465 0
M  V30 563 H 52.3944 -1.38342 0.777645 0
M  V30 564 H 52.4154 -3.76729 -0.534351 0
M  V30 565 H 51.9274 -3.66128 1.28731 0
M  V30 566 H 50.0284 -3.5358 -1.17526 0
M  V30 567 H 50.1414 -4.78523 0.235146 0
M  V30 568 H 48.5054 -2.54684 0.0282722 0
M  V30 569 H 49.2884 -3.02077 1.63109 0
M  V30 570 N 51.7335 -0.305618 -1.54608 0
M  V30 571 C 52.6965 0.555591 -2.22364 0
M  V30 572 C 53.6965 1.05768 -1.21119 0
M  V30 573 O 54.8865 0.952972 -1.45822 0
M  V30 574 C 52.0185 1.76974 -2.91364 0
M  V30 575 H 53.2115 -0.0364572 -2.99878 0
M  V30 576 H 50.7645 -0.0565007 -1.56198 0
M  V30 577 H 51.4995 2.40151 -2.17941 0
M  V30 578 H 51.2845 1.41732 -3.65588 0
M  V30 579 H 52.7745 2.38148 -3.43038 0
M  V30 580 N 53.2116 1.57565 -0.0334293 0
M  V30 581 C 54.1616 2.06978 0.956237 0
M  V30 582 C 55.1456 0.971193 1.28283 0
M  V30 583 O 56.3376 1.23471 1.26822 0
M  V30 584 C 53.4666 2.60393 2.23719 0
M  V30 585 C 52.5526 3.7719 1.93877 0
M  V30 586 N 52.9436 4.87639 1.34321 0
M  V30 587 C 51.2416 3.85758 2.23845 0
M  V30 588 C 51.9426 5.68825 1.21709 0
M  V30 589 N 50.9186 5.1587 1.71404 0
M  V30 590 H 54.7206 2.89773 0.490815 0
M  V30 591 H 52.2346 1.61492 0.171478 0
M  V30 592 H 54.2316 2.94088 2.95496 0
M  V30 593 H 52.8916 1.79031 2.70884 0
M  V30 594 H 53.9026 5.07803 1.01767 0
M  V30 595 H 50.5796 3.1531 2.73653 0
M  V30 596 H 51.9696 6.67631 0.75621 0
M  V30 597 N 54.6897 -0.239769 1.55765 0
M  V30 598 C 55.6217 -1.32001 1.87372 0
M  V30 599 C 56.6347 -1.43944 0.760522 0
M  V30 600 O 57.8237 -1.45167 1.0387 0
M  V30 601 C 54.9237 -2.69779 2.05115 0
M  V30 602 C 54.0967 -2.80014 3.36022 0
M  V30 603 C 53.1557 -3.98684 3.4342 0
M  V30 604 O 52.1817 -3.87877 4.16582 0
M  V30 605 N 53.3837 -5.12176 2.73232 0
M  V30 606 H 56.1487 -1.0522 2.80622 0
M  V30 607 H 53.7097 -0.429857 1.56089 0
M  V30 608 H 55.7017 -3.47517 2.07399 0
M  V30 609 H 54.2717 -2.89237 1.18577 0
M  V30 610 H 53.4917 -1.88896 3.45994 0
M  V30 611 H 54.7797 -2.83808 4.22292 0
M  V30 612 H 54.1777 -5.2385 2.13536 0
M  V30 613 H 52.7347 -5.88022 2.81199 0
M  V30 614 N 56.1678 -1.49265 -0.50573 0
M  V30 615 C 57.4138 -1.58748 -1.26202 0
M  V30 616 C 57.7468 -0.271227 -1.92297 0
M  V30 617 O 57.0218 0.724831 -1.80489 0
M  V30 618 C 57.3048 -2.74332 -2.33268 0
M  V30 619 C 57.1578 -4.15737 -1.71705 0
M  V30 620 C 58.4768 -2.85576 -3.34865 0
M  V30 621 H 55.5958 -0.577826 -0.457478 0
M  V30 622 H 58.2378 -1.81532 -0.560897 0
M  V30 623 H 56.3878 -2.55036 -2.93068 0
M  V30 624 H 58.0598 -4.46537 -1.15769 0
M  V30 625 H 56.3028 -4.21605 -1.02135 0
M  V30 626 H 56.9738 -4.92477 -2.49341 0
M  V30 627 H 59.4498 -3.03127 -2.8505 0
M  V30 628 H 58.3258 -3.68135 -4.07146 0
M  V30 629 H 58.5868 -1.94732 -3.96903 0
M  V30 630 N 57.6459 0.756429 -1.3826 0
M  V30 631 C 58.5939 1.89149 -1.35372 0
M  V30 632 C 59.5879 1.67691 -0.24004 0
M  V30 633 O 60.7939 1.75294 -0.408919 0
M  V30 634 H 57.1689 0.622271 -0.422236 0
M  V30 635 H 59.1399 1.88701 -2.31159 0
M  V30 636 C 57.8889 3.26599 -1.19284 0
M  V30 637 H 57.2119 3.43695 -2.0424 0
M  V30 638 H 58.6519 4.06274 -1.21316 0
M  V30 639 C 57.1109 3.3675 0.100454 0
M  V30 640 O 57.6409 3.86951 1.07851 0
M  V30 641 N 55.8469 2.90179 0.15633 0
M  V30 642 H 55.3939 2.49517 -0.640253 0
M  V30 643 H 55.3519 2.97352 1.02123 0
M  V30 644 N 59.124 1.23083 0.984299 0
M  V30 645 C 60.087 1.00979 2.05757 0
M  V30 646 C 61.087 -0.0269573 1.60777 0
M  V30 647 O 62.277 0.212403 1.729 0
M  V30 648 C 59.409 0.527072 3.36801 0
M  V30 649 H 60.602 1.9622 2.26799 0
M  V30 650 H 58.155 1.05072 1.15714 0
M  V30 651 H 58.89 -0.429294 3.21446 0
M  V30 652 H 58.675 1.27515 3.70786 0
M  V30 653 H 60.165 0.392942 4.15747 0
M  V30 654 N 60.6021 -1.18246 1.0419 0
M  V30 655 C 61.5121 -2.25574 0.644476 0
M  V30 656 C 62.5281 -1.70845 -0.329826 0
M  V30 657 O 63.7041 -2.00554 -0.184443 0
M  V30 658 C 60.7691 -3.46697 0.014877 0
M  V30 659 C 59.8301 -4.16554 1.03834 0
M  V30 660 C 59.0631 -5.31894 0.438692 0
M  V30 661 O 59.2861 -5.65385 -0.754752 0
M  V30 662 O 58.2201 -5.90459 1.168 0
M  V30 663 H 62.0461 -2.61836 1.53869 0
M  V30 664 H 59.6311 -1.25352 0.812854 0
M  V30 665 H 61.5131 -4.20062 -0.335538 0
M  V30 666 H 60.1881 -3.12255 -0.853138 0
M  V30 667 H 59.0951 -3.45251 1.44057 0
M  V30 668 H 60.4281 -4.54998 1.87716 0
M  V30 669 N 62.0802 -0.821533 -1.34494 0
M  V30 670 C 63.3272 -0.408946 -1.98328 0
M  V30 671 C 63.6552 1.02764 -1.65136 0
M  V30 672 O 62.9102 1.73026 -0.914349 0
M  V30 673 C 63.2092 -0.556512 -3.53041 0
M  V30 674 C 62.8752 -1.95861 -4.0614 0
M  V30 675 C 61.5372 -2.34217 -4.20352 0
M  V30 676 C 63.8892 -2.87523 -4.34718 0
M  V30 677 C 61.2172 -3.63572 -4.6047 0
M  V30 678 C 63.5692 -4.1634 -4.76281 0
M  V30 679 C 62.2332 -4.54675 -4.88699 0
M  V30 680 H 61.5032 -0.149644 -0.725732 0
M  V30 681 H 64.1502 -1.04521 -1.6046 0
M  V30 682 H 62.4552 0.163148 -3.9146 0
M  V30 683 H 64.1522 -0.217826 -4.00408 0
M  V30 684 H 60.7422 -1.65066 -3.95539 0
M  V30 685 H 64.9262 -2.59133 -4.23277 0
M  V30 686 H 60.1822 -3.93101 -4.68275 0
M  V30 687 H 64.3562 -4.87455 -4.97354 0
M  V30 688 H 61.9832 -5.54959 -5.19542 0
M  V30 689 N 63.5583 1.46682 -0.576371 0
M  V30 690 C 64.8053 2.02412 -0.0595339 0
M  V30 691 C 65.1333 1.44859 1.29793 0
M  V30 692 O 64.3883 0.601099 1.8624 0
M  V30 693 C 64.6873 3.57345 0.062886 0
M  V30 694 C 64.3533 4.33908 -1.22616 0
M  V30 695 C 63.0153 4.54544 -1.57933 0
M  V30 696 C 65.3673 4.77919 -2.07948 0
M  V30 697 C 62.6953 5.16444 -2.78393 0
M  V30 698 C 65.0473 5.41149 -3.27629 0
M  V30 699 C 63.7113 5.60014 -3.63236 0
M  V30 700 H 62.9813 0.74068 -0.021785 0
M  V30 701 H 65.6283 1.76128 -0.751735 0
M  V30 702 H 63.9333 3.82729 0.838178 0
M  V30 703 H 65.6303 3.98136 0.478439 0
M  V30 704 H 62.2203 4.18138 -0.941202 0
M  V30 705 H 66.4043 4.61738 -1.81967 0
M  V30 706 H 61.6603 5.29242 -3.06126 0
M  V30 707 H 65.8343 5.74211 -3.94023 0
M  V30 708 H 63.4613 6.07748 -4.56669 0
M  V30 709 N 65.0364 0.313813 1.54444 0
M  V30 710 C 65.9464 -0.565714 2.27677 0
M  V30 711 C 66.9624 -1.13754 1.31666 0
M  V30 712 O 68.1384 -1.15959 1.64668 0
M  V30 713 C 65.2034 -1.71528 3.01296 0
M  V30 714 C 64.2644 -1.17624 4.12872 0
M  V30 715 C 63.4974 -2.27102 4.8297 0
M  V30 716 O 63.7204 -3.47256 4.52514 0
M  V30 717 O 62.6544 -1.9307 5.70094 0
M  V30 718 H 66.4804 0.0287296 3.03686 0
M  V30 719 H 64.0654 0.0798312 1.49187 0
M  V30 720 H 65.9474 -2.38476 3.4743 0
M  V30 721 H 64.6224 -2.29608 2.2817 0
M  V30 722 H 63.5294 -0.472124 3.71109 0
M  V30 723 H 64.8624 -0.640695 4.88012 0
M  V30 724 N 66.5145 -1.57545 0.0417849 0
M  V30 725 C 67.4245 -2.14451 -0.951213 0
M  V30 726 C 68.4405 -1.09992 -1.34825 0
M  V30 727 O 69.6165 -1.42114 -1.42708 0
M  V30 728 C 66.6815 -2.67063 -2.21084 0
M  V30 729 C 65.7425 -3.86284 -1.87304 0
M  V30 730 C 64.9755 -4.36378 -3.07261 0
M  V30 731 O 65.1985 -3.85587 -4.20332 0
M  V30 732 O 64.1325 -5.28077 -2.88822 0
M  V30 733 H 67.9585 -2.99601 -0.497287 0
M  V30 734 H 65.5435 -1.48317 -0.179567 0
M  V30 735 H 67.4255 -3.00914 -2.95006 0
M  V30 736 H 66.1005 -1.84989 -2.65633 0
M  V30 737 H 65.0075 -3.57338 -1.10727 0
M  V30 738 H 66.3405 -4.6956 -1.47562 0
M  V30 739 N 67.9926 0.231505 -1.5589 0
M  V30 740 C 69.2406 0.955461 -1.78088 0
M  V30 741 C 69.5616 1.85262 -0.608533 0
M  V30 742 O 68.8316 1.92277 0.375035 0
M  V30 743 H 67.4116 0.355787 -0.656829 0
M  V30 744 H 70.0736 0.245751 -1.93344 0
M  V30 745 H 69.1696 1.56814 -2.69844 0
M  V30 746 N 69.4707 1.49531 0.497807 0
M  V30 747 C 70.4177 1.66436 1.59899 0
M  V30 748 C 71.3877 0.505793 1.58212 0
M  V30 749 O 72.5727 0.733202 1.7615 0
M  V30 750 C 69.7127 1.7399 2.98029 0
M  V30 751 C 68.8257 3.01172 3.09708 0
M  V30 752 C 67.9607 2.99686 4.38591 0
M  V30 753 C 66.9997 4.21434 4.43914 0
M  V30 754 N 66.1367 4.1784 5.64229 0
M  V30 755 H 70.9767 2.60459 1.44793 0
M  V30 756 H 68.5137 1.29137 0.704423 0
M  V30 757 H 70.4717 1.76352 3.78095 0
M  V30 758 H 69.1017 0.834301 3.11832 0
M  V30 759 H 68.1537 3.08408 2.22685 0
M  V30 760 H 69.4657 3.91165 3.09502 0
M  V30 761 H 68.6197 3.00628 5.2698 0
M  V30 762 H 67.3587 2.07477 4.41367 0
M  V30 763 H 66.3637 4.20733 3.53926 0
M  V30 764 H 67.5887 5.14839 4.42851 0
M  V30 765 H 65.5347 3.28469 5.67841 0
M  V30 766 H 65.4517 5.01571 5.65652 0
M  V30 767 H 66.7197 4.22889 6.54817 0
M  V30 768 N 70.9488 -0.749086 1.3866 0
M  V30 769 C 71.8818 -1.87111 1.30631 0
M  V30 770 C 72.8598 -1.61572 0.18251 0
M  V30 771 O 74.0438 -1.85019 0.360592 0
M  V30 772 C 71.1708 -3.22815 1.02511 0
M  V30 773 C 70.2168 -3.67234 2.1689 0
M  V30 774 S 71.0498 -3.78245 3.79066 0
M  V30 775 C 72.2058 -5.16761 3.53142 0
M  V30 776 H 72.4388 -1.93636 2.25594 0
M  V30 777 H 69.9718 -0.912525 1.24549 0
M  V30 778 H 71.9298 -4.01181 0.869701 0
M  V30 779 H 70.5908 -3.13964 0.0925884 0
M  V30 780 H 69.7838 -4.65677 1.92771 0
M  V30 781 H 69.3858 -2.96034 2.28561 0
M  V30 782 H 71.6778 -6.02656 3.09534 0
M  V30 783 H 72.6208 -5.45902 4.50995 0
M  V30 784 H 73.0288 -4.85771 2.87554 0
M  V30 785 N 72.4269 -1.23603 -0.977757 0
M  V30 786 C 73.6739 -1.06971 -1.71941 0
M  V30 787 C 74.0019 0.393009 -1.90488 0
M  V30 788 O 73.2569 1.30719 -1.4564 0
M  V30 789 C 73.5559 -1.7433 -3.11999 0
M  V30 790 C 73.2219 -3.24252 -3.13323 0
M  V30 791 C 71.8839 -3.65156 -3.13392 0
M  V30 792 C 74.2359 -4.20141 -3.08433 0
M  V30 793 C 71.5639 -5.00403 -3.0629 0
M  V30 794 C 73.9159 -5.55384 -3.02873 0
M  V30 795 C 72.5799 -5.95647 -3.01265 0
M  V30 796 H 71.8499 -0.391433 -0.629175 0
M  V30 797 H 74.4969 -1.53572 -1.14403 0
M  V30 798 H 72.8019 -1.20096 -3.7294 0
M  V30 799 H 74.4989 -1.58936 -3.68158 0
M  V30 800 H 71.0889 -2.91692 -3.14029 0
M  V30 801 H 75.2729 -3.89547 -3.07517 0
M  V30 802 H 70.5289 -5.3081 -3.03399 0
M  V30 803 H 74.7029 -6.29398 -2.98046 0
M  V30 804 H 72.3299 -7.0041 -2.95516 0
M  V30 805 N 73.905 1.17692 -1.04816 0
M  V30 806 C 75.182 1.83768 -0.669963 0
M  V30 807 C 75.562 1.93232 0.849986 0
M  V30 808 O 74.91 1.46397 1.75443 0
M  V30 809 C 75.12 3.21641 -1.35455 0
M  V30 810 C 76.468 3.97592 -1.49017 0
M  V30 811 O 77.492 3.31107 -1.31326 0
M  V30 812 O 76.351 5.16729 -1.77914 0
M  V30 813 H 73.445 0.792799 -0.235368 0
M  V30 814 H 75.991 1.25021 -1.14751 0
M  V30 815 H 74.763 3.097 -2.39168 0
M  V30 816 H 74.386 3.88052 -0.866107 0
M  V30 817 N 75.3831 0.828654 1.34056 0
M  V30 818 C 76.6311 0.41863 1.97717 0
M  V30 819 C 76.9521 -1.02314 1.66002 0
M  V30 820 O 76.2221 -1.71119 0.953683 0
M  V30 821 H 74.8021 0.151809 0.731412 0
M  V30 822 H 77.4641 1.05936 1.63596 0
M  V30 823 H 76.5601 0.542318 3.07352 0
M  V30 824 N 76.8612 -1.46375 0.584142 0
M  V30 825 C 78.0862 -2.07268 0.0740405 0
M  V30 826 C 78.5112 -1.42979 -1.22223 0
M  V30 827 O 77.8692 -0.514092 -1.73859 0
M  V30 828 C 77.9172 -3.60518 -0.0767769 0
M  V30 829 O 77.0212 -3.96533 -1.13292 0
M  V30 830 H 76.3622 -0.660961 0.0634524 0
M  V30 831 H 78.8922 -1.87991 0.807492 0
M  V30 832 H 78.9022 -4.07021 -0.282489 0
M  V30 833 H 77.5772 -4.06702 0.86986 0
M  V30 834 H 76.1542 -3.61738 -0.905553 0
M  V30 835 N 78.3393 -0.321999 -1.54275 0
M  V30 836 C 79.5643 0.285791 -2.05422 0
M  V30 837 C 79.9893 1.45124 -1.19669 0
M  V30 838 O 79.3473 1.80132 -0.205441 0
M  V30 839 C 79.3953 0.69956 -3.53749 0
M  V30 840 O 78.4993 1.8021 -3.70942 0
M  V30 841 H 77.8403 0.0518962 -0.661969 0
M  V30 842 H 80.3703 -0.469954 -1.9913 0
M  V30 843 H 80.3803 0.982649 -3.9599 0
M  V30 844 H 79.0553 -0.152864 -4.15619 0
M  V30 845 H 77.6323 1.51794 -3.40607 0
M  V30 846 N 79.8174 1.5752 -0.0501392 0
M  V30 847 C 81.0664 1.91827 0.623328 0
M  V30 848 C 81.3794 0.930222 1.72065 0
M  V30 849 O 82.5854 1.1653 2.4522 0
M  V30 850 C 81.0414 3.40692 1.16003 0
M  V30 851 C 80.6494 4.479 0.0948811 0
M  V30 852 C 82.3934 3.84034 1.80881 0
M  V30 853 C 80.3004 5.87879 0.644411 0
M  V30 854 H 79.2304 0.715918 0.236596 0
M  V30 855 H 81.8814 1.83115 -0.118861 0
M  V30 856 H 80.2634 3.44405 1.9545 0
M  V30 857 H 81.4374 4.55775 -0.678675 0
M  V30 858 H 79.7524 4.13892 -0.45637 0
M  V30 859 H 82.3494 4.85984 2.22988 0
M  V30 860 H 82.6924 3.20225 2.6601 0
M  V30 861 H 83.2254 3.82833 1.0809 0
M  V30 862 H 79.9644 6.55282 -0.169229 0
M  V30 863 H 79.4844 5.83567 1.38598 0
M  V30 864 H 81.1634 6.37098 1.12763 0
M  V30 865 N 81.2955 -0.223234 1.56011 0
M  V30 866 C 82.5435 -0.946003 1.78592 0
M  V30 867 C 82.8645 -1.84936 0.618349 0
M  V30 868 O 82.1345 -1.92473 -0.364833 0
M  V30 869 H 80.7145 -0.352298 0.658707 0
M  V30 870 H 83.3765 -0.235494 1.93472 0
M  V30 871 H 82.4725 -1.55381 2.70672 0
M  V30 872 N 82.7736 -1.49793 -0.48987 0
M  V30 873 C 84.0216 -1.59525 -1.24081 0
M  V30 874 C 84.3426 -0.288953 -1.92847 0
M  V30 875 O 83.6126 0.692436 -1.83254 0
M  V30 876 H 82.1926 -0.587796 -0.460983 0
M  V30 877 H 84.8546 -1.86477 -0.566778 0
M  V30 878 H 83.9506 -2.39696 -1.99881 0
M  V30 879 N 84.2517 0.741722 -1.39055 0
M  V30 880 C 85.4977 1.50234 -1.37118 0
M  V30 881 C 85.8527 1.92368 0.0350439 0
M  V30 882 O 85.1457 1.63422 1.00019 0
M  V30 883 C 85.3397 2.7592 -2.27163 0
M  V30 884 C 85.1687 2.46074 -3.76401 0
M  V30 885 C 83.9387 2.38704 -4.45364 0
M  V30 886 C 86.1367 2.12062 -4.68545 0
M  V30 887 N 84.1187 2.01258 -5.79973 0
M  V30 888 C 85.4897 1.85005 -5.91754 0
M  V30 889 C 87.5447 1.98473 -4.56632 0
M  V30 890 C 86.2477 1.4573 -7.04383 0
M  V30 891 C 88.2737 1.60599 -5.69176 0
M  V30 892 C 87.6357 1.34423 -6.91455 0
M  V30 893 H 83.7347 0.548858 -0.557027 0
M  V30 894 H 86.3187 0.862642 -1.74547 0
M  V30 895 H 84.4897 3.3768 -1.91904 0
M  V30 896 H 86.2217 3.42068 -2.16267 0
M  V30 897 H 82.9767 2.55574 -3.98721 0
M  V30 898 H 83.4007 1.85147 -6.51191 0
M  V30 899 H 88.0427 2.17381 -3.62637 0
M  V30 900 H 85.7607 1.25562 -7.98286 0
M  V30 901 H 89.3467 1.507 -5.61944 0
M  V30 902 H 88.2267 1.05555 -7.77064 0
M  V30 903 N 85.7298 1.2412 0.971189 0
M  V30 904 C 86.6768 1.0305 2.06517 0
M  V30 905 C 87.6468 -0.0550666 1.66009 0
M  V30 906 O 88.8318 0.0988688 1.90544 0
M  V30 907 C 85.9718 0.637653 3.39158 0
M  V30 908 C 85.0848 1.79633 3.92882 0
M  V30 909 C 84.2198 1.34939 5.13775 0
M  V30 910 C 83.2588 2.47823 5.59687 0
M  V30 911 N 82.3958 2.04022 6.71803 0
M  V30 912 H 87.2358 1.96685 2.23873 0
M  V30 913 H 84.7728 0.979694 1.09729 0
M  V30 914 H 86.7308 0.390931 4.15364 0
M  V30 915 H 85.3608 -0.261693 3.21737 0
M  V30 916 H 84.4128 2.15681 3.13346 0
M  V30 917 H 85.7248 2.64466 4.22918 0
M  V30 918 H 84.8788 1.06134 5.97345 0
M  V30 919 H 83.6178 0.471557 4.85415 0
M  V30 920 H 82.6228 2.77392 4.74693 0
M  V30 921 H 83.8478 3.36158 5.90063 0
M  V30 922 H 81.7938 1.18632 6.45184 0
M  V30 923 H 81.7108 2.82409 7.01271 0
M  V30 924 H 82.9788 1.78347 7.58823 0
M  V30 925 N 87.2079 -1.17134 1.05439 0
M  V30 926 C 88.4559 -1.87085 0.764429 0
M  V30 927 C 88.7769 -1.81584 -0.710787 0
M  V30 928 O 88.0469 -1.24349 -1.51374 0
M  V30 929 H 86.6269 -0.692627 0.279779 0
M  V30 930 H 89.2889 -1.42087 1.33406 0
M  V30 931 H 88.3849 -2.92759 1.0816 0
M  V30 932 N 88.686 -0.835752 -1.33615 0
M  V30 933 C 89.935 -0.426289 -1.97144 0
M  V30 934 C 90.248 1.01912 -1.66953 0
M  V30 935 O 91.454 1.53311 -2.24072 0
M  V30 936 C 89.91 -0.711321 -3.52801 0
M  V30 937 C 89.518 -2.1712 -3.91871 0
M  V30 938 C 91.262 -0.368654 -4.22896 0
M  V30 939 C 89.169 -2.40044 -5.40493 0
M  V30 940 H 88.099 -0.15567 -0.737755 0
M  V30 941 H 90.75 -1.0239 -1.52278 0
M  V30 942 H 89.132 -0.0433766 -3.95976 0
M  V30 943 H 90.306 -2.87936 -3.59763 0
M  V30 944 H 88.621 -2.47654 -3.34749 0
M  V30 945 H 91.218 -0.517601 -5.32189 0
M  V30 946 H 91.561 0.688078 -4.10574 0
M  V30 947 H 92.094 -0.991702 -3.8524 0
M  V30 948 H 88.833 -3.44271 -5.57815 0
M  V30 949 H 88.353 -1.73785 -5.74072 0
M  V30 950 H 90.032 -2.23042 -6.0734 0
M  V30 951 N 90.1641 1.46063 -0.591896 0
M  V30 952 C 91.1121 2.32124 0.148739 0
M  V30 953 C 92.1061 1.45035 0.875286 0
M  V30 954 O 93.3121 1.61609 0.792632 0
M  V30 955 H 89.6871 0.749024 0.066832 0
M  V30 956 H 91.6581 2.92392 -0.595783 0
M  V30 957 C 90.4071 3.28373 1.1431 0
M  V30 958 H 89.7301 3.95371 0.59346 0
M  V30 959 H 91.1701 3.91352 1.63155 0
M  V30 960 C 89.6291 2.54393 2.20875 0
M  V30 961 O 90.1591 2.31373 3.28374 0
M  V30 962 N 88.3651 2.14797 1.95731 0
M  V30 963 H 87.9121 2.33719 1.08319 0
M  V30 964 H 87.8701 1.65619 2.67241 0
M  V30 965 N 91.6422 0.330177 1.54103 0
M  V30 966 C 92.5522 -0.541534 2.28264 0
M  V30 967 C 93.5682 -1.12351 1.32866 0
M  V30 968 O 94.7442 -1.14206 1.65888 0
M  V30 969 C 91.8092 -1.68322 3.03098 0
M  V30 970 C 90.8702 -1.13238 4.14096 0
M  V30 971 C 90.1032 -2.21966 4.85352 0
M  V30 972 O 90.3262 -3.42437 4.56172 0
M  V30 973 O 89.2602 -1.87013 5.7211 0
M  V30 974 H 93.0862 0.060938 3.03639 0
M  V30 975 H 90.6712 0.09565 1.49093 0
M  V30 976 H 92.5532 -2.34777 3.49939 0
M  V30 977 H 91.2282 -2.27176 2.30593 0
M  V30 978 H 90.1352 -0.432736 3.71589 0
M  V30 979 H 91.4682 -0.588898 4.88664 0
M  V30 980 N 93.1203 -1.57491 0.0584922 0
M  V30 981 C 94.3453 -1.97711 -0.62652 0
M  V30 982 C 94.7703 -0.936132 -1.63151 0
M  V30 983 O 94.1283 0.099811 -1.81025 0
M  V30 984 C 94.1763 -3.36989 -1.28338 0
M  V30 985 O 93.2803 -3.35433 -2.39913 0
M  V30 986 H 92.6213 -0.643868 -0.162266 0
M  V30 987 H 95.1513 -2.04193 0.129064 0
M  V30 988 H 95.1613 -3.73879 -1.63335 0
M  V30 989 H 93.8363 -4.12289 -0.546889 0
M  V30 990 H 92.4133 -3.10298 -2.06809 0
M  V30 991 N 94.5984 0.214957 -1.56127 0
M  V30 992 C 95.8754 0.963093 -1.70247 0
M  V30 993 C 96.2554 2.02166 -0.60764 0
M  V30 994 O 95.6034 2.25244 0.384385 0
M  V30 995 C 95.8134 1.56756 -3.11815 0
M  V30 996 C 97.1614 2.0573 -3.7143 0
M  V30 997 O 98.1854 1.66637 -3.14818 0
M  V30 998 O 97.0444 2.77603 -4.70743 0
M  V30 999 H 94.1384 0.450321 -0.693643 0
M  V30 1000 H 96.6844 0.206219 -1.68442 0
M  V30 1001 H 95.4564 0.803533 -3.82961 0
M  V30 1002 H 95.0794 2.3898 -3.17765 0
M  V30 1003 N 96.0765 1.50051 0.48192 0
M  V30 1004 C 97.0095 1.62749 1.59963 0
M  V30 1005 C 97.9875 0.475903 1.5548 0
M  V30 1006 O 99.1715 0.693986 1.7526 0
M  V30 1007 C 96.2985 1.60008 2.98522 0
M  V30 1008 C 95.3445 2.80596 3.21198 0
M  V30 1009 S 96.1775 4.42038 3.02262 0
M  V30 1010 C 97.3335 4.41973 4.43182 0
M  V30 1011 H 97.5665 2.57296 1.4895 0
M  V30 1012 H 95.0995 1.39179 0.668477 0
M  V30 1013 H 97.0575 1.59112 3.78409 0
M  V30 1014 H 95.7185 0.667153 3.06933 0
M  V30 1015 H 94.9115 2.74952 4.22395 0
M  V30 1016 H 94.5135 2.79003 2.49065 0
M  V30 1017 H 96.8055 4.14868 5.35622 0
M  V30 1018 H 97.7485 5.43512 4.53873 0
M  V30 1019 H 98.1565 3.71812 4.24755 0
M  V30 1020 N 97.5546 -0.734337 1.39446 0
M  V30 1021 C 98.8006 -1.49613 1.36908 0
M  V30 1022 C 99.1336 -1.94169 -0.0347829 0
M  V30 1023 O 98.4086 -1.66833 -0.999847 0
M  V30 1024 C 98.6916 -2.73534 2.34203 0
M  V30 1025 C 98.5446 -2.34993 3.83534 0
M  V30 1026 C 99.8636 -3.75635 2.29317 0
M  V30 1027 H 96.9826 -0.542714 0.498629 0
M  V30 1028 H 99.6246 -0.839597 1.70443 0
M  V30 1029 H 97.7746 -3.29553 2.05736 0
M  V30 1030 H 99.4466 -1.84601 4.22753 0
M  V30 1031 H 97.6896 -1.67213 4.00278 0
M  V30 1032 H 98.3606 -3.23738 4.47099 0
M  V30 1033 H 100.837 -3.29203 2.54489 0
M  V30 1034 H 99.7126 -4.60008 2.99472 0
M  V30 1035 H 99.9736 -4.22603 1.29842 0
M  V30 1036 N 99.0327 -1.24633 -0.964593 0
M  V30 1037 C 99.9627 -1.06611 -2.07741 0
M  V30 1038 C 100.944 0.0218666 -1.70086 0
M  V30 1039 O 102.129 -0.145793 -1.93652 0
M  V30 1040 C 99.2587 -0.673444 -3.40708 0
M  V30 1041 C 98.2127 -1.71054 -3.92332 0
M  V30 1042 C 97.5387 -1.17285 -5.21678 0
M  V30 1043 C 98.8387 -3.10718 -4.19824 0
M  V30 1044 H 100.533 -1.99693 -2.23076 0
M  V30 1045 H 98.0787 -0.96152 -1.07195 0
M  V30 1046 H 100.032 -0.534345 -4.17998 0
M  V30 1047 H 98.7557 0.293073 -3.25282 0
M  V30 1048 H 97.4147 -1.83791 -3.17201 0
M  V30 1049 H 97.0627 -0.196847 -5.02615 0
M  V30 1050 H 96.7627 -1.86592 -5.57187 0
M  V30 1051 H 98.2867 -1.04593 -6.01575 0
M  V30 1052 H 99.7007 -3.01192 -4.87808 0
M  V30 1053 H 98.0977 -3.77406 -4.66567 0
M  V30 1054 H 99.1677 -3.58524 -3.26479 0
M  V30 1055 N 100.511 1.16574 -1.06058 0
M  V30 1056 C 101.444 2.19798 -0.61352 0
M  V30 1057 C 102.422 1.58509 0.362453 0
M  V30 1058 O 103.606 1.86527 0.271994 0
M  V30 1059 C 100.733 3.3855 0.100915 0
M  V30 1060 C 99.7788 4.18317 -0.831438 0
M  V30 1061 S 100.612 4.82375 -2.32539 0
M  V30 1062 C 101.768 6.04508 -1.62238 0
M  V30 1063 H 102.001 2.5738 -1.48805 0
M  V30 1064 H 99.5338 1.27327 -0.873338 0
M  V30 1065 H 101.492 4.07358 0.506898 0
M  V30 1066 H 100.153 2.99338 0.951604 0
M  V30 1067 H 99.3458 5.03232 -0.278071 0
M  V30 1068 H 98.9478 3.5499 -1.17719 0
M  V30 1069 H 101.24 6.71133 -0.926622 0
M  V30 1070 H 102.183 6.64389 -2.44934 0
M  V30 1071 H 102.591 5.53559 -1.106 0
M  V30 1072 N 101.989 0.842826 1.3317 0
M  V30 1073 C 103.4 0.496651 1.79973 0
M  V30 1074 C 103.751 -0.984641 1.69703 0
M  V30 1075 O 102.876 -1.76743 1.24863 0
M  V30 1076 C 103.471 0.894727 3.26772 0
M  V30 1077 C 102.03 0.600629 3.71577 0
M  V30 1078 C 101.177 1.10091 2.5451 0
M  V30 1079 H 104.128 1.03116 1.20635 0
M  V30 1080 H 104.149 0.206347 3.7994 0
M  V30 1081 H 103.661 1.97287 3.34215 0
M  V30 1082 H 101.762 -0.467284 3.69658 0
M  V30 1083 H 101.875 1.15863 4.64879 0
M  V30 1084 H 100.239 0.52162 2.49301 0
M  V30 1085 H 101.022 2.18591 2.64713 0
M  V30 1086 N 103.467 -1.45747 0.599634 0
M  V30 1087 C 104.744 -1.95585 0.0240846 0
M  V30 1088 C 105.124 -1.54217 -1.44154 0
M  V30 1089 O 104.472 -0.800903 -2.14004 0
M  V30 1090 C 104.682 -3.48344 0.21385 0
M  V30 1091 C 106.03 -4.24504 0.0904902 0
M  V30 1092 O 107.054 -3.55911 0.143558 0
M  V30 1093 O 105.913 -5.46491 -0.0310766 0
M  V30 1094 H 103.007 -0.82602 -0.0402478 0
M  V30 1095 H 105.553 -1.55951 0.669139 0
M  V30 1096 H 104.325 -3.71397 1.23206 0
M  V30 1097 H 103.948 -3.9485 -0.466842 0
M  V30 1098 N 104.945 -0.338344 -1.53925 0
M  V30 1099 C 105.908 0.508299 -2.23493 0
M  V30 1100 C 106.908 1.03175 -1.23335 0
M  V30 1101 O 108.098 0.921826 -1.47811 0
M  V30 1102 C 105.23 1.70754 -2.95052 0
M  V30 1103 H 106.423 -0.100058 -2.99733 0
M  V30 1104 H 103.976 -0.0896198 -1.56043 0
M  V30 1105 H 104.711 2.35474 -2.22986 0
M  V30 1106 H 104.496 1.33946 -3.68512 0
M  V30 1107 H 105.986 2.30818 -3.48013 0
M  V30 1108 N 106.423 1.57458 -0.0668435 0
M  V30 1109 C 107.648 1.9804 0.616027 0
M  V30 1110 C 108.073 0.944771 1.62652 0
M  V30 1111 O 107.431 -0.0902094 1.81075 0
M  V30 1112 C 107.479 3.37665 1.26549 0
M  V30 1113 O 106.583 3.36701 2.38131 0
M  V30 1114 H 105.924 0.644719 0.158849 0
M  V30 1115 H 108.454 2.04121 -0.139891 0
M  V30 1116 H 108.464 3.7474 1.6135 0
M  V30 1117 H 107.139 4.12573 0.525016 0
M  V30 1118 H 105.716 3.1139 2.0516 0
M  V30 1119 N 107.901 -0.206675 1.56239 0
M  V30 1120 C 109.129 -0.945345 1.8404 0
M  V30 1121 C 109.544 -1.77336 0.647885 0
M  V30 1122 O 108.901 -1.78425 -0.383511 0
M  V30 1123 C 108.952 -1.8509 3.10522 0
M  V30 1124 O 108.673 -1.05634 4.25174 0
M  V30 1125 C 110.174 -2.70222 3.51418 0
M  V30 1126 H 107.394 -0.276372 0.61144 0
M  V30 1127 H 109.938 -0.217417 2.03341 0
M  V30 1128 H 108.093 -2.53259 2.93153 0
M  V30 1129 H 108.507 -1.67238 4.97124 0
M  V30 1130 H 109.981 -3.29438 4.42916 0
M  V30 1131 H 110.458 -3.43358 2.73864 0
M  V30 1132 H 111.064 -2.07443 3.71278 0
M  V30 1133 N 109.379 -1.50304 -0.473955 0
M  V30 1134 C 110.342 -1.6841 -1.55469 0
M  V30 1135 C 111.342 -0.554905 -1.50922 0
M  V30 1136 O 112.532 -0.821882 -1.53593 0
M  V30 1137 C 109.664 -1.70667 -2.95102 0
M  V30 1138 H 110.857 -2.64828 -1.40733 0
M  V30 1139 H 108.41 -1.39742 -0.700132 0
M  V30 1140 H 109.145 -0.75932 -3.15285 0
M  V30 1141 H 108.93 -2.52698 -2.9981 0
M  V30 1142 H 110.42 -1.8664 -3.73571 0
M  V30 1143 N 110.857 0.726932 -1.39834 0
M  V30 1144 C 112.103 1.48884 -1.377 0
M  V30 1145 C 112.436 1.94185 0.0244852 0
M  V30 1146 O 111.711 1.67361 0.990986 0
M  V30 1147 C 111.994 2.72288 -2.3565 0
M  V30 1148 C 111.847 2.32956 -3.84775 0
M  V30 1149 C 113.166 3.74414 -2.31306 0
M  V30 1150 H 110.285 0.540062 -0.5015 0
M  V30 1151 H 112.927 0.830547 -1.70886 0
M  V30 1152 H 111.077 3.28457 -2.07481 0
M  V30 1153 H 112.749 1.82356 -4.23726 0
M  V30 1154 H 110.992 1.65088 -4.01159 0
M  V30 1155 H 111.663 3.21362 -4.4881 0
M  V30 1156 H 114.139 3.27849 -2.56231 0
M  V30 1157 H 113.015 4.58414 -3.01907 0
M  V30 1158 H 113.276 4.21909 -1.32081 0
M  V30 1159 N 112.336 1.25143 0.95797 0
M  V30 1160 C 113.585 1.0909 1.69654 0
M  V30 1161 C 113.898 -0.368548 1.92097 0
M  V30 1162 O 115.104 -0.649455 2.63618 0
M  V30 1163 C 113.56 1.90395 3.05414 0
M  V30 1164 C 113.168 3.4081 2.90779 0
M  V30 1165 C 114.912 1.82901 3.83076 0
M  V30 1166 C 112.819 4.14423 4.21909 0
M  V30 1167 H 111.749 0.404625 0.636235 0
M  V30 1168 H 114.4 1.4931 1.06672 0
M  V30 1169 H 112.782 1.42996 3.69281 0
M  V30 1170 H 113.956 3.95859 2.35865 0
M  V30 1171 H 112.271 3.49361 2.26575 0
M  V30 1172 H 114.868 2.35196 4.80195 0
M  V30 1173 H 115.211 0.796224 4.08615 0
M  V30 1174 H 115.744 2.28033 3.25954 0
M  V30 1175 H 112.483 5.18102 4.01561 0
M  V30 1176 H 112.003 3.64159 4.76601 0
M  V30 1177 H 113.682 4.21956 4.90471 0
M  V30 1178 N 113.814 -1.1601 1.06675 0
M  V30 1179 C 115.091 -1.82679 0.699114 0
M  V30 1180 C 115.471 -1.94559 -0.819137 0
M  V30 1181 O 114.819 -1.49169 -1.73092 0
M  V30 1182 C 115.029 -3.19445 1.40555 0
M  V30 1183 C 116.377 -3.95171 1.55323 0
M  V30 1184 O 117.401 -3.28976 1.36577 0
M  V30 1185 O 116.26 -5.13833 1.86112 0
M  V30 1186 H 113.354 -0.788954 0.247951 0
M  V30 1187 H 115.9 -1.23179 1.16726 0
M  V30 1188 H 114.672 -3.05856 2.44065 0
M  V30 1189 H 114.295 -3.86625 0.927733 0
M  V30 1190 N 115.292 -0.849877 -1.32721 0
M  V30 1191 C 116.703 -0.506188 -1.79707 0
M  V30 1192 C 117.054 0.975627 -1.70223 0
M  V30 1193 O 116.179 1.76078 -1.25799 0
M  V30 1194 C 116.774 -0.912044 -3.26293 0
M  V30 1195 C 115.333 -0.620326 -3.71253 0
M  V30 1196 C 114.48 -1.11439 -2.53922 0
M  V30 1197 H 117.431 -1.03754 -1.20087 0
M  V30 1198 H 117.452 -0.226493 -3.79825 0
M  V30 1199 H 116.964 -1.99057 -3.33164 0
M  V30 1200 H 115.065 0.447674 -3.69901 0
M  V30 1201 H 115.178 -1.18327 -4.64258 0
M  V30 1202 H 113.542 -0.534834 -2.49021 0
M  V30 1203 H 114.325 -2.19992 -2.6355 0
M  V30 1204 N 116.77 1.45427 -0.607355 0
M  V30 1205 C 118.017 2.02241 -0.102455 0
M  V30 1206 C 118.345 1.4758 1.26691 0
M  V30 1207 O 117.6 0.640468 1.84923 0
M  V30 1208 C 117.899 3.57398 -0.0129263 0
M  V30 1209 C 117.565 4.3121 -1.31792 0
M  V30 1210 C 116.227 4.51092 -1.67539 0
M  V30 1211 C 118.579 4.73401 -2.18039 0
M  V30 1212 C 115.907 5.10422 -2.89285 0
M  V30 1213 C 118.259 5.34078 -3.39034 0
M  V30 1214 C 116.923 5.52184 -3.75033 0
M  V30 1215 H 116.193 0.740051 -0.037491 0
M  V30 1216 H 118.84 1.74494 -0.788926 0
M  V30 1217 H 117.145 3.84421 0.756806 0
M  V30 1218 H 118.842 3.99061 0.393881 0
M  V30 1219 H 115.432 4.16047 -1.02968 0
M  V30 1220 H 119.616 4.57774 -1.91721 0
M  V30 1221 H 114.872 5.22629 -3.17283 0
M  V30 1222 H 119.046 5.65724 -4.06115 0
M  V30 1223 H 116.673 5.97925 -4.69457 0
M  V30 1224 N 118.248 0.346503 1.53744 0
M  V30 1225 C 119.495 -0.249104 2.00962 0
M  V30 1226 C 119.823 -1.5032 1.23426 0
M  V30 1227 O 119.078 -1.93217 0.310761 0
M  V30 1228 C 119.377 -0.605809 3.52228 0
M  V30 1229 C 119.043 0.551747 4.47512 0
M  V30 1230 C 117.705 0.86941 4.73281 0
M  V30 1231 C 120.057 1.32818 5.03993 0
M  V30 1232 C 117.385 1.96582 5.52786 0
M  V30 1233 C 119.737 2.41486 5.84694 0
M  V30 1234 C 118.401 2.73808 6.08757 0
M  V30 1235 H 117.671 -0.0911538 0.735372 0
M  V30 1236 H 120.318 0.475027 1.85515 0
M  V30 1237 H 118.623 -1.4107 3.65522 0
M  V30 1238 H 120.32 -1.07858 3.86222 0
M  V30 1239 H 116.91 0.294102 4.2759 0
M  V30 1240 H 121.094 1.09602 4.84047 0
M  V30 1241 H 116.35 2.22045 5.69654 0
M  V30 1242 H 120.524 3.02078 6.27473 0
M  V30 1243 H 118.151 3.58892 6.7015 0
M  V30 1244 N 119.726 -1.57421 0.075193 0
M  V30 1245 C 120.689 -2.11791 -0.876203 0
M  V30 1246 C 121.689 -1.04268 -1.22412 0
M  V30 1247 O 122.879 -1.30242 -1.15684 0
M  V30 1248 C 120.011 -2.62207 -2.17854 0
M  V30 1249 H 121.204 -2.9716 -0.40444 0
M  V30 1250 H 118.757 -1.55333 -0.173557 0
M  V30 1251 H 119.492 -1.803 -2.6956 0
M  V30 1252 H 119.277 -3.40802 -1.93897 0
M  V30 1253 H 120.767 -3.04335 -2.85955 0
M  V30 1254 N 121.204 0.198386 -1.56346 0
M  V30 1255 C 122.481 0.944982 -1.71258 0
M  V30 1256 C 122.861 2.0151 -0.629048 0
M  V30 1257 O 122.209 2.25639 0.360473 0
M  V30 1258 C 122.419 1.5344 -3.1346 0
M  V30 1259 C 123.767 2.01778 -3.73591 0
M  V30 1260 O 124.791 1.63288 -3.16568 0
M  V30 1261 O 123.65 2.72594 -4.73661 0
M  V30 1262 H 120.744 0.442939 -0.69838 0
M  V30 1263 H 123.29 0.188342 -1.68652 0
M  V30 1264 H 122.062 0.762869 -3.83792 0
M  V30 1265 H 121.685 2.35596 -3.20282 0
M  V30 1266 N 122.682 1.50554 0.465978 0
M  V30 1267 C 123.907 1.65838 1.24549 0
M  V30 1268 C 124.332 0.343486 1.84937 0
M  V30 1269 O 123.69 -0.69324 1.67523 0
M  V30 1270 C 123.738 2.75533 2.32624 0
M  V30 1271 O 122.842 2.37142 3.37398 0
M  V30 1272 H 122.183 0.553893 0.366194 0
M  V30 1273 H 124.713 1.96959 0.553927 0
M  V30 1274 H 124.723 2.98763 2.77857 0
M  V30 1275 H 123.398 3.70962 1.88043 0
M  V30 1276 H 121.975 2.24377 2.97841 0
M  V30 1277 N 124.16 -0.719506 1.40217 0
M  V30 1278 C 125.388 -1.50864 1.41589 0
M  V30 1279 C 125.803 -1.88794 0.0145275 0
M  V30 1280 O 125.16 -1.55174 -0.960594 0
M  V30 1281 C 125.211 -2.78646 2.30302 0
M  V30 1282 O 124.932 -2.42321 3.64983 0
M  V30 1283 C 126.433 -3.72569 2.40224 0
M  V30 1284 H 123.653 -0.465709 0.48307 0
M  V30 1285 H 126.197 -0.88785 1.84221 0
M  V30 1286 H 124.352 -3.37019 1.91042 0
M  V30 1287 H 124.766 -3.24514 4.12057 0
M  V30 1288 H 126.24 -4.5908 3.06512 0
M  V30 1289 H 126.717 -4.15403 1.42608 0
M  V30 1290 H 127.323 -3.20109 2.80019 0
M  V30 1291 N 125.638 -1.25649 -0.95132 0
M  V30 1292 C 126.568 -1.08808 -2.06599 0
M  V30 1293 C 127.549 0.00382547 -1.701 0
M  V30 1294 O 128.734 -0.166325 -1.93486 0
M  V30 1295 C 125.864 -0.709542 -3.39975 0
M  V30 1296 C 124.818 -1.75206 -3.90496 0
M  V30 1297 C 124.144 -1.22811 -5.20405 0
M  V30 1298 C 125.444 -3.15153 -4.16504 0
M  V30 1299 H 127.138 -2.02048 -2.20946 0
M  V30 1300 H 124.684 -0.972835 -1.06169 0
M  V30 1301 H 126.637 -0.578649 -4.17408 0
M  V30 1302 H 125.361 0.258556 -3.25575 0
M  V30 1303 H 124.02 -1.87145 -3.15234 0
M  V30 1304 H 123.668 -0.250145 -5.02378 0
M  V30 1305 H 123.368 -1.92492 -5.55176 0
M  V30 1306 H 124.892 -1.10968 -6.00432 0
M  V30 1307 H 126.306 -3.06349 -4.84586 0
M  V30 1308 H 124.703 -3.82333 -4.62538 0
M  V30 1309 H 125.773 -3.61966 -3.22658 0
M  V30 1310 N 127.117 1.15442 -1.07289 0
M  V30 1311 C 128.366 1.85557 -0.790669 0
M  V30 1312 C 128.679 1.83186 0.685739 0
M  V30 1313 O 129.885 2.48977 1.0827 0
M  V30 1314 C 128.341 3.33038 -1.36433 0
M  V30 1315 C 127.949 3.43856 -2.8717 0
M  V30 1316 C 129.693 4.0834 -1.1601 0
M  V30 1317 C 127.6 4.85482 -3.3773 0
M  V30 1318 H 126.53 0.695122 -0.292098 0
M  V30 1319 H 129.181 1.30219 -1.29287 0
M  V30 1320 H 127.563 3.88043 -0.789864 0
M  V30 1321 H 128.737 2.98961 -3.50655 0
M  V30 1322 H 127.052 2.81998 -3.06376 0
M  V30 1323 H 129.649 5.12859 -1.51262 0
M  V30 1324 H 129.992 4.16182 -0.0991007 0
M  V30 1325 H 130.525 3.59603 -1.70089 0
M  V30 1326 H 127.264 4.82823 -4.43353 0
M  V30 1327 H 126.784 5.30961 -2.78999 0
M  V30 1328 H 128.463 5.54335 -3.33648 0
M  V30 1329 N 128.595 0.856903 1.32268 0
M  V30 1330 C 129.844 0.457599 1.96441 0
M  V30 1331 C 130.157 -0.992426 1.68553 0
M  V30 1332 O 131.363 -1.49727 2.26482 0
M  V30 1333 C 129.819 0.767358 3.51624 0
M  V30 1334 C 129.427 2.23326 3.88367 0
M  V30 1335 C 131.171 0.435887 4.22256 0
M  V30 1336 C 129.078 2.48613 5.36606 0
M  V30 1337 H 128.008 0.167387 0.735185 0
M  V30 1338 H 130.659 1.048 1.5063 0
M  V30 1339 H 129.041 0.106367 3.95857 0
M  V30 1340 H 130.215 2.93623 3.55137 0
M  V30 1341 H 128.53 2.52948 3.30766 0
M  V30 1342 H 131.127 0.602202 5.31298 0
M  V30 1343 H 131.47 -0.622672 4.11617 0
M  V30 1344 H 132.003 1.05286 3.83614 0
M  V30 1345 H 128.742 3.53101 5.52268 0
M  V30 1346 H 128.262 1.82896 5.71235 0
M  V30 1347 H 129.941 2.32676 6.03714 0
M  V30 1348 N 130.073 -1.45103 0.615059 0
M  V30 1349 C 131.489 -1.57137 0.279322 0
M  V30 1350 C 131.689 -1.60523 -1.21797 0
M  V30 1351 O 130.745 -1.53956 -2.00134 0
M  V30 1352 C 132.058 -2.85062 0.957083 0
M  V30 1353 C 133.606 -2.98749 0.933706 0
M  V30 1354 C 134.081 -4.29455 1.59162 0
M  V30 1355 N 135.572 -4.36231 1.55746 0
M  V30 1356 C 136.307 -5.36051 2.0356 0
M  V30 1357 N 135.803 -6.42367 2.59494 0
M  V30 1358 N 137.596 -5.27456 1.94284 0
M  V30 1359 H 129.747 -1.41148 1.58717 0
M  V30 1360 H 132.01 -0.675331 0.665306 0
M  V30 1361 H 131.716 -2.88488 2.01166 0
M  V30 1362 H 131.59 -3.7407 0.48494 0
M  V30 1363 H 133.977 -2.94886 -0.112347 0
M  V30 1364 H 134.058 -2.11132 1.44419 0
M  V30 1365 H 133.702 -4.34077 2.63704 0
M  V30 1366 H 133.632 -5.15901 1.0561 0
M  V30 1367 H 136.123 -3.60011 1.14893 0
M  V30 1368 H 136.436 -7.14793 2.93752 0
M  V30 1369 H 134.781 -6.43097 2.63537 0
M  V30 1370 H 137.972 -4.43308 1.5032 0
M  V30 1371 H 138.145 -6.05099 2.3186 0
M  V30 1372 N 131.551 -0.354651 -1.53558 0
M  V30 1373 C 132.791 0.238651 -2.03002 0
M  V30 1374 C 133.155 1.46878 -1.23656 0
M  V30 1375 O 134.356 2.13699 -1.63053 0
M  V30 1376 C 132.627 0.534175 -3.53386 0
M  V30 1377 S 134.186 1.10271 -4.24719 0
M  V30 1378 H 131.004 0.0702908 -0.707517 0
M  V30 1379 H 133.606 -0.494987 -1.8913 0
M  V30 1380 H 132.31 -0.368765 -4.0874 0
M  V30 1381 H 131.841 1.29718 -3.71398 0
M  V30 1382 H 133.856 2.38772 -4.34974 0
M  V30 1383 N 133.029 1.57378 -0.0835403 0
M  V30 1384 C 134.306 1.85363 0.624507 0
M  V30 1385 C 134.686 0.978239 1.87066 0
M  V30 1386 O 134.034 0.0475908 2.2845 0
M  V30 1387 C 134.244 3.35795 0.950947 0
M  V30 1388 C 135.592 4.03581 1.31939 0
M  V30 1389 O 136.616 3.40609 1.04232 0
M  V30 1390 O 135.475 5.14672 1.83779 0
M  V30 1391 H 132.569 0.766162 0.311329 0
M  V30 1392 H 135.115 1.69307 -0.115362 0
M  V30 1393 H 133.887 3.91244 0.0663899 0
M  V30 1394 H 133.51 3.57154 1.74719 0
M  V30 1395 N 134.507 -0.190092 1.56449 0
M  V30 1396 C 135.756 -0.907912 1.80111 0
M  V30 1397 C 136.069 -1.84214 0.657619 0
M  V30 1398 O 137.275 -2.60094 0.778663 0
M  V30 1399 C 135.731 -1.66485 3.19078 0
M  V30 1400 C 135.339 -0.7752 4.41242 0
M  V30 1401 C 137.083 -2.37201 3.52045 0
M  V30 1402 C 134.99 -1.53129 5.71231 0
M  V30 1403 H 133.92 -0.34276 0.671589 0
M  V30 1404 H 136.571 -0.161109 1.82791 0
M  V30 1405 H 134.953 -2.45572 3.10661 0
M  V30 1406 H 136.127 -0.0226298 4.60794 0
M  V30 1407 H 134.442 -0.178627 4.16017 0
M  V30 1408 H 137.039 -2.94329 4.46402 0
M  V30 1409 H 137.382 -3.11632 2.76028 0
M  V30 1410 H 137.915 -1.65075 3.61932 0
M  V30 1411 H 134.654 -0.82967 6.50228 0
M  V30 1412 H 134.174 -2.25767 5.55688 0
M  V30 1413 H 135.853 -2.08377 6.12526 0
M  V30 1414 N 135.985 -1.50799 -0.457987 0
M  V30 1415 C 136.915 -1.73553 -1.5621 0
M  V30 1416 C 137.896 -0.584774 -1.59732 0
M  V30 1417 O 139.081 -0.825314 -1.7579 0
M  V30 1418 C 136.211 -1.84169 -2.94447 0
M  V30 1419 C 135.165 -2.99461 -3.0579 0
M  V30 1420 C 134.491 -2.95235 -4.45803 0
M  V30 1421 C 135.791 -4.39766 -2.81786 0
M  V30 1422 H 137.485 -2.66 -1.37421 0
M  V30 1423 H 135.031 -1.28002 -0.659662 0
M  V30 1424 H 136.984 -1.98672 -3.71628 0
M  V30 1425 H 135.708 -0.883545 -3.14422 0
M  V30 1426 H 134.367 -2.8463 -2.31044 0
M  V30 1427 H 134.015 -1.97239 -4.62715 0
M  V30 1428 H 133.715 -3.72642 -4.54326 0
M  V30 1429 H 135.239 -3.11803 -5.24987 0
M  V30 1430 H 136.653 -4.55054 -3.4871 0
M  V30 1431 H 135.05 -5.18722 -3.0174 0
M  V30 1432 H 136.12 -4.51229 -1.7754 0
M  V30 1433 N 137.463 0.71206 -1.40597 0
M  V30 1434 C 138.373 1.8562 -1.43466 0
M  V30 1435 C 139.389 1.70902 -0.326902 0
M  V30 1436 O 140.565 1.93105 -0.572043 0
M  V30 1437 C 137.63 3.21451 -1.29884 0
M  V30 1438 C 136.691 3.48398 -2.50833 0
M  V30 1439 C 135.924 4.77749 -2.3789 0
M  V30 1440 O 136.147 5.53089 -1.39459 0
M  V30 1441 O 135.081 5.05111 -3.27333 0
M  V30 1442 H 138.907 1.86155 -2.39958 0
M  V30 1443 H 136.492 0.86295 -1.21957 0
M  V30 1444 H 138.374 4.02579 -1.24531 0
M  V30 1445 H 137.049 3.21636 -0.364997 0
M  V30 1446 H 135.956 2.67265 -2.61763 0
M  V30 1447 H 137.289 3.53014 -3.4299 0
M  V30 1448 N 138.941 1.26152 0.944643 0
M  V30 1449 C 140.352 1.10454 1.50522 0
M  V30 1450 C 140.703 -0.31635 1.93633 0
M  V30 1451 O 139.828 -1.20746 1.79581 0
M  V30 1452 C 140.423 1.99891 2.73549 0
M  V30 1453 C 138.982 1.88348 3.25886 0
M  V30 1454 C 138.129 1.93447 1.9868 0
M  V30 1455 H 141.08 1.39292 0.760489 0
M  V30 1456 H 141.101 1.54477 3.47732 0
M  V30 1457 H 140.613 3.03297 2.42141 0
M  V30 1458 H 138.714 0.878636 3.62092 0
M  V30 1459 H 138.827 2.73696 3.93227 0
M  V30 1460 H 137.191 1.37456 2.14425 0
M  V30 1461 H 137.974 2.98476 1.69607 0
M  V30 1462 N 140.419 -1.14872 1.07899 0
M  V30 1463 C 141.667 -1.85422 0.803941 0
M  V30 1464 C 141.988 -1.83051 -0.67211 0
M  V30 1465 O 141.258 -1.27532 -1.48703 0
M  V30 1466 H 139.838 -0.686537 0.294408 0
M  V30 1467 H 142.5 -1.39226 1.3639 0
M  V30 1468 H 141.596 -2.90399 1.14346 0
M  V30 1469 N 141.898 -0.863906 -1.31812 0
M  V30 1470 C 143.126 -0.486111 -2.01108 0
M  V30 1471 C 143.541 0.919755 -1.64882 0
M  V30 1472 O 142.898 1.60162 -0.874893 0
M  V30 1473 C 142.949 -0.626435 -3.56031 0
M  V30 1474 O 142.67 -1.97693 -3.90959 0
M  V30 1475 C 144.171 -0.248857 -4.42601 0
M  V30 1476 H 141.391 -0.190052 -0.643523 0
M  V30 1477 H 143.935 -1.1634 -1.68182 0
M  V30 1478 H 142.09 0.00322717 -3.874 0
M  V30 1479 H 142.504 -1.98034 -4.85678 0
M  V30 1480 H 143.978 -0.398016 -5.50563 0
M  V30 1481 H 144.455 0.811489 -4.31638 0
M  V30 1482 H 145.061 -0.853971 -4.16638 0
M  V30 1483 N 143.376 1.44774 -0.622745 0
M  V30 1484 C 144.306 2.33382 0.0741861 0
M  V30 1485 C 145.287 1.47719 0.843387 0
M  V30 1486 O 146.472 1.76458 0.810934 0
M  V30 1487 C 143.602 3.30663 1.06204 0
M  V30 1488 C 142.556 4.26079 0.405037 0
M  V30 1489 C 141.882 5.13165 1.5022 0
M  V30 1490 C 143.182 5.1781 -0.683414 0
M  V30 1491 H 144.876 2.91905 -0.665713 0
M  V30 1492 H 142.422 1.40363 -0.321587 0
M  V30 1493 H 144.375 3.9153 1.55827 0
M  V30 1494 H 143.099 2.70331 1.83272 0
M  V30 1495 H 141.758 3.66532 -0.0704683 0
M  V30 1496 H 141.406 4.49191 2.26355 0
M  V30 1497 H 141.106 5.77812 1.06803 0
M  V30 1498 H 142.63 5.76902 2.00041 0
M  V30 1499 H 144.044 5.72661 -0.270631 0
M  V30 1500 H 142.441 5.91015 -1.04023 0
M  V30 1501 H 143.511 4.59326 -1.55395 0
M  V30 1502 N 144.854 0.36279 1.53368 0
M  V30 1503 C 145.786 -0.519668 2.23231 0
M  V30 1504 C 146.799 -1.04844 1.24546 0
M  V30 1505 O 147.988 -0.955296 1.50786 0
M  V30 1506 C 145.088 -1.72995 2.9142 0
M  V30 1507 C 144.261 -1.33316 4.16588 0
M  V30 1508 C 143.32 -2.40521 4.68013 0
M  V30 1509 O 142.346 -2.03027 5.3176 0
M  V30 1510 N 143.548 -3.72065 4.45587 0
M  V30 1511 H 146.313 0.078751 2.99597 0
M  V30 1512 H 143.874 0.187833 1.60807 0
M  V30 1513 H 145.866 -2.44184 3.22733 0
M  V30 1514 H 144.436 -2.2353 2.18525 0
M  V30 1515 H 143.656 -0.451236 3.91609 0
M  V30 1516 H 144.944 -1.04432 4.97967 0
M  V30 1517 H 144.342 -4.05304 3.94646 0
M  V30 1518 H 142.899 -4.39366 4.81457 0
M  V30 1519 N 146.332 -1.57332 0.0918853 0
M  V30 1520 C 147.58 -1.93853 -0.571446 0
M  V30 1521 C 147.901 -0.974212 -1.6892 0
M  V30 1522 O 147.171 -0.0257254 -1.95883 0
M  V30 1523 H 145.751 -0.715666 -0.214082 0
M  V30 1524 H 148.413 -1.94287 0.154464 0
M  V30 1525 H 147.509 -2.96191 -0.983729 0
M  V30 1526 N 147.81 0.181792 -1.56548 0
M  V30 1527 C 149.04 0.914618 -1.85252 0
M  V30 1528 C 149.448 1.76791 -0.673914 0
M  V30 1529 O 148.791 1.80009 0.366416 0
M  V30 1530 C 148.853 1.85019 -3.08234 0
M  V30 1531 C 148.517 1.17754 -4.41569 0
M  V30 1532 C 149.514 0.548035 -5.17003 0
M  V30 1533 C 147.199 1.17742 -4.88305 0
M  V30 1534 C 149.193 -0.0726128 -6.37359 0
M  V30 1535 C 146.88 0.552946 -6.08593 0
M  V30 1536 C 147.878 -0.070978 -6.82963 0
M  V30 1537 O 147.566 -0.685635 -8.00971 0
M  V30 1538 H 147.298 0.271695 -0.618998 0
M  V30 1539 H 149.852 0.189944 -2.0452 0
M  V30 1540 H 148.082 2.61491 -2.84885 0
M  V30 1541 H 149.771 2.45195 -3.23472 0
M  V30 1542 H 150.537 0.540174 -4.81982 0
M  V30 1543 H 146.416 1.65246 -4.30366 0
M  V30 1544 H 149.96 -0.560213 -6.95347 0
M  V30 1545 H 145.857 0.558354 -6.43081 0
M  V30 1546 H 146.625 -0.58385 -8.16415 0
M  V30 1547 N 149.288 1.51039 0.449983 0
M  V30 1548 C 150.565 1.53612 1.21089 0
M  V30 1549 C 150.945 0.292997 2.09057 0
M  V30 1550 O 150.293 -0.72259 2.16774 0
M  V30 1551 C 150.503 2.84337 2.0237 0
M  V30 1552 C 151.851 3.35807 2.59843 0
M  V30 1553 O 152.875 2.85802 2.12593 0
M  V30 1554 O 151.734 4.23029 3.45989 0
M  V30 1555 H 148.828 0.617057 0.550608 0
M  V30 1556 H 151.374 1.63344 0.460082 0
M  V30 1557 H 150.146 3.66278 1.37681 0
M  V30 1558 H 149.769 2.77708 2.84542 0
M  V30 1559 N 150.766 -0.704594 1.40972 0
M  V30 1560 C 152.182 -1.01406 1.23244 0
M  V30 1561 C 152.382 -2.01169 0.115399 0
M  V30 1562 O 151.438 -2.47021 -0.523147 0
M  V30 1563 C 152.751 -1.54728 2.57836 0
M  V30 1564 C 154.299 -1.66658 2.64942 0
M  V30 1565 C 154.774 -2.23383 3.9983 0
M  V30 1566 N 156.265 -2.30756 4.01629 0
M  V30 1567 C 157 -2.75655 5.02794 0
M  V30 1568 N 156.496 -3.20225 6.14352 0
M  V30 1569 N 158.289 -2.75138 4.90159 0
M  V30 1570 H 150.44 -0.0435285 2.12355 0
M  V30 1571 H 152.703 -0.0818951 0.944456 0
M  V30 1572 H 152.409 -0.888832 3.40283 0
M  V30 1573 H 152.283 -2.53084 2.79693 0
M  V30 1574 H 154.67 -2.31617 1.8286 0
M  V30 1575 H 154.751 -0.668717 2.46904 0
M  V30 1576 H 154.395 -1.59043 4.82357 0
M  V30 1577 H 154.325 -3.23904 4.15203 0
M  V30 1578 H 156.816 -1.99291 3.21079 0
M  V30 1579 H 157.129 -3.53084 6.87424 0
M  V30 1580 H 155.474 -3.18156 6.17901 0
M  V30 1581 H 158.665 -2.39661 4.02095 0
M  V30 1582 H 158.838 -3.09812 5.6914 0
M  V30 1583 N 152.244 -1.26651 -0.937939 0
M  V30 1584 C 153.521 -1.0313 -1.66204 0
M  V30 1585 C 153.901 0.437256 -2.06522 0
M  V30 1586 O 153.249 1.41831 -1.79154 0
M  V30 1587 C 153.459 -1.98314 -2.87181 0
M  V30 1588 C 154.807 -2.27107 -3.58758 0
M  V30 1589 O 155.831 -1.96205 -2.97291 0
M  V30 1590 O 154.69 -2.79736 -4.69479 0
M  V30 1591 H 151.784 -0.392384 -0.727986 0
M  V30 1592 H 154.33 -1.37874 -0.989382 0
M  V30 1593 H 153.102 -2.97399 -2.54302 0
M  V30 1594 H 152.725 -1.64068 -3.6217 0
M  V30 1595 N 153.722 1.14298 -1.08507 0
M  V30 1596 C 155.133 1.66926 -0.836227 0
M  V30 1597 C 155.484 1.85576 0.63686 0
M  V30 1598 O 154.609 1.56767 1.49175 0
M  V30 1599 C 155.204 3.03219 -1.51142 0
M  V30 1600 C 153.763 3.52876 -1.30979 0
M  V30 1601 C 152.91 2.2833 -1.57356 0
M  V30 1602 H 155.861 0.983491 -1.24552 0
M  V30 1603 H 155.882 3.68726 -0.939211 0
M  V30 1604 H 155.394 2.89612 -2.58353 0
M  V30 1605 H 153.495 3.71703 -0.258429 0
M  V30 1606 H 153.608 4.33586 -2.03814 0
M  V30 1607 H 151.972 2.34454 -0.995164 0
M  V30 1608 H 152.755 2.17298 -2.65775 0
M  V30 1609 N 155.201 0.870884 1.31352 0
M  V30 1610 C 156.617 0.562932 1.49343 0
M  V30 1611 C 156.817 -0.902725 1.80148 0
M  V30 1612 O 155.873 -1.68484 1.88067 0
M  V30 1613 C 157.186 1.46393 2.62659 0
M  V30 1614 C 158.734 1.46607 2.76542 0
M  V30 1615 C 159.209 2.35266 3.92955 0
M  V30 1616 N 160.7 2.33151 4.00243 0
M  V30 1617 C 161.435 2.98471 4.89594 0
M  V30 1618 N 160.931 3.72964 5.8384 0
M  V30 1619 N 162.724 2.87775 4.82848 0
M  V30 1620 H 154.875 1.81923 1.09626 0
M  V30 1621 H 157.138 0.777934 0.541777 0
M  V30 1622 H 156.844 2.50689 2.46674 0
M  V30 1623 H 156.718 1.16314 3.58819 0
M  V30 1624 H 159.105 0.43069 2.9194 0
M  V30 1625 H 159.186 1.8071 1.81046 0
M  V30 1626 H 158.83 3.38881 3.78315 0
M  V30 1627 H 158.76 1.98487 4.87761 0
M  V30 1628 H 161.251 1.79006 3.32814 0
M  V30 1629 H 161.564 4.19932 6.4875 0
M  V30 1630 H 159.909 3.77073 5.83816 0
M  V30 1631 H 163.1 2.29116 4.08195 0
M  V30 1632 H 163.273 3.38961 5.52277 0
M  V30 1633 N 156.679 -1.44442 0.630414 0
M  V30 1634 C 157.904 -2.06927 0.139944 0
M  V30 1635 C 158.329 -1.46795 -1.17613 0
M  V30 1636 O 157.687 -0.569144 -1.72135 0
M  V30 1637 C 157.735 -3.6058 0.0379581 0
M  V30 1638 O 156.839 -3.99937 -1.0062 0
M  V30 1639 H 156.18 -0.658608 0.0844483 0
M  V30 1640 H 158.71 -1.85327 0.866891 0
M  V30 1641 H 158.72 -4.07714 -0.152856 0
M  V30 1642 H 157.395 -4.03728 0.998809 0
M  V30 1643 H 155.972 -3.64436 -0.79001 0
M  V30 1644 N 158.157 -0.370918 -1.53173 0
M  V30 1645 C 159.406 0.218249 -2.00516 0
M  V30 1646 C 159.719 1.49429 -1.26215 0
M  V30 1647 O 160.925 2.16239 -1.64174 0
M  V30 1648 C 159.381 0.43948 -3.57207 0
M  V30 1649 C 158.989 -0.822244 -4.4039 0
M  V30 1650 C 160.733 0.986012 -4.1289 0
M  V30 1651 C 158.64 -0.570304 -5.88644 0
M  V30 1652 H 157.57 0.0853333 -0.749156 0
M  V30 1653 H 160.221 -0.490483 -1.76823 0
M  V30 1654 H 158.603 1.20961 -3.77074 0
M  V30 1655 H 159.777 -1.59557 -4.32294 0
M  V30 1656 H 158.092 -1.29238 -3.95836 0
M  V30 1657 H 160.689 1.18991 -5.21292 0
M  V30 1658 H 161.032 1.94972 -3.6782 0
M  V30 1659 H 161.565 0.27592 -3.96842 0
M  V30 1660 H 158.304 -1.50449 -6.38001 0
M  V30 1661 H 157.824 0.164427 -5.99575 0
M  V30 1662 H 159.503 -0.19784 -6.46697 0
M  V30 1663 N 159.635 1.57281 -0.100228 0
M  V30 1664 C 160.598 2.13158 0.842398 0
M  V30 1665 C 161.598 1.06202 1.20738 0
M  V30 1666 O 162.788 1.32066 1.13597 0
M  V30 1667 C 159.92 2.65639 2.13655 0
M  V30 1668 H 161.113 2.97766 0.357114 0
M  V30 1669 H 158.666 1.5559 0.148823 0
M  V30 1670 H 159.401 1.84566 2.66657 0
M  V30 1671 H 159.186 3.43844 1.88451 0
M  V30 1672 H 160.676 3.08846 2.81077 0
M  V30 1673 N 161.113 -0.173488 1.56642 0
M  V30 1674 C 162.06 -1.21482 1.96242 0
M  V30 1675 C 163.03 -1.44104 0.826027 0
M  V30 1676 O 164.215 -1.5688 1.08597 0
M  V30 1677 C 161.355 -2.54964 2.32567 0
M  V30 1678 C 160.468 -2.39739 3.59373 0
M  V30 1679 C 159.603 -3.66072 3.84921 0
M  V30 1680 C 158.642 -3.45771 5.05083 0
M  V30 1681 N 157.779 -4.64169 5.26775 0
M  V30 1682 H 162.619 -0.870123 2.85014 0
M  V30 1683 H 160.156 -0.418245 1.41029 0
M  V30 1684 H 162.114 -3.32758 2.5165 0
M  V30 1685 H 160.744 -2.87433 1.46908 0
M  V30 1686 H 159.796 -1.53131 3.48217 0
M  V30 1687 H 161.108 -2.20683 4.47326 0
M  V30 1688 H 160.262 -4.52303 4.0436 0
M  V30 1689 H 159.001 -3.88105 2.9534 0
M  V30 1690 H 158.006 -2.57927 4.85545 0
M  V30 1691 H 159.231 -3.25163 5.96193 0
M  V30 1692 H 157.177 -4.86425 4.40144 0
M  V30 1693 H 157.094 -4.48019 6.08946 0
M  V30 1694 H 158.362 -5.51689 5.5069 0
M  V30 1695 N 162.591 -1.51276 -0.441967 0
M  V30 1696 C 164.007 -1.39349 -0.778083 0
M  V30 1697 C 164.207 -0.472212 -1.95889 0
M  V30 1698 O 163.263 0.0743551 -2.5239 0
M  V30 1699 C 164.576 -2.81292 -1.0628 0
M  V30 1700 C 166.124 -2.9041 -1.16751 0
M  V30 1701 C 166.599 -4.33251 -1.48519 0
M  V30 1702 N 168.09 -4.36336 -1.55453 0
M  V30 1703 C 168.825 -5.43885 -1.81596 0
M  V30 1704 N 168.321 -6.61601 -2.05562 0
M  V30 1705 N 170.114 -5.3136 -1.8334 0
M  V30 1706 H 162.265 -2.09729 0.335774 0
M  V30 1707 H 164.528 -0.943925 0.0878028 0
M  V30 1708 H 164.234 -3.50678 -0.267905 0
M  V30 1709 H 164.108 -3.20334 -1.99163 0
M  V30 1710 H 166.495 -2.21225 -1.95304 0
M  V30 1711 H 166.576 -2.54871 -0.217801 0
M  V30 1712 H 166.22 -5.02984 -0.704958 0
M  V30 1713 H 166.15 -4.66299 -2.44689 0
M  V30 1714 H 168.641 -3.51466 -1.38853 0
M  V30 1715 H 168.954 -7.39361 -2.24867 0
M  V30 1716 H 167.299 -6.64725 -2.02894 0
M  V30 1717 H 170.49 -4.38382 -1.64132 0
M  V30 1718 H 170.663 -6.15258 -2.03377 0
M  V30 1719 N 164.069 0.697108 -1.41344 0
M  V30 1720 C 165.032 1.79281 -1.42797 0
M  V30 1721 C 166.032 1.57607 -0.318837 0
M  V30 1722 O 167.222 1.64309 -0.578642 0
M  V30 1723 C 164.354 3.17632 -1.23785 0
M  V30 1724 H 165.547 1.79385 -2.40335 0
M  V30 1725 H 163.1 0.904582 -1.27464 0
M  V30 1726 H 163.835 3.23167 -0.270814 0
M  V30 1727 H 163.62 3.34765 -2.04144 0
M  V30 1728 H 165.11 3.97617 -1.27633 0
M  V30 1729 N 165.547 1.27147 0.931209 0
M  V30 1730 C 166.457 1.11372 2.06478 0
M  V30 1731 C 167.473 0.044645 1.73943 0
M  V30 1732 O 168.649 0.250417 1.99837 0
M  V30 1733 C 165.714 0.758838 3.38294 0
M  V30 1734 C 164.775 1.90841 3.84549 0
M  V30 1735 C 164.008 1.57036 5.10074 0
M  V30 1736 O 164.231 0.476645 5.68405 0
M  V30 1737 O 163.165 2.40839 5.51616 0
M  V30 1738 H 166.991 2.06493 2.22698 0
M  V30 1739 H 164.576 1.06301 1.04978 0
M  V30 1740 H 166.458 0.574098 4.17471 0
M  V30 1741 H 165.133 -0.162879 3.2329 0
M  V30 1742 H 164.04 2.14819 3.06274 0
M  V30 1743 H 165.373 2.81021 4.04089 0
M  V30 1744 N 167.025 -1.13721 1.09112 0
M  V30 1745 C 168.302 -1.81155 0.737706 0
M  V30 1746 C 168.682 -1.96253 -0.777683 0
M  V30 1747 O 168.03 -1.52807 -1.69889 0
M  V30 1748 C 168.24 -3.16392 1.47299 0
M  V30 1749 C 169.588 -3.91787 1.63671 0
M  V30 1750 O 170.612 -3.26005 1.43524 0
M  V30 1751 O 169.471 -5.0977 1.96969 0
M  V30 1752 H 166.565 -0.783518 0.26463 0
M  V30 1753 H 169.111 -1.20676 1.19312 0
M  V30 1754 H 167.883 -3.0061 2.50498 0
M  V30 1755 H 167.506 -3.8457 1.00953 0
M  V30 1756 N 168.503 -0.877838 -1.30888 0
M  V30 1757 C 169.733 -0.506678 -2.00291 0
M  V30 1758 C 170.141 0.907449 -1.66018 0
M  V30 1759 O 169.484 1.60719 -0.88967 0
M  V30 1760 C 169.546 -0.59323 -3.54572 0
M  V30 1761 C 169.21 -1.97038 -4.12341 0
M  V30 1762 C 170.207 -2.93889 -4.28865 0
M  V30 1763 C 167.892 -2.27383 -4.47886 0
M  V30 1764 C 169.886 -4.19224 -4.80136 0
M  V30 1765 C 167.573 -3.52965 -4.98857 0
M  V30 1766 C 168.571 -4.48701 -5.14934 0
M  V30 1767 O 168.259 -5.72056 -5.64808 0
M  V30 1768 H 167.991 -0.1951 -0.647234 0
M  V30 1769 H 170.545 -1.18301 -1.6791 0
M  V30 1770 H 168.775 0.140057 -3.86446 0
M  V30 1771 H 170.464 -0.234372 -4.05223 0
M  V30 1772 H 171.23 -2.71756 -4.01714 0
M  V30 1773 H 167.109 -1.53639 -4.34645 0
M  V30 1774 H 170.653 -4.93956 -4.92599 0
M  V30 1775 H 166.55 -3.74939 -5.25443 0
M  V30 1776 H 167.318 -5.74337 -5.83163 0
M  V30 1777 N 169.982 1.44106 -0.638065 0
M  V30 1778 C 170.912 2.33448 0.0494287 0
M  V30 1779 C 171.893 1.48606 0.827672 0
M  V30 1780 O 173.078 1.77308 0.792173 0
M  V30 1781 C 170.208 3.31771 1.02691 0
M  V30 1782 C 169.162 4.26485 0.359823 0
M  V30 1783 C 168.488 5.14729 1.44769 0
M  V30 1784 C 169.788 5.17056 -0.738296 0
M  V30 1785 H 171.482 2.91183 -0.696636 0
M  V30 1786 H 169.028 1.40014 -0.336456 0
M  V30 1787 H 170.981 3.93161 1.51666 0
M  V30 1788 H 169.705 2.7226 1.80395 0
M  V30 1789 H 168.364 3.66437 -0.10934 0
M  V30 1790 H 168.012 4.51566 2.21578 0
M  V30 1791 H 167.712 5.78913 1.00668 0
M  V30 1792 H 169.236 5.78991 1.93911 0
M  V30 1793 H 170.65 5.72342 -0.331354 0
M  V30 1794 H 169.047 5.89879 -1.10286 0
M  V30 1795 H 170.117 4.57652 -1.60258 0
M  V30 1796 N 171.46 0.379036 1.52974 0
M  V30 1797 C 172.876 0.0285448 1.59574 0
M  V30 1798 C 173.076 -1.45542 1.39355 0
M  V30 1799 O 172.132 -2.2187 1.20541 0
M  V30 1800 C 173.445 0.496535 2.96572 0
M  V30 1801 C 174.993 0.451909 3.0972 0
M  V30 1802 C 175.468 0.895924 4.49152 0
M  V30 1803 N 176.959 0.851522 4.55306 0
M  V30 1804 C 177.694 1.16661 5.61407 0
M  V30 1805 N 177.19 1.55166 6.752 0
M  V30 1806 N 178.983 1.08853 5.51459 0
M  V30 1807 H 171.134 1.34525 1.64367 0
M  V30 1808 H 173.397 0.550733 0.771619 0
M  V30 1809 H 173.103 1.53258 3.16552 0
M  V30 1810 H 172.977 -0.109802 3.7704 0
M  V30 1811 H 175.364 -0.575029 2.89443 0
M  V30 1812 H 175.445 1.09392 2.3123 0
M  V30 1813 H 175.089 1.92104 4.70168 0
M  V30 1814 H 175.019 0.23103 5.26093 0
M  V30 1815 H 177.51 0.568038 3.73606 0
M  V30 1816 H 177.823 1.776 7.52116 0
M  V30 1817 H 176.168 1.59044 6.76557 0
M  V30 1818 H 179.359 0.786803 4.6144 0
M  V30 1819 H 179.532 1.33742 6.34048 0
M  V30 1820 N 172.938 -1.57226 0.108567 0
M  V30 1821 C 173.901 -2.13602 -0.831082 0
M  V30 1822 C 174.901 -1.06841 -1.20173 0
M  V30 1823 O 176.091 -1.32666 -1.12895 0
M  V30 1824 C 173.223 -2.66769 -2.12243 0
M  V30 1825 H 174.416 -2.97951 -0.341317 0
M  V30 1826 H 171.969 -1.55667 -0.14057 0
M  V30 1827 H 172.704 -1.85977 -2.65675 0
M  V30 1828 H 172.489 -3.44839 -1.86625 0
M  V30 1829 H 173.979 -3.10332 -2.79435 0
M  V30 1830 N 174.416 0.165178 -1.56732 0
M  V30 1831 C 175.644 0.896218 -1.86482 0
M  V30 1832 C 176.059 1.75555 -0.694675 0
M  V30 1833 O 175.416 1.79379 0.33607 0
M  V30 1834 C 175.467 1.76792 -3.1532 0
M  V30 1835 O 175.188 0.943239 -4.27825 0
M  V30 1836 C 176.689 2.6081 -3.58459 0
M  V30 1837 H 173.909 0.260064 -0.618553 0
M  V30 1838 H 176.453 0.163428 -2.03846 0
M  V30 1839 H 174.608 2.45398 -2.99764 0
M  V30 1840 H 175.022 1.53998 -5.01383 0
M  V30 1841 H 176.496 3.17579 -4.51495 0
M  V30 1842 H 176.973 3.35977 -2.82872 0
M  V30 1843 H 177.579 1.97526 -3.76648 0
M  V30 1844 N 175.894 1.51508 0.433938 0
M  V30 1845 C 177.142 1.6402 1.18075 0
M  V30 1846 C 177.463 0.360328 1.91642 0
M  V30 1847 O 176.733 -0.623945 1.85698 0
M  V30 1848 H 175.313 0.6045 0.43885 0
M  V30 1849 H 177.975 1.88452 0.497178 0
M  V30 1850 H 177.071 2.46949 1.90847 0
M  V30 1851 N 177.372 -0.689602 1.41712 0
M  V30 1852 C 178.621 -1.44534 1.40686 0
M  V30 1853 C 178.934 -1.95588 0.0213352 0
M  V30 1854 O 180.14 -2.71271 -0.111534 0
M  V30 1855 C 178.596 -2.61387 2.47396 0
M  V30 1856 C 178.204 -2.17094 3.91885 0
M  V30 1857 C 179.948 -3.38986 2.55517 0
M  V30 1858 C 177.855 -3.3094 4.90135 0
M  V30 1859 H 176.785 -0.542925 0.52321 0
M  V30 1860 H 179.436 -0.748054 1.6756 0
M  V30 1861 H 177.818 -3.33412 2.13664 0
M  V30 1862 H 178.992 -1.52318 4.34897 0
M  V30 1863 H 177.307 -1.52473 3.8748 0
M  V30 1864 H 179.904 -4.23747 3.26102 0
M  V30 1865 H 180.247 -3.84578 1.59391 0
M  V30 1866 H 180.78 -2.74021 2.8837 0
M  V30 1867 H 177.519 -2.90355 5.87685 0
M  V30 1868 H 177.039 -3.94546 4.51767 0
M  V30 1869 H 178.718 -3.9663 5.11169 0
M  V30 1870 N 178.85 -1.27639 -0.924453 0
M  V30 1871 C 179.813 -1.10681 -2.00705 0
M  V30 1872 C 180.813 -0.0497823 -1.60723 0
M  V30 1873 O 182.003 -0.294654 -1.7169 0
M  V30 1874 C 179.135 -0.687164 -3.33902 0
M  V30 1875 H 180.328 -2.06817 -2.17179 0
M  V30 1876 H 177.881 -1.10473 -1.10569 0
M  V30 1877 H 178.616 0.275439 -3.23128 0
M  V30 1878 H 178.401 -1.45061 -3.6428 0
M  V30 1879 H 179.891 -0.590853 -4.13399 0
M  V30 1880 N 180.328 1.1314 -1.09713 0
M  V30 1881 C 181.605 1.80762 -0.747302 0
M  V30 1882 C 181.985 1.96663 0.767265 0
M  V30 1883 O 181.333 1.53706 1.69076 0
M  V30 1884 C 181.543 3.15606 -1.48975 0
M  V30 1885 C 182.891 3.90914 -1.65746 0
M  V30 1886 O 183.915 3.25239 -1.45251 0
M  V30 1887 O 182.774 5.08718 -1.9967 0
M  V30 1888 H 179.868 0.782103 -0.268782 0
M  V30 1889 H 182.414 1.20041 -1.19951 0
M  V30 1890 H 181.186 2.99278 -2.52088 0
M  V30 1891 H 180.809 3.84029 -1.02991 0
M  V30 1892 N 181.806 0.884767 1.30421 0
M  V30 1893 C 183.034 0.518044 2.0031 0
M  V30 1894 C 183.449 -0.893408 1.66324 0
M  V30 1895 O 182.806 -1.5875 0.900262 0
M  V30 1896 C 182.857 0.682997 3.54989 0
M  V30 1897 O 182.578 2.03888 3.87764 0
M  V30 1898 C 184.079 0.31924 4.42149 0
M  V30 1899 H 181.299 0.200265 0.640418 0
M  V30 1900 H 183.843 1.19001 1.6631 0
M  V30 1901 H 181.998 0.0584052 3.87356 0
M  V30 1902 H 182.412 2.05735 4.82466 0
M  V30 1903 H 183.886 0.485555 5.4986 0
M  V30 1904 H 184.363 -0.742717 4.32875 0
M  V30 1905 H 184.969 0.920147 4.15227 0
M  V30 1906 N 183.284 -1.43765 0.645699 0
M  V30 1907 C 184.53 -2.02197 0.156271 0
M  V30 1908 C 184.863 -1.50776 -1.22393 0
M  V30 1909 O 184.138 -0.697771 -1.81553 0
M  V30 1910 C 184.421 -3.59749 0.158872 0
M  V30 1911 C 184.274 -4.21419 1.57245 0
M  V30 1912 C 185.593 -4.37149 -0.50879 0
M  V30 1913 H 182.712 -0.734694 0.0582602 0
M  V30 1914 H 185.354 -1.71157 0.824951 0
M  V30 1915 H 183.504 -3.86325 -0.410525 0
M  V30 1916 H 185.176 -4.059 2.19186 0
M  V30 1917 H 183.419 -3.78356 2.122 0
M  V30 1918 H 184.09 -5.30482 1.52619 0
M  V30 1919 H 186.566 -4.16093 -0.024412 0
M  V30 1920 H 185.442 -5.4683 -0.476213 0
M  V30 1921 H 185.703 -4.12839 -1.58165 0
M  V30 1922 N 184.763 -0.387143 -1.52771 0
M  V30 1923 C 185.693 0.440551 -2.29306 0
M  V30 1924 C 186.674 1.06535 -1.32606 0
M  V30 1925 O 187.859 1.07853 -1.61497 0
M  V30 1926 C 184.989 1.56919 -3.09829 0
M  V30 1927 C 183.943 1.07054 -4.14395 0
M  V30 1928 C 183.269 2.29109 -4.83129 0
M  V30 1929 C 184.569 0.140015 -5.22112 0
M  V30 1930 H 186.263 -0.198026 -2.98744 0
M  V30 1931 H 183.809 -0.09668 -1.43675 0
M  V30 1932 H 185.762 2.15503 -3.62128 0
M  V30 1933 H 184.486 2.23532 -2.3812 0
M  V30 1934 H 183.145 0.507247 -3.63074 0
M  V30 1935 H 182.793 2.94227 -4.0797 0
M  V30 1936 H 182.493 1.96406 -5.53804 0
M  V30 1937 H 184.017 2.88339 -5.38231 0
M  V30 1938 H 185.431 0.633978 -5.69784 0
M  V30 1939 H 183.828 -0.0971485 -6.00021 0
M  V30 1940 H 184.898 -0.811711 -4.78058 0
M  V30 1941 N 186.241 1.57166 -0.116904 0
M  V30 1942 C 187.488 1.95123 0.541603 0
M  V30 1943 C 187.816 1.00006 1.6682 0
M  V30 1944 O 187.071 0.0235658 1.95686 0
M  V30 1945 C 187.37 3.39508 1.11664 0
M  V30 1946 C 187.036 4.50762 0.111606 0
M  V30 1947 C 185.698 4.80918 -0.164758 0
M  V30 1948 C 188.05 5.18036 -0.573438 0
M  V30 1949 C 185.378 5.75666 -1.13249 0
M  V30 1950 C 187.73 6.13824 -1.52978 0
M  V30 1951 C 186.394 6.42374 -1.81415 0
M  V30 1952 H 185.664 0.714005 0.198187 0
M  V30 1953 H 188.311 1.9048 -0.197365 0
M  V30 1954 H 186.616 3.40835 1.93232 0
M  V30 1955 H 188.313 3.66189 1.63422 0
M  V30 1956 H 184.903 4.27272 0.337192 0
M  V30 1957 H 189.087 4.94896 -0.373092 0
M  V30 1958 H 184.343 5.96092 -1.35958 0
M  V30 1959 H 188.517 6.65039 -2.06629 0
M  V30 1960 H 186.144 7.15599 -2.56557 0
M  V30 1961 N 187.719 -0.156864 1.56817 0
M  V30 1962 C 188.967 -0.869404 1.82444 0
M  V30 1963 C 189.288 -1.82147 0.69623 0
M  V30 1964 O 188.558 -1.93847 -0.28287 0
M  V30 1965 H 187.138 -0.324043 0.673056 0
M  V30 1966 H 189.8 -0.153224 1.94297 0
M  V30 1967 H 188.896 -1.43761 2.77019 0
M  V30 1968 N 189.197 -1.51736 -0.425897 0
M  V30 1969 C 190.608 -1.5732 -1.00536 0
M  V30 1970 C 190.959 -0.403537 -1.92005 0
M  V30 1971 O 190.084 0.478256 -2.11049 0
M  V30 1972 C 190.679 -2.85119 -1.8301 0
M  V30 1973 C 189.238 -2.93236 -2.35987 0
M  V30 1974 C 188.385 -2.52098 -1.15508 0
M  V30 1975 H 191.336 -1.57348 -0.206739 0
M  V30 1976 H 191.357 -2.69526 -2.68581 0
M  V30 1977 H 190.869 -3.7023 -1.16411 0
M  V30 1978 H 188.97 -2.12581 -3.06007 0
M  V30 1979 H 189.083 -3.9713 -2.68001 0
M  V30 1980 H 187.447 -2.05558 -1.50393 0
M  V30 1981 H 188.23 -3.39565 -0.505014 0
M  V30 1982 N 190.675 0.682077 -1.42076 0
M  V30 1983 C 191.585 1.82535 -1.47371 0
M  V30 1984 C 192.601 1.7017 -0.363079 0
M  V30 1985 O 193.777 1.91848 -0.612875 0
M  V30 1986 C 190.842 3.18624 -1.36674 0
M  V30 1987 C 189.903 3.42999 -2.58167 0
M  V30 1988 C 189.136 4.72595 -2.4797 0
M  V30 1989 O 189.359 5.50006 -1.5116 0
M  V30 1990 O 188.293 4.98054 -3.37974 0
M  V30 1991 H 192.119 1.81023 -2.43853 0
M  V30 1992 H 189.704 0.836887 -1.2376 0
M  V30 1993 H 191.586 3.99847 -1.33043 0
M  V30 1994 H 190.261 3.20789 -0.433138 0
M  V30 1995 H 189.168 2.61653 -2.67373 0
M  V30 1996 H 190.501 3.45659 -3.50401 0
M  V30 1997 N 192.153 1.28127 0.917671 0
M  V30 1998 C 193.564 1.13622 1.48145 0
M  V30 1999 C 193.915 -0.275207 1.9426 0
M  V30 2000 O 193.04 -1.1691 1.82102 0
M  V30 2001 C 193.635 2.05648 2.69248 0
M  V30 2002 C 192.194 1.95219 3.21818 0
M  V30 2003 C 191.341 1.97618 1.94532 0
M  V30 2004 H 194.292 1.40874 0.730772 0
M  V30 2005 H 194.313 1.61818 3.44377 0
M  V30 2006 H 193.825 3.08365 2.35653 0
M  V30 2007 H 191.926 0.955244 3.60147 0
M  V30 2008 H 192.039 2.81976 3.87333 0
M  V30 2009 H 190.403 1.41973 2.11461 0
M  V30 2010 H 191.186 3.02007 1.63238 0
M  V30 2011 N 193.631 -1.12557 1.10312 0
M  V30 2012 C 194.541 -2.21841 0.763142 0
M  V30 2013 C 195.557 -1.72354 -0.238801 0
M  V30 2014 O 196.733 -2.01249 -0.0778746 0
M  V30 2015 C 193.798 -3.46131 0.198632 0
M  V30 2016 C 192.859 -4.10464 1.25769 0
M  V30 2017 C 192.092 -5.28821 0.72002 0
M  V30 2018 O 192.315 -5.6859 -0.453993 0
M  V30 2019 O 191.249 -5.83437 1.47935 0
M  V30 2020 H 195.075 -2.53312 1.67532 0
M  V30 2021 H 192.66 -1.20867 0.878157 0
M  V30 2022 H 194.542 -4.2125 -0.112401 0
M  V30 2023 H 193.217 -3.16338 -0.686419 0
M  V30 2024 H 192.124 -3.3713 1.62156 0
M  V30 2025 H 193.457 -4.44408 2.11571 0
M  V30 2026 N 195.109 -0.891671 -1.2995 0
M  V30 2027 C 196.356 -0.513501 -1.95881 0
M  V30 2028 C 196.684 0.938655 -1.70351 0
M  V30 2029 O 195.939 1.67936 -1.00478 0
M  V30 2030 C 196.238 -0.742868 -3.49594 0
M  V30 2031 C 195.904 -2.17114 -3.95186 0
M  V30 2032 C 194.566 -2.56169 -4.07346 0
M  V30 2033 C 196.918 -3.10162 -4.18866 0
M  V30 2034 C 194.246 -3.87469 -4.4055 0
M  V30 2035 C 196.598 -4.41001 -4.53542 0
M  V30 2036 C 195.262 -4.79941 -4.63911 0
M  V30 2037 H 194.532 -0.187903 -0.71678 0
M  V30 2038 H 197.179 -1.1288 -1.54694 0
M  V30 2039 H 195.484 -0.044586 -3.91775 0
M  V30 2040 H 197.181 -0.429767 -3.9869 0
M  V30 2041 H 193.771 -1.85801 -3.86233 0
M  V30 2042 H 197.955 -2.81206 -4.08946 0
M  V30 2043 H 193.211 -4.17371 -4.46779 0
M  V30 2044 H 197.385 -5.13133 -4.70815 0
M  V30 2045 H 195.012 -5.81719 -4.89395 0
M  V30 2046 N 196.587 1.43421 -0.653314 0
M  V30 2047 C 197.834 2.01812 -0.166745 0
M  V30 2048 C 198.162 1.51535 1.21931 0
M  V30 2049 O 197.417 0.698975 1.82792 0
M  V30 2050 C 197.716 3.57176 -0.126623 0
M  V30 2051 C 197.382 4.26798 -1.45444 0
M  V30 2052 C 196.044 4.45534 -1.81805 0
M  V30 2053 C 198.396 4.66225 -2.32989 0
M  V30 2054 C 195.724 5.00961 -3.05377 0
M  V30 2055 C 198.076 5.23021 -3.55853 0
M  V30 2056 C 196.74 5.39973 -3.9241 0
M  V30 2057 H 196.01 0.738484 -0.0610162 0
M  V30 2058 H 198.657 1.71896 -0.84404 0
M  V30 2059 H 196.962 3.86634 0.634123 0
M  V30 2060 H 198.659 4.00112 0.266723 0
M  V30 2061 H 195.249 4.12561 -1.16153 0
M  V30 2062 H 199.433 4.51443 -2.06187 0
M  V30 2063 H 194.689 5.12271 -3.3375 0
M  V30 2064 H 198.863 5.52518 -4.23907 0
M  V30 2065 H 196.49 5.82687 -4.88242 0
M  V30 2066 N 198.065 0.39524 1.52563 0
M  V30 2067 C 198.995 -0.428384 2.29537 0
M  V30 2068 C 199.976 -1.05831 1.33169 0
M  V30 2069 O 201.161 -1.06995 1.62067 0
M  V30 2070 C 198.291 -1.55274 3.10656 0
M  V30 2071 C 197.245 -1.04855 4.14957 0
M  V30 2072 C 196.571 -2.26543 4.84337 0
M  V30 2073 C 197.871 -0.112324 5.22179 0
M  V30 2074 H 199.565 0.213867 2.98635 0
M  V30 2075 H 197.111 0.104298 1.43622 0
M  V30 2076 H 199.064 -2.1358 3.63265 0
M  V30 2077 H 197.788 -2.22266 2.39302 0
M  V30 2078 H 196.447 -0.487985 3.63338 0
M  V30 2079 H 196.095 -2.92059 4.09525 0
M  V30 2080 H 195.795 -1.93466 5.54837 0
M  V30 2081 H 197.319 -2.85481 5.39753 0
M  V30 2082 H 198.733 -0.603752 5.70112 0
M  V30 2083 H 197.13 0.128968 5.99961 0
M  V30 2084 H 198.2 0.837052 4.77621 0
M  V30 2085 N 199.544 -1.57102 0.125237 0
M  V30 2086 C 200.791 -1.95407 -0.531248 0
M  V30 2087 C 201.119 -1.0089 -1.66287 0
M  V30 2088 O 200.374 -0.0339431 -1.95671 0
M  V30 2089 C 200.673 -3.40096 -1.09862 0
M  V30 2090 C 200.339 -4.50815 -0.0876989 0
M  V30 2091 C 199.001 -4.80824 0.19026 0
M  V30 2092 C 201.353 -5.17724 0.600902 0
M  V30 2093 C 198.681 -5.75058 1.163 0
M  V30 2094 C 201.033 -6.13005 1.56231 0
M  V30 2095 C 199.697 -6.41403 1.8482 0
M  V30 2096 H 198.967 -0.715046 -0.194397 0
M  V30 2097 H 201.614 -1.90373 0.207463 0
M  V30 2098 H 199.919 -3.41855 -1.91422 0
M  V30 2099 H 201.616 -3.6705 -1.61478 0
M  V30 2100 H 198.206 -4.27444 -0.314528 0
M  V30 2101 H 202.39 -4.94691 0.399333 0
M  V30 2102 H 197.646 -5.95362 1.39117 0
M  V30 2103 H 201.82 -6.63934 2.10153 0
M  V30 2104 H 199.447 -7.14229 2.60349 0
M  V30 2105 N 201.022 0.148545 -1.56898 0
M  V30 2106 C 202.299 0.890019 -1.74178 0
M  V30 2107 C 202.679 1.99407 -0.692839 0
M  V30 2108 O 202.027 2.26671 0.288505 0
M  V30 2109 C 202.237 1.43389 -3.18183 0
M  V30 2110 C 203.585 1.89791 -3.79822 0
M  V30 2111 O 204.609 1.53134 -3.21603 0
M  V30 2112 O 203.468 2.57387 -4.82093 0
M  V30 2113 H 200.562 0.420496 -0.712118 0
M  V30 2114 H 203.108 0.134591 -1.69165 0
M  V30 2115 H 201.88 0.640383 -3.86024 0
M  V30 2116 H 201.503 2.25287 -3.27615 0
M  V30 2117 N 202.5 1.5196 0.417844 0
M  V30 2118 C 203.777 1.56146 1.17803 0
M  V30 2119 C 204.157 0.337275 2.08388 0
M  V30 2120 O 203.505 -0.676447 2.18258 0
M  V30 2121 C 203.715 2.88566 1.96293 0
M  V30 2122 C 205.063 3.41244 2.52662 0
M  V30 2123 O 206.087 2.90247 2.06483 0
M  V30 2124 O 204.946 4.30273 3.36938 0
M  V30 2125 H 202.04 0.628598 0.537395 0
M  V30 2126 H 204.586 1.64283 0.425331 0
M  V30 2127 H 203.358 3.69116 1.2988 0
M  V30 2128 H 202.981 2.83681 2.78587 0
M  V30 2129 N 203.978 -0.674533 1.42435 0
M  V30 2130 C 205.227 -1.43034 1.42212 0
M  V30 2131 C 205.54 -1.95555 0.0420788 0
M  V30 2132 O 206.746 -2.71374 -0.0827558 0
M  V30 2133 C 205.202 -2.58748 2.50155 0
M  V30 2134 C 204.81 -2.12925 3.94166 0
M  V30 2135 C 206.554 -3.36257 2.59098 0
M  V30 2136 C 204.461 -3.25723 4.93618 0
M  V30 2137 H 203.391 -0.537345 0.528939 0
M  V30 2138 H 206.042 -0.73024 1.68344 0
M  V30 2139 H 204.424 -3.31128 2.17188 0
M  V30 2140 H 205.598 -1.47697 4.36488 0
M  V30 2141 H 203.913 -1.48354 3.89076 0
M  V30 2142 H 206.51 -4.20264 3.30578 0
M  V30 2143 H 206.853 -3.82866 1.63461 0
M  V30 2144 H 207.386 -2.70947 2.9126 0
M  V30 2145 H 204.125 -2.84105 5.90732 0
M  V30 2146 H 203.645 -3.89732 4.55926 0
M  V30 2147 H 205.324 -3.91186 5.15347 0
M  V30 2148 N 205.456 -1.28612 -0.910864 0
M  V30 2149 C 206.872 -1.06381 -1.18976 0
M  V30 2150 C 207.072 0.191998 -2.00583 0
M  V30 2151 O 206.128 0.892869 -2.36187 0
M  V30 2152 C 207.441 -2.31295 -1.92154 0
M  V30 2153 C 208.989 -2.36503 -2.05025 0
M  V30 2154 C 209.464 -3.61191 -2.81612 0
M  V30 2155 N 210.955 -3.61847 -2.89172 0
M  V30 2156 C 211.69 -4.55004 -3.4894 0
M  V30 2157 N 211.186 -5.58482 -4.09963 0
M  V30 2158 N 212.979 -4.42594 -3.46506 0
M  V30 2159 H 205.13 -2.09221 -0.366094 0
M  V30 2160 H 207.393 -0.921003 -0.224629 0
M  V30 2161 H 207.099 -3.228 -1.39618 0
M  V30 2162 H 206.973 -2.37934 -2.9269 0
M  V30 2163 H 209.36 -1.45494 -2.5674 0
M  V30 2164 H 209.441 -2.33857 -1.03657 0
M  V30 2165 H 209.085 -4.52545 -2.30576 0
M  V30 2166 H 209.015 -3.61092 -3.83302 0
M  V30 2167 H 211.506 -2.87022 -2.45819 0
M  V30 2168 H 211.819 -6.25704 -4.53557 0
M  V30 2169 H 210.164 -5.62305 -4.08459 0
M  V30 2170 H 213.355 -3.60953 -2.98045 0
M  V30 2171 H 213.528 -5.15381 -3.92793 0
M  V30 2172 N 206.934 1.1197 -1.10907 0
M  V30 2173 C 208.181 1.83588 -0.854507 0
M  V30 2174 C 208.509 1.84357 0.6199 0
M  V30 2175 O 207.764 1.28809 1.47332 0
M  V30 2176 C 208.063 3.30749 -1.35425 0
M  V30 2177 C 207.729 3.50146 -2.84093 0
M  V30 2178 C 206.391 3.55148 -3.2469 0
M  V30 2179 C 208.743 3.56857 -3.79872 0
M  V30 2180 C 206.071 3.6441 -4.59806 0
M  V30 2181 C 208.423 3.6765 -5.14797 0
M  V30 2182 C 207.087 3.7091 -5.54961 0
M  V30 2183 H 206.357 0.671795 -0.312686 0
M  V30 2184 H 209.004 1.32091 -1.38652 0
M  V30 2185 H 207.309 3.84703 -0.742361 0
M  V30 2186 H 209.006 3.8464 -1.1337 0
M  V30 2187 H 205.596 3.46919 -2.51685 0
M  V30 2188 H 209.78 3.52258 -3.49611 0
M  V30 2189 H 205.036 3.65208 -4.9034 0
M  V30 2190 H 209.21 3.71786 -5.88853 0
M  V30 2191 H 206.837 3.7784 -6.59652 0
M  V30 2192 N 208.412 0.89855 1.29475 0
M  V30 2193 C 209.66 0.522847 1.9522 0
M  V30 2194 C 209.981 -0.93371 1.71192 0
M  V30 2195 O 209.251 -1.65823 1.04305 0
M  V30 2196 H 207.831 0.190366 0.722336 0
M  V30 2197 H 210.493 1.14459 1.5775 0
M  V30 2198 H 209.589 0.704476 3.04045 0
M  V30 2199 N 209.89 -1.43072 0.660911 0
M  V30 2200 C 210.853 -2.29194 -0.0166406 0
M  V30 2201 C 211.853 -1.42609 -0.742912 0
M  V30 2202 O 213.043 -1.64155 -0.583004 0
M  V30 2203 C 210.175 -3.24831 -1.0343 0
M  V30 2204 H 211.368 -2.90596 0.741208 0
M  V30 2205 H 208.921 -1.5048 0.422532 0
M  V30 2206 H 209.656 -2.68339 -1.82111 0
M  V30 2207 H 209.441 -3.88676 -0.517082 0
M  V30 2208 H 210.931 -3.89451 -1.50723 0
M  V30 2209 N 211.368 -0.403325 -1.52352 0
M  V30 2210 C 212.593 0.176499 -2.06648 0
M  V30 2211 C 213.018 1.38577 -1.27193 0
M  V30 2212 O 212.376 1.7879 -0.300637 0
M  V30 2213 C 212.424 0.511061 -3.5696 0
M  V30 2214 O 211.528 1.60294 -3.79973 0
M  V30 2215 H 210.869 0.0167337 -0.663789 0
M  V30 2216 H 213.399 -0.574848 -1.96359 0
M  V30 2217 H 213.409 0.771362 -4.00642 0
M  V30 2218 H 212.084 -0.37296 -4.14224 0
M  V30 2219 H 210.661 1.33526 -3.48174 0
M  V30 2220 N 212.846 1.57033 -0.133567 0
M  V30 2221 C 214.095 1.94861 0.520768 0
M  V30 2222 C 214.408 1.02012 1.66892 0
M  V30 2223 O 215.614 1.29365 2.38699 0
M  V30 2224 C 214.07 3.46362 0.977809 0
M  V30 2225 C 213.678 4.47773 -0.142674 0
M  V30 2226 C 215.422 3.93083 1.60269 0
M  V30 2227 C 213.329 5.90468 0.331883 0
M  V30 2228 H 212.259 0.727453 0.198315 0
M  V30 2229 H 214.91 1.82227 -0.215759 0
M  V30 2230 H 213.292 3.54282 1.7692 0
M  V30 2231 H 214.466 4.51536 -0.919317 0
M  V30 2232 H 212.781 4.10891 -0.675124 0
M  V30 2233 H 215.378 4.97121 1.96914 0
M  V30 2234 H 215.721 3.33876 2.48662 0
M  V30 2235 H 216.254 3.88025 0.876453 0
M  V30 2236 H 212.993 6.53463 -0.516341 0
M  V30 2237 H 212.513 5.90094 1.07469 0
M  V30 2238 H 214.192 6.42179 0.788332 0
M  V30 2239 N 214.325 -0.140222 1.56975 0
M  V30 2240 C 215.55 -0.870414 1.88251 0
M  V30 2241 C 215.975 -1.73637 0.723312 0
M  V30 2242 O 215.333 -1.78329 -0.32689 0
M  V30 2243 C 215.381 -1.69737 3.18154 0
M  V30 2244 O 214.485 -2.80229 3.02565 0
M  V30 2245 H 213.826 -0.242025 0.61832 0
M  V30 2246 H 216.356 -0.128999 2.04193 0
M  V30 2247 H 216.366 -2.09099 3.50345 0
M  V30 2248 H 215.041 -1.06152 4.02125 0
M  V30 2249 H 213.618 -2.44224 2.81796 0
M  V30 2250 N 215.803 -1.52179 -0.40978 0
M  V30 2251 C 217.051 -1.65878 -1.15451 0
M  V30 2252 C 217.372 -0.390771 -1.91044 0
M  V30 2253 O 216.642 0.594323 -1.86667 0
M  V30 2254 H 215.222 -0.611405 -0.429177 0
M  V30 2255 H 217.884 -1.89219 -0.467134 0
M  V30 2256 H 216.98 -2.49954 -1.86894 0
M  V30 2257 N 217.281 0.66697 -1.42791 0
M  V30 2258 C 218.506 1.46004 -1.47301 0
M  V30 2259 C 218.931 1.87894 -0.0880317 0
M  V30 2260 O 218.289 1.56502 0.915253 0
M  V30 2261 C 218.337 2.68031 -2.41229 0
M  V30 2262 O 217.441 3.6659 -1.88906 0
M  V30 2263 H 216.782 0.43832 -0.49877 0
M  V30 2264 H 219.312 0.817391 -1.87563 0
M  V30 2265 H 219.322 3.1601 -2.58073 0
M  V30 2266 H 217.997 2.36883 -3.41847 0
M  V30 2267 H 216.574 3.25661 -1.81656 0
M  V30 2268 N 218.759 1.29093 0.90403 0
M  V30 2269 C 219.709 1.10482 1.99443 0
M  V30 2270 C 220.693 0.0255401 1.6088 0
M  V30 2271 O 221.885 0.24677 1.75271 0
M  V30 2272 C 219.014 0.778882 3.34348 0
M  V30 2273 C 218.1 1.89749 3.79284 0
M  V30 2274 N 218.491 3.14045 3.96497 0
M  V30 2275 C 216.789 1.78955 4.08523 0
M  V30 2276 C 217.49 3.86996 4.34292 0
M  V30 2277 N 216.466 3.14909 4.43095 0
M  V30 2278 H 220.268 2.04778 2.10815 0
M  V30 2279 H 217.782 1.20155 1.09255 0
M  V30 2280 H 219.779 0.62661 4.12164 0
M  V30 2281 H 218.439 -0.156205 3.24324 0
M  V30 2282 H 219.45 3.49548 3.82148 0
M  V30 2283 H 216.127 0.926886 4.07081 0
M  V30 2284 H 217.517 4.93941 4.55491 0
M  V30 2285 N 220.237 -1.11381 1.11499 0
M  V30 2286 C 221.483 -1.83403 0.865512 0
M  V30 2287 C 221.816 -1.84459 -0.607329 0
M  V30 2288 O 221.091 -1.29811 -1.44842 0
M  V30 2289 C 221.374 -3.30552 1.42855 0
M  V30 2290 C 221.227 -3.37886 2.96906 0
M  V30 2291 C 222.546 -4.26643 1.08 0
M  V30 2292 H 219.665 -0.665879 0.31587 0
M  V30 2293 H 222.307 -1.30601 1.37998 0
M  V30 2294 H 220.457 -3.75648 0.990985 0
M  V30 2295 H 222.129 -3.01343 3.49271 0
M  V30 2296 H 220.372 -2.78088 3.32941 0
M  V30 2297 H 221.043 -4.41458 3.31389 0
M  V30 2298 H 223.519 -3.89729 1.45775 0
M  V30 2299 H 222.395 -5.27986 1.50072 0
M  V30 2300 H 222.656 -4.42099 -0.00915037 0
M  V30 2301 N 221.715 -0.905404 -1.28997 0
M  V30 2302 C 222.678 -0.392253 -2.25819 0
M  V30 2303 C 223.678 0.476753 -1.5357 0
M  V30 2304 O 224.868 0.280994 -1.71919 0
M  V30 2305 C 222 0.438588 -3.38067 0
M  V30 2306 H 223.193 -1.24743 -2.72725 0
M  V30 2307 H 220.746 -0.684051 -1.40536 0
M  V30 2308 H 221.481 1.31352 -2.96508 0
M  V30 2309 H 221.266 -0.184167 -3.91667 0
M  V30 2310 H 222.756 0.78873 -4.10084 0
M  V30 2311 N 223.193 1.4272 -0.668489 0
M  V30 2312 C 224.442 2.00846 -0.185389 0
M  V30 2313 C 224.755 1.53442 1.21305 0
M  V30 2314 O 225.961 2.03944 1.79218 0
M  V30 2315 C 224.417 3.58805 -0.280591 0
M  V30 2316 C 224.025 4.15198 -1.68268 0
M  V30 2317 C 225.769 4.24255 0.14412 0
M  V30 2318 C 223.676 5.655 -1.73099 0
M  V30 2319 H 222.606 0.751145 -0.0655475 0
M  V30 2320 H 225.257 1.63516 -0.832752 0
M  V30 2321 H 223.639 3.93608 0.434553 0
M  V30 2322 H 224.813 3.91866 -2.42441 0
M  V30 2323 H 223.128 3.62176 -2.05469 0
M  V30 2324 H 225.725 5.34547 0.128086 0
M  V30 2325 H 226.068 3.99277 1.17827 0
M  V30 2326 H 226.601 3.94389 -0.519798 0
M  V30 2327 H 223.34 5.95268 -2.74475 0
M  V30 2328 H 222.86 5.90842 -1.03274 0
M  V30 2329 H 224.539 6.29808 -1.48158 0
M  V30 2330 N 224.671 0.411399 1.52136 0
M  V30 2331 C 225.948 -0.222308 1.94333 0
M  V30 2332 C 226.328 -1.6242 1.34844 0
M  V30 2333 O 225.676 -2.22384 0.525145 0
M  V30 2334 C 225.886 -0.226345 3.48265 0
M  V30 2335 C 227.234 -0.444592 4.22266 0
M  V30 2336 O 228.258 -0.305602 3.54887 0
M  V30 2337 O 227.117 -0.718749 5.41753 0
M  V30 2338 H 224.211 -0.143907 0.814383 0
M  V30 2339 H 226.757 0.467506 1.63133 0
M  V30 2340 H 225.529 0.75475 3.83952 0
M  V30 2341 H 225.152 -0.960163 3.85832 0
M  V30 2342 N 226.149 -1.5696 0.141893 0
M  V30 2343 C 227.426 -1.87553 -0.555281 0
M  V30 2344 C 227.806 -1.04699 -1.83306 0
M  V30 2345 O 227.154 -0.132346 -2.28116 0
M  V30 2346 C 227.364 -3.39093 -0.825664 0
M  V30 2347 C 228.712 -4.08199 -1.16869 0
M  V30 2348 O 229.736 -3.44242 -0.915185 0
M  V30 2349 O 228.595 -5.21139 -1.6455 0
M  V30 2350 H 225.689 -0.777188 -0.282679 0
M  V30 2351 H 228.235 -1.68763 0.17812 0
M  V30 2352 H 227.007 -3.91221 0.0788633 0
M  V30 2353 H 226.63 -3.63393 -1.61343 0
M  V30 2354 N 227.627 0.131896 -1.57047 0
M  V30 2355 C 228.876 0.84044 -1.83356 0
M  V30 2356 C 229.189 1.81646 -0.725535 0
M  V30 2357 O 230.395 2.57025 -0.874659 0
M  V30 2358 C 228.851 1.54528 -3.25037 0
M  V30 2359 C 228.459 0.610902 -4.43815 0
M  V30 2360 C 230.203 2.23972 -3.60606 0
M  V30 2361 C 228.11 1.31823 -5.76521 0
M  V30 2362 H 227.04 0.317599 -0.683847 0
M  V30 2363 H 229.691 0.0931561 -1.83263 0
M  V30 2364 H 228.073 2.33873 -3.19561 0
M  V30 2365 H 229.247 -0.148407 -4.60561 0
M  V30 2366 H 227.562 0.0241016 -4.16393 0
M  V30 2367 H 230.159 2.77558 -4.57018 0
M  V30 2368 H 230.502 3.01173 -2.87403 0
M  V30 2369 H 231.035 1.51529 -3.6781 0
M  V30 2370 H 227.774 0.587771 -6.52859 0
M  V30 2371 H 227.294 2.04987 -5.63685 0
M  V30 2372 H 228.973 1.855 -6.19838 0
M  V30 2373 N 229.106 1.52395 0.401703 0
M  V30 2374 C 230.016 1.7917 1.51444 0
M  V30 2375 C 231.032 0.677691 1.6026 0
M  V30 2376 O 232.208 0.963909 1.76835 0
M  V30 2377 C 229.273 1.94347 2.87107 0
M  V30 2378 C 228.334 3.18257 2.88116 0
M  V30 2379 C 227.567 3.32701 4.17308 0
M  V30 2380 O 227.79 2.52238 5.11598 0
M  V30 2381 O 226.724 4.25891 4.25324 0
M  V30 2382 H 230.55 2.73633 1.31752 0
M  V30 2383 H 228.135 1.3733 0.588296 0
M  V30 2384 H 230.017 2.06109 3.67555 0
M  V30 2385 H 228.692 1.03073 3.06851 0
M  V30 2386 H 227.599 3.11947 2.06494 0
M  V30 2387 H 228.932 4.09336 2.73322 0
M  V30 2388 N 230.584 -0.659388 1.43143 0
M  V30 2389 C 231.832 -1.41654 1.44147 0
M  V30 2390 C 232.153 -1.94893 0.0645739 0
M  V30 2391 O 231.423 -1.74044 -0.899198 0
M  V30 2392 H 230.003 -0.525708 0.530697 0
M  V30 2393 H 232.665 -0.778097 1.78694 0
M  V30 2394 H 231.761 -2.26195 2.1504 0
M  V30 2395 N 232.062 -1.29571 -0.897171 0
M  V30 2396 C 233.025 -1.14913 -1.98312 0
M  V30 2397 C 234.025 -0.0838629 -1.60581 0
M  V30 2398 O 235.215 -0.331006 -1.71026 0
M  V30 2399 C 232.347 -0.757835 -3.3237 0
M  V30 2400 H 233.54 -2.11377 -2.12743 0
M  V30 2401 H 231.093 -1.12793 -1.08201 0
M  V30 2402 H 231.828 0.206837 -3.2364 0
M  V30 2403 H 231.613 -1.52755 -3.61121 0
M  V30 2404 H 233.103 -0.678408 -4.12053 0
M  V30 2405 N 233.54 1.10788 -1.12088 0
M  V30 2406 C 234.786 1.8313 -0.885148 0
M  V30 2407 C 235.141 1.8336 0.582839 0
M  V30 2408 O 234.434 1.28062 1.42516 0
M  V30 2409 C 234.628 3.29294 -1.38926 0
M  V30 2410 C 234.457 3.43302 -2.90472 0
M  V30 2411 C 233.227 3.55928 -3.58669 0
M  V30 2412 C 235.425 3.37014 -3.88492 0
M  V30 2413 N 233.407 3.58475 -4.98366 0
M  V30 2414 C 234.778 3.46263 -5.14298 0
M  V30 2415 C 236.833 3.20589 -3.80955 0
M  V30 2416 C 235.536 3.4078 -6.33452 0
M  V30 2417 C 237.562 3.16427 -4.99628 0
M  V30 2418 C 236.924 3.26253 -6.2429 0
M  V30 2419 H 233.023 0.685054 -0.377128 0
M  V30 2420 H 235.607 1.3251 -1.4265 0
M  V30 2421 H 233.778 3.78416 -0.874999 0
M  V30 2422 H 235.51 3.89578 -1.09596 0
M  V30 2423 H 232.265 3.58779 -3.09151 0
M  V30 2424 H 232.689 3.6337 -5.71219 0
M  V30 2425 H 237.331 3.11873 -2.85474 0
M  V30 2426 H 235.049 3.48263 -7.29204 0
M  V30 2427 H 238.635 3.04874 -4.95523 0
M  V30 2428 H 237.515 3.2303 -7.14578 0
M  V30 2429 N 235.018 0.912232 1.28515 0
M  V30 2430 C 235.966 0.389597 2.29314 0
M  V30 2431 C 236.96 -0.517915 1.61289 0
M  V30 2432 O 238.166 -0.399328 1.75515 0
M  V30 2433 H 234.541 0.107386 0.744293 0
M  V30 2434 H 236.512 1.25286 2.70825 0
M  V30 2435 C 235.261 -0.356496 3.45868 0
M  V30 2436 H 234.584 0.332608 3.98414 0
M  V30 2437 H 236.024 -0.686851 4.184 0
M  V30 2438 C 234.483 -1.56383 2.98406 0
M  V30 2439 O 235.013 -2.66294 3.00749 0
M  V30 2440 N 233.219 -1.41029 2.54085 0
M  V30 2441 H 232.766 -0.516089 2.52377 0
M  V30 2442 H 232.724 -2.21939 2.22689 0
M  V30 2443 N 236.496 -1.42363 0.676048 0
M  V30 2444 C 237.721 -2.06377 0.205705 0
M  V30 2445 C 238.146 -1.50463 -1.12883 0
M  V30 2446 O 237.504 -0.623619 -1.70237 0
M  V30 2447 C 237.552 -3.60277 0.152655 0
M  V30 2448 O 236.656 -4.02935 -0.87845 0
M  V30 2449 H 235.997 -0.655588 0.105359 0
M  V30 2450 H 238.527 -1.82475 0.925412 0
M  V30 2451 H 238.537 -4.07993 -0.0230675 0
M  V30 2452 H 237.212 -4.00346 1.12675 0
M  V30 2453 H 235.789 -3.66764 -0.673668 0
M  V30 2454 N 237.974 -0.419461 -1.51915 0
M  V30 2455 C 239.199 0.154572 -2.06823 0
M  V30 2456 C 239.624 1.3722 -1.28656 0
M  V30 2457 O 238.982 1.78461 -0.319583 0
M  V30 2458 C 239.03 0.473172 -3.57482 0
M  V30 2459 O 238.134 1.56255 -3.81652 0
M  V30 2460 H 237.475 0.0096924 -0.663929 0
M  V30 2461 H 240.005 -0.595642 -1.95738 0
M  V30 2462 H 240.015 0.728825 -4.01438 0
M  V30 2463 H 238.69 -0.416873 -4.13805 0
M  V30 2464 H 237.267 1.29825 -3.49571 0
M  V30 2465 N 239.452 1.56882 -0.150215 0
M  V30 2466 C 240.68 2.00593 0.506948 0
M  V30 2467 C 241.095 1.03033 1.58208 0
M  V30 2468 O 240.452 0.0278396 1.82479 0
M  V30 2469 C 240.503 3.44209 1.10465 0
M  V30 2470 O 240.224 4.3804 0.0724636 0
M  V30 2471 C 241.725 4.03214 1.84211 0
M  V30 2472 H 238.945 0.65795 0.13169 0
M  V30 2473 H 241.489 2.03018 -0.245743 0
M  V30 2474 H 239.644 3.42625 1.80795 0
M  V30 2475 H 240.058 5.22007 0.510793 0
M  V30 2476 H 241.532 5.0569 2.21318 0
M  V30 2477 H 242.009 3.44107 2.72923 0
M  V30 2478 H 242.615 4.08437 1.18572 0
M  V30 2479 N 240.93 -0.123565 1.57115 0
M  V30 2480 C 241.877 -1.15177 2.00007 0
M  V30 2481 C 242.847 -1.41403 0.871454 0
M  V30 2482 O 244.032 -1.53346 1.13533 0
M  V30 2483 C 241.172 -2.47436 2.40561 0
M  V30 2484 C 240.285 -2.28184 3.66819 0
M  V30 2485 C 239.42 -3.53641 3.96373 0
M  V30 2486 C 238.459 -3.29528 5.15827 0
M  V30 2487 N 237.596 -4.47175 5.41275 0
M  V30 2488 H 242.436 -0.779008 2.87638 0
M  V30 2489 H 239.973 -0.373166 1.42288 0
M  V30 2490 H 241.931 -3.24584 2.62109 0
M  V30 2491 H 240.561 -2.82614 1.55978 0
M  V30 2492 H 239.613 -1.41976 3.52912 0
M  V30 2493 H 240.925 -2.0634 4.5412 0
M  V30 2494 H 240.079 -4.39209 4.18545 0
M  V30 2495 H 238.818 -3.78512 3.07538 0
M  V30 2496 H 237.823 -2.42349 4.93505 0
M  V30 2497 H 239.048 -3.06031 6.06236 0
M  V30 2498 H 236.994 -4.72175 4.55397 0
M  V30 2499 H 236.911 -4.28419 6.22891 0
M  V30 2500 H 238.179 -5.3389 5.67963 0
M  V30 2501 N 242.408 -1.52605 -0.393616 0
M  V30 2502 C 243.638 -1.71046 -1.15874 0
M  V30 2503 C 244.046 -0.426483 -1.84331 0
M  V30 2504 O 243.389 0.608513 -1.73329 0
M  V30 2505 C 243.451 -2.80118 -2.25332 0
M  V30 2506 C 243.115 -4.21381 -1.76881 0
M  V30 2507 C 244.112 -5.04697 -1.24808 0
M  V30 2508 C 241.797 -4.67683 -1.83244 0
M  V30 2509 C 243.791 -6.32393 -0.797387 0
M  V30 2510 C 241.478 -5.95364 -1.37787 0
M  V30 2511 C 242.476 -6.77549 -0.861208 0
M  V30 2512 O 242.164 -8.02837 -0.413252 0
M  V30 2513 H 241.896 -0.576155 -0.353583 0
M  V30 2514 H 244.45 -2.00018 -0.467123 0
M  V30 2515 H 242.68 -2.46557 -2.97904 0
M  V30 2516 H 244.369 -2.87006 -2.87023 0
M  V30 2517 H 245.135 -4.70111 -1.19252 0
M  V30 2518 H 241.014 -4.03805 -2.22401 0
M  V30 2519 H 244.558 -6.9649 -0.393437 0
M  V30 2520 H 240.455 -6.29455 -1.43026 0
M  V30 2521 H 241.223 -8.16749 -0.53515 0
M  V30 2522 N 243.887 0.651787 -1.4349 0
M  V30 2523 C 244.797 1.79368 -1.5121 0
M  V30 2524 C 245.813 1.69361 -0.399093 0
M  V30 2525 O 246.989 1.90505 -0.653431 0
M  V30 2526 C 244.054 3.15653 -1.43401 0
M  V30 2527 C 243.115 3.37446 -2.65384 0
M  V30 2528 C 242.348 4.67229 -2.57939 0
M  V30 2529 O 242.571 5.46676 -1.62792 0
M  V30 2530 O 241.505 4.90773 -3.48462 0
M  V30 2531 H 245.331 1.7581 -2.47638 0
M  V30 2532 H 242.916 0.810447 -1.25507 0
M  V30 2533 H 244.798 3.96935 -1.41494 0
M  V30 2534 H 243.473 3.19798 -0.501085 0
M  V30 2535 H 242.38 2.55923 -2.72863 0
M  V30 2536 H 243.713 3.38148 -3.57654 0
M  V30 2537 N 245.365 1.30045 0.890287 0
M  V30 2538 C 246.613 1.18327 1.63839 0
M  V30 2539 C 246.934 -0.263455 1.93212 0
M  V30 2540 O 246.204 -1.17856 1.56482 0
M  V30 2541 H 244.784 0.434933 0.607324 0
M  V30 2542 H 247.446 1.631 1.06698 0
M  V30 2543 H 246.542 1.74024 2.59079 0
M  V30 2544 N 246.843 -1.10192 1.12674 0
M  V30 2545 C 248.091 -1.81845 0.881861 0
M  V30 2546 C 248.412 -1.85737 -0.593867 0
M  V30 2547 O 247.682 -1.33724 -1.4316 0
M  V30 2548 H 246.262 -0.673432 0.323261 0
M  V30 2549 H 248.924 -1.33316 1.42172 0
M  V30 2550 H 248.02 -2.85288 1.2656 0
M  V30 2551 N 248.321 -0.919034 -1.28029 0
M  V30 2552 C 249.269 -0.401753 -2.29104 0
M  V30 2553 C 250.263 0.509354 -1.61561 0
M  V30 2554 O 251.469 0.390014 -1.75724 0
M  V30 2555 H 247.844 -0.111331 -0.743713 0
M  V30 2556 H 249.815 -1.2672 -2.70156 0
M  V30 2557 C 248.564 0.338148 -3.46052 0
M  V30 2558 H 247.887 -0.353732 -3.98232 0
M  V30 2559 H 249.327 0.664653 -4.18758 0
M  V30 2560 C 247.786 1.54798 -2.99231 0
M  V30 2561 O 248.316 2.64696 -3.02157 0
M  V30 2562 N 246.522 1.3968 -2.54829 0
M  V30 2563 H 246.069 0.502698 -2.52647 0
M  V30 2564 H 246.027 2.20755 -2.23863 0
M  V30 2565 N 249.799 1.42003 -0.683588 0
M  V30 2566 C 250.746 2.30798 -0.0107309 0
M  V30 2567 C 251.716 1.4645 0.783688 0
M  V30 2568 O 252.901 1.75263 0.754156 0
M  V30 2569 C 250.041 3.3238 0.928306 0
M  V30 2570 C 249.154 4.31814 0.126776 0
M  V30 2571 C 248.289 5.20468 1.06236 0
M  V30 2572 C 247.328 6.11577 0.253035 0
M  V30 2573 N 246.465 6.92754 1.14179 0
M  V30 2574 H 251.305 2.8778 -0.773727 0
M  V30 2575 H 248.842 1.41745 -0.393283 0
M  V30 2576 H 250.8 3.89813 1.48666 0
M  V30 2577 H 249.43 2.76976 1.65783 0
M  V30 2578 H 248.482 3.76427 -0.54833 0
M  V30 2579 H 249.794 4.96276 -0.501192 0
M  V30 2580 H 248.948 5.82677 1.69035 0
M  V30 2581 H 247.687 4.56204 1.7242 0
M  V30 2582 H 246.692 5.48428 -0.388108 0
M  V30 2583 H 247.917 6.77892 -0.404839 0
M  V30 2584 H 245.863 6.3111 1.78987 0
M  V30 2585 H 245.78 7.53855 0.569111 0
M  V30 2586 H 247.048 7.59441 1.75697 0
M  V30 2587 N 251.277 0.427512 1.51691 0
M  V30 2588 C 252.525 -0.141948 2.01601 0
M  V30 2589 C 252.846 -1.44067 1.31414 0
M  V30 2590 O 252.116 -1.90763 0.445658 0
M  V30 2591 H 250.696 -0.0554468 0.744939 0
M  V30 2592 H 253.358 0.567968 1.86441 0
M  V30 2593 H 252.454 -0.324913 3.10404 0
M  V30 2594 N 252.755 -1.56801 0.158532 0
M  V30 2595 C 253.705 -2.13923 -0.788738 0
M  V30 2596 C 254.689 -1.07006 -1.2016 0
M  V30 2597 O 255.881 -1.33159 -1.1661 0
M  V30 2598 C 253.01 -2.77348 -2.02319 0
M  V30 2599 C 252.096 -3.91404 -1.6329 0
M  V30 2600 N 252.487 -4.9677 -0.951463 0
M  V30 2601 C 250.785 -4.02326 -1.92482 0
M  V30 2602 C 251.486 -5.76698 -0.761221 0
M  V30 2603 N 250.462 -5.27859 -1.29869 0
M  V30 2604 H 254.264 -2.92757 -0.258995 0
M  V30 2605 H 251.778 -1.62344 -0.0426055 0
M  V30 2606 H 253.775 -3.16639 -2.71192 0
M  V30 2607 H 252.435 -1.99991 -2.558 0
M  V30 2608 H 253.446 -5.14284 -0.610928 0
M  V30 2609 H 250.123 -3.36059 -2.47732 0
M  V30 2610 H 251.513 -6.71529 -0.223284 0
M  V30 2611 N 254.233 0.115231 -1.57178 0
M  V30 2612 C 255.649 0.468877 -1.52557 0
M  V30 2613 C 255.849 1.81649 -0.872125 0
M  V30 2614 O 254.905 2.48347 -0.45606 0
M  V30 2615 C 256.218 0.4499 -2.97315 0
M  V30 2616 C 257.766 0.533185 -3.08425 0
M  V30 2617 C 258.241 0.54456 -4.54751 0
M  V30 2618 N 259.732 0.605892 -4.5922 0
M  V30 2619 C 260.467 0.636203 -5.6986 0
M  V30 2620 N 259.963 0.623931 -6.89985 0
M  V30 2621 N 261.756 0.679496 -5.57978 0
M  V30 2622 H 253.907 -0.767712 -1.9804 0
M  V30 2623 H 256.17 -0.283609 -0.904583 0
M  V30 2624 H 255.876 -0.472721 -3.48509 0
M  V30 2625 H 255.75 1.27632 -3.5495 0
M  V30 2626 H 258.137 1.44623 -2.57232 0
M  V30 2627 H 258.218 -0.320995 -2.53778 0
M  V30 2628 H 257.862 -0.364452 -5.06591 0
M  V30 2629 H 257.792 1.41568 -5.07214 0
M  V30 2630 H 260.283 0.621386 -3.72756 0
M  V30 2631 H 260.596 0.649787 -7.70063 0
M  V30 2632 H 258.941 0.591296 -6.9248 0
M  V30 2633 H 262.132 0.686472 -4.63039 0
M  V30 2634 H 262.305 0.69965 -6.44212 0
M  V30 2635 N 255.711 1.52812 0.385517 0
M  V30 2636 C 257.122 1.5993 0.963293 0
M  V30 2637 C 257.473 0.454302 1.90868 0
M  V30 2638 O 256.598 -0.422132 2.12243 0
M  V30 2639 C 257.193 2.89871 1.75387 0
M  V30 2640 C 255.752 2.99389 2.28129 0
M  V30 2641 C 254.899 2.55071 1.08783 0
M  V30 2642 H 257.85 1.5784 0.164948 0
M  V30 2643 H 257.871 2.76553 2.61341 0
M  V30 2644 H 257.383 3.73186 1.06554 0
M  V30 2645 H 255.484 2.20619 3.00263 0
M  V30 2646 H 255.597 4.04096 2.57377 0
M  V30 2647 H 253.961 2.09473 1.4489 0
M  V30 2648 H 254.744 3.40785 0.414807 0
M  V30 2649 N 257.189 -0.644168 1.43834 0
M  V30 2650 C 258.437 -1.40117 1.45642 0
M  V30 2651 C 258.758 -1.94814 0.0852413 0
M  V30 2652 O 258.028 -1.74988 -0.880688 0
M  V30 2653 H 256.608 -0.52005 0.536243 0
M  V30 2654 H 259.27 -0.7591 1.7951 0
M  V30 2655 H 258.366 -2.23902 2.17427 0
M  V30 2656 N 258.668 -1.30515 -0.883378 0
M  V30 2657 C 259.914 -1.19607 -1.63774 0
M  V30 2658 C 260.247 0.248314 -1.92606 0
M  V30 2659 O 259.522 1.17742 -1.54813 0
M  V30 2660 C 259.805 -2.02669 -2.97653 0
M  V30 2661 C 259.658 -3.55335 -2.75784 0
M  V30 2662 C 260.977 -1.86573 -3.98596 0
M  V30 2663 H 258.096 -0.435856 -0.594305 0
M  V30 2664 H 260.738 -1.60165 -1.02212 0
M  V30 2665 H 258.888 -1.68208 -3.50197 0
M  V30 2666 H 260.56 -3.99863 -2.30016 0
M  V30 2667 H 258.803 -3.79438 -2.1026 0
M  V30 2668 H 259.474 -4.08745 -3.70988 0
M  V30 2669 H 261.95 -2.16703 -3.55217 0
M  V30 2670 H 260.826 -2.47014 -4.90179 0
M  V30 2671 H 261.087 -0.825321 -4.34328 0
M  V30 2672 N 260.146 1.09593 -1.13257 0
M  V30 2673 C 261.093 2.1618 -0.808381 0
M  V30 2674 C 262.063 1.64517 0.228754 0
M  V30 2675 O 263.248 1.9053 0.101381 0
M  V30 2676 C 260.388 3.43973 -0.278675 0
M  V30 2677 C 259.501 4.09545 -1.37466 0
M  V30 2678 C 258.636 5.25088 -0.803479 0
M  V30 2679 C 257.675 5.82579 -1.87799 0
M  V30 2680 N 256.812 6.89486 -1.32488 0
M  V30 2681 H 261.652 2.43254 -1.72138 0
M  V30 2682 H 259.189 1.19392 -0.859294 0
M  V30 2683 H 261.147 4.17174 0.0465583 0
M  V30 2684 H 259.777 3.17223 0.597459 0
M  V30 2685 H 258.829 3.34226 -1.81652 0
M  V30 2686 H 260.141 4.48307 -2.18684 0
M  V30 2687 H 259.295 6.05178 -0.429427 0
M  V30 2688 H 258.034 4.87684 0.0397956 0
M  V30 2689 H 257.039 5.01152 -2.26113 0
M  V30 2690 H 258.264 6.22045 -2.72463 0
M  V30 2691 H 256.21 6.54064 -0.503575 0
M  V30 2692 H 256.127 7.27007 -2.07355 0
M  V30 2693 H 257.395 7.73336 -0.978336 0
M  V30 2694 N 261.624 0.925811 1.2754 0
M  V30 2695 C 262.872 0.564138 1.94067 0
M  V30 2696 C 263.193 -0.897188 1.73134 0
M  V30 2697 O 262.463 -1.63573 1.07799 0
M  V30 2698 H 261.043 0.205645 0.718136 0
M  V30 2699 H 263.705 1.1778 1.55287 0
M  V30 2700 H 262.801 0.76881 3.02483 0
M  V30 2701 N 263.102 -1.41638 0.69111 0
M  V30 2702 C 264.35 -2.00902 0.219758 0
M  V30 2703 C 264.671 -1.54994 -1.18329 0
M  V30 2704 O 263.941 -0.778628 -1.79762 0
M  V30 2705 H 262.521 -0.74289 0.0782558 0
M  V30 2706 H 265.183 -1.73327 0.891271 0
M  V30 2707 H 264.279 -3.11224 0.233708 0
M  V30 2708 N 264.58 -0.43555 -1.51462 0
M  V30 2709 C 265.81 0.130053 -2.0619 0
M  V30 2710 C 266.218 1.37164 -1.30317 0
M  V30 2711 O 265.561 1.80225 -0.355598 0
M  V30 2712 C 265.623 0.519418 -3.55728 0
M  V30 2713 C 265.287 -0.615119 -4.52841 0
M  V30 2714 C 266.284 -1.48671 -4.9819 0
M  V30 2715 C 263.969 -0.795341 -4.95963 0
M  V30 2716 C 265.963 -2.52324 -5.8533 0
M  V30 2717 C 263.65 -1.83514 -5.82894 0
M  V30 2718 C 264.648 -2.69748 -6.27475 0
M  V30 2719 O 264.336 -3.71944 -7.1268 0
M  V30 2720 H 264.068 0.0121612 -0.675891 0
M  V30 2721 H 266.622 -0.6129 -1.96043 0
M  V30 2722 H 264.852 1.31505 -3.63653 0
M  V30 2723 H 266.541 1.01597 -3.92979 0
M  V30 2724 H 267.307 -1.359 -4.65571 0
M  V30 2725 H 263.186 -0.133713 -4.60806 0
M  V30 2726 H 266.73 -3.19665 -6.20048 0
M  V30 2727 H 262.627 -1.96306 -6.14926 0
M  V30 2728 H 263.395 -3.68503 -7.30854 0
M  V30 2729 N 266.058 1.56714 -0.166846 0
M  V30 2730 C 267.305 1.96747 0.479252 0
M  V30 2731 C 267.633 1.05263 1.63554 0
M  V30 2732 O 266.888 0.0858098 1.95512 0
M  V30 2733 C 267.187 3.42889 1.00806 0
M  V30 2734 C 266.853 4.50889 -0.0318574 0
M  V30 2735 C 265.515 4.8015 -0.317675 0
M  V30 2736 C 267.867 5.15949 -0.737956 0
M  V30 2737 C 265.195 5.71772 -1.31506 0
M  V30 2738 C 267.547 6.08647 -1.72429 0
M  V30 2739 C 266.211 6.36277 -2.0176 0
M  V30 2740 H 265.481 0.719949 0.175371 0
M  V30 2741 H 268.128 1.89756 -0.257864 0
M  V30 2742 H 266.433 3.4681 1.82291 0
M  V30 2743 H 268.13 3.71203 1.51689 0
M  V30 2744 H 264.72 4.28128 0.201088 0
M  V30 2745 H 268.904 4.93458 -0.530351 0
M  V30 2746 H 264.16 5.91465 -1.54853 0
M  V30 2747 H 268.334 6.58129 -2.27682 0
M  V30 2748 H 265.961 7.07075 -2.79194 0
M  V30 2749 N 267.536 -0.106894 1.57237 0
M  V30 2750 C 268.947 -0.662723 1.74542 0
M  V30 2751 C 269.298 -1.7971 0.787319 0
M  V30 2752 O 268.423 -2.16368 -0.0369636 0
M  V30 2753 C 269.018 -1.20896 3.16496 0
M  V30 2754 C 267.577 -1.71096 3.35266 0
M  V30 2755 C 266.724 -0.615642 2.7038 0
M  V30 2756 H 269.675 0.119106 1.58252 0
M  V30 2757 H 269.696 -2.07847 3.18716 0
M  V30 2758 H 269.208 -0.383122 3.86204 0
M  V30 2759 H 267.309 -2.56119 2.70618 0
M  V30 2760 H 267.422 -1.81208 4.43509 0
M  V30 2761 H 265.786 -1.05222 2.31949 0
M  V30 2762 H 266.569 0.199419 3.4272 0
M  V30 2763 N 269.014 -1.53014 -0.377408 0
M  V30 2764 C 270.26 -1.68872 -1.12294 0
M  V30 2765 C 270.593 -0.433224 -1.89306 0
M  V30 2766 O 269.868 0.569258 -1.85983 0
M  V30 2767 C 270.151 -2.93115 -2.09179 0
M  V30 2768 C 270.004 -4.28794 -1.35853 0
M  V30 2769 C 271.323 -3.12928 -3.09458 0
M  V30 2770 H 268.442 -0.614518 -0.406862 0
M  V30 2771 H 271.084 -1.85633 -0.40503 0
M  V30 2772 H 269.234 -2.78956 -2.70399 0
M  V30 2773 H 270.906 -4.54742 -0.775082 0
M  V30 2774 H 269.149 -4.28744 -0.660364 0
M  V30 2775 H 269.82 -5.11837 -2.06706 0
M  V30 2776 H 272.296 -3.26194 -2.58334 0
M  V30 2777 H 271.172 -4.01316 -3.74482 0
M  V30 2778 H 271.433 -2.27669 -3.78971 0
M  V30 2779 N 270.492 0.636531 -1.44174 0
M  V30 2780 C 271.903 1.21806 -1.41493 0
M  V30 2781 C 272.254 1.95785 -0.1275 0
M  V30 2782 O 271.379 2.02147 0.772376 0
M  V30 2783 C 271.974 2.21551 -2.56321 0
M  V30 2784 C 270.533 2.75143 -2.56853 0
M  V30 2785 C 269.68 1.50052 -2.33195 0
M  V30 2786 H 272.631 0.427531 -1.52833 0
M  V30 2787 H 272.652 3.0405 -2.28765 0
M  V30 2788 H 272.164 1.67679 -3.50008 0
M  V30 2789 H 270.265 3.33033 -1.67093 0
M  V30 2790 H 270.378 3.2155 -3.55165 0
M  V30 2791 H 268.742 1.77993 -1.82183 0
M  V30 2792 H 269.525 0.980903 -3.28988 0
M  V30 2793 N 271.97 1.30982 0.876444 0
M  V30 2794 C 273.381 1.18277 1.44456 0
M  V30 2795 C 273.732 -0.213265 1.95037 0
M  V30 2796 O 272.857 -1.11057 1.85729 0
M  V30 2797 C 273.452 2.1411 2.62569 0
M  V30 2798 C 272.011 2.05358 3.15444 0
M  V30 2799 C 271.158 2.03706 1.88146 0
M  V30 2800 H 274.109 1.43127 0.685584 0
M  V30 2801 H 274.13 1.72692 3.39054 0
M  V30 2802 H 273.642 3.15706 2.25724 0
M  V30 2803 H 271.743 1.06934 3.56926 0
M  V30 2804 H 271.856 2.94156 3.78166 0
M  V30 2805 H 270.22 1.48629 2.06837 0
M  V30 2806 H 271.003 3.07047 1.53547 0
M  V30 2807 N 273.449 -1.08991 1.13837 0
M  V30 2808 C 274.695 -1.81526 0.90422 0
M  V30 2809 C 275.028 -1.85706 -0.568066 0
M  V30 2810 O 274.303 -1.32855 -1.42056 0
M  V30 2811 C 274.586 -3.27447 1.49835 0
M  V30 2812 C 274.439 -3.31512 3.04006 0
M  V30 2813 C 275.758 -4.24256 1.17025 0
M  V30 2814 H 272.877 -0.659029 0.329923 0
M  V30 2815 H 275.519 -1.27644 1.40737 0
M  V30 2816 H 273.669 -3.73462 1.07044 0
M  V30 2817 H 275.341 -2.93867 3.55584 0
M  V30 2818 H 273.584 -2.70963 3.38765 0
M  V30 2819 H 274.255 -4.34329 3.40679 0
M  V30 2820 H 276.731 -3.86549 1.54009 0
M  V30 2821 H 275.607 -5.24684 1.61237 0
M  V30 2822 H 275.868 -4.42019 0.0846274 0
M  V30 2823 N 274.927 -0.932562 -1.27047 0
M  V30 2824 C 276.204 -0.49377 -1.89265 0
M  V30 2825 C 276.584 1.02833 -1.8436 0
M  V30 2826 O 275.932 1.88461 -1.29209 0
M  V30 2827 C 276.142 -1.04536 -3.32976 0
M  V30 2828 C 277.49 -1.10879 -4.09867 0
M  V30 2829 O 278.514 -0.995327 -3.42011 0
M  V30 2830 O 277.373 -1.28417 -5.31198 0
M  V30 2831 H 274.467 -0.159596 -0.811454 0
M  V30 2832 H 277.013 -1.02457 -1.3528 0
M  V30 2833 H 275.785 -2.08913 -3.30864 0
M  V30 2834 H 275.408 -0.496494 -3.94488 0
M  V30 2835 N 276.405 1.4127 -0.698611 0
M  V30 2836 C 277.63 2.06024 -0.238512 0
M  V30 2837 C 278.055 1.5224 1.10475 0
M  V30 2838 O 277.413 0.650623 1.69223 0
M  V30 2839 C 277.461 3.59988 -0.209952 0
M  V30 2840 O 276.565 4.04282 0.814235 0
M  V30 2841 H 275.906 0.653829 -0.115775 0
M  V30 2842 H 278.436 1.8098 -0.954326 0
M  V30 2843 H 278.446 4.07979 -0.0418436 0
M  V30 2844 H 277.121 3.98503 -1.1903 0
M  V30 2845 H 275.698 3.6779 0.615234 0
M  V30 2846 N 277.883 0.443576 1.51229 0
M  V30 2847 C 278.846 -0.353132 2.26463 0
M  V30 2848 C 279.846 -0.944338 1.3015 0
M  V30 2849 O 281.036 -0.817813 1.5381 0
M  V30 2850 C 278.168 -1.50023 3.06114 0
M  V30 2851 H 279.361 0.3063 2.98332 0
M  V30 2852 H 276.914 0.196902 1.55055 0
M  V30 2853 H 277.649 -2.19553 2.38677 0
M  V30 2854 H 277.434 -1.08241 3.76864 0
M  V30 2855 H 278.924 -2.06296 3.63087 0
M  V30 2856 N 279.361 -1.56624 0.175154 0
M  V30 2857 C 280.293 -2.15333 -0.785128 0
M  V30 2858 C 281.306 -1.1099 -1.19101 0
M  V30 2859 O 282.495 -1.38162 -1.13019 0
M  V30 2860 C 279.595 -2.68427 -2.06882 0
M  V30 2861 C 278.768 -3.97466 -1.8259 0
M  V30 2862 C 277.827 -4.35585 -2.95215 0
M  V30 2863 O 276.853 -5.03389 -2.65684 0
M  V30 2864 N 278.055 -3.97457 -4.23094 0
M  V30 2865 H 280.82 -2.98359 -0.283187 0
M  V30 2866 H 278.381 -1.61898 -0.00749817 0
M  V30 2867 H 280.373 -2.90924 -2.81328 0
M  V30 2868 H 278.943 -1.89968 -2.48256 0
M  V30 2869 H 278.163 -3.83307 -0.920287 0
M  V30 2870 H 279.451 -4.81736 -1.63733 0
M  V30 2871 H 278.849 -3.42878 -4.49945 0
M  V30 2872 H 277.406 -4.24947 -4.9423 0
M  V30 2873 N 280.839 0.0985539 -1.57292 0
M  V30 2874 C 282.116 0.834155 -1.76921 0
M  V30 2875 C 282.496 1.97101 -0.755928 0
M  V30 2876 O 281.844 2.27474 0.216245 0
M  V30 2877 C 282.054 1.33194 -3.22584 0
M  V30 2878 C 283.402 1.77611 -3.85668 0
M  V30 2879 O 284.426 1.42825 -3.26312 0
M  V30 2880 O 283.285 2.4192 -4.90038 0
M  V30 2881 H 280.379 0.397628 -0.725135 0
M  V30 2882 H 282.925 0.0807044 -1.69508 0
M  V30 2883 H 281.697 0.517248 -3.87866 0
M  V30 2884 H 281.32 2.1475 -3.34616 0
M  V30 2885 N 282.317 1.53212 0.369288 0
M  V30 2886 C 283.566 1.68436 1.10961 0
M  V30 2887 C 283.879 0.440738 1.9057 0
M  V30 2888 O 285.085 0.473446 2.6734 0
M  V30 2889 C 283.541 2.97744 2.0218 0
M  V30 2890 C 283.149 4.29355 1.279 0
M  V30 2891 C 284.893 3.22334 2.76226 0
M  V30 2892 C 282.8 5.49755 2.17999 0
M  V30 2893 H 281.73 0.627568 0.41794 0
M  V30 2894 H 284.381 1.79713 0.370884 0
M  V30 2895 H 282.763 2.8026 2.79768 0
M  V30 2896 H 283.937 4.57458 0.554007 0
M  V30 2897 H 282.252 4.11179 0.657311 0
M  V30 2898 H 284.849 4.09471 3.43857 0
M  V30 2899 H 285.192 2.38238 3.41392 0
M  V30 2900 H 285.725 3.40475 2.05723 0
M  V30 2901 H 282.464 6.36318 1.57417 0
M  V30 2902 H 281.984 5.25937 2.88359 0
M  V30 2903 H 283.663 5.84401 2.77641 0
M  V30 2904 N 283.795 -0.628877 1.44509 0
M  V30 2905 C 285.211 -0.947305 1.28446 0
M  V30 2906 C 285.411 -2.00275 0.221872 0
M  V30 2907 O 284.467 -2.49447 -0.391471 0
M  V30 2908 C 285.78 -1.40843 2.65676 0
M  V30 2909 C 287.328 -1.52379 2.73404 0
M  V30 2910 C 287.803 -2.01875 4.11109 0
M  V30 2911 N 289.294 -2.09142 4.13296 0
M  V30 2912 C 290.029 -2.48615 5.16699 0
M  V30 2913 N 289.525 -2.87209 6.30462 0
M  V30 2914 N 291.318 -2.48768 5.04054 0
M  V30 2915 H 283.469 0.0690977 2.12288 0
M  V30 2916 H 285.732 -0.0317164 0.947469 0
M  V30 2917 H 285.438 -0.707206 3.44516 0
M  V30 2918 H 285.312 -2.37902 2.92716 0
M  V30 2919 H 287.699 -2.21598 1.9488 0
M  V30 2920 H 287.78 -0.536898 2.50102 0
M  V30 2921 H 287.424 -1.3325 4.90109 0
M  V30 2922 H 287.354 -3.0144 4.31789 0
M  V30 2923 H 289.845 -1.81991 3.31191 0
M  V30 2924 H 290.158 -3.16149 7.05174 0
M  V30 2925 H 288.503 -2.84955 6.33897 0
M  V30 2926 H 291.694 -2.18009 4.14234 0
M  V30 2927 H 291.867 -2.79207 5.84763 0
M  V30 2928 N 285.273 -1.31445 -0.869486 0
M  V30 2929 C 286.498 -1.24256 -1.66058 0
M  V30 2930 C 286.923 0.188928 -1.87149 0
M  V30 2931 O 286.281 1.13522 -1.4136 0
M  V30 2932 C 286.329 -1.9924 -3.00559 0
M  V30 2933 O 285.433 -1.33007 -3.90362 0
M  V30 2934 H 284.774 -0.428973 -0.506831 0
M  V30 2935 H 287.304 -1.73521 -1.08404 0
M  V30 2936 H 287.314 -2.08854 -3.50491 0
M  V30 2937 H 285.989 -3.03342 -2.84528 0
M  V30 2938 H 284.566 -1.31848 -3.48813 0
M  V30 2939 N 286.751 1.08385 -1.14413 0
M  V30 2940 C 287.661 2.18856 -0.844951 0
M  V30 2941 C 288.677 1.73121 0.174668 0
M  V30 2942 O 289.853 2.014 0.00312857 0
M  V30 2943 C 286.918 3.45155 -0.32696 0
M  V30 2944 C 285.979 4.05513 -1.40916 0
M  V30 2945 C 285.212 5.25784 -0.915793 0
M  V30 2946 O 285.435 5.69884 0.242651 0
M  V30 2947 O 284.369 5.77545 -1.69487 0
M  V30 2948 H 288.195 2.46919 -1.76818 0
M  V30 2949 H 285.78 1.17524 -0.922411 0
M  V30 2950 H 287.662 4.21377 -0.0440211 0
M  V30 2951 H 286.337 3.18668 0.568539 0
M  V30 2952 H 285.244 3.30879 -1.74556 0
M  V30 2953 H 286.577 4.3625 -2.27919 0
M  V30 2954 N 288.23 0.939286 1.26551 0
M  V30 2955 C 289.163 0.391702 2.24813 0
M  V30 2956 C 290.141 -0.518421 1.54114 0
M  V30 2957 O 291.325 -0.456299 1.82894 0
M  V30 2958 C 288.452 -0.437382 3.35864 0
M  V30 2959 C 287.498 0.410946 4.24516 0
M  V30 2960 S 288.331 1.83372 5.03125 0
M  V30 2961 C 289.487 1.01264 6.17654 0
M  V30 2962 H 289.72 1.22448 2.70913 0
M  V30 2963 H 287.253 0.742269 1.35387 0
M  V30 2964 H 289.211 -0.909837 4.0029 0
M  V30 2965 H 287.872 -1.24482 2.8838 0
M  V30 2966 H 287.065 -0.224191 5.03501 0
M  V30 2967 H 286.667 0.818014 3.64945 0
M  V30 2968 H 288.959 0.254023 6.77024 0
M  V30 2969 H 289.902 1.77589 6.85469 0
M  V30 2970 H 290.31 0.549532 5.61819 0
M  V30 2971 N 289.708 -1.40897 0.706093 0
M  V30 2972 C 290.948 -2.02916 0.245827 0
M  V30 2973 C 291.312 -1.54751 -1.13649 0
M  V30 2974 O 292.513 -2.08768 -1.69321 0
M  V30 2975 C 290.784 -3.56031 0.312537 0
M  V30 2976 S 292.343 -4.38741 -0.0721388 0
M  V30 2977 H 289.161 -0.704186 0.0982007 0
M  V30 2978 H 291.763 -1.72168 0.926207 0
M  V30 2979 H 290.467 -3.88579 1.32039 0
M  V30 2980 H 289.998 -3.91495 -0.386641 0
M  V30 2981 H 292.013 -4.78952 -1.29692 0
M  V30 2982 N 291.186 -0.45159 -1.50991 0
M  V30 2983 C 292.116 0.342898 -2.30969 0
M  V30 2984 C 293.097 1.00815 -1.37005 0
M  V30 2985 O 294.282 1.00907 -1.65926 0
M  V30 2986 C 291.412 1.43637 -3.16205 0
M  V30 2987 C 290.366 0.893818 -4.18563 0
M  V30 2988 C 289.692 2.08411 -4.92411 0
M  V30 2989 C 290.992 -0.0815568 -5.22236 0
M  V30 2990 H 292.686 -0.324556 -2.97636 0
M  V30 2991 H 290.232 -0.157531 -1.43136 0
M  V30 2992 H 292.185 1.9995 -3.70942 0
M  V30 2993 H 290.909 2.13232 -2.47386 0
M  V30 2994 H 289.568 0.352798 -3.64898 0
M  V30 2995 H 289.216 2.76658 -4.20082 0
M  V30 2996 H 288.916 1.72741 -5.61636 0
M  V30 2997 H 290.44 2.65251 -5.49976 0
M  V30 2998 H 291.854 0.391742 -5.7196 0
M  V30 2999 H 290.251 -0.351551 -5.99069 0
M  V30 3000 H 291.321 -1.01374 -4.74185 0
M  V30 3001 N 292.664 1.56529 -0.183458 0
M  V30 3002 C 293.91 1.97537 0.459036 0
M  V30 3003 C 294.243 1.06989 1.62071 0
M  V30 3004 O 293.518 0.11948 1.94133 0
M  V30 3005 C 293.801 3.47874 0.930368 0
M  V30 3006 C 293.654 4.492 -0.232317 0
M  V30 3007 C 294.973 4.01612 1.79989 0
M  V30 3008 H 292.092 0.718204 0.165383 0
M  V30 3009 H 294.734 1.88042 -0.272038 0
M  V30 3010 H 292.884 3.56095 1.55333 0
M  V30 3011 H 294.556 4.53027 -0.86972 0
M  V30 3012 H 292.799 4.24657 -0.885928 0
M  V30 3013 H 293.47 5.51823 0.139796 0
M  V30 3014 H 295.946 3.96097 1.27461 0
M  V30 3015 H 294.822 5.07195 2.09867 0
M  V30 3016 H 295.083 3.46163 2.74998 0
M  V30 3017 N 294.142 -0.090211 1.57342 0
M  V30 3018 C 295.075 -1.14035 1.97664 0
M  V30 3019 C 296.053 -1.38576 0.850616 0
M  V30 3020 O 297.237 -1.52255 1.11134 0
M  V30 3021 C 294.364 -2.48854 2.2976 0
M  V30 3022 C 293.41 -2.40564 3.52181 0
M  V30 3023 S 294.243 -1.81745 5.03715 0
M  V30 3024 C 295.399 -3.18178 5.38993 0
M  V30 3025 H 295.632 -0.796636 2.86428 0
M  V30 3026 H 293.165 -0.298072 1.51496 0
M  V30 3027 H 295.123 -3.26413 2.48927 0
M  V30 3028 H 293.784 -2.80393 1.41558 0
M  V30 3029 H 292.977 -3.39942 3.72096 0
M  V30 3030 H 292.579 -1.71135 3.32549 0
M  V30 3031 H 294.871 -4.14461 5.35937 0
M  V30 3032 H 295.814 -3.03062 6.39968 0
M  V30 3033 H 296.222 -3.17935 4.66452 0
M  V30 3034 N 295.62 -1.53406 -0.361157 0
M  V30 3035 C 296.53 -1.83122 -1.4664 0
M  V30 3036 C 297.546 -0.719943 -1.58407 0
M  V30 3037 O 298.722 -1.01046 -1.74218 0
M  V30 3038 C 295.787 -2.01891 -2.81853 0
M  V30 3039 C 294.848 -3.25784 -2.79577 0
M  V30 3040 C 294.081 -3.43648 -4.0834 0
M  V30 3041 O 294.304 -2.65714 -5.0473 0
M  V30 3042 O 293.238 -4.37018 -4.13883 0
M  V30 3043 H 297.064 -2.7703 -1.24451 0
M  V30 3044 H 294.649 -1.38841 -0.551678 0
M  V30 3045 H 296.531 -2.15782 -3.61962 0
M  V30 3046 H 295.206 -1.11173 -3.0401 0
M  V30 3047 H 294.113 -3.17312 -1.98151 0
M  V30 3048 H 295.446 -4.16439 -2.62373 0
M  V30 3049 N 297.098 0.621204 -1.44841 0
M  V30 3050 C 298.03 1.74615 -1.48466 0
M  V30 3051 C 299.043 1.58377 -0.37691 0
M  V30 3052 O 300.232 1.66508 -0.643215 0
M  V30 3053 C 297.332 3.12459 -1.31236 0
M  V30 3054 C 296.505 3.55064 -2.55438 0
M  V30 3055 C 295.564 4.71821 -2.32963 0
M  V30 3056 O 294.59 4.79628 -3.06505 0
M  V30 3057 N 295.792 5.64186 -1.36654 0
M  V30 3058 H 298.557 1.71973 -2.45449 0
M  V30 3059 H 296.118 0.806077 -1.40407 0
M  V30 3060 H 298.11 3.88302 -1.14032 0
M  V30 3061 H 296.68 3.09686 -0.4258 0
M  V30 3062 H 295.9 2.69324 -2.87851 0
M  V30 3063 H 297.188 3.80284 -3.38026 0
M  V30 3064 H 296.586 5.6058 -0.759344 0
M  V30 3065 H 295.143 6.39618 -1.25425 0
M  V30 3066 N 298.576 1.31904 0.862503 0
M  V30 3067 C 299.509 1.14514 1.97388 0
M  V30 3068 C 300.487 0.0466493 1.62533 0
M  V30 3069 O 301.671 0.204484 1.87388 0
M  V30 3070 C 298.798 0.751347 3.30261 0
M  V30 3071 C 297.844 1.85395 3.84098 0
M  V30 3072 S 298.677 3.46081 4.08642 0
M  V30 3073 C 299.833 3.08655 5.44502 0
M  V30 3074 H 300.066 2.08597 2.11836 0
M  V30 3075 H 297.599 1.16475 1.01356 0
M  V30 3076 H 299.557 0.530901 4.07052 0
M  V30 3077 H 298.218 -0.170493 3.13637 0
M  V30 3078 H 297.411 1.53122 4.80177 0
M  V30 3079 H 297.013 2.02984 3.14123 0
M  V30 3080 H 299.305 2.58012 6.26447 0
M  V30 3081 H 300.248 4.03726 5.81731 0
M  V30 3082 H 300.656 2.45891 5.08132 0
M  V30 3083 N 300.054 -1.07777 1.14986 0
M  V30 3084 C 301.302 -1.79934 0.920235 0
M  V30 3085 C 301.623 -1.86955 -0.554336 0
M  V30 3086 O 300.893 -1.36731 -1.40291 0
M  V30 3087 H 299.473 -0.666424 0.337473 0
M  V30 3088 H 302.135 -1.3027 1.44968 0
M  V30 3089 H 301.231 -2.82539 1.32583 0
M  V30 3090 N 301.532 -0.945985 -1.26051 0
M  V30 3091 C 302.462 -0.477172 -2.28572 0
M  V30 3092 C 303.443 0.472032 -1.63419 0
M  V30 3093 O 304.628 0.372853 -1.90587 0
M  V30 3094 C 301.758 0.253975 -3.4637 0
M  V30 3095 C 300.712 -0.609135 -4.23643 0
M  V30 3096 C 300.038 0.252252 -5.34105 0
M  V30 3097 C 301.338 -1.8829 -4.8718 0
M  V30 3098 H 303.032 -1.33402 -2.68038 0
M  V30 3099 H 300.578 -0.642904 -1.28852 0
M  V30 3100 H 302.531 0.593016 -4.17207 0
M  V30 3101 H 301.255 1.145 -3.05871 0
M  V30 3102 H 299.914 -0.931138 -3.54578 0
M  V30 3103 H 299.562 1.14278 -4.89846 0
M  V30 3104 H 299.262 -0.32188 -5.86718 0
M  V30 3105 H 300.786 0.586454 -6.07777 0
M  V30 3106 H 302.2 -1.61081 -5.50205 0
M  V30 3107 H 300.597 -2.40199 -5.49931 0
M  V30 3108 H 301.667 -2.59134 -4.09851 0
M  V30 3109 N 303.011 1.40521 -0.713556 0
M  V30 3110 C 304.257 2.01221 -0.252564 0
M  V30 3111 C 304.59 1.56444 1.1506 0
M  V30 3112 O 303.865 0.783597 1.78017 0
M  V30 3113 C 304.148 3.58582 -0.330332 0
M  V30 3114 C 304.001 4.13437 -1.77173 0
M  V30 3115 C 305.32 4.39079 0.299641 0
M  V30 3116 H 302.439 0.731077 -0.0932471 0
M  V30 3117 H 305.081 1.67026 -0.905673 0
M  V30 3118 H 303.231 3.87844 0.225737 0
M  V30 3119 H 304.903 3.9498 -2.38303 0
M  V30 3120 H 303.146 3.67801 -2.3001 0
M  V30 3121 H 303.817 5.22597 -1.77755 0
M  V30 3122 H 306.293 4.15735 -0.174139 0
M  V30 3123 H 305.169 5.4848 0.214771 0
M  V30 3124 H 305.43 4.19915 1.38288 0
M  V30 3125 N 304.489 0.459591 1.5075 0
M  V30 3126 C 305.735 -0.0994966 2.02556 0
M  V30 3127 C 306.068 -1.40399 1.3417 0
M  V30 3128 O 305.343 -1.88892 0.463683 0
M  V30 3129 C 305.626 -0.295242 3.58888 0
M  V30 3130 C 305.479 1.02947 4.37861 0
M  V30 3131 C 306.798 -1.05502 4.27267 0
M  V30 3132 H 303.917 -0.034686 0.736183 0
M  V30 3133 H 306.559 0.602938 1.8018 0
M  V30 3134 H 304.709 -0.893563 3.78084 0
M  V30 3135 H 306.381 1.66348 4.30263 0
M  V30 3136 H 304.624 1.62885 4.02058 0
M  V30 3137 H 305.295 0.846281 5.45474 0
M  V30 3138 H 307.771 -0.547993 4.12476 0
M  V30 3139 H 306.647 -1.16077 5.36486 0
M  V30 3140 H 306.908 -2.08875 3.89645 0
M  V30 3141 N 305.967 -1.56429 0.191757 0
M  V30 3142 C 306.877 -2.22541 -0.742481 0
M  V30 3143 C 307.893 -1.22342 -1.23727 0
M  V30 3144 O 309.069 -1.55069 -1.28513 0
M  V30 3145 C 306.134 -2.8692 -1.94623 0
M  V30 3146 C 305.195 -4.02378 -1.49633 0
M  V30 3147 C 304.428 -4.63678 -2.6427 0
M  V30 3148 O 304.651 -4.23895 -3.81666 0
M  V30 3149 O 303.585 -5.53202 -2.37174 0
M  V30 3150 H 307.411 -3.02977 -0.209462 0
M  V30 3151 H 304.996 -1.49353 -0.0373832 0
M  V30 3152 H 306.878 -3.27663 -2.64982 0
M  V30 3153 H 305.553 -2.09466 -2.46791 0
M  V30 3154 H 304.46 -3.66265 -0.761636 0
M  V30 3155 H 305.793 -4.81487 -1.02134 0
M  V30 3156 N 307.445 0.0818655 -1.57387 0
M  V30 3157 C 308.408 1.08265 -2.02018 0
M  V30 3158 C 309.408 1.32183 -0.915664 0
M  V30 3159 O 310.598 1.28073 -1.18081 0
M  V30 3160 C 307.73 2.42871 -2.39221 0
M  V30 3161 H 308.923 0.698204 -2.91659 0
M  V30 3162 H 306.476 0.327303 -1.52835 0
M  V30 3163 H 307.211 2.86167 -1.52575 0
M  V30 3164 H 306.996 2.26855 -3.19811 0
M  V30 3165 H 308.486 3.14826 -2.74362 0
M  V30 3166 N 308.923 1.53595 0.353017 0
M  V30 3167 C 309.873 1.77299 1.43349 0
M  V30 3168 C 310.857 0.627884 1.48143 0
M  V30 3169 O 312.049 0.88697 1.53173 0
M  V30 3170 C 309.178 1.97757 2.80619 0
M  V30 3171 C 308.264 3.18305 2.80254 0
M  V30 3172 N 308.655 4.39967 2.49526 0
M  V30 3173 C 306.953 3.19283 3.11407 0
M  V30 3174 C 307.654 5.21772 2.57156 0
M  V30 3175 N 306.63 4.58269 2.92388 0
M  V30 3176 H 310.432 2.68963 1.18474 0
M  V30 3177 H 307.946 1.52391 0.561306 0
M  V30 3178 H 309.943 2.1287 3.58458 0
M  V30 3179 H 308.603 1.07329 3.06448 0
M  V30 3180 H 309.614 4.67482 2.22893 0
M  V30 3181 H 306.291 2.3879 3.4247 0
M  V30 3182 H 307.681 6.2885 2.36638 0
M  V30 3183 N 310.401 -0.613514 1.45168 0
M  V30 3184 C 311.351 -1.71871 1.49815 0
M  V30 3185 C 312.335 -1.56774 0.362021 0
M  V30 3186 O 313.527 -1.66212 0.608493 0
M  V30 3187 C 310.656 -3.1061 1.46207 0
M  V30 3188 C 309.742 -3.31114 2.64999 0
M  V30 3189 N 310.133 -3.21904 3.90143 0
M  V30 3190 C 308.431 -3.61966 2.6057 0
M  V30 3191 C 309.132 -3.43577 4.69393 0
M  V30 3192 N 308.108 -3.67287 4.00751 0
M  V30 3193 H 311.91 -1.63235 2.444 0
M  V30 3194 H 309.424 -0.816577 1.40377 0
M  V30 3195 H 311.421 -3.8989 1.4762 0
M  V30 3196 H 310.081 -3.20399 0.52673 0
M  V30 3197 H 311.092 -3.00436 4.21852 0
M  V30 3198 H 307.769 -3.78629 1.75916 0
M  V30 3199 H 309.159 -3.41901 5.78406 0
M  V30 3200 N 311.879 -1.3236 -0.855495 0
M  V30 3201 C 312.829 -1.17809 -1.95205 0
M  V30 3202 C 313.813 -0.0852319 -1.60674 0
M  V30 3203 O 315.005 -0.311651 -1.74235 0
M  V30 3204 C 312.134 -0.902437 -3.31226 0
M  V30 3205 C 311.22 -2.03695 -3.7198 0
M  V30 3206 N 311.611 -3.28544 -3.84568 0
M  V30 3207 C 309.909 -1.93993 -4.016 0
M  V30 3208 C 310.61 -4.02847 -4.19629 0
M  V30 3209 N 309.586 -3.31138 -4.31102 0
M  V30 3210 H 313.388 -2.12462 -2.0307 0
M  V30 3211 H 310.902 -1.24127 -1.0472 0
M  V30 3212 H 312.899 -0.77915 -4.09554 0
M  V30 3213 H 311.559 0.0357267 -3.2468 0
M  V30 3214 H 312.57 -3.6349 -3.68911 0
M  V30 3215 H 309.247 -1.07733 -4.03361 0
M  V30 3216 H 310.637 -5.10506 -4.36845 0
M  V30 3217 N 313.357 1.07166 -1.15556 0
M  V30 3218 C 314.267 2.17947 -0.868116 0
M  V30 3219 C 315.283 1.73297 0.156297 0
M  V30 3220 O 316.459 2.01392 -0.0182327 0
M  V30 3221 C 313.524 3.44789 -0.36355 0
M  V30 3222 C 312.585 4.03996 -1.45209 0
M  V30 3223 C 311.818 5.24783 -0.971508 0
M  V30 3224 O 312.041 5.70109 0.182194 0
M  V30 3225 O 310.975 5.75715 -1.75603 0
M  V30 3226 H 314.801 2.4503 -1.79427 0
M  V30 3227 H 312.386 1.16539 -0.934824 0
M  V30 3228 H 314.268 4.21307 -0.0887113 0
M  V30 3229 H 312.943 3.19253 0.534708 0
M  V30 3230 H 311.85 3.29009 -1.78056 0
M  V30 3231 H 313.183 4.33808 -2.32533 0
M  V30 3232 N 314.835 0.952656 1.25548 0
M  V30 3233 C 316.081 0.607272 1.93494 0
M  V30 3234 C 316.414 -0.853245 1.74452 0
M  V30 3235 O 315.689 -1.61194 1.08843 0
M  V30 3236 C 315.972 0.96435 3.46947 0
M  V30 3237 C 315.825 2.48045 3.75225 0
M  V30 3238 C 317.144 0.487987 4.37386 0
M  V30 3239 H 314.263 0.222096 0.702739 0
M  V30 3240 H 316.905 1.18895 1.48203 0
M  V30 3241 H 315.055 0.469361 3.85654 0
M  V30 3242 H 316.727 3.04905 3.46166 0
M  V30 3243 H 314.97 2.919 3.209 0
M  V30 3244 H 315.641 2.6808 4.82532 0
M  V30 3245 H 318.117 0.912558 4.0597 0
M  V30 3246 H 316.993 0.766547 5.43521 0
M  V30 3247 H 317.254 -0.612063 4.37843 0
M  V30 3248 N 316.313 -1.40141 0.720998 0
M  V30 3249 C 317.276 -2.29058 0.0805834 0
M  V30 3250 C 318.276 -1.45632 -0.681758 0
M  V30 3251 O 319.466 -1.6648 -0.512856 0
M  V30 3252 C 316.598 -3.28925 -0.895593 0
M  V30 3253 H 317.791 -2.87191 0.863793 0
M  V30 3254 H 315.344 -1.48553 0.485975 0
M  V30 3255 H 316.079 -2.75822 -1.70566 0
M  V30 3256 H 315.864 -3.90519 -0.351766 0
M  V30 3257 H 317.354 -3.95494 -1.34069 0
M  V30 3258 N 317.792 -0.46758 -1.50504 0
M  V30 3259 C 319.02 0.0864133 -2.06719 0
M  V30 3260 C 319.435 1.33819 -1.33184 0
M  V30 3261 O 318.792 1.78061 -0.400083 0
M  V30 3262 C 318.843 0.378079 -3.59517 0
M  V30 3263 O 318.564 -0.824044 -4.3028 0
M  V30 3264 C 320.065 0.979426 -4.32345 0
M  V30 3265 H 317.285 -0.00551697 -0.670977 0
M  V30 3266 H 319.829 -0.655354 -1.93715 0
M  V30 3267 H 317.984 1.06977 -3.72337 0
M  V30 3268 H 318.398 -0.566518 -5.21432 0
M  V30 3269 H 319.872 1.1333 -5.40241 0
M  V30 3270 H 320.349 1.9686 -3.9261 0
M  V30 3271 H 320.955 0.326216 -4.24047 0
M  V30 3272 N 319.27 1.56325 -0.20005 0
M  V30 3273 C 320.233 2.18084 0.705132 0
M  V30 3274 C 321.233 1.13666 1.1374 0
M  V30 3275 O 322.423 1.39023 1.04968 0
M  V30 3276 C 319.555 2.78689 1.96329 0
M  V30 3277 H 320.748 2.99435 0.167023 0
M  V30 3278 H 318.301 1.56221 0.0495725 0
M  V30 3279 H 319.036 2.0115 2.5438 0
M  V30 3280 H 318.821 3.55133 1.66202 0
M  V30 3281 H 320.311 3.26096 2.60866 0
M  V30 3282 N 320.748 -0.0735177 1.57428 0
M  V30 3283 C 321.996 -0.771472 1.86796 0
M  V30 3284 C 322.317 -1.78201 0.791804 0
M  V30 3285 O 321.587 -1.95074 -0.179718 0
M  V30 3286 H 320.167 -0.28791 0.689287 0
M  V30 3287 H 322.829 -0.0500161 1.94836 0
M  V30 3288 H 321.925 -1.28874 2.8425 0
M  V30 3289 N 322.226 -1.5378 -0.344866 0
M  V30 3290 C 323.158 -1.77988 -1.44406 0
M  V30 3291 C 324.171 -0.661138 -1.48771 0
M  V30 3292 O 325.36 -0.937842 -1.51877 0
M  V30 3293 C 322.46 -1.86345 -2.8307 0
M  V30 3294 C 321.633 -3.16256 -3.0216 0
M  V30 3295 C 320.692 -3.15588 -4.21059 0
M  V30 3296 O 319.718 -3.89314 -4.15239 0
M  V30 3297 N 320.92 -2.37864 -5.29529 0
M  V30 3298 H 323.685 -2.72839 -1.24012 0
M  V30 3299 H 321.246 -1.52814 -0.534737 0
M  V30 3300 H 323.238 -1.83351 -3.60783 0
M  V30 3301 H 321.808 -0.986858 -2.96614 0
M  V30 3302 H 321.028 -3.32385 -2.11929 0
M  V30 3303 H 322.316 -4.0207 -3.11797 0
M  V30 3304 H 321.714 -1.77514 -5.37127 0
M  V30 3305 H 320.271 -2.40668 -6.05741 0
M  V30 3306 N 323.704 0.605807 -1.45491 0
M  V30 3307 C 324.652 1.73754 -1.54636 0
M  V30 3308 C 325.646 1.64207 -0.416219 0
M  V30 3309 O 326.852 1.69979 -0.592199 0
M  V30 3310 H 323.227 0.574073 -0.485741 0
M  V30 3311 H 325.198 1.63169 -2.49837 0
M  V30 3312 C 323.947 3.12135 -1.53189 0
M  V30 3313 H 323.27 3.20141 -2.39478 0
M  V30 3314 H 324.71 3.91147 -1.63645 0
M  V30 3315 C 323.169 3.35921 -0.256616 0
M  V30 3316 O 323.699 3.96194 0.662798 0
M  V30 3317 N 321.905 2.90204 -0.151751 0
M  V30 3318 H 321.452 2.41336 -0.90081 0
M  V30 3319 H 321.41 3.06492 0.700699 0
M  V30 3320 N 325.182 1.32811 0.848464 0
M  V30 3321 C 326.092 1.24278 1.98978 0
M  V30 3322 C 327.108 0.155176 1.73307 0
M  V30 3323 O 328.284 0.376999 1.9784 0
M  V30 3324 C 325.349 0.972444 3.32783 0
M  V30 3325 C 324.41 2.14911 3.71634 0
M  V30 3326 C 323.643 1.89157 4.99054 0
M  V30 3327 O 323.866 0.837165 5.64223 0
M  V30 3328 O 322.8 2.75433 5.35183 0
M  V30 3329 H 326.626 2.20238 2.09115 0
M  V30 3330 H 324.211 1.12762 0.980052 0
M  V30 3331 H 326.093 0.838432 4.12975 0
M  V30 3332 H 324.768 0.043051 3.23671 0
M  V30 3333 H 323.675 2.33862 2.91992 0
M  V30 3334 H 325.008 3.06151 3.85399 0
M  V30 3335 N 326.66 -1.06551 1.16123 0
M  V30 3336 C 327.906 -1.79567 0.94252 0
M  V30 3337 C 328.239 -1.86869 -0.528547 0
M  V30 3338 O 327.514 -1.35838 -1.39206 0
M  V30 3339 C 327.797 -3.24195 1.56747 0
M  V30 3340 C 327.65 -3.24989 3.10969 0
M  V30 3341 C 328.969 -4.21678 1.25998 0
M  V30 3342 H 326.088 -0.651883 0.343828 0
M  V30 3343 H 328.73 -1.2463 1.43413 0
M  V30 3344 H 326.88 -3.71107 1.14942 0
M  V30 3345 H 328.552 -2.86258 3.61737 0
M  V30 3346 H 326.795 -2.63716 3.44436 0
M  V30 3347 H 327.466 -4.27005 3.49815 0
M  V30 3348 H 329.942 -3.83196 1.62174 0
M  V30 3349 H 328.818 -5.21146 1.7233 0
M  V30 3350 H 329.079 -4.4174 0.178367 0
M  V30 3351 N 328.138 -0.959301 -1.25041 0
M  V30 3352 C 329.101 -0.487677 -2.23952 0
M  V30 3353 C 330.101 0.41119 -1.55454 0
M  V30 3354 O 331.291 0.207825 -1.72956 0
M  V30 3355 C 328.423 0.294807 -3.39623 0
M  V30 3356 H 329.616 -1.36198 -2.67189 0
M  V30 3357 H 327.169 -0.743042 -1.37508 0
M  V30 3358 H 327.904 1.18658 -3.01813 0
M  V30 3359 H 327.689 -0.35012 -3.90534 0
M  V30 3360 H 329.179 0.614089 -4.1306 0
M  V30 3361 N 329.616 1.39756 -0.72842 0
M  V30 3362 C 330.844 2.04948 -0.283528 0
M  V30 3363 C 331.259 1.54908 1.0793 0
M  V30 3364 O 330.616 0.711135 1.68075 0
M  V30 3365 C 330.667 3.60498 -0.268957 0
M  V30 3366 O 330.388 4.08695 -1.57798 0
M  V30 3367 C 331.889 4.4288 0.192912 0
M  V30 3368 H 329.109 0.659243 -0.125056 0
M  V30 3369 H 331.653 1.78927 -0.990226 0
M  V30 3370 H 329.808 3.85444 0.388801 0
M  V30 3371 H 330.222 5.02977 -1.48709 0
M  V30 3372 H 331.696 5.51791 0.151952 0
M  V30 3373 H 332.173 4.21418 1.23708 0
M  V30 3374 H 332.779 4.23069 -0.435039 0
M  V30 3375 N 331.094 0.475555 1.50254 0
M  V30 3376 C 332.51 0.12997 1.5907 0
M  V30 3377 C 332.71 -1.36385 1.48328 0
M  V30 3378 O 331.766 -2.13754 1.34407 0
M  V30 3379 C 333.079 0.684139 2.92814 0
M  V30 3380 C 334.627 0.647965 3.0622 0
M  V30 3381 C 335.102 1.17975 4.42545 0
M  V30 3382 N 336.593 1.13936 4.48969 0
M  V30 3383 C 337.328 1.52129 5.52851 0
M  V30 3384 N 336.824 1.97793 6.63965 0
M  V30 3385 N 338.617 1.43704 5.4342 0
M  V30 3386 H 330.768 1.44706 1.55479 0
M  V30 3387 H 333.031 0.598691 0.735033 0
M  V30 3388 H 332.737 1.73079 3.06164 0
M  V30 3389 H 332.611 0.130204 3.76975 0
M  V30 3390 H 334.998 -0.38979 2.92514 0
M  V30 3391 H 335.079 1.23876 2.23805 0
M  V30 3392 H 334.723 2.21616 4.57 0
M  V30 3393 H 334.653 0.565138 5.23559 0
M  V30 3394 H 337.144 0.804488 3.69238 0
M  V30 3395 H 337.457 2.25072 7.39299 0
M  V30 3396 H 335.802 2.01749 6.65073 0
M  V30 3397 H 338.993 1.07867 4.55502 0
M  V30 3398 H 339.166 1.73794 6.24259 0
M  V30 3399 N 332.573 -1.56217 0.208337 0
M  V30 3400 C 333.82 -1.97949 -0.42692 0
M  V30 3401 C 334.148 -1.09562 -1.60706 0
M  V30 3402 O 333.403 -0.137616 -1.95216 0
M  V30 3403 C 333.702 -3.45441 -0.916797 0
M  V30 3404 C 333.368 -4.50646 0.151391 0
M  V30 3405 C 332.03 -4.79139 0.444867 0
M  V30 3406 C 334.382 -5.13811 0.874492 0
M  V30 3407 C 331.71 -5.68084 1.46619 0
M  V30 3408 C 334.062 -6.03861 1.88506 0
M  V30 3409 C 332.726 -6.30704 2.18559 0
M  V30 3410 H 331.996 -0.724345 -0.156221 0
M  V30 3411 H 334.643 -1.89006 0.308084 0
M  V30 3412 H 332.948 -3.51521 -1.73032 0
M  V30 3413 H 334.645 -3.75094 -1.41794 0
M  V30 3414 H 331.235 -4.28511 -0.0875068 0
M  V30 3415 H 335.419 -4.91879 0.660996 0
M  V30 3416 H 330.675 -5.87151 1.7048 0
M  V30 3417 H 334.849 -6.51861 2.45051 0
M  V30 3418 H 332.476 -6.99424 2.97843 0
M  V30 3419 N 334.051 0.0651679 -1.57465 0
M  V30 3420 C 334.999 1.09542 -2.05191 0
M  V30 3421 C 335.993 1.39675 -0.958509 0
M  V30 3422 O 337.199 1.39003 -1.14359 0
M  V30 3423 H 333.574 0.370623 -0.654326 0
M  V30 3424 H 335.545 0.666802 -2.90854 0
M  V30 3425 C 334.294 2.39881 -2.51699 0
M  V30 3426 H 333.617 2.17547 -3.3543 0
M  V30 3427 H 335.057 3.104 -2.88839 0
M  V30 3428 C 333.516 3.0631 -1.40271 0
M  V30 3429 O 334.046 3.94664 -0.748523 0
M  V30 3430 N 332.252 2.67041 -1.14618 0
M  V30 3431 H 331.799 1.95281 -1.67997 0
M  V30 3432 H 331.757 3.1181 -0.402688 0
M  V30 3433 N 335.529 1.53961 0.336706 0
M  V30 3434 C 336.757 1.75483 1.09605 0
M  V30 3435 C 337.172 0.4972 1.82136 0
M  V30 3436 O 336.529 -0.53149 1.74589 0
M  V30 3437 C 336.58 2.93943 2.10428 0
M  V30 3438 O 336.301 4.14842 1.40846 0
M  V30 3439 C 337.802 3.27571 2.98684 0
M  V30 3440 H 335.022 0.586166 0.326574 0
M  V30 3441 H 337.566 2.00808 0.38683 0
M  V30 3442 H 335.721 2.70929 2.76905 0
M  V30 3443 H 336.135 4.81383 2.08255 0
M  V30 3444 H 337.609 4.13791 3.6535 0
M  V30 3445 H 338.086 2.44168 3.65074 0
M  V30 3446 H 338.692 3.52615 2.37787 0
M  V30 3447 N 337.007 -0.598083 1.45811 0
M  V30 3448 C 337.94 -1.7223 1.49706 0
M  V30 3449 C 338.918 -1.58732 0.352535 0
M  V30 3450 O 340.102 -1.80162 0.554438 0
M  V30 3451 C 337.229 -3.10148 1.3611 0
M  V30 3452 C 336.275 -3.42209 2.54549 0
M  V30 3453 S 337.108 -3.35989 4.16979 0
M  V30 3454 C 338.264 -4.76471 4.05865 0
M  V30 3455 H 338.497 -1.68665 2.44826 0
M  V30 3456 H 336.03 -0.775541 1.33509 0
M  V30 3457 H 337.988 -3.8972 1.28953 0
M  V30 3458 H 336.649 -3.11219 0.424451 0
M  V30 3459 H 335.842 -4.42652 2.40988 0
M  V30 3460 H 335.444 -2.70173 2.58617 0
M  V30 3461 H 337.736 -5.665 3.71596 0
M  V30 3462 H 338.679 -4.95089 5.06253 0
M  V30 3463 H 339.087 -4.52599 3.37364 0
M  V30 3464 N 338.485 -1.33259 -0.841409 0
M  V30 3465 C 339.713 -1.27605 -1.62864 0
M  V30 3466 C 340.128 0.153507 -1.88175 0
M  V30 3467 O 339.485 1.09485 -1.46011 0
M  V30 3468 C 339.536 -2.04596 -2.98031 0
M  V30 3469 O 339.257 -3.41975 -2.73834 0
M  V30 3470 C 340.758 -2.06122 -3.92465 0
M  V30 3471 H 337.978 -0.439718 -0.506842 0
M  V30 3472 H 340.522 -1.75591 -1.04824 0
M  V30 3473 H 338.677 -1.60299 -3.5268 0
M  V30 3474 H 339.091 -3.81549 -3.59889 0
M  V30 3475 H 340.565 -2.64451 -4.84531 0
M  V30 3476 H 341.042 -1.05083 -4.26444 0
M  V30 3477 H 341.648 -2.50427 -3.43753 0
M  V30 3478 N 339.963 1.05934 -1.16686 0
M  V30 3479 C 340.91 2.13499 -0.876748 0
M  V30 3480 C 341.88 1.65162 0.176299 0
M  V30 3481 O 343.065 1.90757 0.0407143 0
M  V30 3482 C 340.205 3.42912 -0.387967 0
M  V30 3483 C 339.318 4.04964 -1.50426 0
M  V30 3484 C 338.453 5.22266 -0.970125 0
M  V30 3485 C 337.492 5.76309 -2.06238 0
M  V30 3486 N 336.629 6.84922 -1.54356 0
M  V30 3487 H 341.469 2.37654 -1.7979 0
M  V30 3488 H 339.006 1.16598 -0.896843 0
M  V30 3489 H 340.964 4.17111 -0.086186 0
M  V30 3490 H 339.594 3.18963 0.496235 0
M  V30 3491 H 338.646 3.28277 -1.92193 0
M  V30 3492 H 339.958 4.41122 -2.32836 0
M  V30 3493 H 339.112 6.03506 -0.621743 0
M  V30 3494 H 337.851 4.87564 -0.115377 0
M  V30 3495 H 336.856 4.93704 -2.41942 0
M  V30 3496 H 338.081 6.13062 -2.92115 0
M  V30 3497 H 336.027 6.52131 -0.711406 0
M  V30 3498 H 335.944 7.20043 -2.30379 0
M  V30 3499 H 337.212 7.69832 -1.22387 0
M  V30 3500 N 341.441 0.965919 1.2453 0
M  V30 3501 C 342.388 0.49402 2.25451 0
M  V30 3502 C 343.358 -0.45948 1.59618 0
M  V30 3503 O 344.543 -0.370238 1.87173 0
M  V30 3504 C 341.683 -0.211359 3.44452 0
M  V30 3505 C 340.796 0.7807 4.24887 0
M  V30 3506 C 339.931 0.0516105 5.31175 0
M  V30 3507 C 338.97 1.03385 6.03306 0
M  V30 3508 N 338.107 0.334887 7.01301 0
M  V30 3509 H 342.947 1.35946 2.65184 0
M  V30 3510 H 340.484 0.681515 1.3036 0
M  V30 3511 H 342.442 -0.637 4.12308 0
M  V30 3512 H 341.072 -1.04077 3.05562 0
M  V30 3513 H 340.124 1.32479 3.56586 0
M  V30 3514 H 341.436 1.52978 4.74762 0
M  V30 3515 H 340.59 -0.432114 6.05159 0
M  V30 3516 H 339.329 -0.730179 4.82203 0
M  V30 3517 H 338.334 1.52847 5.28127 0
M  V30 3518 H 339.559 1.81606 6.54367 0
M  V30 3519 H 337.505 -0.427959 6.54603 0
M  V30 3520 H 337.422 1.02287 7.49048 0
M  V30 3521 H 338.69 -0.126928 7.79397 0
M  V30 3522 N 342.919 -1.39368 0.735821 0
M  V30 3523 C 343.882 -2.2896 0.104874 0
M  V30 3524 C 344.882 -1.46347 -0.666274 0
M  V30 3525 O 346.072 -1.67014 -0.49517 0
M  V30 3526 C 343.204 -3.29857 -0.860656 0
M  V30 3527 H 344.397 -2.86259 0.894205 0
M  V30 3528 H 341.95 -1.48029 0.501704 0
M  V30 3529 H 342.685 -2.77615 -1.67631 0
M  V30 3530 H 342.47 -3.9087 -0.310327 0
M  V30 3531 H 343.96 -3.96893 -1.29867 0
M  V30 3532 N 344.397 -0.483516 -1.5 0
M  V30 3533 C 345.674 0.129337 -1.95172 0
M  V30 3534 C 346.054 1.55802 -1.4244 0
M  V30 3535 O 345.402 2.19625 -0.630649 0
M  V30 3536 C 345.612 0.0599251 -3.48949 0
M  V30 3537 C 346.96 0.242617 -4.23906 0
M  V30 3538 O 347.984 0.135933 -3.55941 0
M  V30 3539 O 346.843 0.459454 -5.44565 0
M  V30 3540 H 343.937 0.104887 -0.820322 0
M  V30 3541 H 346.483 -0.544807 -1.60717 0
M  V30 3542 H 345.255 -0.937079 -3.79914 0
M  V30 3543 H 344.878 0.774984 -3.89974 0
M  V30 3544 N 345.875 1.56104 -0.216619 0
M  V30 3545 C 346.785 2.23694 0.706982 0
M  V30 3546 C 347.801 1.24295 1.21765 0
M  V30 3547 O 348.977 1.57094 1.2603 0
M  V30 3548 C 346.042 2.8998 1.90033 0
M  V30 3549 C 345.103 4.04708 1.43213 0
M  V30 3550 C 344.336 4.67824 2.56859 0
M  V30 3551 O 344.559 4.29913 3.74874 0
M  V30 3552 O 343.493 5.56905 2.28343 0
M  V30 3553 H 347.319 3.03272 0.161235 0
M  V30 3554 H 344.904 1.49394 0.0136177 0
M  V30 3555 H 346.786 3.31837 2.59735 0
M  V30 3556 H 345.461 2.13365 2.43428 0
M  V30 3557 H 344.368 3.6743 0.70327 0
M  V30 3558 H 345.701 4.83051 0.944615 0
M  V30 3559 N 347.353 -0.0568162 1.57498 0
M  V30 3560 C 348.602 -0.752001 1.87157 0
M  V30 3561 C 348.915 -1.77978 0.811375 0
M  V30 3562 O 350.121 -2.52559 0.996293 0
M  V30 3563 C 348.577 -1.38844 3.3204 0
M  V30 3564 C 348.185 -0.398456 4.46225 0
M  V30 3565 C 349.929 -2.06512 3.70882 0
M  V30 3566 C 347.836 -1.04166 5.82154 0
M  V30 3567 H 346.766 -0.28461 0.698222 0
M  V30 3568 H 349.417 -0.00561272 1.83499 0
M  V30 3569 H 347.799 -2.1836 3.30356 0
M  V30 3570 H 348.973 0.367977 4.59328 0
M  V30 3571 H 347.288 0.174592 4.16034 0
M  V30 3572 H 349.885 -2.55437 4.6974 0
M  V30 3573 H 350.228 -2.87117 3.01445 0
M  V30 3574 H 350.761 -1.33808 3.7462 0
M  V30 3575 H 347.5 -0.275614 6.5492 0
M  V30 3576 H 347.02 -1.7786 5.72823 0
M  V30 3577 H 348.699 -1.55715 6.27982 0
M  V30 3578 N 348.832 -1.54138 -0.328536 0
M  V30 3579 C 349.764 -1.79509 -1.4251 0
M  V30 3580 C 350.777 -0.67688 -1.48061 0
M  V30 3581 O 351.966 -0.953898 -1.50874 0
M  V30 3582 C 349.066 -1.89337 -2.81078 0
M  V30 3583 C 348.239 -3.19443 -2.98789 0
M  V30 3584 C 347.298 -3.20036 -4.17688 0
M  V30 3585 O 346.324 -3.93697 -4.11086 0
M  V30 3586 N 347.526 -2.43467 -5.26976 0
M  V30 3587 H 350.291 -2.74139 -1.21111 0
M  V30 3588 H 347.852 -1.53373 -0.518499 0
M  V30 3589 H 349.844 -1.87167 -3.58818 0
M  V30 3590 H 348.414 -1.01826 -2.95551 0
M  V30 3591 H 347.634 -3.34614 -2.08391 0
M  V30 3592 H 348.922 -4.05354 -3.07515 0
M  V30 3593 H 348.32 -1.83201 -5.35214 0
M  V30 3594 H 346.877 -2.4708 -6.03154 0
M  V30 3595 N 350.31 0.590341 -1.46126 0
M  V30 3596 C 351.559 1.34499 -1.50309 0
M  V30 3597 C 351.872 1.94977 -0.156021 0
M  V30 3598 O 353.078 2.71395 -0.0756037 0
M  V30 3599 C 351.534 2.43723 -2.64815 0
M  V30 3600 C 351.142 1.89582 -4.0591 0
M  V30 3601 C 352.886 3.20579 -2.78262 0
M  V30 3602 C 350.793 2.9639 -5.11769 0
M  V30 3603 H 349.723 0.505593 -0.559368 0
M  V30 3604 H 352.374 0.630848 -1.72315 0
M  V30 3605 H 350.756 3.17902 -2.36124 0
M  V30 3606 H 351.93 1.21997 -4.44357 0
M  V30 3607 H 350.245 1.25418 -3.97063 0
M  V30 3608 H 352.842 4.00276 -3.54519 0
M  V30 3609 H 353.185 3.72684 -1.85505 0
M  V30 3610 H 353.718 2.53505 -3.06562 0
M  V30 3611 H 350.457 2.49181 -6.06291 0
M  V30 3612 H 349.977 3.62487 -4.77873 0
M  V30 3613 H 351.656 3.60474 -5.37278 0
M  V30 3614 N 351.788 1.33704 0.83433 0
M  V30 3615 C 353.018 1.28281 1.6195 0
M  V30 3616 C 353.426 -0.147603 1.88623 0
M  V30 3617 O 352.769 -1.1016 1.47005 0
M  V30 3618 C 352.831 1.99386 2.99141 0
M  V30 3619 C 352.495 3.48681 2.95416 0
M  V30 3620 C 353.492 4.438 2.70809 0
M  V30 3621 C 351.177 3.90925 3.15409 0
M  V30 3622 C 353.171 5.79138 2.66229 0
M  V30 3623 C 350.858 5.26366 3.10454 0
M  V30 3624 C 351.856 6.20284 2.85895 0
M  V30 3625 O 351.544 7.53245 2.80852 0
M  V30 3626 H 351.276 0.44315 0.510484 0
M  V30 3627 H 353.83 1.76711 1.04702 0
M  V30 3628 H 352.06 1.45554 3.58261 0
M  V30 3629 H 353.749 1.87403 3.60049 0
M  V30 3630 H 354.515 4.12485 2.5511 0
M  V30 3631 H 350.394 3.18229 3.33543 0
M  V30 3632 H 353.938 6.52416 2.4698 0
M  V30 3633 H 349.835 5.57304 3.25703 0
M  V30 3634 H 350.603 7.62846 2.96661 0
M  V30 3635 N 353.266 -1.05314 1.17247 0
M  V30 3636 C 354.213 -2.13031 0.888058 0
M  V30 3637 C 355.183 -1.65253 -0.167537 0
M  V30 3638 O 356.368 -1.90775 -0.0305974 0
M  V30 3639 C 353.508 -3.42702 0.406147 0
M  V30 3640 C 352.621 -4.04161 1.52572 0
M  V30 3641 C 351.756 -5.21744 0.997808 0
M  V30 3642 C 350.795 -5.75207 2.09291 0
M  V30 3643 N 349.932 -6.84094 1.57986 0
M  V30 3644 H 354.772 -2.36698 1.81048 0
M  V30 3645 H 352.309 -1.16121 0.903013 0
M  V30 3646 H 354.267 -4.17059 0.108305 0
M  V30 3647 H 352.897 -3.19222 -0.479313 0
M  V30 3648 H 351.949 -3.27253 1.93931 0
M  V30 3649 H 353.261 -4.39881 2.35172 0
M  V30 3650 H 352.415 -6.03168 0.653739 0
M  V30 3651 H 351.154 -4.87495 0.141232 0
M  V30 3652 H 350.159 -4.92414 2.44557 0
M  V30 3653 H 351.384 -6.11505 2.95362 0
M  V30 3654 H 349.33 -6.51745 0.74598 0
M  V30 3655 H 349.247 -7.18811 2.34195 0
M  V30 3656 H 350.515 -7.69172 1.26468 0
M  V30 3657 N 354.744 -0.972509 -1.24016 0
M  V30 3658 C 355.974 -0.653853 -1.9598 0
M  V30 3659 C 356.382 0.781801 -1.72292 0
M  V30 3660 O 355.725 1.53677 -1.00644 0
M  V30 3661 C 355.787 -0.854608 -3.49194 0
M  V30 3662 C 355.451 -2.27082 -3.96589 0
M  V30 3663 C 356.448 -3.24892 -4.05883 0
M  V30 3664 C 354.133 -2.5998 -4.29786 0
M  V30 3665 C 356.127 -4.53684 -4.47716 0
M  V30 3666 C 353.814 -3.88997 -4.71301 0
M  V30 3667 C 354.812 -4.85661 -4.80232 0
M  V30 3668 O 354.5 -6.12376 -5.20818 0
M  V30 3669 H 354.232 -0.242572 -0.630979 0
M  V30 3670 H 356.786 -1.30431 -1.58673 0
M  V30 3671 H 355.016 -0.146985 -3.86421 0
M  V30 3672 H 356.705 -0.534311 -4.02368 0
M  V30 3673 H 357.471 -3.00805 -3.80449 0
M  V30 3674 H 353.35 -1.85457 -4.22051 0
M  V30 3675 H 356.894 -5.29135 -4.54601 0
M  V30 3676 H 352.791 -4.12882 -4.96184 0
M  V30 3677 H 353.559 -6.16013 -5.38953 0
M  V30 3678 N 356.222 1.38976 -0.743202 0
M  V30 3679 C 357.468 2.0064 -0.295189 0
M  V30 3680 C 357.801 1.5885 1.11716 0
M  V30 3681 O 357.076 0.821181 1.76315 0
M  V30 3682 C 357.359 3.578 -0.406318 0
M  V30 3683 C 357.212 4.09586 -1.85903 0
M  V30 3684 C 358.531 4.39616 0.206439 0
M  V30 3685 H 355.65 0.728935 -0.108733 0
M  V30 3686 H 358.292 1.65067 -0.940897 0
M  V30 3687 H 356.442 3.88235 0.143419 0
M  V30 3688 H 358.114 3.89837 -2.46627 0
M  V30 3689 H 356.357 3.6284 -2.3776 0
M  V30 3690 H 357.028 5.18708 -1.888 0
M  V30 3691 H 359.504 4.15273 -0.262283 0
M  V30 3692 H 358.38 5.48812 0.0983819 0
M  V30 3693 H 358.641 4.22754 1.2935 0
M  V30 3694 N 357.7 0.491464 1.49741 0
M  V30 3695 C 358.946 -0.0565092 2.02721 0
M  V30 3696 C 359.279 -1.37522 1.37118 0
M  V30 3697 O 358.554 -1.87866 0.503645 0
M  V30 3698 C 358.837 -0.219051 3.59433 0
M  V30 3699 C 358.69 1.12211 4.35579 0
M  V30 3700 C 360.009 -0.964157 4.29409 0
M  V30 3701 H 357.128 -0.0190627 0.736753 0
M  V30 3702 H 359.77 0.641021 1.7886 0
M  V30 3703 H 357.92 -0.813165 3.79895 0
M  V30 3704 H 359.592 1.75437 4.26637 0
M  V30 3705 H 357.835 1.71377 3.98513 0
M  V30 3706 H 358.506 0.961794 5.43556 0
M  V30 3707 H 360.982 -0.460378 4.13545 0
M  V30 3708 H 359.858 -1.04671 5.38828 0
M  V30 3709 H 360.119 -2.00563 3.93988 0
M  V30 3710 N 359.178 -1.55987 0.224894 0
M  V30 3711 C 360.128 -2.17076 -0.697296 0
M  V30 3712 C 361.112 -1.12006 -1.15514 0
M  V30 3713 O 362.304 -1.37985 -1.10857 0
M  V30 3714 C 359.433 -2.85679 -1.90374 0
M  V30 3715 C 358.519 -3.97977 -1.46543 0
M  V30 3716 N 358.91 -5.00359 -0.739909 0
M  V30 3717 C 357.208 -4.10128 -1.75245 0
M  V30 3718 C 357.909 -5.79407 -0.515939 0
M  V30 3719 N 356.885 -5.32892 -1.07364 0
M  V30 3720 H 360.687 -2.93592 -0.134594 0
M  V30 3721 H 358.201 -1.62379 0.0262885 0
M  V30 3722 H 360.198 -3.27857 -2.57518 0
M  V30 3723 H 358.858 -2.1066 -2.47088 0
M  V30 3724 H 359.869 -5.16412 -0.392253 0
M  V30 3725 H 356.546 -3.46263 -2.33255 0
M  V30 3726 H 357.936 -6.71872 0.0617349 0
M  V30 3727 N 360.656 0.0484629 -1.57525 0
M  V30 3728 C 361.604 1.07359 -2.06341 0
M  V30 3729 C 362.598 1.3865 -0.973269 0
M  V30 3730 O 363.804 1.37783 -1.15827 0
M  V30 3731 H 360.179 0.363662 -0.65822 0
M  V30 3732 H 362.15 0.635916 -2.91545 0
M  V30 3733 C 360.899 2.37198 -2.54229 0
M  V30 3734 H 360.222 2.13977 -3.37719 0
M  V30 3735 H 361.662 3.07319 -2.92115 0
M  V30 3736 C 360.121 3.04805 -1.43511 0
M  V30 3737 O 360.651 3.93848 -0.79034 0
M  V30 3738 N 358.857 2.65811 -1.17444 0
M  V30 3739 H 358.404 1.93488 -1.70059 0
M  V30 3740 H 358.362 3.11366 -0.435737 0
M  V30 3741 N 362.134 1.5431 0.320358 0
M  V30 3742 C 363.38 1.72924 1.05949 0
M  V30 3743 C 363.713 0.503185 1.87568 0
M  V30 3744 O 362.988 -0.499839 1.87968 0
M  V30 3745 C 363.271 3.00676 1.98156 0
M  V30 3746 C 363.124 4.3354 1.19845 0
M  V30 3747 C 364.443 3.24198 2.9763 0
M  V30 3748 H 361.562 0.629195 0.383774 0
M  V30 3749 H 364.204 1.87008 0.335854 0
M  V30 3750 H 362.354 2.888 2.59859 0
M  V30 3751 H 364.026 4.57305 0.605773 0
M  V30 3752 H 362.269 4.309 0.500784 0
M  V30 3753 H 362.94 5.19156 1.87567 0
M  V30 3754 H 365.416 3.35557 2.4605 0
M  V30 3755 H 364.292 4.14938 3.59329 0
M  V30 3756 H 364.553 2.41577 3.7026 0
M  V30 3757 N 363.613 -0.582584 1.46437 0
M  V30 3758 C 364.576 -1.67366 1.56592 0
M  V30 3759 C 365.576 -1.54575 0.443072 0
M  V30 3760 O 366.766 -1.59191 0.707381 0
M  V30 3761 C 363.898 -3.06791 1.48634 0
M  V30 3762 H 365.091 -1.5972 2.5383 0
M  V30 3763 H 362.644 -0.800432 1.34249 0
M  V30 3764 H 363.379 -3.19993 0.526763 0
M  V30 3765 H 363.164 -3.17484 2.30101 0
M  V30 3766 H 364.654 -3.86218 1.58826 0
M  V30 3767 N 365.091 -1.34144 -0.827227 0
M  V30 3768 C 366.041 -1.21923 -1.92663 0
M  V30 3769 C 367.025 -0.119294 -1.60457 0
M  V30 3770 O 368.217 -0.348539 -1.73534 0
M  V30 3771 C 365.346 -0.972492 -3.29238 0
M  V30 3772 C 364.432 -2.1154 -3.67576 0
M  V30 3773 N 364.823 -3.36627 -3.77512 0
M  V30 3774 C 363.121 -2.02468 -3.97395 0
M  V30 3775 C 363.822 -4.11658 -4.1099 0
M  V30 3776 N 362.798 -3.40207 -4.23981 0
M  V30 3777 H 366.6 -2.16721 -1.98517 0
M  V30 3778 H 364.114 -1.2632 -1.02064 0
M  V30 3779 H 366.111 -0.865847 -4.0781 0
M  V30 3780 H 364.771 -0.0331509 -3.24683 0
M  V30 3781 H 365.782 -3.71234 -3.61118 0
M  V30 3782 H 362.459 -1.16265 -4.00985 0
M  V30 3783 H 363.849 -5.19657 -4.25918 0
M  V30 3784 N 366.569 1.04691 -1.17803 0
M  V30 3785 C 367.985 1.29963 -0.926379 0
M  V30 3786 C 368.185 1.97251 0.411635 0
M  V30 3787 O 367.241 2.24922 1.14744 0
M  V30 3788 C 368.554 2.16447 -2.08737 0
M  V30 3789 C 370.102 2.29814 -2.12496 0
M  V30 3790 C 370.577 3.19661 -3.27995 0
M  V30 3791 N 372.068 3.27247 -3.27816 0
M  V30 3792 C 372.803 3.96906 -4.13827 0
M  V30 3793 N 372.299 4.6895 -5.09959 0
M  V30 3794 N 374.092 3.93122 -4.01761 0
M  V30 3795 H 366.243 0.594182 -2.0392 0
M  V30 3796 H 368.506 0.324649 -0.890678 0
M  V30 3797 H 368.212 1.74304 -3.05469 0
M  V30 3798 H 368.086 3.17103 -2.04268 0
M  V30 3799 H 370.473 2.71196 -1.16347 0
M  V30 3800 H 370.554 1.2877 -2.21025 0
M  V30 3801 H 370.198 2.78991 -4.24413 0
M  V30 3802 H 370.128 4.20722 -3.16703 0
M  V30 3803 H 372.619 2.75921 -2.58217 0
M  V30 3804 H 372.932 5.19679 -5.71974 0
M  V30 3805 H 371.277 4.67875 -5.13924 0
M  V30 3806 H 374.468 3.35967 -3.2595 0
M  V30 3807 H 374.641 4.47139 -4.6901 0
M  V30 3808 N 368.047 0.979072 1.23499 0
M  V30 3809 C 369.294 0.647219 1.91878 0
M  V30 3810 C 369.622 -0.819074 1.76413 0
M  V30 3811 O 368.877 -1.60616 1.11808 0
M  V30 3812 C 369.176 0.981932 3.43646 0
M  V30 3813 C 368.842 2.43822 3.79291 0
M  V30 3814 C 367.504 2.83622 3.88731 0
M  V30 3815 C 369.856 3.3828 3.96505 0
M  V30 3816 C 367.184 4.16897 4.12812 0
M  V30 3817 C 369.536 4.71197 4.22085 0
M  V30 3818 C 368.2 5.10758 4.29747 0
M  V30 3819 H 367.47 0.236834 0.702133 0
M  V30 3820 H 370.117 1.23268 1.46551 0
M  V30 3821 H 368.422 0.314365 3.90537 0
M  V30 3822 H 370.119 0.703395 3.94783 0
M  V30 3823 H 366.709 2.11966 3.72516 0
M  V30 3824 H 370.893 3.0871 3.88603 0
M  V30 3825 H 366.149 4.47157 4.16966 0
M  V30 3826 H 370.323 5.44348 4.34348 0
M  V30 3827 H 367.95 6.1405 4.48159 0
M  V30 3828 N 369.525 -1.3858 0.750561 0
M  V30 3829 C 370.773 -1.99789 0.30477 0
M  V30 3830 C 371.094 -1.59874 -1.11649 0
M  V30 3831 O 370.364 -0.85417 -1.76297 0
M  V30 3832 H 368.944 -0.738902 0.109694 0
M  V30 3833 H 371.606 -1.69391 0.963983 0
M  V30 3834 H 370.702 -3.09952 0.365499 0
M  V30 3835 N 371.003 -0.499398 -1.49478 0
M  V30 3836 C 371.95 0.279881 -2.29097 0
M  V30 3837 C 372.92 0.961805 -1.3542 0
M  V30 3838 O 374.105 0.968777 -1.64376 0
M  V30 3839 C 371.245 1.33932 -3.18051 0
M  V30 3840 C 370.358 0.669333 -4.26783 0
M  V30 3841 C 369.493 1.70907 -5.02955 0
M  V30 3842 C 368.532 1.02087 -6.03527 0
M  V30 3843 N 367.669 2.00474 -6.7287 0
M  V30 3844 H 372.509 -0.405317 -2.95231 0
M  V30 3845 H 370.046 -0.211726 -1.45568 0
M  V30 3846 H 372.004 1.96553 -3.67998 0
M  V30 3847 H 370.634 1.9933 -2.53904 0
M  V30 3848 H 369.686 -0.0701234 -3.80335 0
M  V30 3849 H 370.998 0.127503 -4.98637 0
M  V30 3850 H 370.152 2.41037 -5.56764 0
M  V30 3851 H 368.891 2.28476 -4.30871 0
M  V30 3852 H 367.896 0.305338 -5.48951 0
M  V30 3853 H 369.121 0.451708 -6.77596 0
M  V30 3854 H 367.067 2.57007 -6.03559 0
M  V30 3855 H 366.984 1.51353 -7.40694 0
M  V30 3856 H 368.252 2.69897 -7.31284 0
M  V30 3857 N 372.481 1.55866 -0.233164 0
M  V30 3858 C 373.709 2.02998 0.399905 0
M  V30 3859 C 374.124 1.11274 1.52524 0
M  V30 3860 O 373.481 0.124528 1.82075 0
M  V30 3861 C 373.532 3.4958 0.920639 0
M  V30 3862 O 373.253 4.37808 -0.159834 0
M  V30 3863 C 374.754 4.12411 1.62578 0
M  V30 3864 H 371.974 0.664006 0.0966281 0
M  V30 3865 H 374.518 2.0143 -0.353013 0
M  V30 3866 H 372.673 3.51727 1.62379 0
M  V30 3867 H 373.087 5.23981 0.23337 0
M  V30 3868 H 374.561 5.16711 1.94201 0
M  V30 3869 H 375.038 3.5809 2.54299 0
M  V30 3870 H 375.644 4.14148 0.967553 0
M  V30 3871 N 373.959 -0.0401083 1.57549 0
M  V30 3872 C 374.922 -1.02871 2.04817 0
M  V30 3873 C 375.922 -1.29708 0.950388 0
M  V30 3874 O 377.112 -1.24897 1.21435 0
M  V30 3875 C 374.244 -2.36443 2.45576 0
M  V30 3876 H 375.437 -0.620631 2.93408 0
M  V30 3877 H 372.99 -0.286667 1.53649 0
M  V30 3878 H 373.725 -2.82021 1.60108 0
M  V30 3879 H 373.51 -2.18296 3.25713 0
M  V30 3880 H 375 -3.07441 2.82612 0
M  V30 3881 N 375.437 -1.54477 -0.31217 0
M  V30 3882 C 376.665 -1.77205 -1.068 0
M  V30 3883 C 377.08 -0.526114 -1.81321 0
M  V30 3884 O 376.437 0.503647 -1.75413 0
M  V30 3885 C 376.488 -2.97253 -2.05725 0
M  V30 3886 O 376.209 -4.1703 -1.34228 0
M  V30 3887 C 377.71 -3.32281 -2.93435 0
M  V30 3888 H 374.93 -0.591287 -0.317208 0
M  V30 3889 H 377.474 -2.01398 -0.354834 0
M  V30 3890 H 375.629 -2.753 -2.72559 0
M  V30 3891 H 376.043 -4.84636 -2.00571 0
M  V30 3892 H 377.517 -4.19551 -3.58721 0
M  V30 3893 H 377.994 -2.49945 -3.61143 0
M  V30 3894 H 378.6 -3.56353 -2.32147 0
M  V30 3895 N 376.915 0.57481 -1.46744 0
M  V30 3896 C 378.162 1.33272 -1.52462 0
M  V30 3897 C 378.49 1.93669 -0.179572 0
M  V30 3898 O 377.745 1.7743 0.825664 0
M  V30 3899 C 378.044 2.476 -2.57738 0
M  V30 3900 C 377.71 2.05146 -4.01529 0
M  V30 3901 C 376.372 1.93284 -4.40676 0
M  V30 3902 C 378.724 1.72506 -4.91824 0
M  V30 3903 C 376.052 1.47049 -5.67973 0
M  V30 3904 C 378.404 1.27748 -6.19567 0
M  V30 3905 C 377.068 1.14468 -6.57612 0
M  V30 3906 H 376.338 0.487678 -0.557899 0
M  V30 3907 H 378.985 0.646456 -1.80259 0
M  V30 3908 H 377.29 3.21708 -2.23632 0
M  V30 3909 H 378.987 3.05807 -2.5939 0
M  V30 3910 H 375.577 2.15316 -3.7059 0
M  V30 3911 H 379.761 1.80552 -4.62293 0
M  V30 3912 H 375.017 1.35417 -5.96215 0
M  V30 3913 H 379.191 1.01547 -6.88957 0
M  V30 3914 H 376.818 0.78419 -7.56145 0
M  V30 3915 N 378.394 1.34581 0.820102 0
M  V30 3916 C 379.327 1.20735 1.93644 0
M  V30 3917 C 380.305 0.0983343 1.62302 0
M  V30 3918 O 381.489 0.263997 1.86642 0
M  V30 3919 C 378.616 0.856037 3.27704 0
M  V30 3920 C 377.662 1.97521 3.78005 0
M  V30 3921 S 378.495 3.58906 3.97425 0
M  V30 3922 C 379.651 3.25822 5.34407 0
M  V30 3923 H 379.884 2.15231 2.05093 0
M  V30 3924 H 377.417 1.1964 0.97599 0
M  V30 3925 H 379.375 0.660133 4.05157 0
M  V30 3926 H 378.036 -0.0706253 3.14021 0
M  V30 3927 H 377.229 1.68321 4.75062 0
M  V30 3928 H 376.831 2.12875 3.07507 0
M  V30 3929 H 379.123 2.77812 6.17922 0
M  V30 3930 H 380.066 4.22029 5.68592 0
M  V30 3931 H 380.474 2.61932 5.00052 0
M  V30 3932 N 379.872 -1.04064 1.18357 0
M  V30 3933 C 381.283 -1.58719 0.98312 0
M  V30 3934 C 381.634 -1.90556 -0.467193 0
M  V30 3935 O 380.759 -1.69561 -1.34454 0
M  V30 3936 C 381.354 -2.88379 1.77828 0
M  V30 3937 C 379.913 -3.3965 1.62218 0
M  V30 3938 C 379.06 -2.13235 1.77274 0
M  V30 3939 H 382.011 -0.867359 1.32901 0
M  V30 3940 H 382.032 -3.58773 1.26737 0
M  V30 3941 H 381.544 -2.65176 2.83379 0
M  V30 3942 H 379.645 -3.67866 0.592036 0
M  V30 3943 H 379.758 -4.13475 2.42023 0
M  V30 3944 H 378.122 -2.24542 1.20221 0
M  V30 3945 H 378.905 -1.92487 2.8426 0
M  V30 3946 N 381.35 -0.985608 -1.22978 0
M  V30 3947 C 382.297 -0.529825 -2.24636 0
M  V30 3948 C 383.267 0.434028 -1.60329 0
M  V30 3949 O 384.452 0.340414 -1.87739 0
M  V30 3950 C 381.592 0.156533 -3.44745 0
M  V30 3951 C 380.705 -0.848197 -4.23591 0
M  V30 3952 C 379.84 -0.136109 -5.31026 0
M  V30 3953 C 378.879 -1.1297 -6.01585 0
M  V30 3954 N 378.016 -0.446415 -7.00679 0
M  V30 3955 H 382.856 -1.40148 -2.62988 0
M  V30 3956 H 380.393 -0.702168 -1.29259 0
M  V30 3957 H 382.351 0.571324 -4.1327 0
M  V30 3958 H 380.981 0.992025 -3.07179 0
M  V30 3959 H 380.033 -1.38135 -3.54433 0
M  V30 3960 H 381.345 -1.60512 -4.72268 0
M  V30 3961 H 380.499 0.335784 -6.0577 0
M  V30 3962 H 379.238 0.653373 -4.83304 0
M  V30 3963 H 378.243 -1.6123 -5.25628 0
M  V30 3964 H 379.468 -1.91993 -6.51395 0
M  V30 3965 H 377.414 0.323763 -6.55201 0
M  V30 3966 H 377.331 -1.1419 -7.47326 0
M  V30 3967 H 378.599 0.00291697 -7.795 0
M  V30 3968 N 382.828 1.3818 -0.7579 0
M  V30 3969 C 384.239 1.82726 -0.383134 0
M  V30 3970 C 384.59 1.63214 1.08884 0
M  V30 3971 O 383.715 1.13566 1.84205 0
M  V30 3972 C 384.31 3.31728 -0.688631 0
M  V30 3973 C 382.869 3.74606 -0.367091 0
M  V30 3974 C 382.016 2.60896 -0.939599 0
M  V30 3975 H 384.967 1.26847 -0.953699 0
M  V30 3976 H 384.988 3.80487 0.0316492 0
M  V30 3977 H 384.5 3.45898 -1.76001 0
M  V30 3978 H 382.601 3.66013 0.697532 0
M  V30 3979 H 382.714 4.71215 -0.865658 0
M  V30 3980 H 381.078 2.52075 -0.3647 0
M  V30 3981 H 381.861 2.77864 -2.0161 0
M  V30 3982 N 384.306 0.507319 1.49211 0
M  V30 3983 C 385.239 -0.314509 2.26022 0
M  V30 3984 C 386.217 -0.964849 1.30879 0
M  V30 3985 O 387.401 -0.993707 1.6018 0
M  V30 3986 C 384.528 -1.44346 3.06402 0
M  V30 3987 C 383.574 -0.90685 4.16748 0
M  V30 3988 S 384.407 0.207392 5.35098 0
M  V30 3989 C 385.563 -0.924573 6.19033 0
M  V30 3990 H 385.796 0.337416 2.95379 0
M  V30 3991 H 383.329 0.292718 1.516 0
M  V30 3992 H 385.287 -2.09029 3.53295 0
M  V30 3993 H 383.948 -2.06702 2.36502 0
M  V30 3994 H 383.141 -1.75309 4.72528 0
M  V30 3995 H 382.743 -0.33712 3.72478 0
M  V30 3996 H 385.035 -1.82839 6.52362 0
M  V30 3997 H 385.978 -0.405248 7.06939 0
M  V30 3998 H 386.386 -1.19476 5.51712 0
M  V30 3999 N 385.784 -1.5574 0.241426 0
M  V30 4000 C 387.031 -1.9881 -0.384836 0
M  V30 4001 C 387.359 -1.12947 -1.58346 0
M  V30 4002 O 386.614 -0.178993 -1.9488 0
M  V30 4003 C 386.913 -3.47308 -0.843317 0
M  V30 4004 C 386.579 -4.50223 0.246946 0
M  V30 4005 C 385.241 -4.78088 0.546399 0
M  V30 4006 C 387.593 -5.11841 0.983282 0
M  V30 4007 C 384.921 -5.64846 1.58636 0
M  V30 4008 C 387.273 -5.99727 2.01272 0
M  V30 4009 C 385.937 -6.25927 2.31888 0
M  V30 4010 H 385.207 -0.727496 -0.140821 0
M  V30 4011 H 387.854 -1.8831 0.348106 0
M  V30 4012 H 386.159 -3.55112 -1.65537 0
M  V30 4013 H 387.856 -3.78017 -1.33806 0
M  V30 4014 H 384.446 -4.286 0.00340639 0
M  V30 4015 H 388.63 -4.90366 0.765182 0
M  V30 4016 H 383.886 -5.83403 1.82896 0
M  V30 4017 H 388.06 -6.46517 2.58823 0
M  V30 4018 H 385.687 -6.92949 3.12611 0
M  V30 4019 N 387.262 0.0317525 -1.57568 0
M  V30 4020 C 388.51 0.721676 -1.88776 0
M  V30 4021 C 388.831 1.76039 -0.838772 0
M  V30 4022 O 388.101 1.95482 0.127935 0
M  V30 4023 H 386.681 0.269534 -0.696678 0
M  V30 4024 H 389.343 -0.00165879 -1.949 0
M  V30 4025 H 388.439 1.21293 -2.87566 0
M  V30 4026 N 388.74 1.54641 0.303973 0
M  V30 4027 C 390.017 1.64455 1.05896 0
M  V30 4028 C 390.397 0.490923 2.05312 0
M  V30 4029 O 389.745 -0.512685 2.22674 0
M  V30 4030 C 389.955 3.02331 1.74347 0
M  V30 4031 C 391.303 3.59045 2.26653 0
M  V30 4032 O 392.327 3.04764 1.84384 0
M  V30 4033 O 391.186 4.54081 3.04093 0
M  V30 4034 H 388.28 0.666729 0.489287 0
M  V30 4035 H 390.826 1.66986 0.302298 0
M  V30 4036 H 389.598 3.77734 1.02142 0
M  V30 4037 H 389.221 3.03565 2.56777 0
M  V30 4038 N 390.218 -0.567019 1.47046 0
M  V30 4039 C 391.166 -1.69593 1.59188 0
M  V30 4040 C 392.16 -1.63046 0.459609 0
M  V30 4041 O 393.366 -1.6835 0.637058 0
M  V30 4042 H 389.741 -0.560993 0.500791 0
M  V30 4043 H 391.712 -1.56488 2.54075 0
M  V30 4044 C 390.461 -3.07964 1.61411 0
M  V30 4045 H 389.784 -3.13679 2.47881 0
M  V30 4046 H 391.224 -3.86671 1.73958 0
M  V30 4047 C 389.683 -3.35123 0.34559 0
M  V30 4048 O 390.213 -3.97812 -0.557521 0
M  V30 4049 N 388.419 -2.89699 0.22864 0
M  V30 4050 H 387.966 -2.38863 0.964479 0
M  V30 4051 H 387.924 -3.08242 -0.619192 0
M  V30 4052 N 391.696 -1.35014 -0.812953 0
M  V30 4053 C 392.944 -1.27678 -1.56661 0
M  V30 4054 C 393.265 0.150359 -1.94419 0
M  V30 4055 O 392.535 1.08532 -1.63088 0
M  V30 4056 H 391.115 -0.469602 -0.580933 0
M  V30 4057 H 393.777 -1.69043 -0.970076 0
M  V30 4058 H 392.873 -1.88833 -2.48492 0
M  V30 4059 N 393.175 1.03435 -1.18907 0
M  V30 4060 C 394.4 1.80919 -1.01406 0
M  V30 4061 C 394.825 1.83055 0.432721 0
M  V30 4062 O 394.183 1.25252 1.31079 0
M  V30 4063 C 394.231 3.24091 -1.58105 0
M  V30 4064 O 393.335 4.04434 -0.806669 0
M  V30 4065 H 392.676 0.558709 -0.358803 0
M  V30 4066 H 395.206 1.30223 -1.57807 0
M  V30 4067 H 395.216 3.74853 -1.61087 0
M  V30 4068 H 393.891 3.21851 -2.6341 0
M  V30 4069 H 392.468 3.63091 -0.849666 0
M  V30 4070 N 394.653 0.992116 1.22453 0
M  V30 4071 C 395.901 0.666215 1.90804 0
M  V30 4072 C 396.222 -0.804152 1.77647 0
M  V30 4073 O 395.492 -1.57629 1.16318 0
M  V30 4074 H 394.072 0.243423 0.706225 0
M  V30 4075 H 396.734 1.25845 1.48825 0
M  V30 4076 H 395.83 0.928069 2.97982 0
M  V30 4077 N 396.131 -1.37776 0.765217 0
M  V30 4078 C 397.064 -2.28008 0.0935025 0
M  V30 4079 C 398.042 -1.45985 -0.716047 0
M  V30 4080 O 399.226 -1.75331 -0.692203 0
M  V30 4081 C 396.353 -3.27228 -0.874052 0
M  V30 4082 C 395.399 -4.26239 -0.149307 0
M  V30 4083 S 396.232 -5.22827 1.15809 0
M  V30 4084 C 397.388 -6.256 0.193906 0
M  V30 4085 H 397.621 -2.84631 0.858637 0
M  V30 4086 H 395.154 -1.43952 0.558313 0
M  V30 4087 H 397.112 -3.84902 -1.42691 0
M  V30 4088 H 395.773 -2.69565 -1.61225 0
M  V30 4089 H 394.966 -4.96213 -0.88254 0
M  V30 4090 H 394.568 -3.7252 0.332366 0
M  V30 4091 H 396.86 -6.74508 -0.636011 0
M  V30 4092 H 397.803 -7.02838 0.861638 0
M  V30 4093 H 398.211 -5.64173 -0.191975 0
M  V30 4094 N 397.609 -0.515225 -1.4894 0
M  V30 4095 C 398.559 0.275113 -2.26334 0
M  V30 4096 C 399.543 0.923007 -1.31793 0
M  V30 4097 O 400.735 0.828254 -1.56426 0
M  V30 4098 C 397.864 1.33041 -3.16473 0
M  V30 4099 C 396.95 0.688051 -4.18481 0
M  V30 4100 N 397.341 -0.217638 -5.05332 0
M  V30 4101 C 395.639 0.94699 -4.3583 0
M  V30 4102 C 396.34 -0.58676 -5.78733 0
M  V30 4103 N 395.316 0.0486966 -5.43578 0
M  V30 4104 H 399.118 -0.421876 -2.90856 0
M  V30 4105 H 396.632 -0.332249 -1.58965 0
M  V30 4106 H 398.629 1.9102 -3.70563 0
M  V30 4107 H 397.289 2.02894 -2.53504 0
M  V30 4108 H 398.3 -0.589343 -5.14536 0
M  V30 4109 H 394.977 1.63719 -3.8406 0
M  V30 4110 H 396.367 -1.32855 -6.58634 0
M  V30 4111 N 399.087 1.5561 -0.249682 0
M  V30 4112 C 400.327 2.00916 0.37579 0
M  V30 4113 C 400.691 1.13409 1.54927 0
M  V30 4114 O 401.892 1.48183 2.24266 0
M  V30 4115 C 400.163 3.48949 0.772633 0
M  V30 4116 S 401.722 4.16261 1.38824 0
M  V30 4117 H 398.54 0.70112 0.118117 0
M  V30 4118 H 401.142 1.92052 -0.365567 0
M  V30 4119 H 399.846 4.103 -0.090683 0
M  V30 4120 H 399.377 3.61745 1.5461 0
M  V30 4121 H 401.392 4.17778 2.67724 0
M  V30 4122 N 400.565 -0.0233959 1.57583 0
M  V30 4123 C 401.515 -1.03023 2.03397 0
M  V30 4124 C 402.499 -1.31701 0.924315 0
M  V30 4125 O 403.691 -1.31191 1.18819 0
M  V30 4126 C 400.82 -2.32961 2.52159 0
M  V30 4127 C 399.906 -2.07349 3.69956 0
M  V30 4128 N 400.297 -1.51814 4.82479 0
M  V30 4129 C 398.595 -2.37606 3.77438 0
M  V30 4130 C 399.296 -1.42136 5.64068 0
M  V30 4131 N 398.272 -1.89891 5.09355 0
M  V30 4132 H 402.074 -0.594962 2.87815 0
M  V30 4133 H 399.588 -0.229586 1.60769 0
M  V30 4134 H 401.585 -3.05906 2.83244 0
M  V30 4135 H 400.245 -2.77162 1.69149 0
M  V30 4136 H 401.256 -1.20008 5.03804 0
M  V30 4137 H 397.933 -2.84842 3.05239 0
M  V30 4138 H 399.323 -0.996405 6.64471 0
M  V30 4139 N 402.043 -1.548 -0.295768 0
M  V30 4140 C 402.976 -1.81003 -1.38972 0
M  V30 4141 C 403.954 -0.661544 -1.48534 0
M  V30 4142 O 405.138 -0.902074 -1.65514 0
M  V30 4143 C 402.265 -1.95141 -2.76835 0
M  V30 4144 C 401.311 -3.17592 -2.84671 0
M  V30 4145 S 402.144 -4.75531 -2.46232 0
M  V30 4146 C 403.3 -4.92613 -3.86114 0
M  V30 4147 H 403.533 -2.73507 -1.16537 0
M  V30 4148 H 401.066 -1.46278 -0.494168 0
M  V30 4149 H 403.024 -2.03972 -3.56238 0
M  V30 4150 H 401.685 -1.03565 -2.96535 0
M  V30 4151 H 400.878 -3.24303 -3.85803 0
M  V30 4152 H 400.48 -3.07235 -2.13267 0
M  V30 4153 H 402.772 -4.76957 -4.81164 0
M  V30 4154 H 403.715 -5.94698 -3.8437 0
M  V30 4155 H 404.123 -4.2073 -3.76359 0
M  V30 4156 N 403.521 0.559213 -1.47345 0
M  V30 4157 C 404.746 1.34676 -1.57725 0
M  V30 4158 C 405.171 1.86723 -0.227164 0
M  V30 4159 O 404.529 1.6286 0.796642 0
M  V30 4160 C 404.577 2.49399 -2.60447 0
M  V30 4161 O 403.681 3.51567 -2.15578 0
M  V30 4162 H 403.022 0.400115 -0.52991 0
M  V30 4163 H 405.552 0.676009 -1.93109 0
M  V30 4164 H 405.562 2.95996 -2.80803 0
M  V30 4165 H 404.237 2.10873 -3.58477 0
M  V30 4166 H 402.814 3.11289 -2.05313 0
M  V30 4167 N 404.999 1.35443 0.805782 0
M  V30 4168 C 405.929 1.31095 1.93226 0
M  V30 4169 C 406.91 0.185244 1.69088 0
M  V30 4170 O 408.095 0.380332 1.90439 0
M  V30 4171 C 405.225 1.08299 3.29983 0
M  V30 4172 C 404.179 2.17519 3.68605 0
M  V30 4173 C 403.505 1.79887 5.03532 0
M  V30 4174 C 404.805 3.5949 3.78898 0
M  V30 4175 H 406.499 2.25352 1.97122 0
M  V30 4176 H 404.045 1.0848 0.946996 0
M  V30 4177 H 405.998 1.03897 4.08391 0
M  V30 4178 H 404.722 0.104885 3.26432 0
M  V30 4179 H 403.381 2.2102 2.92482 0
M  V30 4180 H 403.029 0.80693 4.96485 0
M  V30 4181 H 402.729 2.53001 5.30344 0
M  V30 4182 H 404.253 1.77011 5.84379 0
M  V30 4183 H 405.667 3.58307 4.47536 0
M  V30 4184 H 404.064 4.31371 4.1718 0
M  V30 4185 H 405.134 3.95584 2.80431 0
M  V30 4186 N 406.477 -1.02803 1.19454 0
M  V30 4187 C 407.44 -2.09264 0.934955 0
M  V30 4188 C 408.44 -1.60576 -0.0849015 0
M  V30 4189 O 409.63 -1.73554 0.149933 0
M  V30 4190 C 406.762 -3.38482 0.40531 0
M  V30 4191 H 407.955 -2.33726 1.87916 0
M  V30 4192 H 405.508 -1.19426 1.00832 0
M  V30 4193 H 406.243 -3.19689 -0.544899 0
M  V30 4194 H 406.028 -3.75142 1.14065 0
M  V30 4195 H 407.518 -4.16894 0.242806 0
M  V30 4196 N 407.956 -0.998596 -1.21925 0
M  V30 4197 C 408.903 -0.553621 -2.24062 0
M  V30 4198 C 409.873 0.416999 -1.6078 0
M  V30 4199 O 411.058 0.320482 -1.88089 0
M  V30 4200 C 408.198 0.119959 -3.44891 0
M  V30 4201 C 407.311 -0.893077 -4.22668 0
M  V30 4202 C 406.446 -0.192424 -5.30851 0
M  V30 4203 C 405.485 -1.19344 -6.00353 0
M  V30 4204 N 404.622 -0.520707 -7.00166 0
M  V30 4205 H 409.462 -1.4293 -2.61486 0
M  V30 4206 H 406.999 -0.715838 -1.28507 0
M  V30 4207 H 408.957 0.527459 -4.13852 0
M  V30 4208 H 407.587 0.959389 -3.08214 0
M  V30 4209 H 406.639 -1.41886 -3.52948 0
M  V30 4210 H 407.951 -1.65512 -4.70539 0
M  V30 4211 H 407.105 0.271515 -6.06092 0
M  V30 4212 H 405.844 0.602075 -4.83969 0
M  V30 4213 H 404.849 -1.66795 -5.23889 0
M  V30 4214 H 406.074 -1.98891 -6.49322 0
M  V30 4215 H 404.02 0.254252 -6.55507 0
M  V30 4216 H 403.937 -1.2211 -7.46073 0
M  V30 4217 H 405.205 -0.0797596 -7.79459 0
M  V30 4218 N 409.434 1.37368 -0.772513 0
M  V30 4219 C 410.382 2.32134 -0.147111 0
M  V30 4220 C 411.376 1.54972 0.684106 0
M  V30 4221 O 412.582 1.70363 0.581083 0
M  V30 4222 H 408.957 0.751449 -0.028786 0
M  V30 4223 H 410.928 2.82464 -0.962112 0
M  V30 4224 C 409.677 3.40226 0.71703 0
M  V30 4225 H 409 3.99706 0.0867951 0
M  V30 4226 H 410.44 4.08897 1.12159 0
M  V30 4227 C 408.899 2.80372 1.86797 0
M  V30 4228 O 409.429 2.71183 2.96349 0
M  V30 4229 N 407.635 2.37904 1.66883 0
M  V30 4230 H 407.182 2.45578 0.777759 0
M  V30 4231 H 407.14 1.98202 2.44056 0
M  V30 4232 N 410.912 0.523116 1.48665 0
M  V30 4233 C 412.16 -0.0134497 2.02096 0
M  V30 4234 C 412.481 -1.35418 1.40311 0
M  V30 4235 O 411.751 -1.87543 0.566074 0
M  V30 4236 H 410.331 -0.00795915 0.746958 0
M  V30 4237 H 412.993 0.685388 1.82451 0
M  V30 4238 H 412.089 -0.126849 3.11842 0
M  V30 4239 N 412.39 -1.55475 0.257931 0
M  V30 4240 C 413.618 -2.03609 -0.367559 0
M  V30 4241 C 414.033 -1.13687 -1.50734 0
M  V30 4242 O 413.39 -0.153479 -1.81853 0
M  V30 4243 C 413.441 -3.51001 -0.864908 0
M  V30 4244 O 413.162 -4.37499 0.229465 0
M  V30 4245 C 414.663 -4.14946 -1.55997 0
M  V30 4246 H 411.883 -0.665459 -0.0860521 0
M  V30 4247 H 414.427 -2.00843 0.385014 0
M  V30 4248 H 412.582 -3.54266 -1.56762 0
M  V30 4249 H 412.996 -5.24286 -0.14998 0
M  V30 4250 H 414.47 -5.19735 -1.85956 0
M  V30 4251 H 414.947 -3.6209 -2.4857 0
M  V30 4252 H 415.553 -4.15635 -0.901543 0
M  V30 4253 N 413.868 0.0150385 -1.57593 0
M  V30 4254 C 414.816 1.02958 -2.08572 0
M  V30 4255 C 415.81 1.36554 -1.00246 0
M  V30 4256 O 417.016 1.35295 -1.18724 0
M  V30 4257 H 413.391 0.349619 -0.665786 0
M  V30 4258 H 415.362 0.573932 -2.92829 0
M  V30 4259 C 414.111 2.31752 -2.59203 0
M  V30 4260 H 413.434 2.06765 -3.42182 0
M  V30 4261 H 414.874 3.01053 -2.98568 0
M  V30 4262 C 413.333 3.01692 -1.49945 0
M  V30 4263 O 413.863 3.92083 -0.873704 0
M  V30 4264 N 412.069 2.6326 -1.23056 0
M  V30 4265 H 411.616 1.89838 -1.74125 0
M  V30 4266 H 411.574 3.10372 -0.501685 0
M  V30 4267 N 415.346 1.54954 0.287554 0
M  V30 4268 C 416.276 1.89839 1.35954 0
M  V30 4269 C 417.257 0.758675 1.52244 0
M  V30 4270 O 418.442 1.01557 1.65529 0
M  V30 4271 C 415.572 2.15753 2.72154 0
M  V30 4272 C 414.526 3.3159 2.70614 0
M  V30 4273 C 413.852 3.42952 4.10229 0
M  V30 4274 C 415.152 4.68359 2.31165 0
M  V30 4275 H 416.846 2.79625 1.07007 0
M  V30 4276 H 414.392 1.3454 0.513316 0
M  V30 4277 H 416.345 2.38743 3.47246 0
M  V30 4278 H 415.069 1.22752 3.02654 0
M  V30 4279 H 413.728 3.08545 1.97979 0
M  V30 4280 H 413.376 2.47443 4.37928 0
M  V30 4281 H 413.076 4.20826 4.10097 0
M  V30 4282 H 414.6 3.68218 4.87081 0
M  V30 4283 H 416.014 4.9099 2.95976 0
M  V30 4284 H 414.411 5.49044 2.42221 0
M  V30 4285 H 415.481 4.68165 1.26291 0
M  V30 4286 N 416.824 -0.551391 1.4764 0
M  V30 4287 C 418.071 -1.3083 1.54563 0
M  V30 4288 C 418.399 -1.93359 0.210361 0
M  V30 4289 O 417.654 -1.78721 -0.797332 0
M  V30 4290 C 417.953 -2.43469 2.61644 0
M  V30 4291 C 417.619 -1.98732 4.04742 0
M  V30 4292 C 416.281 -1.86248 4.43695 0
M  V30 4293 C 418.633 -1.64659 4.94507 0
M  V30 4294 C 415.961 -1.37995 5.70241 0
M  V30 4295 C 418.313 -1.17875 6.21521 0
M  V30 4296 C 416.977 -1.03992 6.5935 0
M  V30 4297 H 416.247 -0.478741 0.565587 0
M  V30 4298 H 418.894 -0.617697 1.81264 0
M  V30 4299 H 417.199 -3.18109 2.28722 0
M  V30 4300 H 418.896 -3.01642 2.64222 0
M  V30 4301 H 415.486 -2.09393 3.73968 0
M  V30 4302 H 419.67 -1.73174 4.65107 0
M  V30 4303 H 414.926 -1.25915 5.98294 0
M  V30 4304 H 419.1 -0.905739 6.90485 0
M  V30 4305 H 416.727 -0.663794 7.57296 0
M  V30 4306 N 418.302 -1.35869 -0.798587 0
M  V30 4307 C 419.527 -1.32883 -1.59238 0
M  V30 4308 C 419.952 0.0894587 -1.87887 0
M  V30 4309 O 419.31 1.05869 -1.47178 0
M  V30 4310 C 419.358 -2.14892 -2.89575 0
M  V30 4311 O 418.462 -1.53512 -3.82763 0
M  V30 4312 H 417.803 -0.455236 -0.48338 0
M  V30 4313 H 420.333 -1.79024 -0.990539 0
M  V30 4314 H 420.343 -2.27139 -3.38928 0
M  V30 4315 H 419.018 -3.17998 -2.68049 0
M  V30 4316 H 417.595 -1.50153 -3.41334 0
M  V30 4317 N 419.78 1.02168 -1.19998 0
M  V30 4318 C 421.028 1.75338 -1.00504 0
M  V30 4319 C 421.349 1.89387 0.464506 0
M  V30 4320 O 420.619 1.43268 1.33608 0
M  V30 4321 H 419.199 0.649564 -0.368885 0
M  V30 4322 H 421.861 1.23205 -1.51018 0
M  V30 4323 H 420.957 2.75892 -1.45912 0
M  V30 4324 N 421.258 1.00505 1.21394 0
M  V30 4325 C 422.535 0.603277 1.86064 0
M  V30 4326 C 422.915 -0.919095 1.90042 0
M  V30 4327 O 422.263 -1.80607 1.39977 0
M  V30 4328 C 422.473 1.23772 3.26315 0
M  V30 4329 C 423.821 1.34586 4.02705 0
M  V30 4330 O 424.845 1.19304 3.35626 0
M  V30 4331 O 423.704 1.59169 5.22807 0
M  V30 4332 H 420.798 0.206634 0.800769 0
M  V30 4333 H 423.344 1.1017 1.29076 0
M  V30 4334 H 422.116 2.27848 3.18121 0
M  V30 4335 H 421.739 0.725648 3.90922 0
M  V30 4336 N 422.737 -1.36956 0.779787 0
M  V30 4337 C 423.684 -2.30175 0.169697 0
M  V30 4338 C 424.654 -1.51501 -0.68094 0
M  V30 4339 O 425.839 -1.80042 -0.631629 0
M  V30 4340 C 422.979 -3.37985 -0.697131 0
M  V30 4341 C 422.092 -4.31661 0.170992 0
M  V30 4342 C 421.227 -5.2655 -0.701298 0
M  V30 4343 C 420.266 -6.11867 0.168869 0
M  V30 4344 N 419.403 -6.98973 -0.661855 0
M  V30 4345 H 424.243 -2.81767 0.970135 0
M  V30 4346 H 421.78 -1.38699 0.489994 0
M  V30 4347 H 423.738 -3.99128 -1.2146 0
M  V30 4348 H 422.368 -2.87739 -1.46309 0
M  V30 4349 H 421.42 -3.71756 0.80634 0
M  V30 4350 H 422.732 -4.91644 0.841875 0
M  V30 4351 H 421.886 -5.92937 -1.28494 0
M  V30 4352 H 420.625 -4.66998 -1.40584 0
M  V30 4353 H 419.63 -5.44452 0.764986 0
M  V30 4354 H 420.855 -6.73493 0.870863 0
M  V30 4355 H 418.801 -6.41941 -1.35086 0
M  V30 4356 H 418.718 -7.55984 -0.0484447 0
M  V30 4357 H 419.986 -7.6974 -1.22963 0
M  V30 4358 N 424.215 -0.530993 -1.48385 0
M  V30 4359 C 425.445 -0.00133928 -2.066 0
M  V30 4360 C 425.853 1.28599 -1.38777 0
M  V30 4361 O 425.196 1.77599 -0.469495 0
M  V30 4362 C 425.258 0.292137 -3.58311 0
M  V30 4363 C 424.922 -0.901864 -4.48013 0
M  V30 4364 C 425.919 -1.80053 -4.87726 0
M  V30 4365 C 423.604 -1.10915 -4.89901 0
M  V30 4366 C 425.598 -2.89038 -5.68098 0
M  V30 4367 C 423.285 -2.20213 -5.70043 0
M  V30 4368 C 424.283 -3.09107 -6.0905 0
M  V30 4369 O 423.971 -4.16514 -6.87583 0
M  V30 4370 H 423.703 -0.0308475 -0.675296 0
M  V30 4371 H 426.257 -0.736335 -1.91748 0
M  V30 4372 H 424.487 1.08112 -3.7128 0
M  V30 4373 H 426.176 0.763994 -3.98645 0
M  V30 4374 H 426.942 -1.65234 -4.55986 0
M  V30 4375 H 422.821 -0.426498 -4.59023 0
M  V30 4376 H 426.365 -3.58451 -5.98464 0
M  V30 4377 H 422.262 -2.35016 -6.01197 0
M  V30 4378 H 423.03 -4.14237 -7.05939 0
M  V30 4379 N 425.693 1.55336 -0.266172 0
M  V30 4380 C 426.656 2.20878 0.612001 0
M  V30 4381 C 427.656 1.18388 1.08816 0
M  V30 4382 O 428.846 1.4335 0.989774 0
M  V30 4383 C 425.978 2.86765 1.84332 0
M  V30 4384 H 427.171 2.99873 0.0398718 0
M  V30 4385 H 424.724 1.56291 -0.0167309 0
M  V30 4386 H 425.459 2.11759 2.45619 0
M  V30 4387 H 425.244 3.61862 1.5099 0
M  V30 4388 H 426.734 3.36867 2.46801 0
M  V30 4389 N 427.171 -0.0066808 1.57599 0
M  V30 4390 C 428.419 -0.691552 1.899 0
M  V30 4391 C 428.74 -1.74682 0.866672 0
M  V30 4392 O 428.01 -1.95661 -0.0968189 0
M  V30 4393 H 426.59 -0.258416 0.700878 0
M  V30 4394 H 429.252 0.0326655 1.94873 0
M  V30 4395 H 428.348 -1.16702 2.8946 0
M  V30 4396 N 428.649 -1.55105 -0.279332 0
M  V30 4397 C 429.579 -1.90557 -1.34945 0
M  V30 4398 C 430.56 -0.766738 -1.51839 0
M  V30 4399 O 431.745 -1.02434 -1.64988 0
M  V30 4400 C 428.875 -2.17193 -2.71006 0
M  V30 4401 C 427.829 -3.33021 -2.68851 0
M  V30 4402 C 427.155 -3.45123 -4.08405 0
M  V30 4403 C 428.455 -4.69578 -2.28678 0
M  V30 4404 H 430.149 -2.80188 -1.05522 0
M  V30 4405 H 427.695 -1.34811 -0.506173 0
M  V30 4406 H 429.648 -2.40581 -3.45975 0
M  V30 4407 H 428.372 -1.24355 -3.01999 0
M  V30 4408 H 427.031 -3.0959 -1.9634 0
M  V30 4409 H 426.679 -2.49762 -4.3661 0
M  V30 4410 H 426.379 -4.22995 -4.07859 0
M  V30 4411 H 427.903 -3.70796 -4.85121 0
M  V30 4412 H 429.317 -4.92553 -2.93368 0
M  V30 4413 H 427.714 -5.5032 -2.39306 0
M  V30 4414 H 428.784 -4.68828 -1.23807 0
M  V30 4415 N 430.127 0.543554 -1.4793 0
M  V30 4416 C 431.352 1.32995 -1.59145 0
M  V30 4417 C 431.777 1.86472 -0.246956 0
M  V30 4418 O 431.135 1.63696 0.779324 0
M  V30 4419 C 431.183 2.46623 -2.63077 0
M  V30 4420 O 430.287 3.49261 -2.19295 0
M  V30 4421 H 429.628 0.394472 -0.534124 0
M  V30 4422 H 432.158 0.655489 -1.93816 0
M  V30 4423 H 432.168 2.93001 -2.83926 0
M  V30 4424 H 430.843 2.07059 -3.60693 0
M  V30 4425 H 429.42 3.09094 -2.08603 0
M  V30 4426 N 431.605 1.3629 0.791371 0
M  V30 4427 C 432.515 1.32606 1.93527 0
M  V30 4428 C 433.531 0.228541 1.72493 0
M  V30 4429 O 434.707 0.460571 1.96063 0
M  V30 4430 C 431.772 1.11271 3.28359 0
M  V30 4431 C 430.833 2.3048 3.62185 0
M  V30 4432 C 430.066 2.10154 4.90583 0
M  V30 4433 O 430.289 1.07572 5.60165 0
M  V30 4434 O 429.223 2.97884 5.23019 0
M  V30 4435 H 433.049 2.28909 1.99585 0
M  V30 4436 H 430.634 1.16818 0.931344 0
M  V30 4437 H 432.516 1.01283 4.09047 0
M  V30 4438 H 431.191 0.180292 3.23198 0
M  V30 4439 H 430.098 2.46036 2.81811 0
M  V30 4440 H 431.431 3.22221 3.72068 0
M  V30 4441 N 433.083 -1.0153 1.20538 0
M  V30 4442 C 434.015 -2.10224 0.913155 0
M  V30 4443 C 435.028 -1.62495 -0.0995998 0
M  V30 4444 O 436.217 -1.78014 0.131582 0
M  V30 4445 C 433.317 -3.37111 0.347717 0
M  V30 4446 C 432.49 -4.13971 1.41233 0
M  V30 4447 C 431.549 -5.19158 0.857976 0
M  V30 4448 O 430.575 -5.48 1.53897 0
M  V30 4449 N 431.777 -5.7955 -0.331966 0
M  V30 4450 H 434.542 -2.35879 1.84881 0
M  V30 4451 H 432.103 -1.17931 1.10923 0
M  V30 4452 H 434.095 -4.04683 -0.0373026 0
M  V30 4453 H 432.665 -3.08696 -0.492527 0
M  V30 4454 H 431.885 -3.41351 1.97163 0
M  V30 4455 H 433.173 -4.62103 2.12928 0
M  V30 4456 H 432.571 -5.58455 -0.902478 0
M  V30 4457 H 431.128 -6.48464 -0.65861 0
M  V30 4458 N 434.561 -1.01147 -1.20859 0
M  V30 4459 C 435.524 -0.582224 -2.21682 0
M  V30 4460 C 436.524 0.344887 -1.57058 0
M  V30 4461 O 437.714 0.134281 -1.73682 0
M  V30 4462 C 434.846 0.150496 -3.40568 0
M  V30 4463 H 436.039 -1.47408 -2.61172 0
M  V30 4464 H 433.592 -0.800695 -1.34233 0
M  V30 4465 H 434.327 1.0575 -3.06574 0
M  V30 4466 H 434.112 -0.515444 -3.88697 0
M  V30 4467 H 435.602 0.438344 -4.15293 0
M  V30 4468 N 436.039 1.36541 -0.78704 0
M  V30 4469 C 436.969 2.32659 -0.197992 0
M  V30 4470 C 437.95 1.56533 0.665697 0
M  V30 4471 O 439.135 1.84698 0.60001 0
M  V30 4472 C 436.265 3.40778 0.669901 0
M  V30 4473 C 435.219 4.27897 -0.0937039 0
M  V30 4474 C 434.545 5.27163 0.894629 0
M  V30 4475 C 435.845 5.06334 -1.28154 0
M  V30 4476 H 437.539 2.82171 -1.00099 0
M  V30 4477 H 435.085 1.35665 -0.482793 0
M  V30 4478 H 437.038 4.07008 1.09191 0
M  V30 4479 H 435.762 2.89827 1.50558 0
M  V30 4480 H 434.421 3.6322 -0.49666 0
M  V30 4481 H 434.069 4.72486 1.72527 0
M  V30 4482 H 433.769 5.86317 0.388149 0
M  V30 4483 H 435.293 5.96266 1.31525 0
M  V30 4484 H 436.707 5.65617 -0.93541 0
M  V30 4485 H 435.104 5.74888 -1.72115 0
M  V30 4486 H 436.174 4.38114 -2.07807 0
M  V30 4487 N 437.518 0.538854 1.48102 0
M  V30 4488 C 438.748 0.0122958 2.06596 0
M  V30 4489 C 439.156 -1.27861 1.39457 0
M  V30 4490 O 438.499 -1.77348 0.478907 0
M  V30 4491 C 438.561 -0.273131 3.58461 0
M  V30 4492 C 438.225 0.92561 4.47528 0
M  V30 4493 C 439.222 1.82637 4.86765 0
M  V30 4494 C 436.907 1.13511 4.89306 0
M  V30 4495 C 438.901 2.92047 5.66558 0
M  V30 4496 C 436.588 2.23233 5.68868 0
M  V30 4497 C 437.586 3.12333 6.07402 0
M  V30 4498 O 437.274 4.20155 6.85365 0
M  V30 4499 H 437.006 0.0344283 0.675123 0
M  V30 4500 H 439.56 0.746494 1.91355 0
M  V30 4501 H 437.79 -1.06141 3.71848 0
M  V30 4502 H 439.479 -0.742842 3.99045 0
M  V30 4503 H 440.245 1.67649 4.55103 0
M  V30 4504 H 436.124 0.450835 4.5879 0
M  V30 4505 H 439.668 3.6162 5.96554 0
M  V30 4506 H 435.565 2.38201 5.99942 0
M  V30 4507 H 436.333 4.17975 7.03732 0
M  V30 4508 N 438.996 -1.55193 0.274407 0
M  V30 4509 C 440.226 -2.03692 -0.345442 0
M  V30 4510 C 440.634 -1.15224 -1.50067 0
M  V30 4511 O 439.977 -0.164749 -1.8296 0
M  V30 4512 C 440.039 -3.48325 -0.88939 0
M  V30 4513 C 439.703 -4.56794 0.137115 0
M  V30 4514 C 440.7 -5.11028 0.956378 0
M  V30 4515 C 438.385 -5.01568 0.27115 0
M  V30 4516 C 440.379 -6.08552 1.89587 0
M  V30 4517 C 438.066 -5.98918 1.21412 0
M  V30 4518 C 439.064 -6.52291 2.02498 0
M  V30 4519 O 438.752 -7.47738 2.952 0
M  V30 4520 H 438.484 -0.670893 -0.0829332 0
M  V30 4521 H 441.038 -2.01387 0.404056 0
M  V30 4522 H 439.268 -3.47867 -1.68895 0
M  V30 4523 H 440.957 -3.80167 -1.42225 0
M  V30 4524 H 441.723 -4.7725 0.863559 0
M  V30 4525 H 437.602 -4.5967 -0.349987 0
M  V30 4526 H 441.146 -6.50137 2.52918 0
M  V30 4527 H 437.043 -6.32114 1.30776 0
M  V30 4528 H 437.811 -7.65451 2.89874 0
M  V30 4529 N 440.474 -0.00167713 -1.576 0
M  V30 4530 C 441.723 0.682021 -1.89819 0
M  V30 4531 C 442.036 1.74844 -0.876871 0
M  V30 4532 O 443.242 2.48688 -1.08934 0
M  V30 4533 C 441.698 1.26425 -3.36964 0
M  V30 4534 C 441.306 0.232568 -4.47396 0
M  V30 4535 C 443.05 1.92604 -3.78291 0
M  V30 4536 C 440.957 0.824882 -5.85619 0
M  V30 4537 H 439.887 0.258499 -0.708304 0
M  V30 4538 H 442.538 -0.0624957 -1.83394 0
M  V30 4539 H 440.92 2.05949 -3.38232 0
M  V30 4540 H 442.094 -0.5382 -4.57646 0
M  V30 4541 H 440.409 -0.32888 -4.15099 0
M  V30 4542 H 443.006 2.37827 -4.78897 0
M  V30 4543 H 443.349 2.75732 -3.11894 0
M  V30 4544 H 443.882 1.19812 -3.79328 0
M  V30 4545 H 440.621 0.0323542 -6.55492 0
M  V30 4546 H 440.141 1.56477 -5.79029 0
M  V30 4547 H 441.82 1.32301 -6.33329 0
M  V30 4548 N 441.952 1.55251 0.271103 0
M  V30 4549 C 443.2 1.75599 1.00047 0
M  V30 4550 C 443.521 0.561188 1.8675 0
M  V30 4551 O 442.791 -0.423846 1.9126 0
M  V30 4552 H 441.371 0.647562 0.372387 0
M  V30 4553 H 444.033 1.92656 0.294876 0
M  V30 4554 H 443.129 2.65766 1.6363 0
M  V30 4555 N 443.43 -0.535701 1.48216 0
M  V30 4556 C 444.678 -1.28928 1.55634 0
M  V30 4557 C 444.999 -1.93645 0.229514 0
M  V30 4558 O 444.269 -1.81038 -0.74846 0
M  V30 4559 H 442.849 -0.47884 0.573342 0
M  V30 4560 H 445.511 -0.623853 1.84646 0
M  V30 4561 H 444.607 -2.07157 2.33436 0
M  V30 4562 N 444.908 -1.36708 -0.784132 0
M  V30 4563 C 446.154 -1.31426 -1.54451 0
M  V30 4564 C 446.487 0.10476 -1.93917 0
M  V30 4565 O 445.762 1.05934 -1.6312 0
M  V30 4566 C 446.045 -2.24189 -2.818 0
M  V30 4567 C 445.898 -3.74813 -2.48667 0
M  V30 4568 C 447.217 -2.15626 -3.83658 0
M  V30 4569 H 444.336 -0.478739 -0.560337 0
M  V30 4570 H 446.978 -1.67305 -0.900498 0
M  V30 4571 H 445.128 -1.93722 -3.36755 0
M  V30 4572 H 446.8 -4.15823 -1.99722 0
M  V30 4573 H 445.043 -3.93989 -1.81535 0
M  V30 4574 H 445.714 -4.35138 -3.39646 0
M  V30 4575 H 448.19 -2.42456 -3.38163 0
M  V30 4576 H 447.066 -2.82694 -4.70506 0
M  V30 4577 H 447.327 -1.14522 -4.27009 0
M  V30 4578 N 446.386 1.0089 -1.21074 0
M  V30 4579 C 447.635 1.74019 -1.01981 0
M  V30 4580 C 447.948 1.90408 0.447665 0
M  V30 4581 O 449.154 2.60707 0.757906 0
M  V30 4582 C 447.61 3.13026 -1.77603 0
M  V30 4583 C 447.218 3.04623 -3.28495 0
M  V30 4584 C 448.962 3.90312 -1.66904 0
M  V30 4585 C 446.869 4.38685 -3.96623 0
M  V30 4586 H 445.799 0.652422 -0.377971 0
M  V30 4587 H 448.45 1.12755 -1.44771 0
M  V30 4588 H 446.832 3.74878 -1.27604 0
M  V30 4589 H 448.006 2.52032 -3.85767 0
M  V30 4590 H 446.321 2.40827 -3.39693 0
M  V30 4591 H 448.918 4.8951 -2.15138 0
M  V30 4592 H 449.261 4.11558 -0.62658 0
M  V30 4593 H 449.794 3.35104 -2.14359 0
M  V30 4594 H 446.533 4.22641 -5.01054 0
M  V30 4595 H 446.053 4.91252 -3.4414 0
M  V30 4596 H 447.732 5.075 -4.01314 0
M  V30 4597 N 447.864 1.01787 1.20321 0
M  V30 4598 C 448.811 0.589197 2.23153 0
M  V30 4599 C 449.781 -0.391367 1.61423 0
M  V30 4600 O 450.966 -0.290518 1.88575 0
M  V30 4601 C 448.106 -0.0650747 3.45039 0
M  V30 4602 C 447.219 0.960207 4.21194 0
M  V30 4603 C 446.354 0.276854 5.30478 0
M  V30 4604 C 445.393 1.2888 5.98378 0
M  V30 4605 N 444.53 0.632031 6.99249 0
M  V30 4606 H 449.37 1.47071 2.59179 0
M  V30 4607 H 446.907 0.736192 1.27352 0
M  V30 4608 H 448.865 -0.461552 4.14639 0
M  V30 4609 H 447.495 -0.910233 3.09701 0
M  V30 4610 H 446.547 1.47484 3.50646 0
M  V30 4611 H 447.859 1.72977 4.67847 0
M  V30 4612 H 447.013 -0.175056 6.06447 0
M  V30 4613 H 445.752 -0.525004 4.84866 0
M  V30 4614 H 444.757 1.75109 5.21169 0
M  V30 4615 H 445.982 2.09196 6.46076 0
M  V30 4616 H 443.928 -0.149935 6.55829 0
M  V30 4617 H 443.845 1.33964 7.44036 0
M  V30 4618 H 445.113 0.203755 7.79234 0
M  V30 4619 N 449.342 -1.36122 0.79427 0
M  V30 4620 C 450.292 -2.27373 0.169017 0
M  V30 4621 C 451.276 -1.4719 -0.649913 0
M  V30 4622 O 452.468 -1.69518 -0.50919 0
M  V30 4623 C 449.597 -3.36264 -0.691455 0
M  V30 4624 C 448.683 -4.2388 0.13653 0
M  V30 4625 N 449.074 -4.91519 1.19345 0
M  V30 4626 C 447.372 -4.45921 -0.0838499 0
M  V30 4627 C 448.073 -5.56369 1.6979 0
M  V30 4628 N 447.049 -5.34204 1.00634 0
M  V30 4629 H 450.851 -2.77154 0.977897 0
M  V30 4630 H 448.365 -1.49504 0.634208 0
M  V30 4631 H 450.362 -4.00572 -1.15534 0
M  V30 4632 H 449.022 -2.88037 -1.49883 0
M  V30 4633 H 450.033 -4.9334 1.57594 0
M  V30 4634 H 446.71 -4.08518 -0.861341 0
M  V30 4635 H 448.1 -6.20368 2.58055 0
M  V30 4636 N 450.82 -0.546701 -1.47814 0
M  V30 4637 C 451.783 0.196287 -2.28358 0
M  V30 4638 C 452.783 0.852437 -1.36346 0
M  V30 4639 O 453.973 0.709913 -1.59078 0
M  V30 4640 C 451.105 1.28579 -3.15722 0
M  V30 4641 H 452.298 -0.511086 -2.95513 0
M  V30 4642 H 449.851 -0.303248 -1.5333 0
M  V30 4643 H 450.586 2.0259 -2.53235 0
M  V30 4644 H 450.371 0.820229 -3.83425 0
M  V30 4645 H 451.861 1.80793 -3.76435 0
M  V30 4646 N 452.299 1.55045 -0.282633 0
M  V30 4647 C 453.246 2.22822 0.601566 0
M  V30 4648 C 454.216 1.20431 1.14392 0
M  V30 4649 O 455.401 1.48996 1.19184 0
M  V30 4650 C 452.541 2.95873 1.77632 0
M  V30 4651 C 451.654 4.12999 1.26711 0
M  V30 4652 C 450.789 4.73676 2.40426 0
M  V30 4653 C 449.828 5.82981 1.86545 0
M  V30 4654 N 448.965 6.3769 2.93762 0
M  V30 4655 H 453.805 2.97995 0.0169528 0
M  V30 4656 H 451.342 1.471 -0.00339964 0
M  V30 4657 H 453.3 3.36447 2.46697 0
M  V30 4658 H 451.93 2.2311 2.33285 0
M  V30 4659 H 450.982 3.77494 0.469314 0
M  V30 4660 H 452.294 4.91803 0.832518 0
M  V30 4661 H 451.448 5.17008 3.17471 0
M  V30 4662 H 450.187 3.94164 2.87203 0
M  V30 4663 H 449.192 5.39092 1.07983 0
M  V30 4664 H 450.417 6.64366 1.40694 0
M  V30 4665 H 448.363 5.61069 3.39908 0
M  V30 4666 H 448.28 7.11788 2.54744 0
M  V30 4667 H 449.548 6.8568 3.7076 0
M  V30 4668 N 453.777 0.010035 1.57597 0
M  V30 4669 C 454.74 -0.963029 2.07986 0
M  V30 4670 C 455.74 -1.26619 0.991173 0
M  V30 4671 O 456.93 -1.2097 1.25347 0
M  V30 4672 C 454.062 -2.2851 2.52974 0
M  V30 4673 H 455.255 -0.526971 2.95234 0
M  V30 4674 H 452.808 -0.237639 1.54483 0
M  V30 4675 H 453.543 -2.76784 1.69 0
M  V30 4676 H 453.328 -2.07824 3.32493 0
M  V30 4677 H 454.818 -2.98294 2.9225 0
M  V30 4678 N 455.255 -1.55392 -0.262866 0
M  V30 4679 C 456.504 -1.75679 -0.990943 0
M  V30 4680 C 456.817 -0.57097 -1.87081 0
M  V30 4681 O 458.023 -0.656486 -2.63444 0
M  V30 4682 C 456.479 -3.10964 -1.81188 0
M  V30 4683 C 456.087 -4.37146 -0.980188 0
M  V30 4684 C 457.831 -3.40597 -2.53365 0
M  V30 4685 C 455.738 -5.63466 -1.7961 0
M  V30 4686 H 454.668 -0.654868 -0.373716 0
M  V30 4687 H 457.319 -1.81841 -0.246203 0
M  V30 4688 H 455.701 -2.98867 -2.59797 0
M  V30 4689 H 456.875 -4.60187 -0.237558 0
M  V30 4690 H 455.19 -4.14731 -0.372497 0
M  V30 4691 H 457.787 -4.32186 -3.14833 0
M  V30 4692 H 458.13 -2.6119 -3.24169 0
M  V30 4693 H 458.663 -3.53838 -1.81779 0
M  V30 4694 H 455.402 -6.4565 -1.13209 0
M  V30 4695 H 454.922 -5.44552 -2.51443 0
M  V30 4696 H 456.601 -6.02139 -2.36723 0
M  V30 4697 N 456.733 0.527833 -1.48498 0
M  V30 4698 C 457.681 1.65313 -1.63628 0
M  V30 4699 C 458.675 1.6177 -0.502676 0
M  V30 4700 O 459.881 1.66601 -0.681469 0
M  V30 4701 H 456.256 0.547518 -0.515488 0
M  V30 4702 H 458.227 1.49696 -2.58135 0
M  V30 4703 C 456.976 3.03576 -1.6952 0
M  V30 4704 H 456.299 3.06997 -2.56111 0
M  V30 4705 H 457.739 3.81923 -1.84149 0
M  V30 4706 C 456.198 3.34089 -0.43432 0
M  V30 4707 O 456.728 3.99151 0.451852 0
M  V30 4708 N 454.934 2.88991 -0.305368 0
M  V30 4709 H 454.481 2.36222 -1.02747 0
M  V30 4710 H 454.439 3.09776 0.537249 0
M  V30 4711 N 458.211 1.37122 0.776871 0
M  V30 4712 C 459.174 1.32301 1.8716 0
M  V30 4713 C 460.174 0.228099 1.59174 0
M  V30 4714 O 461.364 0.483642 1.67352 0
M  V30 4715 C 458.496 1.054 3.24197 0
M  V30 4716 H 459.689 2.29673 1.92848 0
M  V30 4717 H 457.242 1.22077 0.97606 0
M  V30 4718 H 457.977 0.0853872 3.24188 0
M  V30 4719 H 457.762 1.84648 3.45901 0
M  V30 4720 H 459.252 1.04664 4.04271 0
M  V30 4721 N 459.689 -1.00246 1.21608 0
M  V30 4722 C 460.619 -2.10921 1.00172 0
M  V30 4723 C 461.6 -1.69938 -0.0741587 0
M  V30 4724 O 462.785 -1.94009 0.0861753 0
M  V30 4725 C 459.915 -3.42618 0.568355 0
M  V30 4726 C 458.869 -3.97407 1.58909 0
M  V30 4727 C 458.195 -5.25038 1.01187 0
M  V30 4728 C 459.495 -4.2918 2.97661 0
M  V30 4729 H 461.189 -2.29112 1.92739 0
M  V30 4730 H 458.735 -1.10101 0.928102 0
M  V30 4731 H 460.688 -4.19444 0.405555 0
M  V30 4732 H 459.412 -3.24227 -0.392961 0
M  V30 4733 H 458.071 -3.22703 1.73949 0
M  V30 4734 H 457.719 -5.02982 0.0421965 0
M  V30 4735 H 457.419 -5.62661 1.6937 0
M  V30 4736 H 458.943 -6.04507 0.860448 0
M  V30 4737 H 460.357 -4.96839 2.86049 0
M  V30 4738 H 458.754 -4.77952 3.6288 0
M  V30 4739 H 459.824 -3.3735 3.48315 0
M  V30 4740 N 461.167 -1.02423 -1.1978 0
M  V30 4741 C 462.13 -0.605703 -2.21052 0
M  V30 4742 C 463.13 0.328209 -1.57415 0
M  V30 4743 O 464.32 0.115853 -1.73814 0
M  V30 4744 C 461.452 0.114366 -3.40708 0
M  V30 4745 H 462.645 -1.5017 -2.59594 0
M  V30 4746 H 460.198 -0.814888 -1.33376 0
M  V30 4747 H 460.933 1.02492 -3.07678 0
M  V30 4748 H 460.718 -0.556641 -3.88129 0
M  V30 4749 H 462.208 0.394272 -4.15735 0
M  V30 4750 N 462.645 1.35699 -0.801477 0
M  V30 4751 C 463.593 2.3177 -0.196317 0
M  V30 4752 C 464.587 1.56388 0.651081 0
M  V30 4753 O 465.793 1.71557 0.544815 0
M  V30 4754 H 462.168 0.750669 -0.0447189 0
M  V30 4755 H 464.139 2.8036 -1.02181 0
M  V30 4756 C 462.888 3.41671 0.644702 0
M  V30 4757 H 462.211 3.998 0.0019921 0
M  V30 4758 H 463.651 4.11184 1.0346 0
M  V30 4759 C 462.11 2.84271 1.80808 0
M  V30 4760 O 462.64 2.77408 2.9053 0
M  V30 4761 N 460.846 2.41391 1.61799 0
M  V30 4762 H 460.393 2.47173 0.725493 0
M  V30 4763 H 460.351 2.03334 2.39797 0
M  V30 4764 N 464.123 0.554532 1.47522 0
M  V30 4765 C 465.534 0.120446 1.86311 0
M  V30 4766 C 465.885 -1.30904 1.46145 0
M  V30 4767 O 465.01 -1.98434 0.863294 0
M  V30 4768 C 465.605 0.211808 3.38137 0
M  V30 4769 C 464.164 -0.167224 3.76028 0
M  V30 4770 C 463.311 0.560576 2.71575 0
M  V30 4771 H 466.262 0.764408 1.39077 0
M  V30 4772 H 466.283 -0.570275 3.76202 0
M  V30 4773 H 465.795 1.25232 3.6734 0
M  V30 4774 H 463.896 -1.20894 3.52442 0
M  V30 4775 H 464.009 0.189473 4.78725 0
M  V30 4776 H 462.373 0.00396836 2.547 0
M  V30 4777 H 463.156 1.60219 3.0362 0
M  V30 4778 N 465.601 -1.54893 0.290851 0
M  V30 4779 C 466.829 -2.04343 -0.324288 0
M  V30 4780 C 467.244 -1.16859 -1.48289 0
M  V30 4781 O 466.601 -0.192018 -1.81487 0
M  V30 4782 C 466.652 -3.52756 -0.79026 0
M  V30 4783 O 466.373 -4.36913 0.322213 0
M  V30 4784 C 467.874 -4.18161 -1.4716 0
M  V30 4785 H 465.094 -0.667135 -0.0719173 0
M  V30 4786 H 467.638 -1.99981 0.427529 0
M  V30 4787 H 465.793 -3.57511 -1.49213 0
M  V30 4788 H 466.207 -5.24486 -0.0387372 0
M  V30 4789 H 467.681 -5.23562 -1.7489 0
M  V30 4790 H 468.158 -3.67282 -2.40834 0
M  V30 4791 H 468.764 -4.17454 -0.813178 0
M  V30 4792 N 467.08 -0.0183926 -1.57589 0
M  V30 4793 C 468.308 0.673046 -1.95647 0
M  V30 4794 C 468.723 1.66275 -0.894312 0
M  V30 4795 O 468.08 1.82072 0.124975 0
M  V30 4796 C 468.131 1.38884 -3.33756 0
M  V30 4797 O 467.852 0.438806 -4.35897 0
M  V30 4798 C 469.353 2.1731 -3.86383 0
M  V30 4799 H 466.573 0.186292 -0.644621 0
M  V30 4800 H 469.117 -0.0749748 -2.04363 0
M  V30 4801 H 467.272 2.08835 -3.26293 0
M  V30 4802 H 467.686 0.945869 -5.15901 0
M  V30 4803 H 469.16 2.62863 -4.85394 0
M  V30 4804 H 469.637 3.00764 -3.20059 0
M  V30 4805 H 470.243 1.52339 -3.97081 0
M  V30 4806 N 468.558 1.5553 0.254621 0
M  V30 4807 C 469.506 1.9048 1.33492 0
M  V30 4808 C 470.5 0.78304 1.50216 0
M  V30 4809 O 471.706 0.967582 1.51782 0
M  V30 4810 H 468.081 0.604846 0.44684 0
M  V30 4811 H 470.052 2.80688 1.01275 0
M  V30 4812 C 468.801 2.20928 2.68489 0
M  V30 4813 H 468.124 3.06742 2.56417 0
M  V30 4814 H 469.564 2.49291 3.42972 0
M  V30 4815 C 468.023 1.023 3.20993 0
M  V30 4816 O 468.553 0.267027 4.00811 0
M  V30 4817 N 466.759 0.815714 2.78917 0
M  V30 4818 H 466.306 1.43217 2.14119 0
M  V30 4819 H 466.264 0.0236532 3.14391 0
M  V30 4820 N 470.036 -0.519951 1.48776 0
M  V30 4821 C 471.261 -1.30447 1.6124 0
M  V30 4822 C 471.686 -1.86055 0.276591 0
M  V30 4823 O 471.044 -1.64915 -0.753183 0
M  V30 4824 C 471.092 -2.42406 2.66967 0
M  V30 4825 O 470.196 -3.45728 2.24824 0
M  V30 4826 H 469.537 -0.385924 0.540332 0
M  V30 4827 H 472.067 -0.624572 1.94834 0
M  V30 4828 H 472.077 -2.88447 2.88552 0
M  V30 4829 H 470.752 -2.01294 3.63941 0
M  V30 4830 H 469.329 -3.05737 2.13494 0
M  V30 4831 N 471.514 -1.37532 -0.769588 0
M  V30 4832 C 472.744 -1.35861 -1.55645 0
M  V30 4833 C 473.152 0.0574398 -1.89113 0
M  V30 4834 O 472.495 1.03021 -1.52093 0
M  V30 4835 C 472.557 -2.13431 -2.89288 0
M  V30 4836 C 472.221 -3.62378 -2.78444 0
M  V30 4837 C 473.218 -4.56215 -2.49326 0
M  V30 4838 C 470.903 -4.05529 -2.96398 0
M  V30 4839 C 472.897 -5.91181 -2.38294 0
M  V30 4840 C 470.584 -5.40579 -2.84987 0
M  V30 4841 C 471.582 -6.33218 -2.55975 0
M  V30 4842 O 471.27 -7.65787 -2.44594 0
M  V30 4843 H 471.002 -0.467001 -0.48876 0
M  V30 4844 H 473.556 -1.81505 -0.961515 0
M  V30 4845 H 471.786 -1.62481 -3.50909 0
M  V30 4846 H 473.475 -2.04368 -3.50697 0
M  V30 4847 H 474.241 -4.24187 -2.35139 0
M  V30 4848 H 470.12 -3.33781 -3.1798 0
M  V30 4849 H 473.664 -6.63457 -2.15571 0
M  V30 4850 H 469.561 -5.72209 -2.98743 0
M  V30 4851 H 470.329 -7.76132 -2.59927 0
M  V30 4852 N 472.992 0.995999 -1.22138 0
M  V30 4853 C 473.939 2.08551 -0.988687 0
M  V30 4854 C 474.909 1.65864 0.0885021 0
M  V30 4855 O 476.094 1.90704 -0.0604589 0
M  V30 4856 C 473.234 3.40374 -0.569191 0
M  V30 4857 C 472.347 3.96421 -1.71681 0
M  V30 4858 C 471.482 5.1639 -1.2456 0
M  V30 4859 C 470.521 5.64567 -2.36497 0
M  V30 4860 N 469.658 6.75777 -1.90445 0
M  V30 4861 H 474.498 2.2779 -1.92135 0
M  V30 4862 H 472.035 1.1168 -0.957388 0
M  V30 4863 H 473.993 4.16068 -0.307166 0
M  V30 4864 H 472.623 3.21145 0.326462 0
M  V30 4865 H 471.675 3.17628 -2.09324 0
M  V30 4866 H 472.987 4.2816 -2.55891 0
M  V30 4867 H 472.141 5.99362 -0.940774 0
M  V30 4868 H 470.88 4.86266 -0.373662 0
M  V30 4869 H 469.885 4.80185 -2.67772 0
M  V30 4870 H 471.11 5.96716 -3.24202 0
M  V30 4871 H 469.056 6.47443 -1.05609 0
M  V30 4872 H 468.973 7.06818 -2.68223 0
M  V30 4873 H 470.241 7.62262 -1.63022 0
M  V30 4874 N 474.47 1.03057 1.19235 0
M  V30 4875 C 475.886 0.747947 1.40989 0
M  V30 4876 C 476.086 -0.666752 1.90149 0
M  V30 4877 O 475.142 -1.43249 2.07933 0
M  V30 4878 C 476.455 1.7855 2.41951 0
M  V30 4879 C 478.003 1.80524 2.55695 0
M  V30 4880 C 478.478 2.83243 3.59913 0
M  V30 4881 N 479.969 2.8207 3.67411 0
M  V30 4882 C 480.704 3.58204 4.47747 0
M  V30 4883 N 480.2 4.44057 5.31775 0
M  V30 4884 N 481.993 3.46738 4.42413 0
M  V30 4885 H 474.144 1.94367 0.856468 0
M  V30 4886 H 476.407 0.840412 0.438647 0
M  V30 4887 H 476.113 2.79973 2.12857 0
M  V30 4888 H 475.987 1.6092 3.41152 0
M  V30 4889 H 478.374 0.79778 2.84112 0
M  V30 4890 H 478.455 2.02229 1.56643 0
M  V30 4891 H 478.099 3.84161 3.32239 0
M  V30 4892 H 478.029 2.58795 4.5862 0
M  V30 4893 H 480.52 2.19803 3.074 0
M  V30 4894 H 480.833 4.98884 5.90199 0
M  V30 4895 H 479.178 4.48129 5.3123 0
M  V30 4896 H 482.369 2.79077 3.75811 0
M  V30 4897 H 482.542 4.06322 5.04783 0
M  V30 4898 N 475.948 -1.35272 0.808662 0
M  V30 4899 C 476.878 -2.32315 0.234981 0
M  V30 4900 C 477.859 -1.57572 -0.64071 0
M  V30 4901 O 479.044 -1.8563 -0.570551 0
M  V30 4902 C 476.174 -3.41801 -0.615601 0
M  V30 4903 C 475.128 -4.27694 0.161767 0
M  V30 4904 C 474.454 -5.28519 -0.810649 0
M  V30 4905 C 475.754 -5.04231 1.36193 0
M  V30 4906 H 477.448 -2.80543 1.04575 0
M  V30 4907 H 474.994 -1.3488 0.504315 0
M  V30 4908 H 476.947 -4.08693 -1.02702 0
M  V30 4909 H 475.671 -2.92186 -1.45928 0
M  V30 4910 H 474.33 -3.62384 0.554382 0
M  V30 4911 H 473.978 -4.75171 -1.64988 0
M  V30 4912 H 473.678 -5.8686 -0.294822 0
M  V30 4913 H 475.202 -5.98283 -1.22023 0
M  V30 4914 H 476.616 -5.64058 1.02528 0
M  V30 4915 H 475.013 -5.72077 1.81239 0
M  V30 4916 H 476.083 -4.34753 2.14751 0
M  V30 4917 N 477.426 -0.562348 -1.47226 0
M  V30 4918 C 478.672 -0.0402761 -2.0276 0
M  V30 4919 C 479.005 1.30823 -1.43523 0
M  V30 4920 O 478.28 1.85249 -0.592705 0
M  V30 4921 C 478.563 0.047311 -3.60069 0
M  V30 4922 C 478.416 -1.32865 -4.29729 0
M  V30 4923 C 479.735 0.758182 -4.3352 0
M  V30 4924 H 476.854 -0.0161105 -0.736824 0
M  V30 4925 H 479.496 -0.725628 -1.75598 0
M  V30 4926 H 477.646 0.630986 -3.83342 0
M  V30 4927 H 479.318 -1.95593 -4.17781 0
M  V30 4928 H 477.561 -1.90195 -3.89882 0
M  V30 4929 H 478.232 -1.22004 -5.38349 0
M  V30 4930 H 480.708 0.262546 -4.15271 0
M  V30 4931 H 479.584 0.78844 -5.43208 0
M  V30 4932 H 479.845 1.81537 -4.03109 0
M  V30 4933 N 478.904 1.54736 -0.299062 0
M  V30 4934 C 480.315 1.8569 0.193971 0
M  V30 4935 C 480.666 1.22101 1.53577 0
M  V30 4936 O 479.791 0.51799 2.10109 0
M  V30 4937 C 480.386 3.36895 0.358733 0
M  V30 4938 C 478.945 3.67887 0.795986 0
M  V30 4939 C 478.092 2.77131 -0.096807 0
M  V30 4940 H 481.043 1.49934 -0.520134 0
M  V30 4941 H 481.064 3.61294 1.19361 0
M  V30 4942 H 480.576 3.83148 -0.617998 0
M  V30 4943 H 478.677 3.27151 1.78334 0
M  V30 4944 H 478.79 4.75114 0.616718 0
M  V30 4945 H 477.154 2.51153 0.423581 0
M  V30 4946 H 477.937 3.26204 -1.06986 0
M  V30 4947 N 480.382 0.0267497 1.57577 0
M  V30 4948 C 481.63 -0.651116 1.91324 0
M  V30 4949 C 481.951 -1.72804 0.90353 0
M  V30 4950 O 481.221 -1.95822 -0.0552946 0
M  V30 4951 H 479.801 -0.243491 0.706202 0
M  V30 4952 H 482.463 0.0739935 1.94759 0
M  V30 4953 H 481.559 -1.10536 2.9187 0
M  V30 4954 N 481.861 -1.55662 -0.24637 0
M  V30 4955 C 483.091 -1.81312 -0.990438 0
M  V30 4956 C 483.499 -0.600234 -1.79426 0
M  V30 4957 O 482.842 0.440537 -1.78339 0
M  V30 4958 C 482.904 -3.0032 -1.97607 0
M  V30 4959 C 482.568 -4.36322 -1.35912 0
M  V30 4960 C 483.565 -5.14295 -0.761348 0
M  V30 4961 C 481.25 -4.83019 -1.37833 0
M  V30 4962 C 483.244 -6.37114 -0.190998 0
M  V30 4963 C 480.931 -6.05786 -0.804128 0
M  V30 4964 C 481.929 -6.82672 -0.211489 0
M  V30 4965 O 481.617 -8.03121 0.353845 0
M  V30 4966 H 481.349 -0.607233 -0.297058 0
M  V30 4967 H 483.903 -2.0356 -0.274351 0
M  V30 4968 H 482.133 -2.73829 -2.73047 0
M  V30 4969 H 483.822 -3.13057 -2.58361 0
M  V30 4970 H 484.588 -4.79337 -0.739013 0
M  V30 4971 H 480.467 -4.23165 -1.829 0
M  V30 4972 H 484.011 -6.97069 0.272206 0
M  V30 4973 H 479.908 -6.40222 -0.823792 0
M  V30 4974 H 480.676 -8.18131 0.245761 0
M  V30 4975 N 483.339 0.512053 -1.4905 0
M  V30 4976 C 484.249 1.64139 -1.67617 0
M  V30 4977 C 485.265 1.64786 -0.558701 0
M  V30 4978 O 486.441 1.8341 -0.832034 0
M  V30 4979 C 483.506 3.00548 -1.72835 0
M  V30 4980 C 482.567 3.10615 -2.96339 0
M  V30 4981 C 481.8 4.40517 -3.01298 0
M  V30 4982 O 482.023 5.28671 -2.14157 0
M  V30 4983 O 480.957 4.55325 -3.93653 0
M  V30 4984 H 484.783 1.51407 -2.63267 0
M  V30 4985 H 482.368 0.687131 -1.32661 0
M  V30 4986 H 484.25 3.81641 -1.78683 0
M  V30 4987 H 482.925 3.13566 -0.803616 0
M  V30 4988 H 481.832 2.2875 -2.96014 0
M  V30 4989 H 483.165 3.0252 -3.88256 0
M  V30 4990 N 484.817 1.37938 0.762283 0
M  V30 4991 C 485.78 1.34279 1.85747 0
M  V30 4992 C 486.78 0.244969 1.58923 0
M  V30 4993 O 487.97 0.501365 1.66829 0
M  V30 4994 C 485.102 1.08833 3.23061 0
M  V30 4995 H 486.295 2.31705 1.90401 0
M  V30 4996 H 483.848 1.23105 0.963057 0
M  V30 4997 H 484.583 0.119767 3.24079 0
M  V30 4998 H 484.368 1.88306 3.43923 0
M  V30 4999 H 485.858 1.08946 4.03138 0
M  V30 5000 N 486.295 -0.989507 1.22664 0
M  V30 5001 C 487.706 -1.54406 1.04955 0
M  V30 5002 C 488.057 -1.92366 -0.385951 0
M  V30 5003 O 487.182 -1.75111 -1.27142 0
M  V30 5004 C 487.777 -2.80578 1.89899 0
M  V30 5005 C 486.336 -3.32464 1.76478 0
M  V30 5006 C 485.483 -2.05524 1.86159 0
M  V30 5007 H 488.434 -0.810211 1.3646 0
M  V30 5008 H 488.455 -3.53075 1.4184 0
M  V30 5009 H 487.967 -2.52918 2.94371 0
M  V30 5010 H 486.068 -3.65024 0.747528 0
M  V30 5011 H 486.181 -4.02838 2.59342 0
M  V30 5012 H 484.545 -2.19241 1.29636 0
M  V30 5013 H 485.328 -1.80258 2.92168 0
M  V30 5014 N 487.773 -1.03688 -1.18687 0
M  V30 5015 C 489.019 -0.739123 -1.88851 0
M  V30 5016 C 489.352 0.731042 -1.79915 0
M  V30 5017 O 488.627 1.53313 -1.19688 0
M  V30 5018 C 488.91 -1.20106 -3.3948 0
M  V30 5019 C 488.763 -2.73304 -3.57246 0
M  V30 5020 C 490.082 -0.788134 -4.32986 0
M  V30 5021 H 487.201 -0.269978 -0.68577 0
M  V30 5022 H 489.843 -1.28822 -1.3966 0
M  V30 5023 H 487.993 -0.733915 -3.81505 0
M  V30 5024 H 489.665 -3.28027 -3.24339 0
M  V30 5025 H 487.908 -3.13313 -3.00029 0
M  V30 5026 H 488.579 -3.00684 -4.62918 0
M  V30 5027 H 491.055 -1.19005 -3.98719 0
M  V30 5028 H 489.931 -1.13915 -5.36949 0
M  V30 5029 H 490.192 0.308988 -4.41019 0
M  V30 5030 N 489.251 1.34841 -0.815825 0
M  V30 5031 C 490.184 2.27504 -0.178062 0
M  V30 5032 C 491.162 1.48542 0.661373 0
M  V30 5033 O 492.346 1.77779 0.626653 0
M  V30 5034 C 489.473 3.30246 0.752002 0
M  V30 5035 C 488.519 4.26499 -0.00899172 0
M  V30 5036 S 489.352 5.18169 -1.35134 0
M  V30 5037 C 490.508 6.24449 -0.42596 0
M  V30 5038 H 490.741 2.81248 -0.963684 0
M  V30 5039 H 488.274 1.41781 -0.611355 0
M  V30 5040 H 490.232 3.89933 1.28308 0
M  V30 5041 H 488.893 2.75363 1.51109 0
M  V30 5042 H 488.086 4.99146 0.697766 0
M  V30 5043 H 487.688 3.7103 -0.470396 0
M  V30 5044 H 489.98 6.76404 0.385234 0
M  V30 5045 H 490.923 6.99156 -1.1219 0
M  V30 5046 H 491.331 5.64497 -0.0175461 0
M  V30 5047 N 490.729 0.570148 1.46925 0
M  V30 5048 C 491.659 -0.158274 2.32963 0
M  V30 5049 C 492.64 -0.896093 1.44583 0
M  V30 5050 O 493.825 -0.874022 1.7342 0
M  V30 5051 C 490.955 -1.18055 3.26619 0
M  V30 5052 C 489.909 -0.558379 4.24342 0
M  V30 5053 C 489.235 -1.68623 5.07415 0
M  V30 5054 C 490.535 0.496295 5.19937 0
M  V30 5055 H 492.229 0.560046 2.94115 0
M  V30 5056 H 489.775 0.270775 1.41431 0
M  V30 5057 H 491.728 -1.69841 3.85658 0
M  V30 5058 H 490.452 -1.92899 2.63548 0
M  V30 5059 H 489.111 -0.0617157 3.66548 0
M  V30 5060 H 488.759 -2.42402 4.40738 0
M  V30 5061 H 488.459 -1.27564 5.73586 0
M  V30 5062 H 489.983 -2.20709 5.69315 0
M  V30 5063 H 491.397 0.0640052 5.73264 0
M  V30 5064 H 489.794 0.82649 5.94381 0
M  V30 5065 H 490.864 1.38735 4.6463 0
M  V30 5066 N 492.207 -1.54576 0.307264 0
M  V30 5067 C 493.17 -2.22423 -0.553224 0
M  V30 5068 C 494.17 -1.21231 -1.05639 0
M  V30 5069 O 495.36 -1.45923 -0.951419 0
M  V30 5070 C 492.492 -2.91552 -1.76664 0
M  V30 5071 H 493.685 -2.99874 0.0396484 0
M  V30 5072 H 491.238 -1.56192 0.0581629 0
M  V30 5073 H 491.973 -2.18196 -2.39918 0
M  V30 5074 H 491.758 -3.65738 -1.41343 0
M  V30 5075 H 493.248 -3.43292 -2.37783 0
M  V30 5076 N 493.685 -0.035106 -1.57561 0
M  V30 5077 C 494.915 0.651312 -1.96065 0
M  V30 5078 C 495.323 1.6585 -0.910514 0
M  V30 5079 O 494.666 1.83336 0.11552 0
M  V30 5080 C 494.728 1.40897 -3.30739 0
M  V30 5081 C 494.392 0.559436 -4.53563 0
M  V30 5082 C 495.389 -0.16778 -5.19629 0
M  V30 5083 C 493.074 0.495079 -4.99854 0
M  V30 5084 C 495.068 -0.947963 -6.30311 0
M  V30 5085 C 492.755 -0.288804 -6.10417 0
M  V30 5086 C 493.753 -1.00903 -6.75505 0
M  V30 5087 O 493.441 -1.78005 -7.83945 0
M  V30 5088 H 493.173 0.184036 -0.650467 0
M  V30 5089 H 495.727 -0.0929677 -2.05189 0
M  V30 5090 H 493.957 2.19852 -3.18123 0
M  V30 5091 H 495.646 1.98407 -3.54104 0
M  V30 5092 H 496.412 -0.12743 -4.84833 0
M  V30 5093 H 492.291 1.04524 -4.48994 0
M  V30 5094 H 495.835 -1.51064 -6.81047 0
M  V30 5095 H 491.732 -0.33085 -6.44652 0
M  V30 5096 H 492.5 -1.70046 -8.00641 0
M  V30 5097 N 495.163 1.55791 0.238111 0
M  V30 5098 C 496.388 1.8244 0.986432 0
M  V30 5099 C 496.813 0.613314 1.7782 0
M  V30 5100 O 496.171 -0.437767 1.75935 0
M  V30 5101 C 496.219 3.06917 1.893 0
M  V30 5102 O 495.323 2.84449 2.98601 0
M  V30 5103 H 494.664 0.601975 0.280218 0
M  V30 5104 H 497.194 2.02987 0.256437 0
M  V30 5105 H 497.204 3.36583 2.30598 0
M  V30 5106 H 495.879 3.947 1.31091 0
M  V30 5107 H 494.456 2.65972 2.61368 0
M  V30 5108 N 496.642 -0.504142 1.49319 0
M  V30 5109 C 497.605 -1.5883 1.65244 0
M  V30 5110 C 498.605 -1.52009 0.524386 0
M  V30 5111 O 499.795 -1.55218 0.79077 0
M  V30 5112 C 496.927 -2.98481 1.64687 0
M  V30 5113 H 498.12 -1.4604 2.61939 0
M  V30 5114 H 495.673 -0.728144 1.38303 0
M  V30 5115 H 496.408 -3.16751 0.695644 0
M  V30 5116 H 496.193 -3.0484 2.46607 0
M  V30 5117 H 497.683 -3.77256 1.79075 0
M  V30 5118 N 498.12 -1.38341 -0.754957 0
M  V30 5119 C 499.536 -1.19508 -1.05783 0
M  V30 5120 C 499.736 -0.0428005 -2.01455 0
M  V30 5121 O 498.792 0.611861 -2.44975 0
M  V30 5122 C 500.105 -2.52091 -1.63923 0
M  V30 5123 C 501.653 -2.58762 -1.76101 0
M  V30 5124 C 502.128 -3.91517 -2.37652 0
M  V30 5125 N 503.619 -3.93049 -2.45085 0
M  V30 5126 C 504.354 -4.9253 -2.93602 0
M  V30 5127 N 503.85 -6.02408 -3.42165 0
M  V30 5128 N 505.643 -4.79921 -2.92629 0
M  V30 5129 H 497.794 -2.1206 -0.120056 0
M  V30 5130 H 500.057 -0.94089 -0.11589 0
M  V30 5131 H 499.763 -3.36858 -1.01093 0
M  V30 5132 H 499.637 -2.70388 -2.63003 0
M  V30 5133 H 502.024 -1.74391 -2.38058 0
M  V30 5134 H 502.105 -2.44333 -0.757294 0
M  V30 5135 H 501.749 -4.76309 -1.76329 0
M  V30 5136 H 501.679 -4.03256 -3.38662 0
M  V30 5137 H 504.17 -3.13685 -2.10736 0
M  V30 5138 H 504.483 -6.74248 -3.77637 0
M  V30 5139 H 502.828 -6.0603 -3.40225 0
M  V30 5140 H 506.019 -3.93194 -2.54001 0
M  V30 5141 H 506.192 -5.57601 -3.30128 0
M  V30 5142 N 499.598 0.982988 -1.23187 0
M  V30 5143 C 500.546 2.09616 -1.00817 0
M  V30 5144 C 501.54 1.6932 0.0519995 0
M  V30 5145 O 502.746 1.79715 -0.101284 0
M  V30 5146 H 499.121 0.685628 -0.308899 0
M  V30 5147 H 501.092 2.25652 -1.95253 0
M  V30 5148 C 499.841 3.42249 -0.613243 0
M  V30 5149 H 499.164 3.73705 -1.42073 0
M  V30 5150 H 500.604 4.21086 -0.496208 0
M  V30 5151 C 499.063 3.30002 0.678233 0
M  V30 5152 O 499.593 3.6263 1.72807 0
M  V30 5153 N 497.799 2.83164 0.653165 0
M  V30 5154 H 497.346 2.56811 -0.201492 0
M  V30 5155 H 497.304 2.75352 1.51752 0
M  V30 5156 N 501.076 1.04316 1.18135 0
M  V30 5157 C 502.492 0.762858 1.40188 0
M  V30 5158 C 502.692 -0.646547 1.90846 0
M  V30 5159 O 501.748 -1.41036 2.0944 0
M  V30 5160 C 503.061 1.81106 2.40044 0
M  V30 5161 C 504.609 1.83226 2.53766 0
M  V30 5162 C 505.084 2.87044 3.56889 0
M  V30 5163 N 506.575 2.85951 3.64398 0
M  V30 5164 C 507.31 3.62932 4.43923 0
M  V30 5165 N 506.806 4.49672 5.27036 0
M  V30 5166 N 508.599 3.51411 4.38711 0
M  V30 5167 H 500.75 1.95264 0.835805 0
M  V30 5168 H 503.013 0.845017 0.429709 0
M  V30 5169 H 502.719 2.82214 2.09876 0
M  V30 5170 H 502.593 1.64529 3.39426 0
M  V30 5171 H 504.98 0.827869 2.8325 0
M  V30 5172 H 505.061 2.03879 1.54489 0
M  V30 5173 H 504.705 3.87663 3.28145 0
M  V30 5174 H 504.635 2.63645 4.5585 0
M  V30 5175 H 507.126 2.23051 3.05052 0
M  V30 5176 H 507.439 5.05116 5.84874 0
M  V30 5177 H 505.784 4.53738 5.26447 0
M  V30 5178 H 508.975 2.83047 3.72829 0
M  V30 5179 H 509.148 4.11654 5.00445 0
M  V30 5180 N 502.554 -1.34406 0.822964 0
M  V30 5181 C 503.779 -2.0304 0.423034 0
M  V30 5182 C 504.204 -1.61568 -0.963196 0
M  V30 5183 O 503.562 -0.800339 -1.62678 0
M  V30 5184 C 503.61 -3.56636 0.53321 0
M  V30 5185 O 502.714 -4.09971 -0.446939 0
M  V30 5186 H 502.055 -0.64075 0.174171 0
M  V30 5187 H 504.585 -1.71653 1.11339 0
M  V30 5188 H 504.595 -4.05945 0.408991 0
M  V30 5189 H 503.27 -3.86168 1.54425 0
M  V30 5190 H 501.847 -3.71835 -0.281601 0
M  V30 5191 N 504.032 -0.577932 -1.46621 0
M  V30 5192 C 504.995 0.147805 -2.28723 0
M  V30 5193 C 505.995 0.823325 -1.38123 0
M  V30 5194 O 507.185 0.676011 -1.60548 0
M  V30 5195 C 504.317 1.21853 -3.18378 0
M  V30 5196 H 505.51 -0.573654 -2.94362 0
M  V30 5197 H 503.063 -0.335703 -1.52652 0
M  V30 5198 H 503.798 1.97173 -2.57475 0
M  V30 5199 H 503.583 0.738714 -3.85078 0
M  V30 5200 H 505.073 1.72768 -3.80186 0
M  V30 5201 N 505.51 1.54411 -0.315457 0
M  V30 5202 C 506.735 2.05299 0.294496 0
M  V30 5203 C 507.16 1.19052 1.4563 0
M  V30 5204 O 506.518 0.197804 1.80218 0
M  V30 5205 C 506.566 3.5345 0.714549 0
M  V30 5206 O 505.67 3.70175 1.81781 0
M  V30 5207 H 505.011 0.661743 0.0547019 0
M  V30 5208 H 507.541 1.99327 -0.461508 0
M  V30 5209 H 507.551 3.9557 0.999426 0
M  V30 5210 H 506.226 4.1568 -0.135244 0
M  V30 5211 H 504.803 3.3996 1.53236 0
M  V30 5212 N 506.988 0.0434614 1.5754 0
M  V30 5213 C 508.237 -0.631454 1.91561 0
M  V30 5214 C 508.55 -1.72457 0.92292 0
M  V30 5215 O 509.756 -2.45712 1.15489 0
M  V30 5216 C 508.212 -1.17447 3.40197 0
M  V30 5217 C 507.82 -0.113867 4.47855 0
M  V30 5218 C 509.564 -1.82507 3.83264 0
M  V30 5219 C 507.471 -0.669326 5.876 0
M  V30 5220 H 506.401 -0.239629 0.714908 0
M  V30 5221 H 509.052 0.111097 1.83163 0
M  V30 5222 H 507.434 -1.96909 3.43574 0
M  V30 5223 H 508.608 0.659348 4.56058 0
M  V30 5224 H 506.923 0.438821 4.14081 0
M  V30 5225 H 509.52 -2.25047 4.85034 0
M  V30 5226 H 509.863 -2.67365 3.19095 0
M  V30 5227 H 510.396 -1.09712 3.82372 0
M  V30 5228 H 507.135 0.141449 6.55347 0
M  V30 5229 H 506.655 -1.4107 5.82974 0
M  V30 5230 H 508.334 -1.15463 6.36614 0
M  V30 5231 N 508.466 -1.55915 -0.229846 0
M  V30 5232 C 509.882 -1.48721 -0.579166 0
M  V30 5233 C 510.082 -0.736976 -1.87539 0
M  V30 5234 O 509.138 -0.273258 -2.51017 0
M  V30 5235 C 510.451 -2.9323 -0.666082 0
M  V30 5236 C 511.999 -3.03701 -0.757267 0
M  V30 5237 C 512.474 -4.49552 -0.8756 0
M  V30 5238 N 513.965 -4.53561 -0.940035 0
M  V30 5239 C 514.7 -5.63683 -1.05116 0
M  V30 5240 N 514.196 -6.83576 -1.12675 0
M  V30 5241 N 515.989 -5.51516 -1.08565 0
M  V30 5242 H 508.14 -2.03123 0.620857 0
M  V30 5243 H 510.403 -0.922898 0.21671 0
M  V30 5244 H 510.109 -3.51032 0.21664 0
M  V30 5245 H 509.983 -3.44668 -1.53243 0
M  V30 5246 H 512.37 -2.45969 -1.63043 0
M  V30 5247 H 512.451 -2.55446 0.134583 0
M  V30 5248 H 512.095 -5.079 -0.00692351 0
M  V30 5249 H 512.025 -4.95506 -1.78274 0
M  V30 5250 H 514.516 -3.67215 -0.892269 0
M  V30 5251 H 514.829 -7.63251 -1.21109 0
M  V30 5252 H 513.174 -6.86303 -1.09603 0
M  V30 5253 H 516.365 -4.5678 -1.02319 0
M  V30 5254 H 516.538 -6.37372 -1.1688 0
M  V30 5255 N 509.944 0.496216 -1.49584 0
M  V30 5256 C 511.193 1.24668 -1.58558 0
M  V30 5257 C 511.506 1.9359 -0.279703 0
M  V30 5258 O 512.712 2.70365 -0.248048 0
M  V30 5259 C 511.168 2.26388 -2.79779 0
M  V30 5260 C 510.776 1.63384 -4.17145 0
M  V30 5261 C 512.52 3.02233 -2.98086 0
M  V30 5262 C 510.427 2.63243 -5.29582 0
M  V30 5263 H 509.357 0.468995 -0.590389 0
M  V30 5264 H 512.008 0.519985 -1.75978 0
M  V30 5265 H 510.39 3.02241 -2.55863 0
M  V30 5266 H 511.564 0.93491 -4.51216 0
M  V30 5267 H 509.879 0.999121 -4.04236 0
M  V30 5268 H 512.476 3.76919 -3.79257 0
M  V30 5269 H 512.819 3.60132 -2.08831 0
M  V30 5270 H 513.352 2.33495 -3.22063 0
M  V30 5271 H 510.091 2.10119 -6.20911 0
M  V30 5272 H 509.611 3.31363 -4.99959 0
M  V30 5273 H 511.29 3.25575 -5.59115 0
M  V30 5274 N 511.423 1.38739 0.74761 0
M  V30 5275 C 512.834 1.31507 1.32524 0
M  V30 5276 C 513.185 -0.0263963 1.96182 0
M  V30 5277 O 512.31 -0.92849 1.95469 0
M  V30 5278 C 512.905 2.38162 2.40966 0
M  V30 5279 C 511.464 2.34489 2.94434 0
M  V30 5280 C 510.611 2.20712 1.67873 0
M  V30 5281 H 513.562 1.4901 0.546043 0
M  V30 5282 H 513.583 2.04222 3.21051 0
M  V30 5283 H 513.095 3.35783 1.94605 0
M  V30 5284 H 511.196 1.40467 3.45108 0
M  V30 5285 H 511.309 3.28861 3.48407 0
M  V30 5286 H 509.673 1.67667 1.91729 0
M  V30 5287 H 510.456 3.20285 1.23582 0
M  V30 5288 N 512.901 -0.976442 1.23707 0
M  V30 5289 C 514.147 -1.72081 1.07312 0
M  V30 5290 C 514.48 -1.90275 -0.388476 0
M  V30 5291 O 513.755 -1.4579 -1.28746 0
M  V30 5292 C 514.038 -3.11675 1.80363 0
M  V30 5293 C 513.891 -3.01027 3.3422 0
M  V30 5294 C 515.21 -4.1117 1.5693 0
M  V30 5295 H 512.329 -0.624583 0.391236 0
M  V30 5296 H 514.971 -1.13649 1.52263 0
M  V30 5297 H 513.121 -3.61559 1.42153 0
M  V30 5298 H 514.793 -2.58637 3.81975 0
M  V30 5299 H 513.036 -2.3744 3.63049 0
M  V30 5300 H 513.707 -3.9988 3.80525 0
M  V30 5301 H 516.183 -3.7011 1.90151 0
M  V30 5302 H 515.059 -5.06928 2.10513 0
M  V30 5303 H 515.32 -4.392 0.505548 0
M  V30 5304 N 514.379 -1.04941 -1.1758 0
M  V30 5305 C 515.625 -0.759112 -1.88057 0
M  V30 5306 C 515.958 0.711918 -1.8068 0
M  V30 5307 O 515.233 1.52035 -1.21308 0
M  V30 5308 C 515.516 -1.237 -3.38187 0
M  V30 5309 C 515.369 -2.77078 -3.54327 0
M  V30 5310 C 516.688 -0.834014 -4.32125 0
M  V30 5311 H 513.807 -0.277237 -0.682868 0
M  V30 5312 H 516.449 -1.30296 -1.38286 0
M  V30 5313 H 514.599 -0.774337 -3.80705 0
M  V30 5314 H 516.271 -3.31449 -3.20842 0
M  V30 5315 H 514.514 -3.16477 -2.96689 0
M  V30 5316 H 515.185 -3.05577 -4.59703 0
M  V30 5317 H 517.661 -1.23228 -3.97434 0
M  V30 5318 H 516.537 -1.19603 -5.35711 0
M  V30 5319 H 516.798 0.262195 -4.41322 0
M  V30 5320 N 515.857 1.33968 -0.830081 0
M  V30 5321 C 516.82 2.27694 -0.26235 0
M  V30 5322 C 517.82 1.50589 0.563876 0
M  V30 5323 O 519.01 1.70028 0.378941 0
M  V30 5324 C 516.142 3.35002 0.63138 0
M  V30 5325 H 517.335 2.79419 -1.08928 0
M  V30 5326 H 514.888 1.44221 -0.602486 0
M  V30 5327 H 515.623 2.88504 1.48109 0
M  V30 5328 H 515.408 3.92079 0.0403276 0
M  V30 5329 H 516.898 4.04897 1.02217 0
M  V30 5330 N 517.335 0.585699 1.46312 0
M  V30 5331 C 518.56 0.0762461 2.0726 0
M  V30 5332 C 518.985 -1.22071 1.43109 0
M  V30 5333 O 518.343 -1.73804 0.515942 0
M  V30 5334 C 518.391 -0.0729404 3.60526 0
M  V30 5335 O 517.495 -1.1287 3.96654 0
M  V30 5336 H 516.836 0.0641558 0.660893 0
M  V30 5337 H 519.366 0.809492 1.87905 0
M  V30 5338 H 519.376 -0.278158 4.07051 0
M  V30 5339 H 518.051 0.874188 4.06609 0
M  V30 5340 H 516.628 -0.901703 3.61834 0
M  V30 5341 N 518.813 -1.54241 0.323641 0
M  V30 5342 C 520.224 -1.85975 -0.164405 0
M  V30 5343 C 520.575 -1.24529 -1.51615 0
M  V30 5344 O 519.7 -0.551351 -2.09258 0
M  V30 5345 C 520.295 -3.37424 -0.305091 0
M  V30 5346 C 518.854 -3.69107 -0.737358 0
M  V30 5347 C 518.001 -2.76942 0.140884 0
M  V30 5348 H 520.952 -1.49088 0.543922 0
M  V30 5349 H 520.973 -3.63147 -1.13598 0
M  V30 5350 H 520.485 -3.82116 0.678876 0
M  V30 5351 H 518.586 -3.29947 -1.73107 0
M  V30 5352 H 518.699 -4.76035 -0.541053 0
M  V30 5353 H 517.063 -2.51795 -0.383572 0
M  V30 5354 H 517.846 -3.24461 1.12162 0
M  V30 5355 N 520.291 -0.0518155 -1.57515 0
M  V30 5356 C 521.238 0.922352 -2.11569 0
M  V30 5357 C 522.208 1.30842 -1.02321 0
M  V30 5358 O 523.393 1.39778 -1.29872 0
M  V30 5359 C 520.533 2.19167 -2.6657 0
M  V30 5360 C 519.646 1.86003 -3.89906 0
M  V30 5361 C 518.781 3.07398 -4.33221 0
M  V30 5362 C 517.82 2.70158 -5.49255 0
M  V30 5363 N 516.957 3.84248 -5.8762 0
M  V30 5364 H 521.797 0.454506 -2.94514 0
M  V30 5365 H 519.334 0.212718 -1.45554 0
M  V30 5366 H 521.292 2.93443 -2.96559 0
M  V30 5367 H 519.922 2.63528 -1.86421 0
M  V30 5368 H 518.974 1.01874 -3.66505 0
M  V30 5369 H 520.286 1.54592 -4.74239 0
M  V30 5370 H 519.44 3.89972 -4.64765 0
M  V30 5371 H 518.179 3.41988 -3.477 0
M  V30 5372 H 517.184 1.86001 -5.17382 0
M  V30 5373 H 518.409 2.36759 -6.36492 0
M  V30 5374 H 516.355 4.18638 -5.05053 0
M  V30 5375 H 516.272 3.56538 -6.66646 0
M  V30 5376 H 517.54 4.6746 -6.2378 0
M  V30 5377 N 521.769 1.56035 0.221574 0
M  V30 5378 C 522.732 1.91584 1.2581 0
M  V30 5379 C 523.732 0.794425 1.39805 0
M  V30 5380 O 524.922 1.06217 1.38071 0
M  V30 5381 C 522.054 2.16663 2.63192 0
M  V30 5382 H 523.247 2.8429 0.954935 0
M  V30 5383 H 520.8 1.49316 0.461988 0
M  V30 5384 H 521.535 1.26508 2.98607 0
M  V30 5385 H 521.32 2.98358 2.5441 0
M  V30 5386 H 522.81 2.45262 3.37988 0
M  V30 5387 N 523.247 -0.488276 1.49845 0
M  V30 5388 C 524.663 -0.820566 1.3689 0
M  V30 5389 C 524.863 -1.97248 0.411752 0
M  V30 5390 O 523.919 -2.52042 -0.151931 0
M  V30 5391 C 525.232 -1.1488 2.77891 0
M  V30 5392 C 526.78 -1.25626 2.86683 0
M  V30 5393 C 527.255 -1.61772 4.28479 0
M  V30 5394 N 528.746 -1.68797 4.31349 0
M  V30 5395 C 529.481 -1.98235 5.38043 0
M  V30 5396 N 528.977 -2.2581 6.54967 0
M  V30 5397 N 530.77 -1.99593 5.2547 0
M  V30 5398 H 522.921 0.271123 2.10662 0
M  V30 5399 H 525.184 0.058735 0.946179 0
M  V30 5400 H 524.89 -0.375614 3.49688 0
M  V30 5401 H 524.764 -2.08919 3.14058 0
M  V30 5402 H 527.151 -2.02014 2.15114 0
M  V30 5403 H 527.232 -0.296072 2.54081 0
M  V30 5404 H 526.876 -0.859295 5.00578 0
M  V30 5405 H 526.806 -2.58912 4.58554 0
M  V30 5406 H 529.297 -1.49595 3.4703 0
M  V30 5407 H 529.61 -2.47497 7.32096 0
M  V30 5408 H 527.955 -2.23239 6.58171 0
M  V30 5409 H 531.146 -1.77535 4.33127 0
M  V30 5410 H 531.319 -2.222 6.08713 0
M  V30 5411 N 524.725 -1.39134 -0.740242 0
M  V30 5412 C 526.141 -1.20623 -1.0451 0
M  V30 5413 C 526.341 -0.0641651 -2.01398 0
M  V30 5414 O 525.397 0.585843 -2.4561 0
M  V30 5415 C 526.71 -2.53815 -1.6124 0
M  V30 5416 C 528.258 -2.60615 -1.73346 0
M  V30 5417 C 528.733 -3.94015 -2.33486 0
M  V30 5418 N 530.224 -3.95627 -2.40902 0
M  V30 5419 C 530.959 -4.95616 -2.88361 0
M  V30 5420 N 530.455 -6.06003 -3.35756 0
M  V30 5421 N 532.248 -4.82998 -2.87523 0
M  V30 5422 H 524.399 -2.12176 -0.0975576 0
M  V30 5423 H 526.662 -0.942066 -0.105904 0
M  V30 5424 H 526.368 -3.37911 -0.975144 0
M  V30 5425 H 526.242 -2.73162 -2.6012 0
M  V30 5426 H 528.629 -1.76906 -2.36195 0
M  V30 5427 H 528.71 -2.45123 -0.731336 0
M  V30 5428 H 528.354 -4.78153 -1.71267 0
M  V30 5429 H 528.284 -4.06825 -3.34366 0
M  V30 5430 H 530.775 -3.15903 -2.07398 0
M  V30 5431 H 531.088 -6.78215 -3.70464 0
M  V30 5432 H 529.433 -6.09604 -3.33778 0
M  V30 5433 H 532.624 -3.95866 -2.49816 0
M  V30 5434 H 532.797 -5.61072 -3.24196 0
M  V30 5435 N 526.204 0.969867 -1.24223 0
M  V30 5436 C 527.453 1.70687 -1.07466 0
M  V30 5437 C 527.766 1.91736 0.386861 0
M  V30 5438 O 528.972 2.62986 0.674581 0
M  V30 5439 C 527.428 3.07217 -1.87472 0
M  V30 5440 C 527.036 2.94018 -3.3802 0
M  V30 5441 C 528.78 3.84804 -1.79237 0
M  V30 5442 C 526.687 4.25844 -4.10379 0
M  V30 5443 H 525.617 0.640067 -0.398536 0
M  V30 5444 H 528.268 1.08092 -1.48285 0
M  V30 5445 H 526.65 3.70628 -1.39466 0
M  V30 5446 H 527.824 2.39632 -3.9359 0
M  V30 5447 H 526.139 2.29898 -3.47183 0
M  V30 5448 H 528.736 4.82417 -2.30603 0
M  V30 5449 H 529.079 4.09356 -0.757197 0
M  V30 5450 H 529.612 3.28115 -2.24912 0
M  V30 5451 H 526.351 4.06486 -5.14246 0
M  V30 5452 H 525.871 4.80054 -3.59594 0
M  V30 5453 H 527.55 4.94475 -4.17257 0
M  V30 5454 N 527.682 1.05563 1.17022 0
M  V30 5455 C 528.592 0.670758 2.24807 0
M  V30 5456 C 529.608 -0.309865 1.71219 0
M  V30 5457 O 530.784 -0.161025 2.00755 0
M  V30 5458 C 527.849 0.055337 3.46656 0
M  V30 5459 C 526.91 1.08688 4.15314 0
M  V30 5460 C 526.143 0.500736 5.31346 0
M  V30 5461 O 526.366 -0.688718 5.66227 0
M  V30 5462 O 525.3 1.23683 5.89055 0
M  V30 5463 H 529.126 1.56914 2.60023 0
M  V30 5464 H 526.711 0.827428 1.24395 0
M  V30 5465 H 528.593 -0.286492 4.20425 0
M  V30 5466 H 527.268 -0.816638 3.13229 0
M  V30 5467 H 526.175 1.48077 3.43546 0
M  V30 5468 H 527.508 1.93014 4.52777 0
M  V30 5469 N 529.16 -1.33526 0.837174 0
M  V30 5470 C 530.406 -1.9813 0.432704 0
M  V30 5471 C 530.739 -1.66168 -1.00508 0
M  V30 5472 O 530.014 -0.94069 -1.70239 0
M  V30 5473 C 530.297 -3.54151 0.651834 0
M  V30 5474 C 530.15 -3.95806 2.13676 0
M  V30 5475 C 531.469 -4.39993 0.0968937 0
M  V30 5476 H 528.588 -0.719713 0.15869 0
M  V30 5477 H 531.23 -1.58193 1.05237 0
M  V30 5478 H 529.38 -3.88301 0.124369 0
M  V30 5479 H 531.052 -3.71921 2.72896 0
M  V30 5480 H 529.295 -3.45599 2.62191 0
M  V30 5481 H 529.966 -5.0447 2.24084 0
M  V30 5482 H 532.442 -4.12479 0.547733 0
M  V30 5483 H 531.318 -5.48186 0.279917 0
M  V30 5484 H 531.579 -4.3066 -0.9992 0
M  V30 5485 N 530.638 -0.59345 -1.46 0
M  V30 5486 C 532.054 -0.255965 -1.57534 0
M  V30 5487 C 532.254 1.24167 -1.58697 0
M  V30 5488 O 531.31 2.02398 -1.50968 0
M  V30 5489 C 532.623 -0.91466 -2.86451 0
M  V30 5490 C 534.171 -0.889253 -3.00102 0
M  V30 5491 C 534.646 -1.52769 -4.3177 0
M  V30 5492 N 536.137 -1.49253 -4.38495 0
M  V30 5493 C 536.872 -1.9558 -5.39014 0
M  V30 5494 N 536.368 -2.49929 -6.46148 0
M  V30 5495 N 538.161 -1.86432 -5.30282 0
M  V30 5496 H 530.312 -1.56604 -1.43489 0
M  V30 5497 H 532.575 -0.655207 -0.685133 0
M  V30 5498 H 532.281 -1.96861 -2.91442 0
M  V30 5499 H 532.155 -0.429356 -3.74748 0
M  V30 5500 H 534.542 0.156111 -2.94687 0
M  V30 5501 H 534.623 -1.41268 -2.13253 0
M  V30 5502 H 534.267 -2.57231 -4.37944 0
M  V30 5503 H 534.197 -0.979398 -5.17412 0
M  V30 5504 H 536.688 -1.09536 -3.61677 0
M  V30 5505 H 537.001 -2.83109 -7.19075 0
M  V30 5506 H 535.346 -2.53961 -6.46938 0
M  V30 5507 H 538.537 -1.43722 -4.4549 0
M  V30 5508 H 538.71 -2.22852 -6.08474 0
M  V30 5509 N 532.116 1.54067 -0.331816 0
M  V30 5510 C 533.363 2.00715 0.268269 0
M  V30 5511 C 533.691 1.21986 1.51491 0
M  V30 5512 O 532.946 0.292309 1.93505 0
M  V30 5513 C 533.245 3.51634 0.639392 0
M  V30 5514 C 532.911 4.48018 -0.509019 0
M  V30 5515 C 531.573 4.74089 -0.824209 0
M  V30 5516 C 533.925 5.05237 -1.28003 0
M  V30 5517 C 531.253 5.54637 -1.91298 0
M  V30 5518 C 533.605 5.86972 -2.35895 0
M  V30 5519 C 532.269 6.11342 -2.67987 0
M  V30 5520 H 531.539 0.734469 0.0981667 0
M  V30 5521 H 534.186 1.8596 -0.457304 0
M  V30 5522 H 532.491 3.6416 1.44551 0
M  V30 5523 H 534.188 3.85175 1.11539 0
M  V30 5524 H 530.778 4.27851 -0.253287 0
M  V30 5525 H 534.962 4.8507 -1.04978 0
M  V30 5526 H 530.218 5.71747 -2.16599 0
M  V30 5527 H 534.392 6.30327 -2.96076 0
M  V30 5528 H 532.019 6.73544 -3.5248 0
M  V30 5529 N 533.594 0.0601682 1.57485 0
M  V30 5530 C 535.005 -0.474217 1.80577 0
M  V30 5531 C 535.356 -1.70365 0.973147 0
M  V30 5532 O 534.481 -2.15544 0.192306 0
M  V30 5533 C 535.076 -0.867102 3.27516 0
M  V30 5534 C 533.635 -1.34642 3.51495 0
M  V30 5535 C 532.782 -0.32594 2.75378 0
M  V30 5536 H 535.733 0.285973 1.56102 0
M  V30 5537 H 535.754 -1.72938 3.38929 0
M  V30 5538 H 535.266 0.0278927 3.8809 0
M  V30 5539 H 533.367 -2.2603 2.96212 0
M  V30 5540 H 533.48 -1.33237 4.60201 0
M  V30 5541 H 531.844 -0.800749 2.41785 0
M  V30 5542 H 532.627 0.561125 3.38683 0
M  V30 5543 N 535.072 -1.5615 -0.213296 0
M  V30 5544 C 536.349 -1.70349 -0.961281 0
M  V30 5545 C 536.729 -0.609791 -2.02101 0
M  V30 5546 O 536.077 0.381987 -2.25285 0
M  V30 5547 C 536.287 -3.11982 -1.56424 0
M  V30 5548 C 537.635 -3.71649 -2.05334 0
M  V30 5549 O 538.659 -3.14995 -1.66302 0
M  V30 5550 O 537.518 -4.71038 -2.77102 0
M  V30 5551 H 534.612 -0.694121 -0.449582 0
M  V30 5552 H 537.158 -1.68464 -0.204426 0
M  V30 5553 H 535.93 -3.83046 -0.799457 0
M  V30 5554 H 535.553 -3.18019 -2.38641 0
M  V30 5555 N 536.55 0.480323 -1.50102 0
M  V30 5556 C 537.961 1.06142 -1.53593 0
M  V30 5557 C 538.312 1.93335 -0.334055 0
M  V30 5558 O 537.437 2.09188 0.55403 0
M  V30 5559 C 538.032 1.9317 -2.78336 0
M  V30 5560 C 536.591 2.46405 -2.84538 0
M  V30 5561 C 535.738 1.24521 -2.4777 0
M  V30 5562 H 538.689 0.26333 -1.565 0
M  V30 5563 H 538.71 2.78123 -2.59669 0
M  V30 5564 H 538.222 1.29683 -3.65792 0
M  V30 5565 H 536.323 3.13472 -2.01411 0
M  V30 5566 H 536.436 2.82143 -3.87211 0
M  V30 5567 H 534.8 1.57706 -2.00003 0
M  V30 5568 H 535.583 0.627102 -3.37524 0
M  V30 5569 N 538.028 1.39524 0.732853 0
M  V30 5570 C 538.991 1.38189 1.82857 0
M  V30 5571 C 539.991 0.278624 1.58368 0
M  V30 5572 O 541.181 0.536639 1.65728 0
M  V30 5573 C 538.313 1.15661 3.2068 0
M  V30 5574 H 539.506 2.35692 1.85444 0
M  V30 5575 H 537.059 1.2512 0.936728 0
M  V30 5576 H 537.794 0.188482 3.23752 0
M  V30 5577 H 537.579 1.95559 3.39852 0
M  V30 5578 H 539.069 1.17472 4.00737 0
M  V30 5579 N 539.506 -0.963266 1.24736 0
M  V30 5580 C 540.469 -2.04013 1.04457 0
M  V30 5581 C 541.469 -1.608 0.000335555 0
M  V30 5582 O 542.659 -1.72515 0.241719 0
M  V30 5583 C 539.791 -3.35858 0.584162 0
M  V30 5584 H 540.984 -2.23436 2.00041 0
M  V30 5585 H 538.537 -1.13914 1.07021 0
M  V30 5586 H 539.272 -3.22128 -0.374673 0
M  V30 5587 H 539.057 -3.68568 1.3379 0
M  V30 5588 H 540.547 -4.1502 0.463451 0
M  V30 5589 N 540.985 -1.06182 -1.16461 0
M  V30 5590 C 541.933 -0.665716 -2.2287 0
M  V30 5591 C 542.927 0.317822 -1.66392 0
M  V30 5592 O 544.133 0.182807 -1.79069 0
M  V30 5593 H 540.508 -0.197148 -0.725697 0
M  V30 5594 H 542.479 -1.57307 -2.53569 0
M  V30 5595 C 541.228 -0.0669803 -3.47635 0
M  V30 5596 H 540.551 -0.814899 -3.91407 0
M  V30 5597 H 541.991 0.172669 -4.23648 0
M  V30 5598 C 540.45 1.18913 -3.15216 0
M  V30 5599 O 540.98 2.27723 -3.30916 0
M  V30 5600 N 539.186 1.09066 -2.69357 0
M  V30 5601 H 538.733 0.20518 -2.56782 0
M  V30 5602 H 538.691 1.93195 -2.48039 0
M  V30 5603 N 542.463 1.3308 -0.844243 0
M  V30 5604 C 543.874 1.7992 -0.498566 0
M  V30 5605 C 544.225 1.69808 0.982834 0
M  V30 5606 O 543.35 1.25051 1.7661 0
M  V30 5607 C 543.945 3.26677 -0.898204 0
M  V30 5608 C 542.504 3.71513 -0.604583 0
M  V30 5609 C 541.651 2.54393 -1.10362 0
M  V30 5610 H 544.602 1.20526 -1.03244 0
M  V30 5611 H 544.623 3.79918 -0.21039 0
M  V30 5612 H 544.135 3.34004 -1.97643 0
M  V30 5613 H 542.236 3.69708 0.46335 0
M  V30 5614 H 542.349 4.64755 -1.16358 0
M  V30 5615 H 540.713 2.49246 -0.524273 0
M  V30 5616 H 541.496 2.6448 -2.18873 0
M  V30 5617 N 543.941 0.601185 1.45683 0
M  V30 5618 C 545.171 0.0999093 2.06358 0
M  V30 5619 C 545.579 -1.21831 1.44754 0
M  V30 5620 O 544.922 -1.75157 0.553695 0
M  V30 5621 C 544.984 -0.12085 3.59297 0
M  V30 5622 C 544.648 1.11459 4.432 0
M  V30 5623 C 545.645 2.03118 4.7858 0
M  V30 5624 C 543.33 1.34162 4.84051 0
M  V30 5625 C 545.324 3.15814 5.53661 0
M  V30 5626 C 543.011 2.4716 5.58888 0
M  V30 5627 C 544.009 3.37814 5.93608 0
M  V30 5628 O 543.697 4.48846 6.66928 0
M  V30 5629 H 543.429 0.0630316 0.673055 0
M  V30 5630 H 545.983 0.826982 1.88016 0
M  V30 5631 H 544.213 -0.902744 3.76015 0
M  V30 5632 H 545.902 -0.572925 4.01836 0
M  V30 5633 H 546.668 1.86801 4.47583 0
M  V30 5634 H 542.547 0.645018 4.56465 0
M  V30 5635 H 546.091 3.86596 5.8068 0
M  V30 5636 H 541.988 2.63432 5.89299 0
M  V30 5637 H 542.756 4.47446 6.85371 0
M  V30 5638 N 545.419 -1.53889 0.339982 0
M  V30 5639 C 546.349 -2.27843 -0.510856 0
M  V30 5640 C 547.33 -1.29267 -1.10563 0
M  V30 5641 O 548.515 -1.58104 -1.12768 0
M  V30 5642 C 545.645 -3.04857 -1.66372 0
M  V30 5643 C 544.599 -4.10907 -1.19746 0
M  V30 5644 C 543.925 -4.75855 -2.43857 0
M  V30 5645 C 545.225 -5.21435 -0.300501 0
M  V30 5646 H 546.919 -2.99212 0.106067 0
M  V30 5647 H 544.465 -1.43904 0.0524533 0
M  V30 5648 H 546.418 -3.5533 -2.26537 0
M  V30 5649 H 545.142 -2.31133 -2.30749 0
M  V30 5650 H 543.801 -3.61342 -0.618654 0
M  V30 5651 H 543.449 -3.9873 -3.06633 0
M  V30 5652 H 543.149 -5.47502 -2.13343 0
M  V30 5653 H 544.673 -5.2911 -3.04754 0
M  V30 5654 H 546.087 -5.67565 -0.80889 0
M  V30 5655 H 544.484 -6.00036 -0.0874076 0
M  V30 5656 H 545.554 -4.80328 0.664321 0
M  V30 5657 N 546.897 -0.0685191 -1.57451 0
M  V30 5658 C 548.137 0.605038 -1.9524 0
M  V30 5659 C 548.501 1.66974 -0.947816 0
M  V30 5660 O 549.702 2.39862 -1.21325 0
M  V30 5661 C 547.973 1.16999 -3.37707 0
M  V30 5662 S 549.532 1.85913 -3.97469 0
M  V30 5663 H 546.35 0.198203 -0.682815 0
M  V30 5664 H 548.952 -0.141594 -1.94987 0
M  V30 5665 H 547.656 0.383205 -4.08607 0
M  V30 5666 H 547.187 1.95305 -3.41496 0
M  V30 5667 H 549.202 3.14128 -3.84107 0
M  V30 5668 N 548.375 1.56261 0.205012 0
M  V30 5669 C 549.622 1.8004 0.926927 0
M  V30 5670 C 549.95 0.640086 1.83666 0
M  V30 5671 O 549.205 -0.374702 1.92079 0
M  V30 5672 C 549.504 3.09722 1.78345 0
M  V30 5673 C 549.17 4.39082 1.02555 0
M  V30 5674 C 547.832 4.74226 0.816256 0
M  V30 5675 C 550.184 5.18877 0.491559 0
M  V30 5676 C 547.512 5.86668 0.0613287 0
M  V30 5677 C 549.864 6.32105 -0.250107 0
M  V30 5678 C 548.528 6.6584 -0.470508 0
M  V30 5679 H 547.798 0.658812 0.339187 0
M  V30 5680 H 550.445 1.90515 0.19395 0
M  V30 5681 H 548.75 2.9444 2.5848 0
M  V30 5682 H 550.447 3.25324 2.34446 0
M  V30 5683 H 547.037 4.11497 1.19868 0
M  V30 5684 H 551.221 4.92147 0.640684 0
M  V30 5685 H 546.477 6.11283 -0.119501 0
M  V30 5686 H 550.651 6.93157 -0.671307 0
M  V30 5687 H 548.278 7.5281 -1.05739 0
M  V30 5688 N 549.853 -0.472356 1.50355 0
M  V30 5689 C 550.816 -1.5529 1.68576 0
M  V30 5690 C 551.816 -1.50863 0.556511 0
M  V30 5691 O 553.006 -1.53505 0.823516 0
M  V30 5692 C 550.138 -2.94921 1.70981 0
M  V30 5693 H 551.331 -1.40451 2.64978 0
M  V30 5694 H 548.884 -0.698645 1.39816 0
M  V30 5695 H 549.619 -3.15204 0.762675 0
M  V30 5696 H 549.404 -2.99541 2.53017 0
M  V30 5697 H 550.894 -3.73372 1.87037 0
M  V30 5698 N 551.331 -1.39911 -0.725443 0
M  V30 5699 C 552.294 -1.39156 -1.82121 0
M  V30 5700 C 553.294 -0.287018 -1.58218 0
M  V30 5701 O 554.484 -0.545421 -1.65441 0
M  V30 5702 C 551.616 -1.1736 -3.20062 0
M  V30 5703 H 552.809 -2.36672 -1.84191 0
M  V30 5704 H 550.362 -1.25615 -0.930079 0
M  V30 5705 H 551.097 -0.205648 -3.23647 0
M  V30 5706 H 550.882 -1.97358 -3.3881 0
M  V30 5707 H 552.372 -1.19596 -4.00108 0
M  V30 5708 N 552.809 0.956637 -1.25245 0
M  V30 5709 C 553.739 2.07058 -1.07931 0
M  V30 5710 C 554.72 1.70096 0.0110361 0
M  V30 5711 O 555.905 1.93555 -0.158121 0
M  V30 5712 C 553.035 3.40272 -0.695124 0
M  V30 5713 C 551.989 3.91235 -1.73549 0
M  V30 5714 C 551.315 5.20921 -1.20604 0
M  V30 5715 C 552.615 4.17837 -3.13385 0
M  V30 5716 H 554.309 2.218 -2.01109 0
M  V30 5717 H 551.855 1.06581 -0.968326 0
M  V30 5718 H 553.808 4.1765 -0.560949 0
M  V30 5719 H 552.532 3.25462 0.272355 0
M  V30 5720 H 551.191 3.16025 -1.85807 0
M  V30 5721 H 550.839 5.02479 -0.228846 0
M  V30 5722 H 550.539 5.55987 -1.90136 0
M  V30 5723 H 552.063 6.00897 -1.08421 0
M  V30 5724 H 553.477 4.8588 -3.04292 0
M  V30 5725 H 551.874 4.64154 -3.80369 0
M  V30 5726 H 552.944 3.2419 -3.60595 0
M  V30 5727 N 554.287 1.06798 1.15896 0
M  V30 5728 C 555.217 0.704677 2.22613 0
M  V30 5729 C 556.198 -0.305252 1.67339 0
M  V30 5730 O 557.383 -0.179247 1.93371 0
M  V30 5731 C 554.513 0.0957325 3.47168 0
M  V30 5732 C 553.467 1.0322 4.15367 0
M  V30 5733 C 552.793 0.286293 5.33933 0
M  V30 5734 C 554.093 2.36341 4.65768 0
M  V30 5735 H 555.787 1.59688 2.53259 0
M  V30 5736 H 553.333 0.769257 1.21731 0
M  V30 5737 H 555.286 -0.170333 4.21056 0
M  V30 5738 H 554.01 -0.831516 3.15838 0
M  V30 5739 H 552.669 1.28309 3.43413 0
M  V30 5740 H 552.317 -0.644237 4.98857 0
M  V30 5741 H 552.017 0.910436 5.80504 0
M  V30 5742 H 553.541 0.0278938 6.10594 0
M  V30 5743 H 554.955 2.1561 5.31211 0
M  V30 5744 H 553.352 2.94299 5.2298 0
M  V30 5745 H 554.422 2.99047 3.81705 0
M  V30 5746 N 555.766 -1.3263 0.851289 0
M  V30 5747 C 556.699 -2.26952 0.238318 0
M  V30 5748 C 557.677 -1.50243 -0.621757 0
M  V30 5749 O 558.861 -1.79378 -0.579298 0
M  V30 5750 C 555.988 -3.32124 -0.664178 0
M  V30 5751 C 555.034 -4.26325 0.122067 0
M  V30 5752 S 555.867 -5.14404 1.48824 0
M  V30 5753 C 557.023 -6.231 0.591372 0
M  V30 5754 H 557.256 -2.78594 1.03791 0
M  V30 5755 H 554.789 -1.4011 0.648731 0
M  V30 5756 H 556.747 -3.93197 -1.17924 0
M  V30 5757 H 555.408 -2.79273 -1.43755 0
M  V30 5758 H 554.601 -5.00821 -0.565181 0
M  V30 5759 H 554.203 -3.69652 0.568602 0
M  V30 5760 H 556.495 -6.77187 -0.205762 0
M  V30 5761 H 557.438 -6.95936 1.30687 0
M  V30 5762 H 557.846 -5.64252 0.167206 0
M  V30 5763 N 557.244 -0.608902 -1.45362 0
M  V30 5764 C 558.207 0.0992563 -2.28985 0
M  V30 5765 C 559.207 0.793841 -1.39838 0
M  V30 5766 O 560.397 0.641804 -1.61946 0
M  V30 5767 C 557.529 1.15073 -3.20891 0
M  V30 5768 H 558.722 -0.635964 -2.93079 0
M  V30 5769 H 556.275 -0.368007 -1.51906 0
M  V30 5770 H 557.01 1.91667 -2.616 0
M  V30 5771 H 556.795 0.656867 -3.86559 0
M  V30 5772 H 558.285 1.64665 -3.83765 0
M  V30 5773 N 558.722 1.53707 -0.348139 0
M  V30 5774 C 559.97 2.00591 0.246478 0
M  V30 5775 C 560.291 1.23753 1.50699 0
M  V30 5776 O 559.561 0.345964 1.92821 0
M  V30 5777 H 558.141 0.741053 0.0940679 0
M  V30 5778 H 560.803 1.89139 -0.470354 0
M  V30 5779 H 559.899 3.08297 0.485714 0
M  V30 5780 N 560.2 0.0768682 1.57412 0
M  V30 5781 C 561.13 -0.886026 2.16037 0
M  V30 5782 C 562.111 -1.30691 1.08876 0
M  V30 5783 O 563.296 -1.37705 1.36934 0
M  V30 5784 C 560.426 -2.1518 2.72608 0
M  V30 5785 C 559.38 -1.87015 3.8498 0
M  V30 5786 C 558.706 -3.20266 4.28175 0
M  V30 5787 C 560.006 -1.17143 5.08994 0
M  V30 5788 H 561.7 -0.397642 2.96748 0
M  V30 5789 H 559.246 -0.189823 1.42743 0
M  V30 5790 H 561.199 -2.82962 3.12266 0
M  V30 5791 H 559.923 -2.66269 1.89125 0
M  V30 5792 H 558.582 -1.21636 3.45833 0
M  V30 5793 H 558.23 -3.69207 3.41607 0
M  V30 5794 H 557.93 -3.0221 5.03927 0
M  V30 5795 H 559.454 -3.89237 4.70454 0
M  V30 5796 H 560.868 -1.75003 5.45937 0
M  V30 5797 H 559.265 -1.09328 5.90057 0
M  V30 5798 H 560.335 -0.151295 4.84664 0
M  V30 5799 N 561.678 -1.56367 -0.196722 0
M  V30 5800 C 562.955 -1.71359 -0.943159 0
M  V30 5801 C 563.335 -0.631192 -2.01443 0
M  V30 5802 O 562.683 0.358071 -2.25677 0
M  V30 5803 C 562.893 -3.13623 -1.53106 0
M  V30 5804 C 564.241 -3.73806 -2.01381 0
M  V30 5805 O 565.265 -3.16742 -1.62951 0
M  V30 5806 O 564.124 -4.73951 -2.7209 0
M  V30 5807 H 561.218 -0.698851 -0.442195 0
M  V30 5808 H 563.764 -1.68672 -0.186547 0
M  V30 5809 H 562.536 -3.83873 -0.758785 0
M  V30 5810 H 562.159 -3.20532 -2.35255 0
M  V30 5811 N 563.156 0.464375 -1.50603 0
M  V30 5812 C 564.404 1.21356 -1.61608 0
M  V30 5813 C 564.725 1.92329 -0.321643 0
M  V30 5814 O 563.995 1.84403 0.661232 0
M  V30 5815 H 562.575 0.45094 -0.595535 0
M  V30 5816 H 565.237 0.535046 -1.87412 0
M  V30 5817 H 564.333 1.95783 -2.43054 0
M  V30 5818 N 564.634 1.40294 0.718013 0
M  V30 5819 C 565.883 1.37746 1.4734 0
M  V30 5820 C 566.196 -0.0180754 1.95592 0
M  V30 5821 O 567.402 -0.166166 2.70991 0
M  V30 5822 C 565.858 2.4208 2.66318 0
M  V30 5823 C 565.466 3.87432 2.24945 0
M  V30 5824 C 567.21 2.48635 3.44065 0
M  V30 5825 C 565.117 4.83368 3.40748 0
M  V30 5826 H 564.047 0.512165 0.553356 0
M  V30 5827 H 566.698 1.66019 0.781661 0
M  V30 5828 H 565.08 2.06903 3.3765 0
M  V30 5829 H 566.254 4.3174 1.6105 0
M  V30 5830 H 564.569 3.8433 1.60249 0
M  V30 5831 H 567.166 3.17499 4.30231 0
M  V30 5832 H 567.509 1.51611 3.87711 0
M  V30 5833 H 568.042 2.82791 2.79775 0
M  V30 5834 H 564.781 5.81716 3.02136 0
M  V30 5835 H 564.301 4.43726 4.03568 0
M  V30 5836 H 565.98 5.03074 4.06848 0
M  V30 5837 N 566.112 -0.949982 1.2575 0
M  V30 5838 C 567.059 -2.04738 1.06541 0
M  V30 5839 C 568.029 -1.66078 -0.0268818 0
M  V30 5840 O 569.214 -1.90348 0.131196 0
M  V30 5841 C 566.354 -3.38027 0.695127 0
M  V30 5842 C 565.467 -3.89776 1.86276 0
M  V30 5843 C 564.602 -5.11411 1.4364 0
M  V30 5844 C 563.641 -5.554 2.57287 0
M  V30 5845 N 562.778 -6.68244 2.15395 0
M  V30 5846 H 567.618 -2.20502 2.00457 0
M  V30 5847 H 565.155 -1.0805 0.998178 0
M  V30 5848 H 567.113 -4.14641 0.461375 0
M  V30 5849 H 565.743 -3.22135 -0.207046 0
M  V30 5850 H 564.795 -3.0964 2.20969 0
M  V30 5851 H 566.107 -4.18368 2.71606 0
M  V30 5852 H 565.261 -5.95457 1.16257 0
M  V30 5853 H 564 -4.84545 0.553879 0
M  V30 5854 H 563.005 -4.69916 2.85409 0
M  V30 5855 H 564.23 -5.84272 3.46125 0
M  V30 5856 H 562.176 -6.43078 1.29565 0
M  V30 5857 H 562.093 -6.96377 2.94272 0
M  V30 5858 H 563.361 -7.55687 1.91201 0
M  V30 5859 N 567.59 -1.07411 -1.15328 0
M  V30 5860 C 568.538 -0.689316 -2.22151 0
M  V30 5861 C 569.532 0.300156 -1.6672 0
M  V30 5862 O 570.738 0.163804 -1.79253 0
M  V30 5863 H 567.113 -0.204834 -0.723566 0
M  V30 5864 H 569.084 -1.59988 -2.51886 0
M  V30 5865 C 567.833 -0.103848 -3.47545 0
M  V30 5866 H 567.156 -0.856367 -3.90521 0
M  V30 5867 H 568.596 0.127725 -4.23808 0
M  V30 5868 C 567.055 1.15563 -3.1646 0
M  V30 5869 O 567.585 2.242 -3.33312 0
M  V30 5870 N 565.791 1.06203 -2.70498 0
M  V30 5871 H 565.338 0.177933 -2.56985 0
M  V30 5872 H 565.296 1.90553 -2.50074 0
M  V30 5873 N 569.068 1.32177 -0.85831 0
M  V30 5874 C 570.015 2.28794 -0.303607 0
M  V30 5875 C 570.985 1.55213 0.591453 0
M  V30 5876 O 572.17 1.83418 0.525585 0
M  V30 5877 C 569.31 3.41475 0.49889 0
M  V30 5878 C 568.423 4.2993 -0.422373 0
M  V30 5879 C 567.558 5.29743 0.393111 0
M  V30 5880 C 566.597 6.09842 -0.525317 0
M  V30 5881 N 565.734 7.01643 0.253208 0
M  V30 5882 H 570.574 2.75631 -1.13276 0
M  V30 5883 H 568.111 1.35606 -0.570026 0
M  V30 5884 H 570.069 4.05531 0.979826 0
M  V30 5885 H 568.699 2.95779 1.29284 0
M  V30 5886 H 567.751 3.66422 -1.02171 0
M  V30 5887 H 569.063 4.85899 -1.12709 0
M  V30 5888 H 568.217 5.9942 0.937056 0
M  V30 5889 H 566.956 4.744 1.13117 0
M  V30 5890 H 565.961 5.39066 -1.08112 0
M  V30 5891 H 567.186 6.6727 -1.26205 0
M  V30 5892 H 565.132 6.48725 0.974295 0
M  V30 5893 H 565.049 7.54981 -0.392398 0
M  V30 5894 H 566.317 7.756 0.778761 0
M  V30 5895 N 570.547 0.616602 1.45037 0
M  V30 5896 C 571.796 0.112861 2.01384 0
M  V30 5897 C 572.109 -1.26758 1.48969 0
M  V30 5898 O 573.315 -1.86454 1.9735 0
M  V30 5899 C 571.771 0.151057 3.59583 0
M  V30 5900 C 571.379 1.53191 4.20995 0
M  V30 5901 C 573.123 -0.296974 4.2346 0
M  V30 5902 C 571.03 1.526 5.71373 0
M  V30 5903 H 569.96 0.0384254 0.75302 0
M  V30 5904 H 572.611 0.773262 1.66412 0
M  V30 5905 H 570.993 -0.57617 3.91786 0
M  V30 5906 H 572.167 2.28156 4.00352 0
M  V30 5907 H 570.482 1.92279 3.69348 0
M  V30 5908 H 573.079 -0.320712 5.33737 0
M  V30 5909 H 573.422 -1.32145 3.9477 0
M  V30 5910 H 573.955 0.377279 3.96007 0
M  V30 5911 H 570.694 2.52837 6.04776 0
M  V30 5912 H 570.214 0.819064 5.94181 0
M  V30 5913 H 571.893 1.25357 6.3474 0
M  V30 5914 N 572.025 -1.5352 0.356285 0
M  V30 5915 C 572.975 -2.22204 -0.510815 0
M  V30 5916 C 573.959 -1.21393 -1.05605 0
M  V30 5917 O 575.151 -1.46883 -0.987639 0
M  V30 5918 C 572.28 -3.00786 -1.65478 0
M  V30 5919 C 571.366 -4.08965 -1.12287 0
M  V30 5920 N 571.757 -5.04829 -0.313191 0
M  V30 5921 C 570.055 -4.23505 -1.39856 0
M  V30 5922 C 570.756 -5.81695 -0.0230322 0
M  V30 5923 N 569.732 -5.40074 -0.618144 0
M  V30 5924 H 573.534 -2.93676 0.114711 0
M  V30 5925 H 571.048 -1.61572 0.163811 0
M  V30 5926 H 573.045 -3.48502 -2.28806 0
M  V30 5927 H 571.705 -2.30843 -2.28345 0
M  V30 5928 H 572.716 -5.17879 0.0468202 0
M  V30 5929 H 569.393 -3.64786 -2.0307 0
M  V30 5930 H 570.783 -6.68931 0.630927 0
M  V30 5931 N 573.503 -0.0852151 -1.57369 0
M  V30 5932 C 574.914 0.445428 -1.81309 0
M  V30 5933 C 575.265 1.68795 -1.00013 0
M  V30 5934 O 574.39 2.15211 -0.226573 0
M  V30 5935 C 574.985 0.814887 -3.28854 0
M  V30 5936 C 573.544 1.29032 -3.53592 0
M  V30 5937 C 572.691 0.282089 -2.75861 0
M  V30 5938 H 575.642 -0.310771 -1.55627 0
M  V30 5939 H 575.663 1.67524 -3.41637 0
M  V30 5940 H 575.175 -0.0896309 -3.87996 0
M  V30 5941 H 573.276 2.21289 -2.9977 0
M  V30 5942 H 573.389 1.25898 -4.62262 0
M  V30 5943 H 571.753 0.762182 -2.43029 0
M  V30 5944 H 572.536 -0.614936 -3.37748 0
M  V30 5945 N 574.981 1.5647 0.188427 0
M  V30 5946 C 576.229 1.80655 0.905986 0
M  V30 5947 C 576.55 0.659391 1.83513 0
M  V30 5948 O 575.82 -0.321868 1.93238 0
M  V30 5949 H 574.4 0.666391 0.337538 0
M  V30 5950 H 577.062 1.93949 0.192339 0
M  V30 5951 H 576.158 2.74066 1.49313 0
M  V30 5952 N 576.459 -0.456382 1.50847 0
M  V30 5953 C 577.369 -1.57805 1.73594 0
M  V30 5954 C 578.385 -1.62599 0.619476 0
M  V30 5955 O 579.561 -1.80195 0.899532 0
M  V30 5956 C 576.626 -2.93926 1.8387 0
M  V30 5957 C 575.687 -2.99402 3.07663 0
M  V30 5958 C 574.92 -4.29031 3.1744 0
M  V30 5959 O 575.143 -5.20358 2.33631 0
M  V30 5960 O 574.077 -4.40401 4.10281 0
M  V30 5961 H 577.903 -1.41531 2.68705 0
M  V30 5962 H 575.488 -0.637422 1.3512 0
M  V30 5963 H 577.37 -3.74747 1.92725 0
M  V30 5964 H 576.045 -3.10368 0.91944 0
M  V30 5965 H 574.952 -2.17606 3.043 0
M  V30 5966 H 576.285 -2.87901 3.99216 0
M  V30 5967 N 577.937 -1.40673 -0.710563 0
M  V30 5968 C 578.9 -1.4108 -1.80635 0
M  V30 5969 C 579.9 -0.303783 -1.57904 0
M  V30 5970 O 581.09 -0.562937 -1.64853 0
M  V30 5971 C 578.222 -1.20748 -3.18799 0
M  V30 5972 H 579.415 -2.38612 -1.81671 0
M  V30 5973 H 576.968 -1.26595 -0.916704 0
M  V30 5974 H 577.703 -0.239964 -3.23411 0
M  V30 5975 H 577.488 -2.00941 -3.36698 0
M  V30 5976 H 578.978 -1.23833 -3.98817 0
M  V30 5977 N 579.415 0.9433 -1.26252 0
M  V30 5978 C 580.348 2.04162 -1.01946 0
M  V30 5979 C 581.326 1.62507 0.0550808 0
M  V30 5980 O 582.51 1.883 -0.0869025 0
M  V30 5981 C 579.637 3.34313 -0.54335 0
M  V30 5982 C 578.683 3.94939 -1.61013 0
M  V30 5983 S 579.516 4.29484 -3.19849 0
M  V30 5984 C 580.672 5.62738 -2.74001 0
M  V30 5985 H 580.905 2.24466 -1.94942 0
M  V30 5986 H 578.438 1.08441 -1.09909 0
M  V30 5987 H 580.396 4.09576 -0.275315 0
M  V30 5988 H 579.057 3.11957 0.36629 0
M  V30 5989 H 578.25 4.88812 -1.22795 0
M  V30 5990 H 577.852 3.26202 -1.82943 0
M  V30 5991 H 580.144 6.41356 -2.18333 0
M  V30 5992 H 581.087 6.05839 -3.66558 0
M  V30 5993 H 581.495 5.22514 -2.13634 0
M  V30 5994 N 580.893 1.08022 1.14757 0
M  V30 5995 C 582.17 0.720386 1.81851 0
M  V30 5996 C 582.55 -0.796375 1.95502 0
M  V30 5997 O 581.898 -1.71339 1.51179 0
M  V30 5998 C 582.108 1.44273 3.17783 0
M  V30 5999 C 583.456 1.59925 3.93331 0
M  V30 6000 O 584.48 1.40407 3.2736 0
M  V30 6001 O 583.339 1.92096 5.11626 0
M  V30 6002 H 580.433 0.257142 0.786007 0
M  V30 6003 H 582.979 1.18155 1.21809 0
M  V30 6004 H 581.751 2.47618 3.02987 0
M  V30 6005 H 581.374 0.97279 3.85516 0
M  V30 6006 N 582.371 -1.3172 0.865308 0
M  V30 6007 C 583.318 -2.2863 0.315736 0
M  V30 6008 C 584.288 -1.55524 -0.583213 0
M  V30 6009 O 585.473 -1.83694 -0.51585 0
M  V30 6010 C 582.613 -3.41735 -0.480773 0
M  V30 6011 C 581.726 -4.297 0.445167 0
M  V30 6012 C 580.861 -5.29944 -0.365012 0
M  V30 6013 C 579.9 -6.09554 0.557651 0
M  V30 6014 N 579.037 -7.01768 -0.215994 0
M  V30 6015 H 583.877 -2.75026 1.14736 0
M  V30 6016 H 581.414 -1.35302 0.577209 0
M  V30 6017 H 583.372 -4.06045 -0.958306 0
M  V30 6018 H 582.002 -2.96461 -1.27714 0
M  V30 6019 H 581.054 -3.65875 1.04113 0
M  V30 6020 H 582.366 -4.85295 1.15284 0
M  V30 6021 H 581.52 -5.99908 -0.905255 0
M  V30 6022 H 580.259 -4.74994 -1.106 0
M  V30 6023 H 579.264 -5.38485 1.10969 0
M  V30 6024 H 580.489 -6.66591 1.29742 0
M  V30 6025 H 578.435 -6.49232 -0.939878 0
M  V30 6026 H 578.352 -7.54762 0.432431 0
M  V30 6027 H 579.62 -7.76002 -0.737618 0
M  V30 6028 N 583.85 -0.624285 -1.44708 0
M  V30 6029 C 584.798 0.0969952 -2.32398 0
M  V30 6030 C 585.792 0.842762 -1.46949 0
M  V30 6031 O 586.998 0.756436 -1.63334 0
M  V30 6032 H 583.373 0.0501306 -0.750327 0
M  V30 6033 H 585.344 -0.660767 -2.90992 0
M  V30 6034 C 584.093 1.06967 -3.30837 0
M  V30 6035 H 583.416 0.505242 -3.96595 0
M  V30 6036 H 584.856 1.54397 -3.94889 0
M  V30 6037 C 583.315 2.15153 -2.5925 0
M  V30 6038 O 583.845 3.23139 -2.3863 0
M  V30 6039 N 582.051 1.90898 -2.19103 0
M  V30 6040 H 581.598 1.03086 -2.36074 0
M  V30 6041 H 581.556 2.63485 -1.71531 0
M  V30 6042 N 585.328 1.53329 -0.364422 0
M  V30 6043 C 586.258 2.28627 0.474543 0
M  V30 6044 C 587.239 1.31009 1.08492 0
M  V30 6045 O 588.424 1.59878 1.10239 0
M  V30 6046 C 585.554 3.07465 1.61501 0
M  V30 6047 C 584.508 4.1276 1.13194 0
M  V30 6048 C 583.834 4.79674 2.36255 0
M  V30 6049 C 585.134 5.21847 0.217507 0
M  V30 6050 H 586.828 2.99005 -0.153656 0
M  V30 6051 H 584.374 1.43803 -0.0753406 0
M  V30 6052 H 586.327 3.58889 2.20855 0
M  V30 6053 H 585.051 2.34775 2.27042 0
M  V30 6054 H 583.71 3.62281 0.56109 0
M  V30 6055 H 583.358 4.03557 3.00251 0
M  V30 6056 H 583.058 5.50827 2.04606 0
M  V30 6057 H 584.582 5.33892 2.96297 0
M  V30 6058 H 585.996 5.6878 0.718493 0
M  V30 6059 H 584.393 6.00099 -0.00806408 0
M  V30 6060 H 585.463 4.7921 -0.740653 0
M  V30 6061 N 586.806 0.0935595 1.57322 0
M  V30 6062 C 588.036 -0.578095 1.98347 0
M  V30 6063 C 588.444 -1.62357 0.971441 0
M  V30 6064 O 587.787 -1.83639 -0.0473959 0
M  V30 6065 C 587.849 -1.28525 3.3574 0
M  V30 6066 C 587.513 -0.390714 4.55327 0
M  V30 6067 C 588.51 0.360522 5.18648 0
M  V30 6068 C 586.195 -0.309221 5.01347 0
M  V30 6069 C 588.189 1.18125 6.26359 0
M  V30 6070 C 585.876 0.515157 6.08925 0
M  V30 6071 C 586.874 1.25904 6.71295 0
M  V30 6072 O 586.562 2.06978 7.76798 0
M  V30 6073 H 586.294 -0.159767 0.656849 0
M  V30 6074 H 588.848 0.169058 2.04703 0
M  V30 6075 H 587.078 -2.07894 3.26063 0
M  V30 6076 H 588.767 -1.85128 3.61223 0
M  V30 6077 H 589.533 0.307285 4.84026 0
M  V30 6078 H 585.412 -0.877881 4.52564 0
M  V30 6079 H 588.956 1.76236 6.74971 0
M  V30 6080 H 584.853 0.56988 6.42979 0
M  V30 6081 H 585.621 1.99644 7.93779 0
M  V30 6082 N 588.284 -1.56567 -0.180126 0
M  V30 6083 C 589.561 -1.7235 -0.924931 0
M  V30 6084 C 589.941 -0.652523 -2.00762 0
M  V30 6085 O 589.289 0.334115 -2.26044 0
M  V30 6086 C 589.499 -3.1523 -1.49771 0
M  V30 6087 C 590.847 -3.75921 -1.97405 0
M  V30 6088 O 591.871 -3.18452 -1.59583 0
M  V30 6089 O 590.73 -4.7681 -2.67048 0
M  V30 6090 H 587.824 -0.703502 -0.434758 0
M  V30 6091 H 590.37 -1.6886 -0.168647 0
M  V30 6092 H 589.142 -3.84656 -0.718027 0
M  V30 6093 H 588.765 -3.23009 -2.31842 0
M  V30 6094 N 589.762 0.448376 -1.51087 0
M  V30 6095 C 590.692 1.55102 -1.74544 0
M  V30 6096 C 591.673 1.59357 -0.594932 0
M  V30 6097 O 592.858 1.75261 -0.836491 0
M  V30 6098 C 589.988 2.93268 -1.86041 0
M  V30 6099 C 588.942 3.03877 -3.01402 0
M  V30 6100 C 588.268 4.43914 -2.98068 0
M  V30 6101 C 589.568 2.7898 -4.41551 0
M  V30 6102 H 591.262 1.35724 -2.66869 0
M  V30 6103 H 588.808 0.651498 -1.28419 0
M  V30 6104 H 590.761 3.70356 -2.01034 0
M  V30 6105 H 589.485 3.13853 -0.903548 0
M  V30 6106 H 588.144 2.29227 -2.86096 0
M  V30 6107 H 587.792 4.6145 -2.00182 0
M  V30 6108 H 587.492 4.51944 -3.75527 0
M  V30 6109 H 589.016 5.22991 -3.1514 0
M  V30 6110 H 590.43 3.45805 -4.57265 0
M  V30 6111 H 588.827 2.98431 -5.20633 0
M  V30 6112 H 589.897 1.74663 -4.5235 0
M  V30 6113 N 591.24 1.41047 0.703093 0
M  V30 6114 C 592.651 1.35657 1.28274 0
M  V30 6115 C 593.002 0.0360309 1.96167 0
M  V30 6116 O 592.127 -0.865833 1.98324 0
M  V30 6117 C 592.722 2.45707 2.33267 0
M  V30 6118 C 591.281 2.43738 2.86825 0
M  V30 6119 C 590.428 2.25941 1.60767 0
M  V30 6120 H 593.379 1.50672 0.49836 0
M  V30 6121 H 593.4 2.14333 3.14391 0
M  V30 6122 H 592.912 3.41805 1.83824 0
M  V30 6123 H 591.013 1.51375 3.40465 0
M  V30 6124 H 591.126 3.39779 3.37768 0
M  V30 6125 H 589.49 1.73681 1.86298 0
M  V30 6126 H 590.273 3.24054 1.1333 0
M  V30 6127 N 592.718 -0.936591 1.26751 0
M  V30 6128 C 594.129 -1.49816 1.1141 0
M  V30 6129 C 594.48 -1.9383 -0.304015 0
M  V30 6130 O 593.605 -1.80346 -1.196 0
M  V30 6131 C 594.2 -2.72271 2.01629 0
M  V30 6132 C 592.759 -3.2468 1.9042 0
M  V30 6133 C 591.906 -1.97444 1.94708 0
M  V30 6134 H 594.857 -0.751604 1.39773 0
M  V30 6135 H 594.878 -3.46741 1.56688 0
M  V30 6136 H 594.39 -2.40205 3.04833 0
M  V30 6137 H 592.491 -3.61525 0.901674 0
M  V30 6138 H 592.604 -3.91476 2.76195 0
M  V30 6139 H 590.968 -2.13545 1.38818 0
M  V30 6140 H 591.751 -1.67703 2.9955 0
M  V30 6141 N 594.196 -1.08629 -1.14182 0
M  V30 6142 C 595.106 -0.730126 -2.22949 0
M  V30 6143 C 596.122 0.26436 -1.7198 0
M  V30 6144 O 597.298 0.107742 -2.01112 0
M  V30 6145 C 594.363 -0.147227 -3.46387 0
M  V30 6146 C 593.424 -1.19662 -4.12286 0
M  V30 6147 C 592.657 -0.641437 -5.29831 0
M  V30 6148 O 592.88 0.538351 -5.67854 0
M  V30 6149 O 591.814 -1.39257 -5.85569 0
M  V30 6150 H 595.64 -1.63753 -2.55771 0
M  V30 6151 H 593.225 -0.860118 -1.22157 0
M  V30 6152 H 595.107 0.174923 -4.21037 0
M  V30 6153 H 593.782 0.733304 -3.15285 0
M  V30 6154 H 592.689 -1.57133 -3.395 0
M  V30 6155 H 594.022 -2.0495 -4.475 0
M  V30 6156 N 595.674 1.31259 -0.872281 0
M  V30 6157 C 596.584 2.32221 -0.333255 0
M  V30 6158 C 597.6 1.6481 0.558013 0
M  V30 6159 O 598.776 1.96212 0.454175 0
M  V30 6160 C 595.841 3.43708 0.454479 0
M  V30 6161 C 594.902 4.26774 -0.465024 0
M  V30 6162 C 594.135 5.32937 0.28521 0
M  V30 6163 O 594.358 5.49968 1.513 0
M  V30 6164 O 593.292 6.00834 -0.358126 0
M  V30 6165 H 597.118 2.80252 -1.17016 0
M  V30 6166 H 594.703 1.352 -0.635724 0
M  V30 6167 H 596.585 4.11656 0.900963 0
M  V30 6168 H 595.26 2.97836 1.26789 0
M  V30 6169 H 594.167 3.61571 -0.960055 0
M  V30 6170 H 595.5 4.76217 -1.2441 0
M  V30 6171 N 597.152 0.631951 1.44375 0
M  V30 6172 C 598.115 -0.0628142 2.29114 0
M  V30 6173 C 599.115 -0.771494 1.41084 0
M  V30 6174 O 600.305 -0.615959 1.62947 0
M  V30 6175 C 597.437 -1.09953 3.22681 0
M  V30 6176 H 598.63 0.682509 2.92031 0
M  V30 6177 H 596.183 0.392128 1.51301 0
M  V30 6178 H 596.918 -1.87481 2.64616 0
M  V30 6179 H 596.703 -0.595286 3.87555 0
M  V30 6180 H 598.193 -1.58538 3.86336 0
M  V30 6181 N 598.631 -1.53133 0.372548 0
M  V30 6182 C 599.578 -2.25951 -0.470631 0
M  V30 6183 C 600.548 -1.26895 -1.07176 0
M  V30 6184 O 601.733 -1.55691 -1.10294 0
M  V30 6185 C 598.873 -3.05726 -1.6008 0
M  V30 6186 C 597.986 -4.19684 -1.02416 0
M  V30 6187 C 597.121 -4.86888 -2.124 0
M  V30 6188 C 596.16 -5.92866 -1.52238 0
M  V30 6189 N 595.297 -6.53732 -2.56084 0
M  V30 6190 H 600.137 -2.97587 0.156816 0
M  V30 6191 H 597.674 -1.4683 0.0891571 0
M  V30 6192 H 599.632 -3.50258 -2.26661 0
M  V30 6193 H 598.262 -2.36331 -2.1988 0
M  V30 6194 H 597.314 -3.79588 -0.248426 0
M  V30 6195 H 598.626 -4.95821 -0.544366 0
M  V30 6196 H 597.78 -5.34638 -2.86787 0
M  V30 6197 H 596.519 -4.10239 -2.63734 0
M  V30 6198 H 595.524 -5.4447 -0.763685 0
M  V30 6199 H 596.749 -6.71439 -1.0172 0
M  V30 6200 H 594.695 -5.79932 -3.06618 0
M  V30 6201 H 594.612 -7.25429 -2.12811 0
M  V30 6202 H 595.88 -7.0613 -3.30152 0
M  V30 6203 N 600.109 -0.101901 -1.5727 0
M  V30 6204 C 601.019 0.868647 -2.17926 0
M  V30 6205 C 602.035 1.30527 -1.1506 0
M  V30 6206 O 603.211 1.37178 -1.47459 0
M  V30 6207 C 600.276 2.10727 -2.75309 0
M  V30 6208 C 599.337 1.7242 -3.93154 0
M  V30 6209 C 598.57 2.90377 -4.47791 0
M  V30 6210 O 598.793 4.05305 -4.01353 0
M  V30 6211 O 597.727 2.6845 -5.38719 0
M  V30 6212 H 601.553 0.382544 -3.01281 0
M  V30 6213 H 599.138 0.122812 -1.48894 0
M  V30 6214 H 601.02 2.83303 -3.11958 0
M  V30 6215 H 599.695 2.58376 -1.94996 0
M  V30 6216 H 598.602 0.970039 -3.61305 0
M  V30 6217 H 599.935 1.29528 -4.74851 0
M  V30 6218 N 601.587 1.56661 0.17182 0
M  V30 6219 C 602.836 1.81158 0.886831 0
M  V30 6220 C 603.149 0.679072 1.83434 0
M  V30 6221 O 604.355 0.808964 2.59168 0
M  V30 6222 C 602.811 3.20999 1.6275 0
M  V30 6223 C 602.419 4.42117 0.723652 0
M  V30 6224 C 604.163 3.5479 2.33076 0
M  V30 6225 C 602.07 5.7298 1.46452 0
M  V30 6226 H 601 0.675543 0.334899 0
M  V30 6227 H 603.651 1.82967 0.139765 0
M  V30 6228 H 602.033 3.13506 2.4193 0
M  V30 6229 H 603.207 4.60789 -0.0311485 0
M  V30 6230 H 601.522 4.16197 0.130063 0
M  V30 6231 H 604.119 4.49806 2.89099 0
M  V30 6232 H 604.462 2.79646 3.08389 0
M  V30 6233 H 604.995 3.63834 1.6084 0
M  V30 6234 H 601.734 6.51152 0.753729 0
M  V30 6235 H 601.254 5.58285 2.19266 0
M  V30 6236 H 602.933 6.14916 2.01214 0
M  V30 6237 N 603.065 -0.440357 1.51323 0
M  V30 6238 C 604.476 -1.02032 1.56353 0
M  V30 6239 C 604.827 -1.92382 0.385197 0
M  V30 6240 O 603.952 -2.10583 -0.498373 0
M  V30 6241 C 604.547 -1.85723 2.83359 0
M  V30 6242 C 603.106 -2.38774 2.90971 0
M  V30 6243 C 602.253 -1.17908 2.50984 0
M  V30 6244 H 605.204 -0.221744 1.57143 0
M  V30 6245 H 605.225 -2.71141 2.66951 0
M  V30 6246 H 604.737 -1.19939 3.69102 0
M  V30 6247 H 602.838 -3.08021 2.09651 0
M  V30 6248 H 602.951 -2.71778 3.94555 0
M  V30 6249 H 601.315 -1.52347 2.04114 0
M  V30 6250 H 602.098 -0.537393 3.39068 0
M  V30 6251 N 604.543 -1.41418 -0.695603 0
M  V30 6252 C 605.475 -1.39195 -1.82092 0
M  V30 6253 C 606.488 -0.294132 -1.60121 0
M  V30 6254 O 607.677 -0.555854 -1.69625 0
M  V30 6255 C 604.777 -1.14828 -3.18854 0
M  V30 6256 C 603.95 -2.36649 -3.67853 0
M  V30 6257 C 603.009 -2.08139 -4.83285 0
M  V30 6258 O 602.035 -2.81177 -4.94902 0
M  V30 6259 N 603.237 -1.07162 -5.70523 0
M  V30 6260 H 606.002 -2.36185 -1.84491 0
M  V30 6261 H 603.563 -1.3603 -0.877923 0
M  V30 6262 H 605.555 -0.937075 -3.93702 0
M  V30 6263 H 604.125 -0.264358 -3.1148 0
M  V30 6264 H 603.345 -2.73472 -2.83913 0
M  V30 6265 H 604.633 -3.17816 -3.97329 0
M  V30 6266 H 604.031 -0.467124 -5.63768 0
M  V30 6267 H 602.588 -0.920311 -6.4527 0
M  V30 6268 N 606.021 0.929856 -1.27246 0
M  V30 6269 C 607.267 1.6798 -1.13625 0
M  V30 6270 C 607.6 1.91586 0.317589 0
M  V30 6271 O 606.875 1.50467 1.23247 0
M  V30 6272 C 607.158 3.04766 -1.91806 0
M  V30 6273 C 607.011 2.88415 -3.45162 0
M  V30 6274 C 608.33 4.05063 -1.72082 0
M  V30 6275 H 605.449 0.609632 -0.414147 0
M  V30 6276 H 608.091 1.0792 -1.56376 0
M  V30 6277 H 606.241 3.56034 -1.55474 0
M  V30 6278 H 607.913 2.44282 -3.91311 0
M  V30 6279 H 606.156 2.23802 -3.71611 0
M  V30 6280 H 606.827 3.85482 -3.95105 0
M  V30 6281 H 609.303 3.62798 -2.03757 0
M  V30 6282 H 608.179 4.98765 -2.29182 0
M  V30 6283 H 608.44 4.37021 -0.668206 0
M  V30 6284 N 607.499 1.09233 1.13605 0
M  V30 6285 C 608.462 0.733553 2.17144 0
M  V30 6286 C 609.462 -0.235873 1.59061 0
M  V30 6287 O 610.652 -0.0143167 1.74194 0
M  V30 6288 C 607.784 0.084471 3.40795 0
M  V30 6289 H 608.977 1.65049 2.50397 0
M  V30 6290 H 606.53 0.891264 1.28399 0
M  V30 6291 H 607.265 -0.843795 3.1313 0
M  V30 6292 H 607.05 0.781985 3.84223 0
M  V30 6293 H 608.54 -0.151216 4.17326 0
M  V30 6294 N 608.977 -1.30795 0.87923 0
M  V30 6295 C 610.225 -1.95974 0.493809 0
M  V30 6296 C 610.546 -1.69787 -0.959021 0
M  V30 6297 O 609.816 -1.01832 -1.67353 0
M  V30 6298 H 608.396 -0.725083 0.179622 0
M  V30 6299 H 611.058 -1.59432 1.12105 0
M  V30 6300 H 610.154 -3.05058 0.659263 0
M  V30 6301 N 610.455 -0.639598 -1.44038 0
M  V30 6302 C 611.68 -0.153117 -2.06834 0
M  V30 6303 C 612.105 1.16676 -1.47541 0
M  V30 6304 O 611.463 1.71769 -0.580093 0
M  V30 6305 C 611.511 -0.0609169 -3.60549 0
M  V30 6306 O 610.615 0.98071 -4.00569 0
M  V30 6307 H 609.956 -0.0886402 -0.658057 0
M  V30 6308 H 612.486 -0.878674 -1.84771 0
M  V30 6309 H 612.496 0.126892 -4.07803 0
M  V30 6310 H 611.171 -1.0245 -4.03084 0
M  V30 6311 H 609.748 0.766789 -3.64931 0
M  V30 6312 N 611.933 1.52934 -0.380664 0
M  V30 6313 C 612.863 2.29118 0.450268 0
M  V30 6314 C 613.844 1.32153 1.07096 0
M  V30 6315 O 615.029 1.61038 1.08537 0
M  V30 6316 C 612.159 3.09161 1.58231 0
M  V30 6317 C 611.113 4.13938 1.0881 0
M  V30 6318 C 610.439 4.82153 2.31155 0
M  V30 6319 C 611.739 5.22048 0.162146 0
M  V30 6320 H 613.433 2.98826 -0.185361 0
M  V30 6321 H 610.979 1.43715 -0.0905886 0
M  V30 6322 H 612.932 3.61211 2.17036 0
M  V30 6323 H 611.656 2.3717 2.2454 0
M  V30 6324 H 610.315 3.62855 0.522633 0
M  V30 6325 H 609.963 4.06719 2.95953 0
M  V30 6326 H 609.663 5.52966 1.98752 0
M  V30 6327 H 611.187 5.37004 2.90618 0
M  V30 6328 H 612.601 5.6951 0.658126 0
M  V30 6329 H 610.998 6.00057 -0.0717122 0
M  V30 6330 H 612.068 4.78398 -0.791438 0
M  V30 6331 N 613.412 0.11024 1.57214 0
M  V30 6332 C 614.322 -0.857077 2.18383 0
M  V30 6333 C 615.338 -1.29915 1.1575 0
M  V30 6334 O 616.514 -1.36394 1.48184 0
M  V30 6335 C 613.579 -2.09264 2.76423 0
M  V30 6336 C 612.64 -1.70333 3.94063 0
M  V30 6337 C 611.873 -2.87999 4.49324 0
M  V30 6338 O 612.096 -4.0317 4.03497 0
M  V30 6339 O 611.03 -2.6559 5.40135 0
M  V30 6340 H 614.856 -0.366561 3.0148 0
M  V30 6341 H 612.441 -0.114914 1.48957 0
M  V30 6342 H 614.323 -2.81644 3.13456 0
M  V30 6343 H 612.998 -2.57339 1.96363 0
M  V30 6344 H 611.905 -0.950864 3.61814 0
M  V30 6345 H 613.238 -1.27007 4.75531 0
M  V30 6346 N 614.89 -1.56749 -0.16351 0
M  V30 6347 C 615.8 -2.00255 -1.2221 0
M  V30 6348 C 616.816 -0.915194 -1.47987 0
M  V30 6349 O 617.992 -1.22342 -1.59982 0
M  V30 6350 C 615.057 -2.36035 -2.53946 0
M  V30 6351 C 614.118 -3.58637 -2.35962 0
M  V30 6352 C 613.351 -3.92701 -3.61416 0
M  V30 6353 O 613.574 -3.27632 -4.66919 0
M  V30 6354 O 612.508 -4.86019 -3.55062 0
M  V30 6355 H 616.334 -2.90586 -0.882794 0
M  V30 6356 H 613.919 -1.44721 -0.370978 0
M  V30 6357 H 615.801 -2.59982 -3.31643 0
M  V30 6358 H 614.476 -1.48863 -2.8744 0
M  V30 6359 H 613.383 -3.39898 -1.5627 0
M  V30 6360 H 614.716 -4.46374 -2.0739 0
M  V30 6361 N 616.368 0.432326 -1.51554 0
M  V30 6362 C 617.331 1.50765 -1.72634 0
M  V30 6363 C 618.331 1.49334 -0.596314 0
M  V30 6364 O 619.521 1.51268 -0.863925 0
M  V30 6365 C 616.653 2.90284 -1.7874 0
M  V30 6366 H 617.846 1.33377 -2.68609 0
M  V30 6367 H 615.399 0.661329 -1.4162 0
M  V30 6368 H 616.134 3.13071 -0.845977 0
M  V30 6369 H 615.919 2.92727 -2.6087 0
M  V30 6370 H 617.409 3.68282 -1.96871 0
M  V30 6371 N 617.846 1.41785 0.688094 0
M  V30 6372 C 618.776 1.47 1.8142 0
M  V30 6373 C 619.757 0.327881 1.6691 0
M  V30 6374 O 620.942 0.540362 1.86531 0
M  V30 6375 C 618.072 1.35876 3.19617 0
M  V30 6376 C 617.026 2.47976 3.48844 0
M  V30 6377 C 616.352 2.21915 4.86475 0
M  V30 6378 C 617.652 3.90309 3.47068 0
M  V30 6379 H 619.346 2.41247 1.77314 0
M  V30 6380 H 616.892 1.16116 0.851651 0
M  V30 6381 H 618.845 1.38134 3.98117 0
M  V30 6382 H 617.569 0.38116 3.24368 0
M  V30 6383 H 616.228 2.45013 2.72698 0
M  V30 6384 H 615.876 1.2248 4.8786 0
M  V30 6385 H 615.576 2.97037 5.06994 0
M  V30 6386 H 617.1 2.25901 5.67275 0
M  V30 6387 H 618.514 3.94947 4.1556 0
M  V30 6388 H 616.911 4.65175 3.7912 0
M  V30 6389 H 617.981 4.17927 2.45896 0
M  V30 6390 N 619.324 -0.923095 1.27737 0
M  V30 6391 C 620.272 -2.04567 1.10703 0
M  V30 6392 C 621.266 -1.69375 0.0288445 0
M  V30 6393 O 622.472 -1.79027 0.186913 0
M  V30 6394 H 618.847 -0.670109 0.34126 0
M  V30 6395 H 620.818 -2.1608 2.05796 0
M  V30 6396 C 619.567 -3.38934 0.775837 0
M  V30 6397 H 618.89 -3.66501 1.59741 0
M  V30 6398 H 620.33 -4.18239 0.696548 0
M  V30 6399 C 618.789 -3.32863 -0.520012 0
M  V30 6400 O 619.319 -3.70462 -1.55308 0
M  V30 6401 N 617.525 -2.85958 -0.51732 0
M  V30 6402 H 617.072 -2.55557 0.32379 0
M  V30 6403 H 617.03 -2.82279 -1.38441 0
M  V30 6404 N 620.802 -1.09834 -1.13024 0
M  V30 6405 C 621.765 -0.745058 -2.16752 0
M  V30 6406 C 622.765 0.227435 -1.59183 0
M  V30 6407 O 623.955 0.0050786 -1.74199 0
M  V30 6408 C 621.087 -0.102543 -3.40746 0
M  V30 6409 H 622.28 -1.66375 -2.49518 0
M  V30 6410 H 619.833 -0.898061 -1.27924 0
M  V30 6411 H 620.568 0.827177 -3.13573 0
M  V30 6412 H 620.353 -0.80235 -3.83803 0
M  V30 6413 H 621.843 0.129082 -4.174 0
M  V30 6414 N 622.28 1.30327 -0.886154 0
M  V30 6415 C 623.21 2.30549 -0.370028 0
M  V30 6416 C 624.191 1.61039 0.547751 0
M  V30 6417 O 625.376 1.8864 0.461353 0
M  V30 6418 C 622.506 3.44808 0.415275 0
M  V30 6419 C 621.46 4.26024 -0.41085 0
M  V30 6420 C 620.786 5.32347 0.501128 0
M  V30 6421 C 622.086 4.95433 -1.65359 0
M  V30 6422 H 623.78 2.73969 -1.20754 0
M  V30 6423 H 621.326 1.3171 -0.582097 0
M  V30 6424 H 623.279 4.13986 0.78699 0
M  V30 6425 H 622.003 3.00197 1.28644 0
M  V30 6426 H 620.662 3.58535 -0.764719 0
M  V30 6427 H 620.31 4.83982 1.37004 0
M  V30 6428 H 620.01 5.87581 -0.0478356 0
M  V30 6429 H 621.534 6.0438 0.869333 0
M  V30 6430 H 622.948 5.5712 -1.35239 0
M  V30 6431 H 621.345 5.60537 -2.14284 0
M  V30 6432 H 622.415 4.21493 -2.39733 0
M  V30 6433 N 623.758 0.647228 1.43697 0
M  V30 6434 C 625.035 0.0883758 1.954 0
M  V30 6435 C 625.415 -1.39006 1.58873 0
M  V30 6436 O 624.763 -2.11255 0.87083 0
M  V30 6437 C 624.973 0.328263 3.47453 0
M  V30 6438 C 626.321 0.230009 4.23977 0
M  V30 6439 O 627.345 0.260496 3.55246 0
M  V30 6440 O 626.204 0.148615 5.46298 0
M  V30 6441 H 623.298 -0.0130683 0.826897 0
M  V30 6442 H 625.844 0.72005 1.53666 0
M  V30 6443 H 624.616 1.3535 3.67146 0
M  V30 6444 H 624.239 -0.336772 3.96171 0
M  V30 6445 N 625.236 -1.5273 0.388769 0
M  V30 6446 C 626.166 -2.29353 -0.438111 0
M  V30 6447 C 627.147 -1.32719 -1.06394 0
M  V30 6448 O 628.332 -1.61612 -1.07681 0
M  V30 6449 C 625.462 -3.09995 -1.56589 0
M  V30 6450 C 624.416 -4.14509 -1.06613 0
M  V30 6451 C 623.742 -4.83372 -2.28594 0
M  V30 6452 C 625.042 -5.22127 -0.134459 0
M  V30 6453 H 626.736 -2.98723 0.201206 0
M  V30 6454 H 624.282 -1.43665 0.0982089 0
M  V30 6455 H 626.235 -3.62357 -2.15118 0
M  V30 6456 H 624.959 -2.38357 -2.23279 0
M  V30 6457 H 623.618 -3.63128 -0.503383 0
M  V30 6458 H 623.266 -4.08283 -2.93792 0
M  V30 6459 H 622.966 -5.54012 -1.95817 0
M  V30 6460 H 624.49 -5.38538 -2.87766 0
M  V30 6461 H 625.904 -5.69851 -0.627914 0
M  V30 6462 H 624.301 -6.00011 0.103534 0
M  V30 6463 H 625.371 -4.77971 0.816798 0
M  V30 6464 N 626.714 -0.118576 -1.57153 0
M  V30 6465 C 627.991 0.583062 -1.86708 0
M  V30 6466 C 628.371 1.84841 -1.01967 0
M  V30 6467 O 627.719 2.28288 -0.0984673 0
M  V30 6468 C 627.929 0.875912 -3.3783 0
M  V30 6469 C 629.277 1.22916 -4.0642 0
M  V30 6470 O 630.301 0.966188 -3.42846 0
M  V30 6471 O 629.16 1.72269 -5.18638 0
M  V30 6472 H 626.254 0.294185 -0.772906 0
M  V30 6473 H 628.8 -0.153048 -1.69008 0
M  V30 6474 H 627.572 -0.0207776 -3.91294 0
M  V30 6475 H 627.195 1.66719 -3.60958 0
M  V30 6476 N 628.193 1.56834 0.155195 0
M  V30 6477 C 629.609 1.51315 0.50755 0
M  V30 6478 C 629.809 0.825614 1.83809 0
M  V30 6479 O 628.865 0.39271 2.49427 0
M  V30 6480 C 630.178 2.96074 0.52542 0
M  V30 6481 C 631.726 3.06968 0.611505 0
M  V30 6482 C 632.201 4.53218 0.660115 0
M  V30 6483 N 633.692 4.5753 0.722564 0
M  V30 6484 C 634.427 5.68056 0.781023 0
M  V30 6485 N 633.923 6.88173 0.799327 0
M  V30 6486 N 635.716 5.56068 0.821278 0
M  V30 6487 H 627.867 1.9993 -0.717063 0
M  V30 6488 H 630.13 0.911507 -0.260496 0
M  V30 6489 H 629.836 3.49599 -0.383875 0
M  V30 6490 H 629.71 3.51587 1.36624 0
M  V30 6491 H 632.097 2.53468 1.51122 0
M  V30 6492 H 632.178 2.54513 -0.256306 0
M  V30 6493 H 631.822 5.07354 -0.23541 0
M  V30 6494 H 631.752 5.03447 1.5443 0
M  V30 6495 H 634.243 3.71054 0.716049 0
M  V30 6496 H 634.556 7.6816 0.845553 0
M  V30 6497 H 632.901 6.90751 0.767337 0
M  V30 6498 H 636.092 4.61142 0.804091 0
M  V30 6499 H 636.265 6.42223 0.863372 0
M  V30 6500 N 629.671 -0.424282 1.51781 0
M  V30 6501 C 630.581 -1.54087 1.76902 0
M  V30 6502 C 631.597 -1.61249 0.653826 0
M  V30 6503 O 632.773 -1.78247 0.937552 0
M  V30 6504 C 629.838 -2.8996 1.90063 0
M  V30 6505 C 628.899 -2.92809 3.13945 0
M  V30 6506 C 628.132 -4.22201 3.26469 0
M  V30 6507 O 628.355 -5.15286 2.44616 0
M  V30 6508 O 627.289 -4.31599 4.1953 0
M  V30 6509 H 631.115 -1.358 2.71647 0
M  V30 6510 H 628.7 -0.608618 1.36441 0
M  V30 6511 H 630.582 -3.70575 2.0063 0
M  V30 6512 H 629.257 -3.08347 0.985067 0
M  V30 6513 H 628.164 -2.11102 3.08847 0
M  V30 6514 H 629.497 -2.79369 4.05233 0
M  V30 6515 N 631.149 -1.42148 -0.680565 0
M  V30 6516 C 632.396 -1.4231 -1.44063 0
M  V30 6517 C 632.724 -0.037488 -1.94464 0
M  V30 6518 O 631.979 0.953184 -1.70918 0
M  V30 6519 C 632.278 -2.38945 -2.65782 0
M  V30 6520 C 631.944 -3.85455 -2.33956 0
M  V30 6521 C 630.606 -4.25364 -2.24987 0
M  V30 6522 C 632.958 -4.77895 -2.08004 0
M  V30 6523 C 630.286 -5.55701 -1.88184 0
M  V30 6524 C 632.638 -6.08568 -1.72706 0
M  V30 6525 C 631.302 -6.47482 -1.62244 0
M  V30 6526 H 630.572 -0.520748 -0.527164 0
M  V30 6527 H 633.219 -1.7505 -0.776524 0
M  V30 6528 H 631.524 -1.99511 -3.37198 0
M  V30 6529 H 633.221 -2.36336 -3.23954 0
M  V30 6530 H 629.811 -3.53855 -2.41836 0
M  V30 6531 H 633.995 -4.47854 -2.1387 0
M  V30 6532 H 629.251 -5.84718 -1.78648 0
M  V30 6533 H 633.425 -6.79688 -1.5165 0
M  V30 6534 H 631.052 -7.48387 -1.33496 0
M  V30 6535 N 632.627 0.916307 -1.28225 0
M  V30 6536 C 633.557 2.0352 -1.14464 0
M  V30 6537 C 634.538 1.70045 -0.0430844 0
M  V30 6538 O 635.723 1.92954 -0.219619 0
M  V30 6539 C 632.853 3.37889 -0.803027 0
M  V30 6540 C 631.807 3.85516 -1.85908 0
M  V30 6541 C 631.133 5.1682 -1.37116 0
M  V30 6542 C 632.433 4.07655 -3.26519 0
M  V30 6543 H 634.127 2.1529 -2.08064 0
M  V30 6544 H 631.673 1.03446 -1.00174 0
M  V30 6545 H 633.626 4.15654 -0.693537 0
M  V30 6546 H 632.35 3.26164 0.168674 0
M  V30 6547 H 631.009 3.09953 -1.95767 0
M  V30 6548 H 630.657 5.01497 -0.38859 0
M  V30 6549 H 630.357 5.49657 -2.07728 0
M  V30 6550 H 631.881 5.97143 -1.27484 0
M  V30 6551 H 633.295 4.75953 -3.19596 0
M  V30 6552 H 631.692 4.51818 -3.94943 0
M  V30 6553 H 632.762 3.12553 -3.70727 0
M  V30 6554 N 634.105 1.10431 1.1244 0
M  V30 6555 C 635.052 0.753103 2.18167 0
M  V30 6556 C 636.022 -0.270549 1.63882 0
M  V30 6557 O 637.207 -0.149837 1.90211 0
M  V30 6558 C 634.347 0.191046 3.44571 0
M  V30 6559 C 633.46 1.26999 4.12911 0
M  V30 6560 C 632.595 0.669586 5.26963 0
M  V30 6561 C 631.634 1.72912 5.87169 0
M  V30 6562 N 630.771 1.14898 6.92635 0
M  V30 6563 H 635.611 1.65892 2.47556 0
M  V30 6564 H 633.148 0.828631 1.21541 0
M  V30 6565 H 635.106 -0.152712 4.1692 0
M  V30 6566 H 633.736 -0.677997 3.15599 0
M  V30 6567 H 632.788 1.73087 3.3874 0
M  V30 6568 H 634.1 2.07204 4.53727 0
M  V30 6569 H 633.254 0.275274 6.06075 0
M  V30 6570 H 631.993 -0.163895 4.87425 0
M  V30 6571 H 630.998 2.13286 5.06744 0
M  V30 6572 H 632.223 2.56544 6.28778 0
M  V30 6573 H 630.169 0.336956 6.55134 0
M  V30 6574 H 630.086 1.88786 7.32049 0
M  V30 6575 H 631.354 0.78121 7.75576 0
M  V30 6576 N 635.583 -1.29855 0.893053 0
M  V30 6577 C 636.546 -2.26183 0.370687 0
M  V30 6578 C 637.546 -1.53108 -0.491385 0
M  V30 6579 O 638.736 -1.71643 -0.297386 0
M  V30 6580 C 635.868 -3.37633 -0.470827 0
M  V30 6581 H 637.061 -2.73903 1.22135 0
M  V30 6582 H 634.614 -1.41183 0.67061 0
M  V30 6583 H 635.349 -2.95241 -1.34175 0
M  V30 6584 H 635.134 -3.91825 0.146784 0
M  V30 6585 H 636.624 -4.09313 -0.827825 0
M  V30 6586 N 637.061 -0.65484 -1.43351 0
M  V30 6587 C 638.309 -0.168559 -2.01396 0
M  V30 6588 C 638.63 1.22235 -1.51933 0
M  V30 6589 O 637.9 1.81685 -0.732627 0
M  V30 6590 H 636.48 -0.0593244 -0.744641 0
M  V30 6591 H 639.142 -0.846871 -1.75539 0
M  V30 6592 H 638.238 -0.154428 -3.11718 0
M  V30 6593 N 638.539 1.52521 -0.396863 0
M  V30 6594 C 639.787 2.01274 0.182536 0
M  V30 6595 C 640.108 1.28485 1.46685 0
M  V30 6596 O 639.378 0.407134 1.91623 0
M  V30 6597 H 637.958 0.743671 0.0704442 0
M  V30 6598 H 640.62 1.87547 -0.530289 0
M  V30 6599 H 639.716 3.09687 0.387385 0
M  V30 6600 N 640.017 0.126909 1.57088 0
M  V30 6601 C 641.263 -0.529952 1.95753 0
M  V30 6602 C 641.596 -1.65823 1.01077 0
M  V30 6603 O 640.871 -1.94437 0.0494162 0
M  V30 6604 C 641.154 -1.05517 3.44294 0
M  V30 6605 C 641.007 0.0702253 4.49745 0
M  V30 6606 C 642.326 -1.9435 3.94862 0
M  V30 6607 H 639.445 -0.191168 0.711775 0
M  V30 6608 H 642.087 0.204071 1.88901 0
M  V30 6609 H 640.237 -1.68069 3.50264 0
M  V30 6610 H 641.909 0.705834 4.55868 0
M  V30 6611 H 640.152 0.732259 4.27575 0
M  V30 6612 H 640.823 -0.338642 5.5096 0
M  V30 6613 H 643.299 -1.41658 3.91244 0
M  V30 6614 H 642.175 -2.28015 4.993 0
M  V30 6615 H 642.436 -2.87299 3.36024 0
M  V30 6616 N 641.495 -1.56914 -0.146875 0
M  V30 6617 C 642.742 -1.83356 -0.859467 0
M  V30 6618 C 643.07 -0.707811 -1.81164 0
M  V30 6619 O 642.325 0.303155 -1.93338 0
M  V30 6620 C 642.624 -3.16128 -1.66727 0
M  V30 6621 C 642.29 -4.42586 -0.861881 0
M  V30 6622 C 640.952 -4.76929 -0.639687 0
M  V30 6623 C 643.304 -5.20344 -0.298643 0
M  V30 6624 C 640.632 -5.86491 0.156451 0
M  V30 6625 C 642.984 -6.30742 0.484536 0
M  V30 6626 C 641.648 -6.63635 0.717306 0
M  V30 6627 H 640.918 -0.670947 -0.314501 0
M  V30 6628 H 643.565 -1.91104 -0.123108 0
M  V30 6629 H 641.87 -3.03831 -2.47374 0
M  V30 6630 H 643.567 -3.33802 -2.2221 0
M  V30 6631 H 640.157 -4.15662 -1.04513 0
M  V30 6632 H 644.341 -4.94186 -0.457585 0
M  V30 6633 H 639.597 -6.10419 0.346292 0
M  V30 6634 H 643.771 -6.90188 0.928105 0
M  V30 6635 H 641.398 -7.48367 1.33607 0
M  V30 6636 N 642.974 0.416227 -1.52004 0
M  V30 6637 C 644.202 1.18573 -1.69553 0
M  V30 6638 C 644.617 1.84472 -0.401919 0
M  V30 6639 O 643.974 1.71593 0.621463 0
M  V30 6640 C 644.025 2.25413 -2.82615 0
M  V30 6641 O 643.746 1.62205 -4.06966 0
M  V30 6642 C 645.247 3.15297 -3.11613 0
M  V30 6643 H 642.467 0.356582 -0.56841 0
M  V30 6644 H 645.011 0.490618 -1.98528 0
M  V30 6645 H 643.166 2.90604 -2.56179 0
M  V30 6646 H 643.58 2.3298 -4.69916 0
M  V30 6647 H 645.054 3.86351 -3.94255 0
M  V30 6648 H 645.531 3.77264 -2.24874 0
M  V30 6649 H 646.137 2.55783 -3.39787 0
M  V30 6650 N 644.452 1.42507 0.673017 0
M  V30 6651 C 645.729 1.33554 1.42908 0
M  V30 6652 C 646.109 -0.0262211 2.11084 0
M  V30 6653 O 645.457 -1.04181 2.03368 0
M  V30 6654 C 645.667 2.50498 2.43006 0
M  V30 6655 C 647.015 2.92694 3.07596 0
M  V30 6656 O 648.039 2.50401 2.53333 0
M  V30 6657 O 646.898 3.65899 4.05931 0
M  V30 6658 H 643.992 0.526785 0.637516 0
M  V30 6659 H 646.538 1.54518 0.701591 0
M  V30 6660 H 645.31 3.41272 1.9144 0
M  V30 6661 H 644.933 2.3153 3.23233 0
M  V30 6662 N 645.93 -0.909495 1.28709 0
M  V30 6663 C 646.84 -2.04558 1.14861 0
M  V30 6664 C 647.856 -1.73842 0.0741621 0
M  V30 6665 O 649.032 -1.99383 0.2843 0
M  V30 6666 C 646.097 -3.36957 0.816148 0
M  V30 6667 C 645.158 -3.81255 1.97341 0
M  V30 6668 C 644.391 -5.07335 1.65671 0
M  V30 6669 O 644.614 -5.67514 0.573053 0
M  V30 6670 O 643.548 -5.47449 2.50167 0
M  V30 6671 H 647.374 -2.19161 2.10243 0
M  V30 6672 H 644.959 -1.03159 1.08068 0
M  V30 6673 H 646.841 -4.16436 0.644873 0
M  V30 6674 H 645.516 -3.2352 -0.107983 0
M  V30 6675 H 644.423 -3.02584 2.19986 0
M  V30 6676 H 645.756 -3.99261 2.87839 0
M  V30 6677 N 647.408 -1.11026 -1.11852 0
M  V30 6678 C 648.371 -0.768006 -2.1595 0
M  V30 6679 C 649.371 0.210538 -1.59416 0
M  V30 6680 O 650.561 -0.0133978 -1.74195 0
M  V30 6681 C 647.693 -0.138678 -3.40618 0
M  V30 6682 H 648.886 -1.69012 -2.4774 0
M  V30 6683 H 646.439 -0.911578 -1.26964 0
M  V30 6684 H 647.174 0.793872 -3.14433 0
M  V30 6685 H 646.959 -0.843012 -3.8293 0
M  V30 6686 H 648.449 0.0848039 -4.17514 0
M  V30 6687 N 648.886 1.2938 -0.899927 0
M  V30 6688 C 650.135 1.9483 -0.521937 0
M  V30 6689 C 650.448 1.71725 0.936473 0
M  V30 6690 O 651.654 2.31282 1.42199 0
M  V30 6691 C 650.11 3.48911 -0.88255 0
M  V30 6692 C 649.718 3.80815 -2.35974 0
M  V30 6693 C 651.462 4.20595 -0.57448 0
M  V30 6694 C 649.369 5.28142 -2.66121 0
M  V30 6695 H 648.299 0.729285 -0.191468 0
M  V30 6696 H 650.95 1.47103 -1.09695 0
M  V30 6697 H 649.332 3.95293 -0.236459 0
M  V30 6698 H 650.506 3.45291 -3.05141 0
M  V30 6699 H 648.821 3.22271 -2.63686 0
M  V30 6700 H 651.418 5.29031 -0.776556 0
M  V30 6701 H 651.761 4.13442 0.487005 0
M  V30 6702 H 652.294 3.79945 -1.17842 0
M  V30 6703 H 649.033 5.4036 -3.71068 0
M  V30 6704 H 648.553 5.64913 -2.01578 0
M  V30 6705 H 650.232 5.95738 -2.52399 0
M  V30 6706 N 650.364 0.662433 1.43002 0
M  V30 6707 C 651.641 0.109096 1.95296 0
M  V30 6708 C 652.021 -1.37313 1.60338 0
M  V30 6709 O 651.369 -2.1032 0.893187 0
M  V30 6710 C 651.579 0.365096 3.47085 0
M  V30 6711 C 652.927 0.274964 4.23709 0
M  V30 6712 O 653.951 0.29816 3.5495 0
M  V30 6713 O 652.81 0.206549 5.4611 0
M  V30 6714 H 649.904 -0.00429724 0.826989 0
M  V30 6715 H 652.45 0.736308 1.52894 0
M  V30 6716 H 651.222 1.39237 3.65689 0
M  V30 6717 H 650.845 -0.294733 3.96506 0
M  V30 6718 N 651.842 -1.52309 0.404946 0
M  V30 6719 C 652.805 -2.25491 -0.410651 0
M  V30 6720 C 653.805 -1.27704 -0.977154 0
M  V30 6721 O 654.995 -1.51679 -0.856691 0
M  V30 6722 C 652.127 -3.02197 -1.57765 0
M  V30 6723 H 653.32 -2.99015 0.230277 0
M  V30 6724 H 650.873 -1.55506 0.157377 0
M  V30 6725 H 651.608 -2.33013 -2.25556 0
M  V30 6726 H 651.393 -3.73987 -1.17797 0
M  V30 6727 H 652.883 -3.57719 -2.15469 0
M  V30 6728 N 653.32 -0.135238 -1.57019 0
M  V30 6729 C 654.55 0.525303 -1.9981 0
M  V30 6730 C 654.958 1.59724 -1.01415 0
M  V30 6731 O 654.301 1.837 -0.00130938 0
M  V30 6732 C 654.363 1.19578 -3.3903 0
M  V30 6733 C 654.027 0.269855 -4.56203 0
M  V30 6734 C 655.024 -0.497905 -5.1751 0
M  V30 6735 C 652.709 0.176188 -5.01991 0
M  V30 6736 C 654.703 -1.3469 -6.23007 0
M  V30 6737 C 652.39 -0.676422 -6.07345 0
M  V30 6738 C 653.388 -1.43658 -6.67721 0
M  V30 6739 O 653.076 -2.27501 -7.71037 0
M  V30 6740 H 652.808 0.142296 -0.660854 0
M  V30 6741 H 655.362 -0.223272 -2.04183 0
M  V30 6742 H 653.592 1.99176 -3.3146 0
M  V30 6743 H 655.281 1.75486 -3.66005 0
M  V30 6744 H 656.047 -0.435507 -4.83041 0
M  V30 6745 H 651.926 0.757583 -4.54733 0
M  V30 6746 H 655.47 -1.9407 -6.70062 0
M  V30 6747 H 651.367 -0.740154 -6.41243 0
M  V30 6748 H 652.135 -2.20619 -7.88206 0
M  V30 6749 N 654.798 1.5699 0.138552 0
M  V30 6750 C 656.047 1.82998 0.848205 0
M  V30 6751 C 656.36 0.717829 1.81952 0
M  V30 6752 O 657.566 0.863756 2.57394 0
M  V30 6753 C 656.022 3.24379 1.55904 0
M  V30 6754 C 655.63 4.43552 0.62971 0
M  V30 6755 C 657.374 3.59654 2.25498 0
M  V30 6756 C 655.281 5.75957 1.34266 0
M  V30 6757 H 654.211 0.682495 0.320495 0
M  V30 6758 H 656.862 1.83222 0.100924 0
M  V30 6759 H 655.244 3.18567 2.35226 0
M  V30 6760 H 656.418 4.6062 -0.128882 0
M  V30 6761 H 654.733 4.16379 0.0417526 0
M  V30 6762 H 657.33 4.55837 2.79493 0
M  V30 6763 H 657.673 2.86124 3.02388 0
M  V30 6764 H 658.206 3.67164 1.53087 0
M  V30 6765 H 654.945 6.52604 0.615441 0
M  V30 6766 H 654.465 5.62811 2.07375 0
M  V30 6767 H 656.144 6.19046 1.88126 0
M  V30 6768 N 656.276 -0.40816 1.52223 0
M  V30 6769 C 657.239 -1.48 1.7501 0
M  V30 6770 C 658.239 -1.48367 0.619996 0
M  V30 6771 O 659.429 -1.49874 0.887881 0
M  V30 6772 C 656.561 -2.87403 1.83336 0
M  V30 6773 H 657.754 -1.29086 2.70697 0
M  V30 6774 H 655.307 -0.638715 1.42654 0
M  V30 6775 H 656.042 -3.11686 0.895677 0
M  V30 6776 H 655.827 -2.8854 2.65494 0
M  V30 6777 H 657.317 -3.65103 2.02705 0
M  V30 6778 N 657.755 -1.42862 -0.66545 0
M  V30 6779 C 658.685 -1.49867 -1.79059 0
M  V30 6780 C 659.666 -0.354394 -1.66367 0
M  V30 6781 O 660.851 -0.569969 -1.85647 0
M  V30 6782 C 657.981 -1.40943 -3.17415 0
M  V30 6783 C 656.935 -2.53495 -3.44854 0
M  V30 6784 C 656.261 -2.29626 -4.82883 0
M  V30 6785 C 657.561 -3.95781 -3.40815 0
M  V30 6786 H 659.255 -2.44037 -1.73453 0
M  V30 6787 H 656.801 -1.17456 -0.833071 0
M  V30 6788 H 658.754 -1.4445 -3.95869 0
M  V30 6789 H 657.478 -0.432716 -3.23721 0
M  V30 6790 H 656.137 -2.4932 -2.68766 0
M  V30 6791 H 655.785 -1.30226 -4.8585 0
M  V30 6792 H 655.485 -3.05065 -5.02204 0
M  V30 6793 H 657.009 -2.34897 -5.63609 0
M  V30 6794 H 658.423 -4.01508 -4.09224 0
M  V30 6795 H 656.82 -4.71148 -3.71672 0
M  V30 6796 H 657.89 -4.21786 -2.39216 0
M  V30 6797 N 659.233 0.902656 -1.29189 0
M  V30 6798 C 660.649 1.18296 -1.07137 0
M  V30 6799 C 660.849 2.00701 0.179223 0
M  V30 6800 O 659.905 2.3675 0.877812 0
M  V30 6801 C 661.218 1.90677 -2.32514 0
M  V30 6802 C 662.766 2.03515 -2.37804 0
M  V30 6803 C 663.241 2.79307 -3.62976 0
M  V30 6804 N 664.732 2.86862 -3.63681 0
M  V30 6805 C 665.467 3.46035 -4.57217 0
M  V30 6806 N 664.963 4.06399 -5.61081 0
M  V30 6807 N 666.756 3.43681 -4.44792 0
M  V30 6808 H 658.907 0.352765 -2.0945 0
M  V30 6809 H 661.17 0.21876 -0.922414 0
M  V30 6810 H 660.876 1.3756 -3.23682 0
M  V30 6811 H 660.75 2.91169 -2.39793 0
M  V30 6812 H 663.137 2.55809 -1.47125 0
M  V30 6813 H 663.218 1.02166 -2.34512 0
M  V30 6814 H 662.862 2.2769 -4.54004 0
M  V30 6815 H 662.792 3.80995 -3.63525 0
M  V30 6816 H 665.283 2.43987 -2.88581 0
M  V30 6817 H 665.596 4.49564 -6.2858 0
M  V30 6818 H 663.941 4.0487 -5.64894 0
M  V30 6819 H 667.132 2.9574 -3.62843 0
M  V30 6820 H 667.305 3.89503 -5.17872 0
M  V30 6821 N 660.711 1.11618 1.11262 0
M  V30 6822 C 662.127 0.850468 1.35053 0
M  V30 6823 C 662.327 -0.523868 1.94571 0
M  V30 6824 O 661.383 -1.2743 2.17986 0
M  V30 6825 C 662.696 1.96005 2.28041 0
M  V30 6826 C 664.244 1.98993 2.416 0
M  V30 6827 C 664.719 3.0916 3.37911 0
M  V30 6828 N 666.21 3.08547 3.45475 0
M  V30 6829 C 666.945 3.9043 4.19943 0
M  V30 6830 N 666.441 4.8228 4.97371 0
M  V30 6831 N 668.234 3.786 4.15474 0
M  V30 6832 H 660.385 2.00184 0.709932 0
M  V30 6833 H 662.648 0.870635 0.375099 0
M  V30 6834 H 662.354 2.9499 1.91503 0
M  V30 6835 H 662.228 1.85782 3.28275 0
M  V30 6836 H 664.615 1.00633 2.77411 0
M  V30 6837 H 664.696 2.13292 1.4121 0
M  V30 6838 H 664.34 4.07748 3.02827 0
M  V30 6839 H 664.27 2.92102 4.3816 0
M  V30 6840 H 666.761 2.42 2.90249 0
M  V30 6841 H 667.074 5.41289 5.51567 0
M  V30 6842 H 665.419 4.863 4.96525 0
M  V30 6843 H 668.61 3.06185 3.54074 0
M  V30 6844 H 668.783 4.42647 4.73253 0
M  V30 6845 N 662.189 -1.289 0.906776 0
M  V30 6846 C 663.099 -2.31256 0.394707 0
M  V30 6847 C 664.115 -1.66231 -0.514121 0
M  V30 6848 O 665.291 -1.97347 -0.401994 0
M  V30 6849 C 662.356 -3.44792 -0.363191 0
M  V30 6850 C 661.417 -4.25391 0.578012 0
M  V30 6851 C 660.65 -5.33506 -0.143811 0
M  V30 6852 O 660.873 -5.53786 -1.36665 0
M  V30 6853 O 659.807 -5.99673 0.5173 0
M  V30 6854 H 663.633 -2.77051 1.24405 0
M  V30 6855 H 661.218 -1.33466 0.671346 0
M  V30 6856 H 663.1 -4.139 -0.791503 0
M  V30 6857 H 661.775 -3.01093 -1.18848 0
M  V30 6858 H 660.682 -3.58899 1.05558 0
M  V30 6859 H 662.015 -4.72752 1.36992 0
M  V30 6860 N 663.667 -0.670007 -1.42649 0
M  V30 6861 C 664.577 0.0114788 -2.34597 0
M  V30 6862 C 665.593 0.794055 -1.54825 0
M  V30 6863 O 666.769 0.737472 -1.87412 0
M  V30 6864 C 663.834 0.954436 -3.33304 0
M  V30 6865 C 662.895 0.166925 -4.28975 0
M  V30 6866 C 662.128 1.06497 -5.22967 0
M  V30 6867 O 662.351 2.30446 -5.21777 0
M  V30 6868 O 661.285 0.528347 -5.99577 0
M  V30 6869 H 665.111 -0.745794 -2.944 0
M  V30 6870 H 662.696 -0.430228 -1.43071 0
M  V30 6871 H 664.578 1.49589 -3.93956 0
M  V30 6872 H 663.253 1.69164 -2.7598 0
M  V30 6873 H 662.16 -0.418515 -3.71752 0
M  V30 6874 H 663.493 -0.531067 -4.89327 0
M  V30 6875 N 665.145 1.52092 -0.413018 0
M  V30 6876 C 666.422 1.94356 0.22024 0
M  V30 6877 C 666.802 1.35017 1.62277 0
M  V30 6878 O 666.15 0.527511 2.22328 0
M  V30 6879 C 666.36 3.48289 0.222638 0
M  V30 6880 C 667.708 4.22313 0.440098 0
M  V30 6881 O 668.732 3.54919 0.301826 0
M  V30 6882 O 667.591 5.41829 0.712984 0
M  V30 6883 H 664.685 0.814536 0.14304 0
M  V30 6884 H 667.231 1.63083 -0.469242 0
M  V30 6885 H 666.003 3.83872 -0.758836 0
M  V30 6886 H 665.626 3.85934 0.956057 0
M  V30 6887 N 666.623 0.143563 1.56945 0
M  V30 6888 C 667.9 -0.553285 1.87612 0
M  V30 6889 C 668.28 -1.83195 1.04894 0
M  V30 6890 O 667.628 -2.28102 0.134773 0
M  V30 6891 C 667.838 -0.822055 3.3918 0
M  V30 6892 C 669.186 -1.16435 4.08324 0
M  V30 6893 O 670.21 -0.911522 3.4434 0
M  V30 6894 O 669.069 -1.63996 5.21313 0
M  V30 6895 H 666.163 -0.281851 0.777489 0
M  V30 6896 H 668.709 0.179916 1.68744 0
M  V30 6897 H 667.481 0.0830265 3.91212 0
M  V30 6898 H 667.104 -1.60956 3.63564 0
M  V30 6899 N 668.101 -1.57061 -0.130224 0
M  V30 6900 C 669.517 -1.52103 -0.483413 0
M  V30 6901 C 669.717 -0.854752 -1.82473 0
M  V30 6902 O 668.773 -0.432342 -2.48771 0
M  V30 6903 C 670.086 -2.96872 -0.47825 0
M  V30 6904 C 671.634 -3.07902 -0.562592 0
M  V30 6905 C 672.109 -4.54211 -0.587929 0
M  V30 6906 N 673.6 -4.58621 -0.649684 0
M  V30 6907 C 674.335 -5.69227 -0.690551 0
M  V30 6908 N 673.831 -6.89358 -0.689743 0
M  V30 6909 N 675.624 -5.57304 -0.732708 0
M  V30 6910 H 667.775 -1.98764 0.748779 0
M  V30 6911 H 670.038 -0.907248 0.274965 0
M  V30 6912 H 669.744 -3.48944 0.439444 0
M  V30 6913 H 669.618 -3.53716 -1.31013 0
M  V30 6914 H 672.005 -2.5584 -1.47071 0
M  V30 6915 H 672.086 -2.54073 0.296764 0
M  V30 6916 H 671.73 -5.06915 0.316096 0
M  V30 6917 H 671.66 -5.0584 -1.46401 0
M  V30 6918 H 674.151 -3.72146 -0.656927 0
M  V30 6919 H 674.464 -7.69408 -0.723239 0
M  V30 6920 H 672.809 -6.91884 -0.657347 0
M  V30 6921 H 676 -4.62363 -0.730625 0
M  V30 6922 H 676.173 -6.43515 -0.76109 0
M  V30 6923 N 669.579 0.400081 -1.52437 0
M  V30 6924 C 670.825 1.14788 -1.67187 0
M  V30 6925 C 671.158 1.89928 -0.405074 0
M  V30 6926 O 670.433 1.85118 0.596804 0
M  V30 6927 C 670.716 2.13507 -2.89977 0
M  V30 6928 C 670.569 1.42204 -4.2673 0
M  V30 6929 C 671.888 3.14069 -3.083 0
M  V30 6930 H 669.007 0.415939 -0.608411 0
M  V30 6931 H 671.649 0.432542 -1.85011 0
M  V30 6932 H 669.799 2.7451 -2.74912 0
M  V30 6933 H 671.471 0.842503 -4.53541 0
M  V30 6934 H 669.714 0.723939 -4.27717 0
M  V30 6935 H 670.385 2.14281 -5.08712 0
M  V30 6936 H 672.861 2.63148 -3.22323 0
M  V30 6937 H 671.737 3.80398 -3.95713 0
M  V30 6938 H 671.998 3.82309 -2.22018 0
M  V30 6939 N 671.057 1.43213 0.657864 0
M  V30 6940 C 672.473 1.26511 0.972992 0
M  V30 6941 C 672.673 0.181477 2.00681 0
M  V30 6942 O 671.729 -0.441649 2.48608 0
M  V30 6943 C 673.042 2.62784 1.46168 0
M  V30 6944 C 674.59 2.70278 1.57857 0
M  V30 6945 C 675.065 4.06958 2.10117 0
M  V30 6946 N 676.556 4.08999 2.17426 0
M  V30 6947 C 677.291 5.11585 2.58975 0
M  V30 6948 N 676.787 6.24548 2.99853 0
M  V30 6949 N 678.58 4.9894 2.58873 0
M  V30 6950 H 670.731 2.12384 -0.0263129 0
M  V30 6951 H 672.994 0.946638 0.0507992 0
M  V30 6952 H 672.7 3.43022 0.776474 0
M  V30 6953 H 672.574 2.87863 2.43751 0
M  V30 6954 H 674.961 1.90376 2.25479 0
M  V30 6955 H 675.042 2.4897 0.587179 0
M  V30 6956 H 674.686 4.87325 1.43098 0
M  V30 6957 H 674.616 4.25628 3.10078 0
M  V30 6958 H 677.107 3.27457 1.88627 0
M  V30 6959 H 677.42 6.98661 3.30292 0
M  V30 6960 H 675.765 6.28027 2.97669 0
M  V30 6961 H 678.956 4.09757 2.26311 0
M  V30 6962 H 679.129 5.79019 2.90932 0
M  V30 6963 N 672.536 -0.895792 1.29666 0
M  V30 6964 C 673.469 -2.00238 1.09453 0
M  V30 6965 C 674.447 -1.62599 0.00527044 0
M  V30 6966 O 675.631 -1.87847 0.156729 0
M  V30 6967 C 672.758 -3.32066 0.667054 0
M  V30 6968 C 671.804 -3.88691 1.7556 0
M  V30 6969 S 672.637 -4.17317 3.35569 0
M  V30 6970 C 673.793 -5.52181 2.94698 0
M  V30 6971 H 674.026 -2.17076 2.03138 0
M  V30 6972 H 671.559 -1.04287 1.13858 0
M  V30 6973 H 673.517 -4.08272 0.427136 0
M  V30 6974 H 672.178 -3.13101 -0.250256 0
M  V30 6975 H 671.371 -4.83918 1.40853 0
M  V30 6976 H 670.973 -3.19187 1.94924 0
M  V30 6977 H 673.265 -6.3281 2.41986 0
M  V30 6978 H 674.208 -5.91817 3.88791 0
M  V30 6979 H 674.616 -5.14225 2.32879 0
M  V30 6980 N 674.014 -1.12206 -1.10668 0
M  V30 6981 C 675.242 -0.898635 -1.86366 0
M  V30 6982 C 675.657 0.551991 -1.80551 0
M  V30 6983 O 675.014 1.38152 -1.19249 0
M  V30 6984 C 675.065 -1.36199 -3.34861 0
M  V30 6985 O 674.786 -2.75576 -3.40573 0
M  V30 6986 C 676.287 -1.17515 -4.2744 0
M  V30 6987 H 673.507 -0.321281 -0.589084 0
M  V30 6988 H 676.051 -1.49142 -1.39918 0
M  V30 6989 H 674.206 -0.81249 -3.78784 0
M  V30 6990 H 674.62 -2.95851 -4.33096 0
M  V30 6991 H 676.094 -1.54827 -5.29842 0
M  V30 6992 H 676.571 -0.115486 -4.39048 0
M  V30 6993 H 677.177 -1.71203 -3.89319 0
M  V30 6994 N 675.492 1.28418 -0.913599 0
M  V30 6995 C 676.903 1.77024 -0.593237 0
M  V30 6996 C 677.254 1.74779 0.891441 0
M  V30 6997 O 676.379 1.34237 1.69733 0
M  V30 6998 C 676.974 3.21456 -1.07011 0
M  V30 6999 C 675.533 3.67786 -0.800664 0
M  V30 7000 C 674.68 2.48185 -1.23691 0
M  V30 7001 H 677.631 1.14883 -1.09487 0
M  V30 7002 H 677.652 3.78269 -0.411481 0
M  V30 7003 H 677.164 3.23058 -2.1507 0
M  V30 7004 H 675.265 3.71644 0.266725 0
M  V30 7005 H 675.378 4.57934 -1.4083 0
M  V30 7006 H 673.742 2.46116 -0.655655 0
M  V30 7007 H 674.525 2.52506 -2.32585 0
M  V30 7008 N 676.97 0.677563 1.42291 0
M  V30 7009 C 677.92 -0.0218641 2.2799 0
M  V30 7010 C 678.904 -0.770816 1.41235 0
M  V30 7011 O 680.096 -0.649273 1.64662 0
M  V30 7012 C 677.225 -0.970449 3.29298 0
M  V30 7013 C 676.311 -0.218695 4.23536 0
M  V30 7014 N 676.702 0.777908 4.99782 0
M  V30 7015 C 675 -0.456748 4.43655 0
M  V30 7016 C 675.701 1.22632 5.68627 0
M  V30 7017 N 674.677 0.55573 5.40752 0
M  V30 7018 H 678.479 0.742516 2.84366 0
M  V30 7019 H 675.993 0.506862 1.54288 0
M  V30 7020 H 677.99 -1.48652 3.89497 0
M  V30 7021 H 676.65 -1.73463 2.74483 0
M  V30 7022 H 677.661 1.15754 5.04798 0
M  V30 7023 H 674.338 -1.20021 3.99877 0
M  V30 7024 H 675.728 2.05231 6.39789 0
M  V30 7025 N 678.448 -1.51871 0.421078 0
M  V30 7026 C 679.859 -1.86644 -0.0457991 0
M  V30 7027 C 680.21 -1.33919 -1.43388 0
M  V30 7028 O 679.335 -0.683316 -2.05328 0
M  V30 7029 C 679.93 -3.38681 -0.0898844 0
M  V30 7030 C 678.489 -3.73049 -0.501127 0
M  V30 7031 C 677.636 -2.75485 0.316723 0
M  V30 7032 H 680.587 -1.45327 0.637635 0
M  V30 7033 H 680.608 -3.69636 -0.902734 0
M  V30 7034 H 680.12 -3.77025 0.920513 0
M  V30 7035 H 678.221 -3.40288 -1.51773 0
M  V30 7036 H 678.334 -4.78512 -0.237217 0
M  V30 7037 H 676.698 -2.53725 -0.222663 0
M  V30 7038 H 677.481 -3.16671 1.32569 0
M  V30 7039 N 679.926 -0.151884 -1.56866 0
M  V30 7040 C 681.172 0.498742 -1.96572 0
M  V30 7041 C 681.505 1.64194 -1.03702 0
M  V30 7042 O 680.78 1.94334 -0.0803432 0
M  V30 7043 C 681.063 1.00027 -3.45929 0
M  V30 7044 C 680.916 -0.141767 -4.49577 0
M  V30 7045 C 682.235 1.88044 -3.97904 0
M  V30 7046 H 679.354 0.17982 -0.714726 0
M  V30 7047 H 681.996 -0.234097 -1.88552 0
M  V30 7048 H 680.146 1.62476 -3.52894 0
M  V30 7049 H 681.818 -0.778269 -4.54687 0
M  V30 7050 H 680.061 -0.80019 -4.26356 0
M  V30 7051 H 680.732 0.250947 -5.51429 0
M  V30 7052 H 683.208 1.35416 -3.93449 0
M  V30 7053 H 682.084 2.20043 -5.02864 0
M  V30 7054 H 682.345 2.81916 -3.40552 0
M  V30 7055 N 681.404 1.57128 0.121893 0
M  V30 7056 C 682.314 2.03425 1.16857 0
M  V30 7057 C 683.33 0.954108 1.45509 0
M  V30 7058 O 684.506 1.26541 1.56682 0
M  V30 7059 C 681.571 2.42685 2.47599 0
M  V30 7060 C 680.632 3.64767 2.2637 0
M  V30 7061 C 679.865 4.02145 3.50878 0
M  V30 7062 O 680.088 3.39897 4.58068 0
M  V30 7063 O 679.022 4.95262 3.42051 0
M  V30 7064 H 682.848 2.92825 0.80544 0
M  V30 7065 H 680.433 1.45654 0.332477 0
M  V30 7066 H 682.315 2.68684 3.24634 0
M  V30 7067 H 680.99 1.56432 2.83392 0
M  V30 7068 H 679.897 3.43922 1.47203 0
M  V30 7069 H 681.23 4.51716 1.95482 0
M  V30 7070 N 682.882 -0.391992 1.52647 0
M  V30 7071 C 684.129 -1.13732 1.67545 0
M  V30 7072 C 684.457 -1.90045 0.413881 0
M  V30 7073 O 683.712 -1.86157 -0.603646 0
M  V30 7074 C 684.011 -2.14401 2.85949 0
M  V30 7075 C 683.677 -1.54767 4.23507 0
M  V30 7076 C 682.339 -1.38229 4.60919 0
M  V30 7077 C 684.691 -1.11382 5.0916 0
M  V30 7078 C 682.019 -0.7685 5.81645 0
M  V30 7079 C 684.371 -0.514143 6.30507 0
M  V30 7080 C 683.035 -0.33604 6.66654 0
M  V30 7081 H 682.305 -0.416174 0.613091 0
M  V30 7082 H 684.952 -0.422327 1.86785 0
M  V30 7083 H 683.257 -2.92108 2.61114 0
M  V30 7084 H 684.954 -2.71974 2.94671 0
M  V30 7085 H 681.544 -1.68626 3.94035 0
M  V30 7086 H 685.728 -1.22962 4.80826 0
M  V30 7087 H 680.984 -0.618681 6.08262 0
M  V30 7088 H 685.158 -0.169657 6.96193 0
M  V30 7089 H 682.785 0.14166 7.60068 0
M  V30 7090 N 684.36 -1.4356 -0.65026 0
M  V30 7091 C 685.27 -1.514 -1.79207 0
M  V30 7092 C 686.286 -0.400895 -1.69319 0
M  V30 7093 O 687.462 -0.655458 -1.90436 0
M  V30 7094 C 684.527 -1.43737 -3.155 0
M  V30 7095 C 683.588 -2.65743 -3.37163 0
M  V30 7096 C 682.821 -2.58436 -4.66954 0
M  V30 7097 O 683.044 -1.63374 -5.46503 0
M  V30 7098 O 681.978 -3.48984 -4.90402 0
M  V30 7099 H 685.804 -2.47825 -1.75547 0
M  V30 7100 H 683.389 -1.25594 -0.809111 0
M  V30 7101 H 685.271 -1.41916 -3.96784 0
M  V30 7102 H 683.946 -0.504488 -3.19745 0
M  V30 7103 H 682.853 -2.73136 -2.55632 0
M  V30 7104 H 684.186 -3.58014 -3.37768 0
M  V30 7105 N 685.838 0.888903 -1.30139 0
M  V30 7106 C 686.768 2.01046 -1.18755 0
M  V30 7107 C 687.749 1.69916 -0.0791438 0
M  V30 7108 O 688.934 1.92445 -0.260498 0
M  V30 7109 C 686.064 3.36109 -0.874518 0
M  V30 7110 C 685.018 3.81486 -1.94043 0
M  V30 7111 C 684.344 5.13796 -1.48047 0
M  V30 7112 C 685.644 4.00637 -3.35093 0
M  V30 7113 H 687.338 2.10828 -2.12584 0
M  V30 7114 H 684.884 1.01298 -1.02346 0
M  V30 7115 H 686.837 4.14089 -0.781548 0
M  V30 7116 H 685.561 3.26449 0.0994519 0
M  V30 7117 H 684.22 3.05731 -2.02297 0
M  V30 7118 H 683.868 5.0056 -0.494878 0
M  V30 7119 H 683.568 5.45127 -2.19341 0
M  V30 7120 H 685.092 5.94305 -1.40121 0
M  V30 7121 H 686.506 4.69067 -3.2962 0
M  V30 7122 H 684.903 4.43339 -4.04438 0
M  V30 7123 H 685.973 3.0462 -3.77273 0
M  V30 7124 N 687.317 1.12792 1.10072 0
M  V30 7125 C 688.547 0.907189 1.85617 0
M  V30 7126 C 688.955 -0.547181 1.81115 0
M  V30 7127 O 688.298 -1.39024 1.20075 0
M  V30 7128 C 688.36 1.30872 3.34832 0
M  V30 7129 C 688.024 2.77516 3.6309 0
M  V30 7130 C 689.021 3.75696 3.59373 0
M  V30 7131 C 686.706 3.14513 3.91646 0
M  V30 7132 C 688.7 5.08888 3.83812 0
M  V30 7133 C 686.387 4.47886 4.15742 0
M  V30 7134 C 687.385 5.44882 4.11816 0
M  V30 7135 O 687.073 6.7585 4.35295 0
M  V30 7136 H 686.805 0.323855 0.593375 0
M  V30 7137 H 689.359 1.50262 1.40038 0
M  V30 7138 H 687.589 0.656518 3.81086 0
M  V30 7139 H 689.278 1.06153 3.91773 0
M  V30 7140 H 690.044 3.48458 3.37345 0
M  V30 7141 H 685.923 2.39622 3.93831 0
M  V30 7142 H 689.467 5.84586 3.80663 0
M  V30 7143 H 685.364 4.74851 4.37249 0
M  V30 7144 H 686.132 6.81853 4.52791 0
M  V30 7145 N 688.795 -1.27931 0.920396 0
M  V30 7146 C 690.025 -1.98516 0.572256 0
M  V30 7147 C 690.433 -1.68912 -0.852375 0
M  V30 7148 O 689.776 -0.94203 -1.57707 0
M  V30 7149 C 689.838 -3.5243 0.709485 0
M  V30 7150 C 689.502 -4.0564 2.10489 0
M  V30 7151 C 690.499 -4.1897 3.07831 0
M  V30 7152 C 688.184 -4.40168 2.41986 0
M  V30 7153 C 690.178 -4.66093 4.34783 0
M  V30 7154 C 687.865 -4.86983 3.69176 0
M  V30 7155 C 688.863 -4.99903 4.65388 0
M  V30 7156 O 688.551 -5.45694 5.90316 0
M  V30 7157 H 688.283 -0.64047 0.216274 0
M  V30 7158 H 690.837 -1.6393 1.23758 0
M  V30 7159 H 689.067 -3.86698 -0.0129263 0
M  V30 7160 H 690.756 -4.04233 0.367474 0
M  V30 7161 H 691.522 -3.92562 2.84816 0
M  V30 7162 H 687.401 -4.29358 1.67846 0
M  V30 7163 H 690.945 -4.76092 5.09884 0
M  V30 7164 H 686.842 -5.12832 3.92012 0
M  V30 7165 H 687.61 -5.63965 5.932 0
M  V30 7166 N 690.273 -0.685099 -1.4193 0
M  V30 7167 C 691.498 -0.218842 -2.06242 0
M  V30 7168 C 691.923 1.11923 -1.51178 0
M  V30 7169 O 691.281 1.69837 -0.634446 0
M  V30 7170 C 691.329 -0.175592 -3.60172 0
M  V30 7171 O 690.433 0.852776 -4.03487 0
M  V30 7172 H 689.774 -0.109531 -0.654904 0
M  V30 7173 H 692.304 -0.937013 -1.81882 0
M  V30 7174 H 692.314 -0.00291151 -4.08 0
M  V30 7175 H 690.989 -1.15222 -3.99621 0
M  V30 7176 H 689.566 0.650301 -3.67186 0
M  V30 7177 N 691.751 1.51645 -0.429126 0
M  V30 7178 C 692.997 2.02314 0.140286 0
M  V30 7179 C 693.33 1.31314 1.43074 0
M  V30 7180 O 692.605 0.425531 1.89788 0
M  V30 7181 C 692.888 3.5822 0.36749 0
M  V30 7182 C 692.741 4.39846 -0.941039 0
M  V30 7183 C 694.06 4.25055 1.14089 0
M  V30 7184 H 691.179 0.735335 0.0495112 0
M  V30 7185 H 693.821 1.81358 -0.566514 0
M  V30 7186 H 691.971 3.76207 0.969556 0
M  V30 7187 H 693.643 4.33527 -1.57646 0
M  V30 7188 H 691.886 4.05259 -1.54751 0
M  V30 7189 H 692.557 5.47069 -0.73621 0
M  V30 7190 H 695.033 4.11288 0.630986 0
M  V30 7191 H 693.909 5.34038 1.26863 0
M  V30 7192 H 694.17 3.85358 2.16683 0
M  V30 7193 O 693.268 0.301146 1.58667 0
M  V30 7194 H 693.959 -0.263453 1.919 0
M  V30 END ATOM
M  V30 BEGIN BOND
M  V30 END BOND
M  V30 END CTAB
M  END
$$$$
