drugbank_target|O60658 High affinity cAMP-specific and IBMX-insensitive 3',5'-cyclic phosphodiesterase 8A (DB00201; DB09283)
 OpenBabel12092120373D

  0  0  0     0  0            999 V3000
M  V30 BEGIN CTAB
M  V30 COUNTS 13016 13140 0 0 0
M  V30 BEGIN ATOM
M  V30 1 H -0.908 1.98254 -0.117106 0
M  V30 2 N 0 1.576 0 0
M  V30 3 C 0.933 2.03868 1.02534 0
M  V30 4 C 1.911 0.928543 1.3348 0
M  V30 5 O 3.095 1.19667 1.45644 0
M  V30 6 C 0.222 2.43627 2.35294 0
M  V30 7 C -0.732 3.65373 2.2001 0
M  V30 8 S 0.101 5.13292 1.52614 0
M  V30 9 C 1.257 5.56322 2.86805 0
M  V30 10 H 1.49 2.90518 0.631377 0
M  V30 11 H -0.977 1.52953 0.210867 0
M  V30 12 H 0.981 2.67203 3.11629 0
M  V30 13 H -0.358 1.57376 2.7183 0
M  V30 14 H -1.165 3.90944 3.18086 0
M  V30 15 H -1.563 3.418 1.51819 0
M  V30 16 H 0.729 5.58782 3.83104 0
M  V30 17 H 1.672 6.56266 2.65933 0
M  V30 18 H 2.08 4.83886 2.90714 0
M  V30 19 N 1.4781 -0.272755 1.55222 0
M  V30 20 C 2.7261 -1.00234 1.75492 0
M  V30 21 C 3.0471 -1.8681 0.5592 0
M  V30 22 O 2.3171 -1.91215 -0.425882 0
M  V30 23 H 0.8971 -0.373076 0.647166 0
M  V30 24 H 3.5591 -0.296926 1.92625 0
M  V30 25 H 2.6551 -1.63913 2.65592 0
M  V30 26 N 2.9562 -1.48159 -0.537278 0
M  V30 27 C 4.1962 -1.57397 -1.30405 0
M  V30 28 C 4.5602 -0.239202 -1.90504 0
M  V30 29 O 5.7612 -0.206528 -2.68005 0
M  V30 30 C 4.0322 -2.6754 -2.36974 0
M  V30 31 S 5.5912 -2.96496 -3.23475 0
M  V30 32 H 2.4092 -0.555577 -0.443684 0
M  V30 33 H 5.0112 -1.85644 -0.612912 0
M  V30 34 H 3.7152 -3.63092 -1.91291 0
M  V30 35 H 3.2462 -2.41172 -3.10805 0
M  V30 36 H 5.2612 -2.35234 -4.36897 0
M  V30 37 N 4.4343 0.785586 -1.36625 0
M  V30 38 C 5.3973 1.87999 -1.31107 0
M  V30 39 C 6.3973 1.59316 -0.217959 0
M  V30 40 O 7.5873 1.67656 -0.472977 0
M  V30 41 C 4.7193 3.24861 -1.03334 0
M  V30 42 H 5.9123 1.94307 -2.2844 0
M  V30 43 H 3.4653 0.983813 -1.21453 0
M  V30 44 H 4.2003 3.24235 -0.0647432 0
M  V30 45 H 3.9853 3.4707 -1.82441 0
M  V30 46 H 5.4753 4.04929 -1.02088 0
M  V30 47 N 5.9124 1.20967 1.01018 0
M  V30 48 C 7.3234 1.02319 1.56165 0
M  V30 49 C 7.6744 -0.418546 1.91684 0
M  V30 50 O 6.7994 -1.30096 1.72928 0
M  V30 51 C 7.3944 1.85109 2.8376 0
M  V30 52 C 5.9534 1.70809 3.35412 0
M  V30 53 C 5.1004 1.82643 2.08655 0
M  V30 54 H 8.0514 1.35065 0.833255 0
M  V30 55 H 8.0724 1.35827 3.55431 0
M  V30 56 H 7.5844 2.90035 2.57878 0
M  V30 57 H 5.6854 0.685464 3.66241 0
M  V30 58 H 5.7984 2.52467 4.07182 0
M  V30 59 H 4.1624 1.25896 2.21409 0
M  V30 60 H 4.9454 2.89066 1.85191 0
M  V30 61 N 7.3905 -1.2043 1.01659 0
M  V30 62 C 8.6155 -1.94318 0.724942 0
M  V30 63 C 9.0405 -1.74266 -0.708034 0
M  V30 64 O 8.3985 -1.03694 -1.48719 0
M  V30 65 C 8.4465 -3.44486 1.06591 0
M  V30 66 O 7.5505 -4.12017 0.177599 0
M  V30 67 H 6.8915 -0.60708 0.26898 0
M  V30 68 H 9.4215 -1.52861 1.35995 0
M  V30 69 H 9.4315 -3.95106 1.01762 0
M  V30 70 H 8.1065 -3.58404 2.10997 0
M  V30 71 H 6.6835 -3.71821 0.283421 0
M  V30 72 N 8.8686 -0.792821 -1.36206 0
M  V30 73 C 10.1176 -0.363353 -1.984 0
M  V30 74 C 10.4306 1.07172 -1.63626 0
M  V30 75 O 11.6366 1.60362 -2.19081 0
M  V30 76 C 10.0926 -0.59872 -3.54885 0
M  V30 77 C 9.7006 -2.04543 -3.9858 0
M  V30 78 C 11.4446 -0.233926 -4.23855 0
M  V30 79 C 9.3516 -2.22727 -5.47856 0
M  V30 80 H 8.2816 -0.13212 -0.742334 0
M  V30 81 H 10.9326 -0.974935 -1.55458 0
M  V30 82 H 9.3146 0.0826222 -3.95914 0
M  V30 83 H 10.4886 -2.76345 -3.68741 0
M  V30 84 H 8.8036 -2.36879 -3.42458 0
M  V30 85 H 11.4006 -0.348027 -5.33566 0
M  V30 86 H 11.7436 0.818351 -4.08177 0
M  V30 87 H 12.2766 -0.868639 -3.882 0
M  V30 88 H 9.0156 -3.2635 -5.68486 0
M  V30 89 H 8.5356 -1.55434 -5.7931 0
M  V30 90 H 10.2146 -2.03607 -6.14128 0
M  V30 91 N 10.3467 1.47872 -0.545128 0
M  V30 92 C 11.2967 2.26842 0.229456 0
M  V30 93 C 12.2807 1.33626 0.896267 0
M  V30 94 O 13.4727 1.58063 0.79657 0
M  V30 95 C 10.6017 3.19089 1.26638 0
M  V30 96 C 9.6877 4.19783 0.603598 0
M  V30 97 N 10.0787 5.0479 -0.319405 0
M  V30 98 C 8.3767 4.3765 0.858989 0
M  V30 99 C 9.0777 5.77433 -0.703241 0
M  V30 100 N 8.0537 5.43566 -0.0608309 0
M  V30 101 H 11.8557 2.89947 -0.480391 0
M  V30 102 H 9.3697 1.58263 -0.364209 0
M  V30 103 H 11.3667 3.74337 1.83515 0
M  V30 104 H 10.0267 2.5754 1.97745 0
M  V30 105 H 11.0377 5.13244 -0.692889 0
M  V30 106 H 7.7147 3.87281 1.55948 0
M  V30 107 H 9.1047 6.55824 -1.46098 0
M  V30 108 N 11.8248 0.280983 1.55075 0
M  V30 109 C 13.0738 -0.334784 1.98902 0
M  V30 110 C 13.3868 -1.56534 1.17288 0
M  V30 111 O 14.5928 -2.25443 1.51287 0
M  V30 112 C 13.0488 -0.646994 3.54037 0
M  V30 113 C 12.6568 0.564085 4.44435 0
M  V30 114 C 14.4008 -1.22506 4.06439 0
M  V30 115 C 12.3078 0.226137 5.90967 0
M  V30 116 H 11.2378 -0.128866 0.742906 0
M  V30 117 H 13.8888 0.386556 1.79382 0
M  V30 118 H 12.2708 -1.42739 3.6938 0
M  V30 119 H 13.4448 1.34082 4.40861 0
M  V30 120 H 11.7598 1.0594 4.02698 0
M  V30 121 H 14.3568 -1.49182 5.13468 0
M  V30 122 H 14.6998 -2.16085 3.55827 0
M  V30 123 H 15.2328 -0.50682 3.94558 0
M  V30 124 H 11.9718 1.12996 6.45687 0
M  V30 125 H 11.4918 -0.513717 5.97596 0
M  V30 126 H 13.1708 -0.179539 6.46751 0
M  V30 127 N 13.3029 -1.57598 0.00835791 0
M  V30 128 C 14.5279 -1.95617 -0.689103 0
M  V30 129 C 14.9529 -0.883753 -1.66046 0
M  V30 130 O 14.3109 0.157352 -1.80616 0
M  V30 131 C 14.3589 -3.32736 -1.38994 0
M  V30 132 O 13.4629 -3.27631 -2.50463 0
M  V30 133 H 12.8039 -0.638379 -0.182668 0
M  V30 134 H 15.3339 -2.045 0.064036 0
M  V30 135 H 15.3439 -3.68494 -1.75147 0
M  V30 136 H 14.0189 -4.1034 -0.677778 0
M  V30 137 H 12.5959 -3.03561 -2.16576 0
M  V30 138 N 14.781 0.264519 -1.55364 0
M  V30 139 C 15.691 1.34902 -1.91934 0
M  V30 140 C 16.707 1.53595 -0.817593 0
M  V30 141 O 17.883 1.67558 -1.11742 0
M  V30 142 C 14.948 2.68676 -2.19121 0
M  V30 143 C 14.009 2.58657 -3.4263 0
M  V30 144 C 13.242 3.86051 -3.68511 0
M  V30 145 O 13.465 4.87126 -2.96757 0
M  V30 146 O 12.399 3.85744 -4.62045 0
M  V30 147 H 16.225 1.06883 -2.8427 0
M  V30 148 H 13.81 0.463775 -1.42019 0
M  V30 149 H 15.692 3.47759 -2.37995 0
M  V30 150 H 14.367 2.96463 -1.29966 0
M  V30 151 H 13.274 1.7792 -3.29082 0
M  V30 152 H 14.607 2.35818 -4.32031 0
M  V30 153 N 16.2591 1.48442 0.529413 0
M  V30 154 C 17.6751 1.34575 0.858004 0
M  V30 155 C 17.8751 0.3572 1.98309 0
M  V30 156 O 16.9311 -0.221379 2.51528 0
M  V30 157 C 18.2441 2.74617 1.22499 0
M  V30 158 C 19.7921 2.83109 1.33484 0
M  V30 159 C 20.2671 4.23854 1.73526 0
M  V30 160 N 21.7581 4.2653 1.80628 0
M  V30 161 C 22.4931 5.32372 2.12997 0
M  V30 162 N 21.9891 6.48491 2.43786 0
M  V30 163 N 23.7821 5.19766 2.14008 0
M  V30 164 H 15.9331 2.1133 -0.212925 0
M  V30 165 H 18.1961 0.947439 -0.0326199 0
M  V30 166 H 17.9021 3.4852 0.471905 0
M  V30 167 H 17.7761 3.08177 2.17501 0
M  V30 168 H 20.1631 2.09462 2.0787 0
M  V30 169 H 20.2441 2.53168 0.366027 0
M  V30 170 H 19.8881 4.98018 0.997013 0
M  V30 171 H 19.8181 4.5124 2.71459 0
M  V30 172 H 22.3091 3.42772 1.59108 0
M  V30 173 H 22.6221 7.24993 2.67592 0
M  V30 174 H 20.9671 6.51765 2.41304 0
M  V30 175 H 24.1581 4.28066 1.89412 0
M  V30 176 H 24.3311 6.02354 2.38902 0
M  V30 177 N 17.7372 -0.778329 1.37039 0
M  V30 178 C 18.6672 -1.90546 1.34962 0
M  V30 179 C 19.6482 -1.68681 0.219274 0
M  V30 180 O 20.8332 -1.89634 0.418624 0
M  V30 181 C 17.9632 -3.27734 1.14925 0
M  V30 182 C 16.9172 -3.64147 2.24902 0
M  V30 183 C 16.2432 -4.99806 1.89996 0
M  V30 184 C 17.5432 -3.71579 3.67051 0
M  V30 185 H 19.2372 -1.92541 2.29277 0
M  V30 186 H 16.7832 -0.924948 1.10366 0
M  V30 187 H 18.7362 -4.06215 1.12104 0
M  V30 188 H 17.4602 -3.26154 0.170631 0
M  V30 189 H 16.1192 -2.8797 2.26868 0
M  V30 190 H 15.7672 -4.94759 0.906796 0
M  V30 191 H 15.4672 -5.25139 2.63634 0
M  V30 192 H 16.9912 -5.80694 1.88749 0
M  V30 193 H 18.4052 -4.40227 3.67251 0
M  V30 194 H 16.8022 -4.08405 4.39688 0
M  V30 195 H 17.8722 -2.72404 4.01154 0
M  V30 196 N 19.2153 -1.21501 -1.00376 0
M  V30 197 C 20.4613 -1.03452 -1.74429 0
M  V30 198 C 20.7943 0.430764 -1.89362 0
M  V30 199 O 20.0693 1.31962 -1.42886 0
M  V30 200 C 20.3523 -1.73375 -3.15615 0
M  V30 201 C 20.2053 -3.27431 -3.08397 0
M  V30 202 C 21.5243 -1.47732 -4.14564 0
M  V30 203 H 18.6433 -0.377226 -0.633143 0
M  V30 204 H 21.2853 -1.49693 -1.17013 0
M  V30 205 H 19.4353 -1.34064 -3.64636 0
M  V30 206 H 21.1073 -3.76119 -2.67081 0
M  V30 207 H 19.3503 -3.5767 -2.45468 0
M  V30 208 H 20.0213 -3.71524 -4.08258 0
M  V30 209 H 22.4973 -1.8186 -3.74254 0
M  V30 210 H 21.3733 -1.99169 -5.11491 0
M  V30 211 H 21.6343 -0.407589 -4.40217 0
M  V30 212 N 20.6934 1.19889 -1.02296 0
M  V30 213 C 21.6564 2.21116 -0.603351 0
M  V30 214 C 22.6564 1.5738 0.329884 0
M  V30 215 O 23.8464 1.73802 0.117702 0
M  V30 216 C 20.9784 3.40696 0.117992 0
M  V30 217 H 22.1714 2.59754 -1.49893 0
M  V30 218 H 19.7244 1.33463 -0.813468 0
M  V30 219 H 20.4594 3.07569 1.0282 0
M  V30 220 H 20.2444 3.88188 -0.552511 0
M  V30 221 H 21.7344 4.15692 0.398696 0
M  V30 222 N 22.1715 0.800033 1.35784 0
M  V30 223 C 23.0815 0.207204 2.33683 0
M  V30 224 C 24.0975 -0.64631 1.61551 0
M  V30 225 O 25.2735 -0.559604 1.93469 0
M  V30 226 C 22.3385 -0.639659 3.40748 0
M  V30 227 C 21.3995 0.233585 4.28664 0
M  V30 228 C 20.6325 -0.572954 5.30616 0
M  V30 229 O 20.8555 -1.80816 5.40982 0
M  V30 230 O 19.7895 0.0327285 6.01891 0
M  V30 231 H 23.6155 1.01692 2.86169 0
M  V30 232 H 21.2005 0.561691 1.38439 0
M  V30 233 H 23.0825 -1.12223 4.06182 0
M  V30 234 H 21.7575 -1.42708 2.90544 0
M  V30 235 H 20.6645 0.763147 3.66233 0
M  V30 236 H 21.9975 0.984784 4.82248 0
M  V30 237 N 23.6496 -1.47581 0.552962 0
M  V30 238 C 24.9266 -1.95563 -0.0381515 0
M  V30 239 C 25.3066 -1.49552 -1.48988 0
M  V30 240 O 24.6546 -0.732414 -2.16444 0
M  V30 241 C 24.8646 -3.48848 0.102919 0
M  V30 242 C 26.2126 -4.24577 -0.0446082 0
M  V30 243 O 27.2366 -3.56187 0.0302548 0
M  V30 244 O 26.0956 -5.46116 -0.204923 0
M  V30 245 H 23.1896 -0.824321 -0.0665067 0
M  V30 246 H 25.7356 -1.58001 0.619186 0
M  V30 247 H 24.5076 -3.75129 1.11328 0
M  V30 248 H 24.1306 -3.93165 -0.592224 0
M  V30 249 N 25.1277 -0.289203 -1.54924 0
M  V30 250 C 26.0907 0.579144 -2.21762 0
M  V30 251 C 27.0907 1.07047 -1.1999 0
M  V30 252 O 28.2807 0.968384 -1.44803 0
M  V30 253 C 25.4127 1.80055 -2.8947 0
M  V30 254 H 26.6057 -0.00464908 -2.999 0
M  V30 255 H 24.1587 -0.0399306 -1.56249 0
M  V30 256 H 24.8937 2.42449 -2.15381 0
M  V30 257 H 24.6787 1.45602 -3.64064 0
M  V30 258 H 26.1687 2.41773 -3.40493 0
M  V30 259 N 26.6058 1.57591 -0.0167156 0
M  V30 260 C 28.0168 1.79201 0.523834 0
M  V30 261 C 28.3678 0.925796 1.72984 0
M  V30 262 O 27.4928 0.132792 2.15992 0
M  V30 263 C 28.0878 3.25 0.957091 0
M  V30 264 C 26.6468 3.47648 1.44283 0
M  V30 265 C 25.7938 2.74374 0.401757 0
M  V30 266 H 28.7448 1.56831 -0.242816 0
M  V30 267 H 28.7658 3.34031 1.82219 0
M  V30 268 H 28.2778 3.88019 0.0791415 0
M  V30 269 H 26.3788 2.89866 2.34113 0
M  V30 270 H 26.4918 4.56352 1.45877 0
M  V30 271 H 24.8558 2.39485 0.867121 0
M  V30 272 H 25.6388 3.40102 -0.467513 0
M  V30 273 N 28.0839 -0.256276 1.55502 0
M  V30 274 C 29.3089 -1.00766 1.81276 0
M  V30 275 C 29.7339 -1.78524 0.59252 0
M  V30 276 O 29.0919 -1.75413 -0.45827 0
M  V30 277 C 29.1399 -1.92869 3.04687 0
M  V30 278 O 28.2439 -3.019 2.80945 0
M  V30 279 H 27.5849 -0.287224 0.598664 0
M  V30 280 H 30.1149 -0.280109 2.02674 0
M  V30 281 H 30.1249 -2.34511 3.33869 0
M  V30 282 H 28.7999 -1.35689 3.93143 0
M  V30 283 H 27.3769 -2.64454 2.62904 0
M  V30 284 N 29.562 -1.4872 -0.521534 0
M  V30 285 C 30.973 -1.50607 -1.10337 0
M  V30 286 C 31.324 -0.280612 -1.94183 0
M  V30 287 O 30.449 0.611507 -2.0758 0
M  V30 288 C 31.044 -2.72903 -2.00772 0
M  V30 289 C 29.603 -2.77634 -2.54158 0
M  V30 290 C 28.75 -2.44241 -1.31307 0
M  V30 291 H 31.701 -1.55714 -0.306388 0
M  V30 292 H 31.722 -2.519 -2.85178 0
M  V30 293 H 31.234 -3.62077 -1.39721 0
M  V30 294 H 29.335 -1.92689 -3.18907 0
M  V30 295 H 29.448 -3.79283 -2.92714 0
M  V30 296 H 27.812 -1.95577 -1.63161 0
M  V30 297 H 28.595 -3.35666 -0.719943 0
M  V30 298 N 31.0401 0.771051 -1.3745 0
M  V30 299 C 32.0031 1.86598 -1.33093 0
M  V30 300 C 33.0031 1.59076 -0.234845 0
M  V30 301 O 34.1931 1.67145 -0.490732 0
M  V30 302 C 31.3251 3.23747 -1.06773 0
M  V30 303 H 32.5181 1.91873 -2.30488 0
M  V30 304 H 30.0711 0.970876 -1.2249 0
M  V30 305 H 30.8061 3.24148 -0.099129 0
M  V30 306 H 30.5911 3.45115 -1.86112 0
M  V30 307 H 32.0811 4.03824 -1.06377 0
M  V30 308 N 32.5182 1.22032 0.997298 0
M  V30 309 C 33.4812 0.987909 2.06816 0
M  V30 310 C 34.4812 -0.0440084 1.6074 0
M  V30 311 O 35.6712 0.194053 1.73116 0
M  V30 312 C 32.8032 0.49132 3.37341 0
M  V30 313 H 33.9962 1.93803 2.28868 0
M  V30 314 H 31.5492 1.03838 1.16822 0
M  V30 315 H 32.2842 -0.463364 3.20973 0
M  V30 316 H 32.0692 1.23575 3.72118 0
M  V30 317 H 33.5592 0.348824 4.16141 0
M  V30 318 N 33.9963 -1.19345 1.0293 0
M  V30 319 C 35.4073 -1.70725 0.755633 0
M  V30 320 C 35.7583 -1.82326 -0.724676 0
M  V30 321 O 34.8833 -1.49471 -1.56484 0
M  V30 322 C 35.4783 -3.10084 1.36503 0
M  V30 323 C 34.0373 -3.58723 1.13994 0
M  V30 324 C 33.1843 -2.35577 1.46283 0
M  V30 325 H 36.1353 -1.0418 1.19718 0
M  V30 326 H 36.1563 -3.72787 0.762217 0
M  V30 327 H 35.6683 -3.01609 2.44241 0
M  V30 328 H 33.7693 -3.72512 0.0807901 0
M  V30 329 H 33.8823 -4.42816 1.82894 0
M  V30 330 H 32.2463 -2.38935 0.88217 0
M  V30 331 H 33.0293 -2.29731 2.55105 0
M  V30 332 N 35.4744 -0.807222 -1.35358 0
M  V30 333 C 36.8854 -0.44876 -1.81226 0
M  V30 334 C 37.2364 1.02929 -1.67033 0
M  V30 335 O 36.3614 1.79991 -1.20133 0
M  V30 336 C 36.9564 -0.807774 -3.2903 0
M  V30 337 C 35.5154 -0.501901 -3.73039 0
M  V30 338 C 34.6624 -1.03304 -2.57339 0
M  V30 339 H 37.6134 -0.998808 -1.23327 0
M  V30 340 H 37.6344 -0.10554 -3.80354 0
M  V30 341 H 37.1464 -1.88357 -3.39328 0
M  V30 342 H 35.2474 0.565128 -3.68289 0
M  V30 343 H 35.3604 -1.03497 -4.67787 0
M  V30 344 H 33.7244 -0.455339 -2.50597 0
M  V30 345 H 34.5074 -2.11496 -2.70415 0
M  V30 346 N 36.9525 1.47285 -0.560781 0
M  V30 347 C 37.8825 2.32857 0.173105 0
M  V30 348 C 38.8635 1.44009 0.905281 0
M  V30 349 O 40.0485 1.7286 0.885046 0
M  V30 350 C 37.1785 3.25861 1.20133 0
M  V30 351 C 36.1325 4.23978 0.585388 0
M  V30 352 C 35.4585 5.06332 1.7185 0
M  V30 353 C 36.7585 5.20242 -0.463178 0
M  V30 354 H 38.4525 2.94466 -0.541307 0
M  V30 355 H 35.9985 1.41601 -0.261764 0
M  V30 356 H 37.9515 3.84569 1.72293 0
M  V30 357 H 36.6755 2.62315 1.94573 0
M  V30 358 H 35.3345 3.66501 0.085054 0
M  V30 359 H 34.9825 4.39186 2.45203 0
M  V30 360 H 34.6825 5.72762 1.31213 0
M  V30 361 H 36.2065 5.67899 2.24329 0
M  V30 362 H 37.6205 5.73293 -0.027502 0
M  V30 363 H 36.0175 5.94896 -0.788627 0
M  V30 364 H 37.0875 4.65504 -1.35773 0
M  V30 365 N 38.4306 0.297415 1.54768 0
M  V30 366 C 39.6556 -0.318435 2.04941 0
M  V30 367 C 40.0806 -1.4701 1.17345 0
M  V30 368 O 39.4386 -1.80436 0.176758 0
M  V30 369 C 39.4866 -0.755749 3.52592 0
M  V30 370 O 38.5906 -1.86088 3.68028 0
M  V30 371 H 37.9316 -0.062421 0.661059 0
M  V30 372 H 40.4616 0.438215 1.99852 0
M  V30 373 H 40.4716 -1.04552 3.94376 0
M  V30 374 H 39.1466 0.0867233 4.1581 0
M  V30 375 H 37.7236 -1.57193 3.38149 0
M  V30 376 N 39.9087 -1.5758 0.0250728 0
M  V30 377 C 41.1337 -1.96337 -0.668317 0
M  V30 378 C 41.5587 -0.901314 -1.651 0
M  V30 379 O 40.9167 0.138187 -1.80773 0
M  V30 380 C 40.9647 -3.34191 -1.35457 0
M  V30 381 O 40.0687 -3.30269 -2.46974 0
M  V30 382 H 39.4097 -0.640281 -0.175887 0
M  V30 383 H 41.9397 -2.0442 0.0857224 0
M  V30 384 H 41.9497 -3.70331 -1.71228 0
M  V30 385 H 40.6247 -4.11036 -0.634218 0
M  V30 386 H 39.2017 -3.05841 -2.13344 0
M  V30 387 N 41.3868 0.248026 -1.55636 0
M  V30 388 C 42.6348 0.974295 -1.77065 0
M  V30 389 C 42.9558 1.85897 -0.588849 0
M  V30 390 O 42.2258 1.91868 0.395407 0
M  V30 391 H 40.8058 0.362733 -0.653019 0
M  V30 392 H 43.4678 0.266244 -1.93073 0
M  V30 393 H 42.5638 1.59667 -2.68166 0
M  V30 394 N 42.8649 1.48995 0.513639 0
M  V30 395 C 44.1129 1.57531 1.26604 0
M  V30 396 C 44.4339 0.258236 1.93283 0
M  V30 397 O 43.7039 -0.721502 1.8213 0
M  V30 398 H 42.2839 0.580387 0.470276 0
M  V30 399 H 44.9459 1.85552 0.596373 0
M  V30 400 H 44.0419 2.36486 2.03669 0
M  V30 401 N 44.343 -0.763751 1.37857 0
M  V30 402 C 45.754 -1.3405 1.29952 0
M  V30 403 C 46.105 -1.96138 -0.0492898 0
M  V30 404 O 45.23 -1.94372 -0.951239 0
M  V30 405 C 45.825 -2.43729 2.35333 0
M  V30 406 C 44.384 -2.97151 2.31037 0
M  V30 407 C 43.531 -1.70438 2.18738 0
M  V30 408 H 46.482 -0.563396 1.48363 0
M  V30 409 H 46.503 -3.23412 2.00462 0
M  V30 410 H 46.015 -1.9851 3.33489 0
M  V30 411 H 44.116 -3.46724 1.3643 0
M  V30 412 H 44.229 -3.52221 3.24772 0
M  V30 413 H 42.593 -1.93673 1.65418 0
M  V30 414 H 43.376 -1.27312 3.18821 0
M  V30 415 N 45.8211 -1.22559 -0.990812 0
M  V30 416 C 47.2371 -0.985996 -1.255 0
M  V30 417 C 47.4371 0.319173 -1.98956 0
M  V30 418 O 46.4931 1.04127 -2.3003 0
M  V30 419 C 47.8061 -2.18607 -2.06474 0
M  V30 420 C 49.3541 -2.22985 -2.19651 0
M  V30 421 C 49.8291 -3.4255 -3.04012 0
M  V30 422 N 51.3201 -3.42725 -3.11599 0
M  V30 423 C 52.0551 -4.31892 -3.7717 0
M  V30 424 N 51.5511 -5.31279 -4.44651 0
M  V30 425 N 53.3441 -4.19662 -3.73952 0
M  V30 426 H 45.4951 -2.06469 -0.49841 0
M  V30 427 H 47.7581 -0.904853 -0.282747 0
M  V30 428 H 47.4641 -3.13267 -1.59865 0
M  V30 429 H 47.3381 -2.18838 -3.07229 0
M  V30 430 H 49.7251 -1.28871 -2.65474 0
M  V30 431 H 49.8061 -2.26791 -1.18319 0
M  V30 432 H 49.4501 -4.36965 -2.58889 0
M  V30 433 H 49.3801 -3.35984 -4.0549 0
M  V30 434 H 51.8711 -2.70807 -2.63575 0
M  V30 435 H 52.1841 -5.95593 -4.92431 0
M  V30 436 H 50.5291 -5.3519 -4.43392 0
M  V30 437 H 53.7201 -3.41268 -3.20396 0
M  V30 438 H 53.8931 -4.89358 -4.24774 0
M  V30 439 N 47.2992 1.18797 -1.03562 0
M  V30 440 C 48.2292 2.24472 -0.643019 0
M  V30 441 C 49.2102 1.66433 0.351283 0
M  V30 442 O 50.3952 1.92803 0.232505 0
M  V30 443 C 47.5252 3.473 4.24935e-05 0
M  V30 444 C 46.4792 4.18055 -0.917257 0
M  V30 445 C 45.8052 5.34519 -0.138941 0
M  V30 446 C 47.1052 4.72109 -2.23407 0
M  V30 447 H 48.7992 2.57566 -1.52643 0
M  V30 448 H 46.3452 1.23806 -0.735394 0
M  V30 449 H 48.2982 4.20426 0.286383 0
M  V30 450 H 47.0222 3.13424 0.918299 0
M  V30 451 H 45.6812 3.46821 -1.1879 0
M  V30 452 H 45.3292 4.96891 0.781562 0
M  V30 453 H 45.0292 5.82794 -0.750005 0
M  V30 454 H 46.5532 6.10438 0.1405 0
M  V30 455 H 47.9672 5.36955 -2.00879 0
M  V30 456 H 46.3642 5.30897 -2.79765 0
M  V30 457 H 47.4342 3.89807 -2.88407 0
M  V30 458 N 48.7773 0.814389 1.34928 0
M  V30 459 C 50.1883 0.458364 1.80986 0
M  V30 460 C 50.5393 -1.02042 1.67577 0
M  V30 461 O 49.6643 -1.79352 1.21086 0
M  V30 462 C 50.2593 0.825212 3.28597 0
M  V30 463 C 48.8183 0.521677 3.72767 0
M  V30 464 C 47.9653 1.04668 2.56788 0
M  V30 465 H 50.9163 1.00533 1.22795 0
M  V30 466 H 50.9373 0.12571 3.80292 0
M  V30 467 H 50.4493 1.90154 3.38324 0
M  V30 468 H 48.5503 -0.545589 3.68584 0
M  V30 469 H 48.6633 1.05977 4.67232 0
M  V30 470 H 47.0273 0.468622 2.50352 0
M  V30 471 H 47.8103 2.12927 2.6929 0
M  V30 472 N 50.2554 -1.46986 0.568584 0
M  V30 473 C 51.1874 -2.28233 -0.210337 0
M  V30 474 C 52.2004 -1.37682 -0.868767 0
M  V30 475 O 53.3894 -1.62406 -0.740705 0
M  V30 476 C 50.4894 -3.12293 -1.3163 0
M  V30 477 C 49.6624 -4.30878 -0.7525 0
M  V30 478 C 48.7214 -4.96445 -1.74439 0
M  V30 479 O 47.7474 -5.54482 -1.286 0
M  V30 480 N 48.9494 -4.92171 -3.07812 0
M  V30 481 H 51.7144 -2.95723 0.486648 0
M  V30 482 H 49.2754 -1.56742 0.405409 0
M  V30 483 H 51.2674 -3.53022 -1.97883 0
M  V30 484 H 49.8374 -2.46971 -1.91636 0
M  V30 485 H 49.0574 -3.94104 0.0871128 0
M  V30 486 H 50.3454 -5.07558 -0.35536 0
M  V30 487 H 49.7434 -4.46239 -3.47688 0
M  V30 488 H 48.3004 -5.36884 -3.69592 0
M  V30 489 N 51.7335 -0.305618 -1.54608 0
M  V30 490 C 52.9815 0.301701 -1.99835 0
M  V30 491 C 53.3025 1.54054 -1.19551 0
M  V30 492 O 52.5725 1.93702 -0.292658 0
M  V30 493 H 51.1525 0.114468 -0.738178 0
M  V30 494 H 53.8145 -0.418016 -1.90364 0
M  V30 495 H 52.9105 0.570548 -3.06841 0
M  V30 496 N 53.2116 1.57565 -0.0334293 0
M  V30 497 C 54.1436 2.0739 0.975811 0
M  V30 498 C 55.1566 0.998166 1.2861 0
M  V30 499 O 56.3456 1.27426 1.25 0
M  V30 500 C 53.4456 2.4871 2.30209 0
M  V30 501 C 52.6186 3.79413 2.17634 0
M  V30 502 C 51.6776 4.07237 3.33233 0
M  V30 503 O 50.7036 4.77425 3.09927 0
M  V30 504 N 51.9056 3.5775 4.5716 0
M  V30 505 H 54.6706 2.94598 0.55066 0
M  V30 506 H 52.2316 1.61173 0.15323 0
M  V30 507 H 54.2236 2.64413 3.06378 0
M  V30 508 H 52.7936 1.66845 2.64351 0
M  V30 509 H 52.0136 3.73465 1.26165 0
M  V30 510 H 53.3016 4.65038 2.0644 0
M  V30 511 H 52.6996 3.00976 4.78989 0
M  V30 512 H 51.2566 3.78724 5.30482 0
M  V30 513 N 54.6897 -0.239769 1.55765 0
M  V30 514 C 55.6367 -1.29696 1.90913 0
M  V30 515 C 56.6067 -1.47478 0.764164 0
M  V30 516 O 57.7917 -1.61345 1.01845 0
M  V30 517 C 54.9317 -2.64598 2.21544 0
M  V30 518 C 54.0447 -2.54765 3.48882 0
M  V30 519 C 53.1797 -3.82069 3.69049 0
M  V30 520 C 52.2187 -3.66883 4.89963 0
M  V30 521 N 51.3557 -4.86094 5.06614 0
M  V30 522 H 56.1957 -0.990224 2.81067 0
M  V30 523 H 53.7327 -0.477684 1.39128 0
M  V30 524 H 55.6907 -3.43132 2.3731 0
M  V30 525 H 54.3207 -2.93405 1.34585 0
M  V30 526 H 53.3727 -1.67763 3.41409 0
M  V30 527 H 54.6847 -2.39457 4.37563 0
M  V30 528 H 53.8387 -4.69046 3.84812 0
M  V30 529 H 52.5777 -4.00282 2.78614 0
M  V30 530 H 51.5827 -2.78289 4.74168 0
M  V30 531 H 52.8077 -3.50157 5.81865 0
M  V30 532 H 50.7537 -5.04655 4.19117 0
M  V30 533 H 50.6707 -4.73443 5.89396 0
M  V30 534 H 51.9387 -5.74549 5.26795 0
M  V30 535 N 56.1678 -1.49265 -0.50573 0
M  V30 536 C 57.3958 -1.62215 -1.28429 0
M  V30 537 C 57.8108 -0.291697 -1.86533 0
M  V30 538 O 57.1678 0.722233 -1.67601 0
M  V30 539 C 57.2188 -2.68735 -2.41793 0
M  V30 540 O 56.9398 -3.96619 -1.86078 0
M  V30 541 C 58.4408 -2.92346 -3.3324 0
M  V30 542 H 55.6608 -0.546239 -0.389697 0
M  V30 543 H 58.2048 -1.95265 -0.607609 0
M  V30 544 H 56.3598 -2.38476 -3.053 0
M  V30 545 H 56.7738 -4.55256 -2.60465 0
M  V30 546 H 58.2478 -3.70623 -4.09075 0
M  V30 547 H 58.7248 -2.02081 -3.89948 0
M  V30 548 H 59.3308 -3.24003 -2.75503 0
M  V30 549 N 57.6459 0.756429 -1.3826 0
M  V30 550 C 58.6089 1.85176 -1.35065 0
M  V30 551 C 59.6089 1.58818 -0.251703 0
M  V30 552 O 60.7989 1.66615 -0.508433 0
M  V30 553 C 57.9309 3.22596 -1.10201 0
M  V30 554 H 59.1239 1.89417 -2.3251 0
M  V30 555 H 56.6769 0.95783 -1.23512 0
M  V30 556 H 57.4119 3.24025 -0.133504 0
M  V30 557 H 57.1969 3.43122 -1.89762 0
M  V30 558 H 58.6869 4.02673 -1.10654 0
M  V30 559 N 59.124 1.23083 0.984299 0
M  V30 560 C 60.087 1.00979 2.05757 0
M  V30 561 C 61.087 -0.0269573 1.60777 0
M  V30 562 O 62.277 0.212403 1.729 0
M  V30 563 C 59.409 0.527072 3.36801 0
M  V30 564 H 60.602 1.9622 2.26799 0
M  V30 565 H 58.155 1.05072 1.15714 0
M  V30 566 H 58.89 -0.429294 3.21446 0
M  V30 567 H 58.675 1.27515 3.70786 0
M  V30 568 H 60.165 0.392942 4.15747 0
M  V30 569 N 60.6021 -1.18246 1.0419 0
M  V30 570 C 61.5321 -2.24127 0.654914 0
M  V30 571 C 62.5131 -1.66617 -0.342451 0
M  V30 572 O 63.6981 -1.92924 -0.222277 0
M  V30 573 C 60.8281 -3.47295 0.0183757 0
M  V30 574 C 59.7821 -4.17563 0.939414 0
M  V30 575 C 59.1081 -5.34438 0.167286 0
M  V30 576 C 60.4081 -4.70917 2.25908 0
M  V30 577 H 62.1021 -2.56753 1.54007 0
M  V30 578 H 59.6481 -1.23414 0.74195 0
M  V30 579 H 61.6011 -4.20572 -0.264082 0
M  V30 580 H 60.3251 -3.13907 -0.901664 0
M  V30 581 H 58.9841 -3.46186 1.20628 0
M  V30 582 H 58.6321 -4.97298 -0.7552 0
M  V30 583 H 58.3321 -5.82388 0.780901 0
M  V30 584 H 59.8561 -6.10504 -0.108125 0
M  V30 585 H 61.2701 -5.35882 2.03724 0
M  V30 586 H 59.6671 -5.29406 2.82577 0
M  V30 587 H 60.7371 -3.88272 2.9047 0
M  V30 588 N 62.0802 -0.821533 -1.34494 0
M  V30 589 C 63.4912 -0.467956 -1.8074 0
M  V30 590 C 63.8422 1.01151 -1.68116 0
M  V30 591 O 62.9672 1.78707 -1.22036 0
M  V30 592 C 63.5622 -0.842627 -3.28154 0
M  V30 593 C 62.1212 -0.541439 -3.72485 0
M  V30 594 C 61.2682 -1.06028 -2.56229 0
M  V30 595 H 64.2192 -1.01183 -1.22261 0
M  V30 596 H 64.2402 -0.145876 -3.8022 0
M  V30 597 H 63.7522 -1.91945 -3.37311 0
M  V30 598 H 61.8532 0.526034 -3.68868 0
M  V30 599 H 61.9662 -1.08453 -4.66663 0
M  V30 600 H 60.3302 -0.481892 -2.501 0
M  V30 601 H 61.1132 -2.14352 -2.68157 0
M  V30 602 N 63.5583 1.46682 -0.576371 0
M  V30 603 C 64.9743 1.57822 -0.237562 0
M  V30 604 C 65.1743 1.57237 1.26011 0
M  V30 605 O 64.2303 1.48596 2.04146 0
M  V30 606 C 65.5433 2.87499 -0.881168 0
M  V30 607 C 67.0913 3.01119 -0.85417 0
M  V30 608 C 67.5663 4.33524 -1.4772 0
M  V30 609 N 69.0573 4.40207 -1.44125 0
M  V30 610 C 69.7923 5.4126 -1.89276 0
M  V30 611 N 69.2883 6.49021 -2.42371 0
M  V30 612 N 71.0813 5.32422 -1.80231 0
M  V30 613 H 63.2323 1.45306 -1.54919 0
M  V30 614 H 65.4953 0.692733 -0.647167 0
M  V30 615 H 65.2013 2.9372 -1.93447 0
M  V30 616 H 65.0753 3.75224 -0.385592 0
M  V30 617 H 67.4623 2.94485 0.190491 0
M  V30 618 H 67.5433 2.14887 -1.3877 0
M  V30 619 H 67.1873 4.40916 -2.52103 0
M  V30 620 H 67.1173 5.1852 -0.918947 0
M  V30 621 H 69.6083 3.62931 -1.05307 0
M  V30 622 H 69.9213 7.2233 -2.74698 0
M  V30 623 H 68.2663 6.49858 -2.46393 0
M  V30 624 H 71.4573 4.47137 -1.38514 0
M  V30 625 H 71.6303 6.11034 -2.15735 0
M  V30 626 N 65.0364 0.313813 1.54444 0
M  V30 627 C 66.2644 -0.293918 2.04802 0
M  V30 628 C 66.6794 -1.46537 1.19047 0
M  V30 629 O 66.0364 -1.81182 0.218939 0
M  V30 630 C 66.0874 -0.737806 3.53891 0
M  V30 631 O 65.8084 0.387038 4.36387 0
M  V30 632 C 67.3094 -1.40936 4.203 0
M  V30 633 H 64.5294 -0.0620057 0.668129 0
M  V30 634 H 67.0734 0.457169 1.99324 0
M  V30 635 H 65.2284 -1.43889 3.59687 0
M  V30 636 H 65.6424 0.0391274 5.24485 0
M  V30 637 H 67.1164 -1.67099 5.26101 0
M  V30 638 H 67.5934 -2.35355 3.70816 0
M  V30 639 H 68.1994 -0.751117 4.18615 0
M  V30 640 N 66.5145 -1.57545 0.0417849 0
M  V30 641 C 67.9305 -1.56467 -0.314704 0
M  V30 642 C 68.1305 -1.04859 -1.72066 0
M  V30 643 O 67.1865 -0.700983 -2.42575 0
M  V30 644 C 68.4995 -3.00317 -0.15174 0
M  V30 645 C 70.0475 -3.12201 -0.223553 0
M  V30 646 C 70.5225 -4.57913 -0.0892295 0
M  V30 647 N 72.0135 -4.6297 -0.145808 0
M  V30 648 C 72.7485 -5.73362 -0.0658459 0
M  V30 649 N 72.2445 -6.92769 0.0659282 0
M  V30 650 N 74.0375 -5.6197 -0.12075 0
M  V30 651 H 66.1885 -1.89416 0.961014 0
M  V30 652 H 68.4515 -0.871862 0.372237 0
M  V30 653 H 68.1575 -3.42073 0.817254 0
M  V30 654 H 68.0315 -3.65892 -0.916692 0
M  V30 655 H 70.4185 -2.70349 -1.18301 0
M  V30 656 H 70.4995 -2.49323 0.571994 0
M  V30 657 H 70.1435 -5.00448 0.866867 0
M  V30 658 H 70.0735 -5.18786 -0.903802 0
M  V30 659 H 72.5645 -3.7709 -0.247286 0
M  V30 660 H 72.8775 -7.72707 0.119905 0
M  V30 661 H 71.2225 -6.94927 0.100885 0
M  V30 662 H 74.4135 -4.67572 -0.222187 0
M  V30 663 H 74.5865 -6.47977 -0.0549735 0
M  V30 664 N 67.9926 0.231505 -1.5589 0
M  V30 665 C 69.2406 0.955461 -1.78088 0
M  V30 666 C 69.5616 1.85262 -0.608533 0
M  V30 667 O 68.8316 1.92277 0.375035 0
M  V30 668 H 67.4116 0.355787 -0.656829 0
M  V30 669 H 70.0736 0.245751 -1.93344 0
M  V30 670 H 69.1696 1.56814 -2.69844 0
M  V30 671 N 69.4707 1.49531 0.497807 0
M  V30 672 C 70.4337 1.65916 1.58128 0
M  V30 673 C 71.4337 0.530825 1.51786 0
M  V30 674 O 72.6237 0.797342 1.54881 0
M  V30 675 C 69.7557 1.65951 2.9778 0
M  V30 676 H 70.9487 2.62556 1.44929 0
M  V30 677 H 68.5017 1.38611 0.722275 0
M  V30 678 H 69.2367 0.709065 3.16453 0
M  V30 679 H 69.0217 2.47897 3.03792 0
M  V30 680 H 70.5117 1.80673 3.76493 0
M  V30 681 N 70.9488 -0.749086 1.3866 0
M  V30 682 C 72.1968 -1.50535 1.34847 0
M  V30 683 C 72.5178 -1.94909 -0.0595016 0
M  V30 684 O 71.7878 -1.67973 -1.00806 0
M  V30 685 H 70.3678 -0.558395 0.49619 0
M  V30 686 H 73.0298 -0.890165 1.73384 0
M  V30 687 H 72.1258 -2.39413 2.00219 0
M  V30 688 N 72.4269 -1.23603 -0.977757 0
M  V30 689 C 73.3569 -1.04401 -2.0886 0
M  V30 690 C 74.3379 0.0399052 -1.70053 0
M  V30 691 O 75.5229 -0.125246 -1.93796 0
M  V30 692 C 72.6529 -0.637269 -3.41403 0
M  V30 693 C 71.6069 -1.66883 -3.94124 0
M  V30 694 C 70.9329 -1.11745 -5.22893 0
M  V30 695 C 72.2329 -3.06247 -4.23096 0
M  V30 696 H 73.9269 -1.97316 -2.25182 0
M  V30 697 H 71.4729 -0.950096 -1.08209 0
M  V30 698 H 73.4259 -0.48998 -4.18542 0
M  V30 699 H 72.1499 0.327557 -3.24953 0
M  V30 700 H 70.8089 -1.80416 -3.19133 0
M  V30 701 H 70.4569 -0.143527 -5.02795 0
M  V30 702 H 70.1569 -1.80672 -5.59134 0
M  V30 703 H 71.6809 -0.982067 -6.02651 0
M  V30 704 H 73.0949 -2.96001 -4.90975 0
M  V30 705 H 71.4919 -3.72436 -4.70544 0
M  V30 706 H 72.5619 -3.55041 -3.30263 0
M  V30 707 N 73.905 1.17692 -1.04816 0
M  V30 708 C 74.835 2.23777 -0.666791 0
M  V30 709 C 75.816 1.66796 0.33361 0
M  V30 710 O 77.001 1.93039 0.212042 0
M  V30 711 C 74.131 3.47281 -0.0367933 0
M  V30 712 C 73.085 4.17059 -0.961546 0
M  V30 713 C 72.411 5.34342 -0.195626 0
M  V30 714 C 73.711 4.69713 -2.28402 0
M  V30 715 H 75.405 2.55933 -1.55367 0
M  V30 716 H 72.951 1.23019 -0.748484 0
M  V30 717 H 74.904 4.20706 0.241775 0
M  V30 718 H 73.628 3.14381 0.885004 0
M  V30 719 H 72.287 3.45541 -1.22462 0
M  V30 720 H 71.935 4.97692 0.728816 0
M  V30 721 H 71.635 5.81966 -0.811775 0
M  V30 722 H 73.159 6.10553 0.0757473 0
M  V30 723 H 74.573 5.34794 -2.06563 0
M  V30 724 H 72.97 5.279 -2.8538 0
M  V30 725 H 74.04 3.86726 -2.92525 0
M  V30 726 N 75.3831 0.828654 1.34056 0
M  V30 727 C 76.2931 0.256725 2.33191 0
M  V30 728 C 77.3091 -0.611898 1.62886 0
M  V30 729 O 78.4851 -0.51844 1.94613 0
M  V30 730 C 75.5501 -0.567238 3.42028 0
M  V30 731 C 74.6111 0.324458 4.28072 0
M  V30 732 C 73.8441 -0.460274 5.31712 0
M  V30 733 O 74.0671 -1.693 5.44696 0
M  V30 734 O 73.0011 0.160391 6.01686 0
M  V30 735 H 76.8271 1.07739 2.83947 0
M  V30 736 H 74.4121 0.59093 1.37217 0
M  V30 737 H 76.2941 -1.03582 4.08471 0
M  V30 738 H 74.9691 -1.36513 2.93506 0
M  V30 739 H 73.8761 0.840659 3.64532 0
M  V30 740 H 75.2091 1.08685 4.8005 0
M  V30 741 N 76.8612 -1.46375 0.584142 0
M  V30 742 C 78.0862 -2.07268 0.0740405 0
M  V30 743 C 78.5112 -1.42979 -1.22223 0
M  V30 744 O 77.8692 -0.514092 -1.73859 0
M  V30 745 C 77.9172 -3.60518 -0.0767769 0
M  V30 746 O 77.0212 -3.96533 -1.13292 0
M  V30 747 H 76.3622 -0.660961 0.0634524 0
M  V30 748 H 78.8922 -1.87991 0.807492 0
M  V30 749 H 78.9022 -4.07021 -0.282489 0
M  V30 750 H 77.5772 -4.06702 0.86986 0
M  V30 751 H 76.1542 -3.61738 -0.905553 0
M  V30 752 N 78.3393 -0.321999 -1.54275 0
M  V30 753 C 79.2493 0.553631 -2.27974 0
M  V30 754 C 80.2653 1.13054 -1.32268 0
M  V30 755 O 81.4413 1.15084 -1.6528 0
M  V30 756 C 78.5063 1.69927 -3.02201 0
M  V30 757 C 77.5673 1.15433 -4.1349 0
M  V30 758 C 76.8003 2.24537 -4.84168 0
M  V30 759 O 77.0233 3.44852 -4.5435 0
M  V30 760 O 75.9573 1.90044 -5.7111 0
M  V30 761 H 79.7833 -0.0448345 -3.03667 0
M  V30 762 H 77.3683 -0.0877418 -1.49142 0
M  V30 763 H 79.2503 2.3663 -3.48689 0
M  V30 764 H 77.9253 2.28395 -2.29385 0
M  V30 765 H 76.8323 0.452436 -3.71354 0
M  V30 766 H 78.1653 0.614805 -4.88345 0
M  V30 767 N 79.8174 1.5752 -0.0501392 0
M  V30 768 C 80.7474 2.14502 0.922566 0
M  V30 769 C 81.7284 1.06642 1.3252 0
M  V30 770 O 82.9134 1.34577 1.4001 0
M  V30 771 C 80.0434 2.68916 2.19776 0
M  V30 772 C 78.9974 3.8175 1.93523 0
M  V30 773 C 78.3234 4.22677 3.27487 0
M  V30 774 C 79.6234 5.06932 1.25765 0
M  V30 775 H 81.3174 2.9603 0.447952 0
M  V30 776 H 78.8634 1.42401 0.214024 0
M  V30 777 H 80.8164 3.07419 2.88222 0
M  V30 778 H 79.5404 1.84578 2.69441 0
M  V30 779 H 78.1994 3.43718 1.27489 0
M  V30 780 H 77.8474 3.35291 3.74952 0
M  V30 781 H 77.5474 4.98725 3.1072 0
M  V30 782 H 79.0714 4.63779 3.97166 0
M  V30 783 H 80.4854 5.42888 1.84244 0
M  V30 784 H 78.8824 5.88116 1.19328 0
M  V30 785 H 79.9524 4.84337 0.233536 0
M  V30 786 N 81.2955 -0.223234 1.56011 0
M  V30 787 C 82.7115 -0.572856 1.48965 0
M  V30 788 C 82.9115 -1.87225 0.74492 0
M  V30 789 O 81.9675 -2.50899 0.283896 0
M  V30 790 C 83.2805 -0.653646 2.9351 0
M  V30 791 C 84.8285 -0.744386 3.0402 0
M  V30 792 C 85.3035 -0.856535 4.49919 0
M  V30 793 N 86.7945 -0.9208 4.53955 0
M  V30 794 C 87.5295 -1.02726 5.64123 0
M  V30 795 N 87.0255 -1.09777 6.84047 0
M  V30 796 N 88.8185 -1.06226 5.51971 0
M  V30 797 H 80.9695 0.629462 2.02858 0
M  V30 798 H 83.2325 0.220621 0.921971 0
M  V30 799 H 82.9385 0.231518 3.50937 0
M  V30 800 H 82.8125 -1.51781 3.45315 0
M  V30 801 H 85.1995 -1.61999 2.46658 0
M  V30 802 H 85.2805 0.14541 2.55386 0
M  V30 803 H 84.9245 0.0146069 5.07898 0
M  V30 804 H 84.8545 -1.76172 4.96257 0
M  V30 805 H 87.3455 -0.876694 3.6759 0
M  V30 806 H 87.6585 -1.17872 7.63758 0
M  V30 807 H 86.0035 -1.06693 6.86762 0
M  V30 808 H 89.1945 -1.00382 4.5721 0
M  V30 809 H 89.3675 -1.14177 6.37862 0
M  V30 810 N 82.7736 -1.49793 -0.48987 0
M  V30 811 C 84.0506 -1.50348 -1.25119 0
M  V30 812 C 84.4306 -0.237466 -2.0976 0
M  V30 813 O 83.7786 0.77981 -2.14782 0
M  V30 814 C 83.9886 -2.78872 -2.09837 0
M  V30 815 C 85.3366 -3.288 -2.68655 0
M  V30 816 O 86.3606 -2.80065 -2.20096 0
M  V30 817 O 85.2196 -4.13707 -3.57083 0
M  V30 818 H 82.3136 -0.602242 -0.566775 0
M  V30 819 H 84.8596 -1.62067 -0.503229 0
M  V30 820 H 83.6316 -3.62499 -1.47343 0
M  V30 821 H 83.2546 -2.70066 -2.91805 0
M  V30 822 N 84.2517 0.741722 -1.39055 0
M  V30 823 C 85.4997 1.49818 -1.35643 0
M  V30 824 C 85.8207 1.94938 0.0491642 0
M  V30 825 O 85.0907 1.68505 0.999141 0
M  V30 826 H 83.6707 0.555755 -0.499144 0
M  V30 827 H 86.3327 0.880957 -1.73854 0
M  V30 828 H 85.4287 2.38348 -2.01486 0
M  V30 829 N 85.7298 1.2412 0.971189 0
M  V30 830 C 86.9548 1.10667 1.75407 0
M  V30 831 C 87.3798 -0.337048 1.85056 0
M  V30 832 O 86.7378 -1.24396 1.31892 0
M  V30 833 C 86.7858 1.74726 3.15441 0
M  V30 834 O 85.8898 1.01566 3.99697 0
M  V30 835 H 85.2308 0.387341 0.539317 0
M  V30 836 H 87.7608 1.64358 1.2185 0
M  V30 837 H 87.7708 1.80341 3.6598 0
M  V30 838 H 86.4458 2.79773 3.07734 0
M  V30 839 H 85.0228 1.03713 3.58187 0
M  V30 840 N 87.2079 -1.17134 1.05439 0
M  V30 841 C 88.4559 -1.87085 0.764429 0
M  V30 842 C 88.7769 -1.81584 -0.710787 0
M  V30 843 O 88.0469 -1.24349 -1.51374 0
M  V30 844 H 86.6269 -0.692627 0.279779 0
M  V30 845 H 89.2889 -1.42087 1.33406 0
M  V30 846 H 88.3849 -2.92759 1.0816 0
M  V30 847 N 88.686 -0.835752 -1.33615 0
M  V30 848 C 89.633 -0.26473 -2.29277 0
M  V30 849 C 90.603 0.617712 -1.54187 0
M  V30 850 O 91.788 0.556641 -1.825 0
M  V30 851 C 88.928 0.556777 -3.40579 0
M  V30 852 C 88.041 -0.349339 -4.30585 0
M  V30 853 C 87.176 0.482969 -5.29 0
M  V30 854 C 86.215 -0.421732 -6.10645 0
M  V30 855 N 85.352 0.372262 -7.01112 0
M  V30 856 H 90.192 -1.08582 -2.77514 0
M  V30 857 H 87.729 -0.546927 -1.36554 0
M  V30 858 H 89.687 1.04852 -4.03809 0
M  V30 859 H 88.317 1.34286 -2.93542 0
M  V30 860 H 87.369 -0.959372 -3.68104 0
M  V30 861 H 88.681 -1.04445 -4.87742 0
M  V30 862 H 87.835 1.03866 -5.97743 0
M  V30 863 H 86.574 1.21153 -4.72412 0
M  V30 864 H 85.579 -0.989464 -5.40823 0
M  V30 865 H 86.804 -1.14861 -6.69316 0
M  V30 866 H 84.75 1.08426 -6.46977 0
M  V30 867 H 84.667 -0.264198 -7.55538 0
M  V30 868 H 85.935 0.910293 -7.74167 0
M  V30 869 N 90.1641 1.46063 -0.591896 0
M  V30 870 C 91.1111 2.30399 0.136069 0
M  V30 871 C 92.0811 1.41169 0.875238 0
M  V30 872 O 93.2661 1.70112 0.86409 0
M  V30 873 C 90.4061 3.25804 1.13781 0
M  V30 874 C 89.5191 4.30134 0.401137 0
M  V30 875 C 88.6541 5.12659 1.39121 0
M  V30 876 C 87.6931 6.0873 0.641462 0
M  V30 877 N 86.8301 6.8409 1.58004 0
M  V30 878 H 91.6701 2.92118 -0.589144 0
M  V30 879 H 89.2071 1.43959 -0.302342 0
M  V30 880 H 91.1651 3.79569 1.73156 0
M  V30 881 H 89.7951 2.65872 1.83062 0
M  V30 882 H 88.8471 3.79152 -0.307826 0
M  V30 883 H 90.1591 4.98458 -0.184565 0
M  V30 884 H 89.3131 5.70747 2.05749 0
M  V30 885 H 88.0521 4.44316 2.01084 0
M  V30 886 H 87.0571 5.49786 -0.0385419 0
M  V30 887 H 88.2821 6.79095 0.0270945 0
M  V30 888 H 86.2281 6.18449 2.18761 0
M  V30 889 H 86.1451 7.48709 1.04738 0
M  V30 890 H 87.4131 7.4673 2.23639 0
M  V30 891 N 91.6422 0.330177 1.54103 0
M  V30 892 C 92.8882 -0.270806 2.00984 0
M  V30 893 C 93.2212 -1.51265 1.21789 0
M  V30 894 O 92.4962 -1.92142 0.301927 0
M  V30 895 C 92.7792 -0.598339 3.55094 0
M  V30 896 C 92.6322 0.654674 4.4501 0
M  V30 897 C 93.9512 -1.41334 4.16789 0
M  V30 898 H 91.0702 -0.0969531 0.730595 0
M  V30 899 H 93.7122 0.448066 1.84641 0
M  V30 900 H 91.8622 -1.21078 3.69151 0
M  V30 901 H 93.5342 1.29285 4.42813 0
M  V30 902 H 91.7772 1.28224 4.14416 0
M  V30 903 H 92.4482 0.380944 5.50684 0
M  V30 904 H 94.9242 -0.895597 4.06347 0
M  V30 905 H 93.8002 -1.61127 5.24718 0
M  V30 906 H 94.0612 -2.41146 3.70541 0
M  V30 907 N 93.1203 -1.57491 0.0584922 0
M  V30 908 C 94.0833 -2.1085 -0.898617 0
M  V30 909 C 95.0833 -1.02964 -1.23511 0
M  V30 910 O 96.2733 -1.29007 -1.17059 0
M  V30 911 C 93.4053 -2.59881 -2.20623 0
M  V30 912 H 94.5983 -2.96715 -0.435936 0
M  V30 913 H 92.1513 -1.55141 -0.190023 0
M  V30 914 H 92.8863 -1.77431 -2.71457 0
M  V30 915 H 92.6713 -3.38727 -1.97501 0
M  V30 916 H 94.1613 -3.01285 -2.89166 0
M  V30 917 N 94.5984 0.214957 -1.56127 0
M  V30 918 C 95.8444 0.939762 -1.79712 0
M  V30 919 C 96.1774 1.83723 -0.629247 0
M  V30 920 O 95.4524 1.90925 0.371197 0
M  V30 921 C 95.7354 1.77306 -3.13424 0
M  V30 922 C 95.5884 0.90164 -4.40671 0
M  V30 923 C 96.9074 2.74956 -3.43638 0
M  V30 924 H 94.0264 0.340214 -0.653776 0
M  V30 925 H 96.6684 0.20824 -1.88855 0
M  V30 926 H 94.8184 2.39673 -3.0576 0
M  V30 927 H 96.4904 0.294206 -4.60361 0
M  V30 928 H 94.7334 0.207368 -4.33304 0
M  V30 929 H 95.4044 1.51923 -5.30682 0
M  V30 930 H 97.8804 2.22724 -3.51473 0
M  V30 931 H 96.7564 3.30358 -4.38355 0
M  V30 932 H 97.0174 3.53023 -2.66134 0
M  V30 933 N 96.0765 1.50051 0.48192 0
M  V30 934 C 97.0395 1.67584 1.5636 0
M  V30 935 C 98.0395 0.546894 1.51214 0
M  V30 936 O 99.2295 0.813725 1.54026 0
M  V30 937 C 96.3615 1.691 2.96003 0
M  V30 938 H 97.5545 2.64078 1.42136 0
M  V30 939 H 95.1075 1.39369 0.707533 0
M  V30 940 H 95.8425 0.742589 3.15684 0
M  V30 941 H 95.6275 2.51105 3.01146 0
M  V30 942 H 97.1175 1.84656 3.74556 0
M  V30 943 N 97.5546 -0.734337 1.39446 0
M  V30 944 C 98.8316 -1.48579 1.27215 0
M  V30 945 C 99.2116 -2.1077 -0.117968 0
M  V30 946 O 98.5596 -1.98646 -1.12924 0
M  V30 947 C 98.7696 -2.53667 2.39696 0
M  V30 948 C 100.118 -3.20031 2.79044 0
M  V30 949 O 101.142 -2.6398 2.39151 0
M  V30 950 O 100.001 -4.21455 3.47905 0
M  V30 951 H 97.0946 -0.659816 0.49857 0
M  V30 952 H 99.6406 -0.768106 1.51322 0
M  V30 953 H 98.4126 -2.06096 3.32626 0
M  V30 954 H 98.0356 -3.32994 2.17258 0
M  V30 955 N 99.0327 -1.24633 -0.964593 0
M  V30 956 C 100.279 -1.08949 -1.71049 0
M  V30 957 C 100.612 0.370302 -1.90637 0
M  V30 958 O 99.8867 1.27349 -1.47011 0
M  V30 959 C 100.17 -1.83329 -3.0994 0
M  V30 960 C 100.023 -3.37077 -2.97824 0
M  V30 961 C 101.342 -1.60846 -4.09654 0
M  V30 962 H 98.4607 -0.397178 -0.620821 0
M  V30 963 H 101.103 -1.5334 -1.12191 0
M  V30 964 H 99.2527 -1.45597 -3.60186 0
M  V30 965 H 100.925 -3.84425 -2.5498 0
M  V30 966 H 99.1677 -3.65298 -2.33965 0
M  V30 967 H 99.8387 -3.84324 -3.96231 0
M  V30 968 H 102.315 -1.93674 -3.68279 0
M  V30 969 H 101.191 -2.1534 -5.04896 0
M  V30 970 H 101.452 -0.547434 -4.38698 0
M  V30 971 N 100.511 1.16574 -1.06058 0
M  V30 972 C 101.443 2.2045 -0.627239 0
M  V30 973 C 102.456 1.59752 0.313534 0
M  V30 974 O 103.645 1.78192 0.104896 0
M  V30 975 C 100.745 3.3875 0.100974 0
M  V30 976 C 99.9178 4.29008 -0.852687 0
M  V30 977 C 98.9768 5.25944 -0.164152 0
M  V30 978 O 98.0028 5.63535 -0.801047 0
M  V30 979 N 99.2048 5.70075 1.09518 0
M  V30 980 H 101.97 2.58249 -1.52077 0
M  V30 981 H 99.5308 1.3156 -0.943594 0
M  V30 982 H 101.523 4.00638 0.57194 0
M  V30 983 H 100.093 2.99476 0.89628 0
M  V30 984 H 99.3128 3.64419 -1.50308 0
M  V30 985 H 100.601 4.86195 -1.49972 0
M  V30 986 H 99.9988 5.41624 1.6328 0
M  V30 987 H 98.5558 6.34067 1.51006 0
M  V30 988 N 101.989 0.842826 1.3317 0
M  V30 989 C 103.236 0.440447 1.97652 0
M  V30 990 C 103.564 -1.00123 1.6675 0
M  V30 991 O 102.819 -1.7155 0.941761 0
M  V30 992 C 103.118 0.612607 3.52111 0
M  V30 993 C 102.784 2.02297 4.02972 0
M  V30 994 C 101.446 2.40874 4.16573 0
M  V30 995 C 103.798 2.94402 4.30089 0
M  V30 996 C 101.126 3.70852 4.54627 0
M  V30 997 C 103.478 4.23865 4.69597 0
M  V30 998 C 102.142 4.62392 4.81404 0
M  V30 999 H 101.412 0.161171 0.72326 0
M  V30 1000 H 104.059 1.07061 1.58777 0
M  V30 1001 H 102.364 -0.100849 3.9167 0
M  V30 1002 H 104.061 0.2815 4.00011 0
M  V30 1003 H 100.651 1.71338 3.92863 0
M  V30 1004 H 104.835 2.65835 4.19101 0
M  V30 1005 H 100.091 4.00501 4.61962 0
M  V30 1006 H 104.265 4.95306 4.89536 0
M  V30 1007 H 101.892 5.63154 5.10648 0
M  V30 1008 N 103.467 -1.45747 0.599634 0
M  V30 1009 C 104.715 -2.01893 0.0915472 0
M  V30 1010 C 105.036 -1.47155 -1.27946 0
M  V30 1011 O 104.306 -0.66273 -1.84349 0
M  V30 1012 H 102.886 -0.746363 0.0308524 0
M  V30 1013 H 105.548 -1.78645 0.779237 0
M  V30 1014 H 104.644 -3.1208 0.0353086 0
M  V30 1015 N 104.945 -0.338344 -1.53925 0
M  V30 1016 C 106.356 0.146651 -1.86123 0
M  V30 1017 C 106.707 1.5042 -1.2597 0
M  V30 1018 O 105.832 2.08723 -0.571294 0
M  V30 1019 C 106.427 0.272879 -3.37699 0
M  V30 1020 C 104.986 0.702103 -3.69794 0
M  V30 1021 C 104.133 -0.167304 -2.76795 0
M  V30 1022 H 107.084 -0.558123 -1.48562 0
M  V30 1023 H 107.105 1.10128 -3.64214 0
M  V30 1024 H 106.617 -0.715307 -3.81451 0
M  V30 1025 H 104.718 1.6995 -3.31584 0
M  V30 1026 H 104.831 0.495604 -4.7653 0
M  V30 1027 H 103.195 0.359527 -2.5215 0
M  V30 1028 H 103.978 -1.15253 -3.23375 0
M  V30 1029 N 106.423 1.57458 -0.0668435 0
M  V30 1030 C 107.356 2.08033 0.93795 0
M  V30 1031 C 108.334 0.984321 1.29421 0
M  V30 1032 O 109.518 1.25736 1.40437 0
M  V30 1033 C 106.645 2.53388 2.24749 0
M  V30 1034 C 105.691 3.74376 2.04315 0
M  V30 1035 S 106.524 5.19303 1.30706 0
M  V30 1036 C 107.68 5.67986 2.62951 0
M  V30 1037 H 107.913 2.92935 0.50759 0
M  V30 1038 H 105.446 1.5371 0.145804 0
M  V30 1039 H 107.404 2.8018 3.00016 0
M  V30 1040 H 106.065 1.68763 2.64911 0
M  V30 1041 H 105.258 4.04083 3.01218 0
M  V30 1042 H 104.86 3.47931 1.37186 0
M  V30 1043 H 107.152 5.74528 3.5906 0
M  V30 1044 H 108.095 6.66955 2.3786 0
M  V30 1045 H 108.503 4.95781 2.69929 0
M  V30 1046 N 107.901 -0.206675 1.56239 0
M  V30 1047 C 109.317 -0.557025 1.49564 0
M  V30 1048 C 109.517 -1.86424 0.764735 0
M  V30 1049 O 108.573 -2.50584 0.310491 0
M  V30 1050 C 109.886 -0.622478 2.94186 0
M  V30 1051 C 111.434 -0.712099 3.04792 0
M  V30 1052 C 111.909 -0.808767 4.50803 0
M  V30 1053 N 113.4 -0.8726 4.54907 0
M  V30 1054 C 114.135 -0.967365 5.65181 0
M  V30 1055 N 113.631 -1.02515 6.85173 0
M  V30 1056 N 115.424 -1.00366 5.53067 0
M  V30 1057 H 107.575 0.650943 2.02179 0
M  V30 1058 H 109.838 0.230387 0.919579 0
M  V30 1059 H 109.544 0.268727 3.50672 0
M  V30 1060 H 109.418 -1.4811 3.46905 0
M  V30 1061 H 111.805 -1.59374 2.48363 0
M  V30 1062 H 111.886 0.172489 2.55218 0
M  V30 1063 H 111.53 0.0684754 5.07854 0
M  V30 1064 H 111.46 -1.70899 4.98098 0
M  V30 1065 H 113.951 -0.837657 3.68499 0
M  V30 1066 H 114.264 -1.09765 7.64965 0
M  V30 1067 H 112.609 -0.994026 6.87855 0
M  V30 1068 H 115.8 -0.95527 4.58249 0
M  V30 1069 H 115.973 -1.07405 6.39037 0
M  V30 1070 N 109.379 -1.50304 -0.473955 0
M  V30 1071 C 110.626 -1.6115 -1.22625 0
M  V30 1072 C 110.954 -0.310517 -1.92005 0
M  V30 1073 O 110.209 0.703419 -1.82621 0
M  V30 1074 C 110.508 -2.73938 -2.29549 0
M  V30 1075 C 110.174 -4.14519 -1.7744 0
M  V30 1076 C 108.836 -4.5277 -1.62949 0
M  V30 1077 C 111.188 -5.02392 -1.3875 0
M  V30 1078 C 108.516 -5.76639 -1.08187 0
M  V30 1079 C 110.868 -6.26805 -0.854309 0
M  V30 1080 C 109.532 -6.63861 -0.696011 0
M  V30 1081 H 108.802 -0.589691 -0.448715 0
M  V30 1082 H 111.449 -1.84228 -0.522705 0
M  V30 1083 H 109.754 -2.44937 -3.05799 0
M  V30 1084 H 111.451 -2.79534 -2.87509 0
M  V30 1085 H 108.041 -3.8434 -1.89685 0
M  V30 1086 H 112.225 -4.73474 -1.4878 0
M  V30 1087 H 107.481 -6.04027 -0.946666 0
M  V30 1088 H 111.655 -6.94258 -0.545843 0
M  V30 1089 H 109.282 -7.59722 -0.26952 0
M  V30 1090 N 110.857 0.726932 -1.39834 0
M  V30 1091 C 111.807 1.83232 -1.35683 0
M  V30 1092 C 112.791 1.59155 -0.236295 0
M  V30 1093 O 113.983 1.70522 -0.474488 0
M  V30 1094 C 111.112 3.21246 -1.21062 0
M  V30 1095 C 110.198 3.51125 -2.37849 0
M  V30 1096 N 110.589 3.51889 -3.63329 0
M  V30 1097 C 108.887 3.81527 -2.30982 0
M  V30 1098 C 109.588 3.79791 -4.40606 0
M  V30 1099 N 108.564 3.97971 -3.70297 0
M  V30 1100 H 112.366 1.8214 -2.30656 0
M  V30 1101 H 109.88 0.925545 -1.33444 0
M  V30 1102 H 111.877 4.00387 -1.16171 0
M  V30 1103 H 110.537 3.23572 -0.270458 0
M  V30 1104 H 111.548 3.33008 -3.96643 0
M  V30 1105 H 108.225 3.91411 -1.45272 0
M  V30 1106 H 109.615 3.86783 -5.49408 0
M  V30 1107 N 112.336 1.25143 0.95797 0
M  V30 1108 C 113.268 1.01023 2.05735 0
M  V30 1109 C 114.281 -0.0236902 1.62783 0
M  V30 1110 O 115.47 0.21448 1.77207 0
M  V30 1111 C 112.57 0.504595 3.35122 0
M  V30 1112 C 111.743 1.6039 4.06932 0
M  V30 1113 C 110.802 1.09922 5.14591 0
M  V30 1114 O 109.828 1.79293 5.40225 0
M  V30 1115 N 111.03 -0.0612545 5.80468 0
M  V30 1116 H 113.795 1.95683 2.26998 0
M  V30 1117 H 111.356 1.16303 1.12629 0
M  V30 1118 H 113.348 0.151516 4.04416 0
M  V30 1119 H 111.918 -0.347989 3.10657 0
M  V30 1120 H 111.138 2.12872 3.31782 0
M  V30 1121 H 112.426 2.34252 4.51667 0
M  V30 1122 H 111.824 -0.640985 5.62057 0
M  V30 1123 H 110.381 -0.355395 6.5083 0
M  V30 1124 N 113.814 -1.1601 1.06675 0
M  V30 1125 C 115.091 -1.82679 0.699114 0
M  V30 1126 C 115.471 -1.94559 -0.819137 0
M  V30 1127 O 114.819 -1.49169 -1.73092 0
M  V30 1128 C 115.029 -3.19445 1.40555 0
M  V30 1129 C 116.377 -3.95171 1.55323 0
M  V30 1130 O 117.401 -3.28976 1.36577 0
M  V30 1131 O 116.26 -5.13833 1.86112 0
M  V30 1132 H 113.354 -0.788954 0.247951 0
M  V30 1133 H 115.9 -1.23179 1.16726 0
M  V30 1134 H 114.672 -3.05856 2.44065 0
M  V30 1135 H 114.295 -3.86625 0.927733 0
M  V30 1136 N 115.292 -0.849877 -1.32721 0
M  V30 1137 C 116.224 -0.248332 -2.27851 0
M  V30 1138 C 117.237 0.577218 -1.52224 0
M  V30 1139 O 118.426 0.402489 -1.73903 0
M  V30 1140 C 115.526 0.668107 -3.32249 0
M  V30 1141 C 114.699 -0.120534 -4.37234 0
M  V30 1142 C 113.758 0.720932 -5.21238 0
M  V30 1143 O 112.784 0.156166 -5.68986 0
M  V30 1144 N 113.986 2.03647 -5.43607 0
M  V30 1145 H 116.751 -1.06575 -2.80111 0
M  V30 1146 H 114.312 -0.709395 -1.45531 0
M  V30 1147 H 116.304 1.23627 -3.85355 0
M  V30 1148 H 114.874 1.38621 -2.80184 0
M  V30 1149 H 114.094 -0.870108 -3.84477 0
M  V30 1150 H 115.382 -0.662406 -5.0447 0
M  V30 1151 H 114.78 2.51871 -5.06535 0
M  V30 1152 H 113.337 2.55287 -5.99727 0
M  V30 1153 N 116.77 1.45427 -0.607355 0
M  V30 1154 C 117.7 2.3329 0.0989352 0
M  V30 1155 C 118.681 1.46816 0.859007 0
M  V30 1156 O 119.866 1.75588 0.829604 0
M  V30 1157 C 116.996 3.29518 1.09705 0
M  V30 1158 C 115.95 4.25626 0.450206 0
M  V30 1159 C 115.276 5.11542 1.55655 0
M  V30 1160 C 116.576 5.18505 -0.628455 0
M  V30 1161 H 118.27 2.92595 -0.634716 0
M  V30 1162 H 115.816 1.40696 -0.306681 0
M  V30 1163 H 117.769 3.89855 1.59971 0
M  V30 1164 H 116.493 2.68372 1.86129 0
M  V30 1165 H 115.152 3.66586 -0.0315886 0
M  V30 1166 H 114.8 4.46765 2.31107 0
M  V30 1167 H 114.5 5.76647 1.12925 0
M  V30 1168 H 116.024 5.74748 2.06148 0
M  V30 1169 H 117.438 5.72916 -0.209877 0
M  V30 1170 H 115.835 5.92085 -0.977489 0
M  V30 1171 H 116.905 4.60948 -1.50514 0
M  V30 1172 N 118.248 0.346503 1.53744 0
M  V30 1173 C 119.18 -0.543316 2.22667 0
M  V30 1174 C 120.193 -1.06159 1.23427 0
M  V30 1175 O 121.382 -0.971235 1.49764 0
M  V30 1176 C 118.482 -1.76076 2.89569 0
M  V30 1177 C 117.655 -1.37727 4.15151 0
M  V30 1178 C 116.714 -2.45471 4.65436 0
M  V30 1179 O 115.74 -2.08655 5.29577 0
M  V30 1180 N 116.942 -3.7677 4.41616 0
M  V30 1181 H 119.707 0.0469703 2.99663 0
M  V30 1182 H 117.268 0.170766 1.60997 0
M  V30 1183 H 119.26 -2.47593 3.20125 0
M  V30 1184 H 117.83 -2.25835 2.16142 0
M  V30 1185 H 117.05 -0.492746 3.91108 0
M  V30 1186 H 118.338 -1.09708 4.96832 0
M  V30 1187 H 117.736 -4.09467 3.90325 0
M  V30 1188 H 116.293 -4.44448 4.7677 0
M  V30 1189 N 119.726 -1.57421 0.075193 0
M  V30 1190 C 120.972 -1.93905 -0.594025 0
M  V30 1191 C 121.305 -0.955701 -1.69056 0
M  V30 1192 O 120.58 0.0145373 -1.94495 0
M  V30 1193 C 120.863 -3.40638 -1.1678 0
M  V30 1194 C 120.716 -4.49733 -0.0776792 0
M  V30 1195 C 122.035 -3.88259 -2.07228 0
M  V30 1196 H 119.154 -0.705105 -0.214466 0
M  V30 1197 H 121.796 -1.8947 0.141854 0
M  V30 1198 H 119.946 -3.44549 -1.79494 0
M  V30 1199 H 121.618 -4.57942 0.555573 0
M  V30 1200 H 119.861 -4.29751 0.591286 0
M  V30 1201 H 120.532 -5.49549 -0.519603 0
M  V30 1202 H 123.008 -3.86376 -1.54445 0
M  V30 1203 H 121.884 -4.91533 -2.44308 0
M  V30 1204 H 122.145 -3.26396 -2.98191 0
M  V30 1205 N 121.204 0.198386 -1.56346 0
M  V30 1206 C 122.134 1.24865 -1.9731 0
M  V30 1207 C 123.115 1.47651 -0.844576 0
M  V30 1208 O 124.3 1.59444 -1.10866 0
M  V30 1209 C 121.43 2.59358 -2.30977 0
M  V30 1210 C 120.384 2.5119 -3.46537 0
M  V30 1211 C 119.71 3.89926 -3.65871 0
M  V30 1212 C 121.01 2.03977 -4.80823 0
M  V30 1213 H 122.704 0.908252 -2.85291 0
M  V30 1214 H 120.25 0.435462 -1.37258 0
M  V30 1215 H 122.203 3.33011 -2.58228 0
M  V30 1216 H 120.927 2.95132 -1.39874 0
M  V30 1217 H 119.586 1.79993 -3.19371 0
M  V30 1218 H 119.234 4.23046 -2.72105 0
M  V30 1219 H 118.934 3.85336 -4.4361 0
M  V30 1220 H 120.458 4.65205 -3.95495 0
M  V30 1221 H 121.872 2.67386 -5.07127 0
M  V30 1222 H 120.269 2.10397 -5.62008 0
M  V30 1223 H 121.339 0.992861 -4.74626 0
M  V30 1224 N 122.682 1.50554 0.465978 0
M  V30 1225 C 123.612 1.72722 1.57128 0
M  V30 1226 C 124.593 0.576294 1.6004 0
M  V30 1227 O 125.778 0.81598 1.76225 0
M  V30 1228 C 122.908 1.82605 2.95419 0
M  V30 1229 C 121.862 2.97835 3.07373 0
M  V30 1230 C 121.188 2.92867 4.47363 0
M  V30 1231 C 122.488 4.38265 2.84114 0
M  V30 1232 H 124.182 2.65267 1.38829 0
M  V30 1233 H 121.728 1.2765 0.666441 0
M  V30 1234 H 123.681 1.96698 3.72677 0
M  V30 1235 H 122.405 0.866858 3.14886 0
M  V30 1236 H 121.064 2.83401 2.3255 0
M  V30 1237 H 120.712 1.94783 4.63755 0
M  V30 1238 H 120.412 3.70227 4.56296 0
M  V30 1239 H 121.936 3.09015 5.26633 0
M  V30 1240 H 123.35 4.53198 3.51118 0
M  V30 1241 H 121.747 5.17115 3.04487 0
M  V30 1242 H 122.817 4.50281 1.7993 0
M  V30 1243 N 124.16 -0.719506 1.40217 0
M  V30 1244 C 125.406 -1.48152 1.38488 0
M  V30 1245 C 125.739 -1.94195 -0.0141867 0
M  V30 1246 O 125.014 -1.67884 -0.982096 0
M  V30 1247 C 125.297 -2.71035 2.37091 0
M  V30 1248 C 125.15 -2.30912 3.86005 0
M  V30 1249 C 126.469 -3.73182 2.33288 0
M  V30 1250 H 123.588 -0.537395 0.504357 0
M  V30 1251 H 126.23 -0.821472 1.71324 0
M  V30 1252 H 124.38 -3.27352 2.0922 0
M  V30 1253 H 126.052 -1.80107 4.24687 0
M  V30 1254 H 124.295 -1.62958 4.02029 0
M  V30 1255 H 124.966 -3.18978 4.50508 0
M  V30 1256 H 127.442 -3.26485 2.57966 0
M  V30 1257 H 126.318 -4.56806 3.04334 0
M  V30 1258 H 126.579 -4.21202 1.34317 0
M  V30 1259 N 125.638 -1.25649 -0.95132 0
M  V30 1260 C 126.885 -1.10594 -1.69633 0
M  V30 1261 C 127.213 0.352515 -1.91279 0
M  V30 1262 O 126.468 1.27601 -1.4838 0
M  V30 1263 C 126.767 -1.80909 -3.08231 0
M  V30 1264 C 126.433 -3.30825 -3.06375 0
M  V30 1265 C 125.095 -3.71722 -3.05576 0
M  V30 1266 C 127.447 -4.26589 -2.99452 0
M  V30 1267 C 124.775 -5.06788 -2.95606 0
M  V30 1268 C 127.127 -5.61683 -2.91024 0
M  V30 1269 C 125.791 -6.01904 -2.88562 0
M  V30 1270 H 125.061 -0.404691 -0.620731 0
M  V30 1271 H 127.708 -1.55964 -1.11119 0
M  V30 1272 H 126.013 -1.27979 -3.70309 0
M  V30 1273 H 127.71 -1.6671 -3.64704 0
M  V30 1274 H 124.3 -2.98287 -3.07771 0
M  V30 1275 H 128.484 -3.95982 -2.99185 0
M  V30 1276 H 123.74 -5.37126 -2.92071 0
M  V30 1277 H 127.914 -6.35578 -2.84629 0
M  V30 1278 H 125.541 -7.06521 -2.80593 0
M  V30 1279 N 127.117 1.15442 -1.07289 0
M  V30 1280 C 128.345 1.90096 -0.81676 0
M  V30 1281 C 128.76 1.7798 0.629966 0
M  V30 1282 O 128.117 1.1313 1.43206 0
M  V30 1283 C 128.168 3.40466 -1.21512 0
M  V30 1284 O 127.889 3.52232 -2.60508 0
M  V30 1285 C 129.39 4.32145 -0.988198 0
M  V30 1286 H 126.61 0.602495 -0.295366 0
M  V30 1287 H 129.154 1.4627 -1.42918 0
M  V30 1288 H 127.309 3.81958 -0.647039 0
M  V30 1289 H 127.723 4.45549 -2.76742 0
M  V30 1290 H 129.197 5.36072 -1.31645 0
M  V30 1291 H 129.674 4.39135 0.0755063 0
M  V30 1292 H 130.28 3.96395 -1.54115 0
M  V30 1293 N 128.595 0.856903 1.32268 0
M  V30 1294 C 129.542 0.301172 2.28827 0
M  V30 1295 C 130.512 -0.593104 1.5515 0
M  V30 1296 O 131.697 -0.527537 1.83362 0
M  V30 1297 C 128.837 -0.502523 3.41422 0
M  V30 1298 C 127.95 0.417797 4.29975 0
M  V30 1299 C 127.085 -0.398749 5.29701 0
M  V30 1300 C 126.124 0.518827 6.09897 0
M  V30 1301 N 125.261 -0.260674 7.01616 0
M  V30 1302 H 130.101 1.12983 2.75751 0
M  V30 1303 H 127.638 0.568582 1.35667 0
M  V30 1304 H 129.596 -0.984141 4.05426 0
M  V30 1305 H 128.226 -1.29599 2.95642 0
M  V30 1306 H 127.278 1.01781 3.66531 0
M  V30 1307 H 128.59 1.12191 4.86019 0
M  V30 1308 H 127.744 -0.943435 5.9932 0
M  V30 1309 H 126.483 -1.13622 4.7428 0
M  V30 1310 H 125.488 1.07538 5.39181 0
M  V30 1311 H 126.713 1.25495 6.67404 0
M  V30 1312 H 124.659 -0.981198 6.4862 0
M  V30 1313 H 124.576 0.384364 7.55022 0
M  V30 1314 H 125.844 -0.787014 7.75517 0
M  V30 1315 N 130.073 -1.45103 0.615059 0
M  V30 1316 C 130.983 -2.34382 -0.101034 0
M  V30 1317 C 131.999 -1.51681 -0.852585 0
M  V30 1318 O 133.175 -1.8446 -0.808484 0
M  V30 1319 C 130.24 -3.29417 -1.08099 0
M  V30 1320 C 129.301 -4.28025 -0.330577 0
M  V30 1321 C 128.534 -5.1852 -1.26385 0
M  V30 1322 O 128.757 -5.12598 -2.50198 0
M  V30 1323 O 127.691 -5.97122 -0.756866 0
M  V30 1324 H 131.517 -2.97033 0.632855 0
M  V30 1325 H 129.102 -1.4461 0.375293 0
M  V30 1326 H 130.984 -3.87958 -1.6452 0
M  V30 1327 H 129.659 -2.69321 -1.79577 0
M  V30 1328 H 128.566 -3.73078 0.276283 0
M  V30 1329 H 129.899 -4.90997 0.343866 0
M  V30 1330 N 131.551 -0.354651 -1.53558 0
M  V30 1331 C 132.828 0.294281 -1.93374 0
M  V30 1332 C 133.208 1.67313 -1.28723 0
M  V30 1333 O 132.556 2.24179 -0.442247 0
M  V30 1334 C 132.766 0.355445 -3.47185 0
M  V30 1335 C 134.114 0.601007 -4.20325 0
M  V30 1336 O 135.138 0.437106 -3.53508 0
M  V30 1337 O 133.997 0.919322 -5.38712 0
M  V30 1338 H 131.091 0.174033 -0.808481 0
M  V30 1339 H 133.637 -0.406638 -1.64756 0
M  V30 1340 H 132.409 -0.611729 -3.86489 0
M  V30 1341 H 132.032 1.1027 -3.82003 0
M  V30 1342 N 133.029 1.57378 -0.0835403 0
M  V30 1343 C 133.977 2.14602 0.89714 0
M  V30 1344 C 134.971 1.08589 1.30018 0
M  V30 1345 O 136.177 1.26952 1.27606 0
M  V30 1346 H 132.552 0.686346 0.3073 0
M  V30 1347 H 134.523 2.95845 0.38969 0
M  V30 1348 C 133.272 2.73188 2.15089 0
M  V30 1349 H 132.595 3.54442 1.84962 0
M  V30 1350 H 134.035 3.1681 2.81793 0
M  V30 1351 C 132.494 1.68517 2.91725 0
M  V30 1352 O 133.024 1.11718 3.85852 0
M  V30 1353 N 131.23 1.39277 2.55049 0
M  V30 1354 H 130.777 1.85655 1.78577 0
M  V30 1355 H 130.735 0.694791 3.06627 0
M  V30 1356 N 134.507 -0.190092 1.56449 0
M  V30 1357 C 135.439 -1.25973 1.91477 0
M  V30 1358 C 136.452 -1.41452 0.805931 0
M  V30 1359 O 137.641 -1.41789 1.08435 0
M  V30 1360 C 134.741 -2.63117 2.13594 0
M  V30 1361 C 133.914 -2.69182 3.4476 0
M  V30 1362 C 132.973 -3.87557 3.5593 0
M  V30 1363 O 131.999 -3.74427 4.28711 0
M  V30 1364 N 133.201 -5.03224 2.89388 0
M  V30 1365 H 135.966 -0.962394 2.83828 0
M  V30 1366 H 133.527 -0.379981 1.57378 0
M  V30 1367 H 135.519 -3.40742 2.1835 0
M  V30 1368 H 134.089 -2.85319 1.27719 0
M  V30 1369 H 133.309 -1.77793 3.51828 0
M  V30 1370 H 134.597 -2.70229 4.31107 0
M  V30 1371 H 133.995 -5.16791 2.30094 0
M  V30 1372 H 132.552 -5.78778 2.99764 0
M  V30 1373 N 135.985 -1.50799 -0.457987 0
M  V30 1374 C 137.225 -1.64088 -1.21879 0
M  V30 1375 C 137.589 -0.339848 -1.88968 0
M  V30 1376 O 138.79 -0.348301 -2.66534 0
M  V30 1377 C 137.061 -2.79726 -2.2246 0
M  V30 1378 S 138.62 -3.13225 -3.07303 0
M  V30 1379 H 135.438 -0.578314 -0.41361 0
M  V30 1380 H 138.04 -1.88632 -0.513645 0
M  V30 1381 H 136.744 -3.72722 -1.71775 0
M  V30 1382 H 136.275 -2.57308 -2.97584 0
M  V30 1383 H 138.29 -2.58062 -4.23814 0
M  V30 1384 N 137.463 0.71206 -1.40597 0
M  V30 1385 C 138.411 1.84746 -1.41321 0
M  V30 1386 C 139.405 1.66842 -0.293268 0
M  V30 1387 O 140.611 1.73904 -0.464481 0
M  V30 1388 H 136.986 0.608522 -0.441819 0
M  V30 1389 H 138.957 1.81252 -2.37045 0
M  V30 1390 C 137.706 3.22638 -1.29614 0
M  V30 1391 H 137.029 3.37023 -2.15071 0
M  V30 1392 H 138.469 4.02209 -1.3418 0
M  V30 1393 C 136.928 3.36899 -0.00673121 0
M  V30 1394 O 137.458 3.90186 0.954859 0
M  V30 1395 N 135.664 2.9053 0.0639327 0
M  V30 1396 H 135.211 2.47353 -0.719311 0
M  V30 1397 H 135.169 3.0045 0.926118 0
M  V30 1398 N 138.941 1.26152 0.944643 0
M  V30 1399 C 140.189 1.11271 1.6871 0
M  V30 1400 C 140.51 -0.345166 1.91921 0
M  V30 1401 O 139.78 -1.24387 1.51343 0
M  V30 1402 H 138.36 0.408783 0.625224 0
M  V30 1403 H 141.022 1.58427 1.1352 0
M  V30 1404 H 140.118 1.62879 2.66227 0
M  V30 1405 N 140.419 -1.14872 1.07899 0
M  V30 1406 C 141.666 -1.85789 0.805532 0
M  V30 1407 C 141.994 -1.82649 -0.668561 0
M  V30 1408 O 141.249 -1.24858 -1.50695 0
M  V30 1409 C 141.548 -3.34223 1.26609 0
M  V30 1410 C 141.214 -3.57555 2.74709 0
M  V30 1411 C 139.876 -3.63631 3.1516 0
M  V30 1412 C 142.228 -3.66803 3.70277 0
M  V30 1413 C 139.556 -3.76473 4.49983 0
M  V30 1414 C 141.908 -3.8117 5.04869 0
M  V30 1415 C 140.572 -3.85494 5.44932 0
M  V30 1416 H 139.842 -0.679849 0.294765 0
M  V30 1417 H 142.489 -1.3572 1.35101 0
M  V30 1418 H 140.794 -3.86536 0.640103 0
M  V30 1419 H 142.491 -3.87511 1.03132 0
M  V30 1420 H 139.081 -3.5347 2.42398 0
M  V30 1421 H 143.265 -3.61404 3.40149 0
M  V30 1422 H 138.521 -3.7808 4.80484 0
M  V30 1423 H 142.695 -3.87268 5.78789 0
M  V30 1424 H 140.322 -3.95197 6.49403 0
M  V30 1425 N 141.898 -0.863906 -1.31812 0
M  V30 1426 C 143.138 -0.47825 -1.98726 0
M  V30 1427 C 143.502 0.950397 -1.66828 0
M  V30 1428 O 144.703 1.44109 -2.26905 0
M  V30 1429 C 142.974 -0.721134 -3.50049 0
M  V30 1430 S 144.533 -0.434432 -4.36644 0
M  V30 1431 H 141.351 -0.178773 -0.688158 0
M  V30 1432 H 143.953 -1.11862 -1.60334 0
M  V30 1433 H 142.657 -1.75981 -3.70755 0
M  V30 1434 H 142.188 -0.0675315 -3.93342 0
M  V30 1435 H 144.203 0.735786 -4.90714 0
M  V30 1436 N 143.376 1.44774 -0.622745 0
M  V30 1437 C 144.792 1.56986 -0.287652 0
M  V30 1438 C 144.992 1.61167 1.20944 0
M  V30 1439 O 144.048 1.55015 1.99315 0
M  V30 1440 C 145.361 2.84551 -0.972188 0
M  V30 1441 C 146.909 2.9825 -0.949536 0
M  V30 1442 C 147.384 4.28605 -1.61437 0
M  V30 1443 N 148.875 4.35399 -1.58057 0
M  V30 1444 C 149.61 5.34964 -2.064 0
M  V30 1445 N 149.106 6.40981 -2.62897 0
M  V30 1446 N 150.899 5.26419 -1.97078 0
M  V30 1447 H 143.05 1.40304 -1.59463 0
M  V30 1448 H 145.313 0.671794 -0.668878 0
M  V30 1449 H 145.019 2.87417 -2.02693 0
M  V30 1450 H 144.893 3.73807 -0.504771 0
M  V30 1451 H 147.28 2.94941 0.0967067 0
M  V30 1452 H 147.361 2.10364 -1.45536 0
M  V30 1453 H 147.005 4.32672 -2.66002 0
M  V30 1454 H 146.935 5.15334 -1.08344 0
M  V30 1455 H 149.426 3.59397 -1.16801 0
M  V30 1456 H 149.739 7.13225 -2.97539 0
M  V30 1457 H 148.084 6.4169 -2.66943 0
M  V30 1458 H 151.275 4.42504 -1.52669 0
M  V30 1459 H 151.448 6.03861 -2.35066 0
M  V30 1460 N 144.854 0.36279 1.53368 0
M  V30 1461 C 145.817 -0.472679 2.24273 0
M  V30 1462 C 146.817 -1.012 1.24961 0
M  V30 1463 O 148.007 -0.898194 1.49259 0
M  V30 1464 C 145.139 -1.66039 2.97731 0
M  V30 1465 H 146.332 0.14773 2.99536 0
M  V30 1466 H 143.885 0.114434 1.55881 0
M  V30 1467 H 144.62 -2.31896 2.26704 0
M  V30 1468 H 144.405 -1.28066 3.70596 0
M  V30 1469 H 145.895 -2.25252 3.51641 0
M  V30 1470 N 146.332 -1.57332 0.0918853 0
M  V30 1471 C 147.572 -1.96117 -0.575988 0
M  V30 1472 C 147.936 -0.972499 -1.65549 0
M  V30 1473 O 149.137 -1.24872 -2.38034 0
M  V30 1474 C 147.408 -3.39407 -1.11973 0
M  V30 1475 S 148.967 -4.00185 -1.79992 0
M  V30 1476 H 145.785 -0.685682 -0.188045 0
M  V30 1477 H 148.387 -1.94755 0.170525 0
M  V30 1478 H 147.091 -4.09131 -0.322504 0
M  V30 1479 H 146.622 -3.44358 -1.90214 0
M  V30 1480 H 148.637 -3.88728 -3.08391 0
M  V30 1481 N 147.81 0.181792 -1.56548 0
M  V30 1482 C 148.72 1.24538 -1.98815 0
M  V30 1483 C 149.736 1.49045 -0.897861 0
M  V30 1484 O 150.912 1.61399 -1.20467 0
M  V30 1485 C 147.977 2.56683 -2.33055 0
M  V30 1486 C 147.038 2.40131 -3.55859 0
M  V30 1487 C 146.271 3.65975 -3.88456 0
M  V30 1488 O 146.494 4.70711 -3.22161 0
M  V30 1489 O 145.428 3.6071 -4.81842 0
M  V30 1490 H 149.254 0.916647 -2.89536 0
M  V30 1491 H 146.839 0.387842 -1.44278 0
M  V30 1492 H 148.721 3.34655 -2.56094 0
M  V30 1493 H 147.396 2.89157 -1.45498 0
M  V30 1494 H 146.303 1.60226 -3.38051 0
M  V30 1495 H 147.636 2.12585 -4.43924 0
M  V30 1496 N 149.288 1.51039 0.449983 0
M  V30 1497 C 150.235 1.71439 1.54523 0
M  V30 1498 C 151.205 0.555871 1.56522 0
M  V30 1499 O 152.39 0.788871 1.73728 0
M  V30 1500 C 149.53 1.83384 2.92343 0
M  V30 1501 C 148.643 3.10873 2.9997 0
M  V30 1502 C 147.778 3.13488 4.28834 0
M  V30 1503 C 146.817 4.35343 4.30282 0
M  V30 1504 N 145.954 4.35579 5.5065 0
M  V30 1505 H 150.794 2.64934 1.36433 0
M  V30 1506 H 148.331 1.31312 0.662982 0
M  V30 1507 H 150.289 1.88291 3.72293 0
M  V30 1508 H 148.919 0.933086 3.0902 0
M  V30 1509 H 147.971 3.15336 2.12761 0
M  V30 1510 H 149.283 4.00814 2.96901 0
M  V30 1511 H 148.437 3.17241 5.17149 0
M  V30 1512 H 147.176 2.21414 4.34543 0
M  V30 1513 H 146.181 4.3178 3.40362 0
M  V30 1514 H 147.406 5.28668 4.26248 0
M  V30 1515 H 145.352 3.46369 5.57104 0
M  V30 1516 H 145.269 5.19313 5.49409 0
M  V30 1517 H 146.537 4.43507 6.41032 0
M  V30 1518 N 150.766 -0.704594 1.40972 0
M  V30 1519 C 151.729 -1.80035 1.41845 0
M  V30 1520 C 152.729 -1.57774 0.310474 0
M  V30 1521 O 153.919 -1.64613 0.56992 0
M  V30 1522 C 151.051 -3.18284 1.22098 0
M  V30 1523 H 152.244 -1.80658 2.3938 0
M  V30 1524 H 149.797 -0.911329 1.26982 0
M  V30 1525 H 150.532 -3.23306 0.253672 0
M  V30 1526 H 150.317 -3.35843 2.02366 0
M  V30 1527 H 151.807 -3.98289 1.25522 0
M  V30 1528 N 152.244 -1.26651 -0.937939 0
M  V30 1529 C 153.492 -1.12165 -1.68118 0
M  V30 1530 C 153.813 0.334983 -1.92101 0
M  V30 1531 O 153.083 1.23583 -1.52 0
M  V30 1532 H 151.663 -0.412093 -0.623048 0
M  V30 1533 H 154.325 -1.59027 -1.12678 0
M  V30 1534 H 153.421 -1.64289 -2.6536 0
M  V30 1535 N 153.722 1.14298 -1.08507 0
M  V30 1536 C 154.969 1.85359 -0.815373 0
M  V30 1537 C 155.297 1.83001 0.658865 0
M  V30 1538 O 154.552 1.25655 1.50031 0
M  V30 1539 C 154.851 3.33547 -1.28379 0
M  V30 1540 C 154.517 3.56093 -2.76602 0
M  V30 1541 C 153.179 3.61955 -3.17084 0
M  V30 1542 C 155.531 3.64834 -3.72217 0
M  V30 1543 C 152.859 3.74082 -4.51973 0
M  V30 1544 C 155.211 3.78487 -5.06883 0
M  V30 1545 C 153.875 3.82598 -5.46969 0
M  V30 1546 H 153.145 0.678276 -0.298366 0
M  V30 1547 H 155.792 1.35002 -1.35819 0
M  V30 1548 H 154.097 3.86191 -0.660593 0
M  V30 1549 H 155.794 3.86959 -1.05186 0
M  V30 1550 H 152.384 3.52179 -2.4427 0
M  V30 1551 H 156.568 3.59595 -3.42061 0
M  V30 1552 H 151.824 3.75527 -4.82483 0
M  V30 1553 H 155.998 3.84193 -5.80834 0
M  V30 1554 H 153.625 3.91747 -6.51489 0
M  V30 1555 N 155.201 0.870884 1.31352 0
M  V30 1556 C 156.148 0.325425 2.28494 0
M  V30 1557 C 157.118 -0.576615 1.5577 0
M  V30 1558 O 158.303 -0.508059 1.83911 0
M  V30 1559 C 155.443 -0.466283 3.41935 0
M  V30 1560 C 154.556 0.463378 4.29508 0
M  V30 1561 C 153.691 -0.342544 5.30094 0
M  V30 1562 C 152.73 0.583486 6.09313 0
M  V30 1563 N 151.867 -0.186244 7.01853 0
M  V30 1564 H 156.707 1.15901 2.74538 0
M  V30 1565 H 154.244 0.58294 1.35056 0
M  V30 1566 H 156.202 -0.941085 4.06447 0
M  V30 1567 H 154.832 -1.26456 2.97 0
M  V30 1568 H 153.884 1.05663 3.65431 0
M  V30 1569 H 155.196 1.1734 4.84802 0
M  V30 1570 H 154.35 -0.879816 6.00287 0
M  V30 1571 H 153.089 -1.08585 4.75458 0
M  V30 1572 H 152.094 1.13251 5.3801 0
M  V30 1573 H 153.319 1.32566 6.66035 0
M  V30 1574 H 151.265 -0.912348 6.49625 0
M  V30 1575 H 151.182 0.464422 7.54572 0
M  V30 1576 H 152.45 -0.704716 7.76308 0
M  V30 1577 N 156.679 -1.44442 0.630414 0
M  V30 1578 C 157.919 -2.03934 0.137919 0
M  V30 1579 C 158.283 -1.48509 -1.21692 0
M  V30 1580 O 159.484 -1.99499 -1.80149 0
M  V30 1581 C 157.755 -3.57187 0.123373 0
M  V30 1582 S 159.314 -4.37741 -0.304604 0
M  V30 1583 H 156.132 -0.708401 0.0607353 0
M  V30 1584 H 158.734 -1.76835 0.833643 0
M  V30 1585 H 157.438 -3.95032 1.11256 0
M  V30 1586 H 156.969 -3.88895 -0.59362 0
M  V30 1587 H 158.984 -4.71403 -1.54897 0
M  V30 1588 N 158.157 -0.370918 -1.53173 0
M  V30 1589 C 159.385 0.217704 -2.05751 0
M  V30 1590 C 159.8 1.42018 -1.24404 0
M  V30 1591 O 159.157 1.80245 -0.286033 0
M  V30 1592 C 159.208 0.605954 -3.56385 0
M  V30 1593 O 158.929 -0.548734 -4.3465 0
M  V30 1594 C 160.43 1.2524 -4.25241 0
M  V30 1595 H 157.65 0.0371659 -0.66997 0
M  V30 1596 H 160.194 -0.530832 -1.9749 0
M  V30 1597 H 158.349 1.3044 -3.6478 0
M  V30 1598 H 158.763 -0.23376 -5.23979 0
M  V30 1599 H 160.237 1.47458 -5.3194 0
M  V30 1600 H 160.714 2.2143 -3.79296 0
M  V30 1601 H 161.32 0.595233 -4.21114 0
M  V30 1602 N 159.635 1.57281 -0.100228 0
M  V30 1603 C 160.881 1.94826 0.563101 0
M  V30 1604 C 161.214 0.982475 1.67514 0
M  V30 1605 O 160.489 0.0164069 1.94493 0
M  V30 1606 C 160.772 3.42453 1.11346 0
M  V30 1607 C 160.625 4.498 0.00612081 0
M  V30 1608 C 161.944 3.91506 2.01024 0
M  V30 1609 H 159.063 0.708428 0.203221 0
M  V30 1610 H 161.705 1.8922 -0.171979 0
M  V30 1611 H 159.855 3.47361 1.7399 0
M  V30 1612 H 161.527 4.57 -0.628357 0
M  V30 1613 H 159.77 4.28756 -0.659581 0
M  V30 1614 H 160.441 5.50306 0.432109 0
M  V30 1615 H 162.917 3.88784 1.48278 0
M  V30 1616 H 161.793 4.95358 2.36457 0
M  V30 1617 H 162.054 3.31099 2.92961 0
M  V30 1618 N 161.113 -0.173488 1.56642 0
M  V30 1619 C 162.341 -0.906095 1.86004 0
M  V30 1620 C 162.756 -1.75921 0.685355 0
M  V30 1621 O 162.113 -1.79198 -0.345578 0
M  V30 1622 C 162.164 -1.78462 3.14378 0
M  V30 1623 O 161.885 -0.965914 4.27319 0
M  V30 1624 C 163.386 -2.62707 3.57071 0
M  V30 1625 H 160.606 -0.263341 0.617165 0
M  V30 1626 H 163.15 -0.174236 2.03756 0
M  V30 1627 H 161.305 -2.46984 2.98459 0
M  V30 1628 H 161.719 -1.56655 5.00559 0
M  V30 1629 H 163.193 -3.19969 4.49804 0
M  V30 1630 H 163.67 -3.37472 2.81086 0
M  V30 1631 H 164.276 -1.99521 3.75595 0
M  V30 1632 N 162.591 -1.51276 -0.441967 0
M  V30 1633 C 163.538 -1.72256 -1.53612 0
M  V30 1634 C 164.508 -0.564164 -1.56225 0
M  V30 1635 O 165.693 -0.798074 -1.73307 0
M  V30 1636 C 162.833 -1.84932 -2.91366 0
M  V30 1637 C 161.946 -3.12459 -2.98317 0
M  V30 1638 C 161.081 -3.15758 -4.27166 0
M  V30 1639 C 160.12 -4.37619 -4.27967 0
M  V30 1640 N 159.257 -4.38493 -5.48333 0
M  V30 1641 H 164.097 -2.65654 -1.35026 0
M  V30 1642 H 161.634 -1.31662 -0.656009 0
M  V30 1643 H 163.592 -1.90263 -3.7129 0
M  V30 1644 H 162.222 -0.949461 -3.08521 0
M  V30 1645 H 161.274 -3.1646 -2.11086 0
M  V30 1646 H 162.586 -4.02382 -2.94771 0
M  V30 1647 H 161.74 -3.19979 -5.15459 0
M  V30 1648 H 160.479 -2.23715 -4.33362 0
M  V30 1649 H 159.484 -4.33579 -3.38067 0
M  V30 1650 H 160.709 -5.30921 -4.23438 0
M  V30 1651 H 158.655 -3.49318 -5.55259 0
M  V30 1652 H 158.572 -5.22219 -5.46647 0
M  V30 1653 H 159.84 -4.469 -6.38671 0
M  V30 1654 N 164.069 0.697108 -1.41344 0
M  V30 1655 C 164.979 1.84088 -1.45427 0
M  V30 1656 C 165.995 1.70545 -0.34501 0
M  V30 1657 O 167.171 1.92488 -0.592492 0
M  V30 1658 C 164.236 3.20056 -1.33286 0
M  V30 1659 C 163.297 3.45718 -2.54514 0
M  V30 1660 C 162.53 4.75199 -2.42944 0
M  V30 1661 O 162.753 5.51579 -1.45318 0
M  V30 1662 O 161.687 5.0161 -3.32672 0
M  V30 1663 H 165.513 1.836 -2.41919 0
M  V30 1664 H 163.098 0.849966 -1.22866 0
M  V30 1665 H 164.98 4.01236 -1.28794 0
M  V30 1666 H 163.655 3.2123 -0.39909 0
M  V30 1667 H 162.562 2.64474 -2.64583 0
M  V30 1668 H 163.895 3.49356 -3.46715 0
M  V30 1669 N 165.547 1.27147 0.931209 0
M  V30 1670 C 166.51 1.09615 2.01289 0
M  V30 1671 C 167.51 0.0412581 1.60747 0
M  V30 1672 O 168.7 0.285545 1.71844 0
M  V30 1673 C 165.832 0.669447 3.34262 0
M  V30 1674 H 167.025 2.05662 2.18273 0
M  V30 1675 H 164.578 1.09885 1.11153 0
M  V30 1676 H 165.313 -0.292572 3.22978 0
M  V30 1677 H 165.098 1.43127 3.65044 0
M  V30 1678 H 166.588 0.568921 4.13706 0
M  V30 1679 N 167.025 -1.13721 1.09112 0
M  V30 1680 C 167.957 -2.1871 0.685467 0
M  V30 1681 C 168.97 -1.60527 -0.271068 0
M  V30 1682 O 170.159 -1.78407 -0.0576148 0
M  V30 1683 C 167.259 -3.38898 -0.0111255 0
M  V30 1684 C 166.432 -4.26597 0.966131 0
M  V30 1685 C 165.491 -5.25324 0.303539 0
M  V30 1686 O 164.517 -5.61213 0.950177 0
M  V30 1687 N 165.719 -5.72779 -0.943651 0
M  V30 1688 H 168.484 -2.54126 1.58871 0
M  V30 1689 H 166.045 -1.29012 0.978143 0
M  V30 1690 H 168.037 -4.02014 -0.465517 0
M  V30 1691 H 166.607 -3.01747 -0.816565 0
M  V30 1692 H 165.827 -3.60306 1.59917 0
M  V30 1693 H 167.115 -4.82048 1.6281 0
M  V30 1694 H 166.513 -5.45762 -1.48862 0
M  V30 1695 H 165.07 -6.37847 -1.34142 0
M  V30 1696 N 168.503 -0.877838 -1.30888 0
M  V30 1697 C 169.466 -0.344265 -2.266 0
M  V30 1698 C 170.466 0.50922 -1.52524 0
M  V30 1699 O 171.656 0.317398 -1.71284 0
M  V30 1700 C 168.788 0.510198 -3.37061 0
M  V30 1701 H 169.981 -1.1893 -2.7531 0
M  V30 1702 H 167.534 -0.654088 -1.41956 0
M  V30 1703 H 168.269 1.37612 -2.93655 0
M  V30 1704 H 168.054 -0.101047 -3.9197 0
M  V30 1705 H 169.544 0.875537 -4.08319 0
M  V30 1706 N 169.982 1.44106 -0.638065 0
M  V30 1707 C 171.228 2.02277 -0.145546 0
M  V30 1708 C 171.561 1.50125 1.23191 0
M  V30 1709 O 170.836 0.688133 1.8192 0
M  V30 1710 C 171.119 3.59829 -0.139791 0
M  V30 1711 C 170.972 4.22247 -1.55008 0
M  V30 1712 C 172.291 4.36873 0.531966 0
M  V30 1713 H 169.41 0.734992 -0.0543632 0
M  V30 1714 H 172.052 1.71592 -0.815863 0
M  V30 1715 H 170.202 3.86102 0.431007 0
M  V30 1716 H 171.874 4.07057 -2.1703 0
M  V30 1717 H 170.117 3.79476 -2.10191 0
M  V30 1718 H 170.788 5.31284 -1.49804 0
M  V30 1719 H 173.264 4.16074 0.0464781 0
M  V30 1720 H 172.14 5.4657 0.505206 0
M  V30 1721 H 172.401 4.11995 1.60352 0
M  V30 1722 N 171.46 0.379036 1.52974 0
M  V30 1723 C 172.39 -0.452706 2.29069 0
M  V30 1724 C 173.371 -1.07237 1.32039 0
M  V30 1725 O 174.556 -1.08708 1.60923 0
M  V30 1726 C 171.686 -1.5856 3.08992 0
M  V30 1727 C 170.64 -1.0925 4.13822 0
M  V30 1728 C 169.966 -2.31668 4.81907 0
M  V30 1729 C 171.266 -0.167702 5.22031 0
M  V30 1730 H 172.96 0.182181 2.98845 0
M  V30 1731 H 170.506 0.0890592 1.43724 0
M  V30 1732 H 172.459 -2.1742 3.6098 0
M  V30 1733 H 171.183 -2.24792 2.36931 0
M  V30 1734 H 169.842 -0.526494 3.628 0
M  V30 1735 H 169.49 -2.96386 4.06404 0
M  V30 1736 H 169.19 -1.9934 5.52754 0
M  V30 1737 H 170.714 -2.91189 5.36695 0
M  V30 1738 H 172.128 -0.664186 5.6944 0
M  V30 1739 H 170.525 0.0653265 6.00064 0
M  V30 1740 H 171.595 0.786347 4.78482 0
M  V30 1741 N 172.938 -1.57226 0.108567 0
M  V30 1742 C 173.901 -2.13602 -0.831082 0
M  V30 1743 C 174.901 -1.06841 -1.20173 0
M  V30 1744 O 176.091 -1.32666 -1.12895 0
M  V30 1745 C 173.223 -2.66769 -2.12243 0
M  V30 1746 H 174.416 -2.97951 -0.341317 0
M  V30 1747 H 171.969 -1.55667 -0.14057 0
M  V30 1748 H 172.704 -1.85977 -2.65675 0
M  V30 1749 H 172.489 -3.44839 -1.86625 0
M  V30 1750 H 173.979 -3.10332 -2.79435 0
M  V30 1751 N 174.416 0.165178 -1.56732 0
M  V30 1752 C 175.656 0.887231 -1.8414 0
M  V30 1753 C 176.02 1.79159 -0.690353 0
M  V30 1754 O 177.221 2.55172 -0.845032 0
M  V30 1755 C 175.492 1.65674 -3.16681 0
M  V30 1756 S 177.051 2.42671 -3.6559 0
M  V30 1757 H 173.869 0.297042 -0.645978 0
M  V30 1758 H 176.471 0.148439 -1.94936 0
M  V30 1759 H 175.175 0.983507 -3.98441 0
M  V30 1760 H 174.706 2.43679 -3.08843 0
M  V30 1761 H 176.721 3.67499 -3.33406 0
M  V30 1762 N 175.894 1.51508 0.433938 0
M  V30 1763 C 177.141 1.64345 1.18309 0
M  V30 1764 C 177.469 0.361315 1.91115 0
M  V30 1765 O 176.724 -0.654753 1.84422 0
M  V30 1766 C 177.023 2.79928 2.22205 0
M  V30 1767 C 176.689 4.19078 1.66387 0
M  V30 1768 C 175.351 4.56932 1.50887 0
M  V30 1769 C 177.703 5.05894 1.25381 0
M  V30 1770 C 175.031 5.79305 0.928608 0
M  V30 1771 C 177.383 6.2885 0.687823 0
M  V30 1772 C 176.047 6.65473 0.519755 0
M  V30 1773 H 175.317 0.601381 0.432923 0
M  V30 1774 H 177.964 1.85549 0.473676 0
M  V30 1775 H 176.269 2.52959 2.99197 0
M  V30 1776 H 177.966 2.87059 2.79997 0
M  V30 1777 H 174.556 3.89234 1.79428 0
M  V30 1778 H 178.74 4.77253 1.36175 0
M  V30 1779 H 173.996 6.06324 0.786186 0
M  V30 1780 H 178.17 6.95461 0.361581 0
M  V30 1781 H 175.797 7.6017 0.0679979 0
M  V30 1782 N 177.372 -0.689602 1.41712 0
M  V30 1783 C 178.302 -1.81577 1.46806 0
M  V30 1784 C 179.283 -1.66945 0.326105 0
M  V30 1785 O 180.468 -1.86588 0.538377 0
M  V30 1786 C 177.598 -3.19762 1.35535 0
M  V30 1787 C 176.552 -3.49107 2.47605 0
M  V30 1788 C 175.878 -4.86711 2.21397 0
M  V30 1789 C 177.178 -3.47483 3.89939 0
M  V30 1790 H 178.872 -1.7757 2.41058 0
M  V30 1791 H 176.418 -0.852887 1.16025 0
M  V30 1792 H 178.371 -3.98263 1.3771 0
M  V30 1793 H 177.095 -3.24409 0.377708 0
M  V30 1794 H 175.754 -2.72959 2.44722 0
M  V30 1795 H 175.402 -4.8799 1.21961 0
M  V30 1796 H 175.102 -5.0731 2.96497 0
M  V30 1797 H 176.626 -5.67515 2.25297 0
M  V30 1798 H 178.04 -4.1598 3.94505 0
M  V30 1799 H 176.437 -3.79615 4.64771 0
M  V30 1800 H 177.507 -2.46341 4.17665 0
M  V30 1801 N 178.85 -1.27639 -0.924453 0
M  V30 1802 C 180.127 -1.04887 -1.651 0
M  V30 1803 C 180.507 0.415327 -2.06974 0
M  V30 1804 O 179.855 1.39923 -1.80648 0
M  V30 1805 C 180.065 -2.01348 -2.85061 0
M  V30 1806 C 181.413 -2.30899 -3.56329 0
M  V30 1807 O 182.437 -1.99348 -2.95193 0
M  V30 1808 O 181.296 -2.84699 -4.66485 0
M  V30 1809 H 178.39 -0.400083 -0.723784 0
M  V30 1810 H 180.936 -1.38916 -0.974703 0
M  V30 1811 H 179.708 -3.0008 -2.51133 0
M  V30 1812 H 179.331 -1.679 -3.6041 0
M  V30 1813 N 180.328 1.1314 -1.09713 0
M  V30 1814 C 181.275 2.18642 -0.739196 0
M  V30 1815 C 182.245 1.63706 0.280978 0
M  V30 1816 O 183.43 1.90111 0.161946 0
M  V30 1817 C 180.57 3.44685 -0.169102 0
M  V30 1818 C 179.683 4.13711 -1.24367 0
M  V30 1819 C 178.818 5.27379 -0.636019 0
M  V30 1820 C 177.857 5.88259 -1.69169 0
M  V30 1821 N 176.994 6.93352 -1.10485 0
M  V30 1822 H 181.834 2.48607 -1.64312 0
M  V30 1823 H 179.371 1.22066 -0.820875 0
M  V30 1824 H 181.329 4.16815 0.179256 0
M  V30 1825 H 179.959 3.15161 0.698079 0
M  V30 1826 H 179.011 3.39835 -1.70927 0
M  V30 1827 H 180.323 4.55037 -2.04311 0
M  V30 1828 H 179.477 6.06238 -0.236677 0
M  V30 1829 H 178.216 4.8731 0.194928 0
M  V30 1830 H 177.221 5.08092 -2.10055 0
M  V30 1831 H 178.446 6.30399 -2.52536 0
M  V30 1832 H 176.392 6.55335 -0.295234 0
M  V30 1833 H 176.309 7.33236 -1.84121 0
M  V30 1834 H 177.577 7.76057 -0.73181 0
M  V30 1835 N 181.806 0.884767 1.30421 0
M  V30 1836 C 182.756 0.322846 2.25703 0
M  V30 1837 C 183.74 -0.548582 1.51259 0
M  V30 1838 O 184.932 -0.39304 1.72581 0
M  V30 1839 C 182.061 -0.461787 3.4018 0
M  V30 1840 C 181.147 0.423717 4.21978 0
M  V30 1841 N 181.538 1.52408 4.82292 0
M  V30 1842 C 179.836 0.218795 4.45463 0
M  V30 1843 C 180.537 2.07136 5.43571 0
M  V30 1844 N 179.513 1.36635 5.26148 0
M  V30 1845 H 183.315 1.16363 2.69883 0
M  V30 1846 H 180.829 0.73415 1.44859 0
M  V30 1847 H 182.826 -0.880985 4.07485 0
M  V30 1848 H 181.486 -1.30001 2.9754 0
M  V30 1849 H 182.497 1.90693 4.81515 0
M  V30 1850 H 179.174 -0.582275 4.1342 0
M  V30 1851 H 180.564 2.99538 6.01437 0
M  V30 1852 N 183.284 -1.43765 0.645699 0
M  V30 1853 C 184.234 -2.27884 -0.0726442 0
M  V30 1854 C 185.218 -1.39483 -0.802086 0
M  V30 1855 O 186.41 -1.63174 -0.685791 0
M  V30 1856 C 183.539 -3.27055 -1.04356 0
M  V30 1857 C 182.625 -4.22944 -0.312985 0
M  V30 1858 N 183.016 -5.01391 0.666386 0
M  V30 1859 C 181.314 -4.42528 -0.55546 0
M  V30 1860 C 182.015 -5.71217 1.09935 0
M  V30 1861 N 180.991 -5.41856 0.435137 0
M  V30 1862 H 184.793 -2.85949 0.678988 0
M  V30 1863 H 182.307 -1.55378 0.472368 0
M  V30 1864 H 184.304 -3.86089 -1.57292 0
M  V30 1865 H 182.964 -2.70551 -1.79534 0
M  V30 1866 H 183.975 -5.07252 1.04481 0
M  V30 1867 H 180.652 -3.97104 -1.28899 0
M  V30 1868 H 182.042 -6.44202 1.90929 0
M  V30 1869 N 184.763 -0.387143 -1.52771 0
M  V30 1870 C 186.04 0.253197 -1.93954 0
M  V30 1871 C 186.42 1.64545 -1.32243 0
M  V30 1872 O 185.768 2.23191 -0.489699 0
M  V30 1873 C 185.978 0.281722 -3.47861 0
M  V30 1874 C 187.326 0.511715 -4.21505 0
M  V30 1875 O 188.35 0.362023 -3.54356 0
M  V30 1876 O 187.209 0.804847 -5.40541 0
M  V30 1877 H 184.303 0.156845 -0.811991 0
M  V30 1878 H 186.849 -0.441494 -1.63856 0
M  V30 1879 H 185.621 -0.693571 -3.85104 0
M  V30 1880 H 185.244 1.02142 -3.84256 0
M  V30 1881 N 186.241 1.57166 -0.116904 0
M  V30 1882 C 187.49 1.94298 0.541407 0
M  V30 1883 C 187.803 1.00236 1.67964 0
M  V30 1884 O 189.009 1.26826 2.40057 0
M  V30 1885 C 187.465 3.45306 1.01449 0
M  V30 1886 C 187.073 4.47899 -0.0951738 0
M  V30 1887 C 188.817 3.91361 1.6443 0
M  V30 1888 C 186.724 5.90083 0.394491 0
M  V30 1889 H 185.654 0.725308 0.206019 0
M  V30 1890 H 188.305 1.82446 -0.196419 0
M  V30 1891 H 186.687 3.52385 1.80667 0
M  V30 1892 H 187.861 4.52486 -0.871374 0
M  V30 1893 H 186.176 4.11583 -0.631505 0
M  V30 1894 H 188.773 4.95004 2.02176 0
M  V30 1895 H 189.116 3.3122 2.52189 0
M  V30 1896 H 189.649 3.87073 0.917559 0
M  V30 1897 H 186.388 6.53974 -0.447004 0
M  V30 1898 H 185.908 5.88921 1.13722 0
M  V30 1899 H 187.587 6.41307 0.856399 0
M  V30 1900 N 187.719 -0.156864 1.56817 0
M  V30 1901 C 188.968 -0.869504 1.81996 0
M  V30 1902 C 189.281 -1.82777 0.696545 0
M  V30 1903 O 190.487 -2.58384 0.833658 0
M  V30 1904 C 188.943 -1.59679 3.22538 0
M  V30 1905 C 188.551 -0.681431 4.42787 0
M  V30 1906 C 190.295 -2.2968 3.56997 0
M  V30 1907 C 188.202 -1.40978 5.74351 0
M  V30 1908 H 187.132 -0.328438 0.678708 0
M  V30 1909 H 189.783 -0.1223 1.83092 0
M  V30 1910 H 188.165 -2.38927 3.158 0
M  V30 1911 H 189.339 0.0751166 4.60739 0
M  V30 1912 H 187.654 -0.0903431 4.16302 0
M  V30 1913 H 190.251 -2.84794 4.52544 0
M  V30 1914 H 190.594 -3.05707 2.82576 0
M  V30 1915 H 191.127 -1.57361 3.65352 0
M  V30 1916 H 187.866 -0.691561 6.51842 0
M  V30 1917 H 187.386 -2.13929 5.60352 0
M  V30 1918 H 189.065 -1.95337 6.16808 0
M  V30 1919 N 189.197 -1.51736 -0.425897 0
M  V30 1920 C 190.446 -1.64201 -1.17136 0
M  V30 1921 C 190.759 -0.369705 -1.92074 0
M  V30 1922 O 191.965 -0.373898 -2.68913 0
M  V30 1923 C 190.421 -2.90035 -2.13091 0
M  V30 1924 C 190.029 -4.24312 -1.43747 0
M  V30 1925 C 191.773 -3.1186 -2.87999 0
M  V30 1926 C 189.68 -5.41285 -2.38253 0
M  V30 1927 H 188.61 -0.611624 -0.440944 0
M  V30 1928 H 191.261 -1.78212 -0.437328 0
M  V30 1929 H 189.643 -2.69684 -2.89977 0
M  V30 1930 H 190.817 -4.55086 -0.723408 0
M  V30 1931 H 189.132 -4.08456 -0.809465 0
M  V30 1932 H 191.729 -3.96427 -3.58817 0
M  V30 1933 H 192.072 -2.25403 -3.49999 0
M  V30 1934 H 192.605 -3.32605 -2.18217 0
M  V30 1935 H 189.344 -6.30037 -1.80925 0
M  V30 1936 H 188.864 -5.14872 -3.0768 0
M  V30 1937 H 190.543 -5.73694 -2.99139 0
M  V30 1938 N 190.675 0.682077 -1.42076 0
M  V30 1939 C 191.924 1.43786 -1.41451 0
M  V30 1940 C 192.237 1.95574 -0.0317074 0
M  V30 1941 O 193.443 2.71326 0.0971462 0
M  V30 1942 C 191.899 2.60071 -2.48779 0
M  V30 1943 C 191.507 2.15013 -3.93031 0
M  V30 1944 C 193.251 3.37626 -2.57311 0
M  V30 1945 C 191.158 3.28336 -4.91883 0
M  V30 1946 H 190.088 0.540143 -0.526082 0
M  V30 1947 H 192.739 0.739157 -1.67955 0
M  V30 1948 H 191.121 3.32275 -2.15429 0
M  V30 1949 H 192.295 1.5001 -4.35699 0
M  V30 1950 H 190.61 1.50416 -3.88284 0
M  V30 1951 H 193.207 4.22012 -3.28345 0
M  V30 1952 H 193.55 3.83727 -1.61429 0
M  V30 1953 H 194.083 2.72488 -2.89819 0
M  V30 1954 H 190.822 2.87234 -5.89217 0
M  V30 1955 H 190.342 3.92145 -4.53853 0
M  V30 1956 H 192.021 3.93913 -5.13265 0
M  V30 1957 N 192.153 1.28127 0.917671 0
M  V30 1958 C 193.43 1.05761 1.64542 0
M  V30 1959 C 193.81 -0.404344 2.07191 0
M  V30 1960 O 193.158 -1.38963 1.81388 0
M  V30 1961 C 193.368 2.02857 2.83989 0
M  V30 1962 C 194.716 2.32786 3.551 0
M  V30 1963 O 195.74 2.0091 2.94132 0
M  V30 1964 O 194.599 2.87169 4.64969 0
M  V30 1965 H 191.693 0.403916 0.721652 0
M  V30 1966 H 194.239 1.39431 0.967322 0
M  V30 1967 H 193.011 3.01407 2.49538 0
M  V30 1968 H 192.634 1.69809 3.59514 0
M  V30 1969 N 193.631 -1.12557 1.10312 0
M  V30 1970 C 194.581 -2.16331 0.720076 0
M  V30 1971 C 195.565 -1.58616 -0.270115 0
M  V30 1972 O 196.757 -1.76823 -0.0790507 0
M  V30 1973 C 193.886 -3.42963 0.152113 0
M  V30 1974 C 192.972 -4.07663 1.16927 0
M  V30 1975 N 193.363 -4.47392 2.35953 0
M  V30 1976 C 191.661 -4.34425 1.0095 0
M  V30 1977 C 192.362 -4.97932 3.0073 0
M  V30 1978 N 191.338 -4.93358 2.28252 0
M  V30 1979 H 195.14 -2.44813 1.62616 0
M  V30 1980 H 192.654 -1.29449 0.980654 0
M  V30 1981 H 194.651 -4.16664 -0.14037 0
M  V30 1982 H 193.311 -3.1595 -0.748701 0
M  V30 1983 H 194.322 -4.39802 2.73486 0
M  V30 1984 H 190.999 -4.17177 0.164134 0
M  V30 1985 H 192.389 -5.38397 4.01969 0
M  V30 1986 N 195.109 -0.891671 -1.2995 0
M  V30 1987 C 196.525 -0.58662 -1.48428 0
M  V30 1988 C 196.725 0.873951 -1.81561 0
M  V30 1989 O 195.781 1.65471 -1.90724 0
M  V30 1990 C 197.094 -1.50553 -2.60296 0
M  V30 1991 C 198.642 -1.50988 -2.74175 0
M  V30 1992 C 199.117 -2.41488 -3.89163 0
M  V30 1993 N 200.608 -2.39489 -3.96483 0
M  V30 1994 C 201.343 -3.06223 -4.84784 0
M  V30 1995 N 200.839 -3.82206 -5.77833 0
M  V30 1996 N 202.632 -2.95421 -4.78208 0
M  V30 1997 H 194.783 -1.83644 -1.06718 0
M  V30 1998 H 197.046 -0.786455 -0.529332 0
M  V30 1999 H 196.752 -2.54581 -2.42654 0
M  V30 2000 H 196.626 -1.22008 -3.56923 0
M  V30 2001 H 199.013 -0.47708 -2.91218 0
M  V30 2002 H 199.094 -1.83567 -1.78148 0
M  V30 2003 H 198.738 -3.44857 -3.72876 0
M  V30 2004 H 198.668 -2.06222 -4.84541 0
M  V30 2005 H 201.159 -1.84278 -3.29924 0
M  V30 2006 H 201.472 -4.302 -6.41988 0
M  V30 2007 H 199.817 -3.86313 -5.77743 0
M  V30 2008 H 203.008 -2.35581 -4.04499 0
M  V30 2009 H 203.181 -3.47704 -5.46814 0
M  V30 2010 N 196.587 1.43421 -0.653314 0
M  V30 2011 C 197.535 2.32546 0.0501531 0
M  V30 2012 C 198.529 1.48617 0.812985 0
M  V30 2013 O 199.735 1.64825 0.723375 0
M  V30 2014 H 196.11 0.751185 0.0350032 0
M  V30 2015 H 198.081 2.89602 -0.719261 0
M  V30 2016 C 196.83 3.32925 1.00279 0
M  V30 2017 H 196.153 3.97532 0.425236 0
M  V30 2018 H 197.593 3.9792 1.46409 0
M  V30 2019 C 196.052 2.63532 2.09886 0
M  V30 2020 O 196.582 2.45092 3.18265 0
M  V30 2021 N 194.788 2.22905 1.86445 0
M  V30 2022 H 194.335 2.38103 0.98309 0
M  V30 2023 H 194.293 1.76805 2.59976 0
M  V30 2024 N 198.065 0.39524 1.52563 0
M  V30 2025 C 199.476 -0.0774719 1.86539 0
M  V30 2026 C 199.827 -1.45641 1.31466 0
M  V30 2027 O 198.952 -2.06459 0.648367 0
M  V30 2028 C 199.547 -0.147356 3.38479 0
M  V30 2029 C 198.106 -0.564373 3.72145 0
M  V30 2030 C 197.253 0.269919 2.75983 0
M  V30 2031 H 200.204 0.612876 1.46388 0
M  V30 2032 H 200.225 -0.965343 3.68051 0
M  V30 2033 H 199.737 0.856387 3.78534 0
M  V30 2034 H 197.838 -1.57527 3.37663 0
M  V30 2035 H 197.951 -0.318402 4.78041 0
M  V30 2036 H 196.315 -0.265696 2.5331 0
M  V30 2037 H 197.098 1.27175 3.18875 0
M  V30 2038 N 199.544 -1.57102 0.125237 0
M  V30 2039 C 200.96 -1.57915 -0.231322 0
M  V30 2040 C 201.16 -1.13833 -1.66266 0
M  V30 2041 O 200.216 -0.828581 -2.38518 0
M  V30 2042 C 201.529 -3.00699 0.00766489 0
M  V30 2043 C 203.077 -3.12947 -0.0577483 0
M  V30 2044 C 203.552 -4.57742 0.153626 0
M  V30 2045 N 205.043 -4.63092 0.0998073 0
M  V30 2046 C 205.778 -5.72905 0.238174 0
M  V30 2047 N 205.274 -6.91445 0.433057 0
M  V30 2048 N 207.067 -5.6182 0.177308 0
M  V30 2049 H 199.218 -1.84055 1.06007 0
M  V30 2050 H 201.481 -0.850905 0.417929 0
M  V30 2051 H 201.187 -3.3726 0.997431 0
M  V30 2052 H 201.061 -3.70236 -0.721452 0
M  V30 2053 H 203.448 -2.7624 -1.03804 0
M  V30 2054 H 203.529 -2.4594 0.70335 0
M  V30 2055 H 203.173 -4.95149 1.13092 0
M  V30 2056 H 203.103 -5.22848 -0.627534 0
M  V30 2057 H 205.594 -3.77871 -0.047051 0
M  V30 2058 H 205.907 -7.70985 0.529332 0
M  V30 2059 H 204.252 -6.93415 0.469109 0
M  V30 2060 H 207.443 -4.68093 0.0259748 0
M  V30 2061 H 207.616 -6.47357 0.288582 0
M  V30 2062 N 201.022 0.148545 -1.56898 0
M  V30 2063 C 201.954 1.20852 -1.9475 0
M  V30 2064 C 202.967 1.39265 -0.843152 0
M  V30 2065 O 204.156 1.38864 -1.12156 0
M  V30 2066 C 201.256 2.57362 -2.20495 0
M  V30 2067 C 200.429 2.59947 -3.51776 0
M  V30 2068 C 199.488 3.77984 -3.6608 0
M  V30 2069 O 198.514 3.62929 -4.38487 0
M  V30 2070 N 199.716 4.95375 -3.02629 0
M  V30 2071 H 202.481 0.886804 -2.86279 0
M  V30 2072 H 200.042 0.338121 -1.5833 0
M  V30 2073 H 202.034 3.34833 -2.27307 0
M  V30 2074 H 200.604 2.81832 -1.35238 0
M  V30 2075 H 199.824 1.68403 -3.56419 0
M  V30 2076 H 201.112 2.58704 -4.38121 0
M  V30 2077 H 200.51 5.10509 -2.43715 0
M  V30 2078 H 199.067 5.70627 -3.15004 0
M  V30 2079 N 202.5 1.5196 0.417844 0
M  V30 2080 C 203.43 1.77634 1.51554 0
M  V30 2081 C 204.411 0.626918 1.58126 0
M  V30 2082 O 205.596 0.871632 1.7354 0
M  V30 2083 C 202.726 1.91911 2.8946 0
M  V30 2084 C 201.68 3.07463 2.97743 0
M  V30 2085 C 201.006 3.06951 4.37819 0
M  V30 2086 C 202.306 4.47082 2.70027 0
M  V30 2087 H 204 2.6955 1.3032 0
M  V30 2088 H 201.546 1.29706 0.625492 0
M  V30 2089 H 203.499 2.08455 3.6623 0
M  V30 2090 H 202.223 0.966598 3.11969 0
M  V30 2091 H 200.882 2.90656 2.23416 0
M  V30 2092 H 200.53 2.09438 4.57323 0
M  V30 2093 H 200.23 3.84556 4.44286 0
M  V30 2094 H 201.754 3.25613 5.16535 0
M  V30 2095 H 203.168 4.6414 3.36522 0
M  V30 2096 H 201.565 5.2654 2.87881 0
M  V30 2097 H 202.635 4.55777 1.65514 0
M  V30 2098 N 203.978 -0.674533 1.42435 0
M  V30 2099 C 205.255 -1.4305 1.33402 0
M  V30 2100 C 205.635 -2.11081 -0.0284674 0
M  V30 2101 O 204.983 -2.03257 -1.04397 0
M  V30 2102 C 205.193 -2.43272 2.50239 0
M  V30 2103 C 206.541 -3.07907 2.92367 0
M  V30 2104 O 207.565 -2.53599 2.50132 0
M  V30 2105 O 206.424 -4.0632 3.65467 0
M  V30 2106 H 203.518 -0.638076 0.526106 0
M  V30 2107 H 206.064 -0.703235 1.54443 0
M  V30 2108 H 204.836 -1.91803 3.41068 0
M  V30 2109 H 204.459 -3.23479 2.31186 0
M  V30 2110 N 205.456 -1.28612 -0.910864 0
M  V30 2111 C 206.419 -1.12803 -1.9952 0
M  V30 2112 C 207.419 -0.0668264 -1.60661 0
M  V30 2113 O 208.609 -0.312847 -1.71368 0
M  V30 2114 C 205.741 -0.72254 -3.33155 0
M  V30 2115 H 206.934 -2.09109 -2.14973 0
M  V30 2116 H 204.487 -1.11639 -1.09391 0
M  V30 2117 H 205.222 0.241152 -3.23402 0
M  V30 2118 H 205.007 -1.48916 -3.62721 0
M  V30 2119 H 206.497 -0.634666 -4.12749 0
M  V30 2120 N 206.934 1.1197 -1.10907 0
M  V30 2121 C 207.844 2.21433 -0.774896 0
M  V30 2122 C 208.86 1.72478 0.229657 0
M  V30 2123 O 210.036 2.01288 0.0672008 0
M  V30 2124 C 207.101 3.4602 -0.216986 0
M  V30 2125 C 206.162 4.09791 -1.27944 0
M  V30 2126 C 205.395 5.28431 -0.748055 0
M  V30 2127 O 205.618 5.68823 0.423833 0
M  V30 2128 O 204.552 5.82644 -1.51027 0
M  V30 2129 H 208.378 2.5242 -1.68873 0
M  V30 2130 H 205.963 1.20399 -0.884555 0
M  V30 2131 H 207.845 4.21304 0.090059 0
M  V30 2132 H 206.52 3.16698 0.669633 0
M  V30 2133 H 205.427 3.36265 -1.63941 0
M  V30 2134 H 206.76 4.4328 -2.13925 0
M  V30 2135 N 208.412 0.89855 1.29475 0
M  V30 2136 C 209.375 0.380272 2.26023 0
M  V30 2137 C 210.375 -0.484891 1.53315 0
M  V30 2138 O 211.565 -0.290108 1.71767 0
M  V30 2139 C 208.697 -0.45651 3.3783 0
M  V30 2140 H 209.89 1.23295 2.73383 0
M  V30 2141 H 207.443 0.676589 1.40897 0
M  V30 2142 H 208.178 -1.32922 2.95808 0
M  V30 2143 H 207.963 0.163393 3.91759 0
M  V30 2144 H 209.453 -0.810466 4.0966 0
M  V30 2145 N 209.89 -1.43072 0.660911 0
M  V30 2146 C 210.82 -2.33497 -0.0122829 0
M  V30 2147 C 211.801 -1.49903 -0.803925 0
M  V30 2148 O 212.986 -1.78546 -0.763864 0
M  V30 2149 C 210.116 -3.33363 -0.973994 0
M  V30 2150 C 209.07 -4.27003 -0.291928 0
M  V30 2151 C 208.396 -5.16967 -1.36562 0
M  V30 2152 C 209.696 -5.15816 0.820462 0
M  V30 2153 H 211.39 -2.90038 0.742873 0
M  V30 2154 H 208.936 -1.39461 0.358688 0
M  V30 2155 H 210.889 -3.95524 -1.45392 0
M  V30 2156 H 209.613 -2.75095 -1.7604 0
M  V30 2157 H 208.272 -3.66217 0.167623 0
M  V30 2158 H 207.92 -4.55034 -2.14366 0
M  V30 2159 H 207.62 -5.80441 -0.914454 0
M  V30 2160 H 209.144 -5.82003 -1.84675 0
M  V30 2161 H 210.558 -5.71742 0.422366 0
M  V30 2162 H 208.955 -5.8805 1.19656 0
M  V30 2163 H 210.025 -4.55045 1.67518 0
M  V30 2164 N 211.368 -0.403325 -1.52352 0
M  V30 2165 C 212.608 0.173946 -2.03659 0
M  V30 2166 C 212.972 1.42869 -1.28267 0
M  V30 2167 O 214.173 2.08403 -1.69769 0
M  V30 2168 C 212.444 0.421478 -3.54906 0
M  V30 2169 S 214.003 0.967027 -4.28012 0
M  V30 2170 H 210.821 0.0477461 -0.709395 0
M  V30 2171 H 213.423 -0.554906 -1.87459 0
M  V30 2172 H 212.127 -0.498616 -4.0736 0
M  V30 2173 H 211.658 1.17837 -3.75337 0
M  V30 2174 H 213.673 2.24812 -4.4235 0
M  V30 2175 N 212.846 1.57033 -0.133567 0
M  V30 2176 C 214.262 1.58035 0.222944 0
M  V30 2177 C 214.462 1.14713 1.6566 0
M  V30 2178 O 213.518 0.841218 2.38075 0
M  V30 2179 C 214.831 3.00691 -0.0236116 0
M  V30 2180 C 216.379 3.12973 0.0411512 0
M  V30 2181 C 216.854 4.57654 -0.177899 0
M  V30 2182 N 218.345 4.63033 -0.124365 0
M  V30 2183 C 219.08 5.72771 -0.268553 0
M  V30 2184 N 218.576 6.91206 -0.46972 0
M  V30 2185 N 220.369 5.61718 -0.2071 0
M  V30 2186 H 212.52 1.8349 -1.06981 0
M  V30 2187 H 214.783 0.848677 -0.422436 0
M  V30 2188 H 214.489 3.36726 -1.0153 0
M  V30 2189 H 214.363 3.70614 0.701808 0
M  V30 2190 H 216.75 2.76787 1.02338 0
M  V30 2191 H 216.831 2.45564 -0.716383 0
M  V30 2192 H 216.475 4.94542 -1.15717 0
M  V30 2193 H 216.405 5.23173 0.599797 0
M  V30 2194 H 218.896 3.7789 0.027011 0
M  V30 2195 H 219.209 7.70693 -0.570212 0
M  V30 2196 H 217.554 6.93156 -0.505876 0
M  V30 2197 H 220.745 4.68072 -0.0507986 0
M  V30 2198 H 220.918 6.47195 -0.322909 0
M  V30 2199 N 214.325 -0.140222 1.56975 0
M  V30 2200 C 215.55 -0.870414 1.88251 0
M  V30 2201 C 215.975 -1.73637 0.723312 0
M  V30 2202 O 215.333 -1.78329 -0.32689 0
M  V30 2203 C 215.381 -1.69737 3.18154 0
M  V30 2204 O 214.485 -2.80229 3.02565 0
M  V30 2205 H 213.826 -0.242025 0.61832 0
M  V30 2206 H 216.356 -0.128999 2.04193 0
M  V30 2207 H 216.366 -2.09099 3.50345 0
M  V30 2208 H 215.041 -1.06152 4.02125 0
M  V30 2209 H 213.618 -2.44224 2.81796 0
M  V30 2210 N 215.803 -1.52179 -0.40978 0
M  V30 2211 C 217.052 -1.65434 -1.15388 0
M  V30 2212 C 217.365 -0.390056 -1.91671 0
M  V30 2213 O 218.571 -0.402399 -2.68501 0
M  V30 2214 C 217.027 -2.92279 -2.10003 0
M  V30 2215 C 216.635 -4.25813 -1.39239 0
M  V30 2216 C 218.379 -3.14897 -2.84675 0
M  V30 2217 C 216.286 -5.43782 -2.32498 0
M  V30 2218 H 215.216 -0.616267 -0.434432 0
M  V30 2219 H 217.867 -1.78666 -0.418401 0
M  V30 2220 H 216.249 -2.72744 -2.871 0
M  V30 2221 H 217.423 -4.55828 -0.675099 0
M  V30 2222 H 215.738 -4.09292 -0.766097 0
M  V30 2223 H 218.335 -4.0021 -3.54593 0
M  V30 2224 H 218.678 -2.29103 -3.47588 0
M  V30 2225 H 219.211 -3.34901 -2.14677 0
M  V30 2226 H 215.95 -6.3192 -1.74233 0
M  V30 2227 H 215.47 -5.18106 -3.02201 0
M  V30 2228 H 217.149 -5.76834 -2.93038 0
M  V30 2229 N 217.281 0.66697 -1.42791 0
M  V30 2230 C 218.697 0.981027 -1.25889 0
M  V30 2231 C 218.897 2.00793 -0.168695 0
M  V30 2232 O 217.953 2.48321 0.45747 0
M  V30 2233 C 219.266 1.47838 -2.61848 0
M  V30 2234 C 220.814 1.59575 -2.69267 0
M  V30 2235 C 221.289 2.12704 -4.05612 0
M  V30 2236 N 222.78 2.20026 -4.07606 0
M  V30 2237 C 223.515 2.62227 -5.09926 0
M  V30 2238 N 223.011 3.03824 -6.22626 0
M  V30 2239 N 224.804 2.62045 -4.97281 0
M  V30 2240 H 216.955 -0.0127891 -2.12396 0
M  V30 2241 H 219.218 0.0568258 -0.946295 0
M  V30 2242 H 218.924 0.798299 -3.4252 0
M  V30 2243 H 218.798 2.45579 -2.86305 0
M  V30 2244 H 221.185 2.26687 -1.88936 0
M  V30 2245 H 221.266 0.60302 -2.48591 0
M  V30 2246 H 220.91 1.46198 -4.86404 0
M  V30 2247 H 220.84 3.12782 -4.23645 0
M  V30 2248 H 223.331 1.90708 -3.2625 0
M  V30 2249 H 223.644 3.34734 -6.96544 0
M  V30 2250 H 221.989 3.01662 -6.26119 0
M  V30 2251 H 225.18 2.28916 -4.08308 0
M  V30 2252 H 225.353 2.94613 -5.77154 0
M  V30 2253 N 218.759 1.29093 0.90403 0
M  V30 2254 C 219.984 1.19809 1.69294 0
M  V30 2255 C 220.409 -0.238481 1.86582 0
M  V30 2256 O 219.767 -1.1723 1.383 0
M  V30 2257 C 219.815 1.91202 3.05736 0
M  V30 2258 O 218.919 1.22611 3.93752 0
M  V30 2259 H 218.26 0.415385 0.518027 0
M  V30 2260 H 220.79 1.70586 1.12967 0
M  V30 2261 H 220.8 1.99487 3.55906 0
M  V30 2262 H 219.475 2.95692 2.92471 0
M  V30 2263 H 218.052 1.22554 3.52186 0
M  V30 2264 N 220.237 -1.11381 1.11499 0
M  V30 2265 C 221.462 -1.87475 0.887019 0
M  V30 2266 C 221.887 -1.79639 -0.557796 0
M  V30 2267 O 221.245 -1.15924 -1.39396 0
M  V30 2268 C 221.293 -3.34213 1.35403 0
M  V30 2269 O 220.397 -4.0903 0.526146 0
M  V30 2270 H 219.738 -0.582099 0.319463 0
M  V30 2271 H 222.268 -1.40785 1.48461 0
M  V30 2272 H 222.278 -3.8506 1.34881 0
M  V30 2273 H 220.953 -3.39232 2.40612 0
M  V30 2274 H 219.53 -3.68082 0.597522 0
M  V30 2275 N 221.715 -0.905404 -1.28997 0
M  V30 2276 C 222.662 -0.385892 -2.27551 0
M  V30 2277 C 223.632 0.535113 -1.57244 0
M  V30 2278 O 224.817 0.459119 -1.85194 0
M  V30 2279 C 221.957 0.375461 -3.43051 0
M  V30 2280 C 221.07 -0.577092 -4.28128 0
M  V30 2281 C 220.205 0.201879 -5.30816 0
M  V30 2282 C 219.244 -0.744829 -6.07551 0
M  V30 2283 N 218.381 9.42587e-05 -7.021 0
M  V30 2284 H 223.221 -1.23139 -2.71368 0
M  V30 2285 H 220.758 -0.618542 -1.33463 0
M  V30 2286 H 222.716 0.832992 -4.088 0
M  V30 2287 H 221.346 1.18537 -3.00248 0
M  V30 2288 H 220.398 -1.15315 -3.62501 0
M  V30 2289 H 221.71 -1.30152 -4.8152 0
M  V30 2290 H 220.864 0.720351 -6.02408 0
M  V30 2291 H 219.603 0.959413 -4.7817 0
M  V30 2292 H 218.608 -1.27475 -5.34818 0
M  V30 2293 H 219.833 -1.50178 -6.62286 0
M  V30 2294 H 217.779 0.739791 -6.51815 0
M  V30 2295 H 217.696 -0.664321 -7.53076 0
M  V30 2296 H 218.964 0.498644 -7.77903 0
M  V30 2297 N 223.193 1.4272 -0.668489 0
M  V30 2298 C 224.123 2.335 -0.000100175 0
M  V30 2299 C 225.104 1.50328 0.795964 0
M  V30 2300 O 226.289 1.78949 0.754385 0
M  V30 2301 C 223.419 3.33874 0.956302 0
M  V30 2302 C 222.373 4.27152 0.269278 0
M  V30 2303 C 221.699 5.17684 1.33818 0
M  V30 2304 C 222.999 5.15373 -0.847805 0
M  V30 2305 H 224.693 2.89639 -0.758244 0
M  V30 2306 H 222.239 1.39269 -0.366079 0
M  V30 2307 H 224.192 3.9629 1.43292 0
M  V30 2308 H 222.916 2.76025 1.74579 0
M  V30 2309 H 221.575 3.66123 -0.187042 0
M  V30 2310 H 221.223 4.56165 2.1195 0
M  V30 2311 H 220.923 5.80918 0.883659 0
M  V30 2312 H 222.447 5.82974 1.81586 0
M  V30 2313 H 223.861 5.7151 -0.452681 0
M  V30 2314 H 222.258 5.87407 -1.22773 0
M  V30 2315 H 223.328 4.5415 -1.69929 0
M  V30 2316 N 224.671 0.411399 1.52136 0
M  V30 2317 C 225.896 -0.165538 2.06738 0
M  V30 2318 C 226.321 -1.379 1.27926 0
M  V30 2319 O 225.679 -1.78628 0.310114 0
M  V30 2320 C 225.727 -0.492124 3.57226 0
M  V30 2321 O 224.831 -1.58276 3.80818 0
M  V30 2322 H 224.172 -0.0132132 0.663869 0
M  V30 2323 H 226.702 0.585253 1.96051 0
M  V30 2324 H 226.712 -0.750104 4.01045 0
M  V30 2325 H 225.387 0.394922 4.14021 0
M  V30 2326 H 223.964 -1.31677 3.48877 0
M  V30 2327 N 226.149 -1.5696 0.141893 0
M  V30 2328 C 227.059 -2.20066 -0.812905 0
M  V30 2329 C 228.075 -1.18344 -1.27557 0
M  V30 2330 O 229.251 -1.50902 -1.33381 0
M  V30 2331 C 226.316 -2.80583 -2.03652 0
M  V30 2332 C 225.377 -3.97414 -1.62359 0
M  V30 2333 C 224.61 -4.55036 -2.78887 0
M  V30 2334 O 224.833 -4.11538 -3.94959 0
M  V30 2335 O 223.767 -5.45376 -2.54653 0
M  V30 2336 H 227.593 -3.02157 -0.305746 0
M  V30 2337 H 225.178 -1.49159 -0.0848799 0
M  V30 2338 H 227.06 -3.19067 -2.75272 0
M  V30 2339 H 225.735 -2.01508 -2.5333 0
M  V30 2340 H 224.642 -3.63656 -0.877775 0
M  V30 2341 H 225.975 -4.77994 -1.17401 0
M  V30 2342 N 227.627 0.131896 -1.57047 0
M  V30 2343 C 228.575 1.18146 -2.0036 0
M  V30 2344 C 229.569 1.43614 -0.898406 0
M  V30 2345 O 230.775 1.43729 -1.08361 0
M  V30 2346 H 227.15 0.398042 -0.638018 0
M  V30 2347 H 229.121 0.789564 -2.87765 0
M  V30 2348 C 227.87 2.50341 -2.41298 0
M  V30 2349 H 227.193 2.31578 -3.25902 0
M  V30 2350 H 228.633 3.22371 -2.75414 0
M  V30 2351 C 227.092 3.11984 -1.27153 0
M  V30 2352 O 227.622 3.97484 -0.580459 0
M  V30 2353 N 225.828 2.71662 -1.03189 0
M  V30 2354 H 225.375 2.02231 -1.59564 0
M  V30 2355 H 225.333 3.13238 -0.270077 0
M  V30 2356 N 229.106 1.52395 0.401703 0
M  V30 2357 C 230.334 1.70676 1.16949 0
M  V30 2358 C 230.749 0.419503 1.8408 0
M  V30 2359 O 230.106 -0.605061 1.72178 0
M  V30 2360 C 230.157 2.84753 2.22706 0
M  V30 2361 O 229.878 4.08495 1.58314 0
M  V30 2362 C 231.379 3.14608 3.12309 0
M  V30 2363 H 228.599 0.571787 0.351142 0
M  V30 2364 H 231.143 1.98987 0.471652 0
M  V30 2365 H 229.298 2.58941 2.88147 0
M  V30 2366 H 229.712 4.72117 2.28485 0
M  V30 2367 H 231.186 3.97923 3.82572 0
M  V30 2368 H 231.663 2.28464 3.75101 0
M  V30 2369 H 232.269 3.42212 2.52529 0
M  V30 2370 N 230.584 -0.659388 1.43143 0
M  V30 2371 C 231.83 -1.42145 1.44647 0
M  V30 2372 C 232.163 -1.9408 0.0681907 0
M  V30 2373 O 231.438 -1.71899 -0.910007 0
M  V30 2374 C 231.721 -2.60735 2.48373 0
M  V30 2375 C 231.574 -2.14332 3.95451 0
M  V30 2376 C 232.893 -3.62951 2.48906 0
M  V30 2377 H 230.012 -0.51552 0.526696 0
M  V30 2378 H 232.654 -0.748069 1.74654 0
M  V30 2379 H 230.804 -3.18184 2.22916 0
M  V30 2380 H 232.476 -1.61932 4.31944 0
M  V30 2381 H 230.719 -1.4576 4.08578 0
M  V30 2382 H 231.39 -2.99583 4.63631 0
M  V30 2383 H 233.866 -3.1525 2.71582 0
M  V30 2384 H 232.742 -4.43487 3.23435 0
M  V30 2385 H 233.003 -4.15126 1.52061 0
M  V30 2386 N 232.062 -1.29571 -0.897171 0
M  V30 2387 C 233.311 -1.1706 -1.64256 0
M  V30 2388 C 233.624 0.276476 -1.93636 0
M  V30 2389 O 234.83 0.52294 -2.66416 0
M  V30 2390 C 233.286 -2.0475 -2.95982 0
M  V30 2391 C 232.894 -3.54295 -2.74187 0
M  V30 2392 C 234.638 -2.0097 -3.73914 0
M  V30 2393 C 232.545 -4.34081 -4.01656 0
M  V30 2394 H 231.475 -0.43452 -0.616205 0
M  V30 2395 H 234.126 -1.54229 -0.994268 0
M  V30 2396 H 232.508 -1.60452 -3.62038 0
M  V30 2397 H 233.682 -4.06662 -2.1671 0
M  V30 2398 H 231.997 -3.59773 -2.09648 0
M  V30 2399 H 234.594 -2.57838 -4.68427 0
M  V30 2400 H 234.937 -0.990273 -4.0435 0
M  V30 2401 H 235.47 -2.43325 -3.14703 0
M  V30 2402 H 232.209 -5.36671 -3.76384 0
M  V30 2403 H 231.729 -3.86483 -4.58684 0
M  V30 2404 H 233.408 -4.44877 -4.69781 0
M  V30 2405 N 233.54 1.10788 -1.12088 0
M  V30 2406 C 234.786 1.82942 -0.875226 0
M  V30 2407 C 235.119 1.84779 0.597538 0
M  V30 2408 O 234.394 1.30578 1.44152 0
M  V30 2409 C 234.677 3.29789 -1.44606 0
M  V30 2410 C 234.53 3.36307 -2.98693 0
M  V30 2411 C 235.849 4.26064 -1.10261 0
M  V30 2412 H 232.968 0.664195 -0.319397 0
M  V30 2413 H 235.61 1.29867 -1.38689 0
M  V30 2414 H 233.76 3.75118 -1.01089 0
M  V30 2415 H 235.432 2.99487 -3.50864 0
M  V30 2416 H 233.675 2.76318 -3.34411 0
M  V30 2417 H 234.346 4.39694 -3.33726 0
M  V30 2418 H 236.822 3.88951 -1.4784 0
M  V30 2419 H 235.698 5.27183 -1.52869 0
M  V30 2420 H 235.959 4.42098 -0.0142953 0
M  V30 2421 N 235.018 0.912232 1.28515 0
M  V30 2422 C 236.266 0.543523 1.94654 0
M  V30 2423 C 236.587 -0.9155 1.72173 0
M  V30 2424 O 235.857 -1.64708 1.06058 0
M  V30 2425 H 234.437 0.198017 0.720277 0
M  V30 2426 H 237.099 1.16126 1.56527 0
M  V30 2427 H 236.195 0.736684 3.03281 0
M  V30 2428 N 236.496 -1.42363 0.676048 0
M  V30 2429 C 237.742 -2.0182 0.199125 0
M  V30 2430 C 238.075 -1.53339 -1.19168 0
M  V30 2431 O 237.35 -0.736124 -1.80032 0
M  V30 2432 C 237.633 -3.59331 0.235144 0
M  V30 2433 C 237.486 -4.17989 1.66149 0
M  V30 2434 C 238.805 -4.3813 -0.41595 0
M  V30 2435 H 235.924 -0.733293 0.0738311 0
M  V30 2436 H 238.566 -1.69368 0.86107 0
M  V30 2437 H 236.716 -3.87109 -0.328487 0
M  V30 2438 H 238.388 -4.0116 2.27747 0
M  V30 2439 H 236.631 -3.7377 2.20178 0
M  V30 2440 H 237.302 -5.27126 1.63837 0
M  V30 2441 H 239.778 -4.16051 0.0638529 0
M  V30 2442 H 238.654 -5.47717 -0.360115 0
M  V30 2443 H 238.915 -4.16101 -1.49373 0
M  V30 2444 N 237.974 -0.419461 -1.51915 0
M  V30 2445 C 239.22 0.153166 -2.02221 0
M  V30 2446 C 239.553 1.43907 -1.30401 0
M  V30 2447 O 238.828 1.90055 -0.413438 0
M  V30 2448 C 239.111 0.390291 -3.57979 0
M  V30 2449 C 238.964 -0.913014 -4.40436 0
M  V30 2450 C 240.283 1.16794 -4.2432 0
M  V30 2451 H 237.402 0.0541924 -0.735005 0
M  V30 2452 H 240.044 -0.554955 -1.81715 0
M  V30 2453 H 238.194 0.993491 -3.75582 0
M  V30 2454 H 239.866 -1.54882 -4.34522 0
M  V30 2455 H 238.109 -1.52168 -4.06236 0
M  V30 2456 H 238.78 -0.701361 -5.47526 0
M  V30 2457 H 241.256 0.657161 -4.10878 0
M  V30 2458 H 240.132 1.3026 -5.3322 0
M  V30 2459 H 240.393 2.19132 -3.83971 0
M  V30 2460 N 239.452 1.56882 -0.150215 0
M  V30 2461 C 240.868 1.58263 0.20617 0
M  V30 2462 C 241.068 1.16464 1.64434 0
M  V30 2463 O 240.124 0.866422 2.3717 0
M  V30 2464 C 241.437 3.00649 -0.0555025 0
M  V30 2465 C 242.985 3.12999 0.00795388 0
M  V30 2466 C 243.46 4.5744 -0.226429 0
M  V30 2467 N 244.951 4.62875 -0.173469 0
M  V30 2468 C 245.686 5.72454 -0.329288 0
M  V30 2469 N 245.182 6.90669 -0.543005 0
M  V30 2470 N 246.975 5.61467 -0.266666 0
M  V30 2471 H 239.126 1.82345 -1.08922 0
M  V30 2472 H 241.389 0.844149 -0.431413 0
M  V30 2473 H 241.095 3.3563 -1.05096 0
M  V30 2474 H 240.969 3.71337 0.66246 0
M  V30 2475 H 243.356 2.77857 0.993966 0
M  V30 2476 H 243.437 2.4479 -0.742388 0
M  V30 2477 H 243.081 4.93287 -1.20956 0
M  V30 2478 H 243.011 5.2378 0.544274 0
M  V30 2479 H 245.502 3.77898 -0.0130709 0
M  V30 2480 H 245.815 7.70045 -0.651922 0
M  V30 2481 H 244.16 6.92581 -0.579366 0
M  V30 2482 H 247.351 4.67992 -0.100441 0
M  V30 2483 H 247.524 6.46816 -0.391535 0
M  V30 2484 N 240.93 -0.123565 1.57115 0
M  V30 2485 C 242.346 -0.476961 1.52306 0
M  V30 2486 C 242.546 -1.82109 0.86248 0
M  V30 2487 O 241.602 -2.48586 0.442884 0
M  V30 2488 C 242.915 -0.465661 2.97073 0
M  V30 2489 C 244.463 -0.549534 3.08138 0
M  V30 2490 C 244.938 -0.568669 4.54456 0
M  V30 2491 N 246.429 -0.630237 4.58892 0
M  V30 2492 C 247.164 -0.666415 5.69514 0
M  V30 2493 N 246.66 -0.660514 6.89644 0
M  V30 2494 N 248.453 -0.709077 5.5761 0
M  V30 2495 H 240.604 0.757198 1.98445 0
M  V30 2496 H 242.867 0.278808 0.906074 0
M  V30 2497 H 242.573 0.454232 3.48754 0
M  V30 2498 H 242.447 -1.29513 3.54269 0
M  V30 2499 H 244.834 -1.45985 2.56461 0
M  V30 2500 H 244.915 0.307532 2.53945 0
M  V30 2501 H 244.559 0.337581 5.06777 0
M  V30 2502 H 244.489 -1.44256 5.06456 0
M  V30 2503 H 246.98 -0.641146 3.72421 0
M  V30 2504 H 247.293 -0.690616 7.69708 0
M  V30 2505 H 245.638 -0.628012 6.92157 0
M  V30 2506 H 248.829 -0.711019 4.62668 0
M  V30 2507 H 249.002 -0.733804 6.43832 0
M  V30 2508 N 242.408 -1.52605 -0.393616 0
M  V30 2509 C 243.654 -1.67672 -1.14079 0
M  V30 2510 C 243.987 -0.413121 -1.89755 0
M  V30 2511 O 243.262 0.588952 -1.85369 0
M  V30 2512 C 243.545 -2.9088 -2.12276 0
M  V30 2513 C 243.398 -4.27329 -1.40394 0
M  V30 2514 C 244.717 -3.09628 -3.12759 0
M  V30 2515 H 241.836 -0.610168 -0.413356 0
M  V30 2516 H 244.478 -1.85193 -0.424696 0
M  V30 2517 H 242.628 -2.76073 -2.73342 0
M  V30 2518 H 244.3 -4.53894 -0.82327 0
M  V30 2519 H 242.543 -4.2802 -0.705801 0
M  V30 2520 H 243.214 -5.09615 -2.12123 0
M  V30 2521 H 245.69 -3.23436 -2.61779 0
M  V30 2522 H 244.566 -3.97322 -3.78717 0
M  V30 2523 H 244.827 -2.23637 -3.81365 0
M  V30 2524 N 243.887 0.651787 -1.4349 0
M  V30 2525 C 245.164 1.40909 -1.35661 0
M  V30 2526 C 245.544 2.11099 -0.00511733 0
M  V30 2527 O 244.892 2.04892 1.0115 0
M  V30 2528 C 245.102 2.3926 -2.54078 0
M  V30 2529 C 246.45 3.03217 -2.97228 0
M  V30 2530 O 247.474 2.49588 -2.54135 0
M  V30 2531 O 246.333 4.00455 -3.71885 0
M  V30 2532 H 243.427 0.629625 -0.536191 0
M  V30 2533 H 245.973 0.678575 -1.55542 0
M  V30 2534 H 244.745 1.86352 -3.44076 0
M  V30 2535 H 244.368 3.1976 -2.36303 0
M  V30 2536 N 245.365 1.30045 0.890287 0
M  V30 2537 C 246.781 1.08261 1.17268 0
M  V30 2538 C 246.981 -0.160063 2.00863 0
M  V30 2539 O 246.037 -0.855181 2.37577 0
M  V30 2540 C 247.35 2.34323 1.8845 0
M  V30 2541 C 248.898 2.39735 2.01237 0
M  V30 2542 C 249.373 3.65625 2.7583 0
M  V30 2543 N 250.864 3.66402 2.83379 0
M  V30 2544 C 251.599 4.60498 3.41657 0
M  V30 2545 N 251.095 5.64933 4.01026 0
M  V30 2546 N 252.888 4.48051 3.39421 0
M  V30 2547 H 245.039 2.09777 0.332762 0
M  V30 2548 H 247.302 0.92446 0.209948 0
M  V30 2549 H 247.008 3.2498 1.34465 0
M  V30 2550 H 246.882 2.4256 2.88867 0
M  V30 2551 H 249.269 1.4956 2.54393 0
M  V30 2552 H 249.35 2.35476 0.999232 0
M  V30 2553 H 248.994 4.56156 2.23347 0
M  V30 2554 H 248.924 3.67144 3.77509 0
M  V30 2555 H 251.415 2.90896 2.41222 0
M  V30 2556 H 251.728 6.32841 4.43545 0
M  V30 2557 H 250.073 5.68732 3.99461 0
M  V30 2558 H 253.264 3.65649 2.92264 0
M  V30 2559 H 253.437 5.21565 3.84544 0
M  V30 2560 N 246.843 -1.10192 1.12674 0
M  V30 2561 C 247.753 -2.20172 0.810026 0
M  V30 2562 C 248.769 -1.72821 -0.202188 0
M  V30 2563 O 249.945 -2.01369 -0.0351691 0
M  V30 2564 C 247.01 -3.45631 0.272007 0
M  V30 2565 C 246.071 -4.07704 1.34447 0
M  V30 2566 C 245.304 -5.27175 0.832029 0
M  V30 2567 O 245.527 -5.69425 -0.333284 0
M  V30 2568 O 244.461 -5.80168 1.60277 0
M  V30 2569 H 248.287 -2.49701 1.72867 0
M  V30 2570 H 245.872 -1.18977 0.903597 0
M  V30 2571 H 247.754 -4.21394 -0.0230219 0
M  V30 2572 H 246.429 -3.17723 -0.619164 0
M  V30 2573 H 245.336 -3.33614 1.6927 0
M  V30 2574 H 246.669 -4.3982 2.2095 0
M  V30 2575 N 248.321 -0.919034 -1.28029 0
M  V30 2576 C 249.231 -0.416756 -2.30869 0
M  V30 2577 C 250.247 0.498235 -1.66714 0
M  V30 2578 O 251.423 0.383144 -1.97722 0
M  V30 2579 C 248.488 0.330274 -3.45123 0
M  V30 2580 C 247.549 -0.618578 -4.2482 0
M  V30 2581 C 246.782 0.0928959 -5.33619 0
M  V30 2582 O 247.005 1.31375 -5.55065 0
M  V30 2583 O 245.939 -0.574499 -5.99152 0
M  V30 2584 H 249.765 -1.27043 -2.75851 0
M  V30 2585 H 247.35 -0.684052 -1.3282 0
M  V30 2586 H 249.232 0.751972 -4.14636 0
M  V30 2587 H 247.907 1.1597 -3.02213 0
M  V30 2588 H 246.814 -1.08978 -3.57875 0
M  V30 2589 H 248.147 -1.41497 -4.71423 0
M  V30 2590 N 249.799 1.42003 -0.683588 0
M  V30 2591 C 250.729 2.33487 -0.024866 0
M  V30 2592 C 251.71 1.51163 0.779975 0
M  V30 2593 O 252.895 1.79739 0.735362 0
M  V30 2594 C 250.025 3.3487 0.920836 0
M  V30 2595 C 248.979 4.27414 0.223958 0
M  V30 2596 C 248.305 5.19074 1.2832 0
M  V30 2597 C 249.605 5.14445 -0.90242 0
M  V30 2598 H 251.299 2.88819 -0.788921 0
M  V30 2599 H 248.845 1.38873 -0.38083 0
M  V30 2600 H 250.798 3.97787 1.39081 0
M  V30 2601 H 249.522 2.77861 1.71642 0
M  V30 2602 H 248.181 3.65904 -0.225864 0
M  V30 2603 H 247.829 4.58387 2.071 0
M  V30 2604 H 247.529 5.81822 0.821995 0
M  V30 2605 H 249.053 5.84867 1.75392 0
M  V30 2606 H 250.467 5.70998 -0.513272 0
M  V30 2607 H 248.864 5.86072 -1.28997 0
M  V30 2608 H 249.934 4.52322 -1.74737 0
M  V30 2609 N 251.277 0.427512 1.51691 0
M  V30 2610 C 252.502 -0.143601 2.06902 0
M  V30 2611 C 252.927 -1.36536 1.29382 0
M  V30 2612 O 252.285 -1.78289 0.329043 0
M  V30 2613 C 252.333 -0.454207 3.57728 0
M  V30 2614 O 251.437 -1.54228 3.82475 0
M  V30 2615 H 250.778 -0.00617128 0.663971 0
M  V30 2616 H 253.308 0.606014 1.95419 0
M  V30 2617 H 253.318 -0.707525 4.01818 0
M  V30 2618 H 251.993 0.438812 4.13579 0
M  V30 2619 H 250.57 -1.2797 3.50254 0
M  V30 2620 N 252.755 -1.56801 0.158532 0
M  V30 2621 C 254.001 -1.96781 -0.490405 0
M  V30 2622 C 254.334 -1.04397 -1.63753 0
M  V30 2623 O 253.609 -0.0885805 -1.94298 0
M  V30 2624 C 253.892 -3.4635 -0.985594 0
M  V30 2625 C 253.745 -4.49512 0.160824 0
M  V30 2626 C 255.064 -3.98697 -1.86355 0
M  V30 2627 H 252.183 -0.715482 -0.176788 0
M  V30 2628 H 254.825 -1.88451 0.242088 0
M  V30 2629 H 252.975 -3.53579 -1.60978 0
M  V30 2630 H 254.647 -4.54353 0.797537 0
M  V30 2631 H 252.89 -4.26013 0.818256 0
M  V30 2632 H 253.561 -5.51531 -0.227569 0
M  V30 2633 H 256.037 -3.94019 -1.33746 0
M  V30 2634 H 254.913 -5.03792 -2.17909 0
M  V30 2635 H 255.174 -3.41744 -2.8047 0
M  V30 2636 N 254.233 0.115231 -1.57178 0
M  V30 2637 C 255.166 1.17166 -1.95825 0
M  V30 2638 C 256.144 1.39912 -0.828463 0
M  V30 2639 O 257.328 1.54004 -1.08697 0
M  V30 2640 C 254.455 2.52478 -2.25771 0
M  V30 2641 C 253.501 2.46136 -3.48309 0
M  V30 2642 S 254.334 1.89736 -5.0076 0
M  V30 2643 C 255.49 3.26713 -5.33863 0
M  V30 2644 H 255.723 0.842103 -2.85124 0
M  V30 2645 H 253.256 0.322136 -1.51002 0
M  V30 2646 H 255.214 3.30332 -2.43702 0
M  V30 2647 H 253.875 2.82609 -1.37079 0
M  V30 2648 H 253.068 3.45819 -3.66641 0
M  V30 2649 H 252.67 1.76404 -3.29784 0
M  V30 2650 H 254.962 4.22935 -5.29275 0
M  V30 2651 H 255.905 3.13205 -6.35065 0
M  V30 2652 H 256.313 3.25316 -4.61335 0
M  V30 2653 N 255.711 1.52812 0.385517 0
M  V30 2654 C 257.122 1.5993 0.963293 0
M  V30 2655 C 257.473 0.454302 1.90868 0
M  V30 2656 O 256.598 -0.422132 2.12243 0
M  V30 2657 C 257.193 2.89871 1.75387 0
M  V30 2658 C 255.752 2.99389 2.28129 0
M  V30 2659 C 254.899 2.55071 1.08783 0
M  V30 2660 H 257.85 1.5784 0.164948 0
M  V30 2661 H 257.871 2.76553 2.61341 0
M  V30 2662 H 257.383 3.73186 1.06554 0
M  V30 2663 H 255.484 2.20619 3.00263 0
M  V30 2664 H 255.597 4.04096 2.57377 0
M  V30 2665 H 253.961 2.09473 1.4489 0
M  V30 2666 H 254.744 3.40785 0.414807 0
M  V30 2667 N 257.189 -0.644168 1.43834 0
M  V30 2668 C 258.436 -1.40395 1.4593 0
M  V30 2669 C 258.764 -1.94305 0.0869658 0
M  V30 2670 O 258.019 -1.73288 -0.909378 0
M  V30 2671 C 258.318 -2.59615 2.45631 0
M  V30 2672 C 257.984 -2.2407 3.91284 0
M  V30 2673 C 256.646 -2.14089 4.30952 0
M  V30 2674 C 258.998 -1.95775 4.83034 0
M  V30 2675 C 256.326 -1.73981 5.6031 0
M  V30 2676 C 258.678 -1.57163 6.12766 0
M  V30 2677 C 257.342 -1.45713 6.51402 0
M  V30 2678 H 256.612 -0.513741 0.533995 0
M  V30 2679 H 259.259 -0.731724 1.76969 0
M  V30 2680 H 257.564 -3.32011 2.08028 0
M  V30 2681 H 259.261 -3.17834 2.44504 0
M  V30 2682 H 255.851 -2.32753 3.59895 0
M  V30 2683 H 260.035 -2.02403 4.53152 0
M  V30 2684 H 255.291 -1.63709 5.89075 0
M  V30 2685 H 259.465 -1.34303 6.83327 0
M  V30 2686 H 257.092 -1.14406 7.51542 0
M  V30 2687 N 258.668 -1.30515 -0.883378 0
M  V30 2688 C 259.917 -1.18795 -1.63005 0
M  V30 2689 C 260.23 0.255923 -1.93919 0
M  V30 2690 O 261.436 0.494654 -2.66956 0
M  V30 2691 C 259.892 -2.07878 -2.93794 0
M  V30 2692 C 259.5 -3.57184 -2.70414 0
M  V30 2693 C 261.244 -2.04924 -3.71761 0
M  V30 2694 C 259.151 -4.38317 -3.97029 0
M  V30 2695 H 258.081 -0.441031 -0.611562 0
M  V30 2696 H 260.732 -1.55275 -0.977854 0
M  V30 2697 H 259.114 -1.64283 -3.60315 0
M  V30 2698 H 260.288 -4.08937 -2.12384 0
M  V30 2699 H 258.603 -3.61976 -2.0582 0
M  V30 2700 H 261.2 -2.62792 -4.65665 0
M  V30 2701 H 261.543 -1.0331 -4.03277 0
M  V30 2702 H 262.076 -2.46649 -3.12104 0
M  V30 2703 H 258.815 -5.40632 -3.70671 0
M  V30 2704 H 258.335 -3.91326 -4.54559 0
M  V30 2705 H 260.014 -4.49834 -4.65036 0
M  V30 2706 N 260.146 1.09593 -1.13257 0
M  V30 2707 C 261.371 1.8604 -0.916732 0
M  V30 2708 C 261.796 1.80504 0.529146 0
M  V30 2709 O 261.154 1.18127 1.37534 0
M  V30 2710 C 261.202 3.32017 -1.40703 0
M  V30 2711 O 260.306 4.08141 -0.591153 0
M  V30 2712 H 259.647 0.576943 -0.328683 0
M  V30 2713 H 262.177 1.38405 -1.50682 0
M  V30 2714 H 262.187 3.82865 -1.4099 0
M  V30 2715 H 260.862 3.35361 -2.45979 0
M  V30 2716 H 259.439 3.67084 -0.656005 0
M  V30 2717 N 261.624 0.925811 1.2754 0
M  V30 2718 C 262.587 0.428129 2.25166 0
M  V30 2719 C 263.587 -0.452261 1.54309 0
M  V30 2720 O 264.777 -0.253608 1.72344 0
M  V30 2721 C 261.909 -0.384749 3.38722 0
M  V30 2722 H 263.102 1.29066 2.70706 0
M  V30 2723 H 260.655 0.706323 1.3943 0
M  V30 2724 H 261.39 -1.26618 2.98561 0
M  V30 2725 H 261.175 0.246454 3.91325 0
M  V30 2726 H 262.665 -0.723389 4.11287 0
M  V30 2727 N 263.102 -1.41638 0.69111 0
M  V30 2728 C 264.35 -2.00902 0.219758 0
M  V30 2729 C 264.671 -1.54994 -1.18329 0
M  V30 2730 O 263.941 -0.778628 -1.79762 0
M  V30 2731 H 262.521 -0.74289 0.0782558 0
M  V30 2732 H 265.183 -1.73327 0.891271 0
M  V30 2733 H 264.279 -3.11224 0.233708 0
M  V30 2734 N 264.58 -0.43555 -1.51462 0
M  V30 2735 C 265.827 0.131514 -2.02072 0
M  V30 2736 C 266.155 1.42868 -1.31981 0
M  V30 2737 O 265.41 1.91076 -0.422883 0
M  V30 2738 C 265.709 0.39942 -3.55161 0
M  V30 2739 C 265.375 -0.81172 -4.43533 0
M  V30 2740 C 264.037 -1.14387 -4.67407 0
M  V30 2741 C 266.389 -1.61976 -4.95392 0
M  V30 2742 C 263.717 -2.28477 -5.40384 0
M  V30 2743 C 266.069 -2.75164 -5.6962 0
M  V30 2744 C 264.733 -3.08835 -5.91758 0
M  V30 2745 H 264.003 0.0481244 -0.739436 0
M  V30 2746 H 266.65 -0.58238 -1.8243 0
M  V30 2747 H 264.955 1.19519 -3.73125 0
M  V30 2748 H 266.652 0.85157 -3.91854 0
M  V30 2749 H 263.242 -0.542898 -4.25148 0
M  V30 2750 H 267.426 -1.37637 -4.76833 0
M  V30 2751 H 262.682 -2.5488 -5.55739 0
M  V30 2752 H 266.856 -3.38147 -6.08793 0
M  V30 2753 H 264.483 -3.97353 -6.48086 0
M  V30 2754 N 266.058 1.56714 -0.166846 0
M  V30 2755 C 267.286 2.0112 0.485644 0
M  V30 2756 C 267.701 1.04705 1.57106 0
M  V30 2757 O 267.058 0.0471923 1.82439 0
M  V30 2758 C 267.109 3.45361 1.06808 0
M  V30 2759 O 266.83 4.38092 0.0259995 0
M  V30 2760 C 268.331 4.05145 1.79924 0
M  V30 2761 H 265.551 0.65931 0.124704 0
M  V30 2762 H 268.095 2.02746 -0.267262 0
M  V30 2763 H 266.25 3.44524 1.7715 0
M  V30 2764 H 266.664 5.22519 0.455398 0
M  V30 2765 H 268.138 5.08009 2.15942 0
M  V30 2766 H 268.615 3.46982 2.69258 0
M  V30 2767 H 269.221 4.09672 1.14234 0
M  V30 2768 N 267.536 -0.106894 1.57237 0
M  V30 2769 C 268.952 -0.46078 1.52804 0
M  V30 2770 C 269.152 -1.81184 0.881746 0
M  V30 2771 O 268.208 -2.48102 0.469224 0
M  V30 2772 C 269.521 -0.434127 2.9755 0
M  V30 2773 C 271.069 -0.516821 3.08704 0
M  V30 2774 C 271.544 -0.520436 4.55033 0
M  V30 2775 N 273.035 -0.58153 4.59535 0
M  V30 2776 C 273.77 -0.605973 5.70189 0
M  V30 2777 N 273.266 -0.587331 6.90306 0
M  V30 2778 N 275.059 -0.649895 5.5833 0
M  V30 2779 H 267.21 0.778203 1.9763 0
M  V30 2780 H 269.473 0.288403 0.903066 0
M  V30 2781 H 269.179 0.491197 3.48253 0
M  V30 2782 H 269.053 -1.25748 3.55622 0
M  V30 2783 H 271.44 -1.43256 2.57995 0
M  V30 2784 H 271.521 0.334449 2.53604 0
M  V30 2785 H 271.165 0.391313 5.0639 0
M  V30 2786 H 271.095 -1.38876 5.07958 0
M  V30 2787 H 273.586 -0.60161 3.73081 0
M  V30 2788 H 273.899 -0.60894 7.70397 0
M  V30 2789 H 272.244 -0.554564 6.92784 0
M  V30 2790 H 275.435 -0.661907 4.63397 0
M  V30 2791 H 275.608 -0.665476 6.44574 0
M  V30 2792 N 269.014 -1.53014 -0.377408 0
M  V30 2793 C 270.43 -1.42523 -0.718281 0
M  V30 2794 C 270.63 -0.55487 -1.9371 0
M  V30 2795 O 269.686 -0.0327593 -2.52479 0
M  V30 2796 C 270.999 -2.85546 -0.942539 0
M  V30 2797 C 272.547 -2.95101 -1.04329 0
M  V30 2798 C 273.022 -4.3916 -1.3001 0
M  V30 2799 N 274.513 -4.42536 -1.36806 0
M  V30 2800 C 275.248 -5.51097 -1.58364 0
M  V30 2801 N 274.744 -6.69724 -1.77317 0
M  V30 2802 N 276.537 -5.38657 -1.60638 0
M  V30 2803 H 268.688 -2.08116 0.424426 0
M  V30 2804 H 270.951 -0.939352 0.127759 0
M  V30 2805 H 270.657 -3.51499 -0.118929 0
M  V30 2806 H 270.531 -3.28493 -1.85397 0
M  V30 2807 H 272.918 -2.29309 -1.85745 0
M  V30 2808 H 272.999 -2.55566 -0.109505 0
M  V30 2809 H 272.643 -5.05521 -0.490991 0
M  V30 2810 H 272.573 -4.76258 -2.24691 0
M  V30 2811 H 275.064 -3.57039 -1.23821 0
M  V30 2812 H 275.377 -7.48233 -1.93306 0
M  V30 2813 H 273.722 -6.72732 -1.74518 0
M  V30 2814 H 276.913 -4.44948 -1.45391 0
M  V30 2815 H 277.086 -6.2333 -1.77098 0
M  V30 2816 N 270.492 0.636531 -1.44174 0
M  V30 2817 C 271.722 1.42146 -1.49927 0
M  V30 2818 C 272.13 1.88812 -0.121063 0
M  V30 2819 O 271.473 1.61126 0.882267 0
M  V30 2820 C 271.535 2.67883 -2.39748 0
M  V30 2821 C 271.199 2.43048 -3.8701 0
M  V30 2822 C 272.196 2.05216 -4.77684 0
M  V30 2823 C 269.881 2.56856 -4.3166 0
M  V30 2824 C 271.875 1.81512 -6.11009 0
M  V30 2825 C 269.562 2.32766 -5.65034 0
M  V30 2826 C 270.56 1.95152 -6.54526 0
M  V30 2827 O 270.248 1.71326 -7.85431 0
M  V30 2828 H 269.98 0.442567 -0.51099 0
M  V30 2829 H 272.534 0.786158 -1.8976 0
M  V30 2830 H 270.764 3.34032 -1.94832 0
M  V30 2831 H 272.453 3.29874 -2.36513 0
M  V30 2832 H 273.219 1.94111 -4.44462 0
M  V30 2833 H 269.098 2.85104 -3.62266 0
M  V30 2834 H 272.642 1.52077 -6.80822 0
M  V30 2835 H 268.539 2.43479 -5.97819 0
M  V30 2836 H 269.307 1.85616 -7.97176 0
M  V30 2837 N 271.97 1.30982 0.876444 0
M  V30 2838 C 273.216 1.20474 1.63138 0
M  V30 2839 C 273.549 -0.238096 1.92735 0
M  V30 2840 O 272.824 -1.1692 1.55435 0
M  V30 2841 C 273.107 2.04244 2.96574 0
M  V30 2842 C 272.96 3.56793 2.73896 0
M  V30 2843 C 274.279 1.88684 3.97601 0
M  V30 2844 H 271.398 0.439001 0.591985 0
M  V30 2845 H 274.04 1.60704 1.01361 0
M  V30 2846 H 272.19 1.70063 3.493 0
M  V30 2847 H 273.862 4.01077 2.27892 0
M  V30 2848 H 272.105 3.80548 2.08245 0
M  V30 2849 H 272.776 4.10706 3.68815 0
M  V30 2850 H 275.252 2.18584 3.54062 0
M  V30 2851 H 274.128 2.4961 4.88862 0
M  V30 2852 H 274.389 0.848343 4.33884 0
M  V30 2853 N 273.449 -1.08991 1.13837 0
M  V30 2854 C 274.359 -2.19301 0.833333 0
M  V30 2855 C 275.375 -1.73026 -0.183847 0
M  V30 2856 O 276.551 -2.01395 -0.0138092 0
M  V30 2857 C 273.616 -3.45323 0.308651 0
M  V30 2858 C 272.677 -4.06255 1.38764 0
M  V30 2859 C 271.91 -5.26262 0.887896 0
M  V30 2860 O 272.133 -5.69747 -0.27287 0
M  V30 2861 O 271.067 -5.78435 1.66421 0
M  V30 2862 H 274.893 -2.47854 1.75506 0
M  V30 2863 H 272.478 -1.18012 0.916166 0
M  V30 2864 H 274.36 -4.21394 0.0216739 0
M  V30 2865 H 273.035 -3.18362 -0.585431 0
M  V30 2866 H 271.942 -3.318 1.72799 0
M  V30 2867 H 273.275 -4.37452 2.25602 0
M  V30 2868 N 274.927 -0.932562 -1.27047 0
M  V30 2869 C 275.875 -0.42603 -2.28665 0
M  V30 2870 C 276.869 0.49219 -1.62092 0
M  V30 2871 O 278.075 0.371355 -1.76128 0
M  V30 2872 H 274.45 -0.119213 -0.742491 0
M  V30 2873 H 276.421 -1.29579 -2.68797 0
M  V30 2874 C 275.17 0.301426 -3.46391 0
M  V30 2875 H 274.493 -0.39595 -3.97834 0
M  V30 2876 H 275.933 0.6202 -4.1944 0
M  V30 2877 C 274.392 1.51616 -3.00856 0
M  V30 2878 O 274.922 2.61476 -3.04948 0
M  V30 2879 N 273.128 1.36969 -2.56296 0
M  V30 2880 H 272.675 0.475873 -2.53166 0
M  V30 2881 H 272.633 2.18368 -2.26192 0
M  V30 2882 N 276.405 1.4127 -0.698611 0
M  V30 2883 C 277.816 1.84187 -0.305289 0
M  V30 2884 C 278.167 1.58449 1.15708 0
M  V30 2885 O 277.292 1.05651 1.88856 0
M  V30 2886 C 277.887 3.3435 -0.547314 0
M  V30 2887 C 276.446 3.75826 -0.207878 0
M  V30 2888 C 275.593 2.64647 -0.828099 0
M  V30 2889 H 278.544 1.30778 -0.89904 0
M  V30 2890 H 278.565 3.8001 0.192998 0
M  V30 2891 H 278.077 3.53051 -1.61172 0
M  V30 2892 H 276.178 3.62725 0.852143 0
M  V30 2893 H 276.291 4.74462 -0.665021 0
M  V30 2894 H 274.655 2.53395 -0.257458 0
M  V30 2895 H 275.438 2.86165 -1.89643 0
M  V30 2896 N 277.883 0.443576 1.51229 0
M  V30 2897 C 278.831 -0.37904 2.29491 0
M  V30 2898 C 279.825 -1.0153 1.35603 0
M  V30 2899 O 281.031 -0.94955 1.52917 0
M  V30 2900 H 277.406 -0.141053 0.738653 0
M  V30 2901 H 279.377 0.301799 2.9687 0
M  V30 2902 C 278.126 -1.46426 3.15364 0
M  V30 2903 H 277.449 -0.984037 3.87501 0
M  V30 2904 H 278.889 -2.01297 3.7317 0
M  V30 2905 C 277.348 -2.45099 2.31146 0
M  V30 2906 O 277.878 -3.49773 1.9754 0
M  V30 2907 N 276.084 -2.16139 1.94249 0
M  V30 2908 H 275.631 -1.31044 2.21777 0
M  V30 2909 H 275.589 -2.82398 1.38198 0
M  V30 2910 N 279.361 -1.56624 0.175154 0
M  V30 2911 C 280.61 -1.96173 -0.468921 0
M  V30 2912 C 280.923 -1.06401 -1.64128 0
M  V30 2913 O 282.129 -1.35648 -2.35185 0
M  V30 2914 C 280.585 -3.48833 -0.885633 0
M  V30 2915 C 280.193 -4.47237 0.261343 0
M  V30 2916 C 281.937 -3.97194 -1.49791 0
M  V30 2917 C 279.844 -5.9114 -0.175214 0
M  V30 2918 H 278.774 -0.732455 -0.178958 0
M  V30 2919 H 281.425 -1.81591 0.263997 0
M  V30 2920 H 279.807 -3.58848 -1.67464 0
M  V30 2921 H 280.981 -4.4894 1.03871 0
M  V30 2922 H 279.296 -4.08956 0.783827 0
M  V30 2923 H 281.893 -5.02167 -1.83665 0
M  V30 2924 H 282.236 -3.40351 -2.39722 0
M  V30 2925 H 282.769 -3.90212 -0.773267 0
M  V30 2926 H 279.508 -6.51865 0.689414 0
M  V30 2927 H 279.028 -5.92735 -0.91786 0
M  V30 2928 H 280.707 -6.44044 -0.617792 0
M  V30 2929 N 280.839 0.0985539 -1.57292 0
M  V30 2930 C 281.772 1.15082 -1.97057 0
M  V30 2931 C 282.75 1.39025 -0.843255 0
M  V30 2932 O 283.934 1.52842 -1.10325 0
M  V30 2933 C 281.061 2.50069 -2.28437 0
M  V30 2934 C 280.107 2.42428 -3.509 0
M  V30 2935 S 280.94 1.84414 -5.02744 0
M  V30 2936 C 282.096 3.21032 -5.37298 0
M  V30 2937 H 282.329 0.811815 -2.86002 0
M  V30 2938 H 279.862 0.306102 -1.51335 0
M  V30 2939 H 281.82 3.27729 -2.47192 0
M  V30 2940 H 280.481 2.8114 -1.40069 0
M  V30 2941 H 279.674 3.41911 -3.70288 0
M  V30 2942 H 279.276 1.72896 -3.31637 0
M  V30 2943 H 281.568 4.17297 -5.33731 0
M  V30 2944 H 282.511 3.06452 -6.38352 0
M  V30 2945 H 282.919 3.20404 -4.64759 0
M  V30 2946 N 282.317 1.53212 0.369288 0
M  V30 2947 C 283.28 1.7872 1.43498 0
M  V30 2948 C 284.28 0.657554 1.46741 0
M  V30 2949 O 285.47 0.925736 1.47566 0
M  V30 2950 C 282.602 1.90591 2.82645 0
M  V30 2951 H 283.795 2.73894 1.22156 0
M  V30 2952 H 281.348 1.44233 0.602203 0
M  V30 2953 H 282.083 0.974709 3.09306 0
M  V30 2954 H 281.868 2.72751 2.8169 0
M  V30 2955 H 283.358 2.11931 3.59826 0
M  V30 2956 N 283.795 -0.628877 1.44509 0
M  V30 2957 C 285.035 -1.39993 1.48934 0
M  V30 2958 C 285.399 -1.91627 0.119604 0
M  V30 2959 O 286.6 -2.68772 0.0385283 0
M  V30 2960 C 284.871 -2.53241 2.52198 0
M  V30 2961 S 286.43 -3.41383 2.75687 0
M  V30 2962 H 283.248 -0.477558 0.526744 0
M  V30 2963 H 285.85 -0.727804 1.81448 0
M  V30 2964 H 284.554 -2.13622 3.50419 0
M  V30 2965 H 284.085 -3.25278 2.21264 0
M  V30 2966 H 286.1 -4.50752 2.07453 0
M  V30 2967 N 285.273 -1.31445 -0.869486 0
M  V30 2968 C 286.503 -1.23942 -1.65294 0
M  V30 2969 C 286.911 0.197561 -1.88166 0
M  V30 2970 O 286.254 1.14019 -1.44033 0
M  V30 2971 C 286.316 -1.91385 -3.04322 0
M  V30 2972 C 285.98 -3.40726 -3.04557 0
M  V30 2973 C 286.977 -4.36464 -2.82481 0
M  V30 2974 C 284.662 -3.82425 -3.25663 0
M  V30 2975 C 286.656 -5.71876 -2.8149 0
M  V30 2976 C 284.343 -5.1795 -3.243 0
M  V30 2977 C 285.341 -6.12486 -3.02241 0
M  V30 2978 O 285.029 -7.45534 -3.00724 0
M  V30 2979 H 284.761 -0.429459 -0.522054 0
M  V30 2980 H 287.315 -1.73873 -1.0935 0
M  V30 2981 H 285.545 -1.36004 -3.61994 0
M  V30 2982 H 287.234 -1.77791 -3.64891 0
M  V30 2983 H 288 -4.05576 -2.65956 0
M  V30 2984 H 283.879 -3.09274 -3.41863 0
M  V30 2985 H 287.423 -6.45638 -2.64191 0
M  V30 2986 H 283.32 -5.48473 -3.40365 0
M  V30 2987 H 284.088 -7.54713 -3.16782 0
M  V30 2988 N 286.751 1.08385 -1.14413 0
M  V30 2989 C 287.699 2.17406 -0.826888 0
M  V30 2990 C 288.693 1.6827 0.195312 0
M  V30 2991 O 289.899 1.79927 0.0513892 0
M  V30 2992 H 286.274 0.70934 -0.249681 0
M  V30 2993 H 288.245 2.41388 -1.75426 0
M  V30 2994 C 286.994 3.46215 -0.320979 0
M  V30 2995 H 286.317 3.84401 -1.0989 0
M  V30 2996 H 287.757 4.23777 -0.137549 0
M  V30 2997 C 286.216 3.23067 0.955472 0
M  V30 2998 O 286.746 3.4668 2.02918 0
M  V30 2999 N 284.952 2.7661 0.890798 0
M  V30 3000 H 284.499 2.57594 0.0168815 0
M  V30 3001 H 284.457 2.61501 1.74542 0
M  V30 3002 N 288.23 0.939286 1.26551 0
M  V30 3003 C 289.14 0.453432 2.30176 0
M  V30 3004 C 290.156 -0.471649 1.67486 0
M  V30 3005 O 291.332 -0.35164 1.98306 0
M  V30 3006 C 288.397 -0.275326 3.45605 0
M  V30 3007 C 287.458 0.686084 4.23782 0
M  V30 3008 C 286.691 -0.00798994 5.33699 0
M  V30 3009 O 286.914 -1.22528 5.57085 0
M  V30 3010 O 285.848 0.669746 5.98162 0
M  V30 3011 H 289.674 1.31416 2.73795 0
M  V30 3012 H 287.259 0.705095 1.31715 0
M  V30 3013 H 289.141 -0.685911 4.1578 0
M  V30 3014 H 287.816 -1.11147 3.0402 0
M  V30 3015 H 286.723 1.14658 3.56096 0
M  V30 3016 H 288.056 1.48979 4.69112 0
M  V30 3017 N 289.708 -1.40897 0.706093 0
M  V30 3018 C 290.638 -2.33418 0.0620085 0
M  V30 3019 C 291.619 -1.52385 -0.755827 0
M  V30 3020 O 292.804 -1.80886 -0.706674 0
M  V30 3021 C 289.934 -3.36293 -0.867445 0
M  V30 3022 C 288.888 -4.27716 -0.155932 0
M  V30 3023 C 288.214 -5.2105 -1.20046 0
M  V30 3024 C 289.514 -5.12944 0.984149 0
M  V30 3025 H 291.208 -2.87527 0.83477 0
M  V30 3026 H 288.754 -1.38249 0.402875 0
M  V30 3027 H 290.707 -3.99949 -1.32735 0
M  V30 3028 H 289.431 -2.80556 -1.67199 0
M  V30 3029 H 288.09 -3.65498 0.284047 0
M  V30 3030 H 287.738 -4.61624 -1.99781 0
M  V30 3031 H 287.438 -5.83056 -0.729328 0
M  V30 3032 H 288.962 -5.87584 -1.66066 0
M  V30 3033 H 290.376 -5.70109 0.604048 0
M  V30 3034 H 288.773 -5.83945 1.38304 0
M  V30 3035 H 289.843 -4.49485 1.81911 0
M  V30 3036 N 291.186 -0.45159 -1.50991 0
M  V30 3037 C 292.116 0.342898 -2.30969 0
M  V30 3038 C 293.097 1.00815 -1.37005 0
M  V30 3039 O 294.282 1.00907 -1.65926 0
M  V30 3040 C 291.412 1.43637 -3.16205 0
M  V30 3041 C 290.366 0.893818 -4.18563 0
M  V30 3042 C 289.692 2.08411 -4.92411 0
M  V30 3043 C 290.992 -0.0815568 -5.22236 0
M  V30 3044 H 292.686 -0.324556 -2.97636 0
M  V30 3045 H 290.232 -0.157531 -1.43136 0
M  V30 3046 H 292.185 1.9995 -3.70942 0
M  V30 3047 H 290.909 2.13232 -2.47386 0
M  V30 3048 H 289.568 0.352798 -3.64898 0
M  V30 3049 H 289.216 2.76658 -4.20082 0
M  V30 3050 H 288.916 1.72741 -5.61636 0
M  V30 3051 H 290.44 2.65251 -5.49976 0
M  V30 3052 H 291.854 0.391742 -5.7196 0
M  V30 3053 H 290.251 -0.351551 -5.99069 0
M  V30 3054 H 291.321 -1.01374 -4.74185 0
M  V30 3055 N 292.664 1.56529 -0.183458 0
M  V30 3056 C 293.596 2.15747 0.773697 0
M  V30 3057 C 294.609 1.1162 1.1851 0
M  V30 3058 O 295.798 1.3876 1.12285 0
M  V30 3059 C 292.898 2.6952 2.05456 0
M  V30 3060 C 292.071 3.98429 1.8048 0
M  V30 3061 C 291.13 4.37145 2.92901 0
M  V30 3062 O 290.156 5.04791 2.6301 0
M  V30 3063 N 291.358 3.99695 4.2098 0
M  V30 3064 H 294.123 2.98505 0.26736 0
M  V30 3065 H 291.684 1.619 -0.0010878 0
M  V30 3066 H 293.676 2.92412 2.79781 0
M  V30 3067 H 292.246 1.91282 2.47245 0
M  V30 3068 H 291.466 3.8379 0.899947 0
M  V30 3069 H 292.754 4.82597 1.61175 0
M  V30 3070 H 292.152 3.4526 4.48121 0
M  V30 3071 H 290.709 4.27562 4.9197 0
M  V30 3072 N 294.142 -0.090211 1.57342 0
M  V30 3073 C 295.072 -1.10976 2.05443 0
M  V30 3074 C 296.053 -1.41482 0.944284 0
M  V30 3075 O 297.238 -1.51428 1.21586 0
M  V30 3076 C 294.368 -2.42831 2.48295 0
M  V30 3077 C 293.322 -2.26721 3.63018 0
M  V30 3078 C 292.648 -3.63796 3.91863 0
M  V30 3079 C 293.948 -1.7037 4.93732 0
M  V30 3080 H 295.642 -0.709564 2.9087 0
M  V30 3081 H 293.188 -0.339874 1.39932 0
M  V30 3082 H 295.141 -3.14431 2.80555 0
M  V30 3083 H 293.865 -2.84795 1.59873 0
M  V30 3084 H 292.524 -1.57565 3.31012 0
M  V30 3085 H 292.172 -4.03297 3.00601 0
M  V30 3086 H 291.872 -3.53861 4.69101 0
M  V30 3087 H 293.396 -4.36855 4.26603 0
M  V30 3088 H 294.81 -2.31816 5.24342 0
M  V30 3089 H 293.207 -1.71181 5.75167 0
M  V30 3090 H 294.277 -0.663542 4.80339 0
M  V30 3091 N 295.62 -1.53406 -0.361157 0
M  V30 3092 C 296.53 -1.83122 -1.4664 0
M  V30 3093 C 297.546 -0.719943 -1.58407 0
M  V30 3094 O 298.722 -1.01046 -1.74218 0
M  V30 3095 C 295.787 -2.01891 -2.81853 0
M  V30 3096 C 294.848 -3.25784 -2.79577 0
M  V30 3097 C 294.081 -3.43648 -4.0834 0
M  V30 3098 O 294.304 -2.65714 -5.0473 0
M  V30 3099 O 293.238 -4.37018 -4.13883 0
M  V30 3100 H 297.064 -2.7703 -1.24451 0
M  V30 3101 H 294.649 -1.38841 -0.551678 0
M  V30 3102 H 296.531 -2.15782 -3.61962 0
M  V30 3103 H 295.206 -1.11173 -3.0401 0
M  V30 3104 H 294.113 -3.17312 -1.98151 0
M  V30 3105 H 295.446 -4.16439 -2.62373 0
M  V30 3106 N 297.098 0.621204 -1.44841 0
M  V30 3107 C 298.345 1.38055 -1.48145 0
M  V30 3108 C 298.673 1.94143 -0.117867 0
M  V30 3109 O 297.928 1.74713 0.881694 0
M  V30 3110 C 298.227 2.55675 -2.4973 0
M  V30 3111 C 297.893 2.17817 -3.94799 0
M  V30 3112 C 296.555 2.07205 -4.34303 0
M  V30 3113 C 298.907 1.88065 -4.86087 0
M  V30 3114 C 296.235 1.65045 -5.63007 0
M  V30 3115 C 298.587 1.47394 -6.15189 0
M  V30 3116 C 297.251 1.35331 -6.53637 0
M  V30 3117 H 296.521 0.505181 -0.542101 0
M  V30 3118 H 299.168 0.703477 -1.78111 0
M  V30 3119 H 297.473 3.2866 -2.13284 0
M  V30 3120 H 299.17 3.13904 -2.4953 0
M  V30 3121 H 295.76 2.26998 -3.63552 0
M  V30 3122 H 299.944 1.95168 -4.56315 0
M  V30 3123 H 295.2 1.54317 -5.91605 0
M  V30 3124 H 299.374 1.23415 -6.85377 0
M  V30 3125 H 297.001 1.02435 -7.53267 0
M  V30 3126 N 298.576 1.31904 0.862503 0
M  V30 3127 C 299.824 1.21776 1.61292 0
M  V30 3128 C 300.145 -0.222413 1.93727 0
M  V30 3129 O 299.415 -1.1451 1.58947 0
M  V30 3130 H 297.995 0.447717 0.597962 0
M  V30 3131 H 300.657 1.65326 1.03215 0
M  V30 3132 H 299.753 1.7948 2.5533 0
M  V30 3133 N 300.054 -1.07777 1.14986 0
M  V30 3134 C 300.964 -2.18404 0.856546 0
M  V30 3135 C 301.98 -1.73211 -0.165485 0
M  V30 3136 O 303.156 -2.01399 0.00755219 0
M  V30 3137 C 300.221 -3.44977 0.34526 0
M  V30 3138 C 299.282 -4.0476 1.43065 0
M  V30 3139 C 298.515 -5.25291 0.943663 0
M  V30 3140 O 298.738 -5.70004 -0.212426 0
M  V30 3141 O 297.672 -5.76638 1.72547 0
M  V30 3142 H 301.498 -2.45978 1.78125 0
M  V30 3143 H 299.083 -1.17033 0.928631 0
M  V30 3144 H 300.965 -4.21348 0.0663671 0
M  V30 3145 H 299.64 -3.18965 -0.551631 0
M  V30 3146 H 298.547 -3.29949 1.76309 0
M  V30 3147 H 299.88 -4.35035 2.30229 0
M  V30 3148 N 301.532 -0.945985 -1.26051 0
M  V30 3149 C 302.778 -0.597002 -1.93814 0
M  V30 3150 C 303.111 0.862484 -1.73997 0
M  V30 3151 O 302.386 1.61769 -1.07986 0
M  V30 3152 C 302.669 -0.945937 -3.47454 0
M  V30 3153 C 302.522 -2.46052 -3.76535 0
M  V30 3154 C 303.841 -0.464785 -4.37639 0
M  V30 3155 H 300.96 -0.218366 -0.703907 0
M  V30 3156 H 303.602 -1.18107 -1.48831 0
M  V30 3157 H 301.752 -0.448902 -3.85898 0
M  V30 3158 H 303.424 -3.03065 -3.47778 0
M  V30 3159 H 301.667 -2.90194 -3.22444 0
M  V30 3160 H 302.338 -2.65517 -4.83947 0
M  V30 3161 H 304.814 -0.891016 -4.06448 0
M  V30 3162 H 303.69 -0.737712 -5.4392 0
M  V30 3163 H 303.951 0.635274 -4.37512 0
M  V30 3164 N 303.011 1.40521 -0.713556 0
M  V30 3165 C 304.427 1.54839 -0.386907 0
M  V30 3166 C 304.627 1.68532 1.1045 0
M  V30 3167 O 303.683 1.67377 1.89053 0
M  V30 3168 C 304.996 2.77792 -1.15118 0
M  V30 3169 C 306.544 2.91607 -1.13729 0
M  V30 3170 C 307.019 4.1747 -1.88368 0
M  V30 3171 N 308.51 4.24466 -1.85427 0
M  V30 3172 C 309.245 5.20755 -2.40004 0
M  V30 3173 N 308.741 6.22965 -3.03129 0
M  V30 3174 N 310.534 5.1282 -2.30158 0
M  V30 3175 H 302.685 1.29879 -1.68063 0
M  V30 3176 H 304.948 0.627896 -0.710247 0
M  V30 3177 H 304.654 2.73944 -2.20561 0
M  V30 3178 H 304.528 3.6984 -0.741477 0
M  V30 3179 H 306.915 2.94959 -0.0910608 0
M  V30 3180 H 306.996 2.00682 -1.5862 0
M  V30 3181 H 306.64 4.1488 -2.9298 0
M  V30 3182 H 306.57 5.074 -1.40898 0
M  V30 3183 H 309.061 3.51241 -1.3942 0
M  V30 3184 H 309.374 6.92859 -3.42295 0
M  V30 3185 H 307.719 6.23415 -3.07212 0
M  V30 3186 H 310.91 4.31899 -1.80501 0
M  V30 3187 H 311.083 5.87689 -2.72993 0
M  V30 3188 N 304.489 0.459591 1.5075 0
M  V30 3189 C 305.714 -0.0996819 2.0716 0
M  V30 3190 C 306.139 -1.33761 1.32249 0
M  V30 3191 O 305.497 -1.77551 0.366786 0
M  V30 3192 C 305.545 -0.378226 3.58611 0
M  V30 3193 O 304.649 -1.46081 3.85661 0
M  V30 3194 H 303.99 0.00791392 0.663953 0
M  V30 3195 H 306.52 0.647329 1.9409 0
M  V30 3196 H 306.53 -0.622135 4.03229 0
M  V30 3197 H 305.205 0.526439 4.12555 0
M  V30 3198 H 303.782 -1.20511 3.5289 0
M  V30 3199 N 305.967 -1.56429 0.191757 0
M  V30 3200 C 306.899 -2.16154 -0.762245 0
M  V30 3201 C 307.912 -1.12247 -1.17917 0
M  V30 3202 O 309.101 -1.39353 -1.11548 0
M  V30 3203 C 306.201 -2.70606 -2.04024 0
M  V30 3204 C 305.374 -3.99381 -1.78364 0
M  V30 3205 C 304.433 -4.38692 -2.90578 0
M  V30 3206 O 303.459 -5.06179 -2.6033 0
M  V30 3207 N 304.661 -4.01922 -4.18854 0
M  V30 3208 H 307.426 -2.98643 -0.251526 0
M  V30 3209 H 304.987 -1.61897 0.00967373 0
M  V30 3210 H 306.979 -2.93891 -2.78227 0
M  V30 3211 H 305.549 -1.9259 -2.46227 0
M  V30 3212 H 304.769 -3.84262 -0.879581 0
M  V30 3213 H 306.057 -4.83445 -1.58614 0
M  V30 3214 H 305.455 -3.47631 -4.46283 0
M  V30 3215 H 304.012 -4.30165 -4.89695 0
M  V30 3216 N 307.445 0.0818655 -1.57387 0
M  V30 3217 C 308.375 1.09885 -2.06028 0
M  V30 3218 C 309.356 1.4098 -0.951774 0
M  V30 3219 O 310.541 1.50781 -1.22387 0
M  V30 3220 C 307.671 2.4151 -2.4958 0
M  V30 3221 C 306.625 2.24792 -3.64215 0
M  V30 3222 C 305.951 3.61712 -3.93787 0
M  V30 3223 C 307.251 1.67749 -4.94629 0
M  V30 3224 H 308.945 0.694128 -2.91243 0
M  V30 3225 H 306.491 0.332448 -1.4011 0
M  V30 3226 H 308.444 3.12939 -2.82219 0
M  V30 3227 H 307.168 2.83943 -1.61381 0
M  V30 3228 H 305.827 1.55807 -3.31843 0
M  V30 3229 H 305.475 4.01697 -3.02735 0
M  V30 3230 H 305.175 3.51368 -4.70971 0
M  V30 3231 H 306.699 4.34587 -4.28913 0
M  V30 3232 H 308.113 2.29032 -5.25564 0
M  V30 3233 H 306.51 1.68128 -5.76067 0
M  V30 3234 H 307.58 0.638059 -4.80684 0
M  V30 3235 N 308.923 1.53595 0.353017 0
M  V30 3236 C 309.87 1.80919 1.43308 0
M  V30 3237 C 310.84 0.654288 1.5267 0
M  V30 3238 O 312.025 0.897759 1.6836 0
M  V30 3239 C 309.165 2.01605 2.80089 0
M  V30 3240 C 308.278 3.29321 2.79593 0
M  V30 3241 C 307.413 3.40125 4.0803 0
M  V30 3242 C 306.452 4.61826 4.01725 0
M  V30 3243 N 305.589 4.69716 5.21834 0
M  V30 3244 H 310.429 2.73074 1.19308 0
M  V30 3245 H 307.966 1.35263 0.578131 0
M  V30 3246 H 309.924 2.11586 3.59565 0
M  V30 3247 H 308.554 1.12772 3.0246 0
M  V30 3248 H 307.606 3.28229 1.92276 0
M  V30 3249 H 308.918 4.18884 2.70809 0
M  V30 3250 H 308.072 3.49488 4.95927 0
M  V30 3251 H 306.811 2.48601 4.19582 0
M  V30 3252 H 305.816 4.52552 3.12213 0
M  V30 3253 H 307.041 5.54705 3.91764 0
M  V30 3254 H 304.987 3.81097 5.33948 0
M  V30 3255 H 304.904 5.53202 5.1527 0
M  V30 3256 H 306.172 4.83376 6.11529 0
M  V30 3257 N 310.401 -0.613514 1.45168 0
M  V30 3258 C 311.331 -1.7354 1.56225 0
M  V30 3259 C 312.312 -1.64981 0.41414 0
M  V30 3260 O 313.497 -1.83472 0.636526 0
M  V30 3261 C 310.627 -3.12128 1.52295 0
M  V30 3262 C 309.581 -3.35491 2.65762 0
M  V30 3263 C 308.907 -4.74291 2.46885 0
M  V30 3264 C 310.207 -3.26325 4.0781 0
M  V30 3265 H 311.901 -1.64543 2.50132 0
M  V30 3266 H 309.447 -0.790185 1.20383 0
M  V30 3267 H 311.4 -3.90404 1.58628 0
M  V30 3268 H 310.124 -3.2195 0.549139 0
M  V30 3269 H 308.783 -2.59603 2.58847 0
M  V30 3270 H 308.431 -4.80839 1.47657 0
M  V30 3271 H 308.131 -4.9088 3.22972 0
M  V30 3272 H 309.655 -5.54775 2.55063 0
M  V30 3273 H 311.069 -3.94483 4.16 0
M  V30 3274 H 309.466 -3.54445 4.8424 0
M  V30 3275 H 310.536 -2.23855 4.30136 0
M  V30 3276 N 311.879 -1.3236 -0.855495 0
M  V30 3277 C 313.295 -1.11332 -1.14356 0
M  V30 3278 C 313.495 0.106751 -2.01217 0
M  V30 3279 O 312.551 0.791891 -2.39761 0
M  V30 3280 C 313.864 -2.39237 -1.82171 0
M  V30 3281 C 315.412 -2.44986 -1.9481 0
M  V30 3282 C 315.887 -3.7281 -2.66039 0
M  V30 3283 N 317.378 -3.73787 -2.73565 0
M  V30 3284 C 318.113 -4.69394 -3.29327 0
M  V30 3285 N 317.609 -5.75367 -3.85907 0
M  V30 3286 N 319.402 -4.56893 -3.27423 0
M  V30 3287 H 311.553 -2.10586 -0.277027 0
M  V30 3288 H 313.816 -0.929701 -0.185364 0
M  V30 3289 H 313.522 -3.28431 -1.25802 0
M  V30 3290 H 313.396 -2.50134 -2.82335 0
M  V30 3291 H 315.783 -1.56252 -2.50338 0
M  V30 3292 H 315.864 -2.38043 -0.936448 0
M  V30 3293 H 315.508 -4.61918 -2.11174 0
M  V30 3294 H 315.438 -3.77024 -3.67642 0
M  V30 3295 H 317.929 -2.97189 -2.33424 0
M  V30 3296 H 318.242 -6.44378 -4.26611 0
M  V30 3297 H 316.587 -5.79123 -3.84242 0
M  V30 3298 H 319.778 -3.73269 -2.82467 0
M  V30 3299 H 319.951 -5.31577 -3.7058 0
M  V30 3300 N 313.357 1.07166 -1.15556 0
M  V30 3301 C 314.32 2.12589 -0.856644 0
M  V30 3302 C 315.32 1.6015 0.14444 0
M  V30 3303 O 316.51 1.7399 -0.0854163 0
M  V30 3304 C 313.642 3.39753 -0.279405 0
M  V30 3305 H 314.835 2.40539 -1.79112 0
M  V30 3306 H 312.388 1.23086 -0.963298 0
M  V30 3307 H 313.123 3.17447 0.663174 0
M  V30 3308 H 312.908 3.79117 -1.00063 0
M  V30 3309 H 314.398 4.17507 -0.0879113 0
M  V30 3310 N 314.835 0.952656 1.25548 0
M  V30 3311 C 316.075 0.614013 1.9496 0
M  V30 3312 C 316.439 -0.833215 1.72978 0
M  V30 3313 O 317.64 -1.28135 2.36294 0
M  V30 3314 C 315.911 0.960562 3.4425 0
M  V30 3315 S 317.47 0.734195 4.32614 0
M  V30 3316 H 314.288 0.225754 0.674208 0
M  V30 3317 H 316.89 1.22641 1.52248 0
M  V30 3318 H 315.594 2.01103 3.57751 0
M  V30 3319 H 315.125 0.338336 3.91942 0
M  V30 3320 H 317.14 -0.395995 4.94617 0
M  V30 3321 N 316.313 -1.40141 0.720998 0
M  V30 3322 C 317.261 -2.3252 0.0608547 0
M  V30 3323 C 318.255 -1.52326 -0.741152 0
M  V30 3324 O 319.461 -1.68089 -0.643911 0
M  V30 3325 H 315.836 -0.751999 0.000876664 0
M  V30 3326 H 317.807 -2.8584 0.856614 0
M  V30 3327 C 316.556 -3.37331 -0.842809 0
M  V30 3328 H 315.879 -3.99108 -0.235084 0
M  V30 3329 H 317.319 -4.04452 -1.27257 0
M  V30 3330 C 315.778 -2.73246 -1.97074 0
M  V30 3331 O 316.308 -2.59998 -3.06209 0
M  V30 3332 N 314.514 -2.31547 -1.75597 0
M  V30 3333 H 314.061 -2.42522 -0.868368 0
M  V30 3334 H 314.019 -1.89007 -2.51244 0
M  V30 3335 N 317.792 -0.46758 -1.50504 0
M  V30 3336 C 319.017 0.0886943 -2.0721 0
M  V30 3337 C 319.442 1.33057 -1.32956 0
M  V30 3338 O 318.8 1.77354 -0.376197 0
M  V30 3339 C 318.848 0.359202 -3.58806 0
M  V30 3340 O 317.952 1.44034 -3.8643 0
M  V30 3341 H 317.293 -0.0114349 -0.663902 0
M  V30 3342 H 319.823 -0.657613 -1.93744 0
M  V30 3343 H 319.833 0.600742 -4.03553 0
M  V30 3344 H 318.508 -0.548311 -4.1227 0
M  V30 3345 H 317.085 1.18638 -3.53524 0
M  V30 3346 N 319.27 1.56325 -0.20005 0
M  V30 3347 C 320.516 1.98012 0.438059 0
M  V30 3348 C 320.849 1.08702 1.60927 0
M  V30 3349 O 320.124 0.140064 1.93995 0
M  V30 3350 C 320.407 3.48841 0.893419 0
M  V30 3351 C 320.26 4.48928 -0.279947 0
M  V30 3352 C 321.579 4.03498 1.75719 0
M  V30 3353 H 318.698 0.719918 0.157757 0
M  V30 3354 H 321.34 1.87743 -0.291968 0
M  V30 3355 H 319.49 3.57723 1.51547 0
M  V30 3356 H 321.162 4.52079 -0.91772 0
M  V30 3357 H 319.405 4.23694 -0.930919 0
M  V30 3358 H 320.076 5.5194 0.0812601 0
M  V30 3359 H 322.552 3.97427 1.23253 0
M  V30 3360 H 321.428 5.09393 2.04476 0
M  V30 3361 H 321.689 3.4906 2.71311 0
M  V30 3362 N 320.748 -0.0735177 1.57428 0
M  V30 3363 C 321.995 -0.772999 1.87166 0
M  V30 3364 C 322.323 -1.77665 0.791551 0
M  V30 3365 O 321.578 -1.94541 -0.212636 0
M  V30 3366 C 321.877 -1.51799 3.23561 0
M  V30 3367 C 321.543 -0.654484 4.46125 0
M  V30 3368 C 320.205 -0.416511 4.79394 0
M  V30 3369 C 322.557 -0.0555862 5.2117 0
M  V30 3370 C 319.885 0.429869 5.85123 0
M  V30 3371 C 322.237 0.778239 6.27795 0
M  V30 3372 C 320.901 1.0261 6.59566 0
M  V30 3373 H 320.171 -0.282861 0.684888 0
M  V30 3374 H 322.818 -0.0338272 1.9147 0
M  V30 3375 H 321.123 -2.32932 3.1504 0
M  V30 3376 H 322.82 -2.06397 3.43804 0
M  V30 3377 H 319.41 -0.850091 4.20085 0
M  V30 3378 H 323.594 -0.226558 4.95783 0
M  V30 3379 H 318.85 0.630665 6.08139 0
M  V30 3380 H 323.024 1.24906 6.85107 0
M  V30 3381 H 320.651 1.68371 7.4132 0
M  V30 3382 N 322.226 -1.5378 -0.344866 0
M  V30 3383 C 323.454 -1.74899 -1.10534 0
M  V30 3384 C 323.869 -0.487534 -1.82397 0
M  V30 3385 O 323.226 0.540741 -1.74305 0
M  V30 3386 C 323.277 -2.92822 -2.11984 0
M  V30 3387 O 322.998 -4.14089 -1.43044 0
M  V30 3388 C 324.499 -3.25982 -3.00417 0
M  V30 3389 H 321.719 -0.584426 -0.329678 0
M  V30 3390 H 324.263 -2.006 -0.397474 0
M  V30 3391 H 322.418 -2.69457 -2.78338 0
M  V30 3392 H 322.832 -4.80272 -2.10805 0
M  V30 3393 H 324.306 -4.11848 -3.67539 0
M  V30 3394 H 324.783 -2.42228 -3.66363 0
M  V30 3395 H 325.389 -3.51349 -2.39654 0
M  V30 3396 N 323.704 0.605807 -1.45491 0
M  V30 3397 C 324.667 1.69836 -1.5391 0
M  V30 3398 C 325.667 1.55261 -0.418424 0
M  V30 3399 O 326.857 1.60296 -0.681965 0
M  V30 3400 C 323.989 3.09117 -1.43734 0
M  V30 3401 H 325.182 1.63738 -2.51257 0
M  V30 3402 H 322.735 0.821689 -1.32959 0
M  V30 3403 H 323.47 3.20791 -0.475788 0
M  V30 3404 H 323.255 3.21104 -2.25021 0
M  V30 3405 H 324.745 3.88696 -1.52661 0
M  V30 3406 N 325.182 1.32811 0.848464 0
M  V30 3407 C 326.112 1.24882 1.97299 0
M  V30 3408 C 327.093 0.131357 1.69592 0
M  V30 3409 O 328.278 0.319553 1.91553 0
M  V30 3410 C 325.408 0.97746 3.33261 0
M  V30 3411 C 324.362 2.05682 3.75338 0
M  V30 3412 C 323.688 1.63777 5.09 0
M  V30 3413 C 324.988 3.47254 3.90144 0
M  V30 3414 H 326.682 2.18966 2.04191 0
M  V30 3415 H 324.228 1.05413 0.981029 0
M  V30 3416 H 326.181 0.908513 4.1149 0
M  V30 3417 H 324.905 0.000980011 3.266 0
M  V30 3418 H 323.564 2.11603 2.99366 0
M  V30 3419 H 323.212 0.648569 4.98801 0
M  V30 3420 H 322.912 2.36 5.38124 0
M  V30 3421 H 324.436 1.5833 5.89715 0
M  V30 3422 H 325.85 3.43888 4.58709 0
M  V30 3423 H 324.247 4.1788 4.30693 0
M  V30 3424 H 325.317 3.86462 2.92874 0
M  V30 3425 N 326.66 -1.06551 1.16123 0
M  V30 3426 C 327.57 -2.17484 0.879662 0
M  V30 3427 C 328.586 -1.73377 -0.147104 0
M  V30 3428 O 329.762 -2.01379 0.0289128 0
M  V30 3429 C 326.827 -3.44591 0.381829 0
M  V30 3430 C 325.888 -4.0322 1.4735 0
M  V30 3431 C 325.121 -5.24261 0.999324 0
M  V30 3432 O 325.344 -5.70198 -0.151957 0
M  V30 3433 O 324.278 -5.74775 1.78653 0
M  V30 3434 H 328.104 -2.44075 1.80724 0
M  V30 3435 H 325.689 -1.16042 0.940992 0
M  V30 3436 H 327.571 -4.21254 0.111053 0
M  V30 3437 H 326.246 -3.19532 -0.51777 0
M  V30 3438 H 325.153 -3.2806 1.79798 0
M  V30 3439 H 326.486 -4.32568 2.34831 0
M  V30 3440 N 328.138 -0.959301 -1.25041 0
M  V30 3441 C 329.086 -0.474437 -2.2771 0
M  V30 3442 C 330.08 0.457697 -1.631 0
M  V30 3443 O 331.286 0.333912 -1.76876 0
M  V30 3444 H 327.661 -0.134936 -0.739795 0
M  V30 3445 H 329.632 -1.35251 -2.65988 0
M  V30 3446 C 328.381 0.227884 -3.46952 0
M  V30 3447 H 327.704 -0.480248 -3.96905 0
M  V30 3448 H 329.144 0.531091 -4.20661 0
M  V30 3449 C 327.603 1.452 -3.04004 0
M  V30 3450 O 328.133 2.54949 -3.10426 0
M  V30 3451 N 326.339 1.31502 -2.59144 0
M  V30 3452 H 325.886 0.422065 -2.54119 0
M  V30 3453 H 325.844 2.13521 -2.30773 0
M  V30 3454 N 329.616 1.39756 -0.72842 0
M  V30 3455 C 330.841 2.05472 -0.282159 0
M  V30 3456 C 331.266 1.54549 1.07221 0
M  V30 3457 O 330.624 0.686372 1.67805 0
M  V30 3458 C 330.672 3.59462 -0.286264 0
M  V30 3459 O 329.776 4.05918 0.728298 0
M  V30 3460 H 329.117 0.651226 -0.129618 0
M  V30 3461 H 331.647 1.78915 -0.992499 0
M  V30 3462 H 331.657 4.07798 -0.128373 0
M  V30 3463 H 330.332 3.95889 -1.27456 0
M  V30 3464 H 328.909 3.69012 0.537081 0
M  V30 3465 N 331.094 0.475555 1.50254 0
M  V30 3466 C 332.004 -0.321501 2.32387 0
M  V30 3467 C 333.02 -0.991755 1.42969 0
M  V30 3468 O 334.196 -0.978747 1.76018 0
M  V30 3469 C 331.261 -1.38667 3.17762 0
M  V30 3470 C 330.322 -0.732538 4.23004 0
M  V30 3471 C 329.555 -1.74695 5.04299 0
M  V30 3472 O 329.778 -2.97399 4.86734 0
M  V30 3473 O 328.712 -1.31631 5.8733 0
M  V30 3474 H 332.538 0.350071 3.01676 0
M  V30 3475 H 330.123 0.237321 1.47503 0
M  V30 3476 H 332.005 -2.00354 3.70724 0
M  V30 3477 H 330.68 -2.04163 2.51196 0
M  V30 3478 H 329.587 -0.0765902 3.74022 0
M  V30 3479 H 330.92 -0.120452 4.92053 0
M  V30 3480 N 332.573 -1.56217 0.208337 0
M  V30 3481 C 333.85 -1.89739 -0.475234 0
M  V30 3482 C 334.23 -1.1238 -1.78701 0
M  V30 3483 O 333.578 -0.228979 -2.2735 0
M  V30 3484 C 333.788 -3.42289 -0.681101 0
M  V30 3485 C 335.136 -4.12789 -0.994507 0
M  V30 3486 O 336.16 -3.47814 -0.768357 0
M  V30 3487 O 335.019 -5.27649 -1.42299 0
M  V30 3488 H 332.113 -0.788478 -0.249461 0
M  V30 3489 H 334.659 -1.67855 0.249538 0
M  V30 3490 H 333.431 -3.90534 0.244722 0
M  V30 3491 H 333.054 -3.69909 -1.45785 0
M  V30 3492 N 334.051 0.0651679 -1.57465 0
M  V30 3493 C 335.014 1.06117 -2.03155 0
M  V30 3494 C 336.014 1.31204 -0.929632 0
M  V30 3495 O 337.204 1.26813 -1.19432 0
M  V30 3496 C 334.336 2.4032 -2.41783 0
M  V30 3497 H 335.529 0.667231 -2.92383 0
M  V30 3498 H 333.082 0.311075 -1.53173 0
M  V30 3499 H 333.817 2.84532 -1.55601 0
M  V30 3500 H 333.602 2.23451 -3.22199 0
M  V30 3501 H 335.092 3.11898 -2.77685 0
M  V30 3502 N 335.529 1.53961 0.336706 0
M  V30 3503 C 336.778 1.70751 1.07363 0
M  V30 3504 C 337.091 0.481061 1.89592 0
M  V30 3505 O 338.297 0.530046 2.66276 0
M  V30 3506 C 336.753 3.01965 1.95818 0
M  V30 3507 C 336.361 4.31971 1.18764 0
M  V30 3508 C 338.105 3.28121 2.69327 0
M  V30 3509 C 336.012 5.54255 2.06289 0
M  V30 3510 H 334.942 0.636292 0.404535 0
M  V30 3511 H 337.593 1.80459 0.332681 0
M  V30 3512 H 335.975 2.86132 2.7376 0
M  V30 3513 H 337.149 4.5853 0.456849 0
M  V30 3514 H 335.464 4.12481 0.569946 0
M  V30 3515 H 338.061 4.16673 3.35094 0
M  V30 3516 H 338.404 2.45426 3.36261 0
M  V30 3517 H 338.937 3.44762 1.98454 0
M  V30 3518 H 335.676 6.39513 1.43885 0
M  V30 3519 H 335.196 5.31935 2.77138 0
M  V30 3520 H 336.875 5.90159 2.65182 0
M  V30 3521 N 337.007 -0.598083 1.45811 0
M  V30 3522 C 337.917 -1.73632 1.57763 0
M  V30 3523 C 338.933 -1.67763 0.461676 0
M  V30 3524 O 340.109 -1.87949 0.723685 0
M  V30 3525 C 337.174 -3.10114 1.55018 0
M  V30 3526 C 336.235 -3.27364 2.77726 0
M  V30 3527 C 335.468 -4.57334 2.75102 0
M  V30 3528 O 335.691 -5.40258 1.8297 0
M  V30 3529 O 334.625 -4.77502 3.66437 0
M  V30 3530 H 338.451 -1.66498 2.53992 0
M  V30 3531 H 336.036 -0.763308 1.28429 0
M  V30 3532 H 337.918 -3.9141 1.56129 0
M  V30 3533 H 336.593 -3.17718 0.619431 0
M  V30 3534 H 335.5 -2.45619 2.82174 0
M  V30 3535 H 336.833 -3.24641 3.69958 0
M  V30 3536 N 338.485 -1.33259 -0.841409 0
M  V30 3537 C 339.734 -1.23921 -1.59143 0
M  V30 3538 C 340.047 0.1941 -1.94635 0
M  V30 3539 O 341.253 0.409474 -2.68394 0
M  V30 3540 C 339.709 -2.17119 -2.87032 0
M  V30 3541 C 339.317 -3.65606 -2.58914 0
M  V30 3542 C 341.061 -2.16648 -3.65053 0
M  V30 3543 C 338.968 -4.50726 -3.82884 0
M  V30 3544 H 337.898 -0.460264 -0.597221 0
M  V30 3545 H 340.549 -1.58307 -0.927959 0
M  V30 3546 H 338.931 -1.75663 -3.54906 0
M  V30 3547 H 340.105 -4.15487 -1.99267 0
M  V30 3548 H 338.42 -3.68341 -1.942 0
M  V30 3549 H 341.017 -2.77474 -4.57069 0
M  V30 3550 H 341.36 -1.16088 -3.99787 0
M  V30 3551 H 341.893 -2.56453 -3.041 0
M  V30 3552 H 338.632 -5.52151 -3.53283 0
M  V30 3553 H 338.152 -4.0559 -4.41879 0
M  V30 3554 H 339.831 -4.64401 -4.50489 0
M  V30 3555 N 339.963 1.05934 -1.16686 0
M  V30 3556 C 341.191 1.8249 -0.974929 0
M  V30 3557 C 341.606 1.82679 0.476861 0
M  V30 3558 O 340.963 1.2486 1.33103 0
M  V30 3559 C 341.014 3.28943 -1.49929 0
M  V30 3560 O 340.735 3.28886 -2.89423 0
M  V30 3561 C 342.236 4.22215 -1.35089 0
M  V30 3562 H 339.456 0.575295 -0.345365 0
M  V30 3563 H 342 1.33631 -1.548 0
M  V30 3564 H 340.155 3.751 -0.968423 0
M  V30 3565 H 340.569 4.20493 -3.13506 0
M  V30 3566 H 342.043 5.22987 -1.76603 0
M  V30 3567 H 342.52 4.38195 -0.296935 0
M  V30 3568 H 343.126 3.81907 -1.87155 0
M  V30 3569 N 341.441 0.965919 1.2453 0
M  V30 3570 C 342.666 0.643971 1.97149 0
M  V30 3571 C 343.091 -0.779487 1.71189 0
M  V30 3572 O 342.449 -1.5288 0.974553 0
M  V30 3573 C 342.497 0.922557 3.48599 0
M  V30 3574 O 341.601 0.00707672 4.12399 0
M  V30 3575 H 340.942 0.243647 0.617683 0
M  V30 3576 H 343.472 1.29558 1.58353 0
M  V30 3577 H 343.482 0.853373 3.98976 0
M  V30 3578 H 342.157 1.95996 3.66822 0
M  V30 3579 H 340.734 0.12943 3.72675 0
M  V30 3580 N 342.919 -1.39368 0.735821 0
M  V30 3581 C 343.829 -2.34395 0.0979693 0
M  V30 3582 C 344.845 -1.58361 -0.720968 0
M  V30 3583 O 346.021 -1.90648 -0.649245 0
M  V30 3584 C 343.086 -3.37393 -0.797916 0
M  V30 3585 C 342.147 -4.29287 0.0333662 0
M  V30 3586 C 341.38 -5.27365 -0.819854 0
M  V30 3587 O 341.603 -5.31959 -2.05855 0
M  V30 3588 O 340.537 -6.01389 -0.248079 0
M  V30 3589 H 344.363 -2.90601 0.882315 0
M  V30 3590 H 341.948 -1.40909 0.4965 0
M  V30 3591 H 343.83 -4.00505 -1.31048 0
M  V30 3592 H 342.505 -2.83571 -1.56106 0
M  V30 3593 H 341.412 -3.69395 0.591475 0
M  V30 3594 H 342.745 -4.86317 0.758752 0
M  V30 3595 N 344.397 -0.483516 -1.5 0
M  V30 3596 C 345.674 0.129337 -1.95172 0
M  V30 3597 C 346.054 1.55802 -1.4244 0
M  V30 3598 O 345.402 2.19625 -0.630649 0
M  V30 3599 C 345.612 0.0599251 -3.48949 0
M  V30 3600 C 346.96 0.242617 -4.23906 0
M  V30 3601 O 347.984 0.135933 -3.55941 0
M  V30 3602 O 346.843 0.459454 -5.44565 0
M  V30 3603 H 343.937 0.104887 -0.820322 0
M  V30 3604 H 346.483 -0.544807 -1.60717 0
M  V30 3605 H 345.255 -0.937079 -3.79914 0
M  V30 3606 H 344.878 0.774984 -3.89974 0
M  V30 3607 N 345.875 1.56104 -0.216619 0
M  V30 3608 C 347.291 1.58995 0.13886 0
M  V30 3609 C 347.491 1.23333 1.59346 0
M  V30 3610 O 346.547 0.966234 2.33281 0
M  V30 3611 C 347.86 3.00143 -0.182968 0
M  V30 3612 C 349.408 3.12751 -0.124807 0
M  V30 3613 C 349.883 4.56068 -0.420241 0
M  V30 3614 N 351.374 4.61723 -0.369634 0
M  V30 3615 C 352.109 5.70542 -0.571789 0
M  V30 3616 N 351.605 6.87744 -0.835453 0
M  V30 3617 N 353.398 5.59831 -0.504563 0
M  V30 3618 H 345.549 1.77562 -1.16557 0
M  V30 3619 H 347.812 0.825091 -0.466828 0
M  V30 3620 H 347.518 3.30871 -1.19237 0
M  V30 3621 H 347.392 3.73813 0.504367 0
M  V30 3622 H 349.779 2.81822 0.875223 0
M  V30 3623 H 349.86 2.41421 -0.845544 0
M  V30 3624 H 349.504 4.87713 -1.41769 0
M  V30 3625 H 349.434 5.25617 0.321631 0
M  V30 3626 H 351.925 3.77502 -0.173338 0
M  V30 3627 H 352.238 7.66587 -0.977938 0
M  V30 3628 H 350.583 6.895 -0.872592 0
M  V30 3629 H 353.774 4.67145 -0.298842 0
M  V30 3630 H 353.947 6.44573 -0.665519 0
M  V30 3631 N 347.353 -0.0568162 1.57498 0
M  V30 3632 C 348.6 -0.753104 1.87975 0
M  V30 3633 C 348.928 -1.76815 0.81035 0
M  V30 3634 O 348.183 -1.94756 -0.19199 0
M  V30 3635 C 348.482 -1.48359 3.25153 0
M  V30 3636 C 348.148 -0.60713 4.46794 0
M  V30 3637 C 346.81 -0.365642 4.79809 0
M  V30 3638 C 349.162 -0.000305978 5.212 0
M  V30 3639 C 346.49 0.491905 5.84634 0
M  V30 3640 C 348.842 0.844781 6.26934 0
M  V30 3641 C 347.506 1.096 6.58441 0
M  V30 3642 H 346.776 -0.27558 0.687849 0
M  V30 3643 H 349.423 -0.0135173 1.91495 0
M  V30 3644 H 347.728 -2.29577 3.17492 0
M  V30 3645 H 349.425 -2.02739 3.45974 0
M  V30 3646 H 346.015 -0.805487 4.20963 0
M  V30 3647 H 350.199 -0.173961 4.95995 0
M  V30 3648 H 345.455 0.695131 6.07436 0
M  V30 3649 H 349.629 1.32165 6.83744 0
M  V30 3650 H 347.256 1.76224 7.39492 0
M  V30 3651 N 348.832 -1.54138 -0.328536 0
M  V30 3652 C 350.081 -1.71318 -1.06456 0
M  V30 3653 C 350.394 -0.491109 -1.89334 0
M  V30 3654 O 351.6 -0.54416 -2.65991 0
M  V30 3655 C 350.056 -3.03 -1.94214 0
M  V30 3656 C 349.664 -4.32595 -1.16471 0
M  V30 3657 C 351.408 -3.29544 -2.67583 0
M  V30 3658 C 349.315 -5.55341 -2.03347 0
M  V30 3659 H 348.245 -0.638429 -0.401155 0
M  V30 3660 H 350.896 -1.80633 -0.323106 0
M  V30 3661 H 349.278 -2.87579 -2.72239 0
M  V30 3662 H 350.452 -4.58766 -0.432525 0
M  V30 3663 H 348.767 -4.12777 -0.548063 0
M  V30 3664 H 351.364 -4.18444 -3.3288 0
M  V30 3665 H 351.707 -2.47206 -3.34955 0
M  V30 3666 H 352.24 -3.45809 -1.96623 0
M  V30 3667 H 348.979 -6.40268 -1.40491 0
M  V30 3668 H 348.499 -5.33397 -2.74313 0
M  V30 3669 H 350.178 -5.91557 -2.62049 0
M  V30 3670 N 350.31 0.590341 -1.46126 0
M  V30 3671 C 351.242 1.71427 -1.52136 0
M  V30 3672 C 352.255 1.57542 -0.41042 0
M  V30 3673 O 353.444 1.65106 -0.678389 0
M  V30 3674 C 350.544 3.09605 -1.37834 0
M  V30 3675 C 349.717 3.49566 -2.62912 0
M  V30 3676 C 348.776 4.66773 -2.42918 0
M  V30 3677 O 347.802 4.73019 -3.1661 0
M  V30 3678 N 349.004 5.61161 -1.4859 0
M  V30 3679 H 351.769 1.66728 -2.49042 0
M  V30 3680 H 349.33 0.776113 -1.42085 0
M  V30 3681 H 351.322 3.85796 -1.22243 0
M  V30 3682 H 349.892 3.08714 -0.491393 0
M  V30 3683 H 349.112 2.63158 -2.93499 0
M  V30 3684 H 350.4 3.73028 -3.46017 0
M  V30 3685 H 349.798 5.58844 -0.87808 0
M  V30 3686 H 348.355 6.36814 -1.38965 0
M  V30 3687 N 351.788 1.33704 0.83433 0
M  V30 3688 C 353.018 1.28281 1.6195 0
M  V30 3689 C 353.426 -0.147603 1.88623 0
M  V30 3690 O 352.769 -1.1016 1.47005 0
M  V30 3691 C 352.831 1.99386 2.99141 0
M  V30 3692 C 352.495 3.48681 2.95416 0
M  V30 3693 C 353.492 4.438 2.70809 0
M  V30 3694 C 351.177 3.90925 3.15409 0
M  V30 3695 C 353.171 5.79138 2.66229 0
M  V30 3696 C 350.858 5.26366 3.10454 0
M  V30 3697 C 351.856 6.20284 2.85895 0
M  V30 3698 O 351.544 7.53245 2.80852 0
M  V30 3699 H 351.276 0.44315 0.510484 0
M  V30 3700 H 353.83 1.76711 1.04702 0
M  V30 3701 H 352.06 1.45554 3.58261 0
M  V30 3702 H 353.749 1.87403 3.60049 0
M  V30 3703 H 354.515 4.12485 2.5511 0
M  V30 3704 H 350.394 3.18229 3.33543 0
M  V30 3705 H 353.938 6.52416 2.4698 0
M  V30 3706 H 349.835 5.57304 3.25703 0
M  V30 3707 H 350.603 7.62846 2.96661 0
M  V30 3708 N 353.266 -1.05314 1.17247 0
M  V30 3709 C 354.229 -2.112 0.890357 0
M  V30 3710 C 355.229 -1.60359 -0.118943 0
M  V30 3711 O 356.419 -1.73833 0.113086 0
M  V30 3712 C 353.551 -3.39266 0.333422 0
M  V30 3713 H 354.744 -2.37659 1.82916 0
M  V30 3714 H 352.297 -1.21538 0.982758 0
M  V30 3715 H 353.032 -3.18462 -0.612587 0
M  V30 3716 H 352.817 -3.77477 1.06082 0
M  V30 3717 H 354.307 -4.17315 0.154322 0
M  V30 3718 N 354.744 -0.972509 -1.24016 0
M  V30 3719 C 355.692 -0.498562 -2.27194 0
M  V30 3720 C 356.686 0.440372 -1.63576 0
M  V30 3721 O 357.892 0.315133 -1.7722 0
M  V30 3722 H 354.267 -0.142775 -0.738322 0
M  V30 3723 H 356.238 -1.38065 -2.64539 0
M  V30 3724 C 354.987 0.191072 -3.47175 0
M  V30 3725 H 354.31 -0.522318 -3.96373 0
M  V30 3726 H 355.75 0.486445 -4.212 0
M  V30 3727 C 354.209 1.41967 -3.05527 0
M  V30 3728 O 354.739 2.51642 -3.13112 0
M  V30 3729 N 352.945 1.28746 -2.60524 0
M  V30 3730 H 352.492 0.395089 -2.54552 0
M  V30 3731 H 352.45 2.11061 -2.33025 0
M  V30 3732 N 356.222 1.38976 -0.743202 0
M  V30 3733 C 357.633 1.83123 -0.363732 0
M  V30 3734 C 357.984 1.6205 1.10609 0
M  V30 3735 O 357.109 1.11606 1.854 0
M  V30 3736 C 357.704 3.32439 -0.653408 0
M  V30 3737 C 356.263 3.74974 -0.327338 0
M  V30 3738 C 355.41 2.61878 -0.911875 0
M  V30 3739 H 358.361 1.27852 -0.940191 0
M  V30 3740 H 358.382 3.80432 0.0720031 0
M  V30 3741 H 357.894 3.47745 -1.72323 0
M  V30 3742 H 355.995 3.65252 0.736314 0
M  V30 3743 H 356.108 4.72106 -0.815631 0
M  V30 3744 H 354.472 2.52448 -0.337944 0
M  V30 3745 H 355.255 2.79987 -1.98651 0
M  V30 3746 N 357.7 0.491464 1.49741 0
M  V30 3747 C 358.663 -0.280906 2.27472 0
M  V30 3748 C 359.663 -0.902454 1.33088 0
M  V30 3749 O 360.853 -0.768465 1.56334 0
M  V30 3750 C 357.985 -1.40209 3.10732 0
M  V30 3751 H 359.178 0.401056 2.97206 0
M  V30 3752 H 356.731 0.246131 1.5435 0
M  V30 3753 H 357.466 -2.11849 2.45541 0
M  V30 3754 H 357.251 -0.961969 3.80117 0
M  V30 3755 H 358.741 -1.9464 3.69466 0
M  V30 3756 N 359.178 -1.55987 0.224894 0
M  V30 3757 C 360.425 -1.9839 -0.4059 0
M  V30 3758 C 360.753 -1.11261 -1.59535 0
M  V30 3759 O 360.008 -0.158314 -1.95059 0
M  V30 3760 C 360.307 -3.46394 -0.880106 0
M  V30 3761 C 359.973 -4.5046 0.19918 0
M  V30 3762 C 358.635 -4.7864 0.495661 0
M  V30 3763 C 360.987 -5.12855 0.928939 0
M  V30 3764 C 358.315 -5.66497 1.52636 0
M  V30 3765 C 360.667 -6.01828 1.949 0
M  V30 3766 C 359.331 -6.28351 2.25236 0
M  V30 3767 H 358.601 -0.725961 -0.148529 0
M  V30 3768 H 361.248 -1.88668 0.328113 0
M  V30 3769 H 359.553 -3.53337 -1.69294 0
M  V30 3770 H 361.25 -3.76577 -1.37808 0
M  V30 3771 H 357.84 -4.28579 -0.0420526 0
M  V30 3772 H 362.024 -4.9115 0.713129 0
M  V30 3773 H 357.28 -5.8531 1.76698 0
M  V30 3774 H 361.454 -6.49225 2.51951 0
M  V30 3775 H 359.081 -6.96226 3.05244 0
M  V30 3776 N 360.656 0.0484629 -1.57525 0
M  V30 3777 C 361.566 1.07241 -2.08654 0
M  V30 3778 C 362.582 1.409 -1.02095 0
M  V30 3779 O 363.758 1.50609 -1.33712 0
M  V30 3780 C 360.823 2.36008 -2.5397 0
M  V30 3781 C 359.884 2.09108 -3.7493 0
M  V30 3782 C 359.117 3.31736 -4.18075 0
M  V30 3783 O 359.34 4.41714 -3.60895 0
M  V30 3784 O 358.274 3.18576 -5.10679 0
M  V30 3785 H 362.1 0.667965 -2.96263 0
M  V30 3786 H 359.685 0.26417 -1.47046 0
M  V30 3787 H 361.567 3.11747 -2.83535 0
M  V30 3788 H 360.242 2.75786 -1.69481 0
M  V30 3789 H 359.149 1.31 -3.50414 0
M  V30 3790 H 360.482 1.74198 -4.60343 0
M  V30 3791 N 362.134 1.5431 0.320358 0
M  V30 3792 C 363.362 1.76636 1.07738 0
M  V30 3793 C 363.777 0.51649 1.81598 0
M  V30 3794 O 363.134 -0.512942 1.75143 0
M  V30 3795 C 363.185 2.96158 2.07299 0
M  V30 3796 O 362.906 4.16313 1.36438 0
M  V30 3797 C 364.407 3.3072 2.95193 0
M  V30 3798 H 361.627 0.589597 0.320339 0
M  V30 3799 H 364.171 2.01207 0.36551 0
M  V30 3800 H 362.326 2.73851 2.74016 0
M  V30 3801 H 362.74 4.83565 2.03138 0
M  V30 3802 H 364.214 4.17643 3.60941 0
M  V30 3803 H 364.691 2.48026 3.62463 0
M  V30 3804 H 365.297 3.55117 2.34034 0
M  V30 3805 N 363.613 -0.582584 1.46437 0
M  V30 3806 C 364.841 -1.36682 1.55324 0
M  V30 3807 C 365.256 -1.87796 0.194409 0
M  V30 3808 O 364.613 -1.63623 -0.808318 0
M  V30 3809 C 364.664 -2.55426 2.55812 0
M  V30 3810 O 364.385 -2.0643 3.86417 0
M  V30 3811 C 365.886 -3.47976 2.74641 0
M  V30 3812 H 363.106 -0.417545 0.525259 0
M  V30 3813 H 365.65 -0.708219 1.91845 0
M  V30 3814 H 363.805 -3.17275 2.22295 0
M  V30 3815 H 364.219 -2.83762 4.41111 0
M  V30 3816 H 365.693 -4.27775 3.48874 0
M  V30 3817 H 366.17 -3.99919 1.81553 0
M  V30 3818 H 366.776 -2.91962 3.09255 0
M  V30 3819 N 365.091 -1.34144 -0.827227 0
M  V30 3820 C 366.024 -1.19707 -1.94282 0
M  V30 3821 C 367.002 -0.0897256 -1.62352 0
M  V30 3822 O 368.186 -0.254095 -1.8678 0
M  V30 3823 C 365.313 -0.838646 -3.28153 0
M  V30 3824 C 364.359 -1.95514 -3.79047 0
M  V30 3825 S 365.192 -3.56793 -3.99323 0
M  V30 3826 C 366.348 -3.22983 -5.36127 0
M  V30 3827 H 366.581 -2.1414 -2.06231 0
M  V30 3828 H 364.114 -1.19121 -0.982321 0
M  V30 3829 H 366.072 -0.638637 -4.05502 0
M  V30 3830 H 364.733 0.0872776 -3.13979 0
M  V30 3831 H 363.926 -1.658 -4.75948 0
M  V30 3832 H 363.528 -2.11241 -3.08631 0
M  V30 3833 H 365.82 -2.74531 -6.19386 0
M  V30 3834 H 366.763 -4.19008 -5.70822 0
M  V30 3835 H 367.171 -2.59276 -5.01434 0
M  V30 3836 N 366.569 1.04691 -1.17803 0
M  V30 3837 C 367.817 1.7743 -0.967617 0
M  V30 3838 C 368.138 1.88359 0.504574 0
M  V30 3839 O 367.408 1.40402 1.36617 0
M  V30 3840 H 365.988 0.657242 -0.355024 0
M  V30 3841 H 368.65 1.2638 -1.48371 0
M  V30 3842 H 367.746 2.78924 -1.40027 0
M  V30 3843 N 368.047 0.979072 1.23499 0
M  V30 3844 C 369.277 0.664237 1.95631 0
M  V30 3845 C 369.685 -0.772653 1.72704 0
M  V30 3846 O 369.028 -1.53141 1.01457 0
M  V30 3847 C 369.09 0.873115 3.48736 0
M  V30 3848 C 368.754 2.29182 3.95379 0
M  V30 3849 C 369.751 3.2704 4.04155 0
M  V30 3850 C 367.436 2.62256 4.28401 0
M  V30 3851 C 369.43 4.56052 4.45304 0
M  V30 3852 C 367.117 3.91491 4.69231 0
M  V30 3853 C 368.115 4.88201 4.77649 0
M  V30 3854 O 367.803 6.15129 5.17563 0
M  V30 3855 H 367.535 0.245915 0.629684 0
M  V30 3856 H 370.089 1.3127 1.57979 0
M  V30 3857 H 368.319 0.167476 3.86337 0
M  V30 3858 H 370.008 0.555642 4.02079 0
M  V30 3859 H 370.774 3.02819 3.78848 0
M  V30 3860 H 366.653 1.87692 4.21061 0
M  V30 3861 H 370.197 5.31538 4.51789 0
M  V30 3862 H 366.094 4.15508 4.93987 0
M  V30 3863 H 366.862 6.18862 5.35679 0
M  V30 3864 N 369.525 -1.3858 0.750561 0
M  V30 3865 C 370.457 -2.29057 0.0810714 0
M  V30 3866 C 371.47 -1.47596 -0.686973 0
M  V30 3867 O 372.659 -1.70495 -0.528563 0
M  V30 3868 C 369.759 -3.26475 -0.909247 0
M  V30 3869 C 368.932 -4.36945 -0.199478 0
M  V30 3870 C 367.991 -5.14572 -1.10011 0
M  V30 3871 O 367.017 -5.66321 -0.57177 0
M  V30 3872 N 368.219 -5.27262 -2.42849 0
M  V30 3873 H 370.984 -2.87153 0.858087 0
M  V30 3874 H 368.545 -1.50328 0.60109 0
M  V30 3875 H 370.537 -3.75285 -1.51471 0
M  V30 3876 H 369.107 -2.69298 -1.58736 0
M  V30 3877 H 368.327 -3.8981 0.586664 0
M  V30 3878 H 369.615 -5.07963 0.291783 0
M  V30 3879 H 369.013 -4.86763 -2.88233 0
M  V30 3880 H 367.57 -5.79456 -2.98453 0
M  V30 3881 N 371.003 -0.499398 -1.49478 0
M  V30 3882 C 372.228 0.044722 -2.07352 0
M  V30 3883 C 372.653 1.30207 -1.35749 0
M  V30 3884 O 372.011 1.76516 -0.413732 0
M  V30 3885 C 372.059 0.283013 -3.59488 0
M  V30 3886 O 371.163 1.35804 -3.89398 0
M  V30 3887 H 370.504 -0.0255147 -0.66351 0
M  V30 3888 H 373.034 -0.698561 -1.92305 0
M  V30 3889 H 373.044 0.515007 -4.04737 0
M  V30 3890 H 371.719 -0.635636 -4.11014 0
M  V30 3891 H 370.296 1.11113 -3.55961 0
M  V30 3892 N 372.481 1.55866 -0.233164 0
M  V30 3893 C 373.729 1.9821 0.394593 0
M  V30 3894 C 374.05 1.12234 1.59463 0
M  V30 3895 O 373.32 0.201981 1.94856 0
M  V30 3896 H 371.9 0.732034 0.148778 0
M  V30 3897 H 374.562 1.92107 -0.32876 0
M  V30 3898 H 373.658 3.03845 0.713063 0
M  V30 3899 N 373.959 -0.0401083 1.57549 0
M  V30 3900 C 374.869 -1.06133 2.0922 0
M  V30 3901 C 375.885 -1.40356 1.0284 0
M  V30 3902 O 377.061 -1.49897 1.34509 0
M  V30 3903 C 374.126 -2.34658 2.55218 0
M  V30 3904 C 373.187 -2.07117 3.76033 0
M  V30 3905 C 372.42 -3.29514 4.19829 0
M  V30 3906 O 372.643 -4.39794 3.63232 0
M  V30 3907 O 371.577 -3.15863 5.12362 0
M  V30 3908 H 375.403 -0.652244 2.96613 0
M  V30 3909 H 372.988 -0.256368 1.47184 0
M  V30 3910 H 374.87 -3.10239 2.85184 0
M  V30 3911 H 373.545 -2.74883 1.70941 0
M  V30 3912 H 372.452 -1.29139 3.51104 0
M  V30 3913 H 373.785 -1.71754 4.61261 0
M  V30 3914 N 375.437 -1.54477 -0.31217 0
M  V30 3915 C 376.367 -1.87652 -1.38957 0
M  V30 3916 C 377.348 -0.734358 -1.53431 0
M  V30 3917 O 378.533 -0.98911 -1.67123 0
M  V30 3918 C 375.663 -2.11396 -2.75552 0
M  V30 3919 C 374.617 -3.27243 -2.75855 0
M  V30 3920 C 373.943 -3.36382 -4.15633 0
M  V30 3921 C 375.243 -4.64622 -2.38587 0
M  V30 3922 H 376.937 -2.77887 -1.11442 0
M  V30 3923 H 374.483 -1.33707 -0.534655 0
M  V30 3924 H 376.436 -2.33189 -3.51 0
M  V30 3925 H 375.16 -1.17921 -3.04569 0
M  V30 3926 H 373.819 -3.05356 -2.02863 0
M  V30 3927 H 373.467 -2.40445 -4.41809 0
M  V30 3928 H 373.167 -4.14249 -4.1674 0
M  V30 3929 H 374.691 -3.60422 -4.92877 0
M  V30 3930 H 376.105 -4.86219 -3.03749 0
M  V30 3931 H 374.502 -5.45121 -2.50925 0
M  V30 3932 H 375.572 -4.66097 -1.33723 0
M  V30 3933 N 376.915 0.57481 -1.46744 0
M  V30 3934 C 378.164 1.32898 -1.51727 0
M  V30 3935 C 378.477 1.948 -0.176692 0
M  V30 3936 O 379.683 2.71299 -0.104385 0
M  V30 3937 C 378.139 2.40901 -2.67385 0
M  V30 3938 C 377.747 1.85266 -4.07898 0
M  V30 3939 C 379.491 3.17609 -2.81646 0
M  V30 3940 C 377.398 2.90945 -5.14883 0
M  V30 3941 H 376.328 0.499631 -0.564699 0
M  V30 3942 H 378.979 0.612536 -1.72975 0
M  V30 3943 H 377.361 3.15379 -2.39483 0
M  V30 3944 H 378.535 1.17278 -4.45626 0
M  V30 3945 H 376.85 1.21199 -3.98371 0
M  V30 3946 H 379.447 3.96493 -3.58744 0
M  V30 3947 H 379.79 3.70696 -1.89448 0
M  V30 3948 H 380.323 2.50239 -3.09233 0
M  V30 3949 H 377.062 2.42736 -6.089 0
M  V30 3950 H 376.582 3.57398 -4.81691 0
M  V30 3951 H 378.261 3.54755 -5.41071 0
M  V30 3952 N 378.394 1.34581 0.820102 0
M  V30 3953 C 379.642 1.26845 1.57336 0
M  V30 3954 C 379.963 -0.160667 1.94337 0
M  V30 3955 O 379.233 -1.09396 1.6251 0
M  V30 3956 H 377.813 0.466514 0.583415 0
M  V30 3957 H 380.475 1.68526 0.979027 0
M  V30 3958 H 379.571 1.87513 2.4949 0
M  V30 3959 N 379.872 -1.04064 1.18357 0
M  V30 3960 C 380.819 -2.12077 0.910603 0
M  V30 3961 C 381.789 -1.65421 -0.15 0
M  V30 3962 O 382.974 -1.90797 -0.0103614 0
M  V30 3963 C 380.114 -3.42252 0.442472 0
M  V30 3964 C 379.227 -4.0252 1.5685 0
M  V30 3965 C 378.362 -5.20657 1.05309 0
M  V30 3966 C 377.401 -5.72955 2.1538 0
M  V30 3967 N 376.538 -6.8238 1.65233 0
M  V30 3968 H 381.378 -2.34764 1.83548 0
M  V30 3969 H 378.915 -1.15157 0.915279 0
M  V30 3970 H 380.873 -4.16921 0.152534 0
M  V30 3971 H 379.503 -3.19712 -0.445428 0
M  V30 3972 H 378.555 -3.25178 1.97391 0
M  V30 3973 H 379.867 -4.37362 2.39824 0
M  V30 3974 H 379.021 -6.0244 0.717677 0
M  V30 3975 H 377.76 -4.87318 0.19293 0
M  V30 3976 H 376.765 -4.89793 2.49766 0
M  V30 3977 H 377.99 -6.08337 3.01832 0
M  V30 3978 H 375.936 -6.50917 0.815064 0
M  V30 3979 H 375.853 -7.16286 2.41805 0
M  V30 3980 H 377.121 -7.67788 1.34619 0
M  V30 3981 N 381.35 -0.985608 -1.22978 0
M  V30 3982 C 382.26 -0.538548 -2.28335 0
M  V30 3983 C 383.276 0.409163 -1.69121 0
M  V30 3984 O 384.452 0.277797 -1.99475 0
M  V30 3985 C 381.517 0.146867 -3.46389 0
M  V30 3986 C 380.578 -0.842896 -4.20944 0
M  V30 3987 C 379.811 -0.190095 -5.33361 0
M  V30 3988 O 380.034 1.01767 -5.61248 0
M  V30 3989 O 378.968 -0.891289 -5.95264 0
M  V30 3990 H 382.794 -1.41487 -2.68729 0
M  V30 3991 H 380.379 -0.753495 -1.29007 0
M  V30 3992 H 382.261 0.531125 -4.1804 0
M  V30 3993 H 380.936 0.997871 -3.07935 0
M  V30 3994 H 379.843 -1.27795 -3.51595 0
M  V30 3995 H 381.176 -1.66287 -4.6326 0
M  V30 3996 N 382.828 1.3818 -0.7579 0
M  V30 3997 C 383.758 2.33027 -0.148597 0
M  V30 3998 C 384.739 1.55085 0.69875 0
M  V30 3999 O 385.924 1.83384 0.639053 0
M  V30 4000 C 383.054 3.3928 0.742034 0
M  V30 4001 C 382.008 4.28 -0.00291946 0
M  V30 4002 C 381.334 5.25146 1.00625 0
M  V30 4003 C 382.634 5.08938 -1.17385 0
M  V30 4004 H 384.328 2.84231 -0.940909 0
M  V30 4005 H 381.874 1.36659 -0.453908 0
M  V30 4006 H 383.827 4.046 1.17799 0
M  V30 4007 H 382.551 2.86569 1.56671 0
M  V30 4008 H 381.21 3.64192 -0.419504 0
M  V30 4009 H 380.858 4.68721 1.8251 0
M  V30 4010 H 380.558 5.85361 0.512428 0
M  V30 4011 H 382.082 5.93342 1.44143 0
M  V30 4012 H 383.496 5.67474 -0.815224 0
M  V30 4013 H 381.893 5.7841 -1.59882 0
M  V30 4014 H 382.963 4.42424 -1.98468 0
M  V30 4015 N 384.306 0.507319 1.49211 0
M  V30 4016 C 385.554 -0.0348839 2.0207 0
M  V30 4017 C 385.875 -1.36898 1.38866 0
M  V30 4018 O 385.145 -1.88133 0.546151 0
M  V30 4019 H 383.725 -0.0158812 0.746831 0
M  V30 4020 H 386.387 0.665998 1.83168 0
M  V30 4021 H 385.483 -0.159917 3.1169 0
M  V30 4022 N 385.784 -1.5574 0.241426 0
M  V30 4023 C 386.694 -2.2479 -0.671305 0
M  V30 4024 C 387.71 -1.26217 -1.19772 0
M  V30 4025 O 388.886 -1.59079 -1.23514 0
M  V30 4026 C 385.951 -2.92966 -1.85396 0
M  V30 4027 C 385.012 -4.06935 -1.36756 0
M  V30 4028 C 384.245 -4.71851 -2.49384 0
M  V30 4029 O 384.468 -4.35823 -3.67987 0
M  V30 4030 O 383.402 -5.60467 -2.19454 0
M  V30 4031 H 387.228 -3.0349 -0.112966 0
M  V30 4032 H 384.813 -1.49397 0.0101513 0
M  V30 4033 H 386.695 -3.35927 -2.54423 0
M  V30 4034 H 385.37 -2.17211 -2.40002 0
M  V30 4035 H 384.277 -3.68503 -0.644726 0
M  V30 4036 H 385.61 -4.84492 -0.867647 0
M  V30 4037 N 387.262 0.0317525 -1.57568 0
M  V30 4038 C 388.508 0.724175 -1.8943 0
M  V30 4039 C 388.841 1.75149 -0.838836 0
M  V30 4040 O 388.116 1.93948 0.146422 0
M  V30 4041 C 388.399 1.39615 -3.31933 0
M  V30 4042 C 388.252 0.382537 -4.4817 0
M  V30 4043 C 389.571 2.33084 -3.73309 0
M  V30 4044 H 386.69 0.261797 -0.688935 0
M  V30 4045 H 389.332 -0.013017 -1.89996 0
M  V30 4046 H 387.482 2.02451 -3.31581 0
M  V30 4047 H 389.154 -0.243689 -4.60656 0
M  V30 4048 H 387.397 -0.29844 -4.32772 0
M  V30 4049 H 388.068 0.891145 -5.44759 0
M  V30 4050 H 390.544 1.80295 -3.7501 0
M  V30 4051 H 389.42 2.77084 -4.73831 0
M  V30 4052 H 389.681 3.19643 -3.05419 0
M  V30 4053 N 388.74 1.54641 0.303973 0
M  V30 4054 C 390.151 1.64811 0.877163 0
M  V30 4055 C 390.502 0.554838 1.88191 0
M  V30 4056 O 389.627 -0.309033 2.14182 0
M  V30 4057 C 390.222 2.9876 1.59775 0
M  V30 4058 C 388.781 3.11061 2.11938 0
M  V30 4059 C 387.928 2.60479 0.951097 0
M  V30 4060 H 390.879 1.58493 0.0810486 0
M  V30 4061 H 390.9 2.90017 2.46314 0
M  V30 4062 H 390.412 3.7831 0.866226 0
M  V30 4063 H 388.513 2.36225 2.88146 0
M  V30 4064 H 388.626 4.17171 2.35595 0
M  V30 4065 H 386.99 2.16859 1.33583 0
M  V30 4066 H 387.773 3.42504 0.233581 0
M  V30 4067 N 390.218 -0.567019 1.47046 0
M  V30 4068 C 391.467 -1.32091 1.5243 0
M  V30 4069 C 391.78 -1.94704 0.187021 0
M  V30 4070 O 392.986 -2.7124 0.118771 0
M  V30 4071 C 391.442 -2.39479 2.68659 0
M  V30 4072 C 391.05 -1.831 4.08874 0
M  V30 4073 C 392.794 -3.16111 2.83327 0
M  V30 4074 C 390.701 -2.8821 5.16419 0
M  V30 4075 H 389.631 -0.496629 0.56734 0
M  V30 4076 H 392.282 -0.603354 1.73297 0
M  V30 4077 H 390.664 -3.14105 2.41152 0
M  V30 4078 H 391.838 -1.14913 4.46242 0
M  V30 4079 H 390.153 -1.19085 3.99008 0
M  V30 4080 H 392.75 -3.94585 3.60842 0
M  V30 4081 H 393.093 -3.69686 1.91411 0
M  V30 4082 H 393.626 -2.48595 3.10556 0
M  V30 4083 H 390.365 -2.39504 6.10179 0
M  V30 4084 H 389.885 -3.54839 4.8358 0
M  V30 4085 H 391.564 -3.51881 5.42945 0
M  V30 4086 N 391.696 -1.35014 -0.812953 0
M  V30 4087 C 392.644 -1.27435 -1.94585 0
M  V30 4088 C 393.638 -0.170494 -1.6854 0
M  V30 4089 O 394.844 -0.336085 -1.76835 0
M  V30 4090 H 391.219 -0.396144 -0.639198 0
M  V30 4091 H 393.19 -2.23158 -1.98098 0
M  V30 4092 C 391.939 -1.05677 -3.31252 0
M  V30 4093 H 391.262 -1.89853 -3.51846 0
M  V30 4094 H 392.702 -1.04413 -4.10943 0
M  V30 4095 C 391.161 0.239615 -3.36047 0
M  V30 4096 O 391.691 1.23759 -3.8216 0
M  V30 4097 N 389.897 0.276186 -2.89285 0
M  V30 4098 H 389.444 -0.53653 -2.51951 0
M  V30 4099 H 389.402 1.14332 -2.92875 0
M  V30 4100 N 393.175 1.03435 -1.18907 0
M  V30 4101 C 394.085 2.15075 -0.937015 0
M  V30 4102 C 395.101 1.73706 0.101085 0
M  V30 4103 O 396.277 2.01232 -0.0822948 0
M  V30 4104 C 393.342 3.43458 -0.473057 0
M  V30 4105 C 392.403 3.99172 -1.57989 0
M  V30 4106 C 391.636 5.21427 -1.13797 0
M  V30 4107 O 391.859 5.704 0.000725941 0
M  V30 4108 O 390.793 5.69837 -1.9383 0
M  V30 4109 H 394.619 2.39198 -1.87131 0
M  V30 4110 H 392.204 1.13506 -0.971427 0
M  V30 4111 H 394.086 4.20811 -0.222702 0
M  V30 4112 H 392.761 3.20793 0.432869 0
M  V30 4113 H 391.668 3.23178 -1.88433 0
M  V30 4114 H 393.001 4.2619 -2.46217 0
M  V30 4115 N 394.653 0.992116 1.22453 0
M  V30 4116 C 395.6 0.541731 2.24352 0
M  V30 4117 C 396.57 -0.425519 1.60557 0
M  V30 4118 O 397.755 -0.330453 1.87917 0
M  V30 4119 C 394.895 -0.138248 3.44823 0
M  V30 4120 C 394.008 0.870649 4.23136 0
M  V30 4121 C 393.143 0.164269 5.30946 0
M  V30 4122 C 392.182 1.16159 6.00977 0
M  V30 4123 N 391.319 0.483568 7.00433 0
M  V30 4124 H 396.159 1.41541 2.62241 0
M  V30 4125 H 393.696 0.709013 1.28885 0
M  V30 4126 H 395.654 -0.5494 4.13567 0
M  V30 4127 H 394.284 -0.975721 3.077 0
M  V30 4128 H 393.336 1.40013 3.53696 0
M  V30 4129 H 394.648 1.63014 4.7141 0
M  V30 4130 H 393.802 -0.303653 6.0594 0
M  V30 4131 H 392.541 -0.627733 4.83643 0
M  V30 4132 H 391.546 1.64015 5.24766 0
M  V30 4133 H 392.771 1.95445 6.50368 0
M  V30 4134 H 390.717 -0.289012 6.55363 0
M  V30 4135 H 390.634 1.18152 7.4671 0
M  V30 4136 H 391.902 0.0384219 7.79491 0
M  V30 4137 N 396.131 -1.37776 0.765217 0
M  V30 4138 C 397.078 -2.30342 0.145274 0
M  V30 4139 C 398.048 -1.5077 -0.696971 0
M  V30 4140 O 399.233 -1.79362 -0.650689 0
M  V30 4141 C 396.373 -3.37227 -0.732939 0
M  V30 4142 C 395.486 -4.31819 0.125199 0
M  V30 4143 C 394.621 -5.25777 -0.757107 0
M  V30 4144 C 393.66 -6.12012 0.103963 0
M  V30 4145 N 392.797 -6.98232 -0.735953 0
M  V30 4146 H 397.637 -2.8278 0.940195 0
M  V30 4147 H 395.174 -1.39211 0.475255 0
M  V30 4148 H 397.132 -3.97818 -1.25686 0
M  V30 4149 H 395.762 -2.86171 -1.49353 0
M  V30 4150 H 394.814 -3.7259 0.766865 0
M  V30 4151 H 396.126 -4.92509 0.789683 0
M  V30 4152 H 395.28 -5.91541 -1.34776 0
M  V30 4153 H 394.019 -4.65481 -1.45529 0
M  V30 4154 H 393.024 -5.45233 0.707197 0
M  V30 4155 H 394.249 -6.74379 0.799381 0
M  V30 4156 H 392.195 -6.40472 -1.41887 0
M  V30 4157 H 392.112 -7.55891 -0.128624 0
M  V30 4158 H 393.38 -7.68393 -1.31121 0
M  V30 4159 N 397.609 -0.515225 -1.4894 0
M  V30 4160 C 398.572 0.244681 -2.2789 0
M  V30 4161 C 399.572 0.881166 -1.34507 0
M  V30 4162 O 400.762 0.743497 -1.57537 0
M  V30 4163 C 397.894 1.35247 -3.12923 0
M  V30 4164 H 399.087 -0.448289 -2.96531 0
M  V30 4165 H 396.64 -0.270656 -1.53939 0
M  V30 4166 H 397.375 2.07916 -2.48881 0
M  V30 4167 H 397.16 0.901374 -3.81599 0
M  V30 4168 H 398.65 1.88737 -3.72516 0
M  V30 4169 N 399.087 1.5561 -0.249682 0
M  V30 4170 C 400.364 1.90932 0.424761 0
M  V30 4171 C 400.744 1.17078 1.75658 0
M  V30 4172 O 400.092 0.289176 2.26663 0
M  V30 4173 C 400.302 3.43975 0.590109 0
M  V30 4174 C 401.65 4.15281 0.884714 0
M  V30 4175 O 402.674 3.49729 0.67587 0
M  V30 4176 O 401.533 5.31236 1.28259 0
M  V30 4177 H 398.627 0.794815 0.228468 0
M  V30 4178 H 401.173 1.67135 -0.293954 0
M  V30 4179 H 399.945 3.89748 -0.34818 0
M  V30 4180 H 399.568 3.73644 1.35926 0
M  V30 4181 N 400.565 -0.0233959 1.57583 0
M  V30 4182 C 401.495 -1.02162 2.09965 0
M  V30 4183 C 402.476 -1.3735 1.00344 0
M  V30 4184 O 403.661 -1.46135 1.27899 0
M  V30 4185 C 400.791 -2.32081 2.58371 0
M  V30 4186 C 399.745 -2.1112 3.72307 0
M  V30 4187 C 399.071 -3.46848 4.06941 0
M  V30 4188 C 400.371 -1.49276 5.00514 0
M  V30 4189 H 402.065 -0.585557 2.93618 0
M  V30 4190 H 399.611 -0.280218 1.41247 0
M  V30 4191 H 401.564 -3.02249 2.93639 0
M  V30 4192 H 400.288 -2.77758 1.71808 0
M  V30 4193 H 398.947 -1.43384 3.37397 0
M  V30 4194 H 398.595 -3.90184 3.17436 0
M  V30 4195 H 398.295 -3.33646 4.83688 0
M  V30 4196 H 399.819 -4.18369 4.44747 0
M  V30 4197 H 401.233 -2.09368 5.33702 0
M  V30 4198 H 399.63 -1.46632 5.8191 0
M  V30 4199 H 400.7 -0.459217 4.82721 0
M  V30 4200 N 402.043 -1.548 -0.295768 0
M  V30 4201 C 402.973 -1.89115 -1.36959 0
M  V30 4202 C 403.954 -0.75059 -1.52644 0
M  V30 4203 O 405.139 -1.00678 -1.66065 0
M  V30 4204 C 402.269 -2.14307 -2.73295 0
M  V30 4205 C 401.223 -3.30151 -2.72368 0
M  V30 4206 C 400.549 -3.40772 -4.12042 0
M  V30 4207 C 401.849 -4.67126 -2.33646 0
M  V30 4208 H 403.543 -2.79053 -1.08488 0
M  V30 4209 H 401.089 -1.34266 -0.520443 0
M  V30 4210 H 403.042 -2.36898 -3.48507 0
M  V30 4211 H 401.766 -1.21145 -3.03301 0
M  V30 4212 H 400.425 -3.0749 -1.99613 0
M  V30 4213 H 400.073 -2.45117 -4.39234 0
M  V30 4214 H 399.773 -4.18645 -4.12322 0
M  V30 4215 H 401.297 -3.6563 -4.89027 0
M  V30 4216 H 402.711 -4.89414 -2.98575 0
M  V30 4217 H 401.108 -5.47751 -2.45129 0
M  V30 4218 H 402.178 -4.67489 -1.28772 0
M  V30 4219 N 403.521 0.559213 -1.47345 0
M  V30 4220 C 404.798 1.31997 -1.44348 0
M  V30 4221 C 405.178 2.1064 -0.139358 0
M  V30 4222 O 404.526 2.1091 0.879153 0
M  V30 4223 C 404.736 2.22618 -2.68779 0
M  V30 4224 C 406.084 2.83701 -3.1591 0
M  V30 4225 O 407.108 2.32921 -2.69493 0
M  V30 4226 O 405.967 3.75993 -3.966 0
M  V30 4227 H 403.061 0.594251 -0.575147 0
M  V30 4228 H 405.607 0.578282 -1.59543 0
M  V30 4229 H 404.379 1.64093 -3.55231 0
M  V30 4230 H 404.002 3.04085 -2.5616 0
M  V30 4231 N 404.999 1.35443 0.805782 0
M  V30 4232 C 406.227 1.31878 1.59423 0
M  V30 4233 C 406.642 -0.103562 1.88516 0
M  V30 4234 O 405.999 -1.05575 1.48863 0
M  V30 4235 C 406.05 2.12426 2.92502 0
M  V30 4236 O 405.771 3.49115 2.6467 0
M  V30 4237 C 407.272 2.16455 3.86862 0
M  V30 4238 H 404.492 0.453002 0.495005 0
M  V30 4239 H 407.036 1.78309 1.00131 0
M  V30 4240 H 405.191 1.69593 3.48306 0
M  V30 4241 H 405.605 3.90957 3.49647 0
M  V30 4242 H 407.079 2.77204 4.77349 0
M  V30 4243 H 407.556 1.16352 4.23508 0
M  V30 4244 H 408.162 2.59453 3.36993 0
M  V30 4245 N 406.477 -1.02803 1.19454 0
M  V30 4246 C 407.726 -1.7562 0.991996 0
M  V30 4247 C 408.039 -1.89672 -0.477901 0
M  V30 4248 O 409.245 -2.59468 -0.799287 0
M  V30 4249 C 407.701 -3.15812 1.72601 0
M  V30 4250 C 407.309 -3.0981 3.23607 0
M  V30 4251 C 409.053 -3.92918 1.60674 0
M  V30 4252 C 406.96 -4.44939 3.89594 0
M  V30 4253 H 405.89 -0.658352 0.367543 0
M  V30 4254 H 408.541 -1.15044 1.42959 0
M  V30 4255 H 406.923 -3.7686 1.21624 0
M  V30 4256 H 408.097 -2.58138 3.81709 0
M  V30 4257 H 406.412 -2.46201 3.35819 0
M  V30 4258 H 409.009 -4.9287 2.07323 0
M  V30 4259 H 409.352 -4.12502 0.561025 0
M  V30 4260 H 409.885 -3.38472 2.09001 0
M  V30 4261 H 406.624 -4.30559 4.94267 0
M  V30 4262 H 406.144 -4.96664 3.36281 0
M  V30 4263 H 407.823 -5.1382 3.93189 0
M  V30 4264 N 407.956 -0.998596 -1.21925 0
M  V30 4265 C 408.904 -0.546641 -2.26085 0
M  V30 4266 C 409.898 0.405576 -1.64473 0
M  V30 4267 O 411.104 0.277471 -1.77849 0
M  V30 4268 H 407.479 -0.158403 -0.735127 0
M  V30 4269 H 409.45 -1.43645 -2.61551 0
M  V30 4270 C 408.199 0.117388 -3.47502 0
M  V30 4271 H 407.522 -0.606277 -3.95176 0
M  V30 4272 H 408.962 0.396993 -4.22137 0
M  V30 4273 C 407.421 1.35455 -3.0847 0
M  V30 4274 O 407.951 2.44944 -3.18379 0
M  V30 4275 N 406.157 1.23191 -2.63196 0
M  V30 4276 H 405.704 0.341006 -2.55333 0
M  V30 4277 H 405.662 2.06071 -2.37449 0
M  V30 4278 N 409.434 1.37368 -0.772513 0
M  V30 4279 C 410.659 2.0447 -0.347386 0
M  V30 4280 C 411.084 1.57882 1.0225 0
M  V30 4281 O 410.442 0.73941 1.65537 0
M  V30 4282 C 410.49 3.58369 -0.400479 0
M  V30 4283 O 409.594 4.0803 0.598789 0
M  V30 4284 H 408.935 0.646773 -0.15027 0
M  V30 4285 H 411.465 1.75667 -1.04892 0
M  V30 4286 H 411.475 4.07183 -0.258045 0
M  V30 4287 H 410.15 3.91633 -1.39986 0
M  V30 4288 H 408.727 3.70534 0.419411 0
M  V30 4289 N 410.912 0.523116 1.48665 0
M  V30 4290 C 412.152 -0.0115588 2.04397 0
M  V30 4291 C 412.516 -1.32225 1.39214 0
M  V30 4292 O 413.717 -1.94253 1.85793 0
M  V30 4293 C 411.988 -0.138119 3.57133 0
M  V30 4294 S 413.547 -0.623849 4.34343 0
M  V30 4295 H 410.365 0.00877706 0.710946 0
M  V30 4296 H 412.967 0.702116 1.82457 0
M  V30 4297 H 411.671 0.820748 4.02109 0
M  V30 4298 H 411.202 -0.876377 3.83514 0
M  V30 4299 H 413.217 -1.8895 4.58816 0
M  V30 4300 N 412.39 -1.55475 0.257931 0
M  V30 4301 C 413.639 -1.98383 -0.364275 0
M  V30 4302 C 413.952 -1.14952 -1.58258 0
M  V30 4303 O 415.158 -1.47924 -2.27664 0
M  V30 4304 C 413.614 -3.53037 -0.699479 0
M  V30 4305 C 413.222 -4.45223 0.498046 0
M  V30 4306 C 414.966 -4.04575 -1.28526 0
M  V30 4307 C 412.873 -5.91238 0.138383 0
M  V30 4308 H 411.803 -0.740911 -0.13988 0
M  V30 4309 H 414.454 -1.79936 0.359883 0
M  V30 4310 H 412.836 -3.6722 -1.48207 0
M  V30 4311 H 414.01 -4.42803 1.27522 0
M  V30 4312 H 412.325 -4.04226 0.999503 0
M  V30 4313 H 414.922 -5.11196 -1.56788 0
M  V30 4314 H 415.265 -3.5258 -2.21344 0
M  V30 4315 H 415.798 -3.93762 -0.565337 0
M  V30 4316 H 412.537 -6.47294 1.03398 0
M  V30 4317 H 412.057 -5.96768 -0.602374 0
M  V30 4318 H 413.736 -6.46413 -0.27553 0
M  V30 4319 N 413.868 0.0150385 -1.57593 0
M  V30 4320 C 415.284 0.370907 -1.5523 0
M  V30 4321 C 415.484 1.75735 -0.985882 0
M  V30 4322 O 414.54 2.44944 -0.613077 0
M  V30 4323 C 415.853 0.259908 -2.99575 0
M  V30 4324 C 417.401 0.335959 -3.11192 0
M  V30 4325 C 417.876 0.254253 -4.57294 0
M  V30 4326 N 419.367 0.312618 -4.62144 0
M  V30 4327 C 420.102 0.272505 -5.72752 0
M  V30 4328 N 419.598 0.183864 -6.92556 0
M  V30 4329 N 421.391 0.323267 -5.6117 0
M  V30 4330 H 413.542 -0.892104 -1.92757 0
M  V30 4331 H 415.805 -0.340563 -0.884715 0
M  V30 4332 H 415.511 -0.693403 -3.44797 0
M  V30 4333 H 415.385 1.048 -3.62349 0
M  V30 4334 H 417.772 1.27971 -2.65909 0
M  V30 4335 H 417.853 -0.481739 -2.51223 0
M  V30 4336 H 417.497 -0.685887 -5.03247 0
M  V30 4337 H 417.427 1.09024 -5.15191 0
M  V30 4338 H 419.918 0.38307 -3.75953 0
M  V30 4339 H 420.231 0.15874 -7.72637 0
M  V30 4340 H 418.576 0.149708 -6.94839 0
M  V30 4341 H 421.767 0.390607 -4.66467 0
M  V30 4342 H 421.94 0.288539 -6.47357 0
M  V30 4343 N 415.346 1.54954 0.287554 0
M  V30 4344 C 416.595 1.74081 1.01877 0
M  V30 4345 C 416.908 0.541135 1.87966 0
M  V30 4346 O 418.114 0.614491 2.64455 0
M  V30 4347 C 416.57 3.08042 1.86113 0
M  V30 4348 C 416.178 4.35531 1.04961 0
M  V30 4349 C 417.922 3.36523 2.58752 0
M  V30 4350 C 415.829 5.60538 1.88551 0
M  V30 4351 H 414.759 0.64884 0.384087 0
M  V30 4352 H 417.41 1.81426 0.275101 0
M  V30 4353 H 415.792 2.94696 2.64519 0
M  V30 4354 H 416.966 4.59751 0.31074 0
M  V30 4355 H 415.281 4.14085 0.43843 0
M  V30 4356 H 417.878 4.27122 3.21668 0
M  V30 4357 H 418.221 2.56 3.28283 0
M  V30 4358 H 418.754 3.50901 1.87386 0
M  V30 4359 H 415.493 6.43767 1.23466 0
M  V30 4360 H 415.013 5.40483 2.60074 0
M  V30 4361 H 416.692 5.98297 2.46273 0
M  V30 4362 N 416.824 -0.551391 1.4764 0
M  V30 4363 C 418.072 -1.30572 1.54258 0
M  V30 4364 C 418.393 -1.93877 0.208963 0
M  V30 4365 O 417.663 -1.80234 -0.767619 0
M  V30 4366 H 416.243 -0.484894 0.568231 0
M  V30 4367 H 418.905 -0.643402 1.83974 0
M  V30 4368 H 418.001 -2.09621 2.31226 0
M  V30 4369 N 418.302 -1.35869 -0.798587 0
M  V30 4370 C 419.249 -1.29446 -1.91082 0
M  V30 4371 C 420.219 -0.16487 -1.6528 0
M  V30 4372 O 421.404 -0.349888 -1.87564 0
M  V30 4373 C 418.544 -1.0804 -3.27752 0
M  V30 4374 C 417.657 -2.29993 -3.65687 0
M  V30 4375 C 416.792 -2.01673 -4.91428 0
M  V30 4376 C 415.831 -3.19636 -5.22015 0
M  V30 4377 N 414.968 -2.91039 -6.38937 0
M  V30 4378 H 419.808 -2.24553 -1.95907 0
M  V30 4379 H 417.345 -1.11615 -0.958148 0
M  V30 4380 H 419.303 -0.936586 -4.06551 0
M  V30 4381 H 417.933 -0.16592 -3.22373 0
M  V30 4382 H 416.985 -2.55211 -2.82085 0
M  V30 4383 H 418.297 -3.18052 -3.84245 0
M  V30 4384 H 417.451 -1.84168 -5.78072 0
M  V30 4385 H 416.19 -1.10911 -4.74921 0
M  V30 4386 H 415.195 -3.37709 -4.33858 0
M  V30 4387 H 416.42 -4.11211 -5.40447 0
M  V30 4388 H 414.366 -2.0288 -6.2384 0
M  V30 4389 H 414.283 -3.72635 -6.57784 0
M  V30 4390 H 415.551 -2.77093 -7.28587 0
M  V30 4391 N 419.78 1.02168 -1.19998 0
M  V30 4392 C 420.69 2.14069 -0.959774 0
M  V30 4393 C 421.706 1.73804 0.082655 0
M  V30 4394 O 422.882 2.01133 -0.103633 0
M  V30 4395 C 419.947 3.42936 -0.509459 0
M  V30 4396 C 419.008 3.97474 -1.62213 0
M  V30 4397 C 418.241 5.2019 -1.19321 0
M  V30 4398 O 418.464 5.70369 -0.0597726 0
M  V30 4399 O 417.398 5.67749 -1.99863 0
M  V30 4400 H 421.224 2.37199 -1.89658 0
M  V30 4401 H 418.809 1.12469 -0.983411 0
M  V30 4402 H 420.691 4.20551 -0.267322 0
M  V30 4403 H 419.366 3.21234 0.398821 0
M  V30 4404 H 418.273 3.21161 -1.9185 0
M  V30 4405 H 419.606 4.23555 -2.50723 0
M  V30 4406 N 421.258 1.00505 1.21394 0
M  V30 4407 C 422.504 0.698477 1.91031 0
M  V30 4408 C 422.859 -0.762448 1.76648 0
M  V30 4409 O 422.152 -1.54554 1.13241 0
M  V30 4410 C 422.346 1.0546 3.41486 0
M  V30 4411 C 422.175 2.5486 3.70508 0
M  V30 4412 C 420.945 3.21461 3.8986 0
M  V30 4413 C 423.143 3.53019 3.74008 0
M  V30 4414 N 421.125 4.60211 4.06299 0
M  V30 4415 C 422.496 4.77279 3.95733 0
M  V30 4416 C 424.551 3.47154 3.56915 0
M  V30 4417 C 423.254 5.96388 4.02137 0
M  V30 4418 C 425.28 4.65652 3.64585 0
M  V30 4419 C 424.642 5.88717 3.86771 0
M  V30 4420 H 420.741 0.30707 0.719189 0
M  V30 4421 H 423.325 1.28753 1.46051 0
M  V30 4422 H 421.496 0.494007 3.85246 0
M  V30 4423 H 423.228 0.702765 3.98552 0
M  V30 4424 H 419.983 2.71906 3.87768 0
M  V30 4425 H 420.407 5.32216 4.1842 0
M  V30 4426 H 425.049 2.53015 3.38738 0
M  V30 4427 H 422.767 6.90919 4.19114 0
M  V30 4428 H 426.353 4.62717 3.52681 0
M  V30 4429 H 425.233 6.78877 3.92549 0
M  V30 4430 N 422.737 -1.36956 0.779787 0
M  V30 4431 C 423.669 -2.28833 0.129639 0
M  V30 4432 C 424.682 -1.4902 -0.655511 0
M  V30 4433 O 425.871 -1.71578 -0.492279 0
M  V30 4434 C 422.971 -3.2833 -0.839792 0
M  V30 4435 C 422.144 -4.3727 -0.10675 0
M  V30 4436 C 421.203 -5.16789 -0.990717 0
M  V30 4437 O 420.229 -5.67406 -0.451516 0
M  V30 4438 N 421.431 -5.32294 -2.3161 0
M  V30 4439 H 424.196 -2.85268 0.918803 0
M  V30 4440 H 421.757 -1.49019 0.632841 0
M  V30 4441 H 423.749 -3.78413 -1.43477 0
M  V30 4442 H 422.319 -2.72605 -1.52988 0
M  V30 4443 H 421.539 -3.88478 0.669216 0
M  V30 4444 H 422.827 -5.07229 0.399464 0
M  V30 4445 H 422.225 -4.92768 -2.77843 0
M  V30 4446 H 420.782 -5.85656 -2.86095 0
M  V30 4447 N 424.215 -0.530993 -1.48385 0
M  V30 4448 C 425.463 0.00273189 -2.021 0
M  V30 4449 C 425.784 1.34672 -1.41027 0
M  V30 4450 O 425.054 1.8724 -0.576012 0
M  V30 4451 H 423.634 0.00399774 -0.746989 0
M  V30 4452 H 426.296 -0.695054 -1.82085 0
M  V30 4453 H 425.392 0.11031 -3.11905 0
M  V30 4454 N 425.693 1.55336 -0.266172 0
M  V30 4455 C 426.942 1.98574 0.353749 0
M  V30 4456 C 427.255 1.15789 1.57646 0
M  V30 4457 O 428.461 1.49129 2.26876 0
M  V30 4458 C 426.917 3.53403 0.680747 0
M  V30 4459 C 426.525 4.44953 -0.52165 0
M  V30 4460 C 428.269 4.05251 1.26379 0
M  V30 4461 C 426.176 5.91156 -0.169736 0
M  V30 4462 H 425.106 0.741643 0.135949 0
M  V30 4463 H 427.757 1.79743 -0.369421 0
M  V30 4464 H 426.139 3.68001 1.46257 0
M  V30 4465 H 427.313 4.42121 -1.29869 0
M  V30 4466 H 425.628 4.03691 -1.02093 0
M  V30 4467 H 428.225 5.12021 1.54074 0
M  V30 4468 H 428.568 3.53749 2.19471 0
M  V30 4469 H 429.101 3.94057 0.544447 0
M  V30 4470 H 425.84 6.46736 -1.0683 0
M  V30 4471 H 425.36 5.97079 0.570717 0
M  V30 4472 H 427.039 6.4655 0.241245 0
M  V30 4473 N 427.171 -0.0066808 1.57599 0
M  V30 4474 C 428.401 -0.703066 1.94269 0
M  V30 4475 C 428.809 -1.68206 0.866222 0
M  V30 4476 O 428.152 -1.82966 -0.164087 0
M  V30 4477 C 428.214 -1.49616 3.26887 0
M  V30 4478 C 427.878 -0.679494 4.5192 0
M  V30 4479 C 428.875 0.0299508 5.19891 0
M  V30 4480 C 426.56 -0.627433 4.98366 0
M  V30 4481 C 428.554 0.780514 6.32603 0
M  V30 4482 C 426.241 0.126861 6.10968 0
M  V30 4483 C 427.239 0.829574 6.77943 0
M  V30 4484 O 426.927 1.57157 7.88389 0
M  V30 4485 H 426.659 -0.201217 0.645359 0
M  V30 4486 H 429.213 0.0385326 2.05364 0
M  V30 4487 H 427.443 -2.28209 3.12182 0
M  V30 4488 H 429.132 -2.07726 3.48719 0
M  V30 4489 H 429.898 -0.00115963 4.85 0
M  V30 4490 H 425.777 -1.16392 4.46065 0
M  V30 4491 H 429.321 1.32954 6.84813 0
M  V30 4492 H 425.218 0.159815 6.45302 0
M  V30 4493 H 425.986 1.48758 8.04868 0
M  V30 4494 N 428.649 -1.55105 -0.279332 0
M  V30 4495 C 429.879 -1.7917 -1.02867 0
M  V30 4496 C 430.287 -0.56204 -1.80659 0
M  V30 4497 O 429.63 0.478266 -1.77365 0
M  V30 4498 C 429.692 -2.96061 -2.03932 0
M  V30 4499 C 429.356 -4.33341 -1.45137 0
M  V30 4500 C 430.353 -5.12565 -0.870266 0
M  V30 4501 C 428.038 -4.79987 -1.48048 0
M  V30 4502 C 430.032 -6.36565 -0.326097 0
M  V30 4503 C 427.719 -6.03944 -0.932443 0
M  V30 4504 C 428.717 -6.8207 -0.356247 0
M  V30 4505 O 428.405 -8.03691 0.183412 0
M  V30 4506 H 428.137 -0.600796 -0.309872 0
M  V30 4507 H 430.691 -2.02932 -0.317468 0
M  V30 4508 H 428.921 -2.67975 -2.78794 0
M  V30 4509 H 430.61 -3.07506 -2.64943 0
M  V30 4510 H 431.376 -4.77661 -0.840521 0
M  V30 4511 H 427.255 -4.1919 -1.91835 0
M  V30 4512 H 430.799 -6.97489 0.124286 0
M  V30 4513 H 426.696 -6.3833 -0.959407 0
M  V30 4514 H 427.464 -8.18468 0.0721681 0
M  V30 4515 N 430.127 0.543554 -1.4793 0
M  V30 4516 C 431.09 1.63156 -1.60975 0
M  V30 4517 C 432.09 1.53346 -0.483899 0
M  V30 4518 O 433.28 1.5726 -0.749339 0
M  V30 4519 C 430.412 3.02743 -1.56716 0
M  V30 4520 H 431.605 1.52934 -2.57975 0
M  V30 4521 H 429.158 0.764557 -1.36324 0
M  V30 4522 H 429.893 3.18484 -0.611418 0
M  V30 4523 H 429.678 3.11272 -2.38438 0
M  V30 4524 H 431.168 3.81871 -1.6901 0
M  V30 4525 N 431.605 1.3629 0.791371 0
M  V30 4526 C 432.552 1.30458 1.90393 0
M  V30 4527 C 433.522 0.173632 1.6519 0
M  V30 4528 O 434.707 0.35983 1.87376 0
M  V30 4529 C 431.847 1.09777 3.27174 0
M  V30 4530 C 430.96 2.31929 3.64462 0
M  V30 4531 C 430.095 2.04276 4.90352 0
M  V30 4532 C 429.134 3.224 5.20312 0
M  V30 4533 N 428.271 2.94424 6.37385 0
M  V30 4534 H 433.111 2.25589 1.94714 0
M  V30 4535 H 430.648 1.12122 0.952216 0
M  V30 4536 H 432.606 0.958133 4.06049 0
M  V30 4537 H 431.236 0.183014 3.22281 0
M  V30 4538 H 430.288 2.56703 2.80727 0
M  V30 4539 H 431.6 3.20085 3.82553 0
M  V30 4540 H 430.754 1.87231 5.77087 0
M  V30 4541 H 429.493 1.13428 4.74326 0
M  V30 4542 H 428.498 3.40005 4.32061 0
M  V30 4543 H 429.723 4.14071 5.38258 0
M  V30 4544 H 427.669 2.06185 6.22755 0
M  V30 4545 H 427.586 3.76118 6.55798 0
M  V30 4546 H 428.854 2.80953 7.27108 0
M  V30 4547 N 433.083 -1.0153 1.20538 0
M  V30 4548 C 434.03 -2.10098 0.955383 0
M  V30 4549 C 435 -1.65702 -0.114878 0
M  V30 4550 O 436.185 -1.90776 0.0301118 0
M  V30 4551 C 433.325 -3.41236 0.514969 0
M  V30 4552 C 432.438 -3.99102 1.65353 0
M  V30 4553 C 431.573 -5.18306 1.16329 0
M  V30 4554 C 430.612 -5.68258 2.27485 0
M  V30 4555 N 429.749 -6.78722 1.7967 0
M  V30 4556 H 434.589 -2.30818 1.88486 0
M  V30 4557 H 432.126 -1.13189 0.939499 0
M  V30 4558 H 434.084 -4.16504 0.240935 0
M  V30 4559 H 432.714 -3.20585 -0.377512 0
M  V30 4560 H 431.766 -3.20918 2.04245 0
M  V30 4561 H 433.078 -4.32177 2.49047 0
M  V30 4562 H 432.232 -6.00782 0.845302 0
M  V30 4563 H 430.971 -4.86799 0.296254 0
M  V30 4564 H 429.976 -4.84385 2.60099 0
M  V30 4565 H 431.201 -6.01798 3.14667 0
M  V30 4566 H 429.147 -6.49042 0.95295 0
M  V30 4567 H 429.064 -7.10996 2.56944 0
M  V30 4568 H 430.332 -7.64759 1.50875 0
M  V30 4569 N 434.561 -1.01147 -1.20859 0
M  V30 4570 C 435.508 -0.577354 -2.23462 0
M  V30 4571 C 436.478 0.399922 -1.61214 0
M  V30 4572 O 437.663 0.300515 -1.88419 0
M  V30 4573 C 434.803 0.083372 -3.44999 0
M  V30 4574 C 433.916 -0.937856 -4.21697 0
M  V30 4575 C 433.051 -0.248717 -5.30617 0
M  V30 4576 C 432.09 -1.25705 -5.99053 0
M  V30 4577 N 431.227 -0.594939 -6.99575 0
M  V30 4578 H 436.067 -1.45695 -2.59956 0
M  V30 4579 H 433.604 -0.729428 -1.27741 0
M  V30 4580 H 435.562 0.483535 -4.14388 0
M  V30 4581 H 434.192 0.926645 -3.09214 0
M  V30 4582 H 433.244 -1.45622 -3.51423 0
M  V30 4583 H 434.556 -1.70493 -4.68757 0
M  V30 4584 H 433.71 0.207215 -6.06346 0
M  V30 4585 H 432.449 0.55071 -4.84581 0
M  V30 4586 H 431.454 -1.72343 -5.2209 0
M  V30 4587 H 432.679 -2.05767 -6.47176 0
M  V30 4588 H 430.625 0.184713 -6.5574 0
M  V30 4589 H 430.542 -1.30017 -7.44736 0
M  V30 4590 H 431.81 -0.162427 -7.79331 0
M  V30 4591 N 436.039 1.36541 -0.78704 0
M  V30 4592 C 436.987 2.31965 -0.171724 0
M  V30 4593 C 437.981 1.55689 0.667631 0
M  V30 4594 O 439.187 1.70969 0.562981 0
M  V30 4595 H 435.562 0.751101 -0.0367545 0
M  V30 4596 H 437.533 2.81428 -0.992017 0
M  V30 4597 C 436.282 3.40968 0.680904 0
M  V30 4598 H 435.605 3.99775 0.0443961 0
M  V30 4599 H 437.045 4.10063 1.07815 0
M  V30 4600 C 435.504 2.82338 1.83813 0
M  V30 4601 O 436.034 2.74311 2.93456 0
M  V30 4602 N 434.24 2.39661 1.6435 0
M  V30 4603 H 433.787 2.46389 0.751668 0
M  V30 4604 H 433.745 2.00779 2.4194 0
M  V30 4605 N 437.518 0.538854 1.48102 0
M  V30 4606 C 438.766 0.00798599 2.02098 0
M  V30 4607 C 439.087 -1.33922 1.41739 0
M  V30 4608 O 438.357 -1.86932 0.585934 0
M  V30 4609 H 436.937 -3.62179e-05 0.747 0
M  V30 4610 H 439.599 0.7047 1.81714 0
M  V30 4611 H 438.695 -0.0937672 3.11959 0
M  V30 4612 N 438.996 -1.55193 0.274407 0
M  V30 4613 C 440.273 -1.91584 -0.394331 0
M  V30 4614 C 440.653 -1.19858 -1.73774 0
M  V30 4615 O 440.001 -0.3252 -2.26174 0
M  V30 4616 C 440.211 -3.4487 -0.535311 0
M  V30 4617 C 441.559 -4.16636 -0.818534 0
M  V30 4618 O 442.583 -3.5076 -0.620146 0
M  V30 4619 O 441.442 -5.33209 -1.19792 0
M  V30 4620 H 438.536 -0.798349 -0.215794 0
M  V30 4621 H 441.082 -1.66646 0.320507 0
M  V30 4622 H 439.854 -3.89145 0.410141 0
M  V30 4623 H 439.477 -3.75759 -1.29964 0
M  V30 4624 N 440.474 -0.00167713 -1.576 0
M  V30 4625 C 441.422 1.0074 -2.09652 0
M  V30 4626 C 442.416 1.35483 -1.01689 0
M  V30 4627 O 443.622 1.34028 -1.20152 0
M  V30 4628 H 439.997 0.342537 -0.669457 0
M  V30 4629 H 441.968 0.542841 -2.93421 0
M  V30 4630 C 440.717 2.2899 -2.61647 0
M  V30 4631 H 440.04 2.03124 -3.44355 0
M  V30 4632 H 441.48 2.9787 -3.01744 0
M  V30 4633 C 439.939 3.00085 -1.53136 0
M  V30 4634 O 440.469 3.91135 -0.91524 0
M  V30 4635 N 438.675 2.6194 -1.25841 0
M  V30 4636 H 438.222 1.8798 -1.76129 0
M  V30 4637 H 438.18 3.09822 -0.534576 0
M  V30 4638 N 441.952 1.55251 0.271103 0
M  V30 4639 C 443.201 1.75151 1.00025 0
M  V30 4640 C 443.514 0.561041 1.87381 0
M  V30 4641 O 444.72 0.642506 2.63788 0
M  V30 4642 C 443.176 3.09999 1.82835 0
M  V30 4643 C 442.784 4.3662 1.00336 0
M  V30 4644 C 444.528 3.39249 2.55168 0
M  V30 4645 C 442.435 5.62506 1.82595 0
M  V30 4646 H 441.365 0.652877 0.377183 0
M  V30 4647 H 444.016 1.81708 0.255843 0
M  V30 4648 H 442.398 2.97485 2.61378 0
M  V30 4649 H 443.572 4.60055 0.261959 0
M  V30 4650 H 441.887 4.14527 0.394486 0
M  V30 4651 H 444.484 4.3051 3.1712 0
M  V30 4652 H 444.827 2.59467 3.2555 0
M  V30 4653 H 445.36 3.52869 1.83653 0
M  V30 4654 H 442.099 6.45041 1.16631 0
M  V30 4655 H 441.619 5.43211 2.54327 0
M  V30 4656 H 443.298 6.00875 2.39913 0
M  V30 4657 N 443.43 -0.535701 1.48216 0
M  V30 4658 C 444.362 -1.65662 1.58394 0
M  V30 4659 C 445.375 -1.5591 0.468607 0
M  V30 4660 O 446.564 -1.62475 0.7392 0
M  V30 4661 C 443.664 -3.04276 1.4923 0
M  V30 4662 C 442.837 -3.39567 2.75705 0
M  V30 4663 C 441.896 -4.57436 2.60075 0
M  V30 4664 O 440.922 -4.60942 3.33948 0
M  V30 4665 N 442.124 -5.55259 1.69315 0
M  V30 4666 H 444.889 -1.5737 2.55058 0
M  V30 4667 H 442.45 -0.722845 1.44867 0
M  V30 4668 H 444.442 -3.80994 1.36477 0
M  V30 4669 H 443.012 -3.06677 0.605632 0
M  V30 4670 H 442.232 -2.52083 3.03064 0
M  V30 4671 H 443.52 -3.59929 3.59623 0
M  V30 4672 H 442.918 -5.552 1.08489 0
M  V30 4673 H 441.475 -6.31218 1.62504 0
M  V30 4674 N 444.908 -1.36708 -0.784132 0
M  V30 4675 C 445.84 -1.27333 -1.90575 0
M  V30 4676 C 446.853 -0.191706 -1.61667 0
M  V30 4677 O 448.042 -0.446854 -1.72816 0
M  V30 4678 C 445.142 -0.943177 -3.25511 0
M  V30 4679 C 444.315 -2.12776 -3.82158 0
M  V30 4680 C 443.374 -1.76983 -4.95544 0
M  V30 4681 O 442.4 -2.49134 -5.11782 0
M  V30 4682 N 443.602 -0.706624 -5.76183 0
M  V30 4683 H 446.367 -2.23974 -1.99138 0
M  V30 4684 H 443.928 -1.30171 -0.962656 0
M  V30 4685 H 445.92 -0.684799 -3.98864 0
M  V30 4686 H 444.49 -0.0657333 -3.12531 0
M  V30 4687 H 443.71 -2.54863 -3.0073 0
M  V30 4688 H 444.998 -2.91904 -4.16737 0
M  V30 4689 H 444.396 -0.107643 -5.65598 0
M  V30 4690 H 442.953 -0.50808 -6.49817 0
M  V30 4691 N 446.386 1.0089 -1.21074 0
M  V30 4692 C 447.334 2.11707 -0.963476 0
M  V30 4693 C 448.328 1.69172 0.0879032 0
M  V30 4694 O 449.534 1.79889 -0.0631415 0
M  V30 4695 H 445.909 0.692026 -0.294287 0
M  V30 4696 H 447.88 2.29743 -1.90422 0
M  V30 4697 C 446.629 3.43473 -0.540509 0
M  V30 4698 H 445.952 3.76634 -1.34114 0
M  V30 4699 H 447.392 4.22044 -0.406777 0
M  V30 4700 C 445.851 3.2849 0.748079 0
M  V30 4701 O 446.381 3.58883 1.8046 0
M  V30 4702 N 444.587 2.81715 0.713081 0
M  V30 4703 H 444.134 2.5718 -0.146973 0
M  V30 4704 H 444.092 2.72071 1.57558 0
M  V30 4705 N 447.864 1.01787 1.20321 0
M  V30 4706 C 449.11 0.708985 1.90003 0
M  V30 4707 C 449.443 -0.759572 1.78729 0
M  V30 4708 O 448.718 -1.55198 1.17234 0
M  V30 4709 C 449.001 1.1469 3.41348 0
M  V30 4710 C 448.854 2.67586 3.61549 0
M  V30 4711 C 450.173 0.71915 4.34185 0
M  V30 4712 H 447.292 0.259034 0.689978 0
M  V30 4713 H 449.934 1.26584 1.41692 0
M  V30 4714 H 448.084 0.673128 3.82624 0
M  V30 4715 H 449.756 3.22826 3.29517 0
M  V30 4716 H 447.999 3.085 3.04976 0
M  V30 4717 H 448.67 2.93281 4.67643 0
M  V30 4718 H 451.146 1.12647 4.00562 0
M  V30 4719 H 450.022 1.05358 5.38694 0
M  V30 4720 H 450.283 -0.379111 4.40472 0
M  V30 4721 N 449.342 -1.36122 0.79427 0
M  V30 4722 C 450.289 -2.29982 0.194101 0
M  V30 4723 C 451.259 -1.52214 -0.664833 0
M  V30 4724 O 452.444 -1.80702 -0.612498 0
M  V30 4725 C 449.584 -3.38706 -0.661244 0
M  V30 4726 C 448.697 -4.31456 0.216766 0
M  V30 4727 C 447.832 -5.27265 -0.645411 0
M  V30 4728 C 446.871 -6.11653 0.233756 0
M  V30 4729 N 446.008 -6.99636 -0.587682 0
M  V30 4730 H 450.848 -2.80722 0.999965 0
M  V30 4731 H 448.385 -1.38172 0.504677 0
M  V30 4732 H 450.343 -4.00394 -1.17219 0
M  V30 4733 H 448.973 -2.89274 -1.43249 0
M  V30 4734 H 448.025 -3.7088 0.845724 0
M  V30 4735 H 449.337 -4.90724 0.893973 0
M  V30 4736 H 448.491 -5.94266 -1.22198 0
M  V30 4737 H 447.23 -4.68463 -1.35623 0
M  V30 4738 H 446.235 -5.4361 0.82269 0
M  V30 4739 H 447.46 -6.72531 0.942247 0
M  V30 4740 H 445.406 -6.43337 -1.2827 0
M  V30 4741 H 445.323 -7.55993 0.0317402 0
M  V30 4742 H 446.591 -7.71001 -1.14792 0
M  V30 4743 N 450.82 -0.546701 -1.47814 0
M  V30 4744 C 452.069 -0.0166497 -2.01693 0
M  V30 4745 C 452.382 1.33721 -1.42752 0
M  V30 4746 O 453.588 1.95658 -1.8823 0
M  V30 4747 C 452.044 0.0206769 -3.59894 0
M  V30 4748 C 451.652 -1.3293 -4.27824 0
M  V30 4749 C 453.396 0.498674 -4.21561 0
M  V30 4750 C 451.303 -1.25165 -5.78003 0
M  V30 4751 H 450.233 -0.0024541 -0.753996 0
M  V30 4752 H 452.884 -0.692984 -1.69912 0
M  V30 4753 H 451.266 0.76244 -3.88591 0
M  V30 4754 H 452.44 -2.08795 -4.10781 0
M  V30 4755 H 450.755 -1.74438 -3.78101 0
M  V30 4756 H 453.352 0.575 -5.31599 0
M  V30 4757 H 453.695 1.5083 -3.88016 0
M  V30 4758 H 454.228 -0.18791 -3.97356 0
M  V30 4759 H 450.967 -2.23695 -6.1615 0
M  V30 4760 H 450.487 -0.53464 -5.97412 0
M  V30 4761 H 452.166 -0.949299 -6.39998 0
M  V30 4762 N 452.299 1.55045 -0.282633 0
M  V30 4763 C 453.548 1.98938 0.332667 0
M  V30 4764 C 453.861 1.17455 1.56409 0
M  V30 4765 O 455.067 1.51527 2.25282 0
M  V30 4766 C 453.523 3.54105 0.643226 0
M  V30 4767 C 453.131 4.44374 -0.568814 0
M  V30 4768 C 454.875 4.06569 1.22074 0
M  V30 4769 C 452.782 5.90943 -0.232426 0
M  V30 4770 H 451.712 0.743043 0.128075 0
M  V30 4771 H 454.363 1.79341 -0.388464 0
M  V30 4772 H 452.745 3.69532 1.42346 0
M  V30 4773 H 453.919 4.40718 -1.34551 0
M  V30 4774 H 452.234 4.02585 -1.06369 0
M  V30 4775 H 454.831 5.13626 1.48635 0
M  V30 4776 H 455.174 3.56057 2.15707 0
M  V30 4777 H 455.707 3.94612 0.502621 0
M  V30 4778 H 452.446 6.45567 -1.13683 0
M  V30 4779 H 451.966 5.9765 0.507357 0
M  V30 4780 H 453.645 6.4677 0.172657 0
M  V30 4781 N 453.777 0.010035 1.57597 0
M  V30 4782 C 455.188 -0.531426 1.78977 0
M  V30 4783 C 455.539 -1.73375 0.918454 0
M  V30 4784 O 454.664 -2.16047 0.123635 0
M  V30 4785 C 455.259 -0.97086 3.24592 0
M  V30 4786 C 453.818 -1.45756 3.47033 0
M  V30 4787 C 452.965 -0.413384 2.74201 0
M  V30 4788 H 455.916 0.236166 1.56933 0
M  V30 4789 H 455.937 -1.83633 3.33255 0
M  V30 4790 H 455.449 -0.0955893 3.87982 0
M  V30 4791 H 453.55 -2.35339 2.88871 0
M  V30 4792 H 453.663 -1.4781 4.55729 0
M  V30 4793 H 452.027 -0.877266 2.39115 0
M  V30 4794 H 452.81 0.453092 3.40297 0
M  V30 4795 N 455.255 -1.55392 -0.262866 0
M  V30 4796 C 456.501 -1.76737 -0.99458 0
M  V30 4797 C 456.834 -0.572453 -1.85571 0
M  V30 4798 O 456.109 0.429732 -1.89693 0
M  V30 4799 C 456.392 -3.07824 -1.8686 0
M  V30 4800 C 456.245 -4.3769 -1.03672 0
M  V30 4801 C 457.564 -3.35021 -2.85393 0
M  V30 4802 H 454.683 -0.643005 -0.360157 0
M  V30 4803 H 457.325 -1.88126 -0.266216 0
M  V30 4804 H 455.475 -2.98245 -2.48962 0
M  V30 4805 H 457.147 -4.59238 -0.43563 0
M  V30 4806 H 455.39 -4.32461 -0.340513 0
M  V30 4807 H 456.061 -5.25759 -1.6817 0
M  V30 4808 H 458.537 -3.44458 -2.33426 0
M  V30 4809 H 457.413 -4.27989 -3.43681 0
M  V30 4810 H 457.674 -2.55153 -3.61039 0
M  V30 4811 N 456.733 0.527833 -1.48498 0
M  V30 4812 C 457.982 1.28003 -1.55878 0
M  V30 4813 C 458.295 1.9414 -0.238577 0
M  V30 4814 O 459.501 2.7083 -0.190643 0
M  V30 4815 C 457.957 2.32272 -2.74914 0
M  V30 4816 C 457.565 1.72196 -4.13585 0
M  V30 4817 C 459.309 3.08488 -2.91608 0
M  V30 4818 C 457.216 2.74417 -5.23879 0
M  V30 4819 H 456.146 0.481413 -0.580308 0
M  V30 4820 H 458.797 0.557195 -1.74836 0
M  V30 4821 H 457.179 3.07601 -2.49395 0
M  V30 4822 H 458.353 1.03041 -4.49132 0
M  V30 4823 H 456.668 1.08464 -4.02025 0
M  V30 4824 H 459.265 3.84879 -3.71177 0
M  V30 4825 H 459.608 3.64481 -2.01145 0
M  V30 4826 H 460.141 2.40274 -3.17038 0
M  V30 4827 H 456.88 2.23242 -6.16314 0
M  V30 4828 H 456.4 3.41893 -4.92818 0
M  V30 4829 H 458.079 3.37362 -5.52083 0
M  V30 4830 N 458.211 1.37122 0.776871 0
M  V30 4831 C 459.459 1.31787 1.53221 0
M  V30 4832 C 459.78 -0.0987589 1.9475 0
M  V30 4833 O 459.05 -1.0417 1.65908 0
M  V30 4834 H 457.63 0.484839 0.568278 0
M  V30 4835 H 460.292 1.71556 0.924917 0
M  V30 4836 H 459.388 1.95355 2.43398 0
M  V30 4837 N 459.689 -1.00246 1.21608 0
M  V30 4838 C 460.621 -2.09244 0.935401 0
M  V30 4839 C 461.634 -1.62592 -0.0823594 0
M  V30 4840 O 462.823 -1.77865 0.150456 0
M  V30 4841 C 459.923 -3.36724 0.383453 0
M  V30 4842 C 459.096 -4.1245 1.45615 0
M  V30 4843 C 458.155 -5.18219 0.912991 0
M  V30 4844 O 457.181 -5.46337 1.59701 0
M  V30 4845 N 458.383 -5.7987 -0.270478 0
M  V30 4846 H 461.148 -2.33905 1.87373 0
M  V30 4847 H 458.709 -1.16748 1.12167 0
M  V30 4848 H 460.701 -4.047 0.00562157 0
M  V30 4849 H 459.271 -3.09201 -0.459758 0
M  V30 4850 H 458.491 -3.39241 2.00772 0
M  V30 4851 H 459.779 -4.59819 2.17817 0
M  V30 4852 H 459.177 -5.59381 -0.843195 0
M  V30 4853 H 457.734 -6.49126 -0.589794 0
M  V30 4854 N 461.167 -1.02423 -1.1978 0
M  V30 4855 C 462.415 -0.716569 -1.8897 0
M  V30 4856 C 462.736 0.756769 -1.79716 0
M  V30 4857 O 462.006 1.5449 -1.20456 0
M  V30 4858 H 460.586 -0.262062 -0.699523 0
M  V30 4859 H 463.248 -1.29747 -1.45436 0
M  V30 4860 H 462.344 -1.00675 -2.95417 0
M  V30 4861 N 462.645 1.35699 -0.801477 0
M  V30 4862 C 463.893 1.9852 -0.37871 0
M  V30 4863 C 464.214 1.63907 1.05638 0
M  V30 4864 O 463.484 0.919013 1.73006 0
M  V30 4865 H 462.064 0.734322 -0.137042 0
M  V30 4866 H 464.726 1.65697 -1.02619 0
M  V30 4867 H 463.822 3.08382 -0.480284 0
M  V30 4868 N 464.123 0.554532 1.47522 0
M  V30 4869 C 465.07 -0.19466 2.29978 0
M  V30 4870 C 466.04 -0.910882 1.38896 0
M  V30 4871 O 467.225 -0.907102 1.67858 0
M  V30 4872 C 464.365 -1.22035 3.22802 0
M  V30 4873 C 463.478 -0.510474 4.28973 0
M  V30 4874 C 462.613 -1.52123 5.08952 0
M  V30 4875 C 461.652 -0.796173 6.069 0
M  V30 4876 N 460.789 -1.75363 6.79847 0
M  V30 4877 H 465.629 0.51461 2.93523 0
M  V30 4878 H 463.166 0.265607 1.44682 0
M  V30 4879 H 465.124 -1.8276 3.7504 0
M  V30 4880 H 463.754 -1.89769 2.61127 0
M  V30 4881 H 462.806 0.211234 3.79813 0
M  V30 4882 H 464.118 0.0576503 4.98767 0
M  V30 4883 H 463.272 -2.20207 5.65326 0
M  V30 4884 H 462.011 -2.12327 4.39054 0
M  V30 4885 H 461.016 -0.101388 5.49707 0
M  V30 4886 H 462.241 -0.199911 6.78806 0
M  V30 4887 H 460.187 -2.3443 6.12682 0
M  V30 4888 H 460.104 -1.23759 7.45801 0
M  V30 4889 H 461.372 -2.4257 7.40797 0
M  V30 4890 N 465.601 -1.54893 0.290851 0
M  V30 4891 C 466.85 -1.99111 -0.322113 0
M  V30 4892 C 467.163 -1.18283 -1.55784 0
M  V30 4893 O 468.369 -1.5272 -2.24475 0
M  V30 4894 C 466.825 -3.54442 -0.624438 0
M  V30 4895 C 466.433 -4.44066 0.592373 0
M  V30 4896 C 468.177 -4.07211 -1.19916 0
M  V30 4897 C 466.084 -5.90812 0.263762 0
M  V30 4898 H 465.014 -0.743712 -0.124133 0
M  V30 4899 H 467.665 -1.79132 0.39797 0
M  V30 4900 H 466.047 -3.70281 -1.40384 0
M  V30 4901 H 467.221 -4.39999 1.36886 0
M  V30 4902 H 465.536 -4.02015 1.08502 0
M  V30 4903 H 468.133 -5.14407 -1.45909 0
M  V30 4904 H 468.476 -3.57196 -2.13815 0
M  V30 4905 H 469.009 -3.94873 -0.481687 0
M  V30 4906 H 465.748 -6.44955 1.17105 0
M  V30 4907 H 465.268 -5.97911 -0.475655 0
M  V30 4908 H 466.947 -6.46852 -0.138354 0
M  V30 4909 N 467.08 -0.0183926 -1.57589 0
M  V30 4910 C 468.496 0.337897 -1.55982 0
M  V30 4911 C 468.696 1.73604 -1.02294 0
M  V30 4912 O 467.752 2.43589 -0.664895 0
M  V30 4913 C 469.065 0.196305 -3.00059 0
M  V30 4914 C 470.613 0.269875 -3.11834 0
M  V30 4915 C 471.088 0.157197 -4.5773 0
M  V30 4916 N 472.579 0.214521 -4.62703 0
M  V30 4917 C 473.314 0.150955 -5.73201 0
M  V30 4918 N 472.81 0.0369212 -6.9279 0
M  V30 4919 N 474.603 0.204162 -5.61729 0
M  V30 4920 H 466.754 -0.93279 -1.90821 0
M  V30 4921 H 469.017 -0.359253 -0.877292 0
M  V30 4922 H 468.723 -0.766383 -3.43248 0
M  V30 4923 H 468.597 0.970908 -3.6449 0
M  V30 4924 H 470.984 1.22302 -2.68563 0
M  V30 4925 H 471.065 -0.534918 -2.50144 0
M  V30 4926 H 470.709 -0.792479 -5.01679 0
M  V30 4927 H 470.639 0.980717 -5.17387 0
M  V30 4928 H 473.13 0.303238 -3.76681 0
M  V30 4929 H 473.443 -0.00518321 -7.728 0
M  V30 4930 H 471.788 0.0022886 -6.95 0
M  V30 4931 H 474.979 0.291575 -4.67191 0
M  V30 4932 H 475.152 0.15116 -6.47824 0
M  V30 4933 N 468.558 1.5553 0.254621 0
M  V30 4934 C 469.508 1.86057 1.31783 0
M  V30 4935 C 470.492 0.720827 1.4385 0
M  V30 4936 O 471.684 0.982586 1.47222 0
M  V30 4937 C 468.813 2.15203 2.67475 0
M  V30 4938 C 467.899 3.35484 2.59444 0
M  V30 4939 N 468.29 4.54945 2.2104 0
M  V30 4940 C 466.588 3.38441 2.90472 0
M  V30 4941 C 467.289 5.3707 2.23453 0
M  V30 4942 N 466.265 4.75936 2.62652 0
M  V30 4943 H 470.067 2.75953 1.01129 0
M  V30 4944 H 467.581 1.55653 0.463255 0
M  V30 4945 H 469.578 2.35235 3.44195 0
M  V30 4946 H 468.238 1.26601 2.99002 0
M  V30 4947 H 469.249 4.8071 1.92712 0
M  V30 4948 H 465.926 2.60087 3.2659 0
M  V30 4949 H 467.316 6.42626 1.96166 0
M  V30 4950 N 470.036 -0.519951 1.48776 0
M  V30 4951 C 471.266 -1.29783 1.60748 0
M  V30 4952 C 471.674 -1.87253 0.27072 0
M  V30 4953 O 471.017 -1.67628 -0.751438 0
M  V30 4954 C 471.079 -2.47984 2.60277 0
M  V30 4955 C 470.743 -2.11526 4.051 0
M  V30 4956 C 471.74 -1.66608 4.92481 0
M  V30 4957 C 469.425 -2.21742 4.50706 0
M  V30 4958 C 471.419 -1.32384 6.23501 0
M  V30 4959 C 469.106 -1.87129 5.81744 0
M  V30 4960 C 470.104 -1.42523 6.67964 0
M  V30 4961 O 469.792 -1.0837 7.96562 0
M  V30 4962 H 469.524 -0.400562 0.544542 0
M  V30 4963 H 472.078 -0.632879 1.95407 0
M  V30 4964 H 470.308 -3.17493 2.2076 0
M  V30 4965 H 471.997 -3.10036 2.61978 0
M  V30 4966 H 472.763 -1.58178 4.58481 0
M  V30 4967 H 468.642 -2.55415 3.83776 0
M  V30 4968 H 472.186 -0.974949 6.90754 0
M  V30 4969 H 468.083 -1.95204 6.15277 0
M  V30 4970 H 468.851 -1.21681 8.09405 0
M  V30 4971 N 471.514 -1.37532 -0.769588 0
M  V30 4972 C 472.76 -1.33057 -1.53048 0
M  V30 4973 C 473.093 0.0841865 -1.94017 0
M  V30 4974 O 472.368 1.04198 -1.64235 0
M  V30 4975 C 472.651 -2.27166 -2.79406 0
M  V30 4976 C 472.504 -3.77429 -2.44677 0
M  V30 4977 C 473.823 -2.19683 -3.81349 0
M  V30 4978 H 470.942 -0.484655 -0.555228 0
M  V30 4979 H 473.584 -1.68251 -0.882702 0
M  V30 4980 H 471.734 -1.97283 -3.34682 0
M  V30 4981 H 473.406 -4.17918 -1.953 0
M  V30 4982 H 471.649 -3.95892 -1.77346 0
M  V30 4983 H 472.32 -4.38716 -3.35011 0
M  V30 4984 H 474.796 -2.46029 -3.35573 0
M  V30 4985 H 473.672 -2.87668 -4.67481 0
M  V30 4986 H 473.933 -1.19045 -4.25771 0
M  V30 4987 N 472.992 0.995999 -1.22138 0
M  V30 4988 C 474.217 1.77601 -1.0711 0
M  V30 4989 C 474.642 1.84339 0.374264 0
M  V30 4990 O 474 1.29359 1.27028 0
M  V30 4991 C 474.048 3.18897 -1.68336 0
M  V30 4992 O 473.152 4.01663 -0.934928 0
M  V30 4993 H 472.493 0.547011 -0.376397 0
M  V30 4994 H 475.023 1.25137 -1.6187 0
M  V30 4995 H 475.033 3.69539 -1.72931 0
M  V30 4996 H 473.708 3.13308 -2.73516 0
M  V30 4997 H 472.285 3.60204 -0.964751 0
M  V30 4998 N 474.47 1.03057 1.19235 0
M  V30 4999 C 475.719 0.72326 1.88287 0
M  V30 5000 C 476.032 -0.751333 1.80594 0
M  V30 5001 O 477.238 -1.17176 2.44912 0
M  V30 5002 C 475.694 1.24338 3.3774 0
M  V30 5003 C 475.302 2.74587 3.53986 0
M  V30 5004 C 477.046 1.01213 4.12257 0
M  V30 5005 C 474.953 3.20009 4.97341 0
M  V30 5006 H 473.883 0.266848 0.705201 0
M  V30 5007 H 476.534 1.24509 1.34795 0
M  V30 5008 H 474.916 0.649457 3.90638 0
M  V30 5009 H 476.09 3.39649 3.11408 0
M  V30 5010 H 474.405 2.9601 2.9286 0
M  V30 5011 H 477.002 1.32675 5.17978 0
M  V30 5012 H 477.345 -0.051001 4.16269 0
M  V30 5013 H 477.878 1.57014 3.65501 0
M  V30 5014 H 474.617 4.25659 4.98493 0
M  V30 5015 H 474.137 2.59676 5.40674 0
M  V30 5016 H 475.816 3.13447 5.66003 0
M  V30 5017 N 475.948 -1.35272 0.808662 0
M  V30 5018 C 477.197 -1.97963 0.386483 0
M  V30 5019 C 477.51 -1.64866 -1.05255 0
M  V30 5020 O 478.716 -2.20937 -1.57794 0
M  V30 5021 C 477.172 -3.54162 0.640096 0
M  V30 5022 C 476.78 -3.96166 2.0918 0
M  V30 5023 C 478.524 -4.23553 0.283376 0
M  V30 5024 C 476.431 -5.4522 2.29106 0
M  V30 5025 H 475.361 -0.740742 0.140774 0
M  V30 5026 H 478.012 -1.5431 0.993012 0
M  V30 5027 H 476.394 -3.95983 -0.0364117 0
M  V30 5028 H 477.568 -3.65491 2.80629 0
M  V30 5029 H 475.883 -3.3967 2.40859 0
M  V30 5030 H 478.48 -5.33124 0.410273 0
M  V30 5031 H 478.823 -4.09105 -0.770659 0
M  V30 5032 H 479.356 -3.8716 0.913884 0
M  V30 5033 H 476.095 -5.64638 3.32962 0
M  V30 5034 H 475.615 -5.77457 1.62184 0
M  V30 5035 H 477.294 -6.1171 2.1076 0
M  V30 5036 N 477.426 -0.562348 -1.47226 0
M  V30 5037 C 478.842 -0.222492 -1.58042 0
M  V30 5038 C 479.042 1.27505 -1.56028 0
M  V30 5039 O 478.098 2.05555 -1.46641 0
M  V30 5040 C 479.411 -0.853694 -2.88327 0
M  V30 5041 C 480.959 -0.825397 -3.01921 0
M  V30 5042 C 481.434 -1.43576 -4.34914 0
M  V30 5043 N 482.925 -1.39918 -4.41562 0
M  V30 5044 C 483.66 -1.84103 -5.43041 0
M  V30 5045 N 483.156 -2.36167 -6.51304 0
M  V30 5046 N 484.949 -1.75142 -5.34118 0
M  V30 5047 H 477.1 -1.53525 -1.46778 0
M  V30 5048 H 479.363 -0.640527 -0.698877 0
M  V30 5049 H 479.069 -1.90635 -2.95552 0
M  V30 5050 H 478.943 -0.34977 -3.75575 0
M  V30 5051 H 481.33 0.218583 -2.94289 0
M  V30 5052 H 481.411 -1.36713 -2.16202 0
M  V30 5053 H 481.055 -2.47884 -4.43301 0
M  V30 5054 H 480.985 -0.869427 -5.19373 0
M  V30 5055 H 483.476 -1.0184 -3.63919 0
M  V30 5056 H 483.789 -2.67793 -7.24919 0
M  V30 5057 H 482.134 -2.40181 -6.52179 0
M  V30 5058 H 485.325 -1.34241 -4.48439 0
M  V30 5059 H 485.498 -2.09895 -6.13065 0
M  V30 5060 N 478.904 1.54736 -0.299062 0
M  V30 5061 C 480.15 2.00397 0.311244 0
M  V30 5062 C 480.483 1.18716 1.53688 0
M  V30 5063 O 479.758 0.263154 1.92712 0
M  V30 5064 C 480.041 3.53817 0.669761 0
M  V30 5065 C 479.894 4.46239 -0.564882 0
M  V30 5066 C 481.213 4.13856 1.49702 0
M  V30 5067 H 478.332 0.728493 0.111653 0
M  V30 5068 H 480.974 1.85506 -0.410774 0
M  V30 5069 H 479.124 3.66637 1.28491 0
M  V30 5070 H 480.796 4.45328 -1.20337 0
M  V30 5071 H 479.039 4.16916 -1.19849 0
M  V30 5072 H 479.71 5.5134 -0.269918 0
M  V30 5073 H 482.186 4.04461 0.977284 0
M  V30 5074 H 481.062 5.21365 1.71666 0
M  V30 5075 H 481.323 3.65608 2.48563 0
M  V30 5076 N 480.382 0.0267497 1.57577 0
M  V30 5077 C 481.622 -0.65659 1.93567 0
M  V30 5078 C 481.986 -1.69429 0.903213 0
M  V30 5079 O 483.187 -2.42994 1.14923 0
M  V30 5080 C 481.458 -1.25912 3.34486 0
M  V30 5081 S 483.017 -1.96386 3.924 0
M  V30 5082 H 479.835 -0.216237 0.67732 0
M  V30 5083 H 482.437 0.0898475 1.95293 0
M  V30 5084 H 481.141 -0.491405 4.07447 0
M  V30 5085 H 480.672 -2.04291 3.36198 0
M  V30 5086 H 482.687 -3.24202 3.75643 0
M  V30 5087 N 481.861 -1.55662 -0.24637 0
M  V30 5088 C 482.809 -1.91186 -1.3248 0
M  V30 5089 C 483.803 -0.790996 -1.49799 0
M  V30 5090 O 485.009 -0.975617 -1.51267 0
M  V30 5091 H 481.384 -0.607207 -0.443626 0
M  V30 5092 H 483.355 -2.81221 -0.997853 0
M  V30 5093 C 482.104 -2.22349 -2.67313 0
M  V30 5094 H 481.427 -3.08097 -2.54786 0
M  V30 5095 H 482.867 -2.51107 -3.41645 0
M  V30 5096 C 481.326 -1.04001 -3.20446 0
M  V30 5097 O 481.856 -0.28828 -4.00664 0
M  V30 5098 N 480.062 -0.830494 -2.7848 0
M  V30 5099 H 479.609 -1.4435 -2.13356 0
M  V30 5100 H 479.567 -0.0403258 -3.14374 0
M  V30 5101 N 483.339 0.512053 -1.4905 0
M  V30 5102 C 484.587 1.26436 -1.57665 0
M  V30 5103 C 484.908 1.93255 -0.260293 0
M  V30 5104 O 484.178 1.82206 0.719564 0
M  V30 5105 H 482.758 0.469658 -0.580888 0
M  V30 5106 H 485.42 0.594398 -1.85615 0
M  V30 5107 H 484.516 2.03417 -2.36702 0
M  V30 5108 N 484.817 1.37938 0.762283 0
M  V30 5109 C 485.765 1.34569 1.89721 0
M  V30 5110 C 486.759 0.232929 1.67791 0
M  V30 5111 O 487.965 0.401485 1.75465 0
M  V30 5112 H 484.34 0.419594 0.624055 0
M  V30 5113 H 486.311 2.30357 1.8968 0
M  V30 5114 C 485.06 1.17898 3.27101 0
M  V30 5115 H 484.383 2.02781 3.44558 0
M  V30 5116 H 485.823 1.19593 4.06784 0
M  V30 5117 C 484.282 -0.114728 3.36705 0
M  V30 5118 O 484.812 -1.0949 3.8649 0
M  V30 5119 N 483.018 -0.16863 2.9011 0
M  V30 5120 H 482.565 0.62967 2.49786 0
M  V30 5121 H 482.523 -1.03383 2.96916 0
M  V30 5122 N 486.295 -0.989507 1.22664 0
M  V30 5123 C 487.243 -2.10148 0.997035 0
M  V30 5124 C 488.237 -1.6929 -0.0609783 0
M  V30 5125 O 489.443 -1.79766 0.0917523 0
M  V30 5126 H 485.818 -0.687256 0.305259 0
M  V30 5127 H 487.789 -2.26685 1.94053 0
M  V30 5128 C 486.538 -3.4257 0.595085 0
M  V30 5129 H 485.861 -3.74453 1.40089 0
M  V30 5130 H 487.301 -4.21344 0.473869 0
M  V30 5131 C 485.76 -3.29638 -0.695725 0
M  V30 5132 O 486.29 -3.61709 -1.74727 0
M  V30 5133 N 484.496 -2.82814 -0.668173 0
M  V30 5134 H 484.043 -2.56914 0.18787 0
M  V30 5135 H 484.001 -2.74544 -1.5321 0
M  V30 5136 N 487.773 -1.03688 -1.18687 0
M  V30 5137 C 488.72 -0.624624 -2.22187 0
M  V30 5138 C 489.69 0.365636 -1.62026 0
M  V30 5139 O 490.875 0.260481 -1.89014 0
M  V30 5140 C 488.015 0.0101738 -3.45099 0
M  V30 5141 C 487.128 -1.02709 -4.19613 0
M  V30 5142 C 486.263 -0.361213 -5.2997 0
M  V30 5143 C 485.302 -1.38384 -5.96252 0
M  V30 5144 N 484.439 -0.743196 -6.98155 0
M  V30 5145 H 489.279 -1.51176 -2.56807 0
M  V30 5146 H 486.816 -0.75636 -1.26165 0
M  V30 5147 H 488.774 0.395528 -4.15321 0
M  V30 5148 H 487.404 0.860848 -3.1111 0
M  V30 5149 H 486.456 -1.53043 -3.48256 0
M  V30 5150 H 487.768 -1.80398 -4.65036 0
M  V30 5151 H 486.922 0.0785537 -6.06649 0
M  V30 5152 H 485.661 0.447799 -4.8564 0
M  V30 5153 H 484.666 -1.83378 -5.18317 0
M  V30 5154 H 485.891 -2.19448 -6.42666 0
M  V30 5155 H 483.837 0.0455789 -6.55984 0
M  V30 5156 H 483.754 -1.45784 -7.41811 0
M  V30 5157 H 485.022 -0.327698 -7.78811 0
M  V30 5158 N 489.251 1.34841 -0.815825 0
M  V30 5159 C 490.214 2.27959 -0.238185 0
M  V30 5160 C 491.214 1.49983 0.579816 0
M  V30 5161 O 492.404 1.69617 0.396953 0
M  V30 5162 C 489.536 3.34314 0.666876 0
M  V30 5163 H 490.729 2.80558 -1.05958 0
M  V30 5164 H 488.282 1.44852 -0.587156 0
M  V30 5165 H 489.017 2.86916 1.5116 0
M  V30 5166 H 488.802 3.92014 0.0819106 0
M  V30 5167 H 490.292 4.0379 1.06506 0
M  V30 5168 N 490.729 0.570148 1.46925 0
M  V30 5169 C 491.639 -0.173061 2.33961 0
M  V30 5170 C 492.655 -0.898825 1.48987 0
M  V30 5171 O 493.831 -0.864825 1.81887 0
M  V30 5172 C 490.896 -1.18177 3.25937 0
M  V30 5173 C 489.957 -0.462041 4.26806 0
M  V30 5174 C 489.19 -1.4227 5.14388 0
M  V30 5175 O 489.413 -2.65842 5.04662 0
M  V30 5176 O 488.347 -0.940127 5.94513 0
M  V30 5177 H 492.173 0.541216 2.98839 0
M  V30 5178 H 489.758 0.330647 1.45695 0
M  V30 5179 H 491.64 -1.76372 3.82715 0
M  V30 5180 H 490.315 -1.87774 2.63671 0
M  V30 5181 H 489.222 0.161429 3.73752 0
M  V30 5182 H 490.555 0.192719 4.91823 0
M  V30 5183 N 492.207 -1.54576 0.307264 0
M  V30 5184 C 493.154 -2.23751 -0.56604 0
M  V30 5185 C 494.124 -1.22235 -1.12462 0
M  V30 5186 O 495.309 -1.50873 -1.16799 0
M  V30 5187 C 492.449 -2.98661 -1.72903 0
M  V30 5188 C 491.562 -4.14963 -1.20124 0
M  V30 5189 C 490.697 -4.77441 -2.3286 0
M  V30 5190 C 489.736 -5.85875 -1.77247 0
M  V30 5191 N 488.873 -6.42282 -2.8358 0
M  V30 5192 H 493.713 -2.97984 0.0304578 0
M  V30 5193 H 491.25 -1.47076 0.0268015 0
M  V30 5194 H 493.208 -3.40329 -2.41313 0
M  V30 5195 H 491.838 -2.26793 -2.29706 0
M  V30 5196 H 490.89 -3.78193 -0.409198 0
M  V30 5197 H 492.202 -4.93066 -0.754171 0
M  V30 5198 H 491.356 -5.21993 -3.09205 0
M  V30 5199 H 490.095 -3.98684 -2.80896 0
M  V30 5200 H 489.1 -5.40741 -0.993926 0
M  V30 5201 H 490.325 -6.6652 -1.30107 0
M  V30 5202 H 488.271 -5.66406 -3.30939 0
M  V30 5203 H 488.188 -7.1575 -2.43388 0
M  V30 5204 H 489.456 -6.91492 -3.59804 0
M  V30 5205 N 493.685 -0.035106 -1.57561 0
M  V30 5206 C 494.934 0.641604 -1.91223 0
M  V30 5207 C 495.247 1.72944 -0.913761 0
M  V30 5208 O 496.453 2.46321 -1.14185 0
M  V30 5209 C 494.909 1.19249 -3.3957 0
M  V30 5210 C 494.517 0.137616 -4.47789 0
M  V30 5211 C 496.261 1.84537 -3.82291 0
M  V30 5212 C 494.168 0.700478 -5.87237 0
M  V30 5213 H 493.098 0.243417 -0.713627 0
M  V30 5214 H 495.749 -0.101382 -1.8322 0
M  V30 5215 H 494.131 1.98728 -3.42525 0
M  V30 5216 H 495.305 -0.635153 -4.56402 0
M  V30 5217 H 493.62 -0.416855 -4.14308 0
M  V30 5218 H 496.217 2.27616 -4.83834 0
M  V30 5219 H 496.56 2.69054 -3.17672 0
M  V30 5220 H 497.093 1.11739 -3.81784 0
M  V30 5221 H 493.832 -0.106693 -6.55413 0
M  V30 5222 H 493.352 1.4416 -5.82218 0
M  V30 5223 H 495.031 1.18837 -6.35993 0
M  V30 5224 N 495.163 1.55791 0.238111 0
M  V30 5225 C 496.388 1.8244 0.986432 0
M  V30 5226 C 496.813 0.613314 1.7782 0
M  V30 5227 O 496.171 -0.437767 1.75935 0
M  V30 5228 C 496.219 3.06917 1.893 0
M  V30 5229 O 495.323 2.84449 2.98601 0
M  V30 5230 H 494.664 0.601975 0.280218 0
M  V30 5231 H 497.194 2.02987 0.256437 0
M  V30 5232 H 497.204 3.36583 2.30598 0
M  V30 5233 H 495.879 3.947 1.31091 0
M  V30 5234 H 494.456 2.65972 2.61368 0
M  V30 5235 N 496.642 -0.504142 1.49319 0
M  V30 5236 C 497.552 -1.63248 1.68486 0
M  V30 5237 C 498.568 -1.64488 0.567432 0
M  V30 5238 O 499.744 -1.82966 0.841749 0
M  V30 5239 C 496.809 -2.99627 1.74426 0
M  V30 5240 C 495.87 -3.09039 2.97982 0
M  V30 5241 C 495.103 -4.38913 3.0363 0
M  V30 5242 O 495.326 -5.27528 2.16958 0
M  V30 5243 O 494.26 -4.53231 3.96062 0
M  V30 5244 H 498.086 -1.50008 2.64067 0
M  V30 5245 H 495.671 -0.680086 1.33023 0
M  V30 5246 H 497.553 -3.80689 1.80705 0
M  V30 5247 H 496.228 -3.13136 0.820233 0
M  V30 5248 H 495.135 -2.27177 2.97223 0
M  V30 5249 H 496.468 -3.00456 3.89855 0
M  V30 5250 N 498.12 -1.38341 -0.754957 0
M  V30 5251 C 499.36 -1.35888 -1.52689 0
M  V30 5252 C 499.724 0.0513682 -1.91931 0
M  V30 5253 O 500.925 0.200761 -2.68049 0
M  V30 5254 C 499.196 -2.28666 -2.74676 0
M  V30 5255 S 500.755 -2.4422 -3.64558 0
M  V30 5256 H 497.573 -0.482165 -0.522531 0
M  V30 5257 H 500.175 -1.74253 -0.886358 0
M  V30 5258 H 498.879 -3.30023 -2.43953 0
M  V30 5259 H 498.41 -1.91445 -3.43675 0
M  V30 5260 H 500.425 -1.66525 -4.67423 0
M  V30 5261 N 499.598 0.982988 -1.23187 0
M  V30 5262 C 500.844 1.72648 -1.06398 0
M  V30 5263 C 501.177 1.90066 0.398561 0
M  V30 5264 O 500.452 1.45105 1.29518 0
M  V30 5265 C 500.735 3.12627 -1.78707 0
M  V30 5266 C 500.588 3.02795 -3.32618 0
M  V30 5267 C 501.907 4.11997 -1.54747 0
M  V30 5268 H 499.026 0.626649 -0.387918 0
M  V30 5269 H 501.668 1.14455 -1.51658 0
M  V30 5270 H 499.818 3.62308 -1.40234 0
M  V30 5271 H 501.49 2.60659 -3.80598 0
M  V30 5272 H 499.733 2.39362 -3.61785 0
M  V30 5273 H 500.404 4.01893 -3.78399 0
M  V30 5274 H 502.88 3.71114 -1.88186 0
M  V30 5275 H 501.756 5.08037 -2.07821 0
M  V30 5276 H 502.017 4.39462 -0.482249 0
M  V30 5277 N 501.076 1.04316 1.18135 0
M  V30 5278 C 502.008 0.594444 2.21357 0
M  V30 5279 C 503.021 -0.337215 1.59269 0
M  V30 5280 O 504.21 -0.131337 1.78016 0
M  V30 5281 C 501.31 -0.151251 3.38562 0
M  V30 5282 C 500.483 0.788907 4.30227 0
M  V30 5283 C 499.542 0.0860572 5.2613 0
M  V30 5284 O 498.568 0.717302 5.64662 0
M  V30 5285 N 499.77 -1.17969 5.68387 0
M  V30 5286 H 502.535 1.48227 2.60478 0
M  V30 5287 H 500.096 0.92396 1.32946 0
M  V30 5288 H 502.088 -0.631352 3.99745 0
M  V30 5289 H 500.658 -0.940639 2.98112 0
M  V30 5290 H 499.878 1.44882 3.6661 0
M  V30 5291 H 501.166 1.42738 4.88368 0
M  V30 5292 H 500.564 -1.71302 5.3914 0
M  V30 5293 H 499.121 -1.60402 6.31755 0
M  V30 5294 N 502.554 -1.34406 0.822964 0
M  V30 5295 C 503.779 -2.0304 0.423034 0
M  V30 5296 C 504.204 -1.61568 -0.963196 0
M  V30 5297 O 503.562 -0.800339 -1.62678 0
M  V30 5298 C 503.61 -3.56636 0.53321 0
M  V30 5299 O 502.714 -4.09971 -0.446939 0
M  V30 5300 H 502.055 -0.64075 0.174171 0
M  V30 5301 H 504.585 -1.71653 1.11339 0
M  V30 5302 H 504.595 -4.05945 0.408991 0
M  V30 5303 H 503.27 -3.86168 1.54425 0
M  V30 5304 H 501.847 -3.71835 -0.281601 0
M  V30 5305 N 504.032 -0.577932 -1.46621 0
M  V30 5306 C 505.309 0.00495287 -1.95599 0
M  V30 5307 C 505.689 1.46428 -1.5206 0
M  V30 5308 O 505.037 2.1517 -0.769046 0
M  V30 5309 C 505.247 -0.162114 -3.48623 0
M  V30 5310 C 506.595 -0.0274623 -4.24591 0
M  V30 5311 O 507.619 -0.0907067 -3.56084 0
M  V30 5312 O 506.478 0.1122 -5.46385 0
M  V30 5313 H 503.572 0.0525057 -0.825332 0
M  V30 5314 H 506.118 -0.645914 -1.56927 0
M  V30 5315 H 504.89 -1.17679 -3.73185 0
M  V30 5316 H 504.513 0.525407 -3.94113 0
M  V30 5317 N 505.51 1.54411 -0.315457 0
M  V30 5318 C 506.738 2.04833 0.291738 0
M  V30 5319 C 507.153 1.19203 1.46411 0
M  V30 5320 O 506.51 0.220867 1.81159 0
M  V30 5321 C 506.561 3.53969 0.73404 0
M  V30 5322 O 506.282 4.36346 -0.391682 0
M  V30 5323 C 507.783 4.2045 1.40489 0
M  V30 5324 H 505.003 0.668195 0.0612947 0
M  V30 5325 H 507.547 1.99276 -0.45929 0
M  V30 5326 H 505.702 3.5984 1.43506 0
M  V30 5327 H 506.116 5.24481 -0.0447088 0
M  V30 5328 H 507.59 5.26278 1.66539 0
M  V30 5329 H 508.067 3.71067 2.3496 0
M  V30 5330 H 508.673 4.18694 0.746662 0
M  V30 5331 N 506.988 0.0434614 1.5754 0
M  V30 5332 C 507.938 -0.943039 2.07583 0
M  V30 5333 C 508.922 -1.27662 0.979342 0
M  V30 5334 O 510.114 -1.26034 1.24276 0
M  V30 5335 C 507.243 -2.22056 2.61813 0
M  V30 5336 C 506.329 -1.91471 3.78417 0
M  V30 5337 N 506.72 -1.31214 4.88484 0
M  V30 5338 C 505.018 -2.21384 3.87176 0
M  V30 5339 C 505.719 -1.18084 5.69588 0
M  V30 5340 N 504.695 -1.68116 5.16951 0
M  V30 5341 H 508.497 -0.472354 2.90079 0
M  V30 5342 H 506.011 -0.161191 1.61598 0
M  V30 5343 H 508.008 -2.93618 2.95963 0
M  V30 5344 H 506.668 -2.69738 1.80752 0
M  V30 5345 H 507.679 -0.985318 5.08441 0
M  V30 5346 H 504.356 -2.7164 3.17046 0
M  V30 5347 H 505.746 -0.713684 6.68099 0
M  V30 5348 N 508.466 -1.55915 -0.229846 0
M  V30 5349 C 509.694 -1.82617 -0.972562 0
M  V30 5350 C 510.109 -0.621488 -1.78278 0
M  V30 5351 O 509.466 0.409956 -1.77836 0
M  V30 5352 C 509.517 -3.0774 -1.89679 0
M  V30 5353 O 509.238 -4.23559 -1.11934 0
M  V30 5354 C 510.739 -3.47368 -2.75409 0
M  V30 5355 H 507.959 -0.60727 -0.285419 0
M  V30 5356 H 510.503 -2.02996 -0.247579 0
M  V30 5357 H 508.658 -2.89361 -2.57583 0
M  V30 5358 H 509.072 -4.94586 -1.74599 0
M  V30 5359 H 510.546 -4.37977 -3.35977 0
M  V30 5360 H 511.023 -2.68737 -3.47386 0
M  V30 5361 H 511.629 -3.68158 -2.12931 0
M  V30 5362 N 509.944 0.496216 -1.49584 0
M  V30 5363 C 511.221 1.25755 -1.49816 0
M  V30 5364 C 511.601 2.09859 -0.228572 0
M  V30 5365 O 510.949 2.14449 0.788908 0
M  V30 5366 C 511.159 2.11017 -2.7798 0
M  V30 5367 C 512.507 2.70047 -3.27658 0
M  V30 5368 O 513.531 2.21281 -2.79129 0
M  V30 5369 O 512.39 3.58834 -4.1219 0
M  V30 5370 H 509.484 0.569322 -0.599834 0
M  V30 5371 H 512.03 0.510094 -1.61852 0
M  V30 5372 H 510.802 1.48879 -3.61871 0
M  V30 5373 H 510.425 2.92947 -2.68827 0
M  V30 5374 N 511.423 1.38739 0.74761 0
M  V30 5375 C 512.371 1.36573 1.88283 0
M  V30 5376 C 513.365 0.250712 1.67534 0
M  V30 5377 O 514.571 0.420073 1.7503 0
M  V30 5378 H 510.946 0.42619 0.619569 0
M  V30 5379 H 512.917 2.32356 1.87226 0
M  V30 5380 C 511.666 1.21361 3.25832 0
M  V30 5381 H 510.989 2.06424 3.42388 0
M  V30 5382 H 512.429 1.23901 4.05493 0
M  V30 5383 C 510.888 -0.0790099 3.36807 0
M  V30 5384 O 511.418 -1.05385 3.8763 0
M  V30 5385 N 509.624 -0.13785 2.90273 0
M  V30 5386 H 509.171 0.656128 2.49104 0
M  V30 5387 H 509.129 -1.00228 2.97996 0
M  V30 5388 N 512.901 -0.976442 1.23707 0
M  V30 5389 C 513.833 -2.07212 0.979574 0
M  V30 5390 C 514.846 -1.6273 -0.0478528 0
M  V30 5391 O 516.035 -1.77506 0.18815 0
M  V30 5392 C 513.135 -3.35835 0.45479 0
M  V30 5393 C 512.308 -4.09268 1.54331 0
M  V30 5394 C 511.367 -5.16166 1.02271 0
M  V30 5395 O 510.393 -5.42827 1.71254 0
M  V30 5396 N 511.595 -5.80313 -0.147419 0
M  V30 5397 H 514.36 -2.29878 1.92292 0
M  V30 5398 H 511.921 -1.14343 1.14618 0
M  V30 5399 H 513.913 -4.04597 0.0914631 0
M  V30 5400 H 512.483 -3.10106 -0.394068 0
M  V30 5401 H 511.703 -3.34906 2.07923 0
M  V30 5402 H 512.991 -4.55095 2.27522 0
M  V30 5403 H 512.389 -5.61043 -0.724353 0
M  V30 5404 H 510.946 -6.50231 -0.451972 0
M  V30 5405 N 514.379 -1.04941 -1.1758 0
M  V30 5406 C 515.607 -0.778294 -1.91703 0
M  V30 5407 C 516.022 0.665697 -1.76675 0
M  V30 5408 O 515.379 1.45456 -1.10222 0
M  V30 5409 C 515.43 -1.14628 -3.42845 0
M  V30 5410 O 515.151 -2.53359 -3.57409 0
M  V30 5411 C 516.652 -0.900931 -4.34049 0
M  V30 5412 H 513.872 -0.283167 -0.608323 0
M  V30 5413 H 516.416 -1.39942 -1.49119 0
M  V30 5414 H 514.571 -0.569953 -3.83184 0
M  V30 5415 H 514.985 -2.67709 -4.51035 0
M  V30 5416 H 516.459 -1.20817 -5.38616 0
M  V30 5417 H 516.936 0.163966 -4.38894 0
M  V30 5418 H 517.542 -1.46097 -3.99419 0
M  V30 5419 N 515.857 1.33968 -0.830081 0
M  V30 5420 C 517.105 1.97672 -0.420734 0
M  V30 5421 C 517.426 1.66111 1.02138 0
M  V30 5422 O 516.696 0.955503 1.71017 0
M  V30 5423 H 515.276 0.73125 -0.152587 0
M  V30 5424 H 517.938 1.63483 -1.0611 0
M  V30 5425 H 517.034 3.07294 -0.545588 0
M  V30 5426 N 517.335 0.585699 1.46312 0
M  V30 5427 C 518.282 -0.145835 2.30339 0
M  V30 5428 C 519.252 -0.881215 1.40797 0
M  V30 5429 O 520.437 -0.871293 1.69744 0
M  V30 5430 C 517.577 -1.15161 3.25318 0
M  V30 5431 C 516.69 -0.419367 4.2996 0
M  V30 5432 C 515.825 -1.41293 5.12064 0
M  V30 5433 C 514.864 -0.667261 6.08452 0
M  V30 5434 N 514.001 -1.60903 6.83414 0
M  V30 5435 H 518.841 0.576755 2.92365 0
M  V30 5436 H 516.378 0.296237 1.44086 0
M  V30 5437 H 518.336 -1.74763 3.78832 0
M  V30 5438 H 516.966 -1.84188 2.65094 0
M  V30 5439 H 516.018 0.291751 3.7928 0
M  V30 5440 H 517.33 0.163433 4.98532 0
M  V30 5441 H 516.484 -2.08167 5.6987 0
M  V30 5442 H 515.223 -2.02966 4.43459 0
M  V30 5443 H 514.228 0.0152356 5.49798 0
M  V30 5444 H 515.453 -0.0558817 6.79077 0
M  V30 5445 H 513.399 -2.21381 6.17516 0
M  V30 5446 H 513.316 -1.07911 7.48259 0
M  V30 5447 H 514.584 -2.26802 7.45775 0
M  V30 5448 N 518.813 -1.54241 0.323641 0
M  V30 5449 C 519.763 -2.21071 -0.557833 0
M  V30 5450 C 520.747 -1.19126 -1.08157 0
M  V30 5451 O 521.939 -1.44755 -1.01857 0
M  V30 5452 C 519.068 -2.97208 -1.71821 0
M  V30 5453 C 518.154 -4.06491 -1.20936 0
M  V30 5454 N 518.545 -5.04052 -0.420202 0
M  V30 5455 C 516.843 -4.20443 -1.48808 0
M  V30 5456 C 517.544 -5.81516 -0.146413 0
M  V30 5457 N 516.52 -5.38641 -0.732562 0
M  V30 5458 H 520.322 -2.93853 0.0523921 0
M  V30 5459 H 517.836 -1.61883 0.129502 0
M  V30 5460 H 519.833 -3.4357 -2.36146 0
M  V30 5461 H 518.493 -2.25947 -2.33191 0
M  V30 5462 H 519.504 -5.17862 -0.0630401 0
M  V30 5463 H 516.181 -3.60396 -2.10762 0
M  V30 5464 H 517.571 -6.70119 0.488895 0
M  V30 5465 N 520.291 -0.0518155 -1.57515 0
M  V30 5466 C 521.238 0.922352 -2.11569 0
M  V30 5467 C 522.208 1.30842 -1.02321 0
M  V30 5468 O 523.393 1.39778 -1.29872 0
M  V30 5469 C 520.533 2.19167 -2.6657 0
M  V30 5470 C 519.646 1.86003 -3.89906 0
M  V30 5471 C 518.781 3.07398 -4.33221 0
M  V30 5472 C 517.82 2.70158 -5.49255 0
M  V30 5473 N 516.957 3.84248 -5.8762 0
M  V30 5474 H 521.797 0.454506 -2.94514 0
M  V30 5475 H 519.334 0.212718 -1.45554 0
M  V30 5476 H 521.292 2.93443 -2.96559 0
M  V30 5477 H 519.922 2.63528 -1.86421 0
M  V30 5478 H 518.974 1.01874 -3.66505 0
M  V30 5479 H 520.286 1.54592 -4.74239 0
M  V30 5480 H 519.44 3.89972 -4.64765 0
M  V30 5481 H 518.179 3.41988 -3.477 0
M  V30 5482 H 517.184 1.86001 -5.17382 0
M  V30 5483 H 518.409 2.36759 -6.36492 0
M  V30 5484 H 516.355 4.18638 -5.05053 0
M  V30 5485 H 516.272 3.56538 -6.66646 0
M  V30 5486 H 517.54 4.6746 -6.2378 0
M  V30 5487 N 521.769 1.56035 0.221574 0
M  V30 5488 C 523.046 1.69837 0.970301 0
M  V30 5489 C 523.426 0.599065 2.02421 0
M  V30 5490 O 522.774 -0.393929 2.25079 0
M  V30 5491 C 522.984 3.11148 1.58076 0
M  V30 5492 C 524.332 3.70555 2.07302 0
M  V30 5493 O 525.356 3.14109 1.6797 0
M  V30 5494 O 524.215 4.69562 2.79596 0
M  V30 5495 H 521.309 0.691727 0.453257 0
M  V30 5496 H 523.855 1.68353 0.213358 0
M  V30 5497 H 522.627 3.82617 0.819759 0
M  V30 5498 H 522.25 3.16749 2.40324 0
M  V30 5499 N 523.247 -0.488276 1.49845 0
M  V30 5500 C 524.663 -0.820566 1.3689 0
M  V30 5501 C 524.863 -1.97248 0.411752 0
M  V30 5502 O 523.919 -2.52042 -0.151931 0
M  V30 5503 C 525.232 -1.1488 2.77891 0
M  V30 5504 C 526.78 -1.25626 2.86683 0
M  V30 5505 C 527.255 -1.61772 4.28479 0
M  V30 5506 N 528.746 -1.68797 4.31349 0
M  V30 5507 C 529.481 -1.98235 5.38043 0
M  V30 5508 N 528.977 -2.2581 6.54967 0
M  V30 5509 N 530.77 -1.99593 5.2547 0
M  V30 5510 H 522.921 0.271123 2.10662 0
M  V30 5511 H 525.184 0.058735 0.946179 0
M  V30 5512 H 524.89 -0.375614 3.49688 0
M  V30 5513 H 524.764 -2.08919 3.14058 0
M  V30 5514 H 527.151 -2.02014 2.15114 0
M  V30 5515 H 527.232 -0.296072 2.54081 0
M  V30 5516 H 526.876 -0.859295 5.00578 0
M  V30 5517 H 526.806 -2.58912 4.58554 0
M  V30 5518 H 529.297 -1.49595 3.4703 0
M  V30 5519 H 529.61 -2.47497 7.32096 0
M  V30 5520 H 527.955 -2.23239 6.58171 0
M  V30 5521 H 531.146 -1.77535 4.33127 0
M  V30 5522 H 531.319 -2.222 6.08713 0
M  V30 5523 N 524.725 -1.39134 -0.740242 0
M  V30 5524 C 526.141 -1.20623 -1.0451 0
M  V30 5525 C 526.341 -0.0641651 -2.01398 0
M  V30 5526 O 525.397 0.585843 -2.4561 0
M  V30 5527 C 526.71 -2.53815 -1.6124 0
M  V30 5528 C 528.258 -2.60615 -1.73346 0
M  V30 5529 C 528.733 -3.94015 -2.33486 0
M  V30 5530 N 530.224 -3.95627 -2.40902 0
M  V30 5531 C 530.959 -4.95616 -2.88361 0
M  V30 5532 N 530.455 -6.06003 -3.35756 0
M  V30 5533 N 532.248 -4.82998 -2.87523 0
M  V30 5534 H 524.399 -2.12176 -0.0975576 0
M  V30 5535 H 526.662 -0.942066 -0.105904 0
M  V30 5536 H 526.368 -3.37911 -0.975144 0
M  V30 5537 H 526.242 -2.73162 -2.6012 0
M  V30 5538 H 528.629 -1.76906 -2.36195 0
M  V30 5539 H 528.71 -2.45123 -0.731336 0
M  V30 5540 H 528.354 -4.78153 -1.71267 0
M  V30 5541 H 528.284 -4.06825 -3.34366 0
M  V30 5542 H 530.775 -3.15903 -2.07398 0
M  V30 5543 H 531.088 -6.78215 -3.70464 0
M  V30 5544 H 529.433 -6.09604 -3.33778 0
M  V30 5545 H 532.624 -3.95866 -2.49816 0
M  V30 5546 H 532.797 -5.61072 -3.24196 0
M  V30 5547 N 526.204 0.969867 -1.24223 0
M  V30 5548 C 527.151 2.06407 -1.0327 0
M  V30 5549 C 528.121 1.66014 0.0533 0
M  V30 5550 O 529.306 1.90533 -0.100896 0
M  V30 5551 C 526.446 3.3909 -0.641262 0
M  V30 5552 C 525.559 3.9269 -1.80051 0
M  V30 5553 C 524.694 5.13631 -1.35486 0
M  V30 5554 C 523.733 5.59423 -2.48419 0
M  V30 5555 N 522.87 6.71586 -2.04737 0
M  V30 5556 H 527.71 2.23663 -1.96923 0
M  V30 5557 H 525.247 1.09624 -0.980862 0
M  V30 5558 H 527.205 4.15323 -0.395351 0
M  V30 5559 H 525.835 3.21765 0.258269 0
M  V30 5560 H 524.887 3.13116 -2.16014 0
M  V30 5561 H 526.199 4.22636 -2.64916 0
M  V30 5562 H 525.353 5.97231 -1.0677 0
M  V30 5563 H 524.092 4.85364 -0.476722 0
M  V30 5564 H 523.097 4.74398 -2.77897 0
M  V30 5565 H 524.322 5.89705 -3.36786 0
M  V30 5566 H 522.268 6.45058 -1.19318 0
M  V30 5567 H 522.185 7.0097 -2.83156 0
M  V30 5568 H 523.453 7.58633 -1.79154 0
M  V30 5569 N 527.682 1.05563 1.17022 0
M  V30 5570 C 528.93 0.76642 1.87004 0
M  V30 5571 C 529.251 -0.708854 1.8166 0
M  V30 5572 O 528.521 -1.51242 1.2451 0
M  V30 5573 H 527.101 0.280516 0.692329 0
M  V30 5574 H 529.763 1.33557 1.41945 0
M  V30 5575 H 528.859 1.08472 2.92644 0
M  V30 5576 N 529.16 -1.33526 0.837174 0
M  V30 5577 C 530.385 -2.0258 0.444545 0
M  V30 5578 C 530.81 -1.6258 -0.946006 0
M  V30 5579 O 530.168 -0.817548 -1.6182 0
M  V30 5580 C 530.216 -3.5605 0.571006 0
M  V30 5581 O 529.32 -4.10422 -0.403431 0
M  V30 5582 H 528.661 -0.638866 0.180958 0
M  V30 5583 H 531.191 -1.70462 1.13154 0
M  V30 5584 H 531.201 -4.05488 0.452024 0
M  V30 5585 H 529.876 -3.84509 1.58512 0
M  V30 5586 H 528.453 -3.72113 -0.242147 0
M  V30 5587 N 530.638 -0.59345 -1.46 0
M  V30 5588 C 531.568 0.121192 -2.33185 0
M  V30 5589 C 532.549 0.872977 -1.4599 0
M  V30 5590 O 533.734 0.846321 -1.74789 0
M  V30 5591 C 530.864 1.12844 -3.28456 0
M  V30 5592 C 529.818 0.4908 -4.25177 0
M  V30 5593 C 529.144 1.60529 -5.10034 0
M  V30 5594 C 530.444 -0.578949 -5.19081 0
M  V30 5595 H 532.138 -0.606767 -2.93187 0
M  V30 5596 H 529.684 -0.293242 -1.40983 0
M  V30 5597 H 531.637 1.63684 -3.88311 0
M  V30 5598 H 530.361 1.88681 -2.66584 0
M  V30 5599 H 529.02 0.00339328 -3.666 0
M  V30 5600 H 528.668 2.35359 -4.44539 0
M  V30 5601 H 528.368 1.18422 -5.75543 0
M  V30 5602 H 529.892 2.11623 -5.72755 0
M  V30 5603 H 531.306 -0.155199 -5.7309 0
M  V30 5604 H 529.703 -0.920947 -5.92991 0
M  V30 5605 H 530.773 -1.46109 -4.62364 0
M  V30 5606 N 532.116 1.54067 -0.331816 0
M  V30 5607 C 533.393 1.92915 0.322955 0
M  V30 5608 C 533.773 1.26225 1.69205 0
M  V30 5609 O 533.121 0.408919 2.24811 0
M  V30 5610 C 533.331 3.46619 0.406946 0
M  V30 5611 C 534.679 4.19386 0.663339 0
M  V30 5612 O 535.703 3.5282 0.489536 0
M  V30 5613 O 534.562 5.37288 0.999193 0
M  V30 5614 H 531.656 0.805808 0.186016 0
M  V30 5615 H 534.202 1.65342 -0.382135 0
M  V30 5616 H 532.974 3.87354 -0.554287 0
M  V30 5617 H 532.597 3.80324 1.15929 0
M  V30 5618 N 533.594 0.0601682 1.57485 0
M  V30 5619 C 534.84 -0.612501 1.93329 0
M  V30 5620 C 535.173 -1.6996 0.939526 0
M  V30 5621 O 534.448 -1.94472 -0.0330957 0
M  V30 5622 C 534.731 -1.20025 3.39508 0
M  V30 5623 C 534.584 -0.12059 4.49638 0
M  V30 5624 C 535.903 -2.10923 3.86264 0
M  V30 5625 H 533.022 -0.221185 0.703027 0
M  V30 5626 H 535.664 0.123768 1.89596 0
M  V30 5627 H 533.814 -1.82774 3.42821 0
M  V30 5628 H 535.486 0.51185 4.58452 0
M  V30 5629 H 533.729 0.550251 4.30296 0
M  V30 5630 H 534.4 -0.572019 5.49028 0
M  V30 5631 H 536.876 -1.58124 3.84884 0
M  V30 5632 H 535.752 -2.48987 4.8918 0
M  V30 5633 H 536.013 -3.01292 3.23536 0
M  V30 5634 N 535.072 -1.5615 -0.213296 0
M  V30 5635 C 536.019 -1.93086 -1.26437 0
M  V30 5636 C 536.989 -0.789086 -1.4616 0
M  V30 5637 O 538.174 -1.04569 -1.59593 0
M  V30 5638 C 535.314 -2.26003 -2.608 0
M  V30 5639 C 534.427 -3.53156 -2.48807 0
M  V30 5640 C 533.562 -3.7548 -3.7575 0
M  V30 5641 C 532.601 -4.96119 -3.58514 0
M  V30 5642 N 531.738 -5.14791 -4.77425 0
M  V30 5643 H 536.578 -2.82707 -0.942376 0
M  V30 5644 H 534.115 -1.39919 -0.454001 0
M  V30 5645 H 536.073 -2.431 -3.39055 0
M  V30 5646 H 534.703 -1.39546 -2.91079 0
M  V30 5647 H 533.755 -3.44207 -1.61944 0
M  V30 5648 H 535.067 -4.41565 -2.31996 0
M  V30 5649 H 534.221 -3.92718 -4.62447 0
M  V30 5650 H 532.96 -2.85368 -3.95495 0
M  V30 5651 H 531.965 -4.78823 -2.70201 0
M  V30 5652 H 533.19 -5.87724 -3.40231 0
M  V30 5653 H 531.136 -4.27623 -4.97468 0
M  V30 5654 H 531.053 -5.97347 -4.63371 0
M  V30 5655 H 532.321 -5.36471 -5.65525 0
M  V30 5656 N 536.55 0.480323 -1.50102 0
M  V30 5657 C 537.513 1.56181 -1.6775 0
M  V30 5658 C 538.513 1.51156 -0.548503 0
M  V30 5659 O 539.703 1.5394 -0.815363 0
M  V30 5660 C 536.835 2.95823 -1.69415 0
M  V30 5661 H 538.028 1.41855 -2.6423 0
M  V30 5662 H 535.581 0.70605 -1.39444 0
M  V30 5663 H 536.316 3.15604 -0.745948 0
M  V30 5664 H 536.101 3.00878 -2.51425 0
M  V30 5665 H 537.591 3.74359 -1.85054 0
M  V30 5666 N 538.028 1.39524 0.732853 0
M  V30 5667 C 539.274 1.37068 1.49467 0
M  V30 5668 C 539.607 -0.0327166 1.94172 0
M  V30 5669 O 538.882 -0.998071 1.66939 0
M  V30 5670 C 539.165 2.34494 2.73285 0
M  V30 5671 C 539.018 3.83784 2.34585 0
M  V30 5672 C 540.337 2.29717 3.75391 0
M  V30 5673 H 537.456 0.499206 0.542183 0
M  V30 5674 H 540.098 1.70532 0.837783 0
M  V30 5675 H 538.248 2.06087 3.29333 0
M  V30 5676 H 539.92 4.22949 1.84151 0
M  V30 5677 H 538.163 4.00455 1.66787 0
M  V30 5678 H 538.834 4.47444 3.23262 0
M  V30 5679 H 541.31 2.54839 3.28932 0
M  V30 5680 H 540.186 2.99962 4.59689 0
M  V30 5681 H 540.447 1.30291 4.22465 0
M  V30 5682 N 539.506 -0.963266 1.24736 0
M  V30 5683 C 540.469 -2.04013 1.04457 0
M  V30 5684 C 541.469 -1.608 0.000335555 0
M  V30 5685 O 542.659 -1.72515 0.241719 0
M  V30 5686 C 539.791 -3.35858 0.584162 0
M  V30 5687 H 540.984 -2.23436 2.00041 0
M  V30 5688 H 538.537 -1.13914 1.07021 0
M  V30 5689 H 539.272 -3.22128 -0.374673 0
M  V30 5690 H 539.057 -3.68568 1.3379 0
M  V30 5691 H 540.547 -4.1502 0.463451 0
M  V30 5692 N 540.985 -1.06182 -1.16461 0
M  V30 5693 C 542.21 -0.798599 -1.91408 0
M  V30 5694 C 542.635 0.640987 -1.76842 0
M  V30 5695 O 541.993 1.44652 -1.09296 0
M  V30 5696 C 542.041 -1.19665 -3.40165 0
M  V30 5697 O 541.145 -0.334768 -4.11039 0
M  V30 5698 H 540.486 -0.291961 -0.596368 0
M  V30 5699 H 543.016 -1.41732 -1.47557 0
M  V30 5700 H 543.026 -1.16772 -3.90933 0
M  V30 5701 H 541.701 -2.24526 -3.50087 0
M  V30 5702 H 540.278 -0.425168 -3.70468 0
M  V30 5703 N 542.463 1.3308 -0.844243 0
M  V30 5704 C 543.879 1.50447 -0.532729 0
M  V30 5705 C 544.079 1.78292 0.938837 0
M  V30 5706 O 543.135 1.84635 1.72239 0
M  V30 5707 C 544.448 2.65555 -1.41072 0
M  V30 5708 C 545.996 2.7944 -1.41005 0
M  V30 5709 C 546.471 3.97616 -2.27301 0
M  V30 5710 N 547.962 4.0486 -2.2504 0
M  V30 5711 C 548.697 4.95508 -2.88547 0
M  V30 5712 N 548.193 5.91236 -3.61126 0
M  V30 5713 N 549.986 4.88548 -2.77989 0
M  V30 5714 H 542.137 1.13269 -1.79677 0
M  V30 5715 H 544.4 0.55734 -0.766861 0
M  V30 5716 H 544.106 2.51675 -2.45668 0
M  V30 5717 H 543.98 3.61089 -1.09061 0
M  V30 5718 H 546.367 2.92749 -0.371784 0
M  V30 5719 H 546.448 1.8465 -1.77026 0
M  V30 5720 H 546.092 3.85066 -3.3119 0
M  V30 5721 H 546.022 4.91661 -1.88619 0
M  V30 5722 H 548.513 3.36353 -1.72264 0
M  V30 5723 H 548.826 6.57079 -4.06776 0
M  V30 5724 H 547.171 5.91295 -3.65234 0
M  V30 5725 H 550.362 4.12729 -2.20846 0
M  V30 5726 H 550.535 5.58994 -3.27765 0
M  V30 5727 N 543.941 0.601185 1.45683 0
M  V30 5728 C 544.904 -0.111398 2.28929 0
M  V30 5729 C 545.904 -0.801246 1.39416 0
M  V30 5730 O 547.094 -0.650383 1.61603 0
M  V30 5731 C 544.226 -1.16773 3.20276 0
M  V30 5732 H 545.419 0.620412 2.93413 0
M  V30 5733 H 542.972 0.359946 1.52099 0
M  V30 5734 H 543.707 -1.93051 2.60579 0
M  V30 5735 H 543.492 -0.677358 3.86205 0
M  V30 5736 H 544.982 -1.66698 3.82886 0
M  V30 5737 N 545.419 -1.53889 0.339982 0
M  V30 5738 C 546.647 -2.05271 -0.259114 0
M  V30 5739 C 547.062 -1.21517 -1.44496 0
M  V30 5740 O 546.419 -0.24966 -1.80784 0
M  V30 5741 C 546.47 -3.55092 -0.677634 0
M  V30 5742 O 546.191 -4.35667 0.461051 0
M  V30 5743 C 547.692 -4.22631 -1.33782 0
M  V30 5744 H 544.912 -0.669085 -0.0506566 0
M  V30 5745 H 547.456 -1.9852 0.490935 0
M  V30 5746 H 545.611 -3.62077 -1.37763 0
M  V30 5747 H 546.025 -5.24343 0.128144 0
M  V30 5748 H 547.499 -5.28861 -1.58145 0
M  V30 5749 H 547.976 -3.74758 -2.29027 0
M  V30 5750 H 548.582 -4.19829 -0.679957 0
M  V30 5751 N 546.897 -0.0685191 -1.57451 0
M  V30 5752 C 547.807 0.914677 -2.16034 0
M  V30 5753 C 548.823 1.32938 -1.12265 0
M  V30 5754 O 549.999 1.40275 -1.44516 0
M  V30 5755 C 547.064 2.16519 -2.70777 0
M  V30 5756 C 546.125 1.80721 -3.89408 0
M  V30 5757 C 545.358 2.9981 -4.41531 0
M  V30 5758 O 545.581 4.13727 -3.92666 0
M  V30 5759 O 544.515 2.79817 -5.32903 0
M  V30 5760 H 548.341 0.446364 -3.00402 0
M  V30 5761 H 545.926 0.154367 -1.486 0
M  V30 5762 H 547.808 2.89856 -3.05878 0
M  V30 5763 H 546.483 2.62454 -1.89471 0
M  V30 5764 H 545.39 1.04646 -3.59166 0
M  V30 5765 H 546.723 1.39571 -4.71997 0
M  V30 5766 N 548.375 1.56261 0.205012 0
M  V30 5767 C 549.621 1.80306 0.9283 0
M  V30 5768 C 549.954 0.640932 1.83319 0
M  V30 5769 O 549.229 -0.359032 1.91158 0
M  V30 5770 C 549.512 3.14547 1.75306 0
M  V30 5771 C 549.365 4.41236 0.873562 0
M  V30 5772 C 550.684 3.45382 2.72762 0
M  V30 5773 H 547.803 0.655929 0.336044 0
M  V30 5774 H 550.445 1.88984 0.196211 0
M  V30 5775 H 548.595 3.0728 2.37721 0
M  V30 5776 H 550.267 4.60539 0.264887 0
M  V30 5777 H 548.51 4.33427 0.179773 0
M  V30 5778 H 549.181 5.31639 1.48541 0
M  V30 5779 H 551.657 3.52884 2.20481 0
M  V30 5780 H 550.533 4.40449 3.2756 0
M  V30 5781 H 550.794 2.68377 3.51321 0
M  V30 5782 N 549.853 -0.472356 1.50355 0
M  V30 5783 C 551.078 -1.25251 1.65309 0
M  V30 5784 C 551.503 -1.85081 0.335643 0
M  V30 5785 O 550.861 -1.67227 -0.700335 0
M  V30 5786 C 550.909 -2.3379 2.74544 0
M  V30 5787 O 550.013 -3.38401 2.35709 0
M  V30 5788 H 549.354 -0.368539 0.552336 0
M  V30 5789 H 551.884 -0.562271 1.96722 0
M  V30 5790 H 551.894 -2.79121 2.97583 0
M  V30 5791 H 550.569 -1.89614 3.70161 0
M  V30 5792 H 549.146 -2.9879 2.23112 0
M  V30 5793 N 551.331 -1.39911 -0.725443 0
M  V30 5794 C 552.556 -1.41137 -1.5197 0
M  V30 5795 C 552.981 -0.010262 -1.88097 0
M  V30 5796 O 552.339 0.979184 -1.52583 0
M  V30 5797 C 552.387 -2.2994 -2.77777 0
M  V30 5798 O 551.491 -1.73586 -3.74088 0
M  V30 5799 H 550.832 -0.480219 -0.458569 0
M  V30 5800 H 553.362 -1.84023 -0.894249 0
M  V30 5801 H 553.372 -2.44785 -3.26411 0
M  V30 5802 H 552.047 -3.31759 -2.50816 0
M  V30 5803 H 550.624 -1.68035 -3.32894 0
M  V30 5804 N 552.809 0.956637 -1.25245 0
M  V30 5805 C 553.741 2.05628 -1.01242 0
M  V30 5806 C 554.754 1.62785 0.0219579 0
M  V30 5807 O 555.943 1.77184 -0.216365 0
M  V30 5808 C 553.043 3.35069 -0.508161 0
M  V30 5809 C 552.216 4.06761 -1.60823 0
M  V30 5810 C 551.275 5.14473 -1.1047 0
M  V30 5811 O 550.301 5.40033 -1.79868 0
M  V30 5812 N 551.503 5.80474 0.0550773 0
M  V30 5813 H 554.268 2.2679 -1.95925 0
M  V30 5814 H 551.829 1.12505 -1.16423 0
M  V30 5815 H 553.821 4.044 -0.155819 0
M  V30 5816 H 552.391 3.10694 0.344683 0
M  V30 5817 H 551.611 3.31555 -2.13224 0
M  V30 5818 H 552.899 4.51418 -2.34733 0
M  V30 5819 H 552.297 5.62125 0.635004 0
M  V30 5820 H 550.854 6.50868 0.348469 0
M  V30 5821 N 554.287 1.06798 1.15896 0
M  V30 5822 C 555.703 0.792423 1.38538 0
M  V30 5823 C 555.903 -0.60592 1.92174 0
M  V30 5824 O 554.959 -1.36561 2.12385 0
M  V30 5825 C 556.272 1.86157 2.36149 0
M  V30 5826 C 557.82 1.88567 2.49823 0
M  V30 5827 C 558.295 2.9455 3.5072 0
M  V30 5828 N 559.786 2.93616 3.58251 0
M  V30 5829 C 560.521 3.72267 4.36125 0
M  V30 5830 N 560.017 4.60751 5.17379 0
M  V30 5831 N 561.81 3.60637 4.31158 0
M  V30 5832 H 553.961 1.96993 0.794198 0
M  V30 5833 H 556.224 0.853942 0.411688 0
M  V30 5834 H 555.93 2.86603 2.03843 0
M  V30 5835 H 555.804 1.71692 3.3586 0
M  V30 5836 H 558.191 0.887765 2.8143 0
M  V30 5837 H 558.272 2.0711 1.5013 0
M  V30 5838 H 557.916 3.94537 3.19849 0
M  V30 5839 H 557.846 2.73255 4.50155 0
M  V30 5840 H 560.337 2.29472 3.00252 0
M  V30 5841 H 560.65 5.17408 5.74028 0
M  V30 5842 H 558.995 4.64803 5.16704 0
M  V30 5843 H 562.186 2.90892 3.66742 0
M  V30 5844 H 562.359 4.22176 4.91601 0
M  V30 5845 N 555.766 -1.3263 0.851289 0
M  V30 5846 C 557.182 -1.50162 0.5407 0
M  V30 5847 C 557.382 -1.78788 -0.929369 0
M  V30 5848 O 556.438 -1.85545 -1.71258 0
M  V30 5849 C 557.751 -2.64803 1.42478 0
M  V30 5850 C 559.299 -2.78688 1.42485 0
M  V30 5851 C 559.774 -3.96405 2.29407 0
M  V30 5852 N 561.265 -4.0366 2.27184 0
M  V30 5853 C 562 -4.93971 2.9117 0
M  V30 5854 N 561.496 -5.89313 3.64256 0
M  V30 5855 N 563.289 -4.87066 2.80576 0
M  V30 5856 H 555.44 -1.12315 1.80275 0
M  V30 5857 H 557.703 -0.553266 0.769806 0
M  V30 5858 H 557.409 -2.50368 2.46999 0
M  V30 5859 H 557.283 -3.60506 1.10974 0
M  V30 5860 H 559.67 -2.92547 0.387304 0
M  V30 5861 H 559.751 -1.83708 1.78002 0
M  V30 5862 H 559.395 -3.83304 3.33228 0
M  V30 5863 H 559.325 -4.90654 1.91224 0
M  V30 5864 H 561.816 -3.35435 1.74045 0
M  V30 5865 H 562.129 -6.54913 4.10255 0
M  V30 5866 H 560.474 -5.8935 3.68364 0
M  V30 5867 H 563.665 -4.11552 2.23031 0
M  V30 5868 H 563.838 -5.57248 3.30725 0
M  V30 5869 N 557.244 -0.608902 -1.45362 0
M  V30 5870 C 558.194 0.130616 -2.27626 0
M  V30 5871 C 559.178 0.837323 -1.37396 0
M  V30 5872 O 560.37 0.727096 -1.61376 0
M  V30 5873 C 557.499 1.12646 -3.24293 0
M  V30 5874 C 556.585 0.42052 -4.2201 0
M  V30 5875 N 556.976 -0.538569 -5.02925 0
M  V30 5876 C 555.274 0.667901 -4.40971 0
M  V30 5877 C 555.975 -0.953625 -5.7383 0
M  V30 5878 N 554.951 -0.297097 -5.42788 0
M  V30 5879 H 558.753 -0.605996 -2.87585 0
M  V30 5880 H 556.267 -0.432672 -1.5653 0
M  V30 5881 H 558.264 1.67066 -3.81961 0
M  V30 5882 H 556.924 1.86361 -2.65894 0
M  V30 5883 H 557.935 -0.915375 -5.09746 0
M  V30 5884 H 554.612 1.38963 -3.93695 0
M  V30 5885 H 556.002 -1.74473 -6.48852 0
M  V30 5886 N 558.722 1.53707 -0.348139 0
M  V30 5887 C 559.947 2.05877 0.250883 0
M  V30 5888 C 560.372 1.22115 1.43072 0
M  V30 5889 O 559.73 0.235986 1.79758 0
M  V30 5890 C 559.778 3.54886 0.639416 0
M  V30 5891 O 558.882 3.73948 1.73888 0
M  V30 5892 H 558.223 0.662754 0.040653 0
M  V30 5893 H 560.753 1.98303 -0.503685 0
M  V30 5894 H 560.763 3.97601 0.915295 0
M  V30 5895 H 559.438 4.153 -0.223386 0
M  V30 5896 H 558.015 3.43134 1.45991 0
M  V30 5897 N 560.2 0.0768682 1.57412 0
M  V30 5898 C 561.425 -0.603404 1.98428 0
M  V30 5899 C 561.85 -1.62047 0.955108 0
M  V30 5900 O 561.208 -1.81129 -0.0786778 0
M  V30 5901 C 561.256 -1.24396 3.38464 0
M  V30 5902 O 560.36 -2.35982 3.3821 0
M  V30 5903 H 559.701 -0.154741 0.645718 0
M  V30 5904 H 562.231 0.152885 2.04028 0
M  V30 5905 H 562.241 -1.5896 3.7576 0
M  V30 5906 H 560.916 -0.498735 4.12899 0
M  V30 5907 H 559.493 -2.03173 3.1269 0
M  V30 5908 N 561.678 -1.56367 -0.196722 0
M  V30 5909 C 562.611 -1.89475 -1.2718 0
M  V30 5910 C 563.589 -0.754667 -1.44026 0
M  V30 5911 O 564.773 -1.00551 -1.59442 0
M  V30 5912 C 561.9 -2.12352 -2.63864 0
M  V30 5913 C 560.946 -3.35053 -2.63897 0
M  V30 5914 S 561.779 -4.90228 -2.15492 0
M  V30 5915 C 562.935 -5.16171 -3.54004 0
M  V30 5916 H 563.168 -2.80365 -0.989075 0
M  V30 5917 H 560.701 -1.49125 -0.40014 0
M  V30 5918 H 562.659 -2.26214 -3.42545 0
M  V30 5919 H 561.32 -1.22214 -2.89349 0
M  V30 5920 H 560.513 -3.48182 -3.64397 0
M  V30 5921 H 560.115 -3.20176 -1.93296 0
M  V30 5922 H 562.407 -5.06591 -4.49857 0
M  V30 5923 H 563.35 -6.17938 -3.45771 0
M  V30 5924 H 563.758 -4.43814 -3.48841 0
M  V30 5925 N 563.156 0.464375 -1.50603 0
M  V30 5926 C 564.119 1.54393 -1.69397 0
M  V30 5927 C 565.119 1.50566 -0.564504 0
M  V30 5928 O 566.309 1.53066 -0.831645 0
M  V30 5929 C 563.441 2.9401 -1.72543 0
M  V30 5930 H 564.634 1.39044 -2.65719 0
M  V30 5931 H 562.187 0.69122 -1.40185 0
M  V30 5932 H 562.922 3.14795 -0.77938 0
M  V30 5933 H 562.707 2.98195 -2.54602 0
M  V30 5934 H 564.197 3.72375 -1.89015 0
M  V30 5935 N 564.634 1.40294 0.718013 0
M  V30 5936 C 566.05 1.2227 1.02577 0
M  V30 5937 C 566.25 0.0961976 2.0127 0
M  V30 5938 O 565.306 -0.546695 2.46511 0
M  V30 5939 C 566.619 2.56348 1.57182 0
M  V30 5940 C 568.167 2.6334 1.69178 0
M  V30 5941 C 568.642 3.9768 2.27188 0
M  V30 5942 N 570.133 3.99409 2.34578 0
M  V30 5943 C 570.868 5.00141 2.8044 0
M  V30 5944 N 570.364 6.11268 3.26073 0
M  V30 5945 N 572.157 4.87511 2.79802 0
M  V30 5946 H 564.308 2.12304 0.0637899 0
M  V30 5947 H 566.571 0.943632 0.0909036 0
M  V30 5948 H 566.277 3.3942 0.921262 0
M  V30 5949 H 566.151 2.77266 2.55741 0
M  V30 5950 H 568.538 1.80641 2.33351 0
M  V30 5951 H 568.619 2.46255 0.692247 0
M  V30 5952 H 568.263 4.80817 1.63638 0
M  V30 5953 H 568.193 4.12093 3.27852 0
M  V30 5954 H 570.684 3.19162 2.02346 0
M  V30 5955 H 570.997 6.84023 3.59628 0
M  V30 5956 H 569.342 6.14837 3.24038 0
M  V30 5957 H 572.533 3.9979 2.43487 0
M  V30 5958 H 572.706 5.66158 3.15228 0
M  V30 5959 N 566.112 -0.949982 1.2575 0
M  V30 5960 C 567.361 -1.68956 1.10168 0
M  V30 5961 C 567.674 -1.92327 -0.356309 0
M  V30 5962 O 568.88 -2.64026 -0.632657 0
M  V30 5963 C 567.336 -3.04196 1.92336 0
M  V30 5964 C 566.944 -2.88603 3.42655 0
M  V30 5965 C 568.688 -3.81904 1.85336 0
M  V30 5966 C 566.595 -4.19262 4.17101 0
M  V30 5967 H 565.525 -0.633645 0.408668 0
M  V30 5968 H 568.176 -1.05719 1.49986 0
M  V30 5969 H 566.558 -3.68363 1.45344 0
M  V30 5970 H 567.732 -2.3334 3.97353 0
M  V30 5971 H 566.047 -2.24345 3.50796 0
M  V30 5972 H 568.644 -4.78688 2.38248 0
M  V30 5973 H 568.987 -4.08099 0.822226 0
M  V30 5974 H 569.52 -3.24495 2.30104 0
M  V30 5975 H 566.259 -3.98254 5.20648 0
M  V30 5976 H 565.779 -4.74273 3.67186 0
M  V30 5977 H 567.458 -4.87775 4.25071 0
M  V30 5978 N 567.59 -1.07411 -1.15328 0
M  V30 5979 C 568.54 -0.664788 -2.18093 0
M  V30 5980 C 569.524 0.310395 -1.57878 0
M  V30 5981 O 570.716 0.124026 -1.76565 0
M  V30 5982 C 567.845 -0.0647822 -3.43239 0
M  V30 5983 C 566.931 -1.06514 -4.10506 0
M  V30 5984 N 567.322 -2.24491 -4.53252 0
M  V30 5985 C 565.62 -0.898613 -4.36853 0
M  V30 5986 C 566.321 -2.8796 -5.05424 0
M  V30 5987 N 565.297 -2.15622 -4.99007 0
M  V30 5988 H 569.099 -1.56333 -2.48872 0
M  V30 5989 H 566.613 -0.947393 -1.31902 0
M  V30 5990 H 568.61 0.246363 -4.16171 0
M  V30 5991 H 567.27 0.828866 -3.13943 0
M  V30 5992 H 568.281 -2.62205 -4.46619 0
M  V30 5993 H 564.958 -0.0579118 -4.1746 0
M  V30 5994 H 566.348 -3.88137 -5.48452 0
M  V30 5995 N 569.068 1.32177 -0.85831 0
M  V30 5996 C 570.293 2.01847 -0.476718 0
M  V30 5997 C 570.718 1.64065 0.920021 0
M  V30 5998 O 570.076 0.843189 1.60499 0
M  V30 5999 C 570.124 3.55097 -0.627578 0
M  V30 6000 O 569.228 4.11012 0.338086 0
M  V30 6001 H 568.569 0.635907 -0.191099 0
M  V30 6002 H 571.099 1.68641 -1.15851 0
M  V30 6003 H 571.109 4.04718 -0.516476 0
M  V30 6004 H 569.784 3.81938 -1.64609 0
M  V30 6005 H 568.361 3.72451 0.182917 0
M  V30 6006 N 570.547 0.616602 1.45037 0
M  V30 6007 C 571.48 -0.145984 2.27733 0
M  V30 6008 C 572.458 -0.865108 1.37676 0
M  V30 6009 O 573.642 -0.872152 1.6711 0
M  V30 6010 C 570.769 -1.2122 3.16265 0
M  V30 6011 C 569.815 -0.595218 4.22326 0
M  V30 6012 S 570.648 0.603744 5.32086 0
M  V30 6013 C 571.804 -0.462842 6.24186 0
M  V30 6014 H 572.037 0.555591 2.92062 0
M  V30 6015 H 569.57 0.404364 1.49011 0
M  V30 6016 H 571.528 -1.82247 3.67827 0
M  V30 6017 H 570.189 -1.88589 2.51183 0
M  V30 6018 H 569.382 -1.39775 4.8423 0
M  V30 6019 H 568.984 -0.0598965 3.73952 0
M  V30 6020 H 571.276 -1.33945 6.64127 0
M  V30 6021 H 572.219 0.120259 7.07998 0
M  V30 6022 H 572.627 -0.782219 5.59054 0
M  V30 6023 N 572.025 -1.5352 0.356285 0
M  V30 6024 C 573.253 -2.05534 -0.237328 0
M  V30 6025 C 573.668 -1.23043 -1.43199 0
M  V30 6026 O 573.025 -0.268821 -1.80509 0
M  V30 6027 C 573.076 -3.55791 -0.639933 0
M  V30 6028 O 572.797 -4.35154 0.507233 0
M  V30 6029 C 574.298 -4.24027 -1.29292 0
M  V30 6030 H 571.518 -0.669585 -0.0435572 0
M  V30 6031 H 574.062 -1.97988 0.511963 0
M  V30 6032 H 572.217 -3.63518 -1.33915 0
M  V30 6033 H 572.631 -5.24178 0.18375 0
M  V30 6034 H 574.105 -5.30509 -1.52527 0
M  V30 6035 H 574.582 -3.77166 -2.25039 0
M  V30 6036 H 575.188 -4.20527 -0.63539 0
M  V30 6037 N 573.503 -0.0852151 -1.57369 0
M  V30 6038 C 574.752 0.580443 -1.93168 0
M  V30 6039 C 575.065 1.6995 -0.968319 0
M  V30 6040 O 576.271 2.42564 -1.21963 0
M  V30 6041 C 574.727 1.08386 -3.43192 0
M  V30 6042 C 574.335 -0.00491388 -4.48 0
M  V30 6043 C 576.079 1.72281 -3.87968 0
M  V30 6044 C 573.986 0.513299 -5.89168 0
M  V30 6045 H 572.916 0.22059 -0.72101 0
M  V30 6046 H 575.567 -0.159621 -1.82804 0
M  V30 6047 H 573.949 1.8773 -3.48674 0
M  V30 6048 H 575.123 -0.780032 -4.5415 0
M  V30 6049 H 573.438 -0.548453 -4.12772 0
M  V30 6050 H 576.035 2.12108 -4.9083 0
M  V30 6051 H 576.378 2.58811 -3.26071 0
M  V30 6052 H 576.911 0.995359 -3.85146 0
M  V30 6053 H 573.65 -0.315153 -6.54742 0
M  V30 6054 H 573.17 1.25564 -5.8651 0
M  V30 6055 H 574.849 0.985433 -6.39451 0
M  V30 6056 N 574.981 1.5647 0.188427 0
M  V30 6057 C 575.891 1.98285 1.2538 0
M  V30 6058 C 576.907 0.891535 1.49424 0
M  V30 6059 O 578.083 1.19782 1.61908 0
M  V30 6060 C 575.148 2.31965 2.57669 0
M  V30 6061 C 574.209 3.54838 2.41638 0
M  V30 6062 C 573.442 3.86901 3.67618 0
M  V30 6063 O 573.665 3.20163 4.72072 0
M  V30 6064 O 572.599 4.80309 3.62749 0
M  V30 6065 H 576.425 2.89145 0.928912 0
M  V30 6066 H 574.01 1.44112 0.393955 0
M  V30 6067 H 575.892 2.54673 3.35737 0
M  V30 6068 H 574.567 1.44271 2.89771 0
M  V30 6069 H 573.474 3.37369 1.61658 0
M  V30 6070 H 574.807 4.43019 2.14465 0
M  V30 6071 N 576.459 -0.456382 1.50847 0
M  V30 6072 C 577.422 -1.53493 1.70213 0
M  V30 6073 C 578.422 -1.50264 0.572481 0
M  V30 6074 O 579.612 -1.52623 0.839751 0
M  V30 6075 C 576.744 -2.93091 1.741 0
M  V30 6076 H 577.937 -1.37633 2.66453 0
M  V30 6077 H 575.49 -0.683776 1.4055 0
M  V30 6078 H 576.225 -3.14378 0.796063 0
M  V30 6079 H 576.01 -2.9684 2.5618 0
M  V30 6080 H 577.5 -3.71368 1.90987 0
M  V30 6081 N 577.937 -1.40673 -0.710563 0
M  V30 6082 C 579.348 -1.34975 -1.28991 0
M  V30 6083 C 579.699 -0.0256272 -1.96183 0
M  V30 6084 O 578.824 0.876339 -1.97862 0
M  V30 6085 C 579.419 -2.44467 -2.34567 0
M  V30 6086 C 577.978 -2.42213 -2.88114 0
M  V30 6087 C 577.125 -2.25085 -1.61963 0
M  V30 6088 H 580.076 -1.50406 -0.506343 0
M  V30 6089 H 580.097 -2.12663 -3.15523 0
M  V30 6090 H 579.609 -3.40825 -1.85634 0
M  V30 6091 H 577.71 -1.49568 -3.41263 0
M  V30 6092 H 577.823 -3.37983 -3.39565 0
M  V30 6093 H 576.187 -1.72691 -1.87216 0
M  V30 6094 H 576.97 -3.23449 -1.15047 0
M  V30 6095 N 579.415 0.9433 -1.26252 0
M  V30 6096 C 580.664 1.68369 -1.11062 0
M  V30 6097 C 580.977 1.92514 0.346104 0
M  V30 6098 O 582.183 2.64358 0.618646 0
M  V30 6099 C 580.639 3.03171 -1.93946 0
M  V30 6100 C 580.247 2.86782 -3.4418 0
M  V30 6101 C 581.991 3.80916 -1.87359 0
M  V30 6102 C 579.898 4.17044 -4.19319 0
M  V30 6103 H 578.828 0.631469 -0.412023 0
M  V30 6104 H 581.479 1.04922 -1.50544 0
M  V30 6105 H 579.861 3.67587 -1.47296 0
M  V30 6106 H 581.035 2.31229 -3.98585 0
M  V30 6107 H 579.35 2.22482 -3.51981 0
M  V30 6108 H 581.947 4.77417 -2.40784 0
M  V30 6109 H 582.29 4.07658 -0.843857 0
M  V30 6110 H 582.823 3.2327 -2.31821 0
M  V30 6111 H 579.562 3.95487 -5.22753 0
M  V30 6112 H 579.082 4.72319 -3.69696 0
M  V30 6113 H 580.761 4.85513 -4.27651 0
M  V30 6114 N 580.893 1.08022 1.14757 0
M  V30 6115 C 582.121 0.828847 1.89572 0
M  V30 6116 C 582.536 -0.618621 1.78377 0
M  V30 6117 O 581.893 -1.42482 1.1404 0
M  V30 6118 C 581.944 1.23677 3.39685 0
M  V30 6119 O 581.665 2.62746 3.50566 0
M  V30 6120 C 583.166 1.01569 4.31507 0
M  V30 6121 H 580.386 0.299196 0.600602 0
M  V30 6122 H 582.93 1.43846 1.45357 0
M  V30 6123 H 581.085 0.671347 3.81539 0
M  V30 6124 H 581.499 2.79573 4.43778 0
M  V30 6125 H 582.973 1.35055 5.35223 0
M  V30 6126 H 583.45 -0.0475433 4.39174 0
M  V30 6127 H 584.056 1.56636 3.95405 0
M  V30 6128 N 582.371 -1.3172 0.865308 0
M  V30 6129 C 583.318 -2.2863 0.315736 0
M  V30 6130 C 584.288 -1.55524 -0.583213 0
M  V30 6131 O 585.473 -1.83694 -0.51585 0
M  V30 6132 C 582.613 -3.41735 -0.480773 0
M  V30 6133 C 581.726 -4.297 0.445167 0
M  V30 6134 C 580.861 -5.29944 -0.365012 0
M  V30 6135 C 579.9 -6.09554 0.557651 0
M  V30 6136 N 579.037 -7.01768 -0.215994 0
M  V30 6137 H 583.877 -2.75026 1.14736 0
M  V30 6138 H 581.414 -1.35302 0.577209 0
M  V30 6139 H 583.372 -4.06045 -0.958306 0
M  V30 6140 H 582.002 -2.96461 -1.27714 0
M  V30 6141 H 581.054 -3.65875 1.04113 0
M  V30 6142 H 582.366 -4.85295 1.15284 0
M  V30 6143 H 581.52 -5.99908 -0.905255 0
M  V30 6144 H 580.259 -4.74994 -1.106 0
M  V30 6145 H 579.264 -5.38485 1.10969 0
M  V30 6146 H 580.489 -6.66591 1.29742 0
M  V30 6147 H 578.435 -6.49232 -0.939878 0
M  V30 6148 H 578.352 -7.54762 0.432431 0
M  V30 6149 H 579.62 -7.76002 -0.737618 0
M  V30 6150 N 583.85 -0.624285 -1.44708 0
M  V30 6151 C 585.096 -0.126237 -2.02407 0
M  V30 6152 C 585.428 1.24618 -1.48943 0
M  V30 6153 O 584.704 1.82569 -0.670742 0
M  V30 6154 C 584.986 -0.105449 -3.59946 0
M  V30 6155 C 584.84 -1.50972 -4.23707 0
M  V30 6156 C 586.159 0.573629 -4.36346 0
M  V30 6157 H 583.278 -0.0473472 -0.735478 0
M  V30 6158 H 585.92 -0.799452 -1.72362 0
M  V30 6159 H 584.07 0.46783 -3.85673 0
M  V30 6160 H 585.742 -2.13136 -4.0911 0
M  V30 6161 H 583.985 -2.0656 -3.81465 0
M  V30 6162 H 584.656 -1.44727 -5.32689 0
M  V30 6163 H 587.132 0.0861787 -4.16011 0
M  V30 6164 H 586.008 0.557338 -5.46063 0
M  V30 6165 H 586.269 1.64276 -4.10446 0
M  V30 6166 N 585.328 1.53329 -0.364422 0
M  V30 6167 C 586.577 2.00421 0.226747 0
M  V30 6168 C 586.89 1.25581 1.49963 0
M  V30 6169 O 588.096 1.63256 2.16933 0
M  V30 6170 C 586.552 3.57017 0.454618 0
M  V30 6171 C 586.16 4.40734 -0.803568 0
M  V30 6172 C 587.904 4.12468 1.00351 0
M  V30 6173 C 585.811 5.8888 -0.545345 0
M  V30 6174 H 584.741 0.748787 0.0885082 0
M  V30 6175 H 587.392 1.7703 -0.482983 0
M  V30 6176 H 585.774 3.76558 1.22558 0
M  V30 6177 H 586.948 4.32967 -1.57723 0
M  V30 6178 H 585.263 3.96381 -1.27559 0
M  V30 6179 H 587.86 5.20783 1.212 0
M  V30 6180 H 588.203 3.6699 1.9653 0
M  V30 6181 H 588.736 3.96721 0.29274 0
M  V30 6182 H 585.475 6.38633 -1.47743 0
M  V30 6183 H 584.995 5.99499 0.189842 0
M  V30 6184 H 586.674 6.46776 -0.170425 0
M  V30 6185 N 586.806 0.0935595 1.57322 0
M  V30 6186 C 587.754 -0.883457 2.15169 0
M  V30 6187 C 588.748 -1.29324 1.09415 0
M  V30 6188 O 589.954 -1.26795 1.27762 0
M  V30 6189 H 586.329 -0.302923 0.688289 0
M  V30 6190 H 588.3 -0.370845 2.96087 0
M  V30 6191 C 587.049 -2.13345 2.74552 0
M  V30 6192 H 586.372 -1.82702 3.55612 0
M  V30 6193 H 587.812 -2.7977 3.18598 0
M  V30 6194 C 586.271 -2.90646 1.70371 0
M  V30 6195 O 586.801 -3.85133 1.14173 0
M  V30 6196 N 585.007 -2.54157 1.40899 0
M  V30 6197 H 584.554 -1.77391 1.86789 0
M  V30 6198 H 584.512 -3.06178 0.714301 0
M  V30 6199 N 588.284 -1.56567 -0.180126 0
M  V30 6200 C 589.533 -1.80685 -0.896426 0
M  V30 6201 C 589.846 -0.669335 -1.83791 0
M  V30 6202 O 591.052 -0.795209 -2.59593 0
M  V30 6203 C 589.508 -3.20132 -1.6445 0
M  V30 6204 C 589.116 -4.41727 -0.747088 0
M  V30 6205 C 590.86 -3.53549 -2.34955 0
M  V30 6206 C 588.767 -5.72195 -1.49489 0
M  V30 6207 H 587.697 -0.673758 -0.338477 0
M  V30 6208 H 590.348 -1.8289 -0.149467 0
M  V30 6209 H 588.73 -3.12218 -2.43589 0
M  V30 6210 H 589.904 -4.608 0.00671129 0
M  V30 6211 H 588.219 -4.16122 -0.152134 0
M  V30 6212 H 590.816 -4.48267 -2.91481 0
M  V30 6213 H 591.159 -2.78006 -3.09868 0
M  V30 6214 H 591.692 -3.62976 -1.62768 0
M  V30 6215 H 588.431 -6.50743 -0.788251 0
M  V30 6216 H 587.951 -5.57115 -2.22224 0
M  V30 6217 H 589.63 -6.1384 -2.04472 0
M  V30 6218 N 589.762 0.448376 -1.51087 0
M  V30 6219 C 591.011 1.19561 -1.62444 0
M  V30 6220 C 591.324 1.92602 -0.341151 0
M  V30 6221 O 592.53 2.69439 -0.333936 0
M  V30 6222 C 590.986 2.17373 -2.8684 0
M  V30 6223 C 590.594 1.5003 -4.22131 0
M  V30 6224 C 592.338 2.92597 -3.0755 0
M  V30 6225 C 590.245 2.46262 -5.37689 0
M  V30 6226 H 589.175 0.449975 -0.605011 0
M  V30 6227 H 591.826 0.463735 -1.77544 0
M  V30 6228 H 590.208 2.93948 -2.65349 0
M  V30 6229 H 591.382 0.790886 -4.53962 0
M  V30 6230 H 589.697 0.870011 -4.0721 0
M  V30 6231 H 592.294 3.64663 -3.91056 0
M  V30 6232 H 592.637 3.53306 -2.20183 0
M  V30 6233 H 593.17 2.23131 -3.29329 0
M  V30 6234 H 589.909 1.90258 -6.27281 0
M  V30 6235 H 589.429 3.15289 -5.10248 0
M  V30 6236 H 591.108 3.07623 -5.6919 0
M  V30 6237 N 591.24 1.41047 0.703093 0
M  V30 6238 C 592.188 1.42494 1.83843 0
M  V30 6239 C 593.182 0.303885 1.66652 0
M  V30 6240 O 594.388 0.475544 1.73605 0
M  V30 6241 H 590.763 0.445685 0.605697 0
M  V30 6242 H 592.734 2.38194 1.79739 0
M  V30 6243 C 591.483 1.31666 3.21807 0
M  V30 6244 H 590.806 2.17212 3.35647 0
M  V30 6245 H 592.246 1.36738 4.01346 0
M  V30 6246 C 590.705 0.0281828 3.36888 0
M  V30 6247 O 591.235 -0.929995 3.90786 0
M  V30 6248 N 589.441 -0.0454322 2.90564 0
M  V30 6249 H 588.988 0.735046 2.4689 0
M  V30 6250 H 588.946 -0.906968 3.01034 0
M  V30 6251 N 592.718 -0.936591 1.26751 0
M  V30 6252 C 593.681 -2.01752 1.08761 0
M  V30 6253 C 594.681 -1.60763 0.0344435 0
M  V30 6254 O 595.871 -1.71963 0.278258 0
M  V30 6255 C 593.003 -3.34543 0.655271 0
M  V30 6256 H 594.196 -2.19143 2.04735 0
M  V30 6257 H 591.749 -1.11618 1.09413 0
M  V30 6258 H 592.484 -3.22851 -0.30626 0
M  V30 6259 H 592.269 -3.65647 1.41578 0
M  V30 6260 H 593.759 -4.13944 0.551378 0
M  V30 6261 N 594.196 -1.08629 -1.14182 0
M  V30 6262 C 595.159 -0.722027 -2.1753 0
M  V30 6263 C 596.159 0.244305 -1.58933 0
M  V30 6264 O 597.349 0.0235545 -1.74184 0
M  V30 6265 C 594.481 -0.0663966 -3.40835 0
M  V30 6266 H 595.674 -1.63719 -2.51269 0
M  V30 6267 H 593.227 -0.884442 -1.28869 0
M  V30 6268 H 593.962 0.860389 -3.12678 0
M  V30 6269 H 593.747 -0.761598 -3.84632 0
M  V30 6270 H 595.237 0.173346 -4.1724 0
M  V30 6271 N 595.674 1.31259 -0.872281 0
M  V30 6272 C 596.606 2.27396 -0.28697 0
M  V30 6273 C 597.619 1.53181 0.551297 0
M  V30 6274 O 598.808 1.74561 0.372914 0
M  V30 6275 C 595.908 3.33335 0.611617 0
M  V30 6276 C 595.081 4.36966 -0.194729 0
M  V30 6277 C 594.14 5.22387 0.632358 0
M  V30 6278 O 593.166 5.69169 0.0595691 0
M  V30 6279 N 594.368 5.46985 1.94391 0
M  V30 6280 H 597.133 2.78261 -1.11314 0
M  V30 6281 H 594.694 1.44306 -0.733994 0
M  V30 6282 H 596.686 3.87398 1.17068 0
M  V30 6283 H 595.256 2.82496 1.33846 0
M  V30 6284 H 594.476 3.82945 -0.935241 0
M  V30 6285 H 595.764 5.03273 -0.747935 0
M  V30 6286 H 595.162 5.10737 2.43237 0
M  V30 6287 H 593.719 6.03973 2.45071 0
M  V30 6288 N 597.152 0.631951 1.44375 0
M  V30 6289 C 598.062 -0.073674 2.34484 0
M  V30 6290 C 599.078 -0.834825 1.52665 0
M  V30 6291 O 600.254 -0.786902 1.85391 0
M  V30 6292 C 597.319 -1.04247 3.30656 0
M  V30 6293 C 596.38 -0.280602 4.28382 0
M  V30 6294 C 595.613 -1.20325 5.19959 0
M  V30 6295 O 595.836 -2.44199 5.15484 0
M  V30 6296 O 594.77 -0.687128 5.97965 0
M  V30 6297 H 598.596 0.667477 2.96274 0
M  V30 6298 H 596.181 0.392144 1.44162 0
M  V30 6299 H 598.063 -1.59981 3.89851 0
M  V30 6300 H 596.738 -1.76422 2.71398 0
M  V30 6301 H 595.645 0.319804 3.72731 0
M  V30 6302 H 596.978 0.401144 4.90563 0
M  V30 6303 N 598.631 -1.53133 0.372548 0
M  V30 6304 C 599.856 -2.0625 -0.218098 0
M  V30 6305 C 600.281 -1.24375 -1.41111 0
M  V30 6306 O 599.639 -0.264554 -1.79359 0
M  V30 6307 C 599.687 -3.55858 -0.582876 0
M  V30 6308 O 598.791 -3.76667 -1.67917 0
M  V30 6309 H 598.132 -0.663317 -0.030104 0
M  V30 6310 H 600.662 -1.97477 0.535169 0
M  V30 6311 H 600.672 -3.99007 -0.851925 0
M  V30 6312 H 599.347 -4.14892 0.289428 0
M  V30 6313 H 597.924 -3.45413 -1.40513 0
M  V30 6314 N 600.109 -0.101901 -1.5727 0
M  V30 6315 C 601.334 0.571759 -1.99363 0
M  V30 6316 C 601.759 1.60507 -0.980768 0
M  V30 6317 O 601.117 1.81231 0.0498517 0
M  V30 6318 C 601.165 1.18996 -3.404 0
M  V30 6319 O 600.269 2.30572 -3.41922 0
M  V30 6320 H 599.61 0.144449 -0.648098 0
M  V30 6321 H 602.14 -0.185325 -2.03759 0
M  V30 6322 H 602.15 1.52962 -3.78241 0
M  V30 6323 H 600.825 0.432984 -4.1364 0
M  V30 6324 H 599.402 1.98173 -3.15883 0
M  V30 6325 N 601.587 1.56661 0.17182 0
M  V30 6326 C 602.998 1.71652 0.734329 0
M  V30 6327 C 603.349 0.712335 1.82812 0
M  V30 6328 O 602.474 -0.126401 2.16031 0
M  V30 6329 C 603.069 3.11226 1.3388 0
M  V30 6330 C 601.628 3.27904 1.84813 0
M  V30 6331 C 600.775 2.67603 0.726917 0
M  V30 6332 H 603.726 1.5861 -0.0535665 0
M  V30 6333 H 603.747 3.09849 2.20849 0
M  V30 6334 H 603.259 3.8429 0.54249 0
M  V30 6335 H 601.36 2.59796 2.6709 0
M  V30 6336 H 601.473 4.35637 1.99392 0
M  V30 6337 H 599.837 2.274 1.14723 0
M  V30 6338 H 600.62 3.43252 -0.0575334 0
M  V30 6339 N 603.065 -0.440357 1.51323 0
M  V30 6340 C 603.998 -1.55414 1.67098 0
M  V30 6341 C 604.976 -1.54108 0.518599 0
M  V30 6342 O 606.16 -1.7328 0.742054 0
M  V30 6343 C 603.287 -2.93996 1.68179 0
M  V30 6344 C 602.333 -3.13338 2.89347 0
M  V30 6345 S 603.166 -2.89957 4.50206 0
M  V30 6346 C 604.322 -4.30826 4.54027 0
M  V30 6347 H 604.555 -1.41798 2.61306 0
M  V30 6348 H 602.088 -0.629841 1.40969 0
M  V30 6349 H 604.046 -3.73878 1.69487 0
M  V30 6350 H 602.707 -3.04976 0.751542 0
M  V30 6351 H 601.9 -4.14652 2.86495 0
M  V30 6352 H 601.502 -2.41276 2.85766 0
M  V30 6353 H 603.794 -5.23977 4.29481 0
M  V30 6354 H 604.737 -4.38712 5.55822 0
M  V30 6355 H 605.145 -4.1434 3.83384 0
M  V30 6356 N 604.543 -1.41418 -0.695603 0
M  V30 6357 C 605.954 -1.36335 -1.27552 0
M  V30 6358 C 606.305 -0.0464336 -1.96145 0
M  V30 6359 O 605.43 0.855304 -1.9878 0
M  V30 6360 C 606.025 -2.46941 -2.3196 0
M  V30 6361 C 604.584 -2.45256 -2.85529 0
M  V30 6362 C 603.731 -2.2679 -1.59566 0
M  V30 6363 H 606.682 -1.50934 -0.490362 0
M  V30 6364 H 606.703 -2.15997 -3.1325 0
M  V30 6365 H 606.215 -3.42775 -1.82008 0
M  V30 6366 H 604.316 -1.53179 -3.39657 0
M  V30 6367 H 604.429 -3.41565 -3.35961 0
M  V30 6368 H 602.793 -1.74667 -1.85374 0
M  V30 6369 H 603.576 -3.24651 -1.1161 0
M  V30 6370 N 606.021 0.929856 -1.27246 0
M  V30 6371 C 607.267 1.6798 -1.13625 0
M  V30 6372 C 607.6 1.91586 0.317589 0
M  V30 6373 O 606.875 1.50467 1.23247 0
M  V30 6374 C 607.158 3.04766 -1.91806 0
M  V30 6375 C 607.011 2.88415 -3.45162 0
M  V30 6376 C 608.33 4.05063 -1.72082 0
M  V30 6377 H 605.449 0.609632 -0.414147 0
M  V30 6378 H 608.091 1.0792 -1.56376 0
M  V30 6379 H 606.241 3.56034 -1.55474 0
M  V30 6380 H 607.913 2.44282 -3.91311 0
M  V30 6381 H 606.156 2.23802 -3.71611 0
M  V30 6382 H 606.827 3.85482 -3.95105 0
M  V30 6383 H 609.303 3.62798 -2.03757 0
M  V30 6384 H 608.179 4.98765 -2.29182 0
M  V30 6385 H 608.44 4.37021 -0.668206 0
M  V30 6386 N 607.499 1.09233 1.13605 0
M  V30 6387 C 608.727 0.848908 1.88683 0
M  V30 6388 C 609.142 -0.599667 1.79024 0
M  V30 6389 O 608.499 -1.41265 1.15544 0
M  V30 6390 C 608.55 1.27273 3.38355 0
M  V30 6391 O 608.271 2.66449 3.47759 0
M  V30 6392 C 609.772 1.0614 4.30406 0
M  V30 6393 H 606.992 0.305549 0.597395 0
M  V30 6394 H 609.536 1.4538 1.43823 0
M  V30 6395 H 607.691 0.711776 3.80805 0
M  V30 6396 H 608.105 2.84264 4.40788 0
M  V30 6397 H 609.579 1.40725 5.33761 0
M  V30 6398 H 610.056 -0.000960332 4.392 0
M  V30 6399 H 610.662 1.60821 3.93722 0
M  V30 6400 N 608.977 -1.30795 0.87923 0
M  V30 6401 C 609.887 -2.32041 0.345565 0
M  V30 6402 C 610.903 -1.65103 -0.549265 0
M  V30 6403 O 612.079 -1.9645 -0.443763 0
M  V30 6404 C 609.144 -3.43944 -0.436245 0
M  V30 6405 C 608.205 -4.26521 0.48765 0
M  V30 6406 C 607.438 -5.33081 -0.256943 0
M  V30 6407 O 607.661 -5.50762 -1.48381 0
M  V30 6408 O 606.595 -6.00635 0.389985 0
M  V30 6409 H 610.421 -2.79627 1.18501 0
M  V30 6410 H 608.006 -1.3486 0.642885 0
M  V30 6411 H 609.888 -4.12128 -0.879119 0
M  V30 6412 H 608.563 -2.98504 -1.25208 0
M  V30 6413 H 607.47 -3.61057 0.979216 0
M  V30 6414 H 608.803 -4.75551 1.26933 0
M  V30 6415 N 610.455 -0.639598 -1.44038 0
M  V30 6416 C 611.418 0.0506628 -2.29144 0
M  V30 6417 C 612.418 0.764001 -1.41491 0
M  V30 6418 O 613.608 0.607309 -1.63271 0
M  V30 6419 C 610.74 1.0824 -3.2326 0
M  V30 6420 H 611.933 -0.697987 -2.91664 0
M  V30 6421 H 609.486 -0.400146 -1.51091 0
M  V30 6422 H 610.221 1.86075 -2.65606 0
M  V30 6423 H 610.006 0.574725 -3.87865 0
M  V30 6424 H 611.496 1.56487 -3.87171 0
M  V30 6425 N 611.933 1.52934 -0.380664 0
M  V30 6426 C 612.863 2.29118 0.450268 0
M  V30 6427 C 613.844 1.32153 1.07096 0
M  V30 6428 O 615.029 1.61038 1.08537 0
M  V30 6429 C 612.159 3.09161 1.58231 0
M  V30 6430 C 611.113 4.13938 1.0881 0
M  V30 6431 C 610.439 4.82153 2.31155 0
M  V30 6432 C 611.739 5.22048 0.162146 0
M  V30 6433 H 613.433 2.98826 -0.185361 0
M  V30 6434 H 610.979 1.43715 -0.0905886 0
M  V30 6435 H 612.932 3.61211 2.17036 0
M  V30 6436 H 611.656 2.3717 2.2454 0
M  V30 6437 H 610.315 3.62855 0.522633 0
M  V30 6438 H 609.963 4.06719 2.95953 0
M  V30 6439 H 609.663 5.52966 1.98752 0
M  V30 6440 H 611.187 5.37004 2.90618 0
M  V30 6441 H 612.601 5.6951 0.658126 0
M  V30 6442 H 610.998 6.00057 -0.0717122 0
M  V30 6443 H 612.068 4.78398 -0.791438 0
M  V30 6444 N 613.412 0.11024 1.57214 0
M  V30 6445 C 614.689 -0.592956 1.86396 0
M  V30 6446 C 615.069 -1.85379 1.00985 0
M  V30 6447 O 614.417 -2.28337 0.0863592 0
M  V30 6448 C 614.627 -0.893816 3.3736 0
M  V30 6449 C 615.975 -1.25069 4.05762 0
M  V30 6450 O 616.999 -0.984356 3.42329 0
M  V30 6451 O 615.858 -1.75017 5.17718 0
M  V30 6452 H 612.952 -0.29828 0.771335 0
M  V30 6453 H 615.498 0.144083 1.69087 0
M  V30 6454 H 614.27 2.6031e-05 3.913 0
M  V30 6455 H 613.893 -1.68631 3.60068 0
M  V30 6456 N 614.89 -1.56749 -0.16351 0
M  V30 6457 C 616.306 -1.51043 -0.515567 0
M  V30 6458 C 616.506 -0.815855 -1.84245 0
M  V30 6459 O 615.562 -0.379477 -2.49632 0
M  V30 6460 C 616.875 -2.95791 -0.541114 0
M  V30 6461 C 618.423 -3.0664 -0.627776 0
M  V30 6462 C 618.898 -4.52861 -0.684141 0
M  V30 6463 N 620.389 -4.5714 -0.746818 0
M  V30 6464 C 621.124 -5.67634 -0.811137 0
M  V30 6465 N 620.62 -6.8774 -0.835811 0
M  V30 6466 N 622.413 -5.55624 -0.850756 0
M  V30 6467 H 614.564 -2.00307 0.70645 0
M  V30 6468 H 616.827 -0.912876 0.255659 0
M  V30 6469 H 616.533 -3.49797 0.365329 0
M  V30 6470 H 616.407 -3.50858 -1.38487 0
M  V30 6471 H 618.794 -2.52663 -1.52464 0
M  V30 6472 H 618.875 -2.54645 0.242805 0
M  V30 6473 H 618.519 -5.07472 0.2085 0
M  V30 6474 H 618.449 -5.02621 -1.57098 0
M  V30 6475 H 620.94 -3.70669 -0.735717 0
M  V30 6476 H 621.253 -7.67701 -0.886279 0
M  V30 6477 H 619.598 -6.90334 -0.803958 0
M  V30 6478 H 622.789 -4.60709 -0.828535 0
M  V30 6479 H 622.962 -6.41756 -0.897418 0
M  V30 6480 N 616.368 0.432326 -1.51554 0
M  V30 6481 C 617.614 1.18309 -1.64714 0
M  V30 6482 C 617.947 1.90745 -0.364696 0
M  V30 6483 O 617.222 1.8381 0.635936 0
M  V30 6484 C 617.505 2.1961 -2.85383 0
M  V30 6485 C 617.358 1.51223 -4.23617 0
M  V30 6486 C 618.677 3.20538 -3.01569 0
M  V30 6487 H 615.796 0.428751 -0.599451 0
M  V30 6488 H 618.438 0.471689 -1.84052 0
M  V30 6489 H 616.588 2.8028 -2.69027 0
M  V30 6490 H 618.26 0.938516 -4.51652 0
M  V30 6491 H 616.503 0.814501 -4.26085 0
M  V30 6492 H 617.174 2.25024 -5.04052 0
M  V30 6493 H 619.65 2.69926 -3.16669 0
M  V30 6494 H 618.526 3.88706 -3.87555 0
M  V30 6495 H 618.787 3.86933 -2.13859 0
M  V30 6496 N 617.846 1.41785 0.688094 0
M  V30 6497 C 618.776 1.47 1.8142 0
M  V30 6498 C 619.757 0.327881 1.6691 0
M  V30 6499 O 620.942 0.540362 1.86531 0
M  V30 6500 C 618.072 1.35876 3.19617 0
M  V30 6501 C 617.026 2.47976 3.48844 0
M  V30 6502 C 616.352 2.21915 4.86475 0
M  V30 6503 C 617.652 3.90309 3.47068 0
M  V30 6504 H 619.346 2.41247 1.77314 0
M  V30 6505 H 616.892 1.16116 0.851651 0
M  V30 6506 H 618.845 1.38134 3.98117 0
M  V30 6507 H 617.569 0.38116 3.24368 0
M  V30 6508 H 616.228 2.45013 2.72698 0
M  V30 6509 H 615.876 1.2248 4.8786 0
M  V30 6510 H 615.576 2.97037 5.06994 0
M  V30 6511 H 617.1 2.25901 5.67275 0
M  V30 6512 H 618.514 3.94947 4.1556 0
M  V30 6513 H 616.911 4.65175 3.7912 0
M  V30 6514 H 617.981 4.17927 2.45896 0
M  V30 6515 N 619.324 -0.923095 1.27737 0
M  V30 6516 C 620.234 -2.05765 1.12685 0
M  V30 6517 C 621.25 -1.73911 0.0557197 0
M  V30 6518 O 622.426 -1.99674 0.263137 0
M  V30 6519 C 619.491 -3.37804 0.780363 0
M  V30 6520 C 618.552 -3.83326 1.93286 0
M  V30 6521 C 617.785 -5.09064 1.60281 0
M  V30 6522 O 618.008 -5.6809 0.512828 0
M  V30 6523 O 616.942 -5.50071 2.44347 0
M  V30 6524 H 620.768 -2.21378 2.07907 0
M  V30 6525 H 618.353 -1.04299 1.06968 0
M  V30 6526 H 620.235 -4.17097 0.600668 0
M  V30 6527 H 618.91 -3.23387 -0.142291 0
M  V30 6528 H 617.817 -3.049 2.16764 0
M  V30 6529 H 619.15 -4.02292 2.83588 0
M  V30 6530 N 620.802 -1.09834 -1.13024 0
M  V30 6531 C 622.051 -0.831806 -1.83749 0
M  V30 6532 C 622.364 0.644763 -1.84668 0
M  V30 6533 O 623.57 1.02697 -2.51327 0
M  V30 6534 C 622.026 -1.43817 -3.29916 0
M  V30 6535 C 621.634 -2.94759 -3.37374 0
M  V30 6536 C 623.378 -1.25077 -4.05655 0
M  V30 6537 C 621.285 -3.48461 -4.77838 0
M  V30 6538 H 620.215 -0.30751 -0.688443 0
M  V30 6539 H 622.866 -1.32156 -1.27307 0
M  V30 6540 H 621.248 -0.876106 -3.86187 0
M  V30 6541 H 622.422 -3.57228 -2.91076 0
M  V30 6542 H 620.737 -3.12581 -2.75103 0
M  V30 6543 H 623.334 -1.62649 -5.09362 0
M  V30 6544 H 623.677 -0.191782 -4.15858 0
M  V30 6545 H 624.21 -1.78057 -3.55725 0
M  V30 6546 H 620.949 -4.53998 -4.72828 0
M  V30 6547 H 620.469 -2.90757 -5.24615 0
M  V30 6548 H 622.148 -3.45914 -5.46766 0
M  V30 6549 N 622.28 1.30327 -0.886154 0
M  V30 6550 C 623.21 2.30549 -0.370028 0
M  V30 6551 C 624.191 1.61039 0.547751 0
M  V30 6552 O 625.376 1.8864 0.461353 0
M  V30 6553 C 622.506 3.44808 0.415275 0
M  V30 6554 C 621.46 4.26024 -0.41085 0
M  V30 6555 C 620.786 5.32347 0.501128 0
M  V30 6556 C 622.086 4.95433 -1.65359 0
M  V30 6557 H 623.78 2.73969 -1.20754 0
M  V30 6558 H 621.326 1.3171 -0.582097 0
M  V30 6559 H 623.279 4.13986 0.78699 0
M  V30 6560 H 622.003 3.00197 1.28644 0
M  V30 6561 H 620.662 3.58535 -0.764719 0
M  V30 6562 H 620.31 4.83982 1.37004 0
M  V30 6563 H 620.01 5.87581 -0.0478356 0
M  V30 6564 H 621.534 6.0438 0.869333 0
M  V30 6565 H 622.948 5.5712 -1.35239 0
M  V30 6566 H 621.345 5.60537 -2.14284 0
M  V30 6567 H 622.415 4.21493 -2.39733 0
M  V30 6568 N 623.758 0.647228 1.43697 0
M  V30 6569 C 625.174 0.314256 1.56476 0
M  V30 6570 C 625.374 -1.18191 1.63196 0
M  V30 6571 O 624.43 -1.96655 1.58376 0
M  V30 6572 C 625.743 1.02034 2.82859 0
M  V30 6573 C 627.291 1.00002 2.96595 0
M  V30 6574 C 627.766 1.68689 4.25803 0
M  V30 6575 N 629.257 1.65424 4.32654 0
M  V30 6576 C 629.992 2.1545 5.31384 0
M  V30 6577 N 629.488 2.73738 6.36427 0
M  V30 6578 N 631.281 2.05985 5.22998 0
M  V30 6579 H 623.432 1.61821 1.37578 0
M  V30 6580 H 625.695 0.680184 0.660344 0
M  V30 6581 H 625.401 2.07542 2.83935 0
M  V30 6582 H 625.275 0.568146 3.72897 0
M  V30 6583 H 627.662 -0.0466319 2.95063 0
M  V30 6584 H 627.743 1.49086 2.07863 0
M  V30 6585 H 627.387 2.73308 4.28095 0
M  V30 6586 H 627.317 1.17076 5.13421 0
M  V30 6587 H 629.808 1.22884 3.57363 0
M  V30 6588 H 630.121 3.09602 7.08072 0
M  V30 6589 H 628.466 2.77796 6.37067 0
M  V30 6590 H 631.657 1.60157 4.39849 0
M  V30 6591 H 631.83 2.45281 5.99784 0
M  V30 6592 N 625.236 -1.5273 0.388769 0
M  V30 6593 C 626.464 -2.05992 -0.193677 0
M  V30 6594 C 626.879 -1.26053 -1.40557 0
M  V30 6595 O 626.236 -0.307049 -1.79898 0
M  V30 6596 C 626.287 -3.57068 -0.564321 0
M  V30 6597 O 626.008 -4.3398 0.599422 0
M  V30 6598 C 627.509 -4.26674 -1.20269 0
M  V30 6599 H 624.729 -0.670358 -0.0293445 0
M  V30 6600 H 627.273 -1.96857 0.553844 0
M  V30 6601 H 625.428 -3.66277 -1.26174 0
M  V30 6602 H 625.842 -5.2367 0.294895 0
M  V30 6603 H 627.316 -5.33625 -1.4124 0
M  V30 6604 H 627.793 -3.81854 -2.16989 0
M  V30 6605 H 628.399 -4.2178 -0.546047 0
M  V30 6606 N 626.714 -0.118576 -1.57153 0
M  V30 6607 C 627.942 0.54726 -1.99531 0
M  V30 6608 C 628.357 1.60251 -0.998246 0
M  V30 6609 O 627.714 1.82498 0.00893106 0
M  V30 6610 C 627.765 1.17378 -3.41913 0
M  V30 6611 O 627.486 0.160703 -4.37805 0
M  V30 6612 C 628.987 1.92297 -3.9942 0
M  V30 6613 H 626.207 0.144919 -0.655164 0
M  V30 6614 H 628.751 -0.20479 -2.03472 0
M  V30 6615 H 626.906 1.87661 -3.38913 0
M  V30 6616 H 627.32 0.61586 -5.20872 0
M  V30 6617 H 628.794 2.31462 -5.01128 0
M  V30 6618 H 629.271 2.79801 -3.38538 0
M  V30 6619 H 629.877 1.26777 -4.05965 0
M  V30 6620 N 628.193 1.56834 0.155195 0
M  V30 6621 C 629.103 2.009 1.21146 0
M  V30 6622 C 630.119 0.923029 1.475 0
M  V30 6623 O 631.295 1.23189 1.59331 0
M  V30 6624 C 628.36 2.37378 2.52691 0
M  V30 6625 C 627.421 3.59883 2.34057 0
M  V30 6626 C 626.654 3.94612 3.59329 0
M  V30 6627 O 626.877 3.30104 4.65175 0
M  V30 6628 O 625.811 4.87895 3.52479 0
M  V30 6629 H 629.637 2.9105 0.867371 0
M  V30 6630 H 627.222 1.44916 0.363298 0
M  V30 6631 H 629.104 2.61737 3.3026 0
M  V30 6632 H 627.779 1.50385 2.86646 0
M  V30 6633 H 626.686 3.40722 1.54465 0
M  V30 6634 H 628.019 4.47468 2.0502 0
M  V30 6635 N 629.671 -0.424282 1.51781 0
M  V30 6636 C 630.601 -1.52305 1.7699 0
M  V30 6637 C 631.582 -1.5839 0.620209 0
M  V30 6638 O 632.767 -1.73908 0.864268 0
M  V30 6639 C 629.897 -2.90271 1.90683 0
M  V30 6640 C 628.851 -2.99043 3.06198 0
M  V30 6641 C 628.177 -4.39116 3.05092 0
M  V30 6642 C 629.477 -2.7192 4.45934 0
M  V30 6643 H 631.171 -1.31461 2.68995 0
M  V30 6644 H 628.717 -0.630985 1.29439 0
M  V30 6645 H 630.67 -3.6711 2.06901 0
M  V30 6646 H 629.394 -3.12376 0.953365 0
M  V30 6647 H 628.053 -2.24646 2.89706 0
M  V30 6648 H 627.701 -4.58207 2.07498 0
M  V30 6649 H 627.401 -4.45912 3.82669 0
M  V30 6650 H 628.925 -5.17911 3.2342 0
M  V30 6651 H 630.339 -3.38487 4.62709 0
M  V30 6652 H 628.736 -2.90111 5.25315 0
M  V30 6653 H 629.806 -1.67445 4.55072 0
M  V30 6654 N 631.149 -1.42148 -0.680565 0
M  V30 6655 C 632.379 -1.45485 -1.46689 0
M  V30 6656 C 632.787 -0.0629451 -1.89095 0
M  V30 6657 O 632.13 0.931397 -1.58337 0
M  V30 6658 C 632.192 -2.31397 -2.75129 0
M  V30 6659 C 631.856 -3.79353 -2.54834 0
M  V30 6660 C 632.853 -4.71148 -2.19808 0
M  V30 6661 C 630.538 -4.23557 -2.70008 0
M  V30 6662 C 632.532 -6.05139 -2.00215 0
M  V30 6663 C 630.219 -5.57609 -2.50031 0
M  V30 6664 C 631.217 -6.48216 -2.15187 0
M  V30 6665 O 630.905 -7.79792 -1.95397 0
M  V30 6666 H 630.637 -0.497139 -0.458071 0
M  V30 6667 H 633.191 -1.87252 -0.844139 0
M  V30 6668 H 631.421 -1.84468 -3.39865 0
M  V30 6669 H 633.11 -2.26257 -3.36991 0
M  V30 6670 H 633.876 -4.38282 -2.07686 0
M  V30 6671 H 629.755 -3.53327 -2.96109 0
M  V30 6672 H 633.299 -6.75823 -1.72941 0
M  V30 6673 H 629.196 -5.9005 -2.61748 0
M  V30 6674 H 629.964 -7.91091 -2.10042 0
M  V30 6675 N 632.627 0.916307 -1.28225 0
M  V30 6676 C 633.852 1.7043 -1.18188 0
M  V30 6677 C 634.277 1.86346 0.256274 0
M  V30 6678 O 633.635 1.37175 1.18544 0
M  V30 6679 C 633.683 3.07546 -1.88275 0
M  V30 6680 O 632.787 3.94904 -1.18848 0
M  V30 6681 H 632.128 0.521967 -0.410423 0
M  V30 6682 H 634.658 1.14589 -1.69501 0
M  V30 6683 H 634.668 3.57793 -1.96082 0
M  V30 6684 H 633.343 2.95279 -2.92887 0
M  V30 6685 H 631.92 3.53339 -1.19187 0
M  V30 6686 N 634.105 1.10431 1.1244 0
M  V30 6687 C 635.516 0.864439 1.65482 0
M  V30 6688 C 635.867 -0.60527 1.8663 0
M  V30 6689 O 634.992 -1.46492 1.59276 0
M  V30 6690 C 635.587 1.56267 3.0061 0
M  V30 6691 C 634.146 1.3695 3.50602 0
M  V30 6692 C 633.293 1.61209 2.25626 0
M  V30 6693 H 636.244 1.26203 0.962209 0
M  V30 6694 H 636.265 1.00166 3.67079 0
M  V30 6695 H 635.777 2.63231 2.85186 0
M  V30 6696 H 633.878 0.321481 3.71211 0
M  V30 6697 H 633.991 2.11143 4.30064 0
M  V30 6698 H 632.355 1.03482 2.32731 0
M  V30 6699 H 633.138 2.69425 2.12756 0
M  V30 6700 N 635.583 -1.29855 0.893053 0
M  V30 6701 C 636.515 -2.26911 0.32311 0
M  V30 6702 C 637.528 -1.54039 -0.526858 0
M  V30 6703 O 638.717 -1.75132 -0.345095 0
M  V30 6704 C 635.817 -3.34266 -0.558509 0
M  V30 6705 C 634.99 -4.36601 0.264222 0
M  V30 6706 C 634.049 -5.23326 -0.549171 0
M  V30 6707 O 633.075 -5.69192 0.0309883 0
M  V30 6708 N 634.277 -5.50008 -1.85664 0
M  V30 6709 H 637.042 -2.76455 1.15726 0
M  V30 6710 H 634.603 -1.4312 0.756859 0
M  V30 6711 H 636.595 -3.89211 -1.1089 0
M  V30 6712 H 635.165 -2.8459 -1.29334 0
M  V30 6713 H 634.385 -3.81409 0.996046 0
M  V30 6714 H 635.673 -5.02019 0.827906 0
M  V30 6715 H 635.071 -5.14542 -2.35081 0
M  V30 6716 H 633.628 -6.07796 -2.35431 0
M  V30 6717 N 637.061 -0.65484 -1.43351 0
M  V30 6718 C 638.308 -0.168892 -2.01794 0
M  V30 6719 C 638.636 1.2177 -1.51665 0
M  V30 6720 O 637.891 1.82717 -0.70092 0
M  V30 6721 C 638.19 -0.130424 -3.57162 0
M  V30 6722 C 637.856 -1.45898 -4.26643 0
M  V30 6723 C 636.518 -1.82279 -4.4534 0
M  V30 6724 C 638.87 -2.33485 -4.65976 0
M  V30 6725 C 636.198 -3.0591 -5.00635 0
M  V30 6726 C 638.55 -3.5641 -5.22642 0
M  V30 6727 C 637.214 -3.92985 -5.39555 0
M  V30 6728 H 636.484 -0.061802 -0.738418 0
M  V30 6729 H 639.131 -0.845869 -1.71806 0
M  V30 6730 H 637.436 0.630008 -3.86702 0
M  V30 6731 H 639.133 0.262465 -4.0014 0
M  V30 6732 H 635.723 -1.16591 -4.12437 0
M  V30 6733 H 639.907 -2.06668 -4.51223 0
M  V30 6734 H 635.163 -3.34295 -5.11915 0
M  V30 6735 H 639.337 -4.24495 -5.52066 0
M  V30 6736 H 636.964 -4.88862 -5.82167 0
M  V30 6737 N 638.539 1.52521 -0.396863 0
M  V30 6738 C 639.787 2.01274 0.182536 0
M  V30 6739 C 640.108 1.28485 1.46685 0
M  V30 6740 O 639.378 0.407134 1.91623 0
M  V30 6741 H 637.958 0.743671 0.0704442 0
M  V30 6742 H 640.62 1.87547 -0.530289 0
M  V30 6743 H 639.716 3.09687 0.387385 0
M  V30 6744 N 640.017 0.126909 1.57088 0
M  V30 6745 C 640.98 -0.806097 2.14557 0
M  V30 6746 C 641.98 -1.18918 1.08236 0
M  V30 6747 O 643.17 -1.11339 1.33975 0
M  V30 6748 C 640.302 -2.09116 2.69227 0
M  V30 6749 H 641.495 -0.306522 2.98329 0
M  V30 6750 H 639.048 -0.122393 1.5582 0
M  V30 6751 H 639.783 -2.63486 1.89065 0
M  V30 6752 H 639.568 -1.82588 3.46993 0
M  V30 6753 H 641.058 -2.75794 3.13572 0
M  V30 6754 N 641.495 -1.56914 -0.146875 0
M  V30 6755 C 642.442 -1.98275 -1.18134 0
M  V30 6756 C 643.412 -0.850367 -1.42681 0
M  V30 6757 O 644.597 -1.11244 -1.55014 0
M  V30 6758 C 641.737 -2.36861 -2.5098 0
M  V30 6759 C 640.85 -3.63391 -2.33605 0
M  V30 6760 C 639.985 -3.91079 -3.59486 0
M  V30 6761 C 639.024 -5.10879 -3.37149 0
M  V30 6762 N 638.161 -5.34577 -4.55161 0
M  V30 6763 H 643.001 -2.8645 -0.821622 0
M  V30 6764 H 640.538 -1.41718 -0.394248 0
M  V30 6765 H 642.496 -2.57262 -3.28439 0
M  V30 6766 H 641.126 -1.51766 -2.84898 0
M  V30 6767 H 640.178 -3.50766 -1.47199 0
M  V30 6768 H 641.49 -4.51007 -2.13059 0
M  V30 6769 H 640.644 -4.11979 -4.45374 0
M  V30 6770 H 639.383 -3.01885 -3.83036 0
M  V30 6771 H 638.388 -4.89853 -2.49649 0
M  V30 6772 H 639.613 -6.01626 -3.14997 0
M  V30 6773 H 637.559 -4.48337 -4.78884 0
M  V30 6774 H 637.476 -6.16463 -4.37618 0
M  V30 6775 H 638.744 -5.59975 -5.42263 0
M  V30 6776 N 642.974 0.416227 -1.52004 0
M  V30 6777 C 644.251 1.17637 -1.56272 0
M  V30 6778 C 644.631 2.08352 -0.339493 0
M  V30 6779 O 643.979 2.1833 0.674124 0
M  V30 6780 C 644.189 1.95986 -2.88774 0
M  V30 6781 C 645.537 2.52299 -3.41512 0
M  V30 6782 O 646.561 2.06174 -2.90467 0
M  V30 6783 O 645.42 3.3648 -4.30631 0
M  V30 6784 H 642.514 0.536726 -0.629169 0
M  V30 6785 H 645.06 0.423583 -1.64329 0
M  V30 6786 H 643.832 1.29487 -3.69254 0
M  V30 6787 H 643.455 2.78285 -2.83978 0
M  V30 6788 N 644.452 1.42507 0.673017 0
M  V30 6789 C 645.729 1.33554 1.42908 0
M  V30 6790 C 646.109 -0.0262211 2.11084 0
M  V30 6791 O 645.457 -1.04181 2.03368 0
M  V30 6792 C 645.667 2.50498 2.43006 0
M  V30 6793 C 647.015 2.92694 3.07596 0
M  V30 6794 O 648.039 2.50401 2.53333 0
M  V30 6795 O 646.898 3.65899 4.05931 0
M  V30 6796 H 643.992 0.526785 0.637516 0
M  V30 6797 H 646.538 1.54518 0.701591 0
M  V30 6798 H 645.31 3.41272 1.9144 0
M  V30 6799 H 644.933 2.3153 3.23233 0
M  V30 6800 N 645.93 -0.909495 1.28709 0
M  V30 6801 C 647.207 -1.63865 1.06806 0
M  V30 6802 C 647.587 -2.07445 -0.391143 0
M  V30 6803 O 646.935 -1.82269 -1.37805 0
M  V30 6804 C 647.145 -2.82692 2.04661 0
M  V30 6805 C 648.493 -3.5361 2.35042 0
M  V30 6806 O 649.517 -2.92847 2.02779 0
M  V30 6807 O 648.376 -4.63131 2.90124 0
M  V30 6808 H 645.47 -0.719065 0.408502 0
M  V30 6809 H 648.016 -0.958424 1.40044 0
M  V30 6810 H 646.788 -2.47614 3.0299 0
M  V30 6811 H 646.411 -3.58426 1.72095 0
M  V30 6812 N 647.408 -1.11026 -1.11852 0
M  V30 6813 C 648.819 -0.873203 -1.65021 0
M  V30 6814 C 649.17 0.595364 -1.86949 0
M  V30 6815 O 648.295 1.45645 -1.60051 0
M  V30 6816 C 648.89 -1.57859 -2.99777 0
M  V30 6817 C 647.449 -1.38807 -3.49871 0
M  V30 6818 C 646.596 -1.62403 -2.24768 0
M  V30 6819 H 649.547 -1.26712 -0.955503 0
M  V30 6820 H 649.568 -1.02111 -3.66543 0
M  V30 6821 H 649.08 -2.6474 -2.83786 0
M  V30 6822 H 647.181 -0.341163 -3.71035 0
M  V30 6823 H 647.294 -2.13421 -4.28938 0
M  V30 6824 H 645.658 -1.04714 -2.32179 0
M  V30 6825 H 646.441 -2.70549 -2.11324 0
M  V30 6826 N 648.886 1.2938 -0.899927 0
M  V30 6827 C 649.836 2.25311 -0.349165 0
M  V30 6828 C 650.82 1.51889 0.530892 0
M  V30 6829 O 652.012 1.73028 0.372872 0
M  V30 6830 C 649.141 3.40696 0.422055 0
M  V30 6831 C 648.227 4.21455 -0.472935 0
M  V30 6832 N 648.618 4.8048 -1.58026 0
M  V30 6833 C 646.916 4.45177 -0.270767 0
M  V30 6834 C 647.617 5.41117 -2.13465 0
M  V30 6835 N 646.593 5.24518 -1.42766 0
M  V30 6836 H 650.395 2.68507 -1.19505 0
M  V30 6837 H 647.909 1.43992 -0.751006 0
M  V30 6838 H 649.906 4.08486 0.833369 0
M  V30 6839 H 648.566 2.99037 1.2652 0
M  V30 6840 H 649.577 4.79257 -1.96299 0
M  V30 6841 H 646.254 4.14071 0.533988 0
M  V30 6842 H 647.644 5.979 -3.06537 0
M  V30 6843 N 650.364 0.662433 1.43002 0
M  V30 6844 C 651.327 -0.0142016 2.29196 0
M  V30 6845 C 652.327 -0.741394 1.42688 0
M  V30 6846 O 653.517 -0.581257 1.64216 0
M  V30 6847 C 650.649 -1.03084 3.24941 0
M  V30 6848 H 651.842 0.7443 2.90517 0
M  V30 6849 H 649.395 0.424133 1.50435 0
M  V30 6850 H 650.13 -1.81826 2.68533 0
M  V30 6851 H 649.915 -0.512946 3.8873 0
M  V30 6852 H 651.405 -1.50308 3.89612 0
M  V30 6853 N 651.842 -1.52309 0.404946 0
M  V30 6854 C 652.79 -2.28452 -0.437321 0
M  V30 6855 C 653.784 -1.32975 -1.04948 0
M  V30 6856 O 654.99 -1.50451 -0.988159 0
M  V30 6857 H 651.365 -0.734824 -0.159805 0
M  V30 6858 H 653.336 -2.97542 0.22615 0
M  V30 6859 C 652.085 -3.11536 -1.54404 0
M  V30 6860 H 651.408 -3.84871 -1.08233 0
M  V30 6861 H 652.848 -3.67926 -2.10729 0
M  V30 6862 C 651.307 -2.24833 -2.50902 0
M  V30 6863 O 651.837 -1.88574 -3.54687 0
M  V30 6864 N 650.043 -1.88685 -2.21012 0
M  V30 6865 H 649.59 -2.18371 -1.36646 0
M  V30 6866 H 649.548 -1.30966 -2.85824 0
M  V30 6867 N 653.32 -0.135238 -1.57019 0
M  V30 6868 C 654.597 0.563227 -1.87316 0
M  V30 6869 C 654.977 1.83749 -1.03921 0
M  V30 6870 O 654.325 2.2817 -0.122675 0
M  V30 6871 C 654.535 0.840031 -3.3874 0
M  V30 6872 C 655.883 1.18598 -4.077 0
M  V30 6873 O 656.907 0.92977 -3.43851 0
M  V30 6874 O 655.766 1.66758 -5.20436 0
M  V30 6875 H 652.86 0.285971 -0.775983 0
M  V30 6876 H 655.406 -0.170965 -1.68837 0
M  V30 6877 H 654.178 -0.0622785 -3.9125 0
M  V30 6878 H 653.801 1.62882 -3.62706 0
M  V30 6879 N 654.798 1.5699 0.138552 0
M  V30 6880 C 655.728 2.01933 1.17241 0
M  V30 6881 C 656.709 0.90033 1.44319 0
M  V30 6882 O 657.894 1.16872 1.55095 0
M  V30 6883 C 655.024 2.40711 2.50351 0
M  V30 6884 C 653.978 3.55874 2.37776 0
M  V30 6885 C 653.304 3.80491 3.75674 0
M  V30 6886 C 654.604 4.8826 1.85472 0
M  V30 6887 H 656.298 2.88551 0.798672 0
M  V30 6888 H 653.844 1.3882 0.382743 0
M  V30 6889 H 655.797 2.70754 3.22909 0
M  V30 6890 H 654.521 1.5104 2.89576 0
M  V30 6891 H 653.18 3.2601 1.67669 0
M  V30 6892 H 652.828 2.88057 4.12349 0
M  V30 6893 H 652.528 4.57998 3.68119 0
M  V30 6894 H 654.052 4.12967 4.49767 0
M  V30 6895 H 655.466 5.16965 2.4783 0
M  V30 6896 H 653.863 5.69631 1.88787 0
M  V30 6897 H 654.933 4.78071 0.810935 0
M  V30 6898 N 656.276 -0.40816 1.52223 0
M  V30 6899 C 657.522 -1.15673 1.66576 0
M  V30 6900 C 657.855 -1.90141 0.394996 0
M  V30 6901 O 657.13 -1.84798 -0.606613 0
M  V30 6902 C 657.413 -2.15042 2.88841 0
M  V30 6903 C 657.266 -1.44465 4.25969 0
M  V30 6904 C 658.585 -3.15699 3.0663 0
M  V30 6905 H 655.704 -0.41916 0.606196 0
M  V30 6906 H 658.346 -0.442348 1.84779 0
M  V30 6907 H 656.496 -2.75964 2.73452 0
M  V30 6908 H 658.168 -0.866544 4.53088 0
M  V30 6909 H 656.411 -0.746612 4.27327 0
M  V30 6910 H 657.082 -2.16976 5.07568 0
M  V30 6911 H 659.558 -2.64854 3.20923 0
M  V30 6912 H 658.434 -3.82491 3.9369 0
M  V30 6913 H 658.695 -3.83481 2.19987 0
M  V30 6914 N 657.755 -1.42862 -0.66545 0
M  V30 6915 C 659.003 -1.43546 -1.42264 0
M  V30 6916 C 659.324 -0.0563116 -1.94919 0
M  V30 6917 O 658.594 0.906568 -1.73661 0
M  V30 6918 H 657.174 -0.528464 -0.527953 0
M  V30 6919 H 659.836 -1.78363 -0.785665 0
M  V30 6920 H 658.932 -2.14079 -2.27105 0
M  V30 6921 N 659.233 0.902656 -1.29189 0
M  V30 6922 C 660.481 1.6496 -1.16758 0
M  V30 6923 C 660.802 1.92952 0.28188 0
M  V30 6924 O 660.072 1.55351 1.19344 0
M  V30 6925 H 658.652 0.611447 -0.429118 0
M  V30 6926 H 661.314 1.0825 -1.62074 0
M  V30 6927 H 660.41 2.60728 -1.71544 0
M  V30 6928 N 660.711 1.11618 1.11262 0
M  V30 6929 C 661.641 0.79846 2.19424 0
M  V30 6930 C 662.622 -0.234003 1.68483 0
M  V30 6931 O 663.807 -0.0970704 1.93957 0
M  V30 6932 C 660.937 0.242892 3.4645 0
M  V30 6933 C 659.891 1.20744 4.10615 0
M  V30 6934 C 659.217 0.512494 5.32238 0
M  V30 6935 C 660.517 2.55884 4.55325 0
M  V30 6936 H 662.211 1.70286 2.46258 0
M  V30 6937 H 659.757 0.820195 1.18359 0
M  V30 6938 H 661.71 0.00840447 4.21399 0
M  V30 6939 H 660.434 -0.696811 3.1908 0
M  V30 6940 H 659.093 1.42759 3.37662 0
M  V30 6941 H 658.741 -0.432075 5.01141 0
M  V30 6942 H 658.441 1.15583 5.7612 0
M  V30 6943 H 659.965 0.286842 6.09926 0
M  V30 6944 H 661.379 2.37946 5.21588 0
M  V30 6945 H 659.776 3.16216 5.10027 0
M  V30 6946 H 660.846 3.14968 3.68678 0
M  V30 6947 N 662.189 -1.289 0.906776 0
M  V30 6948 C 663.122 -2.25737 0.334362 0
M  V30 6949 C 664.1 -1.52745 -0.557474 0
M  V30 6950 O 665.284 -1.81673 -0.502697 0
M  V30 6951 C 662.411 -3.34642 -0.522716 0
M  V30 6952 C 661.457 -4.25424 0.302777 0
M  V30 6953 S 662.29 -5.07629 1.70508 0
M  V30 6954 C 663.446 -6.20031 0.855118 0
M  V30 6955 H 663.679 -2.73941 1.15514 0
M  V30 6956 H 661.212 -1.37233 0.707573 0
M  V30 6957 H 663.17 -3.97845 -1.01141 0
M  V30 6958 H 661.831 -2.85119 -1.31781 0
M  V30 6959 H 661.024 -5.02767 -0.352257 0
M  V30 6960 H 660.626 -3.66908 0.724873 0
M  V30 6961 H 662.918 -6.77451 0.0816418 0
M  V30 6962 H 663.861 -6.89767 1.60087 0
M  V30 6963 H 664.269 -5.63035 0.406375 0
M  V30 6964 N 663.667 -0.670007 -1.42649 0
M  V30 6965 C 664.892 -0.196955 -2.06463 0
M  V30 6966 C 665.317 1.1352 -1.49983 0
M  V30 6967 O 664.675 1.705 -0.616397 0
M  V30 6968 C 664.723 -0.137381 -3.60338 0
M  V30 6969 O 663.827 0.895523 -4.02559 0
M  V30 6970 H 663.168 -0.102579 -0.656029 0
M  V30 6971 H 665.698 -0.917669 -1.82866 0
M  V30 6972 H 665.708 0.0403625 -4.0798 0
M  V30 6973 H 664.383 -1.10977 -4.0082 0
M  V30 6974 H 662.96 0.689209 -3.66476 0
M  V30 6975 N 665.145 1.52092 -0.413018 0
M  V30 6976 C 666.422 1.94356 0.22024 0
M  V30 6977 C 666.802 1.35017 1.62277 0
M  V30 6978 O 666.15 0.527511 2.22328 0
M  V30 6979 C 666.36 3.48289 0.222638 0
M  V30 6980 C 667.708 4.22313 0.440098 0
M  V30 6981 O 668.732 3.54919 0.301826 0
M  V30 6982 O 667.591 5.41829 0.712984 0
M  V30 6983 H 664.685 0.814536 0.14304 0
M  V30 6984 H 667.231 1.63083 -0.469242 0
M  V30 6985 H 666.003 3.83872 -0.758836 0
M  V30 6986 H 665.626 3.85934 0.956057 0
M  V30 6987 N 666.623 0.143563 1.56945 0
M  V30 6988 C 667.871 -0.507402 1.95627 0
M  V30 6989 C 668.192 -1.65626 1.02922 0
M  V30 6990 O 667.462 -1.95693 0.0901136 0
M  V30 6991 H 666.042 -0.190436 0.722318 0
M  V30 6992 H 668.704 0.218257 1.93674 0
M  V30 6993 H 667.8 -0.885816 2.99265 0
M  V30 6994 N 668.101 -1.57061 -0.130224 0
M  V30 6995 C 669.031 -2.02552 -1.16168 0
M  V30 6996 C 670.012 -0.907971 -1.4384 0
M  V30 6997 O 671.197 -1.17693 -1.54473 0
M  V30 6998 C 668.327 -2.42035 -2.49071 0
M  V30 6999 C 667.281 -3.5713 -2.35886 0
M  V30 7000 C 666.607 -3.82478 -3.7365 0
M  V30 7001 C 667.907 -4.89236 -1.8288 0
M  V30 7002 H 669.601 -2.8897 -0.783359 0
M  V30 7003 H 667.147 -1.39021 -0.375376 0
M  V30 7004 H 669.1 -2.72462 -3.21469 0
M  V30 7005 H 667.824 -1.52573 -2.88771 0
M  V30 7006 H 666.483 -3.26895 -1.65938 0
M  V30 7007 H 666.131 -2.9024 -4.10816 0
M  V30 7008 H 665.831 -4.59944 -3.65685 0
M  V30 7009 H 667.355 -4.15347 -4.47571 0
M  V30 7010 H 668.769 -5.18272 -2.45085 0
M  V30 7011 H 667.166 -5.70624 -1.85763 0
M  V30 7012 H 668.236 -4.78494 -0.785571 0
M  V30 7013 N 669.579 0.400081 -1.52437 0
M  V30 7014 C 670.995 0.739359 -1.41441 0
M  V30 7015 C 671.195 1.94512 -0.526053 0
M  V30 7016 O 670.251 2.525 0.00472502 0
M  V30 7017 C 671.564 0.984824 -2.84116 0
M  V30 7018 C 673.112 1.08698 -2.93519 0
M  V30 7019 C 673.587 1.36515 -4.37181 0
M  V30 7020 N 675.078 1.43361 -4.40457 0
M  V30 7021 C 675.813 1.66528 -5.48686 0
M  V30 7022 N 675.309 1.87239 -6.67018 0
M  V30 7023 N 677.102 1.68617 -5.36213 0
M  V30 7024 H 669.253 -0.393484 -2.08723 0
M  V30 7025 H 671.516 -0.1138 -0.941145 0
M  V30 7026 H 671.222 0.171096 -3.51284 0
M  V30 7027 H 671.096 1.90253 -3.25705 0
M  V30 7028 H 673.483 1.89129 -2.26526 0
M  V30 7029 H 673.564 0.147432 -2.55375 0
M  V30 7030 H 673.208 0.565982 -5.04737 0
M  V30 7031 H 673.138 2.31737 -4.7287 0
M  V30 7032 H 675.629 1.29108 -3.55161 0
M  V30 7033 H 675.942 2.04392 -7.45281 0
M  V30 7034 H 674.287 1.84486 -6.70067 0
M  V30 7035 H 677.478 1.5198 -4.42741 0
M  V30 7036 H 677.651 1.86332 -6.20632 0
M  V30 7037 N 671.057 1.43213 0.657864 0
M  V30 7038 C 672.473 1.26511 0.972992 0
M  V30 7039 C 672.673 0.181477 2.00681 0
M  V30 7040 O 671.729 -0.441649 2.48608 0
M  V30 7041 C 673.042 2.62784 1.46168 0
M  V30 7042 C 674.59 2.70278 1.57857 0
M  V30 7043 C 675.065 4.06958 2.10117 0
M  V30 7044 N 676.556 4.08999 2.17426 0
M  V30 7045 C 677.291 5.11585 2.58975 0
M  V30 7046 N 676.787 6.24548 2.99853 0
M  V30 7047 N 678.58 4.9894 2.58873 0
M  V30 7048 H 670.731 2.12384 -0.0263129 0
M  V30 7049 H 672.994 0.946638 0.0507992 0
M  V30 7050 H 672.7 3.43022 0.776474 0
M  V30 7051 H 672.574 2.87863 2.43751 0
M  V30 7052 H 674.961 1.90376 2.25479 0
M  V30 7053 H 675.042 2.4897 0.587179 0
M  V30 7054 H 674.686 4.87325 1.43098 0
M  V30 7055 H 674.616 4.25628 3.10078 0
M  V30 7056 H 677.107 3.27457 1.88627 0
M  V30 7057 H 677.42 6.98661 3.30292 0
M  V30 7058 H 675.765 6.28027 2.97669 0
M  V30 7059 H 678.956 4.09757 2.26311 0
M  V30 7060 H 679.129 5.79019 2.90932 0
M  V30 7061 N 672.536 -0.895792 1.29666 0
M  V30 7062 C 673.466 -2.01673 1.17688 0
M  V30 7063 C 674.447 -1.69955 0.0701317 0
M  V30 7064 O 675.632 -1.9258 0.250289 0
M  V30 7065 C 672.762 -3.36568 0.856681 0
M  V30 7066 C 671.716 -3.82509 1.92017 0
M  V30 7067 C 671.042 -5.14574 1.4532 0
M  V30 7068 C 672.342 -4.02409 3.32963 0
M  V30 7069 H 674.036 -2.11953 2.11463 0
M  V30 7070 H 671.582 -1.01839 1.01807 0
M  V30 7071 H 673.535 -4.14498 0.759577 0
M  V30 7072 H 672.259 -3.26391 -0.116763 0
M  V30 7073 H 670.918 -3.068 2.00673 0
M  V30 7074 H 670.566 -5.00815 0.468325 0
M  V30 7075 H 670.266 -5.46283 2.16447 0
M  V30 7076 H 671.79 -5.9504 1.36968 0
M  V30 7077 H 673.204 -4.70808 3.27127 0
M  V30 7078 H 671.601 -4.45478 4.02082 0
M  V30 7079 H 672.671 -3.06616 3.75652 0
M  V30 7080 N 674.014 -1.12206 -1.10668 0
M  V30 7081 C 675.239 -0.898938 -1.86906 0
M  V30 7082 C 675.664 0.546346 -1.79991 0
M  V30 7083 O 675.022 1.38655 -1.1681 0
M  V30 7084 C 675.07 -1.37529 -3.33344 0
M  V30 7085 O 674.174 -0.55218 -4.08687 0
M  V30 7086 H 673.515 -0.323163 -0.580053 0
M  V30 7087 H 676.045 -1.49355 -1.39837 0
M  V30 7088 H 676.055 -1.3733 -3.84193 0
M  V30 7089 H 674.73 -2.42767 -3.37693 0
M  V30 7090 H 673.307 -0.620947 -3.67694 0
M  V30 7091 N 675.492 1.28418 -0.913599 0
M  V30 7092 C 676.74 1.94596 -0.545594 0
M  V30 7093 C 677.061 1.7227 0.913668 0
M  V30 7094 O 676.331 1.06233 1.64595 0
M  V30 7095 H 674.911 0.720065 -0.198783 0
M  V30 7096 H 677.573 1.56404 -1.16292 0
M  V30 7097 H 676.669 3.03202 -0.739911 0
M  V30 7098 N 676.97 0.677563 1.42291 0
M  V30 7099 C 677.918 -0.0106755 2.32598 0
M  V30 7100 C 678.912 -0.787643 1.49975 0
M  V30 7101 O 680.118 -0.695295 1.66029 0
M  V30 7102 H 676.493 -0.0222482 0.751671 0
M  V30 7103 H 678.464 0.768312 2.88339 0
M  V30 7104 C 677.213 -0.946142 3.3458 0
M  V30 7105 H 676.536 -0.357701 3.98197 0
M  V30 7106 H 677.976 -1.39634 4.00348 0
M  V30 7107 C 676.435 -2.05383 2.67057 0
M  V30 7108 O 676.965 -3.1406 2.50458 0
M  V30 7109 N 675.171 -1.82635 2.26038 0
M  V30 7110 H 674.718 -0.942534 2.39737 0
M  V30 7111 H 674.676 -2.56937 1.81192 0
M  V30 7112 N 678.448 -1.51871 0.421078 0
M  V30 7113 C 679.358 -2.31077 -0.405069 0
M  V30 7114 C 680.374 -1.39301 -1.04265 0
M  V30 7115 O 681.55 -1.72376 -1.04157 0
M  V30 7116 C 678.615 -3.12556 -1.50032 0
M  V30 7117 C 677.676 -4.20088 -0.884559 0
M  V30 7118 C 676.909 -4.97673 -1.92762 0
M  V30 7119 O 677.132 -4.75696 -3.14753 0
M  V30 7120 O 676.066 -5.82203 -1.52719 0
M  V30 7121 H 679.892 -3.02742 0.241086 0
M  V30 7122 H 677.477 -1.48263 0.183991 0
M  V30 7123 H 679.359 -3.6326 -2.13589 0
M  V30 7124 H 678.034 -2.43672 -2.13086 0
M  V30 7125 H 676.941 -3.73502 -0.211379 0
M  V30 7126 H 678.274 -4.91298 -0.297763 0
M  V30 7127 N 679.926 -0.151884 -1.56866 0
M  V30 7128 C 681.156 0.504081 -2.00356 0
M  V30 7129 C 681.564 1.58639 -1.03103 0
M  V30 7130 O 680.907 1.83688 -0.0207931 0
M  V30 7131 C 680.969 1.15975 -3.40279 0
M  V30 7132 C 680.633 0.221453 -4.56463 0
M  V30 7133 C 681.63 -0.552766 -5.16953 0
M  V30 7134 C 679.315 0.122936 -5.0215 0
M  V30 7135 C 681.309 -1.4129 -6.21543 0
M  V30 7136 C 678.996 -0.740801 -6.06593 0
M  V30 7137 C 679.994 -1.50732 -6.6616 0
M  V30 7138 O 679.682 -2.35666 -7.68581 0
M  V30 7139 H 679.414 0.135279 -0.662326 0
M  V30 7140 H 681.968 -0.244916 -2.03935 0
M  V30 7141 H 680.198 1.95649 -3.33554 0
M  V30 7142 H 681.887 1.71594 -3.67846 0
M  V30 7143 H 682.653 -0.486716 -4.82552 0
M  V30 7144 H 678.532 0.70931 -4.5551 0
M  V30 7145 H 682.076 -2.01166 -6.67966 0
M  V30 7146 H 677.973 -0.808125 -6.40421 0
M  V30 7147 H 678.741 -2.28967 -7.85822 0
M  V30 7148 N 681.404 1.57128 0.121893 0
M  V30 7149 C 682.65 1.84974 0.831418 0
M  V30 7150 C 682.983 0.737204 1.79663 0
M  V30 7151 O 682.258 -0.257199 1.92792 0
M  V30 7152 C 682.541 3.23397 1.58386 0
M  V30 7153 C 682.394 4.45246 0.638445 0
M  V30 7154 C 683.713 3.59355 2.54071 0
M  V30 7155 H 680.832 0.67282 0.300803 0
M  V30 7156 H 683.474 1.89759 0.0957587 0
M  V30 7157 H 681.624 3.19449 2.21098 0
M  V30 7158 H 683.296 4.61295 0.0203925 0
M  V30 7159 H 681.539 4.33771 -0.05023 0
M  V30 7160 H 682.21 5.38765 1.20151 0
M  V30 7161 H 684.686 3.64075 2.01465 0
M  V30 7162 H 683.562 4.57193 3.03752 0
M  V30 7163 H 683.823 2.86622 3.36601 0
M  V30 7164 N 682.882 -0.391992 1.52647 0
M  V30 7165 C 683.812 -1.48517 1.8018 0
M  V30 7166 C 684.793 -1.57039 0.653667 0
M  V30 7167 O 685.978 -1.72036 0.900962 0
M  V30 7168 C 683.108 -2.86161 1.96797 0
M  V30 7169 C 682.062 -2.92481 3.12472 0
M  V30 7170 C 681.388 -4.32546 3.14338 0
M  V30 7171 C 682.688 -2.624 4.51601 0
M  V30 7172 H 684.382 -1.25726 2.71723 0
M  V30 7173 H 681.928 -0.603387 1.30749 0
M  V30 7174 H 683.881 -3.62639 2.14641 0
M  V30 7175 H 682.605 -3.10283 1.01941 0
M  V30 7176 H 681.264 -2.18451 2.94406 0
M  V30 7177 H 680.912 -4.53703 2.1717 0
M  V30 7178 H 680.612 -4.37695 3.92042 0
M  V30 7179 H 682.136 -5.10934 3.34333 0
M  V30 7180 H 683.55 -3.28596 4.69785 0
M  V30 7181 H 681.947 -2.78903 5.3135 0
M  V30 7182 H 683.017 -1.57754 4.58521 0
M  V30 7183 N 684.36 -1.4356 -0.65026 0
M  V30 7184 C 685.585 -1.48995 -1.44275 0
M  V30 7185 C 686.01 -0.109954 -1.87778 0
M  V30 7186 O 685.368 0.896926 -1.57559 0
M  V30 7187 C 685.416 -2.44341 -2.65198 0
M  V30 7188 O 684.52 -1.93172 -3.6436 0
M  V30 7189 H 683.861 -0.503852 -0.432469 0
M  V30 7190 H 686.391 -1.88504 -0.795446 0
M  V30 7191 H 686.401 -2.61743 -3.12977 0
M  V30 7192 H 685.076 -3.44588 -2.32877 0
M  V30 7193 H 683.653 -1.85445 -3.23519 0
M  V30 7194 N 685.838 0.888903 -1.30139 0
M  V30 7195 C 687.066 1.67358 -1.21651 0
M  V30 7196 C 687.481 1.87499 0.221246 0
M  V30 7197 O 686.838 1.41969 1.14677 0
M  V30 7198 C 686.889 3.05213 -1.93719 0
M  V30 7199 O 686.61 2.85984 -3.31881 0
M  V30 7200 C 688.111 3.9964 -1.9184 0
M  V30 7201 H 685.331 0.522365 -0.42116 0
M  V30 7202 H 687.875 1.11086 -1.71698 0
M  V30 7203 H 686.03 3.5823 -1.4748 0
M  V30 7204 H 686.444 3.73411 -3.68327 0
M  V30 7205 H 687.918 4.93749 -2.46811 0
M  V30 7206 H 688.395 4.29955 -0.896409 0
M  V30 7207 H 689.001 3.52558 -2.37872 0
M  V30 7208 N 687.317 1.12792 1.10072 0
M  V30 7209 C 688.264 0.79921 2.16521 0
M  V30 7210 C 689.234 -0.235726 1.64419 0
M  V30 7211 O 690.419 -0.109457 1.90486 0
M  V30 7212 C 687.559 0.264091 3.44088 0
M  V30 7213 C 686.672 1.35729 4.10124 0
M  V30 7214 C 685.807 0.781212 5.25424 0
M  V30 7215 C 684.846 1.85327 5.8337 0
M  V30 7216 N 683.983 1.29564 6.90042 0
M  V30 7217 H 688.823 1.71105 2.43981 0
M  V30 7218 H 686.36 0.854225 1.19756 0
M  V30 7219 H 688.318 -0.0642423 4.17151 0
M  V30 7220 H 686.948 -0.610901 3.16967 0
M  V30 7221 H 686 1.80234 3.34993 0
M  V30 7222 H 687.312 2.16782 4.4923 0
M  V30 7223 H 686.466 0.403769 6.05355 0
M  V30 7224 H 685.205 -0.0604686 4.87663 0
M  V30 7225 H 684.21 2.23986 5.02106 0
M  V30 7226 H 685.435 2.69824 6.23195 0
M  V30 7227 H 683.381 0.475844 6.54272 0
M  V30 7228 H 683.298 2.04271 7.2788 0
M  V30 7229 H 684.566 0.945545 7.73744 0
M  V30 7230 N 688.795 -1.27931 0.920396 0
M  V30 7231 C 689.743 -2.29061 0.404191 0
M  V30 7232 C 690.737 -1.61615 -0.507634 0
M  V30 7233 O 691.943 -1.75765 -0.388144 0
M  V30 7234 H 688.318 -0.743594 0.112123 0
M  V30 7235 H 690.289 -2.70021 1.27008 0
M  V30 7236 C 689.038 -3.46088 -0.334466 0
M  V30 7237 H 688.361 -3.98194 0.35797 0
M  V30 7238 H 689.801 -4.18829 -0.660196 0
M  V30 7239 C 688.26 -2.99396 -1.54479 0
M  V30 7240 O 688.79 -3.02439 -2.64374 0
M  V30 7241 N 686.996 -2.54978 -1.39408 0
M  V30 7242 H 686.543 -2.52701 -0.500009 0
M  V30 7243 H 686.501 -2.24098 -2.20516 0
M  V30 7244 N 690.273 -0.685099 -1.4193 0
M  V30 7245 C 691.501 -0.220372 -2.05723 0
M  V30 7246 C 691.916 1.12642 -1.51516 0
M  V30 7247 O 691.273 1.70182 -0.659114 0
M  V30 7248 C 691.324 -0.157974 -3.61155 0
M  V30 7249 O 691.045 -1.45156 -4.13354 0
M  V30 7250 C 692.546 0.329009 -4.42077 0
M  V30 7251 H 689.766 -0.104725 -0.662777 0
M  V30 7252 H 692.31 -0.934736 -1.81887 0
M  V30 7253 H 690.465 0.507144 -3.84066 0
M  V30 7254 H 690.879 -1.33172 -5.07312 0
M  V30 7255 H 692.353 0.321559 -5.51063 0
M  V30 7256 H 692.83 1.36608 -4.17414 0
M  V30 7257 H 693.436 -0.304737 -4.24207 0
M  V30 7258 N 691.751 1.51645 -0.429126 0
M  V30 7259 C 692.683 2.25279 0.422124 0
M  V30 7260 C 693.696 1.28986 0.993299 0
M  V30 7261 O 694.885 1.54797 0.888836 0
M  V30 7262 C 691.985 2.98666 1.60162 0
M  V30 7263 C 691.158 4.2199 1.15078 0
M  V30 7264 C 690.217 4.78028 2.19946 0
M  V30 7265 O 689.243 5.40084 1.79716 0
M  V30 7266 N 690.445 4.61342 3.5234 0
M  V30 7267 H 693.21 2.98971 -0.208931 0
M  V30 7268 H 690.771 1.59838 -0.257568 0
M  V30 7269 H 692.763 3.33044 2.29922 0
M  V30 7270 H 691.333 2.28036 2.13818 0
M  V30 7271 H 690.553 3.932 0.280552 0
M  V30 7272 H 691.841 5.02037 0.826831 0
M  V30 7273 H 691.239 4.11894 3.87763 0
M  V30 7274 H 689.796 5.00104 4.18019 0
M  V30 7275 N 693.229 0.160201 1.56784 0
M  V30 7276 C 694.162 -0.812797 2.13234 0
M  V30 7277 C 695.14 -1.2335 1.05942 0
M  V30 7278 O 696.324 -1.32725 1.33852 0
M  V30 7279 C 693.451 -2.09311 2.66283 0
M  V30 7280 C 692.497 -1.8173 3.85845 0
M  V30 7281 S 693.33 -0.996473 5.26147 0
M  V30 7282 C 694.486 -2.28769 5.82594 0
M  V30 7283 H 694.719 -0.332794 2.95432 0
M  V30 7284 H 692.252 -0.0542971 1.54304 0
M  V30 7285 H 694.21 -2.82854 2.97496 0
M  V30 7286 H 692.871 -2.54425 1.84192 0
M  V30 7287 H 692.064 -2.76699 4.21253 0
M  V30 7288 H 691.666 -1.16289 3.55462 0
M  V30 7289 H 693.958 -3.24319 5.9483 0
M  V30 7290 H 694.901 -1.97846 6.79899 0
M  V30 7291 H 695.309 -2.40021 5.10931 0
M  V30 7292 N 694.707 -1.5719 -0.113559 0
M  V30 7293 C 695.953 -1.85412 -0.821597 0
M  V30 7294 C 696.286 -0.746722 -1.7927 0
M  V30 7295 O 695.561 0.246971 -1.92926 0
M  V30 7296 C 695.844 -3.24233 -1.56669 0
M  V30 7297 C 695.697 -4.45578 -0.614823 0
M  V30 7298 C 697.016 -3.60697 -2.52161 0
M  V30 7299 H 694.135 -0.674406 -0.29723 0
M  V30 7300 H 696.777 -1.89807 -0.085694 0
M  V30 7301 H 694.927 -3.20617 -2.19401 0
M  V30 7302 H 696.599 -4.613 0.00407137 0
M  V30 7303 H 694.842 -4.33738 0.0732332 0
M  V30 7304 H 695.513 -5.39395 -1.17292 0
M  V30 7305 H 697.989 -3.65139 -1.99532 0
M  V30 7306 H 696.865 -4.58798 -3.01323 0
M  V30 7307 H 697.126 -2.88403 -3.35076 0
M  V30 7308 N 696.185 0.383891 -1.52853 0
M  V30 7309 C 697.41 1.154 -1.7233 0
M  V30 7310 C 697.835 1.82809 -0.44298 0
M  V30 7311 O 697.193 1.71026 0.601645 0
M  V30 7312 C 697.241 2.17386 -2.87708 0
M  V30 7313 O 696.345 3.24082 -2.55038 0
M  V30 7314 H 695.686 0.335709 -0.572883 0
M  V30 7315 H 698.216 0.44662 -1.99666 0
M  V30 7316 H 698.226 2.61296 -3.1335 0
M  V30 7317 H 696.901 1.6771 -3.80587 0
M  V30 7318 H 695.478 2.85273 -2.40153 0
M  V30 7319 N 697.663 1.43903 0.642637 0
M  V30 7320 C 698.888 1.49758 1.43483 0
M  V30 7321 C 699.313 0.119911 1.87717 0
M  V30 7322 O 698.671 -0.888558 1.58033 0
M  V30 7323 C 698.719 2.45744 2.63898 0
M  V30 7324 O 697.823 1.95101 3.63331 0
M  V30 7325 H 697.164 0.506138 0.429791 0
M  V30 7326 H 699.694 1.88923 0.785438 0
M  V30 7327 H 699.704 2.63399 3.11584 0
M  V30 7328 H 698.379 3.45818 2.31046 0
M  V30 7329 H 696.956 1.87158 3.22531 0
M  V30 7330 N 699.141 -0.881989 1.30609 0
M  V30 7331 C 700.089 -2.00942 1.17155 0
M  V30 7332 C 701.083 -1.69198 0.0827154 0
M  V30 7333 O 702.289 -1.78342 0.243775 0
M  V30 7334 H 698.664 -0.658913 0.362406 0
M  V30 7335 H 700.635 -2.09423 2.12567 0
M  V30 7336 C 699.384 -3.36294 0.883273 0
M  V30 7337 H 698.707 -3.61233 1.7132 0
M  V30 7338 H 700.147 -4.15812 0.829255 0
M  V30 7339 C 698.606 -3.34348 -0.413851 0
M  V30 7340 O 699.136 -3.75216 -1.43444 0
M  V30 7341 N 697.342 -2.87459 -0.426082 0
M  V30 7342 H 696.889 -2.54397 0.40493 0
M  V30 7343 H 696.847 -2.8654 -1.29391 0
M  V30 7344 N 700.619 -1.13374 -1.09472 0
M  V30 7345 C 701.868 -0.889844 -1.8101 0
M  V30 7346 C 702.181 0.585686 -1.86625 0
M  V30 7347 O 703.387 0.946497 -2.54467 0
M  V30 7348 C 701.843 -1.54241 -3.25174 0
M  V30 7349 C 701.451 -3.05343 -3.27826 0
M  V30 7350 C 703.195 -1.37919 -4.0147 0
M  V30 7351 C 701.102 -3.63486 -4.6651 0
M  V30 7352 H 700.032 -0.329256 -0.678311 0
M  V30 7353 H 702.683 -1.36139 -1.23038 0
M  V30 7354 H 701.065 -0.998525 -3.83204 0
M  V30 7355 H 702.239 -3.66307 -2.79563 0
M  V30 7356 H 700.554 -3.21175 -2.65019 0
M  V30 7357 H 703.151 -1.78771 -5.03929 0
M  V30 7358 H 703.494 -0.323987 -4.15037 0
M  V30 7359 H 704.027 -1.89284 -3.49881 0
M  V30 7360 H 700.766 -4.68811 -4.58145 0
M  V30 7361 H 700.286 -3.073 -5.15099 0
M  V30 7362 H 701.965 -3.63134 -5.35484 0
M  V30 7363 N 702.098 1.27442 -0.927168 0
M  V30 7364 C 703.347 1.93679 -0.563146 0
M  V30 7365 C 703.66 1.73673 0.899837 0
M  V30 7366 O 704.866 2.34247 1.37262 0
M  V30 7367 C 703.322 3.46961 -0.95636 0
M  V30 7368 C 702.93 3.75724 -2.43999 0
M  V30 7369 C 704.674 4.19282 -0.663565 0
M  V30 7370 C 702.581 5.22378 -2.77263 0
M  V30 7371 H 701.511 0.725059 -0.206894 0
M  V30 7372 H 704.162 1.44743 -1.12791 0
M  V30 7373 H 702.544 3.94703 -0.320254 0
M  V30 7374 H 703.718 3.38741 -3.12396 0
M  V30 7375 H 702.033 3.16605 -2.70463 0
M  V30 7376 H 704.63 5.27265 -0.888596 0
M  V30 7377 H 704.973 4.14382 0.399198 0
M  V30 7378 H 705.506 3.7736 -1.25875 0
M  V30 7379 H 702.245 5.32367 -3.82446 0
M  V30 7380 H 701.765 5.6051 -2.13516 0
M  V30 7381 H 703.444 5.9025 -2.64979 0
M  V30 7382 N 703.576 0.692616 1.41565 0
M  V30 7383 C 704.804 0.231279 2.05603 0
M  V30 7384 C 705.219 -1.11837 1.52111 0
M  V30 7385 O 704.576 -1.6983 0.66813 0
M  V30 7386 C 704.627 0.177125 3.61066 0
M  V30 7387 O 704.348 1.47346 4.12578 0
M  V30 7388 C 705.849 -0.30556 4.42246 0
M  V30 7389 H 703.069 0.108238 0.662213 0
M  V30 7390 H 705.613 0.944369 1.81389 0
M  V30 7391 H 703.768 -0.486769 3.8433 0
M  V30 7392 H 704.182 1.35861 5.06599 0
M  V30 7393 H 705.656 -0.29233 5.51225 0
M  V30 7394 H 706.133 -1.34393 4.18133 0
M  V30 7395 H 706.739 0.327229 4.24039 0
M  V30 7396 N 705.054 -1.51416 0.437162 0
M  V30 7397 C 706.465 -1.86682 -0.0260005 0
M  V30 7398 C 706.816 -1.35432 -1.4196 0
M  V30 7399 O 705.941 -0.705055 -2.04592 0
M  V30 7400 C 706.536 -3.38757 -0.0539577 0
M  V30 7401 C 705.095 -3.7356 -0.461532 0
M  V30 7402 C 704.242 -2.75134 0.345924 0
M  V30 7403 H 707.193 -1.44642 0.653013 0
M  V30 7404 H 707.214 -3.70573 -0.863478 0
M  V30 7405 H 706.726 -3.76028 0.96045 0
M  V30 7406 H 704.827 -3.41878 -1.48155 0
M  V30 7407 H 704.94 -4.78737 -0.186451 0
M  V30 7408 H 703.304 -2.53947 -0.195739 0
M  V30 7409 H 704.087 -3.15247 1.35921 0
M  V30 7410 N 706.532 -0.168513 -1.56696 0
M  V30 7411 C 707.781 0.477233 -1.95973 0
M  V30 7412 C 708.094 1.64578 -1.05704 0
M  V30 7413 O 709.3 2.35758 -1.3465 0
M  V30 7414 C 707.756 0.900413 -3.48455 0
M  V30 7415 C 707.364 -0.242382 -4.47344 0
M  V30 7416 C 709.108 1.51474 -3.96555 0
M  V30 7417 C 707.015 0.200272 -5.91061 0
M  V30 7418 H 705.945 0.182061 -0.73169 0
M  V30 7419 H 708.596 -0.256297 -1.81701 0
M  V30 7420 H 706.978 1.68984 -3.58135 0
M  V30 7421 H 708.152 -1.01967 -4.49377 0
M  V30 7422 H 706.467 -0.766484 -4.09285 0
M  V30 7423 H 709.064 1.85792 -5.01384 0
M  V30 7424 H 709.407 2.41163 -3.39332 0
M  V30 7425 H 709.94 0.789802 -3.89881 0
M  V30 7426 H 706.679 -0.661775 -6.52151 0
M  V30 7427 H 706.199 0.942979 -5.92341 0
M  V30 7428 H 707.878 0.645088 -6.43776 0
M  V30 7429 N 708.01 1.57248 0.105221 0
M  V30 7430 C 709.235 1.90143 0.828264 0
M  V30 7431 C 709.66 0.761811 1.71983 0
M  V30 7432 O 709.018 -0.287086 1.79013 0
M  V30 7433 C 709.066 3.21856 1.62608 0
M  V30 7434 O 708.17 3.08732 2.7342 0
M  V30 7435 H 707.511 0.623558 0.228192 0
M  V30 7436 H 710.041 2.0443 0.0834826 0
M  V30 7437 H 710.051 3.54916 2.01243 0
M  V30 7438 H 708.726 4.0439 0.971687 0
M  V30 7439 H 707.303 2.87167 2.37886 0
M  V30 7440 N 709.488 -0.375779 1.53054 0
M  V30 7441 C 710.418 -1.46598 1.81745 0
M  V30 7442 C 711.399 -1.56337 0.670286 0
M  V30 7443 O 712.584 -1.71071 0.919158 0
M  V30 7444 C 709.714 -2.84058 1.99821 0
M  V30 7445 C 708.668 -2.8915 3.15557 0
M  V30 7446 C 707.994 -4.29187 3.18908 0
M  V30 7447 C 709.294 -2.57595 4.54359 0
M  V30 7448 H 710.988 -1.22837 2.73041 0
M  V30 7449 H 708.534 -0.589485 1.31381 0
M  V30 7450 H 710.487 -3.60342 2.18475 0
M  V30 7451 H 709.211 -3.09184 1.05226 0
M  V30 7452 H 707.87 -2.15316 2.96706 0
M  V30 7453 H 707.518 -4.51374 2.2197 0
M  V30 7454 H 707.218 -4.33512 3.96662 0
M  V30 7455 H 708.742 -5.07359 3.39734 0
M  V30 7456 H 710.156 -3.23595 4.73243 0
M  V30 7457 H 708.553 -2.73252 5.34279 0
M  V30 7458 H 709.623 -1.52882 4.60169 0
M  V30 7459 N 710.966 -1.44241 -0.634997 0
M  V30 7460 C 712.243 -1.37296 -1.39317 0
M  V30 7461 C 712.623 -0.0297532 -2.11079 0
M  V30 7462 O 711.971 0.987524 -2.06059 0
M  V30 7463 C 712.181 -2.56853 -2.36279 0
M  V30 7464 C 713.529 -3.00747 -2.99728 0
M  V30 7465 O 714.553 -2.5703 -2.46605 0
M  V30 7466 O 713.412 -3.76533 -3.96087 0
M  V30 7467 H 710.506 -0.543503 -0.623325 0
M  V30 7468 H 713.052 -1.56324 -0.660376 0
M  V30 7469 H 711.824 -3.46228 -1.82324 0
M  V30 7470 H 711.447 -2.40019 -3.16981 0
M  V30 7471 N 712.444 0.87505 -1.31075 0
M  V30 7472 C 713.721 1.60976 -1.11113 0
M  V30 7473 C 714.101 2.08409 0.336006 0
M  V30 7474 O 713.449 1.85858 1.32924 0
M  V30 7475 C 713.659 2.77166 -2.12085 0
M  V30 7476 C 715.007 3.47254 -2.44335 0
M  V30 7477 O 716.031 2.87367 -2.10472 0
M  V30 7478 O 714.89 4.55276 -3.02301 0
M  V30 7479 H 711.984 0.707982 -0.427424 0
M  V30 7480 H 714.53 0.920957 -1.42536 0
M  V30 7481 H 713.302 2.39494 -3.09449 0
M  V30 7482 H 712.925 3.53737 -1.81538 0
M  V30 7483 N 713.922 1.13953 1.08869 0
M  V30 7484 C 715.168 0.906151 1.8143 0
M  V30 7485 C 715.501 -0.566089 1.85766 0
M  V30 7486 O 714.776 -1.41915 1.33006 0
M  V30 7487 C 715.059 1.50183 3.27287 0
M  V30 7488 C 714.912 3.04359 3.31189 0
M  V30 7489 C 716.231 1.17477 4.24131 0
M  V30 7490 H 713.35 0.330624 0.658678 0
M  V30 7491 H 715.992 1.40873 1.27495 0
M  V30 7492 H 714.142 1.07442 3.73348 0
M  V30 7493 H 715.814 3.55896 2.93488 0
M  V30 7494 H 714.057 3.39053 2.70602 0
M  V30 7495 H 714.728 3.41141 4.33966 0
M  V30 7496 H 717.204 1.5442 3.86385 0
M  V30 7497 H 716.08 1.61795 5.24513 0
M  V30 7498 H 716.341 0.0893312 4.4201 0
M  V30 7499 N 715.4 -1.26948 0.933913 0
M  V30 7500 C 716.811 -1.76058 0.621324 0
M  V30 7501 C 717.162 -1.76175 -0.863522 0
M  V30 7502 O 716.287 -1.36921 -1.67576 0
M  V30 7503 C 716.882 -3.19713 1.12111 0
M  V30 7504 C 715.441 -3.66465 0.859074 0
M  V30 7505 C 714.588 -2.46186 1.27624 0
M  V30 7506 H 717.539 -1.13127 1.11301 0
M  V30 7507 H 717.56 -3.77566 0.471608 0
M  V30 7508 H 717.072 -3.19596 2.20182 0
M  V30 7509 H 715.173 -3.72021 -0.207566 0
M  V30 7510 H 715.286 -4.55636 1.48098 0
M  V30 7511 H 713.65 -2.45042 0.694727 0
M  V30 7512 H 714.433 -2.48774 2.36572 0
M  V30 7513 N 716.879 -0.700114 -1.41195 0
M  V30 7514 C 718.29 -0.307249 -1.84154 0
M  V30 7515 C 718.641 1.15539 -1.58572 0
M  V30 7516 O 717.766 1.88744 -1.05852 0
M  V30 7517 C 718.361 -0.550872 -3.34292 0
M  V30 7518 C 716.92 -0.211877 -3.75803 0
M  V30 7519 C 716.067 -0.830915 -2.64558 0
M  V30 7520 H 719.018 -0.900431 -1.30683 0
M  V30 7521 H 719.039 0.188954 -3.80031 0
M  V30 7522 H 718.551 -1.61548 -3.5288 0
M  V30 7523 H 716.652 0.848283 -3.62815 0
M  V30 7524 H 716.765 -0.67007 -4.74391 0
M  V30 7525 H 715.129 -0.260155 -2.53368 0
M  V30 7526 H 715.912 -1.89948 -2.85963 0
M  V30 7527 N 718.357 1.51182 -0.445186 0
M  V30 7528 C 719.773 1.59299 -0.0978954 0
M  V30 7529 C 719.973 1.4555 1.39346 0
M  V30 7530 O 719.029 1.30073 2.16419 0
M  V30 7531 C 720.342 2.94133 -0.625005 0
M  V30 7532 C 721.89 3.07463 -0.586137 0
M  V30 7533 C 722.365 4.44832 -1.09035 0
M  V30 7534 N 723.856 4.51173 -1.04867 0
M  V30 7535 C 724.591 5.55804 -1.40959 0
M  V30 7536 N 724.087 6.67816 -1.84375 0
M  V30 7537 N 725.88 5.46205 -1.32726 0
M  V30 7538 H 718.031 1.58363 -1.41544 0
M  V30 7539 H 720.294 0.746946 -0.58376 0
M  V30 7540 H 720 3.09589 -1.66876 0
M  V30 7541 H 719.874 3.77161 -0.0542262 0
M  V30 7542 H 722.261 2.9167 0.448646 0
M  V30 7543 H 722.342 2.26255 -1.19341 0
M  V30 7544 H 721.986 4.61372 -2.12364 0
M  V30 7545 H 721.916 5.24591 -0.459539 0
M  V30 7546 H 724.407 3.70783 -0.729932 0
M  V30 7547 H 724.72 7.43683 -2.10131 0
M  V30 7548 H 723.065 6.69003 -1.88308 0
M  V30 7549 H 726.256 4.57583 -0.986678 0
M  V30 7550 H 726.429 6.27634 -1.61182 0
M  V30 7551 N 719.835 0.176821 1.56605 0
M  V30 7552 C 721.084 -0.466833 1.96223 0
M  V30 7553 C 721.397 -1.64015 1.06576 0
M  V30 7554 O 722.603 -2.3504 1.35898 0
M  V30 7555 C 721.059 -0.881921 3.48927 0
M  V30 7556 C 720.667 0.266102 4.47209 0
M  V30 7557 C 722.411 -1.49368 3.97353 0
M  V30 7558 C 720.318 -0.168923 5.91159 0
M  V30 7559 H 719.248 -0.178178 0.732645 0
M  V30 7560 H 721.899 0.265929 1.81563 0
M  V30 7561 H 720.281 -1.67082 3.59026 0
M  V30 7562 H 721.455 1.04349 4.4883 0
M  V30 7563 H 719.77 0.788178 4.08872 0
M  V30 7564 H 722.367 -1.8313 5.02362 0
M  V30 7565 H 722.71 -2.3936 3.40606 0
M  V30 7566 H 723.243 -0.769114 3.90294 0
M  V30 7567 H 719.982 0.696351 6.51791 0
M  V30 7568 H 719.502 -0.911552 5.92833 0
M  V30 7569 H 721.181 -0.610938 6.44109 0
M  V30 7570 N 721.313 -1.57302 -0.09688 0
M  V30 7571 C 722.276 -2.00976 -1.10188 0
M  V30 7572 C 723.276 -0.903009 -1.3305 0
M  V30 7573 O 724.466 -1.16853 -1.29194 0
M  V30 7574 C 721.598 -2.36893 -2.45142 0
M  V30 7575 H 722.791 -2.9098 -0.726003 0
M  V30 7576 H 720.344 -1.52515 -0.341872 0
M  V30 7577 H 721.079 -1.49837 -2.8761 0
M  V30 7578 H 720.864 -3.17632 -2.29897 0
M  V30 7579 H 722.354 -2.71345 -3.1743 0
M  V30 7580 N 722.791 0.367657 -1.53252 0
M  V30 7581 C 724.207 0.709191 -1.42978 0
M  V30 7582 C 724.407 1.93352 -0.567193 0
M  V30 7583 O 723.463 2.52453 -0.0488349 0
M  V30 7584 C 724.776 0.924338 -2.86141 0
M  V30 7585 C 726.324 1.02448 -2.95759 0
M  V30 7586 C 726.799 1.27211 -4.39979 0
M  V30 7587 N 728.29 1.33986 -4.43398 0
M  V30 7588 C 729.025 1.54852 -5.52095 0
M  V30 7589 N 728.521 1.73049 -6.7084 0
M  V30 7590 N 730.314 1.57205 -5.39669 0
M  V30 7591 H 722.465 -0.437669 -2.07842 0
M  V30 7592 H 724.728 -0.133737 -0.938519 0
M  V30 7593 H 724.434 0.0965455 -3.51567 0
M  V30 7594 H 724.308 1.83302 -3.29667 0
M  V30 7595 H 726.695 1.84282 -2.30487 0
M  V30 7596 H 726.776 0.0932301 -2.5563 0
M  V30 7597 H 726.42 0.458792 -5.05824 0
M  V30 7598 H 726.35 2.21654 -4.77679 0
M  V30 7599 H 728.841 1.21545 -3.5782 0
M  V30 7600 H 729.154 1.88538 -7.49449 0
M  V30 7601 H 727.499 1.70231 -6.7383 0
M  V30 7602 H 730.69 1.42555 -4.45865 0
M  V30 7603 H 730.863 1.73126 -6.24445 0
M  V30 7604 N 724.269 1.44576 0.627338 0
M  V30 7605 C 725.232 1.51372 1.72102 0
M  V30 7606 C 726.232 0.395329 1.55865 0
M  V30 7607 O 727.422 0.658094 1.61291 0
M  V30 7608 C 724.554 1.39129 3.11217 0
M  V30 7609 H 725.747 2.48798 1.6745 0
M  V30 7610 H 723.3 1.31724 0.841336 0
M  V30 7611 H 724.035 0.428114 3.21462 0
M  V30 7612 H 723.82 2.20229 3.24409 0
M  V30 7613 H 725.31 1.46874 3.90919 0
M  V30 7614 N 725.747 -0.868086 1.31537 0
M  V30 7615 C 726.68 -1.97871 1.13676 0
M  V30 7616 C 727.658 -1.62551 0.0397589 0
M  V30 7617 O 728.842 -1.87473 0.196539 0
M  V30 7618 C 725.969 -3.30577 0.73734 0
M  V30 7619 C 725.015 -3.8488 1.83765 0
M  V30 7620 S 725.848 -4.10106 3.44345 0
M  V30 7621 C 727.004 -5.45806 3.06344 0
M  V30 7622 H 727.237 -2.12719 2.07697 0
M  V30 7623 H 724.77 -1.01849 1.16044 0
M  V30 7624 H 726.728 -4.07274 0.513641 0
M  V30 7625 H 725.389 -3.13562 -0.183787 0
M  V30 7626 H 724.582 -4.80821 1.51085 0
M  V30 7627 H 724.184 -3.14981 2.01651 0
M  V30 7628 H 726.476 -6.27535 2.55354 0
M  V30 7629 H 727.419 -5.83437 4.01257 0
M  V30 7630 H 727.827 -5.0917 2.43734 0
M  V30 7631 N 727.225 -1.14528 -1.08264 0
M  V30 7632 C 728.135 -0.84728 -2.18765 0
M  V30 7633 C 729.151 0.172826 -1.7314 0
M  V30 7634 O 730.327 0.000985336 -2.014 0
M  V30 7635 C 727.392 -0.330633 -3.4512 0
M  V30 7636 C 726.453 -1.41348 -4.05363 0
M  V30 7637 C 725.686 -0.921387 -5.25686 0
M  V30 7638 O 725.909 0.236587 -5.69909 0
M  V30 7639 O 724.843 -1.70101 -5.77364 0
M  V30 7640 H 728.669 -1.7708 -2.46731 0
M  V30 7641 H 726.254 -0.923661 -1.17426 0
M  V30 7642 H 728.136 -0.0485053 -4.21372 0
M  V30 7643 H 726.811 0.565147 -3.18728 0
M  V30 7644 H 725.718 -1.74908 -3.30693 0
M  V30 7645 H 727.051 -2.28383 -4.36007 0
M  V30 7646 N 728.703 1.26451 -0.940633 0
M  V30 7647 C 729.651 2.28389 -0.440581 0
M  V30 7648 C 730.645 1.62402 0.481859 0
M  V30 7649 O 731.851 1.76361 0.360132 0
M  V30 7650 H 728.226 0.741716 -0.123938 0
M  V30 7651 H 730.197 2.67967 -1.31288 0
M  V30 7652 C 728.946 3.46576 0.279364 0
M  V30 7653 H 728.269 3.97574 -0.421274 0
M  V30 7654 H 729.709 4.19826 0.59348 0
M  V30 7655 C 728.168 3.01815 1.49697 0
M  V30 7656 O 728.698 3.06607 2.59529 0
M  V30 7657 N 726.904 2.57163 1.35334 0
M  V30 7658 H 726.451 2.53464 0.459743 0
M  V30 7659 H 726.409 2.27578 2.16923 0
M  V30 7660 N 730.181 0.707592 1.40822 0
M  V30 7661 C 731.091 0.0507246 2.34545 0
M  V30 7662 C 732.107 -0.752727 1.56876 0
M  V30 7663 O 733.283 -0.687524 1.89302 0
M  V30 7664 C 730.348 -0.865731 3.35717 0
M  V30 7665 C 729.409 -0.0531313 4.29267 0
M  V30 7666 C 728.642 -0.925939 5.25606 0
M  V30 7667 O 728.865 -2.16531 5.27703 0
M  V30 7668 O 727.799 -0.369194 6.00767 0
M  V30 7669 H 731.625 0.823587 2.9232 0
M  V30 7670 H 729.21 0.46801 1.4188 0
M  V30 7671 H 731.092 -1.39091 3.97783 0
M  V30 7672 H 729.767 -1.61788 2.80368 0
M  V30 7673 H 728.674 0.516931 3.70511 0
M  V30 7674 H 730.007 0.660617 4.87747 0
M  V30 7675 N 731.66 -1.50943 0.453197 0
M  V30 7676 C 732.57 -2.31884 -0.355963 0
M  V30 7677 C 733.586 -1.41481 -1.01287 0
M  V30 7678 O 734.762 -1.74546 -1.00477 0
M  V30 7679 C 731.827 -3.15668 -1.43369 0
M  V30 7680 C 730.888 -4.2187 -0.795253 0
M  V30 7681 C 730.121 -5.0165 -1.82162 0
M  V30 7682 O 730.344 -4.82266 -3.04592 0
M  V30 7683 O 729.278 -5.85311 -1.40336 0
M  V30 7684 H 733.104 -3.02162 0.305248 0
M  V30 7685 H 730.689 -1.47839 0.215398 0
M  V30 7686 H 732.571 -3.67709 -2.05836 0
M  V30 7687 H 731.246 -2.48137 -2.07869 0
M  V30 7688 H 730.153 -3.73867 -0.132106 0
M  V30 7689 H 731.486 -4.9182 -0.193484 0
M  V30 7690 N 733.138 -0.185124 -1.56509 0
M  V30 7691 C 734.368 0.461469 -2.0138 0
M  V30 7692 C 734.776 1.56417 -1.06445 0
M  V30 7693 O 734.119 1.83603 -0.0597515 0
M  V30 7694 C 734.181 1.08731 -3.42663 0
M  V30 7695 C 733.845 0.124581 -4.5683 0
M  V30 7696 C 734.842 -0.662295 -5.15664 0
M  V30 7697 C 732.527 0.0163947 -5.02297 0
M  V30 7698 C 734.521 -1.54442 -6.18406 0
M  V30 7699 C 732.208 -0.869301 -6.04885 0
M  V30 7700 C 733.206 -1.64828 -6.62813 0
M  V30 7701 O 732.894 -2.51915 -7.63409 0
M  V30 7702 H 732.626 0.1212 -0.665046 0
M  V30 7703 H 735.18 -0.288119 -2.03369 0
M  V30 7704 H 733.41 1.8853 -3.37629 0
M  V30 7705 H 735.099 1.63753 -3.71403 0
M  V30 7706 H 735.865 -0.588963 -4.81411 0
M  V30 7707 H 731.744 0.61253 -4.56913 0
M  V30 7708 H 735.288 -2.15289 -6.63548 0
M  V30 7709 H 731.185 -0.943786 -6.38563 0
M  V30 7710 H 731.953 -2.45584 -7.80789 0
M  V30 7711 N 734.616 1.57351 0.0885366 0
M  V30 7712 C 735.862 1.87564 0.786842 0
M  V30 7713 C 736.217 0.776774 1.76023 0
M  V30 7714 O 735.51 -0.220637 1.90325 0
M  V30 7715 C 735.704 3.22098 1.5488 0
M  V30 7716 C 735.533 4.44967 0.650706 0
M  V30 7717 C 734.303 5.04444 0.293957 0
M  V30 7718 C 736.501 5.1428 -0.0452187 0
M  V30 7719 N 734.483 6.10846 -0.611609 0
M  V30 7720 C 735.854 6.14704 -0.808603 0
M  V30 7721 C 737.909 4.97759 -0.118451 0
M  V30 7722 C 736.612 7.00392 -1.63839 0
M  V30 7723 C 738.638 5.8396 -0.935157 0
M  V30 7724 C 738 6.83909 -1.68664 0
M  V30 7725 H 734.099 0.73613 0.263887 0
M  V30 7726 H 736.683 1.94638 0.049074 0
M  V30 7727 H 734.854 3.16064 2.2574 0
M  V30 7728 H 736.586 3.40015 2.19481 0
M  V30 7729 H 733.341 4.69214 0.643086 0
M  V30 7730 H 733.765 6.68695 -1.05714 0
M  V30 7731 H 738.407 4.20418 0.448202 0
M  V30 7732 H 736.125 7.7712 -2.21608 0
M  V30 7733 H 739.711 5.73236 -0.994579 0
M  V30 7734 H 738.591 7.49454 -2.30842 0
M  V30 7735 N 736.094 -0.359525 1.53444 0
M  V30 7736 C 737.371 -1.11756 1.6053 0
M  V30 7737 C 737.751 -2.06949 0.416587 0
M  V30 7738 O 737.099 -2.20681 -0.592628 0
M  V30 7739 C 737.309 -1.85133 2.95849 0
M  V30 7740 C 738.657 -2.3945 3.50641 0
M  V30 7741 O 739.681 -1.95251 2.97918 0
M  V30 7742 O 738.54 -3.20266 4.42823 0
M  V30 7743 H 735.634 -0.513005 0.648656 0
M  V30 7744 H 738.18 -0.362301 1.65787 0
M  V30 7745 H 736.952 -1.15694 3.73806 0
M  V30 7746 H 736.575 -2.67554 2.9411 0
M  V30 7747 N 737.572 -1.44907 -0.619662 0
M  V30 7748 C 738.819 -1.48292 -1.37898 0
M  V30 7749 C 739.147 -0.119933 -1.9413 0
M  V30 7750 O 738.402 0.879834 -1.74807 0
M  V30 7751 C 738.701 -2.50002 -2.55409 0
M  V30 7752 C 738.367 -3.95031 -2.17397 0
M  V30 7753 C 737.029 -4.34524 -2.06743 0
M  V30 7754 C 739.381 -4.86287 -1.87548 0
M  V30 7755 C 736.709 -5.63183 -1.64445 0
M  V30 7756 C 739.061 -6.15346 -1.4674 0
M  V30 7757 C 737.725 -6.53781 -1.34636 0
M  V30 7758 H 736.995 -0.542638 -0.504603 0
M  V30 7759 H 739.642 -1.78186 -0.701581 0
M  V30 7760 H 737.947 -2.13634 -3.28433 0
M  V30 7761 H 739.644 -2.49864 -3.13639 0
M  V30 7762 H 736.234 -3.63793 -2.26611 0
M  V30 7763 H 740.418 -4.56522 -1.94682 0
M  V30 7764 H 735.674 -5.91769 -1.53687 0
M  V30 7765 H 739.848 -6.85508 -1.22685 0
M  V30 7766 H 737.475 -7.53375 -1.01634 0
M  V30 7767 N 739.05 0.861098 -1.31996 0
M  V30 7768 C 740.327 1.59788 -1.12814 0
M  V30 7769 C 740.707 2.08753 0.313882 0
M  V30 7770 O 740.055 1.87258 1.30946 0
M  V30 7771 C 740.265 2.74901 -2.15012 0
M  V30 7772 C 741.613 3.44643 -2.48004 0
M  V30 7773 O 742.637 2.85119 -2.13508 0
M  V30 7774 O 741.496 4.52044 -3.07113 0
M  V30 7775 H 738.59 0.703408 -0.434909 0
M  V30 7776 H 741.136 0.905788 -1.43505 0
M  V30 7777 H 739.908 2.36198 -3.11971 0
M  V30 7778 H 739.531 3.51792 -1.85279 0
M  V30 7779 N 740.528 1.15101 1.07655 0
M  V30 7780 C 741.777 0.918528 1.79572 0
M  V30 7781 C 742.09 -0.555922 1.87534 0
M  V30 7782 O 743.296 -0.905893 2.55941 0
M  V30 7783 C 741.752 1.59394 3.22679 0
M  V30 7784 C 741.36 3.1052 3.22927 0
M  V30 7785 C 743.104 1.44289 3.99225 0
M  V30 7786 C 741.011 3.70862 4.60668 0
M  V30 7787 H 739.941 0.340006 0.672987 0
M  V30 7788 H 742.592 1.38079 1.20857 0
M  V30 7789 H 740.974 1.05936 3.81567 0
M  V30 7790 H 742.148 3.70708 2.737 0
M  V30 7791 H 740.463 3.25351 2.59876 0
M  V30 7792 H 743.06 1.86766 5.01022 0
M  V30 7793 H 743.403 0.389975 4.14469 0
M  V30 7794 H 743.936 1.94826 3.46825 0
M  V30 7795 H 740.675 4.7604 4.50628 0
M  V30 7796 H 740.195 3.15456 5.10145 0
M  V30 7797 H 741.874 3.71607 5.29639 0
M  V30 7798 N 742.006 -1.2595 0.947325 0
M  V30 7799 C 743.253 -1.93463 0.598178 0
M  V30 7800 C 743.581 -1.74271 -0.863705 0
M  V30 7801 O 742.836 -1.07684 -1.63409 0
M  V30 7802 C 743.135 -3.46034 0.894158 0
M  V30 7803 C 742.801 -3.85373 2.3409 0
M  V30 7804 C 741.463 -3.95823 2.73637 0
M  V30 7805 C 743.815 -4.04986 3.2808 0
M  V30 7806 C 741.143 -4.23288 4.06257 0
M  V30 7807 C 743.495 -4.3394 4.60303 0
M  V30 7808 C 742.159 -4.42606 4.99656 0
M  V30 7809 H 741.429 -0.707933 0.218889 0
M  V30 7810 H 744.076 -1.4964 1.19499 0
M  V30 7811 H 742.381 -3.9121 0.214874 0
M  V30 7812 H 744.078 -3.96445 0.602698 0
M  V30 7813 H 740.668 -3.7779 2.02417 0
M  V30 7814 H 744.852 -3.96333 2.9872 0
M  V30 7815 H 740.108 -4.28211 4.36401 0
M  V30 7816 H 744.282 -4.48061 5.33118 0
M  V30 7817 H 741.909 -4.63641 6.02446 0
M  V30 7818 N 743.484 -0.715051 -1.40445 0
M  V30 7819 C 744.394 -0.0631624 -2.34515 0
M  V30 7820 C 745.41 0.744397 -1.57273 0
M  V30 7821 O 746.586 0.677475 -1.89663 0
M  V30 7822 C 743.651 0.847915 -3.36172 0
M  V30 7823 C 742.712 0.0303655 -4.29289 0
M  V30 7824 C 741.945 0.898051 -5.2609 0
M  V30 7825 O 742.168 2.13729 -5.28844 0
M  V30 7826 O 741.102 0.337328 -6.00954 0
M  V30 7827 H 744.928 -0.839078 -2.91879 0
M  V30 7828 H 742.513 -0.475527 -1.4163 0
M  V30 7829 H 744.395 1.3698 -3.98515 0
M  V30 7830 H 743.07 1.60299 -2.81222 0
M  V30 7831 H 741.977 -0.536573 -3.70232 0
M  V30 7832 H 743.31 -0.686474 -4.87389 0
M  V30 7833 N 744.962 1.50701 -0.461195 0
M  V30 7834 C 745.892 2.31182 0.328184 0
M  V30 7835 C 746.873 1.37644 0.999408 0
M  V30 7836 O 748.058 1.66565 0.99848 0
M  V30 7837 C 745.188 3.17113 1.41621 0
M  V30 7838 C 744.142 4.19124 0.867148 0
M  V30 7839 C 743.468 4.93728 2.05272 0
M  V30 7840 C 744.768 5.22174 -0.114808 0
M  V30 7841 H 746.462 2.97423 -0.343501 0
M  V30 7842 H 744.008 1.43033 -0.166641 0
M  V30 7843 H 745.961 3.72208 1.97584 0
M  V30 7844 H 744.685 2.48739 2.11652 0
M  V30 7845 H 743.344 3.65116 0.329557 0
M  V30 7846 H 742.992 4.21835 2.73978 0
M  V30 7847 H 742.692 5.62724 1.69161 0
M  V30 7848 H 744.216 5.51654 2.61744 0
M  V30 7849 H 745.63 5.72198 0.355316 0
M  V30 7850 H 744.027 5.98833 -0.389689 0
M  V30 7851 H 745.097 4.7353 -1.04391 0
M  V30 7852 N 746.441 0.193421 1.56409 0
M  V30 7853 C 747.351 -0.740112 2.2262 0
M  V30 7854 C 748.367 -1.23597 1.22474 0
M  V30 7855 O 749.543 -1.28348 1.55206 0
M  V30 7856 C 746.608 -1.94317 2.87127 0
M  V30 7857 C 745.669 -1.49205 4.02538 0
M  V30 7858 C 744.902 -2.63776 4.63959 0
M  V30 7859 O 745.125 -3.81215 4.24301 0
M  V30 7860 O 744.059 -2.36585 5.53454 0
M  V30 7861 H 747.885 -0.206238 3.02999 0
M  V30 7862 H 745.47 -0.0357938 1.49357 0
M  V30 7863 H 747.352 -2.64633 3.27944 0
M  V30 7864 H 746.027 -2.46568 2.09728 0
M  V30 7865 H 744.934 -0.757738 3.66346 0
M  V30 7866 H 746.267 -1.01622 4.81595 0
M  V30 7867 N 747.919 -1.57396 -0.0801906 0
M  V30 7868 C 748.882 -2.02133 -1.0805 0
M  V30 7869 C 749.882 -0.91707 -1.32085 0
M  V30 7870 O 751.072 -1.18217 -1.27947 0
M  V30 7871 C 748.204 -2.39479 -2.42616 0
M  V30 7872 H 749.397 -2.91733 -0.6951 0
M  V30 7873 H 746.95 -1.52869 -0.325677 0
M  V30 7874 H 747.685 -1.52879 -2.86004 0
M  V30 7875 H 747.47 -3.20052 -2.26515 0
M  V30 7876 H 748.96 -2.74697 -3.14534 0
M  V30 7877 N 749.397 0.351382 -1.53633 0
M  V30 7878 C 750.36 1.41403 -1.80383 0
M  V30 7879 C 751.36 1.45963 -0.674635 0
M  V30 7880 O 752.55 1.46476 -0.942895 0
M  V30 7881 C 749.682 2.80401 -1.93876 0
M  V30 7882 H 750.875 1.18951 -2.75301 0
M  V30 7883 H 748.428 0.58533 -1.44926 0
M  V30 7884 H 749.163 3.08147 -1.01074 0
M  V30 7885 H 748.948 2.78488 -2.7602 0
M  V30 7886 H 750.438 3.57329 -2.16116 0
M  V30 7887 N 750.875 1.45233 0.611969 0
M  V30 7888 C 752.103 1.52539 1.39784 0
M  V30 7889 C 752.518 0.156533 1.8815 0
M  V30 7890 O 751.875 -0.84112 1.61961 0
M  V30 7891 C 751.926 2.50614 2.60528 0
M  V30 7892 O 751.647 3.8218 2.14173 0
M  V30 7893 C 753.148 2.67574 3.53439 0
M  V30 7894 H 750.368 0.51674 0.428043 0
M  V30 7895 H 752.912 1.90379 0.746727 0
M  V30 7896 H 751.067 2.15858 3.2169 0
M  V30 7897 H 751.481 4.35305 2.92592 0
M  V30 7898 H 752.955 3.40184 4.34717 0
M  V30 7899 H 753.432 1.73458 4.03496 0
M  V30 7900 H 754.038 3.0331 2.98133 0
M  V30 7901 N 752.353 -0.854086 1.3245 0
M  V30 7902 C 753.303 -1.9508 1.18016 0
M  V30 7903 C 754.287 -1.60665 0.0869417 0
M  V30 7904 O 755.479 -1.74201 0.313505 0
M  V30 7905 C 752.608 -3.3113 0.905961 0
M  V30 7906 C 751.694 -3.71763 2.04091 0
M  V30 7907 N 752.085 -3.84218 3.28953 0
M  V30 7908 C 750.383 -4.01393 1.94421 0
M  V30 7909 C 751.084 -4.192 4.03294 0
M  V30 7910 N 750.06 -4.30749 3.31596 0
M  V30 7911 H 753.862 -2.02843 2.12678 0
M  V30 7912 H 751.376 -1.04588 1.24238 0
M  V30 7913 H 753.373 -4.09471 0.783508 0
M  V30 7914 H 752.033 -3.24684 -0.0322715 0
M  V30 7915 H 753.044 -3.68524 3.63883 0
M  V30 7916 H 749.721 -4.03246 1.08162 0
M  V30 7917 H 751.111 -4.36301 5.1097 0
M  V30 7918 N 753.831 -1.1567 -1.07043 0
M  V30 7919 C 754.779 -0.852204 -2.16426 0
M  V30 7920 C 755.773 0.175661 -1.68487 0
M  V30 7921 O 756.979 0.0303874 -1.79974 0
M  V30 7922 H 753.354 -0.257942 -0.706378 0
M  V30 7923 H 755.325 -1.78231 -2.39324 0
M  V30 7924 C 754.074 -0.361362 -3.45817 0
M  V30 7925 H 753.397 -1.14369 -3.83092 0
M  V30 7926 H 754.837 -0.186997 -4.23587 0
M  V30 7927 C 753.296 0.917703 -3.2416 0
M  V30 7928 O 753.826 1.98858 -3.49025 0
M  V30 7929 N 752.032 0.858456 -2.77631 0
M  V30 7930 H 751.579 -0.0131821 -2.57597 0
M  V30 7931 H 751.537 1.71478 -2.6352 0
M  V30 7932 N 755.309 1.25446 -0.953992 0
M  V30 7933 C 756.725 1.4539 -0.658316 0
M  V30 7934 C 756.925 1.85607 0.784356 0
M  V30 7935 O 755.981 1.98568 1.55972 0
M  V30 7936 C 757.294 2.52643 -1.6307 0
M  V30 7937 C 758.842 2.66484 -1.64181 0
M  V30 7938 C 759.317 3.76921 -2.60182 0
M  V30 7939 N 760.808 3.84331 -2.58542 0
M  V30 7940 C 761.543 4.69271 -3.29503 0
M  V30 7941 N 761.039 5.58503 -4.09934 0
M  V30 7942 N 762.832 4.6323 -3.18393 0
M  V30 7943 H 754.983 0.976337 -1.8863 0
M  V30 7944 H 757.246 0.490343 -0.811337 0
M  V30 7945 H 756.952 2.29949 -2.66114 0
M  V30 7946 H 756.826 3.50547 -1.39271 0
M  V30 7947 H 759.213 2.88545 -0.618552 0
M  V30 7948 H 759.294 1.68982 -1.92038 0
M  V30 7949 H 758.938 3.55612 -3.62633 0
M  V30 7950 H 758.868 4.73906 -2.29609 0
M  V30 7951 H 761.359 3.20544 -2.0015 0
M  V30 7952 H 761.672 6.20241 -4.61 0
M  V30 7953 H 760.017 5.58214 -4.14032 0
M  V30 7954 H 763.208 3.92527 -2.5503 0
M  V30 7955 H 763.381 5.29204 -3.73961 0
M  V30 7956 N 756.787 0.722489 1.40064 0
M  V30 7957 C 758.198 0.336507 1.83642 0
M  V30 7958 C 758.549 -1.13002 1.6039 0
M  V30 7959 O 757.674 -1.87036 1.08842 0
M  V30 7960 C 758.269 0.603985 3.33373 0
M  V30 7961 C 756.828 0.271637 3.75419 0
M  V30 7962 C 755.975 0.872898 2.63203 0
M  V30 7963 H 758.926 0.921108 1.29233 0
M  V30 7964 H 758.947 -0.128471 3.80283 0
M  V30 7965 H 758.459 1.67141 3.50265 0
M  V30 7966 H 756.56 -0.790455 3.64119 0
M  V30 7967 H 756.673 0.745457 4.73265 0
M  V30 7968 H 755.037 0.300431 2.52922 0
M  V30 7969 H 755.82 1.94473 2.82905 0
M  V30 7970 N 758.265 -1.50454 0.469181 0
M  V30 7971 C 759.195 -2.31353 -0.31592 0
M  V30 7972 C 760.176 -1.38172 -0.992094 0
M  V30 7973 O 761.361 -1.67093 -0.989633 0
M  V30 7974 C 758.491 -3.1786 -1.39937 0
M  V30 7975 C 757.445 -4.19578 -0.844909 0
M  V30 7976 C 756.771 -4.9481 -2.0265 0
M  V30 7977 C 758.071 -5.22106 0.142499 0
M  V30 7978 H 759.765 -2.97237 0.359269 0
M  V30 7979 H 757.311 -1.42942 0.174224 0
M  V30 7980 H 759.264 -3.7325 -1.95607 0
M  V30 7981 H 757.988 -2.49858 -2.1033 0
M  V30 7982 H 756.647 -3.65285 -0.310189 0
M  V30 7983 H 756.295 -4.23282 -2.71737 0
M  V30 7984 H 755.995 -5.63613 -1.66174 0
M  V30 7985 H 757.519 -5.53035 -2.58815 0
M  V30 7986 H 758.933 -5.72378 -0.324966 0
M  V30 7987 H 757.33 -5.98618 0.421441 0
M  V30 7988 H 758.4 -4.7297 1.06901 0
M  V30 7989 N 759.743 -0.201713 -1.56304 0
M  V30 7990 C 760.992 0.435557 -1.96941 0
M  V30 7991 C 761.305 1.62299 -1.09172 0
M  V30 7992 O 762.511 2.32849 -1.3962 0
M  V30 7993 C 760.967 0.826298 -3.50286 0
M  V30 7994 C 760.575 -0.337216 -4.46729 0
M  V30 7995 C 762.319 1.43028 -3.99679 0
M  V30 7996 C 760.226 0.0748539 -5.91353 0
M  V30 7997 H 759.156 0.1665 -0.735387 0
M  V30 7998 H 761.807 -0.294781 -1.81117 0
M  V30 7999 H 760.189 1.61349 -3.61639 0
M  V30 8000 H 761.363 -1.11476 -4.47113 0
M  V30 8001 H 759.678 -0.853126 -4.07567 0
M  V30 8002 H 762.275 1.75115 -5.05212 0
M  V30 8003 H 762.618 2.33911 -3.44371 0
M  V30 8004 H 763.151 0.706924 -3.91468 0
M  V30 8005 H 759.89 -0.799957 -6.506 0
M  V30 8006 H 759.41 0.817122 -5.94208 0
M  V30 8007 H 761.089 0.508389 -6.45 0
M  V30 8008 N 761.222 1.57436 0.0718424 0
M  V30 8009 C 762.452 1.91196 0.782795 0
M  V30 8010 C 762.86 0.795927 1.71644 0
M  V30 8011 O 762.203 -0.239604 1.82131 0
M  V30 8012 C 762.265 3.20421 1.63005 0
M  V30 8013 C 761.929 4.48724 0.865782 0
M  V30 8014 C 762.926 5.19571 0.185051 0
M  V30 8015 C 760.611 4.95345 0.832971 0
M  V30 8016 C 762.605 6.3529 -0.518264 0
M  V30 8017 C 760.292 6.1097 0.125884 0
M  V30 8018 C 761.29 6.80794 -0.548533 0
M  V30 8019 O 760.978 7.94213 -1.24423 0
M  V30 8020 H 760.71 0.636486 0.227731 0
M  V30 8021 H 763.264 2.05348 0.0464187 0
M  V30 8022 H 761.494 3.02478 2.40923 0
M  V30 8023 H 763.183 3.39831 2.21968 0
M  V30 8024 H 763.949 4.8458 0.201707 0
M  V30 8025 H 759.828 4.40871 1.34737 0
M  V30 8026 H 763.372 6.89725 -1.04523 0
M  V30 8027 H 759.269 6.45411 0.107155 0
M  V30 8028 H 760.037 8.10331 -1.1535 0
M  V30 8029 N 762.7 -0.34323 1.53817 0
M  V30 8030 C 763.63 -1.42709 1.84814 0
M  V30 8031 C 764.611 -1.5488 0.703297 0
M  V30 8032 O 765.796 -1.69082 0.955237 0
M  V30 8033 C 762.926 -2.79756 2.05801 0
M  V30 8034 C 761.88 -2.82392 3.21619 0
M  V30 8035 C 761.206 -4.22326 3.2794 0
M  V30 8036 C 762.506 -2.479 4.59721 0
M  V30 8037 H 764.2 -1.17018 2.75585 0
M  V30 8038 H 761.746 -0.561485 1.32602 0
M  V30 8039 H 763.699 -3.55627 2.26069 0
M  V30 8040 H 762.423 -3.06883 1.11761 0
M  V30 8041 H 761.082 -2.08974 3.01207 0
M  V30 8042 H 760.73 -4.46564 2.31494 0
M  V30 8043 H 760.43 -4.25001 4.05768 0
M  V30 8044 H 761.954 -5.00039 3.50419 0
M  V30 8045 H 763.368 -3.13484 4.80001 0
M  V30 8046 H 761.765 -2.61857 5.39954 0
M  V30 8047 H 762.835 -1.43087 4.63308 0
M  V30 8048 N 764.178 -1.45556 -0.604258 0
M  V30 8049 C 765.426 -1.4945 -1.36048 0
M  V30 8050 C 765.747 -0.138933 -1.94504 0
M  V30 8051 O 765.017 0.832097 -1.7735 0
M  V30 8052 H 763.597 -0.550381 -0.505064 0
M  V30 8053 H 766.259 -1.81535 -0.709308 0
M  V30 8054 H 765.355 -2.23519 -2.17821 0
M  V30 8055 N 765.656 0.84705 -1.32902 0
M  V30 8056 C 766.586 1.97166 -1.25091 0
M  V30 8057 C 767.567 1.69578 -0.133161 0
M  V30 8058 O 768.752 1.91519 -0.321591 0
M  V30 8059 C 765.882 3.33157 -0.981006 0
M  V30 8060 C 764.836 3.75119 -2.06082 0
M  V30 8061 C 764.162 5.08826 -1.64318 0
M  V30 8062 C 765.462 3.89774 -3.47669 0
M  V30 8063 H 767.156 2.03958 -2.19184 0
M  V30 8064 H 764.702 0.979907 -1.05517 0
M  V30 8065 H 766.655 4.11393 -0.912891 0
M  V30 8066 H 765.379 3.266 -0.00445559 0
M  V30 8067 H 764.038 2.9914 -2.11921 0
M  V30 8068 H 763.686 4.98732 -0.653876 0
M  V30 8069 H 763.386 5.37873 -2.36572 0
M  V30 8070 H 764.91 5.89546 -1.58958 0
M  V30 8071 H 766.324 4.58343 -3.44376 0
M  V30 8072 H 764.721 4.30248 -4.18338 0
M  V30 8073 H 765.791 2.92463 -3.86773 0
M  V30 8074 N 767.134 1.16236 1.06428 0
M  V30 8075 C 768.081 0.86769 2.13869 0
M  V30 8076 C 769.051 -0.183298 1.65086 0
M  V30 8077 O 770.236 -0.0488002 1.90738 0
M  V30 8078 C 767.376 0.373427 3.43074 0
M  V30 8079 C 766.489 1.48708 4.05598 0
M  V30 8080 C 765.624 0.947977 5.22673 0
M  V30 8081 C 764.663 2.03793 5.77178 0
M  V30 8082 N 763.8 1.51451 6.85571 0
M  V30 8083 H 768.64 1.78781 2.38414 0
M  V30 8084 H 766.177 0.891892 1.16977 0
M  V30 8085 H 768.135 0.0685035 4.17144 0
M  V30 8086 H 766.765 -0.509752 3.1875 0
M  V30 8087 H 765.817 1.908 3.29089 0
M  V30 8088 H 767.129 2.30964 4.42105 0
M  V30 8089 H 766.283 0.596154 6.03764 0
M  V30 8090 H 765.022 0.0947081 4.87608 0
M  V30 8091 H 764.027 2.39847 4.94726 0
M  V30 8092 H 765.252 2.89514 6.14295 0
M  V30 8093 H 763.198 0.683755 6.52427 0
M  V30 8094 H 763.115 2.27325 7.21013 0
M  V30 8095 H 764.383 1.19123 7.70344 0
M  V30 8096 N 768.612 -1.24939 0.960631 0
M  V30 8097 C 769.545 -2.24116 0.429804 0
M  V30 8098 C 770.523 -1.54972 -0.492188 0
M  V30 8099 O 771.707 -1.83642 -0.42519 0
M  V30 8100 C 768.834 -3.36558 -0.380312 0
M  V30 8101 C 767.88 -4.23757 0.482941 0
M  V30 8102 S 768.713 -4.9994 1.91885 0
M  V30 8103 C 769.869 -6.15846 1.11732 0
M  V30 8104 H 770.102 -2.68795 1.27029 0
M  V30 8105 H 767.635 -1.34108 0.765141 0
M  V30 8106 H 769.593 -4.01777 -0.841764 0
M  V30 8107 H 768.254 -2.90451 -1.19569 0
M  V30 8108 H 767.447 -5.03809 -0.138699 0
M  V30 8109 H 767.049 -3.63504 0.879839 0
M  V30 8110 H 769.341 -6.76495 0.368898 0
M  V30 8111 H 770.284 -6.82356 1.89198 0
M  V30 8112 H 770.692 -5.60805 0.644812 0
M  V30 8113 N 770.09 -0.729906 -1.39679 0
M  V30 8114 C 771.337 -0.275622 -2.00615 0
M  V30 8115 C 771.665 1.13559 -1.57907 0
M  V30 8116 O 770.92 1.78745 -0.796789 0
M  V30 8117 C 771.219 -0.319564 -3.55968 0
M  V30 8118 C 770.885 -1.68308 -4.1831 0
M  V30 8119 C 769.547 -2.05629 -4.35052 0
M  V30 8120 C 771.899 -2.57857 -4.52945 0
M  V30 8121 C 769.227 -3.32018 -4.83716 0
M  V30 8122 C 771.579 -3.83613 -5.03015 0
M  V30 8123 C 770.243 -4.21033 -5.17965 0
M  V30 8124 H 769.513 -0.100857 -0.734104 0
M  V30 8125 H 772.16 -0.93575 -1.67081 0
M  V30 8126 H 770.465 0.42414 -3.89497 0
M  V30 8127 H 772.162 0.0499905 -4.00969 0
M  V30 8128 H 768.752 -1.3829 -4.05677 0
M  V30 8129 H 772.936 -2.30295 -4.39634 0
M  V30 8130 H 768.192 -3.6096 -4.93475 0
M  V30 8131 H 772.366 -4.53162 -5.28788 0
M  V30 8132 H 769.993 -5.19034 -5.55435 0
M  V30 8133 N 771.568 1.50203 -0.477153 0
M  V30 8134 C 772.531 2.27194 0.302599 0
M  V30 8135 C 773.531 1.32221 0.915112 0
M  V30 8136 O 774.721 1.55593 0.783348 0
M  V30 8137 C 771.853 3.0938 1.43167 0
M  V30 8138 H 773.046 2.97575 -0.372678 0
M  V30 8139 H 770.599 1.54578 -0.231392 0
M  V30 8140 H 771.334 2.43509 2.14182 0
M  V30 8141 H 771.119 3.79181 0.998197 0
M  V30 8142 H 772.609 3.67592 1.98157 0
M  V30 8143 N 773.046 0.209999 1.56195 0
M  V30 8144 C 774.462 -0.145598 1.58934 0
M  V30 8145 C 774.662 -1.59868 1.22656 0
M  V30 8146 O 773.718 -2.33689 0.956336 0
M  V30 8147 C 775.031 0.170243 3.00218 0
M  V30 8148 C 776.579 0.111548 3.12801 0
M  V30 8149 C 777.054 0.400904 4.56242 0
M  V30 8150 N 778.545 0.350058 4.61875 0
M  V30 8151 C 779.28 0.547598 5.70779 0
M  V30 8152 N 778.776 0.806291 6.88092 0
M  V30 8153 N 780.569 0.480827 5.6004 0
M  V30 8154 H 772.72 1.15804 1.78054 0
M  V30 8155 H 774.983 0.463326 0.827063 0
M  V30 8156 H 774.689 1.17833 3.31373 0
M  V30 8157 H 774.563 -0.520208 3.73596 0
M  V30 8158 H 776.95 -0.887162 2.81449 0
M  V30 8159 H 777.031 0.835302 2.41777 0
M  V30 8160 H 776.675 1.397 4.8831 0
M  V30 8161 H 776.605 -0.34391 5.25476 0
M  V30 8162 H 779.096 0.157334 3.77572 0
M  V30 8163 H 779.409 0.945433 7.66995 0
M  V30 8164 H 777.754 0.843355 6.89864 0
M  V30 8165 H 780.945 0.279037 4.67268 0
M  V30 8166 H 781.118 0.638189 6.4485 0
M  V30 8167 N 774.524 -1.57472 -0.0634922 0
M  V30 8168 C 775.771 -1.87654 -0.761066 0
M  V30 8169 C 776.099 -0.802847 -1.77157 0
M  V30 8170 O 775.354 0.200244 -1.94673 0
M  V30 8171 C 775.653 -3.24521 -1.49736 0
M  V30 8172 C 775.319 -4.46532 -0.626065 0
M  V30 8173 C 773.981 -4.7965 -0.385978 0
M  V30 8174 C 776.333 -5.21195 -0.0224001 0
M  V30 8175 C 773.661 -5.84837 0.467118 0
M  V30 8176 C 776.013 -6.27286 0.818198 0
M  V30 8177 C 774.677 -6.58899 1.06808 0
M  V30 8178 H 773.947 -0.686675 -0.278494 0
M  V30 8179 H 776.594 -1.91488 -0.0216348 0
M  V30 8180 H 774.899 -3.16516 -2.30921 0
M  V30 8181 H 776.596 -3.45111 -2.04204 0
M  V30 8182 H 773.186 -4.20618 -0.823325 0
M  V30 8183 H 777.37 -4.95917 -0.194985 0
M  V30 8184 H 772.626 -6.07725 0.669375 0
M  V30 8185 H 776.8 -6.84298 1.29265 0
M  V30 8186 H 774.427 -7.40233 1.73088 0
M  V30 8187 N 776.003 0.335068 -1.53997 0
M  V30 8188 C 777.251 1.07223 -1.71312 0
M  V30 8189 C 777.572 1.88911 -0.483486 0
M  V30 8190 O 776.842 1.89344 0.50257 0
M  V30 8191 H 775.422 0.398846 -0.63161 0
M  V30 8192 H 778.084 0.374288 -1.91272 0
M  V30 8193 H 777.18 1.7448 -2.58772 0
M  V30 8194 N 777.481 1.45874 0.596531 0
M  V30 8195 C 778.73 1.49737 1.35135 0
M  V30 8196 C 779.043 0.147755 1.95041 0
M  V30 8197 O 780.249 0.0640984 2.71424 0
M  V30 8198 C 778.705 2.6378 2.44843 0
M  V30 8199 C 778.313 4.05102 1.91301 0
M  V30 8200 C 780.057 2.769 3.21755 0
M  V30 8201 C 777.964 5.10508 2.98557 0
M  V30 8202 H 776.894 0.557219 0.507959 0
M  V30 8203 H 779.545 1.72046 0.638147 0
M  V30 8204 H 777.927 2.34774 3.189 0
M  V30 8205 H 779.101 4.43836 1.2388 0
M  V30 8206 H 777.416 3.96528 1.271 0
M  V30 8207 H 780.013 3.52819 4.01775 0
M  V30 8208 H 780.356 1.83924 3.73467 0
M  V30 8209 H 780.889 3.05485 2.54802 0
M  V30 8210 H 777.628 6.0523 2.51749 0
M  V30 8211 H 777.148 4.76332 3.6451 0
M  V30 8212 H 778.827 5.35745 3.62748 0
M  V30 8213 N 778.959 -0.83999 1.33349 0
M  V30 8214 C 780.199 -1.60888 1.26073 0
M  V30 8215 C 780.563 -1.91234 -0.17129 0
M  V30 8216 O 781.764 -2.66269 -0.36799 0
M  V30 8217 C 780.035 -2.88438 2.11042 0
M  V30 8218 S 781.594 -3.79116 2.20944 0
M  V30 8219 H 778.412 -0.55166 0.448545 0
M  V30 8220 H 781.014 -0.99359 1.68369 0
M  V30 8221 H 779.718 -2.64113 3.14121 0
M  V30 8222 H 779.249 -3.54974 1.69579 0
M  V30 8223 H 781.264 -4.76921 1.36969 0
M  V30 8224 N 780.437 -1.16799 -1.0581 0
M  V30 8225 C 781.347 -0.893492 -2.16919 0
M  V30 8226 C 782.363 0.136061 -1.73467 0
M  V30 8227 O 783.539 -0.0417348 -2.01357 0
M  V30 8228 C 780.604 -0.403763 -3.44341 0
M  V30 8229 C 779.665 -1.49914 -4.02274 0
M  V30 8230 C 778.898 -1.03269 -5.23614 0
M  V30 8231 O 779.121 0.115647 -5.70283 0
M  V30 8232 O 778.055 -1.8231 -5.73626 0
M  V30 8233 H 781.881 -1.82274 -2.42919 0
M  V30 8234 H 779.466 -0.948361 -1.1544 0
M  V30 8235 H 781.348 -0.137874 -4.21174 0
M  V30 8236 H 780.023 0.497413 -3.19855 0
M  V30 8237 H 778.93 -1.81883 -3.26909 0
M  V30 8238 H 780.263 -2.3758 -4.31064 0
M  V30 8239 N 781.915 1.24427 -0.967243 0
M  V30 8240 C 783.162 1.92487 -0.62888 0
M  V30 8241 C 783.49 1.75623 0.835871 0
M  V30 8242 O 782.745 1.1027 1.61675 0
M  V30 8243 C 783.044 3.44568 -0.949096 0
M  V30 8244 C 782.71 3.816 -2.40192 0
M  V30 8245 C 781.372 3.9142 -2.799 0
M  V30 8246 C 783.724 3.99715 -3.34481 0
M  V30 8247 C 781.052 4.16771 -4.12939 0
M  V30 8248 C 783.404 4.26562 -4.67148 0
M  V30 8249 C 782.068 4.34601 -5.06634 0
M  V30 8250 H 781.338 0.704361 -0.230124 0
M  V30 8251 H 783.985 1.4772 -1.21864 0
M  V30 8252 H 782.29 3.90819 -0.277085 0
M  V30 8253 H 783.987 3.95436 -0.665692 0
M  V30 8254 H 780.577 3.74522 -2.08402 0
M  V30 8255 H 784.761 3.91531 -3.04987 0
M  V30 8256 H 780.017 4.21214 -4.43158 0
M  V30 8257 H 784.191 4.39523 -5.40178 0
M  V30 8258 H 781.818 4.53998 -6.09746 0
M  V30 8259 N 783.393 0.737304 1.3929 0
M  V30 8260 C 784.323 0.113988 2.33222 0
M  V30 8261 C 785.304 -0.721695 1.54031 0
M  V30 8262 O 786.489 -0.666206 1.82415 0
M  V30 8263 C 783.619 -0.792319 3.38141 0
M  V30 8264 C 782.573 -0.0606178 4.27957 0
M  V30 8265 C 781.899 -1.08409 5.23595 0
M  V30 8266 C 783.199 1.09817 5.10625 0
M  V30 8267 H 784.893 0.898611 2.85596 0
M  V30 8268 H 782.439 0.433571 1.37318 0
M  V30 8269 H 784.392 -1.23793 4.02807 0
M  V30 8270 H 783.116 -1.60908 2.84211 0
M  V30 8271 H 781.775 0.365393 3.64775 0
M  V30 8272 H 781.423 -1.89449 4.6596 0
M  V30 8273 H 781.123 -0.599269 5.84536 0
M  V30 8274 H 782.647 -1.52936 5.91137 0
M  V30 8275 H 784.061 0.730892 5.68622 0
M  V30 8276 H 782.458 1.51278 5.80719 0
M  V30 8277 H 783.528 1.91878 4.45321 0
M  V30 8278 N 784.871 -1.49948 0.485112 0
M  V30 8279 C 785.821 -2.25734 -0.320658 0
M  V30 8280 C 786.805 -1.29907 -0.949373 0
M  V30 8281 O 787.997 -1.54725 -0.859601 0
M  V30 8282 C 785.126 -3.13728 -1.39391 0
M  V30 8283 C 784.212 -4.1701 -0.772225 0
M  V30 8284 N 784.603 -5.05667 0.115782 0
M  V30 8285 C 782.901 -4.33834 -1.03461 0
M  V30 8286 C 783.602 -5.79798 0.47004 0
M  V30 8287 N 782.578 -5.4337 -0.158204 0
M  V30 8288 H 786.38 -2.91647 0.36319 0
M  V30 8289 H 783.894 -1.59602 0.300154 0
M  V30 8290 H 785.891 -3.66639 -1.98447 0
M  V30 8291 H 784.551 -2.49365 -2.0796 0
M  V30 8292 H 785.562 -5.15619 0.485557 0
M  V30 8293 H 782.239 -3.80684 -1.71424 0
M  V30 8294 H 783.629 -6.61177 1.19558 0
M  V30 8295 N 786.349 -0.21828 -1.56081 0
M  V30 8296 C 787.589 0.416193 -2.00118 0
M  V30 8297 C 787.953 1.5718 -1.10265 0
M  V30 8298 O 789.154 2.27206 -1.43635 0
M  V30 8299 C 787.425 0.842781 -3.47321 0
M  V30 8300 S 788.984 1.47182 -4.1338 0
M  V30 8301 H 785.802 0.132219 -0.698598 0
M  V30 8302 H 788.404 -0.326799 -1.92749 0
M  V30 8303 H 787.108 -0.00799925 -4.10399 0
M  V30 8304 H 786.639 1.61867 -3.58556 0
M  V30 8305 H 788.654 2.76087 -4.12299 0
M  V30 8306 N 787.827 1.57504 0.0551401 0
M  V30 8307 C 789.052 1.92682 0.767352 0
M  V30 8308 C 789.477 0.81614 1.69472 0
M  V30 8309 O 788.835 -0.229989 1.79835 0
M  V30 8310 C 788.883 3.26866 1.52286 0
M  V30 8311 O 787.987 3.17274 2.63459 0
M  V30 8312 H 787.328 0.630502 0.208238 0
M  V30 8313 H 789.858 2.04592 0.0184026 0
M  V30 8314 H 789.868 3.61138 1.8985 0
M  V30 8315 H 788.543 4.07276 0.842541 0
M  V30 8316 H 787.12 2.94589 2.2863 0
M  V30 8317 N 789.305 -0.326896 1.54172 0
M  V30 8318 C 790.215 -1.42525 1.86343 0
M  V30 8319 C 791.231 -1.56764 0.75505 0
M  V30 8320 O 792.407 -1.71924 1.04901 0
M  V30 8321 C 789.472 -2.77286 2.08119 0
M  V30 8322 C 788.533 -2.7225 3.31931 0
M  V30 8323 C 787.766 -4.00584 3.52659 0
M  V30 8324 O 787.989 -4.98686 2.76891 0
M  V30 8325 O 786.923 -4.04045 4.46129 0
M  V30 8326 H 790.749 -1.18249 2.79734 0
M  V30 8327 H 788.334 -0.520614 1.40036 0
M  V30 8328 H 790.216 -3.57065 2.23791 0
M  V30 8329 H 788.891 -3.01459 1.17917 0
M  V30 8330 H 787.798 -1.91033 3.21647 0
M  V30 8331 H 789.131 -2.53032 4.2218 0
M  V30 8332 N 790.784 -1.46188 -0.588786 0
M  V30 8333 C 792.009 -1.5498 -1.37826 0
M  V30 8334 C 792.434 -0.189498 -1.87143 0
M  V30 8335 O 791.792 0.829293 -1.61222 0
M  V30 8336 C 791.84 -2.55369 -2.54596 0
M  V30 8337 O 790.944 -2.08452 -3.55839 0
M  V30 8338 H 790.285 -0.521741 -0.41071 0
M  V30 8339 H 792.815 -1.91708 -0.714779 0
M  V30 8340 H 792.825 -2.74782 -3.01594 0
M  V30 8341 H 791.5 -3.54155 -2.18052 0
M  V30 8342 H 790.077 -1.98999 -3.15363 0
M  V30 8343 N 792.262 0.832906 -1.33792 0
M  V30 8344 C 793.49 1.62048 -1.28639 0
M  V30 8345 C 793.905 1.88269 0.141522 0
M  V30 8346 O 793.262 1.46706 1.08553 0
M  V30 8347 C 793.313 2.96722 -2.0649 0
M  V30 8348 O 793.034 2.7165 -3.43712 0
M  V30 8349 C 794.535 3.91144 -2.08617 0
M  V30 8350 H 791.755 0.504032 -0.442937 0
M  V30 8351 H 794.299 1.03704 -1.76255 0
M  V30 8352 H 792.454 3.51652 -1.62541 0
M  V30 8353 H 792.868 3.57453 -3.83833 0
M  V30 8354 H 794.342 4.82837 -2.67531 0
M  V30 8355 H 794.819 4.25766 -1.07796 0
M  V30 8356 H 795.425 3.42152 -2.52611 0
M  V30 8357 N 793.74 1.17359 1.05189 0
M  V30 8358 C 794.67 0.91365 2.14883 0
M  V30 8359 C 795.651 -0.144365 1.69486 0
M  V30 8360 O 796.836 0.00587861 1.94199 0
M  V30 8361 C 793.966 0.426196 3.44675 0
M  V30 8362 C 792.92 1.4234 4.03638 0
M  V30 8363 C 792.246 0.793902 5.28773 0
M  V30 8364 C 793.546 2.7966 4.41121 0
M  V30 8365 H 795.24 1.831 2.36885 0
M  V30 8366 H 792.786 0.881781 1.13845 0
M  V30 8367 H 794.739 0.231767 4.20762 0
M  V30 8368 H 793.463 -0.526693 3.22325 0
M  V30 8369 H 792.122 1.60457 3.2962 0
M  V30 8370 H 791.77 -0.165824 5.02727 0
M  V30 8371 H 791.47 1.45959 5.69183 0
M  V30 8372 H 792.994 0.609747 6.07548 0
M  V30 8373 H 794.408 2.6526 5.08242 0
M  V30 8374 H 792.805 3.42807 4.92548 0
M  V30 8375 H 793.875 3.34068 3.51464 0
M  V30 8376 N 795.218 -1.23913 0.973828 0
M  V30 8377 C 796.634 -1.44325 0.681363 0
M  V30 8378 C 796.834 -1.86832 -0.754728 0
M  V30 8379 O 795.89 -2.01024 -1.52793 0
M  V30 8380 C 797.203 -2.50017 1.67069 0
M  V30 8381 C 798.751 -2.63838 1.68399 0
M  V30 8382 C 799.226 -3.72734 2.66145 0
M  V30 8383 N 800.717 -3.80169 2.64624 0
M  V30 8384 C 801.452 -4.6397 3.36927 0
M  V30 8385 N 800.948 -5.51911 4.18767 0
M  V30 8386 N 802.741 -4.58106 3.25722 0
M  V30 8387 H 794.892 -0.946204 1.9016 0
M  V30 8388 H 797.155 -0.477374 0.819035 0
M  V30 8389 H 796.861 -2.25686 2.69738 0
M  V30 8390 H 796.735 -3.48287 1.4483 0
M  V30 8391 H 799.122 -2.87524 0.664379 0
M  V30 8392 H 799.203 -1.65906 1.94702 0
M  V30 8393 H 798.847 -3.49797 3.68245 0
M  V30 8394 H 798.777 -4.70193 2.3712 0
M  V30 8395 H 801.268 -3.17319 2.05224 0
M  V30 8396 H 801.581 -6.12828 4.70809 0
M  V30 8397 H 799.926 -5.51556 4.2286 0
M  V30 8398 H 803.117 -3.8842 2.61242 0
M  V30 8399 H 803.29 -5.23188 3.82333 0
M  V30 8400 N 796.696 -0.74468 -1.38897 0
M  V30 8401 C 797.921 -0.306119 -2.05128 0
M  V30 8402 C 798.346 1.0541 -1.55789 0
M  V30 8403 O 797.704 1.66993 -0.705909 0
M  V30 8404 C 797.752 -0.328195 -3.59103 0
M  V30 8405 O 796.856 0.680876 -4.06741 0
M  V30 8406 H 796.197 -0.137209 -0.649669 0
M  V30 8407 H 798.727 -1.01331 -1.77745 0
M  V30 8408 H 798.737 -0.175956 -4.0762 0
M  V30 8409 H 797.412 -1.32067 -3.94374 0
M  V30 8410 H 795.989 0.49398 -3.69614 0
M  V30 8411 N 798.174 1.49689 -0.493057 0
M  V30 8412 C 799.42 2.03347 0.0463792 0
M  V30 8413 C 799.775 1.36671 1.35421 0
M  V30 8414 O 799.068 0.4907 1.8521 0
M  V30 8415 C 799.262 3.56427 0.263536 0
M  V30 8416 C 799.091 4.3794 -1.02169 0
M  V30 8417 C 797.861 4.8025 -1.57125 0
M  V30 8418 C 800.059 4.77 -1.9229 0
M  V30 8419 N 798.041 5.46162 -2.80321 0
M  V30 8420 C 799.412 5.42549 -3.00067 0
M  V30 8421 C 801.467 4.58945 -1.93064 0
M  V30 8422 C 800.17 5.91954 -4.08635 0
M  V30 8423 C 802.196 5.09306 -3.00602 0
M  V30 8424 C 801.558 5.74849 -4.07097 0
M  V30 8425 H 797.657 0.781644 -0.0236097 0
M  V30 8426 H 800.241 1.82949 -0.666151 0
M  V30 8427 H 798.412 3.76725 0.945118 0
M  V30 8428 H 800.144 3.96729 0.79927 0
M  V30 8429 H 796.899 4.60228 -1.11746 0
M  V30 8430 H 797.323 5.83711 -3.42944 0
M  V30 8431 H 801.965 4.07685 -1.12039 0
M  V30 8432 H 799.683 6.4224 -4.90463 0
M  V30 8433 H 803.269 4.97152 -3.0221 0
M  V30 8434 H 802.149 6.13113 -4.88939 0
M  V30 8435 N 799.652 0.226554 1.55963 0
M  V30 8436 C 800.582 -0.676079 2.23498 0
M  V30 8437 C 801.563 -1.19718 1.20837 0
M  V30 8438 O 802.748 -1.24027 1.49436 0
M  V30 8439 C 799.878 -1.88217 2.91876 0
M  V30 8440 C 798.832 -1.4947 4.01052 0
M  V30 8441 C 798.158 -2.77997 4.56751 0
M  V30 8442 C 799.458 -0.680951 5.17842 0
M  V30 8443 H 801.152 -0.112989 2.99187 0
M  V30 8444 H 798.698 -0.0529046 1.43903 0
M  V30 8445 H 800.651 -2.51911 3.37815 0
M  V30 8446 H 799.375 -2.47031 2.13643 0
M  V30 8447 H 798.034 -0.881199 3.55852 0
M  V30 8448 H 797.682 -3.34966 3.75243 0
M  V30 8449 H 797.382 -2.52803 5.30438 0
M  V30 8450 H 798.906 -3.42625 5.05411 0
M  V30 8451 H 800.32 -1.22171 5.60131 0
M  V30 8452 H 798.717 -0.525898 5.97791 0
M  V30 8453 H 799.787 0.311346 4.83899 0
M  V30 8454 N 801.13 -1.57531 -0.0467866 0
M  V30 8455 C 802.062 -2.02156 -1.08007 0
M  V30 8456 C 803.075 -0.931434 -1.33522 0
M  V30 8457 O 804.264 -1.209 -1.31321 0
M  V30 8458 C 801.364 -2.36675 -2.42566 0
M  V30 8459 C 800.537 -3.67848 -2.36658 0
M  V30 8460 C 799.596 -3.89754 -3.53523 0
M  V30 8461 O 798.622 -4.61036 -3.33818 0
M  V30 8462 N 799.824 -3.34025 -4.74771 0
M  V30 8463 H 802.589 -2.91414 -0.699845 0
M  V30 8464 H 800.15 -1.60185 -0.235041 0
M  V30 8465 H 802.142 -2.48482 -3.19435 0
M  V30 8466 H 800.712 -1.53178 -2.72498 0
M  V30 8467 H 799.932 -3.66561 -1.45005 0
M  V30 8468 H 801.22 -4.53931 -2.29835 0
M  V30 8469 H 800.618 -2.76214 -4.93683 0
M  V30 8470 H 799.175 -3.51241 -5.49066 0
M  V30 8471 N 802.608 0.318715 -1.54344 0
M  V30 8472 C 803.857 1.05363 -1.71993 0
M  V30 8473 C 804.17 1.89018 -0.503155 0
M  V30 8474 O 805.376 2.65639 -0.561085 0
M  V30 8475 C 803.832 1.92281 -3.0423 0
M  V30 8476 C 803.44 1.13715 -4.33328 0
M  V30 8477 C 805.184 2.65479 -3.31242 0
M  V30 8478 C 803.091 1.99806 -5.56625 0
M  V30 8479 H 802.021 0.397081 -0.64097 0
M  V30 8480 H 804.672 0.311598 -1.80835 0
M  V30 8481 H 803.054 2.70402 -2.89307 0
M  V30 8482 H 804.228 0.403305 -4.59032 0
M  V30 8483 H 802.543 0.521769 -4.13118 0
M  V30 8484 H 805.14 3.30209 -4.20555 0
M  V30 8485 H 805.483 3.33374 -2.49334 0
M  V30 8486 H 806.016 1.94417 -3.47054 0
M  V30 8487 H 802.755 1.36411 -6.41149 0
M  V30 8488 H 802.275 2.70911 -5.35133 0
M  V30 8489 H 803.954 2.58277 -5.93213 0
M  V30 8490 N 804.086 1.46499 0.581025 0
M  V30 8491 C 805.335 1.51162 1.3354 0
M  V30 8492 C 805.648 0.168433 1.94873 0
M  V30 8493 O 806.854 0.092883 2.71341 0
M  V30 8494 C 805.31 2.66362 2.42032 0
M  V30 8495 C 804.918 4.07109 1.86994 0
M  V30 8496 C 806.662 2.80297 3.188 0
M  V30 8497 C 804.569 5.13645 2.93125 0
M  V30 8498 H 803.499 0.562576 0.502021 0
M  V30 8499 H 806.15 1.72713 0.619863 0
M  V30 8500 H 804.532 2.38143 3.16392 0
M  V30 8501 H 805.706 4.45125 1.19166 0
M  V30 8502 H 804.021 3.97854 1.22887 0
M  V30 8503 H 806.618 3.5706 3.9801 0
M  V30 8504 H 806.961 1.87875 3.71495 0
M  V30 8505 H 807.494 3.0817 2.51547 0
M  V30 8506 H 804.233 6.07866 2.45315 0
M  V30 8507 H 803.753 4.80172 3.59437 0
M  V30 8508 H 805.432 5.39562 3.57046 0
M  V30 8509 N 805.565 -0.825799 1.34232 0
M  V30 8510 C 806.475 -1.9684 1.27638 0
M  V30 8511 C 807.491 -1.73018 0.184569 0
M  V30 8512 O 808.667 -1.97172 0.410525 0
M  V30 8513 C 805.732 -3.31084 1.02879 0
M  V30 8514 C 804.793 -3.67933 2.21188 0
M  V30 8515 C 804.026 -4.95772 1.976 0
M  V30 8516 O 804.249 -5.62721 0.93281 0
M  V30 8517 O 803.183 -5.30431 2.84477 0
M  V30 8518 H 807.009 -2.05346 2.23756 0
M  V30 8519 H 804.594 -0.960772 1.1441 0
M  V30 8520 H 806.476 -4.11492 0.908406 0
M  V30 8521 H 805.151 -3.23552 0.0979821 0
M  V30 8522 H 804.058 -2.87981 2.38784 0
M  V30 8523 H 805.391 -3.80147 3.12648 0
M  V30 8524 N 807.043 -1.17915 -1.04565 0
M  V30 8525 C 808.006 -0.903787 -2.10628 0
M  V30 8526 C 809.006 0.10873 -1.60432 0
M  V30 8527 O 810.196 -0.124152 -1.73757 0
M  V30 8528 C 807.328 -0.355017 -3.39046 0
M  V30 8529 H 808.521 -1.84425 -2.3649 0
M  V30 8530 H 806.074 -0.990477 -1.2091 0
M  V30 8531 H 806.809 0.592297 -3.18845 0
M  V30 8532 H 806.594 -1.08484 -3.76794 0
M  V30 8533 H 808.084 -0.180891 -4.17208 0
M  V30 8534 N 808.521 1.23394 -0.980386 0
M  V30 8535 C 809.469 2.26872 -0.513018 0
M  V30 8536 C 810.463 1.63853 0.429948 0
M  V30 8537 O 811.669 1.77417 0.303842 0
M  V30 8538 H 808.044 0.737398 -0.147473 0
M  V30 8539 H 810.015 2.63654 -1.39746 0
M  V30 8540 C 808.764 3.47289 0.168962 0
M  V30 8541 H 808.087 3.96033 -0.547546 0
M  V30 8542 H 809.527 4.21502 0.459616 0
M  V30 8543 C 807.986 3.06425 1.40019 0
M  V30 8544 O 808.516 3.14708 2.49643 0
M  V30 8545 N 806.722 2.61339 1.27084 0
M  V30 8546 H 806.269 2.54799 0.378872 0
M  V30 8547 H 806.227 2.34364 2.09573 0
M  V30 8548 N 809.999 0.752036 1.385 0
M  V30 8549 C 811.229 0.317812 2.04141 0
M  V30 8550 C 811.637 -1.05822 1.56839 0
M  V30 8551 O 810.98 -1.68311 0.736016 0
M  V30 8552 C 811.042 0.260205 3.58557 0
M  V30 8553 C 810.706 1.57753 4.28909 0
M  V30 8554 C 811.703 2.52642 4.54387 0
M  V30 8555 C 809.388 1.84653 4.67128 0
M  V30 8556 C 811.382 3.72653 5.17116 0
M  V30 8557 C 809.069 3.04938 5.29581 0
M  V30 8558 C 810.067 3.98759 5.54509 0
M  V30 8559 O 809.755 5.16929 6.15662 0
M  V30 8560 H 809.487 0.133931 0.6626 0
M  V30 8561 H 812.041 1.02138 1.78205 0
M  V30 8562 H 810.271 -0.499596 3.83459 0
M  V30 8563 H 811.96 -0.144295 4.05643 0
M  V30 8564 H 812.726 2.33135 4.25292 0
M  V30 8565 H 808.605 1.12464 4.47071 0
M  V30 8566 H 812.149 4.45898 5.36489 0
M  V30 8567 H 808.046 3.24339 5.58099 0
M  V30 8568 H 808.814 5.1749 6.3415 0
M  V30 8569 N 811.477 -1.49425 0.500989 0
M  V30 8570 C 812.427 -2.26061 -0.296698 0
M  V30 8571 C 813.411 -1.30906 -0.935541 0
M  V30 8572 O 814.603 -1.55628 -0.843142 0
M  V30 8573 C 811.732 -3.15189 -1.36055 0
M  V30 8574 C 810.818 -4.17806 -0.727952 0
M  V30 8575 N 811.209 -5.05516 0.169408 0
M  V30 8576 C 809.507 -4.34907 -0.988535 0
M  V30 8577 C 810.208 -5.79267 0.531509 0
M  V30 8578 N 809.184 -5.43507 -0.100564 0
M  V30 8579 H 812.986 -2.91246 0.394103 0
M  V30 8580 H 810.5 -1.59275 0.317065 0
M  V30 8581 H 812.497 -3.68724 -1.94547 0
M  V30 8582 H 811.157 -2.51556 -2.05303 0
M  V30 8583 H 812.168 -5.15075 0.540218 0
M  V30 8584 H 808.845 -3.82481 -1.67376 0
M  V30 8585 H 810.235 -6.59872 1.26564 0
M  V30 8586 N 812.955 -0.234822 -1.55841 0
M  V30 8587 C 814.18 0.400741 -2.03492 0
M  V30 8588 C 814.605 1.51618 -1.11327 0
M  V30 8589 O 813.963 1.81002 -0.103922 0
M  V30 8590 C 814.011 0.897184 -3.49261 0
M  V30 8591 O 813.115 2.00764 -3.60233 0
M  V30 8592 H 812.456 0.0890023 -0.658008 0
M  V30 8593 H 814.986 -0.357345 -2.01455 0
M  V30 8594 H 814.996 1.20356 -3.89844 0
M  V30 8595 H 813.671 0.0808639 -4.15821 0
M  V30 8596 H 812.248 1.70689 -3.31541 0
M  V30 8597 N 814.433 1.57553 0.0384317 0
M  V30 8598 C 815.658 1.93485 0.746872 0
M  V30 8599 C 816.083 0.834069 1.68597 0
M  V30 8600 O 815.441 -0.210902 1.80069 0
M  V30 8601 C 815.489 3.28463 1.4881 0
M  V30 8602 O 814.593 3.20051 2.60079 0
M  V30 8603 H 813.934 0.632675 0.201539 0
M  V30 8604 H 816.464 2.046 -0.00329815 0
M  V30 8605 H 816.474 3.63132 1.86009 0
M  V30 8606 H 815.149 4.08147 0.799297 0
M  V30 8607 H 813.726 2.96998 2.25492 0
M  V30 8608 N 815.911 -0.310526 1.54511 0
M  V30 8609 C 816.859 -1.40272 1.85544 0
M  V30 8610 C 817.853 -1.52941 0.728377 0
M  V30 8611 O 819.059 -1.55172 0.912234 0
M  V30 8612 H 815.434 -0.468355 0.588343 0
M  V30 8613 H 817.405 -1.11329 2.76855 0
M  V30 8614 C 816.154 -2.76279 2.11105 0
M  V30 8615 H 815.477 -2.67308 2.97298 0
M  V30 8616 H 816.917 -3.51736 2.36765 0
M  V30 8617 C 815.376 -3.24472 0.906618 0
M  V30 8618 O 815.906 -4.01514 0.122358 0
M  V30 8619 N 814.112 -2.81676 0.714632 0
M  V30 8620 H 813.659 -2.19143 1.35404 0
M  V30 8621 H 813.617 -3.14272 -0.089703 0
M  V30 8622 N 817.389 -1.46805 -0.573248 0
M  V30 8623 C 818.8 -1.46655 -1.15539 0
M  V30 8624 C 819.151 -0.2125 -1.95046 0
M  V30 8625 O 818.276 0.683759 -2.05314 0
M  V30 8626 C 818.871 -2.65711 -2.10198 0
M  V30 8627 C 817.43 -2.68572 -2.63716 0
M  V30 8628 C 816.577 -2.39498 -1.39772 0
M  V30 8629 H 819.528 -1.54547 -0.36068 0
M  V30 8630 H 819.549 -2.41768 -2.93817 0
M  V30 8631 H 819.061 -3.56967 -1.52303 0
M  V30 8632 H 817.162 -1.81414 -3.25453 0
M  V30 8633 H 817.275 -3.68809 -3.05805 0
M  V30 8634 H 815.639 -1.89749 -1.69904 0
M  V30 8635 H 816.422 -3.32942 -0.836943 0
M  V30 8636 N 818.867 0.818669 -1.34668 0
M  V30 8637 C 820.097 1.60441 -1.30162 0
M  V30 8638 C 820.505 1.88783 0.125579 0
M  V30 8639 O 819.848 1.48281 1.08437 0
M  V30 8640 C 819.91 2.96794 -2.02864 0
M  V30 8641 C 819.574 2.91327 -3.52105 0
M  V30 8642 C 820.571 2.65611 -4.4693 0
M  V30 8643 C 818.256 3.10825 -3.9458 0
M  V30 8644 C 820.25 2.59452 -5.82206 0
M  V30 8645 C 817.937 3.0429 -5.29954 0
M  V30 8646 C 818.935 2.78637 -6.23579 0
M  V30 8647 O 818.623 2.72042 -7.56471 0
M  V30 8648 H 818.355 0.505278 -0.449077 0
M  V30 8649 H 820.909 1.02632 -1.77921 0
M  V30 8650 H 819.139 3.56538 -1.49725 0
M  V30 8651 H 820.828 3.57837 -1.91592 0
M  V30 8652 H 821.594 2.50278 -4.15434 0
M  V30 8653 H 817.473 3.29807 -3.221 0
M  V30 8654 H 821.017 2.39349 -6.55254 0
M  V30 8655 H 816.914 3.19177 -5.61067 0
M  V30 8656 H 817.682 2.87738 -7.66257 0
M  V30 8657 N 820.346 1.18468 1.03938 0
M  V30 8658 C 821.296 0.880799 2.103 0
M  V30 8659 C 822.28 -0.150008 1.60199 0
M  V30 8660 O 823.472 0.054213 1.76917 0
M  V30 8661 C 820.601 0.409723 3.40846 0
M  V30 8662 C 819.687 1.47267 3.9771 0
M  V30 8663 N 820.078 2.68945 4.28371 0
M  V30 8664 C 818.376 1.33349 4.25598 0
M  V30 8665 C 819.077 3.37341 4.73894 0
M  V30 8666 N 818.053 2.64725 4.74786 0
M  V30 8667 H 821.855 1.80574 2.31884 0
M  V30 8668 H 819.369 1.07527 1.21703 0
M  V30 8669 H 821.366 0.17352 4.16539 0
M  V30 8670 H 820.026 -0.508862 3.20688 0
M  V30 8671 H 821.037 3.05801 4.17978 0
M  V30 8672 H 817.714 0.477548 4.1476 0
M  V30 8673 H 819.104 4.41338 5.06627 0
M  V30 8674 N 821.824 -1.22873 0.986916 0
M  V30 8675 C 822.772 -2.26597 0.525043 0
M  V30 8676 C 823.766 -1.64079 -0.421252 0
M  V30 8677 O 824.972 -1.77576 -0.294429 0
M  V30 8678 H 821.347 -0.736606 0.151381 0
M  V30 8679 H 823.318 -2.62909 1.41142 0
M  V30 8680 C 822.067 -3.47374 -0.150542 0
M  V30 8681 H 821.39 -3.95737 0.568541 0
M  V30 8682 H 822.83 -4.21739 -0.437256 0
M  V30 8683 C 821.289 -3.07163 -1.38392 0
M  V30 8684 O 821.819 -3.16028 -2.47971 0
M  V30 8685 N 820.025 -2.62009 -1.25697 0
M  V30 8686 H 819.572 -2.54996 -0.365355 0
M  V30 8687 H 819.53 -2.35472 -2.08327 0
M  V30 8688 N 823.302 -0.75937 -1.38099 0
M  V30 8689 C 824.527 -0.327859 -2.04792 0
M  V30 8690 C 824.952 1.03752 -1.56899 0
M  V30 8691 O 824.31 1.66235 -0.723581 0
M  V30 8692 C 824.358 -0.366264 -3.58735 0
M  V30 8693 O 823.462 0.637697 -4.0744 0
M  V30 8694 H 822.803 -0.144092 -0.648177 0
M  V30 8695 H 825.333 -1.03211 -1.7666 0
M  V30 8696 H 825.343 -0.219179 -4.07411 0
M  V30 8697 H 824.018 -1.36243 -3.92951 0
M  V30 8698 H 822.595 0.454749 -3.70117 0
M  V30 8699 N 824.78 1.49157 -0.508906 0
M  V30 8700 C 826.008 2.06879 0.0293734 0
M  V30 8701 C 826.423 1.36823 1.30095 0
M  V30 8702 O 825.78 0.449034 1.7689 0
M  V30 8703 C 825.831 3.60423 0.278791 0
M  V30 8704 O 825.552 4.27844 -0.942389 0
M  V30 8705 C 827.053 4.34881 0.859825 0
M  V30 8706 H 824.273 0.67057 -0.0240184 0
M  V30 8707 H 826.817 1.91834 -0.708526 0
M  V30 8708 H 824.972 3.75145 0.966689 0
M  V30 8709 H 825.386 5.19671 -0.710097 0
M  V30 8710 H 826.86 5.43161 0.983884 0
M  V30 8711 H 827.337 3.9789 1.85958 0
M  V30 8712 H 827.943 4.24785 0.209152 0
M  V30 8713 N 826.258 0.243083 1.55714 0
M  V30 8714 C 827.208 -0.671915 2.17875 0
M  V30 8715 C 828.192 -1.14199 1.13347 0
M  V30 8716 O 829.384 -1.09239 1.39269 0
M  V30 8717 C 826.513 -1.87027 2.87881 0
M  V30 8718 C 825.599 -1.41888 3.99661 0
M  V30 8719 N 825.99 -0.681465 5.01188 0
M  V30 8720 C 824.288 -1.70447 4.12145 0
M  V30 8721 C 824.989 -0.448285 5.7997 0
M  V30 8722 N 823.965 -1.01137 5.34109 0
M  V30 8723 H 827.767 -0.100321 2.93729 0
M  V30 8724 H 825.281 0.0452371 1.62337 0
M  V30 8725 H 827.278 -2.53674 3.3084 0
M  V30 8726 H 825.938 -2.44613 2.13529 0
M  V30 8727 H 826.949 -0.331959 5.16835 0
M  V30 8728 H 823.626 -2.29198 3.48962 0
M  V30 8729 H 825.016 0.140141 6.71754 0
M  V30 8730 N 827.736 -1.57571 -0.0300757 0
M  V30 8731 C 828.961 -1.93879 -0.736601 0
M  V30 8732 C 829.386 -0.842998 -1.68152 0
M  V30 8733 O 828.744 0.20135 -1.80178 0
M  V30 8734 C 828.792 -3.29247 -1.47066 0
M  V30 8735 O 827.896 -3.21426 -2.58378 0
M  V30 8736 H 827.237 -0.633735 -0.198181 0
M  V30 8737 H 829.767 -2.04595 0.0141485 0
M  V30 8738 H 829.777 -3.64113 -1.84081 0
M  V30 8739 H 828.452 -4.08565 -0.77764 0
M  V30 8740 H 827.029 -2.98189 -2.23914 0
M  V30 8741 N 829.214 0.302327 -1.54673 0
M  V30 8742 C 830.177 1.35592 -1.8479 0
M  V30 8743 C 831.177 1.43743 -0.72073 0
M  V30 8744 O 832.367 1.43402 -0.989017 0
M  V30 8745 C 829.499 2.74091 -2.02699 0
M  V30 8746 H 830.692 1.10132 -2.78946 0
M  V30 8747 H 828.245 0.538926 -1.46715 0
M  V30 8748 H 828.98 3.04775 -1.10826 0
M  V30 8749 H 828.765 2.69565 -2.8474 0
M  V30 8750 H 830.255 3.50272 -2.27374 0
M  V30 8751 N 830.692 1.47107 0.565454 0
M  V30 8752 C 831.969 1.43787 1.32607 0
M  V30 8753 C 832.349 0.130428 2.10697 0
M  V30 8754 O 831.697 -0.888086 2.10536 0
M  V30 8755 C 831.907 2.67833 2.23755 0
M  V30 8756 C 833.255 3.14704 2.85037 0
M  V30 8757 O 834.279 2.68503 2.34061 0
M  V30 8758 O 833.138 3.95002 3.77671 0
M  V30 8759 H 830.232 0.572623 0.596684 0
M  V30 8760 H 832.778 1.59296 0.58504 0
M  V30 8761 H 831.55 3.54532 1.65597 0
M  V30 8762 H 831.173 2.54869 3.05168 0
M  V30 8763 N 832.17 -0.811516 1.35101 0
M  V30 8764 C 833.416 -1.57068 1.28287 0
M  V30 8765 C 833.749 -1.93667 -0.143808 0
M  V30 8766 O 833.024 -1.60953 -1.09199 0
M  V30 8767 C 833.307 -2.86259 2.18466 0
M  V30 8768 C 833.16 -2.56168 3.69727 0
M  V30 8769 C 834.479 -3.87924 2.07852 0
M  V30 8770 H 831.598 -0.569869 0.467353 0
M  V30 8771 H 834.24 -0.934023 1.65457 0
M  V30 8772 H 832.39 -3.4059 1.86898 0
M  V30 8773 H 834.062 -2.08059 4.11715 0
M  V30 8774 H 832.305 -1.89436 3.90252 0
M  V30 8775 H 832.976 -3.48344 4.28206 0
M  V30 8776 H 835.452 -3.4298 2.35593 0
M  V30 8777 H 834.328 -4.76106 2.73157 0
M  V30 8778 H 834.589 -4.2923 1.05896 0
M  V30 8779 N 833.648 -1.19017 -1.03309 0
M  V30 8780 C 834.578 -0.94772 -2.13402 0
M  V30 8781 C 835.559 0.117383 -1.69694 0
M  V30 8782 O 836.744 -0.0367733 -1.94165 0
M  V30 8783 C 833.874 -0.480977 -3.43953 0
M  V30 8784 C 832.828 -1.48743 -4.01322 0
M  V30 8785 C 832.154 -0.877924 -5.27443 0
M  V30 8786 C 833.454 -2.86642 -4.36616 0
M  V30 8787 H 835.148 -1.86846 -2.33942 0
M  V30 8788 H 832.694 -0.899781 -1.12427 0
M  V30 8789 H 834.647 -0.298677 -4.2034 0
M  V30 8790 H 833.371 0.475348 -3.23122 0
M  V30 8791 H 832.03 -1.65681 -3.27025 0
M  V30 8792 H 831.678 0.0858232 -5.02927 0
M  V30 8793 H 831.378 -1.54996 -5.66789 0
M  V30 8794 H 832.902 -0.706326 -6.06501 0
M  V30 8795 H 834.316 -2.73312 -5.03958 0
M  V30 8796 H 832.713 -3.50599 -4.87032 0
M  V30 8797 H 833.783 -3.39617 -3.46105 0
M  V30 8798 N 835.127 1.22348 -0.993418 0
M  V30 8799 C 836.077 2.221 -0.515333 0
M  V30 8800 C 837.061 1.55409 0.416762 0
M  V30 8801 O 838.253 1.75317 0.243497 0
M  V30 8802 C 835.382 3.42888 0.168173 0
M  V30 8803 C 834.468 4.16786 -0.784257 0
M  V30 8804 N 834.859 4.67435 -1.93231 0
M  V30 8805 C 833.157 4.41942 -0.600243 0
M  V30 8806 C 833.858 5.23792 -2.53016 0
M  V30 8807 N 832.834 5.12483 -1.8128 0
M  V30 8808 H 836.636 2.58902 -1.39093 0
M  V30 8809 H 834.15 1.38024 -0.855747 0
M  V30 8810 H 836.147 4.13542 0.528069 0
M  V30 8811 H 834.807 3.07598 1.03989 0
M  V30 8812 H 835.818 4.63375 -2.31309 0
M  V30 8813 H 832.495 4.16891 0.225369 0
M  V30 8814 H 833.885 5.73515 -3.50043 0
M  V30 8815 N 836.605 0.766683 1.37694 0
M  V30 8816 C 837.568 0.155849 2.2867 0
M  V30 8817 C 838.568 -0.633509 1.47795 0
M  V30 8818 O 839.758 -0.457844 1.68076 0
M  V30 8819 C 836.89 -0.786965 3.31692 0
M  V30 8820 H 838.083 0.957748 2.84196 0
M  V30 8821 H 835.636 0.534554 1.46875 0
M  V30 8822 H 836.371 -1.61406 2.8128 0
M  V30 8823 H 836.156 -0.223182 3.91464 0
M  V30 8824 H 837.646 -1.20994 3.99688 0
M  V30 8825 N 838.083 -1.48885 0.516809 0
M  V30 8826 C 839.311 -2.06892 -0.0184017 0
M  V30 8827 C 839.726 -1.37511 -1.29368 0
M  V30 8828 O 839.083 -0.458409 -1.76649 0
M  V30 8829 C 839.134 -3.60566 -0.259673 0
M  V30 8830 O 838.855 -4.27338 0.965065 0
M  V30 8831 C 840.356 -4.35331 -0.836751 0
M  V30 8832 H 837.576 -0.670433 0.0275743 0
M  V30 8833 H 840.12 -1.91455 0.718689 0
M  V30 8834 H 838.275 -3.75653 -0.94678 0
M  V30 8835 H 838.689 -5.19287 0.737647 0
M  V30 8836 H 840.163 -5.43675 -0.955065 0
M  V30 8837 H 840.64 -3.9887 -1.83845 0
M  V30 8838 H 841.246 -4.2489 -0.186622 0
M  V30 8839 N 839.561 -0.251338 -1.55583 0
M  V30 8840 C 840.524 0.63305 -2.20284 0
M  V30 8841 C 841.524 1.09941 -1.17344 0
M  V30 8842 O 842.714 1.00341 -1.42399 0
M  V30 8843 C 839.846 1.8706 -2.84993 0
M  V30 8844 H 841.039 0.0684846 -2.99822 0
M  V30 8845 H 838.592 -0.00181653 -1.563 0
M  V30 8846 H 839.327 2.47629 -2.09405 0
M  V30 8847 H 839.112 1.54436 -3.60405 0
M  V30 8848 H 840.602 2.50004 -3.34496 0
M  V30 8849 N 841.039 1.57585 0.0217189 0
M  V30 8850 C 842.269 1.9359 0.721572 0
M  V30 8851 C 842.677 0.850132 1.69025 0
M  V30 8852 O 842.02 -0.181539 1.82801 0
M  V30 8853 C 842.082 3.25445 1.52729 0
M  V30 8854 C 841.746 4.51251 0.722586 0
M  V30 8855 C 842.743 5.19896 0.0196598 0
M  V30 8856 C 840.428 4.97745 0.674959 0
M  V30 8857 C 842.422 6.33319 -0.720114 0
M  V30 8858 C 840.109 6.11062 -0.068555 0
M  V30 8859 C 841.107 6.78704 -0.764845 0
M  V30 8860 O 840.795 7.89852 -1.49627 0
M  V30 8861 H 840.527 0.643409 0.207366 0
M  V30 8862 H 843.081 2.05391 -0.0189346 0
M  V30 8863 H 841.311 3.0999 2.31178 0
M  V30 8864 H 843 3.46721 2.11044 0
M  V30 8865 H 843.766 4.84977 0.0474394 0
M  V30 8866 H 839.645 4.44934 1.20643 0
M  V30 8867 H 843.189 6.86051 -1.26413 0
M  V30 8868 H 839.086 6.45425 -0.0982318 0
M  V30 8869 H 839.854 8.06251 -1.41071 0
M  V30 8870 N 842.517 -0.29412 1.54831 0
M  V30 8871 C 843.764 -1.02846 1.74439 0
M  V30 8872 C 844.092 -1.87029 0.533905 0
M  V30 8873 O 843.347 -1.8962 -0.484035 0
M  V30 8874 C 843.646 -1.95782 2.99006 0
M  V30 8875 C 843.312 -1.2752 4.32492 0
M  V30 8876 C 841.974 -1.08637 4.68777 0
M  V30 8877 C 844.326 -0.787761 5.15212 0
M  V30 8878 C 841.654 -0.39704 5.85355 0
M  V30 8879 C 844.006 -0.112123 6.32501 0
M  V30 8880 C 842.67 0.0886071 6.67441 0
M  V30 8881 H 841.94 -0.376341 0.638317 0
M  V30 8882 H 844.587 -0.302684 1.89093 0
M  V30 8883 H 842.892 -2.74911 2.79162 0
M  V30 8884 H 844.589 -2.52684 3.11371 0
M  V30 8885 H 841.179 -1.43226 4.03961 0
M  V30 8886 H 845.363 -0.921341 4.87673 0
M  V30 8887 H 840.619 -0.230597 6.10965 0
M  V30 8888 H 844.793 0.27344 6.95863 0
M  V30 8889 H 842.42 0.624748 7.57628 0
M  V30 8890 N 843.995 -1.47404 -0.557645 0
M  V30 8891 C 844.925 -1.62736 -1.67449 0
M  V30 8892 C 845.906 -0.476824 -1.6328 0
M  V30 8893 O 847.091 -0.706108 -1.80908 0
M  V30 8894 C 844.221 -1.641 -3.06086 0
M  V30 8895 C 843.175 -2.78377 -3.25101 0
M  V30 8896 C 842.501 -2.64812 -4.6452 0
M  V30 8897 C 843.801 -4.19971 -3.10518 0
M  V30 8898 H 845.495 -2.56232 -1.54873 0
M  V30 8899 H 843.041 -1.23312 -0.743649 0
M  V30 8900 H 844.994 -1.73417 -3.84063 0
M  V30 8901 H 843.718 -0.671652 -3.19619 0
M  V30 8902 H 842.377 -2.6857 -2.49531 0
M  V30 8903 H 842.025 -1.65906 -4.74852 0
M  V30 8904 H 841.725 -3.41477 -4.78191 0
M  V30 8905 H 843.249 -2.76057 -5.44633 0
M  V30 8906 H 844.663 -4.30757 -3.78313 0
M  V30 8907 H 843.06 -4.97419 -3.35699 0
M  V30 8908 H 844.13 -4.38369 -2.0727 0
M  V30 8909 N 845.473 0.80434 -1.35529 0
M  V30 8910 C 846.698 1.598 -1.32207 0
M  V30 8911 C 847.123 1.87848 0.0974226 0
M  V30 8912 O 846.481 1.46728 1.06492 0
M  V30 8913 C 846.529 2.90483 -2.13663 0
M  V30 8914 O 845.633 3.83411 -1.51888 0
M  V30 8915 H 844.974 0.485305 -0.453183 0
M  V30 8916 H 847.504 0.998119 -1.78602 0
M  V30 8917 H 847.514 3.39888 -2.257 0
M  V30 8918 H 846.189 2.69395 -3.16859 0
M  V30 8919 H 844.766 3.41967 -1.48704 0
M  V30 8920 N 846.951 1.19563 1.02676 0
M  V30 8921 C 847.898 0.935291 2.11 0
M  V30 8922 C 848.868 -0.130685 1.65585 0
M  V30 8923 O 850.053 0.0119062 1.90796 0
M  V30 8924 C 847.193 0.482384 3.41712 0
M  V30 8925 C 846.306 1.61537 4.00662 0
M  V30 8926 C 845.441 1.11378 5.19392 0
M  V30 8927 C 844.48 2.22052 5.70403 0
M  V30 8928 N 843.617 1.73185 6.80405 0
M  V30 8929 H 848.457 1.86275 2.32606 0
M  V30 8930 H 845.994 0.928656 1.14081 0
M  V30 8931 H 847.952 0.20118 4.16715 0
M  V30 8932 H 846.582 -0.408086 3.2021 0
M  V30 8933 H 845.634 2.01173 3.22852 0
M  V30 8934 H 846.946 2.44912 4.34534 0
M  V30 8935 H 846.1 0.787935 6.01562 0
M  V30 8936 H 844.839 0.249789 4.8706 0
M  V30 8937 H 843.844 2.55465 4.86845 0
M  V30 8938 H 845.069 3.08911 6.04774 0
M  V30 8939 H 843.015 0.890973 6.49921 0
M  V30 8940 H 842.932 2.50148 7.13416 0
M  V30 8941 H 844.2 1.4357 7.66164 0
M  V30 8942 N 848.429 -1.21819 0.999893 0
M  V30 8943 C 849.339 -2.27691 0.565159 0
M  V30 8944 C 850.355 -1.69587 -0.389398 0
M  V30 8945 O 851.531 -1.99786 -0.254499 0
M  V30 8946 C 848.596 -3.46537 -0.106432 0
M  V30 8947 C 847.657 -4.19932 0.891964 0
M  V30 8948 C 846.89 -5.33103 0.252327 0
M  V30 8949 O 847.113 -5.62398 -0.952103 0
M  V30 8950 O 846.047 -5.94184 0.960698 0
M  V30 8951 H 849.873 -2.67059 1.44613 0
M  V30 8952 H 847.458 -1.28119 0.768499 0
M  V30 8953 H 849.34 -4.18631 -0.482301 0
M  V30 8954 H 848.015 -3.09079 -0.961865 0
M  V30 8955 H 846.922 -3.5008 1.3189 0
M  V30 8956 H 848.255 -4.61287 1.71682 0
M  V30 8957 N 849.908 -0.773975 -1.37286 0
M  V30 8958 C 851.324 -0.45386 -1.53011 0
M  V30 8959 C 851.524 1.03018 -1.73175 0
M  V30 8960 O 850.58 1.81597 -1.75438 0
M  V30 8961 C 851.893 -1.27087 -2.72524 0
M  V30 8962 C 853.441 -1.26299 -2.86387 0
M  V30 8963 C 853.916 -2.0634 -4.08886 0
M  V30 8964 N 855.407 -2.03706 -4.16003 0
M  V30 8965 C 856.142 -2.62418 -5.09828 0
M  V30 8966 N 855.638 -3.29926 -6.09197 0
M  V30 8967 N 857.431 -2.52236 -5.02328 0
M  V30 8968 H 849.582 -1.73551 -1.22449 0
M  V30 8969 H 851.845 -0.736874 -0.596423 0
M  V30 8970 H 851.551 -2.32263 -2.64096 0
M  V30 8971 H 851.425 -0.90157 -3.66267 0
M  V30 8972 H 853.812 -0.219213 -2.94285 0
M  V30 8973 H 853.893 -1.67195 -1.93596 0
M  V30 8974 H 853.537 -3.10741 -4.01749 0
M  V30 8975 H 853.467 -1.62825 -5.00795 0
M  V30 8976 H 855.958 -1.54559 -3.44848 0
M  V30 8977 H 856.271 -3.72095 -6.77322 0
M  V30 8978 H 854.616 -3.34026 -6.09469 0
M  V30 8979 H 857.807 -1.99108 -4.23643 0
M  V30 8980 H 857.98 -2.98286 -5.75265 0
M  V30 8981 N 851.386 1.48609 -0.524698 0
M  V30 8982 C 852.635 2.01696 0.0132937 0
M  V30 8983 C 852.948 1.40751 1.35825 0
M  V30 8984 O 854.154 1.85304 1.9843 0
M  V30 8985 C 852.61 3.59824 0.0741012 0
M  V30 8986 C 852.218 4.2975 -1.26564 0
M  V30 8987 C 853.962 4.20774 0.5612 0
M  V30 8988 C 851.869 5.79798 -1.16571 0
M  V30 8989 H 850.799 0.753949 0.00873931 0
M  V30 8990 H 853.45 1.70922 -0.667684 0
M  V30 8991 H 851.832 3.87416 0.820043 0
M  V30 8992 H 853.006 4.13836 -2.02674 0
M  V30 8993 H 851.321 3.80649 -1.68806 0
M  V30 8994 H 853.918 5.30687 0.653853 0
M  V30 8995 H 854.261 3.85734 1.56573 0
M  V30 8996 H 854.794 3.97591 -0.128901 0
M  V30 8997 H 851.533 6.19403 -2.14523 0
M  V30 8998 H 851.053 5.9814 -0.445894 0
M  V30 8999 H 852.732 6.41337 -0.854186 0
M  V30 9000 N 852.864 0.259585 1.55447 0
M  V30 9001 C 853.811 -0.634578 2.21905 0
M  V30 9002 C 854.781 -1.16168 1.18719 0
M  V30 9003 O 855.966 -1.21383 1.4721 0
M  V30 9004 C 853.106 -1.82005 2.93203 0
M  V30 9005 C 852.219 -1.32828 4.11073 0
M  V30 9006 C 851.354 -2.47431 4.70055 0
M  V30 9007 C 850.393 -1.95179 5.80148 0
M  V30 9008 N 849.53 -3.03197 6.33258 0
M  V30 9009 H 854.37 -0.0611886 2.97937 0
M  V30 9010 H 851.907 -0.0184378 1.47088 0
M  V30 9011 H 853.865 -2.51664 3.32748 0
M  V30 9012 H 852.495 -2.36571 2.19622 0
M  V30 9013 H 851.547 -0.525301 3.76756 0
M  V30 9014 H 852.859 -0.905435 4.90513 0
M  V30 9015 H 852.013 -3.25111 5.12238 0
M  V30 9016 H 850.752 -2.93023 3.89857 0
M  V30 9017 H 849.757 -1.15974 5.37429 0
M  V30 9018 H 850.982 -1.50541 6.62204 0
M  V30 9019 H 848.928 -3.48199 5.55961 0
M  V30 9020 H 848.845 -2.65282 7.07928 0
M  V30 9021 H 850.113 -3.80898 6.80101 0
M  V30 9022 N 854.342 -1.57594 -0.0133615 0
M  V30 9023 C 855.252 -2.10991 -1.02566 0
M  V30 9024 C 856.268 -1.05208 -1.3859 0
M  V30 9025 O 857.444 -1.37034 -1.47593 0
M  V30 9026 C 854.509 -2.59165 -2.30292 0
M  V30 9027 C 853.57 -3.79495 -2.00704 0
M  V30 9028 C 852.803 -4.25361 -3.22341 0
M  V30 9029 O 853.026 -3.70645 -4.33565 0
M  V30 9030 O 851.96 -5.17649 -3.07121 0
M  V30 9031 H 855.786 -2.97678 -0.601806 0
M  V30 9032 H 853.371 -1.47598 -0.23135 0
M  V30 9033 H 855.253 -2.90409 -3.05354 0
M  V30 9034 H 853.928 -1.75582 -2.71942 0
M  V30 9035 H 852.835 -3.53245 -1.23161 0
M  V30 9036 H 854.168 -4.64109 -1.639 0
M  V30 9037 N 855.82 0.285905 -1.54985 0
M  V30 9038 C 857.048 1.03776 -1.78992 0
M  V30 9039 C 857.463 1.80402 -0.556814 0
M  V30 9040 O 856.82 1.76242 0.473801 0
M  V30 9041 C 856.871 2.0065 -3.00702 0
M  V30 9042 O 856.592 1.27131 -4.19249 0
M  V30 9043 C 858.093 2.87753 -3.37214 0
M  V30 9044 H 855.313 0.307126 -0.596586 0
M  V30 9045 H 857.857 0.3206 -2.01971 0
M  V30 9046 H 856.012 2.67847 -2.79887 0
M  V30 9047 H 856.426 1.92316 -4.8797 0
M  V30 9048 H 857.9 3.51548 -4.2558 0
M  V30 9049 H 858.377 3.56848 -2.56039 0
M  V30 9050 H 858.983 2.26065 -3.60242 0
M  V30 9051 N 857.298 1.47698 0.54982 0
M  V30 9052 C 858.228 1.63622 1.66583 0
M  V30 9053 C 859.209 0.485477 1.63025 0
M  V30 9054 O 860.394 0.715692 1.80531 0
M  V30 9055 C 857.524 1.65721 3.05211 0
M  V30 9056 C 856.478 2.80097 3.2362 0
M  V30 9057 C 855.804 2.67272 4.63109 0
M  V30 9058 C 857.104 4.21612 3.08286 0
M  V30 9059 H 858.798 2.57049 1.53512 0
M  V30 9060 H 856.344 1.23705 0.737099 0
M  V30 9061 H 858.297 1.75451 3.83138 0
M  V30 9062 H 857.021 0.688593 3.19258 0
M  V30 9063 H 855.68 2.69889 2.48104 0
M  V30 9064 H 855.328 1.68422 4.73965 0
M  V30 9065 H 855.028 3.44008 4.76374 0
M  V30 9066 H 856.552 2.78942 5.43161 0
M  V30 9067 H 857.966 4.32758 3.76024 0
M  V30 9068 H 856.363 4.99193 3.33057 0
M  V30 9069 H 857.433 4.39462 2.04942 0
M  V30 9070 N 858.776 -0.797141 1.35954 0
M  V30 9071 C 860.053 -1.54224 1.2031 0
M  V30 9072 C 860.433 -2.10013 -0.213926 0
M  V30 9073 O 859.781 -1.93292 -1.21862 0
M  V30 9074 C 859.991 -2.6433 2.27883 0
M  V30 9075 C 861.339 -3.32418 2.64165 0
M  V30 9076 O 862.363 -2.74607 2.26868 0
M  V30 9077 O 861.222 -4.36876 3.28331 0
M  V30 9078 H 858.316 -0.681857 0.467974 0
M  V30 9079 H 860.862 -0.836288 1.47663 0
M  V30 9080 H 859.634 -2.21044 3.22885 0
M  V30 9081 H 859.257 -3.42551 2.01853 0
M  V30 9082 N 860.254 -1.20106 -1.0204 0
M  V30 9083 C 861.665 -1.00992 -1.57027 0
M  V30 9084 C 862.016 0.434782 -1.91322 0
M  V30 9085 O 861.141 1.31557 -1.71819 0
M  V30 9086 C 861.736 -1.82697 -2.85319 0
M  V30 9087 C 860.295 -1.67959 -3.36848 0
M  V30 9088 C 859.442 -1.80868 -2.10195 0
M  V30 9089 H 862.393 -1.34354 -0.844676 0
M  V30 9090 H 862.414 -1.32809 -3.5657 0
M  V30 9091 H 861.926 -2.87839 -2.60328 0
M  V30 9092 H 860.027 -0.654389 -3.66809 0
M  V30 9093 H 860.14 -2.49006 -4.09308 0
M  V30 9094 H 858.504 -1.24015 -2.22469 0
M  V30 9095 H 859.287 -2.87486 -1.87635 0
M  V30 9096 N 861.732 1.21287 -1.00634 0
M  V30 9097 C 862.981 1.89706 -0.685178 0
M  V30 9098 C 863.294 1.79044 0.787566 0
M  V30 9099 O 864.5 2.42502 1.22086 0
M  V30 9100 C 862.956 3.40176 -1.17508 0
M  V30 9101 C 862.564 3.59446 -2.674 0
M  V30 9102 C 864.308 4.14213 -0.928869 0
M  V30 9103 C 862.215 5.03688 -3.09923 0
M  V30 9104 H 861.145 0.710434 -0.252586 0
M  V30 9105 H 863.796 1.37277 -1.21768 0
M  V30 9106 H 862.178 3.91867 -0.570622 0
M  V30 9107 H 863.352 3.18188 -3.33306 0
M  V30 9108 H 861.667 2.98764 -2.9005 0
M  V30 9109 H 864.264 5.20546 -1.22212 0
M  V30 9110 H 864.607 4.16082 0.134859 0
M  V30 9111 H 865.14 3.68591 -1.49619 0
M  V30 9112 H 861.879 5.06968 -4.15529 0
M  V30 9113 H 861.399 5.45796 -2.4873 0
M  V30 9114 H 863.078 5.72204 -3.0198 0
M  V30 9115 N 863.21 0.781244 1.36873 0
M  V30 9116 C 864.487 0.274217 1.93668 0
M  V30 9117 C 864.867 -1.2323 1.71399 0
M  V30 9118 O 864.215 -2.01993 1.06822 0
M  V30 9119 C 864.425 0.657939 3.42742 0
M  V30 9120 C 865.773 0.63307 4.19854 0
M  V30 9121 O 866.797 0.597909 3.51146 0
M  V30 9122 O 865.656 0.668636 5.42394 0
M  V30 9123 H 862.75 0.0658059 0.824378 0
M  V30 9124 H 865.296 0.863238 1.46104 0
M  V30 9125 H 864.068 1.69728 3.52573 0
M  V30 9126 H 863.691 0.0423678 3.97577 0
M  V30 9127 N 864.689 -1.48329 0.532571 0
M  V30 9128 C 865.599 -2.33445 -0.232546 0
M  V30 9129 C 866.615 -1.46651 -0.93645 0
M  V30 9130 O 867.791 -1.79627 -0.910834 0
M  V30 9131 C 864.856 -3.22824 -1.26434 0
M  V30 9132 C 863.917 -4.25492 -0.570511 0
M  V30 9133 C 863.15 -5.10601 -1.55315 0
M  V30 9134 O 863.373 -4.97733 -2.78599 0
M  V30 9135 O 862.307 -5.91927 -1.09112 0
M  V30 9136 H 866.133 -3.00119 0.464988 0
M  V30 9137 H 863.718 -1.46489 0.293462 0
M  V30 9138 H 865.6 -3.78103 -1.86055 0
M  V30 9139 H 864.275 -2.58807 -1.94424 0
M  V30 9140 H 863.182 -3.74041 0.0662587 0
M  V30 9141 H 864.515 -4.92154 0.0674904 0
M  V30 9142 N 866.167 -0.267825 -1.55308 0
M  V30 9143 C 867.413 0.351556 -1.9973 0
M  V30 9144 C 867.746 1.56049 -1.15596 0
M  V30 9145 O 867.021 1.93203 -0.224274 0
M  V30 9146 C 867.304 0.74091 -3.52395 0
M  V30 9147 C 867.157 -0.474861 -4.47286 0
M  V30 9148 C 868.476 1.5801 -4.10756 0
M  V30 9149 H 865.595 0.126308 -0.726096 0
M  V30 9150 H 868.237 -0.373316 -1.86296 0
M  V30 9151 H 866.387 1.35851 -3.63973 0
M  V30 9152 H 868.059 -1.1134 -4.47662 0
M  V30 9153 H 866.302 -1.11425 -4.19246 0
M  V30 9154 H 866.973 -0.158782 -5.51772 0
M  V30 9155 H 869.449 1.05857 -4.0241 0
M  V30 9156 H 868.325 1.82135 -5.17801 0
M  V30 9157 H 868.586 2.55878 -3.60526 0
M  V30 9158 N 867.645 1.57599 0.00500368 0
M  V30 9159 C 868.608 2.07058 0.982832 0
M  V30 9160 C 869.608 0.979045 1.27559 0
M  V30 9161 O 870.798 1.24187 1.22161 0
M  V30 9162 C 867.93 2.50782 2.30914 0
M  V30 9163 H 869.123 2.94718 0.555119 0
M  V30 9164 H 866.676 1.54249 0.25237 0
M  V30 9165 H 867.411 1.66351 2.78385 0
M  V30 9166 H 867.196 3.30495 2.10987 0
M  V30 9167 H 868.686 2.89391 3.0107 0
M  V30 9168 N 869.123 -0.277682 1.55134 0
M  V30 9169 C 870.086 -1.32635 1.86924 0
M  V30 9170 C 871.086 -1.42578 0.743507 0
M  V30 9171 O 872.276 -1.4181 1.01171 0
M  V30 9172 C 869.408 -2.70832 2.07034 0
M  V30 9173 H 870.601 -1.0568 2.80663 0
M  V30 9174 H 868.154 -0.515517 1.47554 0
M  V30 9175 H 868.889 -3.02974 1.15661 0
M  V30 9176 H 868.674 -2.65001 2.88993 0
M  V30 9177 H 870.164 -3.46611 2.32918 0
M  V30 9178 N 870.601 -1.47988 -0.541979 0
M  V30 9179 C 871.531 -1.64503 -1.65713 0
M  V30 9180 C 872.512 -0.494116 -1.62765 0
M  V30 9181 O 873.697 -0.725256 -1.80149 0
M  V30 9182 C 870.827 -1.67337 -3.04328 0
M  V30 9183 C 869.781 -2.81809 -3.2213 0
M  V30 9184 C 869.107 -2.69724 -4.61685 0
M  V30 9185 C 870.407 -4.23241 -3.06046 0
M  V30 9186 H 872.101 -2.5786 -1.52147 0
M  V30 9187 H 869.647 -1.24094 -0.730529 0
M  V30 9188 H 871.6 -1.77481 -3.82202 0
M  V30 9189 H 870.324 -0.705514 -3.18889 0
M  V30 9190 H 868.983 -2.71201 -2.46669 0
M  V30 9191 H 868.631 -1.70934 -4.73065 0
M  V30 9192 H 868.331 -3.4653 -4.74543 0
M  V30 9193 H 869.855 -2.81818 -5.41674 0
M  V30 9194 H 871.269 -4.34746 -3.73723 0
M  V30 9195 H 869.666 -5.00952 -3.30405 0
M  V30 9196 H 870.736 -4.40543 -2.02609 0
M  V30 9197 N 872.079 0.78992 -1.36375 0
M  V30 9198 C 873.328 1.54296 -1.29906 0
M  V30 9199 C 873.641 1.95234 0.119651 0
M  V30 9200 O 874.847 2.69762 0.306708 0
M  V30 9201 C 873.303 2.78533 -2.27919 0
M  V30 9202 C 872.911 2.44767 -3.75224 0
M  V30 9203 C 874.655 3.56516 -2.30427 0
M  V30 9204 C 872.562 3.65397 -4.65015 0
M  V30 9205 H 871.492 0.579214 -0.482729 0
M  V30 9206 H 874.143 0.866845 -1.61735 0
M  V30 9207 H 872.525 3.47941 -1.89084 0
M  V30 9208 H 873.699 1.83259 -4.22792 0
M  V30 9209 H 872.014 1.79996 -3.75487 0
M  V30 9210 H 874.611 4.46143 -2.94722 0
M  V30 9211 H 874.954 3.95063 -1.31266 0
M  V30 9212 H 875.487 2.94087 -2.67876 0
M  V30 9213 H 872.226 3.31946 -5.65236 0
M  V30 9214 H 871.746 4.26072 -4.22164 0
M  V30 9215 H 873.425 4.32431 -4.81261 0
M  V30 9216 N 873.557 1.20646 1.01402 0
M  V30 9217 C 874.52 0.959314 2.08158 0
M  V30 9218 C 875.52 -0.0661558 1.60664 0
M  V30 9219 O 876.71 0.170177 1.73367 0
M  V30 9220 C 873.842 0.444785 3.37986 0
M  V30 9221 H 875.035 1.90631 2.31517 0
M  V30 9222 H 872.588 1.02219 1.18241 0
M  V30 9223 H 873.323 -0.507553 3.20304 0
M  V30 9224 H 873.108 1.18435 3.73785 0
M  V30 9225 H 874.598 0.291443 4.16582 0
M  V30 9226 N 875.035 -1.20752 1.01276 0
M  V30 9227 C 875.998 -2.2162 0.584583 0
M  V30 9228 C 876.998 -1.57094 -0.343215 0
M  V30 9229 O 878.188 -1.73696 -0.132433 0
M  V30 9230 C 875.32 -3.40583 -0.146872 0
M  V30 9231 H 876.513 -2.61015 1.47686 0
M  V30 9232 H 874.066 -1.34148 0.802123 0
M  V30 9233 H 874.801 -3.06686 -1.05424 0
M  V30 9234 H 874.586 -3.88642 0.51958 0
M  V30 9235 H 876.076 -4.15339 -0.433924 0
M  V30 9236 N 876.513 -0.788492 -1.36457 0
M  V30 9237 C 877.741 -0.372365 -2.03522 0
M  V30 9238 C 878.156 1.01093 -1.59454 0
M  V30 9239 O 877.513 1.64824 -0.783535 0
M  V30 9240 C 877.564 -0.425435 -3.58988 0
M  V30 9241 O 877.285 -1.75418 -4.01448 0
M  V30 9242 C 878.786 0.000180167 -4.433 0
M  V30 9243 H 876.006 -0.1536 -0.653183 0
M  V30 9244 H 878.55 -1.06708 -1.74452 0
M  V30 9245 H 876.705 0.220856 -3.8677 0
M  V30 9246 H 877.119 -1.70437 -4.96036 0
M  V30 9247 H 878.593 -0.0880919 -5.5193 0
M  V30 9248 H 879.07 1.05269 -4.26398 0
M  V30 9249 H 879.676 -0.618563 -4.20778 0
M  V30 9250 N 877.991 1.48044 -0.54043 0
M  V30 9251 C 879.24 2.01698 -0.00809961 0
M  V30 9252 C 879.553 1.42184 1.34325 0
M  V30 9253 O 880.759 1.87398 1.96454 0
M  V30 9254 C 879.215 3.59882 0.035933 0
M  V30 9255 C 878.823 4.28384 -1.31115 0
M  V30 9256 C 880.567 4.21346 0.51654 0
M  V30 9257 C 878.474 5.78529 -1.22714 0
M  V30 9258 H 877.404 0.754 0.000742174 0
M  V30 9259 H 880.055 1.70204 -0.685775 0
M  V30 9260 H 878.437 3.88264 0.778906 0
M  V30 9261 H 879.611 4.11663 -2.07051 0
M  V30 9262 H 877.926 3.78837 -1.72834 0
M  V30 9263 H 880.523 5.31351 0.597529 0
M  V30 9264 H 880.866 3.87373 1.52473 0
M  V30 9265 H 881.399 3.97432 -0.171064 0
M  V30 9266 H 878.138 6.17093 -2.21081 0
M  V30 9267 H 877.658 5.97634 -0.50931 0
M  V30 9268 H 879.337 6.40395 -0.92216 0
M  V30 9269 N 879.47 0.276058 1.55163 0
M  V30 9270 C 880.42 -0.625549 2.19251 0
M  V30 9271 C 881.404 -1.11769 1.15744 0
M  V30 9272 O 882.596 -1.0626 1.41555 0
M  V30 9273 C 879.725 -1.80879 2.91784 0
M  V30 9274 C 878.811 -1.33379 4.0258 0
M  V30 9275 N 879.202 -0.575002 5.02521 0
M  V30 9276 C 877.5 -1.61666 4.15668 0
M  V30 9277 C 878.201 -0.325164 5.8079 0
M  V30 9278 N 877.177 -0.897851 5.36134 0
M  V30 9279 H 880.979 -0.0379943 2.93875 0
M  V30 9280 H 878.493 0.079661 1.62205 0
M  V30 9281 H 880.49 -2.466 3.36146 0
M  V30 9282 H 879.15 -2.40028 2.1867 0
M  V30 9283 H 880.161 -0.222256 5.17423 0
M  V30 9284 H 876.838 -2.21745 3.53745 0
M  V30 9285 H 878.228 0.282598 6.71305 0
M  V30 9286 N 880.948 -1.576 0.00335426 0
M  V30 9287 C 882.225 -1.81945 -0.718015 0
M  V30 9288 C 882.605 -0.881788 -1.91801 0
M  V30 9289 O 881.953 0.0687118 -2.28397 0
M  V30 9290 C 882.163 -3.30521 -1.12058 0
M  V30 9291 C 883.511 -3.96345 -1.52303 0
M  V30 9292 O 884.535 -3.34864 -1.21428 0
M  V30 9293 O 883.394 -5.04655 -2.09728 0
M  V30 9294 H 880.488 -0.749328 -0.34991 0
M  V30 9295 H 883.034 -1.69675 0.0290654 0
M  V30 9296 H 881.806 -3.90399 -0.265378 0
M  V30 9297 H 881.429 -3.47802 -1.92665 0
M  V30 9298 N 882.426 0.269451 -1.5528 0
M  V30 9299 C 883.672 1.00206 -1.76314 0
M  V30 9300 C 884.005 1.85812 -0.564581 0
M  V30 9301 O 883.28 1.89509 0.437769 0
M  V30 9302 C 883.563 1.88163 -3.07029 0
M  V30 9303 C 883.416 1.05527 -4.37246 0
M  V30 9304 C 884.735 2.8681 -3.33808 0
M  V30 9305 H 881.854 0.36288 -0.641473 0
M  V30 9306 H 884.496 0.274188 -1.88011 0
M  V30 9307 H 882.646 2.50224 -2.97187 0
M  V30 9308 H 884.318 0.455094 -4.5905 0
M  V30 9309 H 882.561 0.358842 -4.32313 0
M  V30 9310 H 883.232 1.70397 -5.25042 0
M  V30 9311 H 885.708 2.34884 -3.43466 0
M  V30 9312 H 884.584 3.45492 -4.26528 0
M  V30 9313 H 884.845 3.62118 -2.5362 0
M  V30 9314 N 883.904 1.48273 0.534124 0
M  V30 9315 C 885.181 1.46567 1.29528 0
M  V30 9316 C 885.561 0.17509 2.10373 0
M  V30 9317 O 884.909 -0.843228 2.12372 0
M  V30 9318 C 885.119 2.72519 2.18023 0
M  V30 9319 C 886.467 3.2068 2.78298 0
M  V30 9320 O 887.491 2.73408 2.28313 0
M  V30 9321 O 886.35 4.02924 3.69208 0
M  V30 9322 H 883.444 0.585151 0.584403 0
M  V30 9323 H 885.99 1.60502 0.551119 0
M  V30 9324 H 884.762 3.57965 1.5804 0
M  V30 9325 H 884.385 2.61285 2.99693 0
M  V30 9326 N 885.382 -0.782676 1.36792 0
M  V30 9327 C 886.332 -1.8855 1.28191 0
M  V30 9328 C 887.316 -1.59978 0.171984 0
M  V30 9329 O 888.508 -1.72295 0.405405 0
M  V30 9330 C 885.637 -3.25862 1.08021 0
M  V30 9331 C 884.723 -3.60422 2.2351 0
M  V30 9332 N 885.114 -3.66241 3.48857 0
M  V30 9333 C 883.412 -3.90523 2.15424 0
M  V30 9334 C 884.113 -3.97233 4.24948 0
M  V30 9335 N 883.089 -4.12567 3.53963 0
M  V30 9336 H 886.891 -1.91285 2.23131 0
M  V30 9337 H 884.405 -0.978554 1.29607 0
M  V30 9338 H 886.402 -4.04742 0.999458 0
M  V30 9339 H 885.062 -3.24399 0.139882 0
M  V30 9340 H 886.073 -3.48717 3.82906 0
M  V30 9341 H 882.75 -3.96945 1.29386 0
M  V30 9342 H 884.14 -4.08602 5.33379 0
M  V30 9343 N 886.86 -1.21182 -1.00761 0
M  V30 9344 C 888.271 -1.02652 -1.55947 0
M  V30 9345 C 888.622 0.414466 -1.91772 0
M  V30 9346 O 887.747 1.29727 -1.73204 0
M  V30 9347 C 888.342 -1.85713 -2.83366 0
M  V30 9348 C 886.901 -1.71523 -3.35048 0
M  V30 9349 C 886.048 -1.83087 -2.08265 0
M  V30 9350 H 888.999 -1.35242 -0.830379 0
M  V30 9351 H 889.02 -1.36583 -3.55141 0
M  V30 9352 H 888.532 -2.90584 -2.5726 0
M  V30 9353 H 886.633 -0.693257 -3.66094 0
M  V30 9354 H 886.746 -2.53333 -4.06644 0
M  V30 9355 H 885.11 -1.26367 -2.21141 0
M  V30 9356 H 885.893 -2.8946 -1.84575 0
M  V30 9357 N 888.338 1.20213 -1.01915 0
M  V30 9358 C 889.586 1.89272 -0.708552 0
M  V30 9359 C 889.907 1.79394 0.76438 0
M  V30 9360 O 889.177 1.198 1.54999 0
M  V30 9361 H 887.757 0.700628 -0.259094 0
M  V30 9362 H 890.419 1.45985 -1.29129 0
M  V30 9363 H 889.515 2.95841 -0.994215 0
M  V30 9364 N 889.816 0.795718 1.36037 0
M  V30 9365 C 891.232 0.478145 1.52269 0
M  V30 9366 C 891.432 -1.0025 1.74792 0
M  V30 9367 O 890.488 -1.78783 1.78305 0
M  V30 9368 C 891.801 1.31406 2.70468 0
M  V30 9369 C 893.349 1.3084 2.84341 0
M  V30 9370 C 893.824 2.12819 4.05551 0
M  V30 9371 N 895.315 2.10298 4.12709 0
M  V30 9372 C 896.05 2.70495 5.05589 0
M  V30 9373 N 895.546 3.39576 6.03871 0
M  V30 9374 N 897.339 2.60195 4.98252 0
M  V30 9375 H 889.49 1.75477 1.19673 0
M  V30 9376 H 891.753 0.74627 0.584624 0
M  V30 9377 H 891.459 2.36435 2.60368 0
M  V30 9378 H 891.333 0.959726 3.64786 0
M  V30 9379 H 893.72 0.266003 2.93899 0
M  V30 9380 H 893.801 1.70254 1.90912 0
M  V30 9381 H 893.445 3.17093 3.96755 0
M  V30 9382 H 893.375 1.70772 4.98141 0
M  V30 9383 H 895.866 1.60026 3.42345 0
M  V30 9384 H 896.179 3.82823 6.71317 0
M  V30 9385 H 894.524 3.43679 6.04077 0
M  V30 9386 H 897.715 2.05823 4.20422 0
M  V30 9387 H 897.888 3.074 5.70447 0
M  V30 9388 N 891.294 -1.47756 0.548274 0
M  V30 9389 C 892.522 -2.06884 0.0254873 0
M  V30 9390 C 892.937 -1.40225 -1.26422 0
M  V30 9391 O 892.294 -0.495776 -1.75637 0
M  V30 9392 C 892.345 -3.61036 -0.183134 0
M  V30 9393 O 892.066 -4.25195 1.05549 0
M  V30 9394 C 893.567 -4.37008 -0.744222 0
M  V30 9395 H 890.787 -0.669697 0.041789 0
M  V30 9396 H 893.331 -1.89888 0.759138 0
M  V30 9397 H 891.486 -3.77576 -0.866886 0
M  V30 9398 H 891.9 -5.17606 0.847629 0
M  V30 9399 H 893.374 -5.45579 -0.839529 0
M  V30 9400 H 893.851 -4.0268 -1.75344 0
M  V30 9401 H 894.457 -4.25191 -0.0964542 0
M  V30 9402 N 892.772 -0.284283 -1.55015 0
M  V30 9403 C 893.72 0.615091 -2.2432 0
M  V30 9404 C 894.714 1.15051 -1.24337 0
M  V30 9405 O 895.92 1.10308 -1.4224 0
M  V30 9406 H 892.295 0.216927 -0.720033 0
M  V30 9407 H 894.266 0.00783216 -2.98399 0
M  V30 9408 C 893.015 1.78355 -2.98471 0
M  V30 9409 H 892.338 1.38076 -3.752 0
M  V30 9410 H 893.778 2.38927 -3.50271 0
M  V30 9411 C 892.237 2.67757 -2.04469 0
M  V30 9412 O 892.767 3.6838 -1.60185 0
M  V30 9413 N 890.973 2.35125 -1.70776 0
M  V30 9414 H 890.52 1.53346 -2.06985 0
M  V30 9415 H 890.478 2.95212 -1.08153 0
M  V30 9416 N 894.251 1.57596 -0.0117121 0
M  V30 9417 C 895.476 1.95764 0.684938 0
M  V30 9418 C 895.901 0.887285 1.65858 0
M  V30 9419 O 895.259 -0.153508 1.80649 0
M  V30 9420 C 895.307 3.33031 1.38285 0
M  V30 9421 O 894.411 3.28163 2.49765 0
M  V30 9422 H 893.752 0.638767 0.181309 0
M  V30 9423 H 896.282 2.04486 -0.0683883 0
M  V30 9424 H 896.292 3.68866 1.74362 0
M  V30 9425 H 894.967 4.10483 0.669043 0
M  V30 9426 H 893.544 3.04021 2.15929 0
M  V30 9427 N 895.729 -0.261212 1.5542 0
M  V30 9428 C 896.976 -0.99123 1.76581 0
M  V30 9429 C 897.304 -1.85854 0.573457 0
M  V30 9430 O 896.559 -1.90604 -0.443705 0
M  V30 9431 C 896.858 -1.89395 3.03091 0
M  V30 9432 C 896.524 -1.18318 4.351 0
M  V30 9433 C 895.186 -0.986688 4.70975 0
M  V30 9434 C 897.538 -0.678299 5.16767 0
M  V30 9435 C 894.866 -0.272788 5.86065 0
M  V30 9436 C 897.218 0.0220646 6.32596 0
M  V30 9437 C 895.882 0.230161 6.67103 0
M  V30 9438 H 895.152 -0.362717 0.646156 0
M  V30 9439 H 897.799 -0.262506 1.89692 0
M  V30 9440 H 896.104 -2.68927 2.8493 0
M  V30 9441 H 897.801 -2.46022 3.16661 0
M  V30 9442 H 894.391 -1.34625 4.06908 0
M  V30 9443 H 898.575 -0.817691 4.89518 0
M  V30 9444 H 893.831 -0.10095 6.11317 0
M  V30 9445 H 898.005 0.420981 6.95126 0
M  V30 9446 H 895.632 0.785312 7.56133 0
M  V30 9447 N 897.207 -1.48554 -0.526253 0
M  V30 9448 C 898.137 -1.66252 -1.63959 0
M  V30 9449 C 899.118 -0.511351 -1.62232 0
M  V30 9450 O 900.303 -0.744322 -1.7937 0
M  V30 9451 C 897.433 -1.70556 -3.02536 0
M  V30 9452 C 896.387 -2.8521 -3.19123 0
M  V30 9453 C 895.713 -2.74606 -4.58798 0
M  V30 9454 C 897.013 -4.26463 -3.0154 0
M  V30 9455 H 898.707 -2.59459 -1.49404 0
M  V30 9456 H 896.253 -1.24862 -0.717326 0
M  V30 9457 H 898.206 -1.81524 -3.80298 0
M  V30 9458 H 896.93 -0.739297 -3.18123 0
M  V30 9459 H 895.589 -2.73802 -2.43779 0
M  V30 9460 H 895.237 -1.75941 -4.71226 0
M  V30 9461 H 894.937 -3.51544 -4.70841 0
M  V30 9462 H 896.461 -2.87548 -5.38655 0
M  V30 9463 H 897.875 -4.38685 -3.69091 0
M  V30 9464 H 896.272 -5.04428 -3.25073 0
M  V30 9465 H 897.342 -4.42667 -1.97925 0
M  V30 9466 N 898.685 0.775411 -1.37205 0
M  V30 9467 C 899.925 1.54689 -1.33606 0
M  V30 9468 C 900.289 1.91834 0.0798549 0
M  V30 9469 O 901.49 2.67722 0.240531 0
M  V30 9470 C 899.761 2.7804 -2.24563 0
M  V30 9471 S 901.32 3.68143 -2.38781 0
M  V30 9472 H 898.138 0.529631 -0.474355 0
M  V30 9473 H 900.74 0.912128 -1.72918 0
M  V30 9474 H 899.444 2.48825 -3.26365 0
M  V30 9475 H 898.975 3.46479 -1.86322 0
M  V30 9476 H 900.99 4.69843 -1.59568 0
M  V30 9477 N 900.163 1.21714 1.00117 0
M  V30 9478 C 901.111 0.976937 2.11089 0
M  V30 9479 C 902.105 -0.0771295 1.69224 0
M  V30 9480 O 903.311 0.0745945 1.79845 0
M  V30 9481 H 899.686 0.298687 0.690138 0
M  V30 9482 H 901.657 1.91881 2.28526 0
M  V30 9483 C 900.406 0.562369 3.43122 0
M  V30 9484 H 899.729 1.36509 3.75773 0
M  V30 9485 H 901.169 0.433642 4.21777 0
M  V30 9486 C 899.628 -0.727148 3.28959 0
M  V30 9487 O 900.158 -1.78171 3.60025 0
M  V30 9488 N 898.364 -0.695129 2.82164 0
M  V30 9489 H 897.911 0.163346 2.57082 0
M  V30 9490 H 897.869 -1.55822 2.73069 0
M  V30 9491 N 901.641 -1.19671 1.02551 0
M  V30 9492 C 902.604 -2.20987 0.608055 0
M  V30 9493 C 903.604 -1.5745 -0.326534 0
M  V30 9494 O 904.794 -1.73827 -0.114003 0
M  V30 9495 C 901.926 -3.4072 -0.11074 0
M  V30 9496 H 903.119 -2.59434 1.50446 0
M  V30 9497 H 900.672 -1.3329 0.816307 0
M  V30 9498 H 901.407 -3.07787 -1.02165 0
M  V30 9499 H 901.192 -3.88069 0.560772 0
M  V30 9500 H 902.682 -4.15776 -0.389848 0
M  V30 9501 N 903.119 -0.802921 -1.35613 0
M  V30 9502 C 904.367 -0.380822 -1.9848 0
M  V30 9503 C 904.688 1.05464 -1.6402 0
M  V30 9504 O 903.958 1.72908 -0.920854 0
M  V30 9505 H 902.538 -0.137824 -0.734176 0
M  V30 9506 H 905.2 -1.02795 -1.65587 0
M  V30 9507 H 904.296 -0.483565 -3.08331 0
M  V30 9508 N 904.597 1.47463 -0.556102 0
M  V30 9509 C 905.822 2.07371 -0.0344729 0
M  V30 9510 C 906.247 1.40621 1.2493 0
M  V30 9511 O 905.605 0.48082 1.74808 0
M  V30 9512 C 905.653 3.60306 0.145563 0
M  V30 9513 O 904.757 3.94299 1.20839 0
M  V30 9514 H 904.098 0.662052 -0.0508274 0
M  V30 9515 H 906.628 1.89498 -0.771469 0
M  V30 9516 H 906.638 4.06408 0.360112 0
M  V30 9517 H 905.313 4.08288 -0.792089 0
M  V30 9518 H 903.89 3.59944 0.97442 0
M  V30 9519 N 906.075 0.2925 1.54862 0
M  V30 9520 C 906.985 -0.597036 2.26876 0
M  V30 9521 C 908.001 -1.15558 1.30086 0
M  V30 9522 O 909.177 -1.18217 1.63054 0
M  V30 9523 C 906.242 -1.75664 2.98903 0
M  V30 9524 C 905.303 -1.23303 4.11212 0
M  V30 9525 C 904.536 -2.33736 4.79795 0
M  V30 9526 O 904.759 -3.53459 4.47686 0
M  V30 9527 O 903.693 -2.00908 5.67379 0
M  V30 9528 H 907.519 -0.0131242 3.03697 0
M  V30 9529 H 905.104 0.0592642 1.49282 0
M  V30 9530 H 906.986 -2.43241 3.4411 0
M  V30 9531 H 905.661 -2.32731 2.24984 0
M  V30 9532 H 904.568 -0.523222 3.70423 0
M  V30 9533 H 905.901 -0.707887 4.87083 0
M  V30 9534 N 907.553 -1.57587 0.0200696 0
M  V30 9535 C 908.483 -2.12702 -0.963333 0
M  V30 9536 C 909.464 -1.04094 -1.34531 0
M  V30 9537 O 910.649 -1.31881 -1.42552 0
M  V30 9538 C 907.779 -2.64673 -2.24868 0
M  V30 9539 C 906.733 -3.77987 -2.00772 0
M  V30 9540 C 906.059 -4.16351 -3.35494 0
M  V30 9541 C 907.359 -5.0444 -1.35416 0
M  V30 9542 H 909.053 -2.95121 -0.504363 0
M  V30 9543 H 906.599 -1.41966 -0.24116 0
M  V30 9544 H 908.552 -3.01862 -2.94036 0
M  V30 9545 H 907.276 -1.79403 -2.72914 0
M  V30 9546 H 905.935 -3.41223 -1.34025 0
M  V30 9547 H 905.583 -3.28075 -3.81282 0
M  V30 9548 H 905.283 -4.92705 -3.20181 0
M  V30 9549 H 906.807 -4.56115 -4.05945 0
M  V30 9550 H 908.221 -5.39273 -1.94571 0
M  V30 9551 H 906.618 -5.85732 -1.30529 0
M  V30 9552 H 907.688 -4.83803 -0.325923 0
M  V30 9553 N 909.032 0.252966 -1.55557 0
M  V30 9554 C 909.995 1.29645 -1.8901 0
M  V30 9555 C 910.995 1.41378 -0.766096 0
M  V30 9556 O 912.185 1.40183 -1.03414 0
M  V30 9557 C 909.317 2.67504 -2.11316 0
M  V30 9558 H 910.51 1.01202 -2.82309 0
M  V30 9559 H 908.063 0.491977 -1.48355 0
M  V30 9560 H 908.798 3.01095 -1.20466 0
M  V30 9561 H 908.583 2.6037 -2.93172 0
M  V30 9562 H 910.073 3.42861 -2.38403 0
M  V30 9563 N 910.51 1.48831 0.518367 0
M  V30 9564 C 911.759 1.5669 1.27008 0
M  V30 9565 C 912.072 0.250934 1.93984 0
M  V30 9566 O 913.278 0.207884 2.70703 0
M  V30 9567 C 911.734 2.76387 2.30517 0
M  V30 9568 C 911.342 4.14673 1.69559 0
M  V30 9569 C 913.086 2.93566 3.06625 0
M  V30 9570 C 910.993 5.25616 2.71076 0
M  V30 9571 H 909.923 0.583362 0.477708 0
M  V30 9572 H 912.574 1.75187 0.546052 0
M  V30 9573 H 910.956 2.51348 3.06006 0
M  V30 9574 H 912.13 4.49779 1.00179 0
M  V30 9575 H 910.445 4.02708 1.05902 0
M  V30 9576 H 913.042 3.7362 3.82508 0
M  V30 9577 H 913.385 2.03462 3.63193 0
M  V30 9578 H 913.918 3.18562 2.38251 0
M  V30 9579 H 910.657 6.17723 2.19313 0
M  V30 9580 H 910.177 4.94985 3.38748 0
M  V30 9581 H 911.856 5.5422 3.3384 0
M  V30 9582 N 911.988 -0.768124 1.37614 0
M  V30 9583 C 912.918 -1.89537 1.36374 0
M  V30 9584 C 913.899 -1.68513 0.231803 0
M  V30 9585 O 915.084 -1.89318 0.432705 0
M  V30 9586 C 912.214 -3.26871 1.17358 0
M  V30 9587 C 911.168 -3.62466 2.27602 0
M  V30 9588 C 910.494 -4.9838 1.93705 0
M  V30 9589 C 911.794 -3.68841 3.69802 0
M  V30 9590 H 913.488 -1.90832 2.30702 0
M  V30 9591 H 911.034 -0.91672 1.11051 0
M  V30 9592 H 912.987 -4.05371 1.15119 0
M  V30 9593 H 911.711 -3.26018 0.194865 0
M  V30 9594 H 910.37 -2.86276 2.29002 0
M  V30 9595 H 910.018 -4.94071 0.943539 0
M  V30 9596 H 909.718 -5.23165 2.6753 0
M  V30 9597 H 911.242 -5.79276 1.93059 0
M  V30 9598 H 912.656 -4.37485 3.70513 0
M  V30 9599 H 911.053 -4.05126 4.42711 0
M  V30 9600 H 912.123 -2.69415 4.03167 0
M  V30 9601 N 913.466 -1.22244 -0.994698 0
M  V30 9602 C 914.696 -1.07062 -1.76695 0
M  V30 9603 C 915.104 0.381895 -1.85306 0
M  V30 9604 O 914.447 1.27648 -1.32105 0
M  V30 9605 C 914.509 -1.60487 -3.2169 0
M  V30 9606 C 914.173 -3.09079 -3.36629 0
M  V30 9607 C 915.17 -4.06526 -3.24088 0
M  V30 9608 C 912.855 -3.48497 -3.61739 0
M  V30 9609 C 914.849 -5.41377 -3.36437 0
M  V30 9610 C 912.536 -4.83498 -3.73729 0
M  V30 9611 C 913.534 -5.79747 -3.61086 0
M  V30 9612 O 913.222 -7.12297 -3.72678 0
M  V30 9613 H 912.954 -0.375963 -0.561807 0
M  V30 9614 H 915.508 -1.62259 -1.25941 0
M  V30 9615 H 913.738 -0.996957 -3.73628 0
M  V30 9616 H 915.427 -1.40994 -3.80625 0
M  V30 9617 H 916.193 -3.77415 -3.04602 0
M  V30 9618 H 912.072 -2.74106 -3.70657 0
M  V30 9619 H 915.616 -6.16485 -3.26485 0
M  V30 9620 H 911.513 -5.1229 -3.92721 0
M  V30 9621 H 912.281 -7.1985 -3.89562 0
M  V30 9622 N 914.944 1.19125 -1.03184 0
M  V30 9623 C 915.892 2.24492 -0.608781 0
M  V30 9624 C 916.886 1.65529 0.360065 0
M  V30 9625 O 918.092 1.78546 0.22832 0
M  V30 9626 H 914.467 0.73048 -0.178616 0
M  V30 9627 H 916.438 2.5749 -1.50803 0
M  V30 9628 C 915.187 3.47693 0.0215126 0
M  V30 9629 H 914.51 3.93354 -0.715024 0
M  V30 9630 H 915.95 4.23072 0.280429 0
M  V30 9631 C 914.409 3.12088 1.26896 0
M  V30 9632 O 914.939 3.25013 2.36071 0
M  V30 9633 N 913.145 2.66494 1.15886 0
M  V30 9634 H 912.692 2.56176 0.270463 0
M  V30 9635 H 912.65 2.43042 1.99444 0
M  V30 9636 N 916.422 0.810101 1.35185 0
M  V30 9637 C 917.699 0.315235 1.93043 0
M  V30 9638 C 918.079 -1.19567 1.73974 0
M  V30 9639 O 917.427 -1.99682 1.11083 0
M  V30 9640 C 917.637 0.730492 3.41269 0
M  V30 9641 C 918.985 0.721985 4.18417 0
M  V30 9642 O 920.009 0.672258 3.49799 0
M  V30 9643 O 918.868 0.783535 5.40854 0
M  V30 9644 H 915.962 0.0832774 0.822796 0
M  V30 9645 H 918.508 0.894034 1.4424 0
M  V30 9646 H 917.28 1.77169 3.48894 0
M  V30 9647 H 916.903 0.12669 3.97398 0
M  V30 9648 N 917.9 -1.47166 0.563914 0
M  V30 9649 C 919.128 -2.06846 0.0474287 0
M  V30 9650 C 919.543 -1.41557 -1.24928 0
M  V30 9651 O 918.9 -0.514376 -1.75101 0
M  V30 9652 C 918.951 -3.6121 -0.144831 0
M  V30 9653 O 918.672 -4.24052 1.10053 0
M  V30 9654 C 920.173 -4.37773 -0.69783 0
M  V30 9655 H 917.393 -0.669217 0.0488896 0
M  V30 9656 H 919.937 -1.89072 0.779235 0
M  V30 9657 H 918.092 -3.78474 -0.82679 0
M  V30 9658 H 918.506 -5.16677 0.902481 0
M  V30 9659 H 919.98 -5.46438 -0.781616 0
M  V30 9660 H 920.457 -4.04517 -1.71063 0
M  V30 9661 H 921.063 -4.25269 -0.0513516 0
M  V30 9662 N 919.378 -0.300708 -1.54705 0
M  V30 9663 C 920.341 0.562648 -2.22187 0
M  V30 9664 C 921.341 1.06152 -1.20782 0
M  V30 9665 O 922.531 0.957596 -1.45519 0
M  V30 9666 C 919.663 1.77899 -2.908 0
M  V30 9667 H 920.856 -0.0269361 -2.99888 0
M  V30 9668 H 918.409 -0.0515412 -1.56215 0
M  V30 9669 H 919.144 2.40841 -2.17177 0
M  V30 9670 H 918.929 1.42892 -3.65136 0
M  V30 9671 H 920.419 2.39236 -3.42281 0
M  V30 9672 N 920.856 1.57574 -0.0284266 0
M  V30 9673 C 922.102 1.92056 0.651327 0
M  V30 9674 C 922.435 0.905092 1.71819 0
M  V30 9675 O 921.71 -0.0722703 1.94366 0
M  V30 9676 C 921.993 3.37021 1.26841 0
M  V30 9677 C 921.846 4.49304 0.211157 0
M  V30 9678 C 923.165 3.81936 2.18662 0
M  V30 9679 H 920.284 0.698428 0.235304 0
M  V30 9680 H 922.926 1.89807 -0.0855435 0
M  V30 9681 H 921.076 3.39068 1.89644 0
M  V30 9682 H 922.748 4.5939 -0.419379 0
M  V30 9683 H 920.991 4.31317 -0.463445 0
M  V30 9684 H 921.662 5.47764 0.682518 0
M  V30 9685 H 924.138 3.8162 1.65847 0
M  V30 9686 H 923.014 4.84064 2.58792 0
M  V30 9687 H 923.275 3.174 3.07749 0
M  V30 9688 N 922.334 -0.244713 1.55689 0
M  V30 9689 C 923.264 -1.30667 1.93516 0
M  V30 9690 C 924.245 -1.50094 0.800371 0
M  V30 9691 O 925.43 -1.62665 1.06083 0
M  V30 9692 C 922.56 -2.66101 2.23176 0
M  V30 9693 C 921.514 -2.61366 3.38927 0
M  V30 9694 C 920.84 -4.00616 3.54134 0
M  V30 9695 C 922.14 -2.18161 4.74555 0
M  V30 9696 H 923.834 -0.992546 2.82469 0
M  V30 9697 H 921.38 -0.476018 1.35905 0
M  V30 9698 H 923.333 -3.4053 2.48228 0
M  V30 9699 H 922.057 -2.99154 1.31051 0
M  V30 9700 H 920.716 -1.89395 3.13887 0
M  V30 9701 H 920.364 -4.30938 2.59426 0
M  V30 9702 H 920.064 -3.98335 4.31975 0
M  V30 9703 H 921.588 -4.76741 3.8151 0
M  V30 9704 H 923.002 -2.82323 4.98965 0
M  V30 9705 H 921.399 -2.26988 5.55515 0
M  V30 9706 H 922.469 -1.13333 4.7147 0
M  V30 9707 N 923.813 -1.49104 -0.510467 0
M  V30 9708 C 924.723 -1.67792 -1.6396 0
M  V30 9709 C 925.739 -0.560454 -1.64727 0
M  V30 9710 O 926.915 -0.833985 -1.83321 0
M  V30 9711 C 923.98 -1.73154 -3.00364 0
M  V30 9712 C 923.041 -2.9667 -3.10299 0
M  V30 9713 C 922.274 -3.01767 -4.40196 0
M  V30 9714 O 922.497 -2.1472 -5.28443 0
M  V30 9715 O 921.431 -3.94137 -4.54906 0
M  V30 9716 H 925.257 -2.63428 -1.51126 0
M  V30 9717 H 922.842 -1.32734 -0.685719 0
M  V30 9718 H 924.724 -1.79089 -3.81451 0
M  V30 9719 H 923.399 -0.806952 -3.1348 0
M  V30 9720 H 922.306 -2.96257 -2.28435 0
M  V30 9721 H 923.639 -3.88578 -3.02106 0
M  V30 9722 N 925.291 0.760815 -1.38019 0
M  V30 9723 C 926.516 1.55513 -1.37224 0
M  V30 9724 C 926.941 1.88062 0.037611 0
M  V30 9725 O 926.299 1.50042 1.0177 0
M  V30 9726 C 926.347 2.83539 -2.22796 0
M  V30 9727 O 925.451 3.78384 -1.64009 0
M  V30 9728 H 924.792 0.470642 -0.468393 0
M  V30 9729 H 927.322 0.940792 -1.81687 0
M  V30 9730 H 927.332 3.32535 -2.36399 0
M  V30 9731 H 926.007 2.59178 -3.25269 0
M  V30 9732 H 924.584 3.37063 -1.59508 0
M  V30 9733 N 926.769 1.22769 0.988202 0
M  V30 9734 C 927.719 0.969202 2.06375 0
M  V30 9735 C 928.703 -0.0819274 1.60691 0
M  V30 9736 O 929.895 0.129201 1.76528 0
M  V30 9737 C 927.024 0.553919 3.38802 0
M  V30 9738 C 926.11 1.64003 3.91106 0
M  V30 9739 N 926.501 2.86872 4.16579 0
M  V30 9740 C 924.799 1.5128 4.1956 0
M  V30 9741 C 925.5 3.57137 4.5916 0
M  V30 9742 N 924.476 2.84624 4.63131 0
M  V30 9743 H 928.278 1.90247 2.24017 0
M  V30 9744 H 925.792 1.12592 1.17033 0
M  V30 9745 H 927.789 0.350033 4.15428 0
M  V30 9746 H 926.449 -0.37239 3.22558 0
M  V30 9747 H 927.46 3.23254 4.04632 0
M  V30 9748 H 924.137 0.653032 4.12361 0
M  V30 9749 H 925.527 4.62428 4.87452 0
M  V30 9750 N 928.247 -1.18576 1.03814 0
M  V30 9751 C 929.197 -2.20034 0.597409 0
M  V30 9752 C 930.181 -1.56849 -0.358796 0
M  V30 9753 O 931.373 -1.761 -0.178262 0
M  V30 9754 C 928.502 -3.43276 -0.0407965 0
M  V30 9755 C 927.588 -4.13588 0.938404 0
M  V30 9756 N 927.979 -4.59941 2.10447 0
M  V30 9757 C 926.277 -4.3941 0.763853 0
M  V30 9758 C 926.978 -5.1404 2.72282 0
M  V30 9759 N 925.954 -5.05401 2.00176 0
M  V30 9760 H 929.756 -2.53562 1.48606 0
M  V30 9761 H 927.27 -1.34753 0.906384 0
M  V30 9762 H 929.267 -4.15217 -0.374222 0
M  V30 9763 H 927.927 -3.11245 -0.925014 0
M  V30 9764 H 928.938 -4.54471 2.48347 0
M  V30 9765 H 925.615 -4.1744 -0.0704869 0
M  V30 9766 H 927.005 -5.60128 3.71088 0
M  V30 9767 N 929.725 -0.817259 -1.34754 0
M  V30 9768 C 930.688 -0.240611 -2.27934 0
M  V30 9769 C 931.688 0.578219 -1.50044 0
M  V30 9770 O 932.878 0.395148 -1.69659 0
M  V30 9771 C 930.01 0.663318 -3.34384 0
M  V30 9772 H 931.203 -1.06257 -2.80445 0
M  V30 9773 H 928.756 -0.588697 -1.4479 0
M  V30 9774 H 929.491 1.50855 -2.87077 0
M  V30 9775 H 929.276 0.0777388 -3.92023 0
M  V30 9776 H 930.766 1.06076 -4.03903 0
M  V30 9777 N 931.203 1.46865 -0.571711 0
M  V30 9778 C 932.166 2.28658 0.157499 0
M  V30 9779 C 933.166 1.37773 0.829172 0
M  V30 9780 O 934.356 1.6026 0.682811 0
M  V30 9781 C 931.488 3.17859 1.23202 0
M  V30 9782 H 932.681 2.94603 -0.561171 0
M  V30 9783 H 930.234 1.52793 -0.329229 0
M  V30 9784 H 930.969 2.56637 1.98262 0
M  V30 9785 H 930.754 3.84762 0.755031 0
M  V30 9786 H 932.244 3.7945 1.74378 0
M  V30 9787 N 932.681 0.308908 1.54543 0
M  V30 9788 C 933.611 -0.556657 2.26768 0
M  V30 9789 C 934.592 -1.13145 1.27013 0
M  V30 9790 O 935.777 -1.15931 1.558 0
M  V30 9791 C 932.907 -1.72481 3.01443 0
M  V30 9792 C 931.861 -1.28001 4.08411 0
M  V30 9793 C 931.187 -2.53395 4.70845 0
M  V30 9794 C 932.487 -0.405497 5.20724 0
M  V30 9795 H 934.181 0.0457618 2.99365 0
M  V30 9796 H 931.727 0.0234495 1.43981 0
M  V30 9797 H 933.68 -2.3365 3.50693 0
M  V30 9798 H 932.404 -2.35359 2.26437 0
M  V30 9799 H 931.063 -0.69133 3.60022 0
M  V30 9800 H 930.711 -3.14604 3.92471 0
M  V30 9801 H 930.411 -2.2433 5.43093 0
M  V30 9802 H 931.935 -3.15352 5.22863 0
M  V30 9803 H 933.349 -0.923076 5.6582 0
M  V30 9804 H 931.746 -0.208282 5.99738 0
M  V30 9805 H 932.816 0.567412 4.81569 0
M  V30 9806 N 934.159 -1.57557 0.0367827 0
M  V30 9807 C 935.122 -2.09591 -0.927589 0
M  V30 9808 C 936.122 -1.01252 -1.24919 0
M  V30 9809 O 937.312 -1.27382 -1.18825 0
M  V30 9810 C 934.444 -2.56816 -2.24184 0
M  V30 9811 H 935.637 -2.96086 -0.476784 0
M  V30 9812 H 933.19 -1.54864 -0.211385 0
M  V30 9813 H 933.925 -1.73673 -2.73876 0
M  V30 9814 H 933.71 -3.35973 -2.0215 0
M  V30 9815 H 935.2 -2.97271 -2.93291 0
M  V30 9816 N 935.637 0.236453 -1.55816 0
M  V30 9817 C 936.884 0.963012 -1.78136 0
M  V30 9818 C 937.212 1.84918 -0.602952 0
M  V30 9819 O 936.467 1.91285 0.413325 0
M  V30 9820 C 936.766 1.84549 -3.06066 0
M  V30 9821 C 936.432 1.11381 -4.36927 0
M  V30 9822 C 935.094 0.911635 -4.72486 0
M  V30 9823 C 937.446 0.596 -5.17781 0
M  V30 9824 C 934.774 0.179515 -5.86425 0
M  V30 9825 C 937.126 -0.122702 -6.32481 0
M  V30 9826 C 935.79 -0.336263 -6.66652 0
M  V30 9827 H 935.06 0.352391 -0.651845 0
M  V30 9828 H 937.707 0.232295 -1.90086 0
M  V30 9829 H 936.012 2.6436 -2.89173 0
M  V30 9830 H 937.709 2.40953 -3.20535 0
M  V30 9831 H 934.299 1.28134 -4.08998 0
M  V30 9832 H 938.483 0.73971 -4.90757 0
M  V30 9833 H 933.739 0.00368224 -6.114 0
M  V30 9834 H 937.913 -0.531516 -6.94369 0
M  V30 9835 H 935.54 -0.905507 -7.54788 0
M  V30 9836 N 937.115 1.49373 0.502552 0
M  V30 9837 C 938.047 1.62045 1.62093 0
M  V30 9838 C 939.06 0.503221 1.54827 0
M  V30 9839 O 940.249 0.775208 1.60788 0
M  V30 9840 C 937.349 1.55971 3.00876 0
M  V30 9841 C 936.522 2.832 3.33341 0
M  V30 9842 C 935.581 2.702 4.51529 0
M  V30 9843 O 934.607 3.44132 4.53389 0
M  V30 9844 N 935.809 1.81642 5.5135 0
M  V30 9845 H 938.574 2.58501 1.51649 0
M  V30 9846 H 936.135 1.46442 0.690396 0
M  V30 9847 H 938.127 1.4493 3.77859 0
M  V30 9848 H 936.697 0.673795 3.05252 0
M  V30 9849 H 935.917 3.08604 2.4527 0
M  V30 9850 H 937.205 3.67551 3.51829 0
M  V30 9851 H 936.603 1.20829 5.52645 0
M  V30 9852 H 935.16 1.76524 6.27441 0
M  V30 9853 N 938.594 -0.753485 1.38421 0
M  V30 9854 C 939.524 -1.8808 1.38377 0
M  V30 9855 C 940.505 -1.68258 0.249664 0
M  V30 9856 O 941.69 -1.88848 0.45276 0
M  V30 9857 C 938.82 -3.25608 1.20818 0
M  V30 9858 C 937.774 -3.60032 2.31433 0
M  V30 9859 C 937.1 -4.96297 1.9898 0
M  V30 9860 C 938.4 -3.64898 3.73694 0
M  V30 9861 H 940.094 -1.88375 2.32713 0
M  V30 9862 H 937.64 -0.90489 1.12017 0
M  V30 9863 H 939.593 -4.04127 1.19412 0
M  V30 9864 H 938.317 -3.25793 0.229433 0
M  V30 9865 H 936.976 -2.83831 2.32025 0
M  V30 9866 H 936.624 -4.93043 0.995889 0
M  V30 9867 H 936.324 -5.20298 2.73063 0
M  V30 9868 H 937.848 -5.77196 1.99193 0
M  V30 9869 H 939.262 -4.33531 3.75132 0
M  V30 9870 H 937.659 -4.00407 4.46983 0
M  V30 9871 H 938.729 -2.65124 4.06002 0
M  V30 9872 N 940.072 -1.23292 -0.981677 0
M  V30 9873 C 941.3 -1.09088 -1.75805 0
M  V30 9874 C 941.715 0.357746 -1.8538 0
M  V30 9875 O 941.072 1.24751 -1.33205 0
M  V30 9876 C 941.123 -1.70885 -3.1856 0
M  V30 9877 O 940.844 -3.10082 -3.09484 0
M  V30 9878 C 942.345 -1.62106 -4.12597 0
M  V30 9879 H 939.565 -0.38184 -0.55176 0
M  V30 9880 H 942.109 -1.63116 -1.23342 0
M  V30 9881 H 940.264 -1.20893 -3.68054 0
M  V30 9882 H 940.678 -3.40039 -3.99342 0
M  V30 9883 H 942.152 -2.10049 -5.10474 0
M  V30 9884 H 942.629 -0.579642 -4.35358 0
M  V30 9885 H 943.235 -2.11457 -3.69007 0
M  V30 9886 N 941.55 1.18024 -1.04442 0
M  V30 9887 C 942.778 1.92032 -0.770161 0
M  V30 9888 C 943.193 1.76391 0.673181 0
M  V30 9889 O 942.55 1.09604 1.45922 0
M  V30 9890 C 942.601 3.43328 -1.13173 0
M  V30 9891 O 942.322 3.5848 -2.51841 0
M  V30 9892 C 943.823 4.34427 -0.882523 0
M  V30 9893 H 941.043 0.609518 -0.280586 0
M  V30 9894 H 943.587 1.49711 -1.39308 0
M  V30 9895 H 941.742 3.83423 -0.553704 0
M  V30 9896 H 942.156 4.52166 -2.65794 0
M  V30 9897 H 943.63 5.39123 -1.18533 0
M  V30 9898 H 944.107 4.3882 0.18257 0
M  V30 9899 H 944.713 4.00035 -1.44403 0
M  V30 9900 N 943.028 0.824394 1.34319 0
M  V30 9901 C 944.276 0.41235 1.97849 0
M  V30 9902 C 944.597 -1.02841 1.65677 0
M  V30 9903 O 943.867 -1.71421 0.948245 0
M  V30 9904 H 942.447 0.149486 0.73189 0
M  V30 9905 H 945.109 1.05416 1.63931 0
M  V30 9906 H 944.205 0.532557 3.07523 0
M  V30 9907 N 944.506 -1.46559 0.579492 0
M  V30 9908 C 945.783 -1.956 -0.00287136 0
M  V30 9909 C 946.163 -1.52215 -1.46266 0
M  V30 9910 O 945.511 -0.771335 -2.15088 0
M  V30 9911 C 945.721 -3.48606 0.165824 0
M  V30 9912 C 947.069 -4.24588 0.0319807 0
M  V30 9913 O 948.093 -3.56075 0.094496 0
M  V30 9914 O 946.952 -5.46396 -0.106386 0
M  V30 9915 H 944.046 -0.825387 -0.0516274 0
M  V30 9916 H 946.592 -1.56858 0.647584 0
M  V30 9917 H 945.364 -3.7306 1.18076 0
M  V30 9918 H 944.987 -3.94169 -0.521212 0
M  V30 9919 N 945.984 -0.3171 -1.54377 0
M  V30 9920 C 947.261 0.341348 -1.92598 0
M  V30 9921 C 947.641 1.70402 -1.24605 0
M  V30 9922 O 946.989 2.25191 -0.387448 0
M  V30 9923 C 947.199 0.440003 -3.46215 0
M  V30 9924 C 948.547 0.703327 -4.18734 0
M  V30 9925 O 949.571 0.523181 -3.52337 0
M  V30 9926 O 948.43 1.05042 -5.3631 0
M  V30 9927 H 945.524 0.193696 -0.803997 0
M  V30 9928 H 948.07 -0.366341 -1.65699 0
M  V30 9929 H 946.842 -0.517299 -3.87866 0
M  V30 9930 H 946.465 1.19553 -3.792 0
M  V30 9931 N 947.462 1.57535 -0.0451378 0
M  V30 9932 C 948.409 2.11176 0.931313 0
M  V30 9933 C 949.379 1.01765 1.31275 0
M  V30 9934 O 950.564 1.29279 1.40327 0
M  V30 9935 C 947.704 2.65639 2.20295 0
M  V30 9936 C 946.817 3.89114 1.87654 0
M  V30 9937 C 945.952 4.31914 3.09232 0
M  V30 9938 C 944.991 5.48105 2.72484 0
M  V30 9939 N 944.128 5.85986 3.86736 0
M  V30 9940 H 948.968 2.94318 0.466986 0
M  V30 9941 H 946.505 1.45462 0.218886 0
M  V30 9942 H 948.463 2.95312 2.94697 0
M  V30 9943 H 947.093 1.85303 2.64316 0
M  V30 9944 H 946.145 3.6607 1.03427 0
M  V30 9945 H 947.457 4.7358 1.56601 0
M  V30 9946 H 946.611 4.63108 3.91939 0
M  V30 9947 H 945.35 3.46247 3.43459 0
M  V30 9948 H 944.355 5.16589 1.88192 0
M  V30 9949 H 945.58 6.35482 2.39455 0
M  V30 9950 H 943.526 5.03273 4.20775 0
M  V30 9951 H 943.443 6.65129 3.5936 0
M  V30 9952 H 944.711 6.21793 4.701 0
M  V30 9953 N 948.94 -0.228186 1.55939 0
M  V30 9954 C 950.18 -0.960695 1.80416 0
M  V30 9955 C 950.544 -1.81795 0.617615 0
M  V30 9956 O 951.745 -2.58369 0.741545 0
M  V30 9957 C 950.016 -1.78298 3.09749 0
M  V30 9958 S 951.575 -2.57203 3.55517 0
M  V30 9959 H 948.393 -0.322825 0.633486 0
M  V30 9960 H 950.995 -0.226852 1.94179 0
M  V30 9961 H 949.699 -1.14323 3.94155 0
M  V30 9962 H 949.23 -2.55924 2.98775 0
M  V30 9963 H 951.245 -3.80632 3.1833 0
M  V30 9964 N 950.418 -1.49637 -0.494624 0
M  V30 9965 C 951.366 -1.6727 -1.61627 0
M  V30 9966 C 952.36 -0.538587 -1.6061 0
M  V30 9967 O 953.566 -0.718411 -1.65042 0
M  V30 9968 H 949.941 -0.527557 -0.535899 0
M  V30 9969 H 951.912 -2.61405 -1.43909 0
M  V30 9970 C 950.661 -1.7624 -2.99725 0
M  V30 9971 H 949.984 -2.62886 -3.01216 0
M  V30 9972 H 951.424 -1.92611 -3.77726 0
M  V30 9973 C 949.883 -0.508632 -3.33038 0
M  V30 9974 O 950.413 0.362828 -4.00058 0
M  V30 9975 N 948.619 -0.369667 -2.88239 0
M  V30 9976 H 948.166 -1.07984 -2.33875 0
M  V30 9977 H 948.124 0.468112 -3.10896 0
M  V30 9978 N 951.896 0.746133 -1.38819 0
M  V30 9979 C 953.145 1.50085 -1.34749 0
M  V30 9980 C 953.458 1.95516 0.0574786 0
M  V30 9981 O 954.664 2.70601 0.22073 0
M  V30 9982 C 953.12 2.71141 -2.36665 0
M  V30 9983 C 952.728 2.32706 -3.82821 0
M  V30 9984 C 954.472 3.49005 -2.41652 0
M  V30 9985 C 952.379 3.50418 -4.76405 0
M  V30 9986 H 951.309 0.563563 -0.500912 0
M  V30 9987 H 953.96 0.814951 -1.6441 0
M  V30 9988 H 952.342 3.4175 -2.00058 0
M  V30 9989 H 953.516 1.69715 -4.28408 0
M  V30 9990 H 951.831 1.67959 -3.81023 0
M  V30 9991 H 954.428 4.36541 -3.08766 0
M  V30 9992 H 954.771 3.90687 -1.43769 0
M  V30 9993 H 955.304 2.85416 -2.77097 0
M  V30 9994 H 952.043 3.13795 -5.75511 0
M  V30 9995 H 951.563 4.12426 -4.35505 0
M  V30 9996 H 953.242 4.16901 -4.94775 0
M  V30 9997 N 953.375 1.23811 0.975125 0
M  V30 9998 C 954.622 1.07336 1.71712 0
M  V30 9999 C 954.95 -0.388954 1.90571 0
M  V30 10000 O 954.205 -1.30409 1.45918 0
M  V30 10001 C 954.504 1.74994 3.11628 0
M  V30 10002 C 954.17 3.24918 3.12632 0
M  V30 10003 C 952.832 3.65822 3.12614 0
M  V30 10004 C 955.184 4.20797 3.07538 0
M  V30 10005 C 952.512 5.01054 3.05224 0
M  V30 10006 C 954.864 5.56027 3.0169 0
M  V30 10007 C 953.528 5.96287 2.99996 0
M  V30 10008 H 952.798 0.392771 0.62834 0
M  V30 10009 H 955.445 1.53815 1.14075 0
M  V30 10010 H 953.75 1.20889 3.72684 0
M  V30 10011 H 955.447 1.5972 3.67819 0
M  V30 10012 H 952.037 2.92359 3.13407 0
M  V30 10013 H 956.221 3.902 3.06688 0
M  V30 10014 H 951.477 5.31454 3.02268 0
M  V30 10015 H 955.651 6.3003 2.96706 0
M  V30 10016 H 953.278 7.01037 2.94025 0
M  V30 10017 N 954.853 -1.17469 1.05066 0
M  V30 10018 C 955.8 -2.21443 0.650512 0
M  V30 10019 C 956.77 -1.62441 -0.346702 0
M  V30 10020 O 957.955 -1.89305 -0.238404 0
M  V30 10021 C 955.095 -3.45087 0.0301014 0
M  V30 10022 C 954.208 -4.18385 1.07599 0
M  V30 10023 C 953.343 -5.29513 0.423038 0
M  V30 10024 C 952.382 -5.94596 1.45333 0
M  V30 10025 N 951.519 -6.97241 0.824623 0
M  V30 10026 H 956.359 -2.55025 1.54163 0
M  V30 10027 H 953.896 -1.25274 0.771032 0
M  V30 10028 H 955.854 -4.15754 -0.347032 0
M  V30 10029 H 954.484 -3.12093 -0.824481 0
M  V30 10030 H 953.536 -3.46446 1.57097 0
M  V30 10031 H 954.848 -4.62899 1.85813 0
M  V30 10032 H 954.002 -6.067 -0.00774975 0
M  V30 10033 H 952.741 -4.86129 -0.391092 0
M  V30 10034 H 951.746 -5.16142 1.89415 0
M  V30 10035 H 952.971 -6.40061 2.26934 0
M  V30 10036 H 950.917 -6.55993 0.0309804 0
M  V30 10037 H 950.834 -7.40059 1.54432 0
M  V30 10038 H 952.102 -7.78375 0.418567 0
M  V30 10039 N 956.331 -0.831506 -1.3388 0
M  V30 10040 C 957.279 -0.247896 -2.31275 0
M  V30 10041 C 958.273 0.616083 -1.578 0
M  V30 10042 O 959.479 0.506465 -1.72728 0
M  V30 10043 H 955.854 -0.0614293 -0.749487 0
M  V30 10044 H 957.825 -1.08401 -2.78014 0
M  V30 10045 C 956.574 0.568434 -3.43022 0
M  V30 10046 H 955.897 -0.0870654 -3.99705 0
M  V30 10047 H 957.337 0.942751 -4.13386 0
M  V30 10048 C 955.796 1.74431 -2.88228 0
M  V30 10049 O 956.326 2.84278 -2.83811 0
M  V30 10050 N 954.532 1.56382 -2.44935 0
M  V30 10051 H 954.079 0.670255 -2.48727 0
M  V30 10052 H 954.037 2.35208 -2.08625 0
M  V30 10053 N 957.809 1.4625 -0.587256 0
M  V30 10054 C 958.742 2.27392 0.191837 0
M  V30 10055 C 959.72 1.35905 0.89267 0
M  V30 10056 O 960.904 1.65319 0.905643 0
M  V30 10057 C 958.031 3.13758 1.27567 0
M  V30 10058 C 957.077 4.21041 0.680186 0
M  V30 10059 S 957.91 5.33194 -0.496419 0
M  V30 10060 C 959.066 6.23127 0.588506 0
M  V30 10061 H 959.299 2.93123 -0.496635 0
M  V30 10062 H 956.832 1.49795 -0.37426 0
M  V30 10063 H 958.79 3.6408 1.8962 0
M  V30 10064 H 957.451 2.47332 1.93612 0
M  V30 10065 H 956.644 4.81316 1.49503 0
M  V30 10066 H 956.246 3.73755 0.135227 0
M  V30 10067 H 958.538 6.61294 1.47298 0
M  V30 10068 H 959.481 7.08096 0.0224093 0
M  V30 10069 H 959.889 5.57365 0.894696 0
M  V30 10070 N 959.287 0.325282 1.54207 0
M  V30 10071 C 960.197 -0.548778 2.28091 0
M  V30 10072 C 961.213 -1.12772 1.32508 0
M  V30 10073 O 962.389 -1.14732 1.65525 0
M  V30 10074 C 959.454 -1.69284 3.02562 0
M  V30 10075 C 958.515 -1.14553 4.13734 0
M  V30 10076 C 957.748 -2.23506 4.84645 0
M  V30 10077 O 957.971 -3.43884 4.55082 0
M  V30 10078 O 956.905 -1.88828 5.71513 0
M  V30 10079 H 960.731 0.0512974 3.03657 0
M  V30 10080 H 958.316 0.0909159 1.49123 0
M  V30 10081 H 960.198 -2.35887 3.49192 0
M  V30 10082 H 958.873 -2.27906 2.2987 0
M  V30 10083 H 957.78 -0.444532 3.71449 0
M  V30 10084 H 959.113 -0.60441 4.88475 0
M  V30 10085 N 960.765 -1.57509 0.0534917 0
M  V30 10086 C 962.181 -1.56696 -0.303067 0
M  V30 10087 C 962.381 -1.06135 -1.71282 0
M  V30 10088 O 961.437 -0.71899 -2.42047 0
M  V30 10089 C 962.75 -3.00421 -0.129418 0
M  V30 10090 C 964.298 -3.12358 -0.200346 0
M  V30 10091 C 964.773 -4.57967 -0.0551971 0
M  V30 10092 N 966.264 -4.63066 -0.111398 0
M  V30 10093 C 966.999 -5.73395 -0.0232344 0
M  V30 10094 N 966.495 -6.92701 0.11741 0
M  V30 10095 N 968.288 -5.62045 -0.078984 0
M  V30 10096 H 960.439 -1.88696 0.975064 0
M  V30 10097 H 962.702 -0.869072 0.378706 0
M  V30 10098 H 962.408 -3.41456 0.842653 0
M  V30 10099 H 962.282 -3.66563 -0.889476 0
M  V30 10100 H 964.669 -2.71221 -1.16289 0
M  V30 10101 H 964.75 -2.48891 0.590506 0
M  V30 10102 H 964.394 -4.9979 0.904034 0
M  V30 10103 H 964.324 -5.19443 -0.865223 0
M  V30 10104 H 966.815 -3.77263 -0.219256 0
M  V30 10105 H 967.128 -7.72597 0.177326 0
M  V30 10106 H 965.473 -6.94833 0.152526 0
M  V30 10107 H 968.664 -4.67725 -0.187434 0
M  V30 10108 H 968.837 -6.48 -0.00681731 0
M  V30 10109 N 962.243 0.219913 -1.56058 0
M  V30 10110 C 963.191 1.29215 -1.93407 0
M  V30 10111 C 964.185 1.48434 -0.816307 0
M  V30 10112 O 965.391 1.49589 -1.00115 0
M  V30 10113 H 961.766 0.433256 -0.614649 0
M  V30 10114 H 963.737 0.949977 -2.82875 0
M  V30 10115 C 962.486 2.63501 -2.26854 0
M  V30 10116 H 961.809 2.4952 -3.12377 0
M  V30 10117 H 963.249 3.37334 -2.56869 0
M  V30 10118 C 961.708 3.18634 -1.09425 0
M  V30 10119 O 962.238 4.00117 -0.356243 0
M  V30 10120 N 960.444 2.7703 -0.877642 0
M  V30 10121 H 959.991 2.10875 -1.47951 0
M  V30 10122 H 959.949 3.1426 -0.0936792 0
M  V30 10123 N 963.721 1.49897 0.486681 0
M  V30 10124 C 964.998 1.50614 1.24799 0
M  V30 10125 C 965.378 0.24193 2.09709 0
M  V30 10126 O 964.726 -0.775237 2.14947 0
M  V30 10127 C 964.936 2.79318 2.09243 0
M  V30 10128 C 966.284 3.29371 2.67955 0
M  V30 10129 O 967.308 2.80533 2.19499 0
M  V30 10130 O 966.167 4.14466 3.56202 0
M  V30 10131 H 963.261 0.603447 0.565491 0
M  V30 10132 H 965.807 1.62174 0.499778 0
M  V30 10133 H 964.579 3.62812 1.46572 0
M  V30 10134 H 964.202 2.70687 2.91229 0
M  V30 10135 N 965.199 -0.738761 1.39212 0
M  V30 10136 C 966.429 -1.5258 1.39295 0
M  V30 10137 C 966.837 -1.89194 -0.0153 0
M  V30 10138 O 966.18 -1.5435 -0.996073 0
M  V30 10139 C 966.242 -2.84462 2.19822 0
M  V30 10140 C 965.906 -2.70303 3.68491 0
M  V30 10141 C 966.903 -2.39102 4.61656 0
M  V30 10142 C 964.588 -2.87291 4.1203 0
M  V30 10143 C 966.582 -2.25066 5.96342 0
M  V30 10144 C 964.269 -2.72874 5.46793 0
M  V30 10145 C 965.267 -2.41807 6.38763 0
M  V30 10146 O 964.955 -2.27475 7.71045 0
M  V30 10147 H 964.687 -0.478236 0.477772 0
M  V30 10148 H 967.241 -0.920846 1.83602 0
M  V30 10149 H 965.471 -3.47202 1.70257 0
M  V30 10150 H 967.16 -3.46058 2.12129 0
M  V30 10151 H 967.926 -2.25632 4.2932 0
M  V30 10152 H 963.805 -3.10466 3.40781 0
M  V30 10153 H 967.349 -2.00739 6.68094 0
M  V30 10154 H 963.246 -2.85922 5.78722 0
M  V30 10155 H 964.014 -2.42574 7.81729 0
M  V30 10156 N 966.677 -1.24326 -0.968545 0
M  V30 10157 C 968.093 -1.00847 -1.23701 0
M  V30 10158 C 968.293 0.283235 -1.99499 0
M  V30 10159 O 967.349 0.999607 -2.31871 0
M  V30 10160 C 968.662 -2.22295 -2.02498 0
M  V30 10161 C 970.21 -2.26911 -2.15593 0
M  V30 10162 C 970.685 -3.47978 -2.97784 0
M  V30 10163 N 972.176 -3.48289 -3.05367 0
M  V30 10164 C 972.911 -4.38625 -3.69318 0
M  V30 10165 N 972.407 -5.39213 -4.34995 0
M  V30 10166 N 974.2 -4.26339 -3.66322 0
M  V30 10167 H 966.351 -2.07335 -0.461087 0
M  V30 10168 H 968.614 -0.909805 -0.26638 0
M  V30 10169 H 968.32 -3.161 -1.54188 0
M  V30 10170 H 968.194 -2.24344 -3.03232 0
M  V30 10171 H 970.581 -1.33639 -2.63106 0
M  V30 10172 H 970.662 -2.28888 -1.14209 0
M  V30 10173 H 970.306 -4.41564 -2.50965 0
M  V30 10174 H 970.236 -3.43244 -3.99364 0
M  V30 10175 H 972.727 -2.75517 -2.58648 0
M  V30 10176 H 973.04 -6.04378 -4.81608 0
M  V30 10177 H 971.385 -5.43101 -4.33667 0
M  V30 10178 H 974.576 -3.46991 -3.14189 0
M  V30 10179 H 974.749 -4.9694 -4.15878 0
M  V30 10180 N 968.156 1.1691 -1.05688 0
M  V30 10181 C 969.384 1.91204 -0.790485 0
M  V30 10182 C 969.799 1.77095 0.654434 0
M  V30 10183 O 969.156 1.11146 1.44751 0
M  V30 10184 C 969.207 3.42108 -1.16808 0
M  V30 10185 O 968.928 3.55788 -2.55629 0
M  V30 10186 C 970.429 4.33466 -0.92855 0
M  V30 10187 H 967.649 0.606508 -0.287035 0
M  V30 10188 H 970.193 1.48225 -1.40888 0
M  V30 10189 H 968.348 3.82814 -0.59434 0
M  V30 10190 H 968.762 4.49321 -2.70575 0
M  V30 10191 H 970.236 5.37836 -1.24245 0
M  V30 10192 H 970.713 4.38989 0.136016 0
M  V30 10193 H 971.319 3.98481 -1.48638 0
M  V30 10194 N 969.634 0.838594 1.33437 0
M  V30 10195 C 970.564 0.286672 2.31734 0
M  V30 10196 C 971.545 -0.605451 1.5896 0
M  V30 10197 O 972.73 -0.529059 1.86854 0
M  V30 10198 C 969.86 -0.539311 3.43087 0
M  V30 10199 C 968.814 0.256997 4.27228 0
M  V30 10200 C 968.14 -0.692718 5.30194 0
M  V30 10201 C 969.44 1.47391 5.01072 0
M  V30 10202 H 971.134 1.10798 2.78144 0
M  V30 10203 H 968.68 0.534235 1.33723 0
M  V30 10204 H 970.633 -0.935724 4.1088 0
M  V30 10205 H 969.357 -1.39383 2.95364 0
M  V30 10206 H 968.016 0.634967 3.61059 0
M  V30 10207 H 967.664 -1.54363 4.78729 0
M  V30 10208 H 967.364 -0.164023 5.87371 0
M  V30 10209 H 968.888 -1.08665 6.00853 0
M  V30 10210 H 970.302 1.15067 5.61634 0
M  V30 10211 H 968.699 1.93937 5.67898 0
M  V30 10212 H 969.769 2.24382 4.29861 0
M  V30 10213 N 971.112 -1.45937 0.595003 0
M  V30 10214 C 972.528 -1.57507 0.257641 0
M  V30 10215 C 972.728 -1.58829 -1.23998 0
M  V30 10216 O 971.784 -1.51183 -2.02237 0
M  V30 10217 C 973.097 -2.86354 0.917708 0
M  V30 10218 C 974.645 -3.00007 0.892446 0
M  V30 10219 C 975.12 -4.31607 1.53229 0
M  V30 10220 N 976.611 -4.38336 1.49719 0
M  V30 10221 C 977.346 -5.38805 1.96154 0
M  V30 10222 N 976.842 -6.45882 2.50617 0
M  V30 10223 N 978.635 -5.30084 1.86997 0
M  V30 10224 H 970.786 -1.43322 1.56756 0
M  V30 10225 H 973.049 -0.684436 0.655936 0
M  V30 10226 H 972.755 -2.91233 1.97171 0
M  V30 10227 H 972.629 -3.74703 0.433344 0
M  V30 10228 H 975.016 -2.94703 -0.152975 0
M  V30 10229 H 975.097 -2.13103 1.41495 0
M  V30 10230 H 974.741 -4.3767 2.57697 0
M  V30 10231 H 974.671 -5.17308 0.984903 0
M  V30 10232 H 977.162 -3.6156 1.09921 0
M  V30 10233 H 977.475 -7.18774 2.83874 0
M  V30 10234 H 975.82 -6.46668 2.54649 0
M  V30 10235 H 979.011 -4.45337 1.44196 0
M  V30 10236 H 979.184 -6.08237 2.23499 0
M  V30 10237 N 972.59 -0.333456 -1.54032 0
M  V30 10238 C 973.522 0.562174 -2.22199 0
M  V30 10239 C 974.535 1.07202 -1.22522 0
M  V30 10240 O 975.724 0.983897 -1.48935 0
M  V30 10241 C 972.824 1.78525 -2.88066 0
M  V30 10242 C 971.997 1.41242 -4.13968 0
M  V30 10243 C 971.056 2.49408 -4.63338 0
M  V30 10244 O 970.082 2.13138 -5.27789 0
M  V30 10245 N 971.284 3.805 -4.38406 0
M  V30 10246 H 974.049 -0.0215629 -2.99692 0
M  V30 10247 H 971.61 -0.157111 -1.61136 0
M  V30 10248 H 973.602 2.50298 -3.18014 0
M  V30 10249 H 972.172 2.2766 -2.14219 0
M  V30 10250 H 971.392 0.525887 -3.90676 0
M  V30 10251 H 972.68 1.13916 -4.95884 0
M  V30 10252 H 972.078 4.12761 -3.86839 0
M  V30 10253 H 970.635 4.48474 -4.72984 0
M  V30 10254 N 974.068 1.57479 -0.061844 0
M  V30 10255 C 975.316 1.92727 0.608336 0
M  V30 10256 C 975.637 0.941799 1.70749 0
M  V30 10257 O 974.907 -0.0116608 1.95897 0
M  V30 10258 H 973.487 0.71145 0.2277 0
M  V30 10259 H 976.149 1.94546 -0.117359 0
M  V30 10260 H 975.245 2.9426 1.04007 0
M  V30 10261 N 975.546 -0.211634 1.56173 0
M  V30 10262 C 976.795 -0.932647 1.78842 0
M  V30 10263 C 977.108 -1.85103 0.63217 0
M  V30 10264 O 978.314 -2.61143 0.742746 0
M  V30 10265 C 976.77 -1.70866 3.16753 0
M  V30 10266 C 976.378 -0.835934 4.40132 0
M  V30 10267 C 978.122 -2.4203 3.48743 0
M  V30 10268 C 976.029 -1.60987 5.69067 0
M  V30 10269 H 974.959 -0.351983 0.666801 0
M  V30 10270 H 977.61 -0.186284 1.82552 0
M  V30 10271 H 975.992 -2.4983 3.07247 0
M  V30 10272 H 977.166 -0.0861298 4.60719 0
M  V30 10273 H 975.481 -0.235941 4.15731 0
M  V30 10274 H 978.078 -3.00453 4.42303 0
M  V30 10275 H 978.421 -3.15406 2.71707 0
M  V30 10276 H 978.954 -1.70048 3.59623 0
M  V30 10277 H 975.693 -0.9192 6.49023 0
M  V30 10278 H 975.213 -2.33403 5.52524 0
M  V30 10279 H 976.892 -2.16798 6.09596 0
M  V30 10280 N 977.024 -1.50153 -0.478725 0
M  V30 10281 C 978.273 -1.60002 -1.22809 0
M  V30 10282 C 978.586 -0.302277 -1.9325 0
M  V30 10283 O 979.792 -0.279583 -2.70057 0
M  V30 10284 C 978.248 -2.82402 -2.23108 0
M  V30 10285 C 977.856 -4.19023 -1.58505 0
M  V30 10286 C 979.6 -3.01593 -2.98734 0
M  V30 10287 C 977.507 -5.32618 -2.57045 0
M  V30 10288 H 976.437 -0.595822 -0.462073 0
M  V30 10289 H 979.088 -1.76573 -0.499412 0
M  V30 10290 H 977.47 -2.59373 -2.99235 0
M  V30 10291 H 978.644 -4.52277 -0.882187 0
M  V30 10292 H 976.959 -4.05374 -0.951877 0
M  V30 10293 H 979.556 -3.8363 -3.72468 0
M  V30 10294 H 979.899 -2.1302 -3.57671 0
M  V30 10295 H 980.432 -3.24766 -2.29721 0
M  V30 10296 H 977.171 -6.23321 -2.02858 0
M  V30 10297 H 976.691 -5.03792 -3.25505 0
M  V30 10298 H 978.37 -5.62877 -3.19028 0
M  V30 10299 N 978.502 0.731368 -1.39602 0
M  V30 10300 C 979.779 1.48308 -1.27531 0
M  V30 10301 C 980.159 2.10795 0.113482 0
M  V30 10302 O 979.507 1.98886 1.12501 0
M  V30 10303 C 979.717 2.53156 -2.40235 0
M  V30 10304 C 981.065 3.19436 -2.79725 0
M  V30 10305 O 982.089 2.6347 -2.39712 0
M  V30 10306 O 980.948 4.20714 -3.48801 0
M  V30 10307 H 978.042 0.658753 -0.499973 0
M  V30 10308 H 980.588 0.764884 -1.51485 0
M  V30 10309 H 979.36 2.05387 -3.33064 0
M  V30 10310 H 978.983 3.3253 -2.17966 0
M  V30 10311 N 979.98 1.24838 0.961938 0
M  V30 10312 C 980.913 0.989041 2.05653 0
M  V30 10313 C 981.891 -0.079199 1.62407 0
M  V30 10314 O 983.075 0.0589397 1.88408 0
M  V30 10315 C 980.202 0.493661 3.35083 0
M  V30 10316 C 979.248 1.55132 3.97286 0
M  V30 10317 S 980.081 3.13438 4.34185 0
M  V30 10318 C 981.237 2.65617 5.66744 0
M  V30 10319 H 981.47 1.91588 2.27335 0
M  V30 10320 H 979.003 1.08287 1.10061 0
M  V30 10321 H 980.961 0.214482 4.09939 0
M  V30 10322 H 979.622 -0.412559 3.11379 0
M  V30 10323 H 978.815 1.15525 4.90581 0
M  V30 10324 H 978.417 1.78081 3.28882 0
M  V30 10325 H 980.709 2.08788 6.44526 0
M  V30 10326 H 981.652 3.57524 6.11214 0
M  V30 10327 H 982.06 2.05853 5.25628 0
M  V30 10328 N 981.458 -1.16348 1.06306 0
M  V30 10329 C 982.704 -1.87158 0.781007 0
M  V30 10330 C 983.037 -1.81499 -0.690784 0
M  V30 10331 O 982.312 -1.23074 -1.50609 0
M  V30 10332 C 982.595 -3.3672 1.27639 0
M  V30 10333 C 982.448 -3.51069 2.81194 0
M  V30 10334 C 983.767 -4.31122 0.884388 0
M  V30 10335 H 980.886 -0.679586 0.285187 0
M  V30 10336 H 983.528 -1.36756 1.31901 0
M  V30 10337 H 981.678 -3.79775 0.818715 0
M  V30 10338 H 983.35 -3.16952 3.35171 0
M  V30 10339 H 981.593 -2.92976 3.19918 0
M  V30 10340 H 982.264 -4.56105 3.10921 0
M  V30 10341 H 984.74 -3.95969 1.27858 0
M  V30 10342 H 983.616 -5.34279 1.25847 0
M  V30 10343 H 983.877 -4.41598 -0.210673 0
M  V30 10344 N 982.937 -0.845659 -1.3299 0
M  V30 10345 C 983.867 -0.298957 -2.31578 0
M  V30 10346 C 984.848 0.597012 -1.59279 0
M  V30 10347 O 986.033 0.519142 -1.87132 0
M  V30 10348 C 983.163 0.521109 -3.43368 0
M  V30 10349 C 982.117 -0.279651 -4.27085 0
M  V30 10350 C 981.443 0.664591 -5.30554 0
M  V30 10351 C 982.743 -1.50046 -5.00283 0
M  V30 10352 H 984.437 -1.12272 -2.77552 0
M  V30 10353 H 981.983 -0.54132 -1.33438 0
M  V30 10354 H 983.936 0.913921 -4.1137 0
M  V30 10355 H 982.66 1.37815 -2.96099 0
M  V30 10356 H 981.319 -0.654106 -3.60717 0
M  V30 10357 H 980.967 1.51822 -4.79541 0
M  V30 10358 H 980.667 0.132871 -5.8745 0
M  V30 10359 H 982.191 1.05477 -6.01421 0
M  V30 10360 H 983.605 -1.18044 -5.61016 0
M  V30 10361 H 982.002 -1.96946 -5.66862 0
M  V30 10362 H 983.072 -2.26659 -4.28665 0
M  V30 10363 N 984.415 1.45619 -0.602734 0
M  V30 10364 C 985.378 2.28941 0.108962 0
M  V30 10365 C 986.378 1.39501 0.799762 0
M  V30 10366 O 987.568 1.61673 0.648663 0
M  V30 10367 C 984.7 3.204 1.16432 0
M  V30 10368 H 985.893 2.93346 -0.623534 0
M  V30 10369 H 983.446 1.52061 -0.361565 0
M  V30 10370 H 984.181 2.60785 1.92774 0
M  V30 10371 H 983.966 3.86277 0.673248 0
M  V30 10372 H 985.456 3.83063 1.6629 0
M  V30 10373 N 985.893 0.34162 1.53853 0
M  V30 10374 C 987.121 -0.256929 2.05299 0
M  V30 10375 C 987.536 -1.44366 1.21671 0
M  V30 10376 O 986.893 -1.80758 0.251584 0
M  V30 10377 C 986.944 -0.673854 3.55164 0
M  V30 10378 O 986.665 0.465687 4.35618 0
M  V30 10379 C 988.166 -1.33332 4.22773 0
M  V30 10380 H 985.386 -0.0499445 0.669139 0
M  V30 10381 H 987.93 0.493048 1.98467 0
M  V30 10382 H 986.085 -1.37378 3.62224 0
M  V30 10383 H 986.499 0.133723 5.2433 0
M  V30 10384 H 987.973 -1.57582 5.29029 0
M  V30 10385 H 988.45 -2.28628 3.75001 0
M  V30 10386 H 989.056 -0.675489 4.19901 0
M  V30 10387 N 987.371 -1.57444 0.0701946 0
M  V30 10388 C 988.281 -2.16132 -0.912377 0
M  V30 10389 C 989.297 -1.12406 -1.32819 0
M  V30 10390 O 990.473 -1.44665 -1.40121 0
M  V30 10391 C 987.538 -2.71008 -2.16231 0
M  V30 10392 C 986.599 -3.896 -1.80306 0
M  V30 10393 C 985.832 -4.4185 -2.9934 0
M  V30 10394 O 986.055 -3.93106 -4.13309 0
M  V30 10395 O 984.989 -5.33201 -2.7925 0
M  V30 10396 H 988.815 -3.00449 -0.443167 0
M  V30 10397 H 986.4 -1.48617 -0.152786 0
M  V30 10398 H 988.282 -3.06186 -2.8953 0
M  V30 10399 H 986.957 -1.8975 -2.62253 0
M  V30 10400 H 985.864 -3.59277 -1.04264 0
M  V30 10401 H 987.197 -4.72145 -1.39068 0
M  V30 10402 N 988.849 0.203349 -1.56283 0
M  V30 10403 C 989.782 1.27982 -1.88934 0
M  V30 10404 C 990.76 1.44345 -0.748555 0
M  V30 10405 O 991.944 1.59867 -0.998741 0
M  V30 10406 C 989.071 2.64762 -2.11231 0
M  V30 10407 C 988.117 2.65315 -3.33932 0
M  V30 10408 S 988.95 2.17568 -4.8931 0
M  V30 10409 C 990.106 3.56189 -5.14665 0
M  V30 10410 H 990.339 1.00095 -2.79943 0
M  V30 10411 H 987.872 0.406458 -1.48954 0
M  V30 10412 H 989.83 3.43501 -2.2476 0
M  V30 10413 H 988.491 2.89864 -1.20986 0
M  V30 10414 H 987.684 3.6587 -3.46634 0
M  V30 10415 H 987.286 1.94652 -3.19353 0
M  V30 10416 H 989.578 4.52001 -5.0468 0
M  V30 10417 H 990.521 3.48387 -6.16467 0
M  V30 10418 H 990.929 3.50719 -4.42331 0
M  V30 10419 N 990.327 1.50405 0.470755 0
M  V30 10420 C 991.555 1.65168 1.24608 0
M  V30 10421 C 991.97 0.335153 1.85801 0
M  V30 10422 O 991.327 -0.682919 1.69241 0
M  V30 10423 C 991.378 2.74305 2.35455 0
M  V30 10424 O 991.099 4.00854 1.76771 0
M  V30 10425 C 992.6 3.00044 3.26326 0
M  V30 10426 H 989.82 0.555186 0.376842 0
M  V30 10427 H 992.364 1.9663 0.56187 0
M  V30 10428 H 990.519 2.45536 2.99651 0
M  V30 10429 H 990.933 4.61211 2.49769 0
M  V30 10430 H 992.407 3.8007 4.00313 0
M  V30 10431 H 992.884 2.11128 3.85126 0
M  V30 10432 H 993.49 3.30345 2.67866 0
M  V30 10433 N 991.805 -0.723954 1.39988 0
M  V30 10434 C 992.752 -1.83803 1.39589 0
M  V30 10435 C 993.722 -1.64146 0.253996 0
M  V30 10436 O 994.907 -1.85398 0.450793 0
M  V30 10437 C 992.047 -3.21431 1.25604 0
M  V30 10438 C 991.16 -3.52717 2.49429 0
M  V30 10439 C 990.295 -4.79805 2.27949 0
M  V30 10440 C 989.334 -5.03968 3.47394 0
M  V30 10441 N 988.471 -6.22266 3.25161 0
M  V30 10442 H 993.311 -1.83479 2.34818 0
M  V30 10443 H 990.848 -0.896396 1.16633 0
M  V30 10444 H 992.806 -4.00892 1.15504 0
M  V30 10445 H 991.436 -3.21005 0.339986 0
M  V30 10446 H 990.488 -2.67872 2.7009 0
M  V30 10447 H 991.8 -3.66486 3.38363 0
M  V30 10448 H 990.954 -5.67268 2.15155 0
M  V30 10449 H 989.693 -4.68229 1.36428 0
M  V30 10450 H 988.698 -4.14963 3.60674 0
M  V30 10451 H 989.923 -5.17422 4.39831 0
M  V30 10452 H 987.869 -6.11957 2.36314 0
M  V30 10453 H 987.786 -6.36673 4.07656 0
M  V30 10454 H 989.054 -7.12539 3.16083 0
M  V30 10455 N 993.283 -1.25346 -0.955304 0
M  V30 10456 C 994.233 -1.02358 -2.03732 0
M  V30 10457 C 995.217 0.0392941 -1.60852 0
M  V30 10458 O 996.409 -0.175959 -1.76123 0
M  V30 10459 C 993.538 -0.643552 -3.37214 0
M  V30 10460 C 992.624 -1.74315 -3.8662 0
M  V30 10461 N 993.015 -2.97816 -4.08827 0
M  V30 10462 C 991.313 -1.62351 -4.15401 0
M  V30 10463 C 992.014 -3.69185 -4.4953 0
M  V30 10464 N 990.99 -2.96803 -4.55422 0
M  V30 10465 H 994.792 -1.96119 -2.18894 0
M  V30 10466 H 992.306 -1.15655 -1.14007 0
M  V30 10467 H 994.303 -0.460053 -4.14354 0
M  V30 10468 H 992.963 0.286738 -3.23431 0
M  V30 10469 H 993.974 -3.33868 -3.95919 0
M  V30 10470 H 990.651 -0.762133 -4.10485 0
M  V30 10471 H 992.041 -4.7519 -4.7502 0
M  V30 10472 N 994.761 1.15782 -1.06922 0
M  V30 10473 C 996.008 1.86465 -0.789752 0
M  V30 10474 C 996.336 1.82075 0.684022 0
M  V30 10475 O 995.591 1.23576 1.51748 0
M  V30 10476 C 995.89 3.35284 -1.2377 0
M  V30 10477 C 995.556 3.59871 -2.71668 0
M  V30 10478 C 994.218 3.6629 -3.12066 0
M  V30 10479 C 996.57 3.69929 -3.67154 0
M  V30 10480 C 993.898 3.80275 -4.46775 0
M  V30 10481 C 996.25 3.85436 -5.01619 0
M  V30 10482 C 994.914 3.901 -5.41644 0
M  V30 10483 H 994.184 0.682324 -0.288991 0
M  V30 10484 H 996.831 1.36861 -1.33945 0
M  V30 10485 H 995.136 3.87065 -0.607309 0
M  V30 10486 H 996.833 3.88371 -0.998431 0
M  V30 10487 H 993.423 3.55512 -2.39393 0
M  V30 10488 H 997.607 3.64274 -3.37073 0
M  V30 10489 H 992.863 3.8214 -4.77262 0
M  V30 10490 H 997.037 3.92161 -5.75485 0
M  V30 10491 H 994.664 4.00688 -6.46029 0
M  V30 10492 N 996.239 0.8527 1.3254 0
M  V30 10493 C 997.149 0.298744 2.3269 0
M  V30 10494 C 998.165 -0.582418 1.63963 0
M  V30 10495 O 999.341 -0.483253 1.95516 0
M  V30 10496 C 996.406 -0.505453 3.42996 0
M  V30 10497 C 995.467 0.401618 4.27417 0
M  V30 10498 C 994.7 -0.364294 5.32455 0
M  V30 10499 O 994.923 -1.59448 5.47661 0
M  V30 10500 O 993.857 0.268892 6.01299 0
M  V30 10501 H 997.683 1.12843 2.81958 0
M  V30 10502 H 995.268 0.615584 1.36128 0
M  V30 10503 H 997.15 -0.961974 4.10273 0
M  V30 10504 H 995.825 -1.31197 2.95921 0
M  V30 10505 H 994.732 0.906274 3.62957 0
M  V30 10506 H 996.065 1.17327 4.78012 0
M  V30 10507 N 997.718 -1.45297 0.610449 0
M  V30 10508 C 998.668 -2.27639 -0.128194 0
M  V30 10509 C 999.652 -1.37485 -0.835861 0
M  V30 10510 O 1000.84 -1.61454 -0.725378 0
M  V30 10511 C 997.973 -3.24413 -1.123 0
M  V30 10512 C 997.059 -4.22055 -0.416029 0
M  V30 10513 N 997.45 -5.02867 0.543921 0
M  V30 10514 C 995.748 -4.41041 -0.663208 0
M  V30 10515 C 996.449 -5.73728 0.959731 0
M  V30 10516 N 995.425 -5.42756 0.302873 0
M  V30 10517 H 999.227 -2.8752 0.609056 0
M  V30 10518 H 996.741 -1.56484 0.434338 0
M  V30 10519 H 998.738 -3.82139 -1.6666 0
M  V30 10520 H 997.398 -2.66092 -1.86078 0
M  V30 10521 H 998.409 -5.09649 0.920799 0
M  V30 10522 H 995.086 -3.93842 -1.38544 0
M  V30 10523 H 996.476 -6.48666 1.75163 0
M  V30 10524 N 999.196 -0.349774 -1.5367 0
M  V30 10525 C 1000.44 0.245189 -2.01312 0
M  V30 10526 C 1000.77 1.49702 -1.23705 0
M  V30 10527 O 1000.05 1.91742 -0.326371 0
M  V30 10528 C 1000.33 0.553071 -3.55827 0
M  V30 10529 C 1000.19 -0.71129 -4.4414 0
M  V30 10530 C 1001.5 1.36015 -4.18555 0
M  V30 10531 H 998.624 0.0876415 -0.73177 0
M  V30 10532 H 1001.27 -0.471543 -1.84056 0
M  V30 10533 H 999.416 1.16367 -3.70663 0
M  V30 10534 H 1001.09 -1.34913 -4.41131 0
M  V30 10535 H 999.331 -1.33491 -4.1275 0
M  V30 10536 H 1000 -0.45104 -5.50154 0
M  V30 10537 H 1002.48 0.843778 -4.07455 0
M  V30 10538 H 1001.35 1.54432 -5.26728 0
M  V30 10539 H 1001.61 2.36408 -3.73582 0
M  V30 10540 N 1000.67 1.57404 -0.0785433 0
M  V30 10541 C 1001.62 2.14316 0.903949 0
M  V30 10542 C 1002.62 1.08176 1.30362 0
M  V30 10543 O 1003.82 1.26546 1.28008 0
M  V30 10544 H 1000.2 0.685367 0.309477 0
M  V30 10545 H 1002.17 2.95719 0.399081 0
M  V30 10546 C 1000.92 2.72504 2.15956 0
M  V30 10547 H 1000.24 3.53853 1.86087 0
M  V30 10548 H 1001.68 3.15914 2.82798 0
M  V30 10549 C 1000.14 1.6759 2.92259 0
M  V30 10550 O 1000.67 1.10492 3.86205 0
M  V30 10551 N 998.875 1.38467 2.5549 0
M  V30 10552 H 998.422 1.85088 1.79166 0
M  V30 10553 H 998.38 0.685053 3.06846 0
M  V30 10554 N 1002.15 -0.195058 1.56388 0
M  V30 10555 C 1003.1 -1.24175 1.94549 0
M  V30 10556 C 1004.07 -1.45229 0.806089 0
M  V30 10557 O 1005.25 -1.58362 1.06425 0
M  V30 10558 C 1002.39 -2.58145 2.29031 0
M  V30 10559 C 1001.51 -2.44669 3.56035 0
M  V30 10560 C 1000.64 -3.71342 3.7984 0
M  V30 10561 C 999.681 -3.52699 5.0027 0
M  V30 10562 N 998.818 -4.71385 5.20328 0
M  V30 10563 H 1003.66 -0.909319 2.83788 0
M  V30 10564 H 1001.19 -0.437641 1.40439 0
M  V30 10565 H 1003.15 -3.36195 2.4704 0
M  V30 10566 H 1001.78 -2.8943 1.42933 0
M  V30 10567 H 1000.83 -1.57916 3.46073 0
M  V30 10568 H 1002.15 -2.26827 4.44242 0
M  V30 10569 H 1001.3 -4.57832 3.98088 0
M  V30 10570 H 1000.04 -3.92138 2.89964 0
M  V30 10571 H 999.045 -2.64594 4.81944 0
M  V30 10572 H 1000.27 -3.33349 5.91655 0
M  V30 10573 H 998.216 -4.92444 4.33399 0
M  V30 10574 H 998.133 -4.56368 6.02714 0
M  V30 10575 H 999.401 -5.59226 5.43035 0
M  V30 10576 N 1003.63 -1.50653 -0.462772 0
M  V30 10577 C 1004.88 -1.62057 -1.21424 0
M  V30 10578 C 1005.2 -0.324778 -1.91769 0
M  V30 10579 O 1004.46 0.689828 -1.83139 0
M  V30 10580 C 1004.76 -2.75637 -2.27507 0
M  V30 10581 C 1004.42 -4.15826 -1.74354 0
M  V30 10582 C 1003.09 -4.53969 -1.5958 0
M  V30 10583 C 1005.44 -5.03409 -1.35012 0
M  V30 10584 C 1002.77 -5.77427 -1.03899 0
M  V30 10585 C 1005.12 -6.27422 -0.807704 0
M  V30 10586 C 1003.78 -6.6436 -0.646657 0
M  V30 10587 H 1003.05 -0.59301 -0.44432 0
M  V30 10588 H 1005.7 -1.84612 -0.508999 0
M  V30 10589 H 1004 -2.47203 -3.0397 0
M  V30 10590 H 1005.7 -2.81663 -2.85424 0
M  V30 10591 H 1002.29 -3.85739 -1.86823 0
M  V30 10592 H 1006.48 -4.74567 -1.45258 0
M  V30 10593 H 1001.73 -6.04713 -0.901751 0
M  V30 10594 H 1005.91 -6.94644 -0.494234 0
M  V30 10595 H 1003.53 -7.59901 -0.213053 0
M  V30 10596 N 1005.11 0.71652 -1.4037 0
M  V30 10597 C 1006.35 1.47857 -1.38803 0
M  V30 10598 C 1006.69 1.94197 0.0100536 0
M  V30 10599 O 1005.96 1.68093 0.978521 0
M  V30 10600 C 1006.25 2.7053 -2.37667 0
M  V30 10601 C 1006.1 2.3009 -3.86496 0
M  V30 10602 C 1007.42 3.72684 -2.34082 0
M  V30 10603 H 1004.54 0.53632 -0.505499 0
M  V30 10604 H 1007.18 0.817824 -1.71498 0
M  V30 10605 H 1005.33 3.26906 -2.09916 0
M  V30 10606 H 1007 1.79202 -4.2507 0
M  V30 10607 H 1005.24 1.62102 -4.02375 0
M  V30 10608 H 1005.91 3.18018 -4.51186 0
M  V30 10609 H 1008.39 3.25935 -2.58661 0
M  V30 10610 H 1007.27 4.56157 -3.05306 0
M  V30 10611 H 1007.53 4.20916 -1.35213 0
M  V30 10612 N 1006.59 1.25851 0.948643 0
M  V30 10613 C 1007.53 1.06559 2.06756 0
M  V30 10614 C 1008.53 -0.00528632 1.69399 0
M  V30 10615 O 1009.73 0.150806 1.79367 0
M  V30 10616 H 1006.11 0.327689 0.676848 0
M  V30 10617 H 1008.08 2.01401 2.20182 0
M  V30 10618 C 1006.83 0.707392 3.40428 0
M  V30 10619 H 1006.15 1.52324 3.69645 0
M  V30 10620 H 1007.59 0.612142 4.19558 0
M  V30 10621 C 1006.05 -0.58697 3.31747 0
M  V30 10622 O 1006.58 -1.62741 3.67258 0
M  V30 10623 N 1004.79 -0.574828 2.84858 0
M  V30 10624 H 1004.33 0.272236 2.56157 0
M  V30 10625 H 1004.29 -1.441 2.79432 0
M  V30 10626 N 1008.06 -1.15214 1.07534 0
M  V30 10627 C 1009.29 -1.90463 0.820883 0
M  V30 10628 C 1009.71 -1.77578 -0.620305 0
M  V30 10629 O 1009.07 -1.10976 -1.43366 0
M  V30 10630 C 1009.12 -3.38746 1.23627 0
M  V30 10631 O 1008.22 -4.1062 0.382715 0
M  V30 10632 H 1007.57 -0.59292 0.298901 0
M  V30 10633 H 1010.1 -1.45893 1.43445 0
M  V30 10634 H 1010.11 -3.89543 1.21327 0
M  V30 10635 H 1008.78 -3.47443 2.28596 0
M  V30 10636 H 1007.36 -3.69947 0.468374 0
M  V30 10637 N 1009.54 -0.859717 -1.32086 0
M  V30 10638 C 1010.79 -0.461779 -1.96343 0
M  V30 10639 C 1011.1 0.988837 -1.68764 0
M  V30 10640 O 1012.31 1.49244 -2.268 0
M  V30 10641 C 1010.77 -0.77484 -3.5146 0
M  V30 10642 C 1010.37 -2.24153 -3.87891 0
M  V30 10643 C 1012.12 -0.444873 -4.22162 0
M  V30 10644 C 1010.03 -2.49754 -5.36075 0
M  V30 10645 H 1008.96 -0.168951 -0.734828 0
M  V30 10646 H 1011.61 -1.0512 -1.50406 0
M  V30 10647 H 1009.99 -0.114792 -3.95834 0
M  V30 10648 H 1011.16 -2.94378 -3.54511 0
M  V30 10649 H 1009.48 -2.53651 -3.30227 0
M  V30 10650 H 1012.07 -0.613508 -5.31169 0
M  V30 10651 H 1012.42 0.61391 -4.11749 0
M  V30 10652 H 1012.95 -1.06103 -3.83389 0
M  V30 10653 H 1009.69 -3.54276 -5.51515 0
M  V30 10654 H 1009.21 -1.84112 -5.70844 0
M  V30 10655 H 1010.89 -2.3396 -6.03218 0
M  V30 10656 N 1011.02 1.44971 -0.618145 0
M  V30 10657 C 1011.97 2.32354 0.106846 0
M  V30 10658 C 1012.96 1.4659 0.848984 0
M  V30 10659 O 1014.17 1.63012 0.763354 0
M  V30 10660 H 1010.54 0.750108 0.0533109 0
M  V30 10661 H 1012.51 2.9127 -0.648426 0
M  V30 10662 C 1011.26 3.30381 1.08368 0
M  V30 10663 H 1010.59 3.96377 0.52205 0
M  V30 10664 H 1012.03 3.94231 1.56069 0
M  V30 10665 C 1010.49 2.58336 2.1625 0
M  V30 10666 O 1011.02 2.37258 3.24148 0
M  V30 10667 N 1009.22 2.18292 1.91825 0
M  V30 10668 H 1008.77 2.35635 1.04086 0
M  V30 10669 H 1008.73 1.70413 2.6421 0
M  V30 10670 N 1012.5 0.357919 1.53482 0
M  V30 10671 C 1013.45 -0.49217 2.25491 0
M  V30 10672 C 1014.42 -1.08382 1.25867 0
M  V30 10673 O 1015.6 -1.11775 1.54632 0
M  V30 10674 C 1012.74 -1.6299 3.04185 0
M  V30 10675 C 1011.85 -1.06416 4.18688 0
M  V30 10676 C 1010.99 -2.17037 4.84839 0
M  V30 10677 C 1010.03 -1.57889 5.91386 0
M  V30 10678 N 1009.16 -2.6231 6.51259 0
M  V30 10679 H 1014 0.128412 2.97723 0
M  V30 10680 H 1011.54 0.0751423 1.46908 0
M  V30 10681 H 1013.5 -2.29993 3.48079 0
M  V30 10682 H 1012.13 -2.22125 2.34223 0
M  V30 10683 H 1011.18 -0.284635 3.79334 0
M  V30 10684 H 1012.49 -0.591654 4.95279 0
M  V30 10685 H 1011.65 -2.91876 5.31877 0
M  V30 10686 H 1010.39 -2.67636 4.07703 0
M  V30 10687 H 1009.39 -0.815605 5.43717 0
M  V30 10688 H 1010.62 -1.08123 6.70437 0
M  V30 10689 H 1008.56 -3.12137 5.7698 0
M  V30 10690 H 1008.48 -2.19724 7.23365 0
M  V30 10691 H 1009.75 -3.36875 7.02948 0
M  V30 10692 N 1013.98 -1.5736 0.0868897 0
M  V30 10693 C 1015.39 -1.81356 -0.443499 0
M  V30 10694 C 1015.74 -1.00192 -1.68689 0
M  V30 10695 O 1014.86 -0.228863 -2.15186 0
M  V30 10696 C 1015.46 -3.28941 -0.811387 0
M  V30 10697 C 1014.02 -3.53729 -1.28656 0
M  V30 10698 C 1013.16 -2.75891 -0.279153 0
M  V30 10699 H 1016.12 -1.55594 0.312427 0
M  V30 10700 H 1016.14 -3.41815 -1.6716 0
M  V30 10701 H 1015.65 -3.87987 0.0937598 0
M  V30 10702 H 1013.75 -3.00005 -2.2097 0
M  V30 10703 H 1013.86 -4.62396 -1.25406 0
M  V30 10704 H 1012.23 -2.4311 -0.759595 0
M  V30 10705 H 1013.01 -3.37682 0.618529 0
M  V30 10706 N 1015.45 0.186762 -1.56489 0
M  V30 10707 C 1016.38 1.23395 -1.98232 0
M  V30 10708 C 1017.37 1.4702 -0.855526 0
M  V30 10709 O 1018.55 1.58616 -1.12048 0
M  V30 10710 C 1015.68 2.57635 -2.32898 0
M  V30 10711 C 1014.63 2.48607 -3.48394 0
M  V30 10712 C 1013.96 3.87196 -3.68759 0
M  V30 10713 C 1015.26 2.00398 -4.82325 0
M  V30 10714 H 1016.95 0.887026 -2.85958 0
M  V30 10715 H 1014.5 0.42525 -1.37578 0
M  V30 10716 H 1016.45 3.31082 -2.60696 0
M  V30 10717 H 1015.18 2.94084 -1.42064 0
M  V30 10718 H 1013.84 1.77615 -3.207 0
M  V30 10719 H 1013.48 4.21012 -2.75241 0
M  V30 10720 H 1013.18 3.82029 -4.46462 0
M  V30 10721 H 1014.71 4.62253 -3.98941 0
M  V30 10722 H 1016.12 2.6361 -5.091 0
M  V30 10723 H 1014.52 2.06214 -5.63556 0
M  V30 10724 H 1015.59 0.957562 -4.75351 0
M  V30 10725 N 1016.93 1.50896 0.454776 0
M  V30 10726 C 1017.9 1.70377 1.53312 0
M  V30 10727 C 1018.9 0.57408 1.50203 0
M  V30 10728 O 1020.09 0.841374 1.52534 0
M  V30 10729 C 1017.22 1.74411 2.92905 0
M  V30 10730 H 1018.41 2.66599 1.37349 0
M  V30 10731 H 1015.96 1.40622 0.68228 0
M  V30 10732 H 1016.7 0.799408 3.14293 0
M  V30 10733 H 1016.48 2.56496 2.96568 0
M  V30 10734 H 1017.97 1.91382 3.71164 0
M  V30 10735 N 1018.41 -0.709066 1.40748 0
M  V30 10736 C 1019.64 -1.49808 1.42707 0
M  V30 10737 C 1020.05 -1.88778 0.0285574 0
M  V30 10738 O 1019.41 -1.55883 -0.949035 0
M  V30 10739 C 1019.46 -2.76926 2.32366 0
M  V30 10740 O 1019.18 -2.39602 3.66773 0
M  V30 10741 C 1020.68 -3.70773 2.42986 0
M  V30 10742 H 1017.9 -0.462106 0.486517 0
M  V30 10743 H 1020.45 -0.874135 1.84876 0
M  V30 10744 H 1018.6 -3.3559 1.93541 0
M  V30 10745 H 1019.02 -3.21443 4.14457 0
M  V30 10746 H 1020.49 -4.56789 3.09916 0
M  V30 10747 H 1020.97 -4.14332 1.45691 0
M  V30 10748 H 1021.57 -3.18019 2.8239 0
M  V30 10749 N 1019.89 -1.26353 -0.941956 0
M  V30 10750 C 1020.82 -1.10341 -2.05784 0
M  V30 10751 C 1021.8 -0.00881565 -1.70098 0
M  V30 10752 O 1022.99 -0.180699 -1.93357 0
M  V30 10753 C 1020.12 -0.734788 -3.39438 0
M  V30 10754 C 1019.07 -1.78103 -3.89183 0
M  V30 10755 C 1018.4 -1.26675 -5.19478 0
M  V30 10756 C 1019.7 -3.1824 -4.14151 0
M  V30 10757 H 1021.39 -2.03684 -2.19438 0
M  V30 10758 H 1018.94 -0.980698 -1.05443 0
M  V30 10759 H 1020.89 -0.609653 -4.16967 0
M  V30 10760 H 1019.61 0.234354 -3.25758 0
M  V30 10761 H 1018.27 -1.89482 -3.13835 0
M  V30 10762 H 1017.92 -0.287472 -5.02178 0
M  V30 10763 H 1017.62 -1.96612 -5.53731 0
M  V30 10764 H 1019.14 -1.15427 -5.99591 0
M  V30 10765 H 1020.56 -3.09942 -4.82296 0
M  V30 10766 H 1018.95 -3.8576 -4.59684 0
M  V30 10767 H 1020.02 -3.64354 -3.19959 0
M  V30 10768 N 1021.37 1.14642 -1.08144 0
M  V30 10769 C 1022.28 2.23257 -0.720668 0
M  V30 10770 C 1023.29 1.71866 0.271648 0
M  V30 10771 O 1024.47 2.01064 0.116266 0
M  V30 10772 C 1021.53 3.46447 -0.132542 0
M  V30 10773 C 1020.6 4.12789 -1.17913 0
M  V30 10774 C 1019.83 5.30099 -0.618971 0
M  V30 10775 O 1020.05 5.6762 0.562418 0
M  V30 10776 O 1018.99 5.86154 -1.36774 0
M  V30 10777 H 1022.81 2.56463 -1.62667 0
M  V30 10778 H 1020.4 1.22521 -0.854932 0
M  V30 10779 H 1022.28 4.20959 0.19277 0
M  V30 10780 H 1020.95 3.14971 0.746662 0
M  V30 10781 H 1019.86 3.40163 -1.55693 0
M  V30 10782 H 1021.19 4.48365 -2.03051 0
M  V30 10783 N 1022.85 0.866709 1.31628 0
M  V30 10784 C 1023.76 0.323408 2.3236 0
M  V30 10785 C 1024.77 -0.564995 1.64572 0
M  V30 10786 O 1025.95 -0.462489 1.96018 0
M  V30 10787 C 1023.01 -0.469045 3.43513 0
M  V30 10788 C 1022.07 0.446928 4.26967 0
M  V30 10789 C 1021.31 -0.307799 5.32812 0
M  V30 10790 O 1021.53 -1.5363 5.49321 0
M  V30 10791 O 1020.46 0.332653 6.0098 0
M  V30 10792 H 1024.29 1.15827 2.80745 0
M  V30 10793 H 1021.87 0.629987 1.35468 0
M  V30 10794 H 1023.76 -0.918405 4.1127 0
M  V30 10795 H 1022.43 -1.28051 2.97296 0
M  V30 10796 H 1021.34 0.944719 3.61975 0
M  V30 10797 H 1022.67 1.2239 4.76741 0
M  V30 10798 N 1024.32 -1.44642 0.625825 0
M  V30 10799 C 1025.27 -2.32408 -0.0945221 0
M  V30 10800 C 1026.27 -1.47038 -0.841198 0
M  V30 10801 O 1027.47 -1.63415 -0.754698 0
M  V30 10802 H 1023.85 -0.75038 -0.0493321 0
M  V30 10803 H 1025.82 -2.90922 0.663863 0
M  V30 10804 C 1024.57 -3.30951 -1.06615 0
M  V30 10805 H 1023.89 -3.96648 -0.501021 0
M  V30 10806 H 1025.33 -3.95054 -1.53976 0
M  V30 10807 C 1023.79 -2.59479 -2.14877 0
M  V30 10808 O 1024.32 -2.38974 -3.22885 0
M  V30 10809 N 1022.52 -2.19307 -1.90665 0
M  V30 10810 H 1022.07 -2.36184 -1.02835 0
M  V30 10811 H 1022.03 -1.71811 -2.63303 0
M  V30 10812 N 1025.8 -0.366053 -1.5329 0
M  V30 10813 C 1027.05 0.223051 -2.00865 0
M  V30 10814 C 1027.37 1.49244 -1.25504 0
M  V30 10815 O 1026.64 1.92404 -0.368444 0
M  V30 10816 H 1025.22 0.085413 -0.742101 0
M  V30 10817 H 1027.88 -0.492396 -1.88578 0
M  V30 10818 H 1026.98 0.449701 -3.08843 0
M  V30 10819 N 1027.28 1.57312 -0.0952337 0
M  V30 10820 C 1028.19 2.17556 0.877877 0
M  V30 10821 C 1029.21 1.14505 1.31014 0
M  V30 10822 O 1030.38 1.46876 1.37802 0
M  V30 10823 C 1027.45 2.74413 2.11892 0
M  V30 10824 C 1026.51 3.92419 1.74085 0
M  V30 10825 C 1025.74 4.46556 2.92273 0
M  V30 10826 O 1025.96 3.99631 4.07002 0
M  V30 10827 O 1024.9 5.37576 2.70732 0
M  V30 10828 H 1028.72 3.01116 0.395312 0
M  V30 10829 H 1026.31 1.48841 0.129123 0
M  V30 10830 H 1028.19 3.10754 2.84622 0
M  V30 10831 H 1026.87 1.93899 2.59201 0
M  V30 10832 H 1025.77 3.6089 0.985346 0
M  V30 10833 H 1027.11 4.74298 1.31539 0
M  V30 10834 N 1028.76 -0.17846 1.56586 0
M  V30 10835 C 1029.99 -0.911996 1.85715 0
M  V30 10836 C 1030.4 -1.76138 0.679766 0
M  V30 10837 O 1029.76 -1.79088 -0.351266 0
M  V30 10838 C 1029.81 -1.79459 3.1381 0
M  V30 10839 O 1029.53 -0.979476 4.2701 0
M  V30 10840 C 1031.03 -2.6384 3.56235 0
M  V30 10841 H 1028.25 -0.265299 0.616326 0
M  V30 10842 H 1030.79 -0.180704 2.037 0
M  V30 10843 H 1028.95 -2.4793 2.97673 0
M  V30 10844 H 1029.36 -1.58244 5.00059 0
M  V30 10845 H 1030.84 -3.21396 4.48786 0
M  V30 10846 H 1031.31 -3.38363 2.80013 0
M  V30 10847 H 1031.92 -2.00712 3.7496 0
M  V30 10848 N 1030.24 -1.51135 -0.446768 0
M  V30 10849 C 1031.51 -1.5387 -1.20762 0
M  V30 10850 C 1031.89 -0.297446 -2.08994 0
M  V30 10851 O 1031.24 0.717975 -2.16927 0
M  V30 10852 C 1031.45 -2.84767 -2.01764 0
M  V30 10853 C 1032.8 -3.3636 -2.59128 0
M  V30 10854 O 1033.82 -2.86254 -2.11984 0
M  V30 10855 O 1032.68 -4.23765 -3.45088 0
M  V30 10856 H 1029.78 -0.618228 -0.549293 0
M  V30 10857 H 1032.32 -1.63442 -0.456605 0
M  V30 10858 H 1031.09 -3.6657 -1.36901 0
M  V30 10859 H 1030.72 -2.78313 -2.8395 0
M  V30 10860 N 1031.71 0.701592 -1.41122 0
M  V30 10861 C 1032.66 1.81559 -1.42495 0
M  V30 10862 C 1033.63 1.63722 -0.280078 0
M  V30 10863 O 1034.82 1.84658 -0.480231 0
M  V30 10864 C 1031.96 3.19392 -1.30702 0
M  V30 10865 C 1031.07 3.48704 -2.55009 0
M  V30 10866 C 1030.2 4.76118 -2.35554 0
M  V30 10867 C 1029.24 4.98378 -3.55367 0
M  V30 10868 N 1028.38 6.17014 -3.3502 0
M  V30 10869 H 1033.22 1.7972 -2.37707 0
M  V30 10870 H 1030.76 0.877727 -1.18044 0
M  V30 10871 H 1032.71 3.99004 -1.21867 0
M  V30 10872 H 1031.34 3.20423 -0.391012 0
M  V30 10873 H 1030.4 2.63542 -2.74317 0
M  V30 10874 H 1031.71 3.61057 -3.44151 0
M  V30 10875 H 1030.86 5.63774 -2.24152 0
M  V30 10876 H 1029.6 4.66 -1.43859 0
M  V30 10877 H 1028.61 4.09172 -3.6723 0
M  V30 10878 H 1029.83 5.10359 -4.48007 0
M  V30 10879 H 1027.78 6.0812 -2.4602 0
M  V30 10880 H 1027.69 6.30107 -4.17733 0
M  V30 10881 H 1028.96 7.0742 -3.27379 0
M  V30 10882 N 1033.19 1.2685 0.935242 0
M  V30 10883 C 1034.14 1.08746 2.05614 0
M  V30 10884 C 1035.13 0.012681 1.69395 0
M  V30 10885 O 1036.34 0.169822 1.79197 0
M  V30 10886 H 1032.71 0.33485 0.673335 0
M  V30 10887 H 1034.69 2.03725 2.18033 0
M  V30 10888 C 1033.43 0.74346 3.39659 0
M  V30 10889 H 1032.76 1.56236 3.68008 0
M  V30 10890 H 1034.2 0.656607 4.18885 0
M  V30 10891 C 1032.66 -0.551751 3.32351 0
M  V30 10892 O 1033.19 -1.58836 3.68963 0
M  V30 10893 N 1031.39 -0.544583 2.85452 0
M  V30 10894 H 1030.94 0.29939 2.55854 0
M  V30 10895 H 1030.9 -1.41129 2.80945 0
M  V30 10896 N 1034.67 -1.14067 1.0875 0
M  V30 10897 C 1035.6 -2.18926 0.67852 0
M  V30 10898 C 1036.62 -1.60441 -0.276163 0
M  V30 10899 O 1037.8 -1.78388 -0.0632788 0
M  V30 10900 C 1034.9 -3.38893 -0.0218852 0
M  V30 10901 C 1034.08 -4.26901 0.952582 0
M  V30 10902 C 1033.14 -5.25418 0.286859 0
M  V30 10903 O 1032.16 -5.61512 0.932354 0
M  V30 10904 N 1033.36 -5.72476 -0.961831 0
M  V30 10905 H 1036.13 -2.54629 1.58063 0
M  V30 10906 H 1033.69 -1.29321 0.974042 0
M  V30 10907 H 1035.68 -4.01864 -0.478278 0
M  V30 10908 H 1034.25 -3.01486 -0.826141 0
M  V30 10909 H 1033.47 -3.60812 1.58772 0
M  V30 10910 H 1034.76 -4.82563 1.61279 0
M  V30 10911 H 1034.16 -5.45287 -1.50594 0
M  V30 10912 H 1032.72 -6.37418 -1.36166 0
M  V30 10913 N 1036.15 -0.873678 -1.31166 0
M  V30 10914 C 1037.06 -0.335726 -2.32185 0
M  V30 10915 C 1038.07 0.556259 -1.64869 0
M  V30 10916 O 1039.25 0.452087 -1.9626 0
M  V30 10917 C 1036.32 0.450822 -3.43756 0
M  V30 10918 C 1035.38 -0.469565 -4.26724 0
M  V30 10919 C 1034.61 0.279538 -5.32967 0
M  V30 10920 O 1034.83 1.50715 -5.50128 0
M  V30 10921 O 1033.77 -0.36452 -6.00795 0
M  V30 10922 H 1037.59 -1.17314 -2.80127 0
M  V30 10923 H 1035.18 -0.637163 -1.35132 0
M  V30 10924 H 1037.06 0.896582 -4.11752 0
M  V30 10925 H 1035.73 1.26472 -2.9797 0
M  V30 10926 H 1034.64 -0.963902 -3.61469 0
M  V30 10927 H 1035.97 -1.24916 -4.76085 0
M  V30 10928 N 1037.63 1.44308 -0.633487 0
M  V30 10929 C 1038.87 2.02322 -0.139123 0
M  V30 10930 C 1039.21 1.49733 1.23667 0
M  V30 10931 O 1038.48 0.682353 1.82138 0
M  V30 10932 C 1038.76 3.59871 -0.128366 0
M  V30 10933 C 1038.62 4.22737 -1.53667 0
M  V30 10934 C 1039.94 4.36702 0.545834 0
M  V30 10935 H 1037.05 0.735161 -0.0520293 0
M  V30 10936 H 1039.7 1.7185 -0.810411 0
M  V30 10937 H 1037.85 3.85963 0.443263 0
M  V30 10938 H 1039.52 4.07744 -2.15737 0
M  V30 10939 H 1037.76 3.80142 -2.08985 0
M  V30 10940 H 1038.43 5.31757 -1.48116 0
M  V30 10941 H 1040.91 4.16057 0.0596879 0
M  V30 10942 H 1039.78 5.46407 0.522557 0
M  V30 10943 H 1040.05 4.11483 1.6166 0
M  V30 10944 N 1039.1 0.374177 1.53094 0
M  V30 10945 C 1040.35 -0.213981 2.00562 0
M  V30 10946 C 1040.67 -1.4916 1.26533 0
M  V30 10947 O 1041.87 -2.15889 1.64634 0
M  V30 10948 C 1040.33 -0.431876 3.57299 0
M  V30 10949 C 1039.94 0.831615 4.40214 0
M  V30 10950 C 1041.68 -0.977222 4.13099 0
M  V30 10951 C 1039.59 0.582831 5.88521 0
M  V30 10952 H 1038.52 -0.0837386 0.749336 0
M  V30 10953 H 1041.17 0.494245 1.76719 0
M  V30 10954 H 1039.55 -1.20158 3.7733 0
M  V30 10955 H 1040.72 1.60477 4.31953 0
M  V30 10956 H 1039.04 1.30081 3.9556 0
M  V30 10957 H 1041.64 -1.17881 5.21544 0
M  V30 10958 H 1041.98 -1.94189 3.68234 0
M  V30 10959 H 1042.51 -0.267473 3.969 0
M  V30 10960 H 1039.25 1.51807 6.37679 0
M  V30 10961 H 1038.77 -0.151666 5.99608 0
M  V30 10962 H 1040.45 0.211604 6.46654 0
M  V30 10963 N 1040.58 -1.57259 0.103575 0
M  V30 10964 C 1041.53 -2.15727 -0.869739 0
M  V30 10965 C 1042.52 -1.10236 -1.28625 0
M  V30 10966 O 1043.73 -1.28567 -1.25979 0
M  V30 10967 H 1040.11 -0.690204 -0.298535 0
M  V30 10968 H 1042.08 -2.96317 -0.351984 0
M  V30 10969 C 1040.83 -2.75905 -2.11593 0
M  V30 10970 H 1040.15 -3.56768 -1.80434 0
M  V30 10971 H 1041.59 -3.20373 -2.77736 0
M  V30 10972 C 1040.05 -1.72218 -2.89556 0
M  V30 10973 O 1040.58 -1.16623 -3.84398 0
M  V30 10974 N 1038.78 -1.42514 -2.53255 0
M  V30 10975 H 1038.33 -1.87914 -1.76198 0
M  V30 10976 H 1038.29 -0.733782 -3.05717 0
M  V30 10977 N 1042.06 0.170153 -1.56679 0
M  V30 10978 C 1043.29 0.902134 -1.86197 0
M  V30 10979 C 1043.7 1.75775 -0.689098 0
M  V30 10980 O 1043.06 1.79271 0.341763 0
M  V30 10981 C 1043.11 1.77792 -3.14757 0
M  V30 10982 O 1042.83 0.956817 -4.27524 0
M  V30 10983 C 1044.33 2.61947 -3.57629 0
M  V30 10984 H 1041.55 0.262026 -0.617724 0
M  V30 10985 H 1044.1 0.169899 -2.03793 0
M  V30 10986 H 1042.25 2.46348 -2.98984 0
M  V30 10987 H 1042.67 1.5559 -5.00891 0
M  V30 10988 H 1044.14 3.19011 -4.50484 0
M  V30 10989 H 1044.62 3.36873 -2.81803 0
M  V30 10990 H 1045.22 1.98721 -3.76019 0
M  V30 10991 N 1043.54 1.5137 0.438746 0
M  V30 10992 C 1044.47 1.67264 1.55236 0
M  V30 10993 C 1045.45 0.520238 1.54053 0
M  V30 10994 O 1046.63 0.743897 1.73201 0
M  V30 10995 C 1043.76 1.68492 2.93816 0
M  V30 10996 C 1042.81 2.8968 3.1303 0
M  V30 10997 S 1043.64 4.50514 2.89478 0
M  V30 10998 C 1044.8 4.54485 4.30342 0
M  V30 10999 H 1045.03 2.61456 1.4152 0
M  V30 11000 H 1042.56 1.41036 0.628341 0
M  V30 11001 H 1044.52 1.69884 3.73697 0
M  V30 11002 H 1043.18 0.754787 3.04896 0
M  V30 11003 H 1042.37 2.86936 4.14347 0
M  V30 11004 H 1041.98 2.86022 2.40972 0
M  V30 11005 H 1044.27 4.30039 5.2352 0
M  V30 11006 H 1045.21 5.56288 4.3812 0
M  V30 11007 H 1045.62 3.83824 4.13931 0
M  V30 11008 N 1045.02 -0.694098 1.41492 0
M  V30 11009 C 1045.95 -1.82042 1.46229 0
M  V30 11010 C 1046.93 -1.67047 0.320803 0
M  V30 11011 O 1048.11 -1.86758 0.53245 0
M  V30 11012 C 1045.24 -3.2019 1.34519 0
M  V30 11013 C 1044.2 -3.49892 2.46495 0
M  V30 11014 C 1043.52 -4.87411 2.1985 0
M  V30 11015 C 1044.82 -3.4872 3.88834 0
M  V30 11016 H 1046.52 -1.78335 2.40493 0
M  V30 11017 H 1044.06 -0.856566 1.15754 0
M  V30 11018 H 1046.02 -3.98699 1.36445 0
M  V30 11019 H 1044.74 -3.24527 0.367406 0
M  V30 11020 H 1043.4 -2.73734 2.43854 0
M  V30 11021 H 1043.05 -4.88375 1.20411 0
M  V30 11022 H 1042.75 -5.08248 2.94885 0
M  V30 11023 H 1044.27 -5.68228 2.23494 0
M  V30 11024 H 1045.68 -4.1723 3.93182 0
M  V30 11025 H 1044.08 -3.81089 4.63564 0
M  V30 11026 H 1045.15 -2.47665 4.16881 0
M  V30 11027 N 1046.49 -1.27344 -0.928501 0
M  V30 11028 C 1047.91 -1.04732 -1.2043 0
M  V30 11029 C 1048.11 0.219623 -2.003 0
M  V30 11030 O 1047.17 0.925333 -2.34934 0
M  V30 11031 C 1048.48 -2.28625 -1.95323 0
M  V30 11032 C 1050.03 -2.33655 -2.08265 0
M  V30 11033 C 1050.5 -3.57275 -2.86563 0
M  V30 11034 N 1051.99 -3.57828 -2.94132 0
M  V30 11035 C 1052.73 -4.50152 -3.55177 0
M  V30 11036 N 1052.22 -5.52779 -4.17621 0
M  V30 11037 N 1054.02 -4.37777 -3.52573 0
M  V30 11038 H 1046.17 -2.08697 -0.394892 0
M  V30 11039 H 1048.43 -0.91782 -0.2373 0
M  V30 11040 H 1048.14 -3.20845 -1.44054 0
M  V30 11041 H 1048.01 -2.33878 -2.95941 0
M  V30 11042 H 1050.4 -1.41942 -2.58721 0
M  V30 11043 H 1050.48 -2.32406 -1.0687 0
M  V30 11044 H 1050.12 -4.49325 -2.3679 0
M  V30 11045 H 1050.05 -3.55775 -3.88242 0
M  V30 11046 H 1052.54 -2.83607 -2.49751 0
M  V30 11047 H 1052.86 -6.19394 -4.62137 0
M  V30 11048 H 1051.2 -5.56622 -4.16169 0
M  V30 11049 H 1054.39 -3.56811 -3.02991 0
M  V30 11050 H 1054.57 -5.09919 -3.99858 0
M  V30 11051 N 1047.97 1.13488 -1.09353 0
M  V30 11052 C 1049.2 1.88592 -0.850915 0
M  V30 11053 C 1049.62 1.79087 0.597761 0
M  V30 11054 O 1048.97 1.15695 1.41142 0
M  V30 11055 C 1049.02 3.38219 -1.27633 0
M  V30 11056 O 1048.74 3.47476 -2.66819 0
M  V30 11057 C 1050.25 4.30293 -1.06598 0
M  V30 11058 H 1047.47 0.597069 -0.306185 0
M  V30 11059 H 1050.01 1.43668 -1.45533 0
M  V30 11060 H 1048.16 3.80729 -0.715828 0
M  V30 11061 H 1048.58 4.40485 -2.84733 0
M  V30 11062 H 1050.05 5.33611 -1.41293 0
M  V30 11063 H 1050.53 4.392 -0.0037135 0
M  V30 11064 H 1051.14 3.9355 -1.6124 0
M  V30 11065 N 1049.45 0.880621 1.30701 0
M  V30 11066 C 1050.86 0.547993 1.78477 0
M  V30 11067 C 1051.21 -0.935633 1.72454 0
M  V30 11068 O 1050.34 -1.73094 1.29874 0
M  V30 11069 C 1050.93 0.98795 3.24076 0
M  V30 11070 C 1049.49 0.706805 3.69704 0
M  V30 11071 C 1048.64 1.17335 2.51252 0
M  V30 11072 H 1051.59 1.06528 1.17633 0
M  V30 11073 H 1051.61 0.31508 3.79193 0
M  V30 11074 H 1051.12 2.06778 3.28427 0
M  V30 11075 H 1049.22 -0.36122 3.70845 0
M  V30 11076 H 1049.34 1.2913 4.6137 0
M  V30 11077 H 1047.7 0.592808 2.47705 0
M  V30 11078 H 1048.48 2.26083 2.58343 0
M  V30 11079 N 1050.93 -1.4397 0.641131 0
M  V30 11080 C 1051.84 -2.34526 -0.058742 0
M  V30 11081 C 1052.86 -1.53194 -0.825088 0
M  V30 11082 O 1054.03 -1.85888 -0.775081 0
M  V30 11083 C 1051.1 -3.31313 -1.02139 0
M  V30 11084 C 1050.16 -4.28552 -0.253319 0
M  V30 11085 C 1049.39 -5.20715 -1.17012 0
M  V30 11086 O 1049.61 -5.17028 -2.40911 0
M  V30 11087 O 1048.55 -5.9839 -0.649039 0
M  V30 11088 H 1052.37 -2.95843 0.686329 0
M  V30 11089 H 1049.96 -1.43909 0.401316 0
M  V30 11090 H 1051.84 -3.90862 -1.57496 0
M  V30 11091 H 1050.52 -2.72516 -1.7469 0
M  V30 11092 H 1049.42 -3.72519 0.343531 0
M  V30 11093 H 1050.76 -4.90297 0.432372 0
M  V30 11094 N 1052.41 -0.382291 -1.52893 0
M  V30 11095 C 1053.36 0.471187 -2.27778 0
M  V30 11096 C 1054.35 1.0691 -1.31402 0
M  V30 11097 O 1055.56 1.01038 -1.48967 0
M  V30 11098 H 1051.93 0.170696 -0.732371 0
M  V30 11099 H 1053.9 -0.181954 -2.97845 0
M  V30 11100 C 1052.65 1.59012 -3.09209 0
M  V30 11101 H 1051.97 1.13935 -3.83222 0
M  V30 11102 H 1053.41 2.16167 -3.64757 0
M  V30 11103 C 1051.87 2.54212 -2.21084 0
M  V30 11104 O 1052.4 3.57447 -1.83288 0
M  V30 11105 N 1050.61 2.23789 -1.85383 0
M  V30 11106 H 1050.16 1.39872 -2.16318 0
M  V30 11107 H 1050.11 2.87737 -1.26708 0
M  V30 11108 N 1053.89 1.57202 -0.111913 0
M  V30 11109 C 1055.3 1.57713 0.244702 0
M  V30 11110 C 1055.5 1.12419 1.67225 0
M  V30 11111 O 1054.56 0.808329 2.39212 0
M  V30 11112 C 1055.87 3.00695 0.0178289 0
M  V30 11113 C 1057.42 3.12887 0.0842781 0
M  V30 11114 C 1057.89 4.57856 -0.114812 0
M  V30 11115 N 1059.38 4.6316 -0.0605423 0
M  V30 11116 C 1060.12 5.73086 -0.189594 0
M  V30 11117 N 1059.62 6.91787 -0.37442 0
M  V30 11118 N 1061.41 5.6195 -0.12967 0
M  V30 11119 H 1053.56 1.84947 -1.04443 0
M  V30 11120 H 1055.82 0.854418 -0.4107 0
M  V30 11121 H 1055.53 3.38093 -0.968802 0
M  V30 11122 H 1055.4 3.69611 0.752815 0
M  V30 11123 H 1057.79 2.7535 1.06143 0
M  V30 11124 H 1057.87 2.46528 -0.682474 0
M  V30 11125 H 1057.51 4.9609 -1.0889 0
M  V30 11126 H 1057.44 5.22297 0.671839 0
M  V30 11127 H 1059.94 3.77817 0.0790856 0
M  V30 11128 H 1060.25 7.71406 -0.463948 0
M  V30 11129 H 1058.59 6.93788 -0.410303 0
M  V30 11130 H 1061.78 4.68098 0.0137115 0
M  V30 11131 H 1061.96 6.47578 -0.233688 0
M  V30 11132 N 1055.36 -0.161842 1.56767 0
M  V30 11133 C 1056.59 -0.892247 1.86672 0
M  V30 11134 C 1057.01 -1.75407 0.69841 0
M  V30 11135 O 1056.36 -1.7945 -0.332251 0
M  V30 11136 C 1056.41 -1.7612 3.15696 0
M  V30 11137 O 1056.14 -0.934131 4.28025 0
M  V30 11138 C 1057.64 -2.60046 3.59014 0
M  V30 11139 H 1054.86 -0.258747 0.619105 0
M  V30 11140 H 1057.4 -0.159089 2.0388 0
M  V30 11141 H 1055.56 -2.44759 3.00286 0
M  V30 11142 H 1055.97 -1.52931 5.01709 0
M  V30 11143 H 1057.44 -3.16618 4.5217 0
M  V30 11144 H 1057.92 -3.35374 2.83586 0
M  V30 11145 H 1058.53 -1.96724 3.77067 0
M  V30 11146 N 1056.84 -1.516 -0.430713 0
M  V30 11147 C 1057.77 -1.76342 -1.53054 0
M  V30 11148 C 1058.75 -0.61349 -1.58652 0
M  V30 11149 O 1059.94 -0.856888 -1.74273 0
M  V30 11150 C 1057.07 -1.8945 -2.91077 0
M  V30 11151 C 1056.02 -3.04928 -3.00339 0
M  V30 11152 C 1055.35 -3.03228 -4.40405 0
M  V30 11153 C 1056.65 -4.44777 -2.73808 0
M  V30 11154 H 1058.34 -2.68435 -1.326 0
M  V30 11155 H 1055.89 -1.29171 -0.636466 0
M  V30 11156 H 1057.84 -2.05343 -3.67984 0
M  V30 11157 H 1056.56 -0.940114 -3.12777 0
M  V30 11158 H 1055.22 -2.88751 -2.25872 0
M  V30 11159 H 1054.87 -2.05553 -4.59083 0
M  V30 11160 H 1054.57 -3.80776 -4.47531 0
M  V30 11161 H 1056.1 -3.21222 -5.19277 0
M  V30 11162 H 1057.51 -4.6127 -3.40445 0
M  V30 11163 H 1055.91 -5.2408 -2.92335 0
M  V30 11164 H 1056.98 -4.54358 -1.69372 0
M  V30 11165 N 1058.32 0.686584 -1.41858 0
M  V30 11166 C 1059.57 1.44235 -1.40994 0
M  V30 11167 C 1059.88 1.95583 -0.0254979 0
M  V30 11168 O 1061.09 2.71294 0.10576 0
M  V30 11169 C 1059.54 2.6086 -2.47952 0
M  V30 11170 C 1059.15 2.16259 -3.92347 0
M  V30 11171 C 1060.9 3.38441 -2.56237 0
M  V30 11172 C 1058.8 3.29896 -4.90838 0
M  V30 11173 H 1057.73 0.54181 -0.524364 0
M  V30 11174 H 1060.38 0.744486 -1.67719 0
M  V30 11175 H 1058.77 3.32957 -2.14373 0
M  V30 11176 H 1059.94 1.51392 -4.35221 0
M  V30 11177 H 1058.25 1.51648 -3.87804 0
M  V30 11178 H 1060.85 4.23052 -3.27003 0
M  V30 11179 H 1061.19 3.84238 -1.6021 0
M  V30 11180 H 1061.73 2.73406 -2.88953 0
M  V30 11181 H 1058.47 2.89104 -5.88302 0
M  V30 11182 H 1057.99 3.93584 -4.52606 0
M  V30 11183 H 1059.67 3.95541 -5.12012 0
M  V30 11184 N 1059.8 1.27835 0.921735 0
M  V30 11185 C 1060.74 1.11075 2.02314 0
M  V30 11186 C 1061.71 0.0101195 1.66097 0
M  V30 11187 O 1062.9 0.173564 1.90009 0
M  V30 11188 C 1060.04 0.770251 3.36394 0
M  V30 11189 C 1059.15 1.94912 3.8553 0
M  V30 11190 C 1058.29 1.54996 5.08084 0
M  V30 11191 C 1057.33 2.69595 5.49531 0
M  V30 11192 N 1056.46 2.30227 6.6328 0
M  V30 11193 H 1061.3 2.05319 2.15982 0
M  V30 11194 H 1058.84 1.022 1.058 0
M  V30 11195 H 1060.8 0.553624 4.1351 0
M  V30 11196 H 1059.43 -0.135238 3.22517 0
M  V30 11197 H 1058.48 2.27811 3.04641 0
M  V30 11198 H 1059.79 2.80858 4.12214 0
M  V30 11199 H 1058.95 1.29493 5.9272 0
M  V30 11200 H 1057.69 0.661676 4.83191 0
M  V30 11201 H 1056.69 2.95806 4.63442 0
M  V30 11202 H 1057.92 3.59054 5.76417 0
M  V30 11203 H 1055.86 1.43858 6.40032 0
M  V30 11204 H 1055.78 3.09711 6.89649 0
M  V30 11205 H 1057.05 2.07987 7.5124 0
M  V30 11206 N 1061.28 -1.12907 1.09954 0
M  V30 11207 C 1062.69 -1.363 0.830326 0
M  V30 11208 C 1062.89 -1.93772 -0.552694 0
M  V30 11209 O 1061.95 -2.1607 -1.30652 0
M  V30 11210 C 1063.26 -2.30925 1.92598 0
M  V30 11211 C 1064.81 -2.44528 1.95385 0
M  V30 11212 C 1065.28 -3.42464 3.0411 0
M  V30 11213 N 1066.77 -3.50018 3.03384 0
M  V30 11214 C 1067.51 -4.25693 3.84152 0
M  V30 11215 N 1067.01 -5.04476 4.74843 0
M  V30 11216 N 1068.8 -4.21049 3.7239 0
M  V30 11217 H 1060.95 -0.739571 1.99108 0
M  V30 11218 H 1063.21 -0.387983 0.86497 0
M  V30 11219 H 1062.92 -1.95861 2.92115 0
M  V30 11220 H 1062.79 -3.30997 1.80889 0
M  V30 11221 H 1065.18 -2.78875 0.965037 0
M  V30 11222 H 1065.26 -1.44361 2.11172 0
M  V30 11223 H 1064.9 -3.08847 4.03207 0
M  V30 11224 H 1064.83 -4.42448 2.85565 0
M  V30 11225 H 1067.33 -2.93809 2.37665 0
M  V30 11226 H 1067.64 -5.59541 5.33042 0
M  V30 11227 H 1065.98 -5.0369 4.78875 0
M  V30 11228 H 1069.17 -3.5858 3.00895 0
M  V30 11229 H 1069.35 -4.79771 4.35572 0
M  V30 11230 N 1062.75 -0.88754 -1.30232 0
M  V30 11231 C 1063.69 -0.300814 -2.26209 0
M  V30 11232 C 1064.66 0.580088 -1.519 0
M  V30 11233 O 1065.85 0.529611 -1.80907 0
M  V30 11234 C 1062.98 0.572336 -3.33829 0
M  V30 11235 C 1062.02 -0.239589 -4.25827 0
M  V30 11236 S 1062.85 -1.62953 -5.10104 0
M  V30 11237 C 1064.01 -0.762979 -6.21232 0
M  V30 11238 H 1064.24 -1.11435 -2.75626 0
M  V30 11239 H 1061.78 -0.687123 -1.38268 0
M  V30 11240 H 1063.73 1.07036 -3.963 0
M  V30 11241 H 1062.4 1.35999 -2.83131 0
M  V30 11242 H 1061.59 0.426854 -5.02189 0
M  V30 11243 H 1061.19 -0.670325 -3.67944 0
M  V30 11244 H 1063.48 0.0189354 -6.77497 0
M  V30 11245 H 1064.43 -1.49829 -6.92067 0
M  V30 11246 H 1064.83 -0.322747 -5.63577 0
M  V30 11247 N 1064.23 1.43628 -0.648757 0
M  V30 11248 C 1065.16 2.33478 0.0320785 0
M  V30 11249 C 1066.14 1.49217 0.816605 0
M  V30 11250 O 1067.33 1.77892 0.778974 0
M  V30 11251 C 1064.46 3.32525 1.00222 0
M  V30 11252 C 1063.41 4.2674 0.328119 0
M  V30 11253 C 1062.74 5.15791 1.4094 0
M  V30 11254 C 1064.04 5.16493 -0.776701 0
M  V30 11255 H 1065.73 2.90657 -0.718257 0
M  V30 11256 H 1063.28 1.3976 -0.346852 0
M  V30 11257 H 1065.23 3.94277 1.4874 0
M  V30 11258 H 1063.96 2.73593 1.78366 0
M  V30 11259 H 1062.61 3.66346 -0.136569 0
M  V30 11260 H 1062.26 4.53201 2.18216 0
M  V30 11261 H 1061.96 5.79645 0.963631 0
M  V30 11262 H 1063.49 5.80416 1.89603 0
M  V30 11263 H 1064.9 5.7208 -0.373878 0
M  V30 11264 H 1063.3 5.89043 -1.14667 0
M  V30 11265 H 1064.37 4.56448 -1.63654 0
M  V30 11266 N 1065.71 0.390394 1.52688 0
M  V30 11267 C 1066.96 -0.192697 2.00777 0
M  V30 11268 C 1067.27 -1.4781 1.28108 0
M  V30 11269 O 1068.48 -2.1413 1.66914 0
M  V30 11270 C 1066.93 -0.393955 3.57737 0
M  V30 11271 C 1066.54 0.878259 4.39307 0
M  V30 11272 C 1068.29 -0.933352 4.14112 0
M  V30 11273 C 1066.19 0.645218 5.8787 0
M  V30 11274 H 1065.12 -0.0757862 0.750182 0
M  V30 11275 H 1067.77 0.512961 1.76184 0
M  V30 11276 H 1066.16 -1.16149 3.78583 0
M  V30 11277 H 1067.33 1.65049 4.30227 0
M  V30 11278 H 1065.65 1.34269 3.94158 0
M  V30 11279 H 1068.24 -1.12343 5.22765 0
M  V30 11280 H 1068.59 -1.90272 3.70273 0
M  V30 11281 H 1069.12 -0.225361 3.97161 0
M  V30 11282 H 1065.86 1.58562 6.36033 0
M  V30 11283 H 1065.38 -0.0880609 5.99735 0
M  V30 11284 H 1067.06 0.280178 6.46393 0
M  V30 11285 N 1067.19 -1.57141 0.120249 0
M  V30 11286 C 1068.14 -2.15379 -0.829497 0
M  V30 11287 C 1069.11 -1.07913 -1.2627 0
M  V30 11288 O 1070.29 -1.35827 -1.33999 0
M  V30 11289 C 1067.43 -2.75847 -2.0737 0
M  V30 11290 C 1066.54 -3.97624 -1.68875 0
M  V30 11291 C 1065.68 -4.46175 -2.88272 0
M  V30 11292 C 1064.72 -5.60481 -2.46023 0
M  V30 11293 N 1063.85 -6.0377 -3.58337 0
M  V30 11294 H 1068.69 -2.96211 -0.326031 0
M  V30 11295 H 1066.23 -1.46341 -0.149235 0
M  V30 11296 H 1068.19 -3.09037 -2.80272 0
M  V30 11297 H 1066.82 -1.97703 -2.55174 0
M  V30 11298 H 1065.87 -3.70588 -0.858431 0
M  V30 11299 H 1067.18 -4.80512 -1.33827 0
M  V30 11300 H 1066.34 -4.8128 -3.69397 0
M  V30 11301 H 1065.08 -3.6224 -3.26548 0
M  V30 11302 H 1064.08 -5.24979 -1.63331 0
M  V30 11303 H 1065.31 -6.46184 -2.08863 0
M  V30 11304 H 1063.25 -5.22776 -3.96284 0
M  V30 11305 H 1063.17 -6.81517 -3.27217 0
M  V30 11306 H 1064.44 -6.43514 -4.39898 0
M  V30 11307 N 1068.67 0.153526 -1.5685 0
M  V30 11308 C 1069.91 0.873522 -1.84794 0
M  V30 11309 C 1070.27 1.78642 -0.703648 0
M  V30 11310 O 1071.47 2.54537 -0.863972 0
M  V30 11311 C 1069.74 1.63316 -3.17904 0
M  V30 11312 S 1071.3 2.39948 -3.67383 0
M  V30 11313 H 1068.12 0.292233 -0.648167 0
M  V30 11314 H 1070.72 0.133949 -1.95041 0
M  V30 11315 H 1069.43 0.95387 -3.99161 0
M  V30 11316 H 1068.96 2.41377 -3.10646 0
M  V30 11317 H 1070.97 3.65011 -3.36127 0
M  V30 11318 N 1070.14 1.51827 0.422667 0
M  V30 11319 C 1071.11 1.7359 1.49663 0
M  V30 11320 C 1072.11 0.605811 1.48952 0
M  V30 11321 O 1073.3 0.87354 1.50715 0
M  V30 11322 C 1070.43 1.80585 2.8914 0
M  V30 11323 H 1071.62 2.69453 1.31664 0
M  V30 11324 H 1069.18 1.42038 0.652298 0
M  V30 11325 H 1069.91 0.865895 3.12526 0
M  V30 11326 H 1069.7 2.62729 2.9106 0
M  V30 11327 H 1071.19 1.99212 3.67021 0
M  V30 11328 N 1071.62 -0.679052 1.4222 0
M  V30 11329 C 1072.9 -1.43473 1.32947 0
M  V30 11330 C 1073.28 -2.11071 -0.0351689 0
M  V30 11331 O 1072.63 -2.02925 -1.05042 0
M  V30 11332 C 1072.84 -2.44065 2.49466 0
M  V30 11333 C 1074.19 -3.08834 2.91387 0
M  V30 11334 O 1075.21 -2.54392 2.49325 0
M  V30 11335 O 1074.07 -4.07478 3.64175 0
M  V30 11336 H 1071.16 -0.639743 0.524078 0
M  V30 11337 H 1073.71 -0.708134 1.54219 0
M  V30 11338 H 1072.48 -1.92884 3.40457 0
M  V30 11339 H 1072.1 -3.24212 2.30158 0
M  V30 11340 N 1073.1 -1.28322 -0.914942 0
M  V30 11341 C 1074.35 -1.15578 -1.66642 0
M  V30 11342 C 1074.68 0.295209 -1.91943 0
M  V30 11343 O 1073.95 1.21482 -1.51896 0
M  V30 11344 C 1074.24 -1.9535 -3.02507 0
M  V30 11345 C 1074.09 -3.48504 -2.84367 0
M  V30 11346 C 1075.41 -1.76798 -4.03027 0
M  V30 11347 H 1072.53 -0.421234 -0.604757 0
M  V30 11348 H 1075.17 -1.57625 -1.06087 0
M  V30 11349 H 1073.32 -1.59619 -3.54195 0
M  V30 11350 H 1074.99 -3.94135 -2.39699 0
M  V30 11351 H 1073.24 -3.74198 -2.1945 0
M  V30 11352 H 1073.91 -3.99576 -3.80845 0
M  V30 11353 H 1076.38 -2.07977 -3.60395 0
M  V30 11354 H 1075.26 -2.34987 -4.96057 0
M  V30 11355 H 1075.52 -0.719162 -4.36211 0
M  V30 11356 N 1074.58 1.12322 -1.10551 0
M  V30 11357 C 1075.8 1.8822 -0.871093 0
M  V30 11358 C 1076.23 1.7916 0.573005 0
M  V30 11359 O 1075.59 1.14738 1.40374 0
M  V30 11360 C 1075.63 3.35349 -1.32565 0
M  V30 11361 O 1074.74 4.09461 -0.49145 0
M  V30 11362 H 1074.08 0.584787 -0.314516 0
M  V30 11363 H 1076.61 1.42039 -1.47262 0
M  V30 11364 H 1076.62 3.86189 -1.31612 0
M  V30 11365 H 1075.29 3.4126 -2.37728 0
M  V30 11366 H 1073.87 3.68575 -0.566294 0
M  V30 11367 N 1076.06 0.894434 1.2976 0
M  V30 11368 C 1077 0.357958 2.29829 0
M  V30 11369 C 1078 -0.540093 1.6056 0
M  V30 11370 O 1079.2 -0.423478 1.74948 0
M  V30 11371 H 1075.58 0.0971183 0.745702 0
M  V30 11372 H 1077.55 1.21542 2.72526 0
M  V30 11373 C 1076.3 -0.404126 3.45343 0
M  V30 11374 H 1075.62 0.277671 3.98835 0
M  V30 11375 H 1077.06 -0.744446 4.17413 0
M  V30 11376 C 1075.52 -1.6048 2.96222 0
M  V30 11377 O 1076.05 -2.70414 2.97051 0
M  V30 11378 N 1074.26 -1.44517 2.52117 0
M  V30 11379 H 1073.8 -0.55082 2.51642 0
M  V30 11380 H 1073.76 -2.24987 2.1961 0
M  V30 11381 N 1077.53 -1.43282 0.656365 0
M  V30 11382 C 1078.95 -1.85012 0.250475 0
M  V30 11383 C 1079.3 -1.54944 -1.20361 0
M  V30 11384 O 1078.42 -0.999983 -1.9191 0
M  V30 11385 C 1079.02 -3.35827 0.447815 0
M  V30 11386 C 1077.58 -3.76277 0.0962151 0
M  V30 11387 C 1076.72 -2.66988 0.749168 0
M  V30 11388 H 1079.67 -1.3339 0.85982 0
M  V30 11389 H 1079.69 -3.7927 -0.305726 0
M  V30 11390 H 1079.21 -3.5768 1.5062 0
M  V30 11391 H 1077.31 -3.60035 -0.959449 0
M  V30 11392 H 1077.42 -4.76227 0.523875 0
M  V30 11393 H 1075.78 -2.54048 0.18212 0
M  V30 11394 H 1076.57 -2.91669 1.81064 0
M  V30 11395 N 1079.01 -0.398486 -1.52479 0
M  V30 11396 C 1080.25 0.180412 -2.03602 0
M  V30 11397 C 1080.62 1.43276 -1.27812 0
M  V30 11398 O 1081.82 2.08941 -1.69107 0
M  V30 11399 C 1080.09 0.432744 -3.5477 0
M  V30 11400 S 1081.65 0.980612 -4.27703 0
M  V30 11401 H 1078.47 0.0499981 -0.70924 0
M  V30 11402 H 1081.07 -0.548952 -1.87635 0
M  V30 11403 H 1079.77 -0.48568 -4.07516 0
M  V30 11404 H 1079.3 1.19028 -3.74961 0
M  V30 11405 H 1081.32 2.26216 -4.41634 0
M  V30 11406 N 1080.49 1.57075 -0.12858 0
M  V30 11407 C 1081.91 1.57964 0.227961 0
M  V30 11408 C 1082.11 1.14186 1.66023 0
M  V30 11409 O 1081.16 0.833655 2.38341 0
M  V30 11410 C 1082.48 3.00697 -0.0140648 0
M  V30 11411 C 1084.02 3.12958 0.0510876 0
M  V30 11412 C 1084.5 4.57709 -0.163368 0
M  V30 11413 N 1085.99 4.6307 -0.109663 0
M  V30 11414 C 1086.73 5.72853 -0.250366 0
M  V30 11415 N 1086.22 6.91351 -0.447772 0
M  V30 11416 N 1088.01 5.61781 -0.189265 0
M  V30 11417 H 1080.17 1.83829 -1.06398 0
M  V30 11418 H 1082.43 0.850014 -0.419739 0
M  V30 11419 H 1082.13 3.37047 -1.00461 0
M  V30 11420 H 1082.01 3.70389 0.713571 0
M  V30 11421 H 1084.4 2.7646 1.03216 0
M  V30 11422 H 1084.48 2.4579 -0.708583 0
M  V30 11423 H 1084.12 4.94907 -1.14146 0
M  V30 11424 H 1084.05 5.2298 0.616405 0
M  V30 11425 H 1086.54 3.7788 0.0390086 0
M  V30 11426 H 1086.85 7.70871 -0.54574 0
M  V30 11427 H 1085.2 6.93314 -0.483866 0
M  V30 11428 H 1088.39 4.68086 -0.0359374 0
M  V30 11429 H 1088.56 6.47294 -0.302359 0
M  V30 11430 N 1081.97 -0.145205 1.5693 0
M  V30 11431 C 1083.38 -0.705089 1.72874 0
M  V30 11432 C 1083.73 -1.81577 0.743261 0
M  V30 11433 O 1082.86 -2.16214 -0.0897153 0
M  V30 11434 C 1083.45 -1.28578 3.13454 0
M  V30 11435 C 1082.01 -1.79221 3.30994 0
M  V30 11436 C 1081.16 -0.681392 2.68798 0
M  V30 11437 H 1084.11 0.0804798 1.58496 0
M  V30 11438 H 1084.13 -2.15558 3.13552 0
M  V30 11439 H 1083.64 -0.477186 3.85155 0
M  V30 11440 H 1081.74 -2.62642 2.64292 0
M  V30 11441 H 1081.86 -1.91969 4.38959 0
M  V30 11442 H 1080.22 -1.10847 2.29314 0
M  V30 11443 H 1081 0.115786 3.43105 0
M  V30 11444 N 1083.45 -1.52049 -0.414609 0
M  V30 11445 C 1084.38 -1.77956 -1.51175 0
M  V30 11446 C 1085.36 -0.630282 -1.57992 0
M  V30 11447 O 1086.54 -0.875324 -1.73354 0
M  V30 11448 C 1083.67 -1.92527 -2.89051 0
M  V30 11449 C 1082.63 -3.08096 -2.97087 0
M  V30 11450 C 1081.95 -3.07882 -4.37164 0
M  V30 11451 C 1083.25 -4.47656 -2.69075 0
M  V30 11452 H 1084.95 -2.69827 -1.29746 0
M  V30 11453 H 1082.49 -1.29839 -0.62273 0
M  V30 11454 H 1084.45 -2.09234 -3.65786 0
M  V30 11455 H 1083.17 -0.973235 -3.11762 0
M  V30 11456 H 1081.83 -2.91131 -2.22797 0
M  V30 11457 H 1081.48 -2.10411 -4.56877 0
M  V30 11458 H 1081.18 -3.85501 -4.43467 0
M  V30 11459 H 1082.7 -3.26712 -5.15841 0
M  V30 11460 H 1084.12 -4.64855 -3.35534 0
M  V30 11461 H 1082.51 -5.27151 -2.8676 0
M  V30 11462 H 1083.58 -4.56129 -1.64544 0
M  V30 11463 N 1084.93 0.6715 -1.42579 0
M  V30 11464 C 1085.86 1.79703 -1.42266 0
M  V30 11465 C 1086.87 1.59599 -0.321268 0
M  V30 11466 O 1088.06 1.68657 -0.584564 0
M  V30 11467 C 1085.16 3.16859 -1.20224 0
M  V30 11468 C 1084.33 3.63783 -2.42859 0
M  V30 11469 C 1083.39 4.79683 -2.16312 0
M  V30 11470 O 1082.42 4.90058 -2.89537 0
M  V30 11471 N 1083.62 5.68622 -1.16831 0
M  V30 11472 H 1086.38 1.80455 -2.39282 0
M  V30 11473 H 1083.95 0.854708 -1.375 0
M  V30 11474 H 1085.94 3.92054 -1.00376 0
M  V30 11475 H 1084.51 3.10987 -0.317188 0
M  V30 11476 H 1083.73 2.7923 -2.78252 0
M  V30 11477 H 1085.02 3.91877 -3.24514 0
M  V30 11478 H 1084.41 5.62894 -0.562746 0
M  V30 11479 H 1082.97 6.43615 -1.0297 0
M  V30 11480 N 1086.4 1.28806 0.908124 0
M  V30 11481 C 1087.63 1.1898 1.689 0
M  V30 11482 C 1088.04 -0.253334 1.87496 0
M  V30 11483 O 1087.38 -1.18245 1.40584 0
M  V30 11484 C 1087.45 1.82266 3.0987 0
M  V30 11485 C 1087.11 3.31534 3.14538 0
M  V30 11486 C 1088.11 4.27886 2.95313 0
M  V30 11487 C 1085.79 3.72589 3.36872 0
M  V30 11488 C 1087.79 5.63267 2.98343 0
M  V30 11489 C 1085.47 5.08095 3.39534 0
M  V30 11490 C 1086.47 6.03244 3.2029 0
M  V30 11491 O 1086.16 7.36277 3.22724 0
M  V30 11492 H 1085.89 0.413772 0.534574 0
M  V30 11493 H 1088.45 1.7055 1.14464 0
M  V30 11494 H 1086.68 1.25197 3.65872 0
M  V30 11495 H 1088.36 1.6688 3.70008 0
M  V30 11496 H 1089.13 3.97502 2.77879 0
M  V30 11497 H 1085.01 2.98989 3.50894 0
M  V30 11498 H 1088.55 6.37511 2.83241 0
M  V30 11499 H 1084.45 5.38126 3.56497 0
M  V30 11500 H 1085.22 7.44976 3.39048 0
M  V30 11501 N 1087.88 -1.11734 1.11145 0
M  V30 11502 C 1089.12 -1.85039 0.868318 0
M  V30 11503 C 1089.49 -1.82538 -0.595294 0
M  V30 11504 O 1090.69 -2.5126 -0.955071 0
M  V30 11505 C 1088.96 -3.28381 1.4107 0
M  V30 11506 S 1090.52 -4.18973 1.3041 0
M  V30 11507 H 1087.33 -0.638114 0.313578 0
M  V30 11508 H 1089.94 -1.34548 1.41835 0
M  V30 11509 H 1088.64 -3.27764 2.46979 0
M  V30 11510 H 1088.17 -3.83939 0.857576 0
M  V30 11511 H 1090.19 -4.95483 0.266605 0
M  V30 11512 N 1089.36 -0.901303 -1.29284 0
M  V30 11513 C 1090.61 -0.52401 -1.94774 0
M  V30 11514 C 1090.92 0.934645 -1.71825 0
M  V30 11515 O 1092.13 1.41953 -2.31434 0
M  V30 11516 C 1090.58 -0.886262 -3.48817 0
M  V30 11517 C 1090.19 -2.3638 -3.80564 0
M  V30 11518 C 1091.94 -0.578955 -4.20533 0
M  V30 11519 C 1089.84 -2.66682 -5.27858 0
M  V30 11520 H 1088.77 -0.192244 -0.72908 0
M  V30 11521 H 1091.42 -1.09852 -1.46986 0
M  V30 11522 H 1089.81 -0.240666 -3.95268 0
M  V30 11523 H 1090.98 -3.05508 -3.44966 0
M  V30 11524 H 1089.29 -2.64029 -3.2199 0
M  V30 11525 H 1091.89 -0.782185 -5.28948 0
M  V30 11526 H 1092.23 0.482605 -4.13493 0
M  V30 11527 H 1092.77 -1.18246 -3.79819 0
M  V30 11528 H 1089.51 -3.71643 -5.39965 0
M  V30 11529 H 1089.03 -2.02179 -5.64698 0
M  V30 11530 H 1090.71 -2.53033 -5.95469 0
M  V30 11531 N 1090.84 1.42931 -0.663954 0
M  V30 11532 C 1091.75 2.3459 0.0214234 0
M  V30 11533 C 1092.76 1.54487 0.800611 0
M  V30 11534 O 1093.94 1.87098 0.74541 0
M  V30 11535 C 1091 3.32896 0.968556 0
M  V30 11536 C 1090.07 4.28901 0.185108 0
M  V30 11537 C 1089.3 5.2251 1.08713 0
M  V30 11538 O 1089.52 5.20795 2.32655 0
M  V30 11539 O 1088.46 5.99347 0.553758 0
M  V30 11540 H 1092.28 2.94714 -0.733308 0
M  V30 11541 H 1089.87 1.43252 -0.424159 0
M  V30 11542 H 1091.75 3.93318 1.51257 0
M  V30 11543 H 1090.42 2.75261 1.70333 0
M  V30 11544 H 1089.33 3.71926 -0.402752 0
M  V30 11545 H 1090.66 4.89547 -0.510319 0
M  V30 11546 N 1092.32 0.406567 1.52266 0
M  V30 11547 C 1093.56 -0.1627 2.02748 0
M  V30 11548 C 1093.92 -1.43022 1.28695 0
M  V30 11549 O 1093.21 -1.87715 0.383881 0
M  V30 11550 C 1093.4 -0.467124 3.54334 0
M  V30 11551 C 1093.23 0.76934 4.4307 0
M  V30 11552 C 1092 1.29377 4.88456 0
M  V30 11553 C 1094.2 1.64671 4.87225 0
M  V30 11554 N 1092.18 2.48599 5.61313 0
M  V30 11555 C 1093.55 2.68519 5.58836 0
M  V30 11556 C 1095.61 1.66477 4.69244 0
M  V30 11557 C 1094.31 3.74081 6.14374 0
M  V30 11558 C 1096.34 2.70956 5.25677 0
M  V30 11559 C 1095.7 3.73525 5.97209 0
M  V30 11560 H 1091.8 -0.0211706 0.781713 0
M  V30 11561 H 1094.38 0.560338 1.86463 0
M  V30 11562 H 1092.55 -1.15921 3.70698 0
M  V30 11563 H 1094.29 -1.02505 3.91503 0
M  V30 11564 H 1091.04 0.85219 4.6587 0
M  V30 11565 H 1091.46 3.0897 6.02384 0
M  V30 11566 H 1096.11 0.88519 4.1343 0
M  V30 11567 H 1093.82 4.52896 6.69261 0
M  V30 11568 H 1097.41 2.73258 5.13635 0
M  V30 11569 H 1096.29 4.53043 6.40095 0
M  V30 11570 N 1093.79 -1.57004 0.136909 0
M  V30 11571 C 1094.76 -2.15066 -0.792419 0
M  V30 11572 C 1095.76 -1.08991 -1.18226 0
M  V30 11573 O 1096.95 -1.34681 -1.10484 0
M  V30 11574 C 1094.08 -2.70554 -2.07397 0
M  V30 11575 H 1095.27 -2.98519 -0.28752 0
M  V30 11576 H 1092.83 -1.55895 -0.112469 0
M  V30 11577 H 1093.56 -1.90739 -2.62277 0
M  V30 11578 H 1093.35 -3.48149 -1.80374 0
M  V30 11579 H 1094.84 -3.15322 -2.73792 0
M  V30 11580 N 1095.27 0.136881 -1.57004 0
M  V30 11581 C 1096.24 1.15267 -1.98106 0
M  V30 11582 C 1097.24 1.35305 -0.868856 0
M  V30 11583 O 1098.43 1.32126 -1.13527 0
M  V30 11584 C 1095.56 2.51092 -2.30577 0
M  V30 11585 H 1096.75 0.799821 -2.89038 0
M  V30 11586 H 1094.3 0.380576 -1.51596 0
M  V30 11587 H 1095.04 2.9133 -1.42469 0
M  V30 11588 H 1094.82 2.37906 -3.11678 0
M  V30 11589 H 1096.31 3.24232 -2.63179 0
M  V30 11590 N 1096.75 1.52266 0.40654 0
M  V30 11591 C 1098.17 1.41127 0.745348 0
M  V30 11592 C 1098.37 0.517802 1.94733 0
M  V30 11593 O 1097.42 -0.0154286 2.52495 0
M  V30 11594 C 1098.74 2.83696 0.996859 0
M  V30 11595 C 1100.28 2.93056 1.09942 0
M  V30 11596 C 1100.76 4.36599 1.38367 0
M  V30 11597 N 1102.25 4.39845 1.45226 0
M  V30 11598 C 1102.98 5.47975 1.68852 0
M  V30 11599 N 1102.48 6.66219 1.90065 0
M  V30 11600 N 1104.27 5.35494 1.70888 0
M  V30 11601 H 1096.42 2.08888 -0.384632 0
M  V30 11602 H 1098.69 0.941619 -0.109809 0
M  V30 11603 H 1098.39 3.51208 0.185986 0
M  V30 11604 H 1098.27 3.24895 1.91632 0
M  V30 11605 H 1100.65 2.25723 1.90088 0
M  V30 11606 H 1100.74 2.5531 0.158256 0
M  V30 11607 H 1100.38 5.04492 0.587373 0
M  V30 11608 H 1100.31 4.71883 2.33739 0
M  V30 11609 H 1102.8 3.54611 1.30612 0
M  V30 11610 H 1103.11 7.44408 2.0755 0
M  V30 11611 H 1101.46 6.69279 1.87325 0
M  V30 11612 H 1104.65 4.42093 1.53856 0
M  V30 11613 H 1104.82 6.19837 1.88962 0
M  V30 11614 N 1098.23 -0.663929 1.42933 0
M  V30 11615 C 1099.48 -1.41973 1.43271 0
M  V30 11616 C 1099.79 -1.95518 0.0566103 0
M  V30 11617 O 1101 -2.71428 -0.0625862 0
M  V30 11618 C 1099.45 -2.56882 2.52071 0
M  V30 11619 C 1099.06 -2.0999 3.95737 0
M  V30 11620 C 1100.8 -3.34322 2.61589 0
M  V30 11621 C 1098.71 -3.22046 4.96025 0
M  V30 11622 H 1097.64 -0.5334 0.532917 0
M  V30 11623 H 1100.29 -0.717709 1.68882 0
M  V30 11624 H 1098.67 -3.29504 2.19643 0
M  V30 11625 H 1099.85 -1.44449 4.37574 0
M  V30 11626 H 1098.16 -1.45459 3.90168 0
M  V30 11627 H 1100.76 -4.17796 3.33692 0
M  V30 11628 H 1101.1 -3.8164 1.66302 0
M  V30 11629 H 1101.64 -2.68775 2.93266 0
M  V30 11630 H 1098.38 -2.79708 5.92827 0
M  V30 11631 H 1097.9 -3.86333 4.5881 0
M  V30 11632 H 1099.57 -3.87345 5.1824 0
M  V30 11633 N 1099.71 -1.29285 -0.901281 0
M  V30 11634 C 1100.93 -1.20169 -1.69039 0
M  V30 11635 C 1101.36 0.234509 -1.86632 0
M  V30 11636 O 1100.71 1.16935 -1.38549 0
M  V30 11637 C 1100.76 -1.91852 -3.05328 0
M  V30 11638 O 1099.87 -1.23448 -3.9349 0
M  V30 11639 H 1099.21 -0.416486 -0.517141 0
M  V30 11640 H 1101.74 -1.70826 -1.12603 0
M  V30 11641 H 1101.75 -2.00244 -3.5548 0
M  V30 11642 H 1100.42 -2.96313 -2.91841 0
M  V30 11643 H 1099 -1.23303 -3.51924 0
M  V30 11644 N 1101.18 1.11143 -1.11736 0
M  V30 11645 C 1102.09 2.20851 -0.791331 0
M  V30 11646 C 1103.11 1.72644 0.216833 0
M  V30 11647 O 1104.29 2.01332 0.0522401 0
M  V30 11648 C 1101.35 3.4585 -0.242694 0
M  V30 11649 C 1100.41 4.08829 -1.30986 0
M  V30 11650 C 1099.65 5.27861 -0.787305 0
M  V30 11651 O 1099.87 5.69122 0.381549 0
M  V30 11652 O 1098.8 5.81506 -1.55352 0
M  V30 11653 H 1102.63 2.51158 -1.70744 0
M  V30 11654 H 1100.21 1.19739 -0.893478 0
M  V30 11655 H 1102.1 4.21359 0.0587472 0
M  V30 11656 H 1100.77 3.17187 0.646079 0
M  V30 11657 H 1099.68 3.35037 -1.66436 0
M  V30 11658 H 1101.01 4.41678 -2.17213 0
M  V30 11659 N 1102.66 0.908147 1.28804 0
M  V30 11660 C 1103.57 0.397167 2.31214 0
M  V30 11661 C 1104.59 -0.512352 1.66286 0
M  V30 11662 O 1105.76 -0.399893 1.9739 0
M  V30 11663 C 1102.83 -0.359522 3.44831 0
M  V30 11664 C 1101.89 0.582539 4.25329 0
M  V30 11665 C 1101.12 -0.138133 5.33521 0
M  V30 11666 O 1101.35 -1.36076 5.53931 0
M  V30 11667 O 1100.28 0.523682 5.99618 0
M  V30 11668 H 1104.11 1.247 2.76918 0
M  V30 11669 H 1101.69 0.672766 1.33395 0
M  V30 11670 H 1103.57 -0.787098 4.13984 0
M  V30 11671 H 1102.25 -1.18528 3.01219 0
M  V30 11672 H 1101.16 1.0594 3.58786 0
M  V30 11673 H 1102.49 1.37495 4.72605 0
M  V30 11674 N 1104.14 -1.42577 0.671525 0
M  V30 11675 C 1105.37 -2.05625 0.20044 0
M  V30 11676 C 1105.78 -1.50524 -1.14626 0
M  V30 11677 O 1105.12 -0.638468 -1.72248 0
M  V30 11678 C 1105.18 -3.59459 0.0545385 0
M  V30 11679 C 1104.85 -4.37236 1.32943 0
M  V30 11680 C 1105.84 -4.68104 2.26219 0
M  V30 11681 C 1103.53 -4.76932 1.57612 0
M  V30 11682 C 1105.52 -5.37599 3.42442 0
M  V30 11683 C 1103.21 -5.46167 2.74125 0
M  V30 11684 C 1104.21 -5.76425 3.66364 0
M  V30 11685 O 1103.9 -6.44242 4.8084 0
M  V30 11686 H 1103.63 -0.66918 0.0957843 0
M  V30 11687 H 1106.18 -1.83759 0.917701 0
M  V30 11688 H 1104.41 -3.79971 -0.718271 0
M  V30 11689 H 1106.1 -4.04152 -0.376251 0
M  V30 11690 H 1106.87 -4.37939 2.08409 0
M  V30 11691 H 1102.75 -4.52776 0.866887 0
M  V30 11692 H 1106.29 -5.61133 4.14458 0
M  V30 11693 H 1102.19 -5.75749 2.91861 0
M  V30 11694 H 1102.96 -6.62732 4.80342 0
M  V30 11695 N 1105.62 -0.414636 -1.52048 0
M  V30 11696 C 1106.87 0.159349 -2.01872 0
M  V30 11697 C 1107.19 1.44674 -1.29999 0
M  V30 11698 O 1106.45 1.91641 -0.396511 0
M  V30 11699 C 1106.75 0.448327 -3.54577 0
M  V30 11700 C 1106.41 -0.75052 -4.4461 0
M  V30 11701 C 1105.08 -1.07935 -4.68939 0
M  V30 11702 C 1107.43 -1.55134 -4.97577 0
M  V30 11703 C 1104.76 -2.21008 -5.43482 0
M  V30 11704 C 1107.11 -2.67288 -5.73358 0
M  V30 11705 C 1105.77 -3.00651 -5.95958 0
M  V30 11706 H 1105.04 0.05831 -0.738702 0
M  V30 11707 H 1107.69 -0.557184 -1.83215 0
M  V30 11708 H 1105.99 1.24649 -3.71443 0
M  V30 11709 H 1107.69 0.90549 -3.90643 0
M  V30 11710 H 1104.28 -0.484257 -4.25856 0
M  V30 11711 H 1108.46 -1.31052 -4.78685 0
M  V30 11712 H 1103.72 -2.47197 -5.59199 0
M  V30 11713 H 1107.89 -3.29725 -6.13396 0
M  V30 11714 H 1105.52 -3.88384 -6.535 0
M  V30 11715 N 1107.1 1.56929 -0.145233 0
M  V30 11716 C 1108.32 2.00864 0.516564 0
M  V30 11717 C 1108.75 1.02466 1.57741 0
M  V30 11718 O 1108.1 0.000145439 1.813 0
M  V30 11719 C 1108.15 3.43552 1.09563 0
M  V30 11720 O 1107.26 3.4815 2.21055 0
M  V30 11721 H 1106.6 0.651835 0.126521 0
M  V30 11722 H 1109.13 2.0317 -0.241445 0
M  V30 11723 H 1109.14 3.82316 1.42473 0
M  V30 11724 H 1107.81 4.14677 0.318749 0
M  V30 11725 H 1106.39 3.21228 1.89387 0
M  V30 11726 N 1108.58 -0.128553 1.57075 0
M  V30 11727 C 1109.51 -1.18362 1.96273 0
M  V30 11728 C 1110.52 -1.3818 0.860818 0
M  V30 11729 O 1111.71 -1.37424 1.13916 0
M  V30 11730 C 1108.81 -2.54533 2.23755 0
M  V30 11731 C 1107.98 -2.55446 3.55058 0
M  V30 11732 C 1107.04 -3.73291 3.70864 0
M  V30 11733 O 1106.07 -3.57315 4.43074 0
M  V30 11734 N 1107.27 -4.91481 3.08912 0
M  V30 11735 H 1110.03 -0.850276 2.87385 0
M  V30 11736 H 1107.6 -0.317931 1.58748 0
M  V30 11737 H 1109.59 -3.31912 2.31553 0
M  V30 11738 H 1108.16 -2.80087 1.38816 0
M  V30 11739 H 1107.38 -1.6385 3.58534 0
M  V30 11740 H 1108.67 -2.53104 4.4138 0
M  V30 11741 H 1108.06 -5.07364 2.50196 0
M  V30 11742 H 1106.62 -5.6657 3.22245 0
M  V30 11743 N 1110.05 -1.5248 -0.398459 0
M  V30 11744 C 1111.28 -1.70925 -1.16586 0
M  V30 11745 C 1111.7 -0.42342 -1.83991 0
M  V30 11746 O 1111.05 0.601395 -1.72306 0
M  V30 11747 C 1111.1 -2.85226 -2.22099 0
M  V30 11748 O 1110.83 -4.08831 -1.57444 0
M  V30 11749 C 1112.33 -3.15272 -3.11639 0
M  V30 11750 H 1109.55 -0.572533 -0.349924 0
M  V30 11751 H 1112.09 -1.99087 -0.467416 0
M  V30 11752 H 1110.25 -2.59553 -2.87595 0
M  V30 11753 H 1110.66 -4.72603 -2.2748 0
M  V30 11754 H 1112.13 -3.98737 -3.81724 0
M  V30 11755 H 1112.61 -2.29262 -3.74614 0
M  V30 11756 H 1113.22 -3.42749 -2.518 0
M  V30 11757 N 1111.53 0.65634 -1.43283 0
M  V30 11758 C 1112.81 1.41339 -1.35213 0
M  V30 11759 C 1113.19 2.111 0.00158494 0
M  V30 11760 O 1112.54 2.0457 1.018 0
M  V30 11761 C 1112.75 2.40066 -2.53317 0
M  V30 11762 C 1114.09 3.04159 -2.96264 0
M  V30 11763 O 1115.12 2.50393 -2.53341 0
M  V30 11764 O 1113.98 4.01633 -3.70612 0
M  V30 11765 H 1111.07 0.631325 -0.534189 0
M  V30 11766 H 1113.62 0.68351 -1.55326 0
M  V30 11767 H 1112.39 1.87444 -3.43483 0
M  V30 11768 H 1112.01 3.20509 -2.35287 0
M  V30 11769 N 1113.01 1.29761 0.894412 0
M  V30 11770 C 1113.92 1.1724 2.03204 0
M  V30 11771 C 1114.94 0.0944452 1.73743 0
M  V30 11772 O 1116.11 0.307549 1.99038 0
M  V30 11773 C 1113.18 0.855416 3.35981 0
M  V30 11774 C 1112.24 2.01777 3.78926 0
M  V30 11775 C 1111.47 1.71581 5.05367 0
M  V30 11776 O 1111.69 0.639245 5.66807 0
M  V30 11777 O 1110.63 2.56539 5.44492 0
M  V30 11778 H 1114.45 2.12787 2.16692 0
M  V30 11779 H 1112.04 1.09264 1.0189 0
M  V30 11780 H 1113.92 0.693429 4.15656 0
M  V30 11781 H 1112.6 -0.0702195 3.23624 0
M  V30 11782 H 1111.5 2.23502 2.99996 0
M  V30 11783 H 1112.84 2.92479 3.95875 0
M  V30 11784 N 1114.49 -1.10549 1.12324 0
M  V30 11785 C 1115.4 -2.20428 0.803032 0
M  V30 11786 C 1116.41 -1.72756 -0.207674 0
M  V30 11787 O 1117.59 -2.01357 -0.0415623 0
M  V30 11788 C 1114.65 -3.45716 0.261032 0
M  V30 11789 C 1113.72 -4.08129 1.33152 0
M  V30 11790 C 1112.95 -5.27436 0.815288 0
M  V30 11791 O 1113.17 -5.69317 -0.351361 0
M  V30 11792 O 1112.11 -5.80674 1.58434 0
M  V30 11793 H 1115.93 -2.50249 1.72073 0
M  V30 11794 H 1113.52 -1.19263 0.899815 0
M  V30 11795 H 1115.4 -4.21384 -0.0364007 0
M  V30 11796 H 1114.07 -3.17525 -0.629249 0
M  V30 11797 H 1112.98 -3.3415 1.6821 0
M  V30 11798 H 1114.31 -4.4052 2.19552 0
M  V30 11799 N 1115.97 -0.914965 -1.28321 0
M  V30 11800 C 1116.91 -0.402792 -2.27258 0
M  V30 11801 C 1117.88 0.523412 -1.57638 0
M  V30 11802 O 1119.07 0.445344 -1.8553 0
M  V30 11803 C 1116.21 0.349956 -3.43321 0
M  V30 11804 C 1115.32 -0.608892 -4.27687 0
M  V30 11805 C 1114.46 0.162425 -5.30952 0
M  V30 11806 C 1113.49 -0.789959 -6.06981 0
M  V30 11807 N 1112.63 -0.0520826 -7.02081 0
M  V30 11808 H 1117.47 -1.25153 -2.70446 0
M  V30 11809 H 1115.01 -0.628444 -1.33 0
M  V30 11810 H 1116.97 0.802589 -4.09407 0
M  V30 11811 H 1115.6 1.16303 -3.01121 0
M  V30 11812 H 1114.65 -1.18005 -3.61634 0
M  V30 11813 H 1115.96 -1.33727 -4.8054 0
M  V30 11814 H 1115.11 0.675563 -6.02927 0
M  V30 11815 H 1113.85 0.923851 -4.7887 0
M  V30 11816 H 1112.86 -1.31446 -5.33856 0
M  V30 11817 H 1114.08 -1.55096 -6.61152 0
M  V30 11818 H 1112.03 0.691331 -6.52347 0
M  V30 11819 H 1111.95 -0.720267 -7.52561 0
M  V30 11820 H 1113.21 0.44082 -7.78253 0
M  V30 11821 N 1117.44 1.42219 -0.679077 0
M  V30 11822 C 1118.38 2.29172 0.035583 0
M  V30 11823 C 1119.39 1.43909 0.761183 0
M  V30 11824 O 1120.58 1.67584 0.61463 0
M  V30 11825 C 1117.68 3.21426 1.07419 0
M  V30 11826 C 1116.85 4.35364 0.421547 0
M  V30 11827 C 1115.91 5.08307 1.36051 0
M  V30 11828 O 1114.94 5.62678 0.859186 0
M  V30 11829 N 1116.14 5.14222 2.69362 0
M  V30 11830 H 1118.9 2.91147 -0.710865 0
M  V30 11831 H 1116.46 1.53192 -0.523821 0
M  V30 11832 H 1118.46 3.67091 1.70371 0
M  V30 11833 H 1117.03 2.60873 1.72233 0
M  V30 11834 H 1116.25 3.9229 -0.387559 0
M  V30 11835 H 1117.53 5.08789 -0.0329421 0
M  V30 11836 H 1116.93 4.71467 3.12627 0
M  V30 11837 H 1115.49 5.63519 3.27551 0
M  V30 11838 N 1118.92 0.422693 1.51826 0
M  V30 11839 C 1119.85 -0.43167 2.25098 0
M  V30 11840 C 1120.87 -0.998758 1.28564 0
M  V30 11841 O 1122.06 -0.89539 1.54418 0
M  V30 11842 C 1119.16 -1.61426 2.97985 0
M  V30 11843 C 1118.33 -1.16866 4.21499 0
M  V30 11844 C 1117.39 -2.2197 4.77091 0
M  V30 11845 O 1116.41 -1.82004 5.39317 0
M  V30 11846 N 1117.62 -3.54293 4.59844 0
M  V30 11847 H 1120.38 0.196255 2.99057 0
M  V30 11848 H 1117.94 0.25079 1.59946 0
M  V30 11849 H 1119.93 -2.31331 3.32066 0
M  V30 11850 H 1118.5 -2.14783 2.27128 0
M  V30 11851 H 1117.72 -0.297217 3.93078 0
M  V30 11852 H 1119.01 -0.848106 5.01682 0
M  V30 11853 H 1118.41 -3.89505 4.10247 0
M  V30 11854 H 1116.97 -4.20135 4.98327 0
M  V30 11855 N 1120.4 -1.5685 0.153553 0
M  V30 11856 C 1121.65 -1.95946 -0.494936 0
M  V30 11857 C 1121.97 -1.03975 -1.64967 0
M  V30 11858 O 1121.24 -0.102572 -1.95631 0
M  V30 11859 H 1119.82 -0.723516 -0.185833 0
M  V30 11860 H 1122.48 -1.93531 0.230585 0
M  V30 11861 H 1121.58 -2.99823 -0.866743 0
M  V30 11862 N 1121.88 0.120221 -1.57141 0
M  V30 11863 C 1122.81 1.14876 -2.03287 0
M  V30 11864 C 1123.79 1.43259 -0.917112 0
M  V30 11865 O 1124.97 1.53721 -1.18674 0
M  V30 11866 C 1122.1 2.47525 -2.43616 0
M  V30 11867 C 1121.06 2.33607 -3.58625 0
M  V30 11868 C 1120.38 3.71207 -3.84849 0
M  V30 11869 C 1121.68 1.79761 -4.90391 0
M  V30 11870 H 1123.38 0.764943 -2.89463 0
M  V30 11871 H 1120.92 0.366516 -1.39258 0
M  V30 11872 H 1122.88 3.19728 -2.74504 0
M  V30 11873 H 1121.6 2.87794 -1.54409 0
M  V30 11874 H 1120.26 1.63853 -3.27945 0
M  V30 11875 H 1119.91 4.0896 -2.9285 0
M  V30 11876 H 1119.61 3.62749 -4.62263 0
M  V30 11877 H 1121.13 4.44917 -4.18188 0
M  V30 11878 H 1122.55 2.4178 -5.19822 0
M  V30 11879 H 1120.94 1.82126 -5.71795 0
M  V30 11880 H 1122.01 0.755087 -4.78985 0
M  V30 11881 N 1123.36 1.52689 0.390367 0
M  V30 11882 C 1124.77 1.59623 0.968366 0
M  V30 11883 C 1125.12 0.44824 1.91011 0
M  V30 11884 O 1124.24 -0.428868 2.12108 0
M  V30 11885 C 1124.84 2.89312 1.76306 0
M  V30 11886 C 1123.4 2.98664 2.29079 0
M  V30 11887 C 1122.54 2.54725 1.09593 0
M  V30 11888 H 1125.5 1.57787 0.169959 0
M  V30 11889 H 1125.52 2.75721 2.62217 0
M  V30 11890 H 1125.03 3.72846 1.07738 0
M  V30 11891 H 1123.13 2.19665 3.00962 0
M  V30 11892 H 1123.24 4.03277 2.58659 0
M  V30 11893 H 1121.61 2.09012 1.45554 0
M  V30 11894 H 1122.39 3.40651 0.425625 0
M  V30 11895 N 1124.83 -0.648732 1.43629 0
M  V30 11896 C 1126.08 -1.41066 1.45699 0
M  V30 11897 C 1126.41 -1.94024 0.082612 0
M  V30 11898 O 1125.69 -1.7257 -0.897207 0
M  V30 11899 C 1125.97 -2.58882 2.50304 0
M  V30 11900 C 1125.82 -2.11387 3.97033 0
M  V30 11901 C 1127.14 -3.61092 2.51597 0
M  V30 11902 H 1124.26 -0.511591 0.530512 0
M  V30 11903 H 1126.9 -0.735069 1.75205 0
M  V30 11904 H 1125.05 -3.16518 2.25274 0
M  V30 11905 H 1126.73 -1.58718 4.33136 0
M  V30 11906 H 1124.97 -1.4272 4.0965 0
M  V30 11907 H 1125.64 -2.96129 4.65845 0
M  V30 11908 H 1128.12 -3.13223 2.73917 0
M  V30 11909 H 1126.99 -4.41071 3.26722 0
M  V30 11910 H 1127.25 -4.13985 1.55141 0
M  V30 11911 N 1126.31 -1.30234 -0.887518 0
M  V30 11912 C 1127.56 -1.19086 -1.64153 0
M  V30 11913 C 1127.89 0.254428 -1.92526 0
M  V30 11914 O 1127.17 1.18233 -1.54438 0
M  V30 11915 C 1127.45 -2.01723 -2.98295 0
M  V30 11916 C 1127.3 -3.54458 -2.76911 0
M  V30 11917 C 1128.62 -1.85307 -3.99186 0
M  V30 11918 H 1125.74 -0.433967 -0.595686 0
M  V30 11919 H 1128.38 -1.59839 -1.0272 0
M  V30 11920 H 1126.53 -1.67096 -3.5073 0
M  V30 11921 H 1128.2 -3.99131 -2.31284 0
M  V30 11922 H 1126.45 -3.78768 -2.11464 0
M  V30 11923 H 1127.12 -4.07565 -3.72283 0
M  V30 11924 H 1129.59 -2.15575 -3.55903 0
M  V30 11925 H 1128.47 -2.45456 -4.90961 0
M  V30 11926 H 1128.73 -0.811528 -4.34588 0
M  V30 11927 N 1127.79 1.09952 -1.12909 0
M  V30 11928 C 1128.72 2.15689 -0.745217 0
M  V30 11929 C 1129.7 1.60409 0.266007 0
M  V30 11930 O 1130.89 1.8783 0.158783 0
M  V30 11931 C 1128.01 3.38541 -0.103846 0
M  V30 11932 C 1127.06 4.12529 -1.0827 0
M  V30 11933 S 1127.89 4.67442 -2.61262 0
M  V30 11934 C 1129.05 5.936 -1.9847 0
M  V30 11935 H 1129.28 2.47918 -1.64086 0
M  V30 11936 H 1126.81 1.21817 -0.948682 0
M  V30 11937 H 1128.77 4.09677 0.259816 0
M  V30 11938 H 1127.43 3.04541 0.768982 0
M  V30 11939 H 1126.63 5.00632 -0.581653 0
M  V30 11940 H 1126.23 3.47228 -1.38955 0
M  V30 11941 H 1128.52 6.64308 -1.33048 0
M  V30 11942 H 1129.46 6.48374 -2.84634 0
M  V30 11943 H 1129.87 5.45864 -1.43848 0
M  V30 11944 N 1129.27 0.921757 1.27833 0
M  V30 11945 C 1130.68 0.604496 1.76643 0
M  V30 11946 C 1131.03 -0.880294 1.75343 0
M  V30 11947 O 1130.16 -1.68875 1.35315 0
M  V30 11948 C 1130.75 1.09055 3.20768 0
M  V30 11949 C 1129.31 0.824066 3.67268 0
M  V30 11950 C 1128.46 1.25269 2.47392 0
M  V30 11951 H 1131.41 1.10217 1.14184 0
M  V30 11952 H 1131.43 0.435558 3.77999 0
M  V30 11953 H 1130.94 2.17122 3.21682 0
M  V30 11954 H 1129.04 -0.243055 3.71806 0
M  V30 11955 H 1129.15 1.43743 4.57028 0
M  V30 11956 H 1127.52 0.671313 2.45694 0
M  V30 11957 H 1128.3 2.34188 2.5102 0
M  V30 11958 N 1130.75 -1.41857 0.686609 0
M  V30 11959 C 1131.99 -2.01666 0.214118 0
M  V30 11960 C 1132.33 -1.5422 -1.18025 0
M  V30 11961 O 1131.6 -0.749482 -1.7948 0
M  V30 11962 C 1131.88 -3.59147 0.261841 0
M  V30 11963 C 1131.74 -4.16742 1.69251 0
M  V30 11964 C 1133.06 -4.38427 -0.383378 0
M  V30 11965 H 1130.17 -0.732724 0.0792785 0
M  V30 11966 H 1132.82 -1.68724 0.873633 0
M  V30 11967 H 1130.97 -3.87342 -0.29971 0
M  V30 11968 H 1132.64 -3.99456 2.30722 0
M  V30 11969 H 1130.88 -3.72124 2.2295 0
M  V30 11970 H 1131.55 -5.25894 1.6775 0
M  V30 11971 H 1134.03 -4.15992 0.0947701 0
M  V30 11972 H 1132.9 -5.4797 -0.319401 0
M  V30 11973 H 1133.17 -4.172 -1.46276 0
M  V30 11974 N 1132.22 -0.430739 -1.51599 0
M  V30 11975 C 1133.47 0.137929 -2.0203 0
M  V30 11976 C 1133.8 1.43287 -1.31526 0
M  V30 11977 O 1133.05 1.9121 -0.416814 0
M  V30 11978 C 1133.35 0.410694 -3.55032 0
M  V30 11979 C 1133.02 -0.797634 -4.43789 0
M  V30 11980 C 1131.68 -1.12902 -4.67768 0
M  V30 11981 C 1134.03 -1.60403 -4.95904 0
M  V30 11982 C 1131.36 -2.2676 -5.41107 0
M  V30 11983 C 1133.71 -2.73354 -5.70491 0
M  V30 11984 C 1132.38 -3.06955 -5.92735 0
M  V30 11985 H 1131.65 0.0504718 -0.739279 0
M  V30 11986 H 1134.29 -0.576585 -1.82614 0
M  V30 11987 H 1132.6 1.20703 -3.72744 0
M  V30 11988 H 1134.3 0.864006 -3.91581 0
M  V30 11989 H 1130.89 -0.529397 -4.25318 0
M  V30 11990 H 1135.07 -1.36122 -4.77268 0
M  V30 11991 H 1130.33 -2.53114 -5.56546 0
M  V30 11992 H 1134.5 -3.36213 -6.09864 0
M  V30 11993 H 1132.13 -3.95293 -6.49344 0
M  V30 11994 N 1133.7 1.56767 -0.161869 0
M  V30 11995 C 1134.98 1.88245 0.531352 0
M  V30 11996 C 1135.36 1.07025 1.81958 0
M  V30 11997 O 1134.71 0.161385 2.27929 0
M  V30 11998 C 1134.92 3.40117 0.782416 0
M  V30 11999 C 1136.27 4.09655 1.11661 0
M  V30 12000 O 1137.29 3.4538 0.871274 0
M  V30 12001 O 1136.15 5.23192 1.57901 0
M  V30 12002 H 1133.24 0.780725 0.272759 0
M  V30 12003 H 1135.79 1.68522 -0.199597 0
M  V30 12004 H 1134.56 3.91088 -0.128677 0
M  V30 12005 H 1134.18 3.65418 1.56702 0
M  V30 12006 N 1135.18 -0.111886 1.57202 0
M  V30 12007 C 1136.6 -0.465629 1.52657 0
M  V30 12008 C 1136.8 -1.81463 0.875989 0
M  V30 12009 O 1135.85 -2.4825 0.461345 0
M  V30 12010 C 1137.17 -0.443571 2.9741 0
M  V30 12011 C 1138.71 -0.52662 3.08538 0
M  V30 12012 C 1139.19 -0.53488 4.54866 0
M  V30 12013 N 1140.68 -0.596117 4.59348 0
M  V30 12014 C 1141.41 -0.624073 5.69994 0
M  V30 12015 N 1140.91 -0.609245 6.90116 0
M  V30 12016 N 1142.7 -0.667619 5.58121 0
M  V30 12017 H 1134.85 0.771925 1.97876 0
M  V30 12018 H 1137.12 0.285534 0.903977 0
M  V30 12019 H 1136.82 0.480138 3.48407 0
M  V30 12020 H 1136.7 -1.26876 3.55221 0
M  V30 12021 H 1139.08 -1.44075 2.57539 0
M  V30 12022 H 1139.17 0.326396 2.53709 0
M  V30 12023 H 1138.81 0.375233 5.06512 0
M  V30 12024 H 1138.74 -1.40488 5.07514 0
M  V30 12025 H 1141.23 -0.613452 3.72888 0
M  V30 12026 H 1141.54 -0.633396 7.702 0
M  V30 12027 H 1139.89 -0.576557 6.92604 0
M  V30 12028 H 1143.08 -0.676616 4.63184 0
M  V30 12029 H 1143.25 -0.685938 6.44359 0
M  V30 12030 N 1136.66 -1.52894 -0.382264 0
M  V30 12031 C 1137.61 -1.78799 -1.48774 0
M  V30 12032 C 1138.6 -0.65624 -1.56173 0
M  V30 12033 O 1139.81 -0.838856 -1.59258 0
M  V30 12034 H 1136.18 -0.565855 -0.49529 0
M  V30 12035 H 1138.15 -2.7136 -1.24122 0
M  V30 12036 C 1136.9 -1.97987 -2.85826 0
M  V30 12037 H 1136.22 -2.84505 -2.80886 0
M  V30 12038 H 1137.66 -2.20099 -3.62398 0
M  V30 12039 C 1136.12 -0.75427 -3.28348 0
M  V30 12040 O 1136.65 0.0650749 -4.01647 0
M  V30 12041 N 1134.86 -0.582457 -2.84703 0
M  V30 12042 H 1134.41 -1.25034 -2.2522 0
M  V30 12043 H 1134.36 0.236208 -3.13511 0
M  V30 12044 N 1138.14 0.641106 -1.43971 0
M  V30 12045 C 1139.37 1.42829 -1.49692 0
M  V30 12046 C 1139.78 1.88427 -0.118594 0
M  V30 12047 O 1139.14 1.60234 0.873581 0
M  V30 12048 C 1139.19 2.65524 -2.45314 0
M  V30 12049 O 1138.91 2.2183 -3.77787 0
M  V30 12050 C 1140.41 3.58758 -2.60399 0
M  V30 12051 H 1137.63 0.438367 -0.508011 0
M  V30 12052 H 1140.17 0.784933 -1.88836 0
M  V30 12053 H 1138.33 3.25973 -2.09332 0
M  V30 12054 H 1138.74 3.01303 -4.29321 0
M  V30 12055 H 1140.22 4.41483 -3.31357 0
M  V30 12056 H 1140.69 4.06909 -1.65294 0
M  V30 12057 H 1141.3 3.04184 -2.97241 0
M  V30 12058 N 1139.62 1.30703 0.880598 0
M  V30 12059 C 1140.86 1.21066 1.64688 0
M  V30 12060 C 1141.22 -0.230015 1.90617 0
M  V30 12061 O 1142.42 -0.449696 2.65012 0
M  V30 12062 C 1140.69 2.02072 2.94791 0
M  V30 12063 S 1142.25 2.09182 3.85731 0
M  V30 12064 H 1139.07 0.431369 0.565192 0
M  V30 12065 H 1141.67 1.65234 1.04489 0
M  V30 12066 H 1140.37 3.05851 2.73648 0
M  V30 12067 H 1139.91 1.58583 3.60021 0
M  V30 12068 H 1141.92 1.22239 4.80908 0
M  V30 12069 N 1141.09 -1.09351 1.1349 0
M  V30 12070 C 1142.32 -1.85844 0.92069 0
M  V30 12071 C 1142.74 -1.80616 -0.525303 0
M  V30 12072 O 1142.1 -1.1842 -1.37282 0
M  V30 12073 C 1142.15 -3.31716 1.4141 0
M  V30 12074 O 1141.25 -4.08014 0.599838 0
M  V30 12075 H 1140.59 -0.576242 0.32991 0
M  V30 12076 H 1143.12 -1.38084 1.50976 0
M  V30 12077 H 1143.13 -3.82564 1.41805 0
M  V30 12078 H 1141.81 -3.34837 2.46692 0
M  V30 12079 H 1140.39 -3.66944 0.663816 0
M  V30 12080 N 1142.57 -0.928524 -1.27343 0
M  V30 12081 C 1143.82 -0.565207 -1.93619 0
M  V30 12082 C 1144.13 0.897988 -1.73769 0
M  V30 12083 O 1145.34 1.37012 -2.34393 0
M  V30 12084 C 1143.8 -0.960052 -3.46859 0
M  V30 12085 C 1143.4 -2.44399 -3.75464 0
M  V30 12086 C 1145.15 -0.668026 -4.19211 0
M  V30 12087 C 1143.05 -2.77819 -5.22083 0
M  V30 12088 H 1141.98 -0.207665 -0.724839 0
M  V30 12089 H 1144.64 -1.12945 -1.44623 0
M  V30 12090 H 1143.02 -0.324454 -3.94669 0
M  V30 12091 H 1144.19 -3.12756 -3.38408 0
M  V30 12092 H 1142.51 -2.70799 -3.16317 0
M  V30 12093 H 1145.1 -0.894207 -5.2717 0
M  V30 12094 H 1145.45 0.394788 -4.14424 0
M  V30 12095 H 1145.98 -1.26276 -3.77226 0
M  V30 12096 H 1142.72 -3.83013 -5.3196 0
M  V30 12097 H 1142.24 -2.14112 -5.60282 0
M  V30 12098 H 1143.92 -2.65607 -5.89968 0
M  V30 12099 N 1144.05 1.41491 -0.694123 0
M  V30 12100 C 1145.46 1.84283 -0.299439 0
M  V30 12101 C 1145.81 1.58081 1.16211 0
M  V30 12102 O 1144.94 1.05051 1.89191 0
M  V30 12103 C 1145.53 3.34522 -0.536696 0
M  V30 12104 C 1144.09 3.7589 -0.195944 0
M  V30 12105 C 1143.24 2.64908 -0.819692 0
M  V30 12106 H 1146.19 1.31063 -0.894884 0
M  V30 12107 H 1146.21 3.79947 0.205062 0
M  V30 12108 H 1145.72 3.53561 -1.6005 0
M  V30 12109 H 1143.82 3.62452 0.863655 0
M  V30 12110 H 1143.94 4.74671 -0.649954 0
M  V30 12111 H 1142.3 2.53476 -0.249412 0
M  V30 12112 H 1143.08 2.86765 -1.88734 0
M  V30 12113 N 1145.53 0.438773 1.51369 0
M  V30 12114 C 1146.47 -0.37195 2.27783 0
M  V30 12115 C 1147.44 -1.01558 1.31435 0
M  V30 12116 O 1148.63 -1.03421 1.60339 0
M  V30 12117 C 1145.77 -1.46636 3.12397 0
M  V30 12118 C 1144.88 -0.840727 4.2374 0
M  V30 12119 C 1144.02 -1.91031 4.95662 0
M  V30 12120 C 1143.06 -1.26318 5.98924 0
M  V30 12121 N 1142.19 -2.27419 6.64248 0
M  V30 12122 H 1147.03 0.286048 2.96624 0
M  V30 12123 H 1144.57 0.152909 1.46303 0
M  V30 12124 H 1146.53 -2.11219 3.59781 0
M  V30 12125 H 1145.16 -2.09397 2.45668 0
M  V30 12126 H 1144.21 -0.0831588 3.80309 0
M  V30 12127 H 1145.52 -0.328285 4.97719 0
M  V30 12128 H 1144.68 -2.63272 5.46601 0
M  V30 12129 H 1143.42 -2.45649 4.21317 0
M  V30 12130 H 1142.42 -0.526246 5.47276 0
M  V30 12131 H 1143.65 -0.724324 6.75226 0
M  V30 12132 H 1141.59 -2.81114 5.92715 0
M  V30 12133 H 1141.51 -1.81071 7.33996 0
M  V30 12134 H 1142.78 -2.99139 7.19817 0
M  V30 12135 N 1147.01 -1.56678 0.170181 0
M  V30 12136 C 1148.23 -2.0166 -0.484543 0
M  V30 12137 C 1148.66 -1.04962 -1.56091 0
M  V30 12138 O 1148.01 -0.0289887 -1.81277 0
M  V30 12139 C 1148.06 -3.45252 -1.04084 0
M  V30 12140 O 1147.17 -3.51623 -2.15488 0
M  V30 12141 H 1146.51 -0.653765 -0.116135 0
M  V30 12142 H 1149.04 -2.02761 0.273737 0
M  V30 12143 H 1149.05 -3.84534 -1.36373 0
M  V30 12144 H 1147.72 -4.15131 -0.252738 0
M  V30 12145 H 1146.3 -3.242 -1.84252 0
M  V30 12146 N 1148.48 0.103547 -1.57259 0
M  V30 12147 C 1149.42 1.15225 -1.98131 0
M  V30 12148 C 1150.43 1.36793 -0.882692 0
M  V30 12149 O 1151.62 1.35595 -1.16088 0
M  V30 12150 C 1148.72 2.50941 -2.27776 0
M  V30 12151 C 1147.89 2.49765 -3.59077 0
M  V30 12152 C 1146.95 3.67344 -3.76756 0
M  V30 12153 O 1145.98 3.50221 -4.48702 0
M  V30 12154 N 1147.18 4.86504 -3.16692 0
M  V30 12155 H 1149.94 0.804448 -2.88702 0
M  V30 12156 H 1147.5 0.292636 -1.59233 0
M  V30 12157 H 1149.5 3.28186 -2.36804 0
M  V30 12158 H 1148.07 2.77843 -1.43255 0
M  V30 12159 H 1147.29 1.58125 -3.61096 0
M  V30 12160 H 1148.57 2.4605 -4.4535 0
M  V30 12161 H 1147.97 5.03319 -2.58236 0
M  V30 12162 H 1146.53 5.61371 -3.31218 0
M  V30 12163 N 1149.96 1.53094 0.37415 0
M  V30 12164 C 1151.21 1.68082 1.11495 0
M  V30 12165 C 1151.52 0.434685 1.90709 0
M  V30 12166 O 1152.73 0.464956 2.67489 0
M  V30 12167 C 1151.19 2.97101 2.03124 0
M  V30 12168 C 1150.79 4.28947 1.29262 0
M  V30 12169 C 1152.54 3.21456 2.77248 0
M  V30 12170 C 1150.44 5.4906 2.19743 0
M  V30 12171 H 1149.37 0.626238 0.419931 0
M  V30 12172 H 1152.03 1.79594 0.376588 0
M  V30 12173 H 1150.41 2.79371 2.80656 0
M  V30 12174 H 1151.58 4.57279 0.568528 0
M  V30 12175 H 1149.9 4.10968 0.670362 0
M  V30 12176 H 1152.49 4.08377 3.45155 0
M  V30 12177 H 1152.84 2.37153 3.42146 0
M  V30 12178 H 1153.37 3.3982 2.06803 0
M  V30 12179 H 1150.11 6.35815 1.59437 0
M  V30 12180 H 1149.63 5.25019 2.90027 0
M  V30 12181 H 1151.31 5.83517 2.79495 0
M  V30 12182 N 1151.44 -0.633461 1.44309 0
M  V30 12183 C 1152.66 -1.42527 1.50668 0
M  V30 12184 C 1153.09 -1.87637 0.131861 0
M  V30 12185 O 1152.45 -1.58595 -0.878477 0
M  V30 12186 C 1152.5 -2.62328 2.47419 0
M  V30 12187 O 1151.6 -3.62081 1.97411 0
M  V30 12188 H 1150.94 -0.426559 0.508864 0
M  V30 12189 H 1153.47 -0.773392 1.8942 0
M  V30 12190 H 1153.48 -3.09901 2.65378 0
M  V30 12191 H 1152.16 -2.2884 3.47283 0
M  V30 12192 H 1150.73 -3.21333 1.89208 0
M  V30 12193 N 1152.92 -1.31168 -0.873655 0
M  V30 12194 C 1154.17 -1.20642 -1.6264 0
M  V30 12195 C 1154.49 0.236286 -1.93059 0
M  V30 12196 O 1153.75 1.18401 -1.55819 0
M  V30 12197 C 1154.05 -1.99204 -2.96736 0
M  V30 12198 C 1153.71 -3.48734 -2.85824 0
M  V30 12199 C 1152.38 -3.89507 -2.82555 0
M  V30 12200 C 1154.73 -4.43905 -2.73127 0
M  V30 12201 C 1152.06 -5.23724 -2.64442 0
M  V30 12202 C 1154.41 -5.78242 -2.56551 0
M  V30 12203 C 1153.07 -6.18241 -2.51663 0
M  V30 12204 H 1152.34 -0.44146 -0.595142 0
M  V30 12205 H 1154.99 -1.62394 -1.01492 0
M  V30 12206 H 1153.29 -1.50122 -3.61899 0
M  V30 12207 H 1154.99 -1.88443 -3.53963 0
M  V30 12208 H 1151.58 -3.1634 -2.89184 0
M  V30 12209 H 1155.76 -4.13338 -2.7471 0
M  V30 12210 H 1151.02 -5.53794 -2.59081 0
M  V30 12211 H 1155.19 -6.51616 -2.45702 0
M  V30 12212 H 1152.82 -7.22185 -2.37387 0
M  V30 12213 N 1154.4 1.08748 -1.14068 0
M  V30 12214 C 1155.65 1.8044 -0.901352 0
M  V30 12215 C 1155.96 1.86995 0.573791 0
M  V30 12216 O 1157.16 2.55065 0.930275 0
M  V30 12217 C 1155.62 3.24185 -1.56308 0
M  V30 12218 C 1155.23 3.25875 -3.07424 0
M  V30 12219 C 1156.97 4.00584 -1.40473 0
M  V30 12220 C 1154.88 4.64186 -3.66449 0
M  V30 12221 H 1153.81 0.676201 -0.333569 0
M  V30 12222 H 1156.46 1.22169 -1.3692 0
M  V30 12223 H 1154.84 3.82561 -1.0229 0
M  V30 12224 H 1156.02 2.77225 -3.6808 0
M  V30 12225 H 1154.33 2.62969 -3.22856 0
M  V30 12226 H 1156.93 5.02781 -1.81976 0
M  V30 12227 H 1157.27 4.14823 -0.350408 0
M  V30 12228 H 1157.8 3.48668 -1.91508 0
M  V30 12229 H 1154.54 4.5515 -4.71719 0
M  V30 12230 H 1154.06 5.13132 -3.10574 0
M  V30 12231 H 1155.74 5.33161 -3.66536 0
M  V30 12232 N 1155.87 0.935264 1.26849 0
M  V30 12233 C 1157.15 0.497797 1.8916 0
M  V30 12234 C 1157.53 -1.02441 1.84578 0
M  V30 12235 O 1156.88 -1.88185 1.29609 0
M  V30 12236 C 1157.09 1.05244 3.32753 0
M  V30 12237 C 1158.44 1.11751 4.0963 0
M  V30 12238 O 1159.46 1.0026 3.41799 0
M  V30 12239 O 1158.32 1.29548 5.30923 0
M  V30 12240 H 1155.41 0.161322 0.811113 0
M  V30 12241 H 1157.96 1.02744 1.35062 0
M  V30 12242 H 1156.73 2.09617 3.30419 0
M  V30 12243 H 1156.36 0.504889 3.94381 0
M  V30 12244 N 1157.35 -1.41121 0.701616 0
M  V30 12245 C 1158.58 -2.05154 0.244011 0
M  V30 12246 C 1158.99 -1.52922 -1.11407 0
M  V30 12247 O 1158.33 -0.67486 -1.70855 0
M  V30 12248 C 1158.4 -3.59262 0.130773 0
M  V30 12249 C 1158.06 -4.34318 1.42187 0
M  V30 12250 C 1159.06 -4.632 2.36097 0
M  V30 12251 C 1156.74 -4.73481 1.67693 0
M  V30 12252 C 1158.74 -5.30214 3.53768 0
M  V30 12253 C 1156.42 -5.4023 2.85648 0
M  V30 12254 C 1157.42 -5.68524 3.78509 0
M  V30 12255 O 1157.11 -6.33898 4.94397 0
M  V30 12256 H 1156.84 -0.666997 0.109957 0
M  V30 12257 H 1159.39 -1.81771 0.956473 0
M  V30 12258 H 1157.62 -3.81409 -0.637512 0
M  V30 12259 H 1159.31 -4.0486 -0.29044 0
M  V30 12260 H 1160.08 -4.3342 2.17652 0
M  V30 12261 H 1155.96 -4.50835 0.962733 0
M  V30 12262 H 1159.5 -5.52215 4.26267 0
M  V30 12263 H 1155.4 -5.69429 3.04008 0
M  V30 12264 H 1156.17 -6.52394 4.94292 0
M  V30 12265 N 1158.83 -0.446794 -1.51134 0
M  V30 12266 C 1160.08 0.116493 -2.02165 0
M  V30 12267 C 1160.41 1.41884 -1.33039 0
M  V30 12268 O 1159.66 1.90757 -0.437071 0
M  V30 12269 C 1159.96 0.373015 -3.55448 0
M  V30 12270 C 1159.63 -0.844659 -4.42918 0
M  V30 12271 C 1158.29 -1.17857 -4.66544 0
M  V30 12272 C 1160.64 -1.65653 -4.94174 0
M  V30 12273 C 1157.97 -2.32486 -5.38672 0
M  V30 12274 C 1160.32 -2.7939 -5.6756 0
M  V30 12275 C 1158.98 -3.13224 -5.89446 0
M  V30 12276 H 1158.25 0.0426279 -0.739773 0
M  V30 12277 H 1160.9 -0.595921 -1.81992 0
M  V30 12278 H 1159.21 1.16742 -3.74003 0
M  V30 12279 H 1160.9 0.822425 -3.92476 0
M  V30 12280 H 1157.49 -0.574478 -4.24733 0
M  V30 12281 H 1161.68 -1.41176 -4.75797 0
M  V30 12282 H 1156.93 -2.59003 -5.5383 0
M  V30 12283 H 1161.11 -3.42662 -6.06264 0
M  V30 12284 H 1158.73 -4.02158 -6.45115 0
M  V30 12285 N 1160.31 1.56586 -0.178487 0
M  V30 12286 C 1161.56 1.96273 0.464745 0
M  V30 12287 C 1161.87 1.0675 1.63902 0
M  V30 12288 O 1163.08 1.36148 2.34896 0
M  V30 12289 C 1161.53 3.49021 0.878207 0
M  V30 12290 C 1161.14 4.4718 -0.270861 0
M  V30 12291 C 1162.88 3.97512 1.48946 0
M  V30 12292 C 1160.79 5.91176 0.162632 0
M  V30 12293 H 1159.72 0.732834 0.177398 0
M  V30 12294 H 1162.37 1.81534 -0.267861 0
M  V30 12295 H 1160.75 3.59203 1.667 0
M  V30 12296 H 1161.93 4.48718 -1.04826 0
M  V30 12297 H 1160.24 4.08788 -0.792529 0
M  V30 12298 H 1162.84 5.02556 1.82595 0
M  V30 12299 H 1163.18 3.40861 2.38997 0
M  V30 12300 H 1163.72 3.90376 0.76496 0
M  V30 12301 H 1160.46 6.51716 -0.703286 0
M  V30 12302 H 1159.98 5.9293 0.905243 0
M  V30 12303 H 1161.65 6.44174 0.604084 0
M  V30 12304 N 1161.79 -0.095206 1.57312 0
M  V30 12305 C 1163.01 -0.81227 1.90289 0
M  V30 12306 C 1163.43 -1.72287 0.772178 0
M  V30 12307 O 1162.79 -1.80698 -0.255841 0
M  V30 12308 C 1162.84 -1.62572 3.22882 0
M  V30 12309 O 1162.56 -0.75175 4.31602 0
M  V30 12310 C 1164.06 -2.44585 3.6972 0
M  V30 12311 H 1161.28 -0.232256 0.629522 0
M  V30 12312 H 1163.82 -0.0724733 2.04372 0
M  V30 12313 H 1161.98 -2.31803 3.10397 0
M  V30 12314 H 1162.39 -1.31514 5.07744 0
M  V30 12315 H 1163.87 -2.97155 4.65191 0
M  V30 12316 H 1164.34 -3.23044 2.97555 0
M  V30 12317 H 1164.95 -1.80554 3.85072 0
M  V30 12318 N 1163.26 -1.53291 -0.366026 0
M  V30 12319 C 1164.54 -1.60055 -1.12436 0
M  V30 12320 C 1164.92 -0.407811 -2.07123 0
M  V30 12321 O 1164.27 0.601977 -2.20428 0
M  V30 12322 C 1164.48 -2.95062 -1.86385 0
M  V30 12323 C 1165.83 -3.49623 -2.40934 0
M  V30 12324 O 1166.85 -2.97088 -1.96512 0
M  V30 12325 O 1165.71 -4.41461 -3.2214 0
M  V30 12326 H 1162.8 -0.646476 -0.51575 0
M  V30 12327 H 1165.35 -1.65632 -0.369326 0
M  V30 12328 H 1164.12 -3.73312 -1.17277 0
M  V30 12329 H 1163.75 -2.92973 -2.68798 0
M  V30 12330 N 1164.74 0.6258 -1.44643 0
M  V30 12331 C 1165.68 1.75056 -1.46392 0
M  V30 12332 C 1166.65 1.59376 -0.322179 0
M  V30 12333 O 1167.84 1.81187 -0.519956 0
M  V30 12334 C 1164.96 3.12689 -1.30166 0
M  V30 12335 C 1164.01 3.47005 -2.47972 0
M  V30 12336 S 1164.84 3.43885 -4.10491 0
M  V30 12337 C 1166 4.84129 -3.96698 0
M  V30 12338 H 1166.23 1.73306 -2.41562 0
M  V30 12339 H 1163.77 0.800879 -1.32005 0
M  V30 12340 H 1165.72 3.9211 -1.21492 0
M  V30 12341 H 1164.38 3.11972 -0.364982 0
M  V30 12342 H 1163.58 4.47171 -2.32496 0
M  V30 12343 H 1163.18 2.75059 -2.53414 0
M  V30 12344 H 1165.47 5.73488 -3.60718 0
M  V30 12345 H 1166.41 5.0466 -4.96713 0
M  V30 12346 H 1166.82 4.58954 -3.28666 0
M  V30 12347 N 1166.22 1.31629 0.866686 0
M  V30 12348 C 1167.47 1.21503 1.61998 0
M  V30 12349 C 1167.8 -0.226044 1.93182 0
M  V30 12350 O 1167.05 -1.17573 1.56445 0
M  V30 12351 C 1167.35 2.00775 2.95676 0
M  V30 12352 C 1167.02 3.50245 2.83971 0
M  V30 12353 C 1165.68 3.91 2.80485 0
M  V30 12354 C 1168.03 4.45347 2.70769 0
M  V30 12355 C 1165.36 5.25119 2.61661 0
M  V30 12356 C 1167.71 5.79595 2.53481 0
M  V30 12357 C 1166.37 6.19567 2.48381 0
M  V30 12358 H 1165.64 0.44461 0.592792 0
M  V30 12359 H 1168.29 1.62929 1.00629 0
M  V30 12360 H 1166.6 1.52039 3.61097 0
M  V30 12361 H 1168.29 1.90318 3.52959 0
M  V30 12362 H 1164.88 3.17869 2.87502 0
M  V30 12363 H 1169.07 4.14789 2.72514 0
M  V30 12364 H 1164.32 5.5516 2.5614 0
M  V30 12365 H 1168.5 6.5291 2.42243 0
M  V30 12366 H 1166.12 7.23434 2.33554 0
M  V30 12367 N 1167.7 -1.08142 1.14644 0
M  V30 12368 C 1168.98 -1.77254 0.827071 0
M  V30 12369 C 1169.36 -1.99885 -0.67891 0
M  V30 12370 O 1168.7 -1.61084 -1.62062 0
M  V30 12371 C 1168.91 -3.08658 1.62884 0
M  V30 12372 C 1170.26 -3.83143 1.82993 0
M  V30 12373 O 1171.29 -3.18447 1.59593 0
M  V30 12374 O 1170.15 -4.9932 2.2213 0
M  V30 12375 H 1167.24 -0.769356 0.30335 0
M  V30 12376 H 1169.79 -1.1458 1.25178 0
M  V30 12377 H 1168.56 -2.87753 2.65168 0
M  V30 12378 H 1168.18 -3.79061 1.19994 0
M  V30 12379 N 1169.18 -0.941978 -1.26351 0
M  V30 12380 C 1170.14 -0.456768 -2.24602 0
M  V30 12381 C 1171.14 0.432574 -1.54872 0
M  V30 12382 O 1172.33 0.23164 -1.72653 0
M  V30 12383 C 1169.46 0.341583 -3.39184 0
M  V30 12384 H 1170.66 -1.32503 -2.69041 0
M  V30 12385 H 1168.21 -0.724021 -1.38519 0
M  V30 12386 H 1168.94 1.22806 -3.00149 0
M  V30 12387 H 1168.73 -0.296268 -3.90979 0
M  V30 12388 H 1170.22 0.670955 -4.12175 0
M  V30 12389 N 1170.66 1.40747 -0.709091 0
M  V30 12390 C 1171.9 2.01796 -0.254976 0
M  V30 12391 C 1172.26 1.55202 1.13711 0
M  V30 12392 O 1171.55 0.759312 1.75912 0
M  V30 12393 C 1171.74 3.56404 -0.266685 0
M  V30 12394 C 1171.57 4.18005 -1.65837 0
M  V30 12395 C 1170.34 4.51719 -2.26447 0
M  V30 12396 C 1172.54 4.43302 -2.60744 0
M  V30 12397 N 1170.52 4.9868 -3.58039 0
M  V30 12398 C 1171.89 4.92185 -3.77033 0
M  V30 12399 C 1173.95 4.25332 -2.58839 0
M  V30 12400 C 1172.65 5.24984 -4.91715 0
M  V30 12401 C 1174.68 4.59228 -3.72644 0
M  V30 12402 C 1174.04 5.08294 -4.87664 0
M  V30 12403 H 1170.14 0.769549 -0.138991 0
M  V30 12404 H 1172.72 1.71081 -0.929488 0
M  V30 12405 H 1170.89 3.86562 0.377365 0
M  V30 12406 H 1172.63 4.04188 0.203528 0
M  V30 12407 H 1169.38 4.38631 -1.78605 0
M  V30 12408 H 1169.8 5.2655 -4.25528 0
M  V30 12409 H 1174.45 3.86623 -1.71121 0
M  V30 12410 H 1172.16 5.6261 -5.80082 0
M  V30 12411 H 1175.75 4.4697 -3.72437 0
M  V30 12412 H 1174.63 5.3403 -5.74267 0
M  V30 12413 N 1172.13 0.454803 1.50895 0
M  V30 12414 C 1173.41 -0.166559 1.9489 0
M  V30 12415 C 1173.79 -1.58492 1.3944 0
M  V30 12416 O 1173.14 -2.20788 0.588622 0
M  V30 12417 C 1173.35 -0.126506 3.48771 0
M  V30 12418 C 1174.7 -0.32347 4.23366 0
M  V30 12419 O 1175.72 -0.203835 3.55616 0
M  V30 12420 O 1174.58 -0.563292 5.43589 0
M  V30 12421 H 1171.67 -0.120523 0.818171 0
M  V30 12422 H 1174.22 0.514037 1.61727 0
M  V30 12423 H 1172.99 0.864407 3.81633 0
M  V30 12424 H 1172.61 -0.849264 3.88424 0
M  V30 12425 N 1173.61 -1.56489 0.186789 0
M  V30 12426 C 1174.57 -2.17478 -0.723596 0
M  V30 12427 C 1175.57 -1.12698 -1.14699 0
M  V30 12428 O 1176.76 -1.38128 -1.06143 0
M  V30 12429 C 1173.9 -2.77015 -1.98685 0
M  V30 12430 H 1175.09 -2.99282 -0.192403 0
M  V30 12431 H 1172.64 -1.56174 -0.0628153 0
M  V30 12432 H 1173.38 -1.98987 -2.56076 0
M  V30 12433 H 1173.16 -3.53711 -1.69207 0
M  V30 12434 H 1174.65 -3.23872 -2.63622 0
M  V30 12435 N 1175.09 0.086862 -1.5736 0
M  V30 12436 C 1176.34 0.78884 -1.86504 0
M  V30 12437 C 1176.66 1.78329 -0.77646 0
M  V30 12438 O 1175.92 1.94354 0.229122 0
M  V30 12439 C 1176.22 1.54537 -3.22263 0
M  V30 12440 C 1175.88 0.692284 -4.45554 0
M  V30 12441 C 1174.55 0.45714 -4.79024 0
M  V30 12442 C 1176.9 0.0997695 -5.21105 0
M  V30 12443 C 1174.23 -0.380247 -5.85466 0
M  V30 12444 C 1176.58 -0.724986 -6.28432 0
M  V30 12445 C 1175.24 -0.970144 -6.60412 0
M  V30 12446 H 1174.51 0.288657 -0.682465 0
M  V30 12447 H 1177.16 0.050059 -1.91435 0
M  V30 12448 H 1175.46 2.35594 -3.13053 0
M  V30 12449 H 1177.16 2.09305 -3.42042 0
M  V30 12450 H 1173.75 0.885675 -4.19349 0
M  V30 12451 H 1177.94 0.268583 -4.95573 0
M  V30 12452 H 1173.19 -0.579084 -6.08651 0
M  V30 12453 H 1177.37 -1.19093 -6.86141 0
M  V30 12454 H 1174.99 -1.6208 -7.42721 0
M  V30 12455 N 1176.57 1.53483 0.357892 0
M  V30 12456 C 1177.81 1.70289 1.10134 0
M  V30 12457 C 1178.15 0.457296 1.88739 0
M  V30 12458 O 1177.42 -0.545527 1.86693 0
M  V30 12459 C 1177.7 2.95755 2.05429 0
M  V30 12460 C 1177.56 4.30489 1.30382 0
M  V30 12461 C 1178.88 3.16844 3.05447 0
M  V30 12462 H 1176 0.61965 0.399003 0
M  V30 12463 H 1178.64 1.86133 0.381357 0
M  V30 12464 H 1176.79 2.82377 2.66825 0
M  V30 12465 H 1178.46 4.55692 0.71711 0
M  V30 12466 H 1176.7 4.2955 0.605712 0
M  V30 12467 H 1177.37 5.14427 2.00171 0
M  V30 12468 H 1179.85 3.29458 2.54159 0
M  V30 12469 H 1178.73 4.06053 3.69341 0
M  V30 12470 H 1178.99 2.32476 3.76041 0
M  V30 12471 N 1178.05 -0.61812 1.44973 0
M  V30 12472 C 1179.32 -1.37705 1.38913 0
M  V30 12473 C 1179.7 -2.1103 0.054385 0
M  V30 12474 O 1179.05 -2.07197 -0.963409 0
M  V30 12475 C 1179.26 -2.33265 2.59593 0
M  V30 12476 C 1180.61 -2.96197 3.04224 0
M  V30 12477 O 1181.63 -2.43589 2.59891 0
M  V30 12478 O 1180.49 -3.91666 3.8113 0
M  V30 12479 H 1177.59 -0.61694 0.55074 0
M  V30 12480 H 1180.13 -0.642088 1.57084 0
M  V30 12481 H 1178.9 -1.78271 3.48332 0
M  V30 12482 H 1178.53 -3.14158 2.43702 0
M  V30 12483 N 1179.52 -1.32087 -0.859693 0
M  V30 12484 C 1180.45 -1.23204 -1.98351 0
M  V30 12485 C 1181.43 -0.116974 -1.69697 0
M  V30 12486 O 1182.62 -0.303301 -1.91817 0
M  V30 12487 C 1179.75 -0.949171 -3.34078 0
M  V30 12488 C 1178.7 -2.02493 -3.77069 0
M  V30 12489 C 1178.03 -1.59455 -5.1037 0
M  V30 12490 C 1179.33 -3.43934 -3.93074 0
M  V30 12491 H 1181.02 -2.17227 -2.0604 0
M  V30 12492 H 1178.57 -1.04577 -0.989931 0
M  V30 12493 H 1180.52 -0.873594 -4.12245 0
M  V30 12494 H 1179.25 0.0267095 -3.26589 0
M  V30 12495 H 1177.91 -2.09057 -3.01149 0
M  V30 12496 H 1177.55 -0.606256 -4.99333 0
M  V30 12497 H 1177.25 -2.31429 -5.40106 0
M  V30 12498 H 1178.78 -1.53325 -5.91036 0
M  V30 12499 H 1180.19 -3.39986 -4.61608 0
M  V30 12500 H 1178.59 -4.14214 -4.3422 0
M  V30 12501 H 1179.66 -3.83965 -2.9614 0
M  V30 12502 N 1181 1.07532 -1.15215 0
M  V30 12503 C 1182.41 1.61567 -0.935568 0
M  V30 12504 C 1182.76 1.89085 0.523557 0
M  V30 12505 O 1181.89 1.65495 1.39429 0
M  V30 12506 C 1182.48 2.93531 -1.69189 0
M  V30 12507 C 1181.04 3.44316 -1.52063 0
M  V30 12508 C 1180.19 2.18404 -1.70866 0
M  V30 12509 H 1183.14 0.906431 -1.30267 0
M  V30 12510 H 1183.16 3.62377 -1.16031 0
M  V30 12511 H 1182.67 2.73471 -2.75381 0
M  V30 12512 H 1180.77 3.69462 -0.482567 0
M  V30 12513 H 1180.89 4.20478 -2.29642 0
M  V30 12514 H 1179.25 2.28012 -1.13502 0
M  V30 12515 H 1180.03 2.00841 -2.7842 0
M  V30 12516 N 1182.48 0.948665 1.2585 0
M  V30 12517 C 1183.76 0.517832 1.88621 0
M  V30 12518 C 1184.14 -1.00477 1.85654 0
M  V30 12519 O 1183.49 -1.868 1.31598 0
M  V30 12520 C 1183.7 1.08768 3.31618 0
M  V30 12521 C 1185.04 1.16089 4.08422 0
M  V30 12522 O 1186.07 1.0388 3.40716 0
M  V30 12523 O 1184.93 1.35172 5.29519 0
M  V30 12524 H 1182.02 0.169916 0.809356 0
M  V30 12525 H 1184.57 1.04171 1.33964 0
M  V30 12526 H 1183.34 2.13109 3.28177 0
M  V30 12527 H 1182.96 0.54669 3.93824 0
M  V30 12528 N 1183.96 -1.40369 0.716545 0
M  V30 12529 C 1184.89 -2.33365 0.0793533 0
M  V30 12530 C 1185.87 -1.52943 -0.744482 0
M  V30 12531 O 1187.05 -1.81406 -0.693212 0
M  V30 12532 C 1184.18 -3.36928 -0.842429 0
M  V30 12533 C 1183.14 -4.2782 -0.124142 0
M  V30 12534 C 1182.46 -5.21928 -1.1617 0
M  V30 12535 C 1183.76 -5.12199 1.02224 0
M  V30 12536 H 1185.46 -2.86899 0.856115 0
M  V30 12537 H 1183 -1.37946 0.413138 0
M  V30 12538 H 1184.96 -4.00925 -1.29759 0
M  V30 12539 H 1183.68 -2.81791 -1.6511 0
M  V30 12540 H 1182.34 -3.65277 0.311201 0
M  V30 12541 H 1181.99 -4.63096 -1.96345 0
M  V30 12542 H 1181.69 -5.83582 -0.685978 0
M  V30 12543 H 1183.21 -5.88802 -1.61694 0
M  V30 12544 H 1184.63 -5.69644 0.646399 0
M  V30 12545 H 1183.02 -5.82901 1.4264 0
M  V30 12546 H 1184.09 -4.4812 1.85246 0
M  V30 12547 N 1185.44 -0.462799 -1.50652 0
M  V30 12548 C 1186.37 0.381469 -2.24989 0
M  V30 12549 C 1187.35 1.00328 -1.27957 0
M  V30 12550 O 1188.53 1.04082 -1.5716 0
M  V30 12551 C 1185.66 1.53378 -3.01981 0
M  V30 12552 C 1184.7 1.03017 -4.13872 0
M  V30 12553 S 1185.54 -0.048447 -5.35478 0
M  V30 12554 C 1186.69 1.10794 -6.16016 0
M  V30 12555 H 1186.93 -0.249578 -2.96251 0
M  V30 12556 H 1184.46 -0.247583 -1.52402 0
M  V30 12557 H 1186.42 2.19425 -3.46934 0
M  V30 12558 H 1185.08 2.13632 -2.30261 0
M  V30 12559 H 1184.27 1.8926 -4.67115 0
M  V30 12560 H 1183.87 0.447548 -3.71313 0
M  V30 12561 H 1186.17 2.02125 -6.46646 0
M  V30 12562 H 1187.11 0.614937 -7.05425 0
M  V30 12563 H 1187.52 1.35802 -5.47922 0
M  V30 12564 N 1186.91 1.56388 -0.195085 0
M  V30 12565 C 1187.85 2.16316 0.757643 0
M  V30 12566 C 1188.86 1.12498 1.17678 0
M  V30 12567 O 1190.05 1.39591 1.11251 0
M  V30 12568 C 1187.15 2.7104 2.03447 0
M  V30 12569 C 1186.32 3.99759 1.77514 0
M  V30 12570 C 1185.38 4.3931 2.89644 0
M  V30 12571 O 1184.41 5.06732 2.59252 0
M  V30 12572 N 1185.61 4.02813 4.17998 0
M  V30 12573 H 1188.37 2.98696 0.24517 0
M  V30 12574 H 1185.93 1.61895 -0.0131194 0
M  V30 12575 H 1187.93 2.94483 2.776 0
M  V30 12576 H 1186.5 1.93114 2.45817 0
M  V30 12577 H 1185.72 3.84448 0.8714 0
M  V30 12578 H 1187 4.83782 1.57585 0
M  V30 12579 H 1186.4 3.4858 4.45543 0
M  V30 12580 H 1184.96 4.31206 4.88779 0
M  V30 12581 N 1188.39 -0.0785156 1.57404 0
M  V30 12582 C 1189.34 -1.10077 1.99668 0
M  V30 12583 C 1190.33 -1.34855 0.87767 0
M  V30 12584 O 1191.52 -1.35268 1.14156 0
M  V30 12585 C 1188.65 -2.41641 2.43854 0
M  V30 12586 C 1187.73 -2.20166 3.62475 0
M  V30 12587 N 1188.12 -1.68602 4.76872 0
M  V30 12588 C 1186.42 -2.50666 3.68894 0
M  V30 12589 C 1187.12 -1.61785 5.58749 0
M  V30 12590 N 1186.1 -2.07595 5.02399 0
M  V30 12591 H 1189.9 -0.695297 2.85557 0
M  V30 12592 H 1187.42 -0.285694 1.59867 0
M  V30 12593 H 1189.41 -3.15629 2.72367 0
M  V30 12594 H 1188.07 -2.8291 1.59348 0
M  V30 12595 H 1189.08 -1.37561 4.99297 0
M  V30 12596 H 1185.76 -2.95348 2.95087 0
M  V30 12597 H 1187.15 -1.22828 6.60578 0
M  V30 12598 N 1189.87 -1.5367 -0.349747 0
M  V30 12599 C 1190.8 -1.84208 -1.43492 0
M  V30 12600 C 1191.78 -0.696725 -1.55177 0
M  V30 12601 O 1192.97 -0.948061 -1.69486 0
M  V30 12602 C 1190.1 -2.04613 -2.80625 0
M  V30 12603 C 1189.05 -3.20419 -2.83753 0
M  V30 12604 C 1188.38 -3.26147 -4.23713 0
M  V30 12605 C 1189.68 -4.58666 -2.49846 0
M  V30 12606 H 1191.37 -2.75087 -1.18185 0
M  V30 12607 H 1188.92 -1.32363 -0.567101 0
M  V30 12608 H 1190.87 -2.2456 -3.56582 0
M  V30 12609 H 1189.59 -1.10459 -3.07354 0
M  V30 12610 H 1188.25 -3.00318 -2.10249 0
M  V30 12611 H 1187.9 -2.29599 -4.47541 0
M  V30 12612 H 1187.6 -4.03963 -4.26717 0
M  V30 12613 H 1189.12 -3.48296 -5.0152 0
M  V30 12614 H 1190.54 -4.78668 -3.15516 0
M  V30 12615 H 1188.94 -5.3884 -2.64144 0
M  V30 12616 H 1190.01 -4.62697 -1.4505 0
M  V30 12617 N 1191.35 0.610423 -1.45298 0
M  V30 12618 C 1192.63 1.36966 -1.39641 0
M  V30 12619 C 1193.01 2.10998 -0.0655757 0
M  V30 12620 O 1192.35 2.07705 0.952407 0
M  V30 12621 C 1192.56 2.31885 -2.60826 0
M  V30 12622 C 1193.91 2.9458 -3.05791 0
M  V30 12623 O 1194.94 2.42207 -2.61179 0
M  V30 12624 O 1193.79 3.89639 -3.83202 0
M  V30 12625 H 1190.89 0.61401 -0.554004 0
M  V30 12626 H 1193.43 0.633748 -1.57422 0
M  V30 12627 H 1192.21 1.76421 -3.49272 0
M  V30 12628 H 1191.83 3.12861 -2.45364 0
M  V30 12629 N 1192.83 1.32541 0.852676 0
M  V30 12630 C 1193.77 1.21602 1.98282 0
M  V30 12631 C 1194.77 0.120384 1.68972 0
M  V30 12632 O 1195.97 0.283441 1.77754 0
M  V30 12633 H 1192.35 0.376994 0.650676 0
M  V30 12634 H 1194.32 2.17179 2.04636 0
M  V30 12635 C 1193.07 0.957965 3.34243 0
M  V30 12636 H 1192.39 1.79324 3.57327 0
M  V30 12637 H 1193.83 0.921673 4.13861 0
M  V30 12638 C 1192.29 -0.339271 3.35187 0
M  V30 12639 O 1192.82 -1.3505 3.78318 0
M  V30 12640 N 1191.03 -0.361944 2.88337 0
M  V30 12641 H 1190.57 0.461497 2.53432 0
M  V30 12642 H 1190.53 -1.22976 2.89352 0
M  V30 12643 N 1194.3 -1.0692 1.15784 0
M  V30 12644 C 1195.25 -2.16335 0.854506 0
M  V30 12645 C 1196.25 -1.68505 -0.173868 0
M  V30 12646 O 1197.45 -1.79977 -0.0284722 0
M  V30 12647 H 1193.83 -0.706103 0.258694 0
M  V30 12648 H 1195.8 -2.39135 1.78486 0
M  V30 12649 C 1194.55 -3.45778 0.365042 0
M  V30 12650 H 1193.87 -3.82971 1.14776 0
M  V30 12651 H 1195.31 -4.23567 0.191504 0
M  V30 12652 C 1193.77 -3.24258 -0.914253 0
M  V30 12653 O 1194.3 -3.49236 -1.98487 0
M  V30 12654 N 1192.51 -2.77722 -0.855501 0
M  V30 12655 H 1192.05 -2.57595 0.0159233 0
M  V30 12656 H 1192.01 -2.63702 -1.71198 0
M  V30 12657 N 1195.78 -0.955326 -1.25345 0
M  V30 12658 C 1197.03 -0.610484 -1.93079 0
M  V30 12659 C 1197.36 0.852591 -1.74817 0
M  V30 12660 O 1196.61 1.6272 -1.08723 0
M  V30 12661 C 1196.91 -0.916173 -3.45458 0
M  V30 12662 C 1196.58 -2.36539 -3.83875 0
M  V30 12663 C 1195.24 -2.76152 -3.94073 0
M  V30 12664 C 1197.59 -3.30652 -4.02888 0
M  V30 12665 C 1194.92 -4.08944 -4.20692 0
M  V30 12666 C 1197.27 -4.63057 -4.31 0
M  V30 12667 C 1195.94 -5.02464 -4.39415 0
M  V30 12668 H 1195.21 -0.223392 -0.706525 0
M  V30 12669 H 1197.85 -1.20449 -1.48877 0
M  V30 12670 H 1196.16 -0.23978 -3.91066 0
M  V30 12671 H 1197.85 -0.627929 -3.96053 0
M  V30 12672 H 1194.44 -2.04819 -3.76493 0
M  V30 12673 H 1198.63 -3.01237 -3.94423 0
M  V30 12674 H 1193.88 -4.39118 -4.25423 0
M  V30 12675 H 1198.06 -5.3596 -4.44657 0
M  V30 12676 H 1195.69 -6.05386 -4.59795 0
M  V30 12677 N 1197.26 1.39987 -0.723979 0
M  V30 12678 C 1198.21 2.30672 -0.0768286 0
M  V30 12679 C 1199.18 1.48634 0.741422 0
M  V30 12680 O 1200.36 1.77351 0.703649 0
M  V30 12681 C 1197.5 3.34902 0.832729 0
M  V30 12682 C 1196.62 4.32 0.00304942 0
M  V30 12683 C 1195.75 5.23298 0.91286 0
M  V30 12684 C 1194.79 6.12051 0.0777706 0
M  V30 12685 N 1193.93 6.9574 0.942912 0
M  V30 12686 H 1198.77 2.85446 -0.855832 0
M  V30 12687 H 1196.3 1.40561 -0.433718 0
M  V30 12688 H 1198.26 3.93911 1.37441 0
M  V30 12689 H 1196.89 2.81611 1.57782 0
M  V30 12690 H 1195.94 3.74702 -0.655916 0
M  V30 12691 H 1197.26 4.94637 -0.643124 0
M  V30 12692 H 1196.41 5.87279 1.52277 0
M  V30 12693 H 1195.15 4.60956 1.59284 0
M  V30 12694 H 1194.15 5.47092 -0.545022 0
M  V30 12695 H 1195.38 6.76455 -0.598827 0
M  V30 12696 H 1193.33 6.35977 1.60838 0
M  V30 12697 H 1193.24 7.55176 0.352968 0
M  V30 12698 H 1194.51 7.64162 1.53874 0
M  V30 12699 N 1198.74 0.470782 1.50404 0
M  V30 12700 C 1199.97 -0.0818945 2.06438 0
M  V30 12701 C 1200.38 -1.34085 1.33483 0
M  V30 12702 O 1199.72 -1.79346 0.397565 0
M  V30 12703 C 1199.78 -0.436252 3.56843 0
M  V30 12704 C 1199.45 0.720641 4.51282 0
M  V30 12705 C 1200.44 1.60258 4.94584 0
M  V30 12706 C 1198.13 0.910879 4.93972 0
M  V30 12707 C 1200.12 2.65916 5.79282 0
M  V30 12708 C 1197.81 1.97069 5.78452 0
M  V30 12709 C 1198.81 2.84319 6.21008 0
M  V30 12710 O 1198.5 3.88476 7.03805 0
M  V30 12711 H 1198.23 0.00361688 0.67599 0
M  V30 12712 H 1200.78 0.658488 1.94559 0
M  V30 12713 H 1199.01 -1.22982 3.66623 0
M  V30 12714 H 1200.7 -0.923976 3.95244 0
M  V30 12715 H 1201.47 1.46729 4.62272 0
M  V30 12716 H 1197.35 0.241225 4.60368 0
M  V30 12717 H 1200.89 3.3405 6.12419 0
M  V30 12718 H 1196.79 2.10605 6.10177 0
M  V30 12719 H 1197.55 3.8546 7.22054 0
M  V30 12720 N 1200.22 -1.56282 0.203376 0
M  V30 12721 C 1201.46 -1.98864 -0.427176 0
M  V30 12722 C 1201.82 -1.08828 -1.58664 0
M  V30 12723 O 1201.11 -0.134399 -1.91128 0
M  V30 12724 C 1201.31 -3.45148 -0.927759 0
M  V30 12725 C 1201.13 -4.49333 0.18166 0
M  V30 12726 C 1199.9 -5.01204 0.642046 0
M  V30 12727 C 1202.1 -5.04612 0.993548 0
M  V30 12728 N 1200.08 -5.89066 1.72842 0
M  V30 12729 C 1201.46 -5.89223 1.92915 0
M  V30 12730 C 1203.51 -4.87023 1.03503 0
M  V30 12731 C 1202.21 -6.58125 2.90282 0
M  V30 12732 C 1204.24 -5.56671 1.99679 0
M  V30 12733 C 1203.6 -6.41035 2.91982 0
M  V30 12734 H 1199.7 -0.772186 -0.123501 0
M  V30 12735 H 1202.28 -1.92201 0.310974 0
M  V30 12736 H 1200.46 -3.52295 -1.63533 0
M  V30 12737 H 1202.19 -3.7468 -1.52961 0
M  V30 12738 H 1198.94 -4.73022 0.233895 0
M  V30 12739 H 1199.37 -6.377 2.27306 0
M  V30 12740 H 1204.01 -4.21468 0.335379 0
M  V30 12741 H 1201.73 -7.22874 3.61219 0
M  V30 12742 H 1205.31 -5.45034 2.0354 0
M  V30 12743 H 1204.19 -6.93979 3.65189 0
M  V30 12744 N 1201.7 0.070167 -1.57444 0
M  V30 12745 C 1202.64 1.08322 -2.03801 0
M  V30 12746 C 1203.61 1.38364 -0.918946 0
M  V30 12747 O 1204.8 1.49404 -1.18672 0
M  V30 12748 C 1201.94 2.39128 -2.48821 0
M  V30 12749 C 1201.05 2.15603 -3.74352 0
M  V30 12750 C 1200.19 3.39984 -4.08148 0
M  V30 12751 C 1199.22 3.1183 -5.26715 0
M  V30 12752 N 1198.36 4.28546 -5.56141 0
M  V30 12753 H 1203.2 0.680931 -2.90116 0
M  V30 12754 H 1200.74 0.324657 -1.43473 0
M  V30 12755 H 1202.7 3.15501 -2.72975 0
M  V30 12756 H 1201.33 2.77157 -1.65481 0
M  V30 12757 H 1200.38 1.29915 -3.57528 0
M  V30 12758 H 1201.69 1.90808 -4.60862 0
M  V30 12759 H 1200.84 4.2475 -4.33211 0
M  V30 12760 H 1199.58 3.67856 -3.20208 0
M  V30 12761 H 1198.59 2.2546 -5.01446 0
M  V30 12762 H 1199.81 2.85278 -6.16273 0
M  V30 12763 H 1197.76 4.56447 -4.71161 0
M  V30 12764 H 1197.68 4.0703 -6.37073 0
M  V30 12765 H 1198.94 5.14305 -5.85757 0
M  V30 12766 N 1203.17 1.53854 0.341593 0
M  V30 12767 C 1204.42 1.70856 1.07948 0
M  V30 12768 C 1204.74 0.475474 1.89114 0
M  V30 12769 O 1204.01 -0.510592 1.89129 0
M  V30 12770 H 1202.59 0.629914 0.401519 0
M  V30 12771 H 1205.25 1.91112 0.382393 0
M  V30 12772 H 1204.35 2.5803 1.75575 0
M  V30 12773 N 1204.65 -0.602709 1.4562 0
M  V30 12774 C 1205.58 -1.72374 1.5751 0
M  V30 12775 C 1206.56 -1.64669 0.426389 0
M  V30 12776 O 1207.75 -1.82994 0.650143 0
M  V30 12777 C 1204.88 -3.10987 1.5461 0
M  V30 12778 C 1203.83 -3.33507 2.68248 0
M  V30 12779 C 1203.16 -4.72443 2.50403 0
M  V30 12780 C 1204.46 -3.23285 4.10224 0
M  V30 12781 H 1206.15 -1.62679 2.51348 0
M  V30 12782 H 1203.7 -0.781217 1.20967 0
M  V30 12783 H 1205.65 -3.89214 1.61525 0
M  V30 12784 H 1204.37 -3.21533 0.573049 0
M  V30 12785 H 1203.03 -2.57672 2.60769 0
M  V30 12786 H 1202.68 -4.79729 1.51226 0
M  V30 12787 H 1202.38 -4.88466 3.26611 0
M  V30 12788 H 1203.91 -5.52864 2.59179 0
M  V30 12789 H 1205.32 -3.91381 4.1892 0
M  V30 12790 H 1203.72 -3.50837 4.86861 0
M  V30 12791 H 1204.79 -2.20652 4.31788 0
M  V30 12792 N 1206.13 -1.32992 -0.845635 0
M  V30 12793 C 1207.41 -1.14671 -1.58461 0
M  V30 12794 C 1207.79 0.289498 -2.09106 0
M  V30 12795 O 1207.13 1.28751 -1.88773 0
M  V30 12796 C 1207.34 -2.18206 -2.72373 0
M  V30 12797 C 1208.69 -2.5201 -3.41726 0
M  V30 12798 O 1209.72 -2.16821 -2.82608 0
M  V30 12799 O 1208.58 -3.12368 -4.48429 0
M  V30 12800 H 1205.67 -0.443088 -0.698285 0
M  V30 12801 H 1208.22 -1.44552 -0.888978 0
M  V30 12802 H 1206.99 -3.14707 -2.32541 0
M  V30 12803 H 1206.61 -1.89372 -3.49605 0
M  V30 12804 N 1207.61 1.06304 -1.1635 0
M  V30 12805 C 1208.52 2.17296 -0.884289 0
M  V30 12806 C 1209.53 1.73408 0.143414 0
M  V30 12807 O 1210.71 2.01373 -0.0331987 0
M  V30 12808 C 1207.77 3.44509 -0.389163 0
M  V30 12809 C 1206.84 4.02906 -1.48208 0
M  V30 12810 C 1206.07 5.24047 -1.01048 0
M  V30 12811 O 1206.29 5.70229 0.139821 0
M  V30 12812 O 1205.23 5.74394 -1.79876 0
M  V30 12813 H 1209.05 2.4369 -1.81243 0
M  V30 12814 H 1206.64 1.15841 -0.943459 0
M  V30 12815 H 1208.52 4.21229 -0.120018 0
M  V30 12816 H 1207.19 3.19642 0.510968 0
M  V30 12817 H 1206.1 3.27677 -1.80496 0
M  V30 12818 H 1207.43 4.32068 -2.35751 0
M  V30 12819 N 1209.09 0.96196 1.24836 0
M  V30 12820 C 1210.02 0.432188 2.2407 0
M  V30 12821 C 1211 -0.490539 1.55024 0
M  V30 12822 O 1212.18 -0.423236 1.83687 0
M  V30 12823 C 1209.31 -0.37673 3.36598 0
M  V30 12824 C 1208.35 0.48745 4.23705 0
M  V30 12825 S 1209.19 1.92417 4.99736 0
M  V30 12826 C 1210.34 1.12388 6.15727 0
M  V30 12827 H 1210.58 1.27315 2.6866 0
M  V30 12828 H 1208.11 0.766568 1.34026 0
M  V30 12829 H 1210.07 -0.837488 4.01866 0
M  V30 12830 H 1208.73 -1.1926 2.90579 0
M  V30 12831 H 1207.92 -0.133338 5.03824 0
M  V30 12832 H 1207.52 0.883707 3.6341 0
M  V30 12833 H 1209.81 0.376097 6.76455 0
M  V30 12834 H 1210.76 1.89924 6.82154 0
M  V30 12835 H 1211.17 0.650779 5.60736 0
M  V30 12836 N 1210.56 -1.39601 0.731392 0
M  V30 12837 C 1211.51 -2.30628 0.0890606 0
M  V30 12838 C 1212.48 -1.49025 -0.73353 0
M  V30 12839 O 1213.67 -1.77722 -0.694234 0
M  V30 12840 C 1210.81 -3.35339 -0.814956 0
M  V30 12841 C 1209.92 -4.31995 0.0198606 0
M  V30 12842 C 1209.05 -5.23774 -0.885095 0
M  V30 12843 C 1208.09 -6.12083 -0.045311 0
M  V30 12844 N 1207.23 -6.9623 -0.906002 0
M  V30 12845 H 1212.07 -2.84988 0.870958 0
M  V30 12846 H 1209.61 -1.40329 0.441166 0
M  V30 12847 H 1211.56 -3.94634 -1.3535 0
M  V30 12848 H 1210.19 -2.82443 -1.56287 0
M  V30 12849 H 1209.25 -3.74349 0.675778 0
M  V30 12850 H 1210.56 -4.94289 0.669346 0
M  V30 12851 H 1209.71 -5.88078 -1.49161 0
M  V30 12852 H 1208.45 -4.61794 -1.56837 0
M  V30 12853 H 1207.46 -5.46795 0.574028 0
M  V30 12854 H 1208.68 -6.76128 0.634692 0
M  V30 12855 H 1206.63 -6.36821 -1.57463 0
M  V30 12856 H 1206.54 -7.55352 -0.312914 0
M  V30 12857 H 1207.81 -7.64967 -1.49819 0
M  V30 12858 N 1212.04 -0.478751 -1.50152 0
M  V30 12859 C 1212.97 0.301182 -2.31549 0
M  V30 12860 C 1213.95 0.983276 -1.38801 0
M  V30 12861 O 1215.14 0.978973 -1.67719 0
M  V30 12862 C 1212.27 1.3791 -3.18745 0
M  V30 12863 C 1211.22 0.818175 -4.20107 0
M  V30 12864 C 1210.55 1.99496 -4.9609 0
M  V30 12865 C 1211.85 -0.17574 -5.22004 0
M  V30 12866 H 1213.54 -0.378188 -2.97002 0
M  V30 12867 H 1211.09 -0.183323 -1.42828 0
M  V30 12868 H 1213.04 1.93227 -3.74488 0
M  V30 12869 H 1211.77 2.08735 -2.51192 0
M  V30 12870 H 1210.42 0.286924 -3.65475 0
M  V30 12871 H 1210.07 2.69036 -4.25004 0
M  V30 12872 H 1209.77 1.62582 -5.6466 0
M  V30 12873 H 1211.3 2.55288 -5.54671 0
M  V30 12874 H 1212.71 0.288513 -5.72574 0
M  V30 12875 H 1211.11 -0.459549 -5.98338 0
M  V30 12876 H 1212.18 -1.09911 -4.72279 0
M  V30 12877 N 1213.52 1.56172 -0.211661 0
M  V30 12878 C 1214.94 1.5895 0.143907 0
M  V30 12879 C 1215.14 1.22826 1.59737 0
M  V30 12880 O 1214.19 0.958823 2.33587 0
M  V30 12881 C 1215.51 3.00199 -0.173438 0
M  V30 12882 C 1217.05 3.12789 -0.114877 0
M  V30 12883 C 1217.53 4.56199 -0.405759 0
M  V30 12884 N 1219.02 4.61838 -0.354973 0
M  V30 12885 C 1219.75 5.70721 -0.553671 0
M  V30 12886 N 1219.25 6.88006 -0.813613 0
M  V30 12887 N 1221.04 5.59988 -0.486787 0
M  V30 12888 H 1213.19 1.77931 -1.15993 0
M  V30 12889 H 1215.46 0.826569 -0.464206 0
M  V30 12890 H 1215.16 3.31248 -1.18186 0
M  V30 12891 H 1215.04 3.73651 0.516232 0
M  V30 12892 H 1217.42 2.81543 0.884166 0
M  V30 12893 H 1217.51 2.41688 -0.837875 0
M  V30 12894 H 1217.15 4.88161 -1.40219 0
M  V30 12895 H 1217.08 5.25512 0.338318 0
M  V30 12896 H 1219.57 3.77555 -0.161352 0
M  V30 12897 H 1219.88 7.66894 -0.953594 0
M  V30 12898 H 1218.23 6.89774 -0.850696 0
M  V30 12899 H 1221.42 4.67238 -0.284009 0
M  V30 12900 H 1221.59 6.44781 -0.645051 0
M  V30 12901 N 1215 -0.0618163 1.57479 0
M  V30 12902 C 1215.95 -1.09105 2.05424 0
M  V30 12903 C 1216.94 -1.3947 0.961479 0
M  V30 12904 O 1218.15 -1.3876 1.14655 0
M  V30 12905 H 1214.52 -0.36923 0.655113 0
M  V30 12906 H 1216.49 -0.66061 2.90996 0
M  V30 12907 C 1215.24 -2.39345 2.52209 0
M  V30 12908 H 1214.56 -2.16832 3.35893 0
M  V30 12909 H 1216 -3.09784 2.89499 0
M  V30 12910 C 1214.46 -3.06011 1.40922 0
M  V30 12911 O 1214.99 -3.94504 0.756921 0
M  V30 12912 N 1213.2 -2.66797 1.15186 0
M  V30 12913 H 1212.75 -1.94923 1.68412 0
M  V30 12914 H 1212.7 -3.11724 0.409324 0
M  V30 12915 N 1216.48 -1.54033 -0.333429 0
M  V30 12916 C 1217.41 -1.85719 -1.4153 0
M  V30 12917 C 1218.39 -0.713144 -1.54429 0
M  V30 12918 O 1219.57 -0.965984 -1.68471 0
M  V30 12919 C 1216.7 -2.07578 -2.78439 0
M  V30 12920 C 1215.66 -3.23411 -2.80338 0
M  V30 12921 C 1214.98 -3.30622 -4.2023 0
M  V30 12922 C 1216.28 -4.6129 -2.44968 0
M  V30 12923 H 1217.98 -2.76325 -1.15261 0
M  V30 12924 H 1215.52 -1.32957 -0.55303 0
M  V30 12925 H 1217.48 -2.28329 -3.5418 0
M  V30 12926 H 1216.2 -1.13713 -3.06165 0
M  V30 12927 H 1214.86 -3.02531 -2.07052 0
M  V30 12928 H 1214.51 -2.34333 -4.45081 0
M  V30 12929 H 1214.21 -4.08466 -4.22409 0
M  V30 12930 H 1215.73 -3.53596 -4.97798 0
M  V30 12931 H 1217.14 -4.81987 -3.10421 0
M  V30 12932 H 1215.54 -5.41611 -2.58414 0
M  V30 12933 H 1216.61 -4.6421 -1.40134 0
M  V30 12934 N 1217.95 0.594978 -1.45938 0
M  V30 12935 C 1219.37 0.917069 -1.30622 0
M  V30 12936 C 1219.57 1.99702 -0.268554 0
M  V30 12937 O 1218.63 2.50293 0.333146 0
M  V30 12938 C 1219.94 1.34604 -2.68891 0
M  V30 12939 C 1221.49 1.45957 -2.76886 0
M  V30 12940 C 1221.96 1.92225 -4.15708 0
M  V30 12941 N 1223.45 1.99439 -4.18065 0
M  V30 12942 C 1224.19 2.36488 -5.22361 0
M  V30 12943 N 1223.68 2.72416 -6.36994 0
M  V30 12944 N 1225.48 2.36936 -5.09723 0
M  V30 12945 H 1217.63 -0.118625 -2.12068 0
M  V30 12946 H 1219.89 0.00959453 -0.947951 0
M  V30 12947 H 1219.6 0.626605 -3.46073 0
M  V30 12948 H 1219.47 2.31006 -2.98188 0
M  V30 12949 H 1221.86 2.16989 -1.99999 0
M  V30 12950 H 1221.94 0.47838 -2.51287 0
M  V30 12951 H 1221.58 1.21775 -4.93085 0
M  V30 12952 H 1221.51 2.9128 -4.38707 0
M  V30 12953 H 1224 1.74212 -3.35349 0
M  V30 12954 H 1224.32 2.99604 -7.1236 0
M  V30 12955 H 1222.66 2.70083 -6.40375 0
M  V30 12956 H 1225.85 2.08282 -4.19209 0
M  V30 12957 H 1226.03 2.65483 -5.9112 0
M  V30 12958 N 1219.43 1.33438 0.838571 0
M  V30 12959 C 1220.84 1.22366 1.41009 0
M  V30 12960 C 1221.19 -0.157317 1.95568 0
M  V30 12961 O 1220.32 -1.05692 1.88834 0
M  V30 12962 C 1220.91 2.21542 2.56329 0
M  V30 12963 C 1219.47 2.14309 3.09433 0
M  V30 12964 C 1218.62 2.09012 1.82235 0
M  V30 12965 H 1221.57 1.45032 0.64431 0
M  V30 12966 H 1221.59 1.82332 3.33969 0
M  V30 12967 H 1221.1 3.22042 2.16589 0
M  V30 12968 H 1219.21 1.17113 3.53717 0
M  V30 12969 H 1219.32 3.04866 3.69586 0
M  V30 12970 H 1217.68 1.54492 2.02495 0
M  V30 12971 H 1218.47 3.11319 1.4469 0
M  V30 12972 N 1220.91 -1.05686 1.16912 0
M  V30 12973 C 1222.32 -1.60059 0.961153 0
M  V30 12974 C 1222.67 -1.89894 -0.493409 0
M  V30 12975 O 1221.8 -1.67692 -1.36778 0
M  V30 12976 C 1222.39 -2.90803 1.73837 0
M  V30 12977 C 1220.95 -3.41854 1.57522 0
M  V30 12978 C 1220.1 -2.15658 1.74319 0
M  V30 12979 H 1223.05 -0.885592 1.31693 0
M  V30 12980 H 1223.07 -3.60485 1.21781 0
M  V30 12981 H 1222.58 -2.69056 2.79697 0
M  V30 12982 H 1220.68 -3.68647 0.541284 0
M  V30 12983 H 1220.8 -4.16771 2.36302 0
M  V30 12984 H 1219.16 -2.26177 1.17115 0
M  V30 12985 H 1219.94 -1.96386 2.8158 0
M  V30 12986 N 1222.39 -0.968567 -1.24324 0
M  V30 12987 C 1223.8 -0.66964 -1.74278 0
M  V30 12988 C 1224.15 0.81461 -1.7849 0
M  V30 12989 O 1223.28 1.63736 -1.4149 0
M  V30 12990 C 1223.87 -1.20885 -3.165 0
M  V30 12991 C 1222.43 -0.959808 -3.63957 0
M  V30 12992 C 1221.58 -1.34365 -2.42573 0
M  V30 12993 H 1224.53 -1.14379 -1.10015 0
M  V30 12994 H 1224.55 -0.57555 -3.76122 0
M  V30 12995 H 1224.06 -2.28912 -3.13402 0
M  V30 12996 H 1222.16 0.104894 -3.72452 0
M  V30 12997 H 1222.27 -1.60606 -4.51378 0
M  V30 12998 H 1220.64 -0.762039 -2.43033 0
M  V30 12999 H 1221.42 -2.43343 -2.42155 0
M  V30 13000 N 1223.87 1.39211 -0.738786 0
M  V30 13001 C 1224.78 2.34374 -0.102958 0
M  V30 13002 C 1225.79 1.58514 0.717596 0
M  V30 13003 O 1226.97 1.90786 0.645186 0
M  V30 13004 C 1224.03 3.37562 0.790733 0
M  V30 13005 C 1223.09 4.29279 -0.0425028 0
M  V30 13006 C 1222.33 5.27539 0.808628 0
M  V30 13007 O 1222.55 5.32396 2.04722 0
M  V30 13008 O 1221.48 6.0144 0.235279 0
M  V30 13009 H 1225.31 2.90412 -0.888498 0
M  V30 13010 H 1222.9 1.40803 -0.499498 0
M  V30 13011 H 1224.78 4.00783 1.30196 0
M  V30 13012 H 1223.45 2.83903 1.55502 0
M  V30 13013 H 1222.36 3.69268 -0.599335 0
M  V30 13014 H 1223.69 4.86154 -0.7691 0
M  V30 13015 O 1225.38 0.62846 1.4877 0
M  V30 13016 H 1226.07 0.146485 1.93145 0
M  V30 END ATOM
M  V30 BEGIN BOND
M  V30 END BOND
M  V30 END CTAB
M  END
$$$$
