drugbank_target|P69178 Shiga-like toxin 1 subunit B (DB02379; DB02856; DB03919; DB08501)
 OpenBabel12092119593D

  0  0  0     0  0            999 V3000
M  V30 BEGIN CTAB
M  V30 COUNTS 1373 1384 0 0 0
M  V30 BEGIN ATOM
M  V30 1 H -0.908 1.98254 -0.117106 0
M  V30 2 N 0 1.576 0 0
M  V30 3 C 0.933 2.03868 1.02534 0
M  V30 4 C 1.911 0.928543 1.3348 0
M  V30 5 O 3.095 1.19667 1.45644 0
M  V30 6 C 0.222 2.43627 2.35294 0
M  V30 7 C -0.732 3.65373 2.2001 0
M  V30 8 S 0.101 5.13292 1.52614 0
M  V30 9 C 1.257 5.56322 2.86805 0
M  V30 10 H 1.49 2.90518 0.631377 0
M  V30 11 H -0.977 1.52953 0.210867 0
M  V30 12 H 0.981 2.67203 3.11629 0
M  V30 13 H -0.358 1.57376 2.7183 0
M  V30 14 H -1.165 3.90944 3.18086 0
M  V30 15 H -1.563 3.418 1.51819 0
M  V30 16 H 0.729 5.58782 3.83104 0
M  V30 17 H 1.672 6.56266 2.65933 0
M  V30 18 H 2.08 4.83886 2.90714 0
M  V30 19 N 1.4781 -0.272755 1.55222 0
M  V30 20 C 2.4251 -1.33716 1.88119 0
M  V30 21 C 3.3951 -1.49066 0.73271 0
M  V30 22 O 4.5801 -1.63469 0.984002 0
M  V30 23 C 1.7201 -2.69238 2.15882 0
M  V30 24 C 0.8331 -2.62108 3.43399 0
M  V30 25 C -0.0319 -3.89811 3.60861 0
M  V30 26 C -0.9929 -3.77193 4.8207 0
M  V30 27 N -1.8559 -4.9673 4.96189 0
M  V30 28 H 2.9841 -1.04962 2.78903 0
M  V30 29 H 0.5211 -0.507088 1.38083 0
M  V30 30 H 2.4791 -3.48089 2.29978 0
M  V30 31 H 1.1091 -2.96194 1.28331 0
M  V30 32 H 0.1611 -1.74967 3.37773 0
M  V30 33 H 1.4731 -2.48685 4.32386 0
M  V30 34 H 0.6271 -4.77103 3.74777 0
M  V30 35 H -0.6339 -4.06102 2.7006 0
M  V30 36 H -1.6289 -2.88284 4.68159 0
M  V30 37 H -0.4039 -3.62421 5.74307 0
M  V30 38 H -2.4579 -5.13431 4.08319 0
M  V30 39 H -2.5409 -4.85839 5.79221 0
M  V30 40 H -1.2729 -5.85594 5.1449 0
M  V30 41 N 2.9562 -1.48159 -0.537278 0
M  V30 42 C 3.9032 -1.62138 -1.64256 0
M  V30 43 C 4.8732 -0.463668 -1.59497 0
M  V30 44 O 6.0582 -0.686241 -1.78032 0
M  V30 45 C 3.1982 -1.66028 -3.02537 0
M  V30 46 C 2.3112 -2.92855 -3.17585 0
M  V30 47 C 1.4462 -2.87952 -4.46382 0
M  V30 48 C 0.4852 -4.09516 -4.54932 0
M  V30 49 N -0.3778 -4.02733 -5.75109 0
M  V30 50 H 4.4622 -2.56529 -1.51647 0
M  V30 51 H 1.9992 -1.27224 -0.738414 0
M  V30 52 H 3.9572 -1.66265 -3.82638 0
M  V30 53 H 2.5872 -0.751331 -3.13934 0
M  V30 54 H 1.6392 -3.02395 -2.30784 0
M  V30 55 H 2.9512 -3.82822 -3.19764 0
M  V30 56 H 2.1052 -2.8655 -5.34765 0
M  V30 57 H 0.8442 -1.95702 -4.46712 0
M  V30 58 H -0.1508 -4.11201 -3.64957 0
M  V30 59 H 1.0742 -5.02917 -4.56346 0
M  V30 60 H -0.9798 -3.13299 -5.76351 0
M  V30 61 H -1.0628 -4.86397 -5.78752 0
M  V30 62 H 0.2052 -4.05379 -6.65799 0
M  V30 63 N 4.4343 0.785586 -1.36625 0
M  V30 64 C 5.6623 1.57448 -1.3423 0
M  V30 65 C 6.0773 1.88649 0.0755653 0
M  V30 66 O 5.4343 1.50414 1.03354 0
M  V30 67 C 5.4853 2.89316 -2.16745 0
M  V30 68 O 5.2063 2.59459 -3.53005 0
M  V30 69 C 6.7073 3.83606 -2.22174 0
M  V30 70 H 3.9273 0.488226 -0.4603 0
M  V30 71 H 6.4713 0.974733 -1.79775 0
M  V30 72 H 4.6263 3.4575 -1.74745 0
M  V30 73 H 5.0403 3.43804 -3.96105 0
M  V30 74 H 6.5143 4.73181 -2.8426 0
M  V30 75 H 6.9913 4.21734 -1.22627 0
M  V30 76 H 7.5973 3.33104 -2.64427 0
M  V30 77 N 5.9124 1.20967 1.01018 0
M  V30 78 C 6.8424 0.988272 2.11555 0
M  V30 79 C 7.8234 -0.0849778 1.69888 0
M  V30 80 O 9.0084 0.0738202 1.9406 0
M  V30 81 C 6.1384 0.546528 3.42973 0
M  V30 82 C 5.0924 1.56375 3.9841 0
M  V30 83 C 4.4184 0.97842 5.25672 0
M  V30 84 C 5.7184 2.94922 4.31066 0
M  V30 85 H 7.4124 1.91276 2.30334 0
M  V30 86 H 4.9584 0.921073 1.1069 0
M  V30 87 H 6.9114 0.378839 4.19694 0
M  V30 88 H 5.6354 -0.413598 3.23971 0
M  V30 89 H 4.2944 1.71891 3.23804 0
M  V30 90 H 3.9424 0.0101688 5.02999 0
M  V30 91 H 3.6424 1.65784 5.63728 0
M  V30 92 H 5.1664 0.821939 6.05043 0
M  V30 93 H 6.5804 2.8288 4.9865 0
M  V30 94 H 4.9774 3.5983 4.80253 0
M  V30 95 H 6.0474 3.4616 3.39561 0
M  V30 96 N 7.3905 -1.2043 1.01659 0
M  V30 97 C 8.3205 -2.25466 0.607226 0
M  V30 98 C 9.3015 -1.65853 -0.377716 0
M  V30 99 O 10.4865 -1.92409 -0.263149 0
M  V30 100 C 7.6165 -3.47256 -0.0552949 0
M  V30 101 C 6.5705 -4.19462 0.850632 0
M  V30 102 C 5.8965 -5.34673 0.0538859 0
M  V30 103 C 7.1965 -4.75603 2.15868 0
M  V30 104 H 8.8905 -2.59962 1.48526 0
M  V30 105 H 6.4365 -1.2496 0.715605 0
M  V30 106 H 8.3895 -4.19917 -0.353233 0
M  V30 107 H 7.1135 -3.11924 -0.968045 0
M  V30 108 H 5.7725 -3.48667 1.13257 0
M  V30 109 H 5.4205 -4.95585 -0.860514 0
M  V30 110 H 5.1205 -5.83913 0.657192 0
M  V30 111 H 6.6445 -6.10138 -0.237598 0
M  V30 112 H 8.0585 -5.40083 1.92311 0
M  V30 113 H 6.4555 -5.3528 2.71284 0
M  V30 114 H 7.5255 -3.94346 2.82169 0
M  V30 115 N 8.8686 -0.792821 -1.36206 0
M  V30 116 C 10.1176 -0.363353 -1.984 0
M  V30 117 C 10.4306 1.07172 -1.63626 0
M  V30 118 O 11.6366 1.60362 -2.19081 0
M  V30 119 C 10.0926 -0.59872 -3.54885 0
M  V30 120 C 9.7006 -2.04543 -3.9858 0
M  V30 121 C 11.4446 -0.233926 -4.23855 0
M  V30 122 C 9.3516 -2.22727 -5.47856 0
M  V30 123 H 8.2816 -0.13212 -0.742334 0
M  V30 124 H 10.9326 -0.974935 -1.55458 0
M  V30 125 H 9.3146 0.0826222 -3.95914 0
M  V30 126 H 10.4886 -2.76345 -3.68741 0
M  V30 127 H 8.8036 -2.36879 -3.42458 0
M  V30 128 H 11.4006 -0.348027 -5.33566 0
M  V30 129 H 11.7436 0.818351 -4.08177 0
M  V30 130 H 12.2766 -0.868639 -3.882 0
M  V30 131 H 9.0156 -3.2635 -5.68486 0
M  V30 132 H 8.5356 -1.55434 -5.7931 0
M  V30 133 H 10.2146 -2.03607 -6.14128 0
M  V30 134 N 10.3467 1.47872 -0.545128 0
M  V30 135 C 11.3097 2.28337 0.198717 0
M  V30 136 C 12.3097 1.36255 0.853888 0
M  V30 137 O 13.4997 1.59003 0.711606 0
M  V30 138 C 10.6317 3.15585 1.28915 0
M  V30 139 H 11.8247 2.95567 -0.507941 0
M  V30 140 H 9.3777 1.53362 -0.301616 0
M  V30 141 H 10.1127 2.53019 2.02859 0
M  V30 142 H 9.8977 3.83337 0.824309 0
M  V30 143 H 11.3877 3.76243 1.81194 0
M  V30 144 N 11.8248 0.280983 1.55075 0
M  V30 145 C 12.7878 -0.590896 2.21452 0
M  V30 146 C 13.7878 -1.07682 1.19421 0
M  V30 147 O 14.9778 -0.97605 1.44288 0
M  V30 148 C 12.1098 -1.81587 2.88511 0
M  V30 149 H 13.3028 -0.0112554 2.99898 0
M  V30 150 H 10.8558 0.0316438 1.56268 0
M  V30 151 H 11.5908 -2.43587 2.14093 0
M  V30 152 H 11.3758 -1.4753 3.63287 0
M  V30 153 H 12.8658 -2.43575 3.39206 0
M  V30 154 N 13.3029 -1.57598 0.00835791 0
M  V30 155 C 14.5279 -1.95617 -0.689103 0
M  V30 156 C 14.9529 -0.883753 -1.66046 0
M  V30 157 O 14.3109 0.157352 -1.80616 0
M  V30 158 C 14.3589 -3.32736 -1.38994 0
M  V30 159 O 13.4629 -3.27631 -2.50463 0
M  V30 160 H 12.8039 -0.638379 -0.182668 0
M  V30 161 H 15.3339 -2.045 0.064036 0
M  V30 162 H 15.3439 -3.68494 -1.75147 0
M  V30 163 H 14.0189 -4.1034 -0.677778 0
M  V30 164 H 12.5959 -3.03561 -2.16576 0
M  V30 165 N 14.781 0.264519 -1.55364 0
M  V30 166 C 15.711 1.33121 -1.91836 0
M  V30 167 C 16.692 1.51101 -0.781192 0
M  V30 168 O 17.877 1.64003 -1.04003 0
M  V30 169 C 15.007 2.68921 -2.19769 0
M  V30 170 C 13.961 2.65661 -3.35571 0
M  V30 171 C 13.287 4.05093 -3.49004 0
M  V30 172 C 14.587 2.24187 -4.71739 0
M  V30 173 H 16.281 1.02844 -2.81182 0
M  V30 174 H 13.827 0.493286 -1.35287 0
M  V30 175 H 15.78 3.43663 -2.43872 0
M  V30 176 H 14.504 3.00799 -1.27231 0
M  V30 177 H 13.163 1.93377 -3.1145 0
M  V30 178 H 12.811 4.34206 -2.53917 0
M  V30 179 H 12.511 4.03804 -4.26868 0
M  V30 180 H 14.035 4.81561 -3.75408 0
M  V30 181 H 15.449 2.88654 -4.9533 0
M  V30 182 H 13.846 2.34044 -5.52579 0
M  V30 183 H 14.916 1.19327 -4.69988 0
M  V30 184 N 16.2591 1.48442 0.529413 0
M  V30 185 C 17.4841 1.60406 1.31471 0
M  V30 186 C 17.9091 0.264738 1.86228 0
M  V30 187 O 17.2671 -0.763668 1.64432 0
M  V30 188 C 17.3151 2.65419 2.44101 0
M  V30 189 O 16.4191 2.22618 3.47153 0
M  V30 190 H 15.7601 0.537863 0.389357 0
M  V30 191 H 18.2901 1.94432 0.636965 0
M  V30 192 H 18.3001 2.86709 2.90279 0
M  V30 193 H 16.9751 3.62652 2.03608 0
M  V30 194 H 15.5521 2.11543 3.0709 0
M  V30 195 N 17.7372 -0.778329 1.37039 0
M  V30 196 C 18.9842 -1.53665 1.31884 0
M  V30 197 C 19.3122 -1.9425 -0.0986303 0
M  V30 198 O 18.5672 -1.63832 -1.07041 0
M  V30 199 C 18.8662 -2.81845 2.19768 0
M  V30 200 C 18.5322 -2.60345 3.68146 0
M  V30 201 C 17.1942 -2.5419 4.08584 0
M  V30 202 C 19.5462 -2.40923 4.62175 0
M  V30 203 C 16.8742 -2.26594 5.41177 0
M  V30 204 C 19.2262 -2.14852 5.94997 0
M  V30 205 C 17.8902 -2.07137 6.34547 0
M  V30 206 H 17.1602 -0.562299 0.482598 0
M  V30 207 H 19.8072 -0.897069 1.69189 0
M  V30 208 H 18.1122 -3.50328 1.75436 0
M  V30 209 H 19.8092 -3.39692 2.13097 0
M  V30 210 H 16.3992 -2.65996 3.36072 0
M  V30 211 H 20.5832 -2.44673 4.31797 0
M  V30 212 H 15.8392 -2.19111 5.70789 0
M  V30 213 H 20.0132 -1.98822 6.67415 0
M  V30 214 H 17.6402 -1.85518 7.37216 0
M  V30 215 N 19.2153 -1.21501 -1.00376 0
M  V30 216 C 20.4623 -1.03299 -1.74171 0
M  V30 217 C 20.7903 0.433326 -1.89612 0
M  V30 218 O 20.0453 1.33779 -1.42834 0
M  V30 219 C 20.3443 -1.67673 -3.15627 0
M  V30 220 C 20.0103 -3.17533 -3.2013 0
M  V30 221 C 18.6723 -3.58427 -3.21067 0
M  V30 222 C 21.0243 -4.13504 -3.17275 0
M  V30 223 C 18.3523 -4.93794 -3.16835 0
M  V30 224 C 20.7043 -5.48834 -3.14585 0
M  V30 225 C 19.3683 -5.89123 -3.13831 0
M  V30 226 H 18.6383 -0.377999 -0.637336 0
M  V30 227 H 21.2853 -1.51111 -1.17634 0
M  V30 228 H 19.5903 -1.12158 -3.75404 0
M  V30 229 H 21.2873 -1.51091 -3.71446 0
M  V30 230 H 17.8773 -2.84965 -3.20145 0
M  V30 231 H 22.0613 -3.82936 -3.15711 0
M  V30 232 H 17.3173 -5.24255 -3.1459 0
M  V30 233 H 21.4913 -6.22934 -3.1133 0
M  V30 234 H 19.1183 -6.93984 -3.10307 0
M  V30 235 N 20.6934 1.19889 -1.02296 0
M  V30 236 C 21.9184 1.9393 -0.735237 0
M  V30 237 C 22.3434 1.74639 0.698782 0
M  V30 238 O 21.7014 1.04481 1.48167 0
M  V30 239 C 21.7494 3.43916 -1.08417 0
M  V30 240 O 20.8534 4.11917 -0.199446 0
M  V30 241 H 20.1944 0.605645 -0.272196 0
M  V30 242 H 22.7244 1.52137 -1.36804 0
M  V30 243 H 22.7344 3.9456 -1.03856 0
M  V30 244 H 21.4094 3.5728 -2.12894 0
M  V30 245 H 19.9864 3.71666 -0.303136 0
M  V30 246 N 22.1715 0.800033 1.35784 0
M  V30 247 C 23.1345 0.211565 2.28221 0
M  V30 248 C 24.1345 -0.59728 1.49296 0
M  V30 249 O 25.3245 -0.416721 1.69142 0
M  V30 250 C 22.4565 -0.705846 3.33513 0
M  V30 251 H 23.6495 1.02677 2.81776 0
M  V30 252 H 21.2025 0.570211 1.45528 0
M  V30 253 H 21.9375 -1.54498 2.85133 0
M  V30 254 H 21.7225 -0.127655 3.91892 0
M  V30 255 H 23.2125 -1.11211 4.02519 0
M  V30 256 N 23.6496 -1.47581 0.552962 0
M  V30 257 C 24.8746 -2.07378 0.0300593 0
M  V30 258 C 25.2996 -1.40355 -1.25229 0
M  V30 259 O 24.6576 -0.477099 -1.7491 0
M  V30 260 C 24.7056 -3.60274 -0.153231 0
M  V30 261 O 23.8096 -3.94041 -1.21678 0
M  V30 262 H 23.1506 -0.662158 0.0494182 0
M  V30 263 H 25.6806 -1.89662 0.767434 0
M  V30 264 H 25.6906 -4.0633 -0.368761 0
M  V30 265 H 24.3656 -4.08455 0.783397 0
M  V30 266 H 22.9426 -3.59735 -0.982079 0
M  V30 267 N 25.1277 -0.289203 -1.54924 0
M  V30 268 C 26.0907 0.579144 -2.21762 0
M  V30 269 C 27.0907 1.07047 -1.1999 0
M  V30 270 O 28.2807 0.968384 -1.44803 0
M  V30 271 C 25.4127 1.80055 -2.8947 0
M  V30 272 H 26.6057 -0.00464908 -2.999 0
M  V30 273 H 24.1587 -0.0399306 -1.56249 0
M  V30 274 H 24.8937 2.42449 -2.15381 0
M  V30 275 H 24.6787 1.45602 -3.64064 0
M  V30 276 H 26.1687 2.41773 -3.40493 0
M  V30 277 N 26.6058 1.57591 -0.0167156 0
M  V30 278 C 27.5358 2.12496 0.967858 0
M  V30 279 C 28.5168 1.03807 1.34752 0
M  V30 280 O 29.7018 1.31577 1.42833 0
M  V30 281 C 26.8318 2.64194 2.25431 0
M  V30 282 C 25.7858 3.77559 2.01576 0
M  V30 283 C 25.1118 4.15636 3.36379 0
M  V30 284 C 26.4118 5.04151 1.36489 0
M  V30 285 H 28.1058 2.95013 0.510643 0
M  V30 286 H 25.6518 1.41915 0.244181 0
M  V30 287 H 27.6048 3.01236 2.94678 0
M  V30 288 H 26.3288 1.78821 2.73296 0
M  V30 289 H 24.9878 3.40937 1.34751 0
M  V30 290 H 24.6358 3.27263 3.81979 0
M  V30 291 H 24.3358 4.92022 3.21229 0
M  V30 292 H 25.8598 4.5525 4.06915 0
M  V30 293 H 27.2738 5.38857 1.95718 0
M  V30 294 H 25.6708 5.85453 1.31776 0
M  V30 295 H 26.7408 4.83733 0.336219 0
M  V30 296 N 28.0839 -0.256276 1.55502 0
M  V30 297 C 29.0469 -1.30047 1.88734 0
M  V30 298 C 30.0469 -1.4154 0.763086 0
M  V30 299 O 31.2369 -1.40403 1.03115 0
M  V30 300 C 28.3689 -2.67953 2.10747 0
M  V30 301 H 29.5619 -1.01802 2.82093 0
M  V30 302 H 27.1149 -0.495134 1.4825 0
M  V30 303 H 27.8499 -3.01351 1.19825 0
M  V30 304 H 27.6349 -2.60993 2.92617 0
M  V30 305 H 29.1249 -3.43368 2.37673 0
M  V30 306 N 29.562 -1.4872 -0.521534 0
M  V30 307 C 30.79 -1.60843 -1.30142 0
M  V30 308 C 31.205 -0.271897 -1.86832 0
M  V30 309 O 30.562 0.739969 -1.66825 0
M  V30 310 C 30.613 -2.66155 -2.4463 0
M  V30 311 O 30.334 -3.94623 -1.90275 0
M  V30 312 C 31.835 -2.88795 -3.36322 0
M  V30 313 H 29.055 -0.542075 -0.395468 0
M  V30 314 H 31.599 -1.94609 -0.628285 0
M  V30 315 H 29.754 -2.35224 -3.07812 0
M  V30 316 H 30.168 -4.52468 -2.65279 0
M  V30 317 H 31.642 -3.66264 -4.12983 0
M  V30 318 H 32.119 -1.97934 -3.9207 0
M  V30 319 H 32.725 -3.21063 -2.78924 0
M  V30 320 N 31.0401 0.771051 -1.3745 0
M  V30 321 C 32.4511 1.34737 -1.29239 0
M  V30 322 C 32.8021 1.96109 0.0596908 0
M  V30 323 O 31.9271 1.93865 0.961534 0
M  V30 324 C 32.5221 2.44973 -2.34037 0
M  V30 325 C 31.0811 2.98372 -2.29458 0
M  V30 326 C 30.2281 1.71595 -2.17831 0
M  V30 327 H 33.1791 0.571256 -1.48062 0
M  V30 328 H 33.2001 3.24471 -1.98744 0
M  V30 329 H 32.7121 2.00276 -3.32432 0
M  V30 330 H 30.8131 3.47443 -1.34589 0
M  V30 331 H 30.9261 3.53939 -3.229 0
M  V30 332 H 29.2901 1.94547 -1.64388 0
M  V30 333 H 30.0731 1.29001 -3.18141 0
M  V30 334 N 32.5182 1.22032 0.997298 0
M  V30 335 C 33.7952 0.950823 1.70935 0
M  V30 336 C 34.1752 -0.535292 2.042 0
M  V30 337 O 33.5232 -1.50217 1.72183 0
M  V30 338 C 33.7332 1.84386 2.96315 0
M  V30 339 C 35.0812 2.09732 3.69185 0
M  V30 340 O 36.1052 1.81798 3.06314 0
M  V30 341 O 34.9642 2.57018 4.82291 0
M  V30 342 H 32.0582 0.357204 0.745878 0
M  V30 343 H 34.6042 1.32997 1.05404 0
M  V30 344 H 33.3762 2.84928 2.68201 0
M  V30 345 H 32.9992 1.46602 3.69586 0
M  V30 346 N 33.9963 -1.19345 1.0293 0
M  V30 347 C 35.2363 -1.90738 0.734727 0
M  V30 348 C 35.6003 -1.7785 -0.723414 0
M  V30 349 O 36.8013 -2.43844 -1.13108 0
M  V30 350 C 35.0723 -3.37569 1.17396 0
M  V30 351 S 36.6313 -4.27176 1.00329 0
M  V30 352 H 33.4493 -0.658771 0.267474 0
M  V30 353 H 36.0513 -1.4428 1.31922 0
M  V30 354 H 34.7553 -3.44475 2.23081 0
M  V30 355 H 34.2863 -3.8906 0.582772 0
M  V30 356 H 36.3013 -4.96126 -0.0859152 0
M  V30 357 N 35.4744 -0.807222 -1.35358 0
M  V30 358 C 36.7204 -0.388463 -1.99045 0
M  V30 359 C 37.0534 1.04184 -1.63888 0
M  V30 360 O 36.3284 1.72292 -0.902535 0
M  V30 361 C 36.6114 -0.572783 -3.55515 0
M  V30 362 C 36.4644 -2.04807 -4.00468 0
M  V30 363 C 37.7834 0.00114064 -4.401 0
M  V30 364 H 34.9024 -0.142619 -0.723069 0
M  V30 365 H 37.5444 -1.01687 -1.60498 0
M  V30 366 H 35.6944 -0.0378425 -3.88482 0
M  V30 367 H 37.3664 -2.64544 -3.77908 0
M  V30 368 H 35.6094 -2.54427 -3.51353 0
M  V30 369 H 36.2804 -2.12792 -5.09337 0
M  V30 370 H 38.7564 -0.455716 -4.13597 0
M  V30 371 H 37.6324 -0.157737 -5.48673 0
M  V30 372 H 37.8934 1.09488 -4.28328 0
M  V30 373 N 36.9525 1.47285 -0.560781 0
M  V30 374 C 38.1805 2.06855 -0.0430262 0
M  V30 375 C 38.5955 1.41291 1.25229 0
M  V30 376 O 37.9525 0.510648 1.7521 0
M  V30 377 C 38.0035 3.61178 0.152518 0
M  V30 378 O 37.7245 4.24285 -1.0915 0
M  V30 379 C 39.2255 4.37624 0.707145 0
M  V30 380 H 36.4455 0.669319 -0.0474652 0
M  V30 381 H 38.9895 1.89237 -0.77521 0
M  V30 382 H 37.1445 3.78298 0.834843 0
M  V30 383 H 37.5585 5.16868 -0.891482 0
M  V30 384 H 39.0325 5.46271 0.793244 0
M  V30 385 H 39.5095 4.04152 1.71923 0
M  V30 386 H 40.1155 4.25257 0.0604027 0
M  V30 387 N 38.4306 0.297415 1.54768 0
M  V30 388 C 39.6786 -0.312295 1.99673 0
M  V30 389 C 39.9996 -1.54686 1.18732 0
M  V30 390 O 39.2696 -1.93854 0.282382 0
M  V30 391 H 37.8496 -0.118381 0.73756 0
M  V30 392 H 40.5116 0.407915 1.90583 0
M  V30 393 H 39.6076 -0.586813 3.06534 0
M  V30 394 N 39.9087 -1.5758 0.0250728 0
M  V30 395 C 40.8557 -2.09973 -0.958129 0
M  V30 396 C 41.8257 -1.00085 -1.3256 0
M  V30 397 O 43.0107 -1.27481 -1.41962 0
M  V30 398 C 40.1507 -2.62812 -2.2366 0
M  V30 399 C 39.2637 -3.86693 -1.92594 0
M  V30 400 C 38.3987 -4.27941 -3.14707 0
M  V30 401 C 37.4377 -5.44591 -2.79442 0
M  V30 402 N 36.5747 -5.81014 -3.94167 0
M  V30 403 H 41.4147 -2.937 -0.504428 0
M  V30 404 H 38.9517 -1.45172 -0.237392 0
M  V30 405 H 40.9097 -2.91536 -2.98434 0
M  V30 406 H 39.5397 -1.81922 -2.66654 0
M  V30 407 H 38.5917 -3.64723 -1.0808 0
M  V30 408 H 39.9037 -4.71547 -1.62619 0
M  V30 409 H 39.0577 -4.58079 -3.97804 0
M  V30 410 H 37.7967 -3.41845 -3.4784 0
M  V30 411 H 36.8017 -5.1415 -1.94755 0
M  V30 412 H 38.0267 -6.32382 -2.47528 0
M  V30 413 H 35.9727 -4.97874 -4.2715 0
M  V30 414 H 35.8897 -6.60498 -3.67801 0
M  V30 415 H 37.1577 -6.15756 -4.7798 0
M  V30 416 N 41.3868 0.248026 -1.55636 0
M  V30 417 C 42.6328 0.97767 -1.77678 0
M  V30 418 C 42.9658 1.85016 -0.590135 0
M  V30 419 O 42.2408 1.90095 0.411611 0
M  V30 420 C 42.5238 1.83914 -3.09593 0
M  V30 421 C 42.3768 0.99491 -4.38659 0
M  V30 422 C 43.6958 2.82183 -3.37729 0
M  V30 423 H 40.8148 0.354005 -0.646413 0
M  V30 424 H 43.4568 0.248253 -1.88371 0
M  V30 425 H 41.6068 2.46104 -3.00608 0
M  V30 426 H 43.2788 0.391789 -4.59633 0
M  V30 427 H 41.5218 0.299231 -4.32767 0
M  V30 428 H 42.1928 1.63145 -5.2734 0
M  V30 429 H 44.6688 2.30129 -3.4667 0
M  V30 430 H 43.5448 3.39582 -4.31249 0
M  V30 431 H 43.8058 3.58588 -2.58586 0
M  V30 432 N 42.8649 1.48995 0.513639 0
M  V30 433 C 43.7749 1.67443 1.64317 0
M  V30 434 C 44.7909 0.556947 1.64846 0
M  V30 435 O 45.9669 0.830082 1.83498 0
M  V30 436 C 43.0319 1.72515 3.00732 0
M  V30 437 C 42.0929 2.96009 3.1093 0
M  V30 438 C 41.3259 3.00829 4.40837 0
M  V30 439 O 41.5489 2.13594 5.28898 0
M  V30 440 O 40.4829 3.93168 4.55744 0
M  V30 441 H 44.3089 2.63106 1.51687 0
M  V30 442 H 41.8939 1.32588 0.688543 0
M  V30 443 H 43.7759 1.78277 3.81831 0
M  V30 444 H 42.4509 0.800278 3.13651 0
M  V30 445 H 41.3579 2.9577 2.29065 0
M  V30 446 H 42.6909 3.87934 3.02933 0
M  V30 447 N 44.343 -0.763751 1.37857 0
M  V30 448 C 45.573 -1.55067 1.3652 0
M  V30 449 C 45.981 -1.89135 -0.0494227 0
M  V30 450 O 45.324 -1.52529 -1.02375 0
M  V30 451 C 45.386 -2.8838 2.14656 0
M  V30 452 C 45.05 -2.76905 3.63555 0
M  V30 453 C 46.047 -2.4739 4.57268 0
M  V30 454 C 43.732 -2.94676 4.06781 0
M  V30 455 C 45.726 -2.35786 5.92186 0
M  V30 456 C 43.413 -2.82692 5.41782 0
M  V30 457 C 44.411 -2.53289 6.34298 0
M  V30 458 O 44.099 -2.41345 7.66817 0
M  V30 459 H 43.831 -0.486776 0.469069 0
M  V30 460 H 46.385 -0.953812 1.81911 0
M  V30 461 H 44.615 -3.50217 1.63967 0
M  V30 462 H 46.304 -3.49828 2.05852 0
M  V30 463 H 47.07 -2.33339 4.2518 0
M  V30 464 H 42.949 -3.16563 3.35126 0
M  V30 465 H 46.493 -2.12757 6.64365 0
M  V30 466 H 42.39 -2.96314 5.7347 0
M  V30 467 H 43.158 -2.56634 7.77226 0
M  V30 468 N 45.8211 -1.22559 -0.990812 0
M  V30 469 C 47.0491 -1.07779 -1.76611 0
M  V30 470 C 47.4641 0.371513 -1.85109 0
M  V30 471 O 46.8211 1.25737 -1.32274 0
M  V30 472 C 46.8721 -1.68512 -3.19822 0
M  V30 473 O 46.5931 -3.07774 -3.1178 0
M  V30 474 C 48.0941 -1.59035 -4.13791 0
M  V30 475 H 45.3141 -0.377729 -0.554583 0
M  V30 476 H 47.8581 -1.62195 -1.24551 0
M  V30 477 H 46.0131 -1.18154 -3.68942 0
M  V30 478 H 46.4271 -3.37062 -4.01858 0
M  V30 479 H 47.9011 -2.0625 -5.1202 0
M  V30 480 H 48.3781 -0.547273 -4.35777 0
M  V30 481 H 48.9841 -2.08709 -3.70568 0
M  V30 482 N 47.2992 1.18797 -1.03562 0
M  V30 483 C 48.2462 2.22253 -0.622259 0
M  V30 484 C 49.2162 1.61987 0.36736 0
M  V30 485 O 50.4012 1.88986 0.262492 0
M  V30 486 C 47.5412 3.45097 0.0138462 0
M  V30 487 C 46.6542 4.19722 -1.02263 0
M  V30 488 C 45.7892 5.30009 -0.355573 0
M  V30 489 C 44.8282 5.96399 -1.37749 0
M  V30 490 N 43.9652 6.98234 -0.735766 0
M  V30 491 H 48.8052 2.56968 -1.50903 0
M  V30 492 H 46.3422 1.26245 -0.755017 0
M  V30 493 H 48.3002 4.15279 0.399948 0
M  V30 494 H 46.9302 3.11018 0.864158 0
M  V30 495 H 45.9822 3.48418 -1.52673 0
M  V30 496 H 47.2942 4.65227 -1.79903 0
M  V30 497 H 46.4482 6.0664 0.0850095 0
M  V30 498 H 45.1872 4.85592 0.452967 0
M  V30 499 H 44.1922 5.18512 -1.82826 0
M  V30 500 H 45.4172 6.42899 -2.18764 0
M  V30 501 H 43.3632 6.55979 0.0525597 0
M  V30 502 H 43.2802 7.41965 -1.44995 0
M  V30 503 H 44.5482 7.78845 -0.31941 0
M  V30 504 N 48.7773 0.814389 1.34928 0
M  V30 505 C 50.0073 0.41054 2.0248 0
M  V30 506 C 50.4153 -0.985625 1.61499 0
M  V30 507 O 49.7583 -1.64781 0.811976 0
M  V30 508 C 49.8203 0.423384 3.56998 0
M  V30 509 C 49.4843 1.77141 4.21272 0
M  V30 510 C 50.4813 2.73093 4.42398 0
M  V30 511 C 48.1663 2.05755 4.58225 0
M  V30 512 C 50.1603 3.95838 4.9959 0
M  V30 513 C 47.8473 3.28762 5.1513 0
M  V30 514 C 48.8453 4.23621 5.35755 0
M  V30 515 O 48.5333 5.44456 5.91458 0
M  V30 516 H 48.2653 0.163997 0.655806 0
M  V30 517 H 50.8193 1.10155 1.73364 0
M  V30 518 H 49.0493 -0.324276 3.85338 0
M  V30 519 H 50.7383 0.0407683 4.0588 0
M  V30 520 H 51.5043 2.5228 4.14222 0
M  V30 521 H 47.3833 1.32727 4.4148 0
M  V30 522 H 50.9273 4.69891 5.15605 0
M  V30 523 H 46.8243 3.49443 5.42734 0
M  V30 524 H 47.5923 5.4586 6.09901 0
M  V30 525 N 50.2554 -1.46986 0.568584 0
M  V30 526 C 51.2034 -2.31858 -0.185649 0
M  V30 527 C 52.1974 -1.43624 -0.898249 0
M  V30 528 O 53.4034 -1.60327 -0.818242 0
M  V30 529 H 49.7784 -0.747866 -0.0787399 0
M  V30 530 H 51.7494 -2.93303 0.549191 0
M  V30 531 C 50.4984 -3.26513 -1.19519 0
M  V30 532 H 49.8214 -3.94377 -0.656285 0
M  V30 533 H 51.2614 -3.88707 -1.6936 0
M  V30 534 C 49.7204 -2.50847 -2.24894 0
M  V30 535 O 50.2504 -2.26119 -3.32014 0
M  V30 536 N 48.4564 -2.11656 -1.99124 0
M  V30 537 H 48.0034 -2.31966 -1.12024 0
M  V30 538 H 47.9614 -1.61347 -2.69842 0
M  V30 539 N 51.7335 -0.305618 -1.54608 0
M  V30 540 C 53.0105 0.355652 -1.92339 0
M  V30 541 C 53.3905 1.71324 -1.23335 0
M  V30 542 O 52.7385 2.25473 -0.370702 0
M  V30 543 C 52.9485 0.46572 -3.45879 0
M  V30 544 C 54.2965 0.734426 -4.182 0
M  V30 545 O 55.3205 0.54935 -3.51938 0
M  V30 546 O 54.1795 1.09024 -5.35515 0
M  V30 547 H 51.2735 0.199666 -0.802535 0
M  V30 548 H 53.8195 -0.354017 -1.65966 0
M  V30 549 H 52.5915 -0.488461 -3.88239 0
M  V30 550 H 52.2145 1.22367 -3.78301 0
M  V30 551 N 53.2116 1.57565 -0.0334293 0
M  V30 552 C 54.4886 1.83282 0.683163 0
M  V30 553 C 54.8686 0.91823 1.90084 0
M  V30 554 O 54.2166 -0.025113 2.28486 0
M  V30 555 C 54.4266 3.32599 1.0573 0
M  V30 556 C 55.7746 3.99179 1.44711 0
M  V30 557 O 56.7986 3.3712 1.15015 0
M  V30 558 O 55.6576 5.08565 2.0006 0
M  V30 559 H 52.7516 0.755869 0.335546 0
M  V30 560 H 55.2976 1.69589 -0.0614402 0
M  V30 561 H 54.0696 3.90834 0.190828 0
M  V30 562 H 53.6926 3.51415 1.85993 0
M  V30 563 N 54.6897 -0.239769 1.55765 0
M  V30 564 C 55.9667 -0.990056 1.68693 0
M  V30 565 C 56.3467 -2.03107 0.5754 0
M  V30 566 O 55.6947 -2.24604 -0.42017 0
M  V30 567 C 55.9047 -1.61696 3.09282 0
M  V30 568 C 57.2527 -2.11613 3.6811 0
M  V30 569 O 58.2767 -1.71624 3.12127 0
M  V30 570 O 57.1357 -2.85057 4.66267 0
M  V30 571 H 54.2297 -0.461299 0.686391 0
M  V30 572 H 56.7757 -0.232991 1.68093 0
M  V30 573 H 55.5477 -0.864357 3.81634 0
M  V30 574 H 55.1707 -2.44005 3.13923 0
M  V30 575 N 56.1678 -1.49265 -0.50573 0
M  V30 576 C 57.3958 -1.62215 -1.28429 0
M  V30 577 C 57.8108 -0.291697 -1.86533 0
M  V30 578 O 57.1678 0.722233 -1.67601 0
M  V30 579 C 57.2188 -2.68735 -2.41793 0
M  V30 580 O 56.9398 -3.96619 -1.86078 0
M  V30 581 C 58.4408 -2.92346 -3.3324 0
M  V30 582 H 55.6608 -0.546239 -0.389697 0
M  V30 583 H 58.2048 -1.95265 -0.607609 0
M  V30 584 H 56.3598 -2.38476 -3.053 0
M  V30 585 H 56.7738 -4.55256 -2.60465 0
M  V30 586 H 58.2478 -3.70623 -4.09075 0
M  V30 587 H 58.7248 -2.02081 -3.89948 0
M  V30 588 H 59.3308 -3.24003 -2.75503 0
M  V30 589 N 57.6459 0.756429 -1.3826 0
M  V30 590 C 58.8929 1.51547 -1.34312 0
M  V30 591 C 59.2209 1.94382 0.0677144 0
M  V30 592 O 58.4759 1.65514 1.04421 0
M  V30 593 C 58.7749 2.78313 -2.24224 0
M  V30 594 C 58.4409 2.54455 -3.72241 0
M  V30 595 C 57.1029 2.47657 -4.12576 0
M  V30 596 C 59.4549 2.3354 -4.65949 0
M  V30 597 C 56.7829 2.17956 -5.44713 0
M  V30 598 C 59.1349 2.05359 -5.9834 0
M  V30 599 C 57.7989 1.97016 -6.37762 0
M  V30 600 H 57.0689 0.55455 -0.491482 0
M  V30 601 H 59.7159 0.870039 -1.70595 0
M  V30 602 H 58.0209 3.47492 -1.80987 0
M  V30 603 H 59.7179 3.36259 -2.18474 0
M  V30 604 H 56.3079 2.60616 -3.40261 0
M  V30 605 H 60.4919 2.37772 -4.35635 0
M  V30 606 H 55.7479 2.10003 -5.74203 0
M  V30 607 H 59.9219 1.88179 -6.70494 0
M  V30 608 H 57.5489 1.73766 -7.40074 0
M  V30 609 N 59.124 1.23083 0.984299 0
M  V30 610 C 60.352 1.08714 1.76037 0
M  V30 611 C 60.767 -0.361691 1.85303 0
M  V30 612 O 60.124 -1.25034 1.32939 0
M  V30 613 C 60.175 1.70206 3.18923 0
M  V30 614 O 59.896 3.09423 3.10144 0
M  V30 615 C 61.397 1.61227 4.12941 0
M  V30 616 H 58.617 0.380664 0.552572 0
M  V30 617 H 61.161 1.62853 1.23689 0
M  V30 618 H 59.316 1.20109 3.6831 0
M  V30 619 H 59.73 3.39188 4.00065 0
M  V30 620 H 61.204 2.08962 5.10919 0
M  V30 621 H 61.681 0.570375 4.35481 0
M  V30 622 H 62.287 2.10671 3.69456 0
M  V30 623 N 60.6021 -1.18246 1.0419 0
M  V30 624 C 61.8481 -1.88536 0.747122 0
M  V30 625 C 62.1811 -1.80223 -0.723409 0
M  V30 626 O 61.4561 -1.20337 -1.52804 0
M  V30 627 C 61.7391 -3.38968 1.21544 0
M  V30 628 C 61.5921 -3.56084 2.74816 0
M  V30 629 C 62.9111 -4.32648 0.806482 0
M  V30 630 H 60.0301 -0.684619 0.272883 0
M  V30 631 H 62.6721 -1.39113 1.29413 0
M  V30 632 H 60.8221 -3.8119 0.750081 0
M  V30 633 H 62.4941 -3.22946 3.29399 0
M  V30 634 H 60.7371 -2.98699 3.14582 0
M  V30 635 H 61.4081 -4.61639 3.02644 0
M  V30 636 H 63.8841 -3.98211 1.20695 0
M  V30 637 H 62.7601 -5.36462 1.1619 0
M  V30 638 H 63.0211 -4.41146 -0.29029 0
M  V30 639 N 62.0802 -0.821533 -1.34494 0
M  V30 640 C 63.0272 -0.240397 -2.29545 0
M  V30 641 C 63.9972 0.634031 -1.53523 0
M  V30 642 O 65.1822 0.575966 -1.81899 0
M  V30 643 C 62.3222 0.592869 -3.39969 0
M  V30 644 C 61.4352 -0.30365 -4.30932 0
M  V30 645 C 60.5702 0.539049 -5.28458 0
M  V30 646 C 59.6092 -0.356942 -6.11058 0
M  V30 647 N 58.7462 0.446603 -7.00678 0
M  V30 648 H 63.5862 -1.05632 -2.7865 0
M  V30 649 H 61.1232 -0.532413 -1.37127 0
M  V30 650 H 63.0812 1.09129 -4.02675 0
M  V30 651 H 61.7112 1.37392 -2.92102 0
M  V30 652 H 60.7632 -0.920276 -3.691 0
M  V30 653 H 62.0752 -0.992661 -4.88823 0
M  V30 654 H 61.2292 1.102 -5.96608 0
M  V30 655 H 59.9682 1.26157 -4.71101 0
M  V30 656 H 58.9732 -0.932047 -5.41842 0
M  V30 657 H 60.1982 -1.07755 -6.70497 0
M  V30 658 H 58.1442 1.15282 -6.45791 0
M  V30 659 H 58.0612 -0.184048 -7.55776 0
M  V30 660 H 59.3292 0.992352 -7.73158 0
M  V30 661 N 63.5583 1.46682 -0.576371 0
M  V30 662 C 64.8043 2.02712 -0.0596221 0
M  V30 663 C 65.1373 1.44765 1.29448 0
M  V30 664 O 64.4123 0.610355 1.84675 0
M  V30 665 C 64.6953 3.60098 0.0129503 0
M  V30 666 C 64.5483 4.28441 -1.3696 0
M  V30 667 C 65.8673 4.34224 0.71678 0
M  V30 668 H 62.9863 0.736637 -0.0231407 0
M  V30 669 H 65.6283 1.74898 -0.742351 0
M  V30 670 H 63.7783 3.83926 0.594378 0
M  V30 671 H 65.4503 4.15896 -1.9957 0
M  V30 672 H 63.6933 3.8805 -1.93907 0
M  V30 673 H 64.3643 5.3716 -1.27135 0
M  V30 674 H 66.8403 4.15503 0.222908 0
M  V30 675 H 65.7163 5.43936 0.73657 0
M  V30 676 H 65.9773 4.04823 1.77682 0
M  V30 677 N 65.0364 0.313813 1.54444 0
M  V30 678 C 66.2844 -0.291099 1.99993 0
M  V30 679 C 66.6054 -1.53418 1.20366 0
M  V30 680 O 65.8754 -1.93544 0.302927 0
M  V30 681 H 64.4554 -0.110552 0.738774 0
M  V30 682 H 67.1174 0.428106 1.9014 0
M  V30 683 H 66.2134 -0.554268 3.07139 0
M  V30 684 N 66.5145 -1.57545 0.0417849 0
M  V30 685 C 67.7915 -1.83642 -0.673433 0
M  V30 686 C 68.1715 -0.928298 -1.89594 0
M  V30 687 O 67.5195 0.0129955 -2.28496 0
M  V30 688 C 67.7295 -3.33155 -1.03964 0
M  V30 689 C 69.0775 -3.99941 -1.42592 0
M  V30 690 O 70.1015 -3.37725 -1.13226 0
M  V30 691 O 68.9605 -5.09619 -1.9736 0
M  V30 692 H 66.0545 -0.757638 -0.331533 0
M  V30 693 H 68.6005 -1.69554 0.070433 0
M  V30 694 H 67.3725 -3.9093 -0.170098 0
M  V30 695 H 66.9955 -3.52396 -1.84126 0
M  V30 696 N 67.9926 0.231505 -1.5589 0
M  V30 697 C 68.9396 1.28682 -1.91598 0
M  V30 698 C 69.9096 1.47071 -0.771974 0
M  V30 699 O 71.0946 1.60802 -1.027 0
M  V30 700 C 68.2346 2.6342 -2.22944 0
M  V30 701 C 67.3476 2.52912 -3.50228 0
M  V30 702 C 66.4826 3.80106 -3.7107 0
M  V30 703 C 65.5216 3.64279 -4.91902 0
M  V30 704 N 64.6586 4.834 -5.09184 0
M  V30 705 H 69.4986 0.975305 -2.81588 0
M  V30 706 H 67.0356 0.470299 -1.39379 0
M  V30 707 H 68.9936 3.41869 -2.39126 0
M  V30 708 H 67.6236 2.92687 -1.36139 0
M  V30 709 H 66.6756 1.6595 -3.42294 0
M  V30 710 H 67.9876 2.37133 -4.38827 0
M  V30 711 H 67.1416 4.66999 -3.87295 0
M  V30 712 H 65.8806 3.98799 -2.80733 0
M  V30 713 H 64.8856 2.7577 -4.75637 0
M  V30 714 H 66.1106 3.47067 -5.83714 0
M  V30 715 H 64.0566 5.02425 -4.21788 0
M  V30 716 H 63.9736 4.70311 -5.91898 0
M  V30 717 H 65.2416 5.71747 -5.29835 0
M  V30 718 N 69.4707 1.49531 0.497807 0
M  V30 719 C 70.3807 1.69176 1.62532 0
M  V30 720 C 71.3967 0.5744 1.64246 0
M  V30 721 O 72.5727 0.849497 1.82608 0
M  V30 722 C 69.6377 1.75695 2.98885 0
M  V30 723 C 68.6987 2.9929 3.07773 0
M  V30 724 C 67.9317 3.05488 4.37622 0
M  V30 725 O 68.1547 2.19192 5.26603 0
M  V30 726 O 67.0887 3.9798 4.51548 0
M  V30 727 H 70.9147 2.647 1.48887 0
M  V30 728 H 68.4997 1.3331 0.674441 0
M  V30 729 H 70.3817 1.82317 3.79919 0
M  V30 730 H 69.0567 0.8335 3.12785 0
M  V30 731 H 67.9637 2.98183 2.25915 0
M  V30 732 H 69.2967 3.91125 2.98801 0
M  V30 733 N 70.9488 -0.749086 1.3866 0
M  V30 734 C 71.8788 -1.8764 1.38973 0
M  V30 735 C 72.8598 -1.68178 0.255004 0
M  V30 736 O 74.0448 -1.88704 0.458754 0
M  V30 737 C 71.1748 -3.25222 1.21851 0
M  V30 738 C 70.1288 -3.59295 2.32575 0
M  V30 739 C 69.4548 -4.95663 2.00555 0
M  V30 740 C 70.7548 -3.63709 3.7485 0
M  V30 741 H 72.4488 -1.87635 2.3331 0
M  V30 742 H 69.9948 -0.901329 1.12303 0
M  V30 743 H 71.9478 -4.03746 1.20695 0
M  V30 744 H 70.6718 -3.25719 0.239775 0
M  V30 745 H 69.3308 -2.83093 2.32925 0
M  V30 746 H 68.9788 -4.92724 1.01154 0
M  V30 747 H 68.6788 -5.19429 2.74714 0
M  V30 748 H 70.2028 -5.7656 2.01024 0
M  V30 749 H 71.6168 -4.32338 3.76506 0
M  V30 750 H 70.0138 -3.98986 4.48252 0
M  V30 751 H 71.0838 -2.63834 4.06841 0
M  V30 752 N 72.4269 -1.23603 -0.977757 0
M  V30 753 C 73.6739 -1.06971 -1.71941 0
M  V30 754 C 74.0019 0.393009 -1.90488 0
M  V30 755 O 73.2569 1.30719 -1.4564 0
M  V30 756 C 73.5559 -1.7433 -3.11999 0
M  V30 757 C 73.2219 -3.24252 -3.13323 0
M  V30 758 C 71.8839 -3.65156 -3.13392 0
M  V30 759 C 74.2359 -4.20141 -3.08433 0
M  V30 760 C 71.5639 -5.00403 -3.0629 0
M  V30 761 C 73.9159 -5.55384 -3.02873 0
M  V30 762 C 72.5799 -5.95647 -3.01265 0
M  V30 763 H 71.8499 -0.391433 -0.629175 0
M  V30 764 H 74.4969 -1.53572 -1.14403 0
M  V30 765 H 72.8019 -1.20096 -3.7294 0
M  V30 766 H 74.4989 -1.58936 -3.68158 0
M  V30 767 H 71.0889 -2.91692 -3.14029 0
M  V30 768 H 75.2729 -3.89547 -3.07517 0
M  V30 769 H 70.5289 -5.3081 -3.03399 0
M  V30 770 H 74.7029 -6.29398 -2.98046 0
M  V30 771 H 72.3299 -7.0041 -2.95516 0
M  V30 772 N 73.905 1.17692 -1.04816 0
M  V30 773 C 75.133 1.91786 -0.776254 0
M  V30 774 C 75.548 1.76604 0.667577 0
M  V30 775 O 74.905 1.10067 1.45573 0
M  V30 776 C 74.956 3.42967 -1.14263 0
M  V30 777 O 74.677 3.57678 -2.52978 0
M  V30 778 C 76.178 4.34144 -0.896311 0
M  V30 779 H 73.398 0.608624 -0.282519 0
M  V30 780 H 75.942 1.49268 -1.39783 0
M  V30 781 H 74.097 3.83245 -0.565874 0
M  V30 782 H 74.511 4.51319 -2.67229 0
M  V30 783 H 75.985 5.38744 -1.20244 0
M  V30 784 H 76.462 4.38876 0.168636 0
M  V30 785 H 77.068 3.99574 -1.45672 0
M  V30 786 N 75.3831 0.828654 1.34056 0
M  V30 787 C 76.3311 0.242973 2.31327 0
M  V30 788 C 77.3251 -0.61944 1.57668 0
M  V30 789 O 78.5311 -0.51014 1.7262 0
M  V30 790 H 74.9061 0.059834 0.749616 0
M  V30 791 H 76.8771 1.07809 2.78244 0
M  V30 792 C 75.6261 -0.575733 3.429 0
M  V30 793 H 74.9491 0.0785582 3.99723 0
M  V30 794 H 76.3891 -0.951547 4.13185 0
M  V30 795 C 74.8481 -1.75044 2.87856 0
M  V30 796 O 75.3781 -2.84882 2.83205 0
M  V30 797 N 73.5841 -1.56903 2.44602 0
M  V30 798 H 73.1311 -0.675547 2.48584 0
M  V30 799 H 73.0891 -2.35652 2.08124 0
M  V30 800 N 76.8612 -1.46375 0.584142 0
M  V30 801 C 78.2772 -1.57694 0.245929 0
M  V30 802 C 78.4772 -1.57903 -1.25175 0
M  V30 803 O 77.5332 -1.49676 -2.03355 0
M  V30 804 C 78.8462 -2.87028 0.896402 0
M  V30 805 C 80.3942 -3.00662 0.870127 0
M  V30 806 C 80.8692 -4.32734 1.50017 0
M  V30 807 N 82.3602 -4.39436 1.46458 0
M  V30 808 C 83.0952 -5.40248 1.92144 0
M  V30 809 N 82.5912 -6.47726 2.4581 0
M  V30 810 N 84.3842 -5.31459 1.83052 0
M  V30 811 H 76.5352 -1.44483 1.55687 0
M  V30 812 H 78.7982 -0.689291 0.650831 0
M  V30 813 H 78.5042 -2.9269 1.95002 0
M  V30 814 H 78.3782 -3.75014 0.405486 0
M  V30 815 H 80.7652 -2.94581 -0.174871 0
M  V30 816 H 80.8462 -2.14148 1.39908 0
M  V30 817 H 80.4902 -4.39573 2.54437 0
M  V30 818 H 80.4202 -5.18025 0.946432 0
M  V30 819 H 82.9112 -3.62367 1.07231 0
M  V30 820 H 83.2242 -7.20863 2.78525 0
M  V30 821 H 81.5692 -6.48542 2.49836 0
M  V30 822 H 84.7602 -4.46396 1.40883 0
M  V30 823 H 84.9332 -6.09881 2.18973 0
M  V30 824 N 78.3393 -0.321999 -1.54275 0
M  V30 825 C 79.5853 0.274234 -2.01543 0
M  V30 826 C 79.9403 1.499 -1.20614 0
M  V30 827 O 79.2333 1.89546 -0.279804 0
M  V30 828 C 79.4273 0.661769 -3.5122 0
M  V30 829 C 79.2563 -0.523892 -4.46638 0
M  V30 830 C 78.0263 -1.02251 -4.94846 0
M  V30 831 C 80.2243 -1.37558 -4.95563 0
M  V30 832 N 78.2063 -2.17274 -5.74165 0
M  V30 833 C 79.5773 -2.37301 -5.7279 0
M  V30 834 C 81.6323 -1.40353 -4.77709 0
M  V30 835 C 80.3353 -3.3964 -6.34064 0
M  V30 836 C 82.3613 -2.41562 -5.39817 0
M  V30 837 C 81.7233 -3.40031 -6.16894 0
M  V30 838 H 77.8223 0.0642367 -0.779357 0
M  V30 839 H 80.4063 -0.456683 -1.89268 0
M  V30 840 H 78.5773 1.36182 -3.63743 0
M  V30 841 H 80.3093 1.23934 -3.85256 0
M  V30 842 H 77.0643 -0.594046 -4.6986 0
M  V30 843 H 77.4883 -2.75289 -6.18502 0
M  V30 844 H 82.1303 -0.655907 -4.17681 0
M  V30 845 H 79.8483 -4.15309 -6.93213 0
M  V30 846 H 83.4343 -2.44524 -5.2792 0
M  V30 847 H 82.3143 -4.17063 -6.64099 0
M  V30 848 N 79.8174 1.5752 -0.0501392 0
M  V30 849 C 80.7654 2.12651 0.942459 0
M  V30 850 C 81.7594 1.05807 1.32292 0
M  V30 851 O 82.9654 1.24217 1.3027 0
M  V30 852 H 79.3404 0.679673 0.321789 0
M  V30 853 H 81.3114 2.94951 0.452356 0
M  V30 854 C 80.0604 2.68565 2.20836 0
M  V30 855 H 79.3834 3.50439 1.92439 0
M  V30 856 H 80.8234 3.10761 2.8845 0
M  V30 857 C 79.2824 1.62291 2.95234 0
M  V30 858 O 79.8124 1.03508 3.88135 0
M  V30 859 N 78.0184 1.33836 2.57946 0
M  V30 860 H 77.5654 1.81826 1.82475 0
M  V30 861 H 77.5234 0.629595 3.08032 0
M  V30 862 N 81.2955 -0.223234 1.56011 0
M  V30 863 C 82.2255 -1.27988 1.95298 0
M  V30 864 C 83.2065 -1.48976 0.820979 0
M  V30 865 O 84.3915 -1.61188 1.08315 0
M  V30 866 C 81.5215 -2.63 2.26822 0
M  V30 867 C 80.4755 -2.56671 3.42497 0
M  V30 868 C 79.8015 -3.95697 3.59622 0
M  V30 869 C 81.1015 -2.11601 4.77517 0
M  V30 870 H 82.7955 -0.953525 2.8381 0
M  V30 871 H 80.3415 -0.457244 1.36548 0
M  V30 872 H 82.2945 -3.37077 2.52898 0
M  V30 873 H 81.0185 -2.9732 1.35161 0
M  V30 874 H 79.6775 -1.85051 3.16467 0
M  V30 875 H 79.3255 -4.27322 2.6534 0
M  V30 876 H 79.0255 -3.92345 4.37424 0
M  V30 877 H 80.5495 -4.71438 3.88044 0
M  V30 878 H 81.9635 -2.7542 5.02809 0
M  V30 879 H 80.3605 -2.19311 5.5859 0
M  V30 880 H 81.4305 -1.06824 4.72987 0
M  V30 881 N 82.7736 -1.49793 -0.48987 0
M  V30 882 C 83.7056 -1.63413 -1.60713 0
M  V30 883 C 84.7186 -0.516329 -1.54395 0
M  V30 884 O 85.9076 -0.788812 -1.60125 0
M  V30 885 C 83.0076 -1.58516 -2.99543 0
M  V30 886 C 82.1806 -2.86016 -3.30928 0
M  V30 887 C 81.2396 -2.74018 -4.49222 0
M  V30 888 O 80.2656 -3.47964 -4.50455 0
M  V30 889 N 81.4676 -1.86309 -5.4979 0
M  V30 890 H 84.2326 -2.59777 -1.49452 0
M  V30 891 H 81.7936 -1.47022 -0.677955 0
M  V30 892 H 83.7856 -1.48128 -3.76617 0
M  V30 893 H 82.3556 -0.69965 -3.0467 0
M  V30 894 H 81.5756 -3.10672 -2.42645 0
M  V30 895 H 82.8636 -3.70521 -3.487 0
M  V30 896 H 82.2616 -1.2551 -5.51601 0
M  V30 897 H 80.8186 -1.81837 -6.25922 0
M  V30 898 N 84.2517 0.741722 -1.39055 0
M  V30 899 C 85.4767 1.53607 -1.39354 0
M  V30 900 C 85.9017 1.88096 0.0116905 0
M  V30 901 O 85.2597 1.5143 0.996924 0
M  V30 902 C 85.3077 2.80441 -2.26682 0
M  V30 903 O 84.4117 3.76088 -1.69208 0
M  V30 904 H 83.7527 0.464142 -0.474835 0
M  V30 905 H 86.2827 0.915665 -1.82967 0
M  V30 906 H 86.2927 3.29246 -2.40959 0
M  V30 907 H 84.9677 2.5467 -3.2881 0
M  V30 908 H 83.5447 3.34833 -1.64138 0
M  V30 909 N 85.7298 1.2412 0.971189 0
M  V30 910 C 86.6598 1.05508 2.08304 0
M  V30 911 C 87.6408 -0.0308864 1.70072 0
M  V30 912 O 88.8258 0.135521 1.93727 0
M  V30 913 C 85.9558 0.655365 3.4106 0
M  V30 914 C 84.9098 1.68971 3.93234 0
M  V30 915 C 84.2358 1.14516 5.22293 0
M  V30 916 C 85.5358 3.08487 4.21465 0
M  V30 917 H 87.2298 1.98507 2.24132 0
M  V30 918 H 84.7758 0.955821 1.07704 0
M  V30 919 H 86.7288 0.51217 4.18276 0
M  V30 920 H 85.4528 -0.31032 3.25122 0
M  V30 921 H 84.1118 1.82106 3.18171 0
M  V30 922 H 83.7598 0.170189 5.02712 0
M  V30 923 H 83.4598 1.83635 5.58168 0
M  V30 924 H 84.9838 1.01401 6.02121 0
M  V30 925 H 86.3978 2.98601 4.89398 0
M  V30 926 H 84.7948 3.74926 4.68562 0
M  V30 927 H 85.8648 3.56787 3.28376 0
M  V30 928 N 87.2079 -1.17134 1.05439 0
M  V30 929 C 88.1379 -2.2342 0.678649 0
M  V30 930 C 89.1189 -1.66971 -0.32476 0
M  V30 931 O 90.3039 -1.93149 -0.201802 0
M  V30 932 C 87.4339 -3.47256 0.0552099 0
M  V30 933 C 86.3879 -4.16543 0.98365 0
M  V30 934 C 85.7139 -5.34231 0.223961 0
M  V30 935 C 87.0139 -4.68495 2.3089 0
M  V30 936 H 88.7079 -2.55105 1.56722 0
M  V30 937 H 86.2539 -1.2262 0.754998 0
M  V30 938 H 88.2069 -4.20828 -0.21946 0
M  V30 939 H 86.9309 -3.14846 -0.868319 0
M  V30 940 H 85.5899 -3.44887 1.24293 0
M  V30 941 H 85.2379 -4.98071 -0.702412 0
M  V30 942 H 84.9379 -5.81527 0.842627 0
M  V30 943 H 86.4619 -6.10585 -0.0433671 0
M  V30 944 H 87.8759 -5.33691 2.09396 0
M  V30 945 H 86.2729 -5.26379 2.88176 0
M  V30 946 H 87.3429 -3.85169 2.94572 0
M  V30 947 N 88.686 -0.835752 -1.33615 0
M  V30 948 C 89.616 -0.281739 -2.31794 0
M  V30 949 C 90.597 0.608833 -1.58831 0
M  V30 950 O 91.782 0.533035 -1.86741 0
M  V30 951 C 88.912 0.546612 -3.42971 0
M  V30 952 C 87.866 -0.247904 -4.27281 0
M  V30 953 C 87.192 0.704001 -5.30045 0
M  V30 954 C 88.492 -1.46324 -5.01385 0
M  V30 955 H 90.186 -1.10206 -2.78379 0
M  V30 956 H 87.732 -0.531388 -1.33837 0
M  V30 957 H 89.685 0.944467 -4.1068 0
M  V30 958 H 88.409 1.40011 -2.95067 0
M  V30 959 H 87.068 -0.627281 -3.61194 0
M  V30 960 H 86.716 1.55381 -4.78399 0
M  V30 961 H 86.416 0.176524 -5.87335 0
M  V30 962 H 87.94 1.09944 -6.0062 0
M  V30 963 H 89.354 -1.13871 -5.61877 0
M  V30 964 H 87.751 -1.92728 -5.6831 0
M  V30 965 H 88.821 -2.23467 -4.30338 0
M  V30 966 N 90.1641 1.46063 -0.591896 0
M  V30 967 C 91.3891 2.07226 -0.0850314 0
M  V30 968 C 91.8141 1.43625 1.21463 0
M  V30 969 O 91.1721 0.523305 1.73583 0
M  V30 970 C 91.2201 3.60554 0.0576567 0
M  V30 971 O 90.3241 3.97128 1.11188 0
M  V30 972 H 89.6651 0.660615 -0.0669568 0
M  V30 973 H 92.1951 1.8756 -0.81745 0
M  V30 974 H 92.2051 4.07165 0.2609 0
M  V30 975 H 90.8801 4.06235 -0.891416 0
M  V30 976 H 89.4571 3.62213 0.886356 0
M  V30 977 N 91.6422 0.330177 1.54103 0
M  V30 978 C 92.6052 -0.520144 2.2322 0
M  V30 979 C 93.6052 -1.03828 1.22786 0
M  V30 980 O 94.7952 -0.929652 1.4732 0
M  V30 981 C 91.9272 -1.72317 2.94142 0
M  V30 982 H 93.1202 0.0841605 2.99782 0
M  V30 983 H 90.6732 0.0813433 1.56088 0
M  V30 984 H 91.4082 -2.36653 2.21734 0
M  V30 985 H 91.1932 -1.35898 3.67796 0
M  V30 986 H 92.6832 -2.3266 3.46784 0
M  V30 987 N 93.1203 -1.57491 0.0584922 0
M  V30 988 C 94.0523 -2.08916 -0.942694 0
M  V30 989 C 95.0653 -1.0185 -1.27006 0
M  V30 990 O 96.2543 -1.29398 -1.22957 0
M  V30 991 C 93.3543 -2.52341 -2.26224 0
M  V30 992 C 92.5273 -3.82827 -2.1157 0
M  V30 993 C 91.5863 -4.12487 -3.26712 0
M  V30 994 O 90.6123 -4.82295 -3.02292 0
M  V30 995 N 91.8143 -3.64978 -4.5141 0
M  V30 996 H 94.5793 -2.95437 -0.503722 0
M  V30 997 H 92.1403 -1.61397 -0.12757 0
M  V30 998 H 94.1323 -2.69254 -3.02133 0
M  V30 999 H 92.7023 -1.7103 -2.61663 0
M  V30 1000 H 91.9223 -3.75425 -1.20208 0
M  V30 1001 H 93.2103 -4.68263 -1.99015 0
M  V30 1002 H 92.6083 -3.08558 -4.7414 0
M  V30 1003 H 91.1653 -3.87115 -5.2439 0
M  V30 1004 N 94.5984 0.214957 -1.56127 0
M  V30 1005 C 95.8474 0.936451 -1.78643 0
M  V30 1006 C 96.1604 1.85237 -0.628229 0
M  V30 1007 O 97.3664 2.613 -0.737186 0
M  V30 1008 C 95.8224 1.7154 -3.16389 0
M  V30 1009 C 95.4304 0.845299 -4.39953 0
M  V30 1010 C 97.1744 2.42772 -3.48227 0
M  V30 1011 C 95.0814 1.62198 -5.68723 0
M  V30 1012 H 94.0114 0.353401 -0.666051 0
M  V30 1013 H 96.6624 0.190169 -1.82512 0
M  V30 1014 H 95.0444 2.50484 -3.06715 0
M  V30 1015 H 96.2184 0.0959353 -4.607 0
M  V30 1016 H 94.5334 0.244789 -4.1568 0
M  V30 1017 H 97.1304 3.01394 -4.41663 0
M  V30 1018 H 97.4734 3.15984 -2.71035 0
M  V30 1019 H 98.0064 1.70813 -3.5926 0
M  V30 1020 H 94.7454 0.933011 -6.48826 0
M  V30 1021 H 94.2654 2.34579 -5.52026 0
M  V30 1022 H 95.9444 2.18095 -6.09133 0
M  V30 1023 N 96.0765 1.50051 0.48192 0
M  V30 1024 C 97.3045 1.64237 1.25832 0
M  V30 1025 C 97.7195 0.321336 1.86045 0
M  V30 1026 O 97.0765 -0.695478 1.68729 0
M  V30 1027 C 97.1275 2.72548 2.37487 0
M  V30 1028 O 96.8485 3.99529 1.79745 0
M  V30 1029 C 98.3495 2.9761 3.28547 0
M  V30 1030 H 95.5695 0.55237 0.380957 0
M  V30 1031 H 98.1135 1.96207 0.576467 0
M  V30 1032 H 96.2685 2.43303 3.01467 0
M  V30 1033 H 96.6825 4.59342 2.5319 0
M  V30 1034 H 98.1565 3.77084 4.03127 0
M  V30 1035 H 98.6335 2.0826 3.86684 0
M  V30 1036 H 99.2395 3.28345 2.70314 0
M  V30 1037 N 97.5546 -0.734337 1.39446 0
M  V30 1038 C 98.8026 -1.49096 1.36436 0
M  V30 1039 C 99.1236 -1.94961 -0.0388255 0
M  V30 1040 O 98.3936 -1.69033 -0.990191 0
M  V30 1041 H 96.9736 -0.5531 0.502085 0
M  V30 1042 H 99.6356 -0.871725 1.74319 0
M  V30 1043 H 98.7316 -2.37276 2.02747 0
M  V30 1044 N 99.0327 -1.24633 -0.964593 0
M  V30 1045 C 99.9657 -0.984662 -2.05863 0
M  V30 1046 C 100.944 0.0826554 -1.6239 0
M  V30 1047 O 102.128 -0.0549296 -1.8842 0
M  V30 1048 C 99.2547 -0.486529 -3.35187 0
M  V30 1049 C 98.3007 -1.54286 -3.97615 0
M  V30 1050 S 99.1337 -3.12513 -4.34851 0
M  V30 1051 C 100.29 -2.6441 -5.67308 0
M  V30 1052 H 100.523 -1.91104 -2.27743 0
M  V30 1053 H 98.0557 -1.08052 -1.10291 0
M  V30 1054 H 100.014 -0.205757 -4.09984 0
M  V30 1055 H 98.6747 0.419186 -3.1129 0
M  V30 1056 H 97.8677 -1.14481 -4.90826 0
M  V30 1057 H 97.4697 -1.7738 -3.2926 0
M  V30 1058 H 99.7617 -2.07416 -6.44969 0
M  V30 1059 H 100.705 -3.56222 -6.11973 0
M  V30 1060 H 101.113 -2.04734 -5.26065 0
M  V30 1061 N 100.511 1.16574 -1.06058 0
M  V30 1062 C 101.739 1.90952 -0.796552 0
M  V30 1063 C 102.154 1.77302 0.648808 0
M  V30 1064 O 101.511 1.11605 1.44397 0
M  V30 1065 C 101.562 3.41736 -1.17894 0
M  V30 1066 O 101.283 3.54975 -2.56758 0
M  V30 1067 C 102.784 4.33169 -0.942308 0
M  V30 1068 H 100.004 0.605594 -0.288959 0
M  V30 1069 H 102.548 1.47777 -1.41358 0
M  V30 1070 H 100.703 3.82623 -0.606491 0
M  V30 1071 H 101.117 4.4846 -2.72 0
M  V30 1072 H 102.591 5.37439 -1.25952 0
M  V30 1073 H 103.068 4.3903 0.122078 0
M  V30 1074 H 103.674 3.98007 -1.49902 0
M  V30 1075 N 101.989 0.842826 1.3317 0
M  V30 1076 C 103.235 0.441099 1.97945 0
M  V30 1077 C 103.568 -0.998024 1.66593 0
M  V30 1078 O 102.843 -1.69839 0.947898 0
M  V30 1079 C 103.126 0.666841 3.53872 0
M  V30 1080 C 102.979 2.15352 3.94897 0
M  V30 1081 C 104.298 0.115544 4.39948 0
M  V30 1082 H 101.417 0.161739 0.719034 0
M  V30 1083 H 104.059 1.05907 1.57746 0
M  V30 1084 H 102.209 0.140828 3.88245 0
M  V30 1085 H 103.881 2.7447 3.70761 0
M  V30 1086 H 102.124 2.63653 3.44484 0
M  V30 1087 H 102.795 2.26221 5.03516 0
M  V30 1088 H 105.271 0.565213 4.12243 0
M  V30 1089 H 104.147 0.303152 5.48062 0
M  V30 1090 H 104.408 -0.980935 4.3108 0
M  V30 1091 N 103.467 -1.45747 0.599634 0
M  V30 1092 C 104.695 -2.06668 0.0978551 0
M  V30 1093 C 105.11 -1.44562 -1.21439 0
M  V30 1094 O 104.467 -0.556923 -1.73795 0
M  V30 1095 C 104.518 -3.61456 -0.0567044 0
M  V30 1096 O 104.239 -4.21242 1.20361 0
M  V30 1097 C 105.74 -4.39345 -0.590869 0
M  V30 1098 H 102.96 -0.667825 0.0651943 0
M  V30 1099 H 105.504 -1.87115 0.82511 0
M  V30 1100 H 103.659 -3.80378 -0.734251 0
M  V30 1101 H 104.073 -5.14323 1.02821 0
M  V30 1102 H 105.547 -5.48182 -0.648131 0
M  V30 1103 H 106.024 -4.08568 -1.61147 0
M  V30 1104 H 106.63 -4.25268 0.0523679 0
M  V30 1105 N 104.945 -0.338344 -1.53925 0
M  V30 1106 C 106.194 0.260732 -2.00008 0
M  V30 1107 C 106.507 1.52073 -1.23017 0
M  V30 1108 O 107.713 2.19672 -1.5955 0
M  V30 1109 C 106.169 0.51515 -3.56194 0
M  V30 1110 C 105.777 -0.728645 -4.42035 0
M  V30 1111 C 107.521 1.07337 -4.10706 0
M  V30 1112 C 105.428 -0.445315 -5.89721 0
M  V30 1113 H 104.358 0.101205 -0.747177 0
M  V30 1114 H 107.009 -0.452866 -1.77824 0
M  V30 1115 H 105.391 1.28932 -3.74423 0
M  V30 1116 H 106.565 -1.50352 -4.35581 0
M  V30 1117 H 104.88 -1.20813 -3.98489 0
M  V30 1118 H 107.477 1.30022 -5.18651 0
M  V30 1119 H 107.82 2.0273 -3.63602 0
M  V30 1120 H 108.353 0.360034 -3.96167 0
M  V30 1121 H 105.092 -1.36883 -6.41049 0
M  V30 1122 H 104.612 0.291569 -5.99091 0
M  V30 1123 H 106.291 -0.0606218 -6.46972 0
M  V30 1124 N 106.423 1.57458 -0.0668435 0
M  V30 1125 C 107.37 2.12439 0.902122 0
M  V30 1126 C 108.34 1.03565 1.2986 0
M  V30 1127 O 109.525 1.312 1.38532 0
M  V30 1128 C 106.665 2.6865 2.16614 0
M  V30 1129 C 105.778 3.91663 1.82274 0
M  V30 1130 C 104.913 4.36134 3.0325 0
M  V30 1131 C 103.952 5.51808 2.64904 0
M  V30 1132 N 103.089 5.9126 3.78624 0
M  V30 1133 H 107.929 2.94934 0.426382 0
M  V30 1134 H 105.466 1.4575 0.198819 0
M  V30 1135 H 107.424 2.99346 2.90599 0
M  V30 1136 H 106.054 1.88928 2.61737 0
M  V30 1137 H 105.106 3.6746 0.983719 0
M  V30 1138 H 106.418 4.75693 1.50059 0
M  V30 1139 H 105.572 4.68465 3.85519 0
M  V30 1140 H 104.311 3.50948 3.38655 0
M  V30 1141 H 103.316 5.19133 1.81055 0
M  V30 1142 H 104.541 6.38722 2.30675 0
M  V30 1143 H 102.487 5.09024 4.138 0
M  V30 1144 H 102.404 6.70018 3.5016 0
M  V30 1145 H 103.672 6.28212 4.61486 0
M  V30 1146 N 107.901 -0.206675 1.56239 0
M  V30 1147 C 109.129 -0.945345 1.8404 0
M  V30 1148 C 109.544 -1.77336 0.647885 0
M  V30 1149 O 108.901 -1.78425 -0.383511 0
M  V30 1150 C 108.952 -1.8509 3.10522 0
M  V30 1151 O 108.673 -1.05634 4.25174 0
M  V30 1152 C 110.174 -2.70222 3.51418 0
M  V30 1153 H 107.394 -0.276372 0.61144 0
M  V30 1154 H 109.938 -0.217417 2.03341 0
M  V30 1155 H 108.093 -2.53259 2.93153 0
M  V30 1156 H 108.507 -1.67238 4.97124 0
M  V30 1157 H 109.981 -3.29438 4.42916 0
M  V30 1158 H 110.458 -3.43358 2.73864 0
M  V30 1159 H 111.064 -2.07443 3.71278 0
M  V30 1160 N 109.379 -1.50304 -0.473955 0
M  V30 1161 C 110.327 -1.69482 -1.59307 0
M  V30 1162 C 111.321 -0.560669 -1.59853 0
M  V30 1163 O 112.527 -0.741087 -1.64036 0
M  V30 1164 H 108.902 -0.534892 -0.528578 0
M  V30 1165 H 110.873 -2.63364 -1.40293 0
M  V30 1166 C 109.622 -1.80354 -2.97267 0
M  V30 1167 H 108.945 -2.67012 -2.97564 0
M  V30 1168 H 110.385 -1.97798 -3.75036 0
M  V30 1169 C 108.844 -0.55448 -3.32306 0
M  V30 1170 O 109.374 0.307661 -4.0052 0
M  V30 1171 N 107.58 -0.409354 -2.87702 0
M  V30 1172 H 107.127 -1.11196 -2.32364 0
M  V30 1173 H 107.085 0.425223 -3.11511 0
M  V30 1174 N 110.857 0.726932 -1.39834 0
M  V30 1175 C 111.82 1.82269 -1.38962 0
M  V30 1176 C 112.82 1.58248 -0.285334 0
M  V30 1177 O 114.01 1.65499 -0.54366 0
M  V30 1178 C 111.142 3.20186 -1.17019 0
M  V30 1179 H 112.335 1.84443 -2.36476 0
M  V30 1180 H 109.888 0.931416 -1.25516 0
M  V30 1181 H 110.623 3.23669 -0.202204 0
M  V30 1182 H 110.408 3.3902 -1.96998 0
M  V30 1183 H 111.898 4.00235 -1.1917 0
M  V30 1184 N 112.336 1.25143 0.95797 0
M  V30 1185 C 113.576 1.10893 1.71703 0
M  V30 1186 C 113.94 -0.34478 1.88879 0
M  V30 1187 O 115.141 -0.609014 2.6181 0
M  V30 1188 C 113.412 1.83889 3.06463 0
M  V30 1189 S 114.971 1.85491 3.97666 0
M  V30 1190 H 111.789 0.396428 0.590226 0
M  V30 1191 H 114.391 1.58618 1.14283 0
M  V30 1192 H 113.095 2.88756 2.9163 0
M  V30 1193 H 112.626 1.36538 3.68946 0
M  V30 1194 H 114.641 0.929553 4.87415 0
M  V30 1195 N 113.814 -1.1601 1.06675 0
M  V30 1196 C 114.764 -2.18512 0.650888 0
M  V30 1197 C 115.748 -1.57677 -0.320441 0
M  V30 1198 O 116.94 -1.76482 -0.135266 0
M  V30 1199 C 114.069 -3.43273 0.0429255 0
M  V30 1200 C 113.155 -4.11176 1.03898 0
M  V30 1201 N 113.546 -4.54672 2.216 0
M  V30 1202 C 111.844 -4.37417 0.870779 0
M  V30 1203 C 112.545 -5.07248 2.84736 0
M  V30 1204 N 111.521 -5.0037 2.12441 0
M  V30 1205 H 115.323 -2.49863 1.54745 0
M  V30 1206 H 112.837 -1.32503 0.938975 0
M  V30 1207 H 114.834 -4.16006 -0.272857 0
M  V30 1208 H 113.494 -3.13408 -0.84884 0
M  V30 1209 H 114.505 -4.4828 2.59356 0
M  V30 1210 H 111.182 -4.17488 0.0313293 0
M  V30 1211 H 112.572 -5.50912 3.84636 0
M  V30 1212 N 115.292 -0.849877 -1.32721 0
M  V30 1213 C 116.24 -0.279745 -2.30912 0
M  V30 1214 C 117.234 0.594278 -1.58634 0
M  V30 1215 O 118.44 0.482613 -1.73409 0
M  V30 1216 H 114.815 -0.0717521 -0.748569 0
M  V30 1217 H 116.786 -1.12222 -2.76494 0
M  V30 1218 C 115.535 0.521108 -3.43773 0
M  V30 1219 H 114.858 -0.142141 -3.99547 0
M  V30 1220 H 116.298 0.885693 -4.14646 0
M  V30 1221 C 114.757 1.70442 -2.90605 0
M  V30 1222 O 115.287 2.8034 -2.87702 0
M  V30 1223 N 113.493 1.52991 -2.47067 0
M  V30 1224 H 113.04 0.635914 -2.49628 0
M  V30 1225 H 112.998 2.32311 -2.11847 0
M  V30 1226 N 116.77 1.45427 -0.607355 0
M  V30 1227 C 118.018 2.01841 -0.102253 0
M  V30 1228 C 118.339 1.47832 1.27164 0
M  V30 1229 O 117.609 0.672497 1.83995 0
M  V30 1230 H 116.189 0.746188 -0.0348101 0
M  V30 1231 H 118.851 1.78229 -0.7887 0
M  V30 1232 H 117.947 3.12057 -0.0518585 0
M  V30 1233 N 118.248 0.346503 1.53744 0
M  V30 1234 C 119.496 -0.248612 2.00565 0
M  V30 1235 C 119.817 -1.5083 1.23593 0
M  V30 1236 O 119.087 -1.92858 0.343912 0
M  V30 1237 H 117.667 -0.0948564 0.740953 0
M  V30 1238 H 120.329 0.468341 1.89189 0
M  V30 1239 H 119.425 -0.488994 3.08245 0
M  V30 1240 N 119.726 -1.57421 0.075193 0
M  V30 1241 C 120.974 -1.93236 -0.591974 0
M  V30 1242 C 121.295 -0.956241 -1.69944 0
M  V30 1243 O 120.565 -0.00494792 -1.95899 0
M  V30 1244 H 119.145 -0.713355 -0.22166 0
M  V30 1245 H 121.807 -1.9444 0.133848 0
M  V30 1246 H 120.903 -2.95131 -1.01509 0
M  V30 1247 N 121.204 0.198386 -1.56346 0
M  V30 1248 C 122.451 0.919286 -1.80431 0
M  V30 1249 C 122.779 1.83393 -0.647866 0
M  V30 1250 O 122.034 1.92236 0.366556 0
M  V30 1251 C 122.333 1.77031 -3.10475 0
M  V30 1252 C 121.999 1.00693 -4.39513 0
M  V30 1253 C 120.661 0.796145 -4.74568 0
M  V30 1254 C 123.013 0.469559 -5.19081 0
M  V30 1255 C 120.341 0.0364588 -5.86689 0
M  V30 1256 C 122.693 -0.2769 -6.31994 0
M  V30 1257 C 121.357 -0.49873 -6.65634 0
M  V30 1258 H 120.627 0.336391 -0.660244 0
M  V30 1259 H 123.274 0.185872 -1.90596 0
M  V30 1260 H 121.579 2.5723 -2.95533 0
M  V30 1261 H 123.276 2.33065 -3.26315 0
M  V30 1262 H 119.866 1.18122 -4.12001 0
M  V30 1263 H 124.05 0.619816 -4.92414 0
M  V30 1264 H 119.306 -0.145412 -6.11227 0
M  V30 1265 H 123.48 -0.700684 -6.92866 0
M  V30 1266 H 121.107 -1.0893 -7.52355 0
M  V30 1267 N 122.682 1.50554 0.465978 0
M  V30 1268 C 123.907 1.65838 1.24549 0
M  V30 1269 C 124.332 0.343486 1.84937 0
M  V30 1270 O 123.69 -0.69324 1.67523 0
M  V30 1271 C 123.738 2.75533 2.32624 0
M  V30 1272 O 122.842 2.37142 3.37398 0
M  V30 1273 H 122.183 0.553893 0.366194 0
M  V30 1274 H 124.713 1.96959 0.553927 0
M  V30 1275 H 124.723 2.98763 2.77857 0
M  V30 1276 H 123.398 3.70962 1.88043 0
M  V30 1277 H 121.975 2.24377 2.97841 0
M  V30 1278 N 124.16 -0.719506 1.40217 0
M  V30 1279 C 125.07 -1.86378 1.42479 0
M  V30 1280 C 126.086 -1.71073 0.317834 0
M  V30 1281 O 127.262 -1.93406 0.561794 0
M  V30 1282 C 124.327 -3.22136 1.28178 0
M  V30 1283 C 123.388 -3.49723 2.48982 0
M  V30 1284 C 122.621 -4.79004 2.35353 0
M  V30 1285 O 122.844 -5.53821 1.36524 0
M  V30 1286 O 121.778 -5.06839 3.2465 0
M  V30 1287 H 125.604 -1.87425 2.38968 0
M  V30 1288 H 123.189 -0.869405 1.21498 0
M  V30 1289 H 125.071 -4.03234 1.22395 0
M  V30 1290 H 123.746 -3.21825 0.347934 0
M  V30 1291 H 122.653 -2.6865 2.60342 0
M  V30 1292 H 123.986 -3.54828 3.41113 0
M  V30 1293 N 125.638 -1.25649 -0.95132 0
M  V30 1294 C 126.884 -1.10757 -1.69884 0
M  V30 1295 C 127.217 0.350061 -1.91019 0
M  V30 1296 O 126.492 1.25783 -1.48354 0
M  V30 1297 C 126.775 -1.86606 -3.07978 0
M  V30 1298 C 126.628 -3.40217 -2.94232 0
M  V30 1299 C 127.947 -1.65182 -4.07925 0
M  V30 1300 H 125.066 -0.40374 -0.616574 0
M  V30 1301 H 127.708 -1.54521 -1.10558 0
M  V30 1302 H 125.858 -1.49409 -3.58621 0
M  V30 1303 H 127.53 -3.87108 -2.50889 0
M  V30 1304 H 125.773 -3.67759 -2.30078 0
M  V30 1305 H 126.444 -3.88505 -3.92133 0
M  V30 1306 H 128.92 -1.9757 -3.66204 0
M  V30 1307 H 127.796 -2.20683 -5.02583 0
M  V30 1308 H 128.057 -0.593933 -4.38092 0
M  V30 1309 N 127.117 1.15442 -1.07289 0
M  V30 1310 C 128.366 1.85557 -0.790669 0
M  V30 1311 C 128.679 1.83186 0.685739 0
M  V30 1312 O 129.885 2.48977 1.0827 0
M  V30 1313 C 128.341 3.33038 -1.36433 0
M  V30 1314 C 127.949 3.43856 -2.8717 0
M  V30 1315 C 129.693 4.0834 -1.1601 0
M  V30 1316 C 127.6 4.85482 -3.3773 0
M  V30 1317 H 126.53 0.695122 -0.292098 0
M  V30 1318 H 129.181 1.30219 -1.29287 0
M  V30 1319 H 127.563 3.88043 -0.789864 0
M  V30 1320 H 128.737 2.98961 -3.50655 0
M  V30 1321 H 127.052 2.81998 -3.06376 0
M  V30 1322 H 129.649 5.12859 -1.51262 0
M  V30 1323 H 129.992 4.16182 -0.0991007 0
M  V30 1324 H 130.525 3.59603 -1.70089 0
M  V30 1325 H 127.264 4.82823 -4.43353 0
M  V30 1326 H 126.784 5.30961 -2.78999 0
M  V30 1327 H 128.463 5.54335 -3.33648 0
M  V30 1328 N 128.595 0.856903 1.32268 0
M  V30 1329 C 129.842 0.461386 1.97174 0
M  V30 1330 C 130.17 -0.983491 1.67803 0
M  V30 1331 O 129.425 -1.70541 0.959903 0
M  V30 1332 C 129.724 0.649919 3.51441 0
M  V30 1333 C 129.39 2.0656 4.00804 0
M  V30 1334 C 128.052 2.45279 4.13995 0
M  V30 1335 C 130.404 2.98947 4.26943 0
M  V30 1336 C 127.732 3.75653 4.50668 0
M  V30 1337 C 130.084 4.28822 4.65075 0
M  V30 1338 C 128.748 4.67472 4.76472 0
M  V30 1339 H 128.018 0.168833 0.72151 0
M  V30 1340 H 130.665 1.08739 1.57633 0
M  V30 1341 H 128.97 -0.0593018 3.91755 0
M  V30 1342 H 130.667 0.32391 3.9969 0
M  V30 1343 H 127.257 1.75495 3.91024 0
M  V30 1344 H 131.441 2.70265 4.16258 0
M  V30 1345 H 126.697 4.05379 4.57688 0
M  V30 1346 H 130.871 5.0047 4.84255 0
M  V30 1347 H 128.498 5.68539 5.04646 0
M  V30 1348 N 130.073 -1.45103 0.615059 0
M  V30 1349 C 131.489 -1.57137 0.279322 0
M  V30 1350 C 131.689 -1.60523 -1.21797 0
M  V30 1351 O 130.745 -1.53956 -2.00134 0
M  V30 1352 C 132.058 -2.85062 0.957083 0
M  V30 1353 C 133.606 -2.98749 0.933706 0
M  V30 1354 C 134.081 -4.29455 1.59162 0
M  V30 1355 N 135.572 -4.36231 1.55746 0
M  V30 1356 C 136.307 -5.36051 2.0356 0
M  V30 1357 N 135.803 -6.42367 2.59494 0
M  V30 1358 N 137.596 -5.27456 1.94284 0
M  V30 1359 H 129.747 -1.41148 1.58717 0
M  V30 1360 H 132.01 -0.675331 0.665306 0
M  V30 1361 H 131.716 -2.88488 2.01166 0
M  V30 1362 H 131.59 -3.7407 0.48494 0
M  V30 1363 H 133.977 -2.94886 -0.112347 0
M  V30 1364 H 134.058 -2.11132 1.44419 0
M  V30 1365 H 133.702 -4.34077 2.63704 0
M  V30 1366 H 133.632 -5.15901 1.0561 0
M  V30 1367 H 136.123 -3.60011 1.14893 0
M  V30 1368 H 136.436 -7.14793 2.93752 0
M  V30 1369 H 134.781 -6.43097 2.63537 0
M  V30 1370 H 137.972 -4.43308 1.5032 0
M  V30 1371 H 138.145 -6.05099 2.3186 0
M  V30 1372 O 131.59 -0.496846 -1.53667 0
M  V30 1373 H 132.281 0.021856 -1.93688 0
M  V30 END ATOM
M  V30 BEGIN BOND
M  V30 END BOND
M  V30 END CTAB
M  END
$$$$
