drugbank_target|O00329 Phosphatidylinositol 4,5-bisphosphate 3-kinase catalytic subunit delta isoform (DB00201; DB05241; DB05552; DB06831; DB09054; DB11952; DB12010; DB12483)
 OpenBabel12092120143D

  0  0  0     0  0            999 V3000
M  V30 BEGIN CTAB
M  V30 COUNTS 16815 17011 0 0 0
M  V30 BEGIN ATOM
M  V30 1 H -0.908 1.98254 -0.117106 0
M  V30 2 N 0 1.576 0 0
M  V30 3 C 0.933 2.03868 1.02534 0
M  V30 4 C 1.911 0.928543 1.3348 0
M  V30 5 O 3.095 1.19667 1.45644 0
M  V30 6 C 0.222 2.43627 2.35294 0
M  V30 7 C -0.732 3.65373 2.2001 0
M  V30 8 S 0.101 5.13292 1.52614 0
M  V30 9 C 1.257 5.56322 2.86805 0
M  V30 10 H 1.49 2.90518 0.631377 0
M  V30 11 H -0.977 1.52953 0.210867 0
M  V30 12 H 0.981 2.67203 3.11629 0
M  V30 13 H -0.358 1.57376 2.7183 0
M  V30 14 H -1.165 3.90944 3.18086 0
M  V30 15 H -1.563 3.418 1.51819 0
M  V30 16 H 0.729 5.58782 3.83104 0
M  V30 17 H 1.672 6.56266 2.65933 0
M  V30 18 H 2.08 4.83886 2.90714 0
M  V30 19 N 1.4781 -0.272755 1.55222 0
M  V30 20 C 2.8891 -0.84378 1.66545 0
M  V30 21 C 3.2401 -1.87035 0.592641 0
M  V30 22 O 2.3651 -2.14761 -0.265818 0
M  V30 23 C 2.9601 -1.53723 3.01918 0
M  V30 24 C 1.5191 -2.05628 3.15268 0
M  V30 25 C 0.6661 -0.898424 2.62343 0
M  V30 26 H 3.6171 -0.0490998 1.58624 0
M  V30 27 H 3.6381 -2.40421 2.94921 0
M  V30 28 H 3.1501 -0.78983 3.79978 0
M  V30 29 H 1.2511 -2.83329 2.41983 0
M  V30 30 H 1.3641 -2.27142 4.21833 0
M  V30 31 H -0.2719 -1.29186 2.19506 0
M  V30 32 H 0.5111 -0.164528 3.42906 0
M  V30 33 N 2.9562 -1.48159 -0.537278 0
M  V30 34 C 4.3672 -1.49429 -1.11928 0
M  V30 35 C 4.7182 -0.26 -1.9447 0
M  V30 36 O 3.8432 0.633489 -2.0692 0
M  V30 37 C 4.4382 -2.70758 -2.03656 0
M  V30 38 C 2.9972 -2.74923 -2.57088 0
M  V30 39 C 2.1442 -2.42835 -1.3389 0
M  V30 40 H 5.0952 -1.55381 -0.322886 0
M  V30 41 H 5.1162 -2.48861 -2.87834 0
M  V30 42 H 4.6282 -3.60575 -1.43553 0
M  V30 43 H 2.7292 -1.89296 -3.20933 0
M  V30 44 H 2.8422 -3.76157 -2.9672 0
M  V30 45 H 1.2062 -1.93836 -1.65226 0
M  V30 46 H 1.9892 -3.34884 -0.755504 0
M  V30 47 N 4.4343 0.785586 -1.36625 0
M  V30 48 C 5.6823 1.54057 -1.30808 0
M  V30 49 C 6.0033 1.94683 0.111157 0
M  V30 50 O 5.2733 1.65241 1.05224 0
M  V30 51 H 3.8533 0.571354 -0.481211 0
M  V30 52 H 6.5153 0.935821 -1.70963 0
M  V30 53 H 5.6113 2.44637 -1.93801 0
M  V30 54 N 5.9124 1.20967 1.01018 0
M  V30 55 C 7.1584 1.02526 1.74975 0
M  V30 56 C 7.4914 -0.4408 1.89131 0
M  V30 57 O 6.7664 -1.32718 1.42184 0
M  V30 58 C 7.0494 1.71699 3.1653 0
M  V30 59 C 6.9024 3.25791 3.10129 0
M  V30 60 C 8.2214 1.45531 4.15342 0
M  V30 61 H 5.3404 0.373863 0.635134 0
M  V30 62 H 7.9824 1.49071 1.17805 0
M  V30 63 H 6.1324 1.32128 3.65341 0
M  V30 64 H 7.8044 3.74697 2.69072 0
M  V30 65 H 6.0474 3.56363 2.47362 0
M  V30 66 H 6.7184 3.69353 4.10222 0
M  V30 67 H 9.1944 1.79872 3.75213 0
M  V30 68 H 8.0704 1.96453 5.1254 0
M  V30 69 H 8.3314 0.384237 4.40427 0
M  V30 70 N 7.3905 -1.2043 1.01659 0
M  V30 71 C 8.6675 -1.8548 0.621004 0
M  V30 72 C 9.0475 -1.9091 -0.900919 0
M  V30 73 O 8.3955 -1.41694 -1.79263 0
M  V30 74 C 8.6055 -3.25119 1.2688 0
M  V30 75 C 9.9535 -4.01403 1.38423 0
M  V30 76 O 10.9775 -3.34473 1.22501 0
M  V30 77 O 9.8365 -5.21265 1.64151 0
M  V30 78 H 6.9305 -0.798761 0.214266 0
M  V30 79 H 9.4765 -1.28019 1.11396 0
M  V30 80 H 8.2485 -3.15932 2.30873 0
M  V30 81 H 7.8715 -3.90212 0.762917 0
M  V30 82 N 8.8686 -0.792821 -1.36206 0
M  V30 83 C 10.1086 -0.372238 -2.00982 0
M  V30 84 C 10.4726 1.03749 -1.61555 0
M  V30 85 O 11.6736 1.55934 -2.18948 0
M  V30 86 C 9.9446 -0.534566 -3.5338 0
M  V30 87 S 11.5036 -0.202365 -4.38333 0
M  V30 88 H 8.3216 -0.142044 -0.696667 0
M  V30 89 H 10.9236 -1.03206 -1.66039 0
M  V30 90 H 9.6276 -1.5608 -3.79562 0
M  V30 91 H 9.1586 0.141065 -3.93147 0
M  V30 92 H 11.1736 0.994869 -4.86124 0
M  V30 93 N 10.3467 1.47872 -0.545128 0
M  V30 94 C 11.7577 1.86384 -0.108581 0
M  V30 95 C 12.1087 1.45309 1.31832 0
M  V30 96 O 11.2337 0.850641 1.9898 0
M  V30 97 C 11.8287 3.38265 -0.190274 0
M  V30 98 C 10.3877 3.75914 0.191164 0
M  V30 99 C 9.5347 2.71926 -0.543273 0
M  V30 100 H 12.4857 1.39561 -0.755537 0
M  V30 101 H 12.5067 3.75831 0.594217 0
M  V30 102 H 12.0187 3.6813 -1.2289 0
M  V30 103 H 10.1197 3.51665 1.23136 0
M  V30 104 H 10.2327 4.78836 -0.158987 0
M  V30 105 H 8.5967 2.54697 0.0122495 0
M  V30 106 H 9.3797 3.04634 -1.58282 0
M  V30 107 N 11.8248 0.280983 1.55075 0
M  V30 108 C 12.7578 -0.645439 2.18882 0
M  V30 109 C 13.7358 -1.14786 1.15165 0
M  V30 110 O 14.9198 -1.21975 1.43716 0
M  V30 111 C 12.0468 -1.88088 2.81674 0
M  V30 112 C 11.0928 -1.51343 3.98745 0
M  V30 113 S 11.9258 -0.586548 5.32278 0
M  V30 114 C 13.0818 -1.83024 5.98543 0
M  V30 115 H 13.3148 -0.1033 2.9712 0
M  V30 116 H 10.8478 0.0652099 1.54262 0
M  V30 117 H 12.8058 -2.58997 3.18482 0
M  V30 118 H 11.4668 -2.39417 2.03318 0
M  V30 119 H 10.6598 -2.43289 4.41392 0
M  V30 120 H 10.2618 -0.884477 3.63391 0
M  V30 121 H 12.5538 -2.77342 6.18133 0
M  V30 122 H 13.4968 -1.44668 6.93164 0
M  V30 123 H 13.9048 -1.99785 5.27964 0
M  V30 124 N 13.3029 -1.57598 0.00835791 0
M  V30 125 C 14.2129 -2.12385 -0.996487 0
M  V30 126 C 15.2289 -1.07108 -1.37127 0
M  V30 127 O 16.4049 -1.39055 -1.4569 0
M  V30 128 C 13.4699 -2.62314 -2.26699 0
M  V30 129 C 12.5309 -3.82225 -1.95456 0
M  V30 130 C 11.7639 -4.29763 -3.16449 0
M  V30 131 O 11.9869 -3.76584 -4.28416 0
M  V30 132 O 10.9209 -5.21832 -2.99958 0
M  V30 133 H 14.7469 -2.98479 -0.560725 0
M  V30 134 H 12.3319 -1.47903 -0.210987 0
M  V30 135 H 14.2139 -2.94589 -3.01322 0
M  V30 136 H 12.8889 -1.79313 -2.69497 0
M  V30 137 H 11.7959 -3.54909 -1.18282 0
M  V30 138 H 13.1289 -4.66324 -1.57489 0
M  V30 139 N 14.781 0.264519 -1.55364 0
M  V30 140 C 16.028 0.994986 -1.7637 0
M  V30 141 C 16.356 1.85976 -0.5695 0
M  V30 142 O 15.611 1.90509 0.44776 0
M  V30 143 C 15.91 1.9004 -3.02687 0
M  V30 144 C 15.576 1.19243 -4.34847 0
M  V30 145 C 14.238 0.996709 -4.70764 0
M  V30 146 C 16.59 0.689296 -5.16622 0
M  V30 147 C 13.918 0.285261 -5.86006 0
M  V30 148 C 16.27 -0.00860079 -6.32599 0
M  V30 149 C 14.934 -0.215963 -6.67151 0
M  V30 150 H 14.204 0.364091 -0.645383 0
M  V30 151 H 16.851 0.266543 -1.89636 0
M  V30 152 H 15.156 2.69533 -2.84357 0
M  V30 153 H 16.853 2.46695 -3.16137 0
M  V30 154 H 13.443 1.3549 -4.06621 0
M  V30 155 H 17.627 0.828108 -4.89342 0
M  V30 156 H 12.883 0.113961 -6.11294 0
M  V30 157 H 17.057 -0.406186 -6.95214 0
M  V30 158 H 14.684 -0.769217 -7.56298 0
M  V30 159 N 16.2591 1.48442 0.529413 0
M  V30 160 C 17.5051 1.57699 1.28463 0
M  V30 161 C 17.8601 0.247913 1.90796 0
M  V30 162 O 17.1531 -0.749279 1.76342 0
M  V30 163 C 17.3471 2.6523 2.39558 0
M  V30 164 C 17.1761 4.08464 1.88114 0
M  V30 165 C 15.9461 4.75596 1.70693 0
M  V30 166 C 18.1441 4.94613 1.40935 0
M  V30 167 N 16.1261 6.03245 1.13881 0
M  V30 168 C 17.4971 6.12511 0.960734 0
M  V30 169 C 19.5521 4.80833 1.29243 0
M  V30 170 C 18.2551 7.18149 0.406792 0
M  V30 171 C 20.2811 5.86593 0.752487 0
M  V30 172 C 19.6431 7.037 0.313946 0
M  V30 173 H 15.7421 0.631608 0.46108 0
M  V30 174 H 18.3261 1.85325 0.596886 0
M  V30 175 H 16.4971 2.39425 3.05827 0
M  V30 176 H 18.2291 2.64169 3.06589 0
M  V30 177 H 14.9841 4.31938 1.94232 0
M  V30 178 H 15.4081 6.71324 0.874831 0
M  V30 179 H 20.0501 3.90635 1.61754 0
M  V30 180 H 17.7681 8.0807 0.0693671 0
M  V30 181 H 21.3541 5.77985 0.665192 0
M  V30 182 H 20.2341 7.8414 -0.0973632 0
M  V30 183 N 17.7372 -0.778329 1.37039 0
M  V30 184 C 18.9652 -1.56734 1.35063 0
M  V30 185 C 19.3802 -1.88686 -0.0655597 0
M  V30 186 O 18.7372 -1.5096 -1.02554 0
M  V30 187 C 18.7882 -2.88163 2.18276 0
M  V30 188 O 18.5092 -2.57583 3.54376 0
M  V30 189 C 20.0102 -3.82422 2.24206 0
M  V30 190 H 17.2302 -0.485778 0.462883 0
M  V30 191 H 19.7742 -0.965185 1.8029 0
M  V30 192 H 17.9292 -3.44818 1.76576 0
M  V30 193 H 18.3432 -3.41699 3.97922 0
M  V30 194 H 19.8172 -4.71667 2.86765 0
M  V30 195 H 20.2942 -4.21078 1.24861 0
M  V30 196 H 20.9002 -3.31697 2.6619 0
M  V30 197 N 19.2153 -1.21501 -1.00376 0
M  V30 198 C 20.1623 -0.975387 -2.09177 0
M  V30 199 C 21.1323 0.0990615 -1.65804 0
M  V30 200 O 22.3173 -0.0483147 -1.90739 0
M  V30 201 C 19.4573 -0.547507 -3.40729 0
M  V30 202 C 18.5703 -1.69153 -3.97506 0
M  V30 203 C 17.7053 -1.2127 -5.17172 0
M  V30 204 C 16.7443 -2.32897 -5.66061 0
M  V30 205 N 15.8813 -1.86138 -6.76976 0
M  V30 206 H 20.7213 -1.9068 -2.29009 0
M  V30 207 H 18.2583 -0.950257 -1.12288 0
M  V30 208 H 20.2163 -0.280667 -4.16255 0
M  V30 209 H 18.8463 0.346904 -3.20931 0
M  V30 210 H 17.8983 -2.07298 -3.18954 0
M  V30 211 H 19.2103 -2.5316 -4.29781 0
M  V30 212 H 18.3643 -0.902591 -5.99948 0
M  V30 213 H 17.1033 -0.342692 -4.86495 0
M  V30 214 H 16.1083 -2.64709 -4.81881 0
M  V30 215 H 17.3333 -3.20396 -5.98768 0
M  V30 216 H 15.2793 -1.01484 -6.48103 0
M  V30 217 H 15.1963 -2.63717 -7.08512 0
M  V30 218 H 16.4643 -1.58165 -7.63285 0
M  V30 219 N 20.6934 1.19889 -1.02296 0
M  V30 220 C 21.6034 2.26571 -0.608508 0
M  V30 221 C 22.6194 1.70299 0.356964 0
M  V30 222 O 23.7954 2.00235 0.216326 0
M  V30 223 C 20.8604 3.46677 0.0402814 0
M  V30 224 C 19.9214 4.18153 -0.97194 0
M  V30 225 C 19.1544 5.32525 -0.354016 0
M  V30 226 O 19.3774 5.64112 0.844604 0
M  V30 227 O 18.3114 5.92242 -1.07391 0
M  V30 228 H 22.1374 2.64251 -1.49684 0
M  V30 229 H 19.7224 1.26629 -0.792809 0
M  V30 230 H 21.6044 4.19475 0.402324 0
M  V30 231 H 20.2794 3.10858 0.902707 0
M  V30 232 H 19.1864 3.47499 -1.38546 0
M  V30 233 H 20.5194 4.57927 -1.80454 0
M  V30 234 N 22.1715 0.800033 1.35784 0
M  V30 235 C 23.0815 0.207204 2.33683 0
M  V30 236 C 24.0975 -0.64631 1.61551 0
M  V30 237 O 25.2735 -0.559604 1.93469 0
M  V30 238 C 22.3385 -0.639659 3.40748 0
M  V30 239 C 21.3995 0.233585 4.28664 0
M  V30 240 C 20.6325 -0.572954 5.30616 0
M  V30 241 O 20.8555 -1.80816 5.40982 0
M  V30 242 O 19.7895 0.0327285 6.01891 0
M  V30 243 H 23.6155 1.01692 2.86169 0
M  V30 244 H 21.2005 0.561691 1.38439 0
M  V30 245 H 23.0825 -1.12223 4.06182 0
M  V30 246 H 21.7575 -1.42708 2.90544 0
M  V30 247 H 20.6645 0.763147 3.66233 0
M  V30 248 H 21.9975 0.984784 4.82248 0
M  V30 249 N 23.6496 -1.47581 0.552962 0
M  V30 250 C 24.5976 -2.31648 -0.21023 0
M  V30 251 C 25.5916 -1.42663 -0.913432 0
M  V30 252 O 26.7976 -1.5945 -0.835201 0
M  V30 253 H 23.1726 -0.746989 -0.0866676 0
M  V30 254 H 25.1436 -2.93869 0.518051 0
M  V30 255 C 23.8926 -3.25226 -1.22976 0
M  V30 256 H 23.2156 -3.93658 -0.698077 0
M  V30 257 H 24.6556 -3.86889 -1.73473 0
M  V30 258 C 23.1146 -2.48448 -2.27542 0
M  V30 259 O 23.6446 -2.22585 -3.34393 0
M  V30 260 N 21.8506 -2.09532 -2.01357 0
M  V30 261 H 21.3976 -2.30765 -1.14478 0
M  V30 262 H 21.3556 -1.58476 -2.71538 0
M  V30 263 N 25.1277 -0.289203 -1.54924 0
M  V30 264 C 26.0597 0.625583 -2.20497 0
M  V30 265 C 27.0727 1.10667 -1.19402 0
M  V30 266 O 28.2617 1.02615 -1.46056 0
M  V30 267 C 25.3617 1.86702 -2.82835 0
M  V30 268 C 24.5347 1.5304 -4.09753 0
M  V30 269 C 23.5937 2.62576 -4.56005 0
M  V30 270 O 22.6197 2.28167 -5.21468 0
M  V30 271 N 23.8217 3.92901 -4.27328 0
M  V30 272 H 26.5867 0.0642801 -2.99631 0
M  V30 273 H 24.1477 -0.110896 -1.6152 0
M  V30 274 H 26.1397 2.59304 -3.10715 0
M  V30 275 H 24.7097 2.33702 -2.07611 0
M  V30 276 H 23.9297 0.637564 -3.8901 0
M  V30 277 H 25.2177 1.28072 -4.92418 0
M  V30 278 H 24.6157 4.23671 -3.74859 0
M  V30 279 H 23.1727 4.61837 -4.59946 0
M  V30 280 N 26.6058 1.57591 -0.0167156 0
M  V30 281 C 27.8308 1.9598 0.67872 0
M  V30 282 C 28.2558 0.892546 1.65575 0
M  V30 283 O 27.6138 -0.147772 1.80697 0
M  V30 284 C 27.6618 3.33468 1.37227 0
M  V30 285 O 26.7658 3.28954 2.48722 0
M  V30 286 H 26.1068 0.639339 0.17928 0
M  V30 287 H 28.6368 2.04463 -0.0748802 0
M  V30 288 H 28.6468 3.69417 1.7319 0
M  V30 289 H 27.3218 4.10694 0.656007 0
M  V30 290 H 25.8988 3.04705 2.14963 0
M  V30 291 N 28.0839 -0.256276 1.55502 0
M  V30 292 C 29.3299 -0.987079 1.77157 0
M  V30 293 C 29.6629 -1.85327 0.580315 0
M  V30 294 O 28.9379 -1.89874 -0.421686 0
M  V30 295 C 29.2209 -1.85553 3.08613 0
M  V30 296 C 29.0739 -1.01816 4.38125 0
M  V30 297 C 30.3929 -2.8397 3.36228 0
M  V30 298 H 27.5119 -0.357428 0.644526 0
M  V30 299 H 30.1539 -0.258239 1.88237 0
M  V30 300 H 28.3039 -2.47695 2.99298 0
M  V30 301 H 29.9759 -0.416159 4.59419 0
M  V30 302 H 28.2189 -0.322178 4.32602 0
M  V30 303 H 28.8899 -1.65939 5.26468 0
M  V30 304 H 31.3659 -2.31964 3.45445 0
M  V30 305 H 30.2419 -3.41864 4.29442 0
M  V30 306 H 30.5029 -3.59955 2.56681 0
M  V30 307 N 29.562 -1.4872 -0.521534 0
M  V30 308 C 30.808 -1.574 -1.27879 0
M  V30 309 C 31.141 -0.250817 -1.92573 0
M  V30 310 O 30.416 0.743934 -1.79711 0
M  V30 311 C 30.699 -2.71843 -2.36164 0
M  V30 312 C 30.552 -4.13893 -1.76105 0
M  V30 313 C 31.871 -2.82008 -3.37875 0
M  V30 314 H 28.99 -0.572941 -0.463581 0
M  V30 315 H 31.632 -1.80927 -0.580119 0
M  V30 316 H 29.782 -2.51914 -2.95756 0
M  V30 317 H 31.454 -4.45284 -1.20499 0
M  V30 318 H 29.697 -4.20498 -1.06601 0
M  V30 319 H 30.368 -4.89804 -2.5455 0
M  V30 320 H 32.844 -3.00086 -2.88249 0
M  V30 321 H 31.72 -3.63796 -4.11028 0
M  V30 322 H 31.981 -1.90511 -3.98946 0
M  V30 323 N 31.0401 0.771051 -1.3745 0
M  V30 324 C 32.2861 1.5319 -1.32894 0
M  V30 325 C 32.6191 1.94008 0.0862511 0
M  V30 326 O 31.8941 1.64124 1.04373 0
M  V30 327 C 32.1771 2.79648 -2.26868 0
M  V30 328 C 32.0301 2.45079 -3.77169 0
M  V30 329 C 33.3491 3.81583 -2.19277 0
M  V30 330 H 30.4681 0.555744 -0.484064 0
M  V30 331 H 33.1101 0.884492 -1.68157 0
M  V30 332 H 31.2601 3.34891 -1.96926 0
M  V30 333 H 32.9321 1.95745 -4.1771 0
M  V30 334 H 31.1751 1.77767 -3.95704 0
M  V30 335 H 31.8461 3.35478 -4.38359 0
M  V30 336 H 34.3221 3.35835 -2.45671 0
M  V30 337 H 33.1981 4.67787 -2.87171 0
M  V30 338 H 33.4591 4.25897 -1.18592 0
M  V30 339 N 32.5182 1.22032 0.997298 0
M  V30 340 C 33.7952 0.950823 1.70935 0
M  V30 341 C 34.1752 -0.535292 2.042 0
M  V30 342 O 33.5232 -1.50217 1.72183 0
M  V30 343 C 33.7332 1.84386 2.96315 0
M  V30 344 C 35.0812 2.09732 3.69185 0
M  V30 345 O 36.1052 1.81798 3.06314 0
M  V30 346 O 34.9642 2.57018 4.82291 0
M  V30 347 H 32.0582 0.357204 0.745878 0
M  V30 348 H 34.6042 1.32997 1.05404 0
M  V30 349 H 33.3762 2.84928 2.68201 0
M  V30 350 H 32.9992 1.46602 3.69586 0
M  V30 351 N 33.9963 -1.19345 1.0293 0
M  V30 352 C 35.2433 -1.89038 0.726008 0
M  V30 353 C 35.5713 -1.79649 -0.745427 0
M  V30 354 O 34.8263 -1.18354 -1.55855 0
M  V30 355 C 35.1253 -3.39292 1.12319 0
M  V30 356 C 34.7913 -3.68885 2.59297 0
M  V30 357 C 33.4533 -3.76671 2.99453 0
M  V30 358 C 35.8053 -3.82178 3.54386 0
M  V30 359 C 33.1333 -3.9522 4.33611 0
M  V30 360 C 35.4853 -4.0224 4.88248 0
M  V30 361 C 34.1493 -4.08259 5.28092 0
M  V30 362 H 33.4193 -0.691739 0.265665 0
M  V30 363 H 36.0663 -1.41328 1.29223 0
M  V30 364 H 34.3713 -3.88903 0.475584 0
M  V30 365 H 36.0683 -3.91536 0.866037 0
M  V30 366 H 32.6583 -3.63433 2.27189 0
M  V30 367 H 36.8423 -3.75505 3.24514 0
M  V30 368 H 32.0983 -3.98119 4.64016 0
M  V30 369 H 36.2723 -4.11468 5.61843 0
M  V30 370 H 33.8993 -4.22384 6.32057 0
M  V30 371 N 35.4744 -0.807222 -1.35358 0
M  V30 372 C 36.4044 -0.232509 -2.3234 0
M  V30 373 C 37.3854 0.642386 -1.57504 0
M  V30 374 O 38.5704 0.572526 -1.85569 0
M  V30 375 C 35.7004 0.619238 -3.41735 0
M  V30 376 C 34.6544 -0.157215 -4.27711 0
M  V30 377 C 33.9804 0.816273 -5.28433 0
M  V30 378 C 35.2804 -1.35656 -5.04376 0
M  V30 379 H 36.9744 -1.04276 -2.80654 0
M  V30 380 H 34.5204 -0.50288 -1.34934 0
M  V30 381 H 36.4734 1.03137 -4.08584 0
M  V30 382 H 35.1974 1.46239 -2.92031 0
M  V30 383 H 33.8564 -0.550525 -3.62443 0
M  V30 384 H 33.5044 1.65494 -4.74996 0
M  V30 385 H 33.2044 0.301067 -5.86828 0
M  V30 386 H 34.7284 1.22659 -5.98153 0
M  V30 387 H 36.1424 -1.01927 -5.64166 0
M  V30 388 H 34.5394 -1.8063 -5.7227 0
M  V30 389 H 35.6094 -2.14288 -4.34981 0
M  V30 390 N 36.9525 1.47285 -0.560781 0
M  V30 391 C 37.8825 2.32857 0.173105 0
M  V30 392 C 38.8635 1.44009 0.905281 0
M  V30 393 O 40.0485 1.7286 0.885046 0
M  V30 394 C 37.1785 3.25861 1.20133 0
M  V30 395 C 36.1325 4.23978 0.585388 0
M  V30 396 C 35.4585 5.06332 1.7185 0
M  V30 397 C 36.7585 5.20242 -0.463178 0
M  V30 398 H 38.4525 2.94466 -0.541307 0
M  V30 399 H 35.9985 1.41601 -0.261764 0
M  V30 400 H 37.9515 3.84569 1.72293 0
M  V30 401 H 36.6755 2.62315 1.94573 0
M  V30 402 H 35.3345 3.66501 0.085054 0
M  V30 403 H 34.9825 4.39186 2.45203 0
M  V30 404 H 34.6825 5.72762 1.31213 0
M  V30 405 H 36.2065 5.67899 2.24329 0
M  V30 406 H 37.6205 5.73293 -0.027502 0
M  V30 407 H 36.0175 5.94896 -0.788627 0
M  V30 408 H 37.0875 4.65504 -1.35773 0
M  V30 409 N 38.4306 0.297415 1.54768 0
M  V30 410 C 39.8416 -0.195947 1.85669 0
M  V30 411 C 40.1926 -1.53707 1.21937 0
M  V30 412 O 39.3176 -2.10164 0.515754 0
M  V30 413 C 39.9126 -0.362318 3.36857 0
M  V30 414 C 38.4716 -0.799901 3.67802 0
M  V30 415 C 37.6186 0.0938578 2.77141 0
M  V30 416 H 40.5696 0.518538 1.4999 0
M  V30 417 H 40.5906 -1.19745 3.61167 0
M  V30 418 H 40.1026 0.613921 3.83214 0
M  V30 419 H 38.2036 -1.78682 3.26961 0
M  V30 420 H 38.3166 -0.621773 4.75048 0
M  V30 421 H 36.6806 -0.426254 2.51108 0
M  V30 422 H 37.4636 1.06639 3.26318 0
M  V30 423 N 39.9087 -1.5758 0.0250728 0
M  V30 424 C 41.1367 -1.9593 -0.664747 0
M  V30 425 C 41.5517 -0.901352 -1.65895 0
M  V30 426 O 40.9087 0.117255 -1.82123 0
M  V30 427 C 40.9597 -3.34342 -1.37468 0
M  V30 428 O 40.6807 -4.36079 -0.420324 0
M  V30 429 C 42.1817 -3.873 -2.1567 0
M  V30 430 H 39.4017 -0.645405 -0.183557 0
M  V30 431 H 41.9457 -2.04329 0.0836372 0
M  V30 432 H 40.1007 -3.27175 -2.0745 0
M  V30 433 H 40.5147 -5.16297 -0.923991 0
M  V30 434 H 41.9887 -4.86504 -2.60803 0
M  V30 435 H 42.4657 -3.21331 -2.99405 0
M  V30 436 H 43.0717 -3.97723 -1.50654 0
M  V30 437 N 41.3868 0.248026 -1.55636 0
M  V30 438 C 42.6348 0.974295 -1.77065 0
M  V30 439 C 42.9558 1.85897 -0.588849 0
M  V30 440 O 42.2258 1.91868 0.395407 0
M  V30 441 H 40.8058 0.362733 -0.653019 0
M  V30 442 H 43.4678 0.266244 -1.93073 0
M  V30 443 H 42.5638 1.59667 -2.68166 0
M  V30 444 N 42.8649 1.48995 0.513639 0
M  V30 445 C 44.1109 1.58076 1.27042 0
M  V30 446 C 44.4439 0.261026 1.92438 0
M  V30 447 O 43.7189 -0.734393 1.80103 0
M  V30 448 C 44.0019 2.73091 2.34719 0
M  V30 449 C 43.8549 4.14821 1.73907 0
M  V30 450 C 45.1739 2.83796 3.36375 0
M  V30 451 H 42.2929 0.575391 0.460536 0
M  V30 452 H 44.9349 1.81232 0.570516 0
M  V30 453 H 43.0849 2.53479 2.94416 0
M  V30 454 H 44.7569 4.45917 1.18135 0
M  V30 455 H 42.9999 4.21058 1.0437 0
M  V30 456 H 43.6709 4.91147 2.51949 0
M  V30 457 H 46.1469 3.01611 2.86653 0
M  V30 458 H 45.0229 3.65971 4.09093 0
M  V30 459 H 45.2839 1.92624 3.9793 0
M  V30 460 N 44.343 -0.763751 1.37857 0
M  V30 461 C 45.573 -1.55067 1.3652 0
M  V30 462 C 45.981 -1.89135 -0.0494227 0
M  V30 463 O 45.324 -1.52529 -1.02375 0
M  V30 464 C 45.386 -2.8838 2.14656 0
M  V30 465 C 45.05 -2.76905 3.63555 0
M  V30 466 C 46.047 -2.4739 4.57268 0
M  V30 467 C 43.732 -2.94676 4.06781 0
M  V30 468 C 45.726 -2.35786 5.92186 0
M  V30 469 C 43.413 -2.82692 5.41782 0
M  V30 470 C 44.411 -2.53289 6.34298 0
M  V30 471 O 44.099 -2.41345 7.66817 0
M  V30 472 H 43.831 -0.486776 0.469069 0
M  V30 473 H 46.385 -0.953812 1.81911 0
M  V30 474 H 44.615 -3.50217 1.63967 0
M  V30 475 H 46.304 -3.49828 2.05852 0
M  V30 476 H 47.07 -2.33339 4.2518 0
M  V30 477 H 42.949 -3.16563 3.35126 0
M  V30 478 H 46.493 -2.12757 6.64365 0
M  V30 479 H 42.39 -2.96314 5.7347 0
M  V30 480 H 43.158 -2.56634 7.77226 0
M  V30 481 N 45.8211 -1.22559 -0.990812 0
M  V30 482 C 46.7511 -1.0218 -2.09956 0
M  V30 483 C 47.7321 0.0579394 -1.70001 0
M  V30 484 O 48.9171 -0.104684 -1.93918 0
M  V30 485 C 46.0471 -0.601023 -3.4206 0
M  V30 486 C 45.0011 -1.62694 -3.95872 0
M  V30 487 C 44.3271 -1.06193 -5.24049 0
M  V30 488 C 45.6271 -3.01743 -4.2632 0
M  V30 489 H 47.3211 -1.94916 -2.27262 0
M  V30 490 H 44.8671 -0.938566 -1.09211 0
M  V30 491 H 46.8201 -0.445561 -4.19038 0
M  V30 492 H 45.5441 0.362005 -3.24588 0
M  V30 493 H 44.2031 -1.77021 -3.21028 0
M  V30 494 H 43.8511 -0.0901903 -5.02919 0
M  V30 495 H 43.5511 -1.74732 -5.61019 0
M  V30 496 H 45.0751 -0.918092 -6.03658 0
M  V30 497 H 46.4891 -2.90777 -4.94087 0
M  V30 498 H 44.8861 -3.67425 -4.74467 0
M  V30 499 H 45.9561 -3.51518 -3.34011 0
M  V30 500 N 47.2992 1.18797 -1.03562 0
M  V30 501 C 48.2472 2.24297 -0.615905 0
M  V30 502 C 49.2412 1.65643 0.354808 0
M  V30 503 O 50.4472 1.78618 0.22265 0
M  V30 504 H 46.8222 0.729909 -0.180934 0
M  V30 505 H 48.7932 2.5701 -1.5162 0
M  V30 506 C 47.5422 3.47698 0.0104735 0
M  V30 507 H 46.8652 3.93125 -0.727509 0
M  V30 508 H 48.3052 4.23159 0.266995 0
M  V30 509 C 46.7642 3.12489 1.25905 0
M  V30 510 O 47.2942 3.25761 2.35038 0
M  V30 511 N 45.5002 2.6686 1.15039 0
M  V30 512 H 45.0472 2.56261 0.262328 0
M  V30 513 H 45.0052 2.43674 1.98672 0
M  V30 514 N 48.7773 0.814389 1.34928 0
M  V30 515 C 50.0243 0.398423 1.98542 0
M  V30 516 C 50.3523 -1.03638 1.64589 0
M  V30 517 O 49.6073 -1.73509 0.90516 0
M  V30 518 C 49.9063 0.537781 3.53331 0
M  V30 519 C 49.5723 1.93704 4.07172 0
M  V30 520 C 48.2343 2.31984 4.21589 0
M  V30 521 C 50.5863 2.85213 4.36237 0
M  V30 522 C 47.9143 3.61125 4.62391 0
M  V30 523 C 50.2663 4.13809 4.78482 0
M  V30 524 C 48.9303 4.52077 4.91104 0
M  V30 525 H 48.2003 0.145793 0.726516 0
M  V30 526 H 50.8473 1.03669 1.61012 0
M  V30 527 H 49.1523 -0.183906 3.91368 0
M  V30 528 H 50.8493 0.196588 4.00518 0
M  V30 529 H 47.4393 1.62966 3.96409 0
M  V30 530 H 51.6233 2.56885 4.24645 0
M  V30 531 H 46.8793 3.90612 4.70353 0
M  V30 532 H 51.0533 4.84811 4.99932 0
M  V30 533 H 48.6803 5.52196 5.22478 0
M  V30 534 N 50.2554 -1.46986 0.568584 0
M  V30 535 C 51.6664 -1.86188 0.138219 0
M  V30 536 C 52.0174 -1.47388 -1.29504 0
M  V30 537 O 51.1424 -0.88219 -1.97602 0
M  V30 538 C 51.7374 -3.3792 0.244065 0
M  V30 539 C 50.2964 -3.76171 -0.131335 0
M  V30 540 C 49.4434 -2.71027 0.586465 0
M  V30 541 H 52.3944 -1.38342 0.777645 0
M  V30 542 H 52.4154 -3.76729 -0.534351 0
M  V30 543 H 51.9274 -3.66128 1.28731 0
M  V30 544 H 50.0284 -3.5358 -1.17526 0
M  V30 545 H 50.1414 -4.78523 0.235146 0
M  V30 546 H 48.5054 -2.54684 0.0282722 0
M  V30 547 H 49.2884 -3.02077 1.63109 0
M  V30 548 N 51.7335 -0.305618 -1.54608 0
M  V30 549 C 52.9795 0.302746 -2.00528 0
M  V30 550 C 53.3125 1.53184 -1.19367 0
M  V30 551 O 52.5875 1.92598 -0.271321 0
M  V30 552 C 52.8705 0.654756 -3.54097 0
M  V30 553 C 52.7235 -0.583793 -4.45995 0
M  V30 554 C 54.0425 1.47947 -4.14487 0
M  V30 555 H 51.1615 0.108564 -0.72896 0
M  V30 556 H 53.8035 -0.418634 -1.85331 0
M  V30 557 H 51.9535 1.26935 -3.67178 0
M  V30 558 H 53.6255 -1.22224 -4.44814 0
M  V30 559 H 51.8685 -1.21615 -4.16404 0
M  V30 560 H 52.5395 -0.293287 -5.5122 0
M  V30 561 H 55.0155 0.96013 -4.04871 0
M  V30 562 H 53.8915 1.69454 -5.22088 0
M  V30 563 H 54.1525 2.47011 -3.66658 0
M  V30 564 N 53.2116 1.57565 -0.0334293 0
M  V30 565 C 54.4366 1.96689 0.657895 0
M  V30 566 C 54.8616 0.910057 1.64619 0
M  V30 567 O 54.2196 -0.128598 1.80843 0
M  V30 568 C 54.2676 3.34905 1.33683 0
M  V30 569 O 53.3716 3.31574 2.45219 0
M  V30 570 H 52.7126 0.641205 0.172489 0
M  V30 571 H 55.2426 2.04372 -0.0965621 0
M  V30 572 H 55.2526 3.71234 1.69262 0
M  V30 573 H 53.9276 4.11366 0.612411 0
M  V30 574 H 52.5046 3.06968 2.11719 0
M  V30 575 N 54.6897 -0.239769 1.55765 0
M  V30 576 C 56.1057 -0.588624 1.48349 0
M  V30 577 C 56.3057 -1.88005 0.72502 0
M  V30 578 O 55.3617 -2.51186 0.257269 0
M  V30 579 C 56.6747 -0.68474 2.928 0
M  V30 580 C 58.2227 -0.77659 3.03213 0
M  V30 581 C 58.6977 -0.904207 4.48986 0
M  V30 582 N 60.1887 -0.968896 4.52953 0
M  V30 583 C 60.9237 -1.08703 5.63002 0
M  V30 584 N 60.4197 -1.17026 6.82845 0
M  V30 585 N 62.2127 -1.12074 5.50814 0
M  V30 586 H 54.3637 0.607911 2.03515 0
M  V30 587 H 56.6267 0.21083 0.924259 0
M  V30 588 H 56.3327 0.194284 3.51163 0
M  V30 589 H 56.2067 -1.55435 3.43686 0
M  V30 590 H 58.5937 -1.64606 2.44926 0
M  V30 591 H 58.6747 0.118315 2.55526 0
M  V30 592 H 58.3187 -0.0392633 5.07885 0
M  V30 593 H 58.2487 -1.81426 4.9436 0
M  V30 594 H 60.7397 -0.915633 3.6664 0
M  V30 595 H 61.0527 -1.25966 7.62465 0
M  V30 596 H 59.3977 -1.13971 6.85591 0
M  V30 597 H 62.5887 -1.05226 4.5612 0
M  V30 598 H 62.7617 -1.20936 6.36615 0
M  V30 599 N 56.1678 -1.49265 -0.50573 0
M  V30 600 C 57.1158 -1.66065 -1.62866 0
M  V30 601 C 58.1098 -0.526636 -1.61006 0
M  V30 602 O 59.3158 -0.706126 -1.65571 0
M  V30 603 H 55.6908 -0.52356 -0.539805 0
M  V30 604 H 57.6618 -2.60329 -1.45848 0
M  V30 605 C 56.4108 -1.74008 -3.01026 0
M  V30 606 H 55.7338 -2.6064 -3.03161 0
M  V30 607 H 57.1738 -1.89798 -3.79147 0
M  V30 608 C 55.6328 -0.483868 -3.33407 0
M  V30 609 O 56.1628 0.392548 -3.99777 0
M  V30 610 N 54.3688 -0.348236 -2.88506 0
M  V30 611 H 53.9158 -1.06242 -2.34671 0
M  V30 612 H 53.8738 0.491204 -3.10539 0
M  V30 613 N 57.6459 0.756429 -1.3826 0
M  V30 614 C 58.6089 1.85176 -1.35065 0
M  V30 615 C 59.6089 1.58818 -0.251703 0
M  V30 616 O 60.7989 1.66615 -0.508433 0
M  V30 617 C 57.9309 3.22596 -1.10201 0
M  V30 618 H 59.1239 1.89417 -2.3251 0
M  V30 619 H 56.6769 0.95783 -1.23512 0
M  V30 620 H 57.4119 3.24025 -0.133504 0
M  V30 621 H 57.1969 3.43122 -1.89762 0
M  V30 622 H 58.6869 4.02673 -1.10654 0
M  V30 623 N 59.124 1.23083 0.984299 0
M  V30 624 C 60.072 1.00593 2.09723 0
M  V30 625 C 61.066 -0.0538014 1.69315 0
M  V30 626 O 62.272 0.0993719 1.79725 0
M  V30 627 H 58.647 0.30817 0.685956 0
M  V30 628 H 60.618 1.95012 2.2586 0
M  V30 629 C 59.367 0.609601 3.42314 0
M  V30 630 H 58.69 1.41675 3.73856 0
M  V30 631 H 60.13 0.491726 4.21139 0
M  V30 632 C 58.589 -0.681745 3.2993 0
M  V30 633 O 59.119 -1.73192 3.62446 0
M  V30 634 N 57.325 -0.656178 2.83095 0
M  V30 635 H 56.872 0.198759 2.56832 0
M  V30 636 H 56.83 -1.52044 2.75191 0
M  V30 637 N 60.6021 -1.18246 1.0419 0
M  V30 638 C 61.5321 -2.24127 0.654914 0
M  V30 639 C 62.5131 -1.66617 -0.342451 0
M  V30 640 O 63.6981 -1.92924 -0.222277 0
M  V30 641 C 60.8281 -3.47295 0.0183757 0
M  V30 642 C 59.7821 -4.17563 0.939414 0
M  V30 643 C 59.1081 -5.34438 0.167286 0
M  V30 644 C 60.4081 -4.70917 2.25908 0
M  V30 645 H 62.1021 -2.56753 1.54007 0
M  V30 646 H 59.6481 -1.23414 0.74195 0
M  V30 647 H 61.6011 -4.20572 -0.264082 0
M  V30 648 H 60.3251 -3.13907 -0.901664 0
M  V30 649 H 58.9841 -3.46186 1.20628 0
M  V30 650 H 58.6321 -4.97298 -0.7552 0
M  V30 651 H 58.3321 -5.82388 0.780901 0
M  V30 652 H 59.8561 -6.10504 -0.108125 0
M  V30 653 H 61.2701 -5.35882 2.03724 0
M  V30 654 H 59.6671 -5.29406 2.82577 0
M  V30 655 H 60.7371 -3.88272 2.9047 0
M  V30 656 N 62.0802 -0.821533 -1.34494 0
M  V30 657 C 63.3052 -0.420873 -2.03085 0
M  V30 658 C 63.7302 0.964915 -1.61465 0
M  V30 659 O 63.0882 1.62763 -0.798607 0
M  V30 660 C 63.1362 -0.529414 -3.56693 0
M  V30 661 O 62.2402 0.451302 -4.09923 0
M  V30 662 H 61.5812 -0.173489 -0.640935 0
M  V30 663 H 64.1112 -1.11157 -1.71771 0
M  V30 664 H 64.1212 -0.404671 -4.05988 0
M  V30 665 H 62.7962 -1.54014 -3.86332 0
M  V30 666 H 61.3732 0.285558 -3.71805 0
M  V30 667 N 63.5583 1.46682 -0.576371 0
M  V30 668 C 64.7863 2.06798 -0.0649635 0
M  V30 669 C 65.2013 1.42612 1.23723 0
M  V30 670 O 64.5583 0.529203 1.74659 0
M  V30 671 C 64.6093 3.6132 0.114202 0
M  V30 672 O 64.3303 4.23104 -1.13644 0
M  V30 673 C 65.8313 4.38349 0.66069 0
M  V30 674 H 63.0513 0.668778 -0.0545616 0
M  V30 675 H 65.5953 1.88404 -0.795237 0
M  V30 676 H 63.7503 3.79162 0.794673 0
M  V30 677 H 64.1643 5.15894 -0.946253 0
M  V30 678 H 65.6383 5.47081 0.73526 0
M  V30 679 H 66.1153 4.05953 1.67627 0
M  V30 680 H 66.7213 4.25297 0.0152951 0
M  V30 681 N 65.0364 0.313813 1.54444 0
M  V30 682 C 66.2854 -0.292519 1.99568 0
M  V30 683 C 66.5984 -1.54011 1.20582 0
M  V30 684 O 67.8044 -2.22183 1.56035 0
M  V30 685 C 66.2604 -0.571752 3.55329 0
M  V30 686 C 65.8684 0.658229 4.43138 0
M  V30 687 C 67.6124 -1.13857 4.08946 0
M  V30 688 C 65.5194 0.351439 5.90355 0
M  V30 689 H 64.4494 -0.113079 0.745472 0
M  V30 690 H 67.1004 0.424518 1.78522 0
M  V30 691 H 65.4824 -1.34872 3.72325 0
M  V30 692 H 66.6564 1.43403 4.37918 0
M  V30 693 H 64.9714 1.14458 4.0036 0
M  V30 694 H 67.5684 -1.38257 5.16516 0
M  V30 695 H 67.9114 -2.08489 3.6033 0
M  V30 696 H 68.4444 -0.423015 3.95544 0
M  V30 697 H 65.1834 1.26667 6.43145 0
M  V30 698 H 64.7034 -0.386842 5.98551 0
M  V30 699 H 66.3824 -0.0423134 6.46986 0
M  V30 700 N 66.5145 -1.57545 0.0417849 0
M  V30 701 C 67.4615 -2.10977 -0.935805 0
M  V30 702 C 68.4315 -1.01486 -1.31491 0
M  V30 703 O 69.6165 -1.2898 -1.40602 0
M  V30 704 C 66.7565 -2.65169 -2.2086 0
M  V30 705 C 65.8695 -3.88714 -1.88482 0
M  V30 706 C 65.0045 -4.31254 -3.1015 0
M  V30 707 C 64.0435 -5.47524 -2.7365 0
M  V30 708 N 63.1805 -5.85162 -3.87982 0
M  V30 709 H 68.0205 -2.94218 -0.473249 0
M  V30 710 H 65.5575 -1.45415 -0.221981 0
M  V30 711 H 67.5155 -2.94685 -2.95325 0
M  V30 712 H 66.1455 -1.8474 -2.64709 0
M  V30 713 H 65.1975 -3.65849 -1.04205 0
M  V30 714 H 66.5095 -4.73245 -1.57608 0
M  V30 715 H 65.6635 -4.62273 -3.92923 0
M  V30 716 H 64.4025 -3.45516 -3.44195 0
M  V30 717 H 63.4075 -5.16187 -1.89291 0
M  V30 718 H 64.6325 -6.34971 -2.40807 0
M  V30 719 H 62.5785 -5.02377 -4.21846 0
M  V30 720 H 62.4955 -6.64362 -3.60775 0
M  V30 721 H 63.7635 -6.20791 -4.71422 0
M  V30 722 N 67.9926 0.231505 -1.5589 0
M  V30 723 C 68.9246 1.31006 -1.8807 0
M  V30 724 C 69.9376 1.43539 -0.768145 0
M  V30 725 O 71.1266 1.44614 -1.04638 0
M  V30 726 C 68.2266 2.68688 -2.06543 0
M  V30 727 C 67.3996 2.78228 -3.37502 0
M  V30 728 C 66.4586 3.96857 -3.4553 0
M  V30 729 O 65.4846 3.85662 -4.18633 0
M  V30 730 N 66.6866 5.1072 -2.75944 0
M  V30 731 H 69.4516 1.03731 -2.81176 0
M  V30 732 H 67.0126 0.421573 -1.56315 0
M  V30 733 H 69.0046 3.46412 -2.09239 0
M  V30 734 H 67.5746 2.88605 -1.20109 0
M  V30 735 H 66.7946 1.87059 -3.46991 0
M  V30 736 H 68.0826 2.81564 -4.23791 0
M  V30 737 H 67.4806 5.2271 -2.16311 0
M  V30 738 H 66.0376 5.86523 -2.84314 0
M  V30 739 N 69.4707 1.49531 0.497807 0
M  V30 740 C 70.4007 1.6935 1.60757 0
M  V30 741 C 71.3817 0.542218 1.61227 0
M  V30 742 O 72.5667 0.778417 1.77917 0
M  V30 743 C 69.6967 1.76298 2.99226 0
M  V30 744 C 68.6507 2.91248 3.13622 0
M  V30 745 C 67.9767 2.83312 4.53474 0
M  V30 746 C 69.2767 4.3214 2.93346 0
M  V30 747 H 70.9707 2.62263 1.44425 0
M  V30 748 H 68.5167 1.26208 0.693367 0
M  V30 749 H 70.4697 1.88749 3.76765 0
M  V30 750 H 69.1937 0.799871 3.16654 0
M  V30 751 H 67.8527 2.78404 2.38509 0
M  V30 752 H 67.5007 1.84902 4.67782 0
M  V30 753 H 67.2007 3.60465 4.64046 0
M  V30 754 H 68.7247 2.97775 5.33069 0
M  V30 755 H 70.1387 4.45649 3.60652 0
M  V30 756 H 68.5357 5.1054 3.15387 0
M  V30 757 H 69.6057 4.46363 1.89441 0
M  V30 758 N 70.9488 -0.749086 1.3866 0
M  V30 759 C 71.8788 -1.8764 1.38973 0
M  V30 760 C 72.8598 -1.68178 0.255004 0
M  V30 761 O 74.0448 -1.88704 0.458754 0
M  V30 762 C 71.1748 -3.25222 1.21851 0
M  V30 763 C 70.1288 -3.59295 2.32575 0
M  V30 764 C 69.4548 -4.95663 2.00555 0
M  V30 765 C 70.7548 -3.63709 3.7485 0
M  V30 766 H 72.4488 -1.87635 2.3331 0
M  V30 767 H 69.9948 -0.901329 1.12303 0
M  V30 768 H 71.9478 -4.03746 1.20695 0
M  V30 769 H 70.6718 -3.25719 0.239775 0
M  V30 770 H 69.3308 -2.83093 2.32925 0
M  V30 771 H 68.9788 -4.92724 1.01154 0
M  V30 772 H 68.6788 -5.19429 2.74714 0
M  V30 773 H 70.2028 -5.7656 2.01024 0
M  V30 774 H 71.6168 -4.32338 3.76506 0
M  V30 775 H 70.0138 -3.98986 4.48252 0
M  V30 776 H 71.0838 -2.63834 4.06841 0
M  V30 777 N 72.4269 -1.23603 -0.977757 0
M  V30 778 C 73.6729 -1.08136 -1.72274 0
M  V30 779 C 74.0279 0.377453 -1.88661 0
M  V30 780 O 73.3209 1.27552 -1.42972 0
M  V30 781 C 73.5149 -1.7433 -3.11999 0
M  V30 782 C 73.3439 -3.26498 -3.0924 0
M  V30 783 C 72.1139 -3.9567 -3.14282 0
M  V30 784 C 74.3119 -4.2323 -2.92201 0
M  V30 785 N 72.2939 -5.34799 -3.01436 0
M  V30 786 C 73.6649 -5.49289 -2.87544 0
M  V30 787 C 75.7199 -4.13931 -2.76705 0
M  V30 788 C 74.4229 -6.67116 -2.68978 0
M  V30 789 C 76.4489 -5.31424 -2.59504 0
M  V30 790 C 75.8109 -6.5641 -2.55548 0
M  V30 791 H 71.9099 -0.450247 -0.639376 0
M  V30 792 H 74.4939 -1.5637 -1.16002 0
M  V30 793 H 72.6649 -1.28624 -3.66484 0
M  V30 794 H 74.3969 -1.51815 -3.75146 0
M  V30 795 H 71.1519 -3.46767 -3.22567 0
M  V30 796 H 71.5759 -6.07748 -2.98281 0
M  V30 797 H 76.2179 -3.1807 -2.78552 0
M  V30 798 H 73.9359 -7.63109 -2.65876 0
M  V30 799 H 77.5219 -5.26072 -2.48474 0
M  V30 800 H 76.4019 -7.45795 -2.42405 0
M  V30 801 N 73.905 1.17692 -1.04816 0
M  V30 802 C 74.855 2.1952 -0.616042 0
M  V30 803 C 75.839 1.57147 0.345485 0
M  V30 804 O 77.031 1.76245 0.163325 0
M  V30 805 C 74.16 3.43298 0.0116917 0
M  V30 806 C 73.246 4.12777 -0.973435 0
M  V30 807 N 73.637 4.5814 -2.14339 0
M  V30 808 C 71.935 4.38747 -0.80108 0
M  V30 809 C 72.636 5.11713 -2.7663 0
M  V30 810 N 71.612 5.03686 -2.04453 0
M  V30 811 H 75.414 2.52293 -1.5075 0
M  V30 812 H 72.928 1.3398 -0.917776 0
M  V30 813 H 74.925 4.15519 0.339006 0
M  V30 814 H 73.585 3.12018 0.898593 0
M  V30 815 H 74.596 4.52349 -2.52191 0
M  V30 816 H 71.273 4.17485 0.0350934 0
M  V30 817 H 72.663 5.56962 -3.75823 0
M  V30 818 N 75.3831 0.828654 1.34056 0
M  V30 819 C 76.7991 0.515135 1.51058 0
M  V30 820 C 76.9991 -0.959581 1.77184 0
M  V30 821 O 76.0551 -1.74382 1.82612 0
M  V30 822 C 77.3681 1.37963 2.67183 0
M  V30 823 C 78.9161 1.37735 2.81066 0
M  V30 824 C 79.3911 2.22645 4.00241 0
M  V30 825 N 80.8821 2.203 4.07458 0
M  V30 826 C 81.6171 2.82744 4.98842 0
M  V30 827 N 81.1131 3.54201 5.9541 0
M  V30 828 N 82.9061 2.72268 4.91759 0
M  V30 829 H 75.0571 1.78343 1.15358 0
M  V30 830 H 77.3201 0.760304 0.566252 0
M  V30 831 H 77.0261 2.42714 2.54525 0
M  V30 832 H 76.9001 1.0484 3.62338 0
M  V30 833 H 79.2871 0.337593 2.93163 0
M  V30 834 H 79.3681 1.74859 1.86703 0
M  V30 835 H 79.0121 3.26674 3.88905 0
M  V30 836 H 78.9421 1.82869 4.93829 0
M  V30 837 H 81.4331 1.68327 3.38341 0
M  V30 838 H 81.7461 3.9908 6.61782 0
M  V30 839 H 80.0911 3.58308 5.95517 0
M  V30 840 H 83.2821 2.16014 4.15278 0
M  V30 841 H 83.4551 3.21219 5.62781 0
M  V30 842 N 76.8612 -1.46375 0.584142 0
M  V30 843 C 77.8242 -2.28784 -0.138108 0
M  V30 844 C 78.8242 -1.38471 -0.817462 0
M  V30 845 O 80.0142 -1.60833 -0.669199 0
M  V30 846 C 77.1462 -3.18892 -1.20503 0
M  V30 847 H 78.3392 -2.94117 0.586127 0
M  V30 848 H 75.8922 -1.52509 0.342171 0
M  V30 849 H 76.6272 -2.58309 -1.96079 0
M  V30 850 H 76.4122 -3.85388 -0.722384 0
M  V30 851 H 77.9022 -3.80914 -1.71155 0
M  V30 852 N 78.3393 -0.321999 -1.54275 0
M  V30 853 C 79.2713 0.578671 -2.21775 0
M  V30 854 C 80.2843 1.08109 -1.21722 0
M  V30 855 O 81.4733 0.994938 -1.482 0
M  V30 856 C 78.5733 1.80661 -2.86731 0
M  V30 857 C 77.7463 1.44314 -4.12907 0
M  V30 858 C 76.8053 2.52845 -4.61472 0
M  V30 859 O 75.8313 2.17054 -5.2619 0
M  V30 860 N 77.0333 3.83748 -4.35566 0
M  V30 861 H 79.7983 0.000709447 -2.997 0
M  V30 862 H 77.3593 -0.145132 -1.61248 0
M  V30 863 H 79.3513 2.52655 -3.16145 0
M  V30 864 H 77.9213 2.29245 -2.12521 0
M  V30 865 H 77.1413 0.554906 -3.90275 0
M  V30 866 H 78.4293 1.17598 -4.95023 0
M  V30 867 H 77.8273 4.15625 -3.83761 0
M  V30 868 H 76.3843 4.51977 -4.69638 0
M  V30 869 N 79.8174 1.5752 -0.0501392 0
M  V30 870 C 81.0474 1.96678 0.632573 0
M  V30 871 C 81.4554 0.926298 1.64974 0
M  V30 872 O 80.7984 -0.09802 1.83438 0
M  V30 873 C 80.8604 3.32068 1.37735 0
M  V30 874 C 80.5244 4.54076 0.516131 0
M  V30 875 C 81.5214 5.19445 -0.217357 0
M  V30 876 C 79.2064 5.00304 0.44736 0
M  V30 877 C 81.2004 6.29378 -1.00807 0
M  V30 878 C 78.8874 6.10114 -0.347038 0
M  V30 879 C 79.8854 6.74512 -1.07344 0
M  V30 880 O 79.5734 7.82211 -1.85477 0
M  V30 881 H 79.3054 0.652193 0.177821 0
M  V30 882 H 81.8594 2.05091 -0.112543 0
M  V30 883 H 80.0894 3.20206 2.16807 0
M  V30 884 H 81.7784 3.55981 1.95019 0
M  V30 885 H 82.5444 4.84689 -0.173688 0
M  V30 886 H 78.4234 4.49971 1.00235 0
M  V30 887 H 81.9674 6.79575 -1.57556 0
M  V30 888 H 77.8644 6.44307 -0.392349 0
M  V30 889 H 78.6324 7.98982 -1.77678 0
M  V30 890 N 81.2955 -0.223234 1.56011 0
M  V30 891 C 82.2055 -1.29766 1.95443 0
M  V30 892 C 83.2215 -1.51373 0.858028 0
M  V30 893 O 84.3975 -1.64536 1.16146 0
M  V30 894 C 81.4625 -2.62772 2.26167 0
M  V30 895 C 80.5235 -2.49482 3.49367 0
M  V30 896 C 79.7565 -3.76145 3.78616 0
M  V30 897 O 79.9795 -4.79087 3.09568 0
M  V30 898 O 78.9135 -3.73358 4.72109 0
M  V30 899 H 82.7395 -0.99309 2.87004 0
M  V30 900 H 80.3245 -0.425958 1.43199 0
M  V30 901 H 82.2065 -3.41327 2.47131 0
M  V30 902 H 80.8815 -2.92913 1.37781 0
M  V30 903 H 79.7885 -1.69133 3.33684 0
M  V30 904 H 81.1215 -2.2428 4.38131 0
M  V30 905 N 82.7736 -1.49793 -0.48987 0
M  V30 906 C 84.1846 -1.52914 -1.07118 0
M  V30 907 C 84.5356 -0.321738 -1.93544 0
M  V30 908 O 83.6606 0.567338 -2.08831 0
M  V30 909 C 84.2556 -2.771 -1.94938 0
M  V30 910 C 82.8146 -2.82963 -2.48212 0
M  V30 911 C 81.9616 -2.46972 -1.26096 0
M  V30 912 H 84.9126 -1.56329 -0.273289 0
M  V30 913 H 84.9336 -2.57892 -2.79771 0
M  V30 914 H 84.4456 -3.64959 -1.32009 0
M  V30 915 H 82.5466 -1.99411 -3.14748 0
M  V30 916 H 82.6596 -3.85406 -2.84603 0
M  V30 917 H 81.0236 -1.98994 -1.58976 0
M  V30 918 H 81.8066 -3.37118 -0.648581 0
M  V30 919 N 84.2517 0.741722 -1.39055 0
M  V30 920 C 85.1817 1.869 -1.39966 0
M  V30 921 C 86.1627 1.6804 -0.26392 0
M  V30 922 O 87.3477 1.88458 -0.468755 0
M  V30 923 C 84.4777 3.24572 -1.23574 0
M  V30 924 C 83.4317 3.58056 -2.34477 0
M  V30 925 C 82.7577 4.94593 -2.0318 0
M  V30 926 C 84.0577 3.61716 -3.76774 0
M  V30 927 H 85.7517 1.86395 -2.34302 0
M  V30 928 H 83.2977 0.895361 -1.1278 0
M  V30 929 H 85.2507 4.031 -1.22834 0
M  V30 930 H 83.9747 3.25587 -0.257045 0
M  V30 931 H 82.6337 2.81854 -2.34423 0
M  V30 932 H 82.2817 4.92181 -1.03765 0
M  V30 933 H 81.9817 5.17964 -2.77465 0
M  V30 934 H 83.5057 5.75486 -2.04079 0
M  V30 935 H 84.9197 4.30335 -3.78794 0
M  V30 936 H 83.3167 3.96603 -4.50362 0
M  V30 937 H 84.3867 2.61672 -4.08235 0
M  V30 938 N 85.7298 1.2412 0.971189 0
M  V30 939 C 86.9768 1.07881 1.71371 0
M  V30 940 C 87.3048 -0.382901 1.90694 0
M  V30 941 O 86.5598 -1.29945 1.46331 0
M  V30 942 C 86.8588 1.75983 3.11071 0
M  V30 943 C 86.5248 3.25909 3.11599 0
M  V30 944 C 85.1868 3.66813 3.11451 0
M  V30 945 C 87.5388 4.21771 3.062 0
M  V30 946 C 84.8668 5.02021 3.03631 0
M  V30 947 C 87.2188 5.56982 2.99923 0
M  V30 948 C 85.8828 5.97237 2.98102 0
M  V30 949 H 85.1528 0.394764 0.62709 0
M  V30 950 H 87.7998 1.54176 1.13587 0
M  V30 951 H 86.1048 1.22072 3.72298 0
M  V30 952 H 87.8018 1.60887 3.6731 0
M  V30 953 H 84.3918 2.93353 3.12477 0
M  V30 954 H 88.5758 3.91172 3.05447 0
M  V30 955 H 83.8318 5.32411 3.0058 0
M  V30 956 H 88.0058 6.30969 2.94704 0
M  V30 957 H 85.6328 7.01967 2.91798 0
M  V30 958 N 87.2079 -1.17134 1.05439 0
M  V30 959 C 88.1579 -2.1919 0.627675 0
M  V30 960 C 89.1419 -1.57328 -0.337147 0
M  V30 961 O 90.3339 -1.76329 -0.153976 0
M  V30 962 C 87.4629 -3.43299 0.00651435 0
M  V30 963 C 86.5489 -4.12255 0.995312 0
M  V30 964 N 86.9399 -4.56997 2.16765 0
M  V30 965 C 85.2379 -4.38316 0.824336 0
M  V30 966 C 85.9389 -5.10239 2.7934 0
M  V30 967 N 84.9149 -5.02595 2.07122 0
M  V30 968 H 88.7169 -2.5149 1.52086 0
M  V30 969 H 86.2309 -1.33491 0.924868 0
M  V30 970 H 88.2279 -4.15693 -0.316965 0
M  V30 971 H 86.8879 -3.1249 -0.882033 0
M  V30 972 H 87.8989 -4.51006 2.54587 0
M  V30 973 H 84.5759 -4.17498 -0.0129526 0
M  V30 974 H 85.9659 -5.54961 3.78772 0
M  V30 975 N 88.686 -0.835752 -1.33615 0
M  V30 976 C 89.619 -0.211815 -2.27215 0
M  V30 977 C 90.597 0.639249 -1.49507 0
M  V30 978 O 91.781 0.600193 -1.78689 0
M  V30 979 C 88.908 0.702893 -3.31326 0
M  V30 980 C 87.954 -0.0723049 -4.26439 0
M  V30 981 S 88.787 -1.42811 -5.16106 0
M  V30 982 C 89.943 -0.518613 -6.23748 0
M  V30 983 H 90.176 -1.00533 -2.79786 0
M  V30 984 H 87.709 -0.632336 -1.40858 0
M  V30 985 H 89.667 1.22505 -3.91794 0
M  V30 986 H 88.328 1.47004 -2.77576 0
M  V30 987 H 87.521 0.62359 -5.00127 0
M  V30 988 H 87.123 -0.525424 -3.70291 0
M  V30 989 H 89.415 0.284778 -6.76901 0
M  V30 990 H 90.358 -1.22556 -6.97413 0
M  V30 991 H 90.766 -0.101344 -5.64409 0
M  V30 992 N 90.1641 1.46063 -0.591896 0
M  V30 993 C 91.0941 2.33172 0.123673 0
M  V30 994 C 92.0751 1.45897 0.87453 0
M  V30 995 O 93.2601 1.74698 0.848181 0
M  V30 996 C 90.3901 3.28336 1.13194 0
M  V30 997 C 89.3441 4.25124 0.495324 0
M  V30 998 C 88.6701 5.09863 1.61071 0
M  V30 999 C 89.9701 5.19143 -0.573425 0
M  V30 1000 H 91.6641 2.93252 -0.603646 0
M  V30 1001 H 89.2101 1.41014 -0.291741 0
M  V30 1002 H 91.1631 3.88137 1.64097 0
M  V30 1003 H 89.8871 2.66383 1.88965 0
M  V30 1004 H 88.5461 3.66599 0.00729452 0
M  V30 1005 H 88.1941 4.44288 2.35832 0
M  V30 1006 H 87.8941 5.75417 1.19035 0
M  V30 1007 H 89.4181 5.72529 2.12233 0
M  V30 1008 H 90.8321 5.73106 -0.1491 0
M  V30 1009 H 89.2291 5.93089 -0.914636 0
M  V30 1010 H 90.2991 4.62519 -1.45617 0
M  V30 1011 N 91.6422 0.330177 1.54103 0
M  V30 1012 C 92.8672 -0.274893 2.0557 0
M  V30 1013 C 93.2922 -1.44487 1.20437 0
M  V30 1014 O 92.6502 -1.80021 0.214991 0
M  V30 1015 C 92.6982 -0.68079 3.54115 0
M  V30 1016 O 91.8022 -1.7824 3.71893 0
M  V30 1017 H 91.1432 -0.0483849 0.662235 0
M  V30 1018 H 93.6732 0.480508 1.98878 0
M  V30 1019 H 93.6832 -0.961635 3.96505 0
M  V30 1020 H 92.3582 0.174903 4.15532 0
M  V30 1021 H 90.9352 -1.49985 3.41407 0
M  V30 1022 N 93.1203 -1.57491 0.0584922 0
M  V30 1023 C 94.3683 -1.92597 -0.612436 0
M  V30 1024 C 94.6893 -0.938162 -1.70949 0
M  V30 1025 O 93.9593 0.0158301 -1.95894 0
M  V30 1026 H 92.5393 -0.710964 -0.229214 0
M  V30 1027 H 95.2013 -1.94571 0.113218 0
M  V30 1028 H 94.2973 -2.94038 -1.04633 0
M  V30 1029 N 94.5984 0.214957 -1.56127 0
M  V30 1030 C 96.0094 0.781386 -1.69562 0
M  V30 1031 C 96.3604 1.84707 -0.66165 0
M  V30 1032 O 95.4854 2.156 0.185927 0
M  V30 1033 C 96.0804 1.42411 -3.07416 0
M  V30 1034 C 94.6394 1.93786 -3.22683 0
M  V30 1035 C 93.7864 0.800438 -2.65496 0
M  V30 1036 H 96.7374 -0.00980633 -1.58697 0
M  V30 1037 H 96.7584 2.29309 -3.0364 0
M  V30 1038 H 96.2704 0.64826 -3.82648 0
M  V30 1039 H 94.3714 2.74152 -2.52332 0
M  V30 1040 H 94.4844 2.1133 -4.29973 0
M  V30 1041 H 92.8484 1.2095 -2.2415 0
M  V30 1042 H 93.6314 0.0371471 -3.4328 0
M  V30 1043 N 96.0765 1.50051 0.48192 0
M  V30 1044 C 96.9865 1.7089 1.60728 0
M  V30 1045 C 98.0025 0.591788 1.63627 0
M  V30 1046 O 99.1785 0.868817 1.81696 0
M  V30 1047 C 96.2435 1.78855 2.97005 0
M  V30 1048 C 95.3045 3.02537 3.04581 0
M  V30 1049 C 94.5375 3.10112 4.34357 0
M  V30 1050 O 94.7605 2.24765 5.24249 0
M  V30 1051 O 93.6945 4.02747 4.47301 0
M  V30 1052 H 97.5205 2.66264 1.46072 0
M  V30 1053 H 95.1055 1.34018 0.660264 0
M  V30 1054 H 96.9875 1.86336 3.77964 0
M  V30 1055 H 95.6625 0.866628 3.11883 0
M  V30 1056 H 94.5695 3.00563 2.22739 0
M  V30 1057 H 95.9025 3.94272 2.94636 0
M  V30 1058 N 97.5546 -0.734337 1.39446 0
M  V30 1059 C 98.5176 -1.83004 1.37994 0
M  V30 1060 C 99.5176 -1.58397 0.276938 0
M  V30 1061 O 100.708 -1.65785 0.534875 0
M  V30 1062 C 97.8396 -3.20802 1.1532 0
M  V30 1063 H 99.0326 -1.85694 2.35494 0
M  V30 1064 H 96.5856 -0.938059 1.25021 0
M  V30 1065 H 97.3206 -3.23772 0.185036 0
M  V30 1066 H 97.1056 -3.4006 1.95197 0
M  V30 1067 H 98.5956 -4.00862 1.17046 0
M  V30 1068 N 99.0327 -1.24633 -0.964593 0
M  V30 1069 C 100.263 -1.11339 -1.74032 0
M  V30 1070 C 100.671 0.336593 -1.86182 0
M  V30 1071 O 100.014 1.24389 -1.35178 0
M  V30 1072 C 100.076 -1.68284 -3.1768 0
M  V30 1073 C 99.7397 -3.17196 -3.28992 0
M  V30 1074 C 100.737 -4.14308 -3.14078 0
M  V30 1075 C 98.4217 -3.57215 -3.53133 0
M  V30 1076 C 100.416 -5.4942 -3.23135 0
M  V30 1077 C 98.1027 -4.92468 -3.61827 0
M  V30 1078 C 99.1007 -5.8838 -3.46841 0
M  V30 1079 O 98.7887 -7.21173 -3.55197 0
M  V30 1080 H 98.5207 -0.389551 -0.552472 0
M  V30 1081 H 101.075 -1.65282 -1.21946 0
M  V30 1082 H 99.3047 -1.08777 -3.71085 0
M  V30 1083 H 100.994 -1.50234 -3.77074 0
M  V30 1084 H 101.76 -3.84731 -2.95308 0
M  V30 1085 H 97.6387 -2.83063 -3.63863 0
M  V30 1086 H 101.183 -6.24263 -3.11355 0
M  V30 1087 H 97.0797 -5.21714 -3.80111 0
M  V30 1088 H 97.8477 -7.29135 -3.71892 0
M  V30 1089 N 100.511 1.16574 -1.06058 0
M  V30 1090 C 101.757 1.87324 -0.777022 0
M  V30 1091 C 102.09 1.81351 0.694645 0
M  V30 1092 O 101.365 1.22753 1.50871 0
M  V30 1093 C 101.648 3.36991 -1.26922 0
M  V30 1094 C 101.501 3.51667 -2.80447 0
M  V30 1095 C 102.82 4.3131 -0.87521 0
M  V30 1096 H 99.9388 0.680191 -0.28374 0
M  V30 1097 H 102.581 1.37036 -1.3161 0
M  V30 1098 H 100.731 3.79949 -0.81063 0
M  V30 1099 H 102.403 3.17664 -3.34495 0
M  V30 1100 H 100.646 2.93656 -3.19294 0
M  V30 1101 H 101.317 4.56766 -3.0995 0
M  V30 1102 H 103.793 3.9624 -1.27014 0
M  V30 1103 H 102.669 5.34545 -1.2471 0
M  V30 1104 H 102.93 4.41552 0.220071 0
M  V30 1105 N 101.989 0.842826 1.3317 0
M  V30 1106 C 103.236 0.440447 1.97652 0
M  V30 1107 C 103.564 -1.00123 1.6675 0
M  V30 1108 O 102.819 -1.7155 0.941761 0
M  V30 1109 C 103.118 0.612607 3.52111 0
M  V30 1110 C 102.784 2.02297 4.02972 0
M  V30 1111 C 101.446 2.40874 4.16573 0
M  V30 1112 C 103.798 2.94402 4.30089 0
M  V30 1113 C 101.126 3.70852 4.54627 0
M  V30 1114 C 103.478 4.23865 4.69597 0
M  V30 1115 C 102.142 4.62392 4.81404 0
M  V30 1116 H 101.412 0.161171 0.72326 0
M  V30 1117 H 104.059 1.07061 1.58777 0
M  V30 1118 H 102.364 -0.100849 3.9167 0
M  V30 1119 H 104.061 0.2815 4.00011 0
M  V30 1120 H 100.651 1.71338 3.92863 0
M  V30 1121 H 104.835 2.65835 4.19101 0
M  V30 1122 H 100.091 4.00501 4.61962 0
M  V30 1123 H 104.265 4.95306 4.89536 0
M  V30 1124 H 101.892 5.63154 5.10648 0
M  V30 1125 N 103.467 -1.45747 0.599634 0
M  V30 1126 C 104.695 -2.06668 0.0978551 0
M  V30 1127 C 105.11 -1.44562 -1.21439 0
M  V30 1128 O 104.467 -0.556923 -1.73795 0
M  V30 1129 C 104.518 -3.61456 -0.0567044 0
M  V30 1130 O 104.239 -4.21242 1.20361 0
M  V30 1131 C 105.74 -4.39345 -0.590869 0
M  V30 1132 H 102.96 -0.667825 0.0651943 0
M  V30 1133 H 105.504 -1.87115 0.82511 0
M  V30 1134 H 103.659 -3.80378 -0.734251 0
M  V30 1135 H 104.073 -5.14323 1.02821 0
M  V30 1136 H 105.547 -5.48182 -0.648131 0
M  V30 1137 H 106.024 -4.08568 -1.61147 0
M  V30 1138 H 106.63 -4.25268 0.0523679 0
M  V30 1139 N 104.945 -0.338344 -1.53925 0
M  V30 1140 C 106.185 0.260168 -2.02737 0
M  V30 1141 C 106.549 1.48181 -1.22092 0
M  V30 1142 O 107.75 2.15416 -1.60777 0
M  V30 1143 C 106.021 0.571627 -3.52799 0
M  V30 1144 S 107.58 1.14769 -4.23525 0
M  V30 1145 H 104.398 0.077791 -0.706732 0
M  V30 1146 H 107 -0.474899 -1.89644 0
M  V30 1147 H 105.704 -0.325392 -4.09108 0
M  V30 1148 H 105.235 1.3365 -3.70002 0
M  V30 1149 H 107.25 2.43372 -4.32417 0
M  V30 1150 N 106.423 1.57458 -0.0668435 0
M  V30 1151 C 107.672 1.92477 0.602947 0
M  V30 1152 C 107.985 0.948419 1.71068 0
M  V30 1153 O 109.191 1.19124 2.43971 0
M  V30 1154 C 107.647 3.41903 1.12383 0
M  V30 1155 C 107.255 4.47975 0.04737 0
M  V30 1156 C 108.999 3.85931 1.76797 0
M  V30 1157 C 106.906 5.88529 0.582022 0
M  V30 1158 H 105.836 0.718387 0.22899 0
M  V30 1159 H 108.487 1.82978 -0.138276 0
M  V30 1160 H 106.869 3.46459 1.91787 0
M  V30 1161 H 108.043 4.55029 -0.726978 0
M  V30 1162 H 106.358 4.13384 -0.500243 0
M  V30 1163 H 108.955 4.88322 2.17821 0
M  V30 1164 H 109.298 3.23029 2.62599 0
M  V30 1165 H 109.831 3.83958 1.04024 0
M  V30 1166 H 106.57 6.55065 -0.238721 0
M  V30 1167 H 106.09 5.85004 1.324 0
M  V30 1168 H 107.769 6.38258 1.05999 0
M  V30 1169 N 107.901 -0.206675 1.56239 0
M  V30 1170 C 108.849 -1.27571 1.94495 0
M  V30 1171 C 109.843 -1.47737 0.828862 0
M  V30 1172 O 111.049 -1.48735 1.0138 0
M  V30 1173 H 107.424 -0.428029 0.6183 0
M  V30 1174 H 109.395 -0.925961 2.8367 0
M  V30 1175 C 108.144 -2.61568 2.29079 0
M  V30 1176 H 107.467 -2.46863 3.14482 0
M  V30 1177 H 108.907 -3.35144 2.5972 0
M  V30 1178 C 107.366 -3.17695 1.12123 0
M  V30 1179 O 107.896 -3.99801 0.390153 0
M  V30 1180 N 106.102 -2.76276 0.901097 0
M  V30 1181 H 105.649 -2.09613 1.49733 0
M  V30 1182 H 105.607 -3.1417 0.120319 0
M  V30 1183 N 109.379 -1.50304 -0.473955 0
M  V30 1184 C 110.311 -1.65109 -1.58971 0
M  V30 1185 C 111.324 -0.532676 -1.53839 0
M  V30 1186 O 112.513 -0.805751 -1.59279 0
M  V30 1187 C 109.613 -1.61684 -2.97845 0
M  V30 1188 C 108.786 -2.8951 -3.27876 0
M  V30 1189 C 107.845 -2.78768 -4.4629 0
M  V30 1190 O 106.871 -3.52722 -4.46739 0
M  V30 1191 N 108.073 -1.9213 -5.47783 0
M  V30 1192 H 110.838 -2.61347 -1.46689 0
M  V30 1193 H 108.399 -1.47732 -0.662324 0
M  V30 1194 H 110.391 -1.52114 -3.75024 0
M  V30 1195 H 108.961 -0.731925 -3.03911 0
M  V30 1196 H 108.181 -3.13228 -2.39336 0
M  V30 1197 H 109.469 -3.74199 -3.4475 0
M  V30 1198 H 108.867 -1.31353 -5.50239 0
M  V30 1199 H 107.424 -1.88466 -6.23958 0
M  V30 1200 N 110.857 0.726932 -1.39834 0
M  V30 1201 C 112.085 1.51613 -1.40787 0
M  V30 1202 C 112.5 1.88799 -0.00451505 0
M  V30 1203 O 111.857 1.54662 0.968809 0
M  V30 1204 C 111.908 2.79863 -2.28821 0
M  V30 1205 O 111.629 2.44253 -3.63692 0
M  V30 1206 C 113.13 3.73837 -2.38245 0
M  V30 1207 H 110.35 0.468264 -0.480593 0
M  V30 1208 H 112.894 0.897607 -1.83748 0
M  V30 1209 H 111.049 3.38027 -1.89252 0
M  V30 1210 H 111.463 3.26695 -4.1033 0
M  V30 1211 H 112.937 4.60699 -3.04073 0
M  V30 1212 H 113.414 4.16153 -1.40403 0
M  V30 1213 H 114.02 3.21589 -2.78317 0
M  V30 1214 N 112.336 1.25143 0.95797 0
M  V30 1215 C 113.299 1.05321 2.03569 0
M  V30 1216 C 114.299 0.007152 1.60798 0
M  V30 1217 O 115.489 0.24903 1.72411 0
M  V30 1218 C 112.621 0.598394 3.35607 0
M  V30 1219 H 113.814 2.00986 2.22586 0
M  V30 1220 H 111.367 1.07502 1.13459 0
M  V30 1221 H 112.102 -0.361014 3.22284 0
M  V30 1222 H 111.887 1.35351 3.67998 0
M  V30 1223 H 113.377 0.48104 4.1482 0
M  V30 1224 N 113.814 -1.1601 1.06675 0
M  V30 1225 C 114.724 -2.24156 0.692179 0
M  V30 1226 C 115.74 -1.71507 -0.293513 0
M  V30 1227 O 116.916 -2.009 -0.141861 0
M  V30 1228 C 113.981 -3.46587 0.0884131 0
M  V30 1229 C 113.042 -4.14257 1.12646 0
M  V30 1230 C 112.275 -5.30844 0.551416 0
M  V30 1231 O 112.498 -5.66858 -0.634656 0
M  V30 1232 O 111.432 -5.87848 1.29298 0
M  V30 1233 H 115.258 -2.58513 1.59388 0
M  V30 1234 H 112.843 -1.23599 0.83926 0
M  V30 1235 H 114.725 -4.20679 -0.246361 0
M  V30 1236 H 113.4 -3.13994 -0.786712 0
M  V30 1237 H 112.307 -3.42118 1.51348 0
M  V30 1238 H 113.64 -4.50914 1.97325 0
M  V30 1239 N 115.292 -0.849877 -1.32721 0
M  V30 1240 C 116.224 -0.248332 -2.27851 0
M  V30 1241 C 117.237 0.577218 -1.52224 0
M  V30 1242 O 118.426 0.402489 -1.73903 0
M  V30 1243 C 115.526 0.668107 -3.32249 0
M  V30 1244 C 114.699 -0.120534 -4.37234 0
M  V30 1245 C 113.758 0.720932 -5.21238 0
M  V30 1246 O 112.784 0.156166 -5.68986 0
M  V30 1247 N 113.986 2.03647 -5.43607 0
M  V30 1248 H 116.751 -1.06575 -2.80111 0
M  V30 1249 H 114.312 -0.709395 -1.45531 0
M  V30 1250 H 116.304 1.23627 -3.85355 0
M  V30 1251 H 114.874 1.38621 -2.80184 0
M  V30 1252 H 114.094 -0.870108 -3.84477 0
M  V30 1253 H 115.382 -0.662406 -5.0447 0
M  V30 1254 H 114.78 2.51871 -5.06535 0
M  V30 1255 H 113.337 2.55287 -5.99727 0
M  V30 1256 N 116.77 1.45427 -0.607355 0
M  V30 1257 C 117.702 2.2871 0.149752 0
M  V30 1258 C 118.715 1.39937 0.831958 0
M  V30 1259 O 119.904 1.64313 0.697385 0
M  V30 1260 C 117.004 3.15673 1.23304 0
M  V30 1261 C 116.177 4.32722 0.637996 0
M  V30 1262 C 115.236 5.00895 1.61215 0
M  V30 1263 O 114.262 5.57697 1.13854 0
M  V30 1264 N 115.464 5.00159 2.94655 0
M  V30 1265 H 118.229 2.94328 -0.564882 0
M  V30 1266 H 115.79 1.55612 -0.446823 0
M  V30 1267 H 117.782 3.58144 1.88454 0
M  V30 1268 H 116.352 2.51965 1.8502 0
M  V30 1269 H 115.572 3.93734 -0.191572 0
M  V30 1270 H 116.86 5.08321 0.220665 0
M  V30 1271 H 116.258 4.553 3.35735 0
M  V30 1272 H 114.815 5.46495 3.55228 0
M  V30 1273 N 118.248 0.346503 1.53744 0
M  V30 1274 C 119.158 -0.517293 2.28826 0
M  V30 1275 C 120.174 -1.10935 1.3405 0
M  V30 1276 O 121.35 -1.1244 1.6709 0
M  V30 1277 C 118.415 -1.65098 3.04866 0
M  V30 1278 C 117.476 -1.0884 4.15274 0
M  V30 1279 C 116.709 -2.16806 4.87679 0
M  V30 1280 O 116.932 -3.3758 4.59778 0
M  V30 1281 O 115.866 -1.80934 5.74061 0
M  V30 1282 H 119.692 0.0931396 3.03557 0
M  V30 1283 H 117.277 0.111458 1.48984 0
M  V30 1284 H 119.159 -2.31053 3.5241 0
M  V30 1285 H 117.834 -2.24717 2.32989 0
M  V30 1286 H 116.741 -0.3933 3.72027 0
M  V30 1287 H 118.074 -0.537036 4.89261 0
M  V30 1288 N 119.726 -1.57421 0.075193 0
M  V30 1289 C 120.656 -2.15942 -0.888324 0
M  V30 1290 C 121.637 -1.08737 -1.30806 0
M  V30 1291 O 122.822 -1.36787 -1.37851 0
M  V30 1292 C 119.952 -2.72379 -2.1547 0
M  V30 1293 C 118.906 -3.8478 -1.87425 0
M  V30 1294 C 118.232 -4.27834 -3.20721 0
M  V30 1295 C 119.532 -5.08869 -1.17684 0
M  V30 1296 H 121.226 -2.96705 -0.400799 0
M  V30 1297 H 118.772 -1.42723 -0.191342 0
M  V30 1298 H 120.725 -3.11965 -2.83295 0
M  V30 1299 H 119.449 -1.88841 -2.6647 0
M  V30 1300 H 118.108 -3.45703 -1.22004 0
M  V30 1301 H 117.756 -3.41214 -3.6957 0
M  V30 1302 H 117.456 -5.03605 -3.02746 0
M  V30 1303 H 118.98 -4.70039 -3.89738 0
M  V30 1304 H 120.394 -5.4575 -1.75584 0
M  V30 1305 H 118.791 -5.8994 -1.09956 0
M  V30 1306 H 119.861 -4.84648 -0.156453 0
M  V30 1307 N 121.204 0.198386 -1.56346 0
M  V30 1308 C 122.114 1.2664 -1.97483 0
M  V30 1309 C 123.13 1.49989 -0.882002 0
M  V30 1310 O 124.306 1.62668 -1.18748 0
M  V30 1311 C 121.371 2.59141 -2.30319 0
M  V30 1312 C 120.432 2.43892 -3.53292 0
M  V30 1313 C 119.665 3.70074 -3.84553 0
M  V30 1314 O 119.888 4.74101 -3.1715 0
M  V30 1315 O 118.822 3.658 -4.7799 0
M  V30 1316 H 122.648 0.947304 -2.88548 0
M  V30 1317 H 120.233 0.403123 -1.43859 0
M  V30 1318 H 122.115 3.37352 -2.5253 0
M  V30 1319 H 120.79 2.90684 -1.42423 0
M  V30 1320 H 119.697 1.63803 -3.36332 0
M  V30 1321 H 121.03 2.17282 -4.41644 0
M  V30 1322 N 122.682 1.50554 0.465978 0
M  V30 1323 C 123.959 1.5232 1.22712 0
M  V30 1324 C 124.339 0.270807 2.09356 0
M  V30 1325 O 123.687 -0.745541 2.15995 0
M  V30 1326 C 123.897 2.82175 2.05374 0
M  V30 1327 C 125.245 3.33033 2.6339 0
M  V30 1328 O 126.269 2.83531 2.15612 0
M  V30 1329 O 125.128 4.19336 3.50456 0
M  V30 1330 H 122.222 0.611183 0.557122 0
M  V30 1331 H 124.768 1.62847 0.477381 0
M  V30 1332 H 123.54 3.64797 1.41558 0
M  V30 1333 H 123.163 2.74675 2.87471 0
M  V30 1334 N 124.16 -0.719506 1.40217 0
M  V30 1335 C 125.07 -1.86378 1.42479 0
M  V30 1336 C 126.086 -1.71073 0.317834 0
M  V30 1337 O 127.262 -1.93406 0.561794 0
M  V30 1338 C 124.327 -3.22136 1.28178 0
M  V30 1339 C 123.388 -3.49723 2.48982 0
M  V30 1340 C 122.621 -4.79004 2.35353 0
M  V30 1341 O 122.844 -5.53821 1.36524 0
M  V30 1342 O 121.778 -5.06839 3.2465 0
M  V30 1343 H 125.604 -1.87425 2.38968 0
M  V30 1344 H 123.189 -0.869405 1.21498 0
M  V30 1345 H 125.071 -4.03234 1.22395 0
M  V30 1346 H 123.746 -3.21825 0.347934 0
M  V30 1347 H 122.653 -2.6865 2.60342 0
M  V30 1348 H 123.986 -3.54828 3.41113 0
M  V30 1349 N 125.638 -1.25649 -0.95132 0
M  V30 1350 C 126.57 -1.02112 -2.05197 0
M  V30 1351 C 127.583 0.0150571 -1.62793 0
M  V30 1352 O 128.772 -0.223874 -1.77091 0
M  V30 1353 C 125.872 -0.522361 -3.3485 0
M  V30 1354 C 125.045 -1.62546 -4.06076 0
M  V30 1355 C 124.104 -1.12649 -5.14001 0
M  V30 1356 O 123.13 -1.82156 -5.39266 0
M  V30 1357 N 124.332 0.03047 -5.80492 0
M  V30 1358 H 127.097 -1.96885 -2.25957 0
M  V30 1359 H 124.658 -1.16899 -1.1201 0
M  V30 1360 H 126.65 -0.172961 -4.0433 0
M  V30 1361 H 125.22 0.33151 -3.10837 0
M  V30 1362 H 124.44 -2.14628 -3.30649 0
M  V30 1363 H 125.728 -2.36644 -4.50419 0
M  V30 1364 H 125.126 0.611169 -5.62389 0
M  V30 1365 H 123.683 0.320875 -6.5101 0
M  V30 1366 N 127.117 1.15442 -1.07289 0
M  V30 1367 C 128.533 1.38201 -0.798288 0
M  V30 1368 C 128.733 1.92429 0.597769 0
M  V30 1369 O 127.789 2.12962 1.3566 0
M  V30 1370 C 129.102 2.35357 -1.87156 0
M  V30 1371 C 130.65 2.49021 -1.89624 0
M  V30 1372 C 131.125 3.49468 -2.96034 0
M  V30 1373 N 132.616 3.57003 -2.95132 0
M  V30 1374 C 133.351 4.34543 -3.74112 0
M  V30 1375 N 132.847 5.15421 -4.6294 0
M  V30 1376 N 134.64 4.29625 -3.62462 0
M  V30 1377 H 126.791 0.78584 -1.97328 0
M  V30 1378 H 129.054 0.408065 -0.855679 0
M  V30 1379 H 128.76 2.02626 -2.87464 0
M  V30 1380 H 128.634 3.35129 -1.73114 0
M  V30 1381 H 131.021 2.81051 -0.899687 0
M  V30 1382 H 131.102 1.4925 -2.07745 0
M  V30 1383 H 130.746 3.18173 -3.95889 0
M  V30 1384 H 130.676 4.48992 -2.75161 0
M  V30 1385 H 133.167 2.99276 -2.30743 0
M  V30 1386 H 133.48 5.7183 -5.19837 0
M  V30 1387 H 131.825 5.14729 -4.66989 0
M  V30 1388 H 135.016 3.65505 -2.92444 0
M  V30 1389 H 135.189 4.89807 -4.24256 0
M  V30 1390 N 128.595 0.856903 1.32268 0
M  V30 1391 C 130.011 0.547061 1.49931 0
M  V30 1392 C 130.211 -0.921781 1.7918 0
M  V30 1393 O 129.267 -1.70469 1.8627 0
M  V30 1394 C 130.58 1.43599 2.64196 0
M  V30 1395 C 132.128 1.43665 2.78081 0
M  V30 1396 C 132.603 2.31085 3.95428 0
M  V30 1397 N 134.094 2.28893 4.02694 0
M  V30 1398 C 134.829 2.93262 4.92732 0
M  V30 1399 N 134.325 3.66751 5.87763 0
M  V30 1400 N 136.118 2.82638 4.85873 0
M  V30 1401 H 128.269 1.8075 1.11549 0
M  V30 1402 H 130.532 0.772144 0.549997 0
M  V30 1403 H 130.238 2.48058 2.49319 0
M  V30 1404 H 130.112 1.12502 3.60032 0
M  V30 1405 H 132.499 0.399701 2.92381 0
M  V30 1406 H 132.58 1.7878 1.82952 0
M  V30 1407 H 132.224 3.34849 3.81888 0
M  V30 1408 H 132.154 1.93302 4.89839 0
M  V30 1409 H 134.645 1.75466 3.34694 0
M  V30 1410 H 134.958 4.13027 6.53168 0
M  V30 1411 H 133.303 3.70859 5.87783 0
M  V30 1412 H 136.494 2.24774 4.10602 0
M  V30 1413 H 136.667 3.33084 5.55841 0
M  V30 1414 N 130.073 -1.45103 0.615059 0
M  V30 1415 C 131.003 -2.33339 -0.0865619 0
M  V30 1416 C 131.984 -1.4727 -0.851209 0
M  V30 1417 O 133.169 -1.76026 -0.820281 0
M  V30 1418 C 130.299 -3.30095 -1.07956 0
M  V30 1419 C 129.253 -4.25858 -0.427628 0
M  V30 1420 C 128.579 -5.12361 -1.5294 0
M  V30 1421 C 129.879 -5.18165 0.655944 0
M  V30 1422 H 131.573 -2.92254 0.650224 0
M  V30 1423 H 129.119 -1.40532 0.314138 0
M  V30 1424 H 131.072 -3.90698 -1.57901 0
M  V30 1425 H 129.796 -2.69355 -1.84703 0
M  V30 1426 H 128.455 -3.66564 0.0510292 0
M  V30 1427 H 128.103 -4.47984 -2.28734 0
M  V30 1428 H 127.803 -5.77238 -1.09865 0
M  V30 1429 H 129.327 -5.75833 -2.03098 0
M  V30 1430 H 130.741 -5.72796 0.240257 0
M  V30 1431 H 129.138 -5.91559 1.00888 0
M  V30 1432 H 130.208 -4.60144 1.52957 0
M  V30 1433 N 131.551 -0.354651 -1.53558 0
M  V30 1434 C 132.791 0.238651 -2.03002 0
M  V30 1435 C 133.155 1.46878 -1.23656 0
M  V30 1436 O 134.356 2.13699 -1.63053 0
M  V30 1437 C 132.627 0.534175 -3.53386 0
M  V30 1438 S 134.186 1.10271 -4.24719 0
M  V30 1439 H 131.004 0.0702908 -0.707517 0
M  V30 1440 H 133.606 -0.494987 -1.8913 0
M  V30 1441 H 132.31 -0.368765 -4.0874 0
M  V30 1442 H 131.841 1.29718 -3.71398 0
M  V30 1443 H 133.856 2.38772 -4.34974 0
M  V30 1444 N 133.029 1.57378 -0.0835403 0
M  V30 1445 C 134.306 1.85363 0.624507 0
M  V30 1446 C 134.686 0.978239 1.87066 0
M  V30 1447 O 134.034 0.0475908 2.2845 0
M  V30 1448 C 134.244 3.35795 0.950947 0
M  V30 1449 C 135.592 4.03581 1.31939 0
M  V30 1450 O 136.616 3.40609 1.04232 0
M  V30 1451 O 135.475 5.14672 1.83779 0
M  V30 1452 H 132.569 0.766162 0.311329 0
M  V30 1453 H 135.115 1.69307 -0.115362 0
M  V30 1454 H 133.887 3.91244 0.0663899 0
M  V30 1455 H 133.51 3.57154 1.74719 0
M  V30 1456 N 134.507 -0.190092 1.56449 0
M  V30 1457 C 135.753 -0.911052 1.81184 0
M  V30 1458 C 136.086 -1.82699 0.658396 0
M  V30 1459 O 135.361 -1.91491 -0.340775 0
M  V30 1460 C 135.644 -1.72297 3.16205 0
M  V30 1461 C 135.497 -0.831419 4.42049 0
M  V30 1462 C 136.816 -2.69454 3.47969 0
M  V30 1463 H 133.935 -0.32977 0.659106 0
M  V30 1464 H 136.577 -0.178169 1.89163 0
M  V30 1465 H 134.727 -2.34778 3.09534 0
M  V30 1466 H 136.399 -0.220929 4.60771 0
M  V30 1467 H 134.642 -0.138406 4.33579 0
M  V30 1468 H 135.313 -1.43461 5.33032 0
M  V30 1469 H 137.789 -2.17104 3.54972 0
M  V30 1470 H 136.665 -3.23342 4.43555 0
M  V30 1471 H 136.926 -3.48744 2.71717 0
M  V30 1472 N 135.985 -1.50799 -0.457987 0
M  V30 1473 C 136.917 -1.66786 -1.57211 0
M  V30 1474 C 137.93 -0.548962 -1.53265 0
M  V30 1475 O 139.119 -0.8226 -1.58416 0
M  V30 1476 C 136.219 -1.64834 -2.96113 0
M  V30 1477 C 135.392 -2.92971 -3.24787 0
M  V30 1478 C 134.451 -2.83485 -4.43309 0
M  V30 1479 O 133.477 -3.5744 -4.42973 0
M  V30 1480 N 134.679 -1.97929 -5.45714 0
M  V30 1481 H 137.444 -2.62889 -1.43909 0
M  V30 1482 H 135.005 -1.48427 -0.646617 0
M  V30 1483 H 136.997 -1.56084 -3.7339 0
M  V30 1484 H 135.567 -0.764118 -3.03117 0
M  V30 1485 H 134.787 -3.15749 -2.36 0
M  V30 1486 H 136.075 -3.77834 -3.40762 0
M  V30 1487 H 135.473 -1.37182 -5.48815 0
M  V30 1488 H 134.03 -1.95073 -6.21924 0
M  V30 1489 N 137.463 0.71206 -1.40597 0
M  V30 1490 C 138.874 1.29135 -1.34837 0
M  V30 1491 C 139.225 1.96186 -0.0235395 0
M  V30 1492 O 138.35 1.97768 0.878444 0
M  V30 1493 C 138.945 2.34827 -2.44217 0
M  V30 1494 C 137.504 2.88371 -2.41907 0
M  V30 1495 C 136.651 1.62202 -2.24913 0
M  V30 1496 H 139.602 0.507944 -1.50352 0
M  V30 1497 H 139.623 3.15749 -2.12327 0
M  V30 1498 H 139.135 1.85996 -3.40627 0
M  V30 1499 H 137.236 3.41422 -1.49204 0
M  V30 1500 H 137.349 3.39925 -3.37621 0
M  V30 1501 H 135.713 1.874 -1.72492 0
M  V30 1502 H 136.496 1.15391 -3.23326 0
M  V30 1503 N 138.941 1.26152 0.944643 0
M  V30 1504 C 140.188 1.11492 1.69044 0
M  V30 1505 C 140.516 -0.342366 1.91463 0
M  V30 1506 O 139.771 -1.26812 1.49054 0
M  V30 1507 C 140.07 1.82541 3.07268 0
M  V30 1508 C 139.736 3.32445 3.04616 0
M  V30 1509 C 138.398 3.73337 3.036 0
M  V30 1510 C 140.75 4.28171 2.97185 0
M  V30 1511 C 138.078 5.08348 2.92915 0
M  V30 1512 C 140.43 5.63218 2.88041 0
M  V30 1513 C 139.094 6.03426 2.85366 0
M  V30 1514 H 138.364 0.407977 0.618576 0
M  V30 1515 H 141.011 1.56551 1.10291 0
M  V30 1516 H 139.316 1.29941 3.69625 0
M  V30 1517 H 141.013 1.68642 3.63815 0
M  V30 1518 H 137.603 2.99915 3.06185 0
M  V30 1519 H 141.787 3.97563 2.97081 0
M  V30 1520 H 137.043 5.38667 2.89219 0
M  V30 1521 H 141.217 6.37078 2.81254 0
M  V30 1522 H 138.844 7.07999 2.76842 0
M  V30 1523 N 140.419 -1.14872 1.07899 0
M  V30 1524 C 141.349 -2.2193 0.725887 0
M  V30 1525 C 142.33 -1.67622 -0.28927 0
M  V30 1526 O 143.515 -1.93533 -0.160787 0
M  V30 1527 C 140.645 -3.47061 0.128856 0
M  V30 1528 C 139.599 -4.14363 1.07178 0
M  V30 1529 C 138.925 -5.33636 0.337229 0
M  V30 1530 C 140.225 -4.63492 2.40775 0
M  V30 1531 H 141.919 -2.51724 1.62097 0
M  V30 1532 H 139.465 -1.20991 0.780838 0
M  V30 1533 H 141.418 -4.21199 -0.130147 0
M  V30 1534 H 140.142 -3.16617 -0.80134 0
M  V30 1535 H 138.801 -3.42173 1.3158 0
M  V30 1536 H 138.449 -4.99449 -0.596606 0
M  V30 1537 H 138.149 -5.79609 0.965788 0
M  V30 1538 H 139.673 -6.10539 0.0861567 0
M  V30 1539 H 141.087 -5.2913 2.20669 0
M  V30 1540 H 139.484 -5.20148 2.99276 0
M  V30 1541 H 140.554 -3.78834 3.02676 0
M  V30 1542 N 141.898 -0.863906 -1.31812 0
M  V30 1543 C 143.309 -0.52522 -1.7916 0
M  V30 1544 C 143.66 0.957518 -1.71248 0
M  V30 1545 O 142.785 1.74734 -1.27659 0
M  V30 1546 C 143.38 -0.9466 -3.25307 0
M  V30 1547 C 141.939 -0.659668 -3.70574 0
M  V30 1548 C 141.086 -1.14126 -2.52726 0
M  V30 1549 H 144.037 -1.05022 -1.1898 0
M  V30 1550 H 144.058 -0.266766 -3.79564 0
M  V30 1551 H 143.57 -2.02579 -3.31034 0
M  V30 1552 H 141.671 0.408416 -3.70355 0
M  V30 1553 H 141.784 -1.23245 -4.62977 0
M  V30 1554 H 140.148 -0.561216 -2.4844 0
M  V30 1555 H 140.931 -2.22775 -2.61201 0
M  V30 1556 N 143.376 1.44774 -0.622745 0
M  V30 1557 C 144.622 2.0242 -0.124083 0
M  V30 1558 C 144.955 1.4881 1.24777 0
M  V30 1559 O 144.23 0.668799 1.8264 0
M  V30 1560 C 144.513 3.59957 -0.101619 0
M  V30 1561 C 144.366 4.23867 -1.50521 0
M  V30 1562 C 145.685 4.36284 0.578272 0
M  V30 1563 H 142.804 0.735528 -0.0465645 0
M  V30 1564 H 145.446 1.72447 -0.797617 0
M  V30 1565 H 143.596 3.85623 0.471934 0
M  V30 1566 H 145.268 4.09336 -2.12701 0
M  V30 1567 H 143.511 3.81684 -2.06154 0
M  V30 1568 H 144.182 5.32843 -1.4416 0
M  V30 1569 H 146.658 4.16001 0.0906057 0
M  V30 1570 H 145.534 5.46004 0.563149 0
M  V30 1571 H 145.795 4.10271 1.64713 0
M  V30 1572 N 144.854 0.36279 1.53368 0
M  V30 1573 C 145.784 -0.476976 2.28576 0
M  V30 1574 C 146.765 -1.08631 1.30894 0
M  V30 1575 O 147.95 -1.10409 1.59761 0
M  V30 1576 C 145.08 -1.61828 3.07293 0
M  V30 1577 C 144.034 -1.13633 4.1264 0
M  V30 1578 C 143.36 -2.36766 4.79423 0
M  V30 1579 C 144.66 -0.223061 5.21823 0
M  V30 1580 H 146.354 0.150474 2.99022 0
M  V30 1581 H 143.9 0.0738103 1.43811 0
M  V30 1582 H 145.853 -2.21237 3.58653 0
M  V30 1583 H 144.577 -2.27292 2.34533 0
M  V30 1584 H 143.236 -0.564945 3.62221 0
M  V30 1585 H 142.884 -3.0068 4.03238 0
M  V30 1586 H 142.584 -2.05192 5.50609 0
M  V30 1587 H 144.108 -2.96865 5.33576 0
M  V30 1588 H 145.522 -0.724545 5.68703 0
M  V30 1589 H 143.919 0.001678 6.001 0
M  V30 1590 H 144.989 0.735553 4.79289 0
M  V30 1591 N 146.332 -1.57332 0.0918853 0
M  V30 1592 C 147.748 -1.57389 -0.264766 0
M  V30 1593 C 147.948 -1.10281 -1.68643 0
M  V30 1594 O 147.004 -0.777801 -2.40222 0
M  V30 1595 C 148.317 -3.00648 -0.0561195 0
M  V30 1596 C 149.865 -3.12754 -0.124116 0
M  V30 1597 C 150.34 -4.57965 0.0564972 0
M  V30 1598 N 151.831 -4.632 0.00155611 0
M  V30 1599 C 152.566 -5.73281 0.116598 0
M  V30 1600 N 152.062 -6.92208 0.286294 0
M  V30 1601 N 153.855 -5.6207 0.0580973 0
M  V30 1602 H 146.006 -1.86262 1.02079 0
M  V30 1603 H 148.269 -0.859579 0.399786 0
M  V30 1604 H 147.975 -3.393 0.925669 0
M  V30 1605 H 147.849 -3.68623 -0.799823 0
M  V30 1606 H 150.236 -2.73976 -1.09641 0
M  V30 1607 H 150.317 -2.47377 0.651024 0
M  V30 1608 H 149.961 -4.97436 1.02564 0
M  V30 1609 H 149.891 -5.21399 -0.738297 0
M  V30 1610 H 152.382 -3.77686 -0.127192 0
M  V30 1611 H 152.695 -7.71934 0.365676 0
M  V30 1612 H 151.04 -6.94254 0.32192 0
M  V30 1613 H 154.231 -4.68043 -0.0733204 0
M  V30 1614 H 154.404 -6.47824 0.151203 0
M  V30 1615 N 147.81 0.181792 -1.56548 0
M  V30 1616 C 148.74 1.22765 -1.98623 0
M  V30 1617 C 149.721 1.46747 -0.860189 0
M  V30 1618 O 150.906 1.58259 -1.12551 0
M  V30 1619 C 148.036 2.56894 -2.33715 0
M  V30 1620 C 146.99 2.475 -3.49182 0
M  V30 1621 C 146.316 3.86023 -3.69986 0
M  V30 1622 C 147.616 1.98866 -4.82959 0
M  V30 1623 H 149.31 0.877942 -2.86239 0
M  V30 1624 H 146.856 0.42088 -1.37712 0
M  V30 1625 H 148.809 3.30253 -2.61746 0
M  V30 1626 H 147.533 2.93632 -1.42997 0
M  V30 1627 H 146.192 1.76596 -3.21262 0
M  V30 1628 H 145.84 4.20136 -2.76576 0
M  V30 1629 H 145.54 3.80609 -4.47672 0
M  V30 1630 H 147.064 4.60984 -4.00407 0
M  V30 1631 H 148.478 2.61992 -5.09934 0
M  V30 1632 H 146.875 2.04424 -5.64208 0
M  V30 1633 H 147.945 0.942465 -4.75653 0
M  V30 1634 N 149.288 1.51039 0.449983 0
M  V30 1635 C 150.534 1.63322 1.20223 0
M  V30 1636 C 150.867 0.34241 1.91158 0
M  V30 1637 O 150.142 -0.657344 1.83055 0
M  V30 1638 C 150.425 2.82801 2.22925 0
M  V30 1639 C 150.278 4.21823 1.56157 0
M  V30 1640 C 151.597 2.97807 3.24035 0
M  V30 1641 H 148.716 0.594407 0.435718 0
M  V30 1642 H 151.358 1.83489 0.493136 0
M  V30 1643 H 149.508 2.65738 2.834 0
M  V30 1644 H 151.18 4.50526 0.991162 0
M  V30 1645 H 149.423 4.25105 0.864172 0
M  V30 1646 H 150.094 5.01391 2.30891 0
M  V30 1647 H 152.57 3.13497 2.73603 0
M  V30 1648 H 151.446 3.82992 3.93202 0
M  V30 1649 H 151.707 2.09328 3.89402 0
M  V30 1650 N 150.766 -0.704594 1.40972 0
M  V30 1651 C 151.729 -1.80035 1.41845 0
M  V30 1652 C 152.729 -1.57774 0.310474 0
M  V30 1653 O 153.919 -1.64613 0.56992 0
M  V30 1654 C 151.051 -3.18284 1.22098 0
M  V30 1655 H 152.244 -1.80658 2.3938 0
M  V30 1656 H 149.797 -0.911329 1.26982 0
M  V30 1657 H 150.532 -3.23306 0.253672 0
M  V30 1658 H 150.317 -3.35843 2.02366 0
M  V30 1659 H 151.807 -3.98289 1.25522 0
M  V30 1660 N 152.244 -1.26651 -0.937939 0
M  V30 1661 C 153.66 -1.03834 -1.21205 0
M  V30 1662 C 153.86 0.234502 -2.00131 0
M  V30 1663 O 152.916 0.942767 -2.3424 0
M  V30 1664 C 154.229 -2.27167 -1.97017 0
M  V30 1665 C 155.777 -2.32101 -2.09996 0
M  V30 1666 C 156.252 -3.55136 -2.8921 0
M  V30 1667 N 157.743 -3.55632 -2.96783 0
M  V30 1668 C 158.478 -4.475 -3.58512 0
M  V30 1669 N 157.974 -5.4966 -4.21717 0
M  V30 1670 N 159.767 -4.35145 -3.55816 0
M  V30 1671 H 151.918 -2.08398 -0.410391 0
M  V30 1672 H 154.181 -0.916031 -0.244114 0
M  V30 1673 H 153.887 -3.19765 -1.46434 0
M  V30 1674 H 153.761 -2.31672 -2.97671 0
M  V30 1675 H 156.148 -1.40015 -2.59769 0
M  V30 1676 H 156.229 -2.31605 -1.08594 0
M  V30 1677 H 155.873 -4.47553 -2.40123 0
M  V30 1678 H 155.803 -3.5288 -3.90875 0
M  V30 1679 H 158.294 -2.81743 -2.51852 0
M  V30 1680 H 158.607 -6.15943 -4.66727 0
M  V30 1681 H 156.952 -5.53514 -4.20294 0
M  V30 1682 H 160.143 -3.5455 -3.05634 0
M  V30 1683 H 160.316 -5.06934 -4.03636 0
M  V30 1684 N 153.722 1.14298 -1.08507 0
M  V30 1685 C 154.632 2.23027 -0.727753 0
M  V30 1686 C 155.648 1.71952 0.26619 0
M  V30 1687 O 156.824 2.011 0.109882 0
M  V30 1688 C 153.889 3.46403 -0.143541 0
M  V30 1689 C 152.95 4.12413 -1.19223 0
M  V30 1690 C 152.183 5.29899 -0.635798 0
M  V30 1691 O 152.406 5.67796 0.544393 0
M  V30 1692 O 151.34 5.85717 -1.38634 0
M  V30 1693 H 155.166 2.55945 -1.63481 0
M  V30 1694 H 152.751 1.22248 -0.858817 0
M  V30 1695 H 154.633 4.21018 0.179404 0
M  V30 1696 H 153.308 3.15206 0.736659 0
M  V30 1697 H 152.215 3.39667 -1.56772 0
M  V30 1698 H 153.548 4.47718 -2.04474 0
M  V30 1699 N 155.201 0.870884 1.31352 0
M  V30 1700 C 156.449 0.48132 1.96285 0
M  V30 1701 C 156.77 -0.969813 1.69173 0
M  V30 1702 O 156.04 -1.67998 1.00764 0
M  V30 1703 H 154.62 0.175002 0.726212 0
M  V30 1704 H 157.282 1.11087 1.60143 0
M  V30 1705 H 156.378 0.639825 3.05471 0
M  V30 1706 N 156.679 -1.44442 0.630414 0
M  V30 1707 C 157.956 -1.9549 0.0655657 0
M  V30 1708 C 158.336 -1.5724 -1.40851 0
M  V30 1709 O 157.684 -0.846116 -2.12257 0
M  V30 1710 C 157.894 -3.47812 0.287691 0
M  V30 1711 C 159.242 -4.24216 0.180513 0
M  V30 1712 O 160.266 -3.55526 0.219019 0
M  V30 1713 O 159.125 -5.46434 0.0848493 0
M  V30 1714 H 156.219 -0.826688 -0.0227177 0
M  V30 1715 H 158.765 -1.54496 0.702068 0
M  V30 1716 H 157.537 -3.687 1.31056 0
M  V30 1717 H 157.16 -3.95751 -0.382984 0
M  V30 1718 N 158.157 -0.370918 -1.53173 0
M  V30 1719 C 159.573 -0.0200818 -1.59587 0
M  V30 1720 C 159.773 1.46279 -1.38581 0
M  V30 1721 O 158.829 2.22506 -1.19363 0
M  V30 1722 C 160.142 -0.4808 -2.96831 0
M  V30 1723 C 161.69 -0.435477 -3.09956 0
M  V30 1724 C 162.165 -0.872092 -4.4962 0
M  V30 1725 N 163.656 -0.827364 -4.55751 0
M  V30 1726 C 164.391 -1.13683 -5.62018 0
M  V30 1727 N 163.887 -1.51584 -6.76014 0
M  V30 1728 N 165.68 -1.05927 -5.52029 0
M  V30 1729 H 157.831 -1.33652 -1.65079 0
M  V30 1730 H 160.094 -0.546634 -0.774529 0
M  V30 1731 H 159.8 -1.51577 -3.1736 0
M  V30 1732 H 159.674 0.129796 -3.76977 0
M  V30 1733 H 162.061 0.590371 -2.89134 0
M  V30 1734 H 162.142 -1.08164 -2.31806 0
M  V30 1735 H 161.786 -1.89608 -4.71181 0
M  V30 1736 H 161.716 -0.203127 -5.26208 0
M  V30 1737 H 164.207 -0.548216 -3.73902 0
M  V30 1738 H 164.52 -1.73609 -7.53047 0
M  V30 1739 H 162.865 -1.55454 -6.77391 0
M  V30 1740 H 166.056 -0.762321 -4.61851 0
M  V30 1741 H 166.229 -1.30378 -6.34749 0
M  V30 1742 N 159.635 1.57281 -0.100228 0
M  V30 1743 C 160.881 1.94826 0.563101 0
M  V30 1744 C 161.214 0.982475 1.67514 0
M  V30 1745 O 160.489 0.0164069 1.94493 0
M  V30 1746 C 160.772 3.42453 1.11346 0
M  V30 1747 C 160.625 4.498 0.00612081 0
M  V30 1748 C 161.944 3.91506 2.01024 0
M  V30 1749 H 159.063 0.708428 0.203221 0
M  V30 1750 H 161.705 1.8922 -0.171979 0
M  V30 1751 H 159.855 3.47361 1.7399 0
M  V30 1752 H 161.527 4.57 -0.628357 0
M  V30 1753 H 159.77 4.28756 -0.659581 0
M  V30 1754 H 160.441 5.50306 0.432109 0
M  V30 1755 H 162.917 3.88784 1.48278 0
M  V30 1756 H 161.793 4.95358 2.36457 0
M  V30 1757 H 162.054 3.31099 2.92961 0
M  V30 1758 N 161.113 -0.173488 1.56642 0
M  V30 1759 C 162.06 -1.21482 1.96242 0
M  V30 1760 C 163.03 -1.44104 0.826027 0
M  V30 1761 O 164.215 -1.5688 1.08597 0
M  V30 1762 C 161.355 -2.54964 2.32567 0
M  V30 1763 C 160.468 -2.39739 3.59373 0
M  V30 1764 C 159.603 -3.66072 3.84921 0
M  V30 1765 C 158.642 -3.45771 5.05083 0
M  V30 1766 N 157.779 -4.64169 5.26775 0
M  V30 1767 H 162.619 -0.870123 2.85014 0
M  V30 1768 H 160.156 -0.418245 1.41029 0
M  V30 1769 H 162.114 -3.32758 2.5165 0
M  V30 1770 H 160.744 -2.87433 1.46908 0
M  V30 1771 H 159.796 -1.53131 3.48217 0
M  V30 1772 H 161.108 -2.20683 4.47326 0
M  V30 1773 H 160.262 -4.52303 4.0436 0
M  V30 1774 H 159.001 -3.88105 2.9534 0
M  V30 1775 H 158.006 -2.57927 4.85545 0
M  V30 1776 H 159.231 -3.25163 5.96193 0
M  V30 1777 H 157.177 -4.86425 4.40144 0
M  V30 1778 H 157.094 -4.48019 6.08946 0
M  V30 1779 H 158.362 -5.51689 5.5069 0
M  V30 1780 N 162.591 -1.51276 -0.441967 0
M  V30 1781 C 163.538 -1.72256 -1.53612 0
M  V30 1782 C 164.508 -0.564164 -1.56225 0
M  V30 1783 O 165.693 -0.798074 -1.73307 0
M  V30 1784 C 162.833 -1.84932 -2.91366 0
M  V30 1785 C 161.946 -3.12459 -2.98317 0
M  V30 1786 C 161.081 -3.15758 -4.27166 0
M  V30 1787 C 160.12 -4.37619 -4.27967 0
M  V30 1788 N 159.257 -4.38493 -5.48333 0
M  V30 1789 H 164.097 -2.65654 -1.35026 0
M  V30 1790 H 161.634 -1.31662 -0.656009 0
M  V30 1791 H 163.592 -1.90263 -3.7129 0
M  V30 1792 H 162.222 -0.949461 -3.08521 0
M  V30 1793 H 161.274 -3.1646 -2.11086 0
M  V30 1794 H 162.586 -4.02382 -2.94771 0
M  V30 1795 H 161.74 -3.19979 -5.15459 0
M  V30 1796 H 160.479 -2.23715 -4.33362 0
M  V30 1797 H 159.484 -4.33579 -3.38067 0
M  V30 1798 H 160.709 -5.30921 -4.23438 0
M  V30 1799 H 158.655 -3.49318 -5.55259 0
M  V30 1800 H 158.572 -5.22219 -5.46647 0
M  V30 1801 H 159.84 -4.469 -6.38671 0
M  V30 1802 N 164.069 0.697108 -1.41344 0
M  V30 1803 C 164.999 1.82353 -1.45841 0
M  V30 1804 C 165.98 1.67115 -0.317247 0
M  V30 1805 O 167.165 1.86871 -0.528474 0
M  V30 1806 C 164.295 3.20476 -1.33838 0
M  V30 1807 C 163.249 3.50415 -2.4575 0
M  V30 1808 C 162.575 4.87878 -2.18813 0
M  V30 1809 C 163.875 3.49546 -3.88091 0
M  V30 1810 H 165.569 1.78846 -2.40113 0
M  V30 1811 H 163.115 0.859028 -1.15571 0
M  V30 1812 H 165.068 3.98988 -1.35596 0
M  V30 1813 H 163.792 3.24604 -0.360498 0
M  V30 1814 H 162.451 2.74253 -2.43271 0
M  V30 1815 H 162.099 4.8863 -1.19371 0
M  V30 1816 H 161.799 5.08875 -2.93803 0
M  V30 1817 H 163.323 5.68702 -2.22284 0
M  V30 1818 H 164.737 4.18066 -3.92293 0
M  V30 1819 H 163.134 3.82075 -4.62751 0
M  V30 1820 H 164.204 2.48552 -4.16353 0
M  V30 1821 N 165.547 1.27147 0.931209 0
M  V30 1822 C 166.796 1.12664 1.67302 0
M  V30 1823 C 167.109 -0.327718 1.92835 0
M  V30 1824 O 168.315 -0.593392 2.64936 0
M  V30 1825 C 166.771 1.9683 3.01307 0
M  V30 1826 C 166.379 3.46901 2.83485 0
M  V30 1827 C 168.123 1.90985 3.79111 0
M  V30 1828 C 166.03 4.23279 4.13024 0
M  V30 1829 H 164.96 0.41803 0.627509 0
M  V30 1830 H 167.611 1.51539 1.03481 0
M  V30 1831 H 165.993 1.50797 3.66164 0
M  V30 1832 H 167.167 4.00773 2.27415 0
M  V30 1833 H 165.482 3.54088 2.19113 0
M  V30 1834 H 168.079 2.45328 4.75098 0
M  V30 1835 H 168.422 0.882718 4.06834 0
M  V30 1836 H 168.955 2.34895 3.21044 0
M  V30 1837 H 165.694 5.26503 3.90481 0
M  V30 1838 H 165.214 3.74186 4.6877 0
M  V30 1839 H 166.893 4.32265 4.81411 0
M  V30 1840 N 167.025 -1.13721 1.09112 0
M  V30 1841 C 167.973 -2.21103 0.722219 0
M  V30 1842 C 168.967 -1.67147 -0.275374 0
M  V30 1843 O 170.173 -1.79477 -0.137176 0
M  V30 1844 H 166.548 -0.720445 0.215553 0
M  V30 1845 H 168.519 -2.49483 1.63709 0
M  V30 1846 C 167.268 -3.47352 0.15543 0
M  V30 1847 H 166.591 -3.89206 0.914246 0
M  V30 1848 H 168.031 -4.2395 -0.0647967 0
M  V30 1849 C 166.49 -3.1814 -1.10852 0
M  V30 1850 O 167.02 -3.36604 -2.19227 0
M  V30 1851 N 165.226 -2.72045 -1.02176 0
M  V30 1852 H 164.773 -2.57221 -0.139764 0
M  V30 1853 H 164.731 -2.52875 -1.8682 0
M  V30 1854 N 168.503 -0.877838 -1.30888 0
M  V30 1855 C 169.728 -0.506629 -2.01117 0
M  V30 1856 C 170.153 0.895564 -1.65412 0
M  V30 1857 O 169.511 1.5923 -0.866922 0
M  V30 1858 C 169.559 -0.680223 -3.54126 0
M  V30 1859 O 168.663 0.277033 -4.11468 0
M  V30 1860 H 168.004 -0.200518 -0.633 0
M  V30 1861 H 170.534 -1.18342 -1.66902 0
M  V30 1862 H 170.544 -0.5765 -4.03907 0
M  V30 1863 H 169.219 -1.70261 -3.79452 0
M  V30 1864 H 167.796 0.127606 -3.72682 0
M  V30 1865 N 169.982 1.44106 -0.638065 0
M  V30 1866 C 170.914 2.28976 0.101205 0
M  V30 1867 C 171.927 1.4167 0.802088 0
M  V30 1868 O 173.116 1.65755 0.662375 0
M  V30 1869 C 170.216 3.18217 1.16581 0
M  V30 1870 C 169.389 4.33978 0.546066 0
M  V30 1871 C 168.448 5.04202 1.50554 0
M  V30 1872 O 167.474 5.59986 1.01999 0
M  V30 1873 N 168.676 5.06296 2.8398 0
M  V30 1874 H 171.441 2.93064 -0.627186 0
M  V30 1875 H 169.002 1.54629 -0.479731 0
M  V30 1876 H 170.994 3.62061 1.80815 0
M  V30 1877 H 169.564 2.55833 1.79634 0
M  V30 1878 H 168.784 3.93239 -0.275046 0
M  V30 1879 H 170.072 5.08675 0.112793 0
M  V30 1880 H 169.47 4.62319 3.26002 0
M  V30 1881 H 168.027 5.53907 3.43556 0
M  V30 1882 N 171.46 0.379036 1.52974 0
M  V30 1883 C 172.709 -0.207612 2.00629 0
M  V30 1884 C 173.022 -1.48758 1.27006 0
M  V30 1885 O 174.228 -2.15365 1.65318 0
M  V30 1886 C 172.684 -0.42053 3.57435 0
M  V30 1887 C 172.292 0.845587 4.39948 0
M  V30 1888 C 174.036 -0.964102 4.13407 0
M  V30 1889 C 171.943 0.601513 5.88333 0
M  V30 1890 H 170.873 -0.0813591 0.749598 0
M  V30 1891 H 173.524 0.499853 1.76561 0
M  V30 1892 H 171.906 -1.18959 3.7771 0
M  V30 1893 H 173.08 1.61848 4.31442 0
M  V30 1894 H 171.395 1.31336 3.95145 0
M  V30 1895 H 173.992 -1.16225 5.21916 0
M  V30 1896 H 174.335 -1.93019 3.68849 0
M  V30 1897 H 174.868 -0.25487 3.96983 0
M  V30 1898 H 171.607 1.53831 6.37194 0
M  V30 1899 H 171.127 -0.132628 5.99653 0
M  V30 1900 H 172.806 0.232134 6.46583 0
M  V30 1901 N 172.938 -1.57226 0.108567 0
M  V30 1902 C 174.163 -1.99604 -0.563303 0
M  V30 1903 C 174.588 -0.987563 -1.6009 0
M  V30 1904 O 173.946 0.0421687 -1.81251 0
M  V30 1905 C 173.994 -3.40902 -1.17552 0
M  V30 1906 O 173.098 -3.42896 -2.2912 0
M  V30 1907 H 172.439 -0.648704 -0.1417 0
M  V30 1908 H 174.969 -2.03679 0.193961 0
M  V30 1909 H 174.979 -3.78886 -1.51357 0
M  V30 1910 H 173.654 -4.1382 -0.415445 0
M  V30 1911 H 172.231 -3.1672 -1.96832 0
M  V30 1912 N 174.416 0.165178 -1.56732 0
M  V30 1913 C 175.346 1.20651 -1.99914 0
M  V30 1914 C 176.327 1.45827 -0.875705 0
M  V30 1915 O 177.512 1.57057 -1.14223 0
M  V30 1916 C 174.642 2.54401 -2.36427 0
M  V30 1917 C 173.596 2.43782 -3.51787 0
M  V30 1918 C 172.922 3.82078 -3.7406 0
M  V30 1919 C 174.222 1.93732 -4.85041 0
M  V30 1920 H 175.916 0.847534 -2.87154 0
M  V30 1921 H 173.462 0.40625 -1.38151 0
M  V30 1922 H 175.415 3.27458 -2.65234 0
M  V30 1923 H 174.139 2.92098 -1.46103 0
M  V30 1924 H 172.798 1.73178 -3.23117 0
M  V30 1925 H 172.446 4.17179 -2.81017 0
M  V30 1926 H 172.146 3.7584 -4.51684 0
M  V30 1927 H 173.67 4.56712 -4.05274 0
M  V30 1928 H 175.084 2.56569 -5.12684 0
M  V30 1929 H 173.481 1.98428 -5.66345 0
M  V30 1930 H 174.551 0.891962 -4.76626 0
M  V30 1931 N 175.894 1.51508 0.433938 0
M  V30 1932 C 176.824 1.76016 1.53429 0
M  V30 1933 C 177.805 0.610112 1.58782 0
M  V30 1934 O 178.99 0.853177 1.74455 0
M  V30 1935 C 176.12 1.88831 2.9148 0
M  V30 1936 C 175.074 3.04288 3.00987 0
M  V30 1937 C 174.4 3.0229 4.4105 0
M  V30 1938 C 175.7 4.44193 2.74754 0
M  V30 1939 H 177.394 2.68152 1.33171 0
M  V30 1940 H 174.94 1.29035 0.639214 0
M  V30 1941 H 176.893 2.04559 3.6842 0
M  V30 1942 H 175.617 0.933455 3.12976 0
M  V30 1943 H 174.276 2.8827 2.26486 0
M  V30 1944 H 173.924 2.04576 4.59519 0
M  V30 1945 H 173.624 3.79822 4.4834 0
M  V30 1946 H 175.148 3.20116 5.1996 0
M  V30 1947 H 176.562 4.60544 3.41426 0
M  V30 1948 H 174.959 5.23457 2.9345 0
M  V30 1949 H 176.029 4.53996 1.70339 0
M  V30 1950 N 177.372 -0.689602 1.41712 0
M  V30 1951 C 178.621 -1.44534 1.40686 0
M  V30 1952 C 178.934 -1.95588 0.0213352 0
M  V30 1953 O 180.14 -2.71271 -0.111534 0
M  V30 1954 C 178.596 -2.61387 2.47396 0
M  V30 1955 C 178.204 -2.17094 3.91885 0
M  V30 1956 C 179.948 -3.38986 2.55517 0
M  V30 1957 C 177.855 -3.3094 4.90135 0
M  V30 1958 H 176.785 -0.542925 0.52321 0
M  V30 1959 H 179.436 -0.748054 1.6756 0
M  V30 1960 H 177.818 -3.33412 2.13664 0
M  V30 1961 H 178.992 -1.52318 4.34897 0
M  V30 1962 H 177.307 -1.52473 3.8748 0
M  V30 1963 H 179.904 -4.23747 3.26102 0
M  V30 1964 H 180.247 -3.84578 1.59391 0
M  V30 1965 H 180.78 -2.74021 2.8837 0
M  V30 1966 H 177.519 -2.90355 5.87685 0
M  V30 1967 H 177.039 -3.94546 4.51767 0
M  V30 1968 H 178.718 -3.9663 5.11169 0
M  V30 1969 N 178.85 -1.27639 -0.924453 0
M  V30 1970 C 180.098 -1.13941 -1.66918 0
M  V30 1971 C 180.419 0.314589 -1.92446 0
M  V30 1972 O 179.689 1.21964 -1.53303 0
M  V30 1973 H 178.269 -0.418678 -0.618642 0
M  V30 1974 H 180.931 -1.60213 -1.10985 0
M  V30 1975 H 180.027 -1.67094 -2.63602 0
M  V30 1976 N 180.328 1.1314 -1.09713 0
M  V30 1977 C 181.275 2.18642 -0.739196 0
M  V30 1978 C 182.245 1.63706 0.280978 0
M  V30 1979 O 183.43 1.90111 0.161946 0
M  V30 1980 C 180.57 3.44685 -0.169102 0
M  V30 1981 C 179.683 4.13711 -1.24367 0
M  V30 1982 C 178.818 5.27379 -0.636019 0
M  V30 1983 C 177.857 5.88259 -1.69169 0
M  V30 1984 N 176.994 6.93352 -1.10485 0
M  V30 1985 H 181.834 2.48607 -1.64312 0
M  V30 1986 H 179.371 1.22066 -0.820875 0
M  V30 1987 H 181.329 4.16815 0.179256 0
M  V30 1988 H 179.959 3.15161 0.698079 0
M  V30 1989 H 179.011 3.39835 -1.70927 0
M  V30 1990 H 180.323 4.55037 -2.04311 0
M  V30 1991 H 179.477 6.06238 -0.236677 0
M  V30 1992 H 178.216 4.8731 0.194928 0
M  V30 1993 H 177.221 5.08092 -2.10055 0
M  V30 1994 H 178.446 6.30399 -2.52536 0
M  V30 1995 H 176.392 6.55335 -0.295234 0
M  V30 1996 H 176.309 7.33236 -1.84121 0
M  V30 1997 H 177.577 7.76057 -0.73181 0
M  V30 1998 N 181.806 0.884767 1.30421 0
M  V30 1999 C 183.054 0.502112 1.95763 0
M  V30 2000 C 183.375 -0.951815 1.70192 0
M  V30 2001 O 182.645 -1.6692 1.0254 0
M  V30 2002 H 181.225 0.182694 0.724315 0
M  V30 2003 H 183.887 1.1278 1.58955 0
M  V30 2004 H 182.983 0.672188 3.04775 0
M  V30 2005 N 183.284 -1.43765 0.645699 0
M  V30 2006 C 184.214 -2.33471 -0.0370477 0
M  V30 2007 C 185.195 -1.49042 -0.819779 0
M  V30 2008 O 186.38 -1.77726 -0.782758 0
M  V30 2009 C 183.51 -3.32311 -1.0093 0
M  V30 2010 C 182.464 -4.2667 -0.337201 0
M  V30 2011 C 181.79 -5.1549 -1.42037 0
M  V30 2012 C 183.09 -5.16657 0.765706 0
M  V30 2013 H 184.784 -2.90809 0.712069 0
M  V30 2014 H 182.33 -1.39834 0.343876 0
M  V30 2015 H 184.283 -3.9396 -1.49578 0
M  V30 2016 H 183.007 -2.73213 -1.78948 0
M  V30 2017 H 181.666 -3.66374 0.128771 0
M  V30 2018 H 181.314 -4.52735 -2.1918 0
M  V30 2019 H 181.014 -5.79438 -0.975966 0
M  V30 2020 H 182.538 -5.80012 -1.90838 0
M  V30 2021 H 183.952 -5.72158 0.361702 0
M  V30 2022 H 182.349 -5.89286 1.13413 0
M  V30 2023 H 183.419 -4.56796 1.62683 0
M  V30 2024 N 184.763 -0.387143 -1.52771 0
M  V30 2025 C 185.713 0.465942 -2.23188 0
M  V30 2026 C 186.697 1.03138 -1.23496 0
M  V30 2027 O 187.889 0.957845 -1.48843 0
M  V30 2028 C 185.018 1.59384 -3.04059 0
M  V30 2029 C 184.104 1.04024 -4.11144 0
M  V30 2030 N 184.495 0.211416 -5.05358 0
M  V30 2031 C 182.793 1.31295 -4.26237 0
M  V30 2032 C 183.494 -0.0941698 -5.81624 0
M  V30 2033 N 182.47 0.509207 -5.4121 0
M  V30 2034 H 186.272 -0.173856 -2.93385 0
M  V30 2035 H 183.786 -0.19633 -1.61209 0
M  V30 2036 H 185.783 2.21738 -3.53041 0
M  V30 2037 H 184.443 2.23648 -2.35397 0
M  V30 2038 H 185.454 -0.151151 -5.17679 0
M  V30 2039 H 182.131 1.95679 -3.68803 0
M  V30 2040 H 183.521 -0.765572 -6.67524 0
M  V30 2041 N 186.241 1.57166 -0.116904 0
M  V30 2042 C 187.151 2.18745 0.847812 0
M  V30 2043 C 188.167 1.163 1.29423 0
M  V30 2044 O 189.343 1.48761 1.35765 0
M  V30 2045 C 186.408 2.77307 2.0809 0
M  V30 2046 C 185.469 3.94781 1.68661 0
M  V30 2047 C 184.702 4.50541 2.86091 0
M  V30 2048 O 184.925 4.05202 4.01456 0
M  V30 2049 O 183.859 5.41256 2.63298 0
M  V30 2050 H 187.685 3.01632 0.353778 0
M  V30 2051 H 185.27 1.49005 0.108599 0
M  V30 2052 H 187.152 3.14647 2.80313 0
M  V30 2053 H 185.827 1.97452 2.56504 0
M  V30 2054 H 184.734 3.62214 0.935518 0
M  V30 2055 H 186.067 4.76065 1.24991 0
M  V30 2056 N 187.719 -0.156864 1.56817 0
M  V30 2057 C 188.966 -0.871125 1.82805 0
M  V30 2058 C 189.294 -1.81611 0.696262 0
M  V30 2059 O 188.549 -1.93141 -0.315459 0
M  V30 2060 C 188.848 -1.68737 3.1506 0
M  V30 2061 C 188.514 -0.890045 4.42028 0
M  V30 2062 C 187.176 -0.670042 4.76512 0
M  V30 2063 C 189.528 -0.331769 5.20143 0
M  V30 2064 C 186.856 0.119104 5.86579 0
M  V30 2065 C 189.208 0.444365 6.31037 0
M  V30 2066 C 187.872 0.675035 6.64078 0
M  V30 2067 H 187.142 -0.318767 0.668931 0
M  V30 2068 H 189.789 -0.135274 1.91022 0
M  V30 2069 H 188.094 -2.49304 3.0225 0
M  V30 2070 H 189.791 -2.24331 3.3238 0
M  V30 2071 H 186.381 -1.07157 4.14988 0
M  V30 2072 H 190.565 -0.489043 4.93885 0
M  V30 2073 H 185.821 0.307417 6.10627 0
M  V30 2074 H 189.995 0.884139 6.90765 0
M  V30 2075 H 187.622 1.28839 7.49203 0
M  V30 2076 N 189.197 -1.51736 -0.425897 0
M  V30 2077 C 190.474 -1.55519 -1.1863 0
M  V30 2078 C 190.854 -0.326219 -2.08564 0
M  V30 2079 O 190.202 0.688012 -2.17896 0
M  V30 2080 C 190.412 -2.87521 -1.9782 0
M  V30 2081 C 191.76 -3.39899 -2.54468 0
M  V30 2082 O 192.784 -2.89148 -2.08019 0
M  V30 2083 O 191.643 -4.2848 -3.39215 0
M  V30 2084 H 188.737 -0.625739 -0.540721 0
M  V30 2085 H 191.283 -1.64055 -0.434038 0
M  V30 2086 H 190.055 -3.68422 -1.31836 0
M  V30 2087 H 189.678 -2.822 -2.80088 0
M  V30 2088 N 190.675 0.682077 -1.42076 0
M  V30 2089 C 191.9 1.47558 -1.45744 0
M  V30 2090 C 192.325 1.87977 -0.0680981 0
M  V30 2091 O 191.683 1.55522 0.9318 0
M  V30 2092 C 191.731 2.70575 -2.38373 0
M  V30 2093 O 190.835 3.68573 -1.85007 0
M  V30 2094 H 190.176 0.443585 -0.494093 0
M  V30 2095 H 192.706 0.837238 -1.86686 0
M  V30 2096 H 192.716 3.18729 -2.54707 0
M  V30 2097 H 191.391 2.40495 -3.39315 0
M  V30 2098 H 189.968 3.2757 -1.78192 0
M  V30 2099 N 192.153 1.28127 0.917671 0
M  V30 2100 C 193.083 1.14248 2.03641 0
M  V30 2101 C 194.064 0.0412748 1.7005 0
M  V30 2102 O 195.249 0.217566 1.92977 0
M  V30 2103 C 192.379 0.799431 3.37974 0
M  V30 2104 C 191.333 1.85497 3.85713 0
M  V30 2105 C 190.659 1.36565 5.16966 0
M  V30 2106 C 191.959 3.26085 4.08002 0
M  V30 2107 H 193.653 2.07835 2.15511 0
M  V30 2108 H 191.199 1.00064 1.03553 0
M  V30 2109 H 193.152 0.689114 4.15727 0
M  V30 2110 H 191.876 -0.172145 3.26146 0
M  V30 2111 H 190.535 1.95437 3.10161 0
M  V30 2112 H 190.183 0.383253 5.01538 0
M  V30 2113 H 189.883 2.07143 5.49878 0
M  V30 2114 H 191.407 1.26848 5.97279 0
M  V30 2115 H 192.821 3.19089 4.76293 0
M  V30 2116 H 191.218 3.94462 4.52238 0
M  V30 2117 H 192.288 3.70394 3.12948 0
M  V30 2118 N 193.631 -1.12557 1.10312 0
M  V30 2119 C 194.871 -1.8568 0.854543 0
M  V30 2120 C 195.235 -1.82091 -0.608843 0
M  V30 2121 O 196.436 -2.50544 -0.973717 0
M  V30 2122 C 194.707 -3.2942 1.38626 0
M  V30 2123 S 196.266 -4.19931 1.27293 0
M  V30 2124 H 193.084 -0.640427 0.308827 0
M  V30 2125 H 195.686 -1.35599 1.40831 0
M  V30 2126 H 194.39 -3.2959 2.44537 0
M  V30 2127 H 193.921 -3.84566 0.82902 0
M  V30 2128 H 195.936 -4.95668 0.229776 0
M  V30 2129 N 195.109 -0.891671 -1.2995 0
M  V30 2130 C 196.386 -0.433307 -1.9074 0
M  V30 2131 C 196.766 1.08646 -1.80995 0
M  V30 2132 O 196.114 1.92476 -1.23147 0
M  V30 2133 C 196.324 -0.938895 -3.36134 0
M  V30 2134 C 197.672 -0.977829 -4.13187 0
M  V30 2135 O 198.696 -0.886015 -3.45005 0
M  V30 2136 O 197.555 -1.11453 -5.35015 0
M  V30 2137 H 194.649 -0.133699 -0.816121 0
M  V30 2138 H 197.195 -0.981011 -1.38471 0
M  V30 2139 H 195.967 -1.98281 -3.37343 0
M  V30 2140 H 195.59 -0.37074 -3.95868 0
M  V30 2141 N 196.587 1.43421 -0.653314 0
M  V30 2142 C 197.998 1.85065 -0.246537 0
M  V30 2143 C 198.349 1.54688 1.2069 0
M  V30 2144 O 197.474 0.995896 1.92122 0
M  V30 2145 C 198.069 3.35922 -0.440666 0
M  V30 2146 C 196.628 3.76297 -0.0882064 0
M  V30 2147 C 195.775 2.67147 -0.743484 0
M  V30 2148 H 198.726 1.33572 -0.856979 0
M  V30 2149 H 198.747 3.79204 0.313798 0
M  V30 2150 H 198.259 3.58 -1.49858 0
M  V30 2151 H 196.36 3.5983 0.96711 0
M  V30 2152 H 196.473 4.76338 -0.513738 0
M  V30 2153 H 194.837 2.54086 -0.176712 0
M  V30 2154 H 195.62 2.92053 -1.80443 0
M  V30 2155 N 198.065 0.39524 1.52563 0
M  V30 2156 C 198.975 -0.444232 2.30356 0
M  V30 2157 C 199.991 -1.06615 1.37511 0
M  V30 2158 O 201.167 -1.07067 1.70583 0
M  V30 2159 C 198.232 -1.55315 3.09964 0
M  V30 2160 C 197.293 -0.955734 4.18526 0
M  V30 2161 C 196.526 -2.01181 4.9433 0
M  V30 2162 O 196.749 -3.22781 4.70285 0
M  V30 2163 O 195.683 -1.62579 5.79527 0
M  V30 2164 H 199.509 0.189667 3.03107 0
M  V30 2165 H 197.094 0.1588 1.48554 0
M  V30 2166 H 198.976 -2.19724 3.59582 0
M  V30 2167 H 197.651 -2.17191 2.4002 0
M  V30 2168 H 196.558 -0.274743 3.7309 0
M  V30 2169 H 197.891 -0.381109 4.90722 0
M  V30 2170 N 199.544 -1.57102 0.125237 0
M  V30 2171 C 200.79 -1.95697 -0.532035 0
M  V30 2172 C 201.123 -1.009 -1.6593 0
M  V30 2173 O 200.398 -0.047347 -1.94442 0
M  V30 2174 C 200.681 -3.44181 -1.05884 0
M  V30 2175 C 200.534 -4.49752 0.0654392 0
M  V30 2176 C 201.853 -3.94655 -1.9477 0
M  V30 2177 H 198.972 -0.711571 -0.191925 0
M  V30 2178 H 201.614 -1.88923 0.20206 0
M  V30 2179 H 199.764 -3.50085 -1.68442 0
M  V30 2180 H 201.436 -4.55943 0.700982 0
M  V30 2181 H 199.679 -4.27653 0.727709 0
M  V30 2182 H 200.35 -5.50924 -0.344505 0
M  V30 2183 H 202.826 -3.91094 -1.42074 0
M  V30 2184 H 201.702 -4.99057 -2.28546 0
M  V30 2185 H 201.963 -3.35718 -2.87656 0
M  V30 2186 N 201.022 0.148545 -1.56898 0
M  V30 2187 C 201.97 1.20265 -1.99096 0
M  V30 2188 C 202.964 1.44559 -0.883123 0
M  V30 2189 O 204.17 1.4487 -1.0683 0
M  V30 2190 H 200.545 0.404786 -0.63376 0
M  V30 2191 H 202.516 0.82004 -2.86911 0
M  V30 2192 C 201.265 2.52886 -2.3863 0
M  V30 2193 H 200.588 2.35021 -3.23427 0
M  V30 2194 H 202.028 3.25274 -2.7198 0
M  V30 2195 C 200.487 3.13315 -1.23837 0
M  V30 2196 O 201.017 3.98077 -0.538268 0
M  V30 2197 N 199.223 2.72742 -1.00301 0
M  V30 2198 H 198.77 2.03912 -1.5741 0
M  V30 2199 H 198.728 3.13507 -0.236838 0
M  V30 2200 N 202.5 1.5196 0.417844 0
M  V30 2201 C 203.777 1.56146 1.17803 0
M  V30 2202 C 204.157 0.337275 2.08388 0
M  V30 2203 O 203.505 -0.676447 2.18258 0
M  V30 2204 C 203.715 2.88566 1.96293 0
M  V30 2205 C 205.063 3.41244 2.52662 0
M  V30 2206 O 206.087 2.90247 2.06483 0
M  V30 2207 O 204.946 4.30273 3.36938 0
M  V30 2208 H 202.04 0.628598 0.537395 0
M  V30 2209 H 204.586 1.64283 0.425331 0
M  V30 2210 H 203.358 3.69116 1.2988 0
M  V30 2211 H 202.981 2.83681 2.78587 0
M  V30 2212 N 203.978 -0.674533 1.42435 0
M  V30 2213 C 205.225 -1.43459 1.42919 0
M  V30 2214 C 205.553 -1.94446 0.0457312 0
M  V30 2215 O 204.808 -1.7132 -0.94593 0
M  V30 2216 C 205.107 -2.64767 2.40069 0
M  V30 2217 C 204.773 -2.3232 3.86443 0
M  V30 2218 C 203.435 -2.23182 4.26314 0
M  V30 2219 C 205.787 -2.05977 4.78773 0
M  V30 2220 C 203.115 -1.85827 5.56494 0
M  V30 2221 C 205.467 -1.70125 6.09295 0
M  V30 2222 C 204.131 -1.59498 6.48164 0
M  V30 2223 H 203.401 -0.524952 0.522978 0
M  V30 2224 H 206.048 -0.769097 1.75377 0
M  V30 2225 H 204.353 -3.36349 2.00939 0
M  V30 2226 H 206.05 -3.22949 2.37707 0
M  V30 2227 H 202.64 -2.40334 3.54877 0
M  V30 2228 H 206.824 -2.11969 4.48757 0
M  V30 2229 H 202.08 -1.76168 5.8547 0
M  V30 2230 H 206.254 -1.48767 6.80324 0
M  V30 2231 H 203.881 -1.30322 7.48946 0
M  V30 2232 N 205.456 -1.28612 -0.910864 0
M  V30 2233 C 206.872 -1.06381 -1.18976 0
M  V30 2234 C 207.072 0.191998 -2.00583 0
M  V30 2235 O 206.128 0.892869 -2.36187 0
M  V30 2236 C 207.441 -2.31295 -1.92154 0
M  V30 2237 C 208.989 -2.36503 -2.05025 0
M  V30 2238 C 209.464 -3.61191 -2.81612 0
M  V30 2239 N 210.955 -3.61847 -2.89172 0
M  V30 2240 C 211.69 -4.55004 -3.4894 0
M  V30 2241 N 211.186 -5.58482 -4.09963 0
M  V30 2242 N 212.979 -4.42594 -3.46506 0
M  V30 2243 H 205.13 -2.09221 -0.366094 0
M  V30 2244 H 207.393 -0.921003 -0.224629 0
M  V30 2245 H 207.099 -3.228 -1.39618 0
M  V30 2246 H 206.973 -2.37934 -2.9269 0
M  V30 2247 H 209.36 -1.45494 -2.5674 0
M  V30 2248 H 209.441 -2.33857 -1.03657 0
M  V30 2249 H 209.085 -4.52545 -2.30576 0
M  V30 2250 H 209.015 -3.61092 -3.83302 0
M  V30 2251 H 211.506 -2.87022 -2.45819 0
M  V30 2252 H 211.819 -6.25704 -4.53557 0
M  V30 2253 H 210.164 -5.62305 -4.08459 0
M  V30 2254 H 213.355 -3.60953 -2.98045 0
M  V30 2255 H 213.528 -5.15381 -3.92793 0
M  V30 2256 N 206.934 1.1197 -1.10907 0
M  V30 2257 C 207.897 2.16031 -0.765707 0
M  V30 2258 C 208.897 1.59393 0.212235 0
M  V30 2259 O 210.087 1.74196 -0.0115441 0
M  V30 2260 C 207.219 3.40632 -0.135053 0
M  V30 2261 H 208.412 2.47919 -1.68748 0
M  V30 2262 H 205.965 1.27061 -0.910226 0
M  V30 2263 H 206.7 3.14348 0.797218 0
M  V30 2264 H 206.485 3.8302 -0.838937 0
M  V30 2265 H 207.975 4.17505 0.0892469 0
M  V30 2266 N 208.412 0.89855 1.29475 0
M  V30 2267 C 209.359 0.373819 2.27753 0
M  V30 2268 C 210.329 -0.543444 1.56958 0
M  V30 2269 O 211.514 -0.468934 1.84948 0
M  V30 2270 C 208.654 -0.393648 3.42848 0
M  V30 2271 C 207.767 0.554379 4.28428 0
M  V30 2272 C 206.902 -0.230026 5.30702 0
M  V30 2273 C 205.941 0.712599 6.07938 0
M  V30 2274 N 205.078 -0.0373283 7.0209 0
M  V30 2275 H 209.918 1.21699 2.72017 0
M  V30 2276 H 207.455 0.611456 1.33789 0
M  V30 2277 H 209.413 -0.85466 4.08352 0
M  V30 2278 H 208.043 -1.20128 2.99615 0
M  V30 2279 H 207.095 1.13391 3.63107 0
M  V30 2280 H 208.407 1.27597 4.82204 0
M  V30 2281 H 207.561 -0.752288 6.02018 0
M  V30 2282 H 206.3 -0.984758 4.77654 0
M  V30 2283 H 205.305 1.24637 5.35486 0
M  V30 2284 H 206.53 1.46664 6.63074 0
M  V30 2285 H 204.476 -0.774348 6.51414 0
M  V30 2286 H 204.393 0.624374 7.53417 0
M  V30 2287 H 205.661 -0.539891 7.77628 0
M  V30 2288 N 209.89 -1.43072 0.660911 0
M  V30 2289 C 210.823 -2.28074 -0.0758862 0
M  V30 2290 C 211.801 -1.40271 -0.822362 0
M  V30 2291 O 212.985 -1.69713 -0.820352 0
M  V30 2292 C 210.112 -3.19843 -1.11437 0
M  V30 2293 C 209.158 -4.23957 -0.465069 0
M  V30 2294 S 209.991 -5.29978 0.767078 0
M  V30 2295 C 211.147 -6.25314 -0.270682 0
M  V30 2296 H 211.38 -2.90216 0.645139 0
M  V30 2297 H 208.913 -1.47697 0.449995 0
M  V30 2298 H 210.871 -3.73257 -1.70849 0
M  V30 2299 H 209.532 -2.56863 -1.80776 0
M  V30 2300 H 208.725 -4.88299 -1.24819 0
M  V30 2301 H 208.327 -3.73959 0.0551242 0
M  V30 2302 H 210.619 -6.67932 -1.13459 0
M  V30 2303 H 211.562 -7.07293 0.337916 0
M  V30 2304 H 211.97 -5.61195 -0.609937 0
M  V30 2305 N 211.368 -0.403325 -1.52352 0
M  V30 2306 C 212.608 0.173946 -2.03659 0
M  V30 2307 C 212.972 1.42869 -1.28267 0
M  V30 2308 O 214.173 2.08403 -1.69769 0
M  V30 2309 C 212.444 0.421478 -3.54906 0
M  V30 2310 S 214.003 0.967027 -4.28012 0
M  V30 2311 H 210.821 0.0477461 -0.709395 0
M  V30 2312 H 213.423 -0.554906 -1.87459 0
M  V30 2313 H 212.127 -0.498616 -4.0736 0
M  V30 2314 H 211.658 1.17837 -3.75337 0
M  V30 2315 H 213.673 2.24812 -4.4235 0
M  V30 2316 N 212.846 1.57033 -0.133567 0
M  V30 2317 C 213.778 2.13176 0.841944 0
M  V30 2318 C 214.791 1.07794 1.22001 0
M  V30 2319 O 215.98 1.35117 1.16643 0
M  V30 2320 C 213.08 2.62847 2.13926 0
M  V30 2321 C 212.253 3.92486 1.93064 0
M  V30 2322 C 211.312 4.27605 3.0666 0
M  V30 2323 O 210.338 4.96168 2.78937 0
M  V30 2324 N 211.54 3.861 4.33483 0
M  V30 2325 H 214.305 2.97503 0.362192 0
M  V30 2326 H 211.866 1.61821 0.05042 0
M  V30 2327 H 213.858 2.83363 2.88942 0
M  V30 2328 H 212.428 1.83319 2.53205 0
M  V30 2329 H 211.648 3.80732 1.02159 0
M  V30 2330 H 212.936 4.77225 1.76447 0
M  V30 2331 H 212.334 3.30828 4.58878 0
M  V30 2332 H 210.891 4.11694 5.05323 0
M  V30 2333 N 214.325 -0.140222 1.56975 0
M  V30 2334 C 215.572 -0.851687 1.83719 0
M  V30 2335 C 215.9 -1.80862 0.715485 0
M  V30 2336 O 215.155 -1.93464 -0.294956 0
M  V30 2337 C 215.454 -1.65386 3.16832 0
M  V30 2338 C 215.12 -0.843112 4.42947 0
M  V30 2339 C 213.782 -0.619464 4.77196 0
M  V30 2340 C 216.134 -0.276582 5.20466 0
M  V30 2341 C 213.462 0.181312 5.8642 0
M  V30 2342 C 215.814 0.51127 6.30531 0
M  V30 2343 C 214.478 0.745432 6.63325 0
M  V30 2344 H 213.748 -0.311654 0.672274 0
M  V30 2345 H 216.395 -0.115006 1.91154 0
M  V30 2346 H 214.7 -2.46084 3.04877 0
M  V30 2347 H 216.397 -2.20793 3.34741 0
M  V30 2348 H 212.987 -1.0275 4.16101 0
M  V30 2349 H 217.171 -0.436632 4.94376 0
M  V30 2350 H 212.427 0.372165 6.10266 0
M  V30 2351 H 216.601 0.957354 6.89788 0
M  V30 2352 H 214.228 1.36778 7.47794 0
M  V30 2353 N 215.803 -1.52179 -0.40978 0
M  V30 2354 C 217.043 -1.67882 -1.16597 0
M  V30 2355 C 217.407 -0.399795 -1.87791 0
M  V30 2356 O 218.608 -0.43292 -2.65291 0
M  V30 2357 C 216.879 -2.86662 -2.13448 0
M  V30 2358 S 218.438 -3.22843 -2.97183 0
M  V30 2359 H 215.256 -0.59118 -0.395002 0
M  V30 2360 H 217.858 -1.9017 -0.453373 0
M  V30 2361 H 216.562 -3.77998 -1.59831 0
M  V30 2362 H 216.093 -2.66645 -2.89247 0
M  V30 2363 H 218.108 -2.71415 -4.15389 0
M  V30 2364 N 217.281 0.66697 -1.42791 0
M  V30 2365 C 218.191 1.80962 -1.49299 0
M  V30 2366 C 219.207 1.69775 -0.381108 0
M  V30 2367 O 220.383 1.91188 -0.633188 0
M  V30 2368 C 217.448 3.17156 -1.40045 0
M  V30 2369 C 216.509 3.40242 -2.6179 0
M  V30 2370 C 215.742 4.69939 -2.52969 0
M  V30 2371 O 215.965 5.48372 -1.56985 0
M  V30 2372 O 214.899 4.94441 -3.43237 0
M  V30 2373 H 218.725 1.78427 -2.45759 0
M  V30 2374 H 216.31 0.823713 -1.24641 0
M  V30 2375 H 218.192 3.98413 -1.37276 0
M  V30 2376 H 216.867 3.20312 -0.467138 0
M  V30 2377 H 215.774 2.58802 -2.70134 0
M  V30 2378 H 217.107 3.41923 -3.54047 0
M  V30 2379 N 218.759 1.29093 0.90403 0
M  V30 2380 C 219.669 1.15727 2.0407 0
M  V30 2381 C 220.685 0.0815308 1.73809 0
M  V30 2382 O 221.861 0.292749 1.99261 0
M  V30 2383 C 218.926 0.830424 3.36608 0
M  V30 2384 C 217.987 1.98955 3.80415 0
M  V30 2385 C 217.22 1.6782 5.06628 0
M  V30 2386 O 217.443 0.597105 5.67266 0
M  V30 2387 O 216.377 2.52486 5.46383 0
M  V30 2388 H 220.203 2.11171 2.18267 0
M  V30 2389 H 217.788 1.08504 1.027 0
M  V30 2390 H 219.67 0.662521 4.16159 0
M  V30 2391 H 218.345 -0.0942678 3.23563 0
M  V30 2392 H 217.252 2.21267 3.01648 0
M  V30 2393 H 218.585 2.89529 3.98037 0
M  V30 2394 N 220.237 -1.11381 1.11499 0
M  V30 2395 C 221.2 -2.15622 0.777153 0
M  V30 2396 C 222.2 -1.59504 -0.203779 0
M  V30 2397 O 223.39 -1.74188 0.020782 0
M  V30 2398 C 220.522 -3.40556 0.153116 0
M  V30 2399 H 221.715 -2.47021 1.70061 0
M  V30 2400 H 219.268 -1.26577 0.916952 0
M  V30 2401 H 220.003 -3.14767 -0.780536 0
M  V30 2402 H 219.788 -3.8257 0.859238 0
M  V30 2403 H 221.278 -4.17546 -0.0671044 0
M  V30 2404 N 221.715 -0.905404 -1.28997 0
M  V30 2405 C 222.678 -0.392253 -2.25819 0
M  V30 2406 C 223.678 0.476753 -1.5357 0
M  V30 2407 O 224.868 0.280994 -1.71919 0
M  V30 2408 C 222 0.438588 -3.38067 0
M  V30 2409 H 223.193 -1.24743 -2.72725 0
M  V30 2410 H 220.746 -0.684051 -1.40536 0
M  V30 2411 H 221.481 1.31352 -2.96508 0
M  V30 2412 H 221.266 -0.184167 -3.91667 0
M  V30 2413 H 222.756 0.78873 -4.10084 0
M  V30 2414 N 223.193 1.4272 -0.668489 0
M  V30 2415 C 224.156 2.292 0.00448567 0
M  V30 2416 C 225.156 1.43001 0.735339 0
M  V30 2417 O 226.346 1.64461 0.57429 0
M  V30 2418 C 223.478 3.25375 1.01705 0
M  V30 2419 H 224.671 2.90199 -0.756608 0
M  V30 2420 H 222.224 1.50254 -0.430506 0
M  V30 2421 H 222.959 2.69301 1.80686 0
M  V30 2422 H 222.744 3.88944 0.496463 0
M  V30 2423 H 224.234 3.90245 1.48655 0
M  V30 2424 N 224.671 0.411399 1.52136 0
M  V30 2425 C 226.087 0.0623865 1.59478 0
M  V30 2426 C 226.287 -1.42554 1.4241 0
M  V30 2427 O 225.343 -2.19263 1.2522 0
M  V30 2428 C 226.656 0.559331 2.95452 0
M  V30 2429 C 228.204 0.517503 3.08692 0
M  V30 2430 C 228.679 0.990994 4.4715 0
M  V30 2431 N 230.17 0.947908 4.53397 0
M  V30 2432 C 230.905 1.28544 5.58806 0
M  V30 2433 N 230.401 1.69454 6.71757 0
M  V30 2434 N 232.194 1.20526 5.49026 0
M  V30 2435 H 224.345 1.37982 1.61477 0
M  V30 2436 H 226.608 0.566977 0.759764 0
M  V30 2437 H 226.314 1.59938 3.1323 0
M  V30 2438 H 226.188 -0.0298014 3.77188 0
M  V30 2439 H 228.575 -0.513505 2.90598 0
M  V30 2440 H 228.656 1.14272 2.28857 0
M  V30 2441 H 228.3 2.02034 4.65988 0
M  V30 2442 H 228.23 0.34257 5.25485 0
M  V30 2443 H 230.721 0.647157 3.72317 0
M  V30 2444 H 231.034 1.93513 7.48179 0
M  V30 2445 H 229.379 1.73359 6.73032 0
M  V30 2446 H 232.57 0.884505 4.59667 0
M  V30 2447 H 232.743 1.47161 6.31069 0
M  V30 2448 N 226.149 -1.5696 0.141893 0
M  V30 2449 C 227.565 -1.58151 -0.21456 0
M  V30 2450 C 227.765 -1.1559 -1.65049 0
M  V30 2451 O 226.821 -0.853832 -2.37626 0
M  V30 2452 C 228.134 -3.00674 0.0395576 0
M  V30 2453 C 229.682 -3.1299 -0.0245529 0
M  V30 2454 C 230.157 -4.57554 0.202167 0
M  V30 2455 N 231.648 -4.62961 0.148919 0
M  V30 2456 C 232.383 -5.7262 0.298924 0
M  V30 2457 N 231.879 -6.90947 0.50637 0
M  V30 2458 N 233.672 -5.61601 0.236886 0
M  V30 2459 H 225.823 -1.8292 1.07953 0
M  V30 2460 H 228.086 -0.846425 0.42693 0
M  V30 2461 H 227.792 -3.36183 1.03315 0
M  V30 2462 H 227.666 -3.70981 -0.682143 0
M  V30 2463 H 230.053 -2.77326 -1.00869 0
M  V30 2464 H 230.134 -2.4518 0.729396 0
M  V30 2465 H 229.778 -4.93922 1.18338 0
M  V30 2466 H 229.708 -5.23484 -0.572044 0
M  V30 2467 H 232.199 -3.77899 -0.00697015 0
M  V30 2468 H 232.512 -7.7038 0.611076 0
M  V30 2469 H 230.857 -6.92878 0.542628 0
M  V30 2470 H 234.048 -4.68039 0.0756209 0
M  V30 2471 H 234.221 -6.47015 0.357227 0
M  V30 2472 N 227.627 0.131896 -1.57047 0
M  V30 2473 C 228.559 1.1878 -1.9602 0
M  V30 2474 C 229.572 1.38363 -0.857875 0
M  V30 2475 O 230.761 1.37666 -1.13623 0
M  V30 2476 C 227.861 2.55008 -2.23213 0
M  V30 2477 C 227.034 2.56201 -3.54513 0
M  V30 2478 C 226.093 3.7408 -3.70069 0
M  V30 2479 O 225.119 3.58258 -4.42312 0
M  V30 2480 N 226.321 4.92137 -3.07866 0
M  V30 2481 H 229.086 0.85639 -2.87204 0
M  V30 2482 H 226.647 0.321309 -1.5868 0
M  V30 2483 H 228.639 3.32404 -2.30846 0
M  V30 2484 H 227.209 2.80382 -1.3822 0
M  V30 2485 H 226.429 1.64613 -3.58185 0
M  V30 2486 H 227.717 2.54043 -4.4084 0
M  V30 2487 H 227.115 5.07895 -2.49116 0
M  V30 2488 H 225.672 5.67254 -3.21039 0
M  V30 2489 N 229.106 1.52395 0.401703 0
M  V30 2490 C 230.038 1.72505 1.50912 0
M  V30 2491 C 231.051 0.605468 1.51122 0
M  V30 2492 O 232.24 0.880828 1.55254 0
M  V30 2493 C 229.34 1.75711 2.89791 0
M  V30 2494 C 228.513 3.04824 3.1369 0
M  V30 2495 C 227.572 2.99743 4.32482 0
M  V30 2496 O 226.598 3.73635 4.29402 0
M  V30 2497 N 227.8 2.18047 5.37992 0
M  V30 2498 H 230.565 2.68049 1.34052 0
M  V30 2499 H 228.126 1.50724 0.591084 0
M  V30 2500 H 230.118 1.69834 3.6734 0
M  V30 2501 H 228.688 0.876092 3.00072 0
M  V30 2502 H 227.908 3.2429 2.24119 0
M  V30 2503 H 229.196 3.90221 3.26504 0
M  V30 2504 H 228.594 1.57456 5.43345 0
M  V30 2505 H 227.151 2.18021 6.14256 0
M  V30 2506 N 230.584 -0.659388 1.43143 0
M  V30 2507 C 231.514 -1.78422 1.50625 0
M  V30 2508 C 232.495 -1.66216 0.361443 0
M  V30 2509 O 233.68 -1.85404 0.577834 0
M  V30 2510 C 230.81 -3.16815 1.42287 0
M  V30 2511 C 229.764 -3.43777 2.54954 0
M  V30 2512 C 229.09 -4.81905 2.31671 0
M  V30 2513 C 230.39 -3.39134 3.97222 0
M  V30 2514 H 232.084 -1.72417 2.44771 0
M  V30 2515 H 229.63 -0.828084 1.17808 0
M  V30 2516 H 231.583 -3.95253 1.46127 0
M  V30 2517 H 230.307 -3.23534 0.446435 0
M  V30 2518 H 228.966 -2.67707 2.50457 0
M  V30 2519 H 228.614 -4.85294 1.32284 0
M  V30 2520 H 228.314 -5.00906 3.07192 0
M  V30 2521 H 229.838 -5.62609 2.37284 0
M  V30 2522 H 231.252 -4.07518 4.03239 0
M  V30 2523 H 229.649 -3.69671 4.72719 0
M  V30 2524 H 230.719 -2.37426 4.22797 0
M  V30 2525 N 232.062 -1.29571 -0.897171 0
M  V30 2526 C 233.31 -1.17456 -1.64464 0
M  V30 2527 C 233.631 0.273698 -1.9307 0
M  V30 2528 O 232.901 1.18684 -1.55855 0
M  V30 2529 H 231.481 -0.431706 -0.609622 0
M  V30 2530 H 234.143 -1.62531 -1.07562 0
M  V30 2531 H 233.239 -1.72648 -2.59998 0
M  V30 2532 N 233.54 1.10788 -1.12088 0
M  V30 2533 C 234.786 1.8313 -0.885148 0
M  V30 2534 C 235.141 1.8336 0.582839 0
M  V30 2535 O 234.434 1.28062 1.42516 0
M  V30 2536 C 234.628 3.29294 -1.38926 0
M  V30 2537 C 234.457 3.43302 -2.90472 0
M  V30 2538 C 233.227 3.55928 -3.58669 0
M  V30 2539 C 235.425 3.37014 -3.88492 0
M  V30 2540 N 233.407 3.58475 -4.98366 0
M  V30 2541 C 234.778 3.46263 -5.14298 0
M  V30 2542 C 236.833 3.20589 -3.80955 0
M  V30 2543 C 235.536 3.4078 -6.33452 0
M  V30 2544 C 237.562 3.16427 -4.99628 0
M  V30 2545 C 236.924 3.26253 -6.2429 0
M  V30 2546 H 233.023 0.685054 -0.377128 0
M  V30 2547 H 235.607 1.3251 -1.4265 0
M  V30 2548 H 233.778 3.78416 -0.874999 0
M  V30 2549 H 235.51 3.89578 -1.09596 0
M  V30 2550 H 232.265 3.58779 -3.09151 0
M  V30 2551 H 232.689 3.6337 -5.71219 0
M  V30 2552 H 237.331 3.11873 -2.85474 0
M  V30 2553 H 235.049 3.48263 -7.29204 0
M  V30 2554 H 238.635 3.04874 -4.95523 0
M  V30 2555 H 237.515 3.2303 -7.14578 0
M  V30 2556 N 235.018 0.912232 1.28515 0
M  V30 2557 C 235.928 0.404506 2.31086 0
M  V30 2558 C 236.944 -0.50707 1.66448 0
M  V30 2559 O 238.12 -0.393624 1.97516 0
M  V30 2560 C 235.185 -0.348572 3.44943 0
M  V30 2561 C 234.246 0.59604 4.25142 0
M  V30 2562 C 233.479 -0.121194 5.33562 0
M  V30 2563 O 233.702 -1.34317 5.5436 0
M  V30 2564 O 232.636 0.542716 5.99448 0
M  V30 2565 H 236.462 1.25579 2.76521 0
M  V30 2566 H 234.047 0.676998 1.33181 0
M  V30 2567 H 235.929 -0.77395 4.14232 0
M  V30 2568 H 234.604 -1.17571 3.01594 0
M  V30 2569 H 233.511 1.07079 3.58448 0
M  V30 2570 H 234.844 1.38995 4.72167 0
M  V30 2571 N 236.496 -1.42363 0.676048 0
M  V30 2572 C 237.459 -2.29199 0.00766941 0
M  V30 2573 C 238.459 -1.43389 -0.727745 0
M  V30 2574 O 239.649 -1.64764 -0.56556 0
M  V30 2575 C 236.781 -3.2591 -0.999785 0
M  V30 2576 H 237.974 -2.89794 0.771988 0
M  V30 2577 H 235.527 -1.50024 0.438468 0
M  V30 2578 H 236.262 -2.70256 -1.79255 0
M  V30 2579 H 236.047 -3.89202 -0.475829 0
M  V30 2580 H 237.537 -3.91028 -1.46583 0
M  V30 2581 N 237.974 -0.419461 -1.51915 0
M  V30 2582 C 239.22 0.145505 -2.02879 0
M  V30 2583 C 239.575 1.41926 -1.29903 0
M  V30 2584 O 238.868 1.87383 -0.399782 0
M  V30 2585 C 239.062 0.437067 -3.54717 0
M  V30 2586 C 238.891 -0.806877 -4.42402 0
M  V30 2587 C 237.661 -1.33514 -4.87342 0
M  V30 2588 C 239.859 -1.68796 -4.85811 0
M  V30 2589 N 237.841 -2.53349 -5.59185 0
M  V30 2590 C 239.212 -2.73247 -5.56539 0
M  V30 2591 C 241.267 -1.70449 -4.67816 0
M  V30 2592 C 239.97 -3.79276 -6.11181 0
M  V30 2593 C 241.996 -2.75403 -5.23361 0
M  V30 2594 C 241.358 -3.78575 -5.9402 0
M  V30 2595 H 237.457 0.0145424 -0.781865 0
M  V30 2596 H 240.041 -0.576126 -1.85981 0
M  V30 2597 H 238.212 1.12774 -3.71667 0
M  V30 2598 H 239.944 0.99182 -3.92358 0
M  V30 2599 H 236.699 -0.891657 -4.65131 0
M  V30 2600 H 237.123 -3.14066 -5.99743 0
M  V30 2601 H 241.765 -0.920209 -4.12664 0
M  V30 2602 H 239.483 -4.58554 -6.65397 0
M  V30 2603 H 243.069 -2.77603 -5.113 0
M  V30 2604 H 241.949 -4.58453 -6.36231 0
M  V30 2605 N 239.452 1.56882 -0.150215 0
M  V30 2606 C 240.382 2.19935 0.784284 0
M  V30 2607 C 241.363 1.14854 1.25469 0
M  V30 2608 O 242.548 1.43209 1.31168 0
M  V30 2609 C 239.678 2.82349 2.02229 0
M  V30 2610 C 238.632 3.93285 1.68853 0
M  V30 2611 C 237.958 4.42649 2.99944 0
M  V30 2612 C 239.258 5.13904 0.932714 0
M  V30 2613 H 240.952 2.9828 0.258781 0
M  V30 2614 H 238.498 1.43473 0.123029 0
M  V30 2615 H 240.451 3.25126 2.68088 0
M  V30 2616 H 239.175 2.0134 2.57157 0
M  V30 2617 H 237.834 3.5113 1.05371 0
M  V30 2618 H 237.482 3.58458 3.52869 0
M  V30 2619 H 237.182 5.17476 2.78374 0
M  V30 2620 H 238.706 4.88099 3.66868 0
M  V30 2621 H 240.12 5.53506 1.49345 0
M  V30 2622 H 238.517 5.94515 0.81684 0
M  V30 2623 H 239.587 4.84842 -0.0749568 0
M  V30 2624 N 240.93 -0.123565 1.57115 0
M  V30 2625 C 241.862 -1.17739 1.96648 0
M  V30 2626 C 242.875 -1.37906 0.865201 0
M  V30 2627 O 244.064 -1.37062 1.14351 0
M  V30 2628 C 241.164 -2.53821 2.24562 0
M  V30 2629 C 240.337 -2.54317 3.55867 0
M  V30 2630 C 239.396 -3.72112 3.72047 0
M  V30 2631 O 238.422 -3.55907 4.44206 0
M  V30 2632 N 239.624 -4.90498 3.10471 0
M  V30 2633 H 242.389 -0.841147 2.87654 0
M  V30 2634 H 239.95 -0.31289 1.58848 0
M  V30 2635 H 241.942 -3.31175 2.32606 0
M  V30 2636 H 240.512 -2.79645 1.39705 0
M  V30 2637 H 239.732 -1.62711 3.59053 0
M  V30 2638 H 241.02 -2.51701 4.42181 0
M  V30 2639 H 240.418 -5.06567 2.51806 0
M  V30 2640 H 238.975 -5.65544 3.24043 0
M  V30 2641 N 242.408 -1.52605 -0.393616 0
M  V30 2642 C 243.638 -1.71046 -1.15874 0
M  V30 2643 C 244.046 -0.426483 -1.84331 0
M  V30 2644 O 243.389 0.608513 -1.73329 0
M  V30 2645 C 243.451 -2.80118 -2.25332 0
M  V30 2646 C 243.115 -4.21381 -1.76881 0
M  V30 2647 C 244.112 -5.04697 -1.24808 0
M  V30 2648 C 241.797 -4.67683 -1.83244 0
M  V30 2649 C 243.791 -6.32393 -0.797387 0
M  V30 2650 C 241.478 -5.95364 -1.37787 0
M  V30 2651 C 242.476 -6.77549 -0.861208 0
M  V30 2652 O 242.164 -8.02837 -0.413252 0
M  V30 2653 H 241.896 -0.576155 -0.353583 0
M  V30 2654 H 244.45 -2.00018 -0.467123 0
M  V30 2655 H 242.68 -2.46557 -2.97904 0
M  V30 2656 H 244.369 -2.87006 -2.87023 0
M  V30 2657 H 245.135 -4.70111 -1.19252 0
M  V30 2658 H 241.014 -4.03805 -2.22401 0
M  V30 2659 H 244.558 -6.9649 -0.393437 0
M  V30 2660 H 240.455 -6.29455 -1.43026 0
M  V30 2661 H 241.223 -8.16749 -0.53515 0
M  V30 2662 N 243.887 0.651787 -1.4349 0
M  V30 2663 C 245.112 1.44434 -1.48841 0
M  V30 2664 C 245.537 1.8779 -0.107955 0
M  V30 2665 O 244.895 1.57464 0.898602 0
M  V30 2666 C 244.943 2.65458 -2.44059 0
M  V30 2667 O 244.047 3.64566 -1.92784 0
M  V30 2668 H 243.388 0.433005 -0.503391 0
M  V30 2669 H 245.918 0.797451 -1.88419 0
M  V30 2670 H 245.928 3.13255 -2.6141 0
M  V30 2671 H 244.603 2.33244 -3.4434 0
M  V30 2672 H 243.18 3.23716 -1.851 0
M  V30 2673 N 245.365 1.30045 0.890287 0
M  V30 2674 C 246.612 1.18561 1.64163 0
M  V30 2675 C 246.94 -0.260852 1.92743 0
M  V30 2676 O 246.195 -1.20376 1.54299 0
M  V30 2677 C 246.494 1.95409 2.99249 0
M  V30 2678 C 246.16 3.45066 2.90242 0
M  V30 2679 C 244.822 3.85878 2.87492 0
M  V30 2680 C 247.174 4.4039 2.78758 0
M  V30 2681 C 244.502 5.20314 2.7109 0
M  V30 2682 C 246.854 5.74928 2.63894 0
M  V30 2683 C 245.518 6.14986 2.59516 0
M  V30 2684 H 244.788 0.433846 0.600715 0
M  V30 2685 H 247.435 1.61088 1.03552 0
M  V30 2686 H 245.74 1.45501 3.63781 0
M  V30 2687 H 247.437 1.8392 3.56334 0
M  V30 2688 H 244.027 3.12631 2.93189 0
M  V30 2689 H 248.211 4.09806 2.79952 0
M  V30 2690 H 243.467 5.50449 2.66112 0
M  V30 2691 H 247.641 6.48434 2.53981 0
M  V30 2692 H 245.268 7.19104 2.46565 0
M  V30 2693 N 246.843 -1.10192 1.12674 0
M  V30 2694 C 248.254 -1.63707 0.897604 0
M  V30 2695 C 248.605 -1.87812 -0.567546 0
M  V30 2696 O 247.73 -1.62196 -1.43253 0
M  V30 2697 C 248.325 -2.974 1.62292 0
M  V30 2698 C 246.884 -3.47772 1.43986 0
M  V30 2699 C 246.031 -2.22332 1.65722 0
M  V30 2700 H 248.982 -0.936587 1.28116 0
M  V30 2701 H 249.003 -3.64986 1.07541 0
M  V30 2702 H 248.515 -2.79824 2.68924 0
M  V30 2703 H 246.616 -3.70487 0.396206 0
M  V30 2704 H 246.729 -4.25723 2.19765 0
M  V30 2705 H 245.093 -2.30599 1.08149 0
M  V30 2706 H 245.876 -2.07285 2.73657 0
M  V30 2707 N 248.321 -0.919034 -1.28029 0
M  V30 2708 C 249.251 -0.428581 -2.29533 0
M  V30 2709 C 250.232 0.50659 -1.62381 0
M  V30 2710 O 251.417 0.413195 -1.89753 0
M  V30 2711 C 248.547 0.327388 -3.45753 0
M  V30 2712 C 247.501 -0.519137 -4.2484 0
M  V30 2713 C 246.827 0.365486 -5.33449 0
M  V30 2714 C 248.127 -1.77914 -4.91064 0
M  V30 2715 H 249.821 -1.27687 -2.70807 0
M  V30 2716 H 247.367 -0.615428 -1.30186 0
M  V30 2717 H 249.32 0.681378 -4.15855 0
M  V30 2718 H 248.044 1.20963 -3.03374 0
M  V30 2719 H 246.703 -0.855717 -3.56473 0
M  V30 2720 H 246.351 1.24642 -4.87312 0
M  V30 2721 H 246.051 -0.197356 -5.87268 0
M  V30 2722 H 247.575 0.715241 -6.06396 0
M  V30 2723 H 248.989 -1.49374 -5.53498 0
M  V30 2724 H 247.386 -2.2848 -5.54903 0
M  V30 2725 H 248.456 -2.50382 -4.15255 0
M  V30 2726 N 249.799 1.42003 -0.683588 0
M  V30 2727 C 250.731 2.29183 0.0283068 0
M  V30 2728 C 251.744 1.4415 0.756611 0
M  V30 2729 O 252.933 1.67779 0.609306 0
M  V30 2730 C 250.033 3.21765 1.06398 0
M  V30 2731 C 249.206 4.35496 0.407723 0
M  V30 2732 C 248.265 5.08737 1.34437 0
M  V30 2733 O 247.291 5.62948 0.841318 0
M  V30 2734 N 248.493 5.15075 2.67728 0
M  V30 2735 H 251.258 2.9092 -0.720105 0
M  V30 2736 H 248.819 1.53025 -0.528682 0
M  V30 2737 H 250.811 3.6763 1.69204 0
M  V30 2738 H 249.381 2.61418 1.71404 0
M  V30 2739 H 248.601 3.92165 -0.400012 0
M  V30 2740 H 249.889 5.08776 -0.0490956 0
M  V30 2741 H 249.287 4.72457 3.11129 0
M  V30 2742 H 247.844 5.64556 3.2576 0
M  V30 2743 N 251.277 0.427512 1.51691 0
M  V30 2744 C 252.207 -0.3796 2.30394 0
M  V30 2745 C 253.188 -1.02982 1.35384 0
M  V30 2746 O 254.373 -1.03534 1.643 0
M  V30 2747 C 251.503 -1.48649 3.1388 0
M  V30 2748 C 250.457 -0.960294 4.17088 0
M  V30 2749 C 249.783 -2.16219 4.89033 0
M  V30 2750 C 251.083 -0.00153679 5.223 0
M  V30 2751 H 252.777 0.277164 2.98114 0
M  V30 2752 H 250.323 0.134739 1.43368 0
M  V30 2753 H 252.276 -2.05826 3.67714 0
M  V30 2754 H 251 -2.1714 2.43962 0
M  V30 2755 H 249.659 -0.410806 3.64291 0
M  V30 2756 H 249.307 -2.83307 4.15628 0
M  V30 2757 H 249.007 -1.81654 5.58816 0
M  V30 2758 H 250.531 -2.73968 5.45687 0
M  V30 2759 H 251.945 -0.482687 5.71264 0
M  V30 2760 H 250.342 0.256199 5.99553 0
M  V30 2761 H 251.412 0.938174 4.75738 0
M  V30 2762 N 252.755 -1.56801 0.158532 0
M  V30 2763 C 253.665 -2.20916 -0.789518 0
M  V30 2764 C 254.681 -1.1969 -1.26294 0
M  V30 2765 O 255.857 -1.52308 -1.31773 0
M  V30 2766 C 252.922 -2.82727 -2.00665 0
M  V30 2767 C 251.983 -3.99114 -1.58134 0
M  V30 2768 C 251.216 -4.57968 -2.74045 0
M  V30 2769 O 251.439 -4.15704 -3.90572 0
M  V30 2770 O 250.373 -5.48047 -2.48855 0
M  V30 2771 H 254.199 -3.02464 -0.273681 0
M  V30 2772 H 251.784 -1.4924 -0.0690548 0
M  V30 2773 H 253.666 -3.21968 -2.71872 0
M  V30 2774 H 252.341 -2.04184 -2.51179 0
M  V30 2775 H 251.248 -3.64567 -0.839155 0
M  V30 2776 H 252.581 -4.79212 -1.12325 0
M  V30 2777 N 254.233 0.115231 -1.57178 0
M  V30 2778 C 255.644 0.67197 -1.74188 0
M  V30 2779 C 255.995 1.80125 -0.777777 0
M  V30 2780 O 255.12 2.16346 0.0484376 0
M  V30 2781 C 255.715 1.22573 -3.1585 0
M  V30 2782 C 254.274 1.72872 -3.34353 0
M  V30 2783 C 253.421 0.629972 -2.70049 0
M  V30 2784 H 256.372 -0.110712 -1.58313 0
M  V30 2785 H 256.393 2.09535 -3.17609 0
M  V30 2786 H 255.905 0.403598 -3.85996 0
M  V30 2787 H 254.006 2.5755 -2.69256 0
M  V30 2788 H 254.119 1.83557 -4.42542 0
M  V30 2789 H 252.483 1.0645 -2.31388 0
M  V30 2790 H 253.266 -0.181241 -3.42821 0
M  V30 2791 N 255.711 1.52812 0.385517 0
M  V30 2792 C 256.936 1.72207 1.15583 0
M  V30 2793 C 257.361 0.441034 1.82857 0
M  V30 2794 O 256.719 -0.603465 1.70962 0
M  V30 2795 C 256.767 2.87476 2.17692 0
M  V30 2796 O 255.871 2.54693 3.24354 0
M  V30 2797 H 255.212 0.572526 0.336319 0
M  V30 2798 H 257.742 1.99618 0.448744 0
M  V30 2799 H 257.752 3.13072 2.6163 0
M  V30 2800 H 256.427 3.80408 1.68115 0
M  V30 2801 H 255.004 2.3985 2.85529 0
M  V30 2802 N 257.189 -0.644168 1.43834 0
M  V30 2803 C 258.152 -1.73857 1.49353 0
M  V30 2804 C 259.152 -1.56315 0.377112 0
M  V30 2805 O 260.342 -1.62048 0.639226 0
M  V30 2806 C 257.474 -3.12819 1.35488 0
M  V30 2807 H 258.667 -1.70342 2.46827 0
M  V30 2808 H 256.22 -0.856652 1.30733 0
M  V30 2809 H 256.955 -3.2194 0.390569 0
M  V30 2810 H 256.74 -3.26958 2.16428 0
M  V30 2811 H 258.23 -3.92606 1.42302 0
M  V30 2812 N 258.668 -1.30515 -0.883378 0
M  V30 2813 C 259.6 -1.12846 -1.99496 0
M  V30 2814 C 260.613 -0.0712571 -1.62644 0
M  V30 2815 O 261.802 -0.317432 -1.75655 0
M  V30 2816 C 258.902 -0.699123 -3.3161 0
M  V30 2817 C 258.075 -1.83842 -3.96889 0
M  V30 2818 C 257.134 -1.39737 -5.07307 0
M  V30 2819 O 256.16 -2.10485 -5.28852 0
M  V30 2820 N 257.362 -0.277279 -5.79837 0
M  V30 2821 H 260.127 -2.08585 -2.15203 0
M  V30 2822 H 257.688 -1.22672 -1.05656 0
M  V30 2823 H 259.68 -0.387044 -4.02845 0
M  V30 2824 H 258.25 0.166276 -3.12157 0
M  V30 2825 H 257.47 -2.31853 -3.18807 0
M  V30 2826 H 258.758 -2.60187 -4.37241 0
M  V30 2827 H 258.156 0.3122 -5.64838 0
M  V30 2828 H 256.713 -0.0246623 -6.51795 0
M  V30 2829 N 260.146 1.09593 -1.13257 0
M  V30 2830 C 261.374 1.855 -0.916378 0
M  V30 2831 C 261.789 1.81069 0.534738 0
M  V30 2832 O 261.146 1.20562 1.37007 0
M  V30 2833 C 261.197 3.33546 -1.39388 0
M  V30 2834 O 260.918 3.37927 -2.78813 0
M  V30 2835 C 262.419 4.26299 -1.21588 0
M  V30 2836 H 259.639 0.585991 -0.326887 0
M  V30 2837 H 262.183 1.38488 -1.5047 0
M  V30 2838 H 260.338 3.77992 -0.848597 0
M  V30 2839 H 260.752 4.30254 -2.9997 0
M  V30 2840 H 262.226 5.28341 -1.59876 0
M  V30 2841 H 262.703 4.38918 -0.157376 0
M  V30 2842 H 263.309 3.87668 -1.7491 0
M  V30 2843 N 261.624 0.925811 1.2754 0
M  V30 2844 C 262.87 0.575575 1.95086 0
M  V30 2845 C 263.225 -0.873246 1.71441 0
M  V30 2846 O 262.518 -1.61443 1.03183 0
M  V30 2847 C 262.712 0.835296 3.47502 0
M  V30 2848 C 262.541 2.30781 3.85967 0
M  V30 2849 C 261.311 2.96017 4.09514 0
M  V30 2850 C 263.509 3.28519 3.95702 0
M  V30 2851 N 261.491 4.3344 4.34744 0
M  V30 2852 C 262.862 4.51146 4.25285 0
M  V30 2853 C 264.917 3.23753 3.7827 0
M  V30 2854 C 263.62 5.69606 4.39251 0
M  V30 2855 C 265.646 4.41523 3.9346 0
M  V30 2856 C 265.008 5.62928 4.23428 0
M  V30 2857 H 261.107 0.260711 0.737261 0
M  V30 2858 H 263.691 1.19204 1.53943 0
M  V30 2859 H 261.862 0.248005 3.87607 0
M  V30 2860 H 263.594 0.447878 4.02214 0
M  V30 2861 H 260.349 2.46695 4.04275 0
M  V30 2862 H 260.773 5.04528 4.5142 0
M  V30 2863 H 265.415 2.3096 3.54143 0
M  V30 2864 H 263.133 6.62866 4.62205 0
M  V30 2865 H 266.719 4.39351 3.81394 0
M  V30 2866 H 265.599 6.52538 4.34929 0
M  V30 2867 N 263.102 -1.41638 0.69111 0
M  V30 2868 C 264.35 -2.00902 0.219758 0
M  V30 2869 C 264.671 -1.54994 -1.18329 0
M  V30 2870 O 263.941 -0.778628 -1.79762 0
M  V30 2871 H 262.521 -0.74289 0.0782558 0
M  V30 2872 H 265.183 -1.73327 0.891271 0
M  V30 2873 H 264.279 -3.11224 0.233708 0
M  V30 2874 N 264.58 -0.43555 -1.51462 0
M  V30 2875 C 265.991 0.0279871 -1.86679 0
M  V30 2876 C 266.342 1.42104 -1.35281 0
M  V30 2877 O 265.467 2.04667 -0.702878 0
M  V30 2878 C 266.062 0.0575626 -3.38751 0
M  V30 2879 C 264.621 0.465507 -3.7351 0
M  V30 2880 C 263.768 -0.342996 -2.75171 0
M  V30 2881 H 266.719 -0.651473 -1.44712 0
M  V30 2882 H 266.74 0.867421 -3.70481 0
M  V30 2883 H 266.252 -0.956448 -3.7613 0
M  V30 2884 H 264.353 1.48519 -3.41721 0
M  V30 2885 H 264.466 0.191546 -4.78717 0
M  V30 2886 H 262.83 0.198442 -2.53926 0
M  V30 2887 H 263.613 -1.35585 -3.15391 0
M  V30 2888 N 266.058 1.56714 -0.166846 0
M  V30 2889 C 267.306 1.96358 0.478305 0
M  V30 2890 C 267.627 1.0537 1.6408 0
M  V30 2891 O 266.897 0.119154 1.95537 0
M  V30 2892 H 265.477 0.725065 0.179692 0
M  V30 2893 H 268.139 1.93329 -0.246985 0
M  V30 2894 H 267.235 3.00547 0.841292 0
M  V30 2895 N 267.536 -0.106894 1.57237 0
M  V30 2896 C 268.764 -0.826389 1.8968 0
M  V30 2897 C 269.179 -1.72856 0.759353 0
M  V30 2898 O 268.536 -1.80503 -0.269263 0
M  V30 2899 C 268.587 -1.64967 3.21665 0
M  V30 2900 O 268.308 -0.783804 4.31031 0
M  V30 2901 C 269.809 -2.47326 3.67892 0
M  V30 2902 H 267.029 -0.236927 0.627779 0
M  V30 2903 H 269.573 -0.0876593 2.04312 0
M  V30 2904 H 267.728 -2.34103 3.08666 0
M  V30 2905 H 268.142 -1.35284 5.06753 0
M  V30 2906 H 269.616 -3.00604 4.6297 0
M  V30 2907 H 270.093 -3.25247 2.95146 0
M  V30 2908 H 270.699 -1.83411 3.83719 0
M  V30 2909 N 269.014 -1.53014 -0.377408 0
M  V30 2910 C 269.944 -1.81589 -1.46791 0
M  V30 2911 C 270.925 -0.668622 -1.56408 0
M  V30 2912 O 272.11 -0.917337 -1.71168 0
M  V30 2913 C 269.24 -1.99519 -2.8427 0
M  V30 2914 C 268.194 -3.15249 -2.89486 0
M  V30 2915 C 267.52 -3.18451 -4.29527 0
M  V30 2916 C 268.82 -4.54084 -2.58079 0
M  V30 2917 H 270.514 -2.7291 -1.23127 0
M  V30 2918 H 268.06 -1.31319 -0.590883 0
M  V30 2919 H 270.013 -2.18092 -3.60575 0
M  V30 2920 H 268.737 -1.04897 -3.09296 0
M  V30 2921 H 267.396 -2.96477 -2.15631 0
M  V30 2922 H 267.044 -2.2149 -4.5161 0
M  V30 2923 H 266.744 -3.962 -4.33934 0
M  V30 2924 H 268.268 -3.39193 -5.07721 0
M  V30 2925 H 269.682 -4.72899 -3.24098 0
M  V30 2926 H 268.079 -5.33987 -2.7382 0
M  V30 2927 H 269.149 -4.60006 -1.53372 0
M  V30 2928 N 270.492 0.636531 -1.44174 0
M  V30 2929 C 271.908 0.954104 -1.27941 0
M  V30 2930 C 272.108 2.0039 -0.211248 0
M  V30 2931 O 271.164 2.49236 0.404695 0
M  V30 2932 C 272.477 1.4225 -2.64925 0
M  V30 2933 C 274.025 1.53827 -2.72592 0
M  V30 2934 C 274.5 2.04053 -4.10032 0
M  V30 2935 N 275.991 2.11331 -4.12182 0
M  V30 2936 C 276.726 2.51352 -5.15374 0
M  V30 2937 N 276.222 2.90549 -6.2893 0
M  V30 2938 N 278.015 2.51438 -5.02728 0
M  V30 2939 H 270.166 -0.0578386 -2.12321 0
M  V30 2940 H 272.429 0.0367406 -0.947288 0
M  V30 2941 H 272.135 0.725466 -3.44136 0
M  V30 2942 H 272.009 2.39451 -2.9145 0
M  V30 2943 H 274.396 2.22628 -1.93702 0
M  V30 2944 H 274.477 0.550154 -2.49814 0
M  V30 2945 H 274.121 1.35848 -4.89395 0
M  V30 2946 H 274.051 3.03726 -4.30184 0
M  V30 2947 H 276.542 1.83745 -3.30222 0
M  V30 2948 H 276.855 3.19884 -7.03487 0
M  V30 2949 H 275.2 2.88313 -6.32377 0
M  V30 2950 H 278.391 2.20203 -4.13072 0
M  V30 2951 H 278.564 2.82304 -5.83274 0
M  V30 2952 N 271.97 1.30982 0.876444 0
M  V30 2953 C 272.9 1.20668 1.99903 0
M  V30 2954 C 273.881 0.095354 1.69833 0
M  V30 2955 O 275.066 0.27885 1.92188 0
M  V30 2956 C 272.196 0.90655 3.3526 0
M  V30 2957 C 271.15 1.97675 3.79617 0
M  V30 2958 C 270.476 1.52943 5.1236 0
M  V30 2959 C 271.776 3.389 3.97422 0
M  V30 2960 H 273.47 2.14586 2.0879 0
M  V30 2961 H 271.016 1.03308 1.00317 0
M  V30 2962 H 272.969 0.821025 4.13324 0
M  V30 2963 H 271.693 -0.0682969 3.26529 0
M  V30 2964 H 270.352 2.05205 3.03787 0
M  V30 2965 H 270 0.54262 5.00065 0
M  V30 2966 H 269.7 2.24532 5.43009 0
M  V30 2967 H 271.224 1.45786 5.92941 0
M  V30 2968 H 272.638 3.34081 4.659 0
M  V30 2969 H 271.035 4.0865 4.3946 0
M  V30 2970 H 272.105 3.80163 3.01006 0
M  V30 2971 N 273.449 -1.08991 1.13837 0
M  V30 2972 C 274.86 -1.62746 0.914917 0
M  V30 2973 C 275.211 -1.88403 -0.547594 0
M  V30 2974 O 274.336 -1.63706 -1.41525 0
M  V30 2975 C 274.931 -2.95662 1.65437 0
M  V30 2976 C 273.49 -3.46225 1.47666 0
M  V30 2977 C 272.637 -2.20562 1.6807 0
M  V30 2978 H 275.588 -0.922946 1.29102 0
M  V30 2979 H 275.609 -3.63825 1.11407 0
M  V30 2980 H 275.121 -2.76956 2.71877 0
M  V30 2981 H 273.222 -3.70046 0.435478 0
M  V30 2982 H 273.335 -4.23368 2.24268 0
M  V30 2983 H 271.699 -2.29439 1.10589 0
M  V30 2984 H 272.482 -2.0437 2.7584 0
M  V30 2985 N 274.927 -0.932562 -1.27047 0
M  V30 2986 C 275.875 -0.42603 -2.28665 0
M  V30 2987 C 276.869 0.49219 -1.62092 0
M  V30 2988 O 278.075 0.371355 -1.76128 0
M  V30 2989 H 274.45 -0.119213 -0.742491 0
M  V30 2990 H 276.421 -1.29579 -2.68797 0
M  V30 2991 C 275.17 0.301426 -3.46391 0
M  V30 2992 H 274.493 -0.39595 -3.97834 0
M  V30 2993 H 275.933 0.6202 -4.1944 0
M  V30 2994 C 274.392 1.51616 -3.00856 0
M  V30 2995 O 274.922 2.61476 -3.04948 0
M  V30 2996 N 273.128 1.36969 -2.56296 0
M  V30 2997 H 272.675 0.475873 -2.53166 0
M  V30 2998 H 272.633 2.18368 -2.26192 0
M  V30 2999 N 276.405 1.4127 -0.698611 0
M  V30 3000 C 277.821 1.55241 -0.370462 0
M  V30 3001 C 278.021 1.67351 1.12231 0
M  V30 3002 O 277.077 1.65363 1.90818 0
M  V30 3003 C 278.39 2.78997 -1.12165 0
M  V30 3004 C 279.938 2.92797 -1.1063 0
M  V30 3005 C 280.413 4.19445 -1.8393 0
M  V30 3006 N 281.904 4.26409 -1.80914 0
M  V30 3007 C 282.639 5.23271 -2.34467 0
M  V30 3008 N 282.135 6.26145 -2.96504 0
M  V30 3009 N 283.928 5.15232 -2.24706 0
M  V30 3010 H 276.079 1.31654 -1.66676 0
M  V30 3011 H 278.342 0.635393 -0.703548 0
M  V30 3012 H 278.048 2.76268 -2.17644 0
M  V30 3013 H 277.922 3.70606 -0.702209 0
M  V30 3014 H 280.309 2.95039 -0.0597713 0
M  V30 3015 H 280.39 2.02353 -1.56483 0
M  V30 3016 H 280.034 4.17964 -2.88563 0
M  V30 3017 H 279.964 5.08866 -1.35509 0
M  V30 3018 H 282.455 3.527 -1.35687 0
M  V30 3019 H 282.768 6.96451 -3.34927 0
M  V30 3020 H 281.113 6.26638 -3.00583 0
M  V30 3021 H 284.304 4.33789 -1.7591 0
M  V30 3022 H 284.477 5.90552 -2.66745 0
M  V30 3023 N 277.883 0.443576 1.51229 0
M  V30 3024 C 278.846 -0.353132 2.26463 0
M  V30 3025 C 279.846 -0.944338 1.3015 0
M  V30 3026 O 281.036 -0.817813 1.5381 0
M  V30 3027 C 278.168 -1.50023 3.06114 0
M  V30 3028 H 279.361 0.3063 2.98332 0
M  V30 3029 H 276.914 0.196902 1.55055 0
M  V30 3030 H 277.649 -2.19553 2.38677 0
M  V30 3031 H 277.434 -1.08241 3.76864 0
M  V30 3032 H 278.924 -2.06296 3.63087 0
M  V30 3033 N 279.361 -1.56624 0.175154 0
M  V30 3034 C 280.291 -2.21155 -0.749195 0
M  V30 3035 C 281.272 -1.16836 -1.23626 0
M  V30 3036 O 282.457 -1.45277 -1.28873 0
M  V30 3037 C 279.587 -2.8553 -1.97711 0
M  V30 3038 C 278.541 -3.95921 -1.62575 0
M  V30 3039 C 277.867 -4.47365 -2.92864 0
M  V30 3040 C 279.167 -5.15323 -0.850838 0
M  V30 3041 H 280.861 -2.98653 -0.211295 0
M  V30 3042 H 278.407 -1.43651 -0.100188 0
M  V30 3043 H 280.36 -3.2935 -2.62881 0
M  V30 3044 H 279.084 -2.05406 -2.53921 0
M  V30 3045 H 277.743 -3.52762 -0.997719 0
M  V30 3046 H 277.391 -3.64027 -3.47122 0
M  V30 3047 H 277.091 -5.21839 -2.70106 0
M  V30 3048 H 278.615 -4.93873 -3.59056 0
M  V30 3049 H 280.029 -5.55812 -1.40521 0
M  V30 3050 H 278.426 -5.95739 -0.722154 0
M  V30 3051 H 279.496 -4.84661 0.152082 0
M  V30 3052 N 280.839 0.0985539 -1.57292 0
M  V30 3053 C 281.769 1.12064 -2.04851 0
M  V30 3054 C 282.75 1.41981 -0.936767 0
M  V30 3055 O 283.935 1.52071 -1.20781 0
M  V30 3056 C 281.065 2.44144 -2.47004 0
M  V30 3057 C 280.019 2.28643 -3.6181 0
M  V30 3058 C 279.345 3.65869 -3.89929 0
M  V30 3059 C 280.645 1.72986 -4.92822 0
M  V30 3060 H 282.339 0.724979 -2.9049 0
M  V30 3061 H 279.885 0.34729 -1.39749 0
M  V30 3062 H 281.838 3.15914 -2.78884 0
M  V30 3063 H 280.562 2.85639 -1.5836 0
M  V30 3064 H 279.221 1.59318 -3.30172 0
M  V30 3065 H 278.869 4.04885 -2.98458 0
M  V30 3066 H 278.569 3.56344 -4.67218 0
M  V30 3067 H 280.093 4.39112 -4.2428 0
M  V30 3068 H 281.507 2.34593 -5.23105 0
M  V30 3069 H 279.904 1.74229 -5.74251 0
M  V30 3070 H 280.974 0.689007 -4.7998 0
M  V30 3071 N 282.317 1.53212 0.369288 0
M  V30 3072 C 283.563 1.69466 1.11397 0
M  V30 3073 C 283.896 0.443257 1.89074 0
M  V30 3074 O 283.171 -0.559386 1.86282 0
M  V30 3075 C 283.454 2.9422 2.07621 0
M  V30 3076 C 283.307 4.29508 1.33577 0
M  V30 3077 C 284.626 3.14565 3.07794 0
M  V30 3078 H 281.745 0.616667 0.403597 0
M  V30 3079 H 284.387 1.85845 0.395179 0
M  V30 3080 H 282.537 2.80387 2.68916 0
M  V30 3081 H 284.209 4.55147 0.750955 0
M  V30 3082 H 282.452 4.29088 0.637618 0
M  V30 3083 H 283.123 5.12926 2.03989 0
M  V30 3084 H 285.599 3.2756 2.56601 0
M  V30 3085 H 284.475 4.03297 3.72348 0
M  V30 3086 H 284.736 2.29675 3.77759 0
M  V30 3087 N 283.795 -0.628877 1.44509 0
M  V30 3088 C 284.743 -1.76193 1.51852 0
M  V30 3089 C 285.737 -1.64849 0.390042 0
M  V30 3090 O 286.943 -1.709 0.565082 0
M  V30 3091 H 283.318 -0.581728 0.476547 0
M  V30 3092 H 285.289 -1.67123 2.47209 0
M  V30 3093 C 284.038 -3.14533 1.48204 0
M  V30 3094 H 283.361 -3.23911 2.34354 0
M  V30 3095 H 284.801 -3.93701 1.57402 0
M  V30 3096 C 283.26 -3.36287 0.203142 0
M  V30 3097 O 283.79 -3.9509 -0.725745 0
M  V30 3098 N 281.996 -2.90408 0.105563 0
M  V30 3099 H 281.543 -2.42739 0.862301 0
M  V30 3100 H 281.501 -3.05339 -0.749371 0
M  V30 3101 N 285.273 -1.31445 -0.869486 0
M  V30 3102 C 286.519 -1.21337 -1.62496 0
M  V30 3103 C 286.852 0.227872 -1.92858 0
M  V30 3104 O 286.127 1.16094 -1.56053 0
M  V30 3105 C 286.41 -2.05814 -2.95487 0
M  V30 3106 C 286.263 -3.5824 -2.72 0
M  V30 3107 C 287.582 -1.9079 -3.96594 0
M  V30 3108 H 284.701 -0.442135 -0.589649 0
M  V30 3109 H 287.343 -1.6124 -1.00507 0
M  V30 3110 H 285.493 -1.71913 -3.48394 0
M  V30 3111 H 287.165 -4.0228 -2.25762 0
M  V30 3112 H 285.408 -3.81647 -2.06224 0
M  V30 3113 H 286.079 -4.12657 -3.66631 0
M  V30 3114 H 288.555 -2.20459 -3.52898 0
M  V30 3115 H 287.431 -2.52199 -4.87531 0
M  V30 3116 H 287.692 -0.871341 -4.33428 0
M  V30 3117 N 286.751 1.08385 -1.14413 0
M  V30 3118 C 287.698 2.15311 -0.831265 0
M  V30 3119 C 288.668 1.64751 0.211292 0
M  V30 3120 O 289.853 1.90627 0.0811674 0
M  V30 3121 C 286.993 3.43658 -0.315143 0
M  V30 3122 C 286.106 4.08064 -1.41802 0
M  V30 3123 C 285.241 5.24207 -0.859126 0
M  V30 3124 C 284.28 5.80554 -1.93967 0
M  V30 3125 N 283.417 6.88042 -1.39793 0
M  V30 3126 H 288.257 2.41415 -1.74708 0
M  V30 3127 H 285.794 1.18474 -0.871909 0
M  V30 3128 H 287.752 4.172 0.00230884 0
M  V30 3129 H 286.382 3.17839 0.56378 0
M  V30 3130 H 285.434 3.3228 -1.85187 0
M  V30 3131 H 286.746 4.45962 -2.23427 0
M  V30 3132 H 285.9 6.04689 -0.49359 0
M  V30 3133 H 284.639 4.87699 -0.011932 0
M  V30 3134 H 283.644 4.98725 -2.31415 0
M  V30 3135 H 284.869 6.19121 -2.79046 0
M  V30 3136 H 282.815 6.53493 -0.572919 0
M  V30 3137 H 282.732 7.24767 -2.15054 0
M  V30 3138 H 284 7.72255 -1.0603 0
M  V30 3139 N 288.23 0.939286 1.26551 0
M  V30 3140 C 289.477 0.585847 1.9384 0
M  V30 3141 C 289.805 -0.874784 1.73718 0
M  V30 3142 O 289.06 -1.64092 1.06642 0
M  V30 3143 C 289.359 0.872106 3.46596 0
M  V30 3144 C 289.025 2.31632 3.86856 0
M  V30 3145 C 287.687 2.71111 3.97558 0
M  V30 3146 C 290.039 3.25494 4.07066 0
M  V30 3147 C 287.367 4.03553 4.25866 0
M  V30 3148 C 289.719 4.57531 4.36862 0
M  V30 3149 C 288.383 4.96828 4.45778 0
M  V30 3150 H 287.653 0.214377 0.709312 0
M  V30 3151 H 290.3 1.18544 1.50398 0
M  V30 3152 H 288.605 0.18996 3.91339 0
M  V30 3153 H 290.302 0.577442 3.96821 0
M  V30 3154 H 286.892 2.00008 3.79071 0
M  V30 3155 H 291.076 2.9619 3.98227 0
M  V30 3156 H 286.332 4.33665 4.30981 0
M  V30 3157 H 290.506 5.30254 4.51446 0
M  V30 3158 H 288.133 5.99482 4.67468 0
M  V30 3159 N 289.708 -1.40897 0.706093 0
M  V30 3160 C 290.618 -2.3455 0.0482286 0
M  V30 3161 C 291.634 -1.56796 -0.754396 0
M  V30 3162 O 292.81 -1.89228 -0.689538 0
M  V30 3163 C 289.875 -3.35625 -0.869303 0
M  V30 3164 C 288.936 -4.29261 -0.0576994 0
M  V30 3165 C 288.169 -5.25508 -0.931531 0
M  V30 3166 O 288.392 -5.27472 -2.17092 0
M  V30 3167 O 287.326 -6.00727 -0.375587 0
M  V30 3168 H 291.152 -2.92407 0.820476 0
M  V30 3169 H 288.737 -1.4193 0.4665 0
M  V30 3170 H 290.619 -3.97635 -1.39514 0
M  V30 3171 H 289.294 -2.80196 -1.62086 0
M  V30 3172 H 288.201 -3.70566 0.512988 0
M  V30 3173 H 289.534 -4.87817 0.655426 0
M  V30 3174 N 291.186 -0.45159 -1.50991 0
M  V30 3175 C 292.434 0.109857 -2.01801 0
M  V30 3176 C 292.755 1.41958 -1.3369 0
M  V30 3177 O 292.025 1.9003 -0.475951 0
M  V30 3178 H 290.605 0.0435884 -0.745727 0
M  V30 3179 H 293.267 -0.597557 -1.85514 0
M  V30 3180 H 292.363 0.275489 -3.10882 0
M  V30 3181 N 292.664 1.56529 -0.183458 0
M  V30 3182 C 293.889 2.02064 0.467428 0
M  V30 3183 C 294.314 1.06282 1.55196 0
M  V30 3184 O 293.672 0.0443565 1.81246 0
M  V30 3185 C 293.72 3.46122 1.01153 0
M  V30 3186 O 292.824 3.53437 2.12499 0
M  V30 3187 H 292.165 0.654726 0.110588 0
M  V30 3188 H 294.695 2.02521 -0.290917 0
M  V30 3189 H 294.705 3.85676 1.33108 0
M  V30 3190 H 293.38 4.15331 0.217533 0
M  V30 3191 H 291.957 3.2575 1.81497 0
M  V30 3192 N 294.142 -0.090211 1.57342 0
M  V30 3193 C 295.052 -1.12735 2.05738 0
M  V30 3194 C 296.068 -1.43557 0.983231 0
M  V30 3195 O 297.244 -1.54101 1.29672 0
M  V30 3196 C 294.309 -2.42659 2.47624 0
M  V30 3197 C 293.37 -2.18975 3.69254 0
M  V30 3198 C 292.603 -3.42704 4.09133 0
M  V30 3199 O 292.826 -4.51127 3.49057 0
M  V30 3200 O 291.76 -3.32003 5.02053 0
M  V30 3201 H 295.586 -0.746279 2.94388 0
M  V30 3202 H 293.171 -0.303064 1.46294 0
M  V30 3203 H 295.053 -3.19155 2.7517 0
M  V30 3204 H 293.728 -2.80182 1.62109 0
M  V30 3205 H 292.635 -1.40244 3.46818 0
M  V30 3206 H 293.968 -1.86342 4.55563 0
M  V30 3207 N 295.62 -1.53406 -0.361157 0
M  V30 3208 C 296.53 -1.83122 -1.4664 0
M  V30 3209 C 297.546 -0.719943 -1.58407 0
M  V30 3210 O 298.722 -1.01046 -1.74218 0
M  V30 3211 C 295.787 -2.01891 -2.81853 0
M  V30 3212 C 294.848 -3.25784 -2.79577 0
M  V30 3213 C 294.081 -3.43648 -4.0834 0
M  V30 3214 O 294.304 -2.65714 -5.0473 0
M  V30 3215 O 293.238 -4.37018 -4.13883 0
M  V30 3216 H 297.064 -2.7703 -1.24451 0
M  V30 3217 H 294.649 -1.38841 -0.551678 0
M  V30 3218 H 296.531 -2.15782 -3.61962 0
M  V30 3219 H 295.206 -1.11173 -3.0401 0
M  V30 3220 H 294.113 -3.17312 -1.98151 0
M  V30 3221 H 295.446 -4.16439 -2.62373 0
M  V30 3222 N 297.098 0.621204 -1.44841 0
M  V30 3223 C 298.323 1.41244 -1.51871 0
M  V30 3224 C 298.748 1.87519 -0.147764 0
M  V30 3225 O 298.106 1.59334 0.865 0
M  V30 3226 C 298.154 2.60221 -2.49634 0
M  V30 3227 O 297.258 3.60395 -2.00473 0
M  V30 3228 H 296.599 0.42223 -0.512463 0
M  V30 3229 H 299.129 0.757305 -1.90069 0
M  V30 3230 H 299.139 3.0764 -2.67996 0
M  V30 3231 H 297.814 2.25887 -3.4921 0
M  V30 3232 H 296.391 3.19717 -1.91925 0
M  V30 3233 N 298.576 1.31904 0.862503 0
M  V30 3234 C 299.823 1.22017 1.61611 0
M  V30 3235 C 300.151 -0.21991 1.93253 0
M  V30 3236 O 299.406 -1.17076 1.56817 0
M  V30 3237 C 299.705 2.01713 2.95037 0
M  V30 3238 C 299.371 3.51145 2.82857 0
M  V30 3239 C 298.033 3.91889 2.79243 0
M  V30 3240 C 300.385 4.46204 2.69353 0
M  V30 3241 C 297.713 5.25947 2.59993 0
M  V30 3242 C 300.065 5.80397 2.5164 0
M  V30 3243 C 298.729 6.20352 2.46413 0
M  V30 3244 H 297.999 0.44649 0.591378 0
M  V30 3245 H 300.646 1.63248 1.00111 0
M  V30 3246 H 298.951 1.53185 3.60613 0
M  V30 3247 H 300.648 1.91437 3.52353 0
M  V30 3248 H 297.238 3.1878 2.86491 0
M  V30 3249 H 301.422 4.15652 2.71196 0
M  V30 3250 H 296.678 5.5597 2.54376 0
M  V30 3251 H 300.852 6.53676 2.40169 0
M  V30 3252 H 298.479 7.24172 2.31256 0
M  V30 3253 N 300.054 -1.07777 1.14986 0
M  V30 3254 C 301.282 -1.84018 0.945773 0
M  V30 3255 C 301.697 -1.81897 -0.505863 0
M  V30 3256 O 301.054 -1.22726 -1.35072 0
M  V30 3257 C 301.105 -3.31287 1.44677 0
M  V30 3258 O 300.826 -3.33449 2.84154 0
M  V30 3259 C 302.327 -4.24311 1.28355 0
M  V30 3260 H 299.547 -0.580716 0.336169 0
M  V30 3261 H 302.091 -1.36077 1.52654 0
M  V30 3262 H 300.246 -3.76594 0.908625 0
M  V30 3263 H 300.66 -4.25427 3.06777 0
M  V30 3264 H 302.134 -5.2573 1.68261 0
M  V30 3265 H 302.611 -4.38612 0.227184 0
M  V30 3266 H 303.217 -3.84836 1.81056 0
M  V30 3267 N 301.532 -0.945985 -1.26051 0
M  V30 3268 C 302.779 -0.596118 -1.93527 0
M  V30 3269 C 303.107 0.865559 -1.74179 0
M  V30 3270 O 302.362 1.63524 -1.0751 0
M  V30 3271 C 302.661 -0.890475 -3.46129 0
M  V30 3272 C 302.327 -2.3368 -3.85622 0
M  V30 3273 C 300.989 -2.73216 -3.96114 0
M  V30 3274 C 303.341 -3.27648 -4.05334 0
M  V30 3275 C 300.669 -4.05806 -4.2372 0
M  V30 3276 C 303.021 -4.59841 -4.3443 0
M  V30 3277 C 301.685 -4.99185 -4.43137 0
M  V30 3278 H 300.955 -0.218135 -0.708165 0
M  V30 3279 H 303.602 -1.1934 -1.49768 0
M  V30 3280 H 301.907 -0.210711 -3.91233 0
M  V30 3281 H 303.604 -0.598478 -3.96509 0
M  V30 3282 H 300.194 -2.02015 -3.78005 0
M  V30 3283 H 304.378 -2.98298 -3.96651 0
M  V30 3284 H 299.634 -4.35945 -4.28675 0
M  V30 3285 H 303.808 -5.32641 -4.48628 0
M  V30 3286 H 301.435 -6.01952 -4.64282 0
M  V30 3287 N 303.011 1.40521 -0.713556 0
M  V30 3288 C 303.943 2.29191 -0.0203126 0
M  V30 3289 C 304.956 1.45723 0.725864 0
M  V30 3290 O 306.145 1.69033 0.573581 0
M  V30 3291 C 303.245 3.2395 0.995486 0
M  V30 3292 C 302.418 4.36262 0.315256 0
M  V30 3293 C 301.477 5.11474 1.23616 0
M  V30 3294 O 300.503 5.64606 0.721719 0
M  V30 3295 N 301.705 5.20638 2.56743 0
M  V30 3296 H 304.47 2.89327 -0.781652 0
M  V30 3297 H 302.031 1.51869 -0.561022 0
M  V30 3298 H 304.023 3.71137 1.61368 0
M  V30 3299 H 302.593 2.64995 1.6582 0
M  V30 3300 H 301.813 3.91228 -0.483106 0
M  V30 3301 H 303.101 5.08558 -0.157004 0
M  V30 3302 H 302.499 4.7895 3.01037 0
M  V30 3303 H 301.056 5.71339 3.13712 0
M  V30 3304 N 304.489 0.459591 1.5075 0
M  V30 3305 C 305.735 -0.0994966 2.02556 0
M  V30 3306 C 306.068 -1.40399 1.3417 0
M  V30 3307 O 305.343 -1.88892 0.463683 0
M  V30 3308 C 305.626 -0.295242 3.58888 0
M  V30 3309 C 305.479 1.02947 4.37861 0
M  V30 3310 C 306.798 -1.05502 4.27267 0
M  V30 3311 H 303.917 -0.034686 0.736183 0
M  V30 3312 H 306.559 0.602938 1.8018 0
M  V30 3313 H 304.709 -0.893563 3.78084 0
M  V30 3314 H 306.381 1.66348 4.30263 0
M  V30 3315 H 304.624 1.62885 4.02058 0
M  V30 3316 H 305.295 0.846281 5.45474 0
M  V30 3317 H 307.771 -0.547993 4.12476 0
M  V30 3318 H 306.647 -1.16077 5.36486 0
M  V30 3319 H 306.908 -2.08875 3.89645 0
M  V30 3320 N 305.967 -1.56429 0.191757 0
M  V30 3321 C 307.192 -2.02309 -0.456706 0
M  V30 3322 C 307.617 -1.07103 -1.5463 0
M  V30 3323 O 306.975 -0.0539677 -1.8122 0
M  V30 3324 C 307.023 -3.46654 -0.993159 0
M  V30 3325 O 306.127 -3.54559 -2.10622 0
M  V30 3326 H 305.468 -0.655303 -0.107114 0
M  V30 3327 H 307.998 -2.02364 0.301653 0
M  V30 3328 H 308.008 -3.86377 -1.31061 0
M  V30 3329 H 306.683 -4.1544 -0.195504 0
M  V30 3330 H 305.26 -3.26708 -1.79767 0
M  V30 3331 N 307.445 0.0818655 -1.57387 0
M  V30 3332 C 308.673 0.796108 -1.9097 0
M  V30 3333 C 309.088 1.71626 -0.786757 0
M  V30 3334 O 308.445 1.80908 0.240513 0
M  V30 3335 C 308.496 1.59829 -3.24248 0
M  V30 3336 O 308.217 0.715131 -4.32224 0
M  V30 3337 C 309.718 2.41442 -3.7178 0
M  V30 3338 H 306.938 0.22691 -0.631469 0
M  V30 3339 H 309.482 0.0551439 -2.04426 0
M  V30 3340 H 307.637 2.29163 -3.12351 0
M  V30 3341 H 308.051 1.27205 -5.08841 0
M  V30 3342 H 309.525 2.932 -4.67694 0
M  V30 3343 H 310.002 3.2051 -3.00283 0
M  V30 3344 H 310.608 1.77283 -3.86589 0
M  V30 3345 N 308.923 1.53595 0.353017 0
M  V30 3346 C 309.87 1.80919 1.43308 0
M  V30 3347 C 310.84 0.654288 1.5267 0
M  V30 3348 O 312.025 0.897759 1.6836 0
M  V30 3349 C 309.165 2.01605 2.80089 0
M  V30 3350 C 308.278 3.29321 2.79593 0
M  V30 3351 C 307.413 3.40125 4.0803 0
M  V30 3352 C 306.452 4.61826 4.01725 0
M  V30 3353 N 305.589 4.69716 5.21834 0
M  V30 3354 H 310.429 2.73074 1.19308 0
M  V30 3355 H 307.966 1.35263 0.578131 0
M  V30 3356 H 309.924 2.11586 3.59565 0
M  V30 3357 H 308.554 1.12772 3.0246 0
M  V30 3358 H 307.606 3.28229 1.92276 0
M  V30 3359 H 308.918 4.18884 2.70809 0
M  V30 3360 H 308.072 3.49488 4.95927 0
M  V30 3361 H 306.811 2.48601 4.19582 0
M  V30 3362 H 305.816 4.52552 3.12213 0
M  V30 3363 H 307.041 5.54705 3.91764 0
M  V30 3364 H 304.987 3.81097 5.33948 0
M  V30 3365 H 304.904 5.53202 5.1527 0
M  V30 3366 H 306.172 4.83376 6.11529 0
M  V30 3367 N 310.401 -0.613514 1.45168 0
M  V30 3368 C 311.678 -1.37263 1.39349 0
M  V30 3369 C 312.058 -2.11012 0.0610848 0
M  V30 3370 O 311.406 -2.07502 -0.956825 0
M  V30 3371 C 311.616 -2.3244 2.60332 0
M  V30 3372 C 312.964 -2.9523 3.05163 0
M  V30 3373 O 313.988 -2.42762 2.60663 0
M  V30 3374 O 312.847 -3.90454 3.82372 0
M  V30 3375 H 309.941 -0.615188 0.552696 0
M  V30 3376 H 312.487 -0.637097 1.57287 0
M  V30 3377 H 311.259 -1.77164 3.48896 0
M  V30 3378 H 310.882 -3.13383 2.44698 0
M  V30 3379 N 311.879 -1.3236 -0.855495 0
M  V30 3380 C 313.125 -1.23054 -1.612 0
M  V30 3381 C 313.458 0.207404 -1.93089 0
M  V30 3382 O 312.733 1.14432 -1.57275 0
M  V30 3383 C 313.016 -2.08937 -2.93287 0
M  V30 3384 C 312.869 -3.61105 -2.68185 0
M  V30 3385 C 314.188 -1.94986 -3.94549 0
M  V30 3386 H 311.307 -0.448364 -0.584926 0
M  V30 3387 H 313.949 -1.62297 -0.987917 0
M  V30 3388 H 312.099 -1.75599 -3.46551 0
M  V30 3389 H 313.771 -4.04652 -2.21483 0
M  V30 3390 H 312.014 -3.83813 -2.02164 0
M  V30 3391 H 312.685 -4.16522 -3.62234 0
M  V30 3392 H 315.161 -2.24189 -3.5054 0
M  V30 3393 H 314.037 -2.57356 -4.84829 0
M  V30 3394 H 314.298 -0.917263 -4.3248 0
M  V30 3395 N 313.357 1.07166 -1.15556 0
M  V30 3396 C 314.768 1.6127 -0.940693 0
M  V30 3397 C 315.119 1.89251 0.517551 0
M  V30 3398 O 314.244 1.65937 1.38903 0
M  V30 3399 C 314.839 2.92993 -1.7012 0
M  V30 3400 C 313.398 3.43832 -1.53156 0
M  V30 3401 C 312.545 2.1786 -1.71558 0
M  V30 3402 H 315.496 0.90229 -1.30554 0
M  V30 3403 H 315.517 3.62007 -1.17181 0
M  V30 3404 H 315.029 2.72596 -2.76248 0
M  V30 3405 H 313.13 3.69307 -0.494294 0
M  V30 3406 H 313.243 4.19747 -2.30975 0
M  V30 3407 H 311.607 2.2765 -1.14225 0
M  V30 3408 H 312.39 1.99956 -2.79056 0
M  V30 3409 N 314.835 0.952656 1.25548 0
M  V30 3410 C 315.765 0.489287 2.28316 0
M  V30 3411 C 316.746 -0.463359 1.63667 0
M  V30 3412 O 317.931 -0.36274 1.90782 0
M  V30 3413 C 315.061 -0.235603 3.465 0
M  V30 3414 C 314.015 0.631593 4.23314 0
M  V30 3415 C 313.341 -0.223923 5.34231 0
M  V30 3416 C 314.641 1.90871 4.86174 0
M  V30 3417 H 316.335 1.34822 2.67326 0
M  V30 3418 H 313.881 0.649728 1.28509 0
M  V30 3419 H 315.834 -0.570882 4.17515 0
M  V30 3420 H 314.558 -1.12877 3.06474 0
M  V30 3421 H 313.217 0.949929 3.54079 0
M  V30 3422 H 312.865 -1.11678 4.90446 0
M  V30 3423 H 312.565 0.35299 5.86539 0
M  V30 3424 H 314.089 -0.554214 6.0808 0
M  V30 3425 H 315.503 1.63997 5.49343 0
M  V30 3426 H 313.9 2.43112 5.4865 0
M  V30 3427 H 314.97 2.61304 4.08471 0
M  V30 3428 N 316.313 -1.40141 0.720998 0
M  V30 3429 C 317.276 -2.29058 0.0805834 0
M  V30 3430 C 318.276 -1.45632 -0.681758 0
M  V30 3431 O 319.466 -1.6648 -0.512856 0
M  V30 3432 C 316.598 -3.28925 -0.895593 0
M  V30 3433 H 317.791 -2.87191 0.863793 0
M  V30 3434 H 315.344 -1.48553 0.485975 0
M  V30 3435 H 316.079 -2.75822 -1.70566 0
M  V30 3436 H 315.864 -3.90519 -0.351766 0
M  V30 3437 H 317.354 -3.95494 -1.34069 0
M  V30 3438 N 317.792 -0.46758 -1.50504 0
M  V30 3439 C 318.722 0.318381 -2.31319 0
M  V30 3440 C 319.703 0.993564 -1.38066 0
M  V30 3441 O 320.888 0.991411 -1.66987 0
M  V30 3442 C 318.018 1.40275 -3.17711 0
M  V30 3443 C 316.972 0.849373 -4.19487 0
M  V30 3444 C 316.298 2.03177 -4.94594 0
M  V30 3445 C 317.598 -0.136942 -5.2212 0
M  V30 3446 H 319.292 -0.356106 -2.97275 0
M  V30 3447 H 316.838 -0.172703 -1.42961 0
M  V30 3448 H 318.791 1.96004 -3.73042 0
M  V30 3449 H 317.515 2.10596 -2.49634 0
M  V30 3450 H 316.174 0.314076 -3.65252 0
M  V30 3451 H 315.822 2.72187 -4.22993 0
M  V30 3452 H 315.522 1.66774 -5.63436 0
M  V30 3453 H 317.046 2.59403 -5.52759 0
M  V30 3454 H 318.46 0.331056 -5.72343 0
M  V30 3455 H 316.857 -0.41507 -5.98663 0
M  V30 3456 H 317.927 -1.06398 -4.73083 0
M  V30 3457 N 319.27 1.56325 -0.20005 0
M  V30 3458 C 320.203 2.15234 0.758267 0
M  V30 3459 C 321.181 1.09046 1.20614 0
M  V30 3460 O 322.365 1.37186 1.29276 0
M  V30 3461 C 319.492 2.71524 2.02466 0
M  V30 3462 C 318.538 3.90345 1.71852 0
M  V30 3463 S 319.371 5.28513 0.862249 0
M  V30 3464 C 320.527 5.88227 2.13868 0
M  V30 3465 H 320.76 2.96183 0.2575 0
M  V30 3466 H 318.293 1.54393 0.0150099 0
M  V30 3467 H 320.251 3.04598 2.75191 0
M  V30 3468 H 318.912 1.90607 2.49655 0
M  V30 3469 H 318.105 4.28158 2.65888 0
M  V30 3470 H 317.707 3.58306 1.07205 0
M  V30 3471 H 319.999 6.02891 3.09076 0
M  V30 3472 H 320.942 6.84714 1.80479 0
M  V30 3473 H 321.35 5.16874 2.2694 0
M  V30 3474 N 320.748 -0.0735177 1.57428 0
M  V30 3475 C 321.711 -1.07192 2.02589 0
M  V30 3476 C 322.711 -1.31695 0.922661 0
M  V30 3477 O 323.901 -1.27445 1.18758 0
M  V30 3478 C 321.033 -2.41599 2.40506 0
M  V30 3479 H 322.226 -0.682727 2.92025 0
M  V30 3480 H 319.779 -0.319193 1.53006 0
M  V30 3481 H 320.514 -2.85354 1.5409 0
M  V30 3482 H 320.299 -2.25156 3.21009 0
M  V30 3483 H 321.789 -3.13367 2.76027 0
M  V30 3484 N 322.226 -1.5378 -0.344866 0
M  V30 3485 C 323.466 -1.72677 -1.09371 0
M  V30 3486 C 323.83 -0.479084 -1.85927 0
M  V30 3487 O 325.031 -0.54505 -2.63216 0
M  V30 3488 C 323.302 -2.95457 -2.01097 0
M  V30 3489 S 324.861 -3.35158 -2.83222 0
M  V30 3490 H 321.679 -0.607402 -0.369573 0
M  V30 3491 H 324.281 -1.91922 -0.372307 0
M  V30 3492 H 322.985 -3.84437 -1.43655 0
M  V30 3493 H 322.516 -2.78673 -2.77678 0
M  V30 3494 H 324.531 -2.88789 -4.03504 0
M  V30 3495 N 323.704 0.605807 -1.45491 0
M  V30 3496 C 324.667 1.69836 -1.5391 0
M  V30 3497 C 325.667 1.55261 -0.418424 0
M  V30 3498 O 326.857 1.60296 -0.681965 0
M  V30 3499 C 323.989 3.09117 -1.43734 0
M  V30 3500 H 325.182 1.63738 -2.51257 0
M  V30 3501 H 322.735 0.821689 -1.32959 0
M  V30 3502 H 323.47 3.20791 -0.475788 0
M  V30 3503 H 323.255 3.21104 -2.25021 0
M  V30 3504 H 324.745 3.88696 -1.52661 0
M  V30 3505 N 325.182 1.32811 0.848464 0
M  V30 3506 C 326.112 1.24882 1.97299 0
M  V30 3507 C 327.093 0.131357 1.69592 0
M  V30 3508 O 328.278 0.319553 1.91553 0
M  V30 3509 C 325.408 0.97746 3.33261 0
M  V30 3510 C 324.362 2.05682 3.75338 0
M  V30 3511 C 323.688 1.63777 5.09 0
M  V30 3512 C 324.988 3.47254 3.90144 0
M  V30 3513 H 326.682 2.18966 2.04191 0
M  V30 3514 H 324.228 1.05413 0.981029 0
M  V30 3515 H 326.181 0.908513 4.1149 0
M  V30 3516 H 324.905 0.000980011 3.266 0
M  V30 3517 H 323.564 2.11603 2.99366 0
M  V30 3518 H 323.212 0.648569 4.98801 0
M  V30 3519 H 322.912 2.36 5.38124 0
M  V30 3520 H 324.436 1.5833 5.89715 0
M  V30 3521 H 325.85 3.43888 4.58709 0
M  V30 3522 H 324.247 4.1788 4.30693 0
M  V30 3523 H 325.317 3.86462 2.92874 0
M  V30 3524 N 326.66 -1.06551 1.16123 0
M  V30 3525 C 328.076 -1.3142 0.905585 0
M  V30 3526 C 328.276 -1.96571 -0.442964 0
M  V30 3527 O 327.332 -2.23068 -1.18308 0
M  V30 3528 C 328.645 -2.19741 2.05267 0
M  V30 3529 C 330.193 -2.33165 2.08813 0
M  V30 3530 C 330.668 -3.24838 3.22868 0
M  V30 3531 N 332.159 -3.32421 3.22568 0
M  V30 3532 C 332.894 -4.0344 4.0746 0
M  V30 3533 N 332.39 -4.77003 5.02434 0
M  V30 3534 N 334.183 -3.99464 3.95456 0
M  V30 3535 H 326.334 -0.626548 2.02949 0
M  V30 3536 H 328.597 -0.338777 0.8854 0
M  V30 3537 H 328.303 -1.79142 3.02657 0
M  V30 3538 H 328.177 -3.20313 1.99198 0
M  V30 3539 H 330.564 -2.73013 1.12018 0
M  V30 3540 H 330.645 -1.3227 2.18948 0
M  V30 3541 H 330.289 -2.85708 4.19921 0
M  V30 3542 H 330.219 -4.25707 3.0997 0
M  V30 3543 H 332.71 -2.79994 2.53795 0
M  V30 3544 H 333.023 -5.28712 5.63634 0
M  V30 3545 H 331.368 -4.75992 5.06415 0
M  V30 3546 H 334.559 -3.4111 3.20564 0
M  V30 3547 H 334.732 -4.54544 4.61837 0
M  V30 3548 N 328.138 -0.959301 -1.25041 0
M  V30 3549 C 329.085 -0.482057 -2.2571 0
M  V30 3550 C 330.055 0.467939 -1.59372 0
M  V30 3551 O 331.24 0.380159 -1.86974 0
M  V30 3552 C 328.38 0.229623 -3.44335 0
M  V30 3553 C 327.493 -0.758156 -4.25295 0
M  V30 3554 C 326.628 -0.0234403 -5.31195 0
M  V30 3555 C 325.667 -1.00184 -6.03846 0
M  V30 3556 N 324.804 -0.29769 -7.01469 0
M  V30 3557 H 329.644 -1.34538 -2.65901 0
M  V30 3558 H 327.181 -0.674592 -1.3072 0
M  V30 3559 H 329.139 0.658856 -4.11965 0
M  V30 3560 H 327.769 1.05696 -3.05005 0
M  V30 3561 H 326.821 -1.30586 -3.57284 0
M  V30 3562 H 328.133 -1.50458 -4.75567 0
M  V30 3563 H 327.287 0.464201 -6.04922 0
M  V30 3564 H 326.026 0.755741 -4.81809 0
M  V30 3565 H 325.031 -1.50044 -5.2893 0
M  V30 3566 H 326.256 -1.78133 -6.55321 0
M  V30 3567 H 324.202 0.462668 -6.54366 0
M  V30 3568 H 324.119 -0.983128 -7.4958 0
M  V30 3569 H 325.387 0.16826 -7.79318 0
M  V30 3570 N 329.616 1.39756 -0.72842 0
M  V30 3571 C 330.563 2.30647 -0.0841519 0
M  V30 3572 C 331.533 1.48869 0.7367 0
M  V30 3573 O 332.718 1.77574 0.698015 0
M  V30 3574 C 329.858 3.35165 0.822091 0
M  V30 3575 C 328.971 4.31999 -0.0106663 0
M  V30 3576 C 328.106 5.23585 0.896241 0
M  V30 3577 C 327.145 6.12072 0.0583381 0
M  V30 3578 N 326.282 6.96035 0.920818 0
M  V30 3579 H 331.122 2.85173 -0.864891 0
M  V30 3580 H 328.659 1.40422 -0.438179 0
M  V30 3581 H 330.617 3.94345 1.36189 0
M  V30 3582 H 329.247 2.8211 1.56888 0
M  V30 3583 H 328.299 3.74492 -0.66781 0
M  V30 3584 H 329.611 4.9443 -0.658825 0
M  V30 3585 H 328.765 5.87759 1.50412 0
M  V30 3586 H 327.504 4.61459 1.57819 0
M  V30 3587 H 326.509 5.46916 -0.562389 0
M  V30 3588 H 327.734 6.76261 -0.6203 0
M  V30 3589 H 325.68 6.36485 1.58818 0
M  V30 3590 H 325.597 7.55284 0.32899 0
M  V30 3591 H 326.865 7.64646 1.51447 0
M  V30 3592 N 331.094 0.475555 1.50254 0
M  V30 3593 C 332.057 -0.305016 2.27161 0
M  V30 3594 C 333.057 -0.916519 1.32123 0
M  V30 3595 O 334.247 -0.785003 1.5551 0
M  V30 3596 C 331.379 -1.43496 3.09227 0
M  V30 3597 H 332.572 0.369511 2.97615 0
M  V30 3598 H 330.125 0.229747 1.54602 0
M  V30 3599 H 330.86 -2.14441 2.43281 0
M  V30 3600 H 330.645 -1.00223 3.79075 0
M  V30 3601 H 332.135 -1.98548 3.67381 0
M  V30 3602 N 332.573 -1.56217 0.208337 0
M  V30 3603 C 333.801 -2.02337 -0.43215 0
M  V30 3604 C 334.216 -1.08834 -1.54275 0
M  V30 3605 O 333.573 -0.0955462 -1.8225 0
M  V30 3606 C 333.624 -3.48072 -0.976138 0
M  V30 3607 O 333.345 -4.38007 0.0901621 0
M  V30 3608 C 334.846 -4.09773 -1.69119 0
M  V30 3609 H 332.066 -0.662385 -0.10718 0
M  V30 3610 H 334.61 -2.01966 0.320923 0
M  V30 3611 H 332.765 -3.49099 -1.67954 0
M  V30 3612 H 333.179 -5.23543 -0.316701 0
M  V30 3613 H 334.653 -5.13556 -2.02397 0
M  V30 3614 H 335.13 -3.53999 -2.59964 0
M  V30 3615 H 335.736 -4.12556 -1.03332 0
M  V30 3616 N 334.051 0.0651679 -1.57465 0
M  V30 3617 C 335.297 0.764193 -1.87851 0
M  V30 3618 C 335.63 1.76889 -0.801495 0
M  V30 3619 O 334.905 1.93594 0.187528 0
M  V30 3620 C 335.188 1.46625 -3.28897 0
M  V30 3621 C 335.041 0.477515 -4.47258 0
M  V30 3622 C 336.36 2.4095 -3.68281 0
M  V30 3623 H 333.479 0.276351 -0.683227 0
M  V30 3624 H 336.121 0.0272868 -1.8998 0
M  V30 3625 H 334.271 2.09438 -3.27212 0
M  V30 3626 H 335.943 -0.145922 -4.61069 0
M  V30 3627 H 334.186 -0.206576 -4.33308 0
M  V30 3628 H 334.857 1.0065 -5.42746 0
M  V30 3629 H 337.333 1.88209 -3.71102 0
M  V30 3630 H 336.209 2.87072 -4.67847 0
M  V30 3631 H 336.47 3.26049 -2.98571 0
M  V30 3632 N 335.529 1.53961 0.336706 0
M  V30 3633 C 336.776 1.71536 1.07618 0
M  V30 3634 C 337.104 0.482125 1.8843 0
M  V30 3635 O 336.359 -0.536142 1.88213 0
M  V30 3636 C 336.658 2.93493 2.03953 0
M  V30 3637 C 336.324 4.28811 1.39399 0
M  V30 3638 C 334.986 4.65602 1.21523 0
M  V30 3639 C 337.338 5.12844 0.929541 0
M  V30 3640 C 334.666 5.84037 0.558312 0
M  V30 3641 C 337.018 6.31951 0.286505 0
M  V30 3642 C 335.682 6.67432 0.0954869 0
M  V30 3643 H 334.952 0.627696 0.393801 0
M  V30 3644 H 337.599 1.88186 0.354715 0
M  V30 3645 H 335.904 2.71475 2.82504 0
M  V30 3646 H 337.601 3.04285 2.61174 0
M  V30 3647 H 334.191 3.99858 1.54311 0
M  V30 3648 H 338.375 4.84947 1.05548 0
M  V30 3649 H 333.631 6.10097 0.398995 0
M  V30 3650 H 337.805 6.96352 -0.0814376 0
M  V30 3651 H 335.432 7.59063 -0.415579 0
M  V30 3652 N 337.007 -0.598083 1.45811 0
M  V30 3653 C 338.423 -0.919847 1.30426 0
M  V30 3654 C 338.623 -1.99759 0.264303 0
M  V30 3655 O 337.679 -2.50221 -0.338472 0
M  V30 3656 C 338.992 -1.35176 2.68603 0
M  V30 3657 C 340.54 -1.46546 2.76574 0
M  V30 3658 C 341.015 -1.9311 4.15298 0
M  V30 3659 N 342.506 -2.00328 4.1764 0
M  V30 3660 C 343.241 -2.37599 5.21856 0
M  V30 3661 N 342.737 -2.73771 6.36413 0
M  V30 3662 N 344.53 -2.38021 5.09218 0
M  V30 3663 H 336.681 0.114111 2.12093 0
M  V30 3664 H 338.944 -0.0116121 0.947929 0
M  V30 3665 H 338.65 -0.633969 3.45939 0
M  V30 3666 H 338.524 -2.3164 2.97696 0
M  V30 3667 H 340.911 -2.17415 1.99537 0
M  V30 3668 H 340.992 -0.483727 2.51185 0
M  V30 3669 H 340.636 -1.22824 4.92825 0
M  V30 3670 H 340.566 -2.92213 4.38086 0
M  V30 3671 H 343.057 -1.74925 3.34977 0
M  V30 3672 H 343.37 -3.0112 7.11721 0
M  V30 3673 H 341.715 -2.71445 6.39799 0
M  V30 3674 H 344.906 -2.09174 4.18765 0
M  V30 3675 H 345.079 -2.66741 5.90554 0
M  V30 3676 N 338.485 -1.33259 -0.841409 0
M  V30 3677 C 339.417 -1.19136 -1.95804 0
M  V30 3678 C 340.43 -0.122965 -1.62335 0
M  V30 3679 O 341.619 -0.373154 -1.74556 0
M  V30 3680 C 338.719 -0.804268 -3.29218 0
M  V30 3681 C 337.892 -1.96376 -3.90839 0
M  V30 3682 C 336.951 -1.55806 -5.02604 0
M  V30 3683 O 335.977 -2.27203 -5.21888 0
M  V30 3684 N 337.179 -0.461609 -5.78662 0
M  V30 3685 H 339.944 -2.15326 -2.08458 0
M  V30 3686 H 337.505 -1.25971 -1.017 0
M  V30 3687 H 339.497 -0.51501 -4.0141 0
M  V30 3688 H 338.067 0.0668809 -3.12528 0
M  V30 3689 H 337.287 -2.41879 -3.11269 0
M  V30 3690 H 338.575 -2.73966 -4.28742 0
M  V30 3691 H 337.973 0.132343 -5.65545 0
M  V30 3692 H 336.53 -0.232013 -6.51387 0
M  V30 3693 N 339.963 1.05934 -1.16686 0
M  V30 3694 C 341.374 1.60263 -0.957745 0
M  V30 3695 C 341.725 1.89789 0.49745 0
M  V30 3696 O 340.85 1.67401 1.37135 0
M  V30 3697 C 341.445 2.91172 -1.73218 0
M  V30 3698 C 340.004 3.42188 -1.56794 0
M  V30 3699 C 339.151 2.16028 -1.73859 0
M  V30 3700 H 342.102 0.888392 -1.31504 0
M  V30 3701 H 342.123 3.60744 -1.21014 0
M  V30 3702 H 341.635 2.6965 -2.79124 0
M  V30 3703 H 339.736 3.68762 -0.533437 0
M  V30 3704 H 339.849 4.17273 -2.35414 0
M  V30 3705 H 338.213 2.26426 -1.16633 0
M  V30 3706 H 338.996 1.96985 -2.81161 0
M  V30 3707 N 341.441 0.965919 1.2453 0
M  V30 3708 C 342.371 0.513476 2.27784 0
M  V30 3709 C 343.352 -0.445974 1.6415 0
M  V30 3710 O 344.537 -0.342485 1.91156 0
M  V30 3711 C 341.667 -0.198839 3.4673 0
M  V30 3712 C 340.621 0.676456 4.2262 0
M  V30 3713 C 339.947 -0.167248 5.34438 0
M  V30 3714 C 341.247 1.96017 4.84123 0
M  V30 3715 H 342.941 1.3765 2.65881 0
M  V30 3716 H 340.487 0.663321 1.27813 0
M  V30 3717 H 342.44 -0.526567 4.18097 0
M  V30 3718 H 341.164 -1.0962 3.07654 0
M  V30 3719 H 339.823 0.98743 3.53052 0
M  V30 3720 H 339.471 -1.0647 4.91603 0
M  V30 3721 H 339.171 0.415181 5.86131 0
M  V30 3722 H 340.695 -0.489688 6.08633 0
M  V30 3723 H 342.109 1.69814 5.47573 0
M  V30 3724 H 340.506 2.48918 5.4604 0
M  V30 3725 H 341.576 2.65622 4.05676 0
M  V30 3726 N 342.919 -1.39368 0.735821 0
M  V30 3727 C 344.165 -2.00794 0.284544 0
M  V30 3728 C 344.498 -1.58255 -1.12557 0
M  V30 3729 O 343.773 -0.811819 -1.76748 0
M  V30 3730 C 344.056 -3.58011 0.387337 0
M  V30 3731 C 343.909 -4.10566 1.83728 0
M  V30 3732 C 345.228 -4.395 -0.22975 0
M  V30 3733 H 342.347 -0.729501 0.104866 0
M  V30 3734 H 344.989 -1.65564 0.93213 0
M  V30 3735 H 343.139 -3.88154 -0.164006 0
M  V30 3736 H 344.811 -3.91139 2.44556 0
M  V30 3737 H 343.054 -3.64095 2.35833 0
M  V30 3738 H 343.725 -5.19702 1.86047 0
M  V30 3739 H 346.201 -4.15406 0.240257 0
M  V30 3740 H 345.077 -5.48752 -0.127485 0
M  V30 3741 H 345.338 -4.22062 -1.3159 0
M  V30 3742 N 344.397 -0.483516 -1.5 0
M  V30 3743 C 345.307 0.309172 -2.32554 0
M  V30 3744 C 346.323 0.984159 -1.43493 0
M  V30 3745 O 347.499 0.969399 -1.76535 0
M  V30 3746 C 344.564 1.36979 -3.18493 0
M  V30 3747 C 343.625 0.710095 -4.23387 0
M  V30 3748 C 342.858 1.72018 -5.05218 0
M  V30 3749 O 343.081 2.94813 -4.88305 0
M  V30 3750 O 342.015 1.28515 -5.8802 0
M  V30 3751 H 345.841 -0.366064 -3.01486 0
M  V30 3752 H 343.426 -0.24514 -1.47375 0
M  V30 3753 H 345.308 1.98385 -3.71781 0
M  V30 3754 H 343.983 2.02828 -2.52275 0
M  V30 3755 H 342.89 0.0567539 -3.74057 0
M  V30 3756 H 344.223 0.0943557 -4.9211 0
M  V30 3757 N 345.875 1.56104 -0.216619 0
M  V30 3758 C 346.807 2.17339 0.72776 0
M  V30 3759 C 347.82 1.14109 1.16116 0
M  V30 3760 O 349.009 1.4111 1.09317 0
M  V30 3761 C 346.109 2.73818 1.99693 0
M  V30 3762 C 345.282 4.02168 1.71988 0
M  V30 3763 C 344.341 4.43259 2.83562 0
M  V30 3764 O 343.367 5.10257 2.52244 0
M  V30 3765 N 344.569 4.08535 4.12407 0
M  V30 3766 H 347.334 2.99005 0.203983 0
M  V30 3767 H 344.895 1.61861 -0.0354289 0
M  V30 3768 H 346.887 2.9828 2.73516 0
M  V30 3769 H 345.457 1.96483 2.43132 0
M  V30 3770 H 344.677 3.85612 0.818337 0
M  V30 3771 H 345.965 4.85907 1.50903 0
M  V30 3772 H 345.363 3.54687 4.40696 0
M  V30 3773 H 343.92 4.37901 4.8279 0
M  V30 3774 N 347.353 -0.0568162 1.57498 0
M  V30 3775 C 348.764 -0.606858 1.76562 0
M  V30 3776 C 349.115 -1.77114 0.844094 0
M  V30 3777 O 348.24 -2.16376 0.0318911 0
M  V30 3778 C 348.835 -1.10766 3.20182 0
M  V30 3779 C 347.394 -1.60344 3.40539 0
M  V30 3780 C 346.541 -0.529311 2.72201 0
M  V30 3781 H 349.492 0.169393 1.57793 0
M  V30 3782 H 349.513 -1.97602 3.25167 0
M  V30 3783 H 349.025 -0.26006 3.87228 0
M  V30 3784 H 347.126 -2.47379 2.78629 0
M  V30 3785 H 347.239 -1.67006 4.4905 0
M  V30 3786 H 345.603 -0.977893 2.35179 0
M  V30 3787 H 346.386 0.308352 3.41912 0
M  V30 3788 N 348.832 -1.54138 -0.328536 0
M  V30 3789 C 349.742 -1.86192 -1.42723 0
M  V30 3790 C 350.758 -0.753382 -1.56844 0
M  V30 3791 O 351.934 -1.04718 -1.72035 0
M  V30 3792 C 348.999 -2.07824 -2.77507 0
M  V30 3793 C 348.06 -3.31641 -2.72603 0
M  V30 3794 C 347.293 -3.52232 -4.00959 0
M  V30 3795 O 347.516 -2.7636 -4.9898 0
M  V30 3796 O 346.45 -4.45699 -4.0452 0
M  V30 3797 H 350.276 -2.79608 -1.18547 0
M  V30 3798 H 347.861 -1.3998 -0.522104 0
M  V30 3799 H 349.743 -2.23411 -3.57303 0
M  V30 3800 H 348.418 -1.17596 -3.01584 0
M  V30 3801 H 347.325 -3.21444 -1.91376 0
M  V30 3802 H 348.658 -4.2191 -2.53481 0
M  V30 3803 N 350.31 0.590341 -1.46126 0
M  V30 3804 C 351.587 1.35029 -1.41515 0
M  V30 3805 C 351.967 2.10888 -0.0946472 0
M  V30 3806 O 351.315 2.08998 0.923693 0
M  V30 3807 C 351.525 2.28269 -2.63997 0
M  V30 3808 C 352.873 2.90338 -3.09821 0
M  V30 3809 O 353.897 2.38585 -2.64492 0
M  V30 3810 O 352.756 3.84321 -3.88535 0
M  V30 3811 H 349.85 0.606317 -0.562413 0
M  V30 3812 H 352.396 0.611994 -1.58281 0
M  V30 3813 H 351.168 1.71591 -3.51671 0
M  V30 3814 H 350.791 3.0945 -2.49652 0
M  V30 3815 N 351.788 1.33704 0.83433 0
M  V30 3816 C 353.018 1.28281 1.6195 0
M  V30 3817 C 353.426 -0.147603 1.88623 0
M  V30 3818 O 352.769 -1.1016 1.47005 0
M  V30 3819 C 352.831 1.99386 2.99141 0
M  V30 3820 C 352.495 3.48681 2.95416 0
M  V30 3821 C 353.492 4.438 2.70809 0
M  V30 3822 C 351.177 3.90925 3.15409 0
M  V30 3823 C 353.171 5.79138 2.66229 0
M  V30 3824 C 350.858 5.26366 3.10454 0
M  V30 3825 C 351.856 6.20284 2.85895 0
M  V30 3826 O 351.544 7.53245 2.80852 0
M  V30 3827 H 351.276 0.44315 0.510484 0
M  V30 3828 H 353.83 1.76711 1.04702 0
M  V30 3829 H 352.06 1.45554 3.58261 0
M  V30 3830 H 353.749 1.87403 3.60049 0
M  V30 3831 H 354.515 4.12485 2.5511 0
M  V30 3832 H 350.394 3.18229 3.33543 0
M  V30 3833 H 353.938 6.52416 2.4698 0
M  V30 3834 H 349.835 5.57304 3.25703 0
M  V30 3835 H 350.603 7.62846 2.96661 0
M  V30 3836 N 353.266 -1.05314 1.17247 0
M  V30 3837 C 354.494 -1.81971 0.984593 0
M  V30 3838 C 354.909 -1.82929 -0.467166 0
M  V30 3839 O 354.266 -1.25564 -1.32438 0
M  V30 3840 C 354.317 -3.28143 1.51672 0
M  V30 3841 O 354.038 -3.27347 2.91163 0
M  V30 3842 C 355.539 -4.21493 1.37326 0
M  V30 3843 H 352.759 -0.573455 0.348411 0
M  V30 3844 H 355.303 -1.32808 1.55506 0
M  V30 3845 H 353.458 -3.74582 0.988302 0
M  V30 3846 H 353.872 -4.18824 3.15732 0
M  V30 3847 H 355.346 -5.22043 1.79375 0
M  V30 3848 H 355.823 -4.38031 0.320169 0
M  V30 3849 H 356.429 -3.80909 1.89178 0
M  V30 3850 N 354.744 -0.972509 -1.24016 0
M  V30 3851 C 355.674 -0.525548 -2.27509 0
M  V30 3852 C 356.655 0.437262 -1.64384 0
M  V30 3853 O 357.84 0.332343 -1.91335 0
M  V30 3854 C 354.97 0.180448 -3.46831 0
M  V30 3855 C 353.924 -0.698859 -4.22256 0
M  V30 3856 C 353.25 0.138903 -5.3452 0
M  V30 3857 C 354.55 -1.98582 -4.83076 0
M  V30 3858 H 356.244 -1.39058 -2.65148 0
M  V30 3859 H 353.79 -0.67009 -1.27459 0
M  V30 3860 H 355.743 0.504387 -4.18371 0
M  V30 3861 H 354.467 1.07987 -3.08231 0
M  V30 3862 H 353.126 -1.00614 -3.52523 0
M  V30 3863 H 352.774 1.03862 -4.9216 0
M  V30 3864 H 352.474 -0.446259 -5.85903 0
M  V30 3865 H 353.998 0.457404 -6.08884 0
M  V30 3866 H 355.412 -1.72715 -5.46665 0
M  V30 3867 H 353.809 -2.5181 -5.44713 0
M  V30 3868 H 354.879 -2.67769 -4.04262 0
M  V30 3869 N 356.222 1.38976 -0.743202 0
M  V30 3870 C 357.154 2.29096 -0.0689228 0
M  V30 3871 C 358.167 1.47229 0.694791 0
M  V30 3872 O 359.356 1.70212 0.537597 0
M  V30 3873 C 356.456 3.25988 0.926548 0
M  V30 3874 C 355.629 4.36833 0.222647 0
M  V30 3875 C 354.688 5.13981 1.12739 0
M  V30 3876 O 353.714 5.6601 0.601795 0
M  V30 3877 N 354.916 5.25966 2.45641 0
M  V30 3878 H 357.681 2.87604 -0.842846 0
M  V30 3879 H 355.242 1.50645 -0.593109 0
M  V30 3880 H 357.234 3.74476 1.5346 0
M  V30 3881 H 355.804 2.68453 1.60162 0
M  V30 3882 H 355.024 3.90116 -0.565983 0
M  V30 3883 H 356.312 5.0811 -0.264841 0
M  V30 3884 H 355.71 4.85228 2.9081 0
M  V30 3885 H 354.267 5.77865 3.01522 0
M  V30 3886 N 357.7 0.491464 1.49741 0
M  V30 3887 C 358.946 -0.0565092 2.02721 0
M  V30 3888 C 359.279 -1.37522 1.37118 0
M  V30 3889 O 358.554 -1.87866 0.503645 0
M  V30 3890 C 358.837 -0.219051 3.59433 0
M  V30 3891 C 358.69 1.12211 4.35579 0
M  V30 3892 C 360.009 -0.964157 4.29409 0
M  V30 3893 H 357.128 -0.0190627 0.736753 0
M  V30 3894 H 359.77 0.641021 1.7886 0
M  V30 3895 H 357.92 -0.813165 3.79895 0
M  V30 3896 H 359.592 1.75437 4.26637 0
M  V30 3897 H 357.835 1.71377 3.98513 0
M  V30 3898 H 358.506 0.961794 5.43556 0
M  V30 3899 H 360.982 -0.460378 4.13545 0
M  V30 3900 H 359.858 -1.04671 5.38828 0
M  V30 3901 H 360.119 -2.00563 3.93988 0
M  V30 3902 N 359.178 -1.55987 0.224894 0
M  V30 3903 C 360.126 -2.21808 -0.700283 0
M  V30 3904 C 361.12 -1.19854 -1.19714 0
M  V30 3905 O 362.326 -1.37925 -1.15658 0
M  V30 3906 H 358.701 -0.711226 -0.244258 0
M  V30 3907 H 360.672 -2.98152 -0.121749 0
M  V30 3908 C 359.421 -2.91444 -1.8962 0
M  V30 3909 H 358.744 -3.69655 -1.52299 0
M  V30 3910 H 360.184 -3.40894 -2.52125 0
M  V30 3911 C 358.643 -1.94098 -2.75368 0
M  V30 3912 O 359.173 -1.46004 -3.74227 0
M  V30 3913 N 357.379 -1.61675 -2.41474 0
M  V30 3914 H 356.926 -2.00979 -1.61137 0
M  V30 3915 H 356.884 -0.968036 -2.99126 0
M  V30 3916 N 360.656 0.0484629 -1.57525 0
M  V30 3917 C 361.904 0.741657 -1.88 0
M  V30 3918 C 362.225 1.76918 -0.820054 0
M  V30 3919 O 361.495 1.95335 0.148661 0
M  V30 3920 H 360.075 0.276908 -0.69378 0
M  V30 3921 H 362.737 0.019013 -1.94891 0
M  V30 3922 H 361.833 1.24336 -2.86264 0
M  V30 3923 N 362.134 1.5431 0.320358 0
M  V30 3924 C 363.55 1.45091 0.664889 0
M  V30 3925 C 363.75 0.626382 1.91517 0
M  V30 3926 O 362.806 0.126443 2.52183 0
M  V30 3927 C 364.119 2.88848 0.83591 0
M  V30 3928 C 365.667 2.9877 0.933046 0
M  V30 3929 C 366.142 4.43683 1.13621 0
M  V30 3930 N 367.633 4.47309 1.20287 0
M  V30 3931 C 368.368 5.56595 1.37801 0
M  V30 3932 N 367.864 6.75844 1.52338 0
M  V30 3933 N 369.657 5.44248 1.40535 0
M  V30 3934 H 361.808 2.06398 -0.501374 0
M  V30 3935 H 364.071 0.933963 -0.162534 0
M  V30 3936 H 363.777 3.51698 -0.0116092 0
M  V30 3937 H 363.651 3.35148 1.73078 0
M  V30 3938 H 366.038 2.36045 1.77107 0
M  V30 3939 H 366.119 2.55796 0.0145782 0
M  V30 3940 H 365.763 5.06995 0.303032 0
M  V30 3941 H 365.693 4.84269 2.0686 0
M  V30 3942 H 368.184 3.61388 1.10485 0
M  V30 3943 H 368.497 7.54892 1.65403 0
M  V30 3944 H 366.842 6.78746 1.4943 0
M  V30 3945 H 370.033 4.50038 1.28777 0
M  V30 3946 H 370.206 6.29473 1.53842 0
M  V30 3947 N 363.613 -0.582584 1.46437 0
M  V30 3948 C 364.563 -1.68654 1.53426 0
M  V30 3949 C 365.547 -1.55971 0.395194 0
M  V30 3950 O 366.739 -1.64884 0.643612 0
M  V30 3951 C 363.868 -3.07439 1.52762 0
M  V30 3952 C 362.954 -3.25418 2.71963 0
M  V30 3953 N 363.345 -3.13556 3.96883 0
M  V30 3954 C 361.643 -3.56357 2.68189 0
M  V30 3955 C 362.344 -3.33543 4.76575 0
M  V30 3956 N 361.32 -3.58704 4.08451 0
M  V30 3957 H 365.122 -1.58014 2.47808 0
M  V30 3958 H 362.636 -0.786617 1.42078 0
M  V30 3959 H 364.633 -3.86671 1.55857 0
M  V30 3960 H 363.293 -3.1921 0.594573 0
M  V30 3961 H 364.304 -2.9142 4.28129 0
M  V30 3962 H 360.981 -3.74812 1.83908 0
M  V30 3963 H 362.371 -3.29555 5.85528 0
M  V30 3964 N 365.091 -1.34144 -0.827227 0
M  V30 3965 C 366.001 -1.27428 -1.96975 0
M  V30 3966 C 367.017 -0.182728 -1.73038 0
M  V30 3967 O 368.193 -0.408426 -1.97215 0
M  V30 3968 C 365.258 -1.02526 -3.31194 0
M  V30 3969 C 364.319 -2.20796 -3.68168 0
M  V30 3970 C 363.552 -1.97073 -4.95982 0
M  V30 3971 O 363.775 -0.926822 -5.6282 0
M  V30 3972 O 362.709 -2.83912 -5.30733 0
M  V30 3973 H 366.535 -2.23537 -2.05584 0
M  V30 3974 H 364.12 -1.14307 -0.961989 0
M  V30 3975 H 366.002 -0.904026 -4.11589 0
M  V30 3976 H 364.677 -0.0945389 -3.23562 0
M  V30 3977 H 363.584 -2.38477 -2.88235 0
M  V30 3978 H 364.917 -3.12243 -3.8048 0
M  V30 3979 N 366.569 1.04691 -1.17803 0
M  V30 3980 C 367.799 1.81183 -0.992788 0
M  V30 3981 C 368.207 1.8347 0.462098 0
M  V30 3982 O 367.55 1.2643 1.33271 0
M  V30 3983 C 367.612 3.28363 -1.46349 0
M  V30 3984 C 367.276 3.49749 -2.94151 0
M  V30 3985 C 368.273 3.41456 -3.92051 0
M  V30 3986 C 365.958 3.76548 -3.32441 0
M  V30 3987 C 367.952 3.59656 -5.26238 0
M  V30 3988 C 365.639 3.94396 -4.66792 0
M  V30 3989 C 366.637 3.8595 -5.635 0
M  V30 3990 O 366.325 4.03294 -6.9542 0
M  V30 3991 H 366.057 0.577622 -0.351182 0
M  V30 3992 H 368.611 1.32876 -1.5663 0
M  V30 3993 H 366.841 3.77609 -0.833574 0
M  V30 3994 H 368.53 3.86395 -1.24313 0
M  V30 3995 H 369.296 3.20723 -3.63815 0
M  V30 3996 H 365.175 3.82224 -2.57732 0
M  V30 3997 H 368.719 3.52979 -6.01707 0
M  V30 3998 H 364.616 4.14622 -4.94731 0
M  V30 3999 H 365.384 4.2049 -7.02232 0
M  V30 4000 N 368.047 0.979072 1.23499 0
M  V30 4001 C 368.977 0.537606 2.27227 0
M  V30 4002 C 369.958 -0.428539 1.64613 0
M  V30 4003 O 371.143 -0.322191 1.91509 0
M  V30 4004 C 368.273 -0.162052 3.46922 0
M  V30 4005 C 367.227 0.721242 4.21879 0
M  V30 4006 C 366.553 -0.110555 5.34586 0
M  V30 4007 C 367.853 2.01141 4.82016 0
M  V30 4008 H 369.547 1.40462 2.64406 0
M  V30 4009 H 367.093 0.67684 1.27102 0
M  V30 4010 H 369.046 -0.482192 4.18632 0
M  V30 4011 H 367.77 -1.06351 3.08799 0
M  V30 4012 H 366.429 1.02482 3.51984 0
M  V30 4013 H 366.077 -1.0125 4.92704 0
M  V30 4014 H 365.777 0.477325 5.85658 0
M  V30 4015 H 367.301 -0.425107 6.09118 0
M  V30 4016 H 368.715 1.75612 5.45741 0
M  V30 4017 H 367.112 2.54695 5.43369 0
M  V30 4018 H 368.182 2.69909 4.02836 0
M  V30 4019 N 369.525 -1.3858 0.750561 0
M  V30 4020 C 370.755 -2.04175 0.31564 0
M  V30 4021 C 371.163 -1.56726 -1.05989 0
M  V30 4022 O 370.506 -0.734225 -1.68389 0
M  V30 4023 C 370.568 -3.58585 0.256389 0
M  V30 4024 C 370.232 -4.29077 1.57296 0
M  V30 4025 C 371.229 -4.54656 2.52159 0
M  V30 4026 C 368.914 -4.67324 1.84156 0
M  V30 4027 C 370.908 -5.17512 3.72103 0
M  V30 4028 C 368.595 -5.29905 3.04374 0
M  V30 4029 C 369.593 -5.54933 3.98168 0
M  V30 4030 O 369.281 -6.16212 5.16273 0
M  V30 4031 H 369.013 -0.662742 0.133226 0
M  V30 4032 H 371.567 -1.78313 1.01948 0
M  V30 4033 H 369.797 -3.83406 -0.503677 0
M  V30 4034 H 371.486 -4.05628 -0.148612 0
M  V30 4035 H 372.252 -4.25539 2.32683 0
M  V30 4036 H 368.131 -4.47191 1.11988 0
M  V30 4037 H 371.675 -5.36963 4.45327 0
M  V30 4038 H 367.572 -5.58444 3.23745 0
M  V30 4039 H 368.34 -6.34701 5.16815 0
M  V30 4040 N 371.003 -0.499398 -1.49478 0
M  V30 4041 C 372.251 0.0455996 -2.02049 0
M  V30 4042 C 372.572 1.37633 -1.38138 0
M  V30 4043 O 371.842 1.8842 -0.536166 0
M  V30 4044 H 370.422 0.0198416 -0.746736 0
M  V30 4045 H 373.084 -0.656274 -1.83519 0
M  V30 4046 H 372.18 0.176445 -3.11601 0
M  V30 4047 N 372.481 1.55866 -0.233164 0
M  V30 4048 C 373.706 2.03449 0.402906 0
M  V30 4049 C 374.131 1.11166 1.51736 0
M  V30 4050 O 373.489 0.101996 1.81013 0
M  V30 4051 C 373.537 3.49165 0.9009 0
M  V30 4052 O 372.641 3.60019 2.01147 0
M  V30 4053 H 371.982 0.657913 0.0897025 0
M  V30 4054 H 374.512 2.01493 -0.355201 0
M  V30 4055 H 374.522 3.89716 1.2077 0
M  V30 4056 H 373.197 4.15813 0.0852889 0
M  V30 4057 H 371.774 3.3136 1.71042 0
M  V30 4058 N 373.959 -0.0401083 1.57549 0
M  V30 4059 C 375.189 -0.744115 1.92734 0
M  V30 4060 C 375.597 -1.70005 0.830348 0
M  V30 4061 O 374.94 -1.82576 -0.20286 0
M  V30 4062 C 375.002 -1.56516 3.2364 0
M  V30 4063 C 374.666 -0.7752 4.50377 0
M  V30 4064 C 375.663 -0.0803326 5.19838 0
M  V30 4065 C 373.348 -0.733002 4.96923 0
M  V30 4066 C 375.342 0.646154 6.34116 0
M  V30 4067 C 373.029 -0.00276321 6.111 0
M  V30 4068 C 374.027 0.685585 6.7955 0
M  V30 4069 O 373.715 1.40399 7.91545 0
M  V30 4070 H 373.447 -0.214861 0.640945 0
M  V30 4071 H 376.001 -0.00503675 2.05399 0
M  V30 4072 H 374.231 -2.3478 3.07271 0
M  V30 4073 H 375.92 -2.15076 3.44234 0
M  V30 4074 H 376.686 -0.104035 4.84888 0
M  V30 4075 H 372.565 -1.25827 4.43496 0
M  V30 4076 H 376.109 1.18398 6.87479 0
M  V30 4077 H 372.006 0.0229012 6.45496 0
M  V30 4078 H 372.774 1.31653 8.07843 0
M  V30 4079 N 375.437 -1.54477 -0.31217 0
M  V30 4080 C 376.848 -1.64344 -0.885891 0
M  V30 4081 C 377.199 -0.54485 -1.88483 0
M  V30 4082 O 376.324 0.320387 -2.14015 0
M  V30 4083 C 376.919 -2.97908 -1.61357 0
M  V30 4084 C 375.478 -3.09933 -2.13585 0
M  V30 4085 C 374.625 -2.59971 -0.964897 0
M  V30 4086 H 377.576 -1.58448 -0.0894528 0
M  V30 4087 H 377.597 -2.88706 -2.47848 0
M  V30 4088 H 377.109 -3.77845 -0.886277 0
M  V30 4089 H 375.21 -2.34694 -2.89395 0
M  V30 4090 H 375.323 -4.15916 -2.37804 0
M  V30 4091 H 373.687 -2.16147 -1.34731 0
M  V30 4092 H 374.47 -3.42376 -0.251742 0
M  V30 4093 N 376.915 0.57481 -1.46744 0
M  V30 4094 C 377.845 1.69337 -1.60771 0
M  V30 4095 C 378.826 1.63825 -0.457736 0
M  V30 4096 O 380.011 1.8172 -0.684947 0
M  V30 4097 C 377.141 3.0798 -1.60517 0
M  V30 4098 C 376.095 3.28327 -2.74564 0
M  V30 4099 C 375.421 4.67578 -2.59373 0
M  V30 4100 C 376.721 3.15398 -4.16319 0
M  V30 4101 H 378.415 1.57853 -2.54407 0
M  V30 4102 H 375.961 0.75799 -1.22436 0
M  V30 4103 H 377.914 3.86061 -1.68923 0
M  V30 4104 H 376.638 3.20381 -0.634305 0
M  V30 4105 H 375.297 2.52649 -2.65639 0
M  V30 4106 H 374.945 4.76755 -1.60353 0
M  V30 4107 H 374.645 4.82144 -3.35873 0
M  V30 4108 H 376.169 5.47817 -2.69682 0
M  V30 4109 H 377.583 3.83315 -4.26313 0
M  V30 4110 H 375.98 3.41482 -4.93468 0
M  V30 4111 H 377.05 2.12372 -4.3592 0
M  V30 4112 N 378.394 1.34581 0.820102 0
M  V30 4113 C 379.634 1.28448 1.58998 0
M  V30 4114 C 379.998 -0.142883 1.91468 0
M  V30 4115 O 381.199 -0.328422 2.66786 0
M  V30 4116 C 379.47 2.153 2.85273 0
M  V30 4117 S 381.029 2.26548 3.75794 0
M  V30 4118 H 377.847 0.456685 0.54494 0
M  V30 4119 H 380.449 1.69825 0.968487 0
M  V30 4120 H 379.153 3.18008 2.59421 0
M  V30 4121 H 378.684 1.7483 3.52417 0
M  V30 4122 H 380.699 1.44034 4.74835 0
M  V30 4123 N 379.872 -1.04064 1.18357 0
M  V30 4124 C 380.804 -2.12114 0.868358 0
M  V30 4125 C 381.817 -1.62247 -0.134045 0
M  V30 4126 O 383.006 -1.78253 0.0937933 0
M  V30 4127 C 380.106 -3.37773 0.276132 0
M  V30 4128 C 379.279 -4.16874 1.3242 0
M  V30 4129 C 378.338 -5.20861 0.747662 0
M  V30 4130 O 377.364 -5.51141 1.42239 0
M  V30 4131 N 378.566 -5.78715 -0.454823 0
M  V30 4132 H 381.331 -2.39748 1.79836 0
M  V30 4133 H 378.892 -1.20258 1.08396 0
M  V30 4134 H 380.884 -4.04513 -0.123133 0
M  V30 4135 H 379.454 -3.07581 -0.557895 0
M  V30 4136 H 378.674 -3.45456 1.89878 0
M  V30 4137 H 379.962 -4.66516 2.03078 0
M  V30 4138 H 379.36 -5.56415 -1.02073 0
M  V30 4139 H 377.917 -6.46921 -0.79601 0
M  V30 4140 N 381.35 -0.985608 -1.22978 0
M  V30 4141 C 382.597 -0.657386 -1.91532 0
M  V30 4142 C 382.925 0.809707 -1.76845 0
M  V30 4143 O 382.18 1.60021 -1.12658 0
M  V30 4144 C 382.479 -1.00014 -3.43121 0
M  V30 4145 C 382.145 -2.4583 -3.77993 0
M  V30 4146 C 380.807 -2.85679 -3.87222 0
M  V30 4147 C 383.159 -3.40378 -3.94705 0
M  V30 4148 C 380.487 -4.19081 -4.10595 0
M  V30 4149 C 382.839 -4.73429 -4.1958 0
M  V30 4150 C 381.503 -5.1303 -4.27032 0
M  V30 4151 H 380.773 -0.240555 -0.700867 0
M  V30 4152 H 383.42 -1.24044 -1.45895 0
M  V30 4153 H 381.725 -0.335072 -3.90365 0
M  V30 4154 H 383.422 -0.724322 -3.94404 0
M  V30 4155 H 380.012 -2.13939 -3.71387 0
M  V30 4156 H 384.196 -3.10766 -3.8696 0
M  V30 4157 H 379.452 -4.49362 -4.14589 0
M  V30 4158 H 383.626 -5.46644 -4.31455 0
M  V30 4159 H 381.253 -6.16418 -4.44896 0
M  V30 4160 N 382.828 1.3818 -0.7579 0
M  V30 4161 C 383.76 2.2901 -0.0932177 0
M  V30 4162 C 384.773 1.47958 0.679136 0
M  V30 4163 O 385.962 1.70773 0.519514 0
M  V30 4164 C 383.062 3.26953 0.89192 0
M  V30 4165 C 382.235 4.37045 0.176303 0
M  V30 4166 C 381.294 5.15148 1.07281 0
M  V30 4167 O 380.32 5.66616 0.541728 0
M  V30 4168 N 381.522 5.28542 2.40049 0
M  V30 4169 H 384.287 2.86694 -0.873303 0
M  V30 4170 H 381.848 1.50007 -0.609054 0
M  V30 4171 H 383.84 3.76083 1.49479 0
M  V30 4172 H 382.41 2.70136 1.57306 0
M  V30 4173 H 381.63 3.89493 -0.607328 0
M  V30 4174 H 382.918 5.07801 -0.318718 0
M  V30 4175 H 382.316 4.88285 2.85647 0
M  V30 4176 H 380.873 5.8103 2.95376 0
M  V30 4177 N 384.306 0.507319 1.49211 0
M  V30 4178 C 385.536 -0.0315292 2.06576 0
M  V30 4179 C 385.944 -1.30791 1.36713 0
M  V30 4180 O 385.287 -1.78324 0.441181 0
M  V30 4181 C 385.349 -0.349104 3.57801 0
M  V30 4182 C 385.013 0.830475 4.49391 0
M  V30 4183 C 386.01 1.72271 4.90529 0
M  V30 4184 C 383.695 1.03107 4.91604 0
M  V30 4185 C 385.689 2.79964 5.72625 0
M  V30 4186 C 383.376 2.11116 5.73475 0
M  V30 4187 C 384.374 2.99379 6.1389 0
M  V30 4188 O 384.062 4.05523 6.94123 0
M  V30 4189 H 383.794 0.0201002 0.675701 0
M  V30 4190 H 386.348 0.705737 1.92895 0
M  V30 4191 H 384.578 -1.14005 3.69513 0
M  V30 4192 H 386.267 -0.827319 3.97379 0
M  V30 4193 H 387.033 1.57958 4.58557 0
M  V30 4194 H 382.912 0.353417 4.59643 0
M  V30 4195 H 386.456 3.48884 6.04091 0
M  V30 4196 H 382.353 2.25421 6.0486 0
M  V30 4197 H 383.121 4.02953 7.1244 0
M  V30 4198 N 385.784 -1.5574 0.241426 0
M  V30 4199 C 387.033 -1.97986 -0.385295 0
M  V30 4200 C 387.346 -1.13267 -1.59468 0
M  V30 4201 O 388.552 -1.45501 -2.2922 0
M  V30 4202 C 387.008 -3.52275 -0.736884 0
M  V30 4203 C 386.616 -4.45726 0.450796 0
M  V30 4204 C 388.36 -4.03189 -1.3281 0
M  V30 4205 C 386.267 -5.91352 0.0756662 0
M  V30 4206 H 385.197 -0.739386 -0.147731 0
M  V30 4207 H 387.848 -1.80308 0.340779 0
M  V30 4208 H 386.23 -3.65628 -1.52094 0
M  V30 4209 H 387.404 -4.44131 1.22819 0
M  V30 4210 H 385.719 -4.05264 0.956573 0
M  V30 4211 H 388.316 -5.09505 -1.62201 0
M  V30 4212 H 388.659 -3.50212 -2.25071 0
M  V30 4213 H 389.192 -3.93141 -0.607069 0
M  V30 4214 H 385.931 -6.48354 0.965272 0
M  V30 4215 H 385.451 -5.96095 -0.665635 0
M  V30 4216 H 387.13 -6.46084 -0.344075 0
M  V30 4217 N 387.262 0.0317525 -1.57568 0
M  V30 4218 C 388.502 0.727979 -1.90997 0
M  V30 4219 C 388.866 1.72664 -0.839708 0
M  V30 4220 O 390.067 2.47092 -1.05825 0
M  V30 4221 C 388.338 1.38239 -3.29583 0
M  V30 4222 S 389.897 2.10814 -3.84841 0
M  V30 4223 H 386.715 0.241226 -0.668828 0
M  V30 4224 H 389.317 -0.0173037 -1.95492 0
M  V30 4225 H 388.021 0.642288 -4.05343 0
M  V30 4226 H 387.552 2.16628 -3.28384 0
M  V30 4227 H 389.567 3.3792 -3.63352 0
M  V30 4228 N 388.74 1.54641 0.303973 0
M  V30 4229 C 389.965 1.78092 1.06292 0
M  V30 4230 C 390.39 0.537342 1.80262 0
M  V30 4231 O 389.748 -0.511993 1.7392 0
M  V30 4232 C 389.796 2.98612 2.02147 0
M  V30 4233 O 388.9 2.71528 3.10397 0
M  V30 4234 H 388.241 0.589548 0.305497 0
M  V30 4235 H 390.771 2.01716 0.3423 0
M  V30 4236 H 390.781 3.265 2.44667 0
M  V30 4237 H 389.456 3.88785 1.47714 0
M  V30 4238 H 388.033 2.54648 2.72413 0
M  V30 4239 N 390.218 -0.567019 1.47046 0
M  V30 4240 C 391.458 -1.3355 1.54738 0
M  V30 4241 C 391.822 -1.90947 0.200772 0
M  V30 4242 O 393.023 -2.68367 0.152489 0
M  V30 4243 C 391.294 -2.42317 2.62712 0
M  V30 4244 S 392.853 -3.29383 2.89918 0
M  V30 4245 H 389.671 -0.454788 0.546525 0
M  V30 4246 H 392.273 -0.650191 1.84371 0
M  V30 4247 H 390.977 -1.98568 3.59164 0
M  V30 4248 H 390.508 -3.15601 2.34861 0
M  V30 4249 H 392.523 -4.41548 2.26384 0
M  V30 4250 N 391.696 -1.35014 -0.812953 0
M  V30 4251 C 392.626 -1.30069 -1.93919 0
M  V30 4252 C 393.607 -0.176275 -1.69184 0
M  V30 4253 O 394.792 -0.370227 -1.90638 0
M  V30 4254 C 391.922 -1.06547 -3.30552 0
M  V30 4255 C 390.876 -2.15561 -3.69753 0
M  V30 4256 C 390.202 -1.77214 -5.04479 0
M  V30 4257 C 391.502 -3.57476 -3.808 0
M  V30 4258 H 393.196 -2.24303 -1.98314 0
M  V30 4259 H 390.742 -1.07977 -0.952736 0
M  V30 4260 H 392.695 -1.01729 -4.08937 0
M  V30 4261 H 391.419 -0.0875719 -3.26483 0
M  V30 4262 H 390.078 -2.19466 -2.9365 0
M  V30 4263 H 389.726 -0.780589 -4.96906 0
M  V30 4264 H 389.426 -2.50184 -5.31678 0
M  V30 4265 H 390.95 -1.7391 -5.8531 0
M  V30 4266 H 392.364 -3.55929 -4.4943 0
M  V30 4267 H 390.761 -4.29152 -4.19462 0
M  V30 4268 H 391.831 -3.94091 -2.82525 0
M  V30 4269 N 393.175 1.03435 -1.18907 0
M  V30 4270 C 394.125 2.09924 -0.889706 0
M  V30 4271 C 395.109 1.60261 0.143216 0
M  V30 4272 O 396.301 1.76892 -0.0617122 0
M  V30 4273 C 393.43 3.40669 -0.424168 0
M  V30 4274 C 392.516 3.97082 -1.48952 0
M  V30 4275 N 392.907 4.27227 -2.70759 0
M  V30 4276 C 391.205 4.25029 -1.35152 0
M  V30 4277 C 391.906 4.7246 -3.39347 0
M  V30 4278 N 390.882 4.7366 -2.66735 0
M  V30 4279 H 394.684 2.31116 -1.81555 0
M  V30 4280 H 392.198 1.21246 -1.08042 0
M  V30 4281 H 394.195 4.16461 -0.191176 0
M  V30 4282 H 392.855 3.20901 0.495263 0
M  V30 4283 H 393.866 4.16678 -3.0757 0
M  V30 4284 H 390.543 4.14554 -0.495126 0
M  V30 4285 H 391.933 5.04751 -4.43481 0
M  V30 4286 N 394.653 0.992116 1.22453 0
M  V30 4287 C 395.878 0.685644 1.95739 0
M  V30 4288 C 396.303 -0.743 1.72804 0
M  V30 4289 O 395.661 -1.50778 1.00676 0
M  V30 4290 C 395.709 0.996293 3.46564 0
M  V30 4291 O 394.813 0.0945512 4.12292 0
M  V30 4292 H 394.154 0.256694 0.612376 0
M  V30 4293 H 396.684 1.32888 1.5557 0
M  V30 4294 H 396.694 0.93781 3.97076 0
M  V30 4295 H 395.369 2.03733 3.62582 0
M  V30 4296 H 393.946 0.208451 3.72317 0
M  V30 4297 N 396.131 -1.37776 0.765217 0
M  V30 4298 C 397.379 -1.99454 0.325943 0
M  V30 4299 C 397.7 -1.61049 -1.09947 0
M  V30 4300 O 396.97 -0.872821 -1.75381 0
M  V30 4301 H 395.55 -0.737697 0.117525 0
M  V30 4302 H 398.212 -1.68359 0.981895 0
M  V30 4303 H 397.308 -3.09547 0.398353 0
M  V30 4304 N 397.609 -0.515225 -1.4894 0
M  V30 4305 C 398.539 0.244628 -2.32215 0
M  V30 4306 C 399.52 0.949136 -1.41157 0
M  V30 4307 O 400.705 0.937783 -1.70057 0
M  V30 4308 C 397.835 1.30096 -3.22013 0
M  V30 4309 C 396.789 0.715486 -4.21977 0
M  V30 4310 C 396.115 1.87339 -5.00808 0
M  V30 4311 C 397.415 -0.302982 -5.2142 0
M  V30 4312 H 399.109 -0.450501 -2.95991 0
M  V30 4313 H 396.655 -0.218098 -1.42339 0
M  V30 4314 H 398.608 1.84037 -3.79089 0
M  V30 4315 H 397.332 2.02547 -2.56207 0
M  V30 4316 H 395.991 0.197715 -3.66066 0
M  V30 4317 H 395.639 2.58592 -4.31438 0
M  V30 4318 H 395.339 1.48764 -5.68457 0
M  V30 4319 H 396.863 2.41686 -5.60732 0
M  V30 4320 H 398.277 0.148802 -5.73107 0
M  V30 4321 H 396.674 -0.60532 -5.97039 0
M  V30 4322 H 397.744 -1.21395 -4.69459 0
M  V30 4323 N 399.087 1.5561 -0.249682 0
M  V30 4324 C 400.315 2.03411 0.378352 0
M  V30 4325 C 400.73 1.12886 1.51335 0
M  V30 4326 O 400.087 0.143833 1.81932 0
M  V30 4327 C 400.138 3.50537 0.88351 0
M  V30 4328 O 399.859 4.37614 -0.20626 0
M  V30 4329 C 401.36 4.14113 1.58195 0
M  V30 4330 H 398.58 0.664994 0.08958 0
M  V30 4331 H 401.124 2.01044 -0.374357 0
M  V30 4332 H 399.279 3.5343 1.58639 0
M  V30 4333 H 399.693 5.24199 0.177782 0
M  V30 4334 H 401.167 5.18741 1.8871 0
M  V30 4335 H 401.644 3.60767 2.50487 0
M  V30 4336 H 402.25 4.15151 0.923573 0
M  V30 4337 N 400.565 -0.0233959 1.57583 0
M  V30 4338 C 401.976 -0.56927 1.77809 0
M  V30 4339 C 402.327 -1.75284 0.881472 0
M  V30 4340 O 401.452 -2.1626 0.0777805 0
M  V30 4341 C 402.047 -1.03949 3.22459 0
M  V30 4342 C 400.606 -1.53084 3.43864 0
M  V30 4343 C 399.753 -0.471454 2.73263 0
M  V30 4344 H 402.704 0.202825 1.57399 0
M  V30 4345 H 402.725 -1.90661 3.29285 0
M  V30 4346 H 402.237 -0.177865 3.87692 0
M  V30 4347 H 400.338 -2.41414 2.83814 0
M  V30 4348 H 400.451 -1.57443 4.52491 0
M  V30 4349 H 398.815 -0.927788 2.37201 0
M  V30 4350 H 399.598 0.380808 3.41181 0
M  V30 4351 N 402.043 -1.548 -0.295768 0
M  V30 4352 C 402.993 -1.82497 -1.3667 0
M  V30 4353 C 403.977 -0.682434 -1.45711 0
M  V30 4354 O 405.169 -0.943207 -1.49775 0
M  V30 4355 C 402.298 -2.08036 -2.73086 0
M  V30 4356 C 401.384 -3.28488 -2.68247 0
M  V30 4357 N 401.775 -4.48924 -2.33025 0
M  V30 4358 C 400.073 -3.3062 -2.99343 0
M  V30 4359 C 400.774 -5.30956 -2.37613 0
M  V30 4360 N 399.75 -4.68805 -2.75178 0
M  V30 4361 H 403.552 -2.73175 -1.0841 0
M  V30 4362 H 401.066 -1.5437 -0.504361 0
M  V30 4363 H 403.063 -2.26027 -3.5031 0
M  V30 4364 H 401.723 -1.18629 -3.02254 0
M  V30 4365 H 402.734 -4.75432 -2.05389 0
M  V30 4366 H 399.411 -2.51336 -3.33371 0
M  V30 4367 H 400.801 -6.37199 -2.13135 0
M  V30 4368 N 403.521 0.559213 -1.47345 0
M  V30 4369 C 404.451 1.67622 -1.62558 0
M  V30 4370 C 405.432 1.63331 -0.475087 0
M  V30 4371 O 406.617 1.80983 -0.704182 0
M  V30 4372 C 403.747 3.0626 -1.63774 0
M  V30 4373 C 402.701 3.25397 -2.7803 0
M  V30 4374 C 402.027 4.64801 -2.64318 0
M  V30 4375 C 403.327 3.10965 -4.19641 0
M  V30 4376 H 405.021 1.55146 -2.56067 0
M  V30 4377 H 402.567 0.744961 -1.23233 0
M  V30 4378 H 404.52 3.84247 -1.73008 0
M  V30 4379 H 403.244 3.1969 -0.66825 0
M  V30 4380 H 401.903 2.49817 -2.68304 0
M  V30 4381 H 401.551 4.75028 -1.65401 0
M  V30 4382 H 401.251 4.78555 -3.40968 0
M  V30 4383 H 402.775 5.44926 -2.75478 0
M  V30 4384 H 404.189 3.78772 -4.30354 0
M  V30 4385 H 402.586 3.36229 -4.97062 0
M  V30 4386 H 403.656 2.07736 -4.38148 0
M  V30 4387 N 404.999 1.35443 0.805782 0
M  V30 4388 C 406.227 1.31878 1.59423 0
M  V30 4389 C 406.642 -0.103562 1.88516 0
M  V30 4390 O 405.999 -1.05575 1.48863 0
M  V30 4391 C 406.05 2.12426 2.92502 0
M  V30 4392 O 405.771 3.49115 2.6467 0
M  V30 4393 C 407.272 2.16455 3.86862 0
M  V30 4394 H 404.492 0.453002 0.495005 0
M  V30 4395 H 407.036 1.78309 1.00131 0
M  V30 4396 H 405.191 1.69593 3.48306 0
M  V30 4397 H 405.605 3.90957 3.49647 0
M  V30 4398 H 407.079 2.77204 4.77349 0
M  V30 4399 H 407.556 1.16352 4.23508 0
M  V30 4400 H 408.162 2.59453 3.36993 0
M  V30 4401 N 406.477 -1.02803 1.19454 0
M  V30 4402 C 407.41 -2.107 0.876396 0
M  V30 4403 C 408.388 -1.61741 -0.166897 0
M  V30 4404 O 409.572 -1.88451 -0.0430195 0
M  V30 4405 C 406.699 -3.37262 0.311758 0
M  V30 4406 C 405.745 -4.05093 1.33424 0
M  V30 4407 S 406.578 -4.50498 2.89503 0
M  V30 4408 C 407.734 -5.80277 2.34584 0
M  V30 4409 H 407.967 -2.37362 1.79016 0
M  V30 4410 H 405.5 -1.15755 1.02177 0
M  V30 4411 H 407.458 -4.10499 -0.00748752 0
M  V30 4412 H 406.119 -3.08693 -0.58032 0
M  V30 4413 H 405.312 -4.9611 0.888302 0
M  V30 4414 H 404.914 -3.3803 1.60037 0
M  V30 4415 H 407.206 -6.54873 1.73633 0
M  V30 4416 H 408.149 -6.29651 3.23952 0
M  V30 4417 H 408.557 -5.3599 1.77131 0
M  V30 4418 N 407.956 -0.998596 -1.21925 0
M  V30 4419 C 409.202 -0.678667 -1.91107 0
M  V30 4420 C 409.535 0.78791 -1.77498 0
M  V30 4421 O 408.81 1.57043 -1.1475 0
M  V30 4422 C 409.093 -1.09245 -3.43129 0
M  V30 4423 C 408.946 -2.61801 -3.6576 0
M  V30 4424 C 410.265 -0.649984 -4.35274 0
M  V30 4425 H 407.384 -0.248025 -0.694012 0
M  V30 4426 H 410.026 -1.24314 -1.43688 0
M  V30 4427 H 408.176 -0.612171 -3.83647 0
M  V30 4428 H 409.848 -3.17543 -3.34611 0
M  V30 4429 H 408.091 -3.03609 -3.09845 0
M  V30 4430 H 408.762 -2.85804 -4.7225 0
M  V30 4431 H 411.238 -1.0626 -4.02303 0
M  V30 4432 H 410.114 -0.967743 -5.40302 0
M  V30 4433 H 410.375 0.449139 -4.39813 0
M  V30 4434 N 409.434 1.37368 -0.772513 0
M  V30 4435 C 410.384 2.27613 -0.132823 0
M  V30 4436 C 411.368 1.46138 0.673247 0
M  V30 4437 O 412.56 1.68686 0.536095 0
M  V30 4438 C 409.689 3.35122 0.744864 0
M  V30 4439 C 408.775 4.24044 -0.0690771 0
M  V30 4440 N 409.166 4.93355 -1.1151 0
M  V30 4441 C 407.464 4.45731 0.154782 0
M  V30 4442 C 408.165 5.59 -1.60917 0
M  V30 4443 N 407.141 5.35737 -0.921222 0
M  V30 4444 H 410.943 2.78675 -0.933681 0
M  V30 4445 H 408.457 1.50494 -0.610342 0
M  V30 4446 H 410.454 3.98683 1.21892 0
M  V30 4447 H 409.114 2.85616 1.54446 0
M  V30 4448 H 410.125 4.95785 -1.49726 0
M  V30 4449 H 406.802 4.07096 0.926224 0
M  V30 4450 H 408.192 6.24395 -2.48153 0
M  V30 4451 N 410.912 0.523116 1.48665 0
M  V30 4452 C 412.137 -0.0117284 2.07397 0
M  V30 4453 C 412.562 -1.28031 1.37803 0
M  V30 4454 O 411.92 -1.75836 0.441762 0
M  V30 4455 C 411.968 -0.225786 3.59892 0
M  V30 4456 O 411.072 -1.29592 3.91509 0
M  V30 4457 H 410.413 0.0360673 0.66302 0
M  V30 4458 H 412.943 0.729066 1.9117 0
M  V30 4459 H 412.953 -0.450552 4.05505 0
M  V30 4460 H 411.628 0.700944 4.09951 0
M  V30 4461 H 410.205 -1.05436 3.57684 0
M  V30 4462 N 412.39 -1.55475 0.257931 0
M  V30 4463 C 413.615 -2.04064 -0.370488 0
M  V30 4464 C 414.04 -1.13565 -1.49948 0
M  V30 4465 O 413.398 -0.130781 -1.80828 0
M  V30 4466 C 413.446 -3.50554 -0.845237 0
M  V30 4467 O 412.55 -3.63173 -1.95394 0
M  V30 4468 H 411.891 -0.659257 -0.0792243 0
M  V30 4469 H 414.421 -2.00903 0.387212 0
M  V30 4470 H 414.431 -3.91588 -1.14555 0
M  V30 4471 H 413.106 -4.15896 -0.0191259 0
M  V30 4472 H 411.683 -3.34039 -1.65748 0
M  V30 4473 N 413.868 0.0150385 -1.57593 0
M  V30 4474 C 415.093 0.718067 -1.94573 0
M  V30 4475 C 415.518 1.6734 -0.859005 0
M  V30 4476 O 414.876 1.80362 0.184147 0
M  V30 4477 C 414.924 1.43918 -3.30636 0
M  V30 4478 O 414.028 2.55299 -3.23876 0
M  V30 4479 H 413.369 0.192125 -0.635597 0
M  V30 4480 H 415.899 -0.0336708 -2.04572 0
M  V30 4481 H 415.909 1.80598 -3.65853 0
M  V30 4482 H 414.584 0.738619 -4.09289 0
M  V30 4483 H 413.161 2.21058 -3.00312 0
M  V30 4484 N 415.346 1.54954 0.287554 0
M  V30 4485 C 416.595 1.74081 1.01877 0
M  V30 4486 C 416.908 0.541135 1.87966 0
M  V30 4487 O 418.114 0.614491 2.64455 0
M  V30 4488 C 416.57 3.08042 1.86113 0
M  V30 4489 C 416.178 4.35531 1.04961 0
M  V30 4490 C 417.922 3.36523 2.58752 0
M  V30 4491 C 415.829 5.60538 1.88551 0
M  V30 4492 H 414.759 0.64884 0.384087 0
M  V30 4493 H 417.41 1.81426 0.275101 0
M  V30 4494 H 415.792 2.94696 2.64519 0
M  V30 4495 H 416.966 4.59751 0.31074 0
M  V30 4496 H 415.281 4.14085 0.43843 0
M  V30 4497 H 417.878 4.27122 3.21668 0
M  V30 4498 H 418.221 2.56 3.28283 0
M  V30 4499 H 418.754 3.50901 1.87386 0
M  V30 4500 H 415.493 6.43767 1.23466 0
M  V30 4501 H 415.013 5.40483 2.60074 0
M  V30 4502 H 416.692 5.98297 2.46273 0
M  V30 4503 N 416.824 -0.551391 1.4764 0
M  V30 4504 C 417.754 -1.66757 1.63445 0
M  V30 4505 C 418.735 -1.63077 0.483742 0
M  V30 4506 O 419.92 -1.80607 0.71377 0
M  V30 4507 C 417.05 -3.05387 1.65396 0
M  V30 4508 C 416.004 -3.23918 2.79752 0
M  V30 4509 C 415.33 -4.63393 2.66779 0
M  V30 4510 C 416.63 -3.08735 4.21284 0
M  V30 4511 H 418.324 -1.53786 2.56886 0
M  V30 4512 H 415.87 -0.738415 1.23626 0
M  V30 4513 H 417.823 -3.83325 1.75043 0
M  V30 4514 H 416.547 -3.19332 0.685195 0
M  V30 4515 H 415.206 -2.48391 2.69625 0
M  V30 4516 H 414.854 -4.74144 1.67918 0
M  V30 4517 H 414.554 -4.7674 3.43501 0
M  V30 4518 H 416.078 -5.43458 2.78364 0
M  V30 4519 H 417.492 -3.76484 4.32357 0
M  V30 4520 H 415.889 -3.33588 4.98838 0
M  V30 4521 H 416.959 -2.0541 4.39243 0
M  V30 4522 N 418.302 -1.35869 -0.798587 0
M  V30 4523 C 419.265 -1.29307 -1.89242 0
M  V30 4524 C 420.265 -0.202747 -1.59517 0
M  V30 4525 O 421.455 -0.456957 -1.681 0
M  V30 4526 C 418.587 -1.00229 -3.25833 0
M  V30 4527 H 419.78 -2.26576 -1.96478 0
M  V30 4528 H 417.333 -1.20509 -0.995358 0
M  V30 4529 H 418.068 -0.033801 -3.24282 0
M  V30 4530 H 417.853 -1.79121 -3.48795 0
M  V30 4531 H 419.343 -0.98219 -4.05885 0
M  V30 4532 N 419.78 1.02168 -1.19998 0
M  V30 4533 C 420.713 2.10232 -0.887558 0
M  V30 4534 C 421.691 1.61827 0.158317 0
M  V30 4535 O 422.875 1.88471 0.0330249 0
M  V30 4536 C 420.002 3.37092 -0.32964 0
M  V30 4537 C 419.048 4.0438 -1.3557 0
M  V30 4538 S 419.881 4.48956 -2.91888 0
M  V30 4539 C 421.037 5.79024 -2.37658 0
M  V30 4540 H 421.27 2.36409 -1.80272 0
M  V30 4541 H 418.803 1.15211 -1.0279 0
M  V30 4542 H 420.761 4.10498 -0.0142824 0
M  V30 4543 H 419.422 3.08996 0.563941 0
M  V30 4544 H 418.615 4.95632 -0.9146 0
M  V30 4545 H 418.217 3.37176 -1.61828 0
M  V30 4546 H 420.509 6.53942 -1.77103 0
M  V30 4547 H 421.452 6.27924 -3.27287 0
M  V30 4548 H 421.86 5.35043 -1.79971 0
M  V30 4549 N 421.258 1.00505 1.21394 0
M  V30 4550 C 422.674 0.717873 1.42544 0
M  V30 4551 C 422.874 -0.706936 1.88692 0
M  V30 4552 O 421.93 -1.47627 2.04847 0
M  V30 4553 C 423.243 1.73377 2.45684 0
M  V30 4554 C 424.791 1.75059 2.59467 0
M  V30 4555 C 425.266 2.75545 3.6584 0
M  V30 4556 N 426.757 2.74213 3.73311 0
M  V30 4557 C 427.492 3.48626 4.55245 0
M  V30 4558 N 426.988 4.32678 5.41075 0
M  V30 4559 N 428.781 3.37276 4.49668 0
M  V30 4560 H 420.932 1.92506 0.897503 0
M  V30 4561 H 423.195 0.830919 0.456375 0
M  V30 4562 H 422.901 2.75395 2.18748 0
M  V30 4563 H 422.775 1.53647 3.44489 0
M  V30 4564 H 425.162 0.737337 2.8574 0
M  V30 4565 H 425.243 1.98861 1.60897 0
M  V30 4566 H 424.887 3.77028 3.40313 0
M  V30 4567 H 424.817 2.49009 4.64007 0
M  V30 4568 H 427.308 2.13234 3.11993 0
M  V30 4569 H 427.621 4.86253 6.00648 0
M  V30 4570 H 425.966 4.3676 5.40616 0
M  V30 4571 H 429.157 2.71043 3.81646 0
M  V30 4572 H 429.33 3.95524 5.13288 0
M  V30 4573 N 422.737 -1.36956 0.779787 0
M  V30 4574 C 424.014 -1.93697 0.272156 0
M  V30 4575 C 424.394 -1.71267 -1.23413 0
M  V30 4576 O 423.742 -1.06607 -2.02107 0
M  V30 4577 C 423.952 -3.42812 0.654291 0
M  V30 4578 C 425.3 -4.19921 0.628602 0
M  V30 4579 O 426.324 -3.51209 0.594172 0
M  V30 4580 O 425.183 -5.42465 0.662864 0
M  V30 4581 H 422.277 -0.824447 0.0649286 0
M  V30 4582 H 424.823 -1.46196 0.861682 0
M  V30 4583 H 423.595 -3.52754 1.69353 0
M  V30 4584 H 423.218 -3.97582 0.0381369 0
M  V30 4585 N 424.215 -0.530993 -1.48385 0
M  V30 4586 C 425.125 0.23503 -2.3342 0
M  V30 4587 C 426.141 0.93801 -1.46552 0
M  V30 4588 O 427.317 0.912745 -1.7953 0
M  V30 4589 C 424.382 1.26778 -3.22689 0
M  V30 4590 C 423.443 0.575038 -4.25431 0
M  V30 4591 C 422.676 1.55858 -5.10435 0
M  V30 4592 O 422.899 2.79129 -4.97437 0
M  V30 4593 O 421.833 1.09742 -5.91811 0
M  V30 4594 H 425.659 -0.461794 -3.00169 0
M  V30 4595 H 423.244 -0.291903 -1.46521 0
M  V30 4596 H 425.126 1.86457 -3.77904 0
M  V30 4597 H 423.801 1.94699 -2.586 0
M  V30 4598 H 422.708 -0.0622782 -3.74048 0
M  V30 4599 H 424.041 -0.062253 -4.92161 0
M  V30 4600 N 425.693 1.55336 -0.266172 0
M  V30 4601 C 426.625 2.19544 0.658247 0
M  V30 4602 C 427.638 1.17746 1.12427 0
M  V30 4603 O 428.827 1.44517 1.04772 0
M  V30 4604 C 425.927 2.80032 1.9088 0
M  V30 4605 C 425.1 4.07436 1.59106 0
M  V30 4606 C 424.159 4.52056 2.69317 0
M  V30 4607 O 423.185 5.18023 2.35883 0
M  V30 4608 N 424.387 4.21448 3.99201 0
M  V30 4609 H 427.152 2.99503 0.108754 0
M  V30 4610 H 424.713 1.61667 -0.0869059 0
M  V30 4611 H 426.705 3.06831 2.63888 0
M  V30 4612 H 425.275 2.04119 2.36758 0
M  V30 4613 H 424.495 3.88021 0.695243 0
M  V30 4614 H 425.783 4.90462 1.35367 0
M  V30 4615 H 425.181 3.68528 4.29189 0
M  V30 4616 H 423.738 4.53039 4.68614 0
M  V30 4617 N 427.171 -0.0066808 1.57599 0
M  V30 4618 C 428.396 -0.707738 1.94951 0
M  V30 4619 C 428.821 -1.66882 0.867868 0
M  V30 4620 O 428.179 -1.80457 -0.17458 0
M  V30 4621 C 428.227 -1.42162 3.31394 0
M  V30 4622 O 427.331 -2.53578 3.25226 0
M  V30 4623 H 426.672 -0.188752 0.636607 0
M  V30 4624 H 429.202 0.0445193 2.04552 0
M  V30 4625 H 429.212 -1.78655 3.66806 0
M  V30 4626 H 427.887 -0.716903 4.09675 0
M  V30 4627 H 426.464 -2.19463 3.01481 0
M  V30 4628 N 428.649 -1.55105 -0.279332 0
M  V30 4629 C 429.597 -1.88333 -1.36505 0
M  V30 4630 C 430.591 -0.759043 -1.51443 0
M  V30 4631 O 431.797 -0.943312 -1.53302 0
M  V30 4632 H 428.172 -0.59766 -0.456406 0
M  V30 4633 H 430.143 -2.79041 -1.05728 0
M  V30 4634 C 428.892 -2.16628 -2.7197 0
M  V30 4635 H 428.215 -3.02624 -2.61264 0
M  V30 4636 H 429.655 -2.43803 -3.46895 0
M  V30 4637 C 428.114 -0.971807 -3.22579 0
M  V30 4638 O 428.644 -0.203228 -4.01186 0
M  V30 4639 N 426.85 -0.771238 -2.80179 0
M  V30 4640 H 426.397 -1.39792 -2.1637 0
M  V30 4641 H 426.355 0.0263667 -3.14389 0
M  V30 4642 N 430.127 0.543554 -1.4793 0
M  V30 4643 C 431.538 1.12561 -1.48953 0
M  V30 4644 C 431.889 1.94578 -0.251754 0
M  V30 4645 O 431.014 2.0665 0.642255 0
M  V30 4646 C 431.609 2.04801 -2.69892 0
M  V30 4647 C 430.168 2.58251 -2.73831 0
M  V30 4648 C 429.315 1.34918 -2.42265 0
M  V30 4649 H 432.266 0.32947 -1.55242 0
M  V30 4650 H 432.287 2.88886 -2.47639 0
M  V30 4651 H 431.799 1.4508 -3.59963 0
M  V30 4652 H 429.9 3.21732 -1.87934 0
M  V30 4653 H 430.013 2.98312 -3.74895 0
M  V30 4654 H 428.377 1.66046 -1.93134 0
M  V30 4655 H 429.16 0.769693 -3.3456 0
M  V30 4656 N 431.605 1.3629 0.791371 0
M  V30 4657 C 432.568 1.30309 1.88553 0
M  V30 4658 C 433.568 0.211204 1.59407 0
M  V30 4659 O 434.758 0.465865 1.67855 0
M  V30 4660 C 431.89 1.01956 3.25297 0
M  V30 4661 H 433.083 2.27614 1.95273 0
M  V30 4662 H 430.636 1.21035 0.988953 0
M  V30 4663 H 431.371 0.050998 3.2426 0
M  V30 4664 H 431.156 1.80968 3.4784 0
M  V30 4665 H 432.646 1.0037 4.05359 0
M  V30 4666 N 433.083 -1.0153 1.20538 0
M  V30 4667 C 434.494 -1.56598 1.01657 0
M  V30 4668 C 434.845 -1.91505 -0.426668 0
M  V30 4669 O 433.97 -1.72375 -1.30827 0
M  V30 4670 C 434.565 -2.84542 1.83905 0
M  V30 4671 C 433.124 -3.36133 1.69386 0
M  V30 4672 C 432.271 -2.09427 1.81757 0
M  V30 4673 H 435.222 -0.838974 1.34711 0
M  V30 4674 H 435.243 -3.56004 1.34319 0
M  V30 4675 H 434.755 -2.59105 2.8894 0
M  V30 4676 H 432.856 -3.66528 0.669933 0
M  V30 4677 H 432.969 -4.08248 2.50739 0
M  V30 4678 H 431.333 -2.21941 1.24957 0
M  V30 4679 H 432.116 -1.86414 2.88279 0
M  V30 4680 N 434.561 -1.01147 -1.20859 0
M  V30 4681 C 435.493 -0.535546 -2.22855 0
M  V30 4682 C 436.506 0.379323 -1.58319 0
M  V30 4683 O 437.695 0.178489 -1.77605 0
M  V30 4684 C 434.795 0.240962 -3.38042 0
M  V30 4685 C 433.968 -0.674562 -4.32167 0
M  V30 4686 C 433.027 0.053467 -5.26173 0
M  V30 4687 O 432.053 -0.567339 -5.66366 0
M  V30 4688 N 433.255 1.32997 -5.65059 0
M  V30 4689 H 436.02 -1.41268 -2.64317 0
M  V30 4690 H 433.581 -0.888386 -1.35349 0
M  V30 4691 H 435.573 0.737115 -3.97931 0
M  V30 4692 H 434.143 1.01935 -2.95513 0
M  V30 4693 H 433.363 -1.35111 -3.70322 0
M  V30 4694 H 434.651 -1.2974 -4.91981 0
M  V30 4695 H 434.049 1.85536 -5.34409 0
M  V30 4696 H 432.606 1.77095 -6.2728 0
M  V30 4697 N 436.039 1.36541 -0.78704 0
M  V30 4698 C 437.285 1.99599 -0.358872 0
M  V30 4699 C 437.618 1.62323 1.06606 0
M  V30 4700 O 436.893 0.876858 1.73613 0
M  V30 4701 C 437.176 3.56327 -0.519944 0
M  V30 4702 C 437.029 4.03464 -1.98839 0
M  V30 4703 C 438.348 4.4005 0.0664737 0
M  V30 4704 H 435.467 0.725107 -0.131869 0
M  V30 4705 H 438.109 1.6199 -0.992936 0
M  V30 4706 H 436.259 3.88495 0.0198321 0
M  V30 4707 H 437.931 3.81793 -2.58905 0
M  V30 4708 H 436.174 3.55092 -2.49183 0
M  V30 4709 H 436.845 5.12439 -2.05207 0
M  V30 4710 H 439.321 4.14228 -0.394267 0
M  V30 4711 H 438.197 5.48847 -0.0762682 0
M  V30 4712 H 438.458 4.26655 1.15835 0
M  V30 4713 N 437.518 0.538854 1.48102 0
M  V30 4714 C 438.45 -0.256278 2.27763 0
M  V30 4715 C 439.463 -0.89633 1.35904 0
M  V30 4716 O 440.652 -0.773275 1.60881 0
M  V30 4717 C 437.752 -1.37896 3.09577 0
M  V30 4718 C 436.925 -0.839159 4.29275 0
M  V30 4719 C 435.984 -1.84405 4.9283 0
M  V30 4720 O 435.01 -1.39746 5.51779 0
M  V30 4721 N 436.212 -3.17666 4.85869 0
M  V30 4722 H 438.977 0.426968 2.96643 0
M  V30 4723 H 436.538 0.373747 1.57527 0
M  V30 4724 H 438.53 -2.04955 3.48963 0
M  V30 4725 H 437.1 -1.96572 2.4306 0
M  V30 4726 H 436.32 0.00769287 3.94199 0
M  V30 4727 H 437.608 -0.457548 5.06739 0
M  V30 4728 H 437.006 -3.56609 4.39143 0
M  V30 4729 H 435.563 -3.80334 5.29329 0
M  V30 4730 N 438.996 -1.55193 0.274407 0
M  V30 4731 C 439.943 -2.225 -0.613374 0
M  V30 4732 C 440.913 -1.19823 -1.15029 0
M  V30 4733 O 442.098 -1.48362 -1.19973 0
M  V30 4734 C 439.238 -2.94927 -1.79199 0
M  V30 4735 C 438.351 -4.12322 -1.28899 0
M  V30 4736 C 437.486 -4.72394 -2.42934 0
M  V30 4737 C 436.525 -5.81984 -1.89634 0
M  V30 4738 N 435.662 -6.36123 -2.9714 0
M  V30 4739 H 440.502 -2.97982 -0.032756 0
M  V30 4740 H 438.039 -1.47099 -0.00440146 0
M  V30 4741 H 439.997 -3.35134 -2.48478 0
M  V30 4742 H 438.627 -2.2187 -2.34465 0
M  V30 4743 H 437.679 -3.7724 -0.489327 0
M  V30 4744 H 438.991 -4.91355 -0.858587 0
M  V30 4745 H 438.145 -5.15317 -3.20208 0
M  V30 4746 H 436.884 -3.92636 -2.8929 0
M  V30 4747 H 435.889 -5.38511 -1.1084 0
M  V30 4748 H 437.114 -6.6361 -1.44215 0
M  V30 4749 H 435.06 -5.59259 -3.42878 0
M  V30 4750 H 434.977 -7.10427 -2.58515 0
M  V30 4751 H 436.245 -6.83704 -3.74391 0
M  V30 4752 N 440.474 -0.00167713 -1.576 0
M  V30 4753 C 441.885 0.54091 -1.78693 0
M  V30 4754 C 442.236 1.7386 -0.909247 0
M  V30 4755 O 441.361 2.16109 -0.112176 0
M  V30 4756 C 441.956 0.98806 -3.24072 0
M  V30 4757 C 440.515 1.47594 -3.46256 0
M  V30 4758 C 439.662 0.42792 -2.73978 0
M  V30 4759 H 442.613 -0.22784 -1.57056 0
M  V30 4760 H 442.634 1.85398 -3.32277 0
M  V30 4761 H 442.146 0.116164 -3.87926 0
M  V30 4762 H 440.247 2.36868 -2.87618 0
M  V30 4763 H 440.36 1.50225 -4.54939 0
M  V30 4764 H 438.724 0.889934 -2.38647 0
M  V30 4765 H 439.507 -0.435038 -3.40532 0
M  V30 4766 N 441.952 1.55251 0.271103 0
M  V30 4767 C 443.368 1.47133 0.618393 0
M  V30 4768 C 443.568 0.686994 1.89427 0
M  V30 4769 O 442.624 0.206609 2.51653 0
M  V30 4770 C 443.937 2.91361 0.743593 0
M  V30 4771 C 445.485 3.01587 0.837522 0
M  V30 4772 C 445.96 4.47073 0.994483 0
M  V30 4773 N 447.451 4.50909 1.05996 0
M  V30 4774 C 448.186 5.60698 1.20024 0
M  V30 4775 N 447.682 6.80348 1.30759 0
M  V30 4776 N 449.475 5.48444 1.23149 0
M  V30 4777 H 441.626 2.04698 -0.566784 0
M  V30 4778 H 443.889 0.928319 -0.192165 0
M  V30 4779 H 443.595 3.51483 -0.123493 0
M  V30 4780 H 443.469 3.40484 1.62328 0
M  V30 4781 H 445.856 2.4156 1.69507 0
M  V30 4782 H 445.937 2.55713 -0.0668086 0
M  V30 4783 H 445.581 5.07703 0.141582 0
M  V30 4784 H 445.511 4.90605 1.91349 0
M  V30 4785 H 448.002 3.6472 0.989316 0
M  V30 4786 H 448.315 7.59772 1.41303 0
M  V30 4787 H 446.66 6.83156 1.27761 0
M  V30 4788 H 449.851 4.53907 1.14394 0
M  V30 4789 H 450.024 6.34049 1.33738 0
M  V30 4790 N 443.43 -0.535701 1.48216 0
M  V30 4791 C 444.393 -1.623 1.61838 0
M  V30 4792 C 445.393 -1.53087 0.492024 0
M  V30 4793 O 446.583 -1.5686 0.757668 0
M  V30 4794 C 443.715 -3.01907 1.58319 0
M  V30 4795 H 444.908 -1.51564 2.58783 0
M  V30 4796 H 442.461 -0.757317 1.36727 0
M  V30 4797 H 443.196 -3.18155 0.628299 0
M  V30 4798 H 442.981 -3.10003 2.40085 0
M  V30 4799 H 444.471 -3.80969 1.71033 0
M  V30 4800 N 444.908 -1.36708 -0.784132 0
M  V30 4801 C 445.855 -1.31466 -1.89698 0
M  V30 4802 C 446.825 -0.18239 -1.65096 0
M  V30 4803 O 448.01 -0.369762 -1.87183 0
M  V30 4804 C 445.15 -1.1151 -3.26588 0
M  V30 4805 C 444.263 -2.33859 -3.63227 0
M  V30 4806 C 443.398 -2.06873 -4.89262 0
M  V30 4807 C 442.437 -3.25154 -5.18595 0
M  V30 4808 N 441.574 -2.978 -6.35814 0
M  V30 4809 H 446.414 -2.26619 -1.93515 0
M  V30 4810 H 443.951 -1.12625 -0.946256 0
M  V30 4811 H 445.909 -0.979653 -4.05535 0
M  V30 4812 H 444.539 -0.200103 -3.22179 0
M  V30 4813 H 443.591 -2.58188 -2.79362 0
M  V30 4814 H 444.903 -3.22109 -3.8085 0
M  V30 4815 H 444.057 -1.90289 -5.76086 0
M  V30 4816 H 442.796 -1.15942 -4.73718 0
M  V30 4817 H 441.801 -3.42292 -4.30251 0
M  V30 4818 H 443.026 -4.1692 -5.36055 0
M  V30 4819 H 440.972 -2.09485 -6.21653 0
M  V30 4820 H 440.889 -3.7959 -6.53794 0
M  V30 4821 H 442.157 -2.84805 -7.25607 0
M  V30 4822 N 446.386 1.0089 -1.21074 0
M  V30 4823 C 447.797 1.56056 -1.02486 0
M  V30 4824 C 448.148 1.91728 0.416506 0
M  V30 4825 O 447.273 1.73066 1.29912 0
M  V30 4826 C 447.868 2.83563 -1.85411 0
M  V30 4827 C 446.427 3.3523 -1.71166 0
M  V30 4828 C 445.574 2.0846 -1.82865 0
M  V30 4829 H 448.525 0.831818 -1.35154 0
M  V30 4830 H 448.546 3.55286 -1.36205 0
M  V30 4831 H 448.058 2.57569 -2.9031 0
M  V30 4832 H 446.159 3.66167 -0.689361 0
M  V30 4833 H 446.272 4.06913 -2.52901 0
M  V30 4834 H 444.636 2.21275 -1.26132 0
M  V30 4835 H 445.419 1.84883 -2.89263 0
M  V30 4836 N 447.864 1.01787 1.20321 0
M  V30 4837 C 449.275 0.739307 1.71438 0
M  V30 4838 C 449.626 -0.742041 1.81627 0
M  V30 4839 O 448.751 -1.57903 1.47971 0
M  V30 4840 C 449.346 1.33538 3.11373 0
M  V30 4841 C 447.905 1.10566 3.59795 0
M  V30 4842 C 447.052 1.44028 2.36962 0
M  V30 4843 H 450.003 1.18718 1.05317 0
M  V30 4844 H 450.024 0.726611 3.73498 0
M  V30 4845 H 449.536 2.41352 3.03926 0
M  V30 4846 H 447.637 0.0452405 3.72573 0
M  V30 4847 H 447.75 1.78661 4.44542 0
M  V30 4848 H 446.114 0.85933 2.39766 0
M  V30 4849 H 446.897 2.52901 2.32155 0
M  V30 4850 N 449.342 -1.36122 0.79427 0
M  V30 4851 C 450.753 -1.81646 0.431446 0
M  V30 4852 C 451.104 -1.66043 -1.04518 0
M  V30 4853 O 450.229 -1.1841 -1.8113 0
M  V30 4854 C 450.824 -3.29785 0.776341 0
M  V30 4855 C 449.383 -3.73501 0.466282 0
M  V30 4856 C 448.53 -2.58313 1.00844 0
M  V30 4857 H 451.481 -1.24274 0.986995 0
M  V30 4858 H 451.502 -3.80437 0.0692413 0
M  V30 4859 H 451.014 -3.4111 1.8511 0
M  V30 4860 H 449.115 -3.67733 -0.600245 0
M  V30 4861 H 449.228 -4.68754 0.990288 0
M  V30 4862 H 447.592 -2.5102 0.431406 0
M  V30 4863 H 448.375 -2.72421 2.08906 0
M  V30 4864 N 450.82 -0.546701 -1.47814 0
M  V30 4865 C 452.069 -0.0166497 -2.01693 0
M  V30 4866 C 452.382 1.33721 -1.42752 0
M  V30 4867 O 453.588 1.95658 -1.8823 0
M  V30 4868 C 452.044 0.0206769 -3.59894 0
M  V30 4869 C 451.652 -1.3293 -4.27824 0
M  V30 4870 C 453.396 0.498674 -4.21561 0
M  V30 4871 C 451.303 -1.25165 -5.78003 0
M  V30 4872 H 450.233 -0.0024541 -0.753996 0
M  V30 4873 H 452.884 -0.692984 -1.69912 0
M  V30 4874 H 451.266 0.76244 -3.88591 0
M  V30 4875 H 452.44 -2.08795 -4.10781 0
M  V30 4876 H 450.755 -1.74438 -3.78101 0
M  V30 4877 H 453.352 0.575 -5.31599 0
M  V30 4878 H 453.695 1.5083 -3.88016 0
M  V30 4879 H 454.228 -0.18791 -3.97356 0
M  V30 4880 H 450.967 -2.23695 -6.1615 0
M  V30 4881 H 450.487 -0.53464 -5.97412 0
M  V30 4882 H 452.166 -0.949299 -6.39998 0
M  V30 4883 N 452.299 1.55045 -0.282633 0
M  V30 4884 C 453.71 1.85473 0.213655 0
M  V30 4885 C 454.061 1.20465 1.54863 0
M  V30 4886 O 453.186 0.495676 2.10647 0
M  V30 4887 C 453.781 3.36496 0.394445 0
M  V30 4888 C 452.34 3.67022 0.834961 0
M  V30 4889 C 451.487 2.77218 -0.0674081 0
M  V30 4890 H 454.438 1.50478 -0.504202 0
M  V30 4891 H 454.459 3.60007 1.23186 0
M  V30 4892 H 453.971 3.83782 -0.577326 0
M  V30 4893 H 452.072 3.25241 1.81794 0
M  V30 4894 H 452.185 4.74433 0.667075 0
M  V30 4895 H 450.549 2.5069 0.450196 0
M  V30 4896 H 451.332 3.2732 -1.0352 0
M  V30 4897 N 453.777 0.010035 1.57597 0
M  V30 4898 C 454.74 -0.963029 2.07986 0
M  V30 4899 C 455.74 -1.26619 0.991173 0
M  V30 4900 O 456.93 -1.2097 1.25347 0
M  V30 4901 C 454.062 -2.2851 2.52974 0
M  V30 4902 H 455.255 -0.526971 2.95234 0
M  V30 4903 H 452.808 -0.237639 1.54483 0
M  V30 4904 H 453.543 -2.76784 1.69 0
M  V30 4905 H 453.328 -2.07824 3.32493 0
M  V30 4906 H 454.818 -2.98294 2.9225 0
M  V30 4907 N 455.255 -1.55392 -0.262866 0
M  V30 4908 C 456.202 -1.88966 -1.32516 0
M  V30 4909 C 457.172 -0.742187 -1.48596 0
M  V30 4910 O 458.357 -0.99439 -1.62839 0
M  V30 4911 C 455.497 -2.17592 -2.67858 0
M  V30 4912 C 454.61 -3.45061 -2.59917 0
M  V30 4913 C 453.745 -3.63336 -3.87505 0
M  V30 4914 C 452.784 -4.84462 -3.74116 0
M  V30 4915 N 451.921 -4.99342 -4.93561 0
M  V30 4916 H 456.761 -2.79566 -1.03184 0
M  V30 4917 H 454.298 -1.38404 -0.498285 0
M  V30 4918 H 456.256 -2.3219 -3.46617 0
M  V30 4919 H 454.886 -1.30215 -2.95371 0
M  V30 4920 H 453.938 -3.38881 -1.72812 0
M  V30 4921 H 455.25 -4.3396 -2.45926 0
M  V30 4922 H 454.404 -3.77807 -4.74707 0
M  V30 4923 H 453.143 -2.72641 -4.04374 0
M  V30 4924 H 452.148 -4.69985 -2.85297 0
M  V30 4925 H 453.373 -5.76603 -3.58757 0
M  V30 4926 H 451.319 -4.1158 -5.10821 0
M  V30 4927 H 451.236 -5.82303 -4.82141 0
M  V30 4928 H 452.504 -5.18208 -5.82306 0
M  V30 4929 N 456.733 0.527833 -1.48498 0
M  V30 4930 C 457.68 1.6322 -1.6318 0
M  V30 4931 C 458.65 1.59199 -0.473815 0
M  V30 4932 O 459.835 1.77591 -0.697563 0
M  V30 4933 C 456.975 3.01474 -1.67951 0
M  V30 4934 C 456.088 3.15713 -2.94871 0
M  V30 4935 C 455.223 4.44539 -2.90789 0
M  V30 4936 C 454.262 4.52315 -4.12404 0
M  V30 4937 N 453.399 5.72533 -4.06387 0
M  V30 4938 H 458.239 1.50011 -2.57489 0
M  V30 4939 H 455.776 0.730298 -1.27691 0
M  V30 4940 H 457.734 3.81572 -1.68698 0
M  V30 4941 H 456.364 3.1345 -0.771306 0
M  V30 4942 H 455.416 2.28854 -3.03859 0
M  V30 4943 H 456.728 3.1732 -3.8485 0
M  V30 4944 H 455.882 5.3293 -2.89949 0
M  V30 4945 H 454.621 4.45457 -1.98542 0
M  V30 4946 H 453.626 3.62331 -4.13517 0
M  V30 4947 H 454.851 4.53134 -5.05812 0
M  V30 4948 H 452.797 5.74344 -3.16962 0
M  V30 4949 H 452.714 5.75643 -4.90073 0
M  V30 4950 H 453.982 6.63204 -4.0961 0
M  V30 4951 N 458.211 1.37122 0.776871 0
M  V30 4952 C 459.622 1.28667 1.35284 0
M  V30 4953 C 459.973 -0.0680035 1.96082 0
M  V30 4954 O 459.098 -0.969743 1.93455 0
M  V30 4955 C 459.693 2.32997 2.45963 0
M  V30 4956 C 458.252 2.28191 2.99342 0
M  V30 4957 C 457.399 2.17101 1.72517 0
M  V30 4958 H 460.35 1.47819 0.577527 0
M  V30 4959 H 460.371 1.97366 3.2531 0
M  V30 4960 H 459.883 3.3158 2.01684 0
M  V30 4961 H 457.984 1.33115 3.4801 0
M  V30 4962 H 458.097 3.21397 3.55304 0
M  V30 4963 H 456.461 1.63562 1.95242 0
M  V30 4964 H 457.244 3.17591 1.30348 0
M  V30 4965 N 459.689 -1.00246 1.21608 0
M  V30 4966 C 460.914 -1.78167 1.06167 0
M  V30 4967 C 461.339 -1.84138 -0.384035 0
M  V30 4968 O 460.697 -1.28683 -1.27712 0
M  V30 4969 C 460.745 -3.19786 1.66642 0
M  V30 4970 O 459.849 -4.02153 0.913613 0
M  V30 4971 H 459.19 -0.549 0.37349 0
M  V30 4972 H 461.72 -1.25994 1.61204 0
M  V30 4973 H 461.73 -3.70451 1.70969 0
M  V30 4974 H 460.405 -3.14754 2.7185 0
M  V30 4975 H 458.982 -3.60711 0.945635 0
M  V30 4976 N 461.167 -1.02423 -1.1978 0
M  V30 4977 C 462.392 -0.7373 -1.93852 0
M  V30 4978 C 462.817 0.696923 -1.74713 0
M  V30 4979 O 462.175 1.48056 -1.04638 0
M  V30 4980 C 462.223 -1.08783 -3.438 0
M  V30 4981 O 461.327 -0.20383 -4.11896 0
M  V30 4982 H 460.668 -0.27284 -0.605355 0
M  V30 4983 H 463.198 -1.36966 -1.51992 0
M  V30 4984 H 463.208 -1.04276 -3.9445 0
M  V30 4985 H 461.883 -2.13274 -3.57053 0
M  V30 4986 H 460.46 -0.307091 -3.71633 0
M  V30 4987 N 462.645 1.35699 -0.801477 0
M  V30 4988 C 463.891 1.99208 -0.380022 0
M  V30 4989 C 464.224 1.63445 1.04878 0
M  V30 4990 O 463.499 0.895223 1.72673 0
M  V30 4991 C 463.782 3.55755 -0.557708 0
M  V30 4992 C 463.635 4.01332 -2.03107 0
M  V30 4993 C 464.954 4.40096 0.0197968 0
M  V30 4994 H 462.073 0.723667 -0.139552 0
M  V30 4995 H 464.715 1.60928 -1.01006 0
M  V30 4996 H 462.865 3.88494 -0.0213741 0
M  V30 4997 H 464.537 3.79026 -2.62939 0
M  V30 4998 H 462.78 3.52429 -2.52936 0
M  V30 4999 H 463.451 5.10234 -2.1063 0
M  V30 5000 H 465.927 4.13786 -0.438179 0
M  V30 5001 H 464.803 5.48735 -0.134477 0
M  V30 5002 H 465.064 4.2786 1.11303 0
M  V30 5003 N 464.123 0.554532 1.47522 0
M  V30 5004 C 465.348 0.0322661 2.07375 0
M  V30 5005 C 465.773 -1.25079 1.40488 0
M  V30 5006 O 465.131 -1.74859 0.47896 0
M  V30 5007 C 465.179 -0.149397 3.6029 0
M  V30 5008 O 464.283 -1.21259 3.9417 0
M  V30 5009 H 463.624 0.0501228 0.662106 0
M  V30 5010 H 466.154 0.769452 1.8958 0
M  V30 5011 H 466.164 -0.364437 4.06369 0
M  V30 5012 H 464.839 0.787743 4.08372 0
M  V30 5013 H 463.416 -0.97825 3.5984 0
M  V30 5014 N 465.601 -1.54893 0.290851 0
M  V30 5015 C 466.531 -2.26103 -0.583084 0
M  V30 5016 C 467.512 -1.25684 -1.14619 0
M  V30 5017 O 468.697 -1.54436 -1.17741 0
M  V30 5018 C 465.827 -2.99409 -1.75987 0
M  V30 5019 C 464.781 -4.0689 -1.32758 0
M  V30 5020 C 464.107 -4.67856 -2.58872 0
M  V30 5021 C 465.407 -5.20215 -0.46624 0
M  V30 5022 H 467.101 -2.99398 0.0108214 0
M  V30 5023 H 464.647 -1.43998 0.00664468 0
M  V30 5024 H 466.6 -3.47943 -2.37727 0
M  V30 5025 H 465.324 -2.23675 -2.37985 0
M  V30 5026 H 463.983 -3.59191 -0.733299 0
M  V30 5027 H 463.631 -3.88772 -3.19163 0
M  V30 5028 H 463.331 -5.40438 -2.30653 0
M  V30 5029 H 464.855 -5.19147 -3.21433 0
M  V30 5030 H 466.269 -5.64704 -0.989047 0
M  V30 5031 H 464.666 -5.99455 -0.27826 0
M  V30 5032 H 465.736 -4.82198 0.511173 0
M  V30 5033 N 467.08 -0.0183926 -1.57589 0
M  V30 5034 C 468.326 0.657813 -1.92469 0
M  V30 5035 C 468.681 1.70349 -0.894375 0
M  V30 5036 O 467.974 1.91384 0.0910389 0
M  V30 5037 C 468.168 1.32676 -3.31861 0
M  V30 5038 C 467.997 0.347403 -4.48356 0
M  V30 5039 C 466.767 -0.0488653 -5.05276 0
M  V30 5040 C 468.965 -0.393931 -5.12789 0
M  V30 5041 N 466.947 -1.02451 -6.05291 0
M  V30 5042 C 468.318 -1.22367 -6.07804 0
M  V30 5043 C 470.373 -0.455789 -4.95809 0
M  V30 5044 C 469.076 -2.10966 -6.87667 0
M  V30 5045 C 471.102 -1.32908 -5.76272 0
M  V30 5046 C 470.464 -2.14662 -6.70894 0
M  V30 5047 H 466.563 0.21335 -0.752334 0
M  V30 5048 H 469.147 -0.0830547 -1.94523 0
M  V30 5049 H 467.318 2.03782 -3.30647 0
M  V30 5050 H 469.05 1.95913 -3.54119 0
M  V30 5051 H 465.805 0.323356 -4.72495 0
M  V30 5052 H 466.229 -1.50826 -6.59985 0
M  V30 5053 H 470.871 0.162017 -4.22489 0
M  V30 5054 H 468.589 -2.73807 -7.603 0
M  V30 5055 H 472.175 -1.38109 -5.6517 0
M  V30 5056 H 471.055 -2.81143 -7.32071 0
M  V30 5057 N 468.558 1.5553 0.254621 0
M  V30 5058 C 469.783 1.81383 1.00573 0
M  V30 5059 C 470.208 0.594419 1.78461 0
M  V30 5060 O 469.566 -0.456403 1.75461 0
M  V30 5061 C 469.614 3.04892 1.92545 0
M  V30 5062 O 468.718 2.81266 3.01601 0
M  V30 5063 H 468.059 0.598969 0.286587 0
M  V30 5064 H 470.589 2.02703 0.277952 0
M  V30 5065 H 470.599 3.34119 2.34155 0
M  V30 5066 H 469.274 3.93287 1.3527 0
M  V30 5067 H 467.851 2.63185 2.64174 0
M  V30 5068 N 470.036 -0.519951 1.48776 0
M  V30 5069 C 470.966 -1.63253 1.66945 0
M  V30 5070 C 471.947 -1.62014 0.518224 0
M  V30 5071 O 473.132 -1.79053 0.751919 0
M  V30 5072 C 470.262 -3.0181 1.71836 0
M  V30 5073 C 469.216 -3.17911 2.8656 0
M  V30 5074 C 468.542 -4.5763 2.76548 0
M  V30 5075 C 469.842 -2.99729 4.27738 0
M  V30 5076 H 471.536 -1.48302 2.6009 0
M  V30 5077 H 469.082 -0.712026 1.25165 0
M  V30 5078 H 471.035 -3.79525 1.83135 0
M  V30 5079 H 469.759 -3.17806 0.752775 0
M  V30 5080 H 468.418 -2.42616 2.74833 0
M  V30 5081 H 468.066 -4.70476 1.77937 0
M  V30 5082 H 467.766 -4.69346 3.53536 0
M  V30 5083 H 469.29 -5.37431 2.89828 0
M  V30 5084 H 470.704 -3.67228 4.40246 0
M  V30 5085 H 469.101 -3.22932 5.05801 0
M  V30 5086 H 470.171 -1.96047 4.43502 0
M  V30 5087 N 471.514 -1.37532 -0.769588 0
M  V30 5088 C 472.424 -1.35668 -1.91393 0
M  V30 5089 C 473.44 -0.255954 -1.72107 0
M  V30 5090 O 474.616 -0.491704 -1.95305 0
M  V30 5091 C 471.681 -1.16481 -3.26547 0
M  V30 5092 C 470.742 -2.36212 -3.58472 0
M  V30 5093 C 469.975 -2.17932 -4.87177 0
M  V30 5094 O 470.198 -1.1647 -5.58382 0
M  V30 5095 O 469.132 -3.06167 -5.18214 0
M  V30 5096 H 472.958 -2.32055 -1.95918 0
M  V30 5097 H 470.543 -1.18284 -0.912641 0
M  V30 5098 H 472.425 -1.07778 -4.07384 0
M  V30 5099 H 471.1 -0.231687 -3.2287 0
M  V30 5100 H 470.007 -2.50488 -2.77861 0
M  V30 5101 H 471.34 -3.281 -3.66894 0
M  V30 5102 N 472.992 0.995999 -1.22138 0
M  V30 5103 C 473.924 2.08745 -0.946485 0
M  V30 5104 C 474.937 1.62633 0.0737356 0
M  V30 5105 O 476.126 1.77782 -0.159886 0
M  V30 5106 C 473.226 3.36516 -0.401305 0
M  V30 5107 C 472.399 4.11672 -1.47801 0
M  V30 5108 C 471.458 5.17728 -0.940461 0
M  V30 5109 O 470.484 5.45482 -1.62596 0
M  V30 5110 N 471.686 5.80005 0.239723 0
M  V30 5111 H 474.451 2.32908 -1.88611 0
M  V30 5112 H 472.012 1.16152 -1.12785 0
M  V30 5113 H 474.004 4.04691 -0.0270837 0
M  V30 5114 H 472.574 3.0944 0.443354 0
M  V30 5115 H 471.794 3.38171 -2.02568 0
M  V30 5116 H 473.082 4.58657 -2.20253 0
M  V30 5117 H 472.48 5.5982 0.813518 0
M  V30 5118 H 471.037 6.4943 0.555361 0
M  V30 5119 N 474.47 1.03057 1.19235 0
M  V30 5120 C 475.881 0.757449 1.70645 0
M  V30 5121 C 476.232 -0.722735 1.82403 0
M  V30 5122 O 475.357 -1.56325 1.49638 0
M  V30 5123 C 475.952 1.36833 3.09939 0
M  V30 5124 C 474.511 1.14375 3.58602 0
M  V30 5125 C 473.658 1.46533 2.35422 0
M  V30 5126 H 476.609 1.19828 1.04052 0
M  V30 5127 H 476.63 0.766184 3.72706 0
M  V30 5128 H 476.142 2.44562 3.01349 0
M  V30 5129 H 474.243 0.0847542 3.72504 0
M  V30 5130 H 474.356 1.83366 4.42622 0
M  V30 5131 H 472.72 0.884712 2.38841 0
M  V30 5132 H 473.503 2.55349 2.2946 0
M  V30 5133 N 475.948 -1.35272 0.808662 0
M  V30 5134 C 477.195 -1.98709 0.390003 0
M  V30 5135 C 477.523 -1.64148 -1.04335 0
M  V30 5136 O 476.778 -0.897797 -1.73891 0
M  V30 5137 C 477.077 -3.53556 0.522798 0
M  V30 5138 C 476.743 -4.0799 1.91977 0
M  V30 5139 C 475.405 -4.22568 2.30195 0
M  V30 5140 C 477.757 -4.37442 2.83361 0
M  V30 5141 C 475.085 -4.63918 3.59162 0
M  V30 5142 C 477.437 -4.80232 4.11776 0
M  V30 5143 C 476.101 -4.93016 4.49991 0
M  V30 5144 H 475.371 -0.727127 0.142712 0
M  V30 5145 H 478.018 -1.6145 1.02985 0
M  V30 5146 H 476.323 -3.91287 -0.200494 0
M  V30 5147 H 478.02 -4.00598 0.179608 0
M  V30 5148 H 474.61 -3.97096 1.61284 0
M  V30 5149 H 478.794 -4.25731 2.55083 0
M  V30 5150 H 474.05 -4.72005 3.88615 0
M  V30 5151 H 478.224 -5.01982 4.82687 0
M  V30 5152 H 475.851 -5.24814 5.49976 0
M  V30 5153 N 477.426 -0.562348 -1.47226 0
M  V30 5154 C 478.842 -0.222492 -1.58042 0
M  V30 5155 C 479.042 1.27505 -1.56028 0
M  V30 5156 O 478.098 2.05555 -1.46641 0
M  V30 5157 C 479.411 -0.853694 -2.88327 0
M  V30 5158 C 480.959 -0.825397 -3.01921 0
M  V30 5159 C 481.434 -1.43576 -4.34914 0
M  V30 5160 N 482.925 -1.39918 -4.41562 0
M  V30 5161 C 483.66 -1.84103 -5.43041 0
M  V30 5162 N 483.156 -2.36167 -6.51304 0
M  V30 5163 N 484.949 -1.75142 -5.34118 0
M  V30 5164 H 477.1 -1.53525 -1.46778 0
M  V30 5165 H 479.363 -0.640527 -0.698877 0
M  V30 5166 H 479.069 -1.90635 -2.95552 0
M  V30 5167 H 478.943 -0.34977 -3.75575 0
M  V30 5168 H 481.33 0.218583 -2.94289 0
M  V30 5169 H 481.411 -1.36713 -2.16202 0
M  V30 5170 H 481.055 -2.47884 -4.43301 0
M  V30 5171 H 480.985 -0.869427 -5.19373 0
M  V30 5172 H 483.476 -1.0184 -3.63919 0
M  V30 5173 H 483.789 -2.67793 -7.24919 0
M  V30 5174 H 482.134 -2.40181 -6.52179 0
M  V30 5175 H 485.325 -1.34241 -4.48439 0
M  V30 5176 H 485.498 -2.09895 -6.13065 0
M  V30 5177 N 478.904 1.54736 -0.299062 0
M  V30 5178 C 480.153 1.99279 0.311549 0
M  V30 5179 C 480.466 1.19107 1.55154 0
M  V30 5180 O 481.672 1.53908 2.23662 0
M  V30 5181 C 480.128 3.54768 0.605632 0
M  V30 5182 C 479.736 4.43746 -0.615914 0
M  V30 5183 C 481.48 4.07841 1.17754 0
M  V30 5184 C 479.387 5.90663 -0.29509 0
M  V30 5185 H 478.317 0.744359 0.120187 0
M  V30 5186 H 480.968 1.78919 -0.407464 0
M  V30 5187 H 479.35 3.71021 1.38419 0
M  V30 5188 H 480.524 4.39267 -1.39218 0
M  V30 5189 H 478.839 4.01434 -1.10633 0
M  V30 5190 H 481.436 5.15174 1.43179 0
M  V30 5191 H 481.779 3.58324 2.11918 0
M  V30 5192 H 482.312 3.95123 0.460739 0
M  V30 5193 H 479.051 6.44325 -1.20524 0
M  V30 5194 H 478.571 5.98155 0.44394 0
M  V30 5195 H 480.25 6.46916 0.104048 0
M  V30 5196 N 480.382 0.0267497 1.57577 0
M  V30 5197 C 481.292 -0.971633 2.13533 0
M  V30 5198 C 482.308 -1.35868 1.08701 0
M  V30 5199 O 483.484 -1.44058 1.40746 0
M  V30 5200 C 480.549 -2.23622 2.64941 0
M  V30 5201 C 479.61 -1.90982 3.8448 0
M  V30 5202 C 478.843 -3.11411 4.33427 0
M  V30 5203 O 479.066 -4.23992 3.81558 0
M  V30 5204 O 478 -2.93848 5.25297 0
M  V30 5205 H 481.826 -0.525853 2.99113 0
M  V30 5206 H 479.411 -0.193712 1.48139 0
M  V30 5207 H 481.293 -2.97864 2.98086 0
M  V30 5208 H 479.968 -2.67386 1.82446 0
M  V30 5209 H 478.875 -1.14132 3.56265 0
M  V30 5210 H 480.208 -1.52036 4.6813 0
M  V30 5211 N 481.861 -1.55662 -0.24637 0
M  V30 5212 C 482.791 -1.93377 -1.30873 0
M  V30 5213 C 483.772 -0.798773 -1.50179 0
M  V30 5214 O 484.957 -1.0591 -1.62778 0
M  V30 5215 C 482.087 -2.22893 -2.66338 0
M  V30 5216 C 481.041 -3.38649 -2.61727 0
M  V30 5217 C 480.367 -3.53708 -4.00992 0
M  V30 5218 C 481.667 -4.74323 -2.18666 0
M  V30 5219 H 483.361 -2.82363 -0.995552 0
M  V30 5220 H 480.907 -1.35854 -0.477464 0
M  V30 5221 H 482.86 -2.47866 -3.40794 0
M  V30 5222 H 481.584 -1.30733 -2.99293 0
M  V30 5223 H 480.243 -3.13685 -1.89729 0
M  V30 5224 H 479.891 -2.58967 -4.31214 0
M  V30 5225 H 479.591 -4.31551 -3.98795 0
M  V30 5226 H 481.115 -3.81003 -4.77147 0
M  V30 5227 H 482.529 -4.98665 -2.82854 0
M  V30 5228 H 480.926 -5.55273 -2.27579 0
M  V30 5229 H 481.996 -4.71349 -1.13834 0
M  V30 5230 N 483.339 0.512053 -1.4905 0
M  V30 5231 C 484.588 1.26343 -1.57227 0
M  V30 5232 C 484.901 1.93876 -0.259155 0
M  V30 5233 O 486.107 2.70612 -0.219358 0
M  V30 5234 C 484.563 2.29343 -2.77362 0
M  V30 5235 C 484.171 1.67799 -4.15388 0
M  V30 5236 C 485.915 3.05378 -2.94864 0
M  V30 5237 C 483.822 2.68845 -5.2676 0
M  V30 5238 H 482.752 0.475231 -0.585382 0
M  V30 5239 H 485.403 0.53862 -1.75417 0
M  V30 5240 H 483.785 3.04938 -2.52643 0
M  V30 5241 H 484.959 0.982715 -4.50199 0
M  V30 5242 H 483.274 1.04194 -4.03153 0
M  V30 5243 H 485.871 3.80921 -3.75238 0
M  V30 5244 H 486.214 3.62327 -2.05 0
M  V30 5245 H 486.747 2.36898 -3.19569 0
M  V30 5246 H 483.486 2.16692 -6.18647 0
M  V30 5247 H 483.006 3.36647 -4.96416 0
M  V30 5248 H 484.685 3.31487 -5.5563 0
M  V30 5249 N 484.817 1.37938 0.762283 0
M  V30 5250 C 485.749 1.30349 1.88525 0
M  V30 5251 C 486.762 0.217402 1.61342 0
M  V30 5252 O 487.951 0.474291 1.72084 0
M  V30 5253 C 485.051 0.994844 3.23969 0
M  V30 5254 C 484.224 2.18829 3.78725 0
M  V30 5255 C 483.283 1.84844 4.92665 0
M  V30 5256 O 482.309 2.57244 5.07754 0
M  V30 5257 N 483.511 0.798201 5.74986 0
M  V30 5258 H 486.276 2.27114 1.95549 0
M  V30 5259 H 483.837 1.31686 0.941825 0
M  V30 5260 H 485.829 0.748168 3.97724 0
M  V30 5261 H 484.399 0.115446 3.12387 0
M  V30 5262 H 483.619 2.59615 2.96637 0
M  V30 5263 H 484.907 2.98497 4.1204 0
M  V30 5264 H 484.305 0.197611 5.65355 0
M  V30 5265 H 482.862 0.611396 6.48926 0
M  V30 5266 N 486.295 -0.989507 1.22664 0
M  V30 5267 C 487.543 -1.72612 1.05117 0
M  V30 5268 C 487.864 -1.90552 -0.414131 0
M  V30 5269 O 487.134 -1.4676 -1.29762 0
M  V30 5270 H 485.714 -0.639555 0.385977 0
M  V30 5271 H 488.376 -1.19158 1.54232 0
M  V30 5272 H 487.472 -2.71926 1.53175 0
M  V30 5273 N 487.773 -1.03688 -1.18687 0
M  V30 5274 C 488.998 -0.757819 -1.93059 0
M  V30 5275 C 489.423 0.678353 -1.75442 0
M  V30 5276 O 488.781 1.46938 -1.06203 0
M  V30 5277 C 488.829 -1.12423 -3.42627 0
M  V30 5278 O 487.933 -0.247505 -4.11657 0
M  V30 5279 H 487.274 -0.279245 -0.602427 0
M  V30 5280 H 489.804 -1.3857 -1.5053 0
M  V30 5281 H 489.814 -1.08454 -3.93322 0
M  V30 5282 H 488.489 -2.17049 -3.54771 0
M  V30 5283 H 487.066 -0.34649 -3.71287 0
M  V30 5284 N 489.251 1.34841 -0.815825 0
M  V30 5285 C 490.198 2.29644 -0.230664 0
M  V30 5286 C 491.168 1.53253 0.640533 0
M  V30 5287 O 492.353 1.81653 0.583672 0
M  V30 5288 C 489.493 3.39715 0.607275 0
M  V30 5289 C 488.606 4.31056 -0.28538 0
M  V30 5290 C 487.741 5.28225 0.561446 0
M  V30 5291 C 486.78 6.11204 -0.331035 0
M  V30 5292 N 485.917 7.00483 0.476302 0
M  V30 5293 H 490.757 2.79095 -1.0445 0
M  V30 5294 H 488.294 1.37351 -0.526595 0
M  V30 5295 H 490.252 4.02208 1.10835 0
M  V30 5296 H 488.882 2.91517 1.38629 0
M  V30 5297 H 487.934 3.69487 -0.904621 0
M  V30 5298 H 489.246 4.89239 -0.97193 0
M  V30 5299 H 488.4 5.96135 1.12728 0
M  V30 5300 H 487.139 4.70562 1.28153 0
M  V30 5301 H 486.144 5.42232 -0.909069 0
M  V30 5302 H 487.369 6.70947 -1.04912 0
M  V30 5303 H 485.315 6.45296 1.18019 0
M  V30 5304 H 485.232 7.55847 -0.152008 0
M  V30 5305 H 486.5 7.7273 1.02512 0
M  V30 5306 N 490.729 0.570148 1.46925 0
M  V30 5307 C 491.975 0.0510284 2.02736 0
M  V30 5308 C 492.308 -1.3006 1.44215 0
M  V30 5309 O 491.583 -1.84932 0.602521 0
M  V30 5310 C 491.866 -0.028215 3.60089 0
M  V30 5311 C 491.719 1.35142 4.29018 0
M  V30 5312 C 493.038 -0.735181 4.33916 0
M  V30 5313 H 490.157 0.0200178 0.736728 0
M  V30 5314 H 492.799 0.73493 1.75211 0
M  V30 5315 H 490.949 -0.610648 3.83671 0
M  V30 5316 H 492.621 1.97806 4.16738 0
M  V30 5317 H 490.864 1.9226 3.88868 0
M  V30 5318 H 491.535 1.24857 5.37694 0
M  V30 5319 H 494.011 -0.240519 4.15404 0
M  V30 5320 H 492.887 -0.759622 5.43618 0
M  V30 5321 H 493.148 -1.79397 4.04066 0
M  V30 5322 N 492.207 -1.54576 0.307264 0
M  V30 5323 C 493.155 -2.25208 -0.581723 0
M  V30 5324 C 494.149 -1.26031 -1.13192 0
M  V30 5325 O 495.355 -1.43862 -1.08184 0
M  V30 5326 H 491.73 -0.723173 -0.206214 0
M  V30 5327 H 493.701 -2.98378 0.0364663 0
M  V30 5328 C 492.45 -3.01086 -1.73904 0
M  V30 5329 H 491.773 -3.77208 -1.32491 0
M  V30 5330 H 493.213 -3.5378 -2.33701 0
M  V30 5331 C 491.672 -2.08422 -2.64692 0
M  V30 5332 O 492.202 -1.65636 -3.65961 0
M  V30 5333 N 490.408 -1.74247 -2.32564 0
M  V30 5334 H 489.955 -2.09238 -1.50257 0
M  V30 5335 H 489.913 -1.12524 -2.93574 0
M  V30 5336 N 493.685 -0.035106 -1.57561 0
M  V30 5337 C 494.648 0.929819 -2.09492 0
M  V30 5338 C 495.648 1.25026 -1.01119 0
M  V30 5339 O 496.838 1.18961 -1.27255 0
M  V30 5340 C 493.97 2.24457 -2.56577 0
M  V30 5341 H 495.163 0.479935 -2.96035 0
M  V30 5342 H 492.716 0.213033 -1.54841 0
M  V30 5343 H 493.451 2.74061 -1.73382 0
M  V30 5344 H 493.236 2.02508 -3.35757 0
M  V30 5345 H 494.726 2.93607 -2.96959 0
M  V30 5346 N 495.163 1.55791 0.238111 0
M  V30 5347 C 496.44 1.68798 0.98826 0
M  V30 5348 C 496.82 0.577562 2.03045 0
M  V30 5349 O 496.168 -0.41778 2.24648 0
M  V30 5350 C 496.378 3.09454 1.61367 0
M  V30 5351 C 497.726 3.68335 2.11221 0
M  V30 5352 O 498.75 3.1231 1.71292 0
M  V30 5353 O 497.609 4.6657 2.84561 0
M  V30 5354 H 494.703 0.686881 0.460568 0
M  V30 5355 H 497.249 1.68118 0.231202 0
M  V30 5356 H 496.021 3.81726 0.860295 0
M  V30 5357 H 495.644 3.14182 2.4367 0
M  V30 5358 N 496.642 -0.504142 1.49319 0
M  V30 5359 C 497.552 -1.63248 1.68486 0
M  V30 5360 C 498.568 -1.64488 0.567432 0
M  V30 5361 O 499.744 -1.82966 0.841749 0
M  V30 5362 C 496.809 -2.99627 1.74426 0
M  V30 5363 C 495.87 -3.09039 2.97982 0
M  V30 5364 C 495.103 -4.38913 3.0363 0
M  V30 5365 O 495.326 -5.27528 2.16958 0
M  V30 5366 O 494.26 -4.53231 3.96062 0
M  V30 5367 H 498.086 -1.50008 2.64067 0
M  V30 5368 H 495.671 -0.680086 1.33023 0
M  V30 5369 H 497.553 -3.80689 1.80705 0
M  V30 5370 H 496.228 -3.13136 0.820233 0
M  V30 5371 H 495.135 -2.27177 2.97223 0
M  V30 5372 H 496.468 -3.00456 3.89855 0
M  V30 5373 N 498.12 -1.38341 -0.754957 0
M  V30 5374 C 499.536 -1.19508 -1.05783 0
M  V30 5375 C 499.736 -0.0428005 -2.01455 0
M  V30 5376 O 498.792 0.611861 -2.44975 0
M  V30 5377 C 500.105 -2.52091 -1.63923 0
M  V30 5378 C 501.653 -2.58762 -1.76101 0
M  V30 5379 C 502.128 -3.91517 -2.37652 0
M  V30 5380 N 503.619 -3.93049 -2.45085 0
M  V30 5381 C 504.354 -4.9253 -2.93602 0
M  V30 5382 N 503.85 -6.02408 -3.42165 0
M  V30 5383 N 505.643 -4.79921 -2.92629 0
M  V30 5384 H 497.794 -2.1206 -0.120056 0
M  V30 5385 H 500.057 -0.94089 -0.11589 0
M  V30 5386 H 499.763 -3.36858 -1.01093 0
M  V30 5387 H 499.637 -2.70388 -2.63003 0
M  V30 5388 H 502.024 -1.74391 -2.38058 0
M  V30 5389 H 502.105 -2.44333 -0.757294 0
M  V30 5390 H 501.749 -4.76309 -1.76329 0
M  V30 5391 H 501.679 -4.03256 -3.38662 0
M  V30 5392 H 504.17 -3.13685 -2.10736 0
M  V30 5393 H 504.483 -6.74248 -3.77637 0
M  V30 5394 H 502.828 -6.0603 -3.40225 0
M  V30 5395 H 506.019 -3.93194 -2.54001 0
M  V30 5396 H 506.192 -5.57601 -3.30128 0
M  V30 5397 N 499.598 0.982988 -1.23187 0
M  V30 5398 C 500.531 2.07302 -0.953993 0
M  V30 5399 C 501.509 1.62249 0.106753 0
M  V30 5400 O 502.693 1.88481 -0.0269525 0
M  V30 5401 C 499.82 3.35873 -0.436716 0
M  V30 5402 C 498.866 3.99862 -1.48367 0
M  V30 5403 S 499.699 4.39443 -3.06023 0
M  V30 5404 C 500.855 5.7117 -2.55959 0
M  V30 5405 H 501.088 2.30554 -1.87702 0
M  V30 5406 H 498.621 1.11883 -1.06403 0
M  V30 5407 H 500.579 4.10244 -0.144872 0
M  V30 5408 H 499.24 3.10634 0.465351 0
M  V30 5409 H 498.433 4.92471 -1.07182 0
M  V30 5410 H 498.035 3.31857 -1.72473 0
M  V30 5411 H 500.327 6.47977 -1.97818 0
M  V30 5412 H 501.27 6.17194 -3.47098 0
M  V30 5413 H 501.678 5.29046 -1.96902 0
M  V30 5414 N 501.076 1.04316 1.18135 0
M  V30 5415 C 502.023 0.636398 2.21853 0
M  V30 5416 C 502.993 -0.357039 1.62217 0
M  V30 5417 O 504.178 -0.250453 1.89149 0
M  V30 5418 C 501.318 0.00812779 3.45099 0
M  V30 5419 C 500.431 1.04933 4.19062 0
M  V30 5420 C 499.566 0.389313 5.29771 0
M  V30 5421 C 498.605 1.41544 5.9551 0
M  V30 5422 N 497.742 0.78021 6.97751 0
M  V30 5423 H 502.582 1.52536 2.56002 0
M  V30 5424 H 500.119 0.76304 1.25762 0
M  V30 5425 H 502.077 -0.373497 4.15525 0
M  V30 5426 H 500.707 -0.844336 3.11562 0
M  V30 5427 H 499.759 1.54888 3.47439 0
M  V30 5428 H 501.071 1.82862 4.64072 0
M  V30 5429 H 500.225 -0.0463805 6.06682 0
M  V30 5430 H 498.964 -0.422038 4.8587 0
M  V30 5431 H 497.969 1.86124 5.17337 0
M  V30 5432 H 499.194 2.22854 6.41493 0
M  V30 5433 H 497.14 -0.0107899 6.55999 0
M  V30 5434 H 497.057 1.49716 7.41027 0
M  V30 5435 H 498.325 0.368996 7.78626 0
M  V30 5436 N 502.554 -1.34406 0.822964 0
M  V30 5437 C 503.484 -2.32052 0.259608 0
M  V30 5438 C 504.465 -1.58243 -0.623961 0
M  V30 5439 O 505.65 -1.86224 -0.55083 0
M  V30 5440 C 502.78 -3.42434 -0.579314 0
M  V30 5441 C 501.734 -4.27499 0.20712 0
M  V30 5442 C 501.06 -5.29349 -0.754547 0
M  V30 5443 C 502.36 -5.02758 1.41533 0
M  V30 5444 H 504.054 -2.79418 1.07545 0
M  V30 5445 H 501.6 -1.34338 0.518593 0
M  V30 5446 H 503.553 -4.0976 -0.983612 0
M  V30 5447 H 502.277 -2.93717 -1.4282 0
M  V30 5448 H 500.936 -3.61776 0.592787 0
M  V30 5449 H 500.584 -4.76895 -1.59939 0
M  V30 5450 H 500.284 -5.8714 -0.232561 0
M  V30 5451 H 501.808 -5.99544 -1.1567 0
M  V30 5452 H 503.222 -5.62938 1.08504 0
M  V30 5453 H 501.619 -5.70123 1.87296 0
M  V30 5454 H 502.689 -4.32451 2.1935 0
M  V30 5455 N 504.032 -0.577932 -1.46621 0
M  V30 5456 C 505.278 -0.0617793 -2.02706 0
M  V30 5457 C 505.611 1.29294 -1.44903 0
M  V30 5458 O 504.886 1.8461 -0.61232 0
M  V30 5459 C 505.169 0.00911824 -3.60099 0
M  V30 5460 C 505.022 -1.37416 -4.28295 0
M  V30 5461 C 506.341 0.712159 -4.343 0
M  V30 5462 H 503.46 -0.0239246 -0.736612 0
M  V30 5463 H 506.102 -0.744211 -1.74818 0
M  V30 5464 H 504.252 0.590292 -3.83989 0
M  V30 5465 H 505.924 -2.00013 -4.15683 0
M  V30 5466 H 504.167 -1.94319 -3.87843 0
M  V30 5467 H 504.838 -1.27707 -5.37024 0
M  V30 5468 H 507.314 0.218486 -4.15526 0
M  V30 5469 H 506.19 0.730782 -5.44014 0
M  V30 5470 H 506.451 1.77251 -4.05012 0
M  V30 5471 N 505.51 1.54411 -0.315457 0
M  V30 5472 C 506.756 2.00716 0.289972 0
M  V30 5473 C 507.089 1.2034 1.5242 0
M  V30 5474 O 506.364 0.283579 1.92422 0
M  V30 5475 C 506.647 3.54507 0.632196 0
M  V30 5476 C 506.5 4.45615 -0.61218 0
M  V30 5477 C 507.819 4.15421 1.45305 0
M  V30 5478 H 504.938 0.729637 0.10392 0
M  V30 5479 H 507.58 1.8506 -0.430427 0
M  V30 5480 H 505.73 3.67979 1.24595 0
M  V30 5481 H 507.402 4.44026 -1.25053 0
M  V30 5482 H 505.645 4.15621 -1.24264 0
M  V30 5483 H 506.316 5.51022 -0.328379 0
M  V30 5484 H 508.792 4.05474 0.934331 0
M  V30 5485 H 507.668 5.23157 1.66127 0
M  V30 5486 H 507.929 3.68223 2.44671 0
M  V30 5487 N 506.988 0.0434614 1.5754 0
M  V30 5488 C 507.92 -0.962586 2.08007 0
M  V30 5489 C 508.933 -1.27972 1.00634 0
M  V30 5490 O 510.122 -1.24186 1.28219 0
M  V30 5491 C 507.222 -2.28621 2.50171 0
M  V30 5492 C 506.395 -2.15214 3.80791 0
M  V30 5493 C 505.454 -3.30633 4.09351 0
M  V30 5494 O 504.48 -3.0688 4.79388 0
M  V30 5495 N 505.682 -4.54873 3.60654 0
M  V30 5496 H 508.447 -0.531891 2.94942 0
M  V30 5497 H 506.008 -0.142965 1.61268 0
M  V30 5498 H 508 -3.04689 2.66359 0
M  V30 5499 H 506.57 -2.63283 1.68525 0
M  V30 5500 H 505.79 -1.23785 3.74261 0
M  V30 5501 H 507.078 -2.03475 4.66343 0
M  V30 5502 H 506.476 -4.77063 3.04019 0
M  V30 5503 H 505.033 -5.2806 3.82094 0
M  V30 5504 N 508.466 -1.55915 -0.229846 0
M  V30 5505 C 509.429 -1.90914 -1.26824 0
M  V30 5506 C 510.429 -0.786999 -1.40225 0
M  V30 5507 O 511.619 -1.05484 -1.38632 0
M  V30 5508 C 508.751 -2.15264 -2.64337 0
M  V30 5509 H 509.944 -2.8378 -0.969998 0
M  V30 5510 H 507.497 -1.49069 -0.4699 0
M  V30 5511 H 508.232 -1.24923 -2.99274 0
M  V30 5512 H 508.017 -2.97005 -2.55989 0
M  V30 5513 H 509.507 -2.43467 -3.39284 0
M  V30 5514 N 509.944 0.496216 -1.49584 0
M  V30 5515 C 511.192 1.24756 -1.58998 0
M  V30 5516 C 511.513 1.92968 -0.280775 0
M  V30 5517 O 510.783 1.82959 0.700198 0
M  V30 5518 H 509.363 0.463471 -0.585836 0
M  V30 5519 H 512.025 0.574678 -1.86235 0
M  V30 5520 H 511.121 2.00895 -2.38847 0
M  V30 5521 N 511.423 1.38739 0.74761 0
M  V30 5522 C 512.353 1.39173 1.87492 0
M  V30 5523 C 513.334 0.256794 1.6815 0
M  V30 5524 O 514.519 0.460762 1.88655 0
M  V30 5525 C 511.649 1.22197 3.25093 0
M  V30 5526 C 510.603 2.32957 3.59047 0
M  V30 5527 C 509.929 2.01082 4.95449 0
M  V30 5528 C 511.229 3.75237 3.6331 0
M  V30 5529 H 512.923 2.3351 1.87386 0
M  V30 5530 H 510.469 1.12399 0.900134 0
M  V30 5531 H 512.422 1.21124 4.03617 0
M  V30 5532 H 511.146 0.243241 3.25693 0
M  V30 5533 H 509.805 2.33226 2.82845 0
M  V30 5534 H 509.453 1.01678 4.92616 0
M  V30 5535 H 509.153 2.75267 5.19136 0
M  V30 5536 H 510.677 2.01638 5.76346 0
M  V30 5537 H 512.091 3.76966 4.31937 0
M  V30 5538 H 510.488 4.48677 3.98509 0
M  V30 5539 H 511.558 4.07122 2.634 0
M  V30 5540 N 512.901 -0.976442 1.23707 0
M  V30 5541 C 514.148 -1.71827 1.07153 0
M  V30 5542 C 514.476 -1.9053 -0.390982 0
M  V30 5543 O 513.731 -1.45779 -1.30564 0
M  V30 5544 C 514.03 -3.11814 1.74662 0
M  V30 5545 C 513.696 -3.12978 3.24585 0
M  V30 5546 C 512.358 -3.13003 3.6549 0
M  V30 5547 C 514.71 -3.07986 4.20469 0
M  V30 5548 C 512.038 -3.05757 5.00729 0
M  V30 5549 C 514.39 -3.02282 5.55705 0
M  V30 5550 C 513.054 -3.00631 5.95968 0
M  V30 5551 H 512.324 -0.628758 0.392102 0
M  V30 5552 H 514.971 -1.14239 1.53693 0
M  V30 5553 H 513.276 -3.72812 1.20492 0
M  V30 5554 H 514.973 -3.67989 1.59328 0
M  V30 5555 H 511.563 -3.13718 2.92026 0
M  V30 5556 H 515.747 -3.07103 3.89874 0
M  V30 5557 H 511.003 -3.02834 5.31132 0
M  V30 5558 H 515.177 -2.97376 6.29714 0
M  V30 5559 H 512.804 -2.94771 7.00724 0
M  V30 5560 N 514.379 -1.04941 -1.1758 0
M  V30 5561 C 515.329 -0.618378 -2.19454 0
M  V30 5562 C 516.313 0.343813 -1.57184 0
M  V30 5563 O 517.505 0.16145 -1.76262 0
M  V30 5564 C 514.634 0.00803847 -3.43299 0
M  V30 5565 C 513.72 -0.977827 -4.12673 0
M  V30 5566 N 514.111 -2.14826 -4.57912 0
M  V30 5567 C 512.409 -0.805748 -4.38661 0
M  V30 5568 C 513.11 -2.77174 -5.11419 0
M  V30 5569 N 512.086 -2.04989 -5.03468 0
M  V30 5570 H 515.888 -1.51018 -2.52132 0
M  V30 5571 H 513.402 -0.919201 -1.33882 0
M  V30 5572 H 515.399 0.334584 -4.15555 0
M  V30 5573 H 514.059 0.895272 -3.12114 0
M  V30 5574 H 515.07 -2.52673 -4.52081 0
M  V30 5575 H 511.747 0.0306506 -4.17489 0
M  V30 5576 H 513.137 -3.76416 -5.56562 0
M  V30 5577 N 515.857 1.33968 -0.830081 0
M  V30 5578 C 517.105 1.97672 -0.420734 0
M  V30 5579 C 517.426 1.66111 1.02138 0
M  V30 5580 O 516.696 0.955503 1.71017 0
M  V30 5581 H 515.276 0.73125 -0.152587 0
M  V30 5582 H 517.938 1.63483 -1.0611 0
M  V30 5583 H 517.034 3.07294 -0.545588 0
M  V30 5584 N 517.335 0.585699 1.46312 0
M  V30 5585 C 518.283 -0.158577 2.32059 0
M  V30 5586 C 519.277 -0.881427 1.44662 0
M  V30 5587 O 520.483 -0.799476 1.61271 0
M  V30 5588 H 516.858 -0.0700066 0.748734 0
M  V30 5589 H 518.829 0.583383 2.92642 0
M  V30 5590 C 517.578 -1.15701 3.27885 0
M  V30 5591 H 516.901 -0.610215 3.95116 0
M  V30 5592 H 518.341 -1.64812 3.90657 0
M  V30 5593 C 516.8 -2.21951 2.53455 0
M  V30 5594 O 517.33 -3.29352 2.29978 0
M  V30 5595 N 515.536 -1.9664 2.13965 0
M  V30 5596 H 515.083 -1.09309 2.33258 0
M  V30 5597 H 515.041 -2.6794 1.64485 0
M  V30 5598 N 518.813 -1.54241 0.323641 0
M  V30 5599 C 519.723 -2.28033 -0.551205 0
M  V30 5600 C 520.739 -1.32388 -1.12913 0
M  V30 5601 O 521.915 -1.65403 -1.14908 0
M  V30 5602 C 518.98 -3.02382 -1.69606 0
M  V30 5603 C 518.041 -4.13612 -1.14993 0
M  V30 5604 C 517.274 -4.84407 -2.24022 0
M  V30 5605 O 517.497 -4.54716 -3.44368 0
M  V30 5606 O 516.431 -5.71312 -1.89436 0
M  V30 5607 H 520.257 -3.03662 0.048066 0
M  V30 5608 H 517.842 -1.49133 0.0893289 0
M  V30 5609 H 519.724 -3.48941 -2.36259 0
M  V30 5610 H 518.399 -2.29628 -2.28151 0
M  V30 5611 H 517.306 -3.71402 -0.448484 0
M  V30 5612 H 518.639 -4.8841 -0.609608 0
M  V30 5613 N 520.291 -0.0518155 -1.57515 0
M  V30 5614 C 521.224 0.957758 -2.07129 0
M  V30 5615 C 522.202 1.30355 -0.971927 0
M  V30 5616 O 523.386 1.41631 -1.2439 0
M  V30 5617 C 520.513 2.27157 -2.51232 0
M  V30 5618 C 519.559 2.07879 -3.72409 0
M  V30 5619 S 520.392 1.35656 -5.18033 0
M  V30 5620 C 521.548 2.68359 -5.65451 0
M  V30 5621 H 521.781 0.53552 -2.92437 0
M  V30 5622 H 519.314 0.160465 -1.53564 0
M  V30 5623 H 521.272 3.02676 -2.77304 0
M  V30 5624 H 519.933 2.66509 -1.66228 0
M  V30 5625 H 519.126 3.05061 -4.01191 0
M  V30 5626 H 518.728 1.40499 -3.46606 0
M  V30 5627 H 521.02 3.64526 -5.71076 0
M  V30 5628 H 521.963 2.44213 -6.64654 0
M  V30 5629 H 522.371 2.74647 -4.93183 0
M  V30 5630 N 521.769 1.56035 0.221574 0
M  V30 5631 C 522.699 1.95434 1.2778 0
M  V30 5632 C 523.68 0.822564 1.48889 0
M  V30 5633 O 524.865 1.08486 1.61072 0
M  V30 5634 C 521.995 2.27102 2.62759 0
M  V30 5635 C 520.949 3.4277 2.56306 0
M  V30 5636 C 520.275 3.60043 3.95314 0
M  V30 5637 C 521.575 4.77742 2.11093 0
M  V30 5638 H 523.269 2.83912 0.950504 0
M  V30 5639 H 520.815 1.36596 0.455791 0
M  V30 5640 H 522.768 2.53256 3.36807 0
M  V30 5641 H 521.492 1.35478 2.97176 0
M  V30 5642 H 520.151 3.16664 1.84715 0
M  V30 5643 H 519.799 2.65794 4.27039 0
M  V30 5644 H 519.499 4.37841 3.91879 0
M  V30 5645 H 521.023 3.88545 4.71025 0
M  V30 5646 H 522.437 5.03102 2.74885 0
M  V30 5647 H 520.834 5.58823 2.18716 0
M  V30 5648 H 521.904 4.731 1.06321 0
M  V30 5649 N 523.247 -0.488276 1.49845 0
M  V30 5650 C 524.487 -1.2516 1.61599 0
M  V30 5651 C 524.851 -1.89615 0.301706 0
M  V30 5652 O 526.052 -2.67182 0.29453 0
M  V30 5653 C 524.323 -2.2805 2.75187 0
M  V30 5654 S 525.882 -3.13552 3.0697 0
M  V30 5655 H 522.7 -0.425178 0.569864 0
M  V30 5656 H 525.302 -0.551545 1.87559 0
M  V30 5657 H 524.006 -1.7925 3.69185 0
M  V30 5658 H 523.537 -3.02708 2.5126 0
M  V30 5659 H 525.552 -4.28927 2.49471 0
M  V30 5660 N 524.725 -1.39134 -0.740242 0
M  V30 5661 C 525.672 -1.37434 -1.8542 0
M  V30 5662 C 526.642 -0.234822 -1.64432 0
M  V30 5663 O 527.827 -0.429125 -1.85912 0
M  V30 5664 C 524.967 -1.21844 -3.22875 0
M  V30 5665 C 524.08 -2.45296 -3.55603 0
M  V30 5666 C 523.215 -2.22334 -4.82432 0
M  V30 5667 C 522.254 -3.41488 -5.07988 0
M  V30 5668 N 521.391 -3.17877 -6.26018 0
M  V30 5669 H 526.231 -2.3266 -1.86207 0
M  V30 5670 H 523.768 -1.15578 -0.909946 0
M  V30 5671 H 525.726 -1.10818 -4.02213 0
M  V30 5672 H 524.356 -0.3025 -3.21379 0
M  V30 5673 H 523.408 -2.66945 -2.71006 0
M  V30 5674 H 524.72 -3.34063 -3.7041 0
M  V30 5675 H 523.874 -2.0852 -5.69741 0
M  V30 5676 H 522.613 -1.30954 -4.6979 0
M  V30 5677 H 521.618 -3.55807 -4.19144 0
M  V30 5678 H 522.843 -4.33763 -5.22519 0
M  V30 5679 H 520.789 -2.29156 -6.14673 0
M  V30 5680 H 520.706 -4.00198 -6.41387 0
M  V30 5681 H 521.974 -3.07746 -7.16179 0
M  V30 5682 N 526.204 0.969867 -1.24223 0
M  V30 5683 C 527.432 1.74756 -1.10761 0
M  V30 5684 C 527.847 1.85713 0.340041 0
M  V30 5685 O 527.204 1.34389 1.23474 0
M  V30 5686 C 527.255 3.16915 -1.73917 0
M  V30 5687 O 526.976 3.06511 -3.13021 0
M  V30 5688 C 528.477 4.11032 -1.66036 0
M  V30 5689 H 525.697 0.548092 -0.387087 0
M  V30 5690 H 528.241 1.2178 -1.64286 0
M  V30 5691 H 526.396 3.66884 -1.244 0
M  V30 5692 H 526.81 3.96079 -3.43834 0
M  V30 5693 H 528.284 5.08446 -2.14911 0
M  V30 5694 H 528.761 4.34785 -0.621159 0
M  V30 5695 H 529.367 3.66972 -2.14969 0
M  V30 5696 N 527.682 1.05563 1.17022 0
M  V30 5697 C 528.928 0.769074 1.87652 0
M  V30 5698 C 529.261 -0.702326 1.81055 0
M  V30 5699 O 528.536 -1.5139 1.22112 0
M  V30 5700 C 528.819 1.25492 3.37526 0
M  V30 5701 C 528.672 2.78953 3.52853 0
M  V30 5702 C 529.991 0.856919 4.31677 0
M  V30 5703 H 527.11 0.280854 0.681388 0
M  V30 5704 H 529.752 1.31027 1.37593 0
M  V30 5705 H 527.902 0.794516 3.80289 0
M  V30 5706 H 529.574 3.33146 3.19079 0
M  V30 5707 H 527.817 3.18046 2.95007 0
M  V30 5708 H 528.488 3.08011 4.58076 0
M  V30 5709 H 530.964 1.25334 3.96775 0
M  V30 5710 H 529.84 1.22443 5.35069 0
M  V30 5711 H 530.101 -0.238787 4.41455 0
M  V30 5712 N 529.16 -1.33526 0.837174 0
M  V30 5713 C 530.385 -2.0258 0.444545 0
M  V30 5714 C 530.81 -1.6258 -0.946006 0
M  V30 5715 O 530.168 -0.817548 -1.6182 0
M  V30 5716 C 530.216 -3.5605 0.571006 0
M  V30 5717 O 529.32 -4.10422 -0.403431 0
M  V30 5718 H 528.661 -0.638866 0.180958 0
M  V30 5719 H 531.191 -1.70462 1.13154 0
M  V30 5720 H 531.201 -4.05488 0.452024 0
M  V30 5721 H 529.876 -3.84509 1.58512 0
M  V30 5722 H 528.453 -3.72113 -0.242147 0
M  V30 5723 N 530.638 -0.59345 -1.46 0
M  V30 5724 C 531.863 -0.0872365 -2.07216 0
M  V30 5725 C 532.288 1.2131 -1.43755 0
M  V30 5726 O 531.646 1.73528 -0.525152 0
M  V30 5727 C 531.694 0.0538197 -3.6056 0
M  V30 5728 O 530.798 1.10765 -3.97247 0
M  V30 5729 H 530.139 -0.0676598 -0.660544 0
M  V30 5730 H 532.669 -0.819445 -1.87473 0
M  V30 5731 H 532.679 0.256567 -4.07193 0
M  V30 5732 H 531.354 -0.895739 -4.0614 0
M  V30 5733 H 529.931 0.882501 -3.62307 0
M  V30 5734 N 532.116 1.54067 -0.331816 0
M  V30 5735 C 533.341 2.05599 0.272705 0
M  V30 5736 C 533.766 1.2059 1.44359 0
M  V30 5737 O 533.124 0.216907 1.79998 0
M  V30 5738 C 533.172 3.54188 0.677021 0
M  V30 5739 O 532.276 3.72082 1.77844 0
M  V30 5740 H 531.617 0.662286 0.0476801 0
M  V30 5741 H 534.147 1.98826 -0.482624 0
M  V30 5742 H 534.157 3.96608 0.957415 0
M  V30 5743 H 532.832 4.15513 -0.179325 0
M  V30 5744 H 531.409 3.41566 1.49622 0
M  V30 5745 N 533.594 0.0601682 1.57485 0
M  V30 5746 C 534.504 -0.926121 2.15546 0
M  V30 5747 C 535.52 -1.33532 1.11558 0
M  V30 5748 O 536.696 -1.4104 1.4377 0
M  V30 5749 C 533.761 -2.17952 2.69625 0
M  V30 5750 C 532.822 -1.82783 3.88444 0
M  V30 5751 C 532.055 -3.02148 4.39935 0
M  V30 5752 O 532.278 -4.15803 3.90466 0
M  V30 5753 O 531.212 -2.82639 5.31412 0
M  V30 5754 H 535.038 -0.462289 3.00161 0
M  V30 5755 H 532.623 -0.162246 1.48516 0
M  V30 5756 H 534.505 -2.91474 3.04337 0
M  V30 5757 H 533.18 -2.63456 1.88077 0
M  V30 5758 H 532.087 -1.06549 3.58606 0
M  V30 5759 H 533.42 -1.42072 4.7125 0
M  V30 5760 N 535.072 -1.5615 -0.213296 0
M  V30 5761 C 536.318 -1.79812 -0.937849 0
M  V30 5762 C 536.651 -0.631201 -1.83656 0
M  V30 5763 O 535.926 0.369165 -1.90964 0
M  V30 5764 C 536.209 -3.13613 -1.76972 0
M  V30 5765 C 536.062 -4.40766 -0.89695 0
M  V30 5766 C 537.381 -3.43931 -2.7459 0
M  V30 5767 H 534.5 -0.654138 -0.339518 0
M  V30 5768 H 537.142 -1.88877 -0.20623 0
M  V30 5769 H 535.292 -3.06015 -2.39347 0
M  V30 5770 H 536.964 -4.60392 -0.289306 0
M  V30 5771 H 535.207 -4.33326 -0.202756 0
M  V30 5772 H 535.878 -5.30843 -1.51358 0
M  V30 5773 H 538.354 -3.5171 -2.22349 0
M  V30 5774 H 537.23 -4.38706 -3.29891 0
M  V30 5775 H 537.491 -2.6651 -3.52739 0
M  V30 5776 N 536.55 0.480323 -1.50102 0
M  V30 5777 C 537.775 1.26126 -1.64642 0
M  V30 5778 C 538.2 1.85257 -0.325823 0
M  V30 5779 O 537.558 1.66854 0.709194 0
M  V30 5780 C 537.606 2.35243 -2.73301 0
M  V30 5781 O 536.71 3.39646 -2.33911 0
M  V30 5782 H 536.051 0.371463 -0.550374 0
M  V30 5783 H 538.581 0.572696 -1.96421 0
M  V30 5784 H 538.591 2.80695 -2.96098 0
M  V30 5785 H 537.266 1.91574 -3.6915 0
M  V30 5786 H 535.843 2.99969 -2.21525 0
M  V30 5787 N 538.028 1.39524 0.732853 0
M  V30 5788 C 539.274 1.37068 1.49467 0
M  V30 5789 C 539.607 -0.0327166 1.94172 0
M  V30 5790 O 538.882 -0.998071 1.66939 0
M  V30 5791 C 539.165 2.34494 2.73285 0
M  V30 5792 C 539.018 3.83784 2.34585 0
M  V30 5793 C 540.337 2.29717 3.75391 0
M  V30 5794 H 537.456 0.499206 0.542183 0
M  V30 5795 H 540.098 1.70532 0.837783 0
M  V30 5796 H 538.248 2.06087 3.29333 0
M  V30 5797 H 539.92 4.22949 1.84151 0
M  V30 5798 H 538.163 4.00455 1.66787 0
M  V30 5799 H 538.834 4.47444 3.23262 0
M  V30 5800 H 541.31 2.54839 3.28932 0
M  V30 5801 H 540.186 2.99962 4.59689 0
M  V30 5802 H 540.447 1.30291 4.22465 0
M  V30 5803 N 539.506 -0.963266 1.24736 0
M  V30 5804 C 540.746 -1.72172 1.10165 0
M  V30 5805 C 541.11 -1.88731 -0.352784 0
M  V30 5806 O 542.311 -2.61549 -0.620107 0
M  V30 5807 C 540.582 -3.0724 1.82589 0
M  V30 5808 S 542.141 -3.98449 1.83803 0
M  V30 5809 H 538.959 -0.591901 0.393922 0
M  V30 5810 H 541.561 -1.14955 1.58132 0
M  V30 5811 H 540.265 -2.92851 2.87518 0
M  V30 5812 H 539.796 -3.69521 1.34973 0
M  V30 5813 H 541.811 -4.87805 0.908883 0
M  V30 5814 N 540.985 -1.06182 -1.16461 0
M  V30 5815 C 542.21 -0.798599 -1.91408 0
M  V30 5816 C 542.635 0.640987 -1.76842 0
M  V30 5817 O 541.993 1.44652 -1.09296 0
M  V30 5818 C 542.041 -1.19665 -3.40165 0
M  V30 5819 O 541.145 -0.334768 -4.11039 0
M  V30 5820 H 540.486 -0.291961 -0.596368 0
M  V30 5821 H 543.016 -1.41732 -1.47557 0
M  V30 5822 H 543.026 -1.16772 -3.90933 0
M  V30 5823 H 541.701 -2.24526 -3.50087 0
M  V30 5824 H 540.278 -0.425168 -3.70468 0
M  V30 5825 N 542.463 1.3308 -0.844243 0
M  V30 5826 C 543.373 2.32876 -0.283922 0
M  V30 5827 C 544.389 1.63589 0.592846 0
M  V30 5828 O 545.565 1.95205 0.495693 0
M  V30 5829 C 542.63 3.42667 0.527283 0
M  V30 5830 C 541.691 4.27664 -0.374394 0
M  V30 5831 C 540.924 5.32212 0.39819 0
M  V30 5832 O 541.147 5.46635 1.62932 0
M  V30 5833 O 540.081 6.01458 -0.2306 0
M  V30 5834 H 543.907 2.82671 -1.11045 0
M  V30 5835 H 541.492 1.36518 -0.606903 0
M  V30 5836 H 543.374 4.09652 0.988078 0
M  V30 5837 H 542.049 2.95079 1.33078 0
M  V30 5838 H 540.956 3.63526 -0.883144 0
M  V30 5839 H 542.289 4.78749 -1.1428 0
M  V30 5840 N 543.941 0.601185 1.45683 0
M  V30 5841 C 545.352 0.179659 1.85834 0
M  V30 5842 C 545.703 -1.26189 1.50236 0
M  V30 5843 O 544.828 -1.95587 0.925987 0
M  V30 5844 C 545.423 0.319277 3.37292 0
M  V30 5845 C 543.982 -0.0475092 3.7637 0
M  V30 5846 C 543.129 0.646692 2.69654 0
M  V30 5847 H 546.08 0.808268 1.36575 0
M  V30 5848 H 546.101 -0.4503 3.77826 0
M  V30 5849 H 545.613 1.36855 3.6317 0
M  V30 5850 H 543.714 -1.0962 3.5611 0
M  V30 5851 H 543.827 0.34168 4.7788 0
M  V30 5852 H 542.191 0.0849971 2.54558 0
M  V30 5853 H 542.974 1.69797 2.98369 0
M  V30 5854 N 545.419 -1.53889 0.339982 0
M  V30 5855 C 546.665 -2.01152 -0.258003 0
M  V30 5856 C 546.998 -1.22749 -1.50487 0
M  V30 5857 O 546.273 -0.314156 -1.91946 0
M  V30 5858 C 546.556 -3.55468 -0.575717 0
M  V30 5859 C 546.409 -4.44584 0.682996 0
M  V30 5860 C 547.728 -4.1768 -1.38677 0
M  V30 5861 H 544.847 -0.731198 -0.0922992 0
M  V30 5862 H 547.489 -1.84352 0.459814 0
M  V30 5863 H 545.639 -3.69914 -1.18725 0
M  V30 5864 H 547.311 -4.41981 1.32102 0
M  V30 5865 H 545.554 -4.13592 1.3086 0
M  V30 5866 H 546.225 -5.5043 0.416001 0
M  V30 5867 H 548.701 -4.0691 -0.869705 0
M  V30 5868 H 547.577 -5.25734 -1.57783 0
M  V30 5869 H 547.838 -3.72069 -2.38782 0
M  V30 5870 N 546.897 -0.0685191 -1.57451 0
M  V30 5871 C 548.143 0.596247 -1.94465 0
M  V30 5872 C 548.498 1.67417 -0.948117 0
M  V30 5873 O 547.791 1.91576 0.0301056 0
M  V30 5874 C 547.985 1.22051 -3.35914 0
M  V30 5875 C 547.814 0.204586 -4.49234 0
M  V30 5876 C 546.584 -0.20959 -5.04865 0
M  V30 5877 C 548.782 -0.556872 -5.11276 0
M  V30 5878 N 546.764 -1.21656 -6.01725 0
M  V30 5879 C 548.135 -1.41642 -6.03604 0
M  V30 5880 C 550.19 -0.613297 -4.94108 0
M  V30 5881 C 548.893 -2.32737 -6.80607 0
M  V30 5882 C 550.919 -1.51174 -5.71752 0
M  V30 5883 C 550.281 -2.35898 -6.63726 0
M  V30 5884 H 546.38 0.189307 -0.75874 0
M  V30 5885 H 548.964 -0.144899 -1.9416 0
M  V30 5886 H 547.135 1.9316 -3.36963 0
M  V30 5887 H 548.867 1.84548 -3.60172 0
M  V30 5888 H 545.622 0.172871 -4.73284 0
M  V30 5889 H 546.046 -1.71746 -6.54853 0
M  V30 5890 H 550.688 0.0275228 -4.22791 0
M  V30 5891 H 548.406 -2.97856 -7.51204 0
M  V30 5892 H 551.992 -1.5602 -5.6049 0
M  V30 5893 H 550.872 -3.04291 -7.22756 0
M  V30 5894 N 548.375 1.56261 0.205012 0
M  V30 5895 C 549.322 1.93754 1.25411 0
M  V30 5896 C 550.292 0.796826 1.45739 0
M  V30 5897 O 551.477 1.05414 1.59036 0
M  V30 5898 C 548.617 2.27383 2.59598 0
M  V30 5899 C 547.73 3.5447 2.46931 0
M  V30 5900 C 546.865 3.77468 3.73753 0
M  V30 5901 C 545.904 4.98014 3.55877 0
M  V30 5902 N 545.041 5.17316 4.74688 0
M  V30 5903 H 549.881 2.83203 0.92737 0
M  V30 5904 H 547.418 1.40158 0.446574 0
M  V30 5905 H 549.376 2.44895 3.37761 0
M  V30 5906 H 548.006 1.41088 2.90335 0
M  V30 5907 H 547.058 3.45061 1.60116 0
M  V30 5908 H 548.37 4.42789 2.29651 0
M  V30 5909 H 547.524 3.95165 4.60358 0
M  V30 5910 H 546.263 2.87461 3.93976 0
M  V30 5911 H 545.268 4.80249 2.67657 0
M  V30 5912 H 546.493 5.8952 3.37109 0
M  V30 5913 H 544.439 4.30255 4.95194 0
M  V30 5914 H 544.356 5.99796 4.60197 0
M  V30 5915 H 545.624 5.39463 5.62672 0
M  V30 5916 N 549.853 -0.472356 1.50355 0
M  V30 5917 C 550.785 -1.58795 1.65278 0
M  V30 5918 C 551.798 -1.53782 0.534313 0
M  V30 5919 O 552.987 -1.59193 0.807446 0
M  V30 5920 C 550.087 -2.97672 1.62001 0
M  V30 5921 C 549.26 -3.27568 2.89859 0
M  V30 5922 C 548.319 -4.45993 2.79242 0
M  V30 5923 O 547.345 -4.46364 3.53197 0
M  V30 5924 N 548.547 -5.47578 1.92713 0
M  V30 5925 H 551.312 -1.46411 2.61503 0
M  V30 5926 H 548.873 -0.660751 1.47803 0
M  V30 5927 H 550.865 -3.74862 1.52513 0
M  V30 5928 H 549.435 -3.03832 0.735159 0
M  V30 5929 H 548.655 -2.39003 3.13483 0
M  V30 5930 H 549.943 -3.44352 3.74565 0
M  V30 5931 H 549.341 -5.50099 1.31939 0
M  V30 5932 H 547.898 -6.23757 1.8913 0
M  V30 5933 N 551.331 -1.39911 -0.725443 0
M  V30 5934 C 552.747 -1.21725 -1.03224 0
M  V30 5935 C 552.947 -0.0855224 -2.01318 0
M  V30 5936 O 552.003 0.55976 -2.46217 0
M  V30 5937 C 553.316 -2.55511 -1.58539 0
M  V30 5938 C 554.864 -2.62439 -1.70572 0
M  V30 5939 C 555.339 -3.9647 -2.29294 0
M  V30 5940 N 556.83 -3.98159 -2.36692 0
M  V30 5941 C 557.565 -4.98647 -2.83088 0
M  V30 5942 N 557.061 -6.0953 -3.2931 0
M  V30 5943 N 558.854 -4.8602 -2.82384 0
M  V30 5944 H 551.005 -2.12267 -0.075048 0
M  V30 5945 H 553.268 -0.943136 -0.0959066 0
M  V30 5946 H 552.974 -3.38926 -0.939249 0
M  V30 5947 H 552.848 -2.75905 -2.57208 0
M  V30 5948 H 555.235 -1.79401 -2.34306 0
M  V30 5949 H 555.316 -2.45885 -0.705297 0
M  V30 5950 H 554.96 -4.79942 -1.66186 0
M  V30 5951 H 554.89 -4.10349 -3.30032 0
M  V30 5952 H 557.381 -3.18085 -2.04035 0
M  V30 5953 H 557.694 -6.82106 -3.6325 0
M  V30 5954 H 556.039 -6.1311 -3.27294 0
M  V30 5955 H 559.23 -3.98493 -2.45603 0
M  V30 5956 H 559.403 -5.64478 -3.18226 0
M  V30 5957 N 552.809 0.956637 -1.25245 0
M  V30 5958 C 553.739 2.07058 -1.07931 0
M  V30 5959 C 554.72 1.70096 0.0110361 0
M  V30 5960 O 555.905 1.93555 -0.158121 0
M  V30 5961 C 553.035 3.40272 -0.695124 0
M  V30 5962 C 551.989 3.91235 -1.73549 0
M  V30 5963 C 551.315 5.20921 -1.20604 0
M  V30 5964 C 552.615 4.17837 -3.13385 0
M  V30 5965 H 554.309 2.218 -2.01109 0
M  V30 5966 H 551.855 1.06581 -0.968326 0
M  V30 5967 H 553.808 4.1765 -0.560949 0
M  V30 5968 H 552.532 3.25462 0.272355 0
M  V30 5969 H 551.191 3.16025 -1.85807 0
M  V30 5970 H 550.839 5.02479 -0.228846 0
M  V30 5971 H 550.539 5.55987 -1.90136 0
M  V30 5972 H 552.063 6.00897 -1.08421 0
M  V30 5973 H 553.477 4.8588 -3.04292 0
M  V30 5974 H 551.874 4.64154 -3.80369 0
M  V30 5975 H 552.944 3.2419 -3.60595 0
M  V30 5976 N 554.287 1.06798 1.15896 0
M  V30 5977 C 555.197 0.694564 2.24083 0
M  V30 5978 C 556.213 -0.291687 1.71538 0
M  V30 5979 O 557.389 -0.139723 2.00915 0
M  V30 5980 C 554.454 0.0921014 3.46578 0
M  V30 5981 C 553.515 1.13087 4.14137 0
M  V30 5982 C 552.748 0.557064 5.30785 0
M  V30 5983 O 552.971 -0.628623 5.66925 0
M  V30 5984 O 551.905 1.29924 5.8771 0
M  V30 5985 H 555.731 1.59663 2.58344 0
M  V30 5986 H 553.316 0.840575 1.2351 0
M  V30 5987 H 555.198 -0.241884 4.20705 0
M  V30 5988 H 553.873 -0.78337 3.14078 0
M  V30 5989 H 552.78 1.51712 3.41957 0
M  V30 5990 H 554.113 1.97805 4.50704 0
M  V30 5991 N 555.766 -1.3263 0.851289 0
M  V30 5992 C 557.013 -1.97368 0.453023 0
M  V30 5993 C 557.341 -1.67384 -0.990596 0
M  V30 5994 O 556.596 -0.952665 -1.70947 0
M  V30 5995 C 556.895 -3.51713 0.635015 0
M  V30 5996 C 556.561 -4.01676 2.04859 0
M  V30 5997 C 555.223 -4.15031 2.43522 0
M  V30 5998 C 557.575 -4.28206 2.97135 0
M  V30 5999 C 554.903 -4.52257 3.73739 0
M  V30 6000 C 557.255 -4.66889 4.26846 0
M  V30 6001 C 555.919 -4.7845 4.65448 0
M  V30 6002 H 555.189 -0.722219 0.165773 0
M  V30 6003 H 557.836 -1.58092 1.0807 0
M  V30 6004 H 556.141 -3.91726 -0.0759081 0
M  V30 6005 H 557.838 -3.99823 0.306964 0
M  V30 6006 H 554.428 -3.91764 1.73836 0
M  V30 6007 H 558.612 -4.174 2.68498 0
M  V30 6008 H 553.868 -4.59402 4.03435 0
M  V30 6009 H 558.042 -4.86372 4.98413 0
M  V30 6010 H 555.669 -5.07052 5.66395 0
M  V30 6011 N 557.244 -0.608902 -1.45362 0
M  V30 6012 C 558.521 -0.0365378 -1.95566 0
M  V30 6013 C 558.901 1.43169 -1.55131 0
M  V30 6014 O 558.249 2.1349 -0.814513 0
M  V30 6015 C 558.459 -0.236026 -3.48201 0
M  V30 6016 C 559.807 -0.117518 -4.24437 0
M  V30 6017 O 560.831 -0.166217 -3.55812 0
M  V30 6018 O 559.69 -0.00372127 -5.465 0
M  V30 6019 H 556.784 0.0349874 -0.82626 0
M  V30 6020 H 559.33 -0.679055 -1.55521 0
M  V30 6021 H 558.102 -1.25569 -3.70605 0
M  V30 6022 H 557.725 0.441691 -3.95139 0
M  V30 6023 N 558.722 1.53707 -0.348139 0
M  V30 6024 C 559.971 2.0017 0.247992 0
M  V30 6025 C 560.284 1.23983 1.51286 0
M  V30 6026 O 561.49 1.60946 2.18652 0
M  V30 6027 C 559.946 3.56515 0.492459 0
M  V30 6028 C 559.554 4.41562 -0.756777 0
M  V30 6029 C 561.298 4.11381 1.0472 0
M  V30 6030 C 559.205 5.89426 -0.482856 0
M  V30 6031 H 558.135 0.747806 0.0964452 0
M  V30 6032 H 560.786 1.77532 -0.464179 0
M  V30 6033 H 559.168 3.75236 1.26545 0
M  V30 6034 H 560.342 4.34615 -1.53122 0
M  V30 6035 H 558.657 3.97711 -1.23348 0
M  V30 6036 H 561.254 5.19468 1.26717 0
M  V30 6037 H 561.597 3.64885 2.00411 0
M  V30 6038 H 562.13 3.96389 0.334801 0
M  V30 6039 H 558.869 6.40164 -1.40962 0
M  V30 6040 H 558.389 5.99264 0.253416 0
M  V30 6041 H 560.068 6.4692 -0.101816 0
M  V30 6042 N 560.2 0.0768682 1.57412 0
M  V30 6043 C 561.148 -0.906229 2.1422 0
M  V30 6044 C 562.142 -1.30477 1.08037 0
M  V30 6045 O 563.348 -1.28143 1.2641 0
M  V30 6046 H 559.723 -0.310207 0.685037 0
M  V30 6047 H 561.694 -0.402228 2.95677 0
M  V30 6048 C 560.443 -2.16245 2.72274 0
M  V30 6049 H 559.766 -1.86463 3.53655 0
M  V30 6050 H 561.206 -2.83134 3.15613 0
M  V30 6051 C 559.665 -2.92437 1.67279 0
M  V30 6052 O 560.195 -3.86322 1.10081 0
M  V30 6053 N 558.401 -2.55637 1.38195 0
M  V30 6054 H 557.948 -1.79363 1.84897 0
M  V30 6055 H 557.906 -3.06919 0.681787 0
M  V30 6056 N 561.678 -1.56367 -0.196722 0
M  V30 6057 C 562.927 -1.79724 -0.915539 0
M  V30 6058 C 563.24 -0.649804 -1.84491 0
M  V30 6059 O 564.446 -0.767631 -2.60422 0
M  V30 6060 C 562.902 -3.18369 -1.67836 0
M  V30 6061 C 562.51 -4.4091 -0.793897 0
M  V30 6062 C 564.254 -3.51037 -2.38691 0
M  V30 6063 C 562.161 -5.70577 -1.55549 0
M  V30 6064 H 561.091 -0.67013 -0.345604 0
M  V30 6065 H 563.742 -1.82721 -0.168856 0
M  V30 6066 H 562.124 -3.09617 -2.46887 0
M  V30 6067 H 563.298 -4.60781 -0.042163 0
M  V30 6068 H 561.613 -4.15937 -0.19626 0
M  V30 6069 H 564.21 -4.4515 -2.96219 0
M  V30 6070 H 564.553 -2.74704 -3.12799 0
M  V30 6071 H 565.086 -3.61229 -1.66608 0
M  V30 6072 H 561.825 -6.49871 -0.857226 0
M  V30 6073 H 561.345 -5.54726 -2.2812 0
M  V30 6074 H 563.024 -6.11637 -2.10971 0
M  V30 6075 N 563.156 0.464375 -1.50603 0
M  V30 6076 C 564.396 1.22573 -1.6357 0
M  V30 6077 C 564.76 1.89111 -0.331834 0
M  V30 6078 O 565.961 2.66679 -0.336999 0
M  V30 6079 C 564.232 2.23643 -2.7878 0
M  V30 6080 S 565.791 3.08628 -3.1192 0
M  V30 6081 H 562.609 0.416058 -0.576556 0
M  V30 6082 H 565.211 0.521637 -1.88412 0
M  V30 6083 H 563.915 1.73354 -3.7199 0
M  V30 6084 H 563.446 2.98672 -2.56044 0
M  V30 6085 H 565.461 4.24904 -2.56264 0
M  V30 6086 N 564.634 1.40294 0.718013 0
M  V30 6087 C 565.911 1.2894 1.47084 0
M  V30 6088 C 566.291 -0.0933625 2.10893 0
M  V30 6089 O 565.639 -1.10598 1.99951 0
M  V30 6090 C 565.849 2.4264 2.50852 0
M  V30 6091 C 567.197 2.8276 3.16752 0
M  V30 6092 O 568.221 2.42215 2.61171 0
M  V30 6093 O 567.08 3.528 4.17366 0
M  V30 6094 H 564.174 0.506236 0.653952 0
M  V30 6095 H 566.72 1.52208 0.750394 0
M  V30 6096 H 565.492 3.35009 2.022 0
M  V30 6097 H 565.115 2.21129 3.30435 0
M  V30 6098 N 566.112 -0.949982 1.2575 0
M  V30 6099 C 567.042 -2.06483 1.09028 0
M  V30 6100 C 568.023 -1.701 -0.00201532 0
M  V30 6101 O 569.208 -1.93469 0.168383 0
M  V30 6102 C 566.338 -3.39899 0.71316 0
M  V30 6103 C 565.292 -3.90309 1.75621 0
M  V30 6104 C 564.618 -5.20274 1.23365 0
M  V30 6105 C 565.918 -4.16169 3.15596 0
M  V30 6106 H 567.612 -2.20731 2.02283 0
M  V30 6107 H 565.158 -1.06066 0.973964 0
M  V30 6108 H 567.111 -4.17346 0.58309 0
M  V30 6109 H 565.835 -3.25602 -0.255091 0
M  V30 6110 H 564.494 -3.15035 1.8748 0
M  V30 6111 H 564.142 -5.02351 0.255491 0
M  V30 6112 H 563.842 -5.54971 1.93082 0
M  V30 6113 H 565.366 -6.00314 1.11607 0
M  V30 6114 H 566.78 -4.84259 3.06864 0
M  V30 6115 H 565.177 -4.62131 3.82825 0
M  V30 6116 H 566.247 -3.22273 3.6231 0
M  V30 6117 N 567.59 -1.07411 -1.15328 0
M  V30 6118 C 569.001 -0.820261 -1.67716 0
M  V30 6119 C 569.352 0.654539 -1.8496 0
M  V30 6120 O 568.477 1.50664 -1.55337 0
M  V30 6121 C 569.072 -1.48242 -3.04647 0
M  V30 6122 C 567.631 -1.27606 -3.5411 0
M  V30 6123 C 566.778 -1.5517 -2.29821 0
M  V30 6124 H 569.729 -1.23608 -0.995332 0
M  V30 6125 H 569.75 -0.903984 -3.69606 0
M  V30 6126 H 569.262 -2.55578 -2.92064 0
M  V30 6127 H 567.363 -0.222948 -3.71932 0
M  V30 6128 H 567.476 -1.99667 -4.35511 0
M  V30 6129 H 565.84 -0.972747 -2.35393 0
M  V30 6130 H 566.623 -2.63689 -2.19824 0
M  V30 6131 N 569.068 1.32177 -0.85831 0
M  V30 6132 C 570.484 1.49873 -0.548656 0
M  V30 6133 C 570.684 1.79278 0.919874 0
M  V30 6134 O 569.74 1.86451 1.70271 0
M  V30 6135 C 571.053 2.64043 -1.4388 0
M  V30 6136 C 572.601 2.77928 -1.43961 0
M  V30 6137 C 573.076 3.95182 -2.31506 0
M  V30 6138 N 574.567 4.0245 -2.29321 0
M  V30 6139 C 575.302 4.9242 -2.93786 0
M  V30 6140 N 574.798 5.87373 -3.67376 0
M  V30 6141 N 576.591 4.85572 -2.83155 0
M  V30 6142 H 568.742 1.11357 -1.80868 0
M  V30 6143 H 571.005 0.549175 -0.772729 0
M  V30 6144 H 570.711 2.49055 -2.48324 0
M  V30 6145 H 570.585 3.59912 -1.12885 0
M  V30 6146 H 572.972 2.92338 -0.402813 0
M  V30 6147 H 573.053 1.82762 -1.78974 0
M  V30 6148 H 572.697 3.81531 -3.35256 0
M  V30 6149 H 572.627 4.89633 -1.93823 0
M  V30 6150 H 575.118 3.34507 -1.75822 0
M  V30 6151 H 575.431 6.52728 -4.13722 0
M  V30 6152 H 573.776 5.87388 -3.71484 0
M  V30 6153 H 576.967 4.10363 -2.25211 0
M  V30 6154 H 577.14 5.55486 -3.33676 0
M  V30 6155 N 570.547 0.616602 1.45037 0
M  V30 6156 C 571.48 -0.145984 2.27733 0
M  V30 6157 C 572.458 -0.865108 1.37676 0
M  V30 6158 O 573.642 -0.872152 1.6711 0
M  V30 6159 C 570.769 -1.2122 3.16265 0
M  V30 6160 C 569.815 -0.595218 4.22326 0
M  V30 6161 S 570.648 0.603744 5.32086 0
M  V30 6162 C 571.804 -0.462842 6.24186 0
M  V30 6163 H 572.037 0.555591 2.92062 0
M  V30 6164 H 569.57 0.404364 1.49011 0
M  V30 6165 H 571.528 -1.82247 3.67827 0
M  V30 6166 H 570.189 -1.88589 2.51183 0
M  V30 6167 H 569.382 -1.39775 4.8423 0
M  V30 6168 H 568.984 -0.0598965 3.73952 0
M  V30 6169 H 571.276 -1.33945 6.64127 0
M  V30 6170 H 572.219 0.120259 7.07998 0
M  V30 6171 H 572.627 -0.782219 5.59054 0
M  V30 6172 N 572.025 -1.5352 0.356285 0
M  V30 6173 C 572.988 -2.24071 -0.482182 0
M  V30 6174 C 573.988 -1.24531 -1.01729 0
M  V30 6175 O 575.178 -1.48876 -0.904513 0
M  V30 6176 C 572.31 -2.97025 -1.67299 0
M  V30 6177 H 573.503 -2.99596 0.135031 0
M  V30 6178 H 571.056 -1.55928 0.107825 0
M  V30 6179 H 571.791 -2.25719 -2.32855 0
M  V30 6180 H 571.576 -3.7005 -1.29636 0
M  V30 6181 H 573.066 -3.50683 -2.26741 0
M  V30 6182 N 573.503 -0.0852151 -1.57369 0
M  V30 6183 C 574.919 0.271436 -1.57275 0
M  V30 6184 C 575.119 1.69109 -1.09565 0
M  V30 6185 O 574.175 2.40549 -0.767611 0
M  V30 6186 C 575.488 0.0688638 -3.00621 0
M  V30 6187 C 577.036 0.137373 -3.12698 0
M  V30 6188 C 577.511 -0.0370832 -4.57985 0
M  V30 6189 N 579.002 0.0180794 -4.63196 0
M  V30 6190 C 579.737 -0.0922953 -5.73326 0
M  V30 6191 N 579.233 -0.256948 -6.92323 0
M  V30 6192 N 581.026 -0.0342702 -5.6209 0
M  V30 6193 H 573.177 -1.01288 -1.86693 0
M  V30 6194 H 575.44 -0.396138 -0.861266 0
M  V30 6195 H 575.146 -0.911277 -3.39689 0
M  V30 6196 H 575.02 0.815442 -3.6828 0
M  V30 6197 H 577.407 1.10801 -2.73509 0
M  V30 6198 H 577.488 -0.640532 -2.47651 0
M  V30 6199 H 577.132 -1.00455 -4.97867 0
M  V30 6200 H 577.062 0.760392 -5.21081 0
M  V30 6201 H 579.553 0.143202 -3.77629 0
M  V30 6202 H 579.866 -0.332949 -7.72082 0
M  V30 6203 H 578.211 -0.292487 -6.94384 0
M  V30 6204 H 581.402 0.0931605 -4.68007 0
M  V30 6205 H 581.575 -0.12374 -6.47882 0
M  V30 6206 N 574.981 1.5647 0.188427 0
M  V30 6207 C 575.911 1.98101 1.23606 0
M  V30 6208 C 576.892 0.853961 1.47111 0
M  V30 6209 O 578.077 1.11879 1.58735 0
M  V30 6210 C 575.207 2.32624 2.57882 0
M  V30 6211 C 574.161 3.48129 2.48978 0
M  V30 6212 C 573.487 3.68347 3.87588 0
M  V30 6213 C 574.787 4.82112 2.00911 0
M  V30 6214 H 576.481 2.85864 0.890068 0
M  V30 6215 H 574.027 1.37532 0.426714 0
M  V30 6216 H 575.98 2.60343 3.3136 0
M  V30 6217 H 574.704 1.41751 2.94235 0
M  V30 6218 H 573.363 3.20511 1.77956 0
M  V30 6219 H 573.011 2.74793 4.21305 0
M  V30 6220 H 572.711 4.46055 3.82503 0
M  V30 6221 H 574.235 3.98449 4.62678 0
M  V30 6222 H 575.649 5.08819 2.64151 0
M  V30 6223 H 574.046 5.63337 2.06814 0
M  V30 6224 H 575.116 4.75249 0.96262 0
M  V30 6225 N 576.459 -0.456382 1.50847 0
M  V30 6226 C 577.699 -1.21704 1.64218 0
M  V30 6227 C 578.063 -1.88932 0.341859 0
M  V30 6228 O 579.264 -2.66497 0.351137 0
M  V30 6229 C 577.535 -2.22162 2.79962 0
M  V30 6230 S 579.094 -3.0697 3.13552 0
M  V30 6231 H 575.912 -0.412995 0.578754 0
M  V30 6232 H 578.514 -0.511637 1.88686 0
M  V30 6233 H 577.218 -1.71379 3.72904 0
M  V30 6234 H 576.749 -2.9731 2.57624 0
M  V30 6235 H 578.764 -4.23539 2.58513 0
M  V30 6236 N 577.937 -1.40673 -0.710563 0
M  V30 6237 C 579.184 -1.39222 -1.47049 0
M  V30 6238 C 579.512 0.0037691 -1.945 0
M  V30 6239 O 578.767 0.989224 -1.68857 0
M  V30 6240 C 579.066 -2.33253 -2.70791 0
M  V30 6241 C 578.732 -3.80406 -2.42079 0
M  V30 6242 C 577.394 -4.20496 -2.33959 0
M  V30 6243 C 579.746 -4.73375 -2.18094 0
M  V30 6244 C 577.074 -5.51584 -1.99929 0
M  V30 6245 C 579.426 -6.04768 -1.85576 0
M  V30 6246 C 578.09 -6.43895 -1.75941 0
M  V30 6247 H 577.36 -0.509449 -0.538092 0
M  V30 6248 H 580.007 -1.73363 -0.81348 0
M  V30 6249 H 578.312 -1.92314 -3.41354 0
M  V30 6250 H 580.009 -2.29412 -3.28894 0
M  V30 6251 H 576.599 -3.48645 -2.49288 0
M  V30 6252 H 580.783 -4.43217 -2.23321 0
M  V30 6253 H 576.039 -5.80797 -1.91011 0
M  V30 6254 H 580.213 -6.76318 -1.66033 0
M  V30 6255 H 577.84 -7.45387 -1.4934 0
M  V30 6256 N 579.415 0.9433 -1.26252 0
M  V30 6257 C 580.378 2.02326 -1.07689 0
M  V30 6258 C 581.378 1.60779 -0.0259174 0
M  V30 6259 O 582.568 1.72108 -0.269134 0
M  V30 6260 C 579.7 3.34886 -0.63752 0
M  V30 6261 H 580.893 2.20225 -2.0357 0
M  V30 6262 H 578.446 1.12197 -1.08819 0
M  V30 6263 H 579.181 3.22684 0.323377 0
M  V30 6264 H 578.966 3.66393 -1.39637 0
M  V30 6265 H 580.456 4.14231 -0.529418 0
M  V30 6266 N 580.893 1.08022 1.14757 0
M  V30 6267 C 581.823 0.728248 2.21853 0
M  V30 6268 C 582.804 -0.287486 1.67653 0
M  V30 6269 O 583.989 -0.158727 1.9355 0
M  V30 6270 C 581.119 0.132549 3.47047 0
M  V30 6271 C 580.073 1.07619 4.14249 0
M  V30 6272 C 579.399 0.342907 5.33599 0
M  V30 6273 C 580.699 2.41268 4.63235 0
M  V30 6274 H 582.393 1.62365 2.51551 0
M  V30 6275 H 579.939 0.782125 1.20908 0
M  V30 6276 H 581.892 -0.125665 4.21213 0
M  V30 6277 H 580.616 -0.797971 3.16702 0
M  V30 6278 H 579.275 1.31944 3.42033 0
M  V30 6279 H 578.923 -0.59129 4.99513 0
M  V30 6280 H 578.623 0.971955 5.79506 0
M  V30 6281 H 580.147 0.0926538 6.1053 0
M  V30 6282 H 581.561 2.21232 5.28894 0
M  V30 6283 H 579.958 2.9983 5.19829 0
M  V30 6284 H 581.028 3.03079 3.78512 0
M  V30 6285 N 582.371 -1.3172 0.865308 0
M  V30 6286 C 583.601 -2.00765 0.487543 0
M  V30 6287 C 584.009 -1.65145 -0.92325 0
M  V30 6288 O 583.352 -0.874294 -1.61561 0
M  V30 6289 C 583.414 -3.55122 0.559369 0
M  V30 6290 C 583.078 -4.14202 1.93095 0
M  V30 6291 C 584.075 -4.3165 2.89784 0
M  V30 6292 C 581.76 -4.50036 2.23099 0
M  V30 6293 C 583.754 -4.84114 4.14623 0
M  V30 6294 C 581.441 -5.02203 3.48189 0
M  V30 6295 C 582.439 -5.19192 4.43767 0
M  V30 6296 O 582.127 -5.70241 5.6664 0
M  V30 6297 H 581.859 -0.649066 0.188915 0
M  V30 6298 H 584.413 -1.69032 1.16694 0
M  V30 6299 H 582.643 -3.86295 -0.176926 0
M  V30 6300 H 584.332 -4.05428 0.195694 0
M  V30 6301 H 585.098 -4.04288 2.6791 0
M  V30 6302 H 580.977 -4.36091 1.49485 0
M  V30 6303 H 584.521 -4.9729 4.89233 0
M  V30 6304 H 580.418 -5.28997 3.69908 0
M  V30 6305 H 581.186 -5.88617 5.68746 0
M  V30 6306 N 583.85 -0.624285 -1.44708 0
M  V30 6307 C 584.812 0.0749638 -2.29077 0
M  V30 6308 C 585.812 0.778965 -1.40673 0
M  V30 6309 O 587.003 0.624591 -1.62618 0
M  V30 6310 C 584.135 1.11663 -3.22094 0
M  V30 6311 H 585.327 -0.667013 -2.92388 0
M  V30 6312 H 582.88 -0.384098 -1.51507 0
M  V30 6313 H 583.615 1.88881 -2.63618 0
M  V30 6314 H 583.401 0.61583 -3.87234 0
M  V30 6315 H 584.891 1.60585 -3.8549 0
M  V30 6316 N 585.328 1.53329 -0.364422 0
M  V30 6317 C 586.574 2.01537 0.225969 0
M  V30 6318 C 586.907 1.25128 1.48515 0
M  V30 6319 O 586.182 0.344653 1.91422 0
M  V30 6320 C 586.465 3.56339 0.519092 0
M  V30 6321 C 586.318 4.43441 -0.753639 0
M  V30 6322 C 587.637 4.19833 1.32015 0
M  V30 6323 H 584.756 0.732573 0.0806548 0
M  V30 6324 H 587.398 1.83597 -0.489084 0
M  V30 6325 H 585.548 3.71756 1.12825 0
M  V30 6326 H 587.22 4.39823 -1.39116 0
M  V30 6327 H 585.463 4.11457 -1.37424 0
M  V30 6328 H 586.134 5.49699 -0.503517 0
M  V30 6329 H 588.61 4.08242 0.804859 0
M  V30 6330 H 587.486 5.28177 1.49399 0
M  V30 6331 H 587.747 3.75821 2.32832 0
M  V30 6332 N 586.806 0.0935595 1.57322 0
M  V30 6333 C 588.055 -0.570191 1.93473 0
M  V30 6334 C 588.368 -1.69434 0.977318 0
M  V30 6335 O 589.574 -2.41914 1.23248 0
M  V30 6336 C 588.03 -1.06564 3.43762 0
M  V30 6337 C 587.638 0.0286723 4.47991 0
M  V30 6338 C 589.382 -1.70221 3.88877 0
M  V30 6339 C 587.289 -0.482046 5.89432 0
M  V30 6340 H 586.219 -0.216764 0.72217 0
M  V30 6341 H 588.87 0.169313 1.82717 0
M  V30 6342 H 587.252 -1.85878 3.49664 0
M  V30 6343 H 588.426 0.804106 4.5373 0
M  V30 6344 H 586.741 0.570336 4.12476 0
M  V30 6345 H 589.338 -2.09502 4.91948 0
M  V30 6346 H 589.681 -2.57078 3.27439 0
M  V30 6347 H 590.214 -0.974919 3.85668 0
M  V30 6348 H 586.953 0.349871 6.54566 0
M  V30 6349 H 586.473 -1.22452 5.87167 0
M  V30 6350 H 588.152 -0.951508 6.39965 0
M  V30 6351 N 588.284 -1.56567 -0.180126 0
M  V30 6352 C 589.194 -1.98947 -1.24327 0
M  V30 6353 C 590.21 -0.899446 -1.4895 0
M  V30 6354 O 591.386 -1.20639 -1.61271 0
M  V30 6355 C 588.451 -2.33328 -2.56435 0
M  V30 6356 C 587.512 -3.56114 -2.39752 0
M  V30 6357 C 586.745 -3.88845 -3.65561 0
M  V30 6358 O 586.968 -3.22662 -4.70368 0
M  V30 6359 O 585.902 -4.82226 -3.60197 0
M  V30 6360 H 589.728 -2.89634 -0.913565 0
M  V30 6361 H 587.313 -1.44319 -0.386306 0
M  V30 6362 H 589.195 -2.5645 -3.34382 0
M  V30 6363 H 587.87 -1.45806 -2.89002 0
M  V30 6364 H 586.777 -3.38221 -1.59866 0
M  V30 6365 H 588.11 -4.4415 -2.12113 0
M  V30 6366 N 589.762 0.448376 -1.51087 0
M  V30 6367 C 590.709 1.54341 -1.71603 0
M  V30 6368 C 591.679 1.56463 -0.557536 0
M  V30 6369 O 592.864 1.73644 -0.79072 0
M  V30 6370 C 590.004 2.92148 -1.83695 0
M  V30 6371 C 589.117 2.99639 -3.11192 0
M  V30 6372 C 588.252 4.285 -3.13944 0
M  V30 6373 C 587.291 4.29819 -4.35801 0
M  V30 6374 N 586.428 5.50186 -4.36164 0
M  V30 6375 H 591.268 1.36151 -2.65079 0
M  V30 6376 H 588.805 0.661585 -1.31383 0
M  V30 6377 H 590.763 3.72093 -1.88687 0
M  V30 6378 H 589.393 3.0892 -0.936374 0
M  V30 6379 H 588.445 2.12425 -3.15562 0
M  V30 6380 H 589.757 2.96474 -4.01129 0
M  V30 6381 H 588.911 5.16811 -3.17791 0
M  V30 6382 H 587.65 4.34307 -2.21876 0
M  V30 6383 H 586.655 3.39902 -4.32142 0
M  V30 6384 H 587.88 4.25685 -5.29121 0
M  V30 6385 H 585.826 5.56735 -3.46961 0
M  V30 6386 H 585.743 5.48856 -5.19897 0
M  V30 6387 H 587.011 6.40559 -4.44189 0
M  V30 6388 N 591.24 1.41047 0.703093 0
M  V30 6389 C 592.203 1.42036 1.79884 0
M  V30 6390 C 593.203 0.312153 1.57741 0
M  V30 6391 O 594.393 0.571672 1.64553 0
M  V30 6392 C 591.525 1.22437 3.18154 0
M  V30 6393 H 592.718 2.39572 1.80403 0
M  V30 6394 H 590.271 1.27079 0.909977 0
M  V30 6395 H 591.006 0.257112 3.23279 0
M  V30 6396 H 590.791 2.02723 3.35627 0
M  V30 6397 H 592.281 1.25946 3.98155 0
M  V30 6398 N 592.718 -0.936591 1.26751 0
M  V30 6399 C 593.665 -2.03597 1.08706 0
M  V30 6400 C 594.635 -1.66097 -0.00926542 0
M  V30 6401 O 595.82 -1.90199 0.151377 0
M  V30 6402 C 592.96 -3.3727 0.73094 0
M  V30 6403 C 592.073 -3.87778 1.90399 0
M  V30 6404 C 591.208 -5.09859 1.49056 0
M  V30 6405 C 590.247 -5.5264 2.63164 0
M  V30 6406 N 589.384 -6.65921 2.22471 0
M  V30 6407 H 594.224 -2.18364 2.02784 0
M  V30 6408 H 591.761 -1.06985 1.00958 0
M  V30 6409 H 593.719 -4.14128 0.505328 0
M  V30 6410 H 592.349 -3.22337 -0.172868 0
M  V30 6411 H 591.401 -3.07279 2.2424 0
M  V30 6412 H 592.713 -4.15464 2.76028 0
M  V30 6413 H 591.867 -5.9419 1.22567 0
M  V30 6414 H 590.606 -4.8393 0.60524 0
M  V30 6415 H 589.611 -4.66863 2.90377 0
M  V30 6416 H 590.836 -5.80568 3.52303 0
M  V30 6417 H 588.782 -6.41667 1.36379 0
M  V30 6418 H 588.699 -6.93216 3.01641 0
M  V30 6419 H 589.967 -7.53616 1.99205 0
M  V30 6420 N 594.196 -1.08629 -1.14182 0
M  V30 6421 C 595.143 -0.718299 -2.19338 0
M  V30 6422 C 596.113 0.296587 -1.63431 0
M  V30 6423 O 597.298 0.180079 -1.89948 0
M  V30 6424 C 594.438 -0.136203 -3.44831 0
M  V30 6425 C 593.551 -1.20414 -4.14879 0
M  V30 6426 C 592.686 -0.585666 -5.27962 0
M  V30 6427 C 591.725 -1.63548 -5.89846 0
M  V30 6428 N 590.862 -1.03864 -6.94375 0
M  V30 6429 H 595.702 -1.61932 -2.50164 0
M  V30 6430 H 593.239 -0.80919 -1.22844 0
M  V30 6431 H 595.197 0.219021 -4.16625 0
M  V30 6432 H 593.827 0.728121 -3.14481 0
M  V30 6433 H 592.879 -1.67676 -3.41451 0
M  V30 6434 H 594.191 -1.99959 -4.56966 0
M  V30 6435 H 593.345 -0.178818 -6.06436 0
M  V30 6436 H 592.084 0.24142 -4.87102 0
M  V30 6437 H 591.089 -2.05197 -5.10073 0
M  V30 6438 H 592.314 -2.46509 -6.3278 0
M  V30 6439 H 590.26 -0.232687 -6.55587 0
M  V30 6440 H 590.177 -1.77116 -7.3496 0
M  V30 6441 H 591.445 -0.657724 -7.7672 0
M  V30 6442 N 595.674 1.31259 -0.872281 0
M  V30 6443 C 596.637 2.26744 -0.334656 0
M  V30 6444 C 597.637 1.52307 0.515681 0
M  V30 6445 O 598.827 1.71148 0.324656 0
M  V30 6446 C 595.959 3.36841 0.524482 0
M  V30 6447 H 597.152 2.75812 -1.17762 0
M  V30 6448 H 594.705 1.42232 -0.648064 0
M  V30 6449 H 595.44 2.93069 1.38855 0
M  V30 6450 H 595.225 3.92009 -0.0844299 0
M  V30 6451 H 596.715 4.07944 0.892838 0
M  V30 6452 N 597.152 0.631951 1.44375 0
M  V30 6453 C 598.568 0.297642 1.568 0
M  V30 6454 C 598.768 -1.19916 1.61934 0
M  V30 6455 O 597.824 -1.98324 1.56281 0
M  V30 6456 C 599.137 0.990286 2.83926 0
M  V30 6457 C 600.685 0.968507 2.97639 0
M  V30 6458 C 601.16 1.64163 4.27568 0
M  V30 6459 N 602.651 1.60826 4.34384 0
M  V30 6460 C 603.386 2.09802 5.33639 0
M  V30 6461 N 602.882 2.66973 6.39294 0
M  V30 6462 N 604.675 2.00426 5.25153 0
M  V30 6463 H 596.826 1.60353 1.39286 0
M  V30 6464 H 599.089 0.673142 0.667521 0
M  V30 6465 H 598.795 2.04519 2.8612 0
M  V30 6466 H 598.669 0.528563 3.73478 0
M  V30 6467 H 601.056 -0.0779247 2.94997 0
M  V30 6468 H 601.137 1.46873 2.09433 0
M  V30 6469 H 600.781 2.68752 4.3097 0
M  V30 6470 H 600.711 1.11624 5.14634 0
M  V30 6471 H 603.202 1.19087 3.58646 0
M  V30 6472 H 603.515 3.02074 7.11316 0
M  V30 6473 H 601.86 2.71024 6.39977 0
M  V30 6474 H 605.051 1.55483 4.41523 0
M  V30 6475 H 605.224 2.38906 6.02352 0
M  V30 6476 N 598.631 -1.53133 0.372548 0
M  V30 6477 C 599.856 -2.0625 -0.218098 0
M  V30 6478 C 600.281 -1.24375 -1.41111 0
M  V30 6479 O 599.639 -0.264554 -1.79359 0
M  V30 6480 C 599.687 -3.55858 -0.582876 0
M  V30 6481 O 598.791 -3.76667 -1.67917 0
M  V30 6482 H 598.132 -0.663317 -0.030104 0
M  V30 6483 H 600.662 -1.97477 0.535169 0
M  V30 6484 H 600.672 -3.99007 -0.851925 0
M  V30 6485 H 599.347 -4.14892 0.289428 0
M  V30 6486 H 597.924 -3.45413 -1.40513 0
M  V30 6487 N 600.109 -0.101901 -1.5727 0
M  V30 6488 C 601.337 0.568392 -1.98939 0
M  V30 6489 C 601.752 1.61301 -0.981194 0
M  V30 6490 O 601.109 1.82478 0.0282869 0
M  V30 6491 C 601.16 1.20997 -3.40649 0
M  V30 6492 O 600.881 0.207129 -4.3761 0
M  V30 6493 C 602.382 1.96523 -3.97358 0
M  V30 6494 H 599.602 0.15186 -0.65359 0
M  V30 6495 H 602.146 -0.183198 -2.03678 0
M  V30 6496 H 600.301 1.91245 -3.36904 0
M  V30 6497 H 600.715 0.671071 -5.20189 0
M  V30 6498 H 602.189 2.36764 -4.98645 0
M  V30 6499 H 602.666 2.83376 -3.35552 0
M  V30 6500 H 603.272 1.31076 -4.04598 0
M  V30 6501 N 601.587 1.56661 0.17182 0
M  V30 6502 C 602.534 1.96371 1.21273 0
M  V30 6503 C 603.504 0.82756 1.44016 0
M  V30 6504 O 604.689 1.08764 1.56764 0
M  V30 6505 C 601.829 2.32838 2.54716 0
M  V30 6506 C 600.942 3.59628 2.39356 0
M  V30 6507 C 600.077 3.85311 3.65662 0
M  V30 6508 C 599.116 5.0545 3.45234 0
M  V30 6509 N 598.253 5.27268 4.63608 0
M  V30 6510 H 603.093 2.85106 0.86709 0
M  V30 6511 H 600.63 1.41073 0.416744 0
M  V30 6512 H 602.588 2.52004 3.3249 0
M  V30 6513 H 601.218 1.47214 2.87277 0
M  V30 6514 H 600.27 3.4838 1.52761 0
M  V30 6515 H 601.582 4.4756 2.20207 0
M  V30 6516 H 600.736 4.04841 4.51872 0
M  V30 6517 H 599.475 2.95753 3.8779 0
M  V30 6518 H 598.48 4.85819 2.5741 0
M  V30 6519 H 599.705 5.96538 3.24529 0
M  V30 6520 H 597.651 4.40662 4.85956 0
M  V30 6521 H 597.568 6.09422 4.4737 0
M  V30 6522 H 598.836 5.51277 5.51103 0
M  V30 6523 N 603.065 -0.440357 1.51323 0
M  V30 6524 C 604.012 -1.53429 1.72419 0
M  V30 6525 C 604.982 -1.56165 0.565826 0
M  V30 6526 O 606.167 -1.73222 0.799917 0
M  V30 6527 C 603.307 -2.91169 1.85242 0
M  V30 6528 C 602.42 -2.97985 3.12777 0
M  V30 6529 C 601.555 -4.26829 3.16212 0
M  V30 6530 C 600.594 -4.27501 4.38074 0
M  V30 6531 N 599.731 -5.47866 4.39076 0
M  V30 6532 H 604.571 -1.34743 2.65797 0
M  V30 6533 H 602.108 -0.654608 1.31732 0
M  V30 6534 H 604.066 -3.71087 1.90658 0
M  V30 6535 H 602.696 -3.0842 0.952744 0
M  V30 6536 H 601.748 -2.10749 3.16685 0
M  V30 6537 H 603.06 -2.94342 4.02696 0
M  V30 6538 H 602.214 -5.15118 3.20527 0
M  V30 6539 H 600.953 -4.33124 2.24176 0
M  V30 6540 H 599.958 -3.37606 4.33938 0
M  V30 6541 H 601.183 -4.22873 5.31371 0
M  V30 6542 H 599.129 -5.54887 3.49909 0
M  V30 6543 H 599.046 -5.46091 5.22801 0
M  V30 6544 H 600.314 -6.38195 4.4758 0
M  V30 6545 N 604.543 -1.41418 -0.695603 0
M  V30 6546 C 605.49 -1.43264 -1.80954 0
M  V30 6547 C 606.46 -0.287016 -1.63601 0
M  V30 6548 O 607.645 -0.488054 -1.84452 0
M  V30 6549 C 604.785 -1.32054 -3.18835 0
M  V30 6550 C 603.898 -2.56485 -3.4762 0
M  V30 6551 C 603.033 -2.3757 -4.75115 0
M  V30 6552 C 602.072 -3.57477 -4.96867 0
M  V30 6553 N 601.209 -3.37632 -6.15588 0
M  V30 6554 H 606.049 -2.38467 -1.78711 0
M  V30 6555 H 603.586 -1.18415 -0.872715 0
M  V30 6556 H 605.544 -1.23558 -3.98484 0
M  V30 6557 H 604.174 -0.404592 -3.20254 0
M  V30 6558 H 603.226 -2.75432 -2.62376 0
M  V30 6559 H 604.538 -3.45678 -3.59594 0
M  V30 6560 H 603.692 -2.2654 -5.62818 0
M  V30 6561 H 602.431 -1.45834 -4.65386 0
M  V30 6562 H 601.436 -3.68961 -4.07612 0
M  V30 6563 H 602.661 -4.50167 -5.08455 0
M  V30 6564 H 600.607 -2.48596 -6.07072 0
M  V30 6565 H 600.524 -4.20401 -6.2833 0
M  V30 6566 H 601.792 -3.30375 -7.06026 0
M  V30 6567 N 606.021 0.929856 -1.27246 0
M  V30 6568 C 607.246 1.71674 -1.16374 0
M  V30 6569 C 607.671 1.86064 0.276024 0
M  V30 6570 O 607.029 1.3591 1.19992 0
M  V30 6571 C 607.077 3.09526 -1.85003 0
M  V30 6572 O 606.181 3.96142 -1.14653 0
M  V30 6573 H 605.522 0.52629 -0.404863 0
M  V30 6574 H 608.052 1.16381 -1.68276 0
M  V30 6575 H 608.062 3.59852 -1.92276 0
M  V30 6576 H 606.737 2.98369 -2.89739 0
M  V30 6577 H 605.314 3.54584 -1.15433 0
M  V30 6578 N 607.499 1.09233 1.13605 0
M  V30 6579 C 608.446 0.729921 2.18954 0
M  V30 6580 C 609.416 -0.287916 1.63586 0
M  V30 6581 O 610.601 -0.170003 1.90041 0
M  V30 6582 C 607.741 0.154489 3.44754 0
M  V30 6583 C 606.854 1.22613 4.14234 0
M  V30 6584 C 605.989 0.613657 5.27644 0
M  V30 6585 C 605.028 1.66674 5.8897 0
M  V30 6586 N 604.165 1.07545 6.93814 0
M  V30 6587 H 609.005 1.63257 2.49302 0
M  V30 6588 H 606.542 0.815693 1.22413 0
M  V30 6589 H 608.5 -0.196923 4.16735 0
M  V30 6590 H 607.13 -0.711433 3.14863 0
M  V30 6591 H 606.182 1.69485 3.40557 0
M  V30 6592 H 607.494 2.0238 4.55899 0
M  V30 6593 H 606.648 0.210976 6.06333 0
M  V30 6594 H 605.387 -0.215584 4.87223 0
M  V30 6595 H 604.392 2.07899 5.08978 0
M  V30 6596 H 605.617 2.49861 6.31464 0
M  V30 6597 H 603.563 0.267451 6.55455 0
M  V30 6598 H 603.48 1.81011 7.3401 0
M  V30 6599 H 604.748 0.698906 7.7636 0
M  V30 6600 N 608.977 -1.30795 0.87923 0
M  V30 6601 C 609.924 -2.28282 0.339968 0
M  V30 6602 C 610.894 -1.56134 -0.566685 0
M  V30 6603 O 612.079 -1.84231 -0.496338 0
M  V30 6604 C 609.219 -3.42225 -0.444501 0
M  V30 6605 C 608.332 -4.29204 0.490717 0
M  V30 6606 C 607.467 -5.30302 -0.308784 0
M  V30 6607 C 606.506 -6.08929 0.622272 0
M  V30 6608 N 605.643 -7.01957 -0.14155 0
M  V30 6609 H 610.483 -2.73794 1.17647 0
M  V30 6610 H 608.02 -1.34682 0.591527 0
M  V30 6611 H 609.978 -4.07038 -0.915186 0
M  V30 6612 H 608.608 -2.97799 -1.24562 0
M  V30 6613 H 607.66 -3.6475 1.07988 0
M  V30 6614 H 608.972 -4.84045 1.20425 0
M  V30 6615 H 608.126 -6.00835 -0.841575 0
M  V30 6616 H 606.865 -4.7614 -1.05556 0
M  V30 6617 H 605.87 -5.37278 1.16674 0
M  V30 6618 H 607.095 -6.65178 1.36804 0
M  V30 6619 H 605.041 -6.50192 -0.870966 0
M  V30 6620 H 604.958 -7.54261 0.51246 0
M  V30 6621 H 606.226 -7.76741 -0.655271 0
M  V30 6622 N 610.455 -0.639598 -1.44038 0
M  V30 6623 C 611.418 0.0506628 -2.29144 0
M  V30 6624 C 612.418 0.764001 -1.41491 0
M  V30 6625 O 613.608 0.607309 -1.63271 0
M  V30 6626 C 610.74 1.0824 -3.2326 0
M  V30 6627 H 611.933 -0.697987 -2.91664 0
M  V30 6628 H 609.486 -0.400146 -1.51091 0
M  V30 6629 H 610.221 1.86075 -2.65606 0
M  V30 6630 H 610.006 0.574725 -3.87865 0
M  V30 6631 H 611.496 1.56487 -3.87171 0
M  V30 6632 N 611.933 1.52934 -0.380664 0
M  V30 6633 C 613.21 1.93845 0.261417 0
M  V30 6634 C 613.59 1.31544 1.65104 0
M  V30 6635 O 612.938 0.480234 2.23397 0
M  V30 6636 C 613.148 3.47739 0.296466 0
M  V30 6637 C 614.496 4.21284 0.529578 0
M  V30 6638 O 615.52 3.54199 0.377041 0
M  V30 6639 O 614.379 5.40195 0.827753 0
M  V30 6640 H 611.473 0.811318 0.160285 0
M  V30 6641 H 614.019 1.64042 -0.434544 0
M  V30 6642 H 612.791 3.85395 -0.67724 0
M  V30 6643 H 612.414 3.8382 1.0377 0
M  V30 6644 N 613.412 0.11024 1.57214 0
M  V30 6645 C 614.652 -0.553061 1.96775 0
M  V30 6646 C 615.016 -1.64403 0.991753 0
M  V30 6647 O 616.217 -2.36561 1.27642 0
M  V30 6648 C 614.488 -1.08004 3.4069 0
M  V30 6649 S 616.047 -1.75309 4.02259 0
M  V30 6650 H 612.865 -0.18003 0.68783 0
M  V30 6651 H 615.467 0.193242 1.94543 0
M  V30 6652 H 614.171 -0.274735 4.09479 0
M  V30 6653 H 613.702 -1.86182 3.46554 0
M  V30 6654 H 615.717 -3.03834 3.923 0
M  V30 6655 N 614.89 -1.56749 -0.16351 0
M  V30 6656 C 616.301 -1.72039 -0.725216 0
M  V30 6657 C 616.652 -0.72202 -1.82432 0
M  V30 6658 O 615.777 0.114942 -2.16095 0
M  V30 6659 C 616.372 -3.11932 -1.32227 0
M  V30 6660 C 614.931 -3.28879 -1.83072 0
M  V30 6661 C 614.078 -2.67984 -0.712716 0
M  V30 6662 H 617.029 -1.58579 0.0619772 0
M  V30 6663 H 617.05 -3.11015 -2.19202 0
M  V30 6664 H 616.562 -3.84572 -0.522103 0
M  V30 6665 H 614.663 -2.61209 -2.65708 0
M  V30 6666 H 614.776 -4.36688 -1.97079 0
M  V30 6667 H 613.14 -2.28005 -1.13515 0
M  V30 6668 H 613.923 -3.43216 0.0757361 0
M  V30 6669 N 616.368 0.432326 -1.51554 0
M  V30 6670 C 617.617 1.17831 -1.63703 0
M  V30 6671 C 617.93 1.92229 -0.36156 0
M  V30 6672 O 619.136 2.69069 -0.362495 0
M  V30 6673 C 617.592 2.14318 -2.89129 0
M  V30 6674 C 617.2 1.45544 -4.23699 0
M  V30 6675 C 618.944 2.89319 -3.10636 0
M  V30 6676 C 616.851 2.40545 -5.4027 0
M  V30 6677 H 615.781 0.443533 -0.60975 0
M  V30 6678 H 618.432 0.444878 -1.78026 0
M  V30 6679 H 616.814 2.91117 -2.68452 0
M  V30 6680 H 617.988 0.742693 -4.54775 0
M  V30 6681 H 616.303 0.826772 -4.0811 0
M  V30 6682 H 618.9 3.60495 -3.94902 0
M  V30 6683 H 619.243 3.50951 -2.23918 0
M  V30 6684 H 619.776 2.19625 -3.31677 0
M  V30 6685 H 616.515 1.83594 -6.29264 0
M  V30 6686 H 616.035 3.09859 -5.13563 0
M  V30 6687 H 617.714 3.01569 -5.72421 0
M  V30 6688 N 617.846 1.41785 0.688094 0
M  V30 6689 C 618.809 1.43936 1.78368 0
M  V30 6690 C 619.809 0.328866 1.57401 0
M  V30 6691 O 620.999 0.589093 1.63937 0
M  V30 6692 C 618.131 1.25804 3.16838 0
M  V30 6693 H 619.324 2.41472 1.77852 0
M  V30 6694 H 616.877 1.28037 0.896448 0
M  V30 6695 H 617.612 0.291386 3.22988 0
M  V30 6696 H 617.397 2.06272 3.33458 0
M  V30 6697 H 618.887 1.30162 3.96797 0
M  V30 6698 N 619.324 -0.923095 1.27737 0
M  V30 6699 C 620.57 -1.67409 1.15524 0
M  V30 6700 C 620.925 -1.90124 -0.295072 0
M  V30 6701 O 620.218 -1.48382 -1.21216 0
M  V30 6702 C 620.412 -3.04125 1.8773 0
M  V30 6703 C 620.241 -2.94752 3.39634 0
M  V30 6704 C 619.011 -2.96783 4.0896 0
M  V30 6705 C 621.209 -2.73524 4.35533 0
M  V30 6706 N 619.191 -2.779 5.47398 0
M  V30 6707 C 620.562 -2.63391 5.61271 0
M  V30 6708 C 622.617 -2.58447 4.2557 0
M  V30 6709 C 621.32 -2.3972 6.78179 0
M  V30 6710 C 623.346 -2.36154 5.42204 0
M  V30 6711 C 622.708 -2.26768 6.669 0
M  V30 6712 H 618.807 -0.619196 0.477619 0
M  V30 6713 H 621.391 -1.09094 1.61266 0
M  V30 6714 H 619.562 -3.60545 1.44436 0
M  V30 6715 H 621.294 -3.6819 1.67982 0
M  V30 6716 H 618.049 -3.07186 3.60463 0
M  V30 6717 H 618.473 -2.71576 6.20141 0
M  V30 6718 H 623.115 -2.6446 3.2988 0
M  V30 6719 H 620.833 -2.32447 7.73947 0
M  V30 6720 H 624.419 -2.25367 5.36378 0
M  V30 6721 H 623.299 -2.09751 7.55628 0
M  V30 6722 N 620.802 -1.09834 -1.13024 0
M  V30 6723 C 621.765 -0.745058 -2.16752 0
M  V30 6724 C 622.765 0.227435 -1.59183 0
M  V30 6725 O 623.955 0.0050786 -1.74199 0
M  V30 6726 C 621.087 -0.102543 -3.40746 0
M  V30 6727 H 622.28 -1.66375 -2.49518 0
M  V30 6728 H 619.833 -0.898061 -1.27924 0
M  V30 6729 H 620.568 0.827177 -3.13573 0
M  V30 6730 H 620.353 -0.80235 -3.83803 0
M  V30 6731 H 621.843 0.129082 -4.174 0
M  V30 6732 N 622.28 1.30327 -0.886154 0
M  V30 6733 C 623.228 2.30052 -0.343317 0
M  V30 6734 C 624.222 1.60212 0.550305 0
M  V30 6735 O 625.428 1.74674 0.434609 0
M  V30 6736 H 621.803 0.746306 -0.0923681 0
M  V30 6737 H 623.774 2.73294 -1.19804 0
M  V30 6738 C 622.523 3.45079 0.426107 0
M  V30 6739 H 621.846 3.99003 -0.25227 0
M  V30 6740 H 623.286 4.16931 0.771009 0
M  V30 6741 C 621.745 2.95195 1.62363 0
M  V30 6742 O 622.275 2.95323 2.723 0
M  V30 6743 N 620.481 2.51192 1.4612 0
M  V30 6744 H 620.028 2.51286 0.566832 0
M  V30 6745 H 619.986 2.18173 2.2638 0
M  V30 6746 N 623.758 0.647228 1.43697 0
M  V30 6747 C 624.688 -0.0345631 2.33474 0
M  V30 6748 C 625.669 -0.818193 1.4913 0
M  V30 6749 O 626.854 -0.780867 1.77809 0
M  V30 6750 C 623.984 -1.00576 3.32418 0
M  V30 6751 C 622.938 -0.33266 4.26705 0
M  V30 6752 C 622.264 -1.41489 5.1564 0
M  V30 6753 C 623.564 0.771204 5.16575 0
M  V30 6754 H 625.258 0.715163 2.90733 0
M  V30 6755 H 622.804 0.345364 1.39797 0
M  V30 6756 H 624.757 -1.49159 3.94119 0
M  V30 6757 H 623.481 -1.78657 2.73403 0
M  V30 6758 H 622.14 0.13267 3.6636 0
M  V30 6759 H 621.788 -2.18698 4.52968 0
M  V30 6760 H 621.488 -0.969799 5.79542 0
M  V30 6761 H 623.012 -1.9022 5.80214 0
M  V30 6762 H 624.426 0.36779 5.72119 0
M  V30 6763 H 622.823 1.1404 5.89165 0
M  V30 6764 H 623.893 1.63169 4.56622 0
M  V30 6765 N 625.236 -1.5273 0.388769 0
M  V30 6766 C 626.169 -2.22861 -0.490752 0
M  V30 6767 C 627.147 -1.22912 -1.06449 0
M  V30 6768 O 628.331 -1.51896 -1.11624 0
M  V30 6769 C 625.458 -2.94141 -1.67925 0
M  V30 6770 C 624.504 -4.08355 -1.23081 0
M  V30 6771 S 625.337 -5.35077 -0.212786 0
M  V30 6772 C 626.493 -6.09879 -1.40708 0
M  V30 6773 H 626.726 -2.97115 0.104787 0
M  V30 6774 H 624.259 -1.53428 0.172956 0
M  V30 6775 H 626.217 -3.35818 -2.36085 0
M  V30 6776 H 624.878 -2.19568 -2.24608 0
M  V30 6777 H 624.071 -4.57328 -2.11818 0
M  V30 6778 H 623.673 -3.68688 -0.628121 0
M  V30 6779 H 625.965 -6.36018 -2.33424 0
M  V30 6780 H 626.908 -7.01586 -0.958271 0
M  V30 6781 H 627.316 -5.40646 -1.62364 0
M  V30 6782 N 626.714 -0.118576 -1.57153 0
M  V30 6783 C 627.644 0.828436 -2.1831 0
M  V30 6784 C 628.625 1.27758 -1.12303 0
M  V30 6785 O 629.81 1.34026 -1.40537 0
M  V30 6786 C 626.94 2.07876 -2.78217 0
M  V30 6787 C 625.894 1.76742 -3.89803 0
M  V30 6788 C 625.22 3.08801 -4.36516 0
M  V30 6789 C 626.52 1.03606 -5.11921 0
M  V30 6790 H 628.214 0.318824 -2.97698 0
M  V30 6791 H 625.76 0.151911 -1.43196 0
M  V30 6792 H 627.713 2.74584 -3.19659 0
M  V30 6793 H 626.437 2.61161 -1.96118 0
M  V30 6794 H 625.096 1.12424 -3.48936 0
M  V30 6795 H 624.744 3.6002 -3.51276 0
M  V30 6796 H 624.444 2.88743 -5.11763 0
M  V30 6797 H 625.968 3.76627 -4.80608 0
M  V30 6798 H 627.382 1.60467 -5.50385 0
M  V30 6799 H 625.779 0.936454 -5.92748 0
M  V30 6800 H 626.849 0.0227421 -4.84895 0
M  V30 6801 N 628.193 1.56834 0.155195 0
M  V30 6802 C 629.44 1.82898 0.869179 0
M  V30 6803 C 629.768 0.698194 1.81537 0
M  V30 6804 O 629.023 -0.313404 1.93174 0
M  V30 6805 C 629.322 3.15239 1.68402 0
M  V30 6806 C 628.988 4.42123 0.885341 0
M  V30 6807 C 627.65 4.76583 0.664971 0
M  V30 6808 C 630.002 5.20178 0.326234 0
M  V30 6809 C 627.33 5.86566 -0.125346 0
M  V30 6810 C 629.682 6.3099 -0.45108 0
M  V30 6811 C 628.346 6.64006 -0.682102 0
M  V30 6812 H 627.616 0.66927 0.318055 0
M  V30 6813 H 630.263 1.91036 0.133241 0
M  V30 6814 H 628.568 3.02515 2.48982 0
M  V30 6815 H 630.265 3.32618 2.23978 0
M  V30 6816 H 626.855 4.15102 1.06716 0
M  V30 6817 H 631.039 4.93936 0.483787 0
M  V30 6818 H 626.295 6.10594 -0.313915 0
M  V30 6819 H 630.469 6.9067 -0.89149 0
M  V30 6820 H 628.096 7.49065 -1.29636 0
M  V30 6821 N 629.671 -0.424282 1.51781 0
M  V30 6822 C 630.948 -1.18464 1.55646 0
M  V30 6823 C 631.328 -2.08529 0.328438 0
M  V30 6824 O 630.676 -2.17969 -0.685693 0
M  V30 6825 C 630.886 -1.97514 2.87731 0
M  V30 6826 C 632.234 -2.54106 3.40169 0
M  V30 6827 O 633.258 -2.07711 2.89369 0
M  V30 6828 O 632.117 -3.38759 4.28841 0
M  V30 6829 H 629.211 -0.540055 0.626314 0
M  V30 6830 H 631.757 -0.432291 1.64102 0
M  V30 6831 H 630.529 -1.31444 3.68562 0
M  V30 6832 H 630.152 -2.79787 2.82498 0
M  V30 6833 N 631.149 -1.42148 -0.680565 0
M  V30 6834 C 632.379 -1.45485 -1.46689 0
M  V30 6835 C 632.787 -0.0629451 -1.89095 0
M  V30 6836 O 632.13 0.931397 -1.58337 0
M  V30 6837 C 632.192 -2.31397 -2.75129 0
M  V30 6838 C 631.856 -3.79353 -2.54834 0
M  V30 6839 C 632.853 -4.71148 -2.19808 0
M  V30 6840 C 630.538 -4.23557 -2.70008 0
M  V30 6841 C 632.532 -6.05139 -2.00215 0
M  V30 6842 C 630.219 -5.57609 -2.50031 0
M  V30 6843 C 631.217 -6.48216 -2.15187 0
M  V30 6844 O 630.905 -7.79792 -1.95397 0
M  V30 6845 H 630.637 -0.497139 -0.458071 0
M  V30 6846 H 633.191 -1.87252 -0.844139 0
M  V30 6847 H 631.421 -1.84468 -3.39865 0
M  V30 6848 H 633.11 -2.26257 -3.36991 0
M  V30 6849 H 633.876 -4.38282 -2.07686 0
M  V30 6850 H 629.755 -3.53327 -2.96109 0
M  V30 6851 H 633.299 -6.75823 -1.72941 0
M  V30 6852 H 629.196 -5.9005 -2.61748 0
M  V30 6853 H 629.964 -7.91091 -2.10042 0
M  V30 6854 N 632.627 0.916307 -1.28225 0
M  V30 6855 C 633.574 2.01841 -1.11932 0
M  V30 6856 C 634.544 1.66091 -0.0171604 0
M  V30 6857 O 635.729 1.89934 -0.181617 0
M  V30 6858 C 632.869 3.36065 -0.784504 0
M  V30 6859 C 631.982 3.847 -1.96544 0
M  V30 6860 C 631.117 5.07423 -1.57149 0
M  V30 6861 C 630.156 5.48384 -2.71922 0
M  V30 6862 N 629.293 6.62298 -2.33037 0
M  V30 6863 H 634.133 2.1511 -2.06232 0
M  V30 6864 H 631.67 1.05366 -1.02647 0
M  V30 6865 H 633.628 4.13272 -0.571148 0
M  V30 6866 H 632.258 3.22571 0.121565 0
M  V30 6867 H 631.31 3.03673 -2.291 0
M  V30 6868 H 632.622 4.1102 -2.82603 0
M  V30 6869 H 631.776 5.92165 -1.32004 0
M  V30 6870 H 630.515 4.82906 -0.682153 0
M  V30 6871 H 629.52 4.62184 -2.97768 0
M  V30 6872 H 630.745 5.7489 -3.61494 0
M  V30 6873 H 628.691 6.39416 -1.4657 0
M  V30 6874 H 628.608 6.8833 -3.12631 0
M  V30 6875 H 629.876 7.50352 -2.11169 0
M  V30 6876 N 634.105 1.10431 1.1244 0
M  V30 6877 C 635.382 0.758797 1.80282 0
M  V30 6878 C 635.762 -0.754727 1.97147 0
M  V30 6879 O 635.11 -1.68094 1.54779 0
M  V30 6880 C 635.32 1.50982 3.14651 0
M  V30 6881 C 636.668 1.68232 3.8985 0
M  V30 6882 O 637.692 1.47319 3.24308 0
M  V30 6883 O 636.551 2.02905 5.07437 0
M  V30 6884 H 633.645 0.273756 0.780376 0
M  V30 6885 H 636.191 1.20713 1.19275 0
M  V30 6886 H 634.963 2.53989 2.97666 0
M  V30 6887 H 634.586 1.05435 3.83366 0
M  V30 6888 N 635.583 -1.29855 0.893053 0
M  V30 6889 C 636.515 -2.26911 0.32311 0
M  V30 6890 C 637.528 -1.54039 -0.526858 0
M  V30 6891 O 638.717 -1.75132 -0.345095 0
M  V30 6892 C 635.817 -3.34266 -0.558509 0
M  V30 6893 C 634.99 -4.36601 0.264222 0
M  V30 6894 C 634.049 -5.23326 -0.549171 0
M  V30 6895 O 633.075 -5.69192 0.0309883 0
M  V30 6896 N 634.277 -5.50008 -1.85664 0
M  V30 6897 H 637.042 -2.76455 1.15726 0
M  V30 6898 H 634.603 -1.4312 0.756859 0
M  V30 6899 H 636.595 -3.89211 -1.1089 0
M  V30 6900 H 635.165 -2.8459 -1.29334 0
M  V30 6901 H 634.385 -3.81409 0.996046 0
M  V30 6902 H 635.673 -5.02019 0.827906 0
M  V30 6903 H 635.071 -5.14542 -2.35081 0
M  V30 6904 H 633.628 -6.07796 -2.35431 0
M  V30 6905 N 637.061 -0.65484 -1.43351 0
M  V30 6906 C 637.991 0.0221809 -2.33489 0
M  V30 6907 C 638.972 0.810272 -1.49561 0
M  V30 6908 O 640.157 0.771426 -1.78221 0
M  V30 6909 C 637.287 0.988117 -3.32947 0
M  V30 6910 C 636.241 0.310026 -4.26876 0
M  V30 6911 C 635.567 1.38752 -5.16384 0
M  V30 6912 C 636.867 -0.798589 -5.16159 0
M  V30 6913 H 638.561 -0.730571 -2.9035 0
M  V30 6914 H 636.107 -0.352773 -1.39612 0
M  V30 6915 H 638.06 1.47067 -3.94904 0
M  V30 6916 H 636.784 1.77205 -2.74346 0
M  V30 6917 H 635.443 -0.152097 -3.66284 0
M  V30 6918 H 635.091 2.16293 -4.54121 0
M  V30 6919 H 634.791 0.939051 -5.80048 0
M  V30 6920 H 636.315 1.87141 -5.81215 0
M  V30 6921 H 637.729 -0.398126 -5.71916 0
M  V30 6922 H 636.126 -1.17163 -5.88552 0
M  V30 6923 H 637.196 -1.65588 -4.55751 0
M  V30 6924 N 638.539 1.52521 -0.396863 0
M  V30 6925 C 639.486 2.26671 0.434624 0
M  V30 6926 C 640.456 1.28584 1.05144 0
M  V30 6927 O 641.641 1.57426 1.07804 0
M  V30 6928 C 638.781 3.08234 1.55196 0
M  V30 6929 C 637.894 4.21261 0.957262 0
M  V30 6930 C 637.029 4.90205 2.04627 0
M  V30 6931 C 636.068 5.95213 1.42787 0
M  V30 6932 N 635.205 6.57723 2.45651 0
M  V30 6933 H 640.045 2.973 -0.204139 0
M  V30 6934 H 637.582 1.46669 -0.112505 0
M  V30 6935 H 639.54 3.53819 2.2106 0
M  V30 6936 H 638.17 2.398 2.16092 0
M  V30 6937 H 637.222 3.79935 0.188005 0
M  V30 6938 H 638.534 4.96624 0.465416 0
M  V30 6939 H 637.688 5.39133 2.78246 0
M  V30 6940 H 636.427 4.14383 2.57174 0
M  V30 6941 H 635.432 5.45616 0.676968 0
M  V30 6942 H 636.657 6.72972 0.910255 0
M  V30 6943 H 634.603 5.84737 2.97353 0
M  V30 6944 H 634.52 7.28723 2.01243 0
M  V30 6945 H 635.788 7.11293 3.18876 0
M  V30 6946 N 640.017 0.126909 1.57088 0
M  V30 6947 C 641.245 -0.53667 1.99819 0
M  V30 6948 C 641.66 -1.5972 1.00673 0
M  V30 6949 O 641.017 -1.825 0.000747365 0
M  V30 6950 C 641.068 -1.15563 3.42531 0
M  V30 6951 O 640.789 -0.137483 4.37884 0
M  V30 6952 C 642.29 -1.90176 4.00435 0
M  V30 6953 H 639.51 -0.141443 0.655923 0
M  V30 6954 H 642.054 0.215578 2.03361 0
M  V30 6955 H 640.209 -1.85861 3.39904 0
M  V30 6956 H 640.623 -0.588229 5.21191 0
M  V30 6957 H 642.097 -2.28801 5.02349 0
M  V30 6958 H 642.574 -2.78002 3.40017 0
M  V30 6959 H 643.18 -1.24623 4.06632 0
M  V30 6960 N 641.495 -1.56914 -0.146875 0
M  V30 6961 C 642.743 -1.82994 -0.85777 0
M  V30 6962 C 643.064 -0.707814 -1.817 0
M  V30 6963 O 642.334 0.270521 -1.94023 0
M  V30 6964 H 640.914 -0.675106 -0.319751 0
M  V30 6965 H 643.576 -1.9439 -0.140849 0
M  V30 6966 H 642.672 -2.77928 -1.41994 0
M  V30 6967 N 642.974 0.416227 -1.52004 0
M  V30 6968 C 643.884 1.53147 -1.77717 0
M  V30 6969 C 644.9 1.609 -0.662368 0
M  V30 6970 O 646.076 1.77747 -0.946991 0
M  V30 6971 C 643.141 2.88948 -1.91598 0
M  V30 6972 C 642.202 2.9114 -3.15493 0
M  V30 6973 C 641.435 4.20464 -3.28703 0
M  V30 6974 O 641.658 5.13981 -2.47345 0
M  V30 6975 O 640.592 4.29368 -4.21813 0
M  V30 6976 H 644.418 1.34357 -2.72363 0
M  V30 6977 H 642.003 0.601373 -1.36762 0
M  V30 6978 H 643.885 3.69505 -2.02593 0
M  V30 6979 H 642.56 3.07821 -1.00141 0
M  V30 6980 H 641.467 2.09461 -3.09962 0
M  V30 6981 H 642.8 2.77216 -4.06709 0
M  V30 6982 N 644.452 1.42507 0.673017 0
M  V30 6983 C 645.868 1.25472 0.986355 0
M  V30 6984 C 646.068 0.160181 2.00862 0
M  V30 6985 O 645.124 -0.467993 2.48125 0
M  V30 6986 C 646.437 2.61219 1.48947 0
M  V30 6987 C 647.985 2.68589 1.60715 0
M  V30 6988 C 648.46 4.04707 2.14422 0
M  V30 6989 N 649.951 4.0667 2.21752 0
M  V30 6990 C 650.686 5.0881 2.64386 0
M  V30 6991 N 650.182 6.21332 3.0646 0
M  V30 6992 N 651.975 4.96166 2.64151 0
M  V30 6993 H 644.126 2.124 -0.00378532 0
M  V30 6994 H 646.389 0.946046 0.0608367 0
M  V30 6995 H 646.095 3.42179 0.812812 0
M  V30 6996 H 645.969 2.85261 2.46791 0
M  V30 6997 H 648.356 1.87974 2.27486 0
M  V30 6998 H 648.437 2.48333 0.613552 0
M  V30 6999 H 648.081 4.8578 1.48258 0
M  V30 7000 H 648.011 4.22315 3.14575 0
M  V30 7001 H 650.502 3.25438 1.92089 0
M  V30 7002 H 650.815 6.95118 3.37684 0
M  V30 7003 H 649.16 6.24835 3.04313 0
M  V30 7004 H 652.351 4.07334 2.30644 0
M  V30 7005 H 652.524 5.759 2.97057 0
M  V30 7006 N 645.93 -0.909495 1.28709 0
M  V30 7007 C 647.17 -1.67344 1.17368 0
M  V30 7008 C 647.534 -1.90058 -0.272419 0
M  V30 7009 O 648.735 -2.63944 -0.508617 0
M  V30 7010 C 647.006 -2.99219 1.95455 0
M  V30 7011 S 648.565 -3.90295 2.00538 0
M  V30 7012 H 645.383 -0.57466 0.418672 0
M  V30 7013 H 647.985 -1.08144 1.62865 0
M  V30 7014 H 646.689 -2.80393 2.9968 0
M  V30 7015 H 646.22 -3.63464 1.50524 0
M  V30 7016 H 648.235 -4.83511 1.11496 0
M  V30 7017 N 647.408 -1.11026 -1.11852 0
M  V30 7018 C 648.338 -0.786812 -2.19844 0
M  V30 7019 C 649.319 0.242935 -1.68356 0
M  V30 7020 O 650.504 0.107355 -1.93903 0
M  V30 7021 C 647.634 -0.224516 -3.46574 0
M  V30 7022 C 646.588 -1.18564 -4.1125 0
M  V30 7023 C 645.914 -0.484261 -5.32503 0
M  V30 7024 C 647.214 -2.53465 -4.56676 0
M  V30 7025 H 648.908 -1.68978 -2.47158 0
M  V30 7026 H 646.454 -0.813906 -1.18792 0
M  V30 7027 H 648.407 0.0139435 -4.21398 0
M  V30 7028 H 647.131 0.713722 -3.18706 0
M  V30 7029 H 645.79 -1.40966 -3.38414 0
M  V30 7030 H 645.438 0.458646 -5.00905 0
M  V30 7031 H 645.138 -1.12526 -5.76725 0
M  V30 7032 H 646.662 -0.254492 -6.10069 0
M  V30 7033 H 648.076 -2.35177 -5.22843 0
M  V30 7034 H 646.473 -3.13507 -5.11697 0
M  V30 7035 H 647.543 -3.13008 -3.70343 0
M  V30 7036 N 648.886 1.2938 -0.899927 0
M  V30 7037 C 650.116 1.99402 -0.540601 0
M  V30 7038 C 650.524 1.67534 0.87914 0
M  V30 7039 O 649.867 0.916821 1.59186 0
M  V30 7040 C 649.929 3.53514 -0.653326 0
M  V30 7041 C 649.593 4.08937 -2.04009 0
M  V30 7042 C 650.59 4.23815 -3.01126 0
M  V30 7043 C 648.275 4.43962 -2.34953 0
M  V30 7044 C 650.269 4.72951 -4.27313 0
M  V30 7045 C 647.956 4.92795 -3.61382 0
M  V30 7046 C 648.954 5.07244 -4.57376 0
M  V30 7047 O 648.642 5.55017 -5.8156 0
M  V30 7048 H 648.374 0.64383 -0.206057 0
M  V30 7049 H 650.928 1.65878 -1.21134 0
M  V30 7050 H 649.158 3.86628 0.0744449 0
M  V30 7051 H 650.847 4.04767 -0.303118 0
M  V30 7052 H 651.613 3.97043 -2.78535 0
M  V30 7053 H 647.492 4.31974 -1.60994 0
M  V30 7054 H 651.036 4.84144 -5.02245 0
M  V30 7055 H 646.933 5.19004 -3.83804 0
M  V30 7056 H 647.701 5.73331 -5.84153 0
M  V30 7057 N 650.364 0.662433 1.43002 0
M  V30 7058 C 651.297 -0.073459 2.28082 0
M  V30 7059 C 652.275 -0.820869 1.40358 0
M  V30 7060 O 653.459 -0.818545 1.698 0
M  V30 7061 C 650.586 -1.11097 3.19961 0
M  V30 7062 C 649.632 -0.460557 4.24006 0
M  V30 7063 S 650.465 0.772717 5.29896 0
M  V30 7064 C 651.621 -0.264028 6.25343 0
M  V30 7065 H 651.854 0.648227 2.90147 0
M  V30 7066 H 649.387 0.451566 1.47649 0
M  V30 7067 H 651.345 -1.70452 3.73439 0
M  V30 7068 H 650.006 -1.80503 2.57056 0
M  V30 7069 H 649.199 -1.24299 4.88432 0
M  V30 7070 H 648.801 0.0591038 3.73953 0
M  V30 7071 H 651.093 -1.12748 6.68052 0
M  V30 7072 H 652.036 0.345443 7.07257 0
M  V30 7073 H 652.444 -0.603964 5.6126 0
M  V30 7074 N 651.842 -1.52309 0.404946 0
M  V30 7075 C 653.088 -2.02731 -0.164857 0
M  V30 7076 C 653.443 -1.28543 -1.43159 0
M  V30 7077 O 652.736 -0.381883 -1.87756 0
M  V30 7078 C 652.93 -3.54284 -0.470895 0
M  V30 7079 C 652.759 -4.43152 0.764625 0
M  V30 7080 C 651.529 -4.88594 1.28858 0
M  V30 7081 C 653.727 -4.874 1.64152 0
M  V30 7082 N 651.709 -5.61577 2.48001 0
M  V30 7083 C 653.08 -5.59121 2.67924 0
M  V30 7084 C 655.135 -4.69421 1.65978 0
M  V30 7085 C 653.838 -6.14772 3.73427 0
M  V30 7086 C 655.864 -5.25966 2.70396 0
M  V30 7087 C 655.226 -5.97606 3.7289 0
M  V30 7088 H 651.325 -0.78169 -0.0220025 0
M  V30 7089 H 653.909 -1.86522 0.558354 0
M  V30 7090 H 652.08 -3.70574 -1.16315 0
M  V30 7091 H 653.812 -3.91394 -1.02921 0
M  V30 7092 H 650.567 -4.6596 0.847232 0
M  V30 7093 H 650.991 -6.02712 3.08329 0
M  V30 7094 H 655.633 -4.13524 0.88079 0
M  V30 7095 H 653.351 -6.69743 4.52184 0
M  V30 7096 H 656.937 -5.13926 2.72711 0
M  V30 7097 H 655.817 -6.40577 4.52361 0
M  V30 7098 N 653.32 -0.135238 -1.57019 0
M  V30 7099 C 654.731 0.387521 -1.82634 0
M  V30 7100 C 655.082 1.65528 -1.05332 0
M  V30 7101 O 654.207 2.14381 -0.294926 0
M  V30 7102 C 654.802 0.709852 -3.3128 0
M  V30 7103 C 653.361 1.17718 -3.57518 0
M  V30 7104 C 652.508 0.194183 -2.76619 0
M  V30 7105 H 655.459 -0.360126 -1.5456 0
M  V30 7106 H 655.48 1.5657 -3.46794 0
M  V30 7107 H 654.992 -0.213024 -3.87515 0
M  V30 7108 H 653.093 2.1164 -3.06658 0
M  V30 7109 H 653.206 1.11128 -4.66034 0
M  V30 7110 H 651.57 0.684478 -2.4533 0
M  V30 7111 H 652.353 -0.722076 -3.3562 0
M  V30 7112 N 654.798 1.5699 0.138552 0
M  V30 7113 C 656.023 1.88344 0.86841 0
M  V30 7114 C 656.448 0.725159 1.7356 0
M  V30 7115 O 655.806 -0.324992 1.78363 0
M  V30 7116 C 655.854 3.18334 1.69398 0
M  V30 7117 O 654.958 3.02863 2.79907 0
M  V30 7118 H 654.299 0.618577 0.241367 0
M  V30 7119 H 656.829 2.04207 0.126826 0
M  V30 7120 H 656.839 3.50567 2.08726 0
M  V30 7121 H 655.514 4.02238 1.05725 0
M  V30 7122 H 654.091 2.82056 2.43924 0
M  V30 7123 N 656.276 -0.40816 1.52223 0
M  V30 7124 C 657.522 -1.15673 1.66576 0
M  V30 7125 C 657.855 -1.90141 0.394996 0
M  V30 7126 O 657.13 -1.84798 -0.606613 0
M  V30 7127 C 657.413 -2.15042 2.88841 0
M  V30 7128 C 657.266 -1.44465 4.25969 0
M  V30 7129 C 658.585 -3.15699 3.0663 0
M  V30 7130 H 655.704 -0.41916 0.606196 0
M  V30 7131 H 658.346 -0.442348 1.84779 0
M  V30 7132 H 656.496 -2.75964 2.73452 0
M  V30 7133 H 658.168 -0.866544 4.53088 0
M  V30 7134 H 656.411 -0.746612 4.27327 0
M  V30 7135 H 657.082 -2.16976 5.07568 0
M  V30 7136 H 659.558 -2.64854 3.20923 0
M  V30 7137 H 658.434 -3.82491 3.9369 0
M  V30 7138 H 658.695 -3.83481 2.19987 0
M  V30 7139 N 657.755 -1.42862 -0.66545 0
M  V30 7140 C 659.166 -1.3901 -1.24632 0
M  V30 7141 C 659.517 -0.0880285 -1.96002 0
M  V30 7142 O 658.642 0.812947 -2.0055 0
M  V30 7143 C 659.237 -2.51806 -2.2667 0
M  V30 7144 C 657.796 -2.51257 -2.80262 0
M  V30 7145 C 656.943 -2.30124 -1.5472 0
M  V30 7146 H 659.894 -1.5194 -0.458237 0
M  V30 7147 H 659.915 -2.22593 -3.08598 0
M  V30 7148 H 659.427 -3.46558 -1.74697 0
M  V30 7149 H 657.528 -1.60349 -3.36332 0
M  V30 7150 H 657.641 -3.48614 -3.28641 0
M  V30 7151 H 656.005 -1.7856 -1.81627 0
M  V30 7152 H 656.788 -3.26945 -1.04699 0
M  V30 7153 N 659.233 0.902656 -1.29189 0
M  V30 7154 C 660.51 1.63296 -1.07674 0
M  V30 7155 C 660.89 2.07649 0.380137 0
M  V30 7156 O 660.238 1.82997 1.36837 0
M  V30 7157 C 660.448 2.81603 -2.06158 0
M  V30 7158 C 661.796 3.52359 -2.36914 0
M  V30 7159 O 662.82 2.91767 -2.04329 0
M  V30 7160 O 661.679 4.61586 -2.92576 0
M  V30 7161 H 658.773 0.716889 -0.41231 0
M  V30 7162 H 661.319 0.950984 -1.4055 0
M  V30 7163 H 660.091 2.46004 -3.04299 0
M  V30 7164 H 659.714 3.57508 -1.73993 0
M  V30 7165 N 660.711 1.11618 1.11262 0
M  V30 7166 C 661.621 0.78898 2.20935 0
M  V30 7167 C 662.637 -0.21867 1.7262 0
M  V30 7168 O 663.813 -0.0543826 2.01327 0
M  V30 7169 C 660.878 0.239014 3.45875 0
M  V30 7170 C 659.939 1.3055 4.08968 0
M  V30 7171 C 659.172 0.781687 5.27944 0
M  V30 7172 O 659.395 -0.387605 5.69082 0
M  V30 7173 O 658.329 1.54734 5.81671 0
M  V30 7174 H 662.155 1.70477 2.51339 0
M  V30 7175 H 659.74 0.892203 1.19834 0
M  V30 7176 H 661.622 -0.0632312 4.21353 0
M  V30 7177 H 660.297 -0.649454 3.17118 0
M  V30 7178 H 659.204 1.66079 3.35214 0
M  V30 7179 H 660.537 2.16743 4.41909 0
M  V30 7180 N 662.189 -1.289 0.906776 0
M  V30 7181 C 663.136 -2.2751 0.388313 0
M  V30 7182 C 664.106 -1.57301 -0.533439 0
M  V30 7183 O 665.291 -1.85243 -0.457148 0
M  V30 7184 C 662.431 -3.43091 -0.37181 0
M  V30 7185 C 661.544 -4.28066 0.581647 0
M  V30 7186 C 660.679 -5.30837 -0.19623 0
M  V30 7187 C 659.718 -6.07472 0.751294 0
M  V30 7188 N 658.855 -7.021 0.00737727 0
M  V30 7189 H 663.695 -2.71237 1.23428 0
M  V30 7190 H 661.232 -1.33397 0.619962 0
M  V30 7191 H 663.19 -4.08888 -0.828641 0
M  V30 7192 H 661.82 -3.00374 -1.18218 0
M  V30 7193 H 660.872 -3.62378 1.157 0
M  V30 7194 H 662.184 -4.81382 1.30665 0
M  V30 7195 H 661.338 -6.02485 -0.71394 0
M  V30 7196 H 660.077 -4.78272 -0.954324 0
M  V30 7197 H 659.082 -5.34682 1.28044 0
M  V30 7198 H 660.307 -6.62126 1.50883 0
M  V30 7199 H 658.253 -6.51894 -0.732854 0
M  V30 7200 H 658.17 -7.53004 0.672334 0
M  V30 7201 H 659.438 -7.77956 -0.490365 0
M  V30 7202 N 663.667 -0.670007 -1.42649 0
M  V30 7203 C 664.915 -0.18991 -2.01206 0
M  V30 7204 C 665.236 1.20617 -1.53221 0
M  V30 7205 O 664.506 1.80898 -0.751856 0
M  V30 7206 H 663.086 -0.0672189 -0.743969 0
M  V30 7207 H 665.748 -0.865442 -1.74631 0
M  V30 7208 H 664.844 -0.187481 -3.11536 0
M  V30 7209 N 665.145 1.52092 -0.413018 0
M  V30 7210 C 666.055 2.30858 0.417318 0
M  V30 7211 C 667.071 1.38746 1.05003 0
M  V30 7212 O 668.247 1.71821 1.05069 0
M  V30 7213 C 665.312 3.11756 1.51687 0
M  V30 7214 C 664.373 4.19613 0.906825 0
M  V30 7215 C 663.606 4.96644 1.95399 0
M  V30 7216 O 663.829 4.7402 3.17271 0
M  V30 7217 O 662.763 5.81385 1.55805 0
M  V30 7218 H 666.589 3.02865 -0.225028 0
M  V30 7219 H 664.174 1.48358 -0.176126 0
M  V30 7220 H 666.056 3.62122 2.15512 0
M  V30 7221 H 664.731 2.42539 2.14375 0
M  V30 7222 H 663.638 3.73385 0.231183 0
M  V30 7223 H 664.971 4.91134 0.323814 0
M  V30 7224 N 666.623 0.143563 1.56945 0
M  V30 7225 C 667.553 -0.7936 2.196 0
M  V30 7226 C 668.534 -1.25955 1.14321 0
M  V30 7227 O 669.719 -1.31773 1.42651 0
M  V30 7228 C 666.849 -2.03424 2.81489 0
M  V30 7229 C 665.803 -1.70519 3.92565 0
M  V30 7230 C 665.129 -3.01817 4.41373 0
M  V30 7231 C 666.429 -0.95449 5.13504 0
M  V30 7232 H 668.123 -0.271423 2.98167 0
M  V30 7233 H 665.669 -0.12911 1.4342 0
M  V30 7234 H 667.622 -2.69463 3.23987 0
M  V30 7235 H 666.346 -2.58008 2.00248 0
M  V30 7236 H 665.005 -1.06859 3.5068 0
M  V30 7237 H 664.653 -3.54386 3.56959 0
M  V30 7238 H 664.353 -2.80565 5.16292 0
M  V30 7239 H 665.877 -3.68934 4.86539 0
M  V30 7240 H 667.291 -1.5169 5.52868 0
M  V30 7241 H 665.688 -0.842035 5.94163 0
M  V30 7242 H 666.758 0.0544033 4.84869 0
M  V30 7243 N 668.101 -1.57061 -0.130224 0
M  V30 7244 C 669.031 -2.02552 -1.16168 0
M  V30 7245 C 670.012 -0.907971 -1.4384 0
M  V30 7246 O 671.197 -1.17693 -1.54473 0
M  V30 7247 C 668.327 -2.42035 -2.49071 0
M  V30 7248 C 667.281 -3.5713 -2.35886 0
M  V30 7249 C 666.607 -3.82478 -3.7365 0
M  V30 7250 C 667.907 -4.89236 -1.8288 0
M  V30 7251 H 669.601 -2.8897 -0.783359 0
M  V30 7252 H 667.147 -1.39021 -0.375376 0
M  V30 7253 H 669.1 -2.72462 -3.21469 0
M  V30 7254 H 667.824 -1.52573 -2.88771 0
M  V30 7255 H 666.483 -3.26895 -1.65938 0
M  V30 7256 H 666.131 -2.9024 -4.10816 0
M  V30 7257 H 665.831 -4.59944 -3.65685 0
M  V30 7258 H 667.355 -4.15347 -4.47571 0
M  V30 7259 H 668.769 -5.18272 -2.45085 0
M  V30 7260 H 667.166 -5.70624 -1.85763 0
M  V30 7261 H 668.236 -4.78494 -0.785571 0
M  V30 7262 N 669.579 0.400081 -1.52437 0
M  V30 7263 C 670.527 1.50851 -1.7705 0
M  V30 7264 C 671.521 1.56928 -0.637969 0
M  V30 7265 O 672.727 1.60226 -0.820212 0
M  V30 7266 H 669.102 0.50186 -0.560036 0
M  V30 7267 H 671.073 1.27281 -2.69893 0
M  V30 7268 C 669.822 2.88117 -1.94638 0
M  V30 7269 H 669.145 2.84187 -2.81208 0
M  V30 7270 H 670.585 3.64942 -2.15855 0
M  V30 7271 C 669.044 3.29206 -0.715899 0
M  V30 7272 O 669.574 4.01544 0.111944 0
M  V30 7273 N 667.78 2.85363 -0.549191 0
M  V30 7274 H 667.327 2.26664 -1.22397 0
M  V30 7275 H 667.285 3.13214 0.27278 0
M  V30 7276 N 671.057 1.43213 0.657864 0
M  V30 7277 C 672.468 1.39669 1.23893 0
M  V30 7278 C 672.819 0.0984217 1.95953 0
M  V30 7279 O 671.944 -0.8023 2.00978 0
M  V30 7280 C 672.539 2.53004 2.25332 0
M  V30 7281 C 671.098 2.5274 2.78926 0
M  V30 7282 C 670.245 2.30941 1.53497 0
M  V30 7283 H 673.196 1.52181 0.450172 0
M  V30 7284 H 673.217 2.24226 3.07413 0
M  V30 7285 H 672.729 3.4748 1.72856 0
M  V30 7286 H 670.83 1.6213 3.35477 0
M  V30 7287 H 670.943 3.50352 3.26787 0
M  V30 7288 H 669.307 1.7952 1.80678 0
M  V30 7289 H 670.09 3.27496 1.02963 0
M  V30 7290 N 672.536 -0.895792 1.29666 0
M  V30 7291 C 673.764 -1.68001 1.20761 0
M  V30 7292 C 674.179 -1.87379 -0.231187 0
M  V30 7293 O 673.536 -1.41359 -1.15429 0
M  V30 7294 C 673.587 -3.06236 1.92098 0
M  V30 7295 O 673.308 -2.8774 3.30359 0
M  V30 7296 C 674.809 -4.00652 1.89717 0
M  V30 7297 H 672.029 -0.524591 0.418384 0
M  V30 7298 H 674.573 -1.11995 1.71106 0
M  V30 7299 H 672.728 -3.59007 1.45578 0
M  V30 7300 H 673.142 -3.75359 3.66342 0
M  V30 7301 H 674.616 -4.95051 2.44189 0
M  V30 7302 H 675.093 -4.30424 0.873595 0
M  V30 7303 H 675.699 -3.53815 2.35998 0
M  V30 7304 N 674.014 -1.12206 -1.10668 0
M  V30 7305 C 675.262 -0.874144 -1.82217 0
M  V30 7306 C 675.583 0.601736 -1.85484 0
M  V30 7307 O 674.853 1.43725 -1.33116 0
M  V30 7308 H 673.433 -0.320404 -0.674797 0
M  V30 7309 H 676.095 -1.41606 -1.33917 0
M  V30 7310 H 675.191 -1.25349 -2.85822 0
M  V30 7311 N 675.492 1.28418 -0.913599 0
M  V30 7312 C 676.72 1.99106 -0.562536 0
M  V30 7313 C 677.135 1.68273 0.856137 0
M  V30 7314 O 676.492 0.935401 1.56705 0
M  V30 7315 C 676.543 3.5338 -0.761903 0
M  V30 7316 O 676.264 3.83127 -2.12475 0
M  V30 7317 C 677.765 4.41328 -0.417651 0
M  V30 7318 H 674.985 0.635798 -0.214481 0
M  V30 7319 H 677.529 1.63618 -1.22676 0
M  V30 7320 H 675.684 3.8713 -0.144676 0
M  V30 7321 H 676.098 4.77763 -2.16431 0
M  V30 7322 H 677.572 5.48642 -0.607919 0
M  V30 7323 H 678.049 4.34422 0.646108 0
M  V30 7324 H 678.655 4.13074 -1.01241 0
M  V30 7325 N 676.97 0.677563 1.42291 0
M  V30 7326 C 678.216 0.201272 2.01799 0
M  V30 7327 C 678.549 -1.19004 1.53465 0
M  V30 7328 O 677.824 -1.79953 0.738039 0
M  V30 7329 C 678.107 0.238968 3.59306 0
M  V30 7330 C 677.96 1.66594 4.17812 0
M  V30 7331 C 679.279 -0.411287 4.38174 0
M  V30 7332 H 676.398 0.0746114 0.733214 0
M  V30 7333 H 679.04 0.862872 1.69276 0
M  V30 7334 H 677.19 -0.324368 3.87144 0
M  V30 7335 H 678.862 2.28173 4.00917 0
M  V30 7336 H 677.105 2.20576 3.73536 0
M  V30 7337 H 677.776 1.64398 5.26951 0
M  V30 7338 H 680.252 0.0682804 4.16044 0
M  V30 7339 H 679.128 -0.354286 5.47755 0
M  V30 7340 H 679.389 -1.4893 4.1626 0
M  V30 7341 N 678.448 -1.51871 0.421078 0
M  V30 7342 C 679.864 -1.59435 0.0725398 0
M  V30 7343 C 680.064 -1.43315 -1.41644 0
M  V30 7344 O 679.12 -1.26614 -2.18461 0
M  V30 7345 C 680.433 -2.9509 0.578132 0
M  V30 7346 C 681.981 -3.08356 0.537149 0
M  V30 7347 C 682.456 -4.4651 1.01945 0
M  V30 7348 N 683.947 -4.52784 0.976758 0
M  V30 7349 C 684.682 -5.57976 1.32099 0
M  V30 7350 N 684.178 -6.70664 1.73727 0
M  V30 7351 N 685.971 -5.48248 1.2402 0
M  V30 7352 H 678.122 -1.60595 1.39007 0
M  V30 7353 H 680.385 -0.756138 0.571803 0
M  V30 7354 H 680.091 -3.12205 1.61929 0
M  V30 7355 H 679.965 -3.772 -0.00578374 0
M  V30 7356 H 682.352 -2.90919 -0.494991 0
M  V30 7357 H 682.433 -2.28125 1.15727 0
M  V30 7358 H 682.077 -4.64692 2.04997 0
M  V30 7359 H 682.007 -5.25256 0.376023 0
M  V30 7360 H 684.498 -3.71898 0.670851 0
M  V30 7361 H 684.811 -7.46932 1.98274 0
M  V30 7362 H 683.156 -6.71914 1.77641 0
M  V30 7363 H 686.347 -4.59095 0.913756 0
M  V30 7364 H 686.52 -6.30119 1.51176 0
M  V30 7365 N 679.926 -0.151884 -1.56866 0
M  V30 7366 C 681.151 0.508044 -2.01081 0
M  V30 7367 C 681.576 1.57306 -1.03134 0
M  V30 7368 O 680.934 1.81298 -0.0078309 0
M  V30 7369 C 680.982 1.08106 -3.44014 0
M  V30 7370 O 680.086 2.19577 -3.49084 0
M  V30 7371 H 679.427 0.123757 -0.652365 0
M  V30 7372 H 681.957 -0.250055 -2.03066 0
M  V30 7373 H 681.967 1.40851 -3.82916 0
M  V30 7374 H 680.642 0.301168 -4.14808 0
M  V30 7375 H 679.219 1.88023 -3.22027 0
M  V30 7376 N 681.404 1.57128 0.121893 0
M  V30 7377 C 682.352 2.01109 1.16868 0
M  V30 7378 C 683.346 0.907532 1.43039 0
M  V30 7379 O 684.552 1.09274 1.43036 0
M  V30 7380 H 680.927 0.640539 0.393971 0
M  V30 7381 H 682.898 2.88261 0.771224 0
M  V30 7382 C 681.647 2.42887 2.48799 0
M  V30 7383 H 680.97 3.2737 2.29498 0
M  V30 7384 H 682.41 2.77461 3.20611 0
M  V30 7385 C 680.869 1.29137 3.11168 0
M  V30 7386 O 681.399 0.605756 3.97106 0
M  V30 7387 N 679.605 1.04916 2.71 0
M  V30 7388 H 679.152 1.60848 2.01211 0
M  V30 7389 H 679.11 0.290016 3.1306 0
M  V30 7390 N 682.882 -0.391992 1.52647 0
M  V30 7391 C 684.293 -0.970064 1.5952 0
M  V30 7392 C 684.644 -1.91059 0.446207 0
M  V30 7393 O 683.769 -2.12062 -0.431125 0
M  V30 7394 C 684.364 -1.76614 2.89125 0
M  V30 7395 C 682.923 -2.29396 2.9842 0
M  V30 7396 C 682.07 -1.09864 2.54608 0
M  V30 7397 H 685.021 -0.171638 1.57769 0
M  V30 7398 H 685.042 -2.62511 2.75442 0
M  V30 7399 H 684.554 -1.08135 3.72731 0
M  V30 7400 H 682.655 -3.01196 2.19344 0
M  V30 7401 H 682.768 -2.59088 4.03002 0
M  V30 7402 H 681.132 -1.45777 2.08857 0
M  V30 7403 H 681.915 -0.429249 3.40606 0
M  V30 7404 N 684.36 -1.4356 -0.65026 0
M  V30 7405 C 685.308 -1.49219 -1.78427 0
M  V30 7406 C 686.302 -0.365528 -1.65409 0
M  V30 7407 O 687.508 -0.539649 -1.7172 0
M  V30 7408 H 683.883 -0.467858 -0.588738 0
M  V30 7409 H 685.854 -2.44701 -1.70774 0
M  V30 7410 C 684.603 -1.43519 -3.16698 0
M  V30 7411 H 683.926 -2.2952 -3.27354 0
M  V30 7412 H 685.366 -1.5154 -3.95995 0
M  V30 7413 C 683.825 -0.153197 -3.36552 0
M  V30 7414 O 684.355 0.784317 -3.93969 0
M  V30 7415 N 682.561 -0.0624402 -2.90533 0
M  V30 7416 H 682.108 -0.826172 -2.43992 0
M  V30 7417 H 682.066 0.794616 -3.04193 0
M  V30 7418 N 685.838 0.888903 -1.30139 0
M  V30 7419 C 687.066 1.67358 -1.21651 0
M  V30 7420 C 687.481 1.87499 0.221246 0
M  V30 7421 O 686.838 1.41969 1.14677 0
M  V30 7422 C 686.889 3.05213 -1.93719 0
M  V30 7423 O 686.61 2.85984 -3.31881 0
M  V30 7424 C 688.111 3.9964 -1.9184 0
M  V30 7425 H 685.331 0.522365 -0.42116 0
M  V30 7426 H 687.875 1.11086 -1.71698 0
M  V30 7427 H 686.03 3.5823 -1.4748 0
M  V30 7428 H 686.444 3.73411 -3.68327 0
M  V30 7429 H 687.918 4.93749 -2.46811 0
M  V30 7430 H 688.395 4.29955 -0.896409 0
M  V30 7431 H 689.001 3.52558 -2.37872 0
M  V30 7432 N 687.317 1.12792 1.10072 0
M  V30 7433 C 688.594 0.796867 1.78632 0
M  V30 7434 C 688.974 -0.712739 1.98704 0
M  V30 7435 O 688.322 -1.64773 1.5831 0
M  V30 7436 C 688.532 1.57622 3.11378 0
M  V30 7437 C 689.88 1.76463 3.86194 0
M  V30 7438 O 690.904 1.54165 3.2111 0
M  V30 7439 O 689.763 2.13623 5.03018 0
M  V30 7440 H 686.857 0.290248 0.774394 0
M  V30 7441 H 689.403 1.23215 1.16688 0
M  V30 7442 H 688.175 2.60246 2.92212 0
M  V30 7443 H 687.798 1.13543 3.81043 0
M  V30 7444 N 688.795 -1.27931 0.920396 0
M  V30 7445 C 690.02 -1.99343 0.572478 0
M  V30 7446 C 690.445 -1.68267 -0.840696 0
M  V30 7447 O 689.803 -0.918805 -1.56294 0
M  V30 7448 C 689.851 -3.51698 0.796284 0
M  V30 7449 O 688.955 -4.12157 -0.141602 0
M  V30 7450 H 688.296 -0.626065 0.221221 0
M  V30 7451 H 690.826 -1.62921 1.23765 0
M  V30 7452 H 690.836 -4.01793 0.708984 0
M  V30 7453 H 689.511 -3.73649 1.82644 0
M  V30 7454 H 688.088 -3.729 -0.005007 0
M  V30 7455 N 690.273 -0.685099 -1.4193 0
M  V30 7456 C 691.236 -0.0222632 -2.29189 0
M  V30 7457 C 692.236 0.7186 -1.4385 0
M  V30 7458 O 693.426 0.555058 -1.6512 0
M  V30 7459 C 690.558 0.979013 -3.2654 0
M  V30 7460 H 691.751 -0.790424 -2.89296 0
M  V30 7461 H 689.304 -0.448012 -1.49742 0
M  V30 7462 H 690.039 1.77531 -2.71392 0
M  V30 7463 H 689.824 0.451037 -3.89497 0
M  V30 7464 H 691.314 1.44091 -3.91954 0
M  V30 7465 N 691.751 1.51645 -0.429126 0
M  V30 7466 C 692.714 2.26116 0.374726 0
M  V30 7467 C 693.714 1.29242 0.956714 0
M  V30 7468 O 694.904 1.53022 0.832452 0
M  V30 7469 C 692.036 3.04669 1.52937 0
M  V30 7470 H 693.229 2.9861 -0.277818 0
M  V30 7471 H 690.782 1.55236 -0.182097 0
M  V30 7472 H 691.517 2.36571 2.21821 0
M  V30 7473 H 691.302 3.75814 1.11833 0
M  V30 7474 H 692.792 3.61102 2.09751 0
M  V30 7475 N 693.229 0.160201 1.56784 0
M  V30 7476 C 694.192 -0.760405 2.16219 0
M  V30 7477 C 695.192 -1.16595 1.10735 0
M  V30 7478 O 696.382 -1.08472 1.36306 0
M  V30 7479 C 693.514 -2.03358 2.73603 0
M  V30 7480 H 694.707 -0.243173 2.98912 0
M  V30 7481 H 692.26 -0.0893139 1.56045 0
M  V30 7482 H 692.995 -2.59416 1.94612 0
M  V30 7483 H 692.78 -1.75186 3.50788 0
M  V30 7484 H 694.27 -2.69081 3.19351 0
M  V30 7485 N 694.707 -1.5719 -0.113559 0
M  V30 7486 C 695.637 -2.03772 -1.14013 0
M  V30 7487 C 696.618 -0.923176 -1.42869 0
M  V30 7488 O 697.803 -1.19325 -1.53216 0
M  V30 7489 C 694.933 -2.44663 -2.4649 0
M  V30 7490 C 693.887 -3.59612 -2.32085 0
M  V30 7491 C 693.213 -3.8642 -3.69573 0
M  V30 7492 C 694.513 -4.91149 -1.7768 0
M  V30 7493 H 696.207 -2.89785 -0.752665 0
M  V30 7494 H 693.753 -1.39412 -0.360609 0
M  V30 7495 H 695.706 -2.75857 -3.18561 0
M  V30 7496 H 694.43 -1.55628 -2.87137 0
M  V30 7497 H 693.089 -3.28636 -1.62461 0
M  V30 7498 H 692.737 -2.94581 -4.07715 0
M  V30 7499 H 692.437 -4.63797 -3.60786 0
M  V30 7500 H 693.961 -4.2007 -4.4314 0
M  V30 7501 H 695.375 -5.20843 -2.39574 0
M  V30 7502 H 693.772 -5.72562 -1.79701 0
M  V30 7503 H 694.842 -4.79301 -0.734776 0
M  V30 7504 N 696.185 0.383891 -1.52853 0
M  V30 7505 C 697.115 1.47559 -1.80965 0
M  V30 7506 C 698.096 1.5669 -0.661986 0
M  V30 7507 O 699.281 1.71556 -0.910072 0
M  V30 7508 C 696.411 2.85114 -1.98312 0
M  V30 7509 C 695.365 2.9082 -3.14019 0
M  V30 7510 C 694.691 4.30873 -3.16627 0
M  V30 7511 C 695.991 2.60001 -4.52986 0
M  V30 7512 H 697.685 1.24283 -2.72386 0
M  V30 7513 H 695.231 0.596445 -1.31067 0
M  V30 7514 H 697.184 3.61496 -2.16561 0
M  V30 7515 H 695.908 3.09738 -1.03585 0
M  V30 7516 H 694.567 2.16886 -2.9556 0
M  V30 7517 H 694.215 4.52545 -2.19573 0
M  V30 7518 H 693.915 4.3561 -3.94357 0
M  V30 7519 H 695.439 5.09154 -3.37038 0
M  V30 7520 H 696.853 3.261 -4.71521 0
M  V30 7521 H 695.25 2.76081 -5.32822 0
M  V30 7522 H 696.32 1.5532 -4.59351 0
M  V30 7523 N 697.663 1.43903 0.642637 0
M  V30 7524 C 698.912 1.45362 1.39831 0
M  V30 7525 C 699.225 0.0856289 1.95412 0
M  V30 7526 O 700.431 -0.0222856 2.71491 0
M  V30 7527 C 698.887 2.55857 2.53111 0
M  V30 7528 C 698.495 3.98811 2.04092 0
M  V30 7529 C 700.239 2.66524 3.30402 0
M  V30 7530 C 698.146 5.00751 3.14647 0
M  V30 7531 H 697.076 0.540777 0.52543 0
M  V30 7532 H 699.727 1.69929 0.692559 0
M  V30 7533 H 698.109 2.2451 3.26207 0
M  V30 7534 H 699.283 4.3967 1.37938 0
M  V30 7535 H 697.598 3.92284 1.39651 0
M  V30 7536 H 700.195 3.39858 4.12796 0
M  V30 7537 H 700.538 1.71949 3.79129 0
M  V30 7538 H 701.071 2.97224 2.64392 0
M  V30 7539 H 697.81 5.96914 2.70876 0
M  V30 7540 H 697.33 4.64495 3.79479 0
M  V30 7541 H 699.009 5.23933 3.79609 0
M  V30 7542 N 699.141 -0.881989 1.30609 0
M  V30 7543 C 700.381 -1.64817 1.20891 0
M  V30 7544 C 700.745 -1.90593 -0.232043 0
M  V30 7545 O 701.946 -2.64964 -0.452516 0
M  V30 7546 C 700.217 -2.95006 2.01758 0
M  V30 7547 S 701.776 -3.85953 2.08771 0
M  V30 7548 H 698.594 -0.565651 0.430767 0
M  V30 7549 H 701.196 -1.04665 1.65122 0
M  V30 7550 H 699.9 -2.73973 3.0556 0
M  V30 7551 H 699.431 -3.60189 1.582 0
M  V30 7552 H 701.446 -4.81037 1.21727 0
M  V30 7553 N 700.619 -1.13374 -1.09472 0
M  V30 7554 C 701.549 -0.833268 -2.18126 0
M  V30 7555 C 702.53 0.207169 -1.68834 0
M  V30 7556 O 703.715 0.0662012 -1.94087 0
M  V30 7557 C 700.845 -0.297979 -3.46019 0
M  V30 7558 C 699.799 -1.27261 -4.08642 0
M  V30 7559 C 699.125 -0.597104 -5.31356 0
M  V30 7560 C 700.425 -2.63095 -4.51197 0
M  V30 7561 H 702.119 -1.74182 -2.43518 0
M  V30 7562 H 699.665 -0.838921 -1.17039 0
M  V30 7563 H 701.618 -0.0754444 -4.21332 0
M  V30 7564 H 700.342 0.645959 -3.20148 0
M  V30 7565 H 699.001 -1.48113 -3.35348 0
M  V30 7566 H 698.649 0.352293 -5.01765 0
M  V30 7567 H 698.349 -1.24734 -5.74208 0
M  V30 7568 H 699.873 -0.38384 -6.09392 0
M  V30 7569 H 701.287 -2.46214 -5.17737 0
M  V30 7570 H 699.684 -3.2429 -5.04932 0
M  V30 7571 H 700.754 -3.20793 -3.6362 0
M  V30 7572 N 702.098 1.27442 -0.927168 0
M  V30 7573 C 703.509 1.76385 -0.611979 0
M  V30 7574 C 703.86 1.75715 0.872853 0
M  V30 7575 O 702.985 1.3603 1.683 0
M  V30 7576 C 703.58 3.20303 -1.10414 0
M  V30 7577 C 702.139 3.66916 -0.839628 0
M  V30 7578 C 701.286 2.46859 -1.26317 0
M  V30 7579 H 704.237 1.13716 -1.107 0
M  V30 7580 H 704.258 3.77811 -0.451578 0
M  V30 7581 H 703.77 3.20759 -2.18484 0
M  V30 7582 H 701.871 3.71906 0.227292 0
M  V30 7583 H 701.984 4.56415 -1.45679 0
M  V30 7584 H 700.348 2.45407 -0.681723 0
M  V30 7585 H 701.131 2.50025 -2.3525 0
M  V30 7586 N 703.576 0.692616 1.41565 0
M  V30 7587 C 704.486 0.0258451 2.34586 0
M  V30 7588 C 705.502 -0.769324 1.56069 0
M  V30 7589 O 706.678 -0.707563 1.88562 0
M  V30 7590 C 703.743 -0.901289 3.3478 0
M  V30 7591 C 702.804 -0.0986579 4.29187 0
M  V30 7592 C 702.037 -0.981634 5.24595 0
M  V30 7593 O 702.26 -2.22115 5.25377 0
M  V30 7594 O 701.194 -0.432892 6.00341 0
M  V30 7595 H 705.02 0.792537 2.93177 0
M  V30 7596 H 702.605 0.452935 1.42369 0
M  V30 7597 H 704.487 -1.43302 3.96286 0
M  V30 7598 H 703.162 -1.64752 2.78637 0
M  V30 7599 H 702.069 0.477604 3.71039 0
M  V30 7600 H 703.402 0.608848 4.8842 0
M  V30 7601 N 705.054 -1.51416 0.437162 0
M  V30 7602 C 706.3 -2.02386 -0.129555 0
M  V30 7603 C 706.633 -1.32071 -1.42376 0
M  V30 7604 O 705.908 -0.43559 -1.8956 0
M  V30 7605 C 706.191 -3.5841 -0.348487 0
M  V30 7606 C 706.044 -4.39341 0.964352 0
M  V30 7607 C 707.363 -4.25654 -1.11834 0
M  V30 7608 H 704.482 -0.735587 -0.0456109 0
M  V30 7609 H 707.124 -1.81055 0.576124 0
M  V30 7610 H 705.274 -3.76716 -0.949592 0
M  V30 7611 H 706.946 -4.32685 1.59942 0
M  V30 7612 H 705.189 -4.04432 1.56898 0
M  V30 7613 H 705.86 -5.4667 0.765212 0
M  V30 7614 H 708.336 -4.11617 -0.609165 0
M  V30 7615 H 707.212 -5.34704 -1.24029 0
M  V30 7616 H 707.473 -3.86502 -2.14636 0
M  V30 7617 N 706.532 -0.168513 -1.56696 0
M  V30 7618 C 707.495 0.748928 -2.16619 0
M  V30 7619 C 708.495 1.16007 -1.11351 0
M  V30 7620 O 709.685 1.07748 -1.3688 0
M  V30 7621 C 706.817 2.01904 -2.74677 0
M  V30 7622 H 708.01 0.227317 -2.99037 0
M  V30 7623 H 705.563 0.0810372 -1.5609 0
M  V30 7624 H 706.298 2.58381 -1.95985 0
M  V30 7625 H 706.083 1.73323 -3.51712 0
M  V30 7626 H 707.573 2.67383 -3.20774 0
M  V30 7627 N 708.01 1.57248 0.105221 0
M  V30 7628 C 709.421 1.74612 0.660865 0
M  V30 7629 C 709.772 0.789231 1.79626 0
M  V30 7630 O 708.897 -0.0346611 2.16372 0
M  V30 7631 C 709.492 3.16624 1.20559 0
M  V30 7632 C 708.051 3.35447 1.7074 0
M  V30 7633 C 707.198 2.70445 0.612764 0
M  V30 7634 H 710.149 1.5824 -0.12079 0
M  V30 7635 H 710.17 3.18937 2.07508 0
M  V30 7636 H 709.682 3.86245 0.379012 0
M  V30 7637 H 707.783 2.7089 2.5583 0
M  V30 7638 H 707.896 4.43702 1.80736 0
M  V30 7639 H 706.26 2.32061 1.04975 0
M  V30 7640 H 707.043 3.42699 -0.203066 0
M  V30 7641 N 709.488 -0.375779 1.53054 0
M  V30 7642 C 710.438 -1.45965 1.75152 0
M  V30 7643 C 711.422 -1.49059 0.605823 0
M  V30 7644 O 712.614 -1.54472 0.864133 0
M  V30 7645 C 709.743 -2.83524 1.93569 0
M  V30 7646 C 708.829 -2.84949 3.1411 0
M  V30 7647 N 709.22 -2.56029 4.36214 0
M  V30 7648 C 707.518 -3.16113 3.14625 0
M  V30 7649 C 708.219 -2.64873 5.17897 0
M  V30 7650 N 707.195 -2.99159 4.53878 0
M  V30 7651 H 710.997 -1.22454 2.67175 0
M  V30 7652 H 708.511 -0.583867 1.51541 0
M  V30 7653 H 710.508 -3.61578 2.07525 0
M  V30 7654 H 709.168 -3.08008 1.02768 0
M  V30 7655 H 710.179 -2.29808 4.64121 0
M  V30 7656 H 706.856 -3.45977 2.3368 0
M  V30 7657 H 708.246 -2.45947 6.25268 0
M  V30 7658 N 710.966 -1.44241 -0.634997 0
M  V30 7659 C 712.377 -1.41622 -1.21655 0
M  V30 7660 C 712.728 -0.129584 -1.95772 0
M  V30 7661 O 711.853 0.770225 -2.02229 0
M  V30 7662 C 712.448 -2.56557 -2.21278 0
M  V30 7663 C 711.007 -2.57145 -2.7487 0
M  V30 7664 C 710.154 -2.33354 -1.49804 0
M  V30 7665 H 713.105 -1.52878 -0.425905 0
M  V30 7666 H 713.126 -2.29089 -3.03807 0
M  V30 7667 H 712.638 -3.50186 -1.67306 0
M  V30 7668 H 710.739 -1.67447 -3.32855 0
M  V30 7669 H 710.852 -3.55507 -3.21172 0
M  V30 7670 H 709.216 -1.82372 -1.77799 0
M  V30 7671 H 709.999 -3.29092 -0.977402 0
M  V30 7672 N 712.444 0.87505 -1.31075 0
M  V30 7673 C 713.69 1.63009 -1.20647 0
M  V30 7674 C 714.023 1.9276 0.236045 0
M  V30 7675 O 713.298 1.55559 1.16754 0
M  V30 7676 C 713.581 2.96357 -2.0456 0
M  V30 7677 C 713.434 2.73516 -3.57084 0
M  V30 7678 C 714.753 3.974 -1.89107 0
M  V30 7679 H 711.872 0.591518 -0.439631 0
M  V30 7680 H 714.514 1.0119 -1.60812 0
M  V30 7681 H 712.664 3.49119 -1.70435 0
M  V30 7682 H 714.336 2.27465 -4.01319 0
M  V30 7683 H 712.579 2.0784 -3.80769 0
M  V30 7684 H 713.25 3.68377 -4.11099 0
M  V30 7685 H 715.726 3.5383 -2.18961 0
M  V30 7686 H 714.602 4.88596 -2.5013 0
M  V30 7687 H 714.863 4.33794 -0.85296 0
M  V30 7688 N 713.922 1.13953 1.08869 0
M  V30 7689 C 715.152 0.926825 1.84644 0
M  V30 7690 C 715.56 -0.527941 1.81685 0
M  V30 7691 O 714.903 -1.37742 1.21543 0
M  V30 7692 C 714.965 1.34416 3.33426 0
M  V30 7693 C 714.629 2.81351 3.60126 0
M  V30 7694 C 715.626 3.79486 3.55368 0
M  V30 7695 C 713.311 3.1865 3.88288 0
M  V30 7696 C 715.305 5.1293 3.78393 0
M  V30 7697 C 712.992 4.5227 4.10968 0
M  V30 7698 C 713.99 5.4922 4.06013 0
M  V30 7699 O 713.678 6.80429 4.28102 0
M  V30 7700 H 713.41 0.33013 0.589907 0
M  V30 7701 H 715.964 1.51738 1.38436 0
M  V30 7702 H 714.194 0.696901 3.80368 0
M  V30 7703 H 715.883 1.10302 3.90626 0
M  V30 7704 H 716.649 3.52017 3.3363 0
M  V30 7705 H 712.528 2.43785 3.91267 0
M  V30 7706 H 716.072 5.88591 3.74442 0
M  V30 7707 H 711.969 4.79462 4.32188 0
M  V30 7708 H 712.737 6.86617 4.45533 0
M  V30 7709 N 715.4 -1.26948 0.933913 0
M  V30 7710 C 716.63 -1.97898 0.593279 0
M  V30 7711 C 717.038 -1.69806 -0.834412 0
M  V30 7712 O 716.381 -0.958704 -1.56699 0
M  V30 7713 C 716.443 -3.51657 0.746825 0
M  V30 7714 C 716.107 -4.03384 2.14779 0
M  V30 7715 C 717.104 -4.15682 3.12257 0
M  V30 7716 C 714.789 -4.37577 2.46641 0
M  V30 7717 C 716.783 -4.61455 4.39702 0
M  V30 7718 C 714.47 -4.8304 3.7432 0
M  V30 7719 C 715.468 -4.94939 4.70664 0
M  V30 7720 O 715.156 -5.39403 5.96071 0
M  V30 7721 H 714.888 -0.63814 0.223055 0
M  V30 7722 H 717.442 -1.62608 1.2549 0
M  V30 7723 H 715.672 -3.8669 0.0280889 0
M  V30 7724 H 717.361 -4.03821 0.410328 0
M  V30 7725 H 718.127 -3.89519 2.88964 0
M  V30 7726 H 714.006 -4.27554 1.72391 0
M  V30 7727 H 717.55 -4.70658 5.14905 0
M  V30 7728 H 713.447 -5.08646 3.97429 0
M  V30 7729 H 714.215 -5.57641 5.99148 0
M  V30 7730 N 716.879 -0.700114 -1.41195 0
M  V30 7731 C 718.29 -0.307249 -1.84154 0
M  V30 7732 C 718.641 1.15539 -1.58572 0
M  V30 7733 O 717.766 1.88744 -1.05852 0
M  V30 7734 C 718.361 -0.550872 -3.34292 0
M  V30 7735 C 716.92 -0.211877 -3.75803 0
M  V30 7736 C 716.067 -0.830915 -2.64558 0
M  V30 7737 H 719.018 -0.900431 -1.30683 0
M  V30 7738 H 719.039 0.188954 -3.80031 0
M  V30 7739 H 718.551 -1.61548 -3.5288 0
M  V30 7740 H 716.652 0.848283 -3.62815 0
M  V30 7741 H 716.765 -0.67007 -4.74391 0
M  V30 7742 H 715.129 -0.260155 -2.53368 0
M  V30 7743 H 715.912 -1.89948 -2.85963 0
M  V30 7744 N 718.357 1.51182 -0.445186 0
M  V30 7745 C 719.32 2.26501 0.350722 0
M  V30 7746 C 720.32 1.3025 0.942952 0
M  V30 7747 O 721.51 1.53897 0.816175 0
M  V30 7748 C 718.642 3.06274 1.49697 0
M  V30 7749 H 719.835 2.98299 -0.309474 0
M  V30 7750 H 717.388 1.55034 -0.198551 0
M  V30 7751 H 718.123 2.38911 2.19299 0
M  V30 7752 H 717.908 3.76979 1.0784 0
M  V30 7753 H 719.398 3.63306 2.05909 0
M  V30 7754 N 719.835 0.176821 1.56605 0
M  V30 7755 C 720.765 -0.746841 2.21234 0
M  V30 7756 C 721.746 -1.23502 1.16967 0
M  V30 7757 O 722.931 -1.28718 1.45414 0
M  V30 7758 C 720.061 -1.97407 2.8574 0
M  V30 7759 C 719.015 -1.62153 3.96094 0
M  V30 7760 C 718.341 -2.92387 4.47676 0
M  V30 7761 C 719.641 -0.845353 5.15413 0
M  V30 7762 H 721.335 -0.208116 2.98676 0
M  V30 7763 H 718.881 -0.0986594 1.43662 0
M  V30 7764 H 720.834 -2.62531 3.2963 0
M  V30 7765 H 719.558 -2.53703 2.05676 0
M  V30 7766 H 718.217 -0.993964 3.52868 0
M  V30 7767 H 717.865 -3.46734 3.64396 0
M  V30 7768 H 717.565 -2.69551 5.22127 0
M  V30 7769 H 719.089 -3.5853 4.94255 0
M  V30 7770 H 720.503 -1.39929 5.55961 0
M  V30 7771 H 718.9 -0.715814 5.95815 0
M  V30 7772 H 719.97 0.157239 4.84645 0
M  V30 7773 N 721.313 -1.57302 -0.09688 0
M  V30 7774 C 722.223 -2.05258 -1.13606 0
M  V30 7775 C 723.239 -0.977137 -1.43972 0
M  V30 7776 O 724.415 -1.29018 -1.54649 0
M  V30 7777 C 721.48 -2.46593 -2.43706 0
M  V30 7778 C 720.541 -3.68322 -2.20538 0
M  V30 7779 C 719.774 -4.07676 -3.44435 0
M  V30 7780 O 719.997 -3.47141 -4.52603 0
M  V30 7781 O 718.931 -5.00641 -3.34129 0
M  V30 7782 H 722.757 -2.94069 -0.758752 0
M  V30 7783 H 720.342 -1.46164 -0.309263 0
M  V30 7784 H 722.224 -2.73814 -3.20318 0
M  V30 7785 H 720.899 -1.6092 -2.80867 0
M  V30 7786 H 719.806 -3.4622 -1.41713 0
M  V30 7787 H 721.139 -4.54769 -1.88271 0
M  V30 7788 N 722.791 0.367657 -1.53252 0
M  V30 7789 C 723.738 1.45028 -1.79543 0
M  V30 7790 C 724.708 1.53288 -0.63969 0
M  V30 7791 O 725.893 1.69209 -0.881653 0
M  V30 7792 C 723.033 2.82 -1.98923 0
M  V30 7793 C 722.146 2.82722 -3.26638 0
M  V30 7794 C 721.281 4.11257 -3.36216 0
M  V30 7795 C 720.32 4.06113 -4.57972 0
M  V30 7796 N 719.457 5.26293 -4.64715 0
M  V30 7797 H 724.297 1.21908 -2.71923 0
M  V30 7798 H 721.834 0.591011 -1.34705 0
M  V30 7799 H 723.792 3.61568 -2.08146 0
M  V30 7800 H 722.422 3.03523 -1.09881 0
M  V30 7801 H 721.474 1.95399 -3.26379 0
M  V30 7802 H 722.786 2.74794 -4.16281 0
M  V30 7803 H 721.94 4.99239 -3.44739 0
M  V30 7804 H 720.679 4.21935 -2.44586 0
M  V30 7805 H 719.684 3.16517 -4.49552 0
M  V30 7806 H 720.909 3.97039 -5.50942 0
M  V30 7807 H 718.855 5.37561 -3.75985 0
M  V30 7808 H 718.772 5.20526 -5.4826 0
M  V30 7809 H 720.04 6.16113 -4.77519 0
M  V30 7810 N 724.269 1.44576 0.627338 0
M  V30 7811 C 725.518 1.46837 1.38281 0
M  V30 7812 C 725.831 0.10635 1.95311 0
M  V30 7813 O 727.037 0.00651084 2.71499 0
M  V30 7814 C 725.493 2.58527 2.50384 0
M  V30 7815 C 725.101 4.00953 1.99851 0
M  V30 7816 C 726.845 2.70013 3.27557 0
M  V30 7817 C 724.752 5.0406 3.09318 0
M  V30 7818 H 723.682 0.546319 0.519664 0
M  V30 7819 H 726.333 1.70654 0.674497 0
M  V30 7820 H 724.715 2.27957 3.23808 0
M  V30 7821 H 725.889 4.41108 1.33267 0
M  V30 7822 H 724.204 3.93743 1.35482 0
M  V30 7823 H 726.801 3.44217 4.09168 0
M  V30 7824 H 727.144 1.75961 3.77284 0
M  V30 7825 H 727.677 3.00011 2.61224 0
M  V30 7826 H 724.416 5.99753 2.6453 0
M  V30 7827 H 723.936 4.68493 3.74532 0
M  V30 7828 H 725.615 5.2793 3.74031 0
M  V30 7829 N 725.747 -0.868086 1.31537 0
M  V30 7830 C 726.677 -1.99131 1.21939 0
M  V30 7831 C 727.658 -1.69768 0.106166 0
M  V30 7832 O 728.843 -1.92006 0.291081 0
M  V30 7833 C 725.973 -3.34676 0.927879 0
M  V30 7834 C 724.927 -3.7835 2.00088 0
M  V30 7835 C 724.253 -5.11375 1.56203 0
M  V30 7836 C 725.553 -3.95256 3.41424 0
M  V30 7837 H 727.247 -2.07419 2.15911 0
M  V30 7838 H 724.793 -0.996569 1.03945 0
M  V30 7839 H 726.746 -4.12793 0.847327 0
M  V30 7840 H 725.47 -3.26565 -0.0475042 0
M  V30 7841 H 724.129 -3.02474 2.07135 0
M  V30 7842 H 723.777 -4.99709 0.57445 0
M  V30 7843 H 723.477 -5.41568 2.27985 0
M  V30 7844 H 725.001 -5.92001 1.49558 0
M  V30 7845 H 726.415 -4.63764 3.3704 0
M  V30 7846 H 724.812 -4.36849 4.1144 0
M  V30 7847 H 725.882 -2.98579 3.82072 0
M  V30 7848 N 727.225 -1.14528 -1.08264 0
M  V30 7849 C 728.135 -0.84728 -2.18765 0
M  V30 7850 C 729.151 0.172826 -1.7314 0
M  V30 7851 O 730.327 0.000985336 -2.014 0
M  V30 7852 C 727.392 -0.330633 -3.4512 0
M  V30 7853 C 726.453 -1.41348 -4.05363 0
M  V30 7854 C 725.686 -0.921387 -5.25686 0
M  V30 7855 O 725.909 0.236587 -5.69909 0
M  V30 7856 O 724.843 -1.70101 -5.77364 0
M  V30 7857 H 728.669 -1.7708 -2.46731 0
M  V30 7858 H 726.254 -0.923661 -1.17426 0
M  V30 7859 H 728.136 -0.0485053 -4.21372 0
M  V30 7860 H 726.811 0.565147 -3.18728 0
M  V30 7861 H 725.718 -1.74908 -3.30693 0
M  V30 7862 H 727.051 -2.28383 -4.36007 0
M  V30 7863 N 728.703 1.26451 -0.940633 0
M  V30 7864 C 729.633 2.28773 -0.467479 0
M  V30 7865 C 730.614 1.63218 0.478955 0
M  V30 7866 O 731.799 1.90427 0.380929 0
M  V30 7867 C 728.929 3.46259 0.268656 0
M  V30 7868 C 727.883 4.23898 -0.591171 0
M  V30 7869 C 727.209 5.33993 0.274891 0
M  V30 7870 C 728.509 4.87974 -1.86223 0
M  V30 7871 H 730.203 2.68601 -1.32265 0
M  V30 7872 H 727.749 1.29123 -0.637436 0
M  V30 7873 H 729.702 4.16951 0.610696 0
M  V30 7874 H 728.426 3.05383 1.15796 0
M  V30 7875 H 727.085 3.54969 -0.916098 0
M  V30 7876 H 726.733 4.89358 1.16353 0
M  V30 7877 H 726.433 5.86849 -0.297006 0
M  V30 7878 H 727.957 6.07523 0.612213 0
M  V30 7879 H 729.371 5.50883 -1.58747 0
M  V30 7880 H 727.768 5.50945 -2.37866 0
M  V30 7881 H 728.838 4.10945 -2.57394 0
M  V30 7882 N 730.181 0.707592 1.40822 0
M  V30 7883 C 731.429 0.243189 2.00632 0
M  V30 7884 C 731.75 -1.16512 1.56365 0
M  V30 7885 O 731.02 -1.78841 0.799553 0
M  V30 7886 H 729.6 0.0869203 0.741926 0
M  V30 7887 H 732.262 0.911438 1.72275 0
M  V30 7888 H 731.358 0.270014 3.1093 0
M  V30 7889 N 731.66 -1.50943 0.453197 0
M  V30 7890 C 733.076 -1.59245 0.106342 0
M  V30 7891 C 733.276 -1.46287 -1.38572 0
M  V30 7892 O 732.332 -1.31219 -2.15726 0
M  V30 7893 C 733.645 -2.93797 0.640595 0
M  V30 7894 C 735.193 -3.07148 0.602435 0
M  V30 7895 C 735.668 -4.44247 1.11393 0
M  V30 7896 N 737.159 -4.50611 1.07258 0
M  V30 7897 C 737.894 -5.55049 1.43905 0
M  V30 7898 N 737.39 -6.66828 1.87914 0
M  V30 7899 N 739.183 -5.45494 1.35621 0
M  V30 7900 H 731.334 -1.5761 1.42382 0
M  V30 7901 H 733.597 -0.74384 0.587713 0
M  V30 7902 H 733.303 -3.087 1.68515 0
M  V30 7903 H 733.177 -3.77127 0.0742272 0
M  V30 7904 H 735.564 -2.91903 -0.433171 0
M  V30 7905 H 735.645 -2.25619 1.20539 0
M  V30 7906 H 735.289 -4.60239 2.14808 0
M  V30 7907 H 735.219 -5.2434 0.487353 0
M  V30 7908 H 737.71 -3.70391 0.749585 0
M  V30 7909 H 738.023 -7.42558 2.14072 0
M  V30 7910 H 736.368 -6.67995 1.91853 0
M  V30 7911 H 739.559 -4.57053 1.01093 0
M  V30 7912 H 739.732 -6.2677 1.64508 0
M  V30 7913 N 733.138 -0.185124 -1.56509 0
M  V30 7914 C 734.088 0.752315 -2.15231 0
M  V30 7915 C 735.072 1.18327 -1.0903 0
M  V30 7916 O 736.264 1.14333 -1.35119 0
M  V30 7917 C 733.393 1.97583 -2.80742 0
M  V30 7918 C 732.479 1.56623 -3.94119 0
M  V30 7919 N 732.87 0.867008 -4.98314 0
M  V30 7920 C 731.168 1.85626 -4.05535 0
M  V30 7921 C 731.869 0.663228 -5.77907 0
M  V30 7922 N 730.845 1.20891 -5.29987 0
M  V30 7923 H 734.647 0.209267 -2.93154 0
M  V30 7924 H 732.161 0.0150444 -1.62393 0
M  V30 7925 H 734.158 2.65779 -3.21197 0
M  V30 7926 H 732.818 2.52369 -2.04303 0
M  V30 7927 H 733.829 0.52355 -5.15247 0
M  V30 7928 H 730.506 2.41992 -3.40215 0
M  V30 7929 H 731.896 0.109273 -6.71811 0
M  V30 7930 N 734.616 1.57351 0.0885366 0
M  V30 7931 C 735.841 1.91011 0.80805 0
M  V30 7932 C 736.266 0.780009 1.71165 0
M  V30 7933 O 735.624 -0.268083 1.79307 0
M  V30 7934 C 735.672 3.23562 1.59185 0
M  V30 7935 O 734.776 3.11615 2.7013 0
M  V30 7936 H 734.117 0.625943 0.221565 0
M  V30 7937 H 736.647 2.04507 0.0617954 0
M  V30 7938 H 736.657 3.5703 1.97468 0
M  V30 7939 H 735.332 4.05398 0.928741 0
M  V30 7940 H 733.909 2.89673 2.34827 0
M  V30 7941 N 736.094 -0.359525 1.53444 0
M  V30 7942 C 737.004 -1.46445 1.83278 0
M  V30 7943 C 738.02 -1.5833 0.721629 0
M  V30 7944 O 739.196 -1.7411 1.01231 0
M  V30 7945 C 736.261 -2.81638 2.02191 0
M  V30 7946 C 735.322 -2.7923 3.26082 0
M  V30 7947 C 734.555 -4.07974 3.44082 0
M  V30 7948 O 734.778 -5.04447 2.66251 0
M  V30 7949 O 733.712 -4.13417 4.37458 0
M  V30 7950 H 737.538 -1.24156 2.77162 0
M  V30 7951 H 735.123 -0.550201 1.389 0
M  V30 7952 H 737.005 -3.61732 2.16167 0
M  V30 7953 H 735.68 -3.03892 1.11496 0
M  V30 7954 H 734.587 -1.97813 3.17523 0
M  V30 7955 H 735.92 -2.6193 4.16718 0
M  V30 7956 N 737.572 -1.44907 -0.619662 0
M  V30 7957 C 738.812 -1.49822 -1.39042 0
M  V30 7958 C 739.176 -0.131803 -1.91547 0
M  V30 7959 O 740.377 -0.0556413 -2.68742 0
M  V30 7960 C 738.648 -2.53805 -2.5163 0
M  V30 7961 S 740.207 -2.77855 -3.3962 0
M  V30 7962 H 737.025 -0.529774 -0.474195 0
M  V30 7963 H 739.627 -1.81907 -0.716236 0
M  V30 7964 H 738.331 -3.51772 -2.11387 0
M  V30 7965 H 737.862 -2.23331 -3.23863 0
M  V30 7966 H 739.877 -2.10319 -4.49422 0
M  V30 7967 N 739.05 0.861098 -1.31996 0
M  V30 7968 C 740.296 1.61721 -1.22369 0
M  V30 7969 C 740.629 1.93 0.215587 0
M  V30 7970 O 739.904 1.56789 1.15098 0
M  V30 7971 C 740.187 2.9417 -2.07691 0
M  V30 7972 C 740.04 2.69714 -3.59965 0
M  V30 7973 C 741.359 3.95372 -1.93312 0
M  V30 7974 H 738.478 0.586822 -0.44588 0
M  V30 7975 H 741.12 0.994788 -1.61876 0
M  V30 7976 H 739.27 3.47292 -1.74128 0
M  V30 7977 H 740.942 2.23196 -4.03709 0
M  V30 7978 H 739.185 2.03789 -3.82952 0
M  V30 7979 H 739.856 3.63996 -4.14983 0
M  V30 7980 H 742.332 3.51487 -2.22701 0
M  V30 7981 H 741.208 4.85916 -2.55298 0
M  V30 7982 H 741.469 4.32865 -0.898922 0
M  V30 7983 N 740.528 1.15101 1.07655 0
M  V30 7984 C 741.478 0.813448 2.12995 0
M  V30 7985 C 742.462 -0.200899 1.59641 0
M  V30 7986 O 743.654 -0.00209918 1.77 0
M  V30 7987 C 740.783 0.301078 3.41977 0
M  V30 7988 C 739.869 1.3454 4.02194 0
M  V30 7989 N 740.26 2.55181 4.36711 0
M  V30 7990 C 738.558 1.19742 4.29625 0
M  V30 7991 C 739.259 3.22094 4.84387 0
M  V30 7992 N 738.235 2.49486 4.82968 0
M  V30 7993 H 742.037 1.73105 2.37511 0
M  V30 7994 H 739.551 1.03601 1.25063 0
M  V30 7995 H 741.548 0.040914 4.1688 0
M  V30 7996 H 740.208 -0.610629 3.18907 0
M  V30 7997 H 741.219 2.92349 4.27496 0
M  V30 7998 H 737.896 0.345353 4.16069 0
M  V30 7999 H 739.286 4.24996 5.20411 0
M  V30 8000 N 742.006 -1.2595 0.947325 0
M  V30 8001 C 743.252 -1.9375 0.599064 0
M  V30 8002 C 743.585 -1.74088 -0.860632 0
M  V30 8003 O 742.86 -1.08158 -1.61654 0
M  V30 8004 C 743.143 -3.47353 0.949634 0
M  V30 8005 C 742.996 -3.76273 2.46452 0
M  V30 8006 C 744.315 -4.37589 0.469442 0
M  V30 8007 H 741.434 -0.703674 0.219115 0
M  V30 8008 H 744.076 -1.48705 1.18266 0
M  V30 8009 H 742.226 -3.8585 0.453008 0
M  V30 8010 H 743.898 -3.47455 3.03435 0
M  V30 8011 H 742.141 -3.22135 2.90537 0
M  V30 8012 H 742.812 -4.83664 2.66032 0
M  V30 8013 H 745.288 -4.06353 0.89534 0
M  V30 8014 H 744.164 -5.43841 0.7435 0
M  V30 8015 H 744.425 -4.37579 -0.630618 0
M  V30 8016 N 743.484 -0.715051 -1.40445 0
M  V30 8017 C 744.712 -0.263959 -2.05209 0
M  V30 8018 C 745.127 1.09403 -1.53871 0
M  V30 8019 O 744.484 1.68746 -0.695064 0
M  V30 8020 C 744.535 -0.234545 -3.60738 0
M  V30 8021 O 744.256 -1.53891 -4.10182 0
M  V30 8022 C 745.757 0.235164 -4.42676 0
M  V30 8023 H 742.977 -0.11876 -0.660407 0
M  V30 8024 H 745.521 -0.973107 -1.79864 0
M  V30 8025 H 743.676 0.425563 -3.85055 0
M  V30 8026 H 744.09 -1.43903 -5.04373 0
M  V30 8027 H 745.564 0.204598 -5.51621 0
M  V30 8028 H 746.041 1.27724 -4.20218 0
M  V30 8029 H 746.647 -0.394649 -4.23465 0
M  V30 8030 N 744.962 1.50701 -0.461195 0
M  V30 8031 C 745.872 2.32069 0.343661 0
M  V30 8032 C 746.888 1.42016 1.00535 0
M  V30 8033 O 748.064 1.75077 0.995498 0
M  V30 8034 C 745.129 3.16424 1.41692 0
M  V30 8035 C 744.19 4.22286 0.772869 0
M  V30 8036 C 743.423 5.02609 1.79499 0
M  V30 8037 O 743.646 4.83874 3.0203 0
M  V30 8038 O 742.58 5.86047 1.3723 0
M  V30 8039 H 746.406 3.01996 -0.321268 0
M  V30 8040 H 743.991 1.47723 -0.223235 0
M  V30 8041 H 745.873 3.68795 2.03883 0
M  V30 8042 H 744.548 2.49236 2.0655 0
M  V30 8043 H 743.455 3.73931 0.112277 0
M  V30 8044 H 744.788 4.91915 0.167399 0
M  V30 8045 N 746.441 0.193421 1.56409 0
M  V30 8046 C 747.351 -0.740112 2.2262 0
M  V30 8047 C 748.367 -1.23597 1.22474 0
M  V30 8048 O 749.543 -1.28348 1.55206 0
M  V30 8049 C 746.608 -1.94317 2.87127 0
M  V30 8050 C 745.669 -1.49205 4.02538 0
M  V30 8051 C 744.902 -2.63776 4.63959 0
M  V30 8052 O 745.125 -3.81215 4.24301 0
M  V30 8053 O 744.059 -2.36585 5.53454 0
M  V30 8054 H 747.885 -0.206238 3.02999 0
M  V30 8055 H 745.47 -0.0357938 1.49357 0
M  V30 8056 H 747.352 -2.64633 3.27944 0
M  V30 8057 H 746.027 -2.46568 2.09728 0
M  V30 8058 H 744.934 -0.757738 3.66346 0
M  V30 8059 H 746.267 -1.01622 4.81595 0
M  V30 8060 N 747.919 -1.57396 -0.0801906 0
M  V30 8061 C 748.829 -2.06451 -1.11423 0
M  V30 8062 C 749.845 -0.992352 -1.42928 0
M  V30 8063 O 751.021 -1.30651 -1.53272 0
M  V30 8064 C 748.086 -2.49164 -2.41077 0
M  V30 8065 C 747.147 -3.70641 -2.16619 0
M  V30 8066 C 746.38 -4.11307 -3.40092 0
M  V30 8067 O 746.603 -3.51922 -4.48895 0
M  V30 8068 O 745.537 -5.04157 -3.288 0
M  V30 8069 H 749.363 -2.94857 -0.727519 0
M  V30 8070 H 746.948 -1.46484 -0.293743 0
M  V30 8071 H 748.83 -2.77196 -3.17396 0
M  V30 8072 H 747.505 -1.6389 -2.79145 0
M  V30 8073 H 746.412 -3.47703 -1.38033 0
M  V30 8074 H 747.745 -4.5674 -1.83437 0
M  V30 8075 N 749.397 0.351382 -1.53633 0
M  V30 8076 C 750.329 1.45159 -1.77374 0
M  V30 8077 C 751.342 1.4905 -0.654826 0
M  V30 8078 O 752.531 1.52274 -0.931396 0
M  V30 8079 C 749.631 2.83858 -1.85143 0
M  V30 8080 C 748.804 3.03498 -3.14972 0
M  V30 8081 C 747.863 4.22393 -3.138 0
M  V30 8082 O 746.889 4.16885 -3.87551 0
M  V30 8083 N 748.091 5.30533 -2.35617 0
M  V30 8084 H 750.856 1.25167 -2.72311 0
M  V30 8085 H 748.417 0.54121 -1.52586 0
M  V30 8086 H 750.409 3.61557 -1.8182 0
M  V30 8087 H 748.979 2.9703 -0.974275 0
M  V30 8088 H 748.199 2.13336 -3.31484 0
M  V30 8089 H 749.487 3.13498 -4.00745 0
M  V30 8090 H 748.885 5.37875 -1.75235 0
M  V30 8091 H 747.442 6.06756 -2.38098 0
M  V30 8092 N 750.875 1.45233 0.611969 0
M  V30 8093 C 751.805 1.5641 1.73373 0
M  V30 8094 C 752.786 0.415896 1.64937 0
M  V30 8095 O 753.971 0.638478 1.83404 0
M  V30 8096 C 751.101 1.52627 3.11965 0
M  V30 8097 C 750.055 2.66119 3.35208 0
M  V30 8098 C 749.381 2.4739 4.74028 0
M  V30 8099 C 750.681 4.08157 3.25891 0
M  V30 8100 H 752.375 2.50307 1.64277 0
M  V30 8101 H 749.921 1.20467 0.788904 0
M  V30 8102 H 751.874 1.59043 3.90235 0
M  V30 8103 H 750.598 0.552564 3.21892 0
M  V30 8104 H 749.257 2.59123 2.59327 0
M  V30 8105 H 748.905 1.48168 4.80682 0
M  V30 8106 H 748.605 3.23494 4.90536 0
M  V30 8107 H 750.129 2.55653 5.54503 0
M  V30 8108 H 751.543 4.1642 3.9404 0
M  V30 8109 H 749.94 4.84617 3.5393 0
M  V30 8110 H 751.01 4.30374 2.23397 0
M  V30 8111 N 752.353 -0.854086 1.3245 0
M  V30 8112 C 753.285 -1.96932 1.17262 0
M  V30 8113 C 754.298 -1.62445 0.107469 0
M  V30 8114 O 755.487 -1.74904 0.356481 0
M  V30 8115 C 752.587 -3.29971 0.772817 0
M  V30 8116 C 751.76 -3.92695 1.92638 0
M  V30 8117 C 750.819 -5.04068 1.51003 0
M  V30 8118 O 749.845 -5.24032 2.22213 0
M  V30 8119 N 751.047 -5.79076 0.406371 0
M  V30 8120 H 753.812 -2.10503 2.13327 0
M  V30 8121 H 751.373 -1.02897 1.24995 0
M  V30 8122 H 753.365 -4.01883 0.476684 0
M  V30 8123 H 751.935 -3.1245 -0.0967 0
M  V30 8124 H 751.155 -3.13563 2.38897 0
M  V30 8125 H 752.443 -4.31337 2.69863 0
M  V30 8126 H 751.841 -5.65393 -0.186302 0
M  V30 8127 H 750.398 -6.51579 0.169846 0
M  V30 8128 N 753.831 -1.1567 -1.07043 0
M  V30 8129 C 754.761 -0.879348 -2.16309 0
M  V30 8130 C 755.742 0.171311 -1.69235 0
M  V30 8131 O 756.927 0.0250175 -1.94184 0
M  V30 8132 C 754.057 -0.371307 -3.45309 0
M  V30 8133 C 753.011 -1.359 -4.05851 0
M  V30 8134 C 752.337 -0.709678 -5.29969 0
M  V30 8135 C 753.637 -2.72606 -4.45514 0
M  V30 8136 H 755.331 -1.79308 -2.39768 0
M  V30 8137 H 752.877 -0.863558 -1.15233 0
M  V30 8138 H 754.83 -0.164798 -4.21078 0
M  V30 8139 H 753.554 0.577906 -3.21446 0
M  V30 8140 H 752.213 -1.55193 -3.32131 0
M  V30 8141 H 751.861 0.245782 -5.02399 0
M  V30 8142 H 751.561 -1.36886 -5.71433 0
M  V30 8143 H 753.085 -0.513015 -6.08441 0
M  V30 8144 H 754.499 -2.57141 -5.12398 0
M  V30 8145 H 752.896 -3.34927 -4.97939 0
M  V30 8146 H 753.966 -3.28434 -3.56734 0
M  V30 8147 N 755.309 1.25446 -0.953992 0
M  V30 8148 C 756.725 1.4539 -0.658316 0
M  V30 8149 C 756.925 1.85607 0.784356 0
M  V30 8150 O 755.981 1.98568 1.55972 0
M  V30 8151 C 757.294 2.52643 -1.6307 0
M  V30 8152 C 758.842 2.66484 -1.64181 0
M  V30 8153 C 759.317 3.76921 -2.60182 0
M  V30 8154 N 760.808 3.84331 -2.58542 0
M  V30 8155 C 761.543 4.69271 -3.29503 0
M  V30 8156 N 761.039 5.58503 -4.09934 0
M  V30 8157 N 762.832 4.6323 -3.18393 0
M  V30 8158 H 754.983 0.976337 -1.8863 0
M  V30 8159 H 757.246 0.490343 -0.811337 0
M  V30 8160 H 756.952 2.29949 -2.66114 0
M  V30 8161 H 756.826 3.50547 -1.39271 0
M  V30 8162 H 759.213 2.88545 -0.618552 0
M  V30 8163 H 759.294 1.68982 -1.92038 0
M  V30 8164 H 758.938 3.55612 -3.62633 0
M  V30 8165 H 758.868 4.73906 -2.29609 0
M  V30 8166 H 761.359 3.20544 -2.0015 0
M  V30 8167 H 761.672 6.20241 -4.61 0
M  V30 8168 H 760.017 5.58214 -4.14032 0
M  V30 8169 H 763.208 3.92527 -2.5503 0
M  V30 8170 H 763.381 5.29204 -3.73961 0
M  V30 8171 N 756.787 0.722489 1.40064 0
M  V30 8172 C 757.697 0.0755984 2.34478 0
M  V30 8173 C 758.713 -0.736046 1.57665 0
M  V30 8174 O 759.889 -0.667407 1.9002 0
M  V30 8175 C 756.954 -0.830075 3.36616 0
M  V30 8176 C 756.015 -0.00759884 4.29299 0
M  V30 8177 C 755.248 -0.870139 5.26559 0
M  V30 8178 O 755.471 -2.10921 5.2997 0
M  V30 8179 O 754.405 -0.305454 6.01124 0
M  V30 8180 H 758.231 0.854545 2.9143 0
M  V30 8181 H 755.816 0.483032 1.41376 0
M  V30 8182 H 757.698 -1.34864 3.99236 0
M  V30 8183 H 756.373 -1.58805 2.82069 0
M  V30 8184 H 755.28 0.556199 3.69942 0
M  V30 8185 H 756.613 0.712312 4.87018 0
M  V30 8186 N 758.265 -1.50454 0.469181 0
M  V30 8187 C 759.514 -2.01507 -0.0881425 0
M  V30 8188 C 759.827 -1.35613 -1.40956 0
M  V30 8189 O 761.033 -1.77812 -2.05171 0
M  V30 8190 C 759.489 -3.59301 -0.207596 0
M  V30 8191 C 759.097 -4.34152 1.10527 0
M  V30 8192 C 760.841 -4.18401 -0.716981 0
M  V30 8193 C 758.748 -5.83725 0.949717 0
M  V30 8194 H 757.678 -0.753106 -0.0367156 0
M  V30 8195 H 760.329 -1.73282 0.603788 0
M  V30 8196 H 758.711 -3.84106 -0.963265 0
M  V30 8197 H 759.885 -4.21073 1.87175 0
M  V30 8198 H 758.2 -3.86652 1.54562 0
M  V30 8199 H 760.797 -5.27895 -0.850363 0
M  V30 8200 H 761.14 -3.79657 -1.70782 0
M  V30 8201 H 761.673 -3.97796 -0.0187511 0
M  V30 8202 H 758.412 -6.26938 1.91387 0
M  V30 8203 H 757.932 -5.99383 0.223591 0
M  V30 8204 H 759.611 -6.44065 0.61557 0
M  V30 8205 N 759.743 -0.201713 -1.56304 0
M  V30 8206 C 760.673 0.71155 -2.22394 0
M  V30 8207 C 761.654 1.21625 -1.18917 0
M  V30 8208 O 762.839 1.26388 -1.47444 0
M  V30 8209 C 759.969 1.92837 -2.88845 0
M  V30 8210 C 758.923 1.55831 -3.98623 0
M  V30 8211 C 758.249 2.85228 -4.52271 0
M  V30 8212 C 759.549 0.763249 -5.16693 0
M  V30 8213 H 761.243 0.160573 -2.98969 0
M  V30 8214 H 758.789 0.0757916 -1.438 0
M  V30 8215 H 760.742 2.57253 -3.33764 0
M  V30 8216 H 759.466 2.50398 -2.09686 0
M  V30 8217 H 758.125 0.9377 -3.54405 0
M  V30 8218 H 757.773 3.40893 -3.69866 0
M  V30 8219 H 757.473 2.6121 -5.26349 0
M  V30 8220 H 758.997 3.50622 -4.99897 0
M  V30 8221 H 760.411 1.31066 -5.58117 0
M  V30 8222 H 758.808 0.620935 -5.96879 0
M  V30 8223 H 759.878 -0.234322 -4.84334 0
M  V30 8224 N 761.222 1.57436 0.0718424 0
M  V30 8225 C 762.132 2.07039 1.10326 0
M  V30 8226 C 763.148 0.999918 1.424 0
M  V30 8227 O 764.324 1.31462 1.52577 0
M  V30 8228 C 761.389 2.50439 2.39752 0
M  V30 8229 C 760.45 3.71784 2.14651 0
M  V30 8230 C 759.683 4.13104 3.37906 0
M  V30 8231 O 759.906 3.54298 4.47023 0
M  V30 8232 O 758.84 5.05894 3.26121 0
M  V30 8233 H 762.666 2.95239 0.711872 0
M  V30 8234 H 760.251 1.46638 0.28597 0
M  V30 8235 H 762.133 2.78876 3.15921 0
M  V30 8236 H 760.808 1.65368 2.78271 0
M  V30 8237 H 759.715 3.48431 1.36187 0
M  V30 8238 H 761.048 4.57707 1.81012 0
M  V30 8239 N 762.7 -0.34323 1.53817 0
M  V30 8240 C 764.116 -0.686355 1.44088 0
M  V30 8241 C 764.316 -1.92426 0.597882 0
M  V30 8242 O 763.372 -2.52343 0.0889918 0
M  V30 8243 C 764.685 -0.878698 2.87575 0
M  V30 8244 C 766.233 -0.977296 2.97352 0
M  V30 8245 C 766.708 -1.20195 4.41947 0
M  V30 8246 N 768.199 -1.26915 4.45474 0
M  V30 8247 C 768.934 -1.46049 5.54488 0
M  V30 8248 N 768.43 -1.62354 6.73508 0
M  V30 8249 N 770.223 -1.48599 5.42102 0
M  V30 8250 H 762.374 0.470679 2.07119 0
M  V30 8251 H 764.637 0.148652 0.936273 0
M  V30 8252 H 764.343 -0.040602 3.51677 0
M  V30 8253 H 764.217 -1.78034 3.32541 0
M  V30 8254 H 766.604 -1.80591 2.3339 0
M  V30 8255 H 766.685 -0.0525498 2.55746 0
M  V30 8256 H 766.329 -0.378262 5.06489 0
M  V30 8257 H 766.259 -2.14027 4.81145 0
M  V30 8258 H 768.75 -1.15837 3.59708 0
M  V30 8259 H 769.063 -1.76591 7.52353 0
M  V30 8260 H 767.408 -1.5949 6.76453 0
M  V30 8261 H 770.599 -1.35443 4.48077 0
M  V30 8262 H 770.772 -1.6317 6.2712 0
M  V30 8263 N 764.178 -1.45556 -0.604258 0
M  V30 8264 C 765.594 -1.30035 -0.925368 0
M  V30 8265 C 765.794 -0.255833 -1.99869 0
M  V30 8266 O 764.85 0.349076 -2.50075 0
M  V30 8267 C 766.163 -2.68028 -1.36314 0
M  V30 8268 C 767.711 -2.75951 -1.47717 0
M  V30 8269 C 768.186 -4.14476 -1.94868 0
M  V30 8270 N 769.677 -4.16787 -2.02097 0
M  V30 8271 C 770.412 -5.20845 -2.39809 0
M  V30 8272 N 769.908 -6.35246 -2.76467 0
M  V30 8273 N 771.701 -5.08204 -2.40177 0
M  V30 8274 H 763.852 -2.1214 0.10512 0
M  V30 8275 H 766.115 -0.947871 -0.0156303 0
M  V30 8276 H 765.821 -3.45667 -0.648628 0
M  V30 8277 H 765.695 -2.96711 -2.329 0
M  V30 8278 H 768.082 -1.98613 -2.18258 0
M  V30 8279 H 768.163 -2.50977 -0.494371 0
M  V30 8280 H 767.807 -4.923 -1.24912 0
M  V30 8281 H 767.737 -4.36843 -2.94068 0
M  V30 8282 H 770.228 -3.34233 -1.76343 0
M  V30 8283 H 770.541 -7.10438 -3.04134 0
M  V30 8284 H 768.886 -6.38642 -2.74155 0
M  V30 8285 H 772.077 -4.17874 -2.10947 0
M  V30 8286 H 772.25 -5.89417 -2.69242 0
M  V30 8287 N 765.656 0.84705 -1.32902 0
M  V30 8288 C 766.904 1.5986 -1.2365 0
M  V30 8289 C 767.225 1.93974 0.199789 0
M  V30 8290 O 766.495 1.60273 1.12648 0
M  V30 8291 H 765.075 0.592696 -0.454665 0
M  V30 8292 H 767.737 1.01278 -1.66519 0
M  V30 8293 H 766.833 2.53218 -1.82448 0
M  V30 8294 N 767.134 1.16236 1.06428 0
M  V30 8295 C 768.359 0.967688 1.83441 0
M  V30 8296 C 768.784 -0.479167 1.81894 0
M  V30 8297 O 768.142 -1.34224 1.21875 0
M  V30 8298 C 768.19 1.49806 3.2801 0
M  V30 8299 O 767.294 0.703481 4.06356 0
M  V30 8300 H 766.635 0.344468 0.56766 0
M  V30 8301 H 769.165 1.54442 1.34197 0
M  V30 8302 H 769.175 1.51495 3.78831 0
M  V30 8303 H 767.85 2.55133 3.2845 0
M  V30 8304 H 766.427 0.756986 3.65136 0
M  V30 8305 N 768.612 -1.24939 0.960631 0
M  V30 8306 C 769.86 -1.92437 0.617441 0
M  V30 8307 C 770.181 -1.75543 -0.849101 0
M  V30 8308 O 769.451 -1.12269 -1.60538 0
M  V30 8309 H 768.031 -0.712192 0.225371 0
M  V30 8310 H 770.693 -1.5198 1.22017 0
M  V30 8311 H 769.789 -3.00247 0.851933 0
M  V30 8312 N 770.09 -0.729906 -1.39679 0
M  V30 8313 C 771 -0.0880322 -2.34435 0
M  V30 8314 C 772.016 0.727674 -1.58053 0
M  V30 8315 O 773.192 0.657321 -1.90371 0
M  V30 8316 C 770.257 0.812211 -3.37052 0
M  V30 8317 C 769.318 -0.0151681 -4.29297 0
M  V30 8318 C 768.551 0.842202 -5.27013 0
M  V30 8319 O 768.774 2.08108 -5.31081 0
M  V30 8320 O 767.708 0.27357 -6.01278 0
M  V30 8321 H 771.534 -0.869989 -2.90972 0
M  V30 8322 H 769.119 -0.490522 -1.41118 0
M  V30 8323 H 771.001 1.32745 -3.99946 0
M  V30 8324 H 769.676 1.57307 -2.82907 0
M  V30 8325 H 768.583 -0.575811 -3.69642 0
M  V30 8326 H 769.916 -0.738129 -4.86634 0
M  V30 8327 N 771.568 1.50203 -0.477153 0
M  V30 8328 C 772.498 2.31517 0.303646 0
M  V30 8329 C 773.479 1.38696 0.984753 0
M  V30 8330 O 774.664 1.67615 0.980758 0
M  V30 8331 C 771.794 3.18598 1.38249 0
M  V30 8332 C 770.748 4.2002 0.822645 0
M  V30 8333 C 770.074 4.95878 2.00024 0
M  V30 8334 C 771.374 5.22023 -0.170185 0
M  V30 8335 H 773.068 2.97042 -0.375027 0
M  V30 8336 H 770.614 1.42848 -0.181802 0
M  V30 8337 H 772.567 3.74282 1.93625 0
M  V30 8338 H 771.291 2.5097 2.09002 0
M  V30 8339 H 769.95 3.65445 0.290813 0
M  V30 8340 H 769.598 4.24717 2.69489 0
M  V30 8341 H 769.298 5.64487 1.63183 0
M  V30 8342 H 770.822 5.54399 2.55878 0
M  V30 8343 H 772.236 5.72543 0.294606 0
M  V30 8344 H 770.633 5.98386 -0.453181 0
M  V30 8345 H 771.703 4.72396 -1.09408 0
M  V30 8346 N 773.046 0.209999 1.56195 0
M  V30 8347 C 774.276 -0.429373 2.02089 0
M  V30 8348 C 774.684 -1.54703 1.0892 0
M  V30 8349 O 774.027 -1.83485 0.0889535 0
M  V30 8350 C 774.089 -1.03266 3.44349 0
M  V30 8351 C 773.753 -0.0518873 4.56971 0
M  V30 8352 C 774.75 0.744249 5.14545 0
M  V30 8353 C 772.435 0.0635185 5.0226 0
M  V30 8354 C 774.429 1.64261 6.15871 0
M  V30 8355 C 772.116 0.965423 6.03426 0
M  V30 8356 C 773.114 1.75352 6.60106 0
M  V30 8357 O 772.802 2.64029 7.59305 0
M  V30 8358 H 772.534 -0.110604 0.66689 0
M  V30 8359 H 775.088 0.320436 2.02885 0
M  V30 8360 H 773.318 -1.83134 3.40586 0
M  V30 8361 H 775.007 -1.57823 3.73961 0
M  V30 8362 H 775.773 0.665476 4.80413 0
M  V30 8363 H 771.652 -0.539762 4.57829 0
M  V30 8364 H 775.196 2.25819 6.60039 0
M  V30 8365 H 771.093 1.04526 6.36981 0
M  V30 8366 H 771.861 2.57974 7.76783 0
M  V30 8367 N 774.524 -1.57472 -0.0634922 0
M  V30 8368 C 775.434 -2.07621 -1.09227 0
M  V30 8369 C 776.45 -1.00746 -1.41867 0
M  V30 8370 O 777.626 -1.32269 -1.51878 0
M  V30 8371 C 774.691 -2.51707 -2.38421 0
M  V30 8372 C 773.752 -3.72917 -2.12676 0
M  V30 8373 C 772.985 -4.14891 -3.3571 0
M  V30 8374 O 773.208 -3.56663 -4.45137 0
M  V30 8375 O 772.142 -5.07616 -3.23434 0
M  V30 8376 H 775.968 -2.95612 -0.696205 0
M  V30 8377 H 773.553 -1.46787 -0.27819 0
M  V30 8378 H 775.435 -2.80547 -3.14438 0
M  V30 8379 H 774.11 -1.66842 -2.77391 0
M  V30 8380 H 773.017 -3.49148 -1.34337 0
M  V30 8381 H 774.35 -4.5866 -1.78583 0
M  V30 8382 N 776.003 0.335068 -1.53997 0
M  V30 8383 C 776.953 1.4127 -1.7896 0
M  V30 8384 C 777.937 1.474 -0.64513 0
M  V30 8385 O 779.129 1.52127 -0.904785 0
M  V30 8386 C 776.258 2.78292 -2.01018 0
M  V30 8387 C 775.344 2.7652 -3.21555 0
M  V30 8388 N 775.735 2.44374 -4.42849 0
M  V30 8389 C 774.033 3.0766 -3.22895 0
M  V30 8390 C 774.734 2.51049 -5.24737 0
M  V30 8391 N 773.71 2.8702 -4.6165 0
M  V30 8392 H 777.512 1.15327 -2.70327 0
M  V30 8393 H 775.026 0.543483 -1.53036 0
M  V30 8394 H 777.023 3.55949 -2.17039 0
M  V30 8395 H 775.683 3.05175 -1.10898 0
M  V30 8396 H 776.694 2.17422 -4.70051 0
M  V30 8397 H 773.371 3.3966 -2.42771 0
M  V30 8398 H 774.761 2.29283 -6.31569 0
M  V30 8399 N 777.481 1.45874 0.596531 0
M  V30 8400 C 778.391 1.57947 1.73464 0
M  V30 8401 C 779.407 0.463461 1.67714 0
M  V30 8402 O 780.583 0.725685 1.87872 0
M  V30 8403 C 777.648 1.55348 3.09948 0
M  V30 8404 C 776.709 2.78074 3.27068 0
M  V30 8405 C 775.942 2.75589 4.57041 0
M  V30 8406 O 776.165 1.83545 5.40063 0
M  V30 8407 O 775.099 3.66945 4.77111 0
M  V30 8408 H 778.925 2.54169 1.66228 0
M  V30 8409 H 776.51 1.2851 0.76194 0
M  V30 8410 H 778.392 1.56545 3.91244 0
M  V30 8411 H 777.067 0.622811 3.17652 0
M  V30 8412 H 775.974 2.82435 2.45319 0
M  V30 8413 H 777.307 3.70303 3.24248 0
M  V30 8414 N 778.959 -0.83999 1.33349 0
M  V30 8415 C 779.906 -1.94972 1.23509 0
M  V30 8416 C 780.876 -1.65709 0.113967 0
M  V30 8417 O 782.061 -1.88552 0.292045 0
M  V30 8418 C 779.201 -3.30919 0.979105 0
M  V30 8419 C 778.314 -3.72587 2.18639 0
M  V30 8420 C 777.449 -4.97397 1.86465 0
M  V30 8421 C 776.488 -5.31597 3.03432 0
M  V30 8422 N 775.625 -6.47584 2.71254 0
M  V30 8423 H 780.465 -2.0272 2.18423 0
M  V30 8424 H 778.002 -0.992017 1.08616 0
M  V30 8425 H 779.96 -4.09239 0.811126 0
M  V30 8426 H 778.59 -3.22731 0.0667099 0
M  V30 8427 H 777.642 -2.89799 2.46416 0
M  V30 8428 H 778.954 -3.93844 3.06086 0
M  V30 8429 H 778.108 -5.83462 1.66305 0
M  V30 8430 H 776.847 -4.78107 0.96254 0
M  V30 8431 H 775.852 -4.44037 3.24208 0
M  V30 8432 H 777.077 -5.52836 3.94397 0
M  V30 8433 H 775.023 -6.29783 1.836 0
M  V30 8434 H 774.94 -6.68931 3.52231 0
M  V30 8435 H 776.208 -7.36764 2.54558 0
M  V30 8436 N 780.437 -1.16799 -1.0581 0
M  V30 8437 C 781.714 -0.862616 -1.75551 0
M  V30 8438 C 782.094 0.6385 -2.01212 0
M  V30 8439 O 781.442 1.58784 -1.64317 0
M  V30 8440 C 781.652 -1.6907 -3.05314 0
M  V30 8441 C 783 -1.90675 -3.79379 0
M  V30 8442 O 784.024 -1.65976 -3.15167 0
M  V30 8443 O 782.883 -2.32145 -4.94743 0
M  V30 8444 H 779.977 -0.318789 -0.763088 0
M  V30 8445 H 782.523 -1.27461 -1.12034 0
M  V30 8446 H 781.295 -2.70912 -2.82352 0
M  V30 8447 H 780.918 -1.27606 -3.76567 0
M  V30 8448 N 781.915 1.24427 -0.967243 0
M  V30 8449 C 782.845 2.2773 -0.515899 0
M  V30 8450 C 783.826 1.64197 0.444227 0
M  V30 8451 O 785.011 1.91193 0.340451 0
M  V30 8452 C 782.141 3.46751 0.195149 0
M  V30 8453 C 781.095 4.22548 -0.680953 0
M  V30 8454 C 780.421 5.34456 0.161561 0
M  V30 8455 C 781.721 4.83914 -1.96532 0
M  V30 8456 H 783.415 2.65735 -1.37933 0
M  V30 8457 H 780.961 1.27742 -0.664681 0
M  V30 8458 H 782.914 4.18153 0.522117 0
M  V30 8459 H 781.638 3.07771 1.09292 0
M  V30 8460 H 780.297 3.52946 -0.991186 0
M  V30 8461 H 779.945 4.91716 1.05947 0
M  V30 8462 H 779.645 5.86087 -0.421418 0
M  V30 8463 H 781.169 6.08685 0.483211 0
M  V30 8464 H 782.583 5.47392 -1.70396 0
M  V30 8465 H 780.98 5.45775 -2.49499 0
M  V30 8466 H 782.05 4.05393 -2.66053 0
M  V30 8467 N 783.393 0.737304 1.3929 0
M  V30 8468 C 784.639 0.286681 2.00763 0
M  V30 8469 C 784.972 -1.12388 1.58375 0
M  V30 8470 O 784.247 -1.76661 0.813699 0
M  V30 8471 C 784.53 0.391147 3.57969 0
M  V30 8472 C 784.383 1.84165 4.1037 0
M  V30 8473 C 785.702 -0.225072 4.39524 0
M  V30 8474 H 782.821 0.105642 0.729389 0
M  V30 8475 H 785.463 0.933892 1.65464 0
M  V30 8476 H 783.613 -0.159875 3.88171 0
M  V30 8477 H 785.285 2.44972 3.90879 0
M  V30 8478 H 783.528 2.3622 3.63844 0
M  V30 8479 H 784.199 1.866 5.19504 0
M  V30 8480 H 786.675 0.244677 4.1538 0
M  V30 8481 H 785.551 -0.121646 5.48765 0
M  V30 8482 H 785.812 -1.31141 4.22202 0
M  V30 8483 N 784.871 -1.49948 0.485112 0
M  V30 8484 C 786.117 -2.0332 -0.0571625 0
M  V30 8485 C 786.472 -1.35951 -1.36144 0
M  V30 8486 O 785.765 -0.480871 -1.85467 0
M  V30 8487 C 785.959 -3.56282 -0.282434 0
M  V30 8488 C 785.788 -4.38476 0.998455 0
M  V30 8489 C 784.558 -4.81076 1.54576 0
M  V30 8490 C 786.756 -4.78013 1.89758 0
M  V30 8491 N 784.738 -5.47641 2.77421 0
M  V30 8492 C 786.109 -5.44133 2.97186 0
M  V30 8493 C 788.164 -4.59963 1.90627 0
M  V30 8494 C 786.867 -5.94113 4.0549 0
M  V30 8495 C 788.893 -5.10893 2.97897 0
M  V30 8496 C 788.255 -5.77 4.04043 0
M  V30 8497 H 784.354 -0.781758 0.0194642 0
M  V30 8498 H 786.938 -1.833 0.65644 0
M  V30 8499 H 785.109 -3.76219 -0.965083 0
M  V30 8500 H 786.841 -3.96299 -0.820298 0
M  V30 8501 H 783.596 -4.60814 1.09304 0
M  V30 8502 H 784.02 -5.85521 3.39844 0
M  V30 8503 H 788.662 -4.08274 1.09875 0
M  V30 8504 H 786.38 -6.44832 4.8705 0
M  V30 8505 H 789.966 -4.98748 2.9957 0
M  V30 8506 H 788.846 -6.15698 4.85681 0
M  V30 8507 N 786.349 -0.21828 -1.56081 0
M  V30 8508 C 787.296 0.693189 -2.20144 0
M  V30 8509 C 788.266 1.19274 -1.15598 0
M  V30 8510 O 789.451 1.25243 -1.4394 0
M  V30 8511 C 786.591 1.89715 -2.88275 0
M  V30 8512 C 785.704 1.4368 -4.07407 0
M  V30 8513 C 784.839 2.59807 -4.63329 0
M  V30 8514 C 783.878 2.10492 -5.74769 0
M  V30 8515 N 783.015 3.1988 -6.24997 0
M  V30 8516 H 787.855 0.14016 -2.9767 0
M  V30 8517 H 785.392 0.0574292 -1.46988 0
M  V30 8518 H 787.35 2.60398 -3.25958 0
M  V30 8519 H 785.98 2.42311 -2.13273 0
M  V30 8520 H 785.032 0.625007 -3.7523 0
M  V30 8521 H 786.344 1.03517 -4.8794 0
M  V30 8522 H 785.498 3.38577 -5.03438 0
M  V30 8523 H 784.237 3.03256 -3.81951 0
M  V30 8524 H 783.242 1.30182 -5.34165 0
M  V30 8525 H 784.467 1.68045 -6.5798 0
M  V30 8526 H 782.413 3.62817 -5.46534 0
M  V30 8527 H 782.33 2.83958 -7.00645 0
M  V30 8528 H 783.598 3.98796 -6.69763 0
M  V30 8529 N 787.827 1.57504 0.0551401 0
M  V30 8530 C 788.757 2.07864 1.06372 0
M  V30 8531 C 789.738 0.975565 1.39344 0
M  V30 8532 O 790.923 1.24929 1.48682 0
M  V30 8533 C 788.053 2.53643 2.3724 0
M  V30 8534 C 787.007 3.67978 2.18578 0
M  V30 8535 C 786.333 3.9987 3.54976 0
M  V30 8536 C 787.633 4.97405 1.59329 0
M  V30 8537 H 789.327 2.92379 0.644595 0
M  V30 8538 H 786.873 1.40654 0.308619 0
M  V30 8539 H 788.826 2.8749 3.08103 0
M  V30 8540 H 787.55 1.66177 2.81163 0
M  V30 8541 H 786.209 3.3444 1.50152 0
M  V30 8542 H 785.857 3.0951 3.965 0
M  V30 8543 H 785.557 4.76867 3.43324 0
M  V30 8544 H 787.081 4.36228 4.27244 0
M  V30 8545 H 788.495 5.29375 2.20078 0
M  V30 8546 H 786.892 5.78837 1.58327 0
M  V30 8547 H 787.962 4.81697 0.55638 0
M  V30 8548 N 789.305 -0.326896 1.54172 0
M  V30 8549 C 790.721 -0.671034 1.44808 0
M  V30 8550 C 790.921 -1.91781 0.618258 0
M  V30 8551 O 789.977 -2.52235 0.115751 0
M  V30 8552 C 791.29 -0.848147 2.88491 0
M  V30 8553 C 792.838 -0.945702 2.98371 0
M  V30 8554 C 793.313 -1.15501 4.43197 0
M  V30 8555 N 794.804 -1.22183 4.46795 0
M  V30 8556 C 795.539 -1.4016 5.56006 0
M  V30 8557 N 795.035 -1.55202 6.75192 0
M  V30 8558 N 796.828 -1.42841 5.43648 0
M  V30 8559 H 788.979 0.49262 2.06608 0
M  V30 8560 H 791.242 0.158574 0.934643 0
M  V30 8561 H 790.948 -0.00329969 3.517 0
M  V30 8562 H 790.822 -1.74497 3.34411 0
M  V30 8563 H 793.209 -1.78106 2.35292 0
M  V30 8564 H 793.29 -0.0254215 2.55787 0
M  V30 8565 H 792.934 -0.324521 5.06862 0
M  V30 8566 H 792.864 -2.08911 4.83388 0
M  V30 8567 H 795.355 -1.12016 3.60917 0
M  V30 8568 H 795.668 -1.68601 7.54184 0
M  V30 8569 H 794.013 -1.52306 6.78106 0
M  V30 8570 H 797.204 -1.30683 4.49488 0
M  V30 8571 H 797.377 -1.56509 6.28816 0
M  V30 8572 N 790.784 -1.46188 -0.588786 0
M  V30 8573 C 791.734 -1.5271 -1.69303 0
M  V30 8574 C 792.718 -0.388578 -1.56137 0
M  V30 8575 O 793.91 -0.636616 -1.65155 0
M  V30 8576 C 791.039 -1.51457 -3.08084 0
M  V30 8577 C 790.125 -2.70581 -3.26568 0
M  V30 8578 N 790.516 -3.9555 -3.15236 0
M  V30 8579 C 788.814 -2.66676 -3.57491 0
M  V30 8580 C 789.515 -4.75157 -3.35561 0
M  V30 8581 N 788.491 -4.06927 -3.60432 0
M  V30 8582 H 792.293 -2.47136 -1.59063 0
M  V30 8583 H 789.807 -1.41743 -0.792632 0
M  V30 8584 H 791.804 -1.54216 -3.87328 0
M  V30 8585 H 790.464 -0.581036 -3.19459 0
M  V30 8586 H 791.475 -4.2689 -2.93232 0
M  V30 8587 H 788.152 -1.82317 -3.75588 0
M  V30 8588 H 789.542 -5.84126 -3.32034 0
M  V30 8589 N 792.262 0.832906 -1.33792 0
M  V30 8590 C 793.172 1.97514 -1.26592 0
M  V30 8591 C 794.188 1.73114 -0.175391 0
M  V30 8592 O 795.364 1.97387 -0.400062 0
M  V30 8593 C 792.429 3.31625 -1.01121 0
M  V30 8594 C 791.49 3.69101 -2.19233 0
M  V30 8595 C 790.723 4.96813 -1.94968 0
M  V30 8596 O 790.946 5.63208 -0.902955 0
M  V30 8597 O 789.88 5.31932 -2.8166 0
M  V30 8598 H 793.706 2.0653 -2.22664 0
M  V30 8599 H 791.291 0.966826 -1.13898 0
M  V30 8600 H 793.173 4.11968 -0.886571 0
M  V30 8601 H 791.848 3.23599 -0.080822 0
M  V30 8602 H 790.755 2.89243 -2.37253 0
M  V30 8603 H 792.088 3.818 -3.10628 0
M  V30 8604 N 793.74 1.17359 1.05189 0
M  V30 8605 C 794.986 0.963413 1.78455 0
M  V30 8606 C 795.319 -0.506703 1.87473 0
M  V30 8607 O 794.594 -1.37611 1.37453 0
M  V30 8608 C 794.877 1.60519 3.22344 0
M  V30 8609 C 794.73 3.14741 3.21338 0
M  V30 8610 C 796.049 1.3091 4.20179 0
M  V30 8611 H 793.168 0.351412 0.647826 0
M  V30 8612 H 795.81 1.44858 1.22948 0
M  V30 8613 H 793.96 1.19265 3.69741 0
M  V30 8614 H 795.632 3.65053 2.82017 0
M  V30 8615 H 793.875 3.4749 2.59679 0
M  V30 8616 H 794.546 3.54775 4.22894 0
M  V30 8617 H 797.022 1.66635 3.81277 0
M  V30 8618 H 795.898 1.784 5.191 0
M  V30 8619 H 796.159 0.229908 4.41502 0
M  V30 8620 N 795.218 -1.23913 0.973828 0
M  V30 8621 C 796.15 -2.24397 0.466763 0
M  V30 8622 C 797.163 -1.57078 -0.427828 0
M  V30 8623 O 798.352 -1.76973 -0.233019 0
M  V30 8624 C 795.452 -3.37141 -0.344798 0
M  V30 8625 C 794.625 -4.34037 0.541349 0
M  V30 8626 C 793.684 -5.2576 -0.215243 0
M  V30 8627 O 792.71 -5.67842 0.39291 0
M  V30 8628 N 793.912 -5.60702 -1.5031 0
M  V30 8629 H 796.677 -2.68536 1.33074 0
M  V30 8630 H 794.238 -1.38017 0.846346 0
M  V30 8631 H 796.23 -3.95476 -0.859133 0
M  V30 8632 H 794.8 -2.92239 -1.10974 0
M  V30 8633 H 794.02 -3.74302 1.23659 0
M  V30 8634 H 795.308 -4.95738 1.1455 0
M  V30 8635 H 794.706 -5.28451 -2.01882 0
M  V30 8636 H 793.263 -6.21538 -1.96301 0
M  V30 8637 N 796.696 -0.74468 -1.38897 0
M  V30 8638 C 797.606 -0.112892 -2.34328 0
M  V30 8639 C 798.622 0.71087 -1.58816 0
M  V30 8640 O 799.798 0.637092 -1.91058 0
M  V30 8641 C 796.863 0.776417 -3.37894 0
M  V30 8642 C 795.924 -0.0606999 -4.29257 0
M  V30 8643 C 795.157 0.786258 -5.27877 0
M  V30 8644 O 795.38 2.02463 -5.33259 0
M  V30 8645 O 794.314 0.209781 -6.01534 0
M  V30 8646 H 798.14 -0.900801 -2.90033 0
M  V30 8647 H 795.725 -0.505462 -1.4059 0
M  V30 8648 H 797.607 1.28496 -4.01331 0
M  V30 8649 H 796.282 1.54297 -2.84559 0
M  V30 8650 H 795.189 -0.614984 -3.69011 0
M  V30 8651 H 796.522 -0.789702 -4.85824 0
M  V30 8652 N 798.174 1.49689 -0.493057 0
M  V30 8653 C 799.124 2.25901 0.308682 0
M  V30 8654 C 800.108 1.30408 0.94247 0
M  V30 8655 O 801.3 1.55179 0.851384 0
M  V30 8656 C 798.429 3.14463 1.37725 0
M  V30 8657 C 797.515 4.17414 0.7501 0
M  V30 8658 N 797.906 5.05599 -0.142597 0
M  V30 8659 C 796.204 4.34377 1.01159 0
M  V30 8660 C 796.905 5.7954 -0.500782 0
M  V30 8661 N 795.881 5.43446 0.129386 0
M  V30 8662 H 799.683 2.91451 -0.378652 0
M  V30 8663 H 797.197 1.59441 -0.308614 0
M  V30 8664 H 799.194 3.67687 1.965 0
M  V30 8665 H 797.854 2.50464 2.06635 0
M  V30 8666 H 798.865 5.15354 -0.512894 0
M  V30 8667 H 795.542 3.81588 1.69402 0
M  V30 8668 H 796.932 6.60534 -1.23063 0
M  V30 8669 N 799.652 0.226554 1.55963 0
M  V30 8670 C 800.899 -0.403789 1.98433 0
M  V30 8671 C 801.227 -1.59416 1.1143 0
M  V30 8672 O 800.482 -1.95042 0.160389 0
M  V30 8673 C 800.781 -0.87642 3.46488 0
M  V30 8674 C 800.447 0.203973 4.50438 0
M  V30 8675 C 799.109 0.500754 4.78587 0
M  V30 8676 C 801.461 0.934396 5.12756 0
M  V30 8677 C 798.789 1.53239 5.66334 0
M  V30 8678 C 801.141 1.9554 6.0162 0
M  V30 8679 C 799.805 2.25905 6.28111 0
M  V30 8680 H 799.075 -0.147757 0.726119 0
M  V30 8681 H 801.722 0.330121 1.88633 0
M  V30 8682 H 800.027 -1.68918 3.53517 0
M  V30 8683 H 801.724 -1.37407 3.76723 0
M  V30 8684 H 798.314 -0.0374917 4.28584 0
M  V30 8685 H 802.498 0.718355 4.91074 0
M  V30 8686 H 797.754 1.77321 5.85122 0
M  V30 8687 H 801.928 2.52642 6.48957 0
M  V30 8688 H 799.555 3.05985 6.959 0
M  V30 8689 N 801.13 -1.57531 -0.0467866 0
M  V30 8690 C 802.541 -1.76945 -0.595603 0
M  V30 8691 C 802.892 -0.855354 -1.76573 0
M  V30 8692 O 802.017 -0.045668 -2.16352 0
M  V30 8693 C 802.612 -3.20881 -1.08725 0
M  V30 8694 C 801.171 -3.41553 -1.58172 0
M  V30 8695 C 800.318 -2.72533 -0.511968 0
M  V30 8696 H 803.269 -1.57682 0.179436 0
M  V30 8697 H 803.29 -3.26419 -1.95528 0
M  V30 8698 H 802.802 -3.87385 -0.235398 0
M  V30 8699 H 800.903 -2.80199 -2.456 0
M  V30 8700 H 801.016 -4.50104 -1.64143 0
M  V30 8701 H 799.38 -2.35797 -0.962899 0
M  V30 8702 H 800.163 -3.41709 0.330117 0
M  V30 8703 N 802.608 0.318715 -1.54344 0
M  V30 8704 C 803.518 1.41535 -1.87097 0
M  V30 8705 C 804.534 1.56361 -0.763353 0
M  V30 8706 O 805.71 1.71365 -1.05811 0
M  V30 8707 C 802.775 2.76178 -2.09587 0
M  V30 8708 C 801.836 2.70486 -3.3337 0
M  V30 8709 C 801.069 3.98708 -3.54778 0
M  V30 8710 O 801.292 4.9721 -2.79532 0
M  V30 8711 O 800.226 4.01674 -4.48266 0
M  V30 8712 H 804.052 1.16764 -2.80357 0
M  V30 8713 H 801.637 0.51318 -1.4031 0
M  V30 8714 H 803.519 3.55873 -2.25682 0
M  V30 8715 H 802.194 3.00829 -1.19514 0
M  V30 8716 H 801.101 1.89325 -3.22656 0
M  V30 8717 H 802.434 2.50789 -4.23516 0
M  V30 8718 N 804.086 1.46499 0.581025 0
M  V30 8719 C 805.049 1.5677 1.672 0
M  V30 8720 C 806.049 0.444716 1.54528 0
M  V30 8721 O 807.239 0.709074 1.59116 0
M  V30 8722 C 804.371 1.4896 3.06633 0
M  V30 8723 H 805.564 2.54 1.5945 0
M  V30 8724 H 803.117 1.34334 0.799003 0
M  V30 8725 H 803.852 0.530168 3.19937 0
M  V30 8726 H 803.637 2.30439 3.17239 0
M  V30 8727 H 805.127 1.59237 3.86048 0
M  V30 8728 N 805.565 -0.825799 1.34232 0
M  V30 8729 C 806.495 -1.95151 1.28212 0
M  V30 8730 C 807.476 -1.69345 0.160123 0
M  V30 8731 O 808.661 -1.90983 0.352019 0
M  V30 8732 C 805.791 -3.31554 1.03388 0
M  V30 8733 C 804.745 -3.71793 2.12023 0
M  V30 8734 C 804.071 -5.06147 1.72392 0
M  V30 8735 C 805.371 -3.84193 3.53826 0
M  V30 8736 H 807.065 -2.00445 2.22401 0
M  V30 8737 H 804.611 -0.962996 1.07063 0
M  V30 8738 H 806.564 -4.09889 0.978225 0
M  V30 8739 H 805.288 -3.26551 0.0564142 0
M  V30 8740 H 803.947 -2.95731 2.16654 0
M  V30 8741 H 803.595 -4.97628 0.733137 0
M  V30 8742 H 803.295 -5.34041 2.451 0
M  V30 8743 H 804.819 -5.86943 1.68317 0
M  V30 8744 H 806.233 -4.52806 3.51624 0
M  V30 8745 H 804.63 -4.23538 4.2513 0
M  V30 8746 H 805.7 -2.86272 3.91377 0
M  V30 8747 N 807.043 -1.17915 -1.04565 0
M  V30 8748 C 808.006 -0.903787 -2.10628 0
M  V30 8749 C 809.006 0.10873 -1.60432 0
M  V30 8750 O 810.196 -0.124152 -1.73757 0
M  V30 8751 C 807.328 -0.355017 -3.39046 0
M  V30 8752 H 808.521 -1.84425 -2.3649 0
M  V30 8753 H 806.074 -0.990477 -1.2091 0
M  V30 8754 H 806.809 0.592297 -3.18845 0
M  V30 8755 H 806.594 -1.08484 -3.76794 0
M  V30 8756 H 808.084 -0.180891 -4.17208 0
M  V30 8757 N 808.521 1.23394 -0.980386 0
M  V30 8758 C 809.937 1.43961 -0.689008 0
M  V30 8759 C 810.137 1.87229 0.744809 0
M  V30 8760 O 809.193 2.01831 1.51725 0
M  V30 8761 C 810.506 2.49128 -1.68392 0
M  V30 8762 C 812.054 2.62941 -1.69796 0
M  V30 8763 C 812.529 3.71317 -2.68118 0
M  V30 8764 N 814.02 3.7876 -2.66636 0
M  V30 8765 C 814.755 4.62176 -3.39383 0
M  V30 8766 N 814.251 5.49682 -4.21688 0
M  V30 8767 N 816.044 4.56372 -3.28147 0
M  V30 8768 H 808.195 0.936106 -1.90659 0
M  V30 8769 H 810.458 0.473023 -0.821555 0
M  V30 8770 H 810.164 2.24252 -2.70931 0
M  V30 8771 H 810.038 3.47514 -1.46675 0
M  V30 8772 H 812.425 2.87168 -0.679617 0
M  V30 8773 H 812.506 1.64871 -1.95579 0
M  V30 8774 H 812.15 3.4784 -3.70095 0
M  V30 8775 H 812.08 4.68929 -2.3961 0
M  V30 8776 H 814.571 3.16226 -2.06904 0
M  V30 8777 H 814.884 6.10323 -4.74053 0
M  V30 8778 H 813.229 5.49306 -4.25779 0
M  V30 8779 H 816.42 3.87029 -2.63299 0
M  V30 8780 H 816.593 5.21153 -3.85102 0
M  V30 8781 N 809.999 0.752036 1.385 0
M  V30 8782 C 810.929 0.138718 2.33088 0
M  V30 8783 C 811.91 -0.705318 1.54788 0
M  V30 8784 O 813.095 -0.646821 1.83112 0
M  V30 8785 C 810.225 -0.75641 3.38963 0
M  V30 8786 C 809.179 -0.0152239 4.27997 0
M  V30 8787 C 808.505 -1.0285 5.24715 0
M  V30 8788 C 809.805 1.15226 5.09431 0
M  V30 8789 H 811.499 0.928852 2.84627 0
M  V30 8790 H 809.045 0.448111 1.3685 0
M  V30 8791 H 810.998 -1.19513 4.04097 0
M  V30 8792 H 809.722 -1.57885 2.85902 0
M  V30 8793 H 808.381 0.404061 3.64366 0
M  V30 8794 H 808.029 -1.84496 4.67943 0
M  V30 8795 H 807.729 -0.537238 5.85139 0
M  V30 8796 H 809.253 -1.46657 5.92726 0
M  V30 8797 H 810.667 0.791161 5.67815 0
M  V30 8798 H 809.064 1.57428 5.79082 0
M  V30 8799 H 810.134 1.9659 4.43261 0
M  V30 8800 N 811.477 -1.49425 0.500989 0
M  V30 8801 C 812.407 -2.31971 -0.266775 0
M  V30 8802 C 813.388 -1.40245 -0.962563 0
M  V30 8803 O 814.573 -1.69154 -0.953968 0
M  V30 8804 C 811.703 -3.20757 -1.33163 0
M  V30 8805 C 810.657 -4.21275 -0.75572 0
M  V30 8806 C 809.983 -4.98997 -1.92109 0
M  V30 8807 C 811.283 -5.21686 0.253213 0
M  V30 8808 H 812.977 -2.96408 0.422237 0
M  V30 8809 H 810.523 -1.4254 0.204505 0
M  V30 8810 H 812.476 -3.77315 -1.87646 0
M  V30 8811 H 811.2 -2.54263 -2.04983 0
M  V30 8812 H 809.859 -3.65861 -0.232637 0
M  V30 8813 H 809.507 -4.28951 -2.62698 0
M  V30 8814 H 809.207 -5.67011 -1.54182 0
M  V30 8815 H 810.731 -5.584 -2.47026 0
M  V30 8816 H 812.145 -5.72939 -0.203483 0
M  V30 8817 H 810.542 -5.9759 0.548322 0
M  V30 8818 H 811.612 -4.70596 1.16909 0
M  V30 8819 N 812.955 -0.234822 -1.55841 0
M  V30 8820 C 813.885 0.664217 -2.23854 0
M  V30 8821 C 814.866 1.19076 -1.2147 0
M  V30 8822 O 816.051 1.23232 -1.50091 0
M  V30 8823 C 813.181 1.86666 -2.9287 0
M  V30 8824 C 812.135 1.47341 -4.01839 0
M  V30 8825 C 811.461 2.75571 -4.58219 0
M  V30 8826 C 812.761 0.653479 -5.18196 0
M  V30 8827 H 814.455 0.0971213 -2.99242 0
M  V30 8828 H 812.001 0.0452724 -1.43929 0
M  V30 8829 H 813.954 2.50116 -3.39146 0
M  V30 8830 H 812.678 2.45894 -2.1495 0
M  V30 8831 H 811.337 0.862314 -3.56314 0
M  V30 8832 H 810.985 3.32971 -3.77014 0
M  V30 8833 H 810.685 2.49987 -5.31771 0
M  V30 8834 H 812.209 3.39939 -5.07221 0
M  V30 8835 H 813.623 1.19198 -5.60771 0
M  V30 8836 H 812.02 0.494188 -5.98062 0
M  V30 8837 H 813.09 -0.337004 -4.83728 0
M  V30 8838 N 814.433 1.57553 0.0384317 0
M  V30 8839 C 815.679 1.89121 0.732199 0
M  V30 8840 C 816.012 0.831404 1.75503 0
M  V30 8841 O 815.287 -0.154642 1.93884 0
M  V30 8842 C 815.57 3.31338 1.41021 0
M  V30 8843 C 815.423 4.48004 0.401532 0
M  V30 8844 C 816.742 3.72318 2.34665 0
M  V30 8845 H 813.861 0.687819 0.264715 0
M  V30 8846 H 816.503 1.89999 -0.00496279 0
M  V30 8847 H 814.653 3.3072 2.03854 0
M  V30 8848 H 816.325 4.60755 -0.224159 0
M  V30 8849 H 814.568 4.32895 -0.280092 0
M  V30 8850 H 815.239 5.44377 0.91423 0
M  V30 8851 H 817.715 3.74243 1.81883 0
M  V30 8852 H 816.591 4.72652 2.7909 0
M  V30 8853 H 816.852 3.04062 3.20934 0
M  V30 8854 N 815.911 -0.310526 1.54511 0
M  V30 8855 C 817.139 -1.06611 1.77318 0
M  V30 8856 C 817.554 -1.81265 0.528043 0
M  V30 8857 O 816.911 -1.75466 -0.50178 0
M  V30 8858 C 816.962 -2.05409 2.97472 0
M  V30 8859 O 816.683 -1.33785 4.17173 0
M  V30 8860 C 818.184 -2.93082 3.32593 0
M  V30 8861 H 815.404 -0.316578 0.591624 0
M  V30 8862 H 817.948 -0.352691 2.01436 0
M  V30 8863 H 816.103 -2.72266 2.7559 0
M  V30 8864 H 816.517 -2.00055 4.84849 0
M  V30 8865 H 817.991 -3.58274 4.19933 0
M  V30 8866 H 818.468 -3.60877 2.50329 0
M  V30 8867 H 819.074 -2.31768 3.566 0
M  V30 8868 N 817.389 -1.46805 -0.573248 0
M  V30 8869 C 818.336 -1.58084 -1.68161 0
M  V30 8870 C 819.306 -0.424636 -1.6058 0
M  V30 8871 O 820.491 -0.642623 -1.79652 0
M  V30 8872 C 817.631 -1.58601 -3.06496 0
M  V30 8873 C 816.744 -2.85023 -3.24632 0
M  V30 8874 C 815.879 -2.76981 -4.53271 0
M  V30 8875 C 814.918 -3.983 -4.64783 0
M  V30 8876 N 814.055 -3.88589 -5.84759 0
M  V30 8877 H 818.895 -2.52755 -1.57858 0
M  V30 8878 H 816.432 -1.25385 -0.769218 0
M  V30 8879 H 818.39 -1.56885 -3.86579 0
M  V30 8880 H 817.02 -0.674553 -3.15673 0
M  V30 8881 H 816.072 -2.96678 -2.38089 0
M  V30 8882 H 817.384 -3.7491 -3.29004 0
M  V30 8883 H 816.538 -2.73424 -5.41594 0
M  V30 8884 H 815.277 -1.84751 -4.51352 0
M  V30 8885 H 814.282 -4.02179 -3.74876 0
M  V30 8886 H 815.507 -4.91639 -4.68474 0
M  V30 8887 H 813.453 -2.99151 -5.83819 0
M  V30 8888 H 813.37 -4.7214 -5.90441 0
M  V30 8889 H 814.638 -3.89022 -6.75486 0
M  V30 8890 N 818.867 0.818669 -1.34668 0
M  V30 8891 C 820.113 1.577 -1.28461 0
M  V30 8892 C 820.468 1.91867 0.143057 0
M  V30 8893 O 819.761 1.57545 1.09041 0
M  V30 8894 C 819.955 2.88245 -2.11304 0
M  V30 8895 C 819.784 2.66831 -3.61982 0
M  V30 8896 C 818.554 2.63346 -4.3125 0
M  V30 8897 C 820.752 2.38049 -4.55892 0
M  V30 8898 N 818.734 2.33522 -5.67751 0
M  V30 8899 C 820.105 2.17957 -5.80426 0
M  V30 8900 C 822.16 2.23812 -4.44761 0
M  V30 8901 C 820.863 1.8507 -6.95084 0
M  V30 8902 C 822.889 1.92321 -5.59255 0
M  V30 8903 C 822.251 1.73056 -6.82811 0
M  V30 8904 H 818.35 0.579284 -0.525314 0
M  V30 8905 H 820.934 0.959336 -1.69425 0
M  V30 8906 H 819.105 3.47927 -1.7263 0
M  V30 8907 H 820.837 3.53677 -1.96709 0
M  V30 8908 H 817.592 2.7757 -3.83734 0
M  V30 8909 H 818.016 2.21438 -6.39761 0
M  V30 8910 H 822.658 2.3741 -3.49852 0
M  V30 8911 H 820.376 1.7021 -7.89971 0
M  V30 8912 H 823.962 1.82031 -5.5259 0
M  V30 8913 H 822.842 1.49042 -7.69907 0
M  V30 8914 N 820.346 1.18468 1.03938 0
M  V30 8915 C 821.294 0.909286 2.14091 0
M  V30 8916 C 822.288 -0.130928 1.68893 0
M  V30 8917 O 823.494 0.0173403 1.79992 0
M  V30 8918 H 819.869 0.27658 0.699291 0
M  V30 8919 H 821.84 1.84514 2.34515 0
M  V30 8920 C 820.589 0.452922 3.44737 0
M  V30 8921 H 819.912 1.24485 3.79926 0
M  V30 8922 H 821.352 0.299238 4.22943 0
M  V30 8923 C 819.811 -0.831435 3.26479 0
M  V30 8924 O 820.341 -1.89535 3.54174 0
M  V30 8925 N 818.547 -0.784545 2.79809 0
M  V30 8926 H 818.094 0.0814746 2.57471 0
M  V30 8927 H 818.052 -1.64431 2.67973 0
M  V30 8928 N 821.824 -1.22873 0.986916 0
M  V30 8929 C 822.771 -2.2458 0.532215 0
M  V30 8930 C 823.741 -1.60375 -0.432322 0
M  V30 8931 O 824.926 -1.87775 -0.338416 0
M  V30 8932 C 822.066 -3.44761 -0.152864 0
M  V30 8933 C 821.179 -4.23501 0.852704 0
M  V30 8934 C 820.314 -5.31011 0.14176 0
M  V30 8935 C 819.353 -6.01464 1.1361 0
M  V30 8936 N 818.49 -7.00631 0.453871 0
M  V30 8937 H 823.33 -2.62838 1.40428 0
M  V30 8938 H 820.867 -1.29185 0.703543 0
M  V30 8939 H 822.825 -4.1333 -0.566926 0
M  V30 8940 H 821.455 -3.07284 -0.988756 0
M  V30 8941 H 820.507 -3.54286 1.38512 0
M  V30 8942 H 821.819 -4.72097 1.61014 0
M  V30 8943 H 820.973 -6.05805 -0.329337 0
M  V30 8944 H 819.712 -4.83373 -0.648229 0
M  V30 8945 H 818.717 -5.25456 1.61789 0
M  V30 8946 H 819.942 -6.5119 1.92686 0
M  V30 8947 H 817.888 -6.55235 -0.316791 0
M  V30 8948 H 817.805 -7.47204 1.14986 0
M  V30 8949 H 819.073 -7.795 0.00537823 0
M  V30 8950 N 823.302 -0.75937 -1.38099 0
M  V30 8951 C 824.252 -0.111098 -2.27729 0
M  V30 8952 C 825.236 0.687161 -1.45489 0
M  V30 8953 O 826.428 0.552167 -1.68167 0
M  V30 8954 C 823.557 0.776809 -3.34396 0
M  V30 8955 C 822.643 -0.0286108 -4.2409 0
M  V30 8956 N 823.034 -1.06797 -4.94397 0
M  V30 8957 C 821.332 0.197307 -4.45563 0
M  V30 8958 C 822.033 -1.55576 -5.6051 0
M  V30 8959 N 821.009 -0.870059 -5.36592 0
M  V30 8960 H 824.811 -0.907047 -2.79553 0
M  V30 8961 H 822.325 -0.595954 -1.5107 0
M  V30 8962 H 824.322 1.25691 -3.97502 0
M  V30 8963 H 822.982 1.57164 -2.84129 0
M  V30 8964 H 823.993 -1.44988 -4.97191 0
M  V30 8965 H 820.67 0.965028 -4.06194 0
M  V30 8966 H 822.06 -2.42184 -6.26735 0
M  V30 8967 N 824.78 1.49157 -0.508906 0
M  V30 8968 C 825.69 2.33045 0.269656 0
M  V30 8969 C 826.706 1.45143 0.959662 0
M  V30 8970 O 827.882 1.78155 0.939295 0
M  V30 8971 C 824.947 3.20772 1.31554 0
M  V30 8972 C 824.008 4.24531 0.638131 0
M  V30 8973 C 823.241 5.08065 1.63418 0
M  V30 8974 O 823.464 4.93238 2.86483 0
M  V30 8975 O 822.398 5.90117 1.18516 0
M  V30 8976 H 826.224 3.00821 -0.417183 0
M  V30 8977 H 823.809 1.46938 -0.270119 0
M  V30 8978 H 825.691 3.75095 1.92047 0
M  V30 8979 H 824.366 2.55681 1.98516 0
M  V30 8980 H 823.273 3.74099 -0.00674357 0
M  V30 8981 H 824.606 4.92199 0.0108155 0
M  V30 8982 N 826.258 0.243083 1.55714 0
M  V30 8983 C 827.535 -0.432851 1.90751 0
M  V30 8984 C 827.915 -1.76153 1.16333 0
M  V30 8985 O 827.263 -2.26783 0.279565 0
M  V30 8986 C 827.473 -0.604685 3.43722 0
M  V30 8987 C 828.821 -0.90231 4.14902 0
M  V30 8988 O 829.845 -0.690689 3.49439 0
M  V30 8989 O 828.704 -1.3051 5.30688 0
M  V30 8990 H 825.798 -0.231835 0.79384 0
M  V30 8991 H 828.344 0.286867 1.67258 0
M  V30 8992 H 827.116 0.331655 3.89892 0
M  V30 8993 H 826.739 -1.37509 3.73065 0
M  V30 8994 N 827.736 -1.57571 -0.0300757 0
M  V30 8995 C 828.982 -1.89506 -0.722159 0
M  V30 8996 C 829.315 -0.840699 -1.7506 0
M  V30 8997 O 828.59 0.144358 -1.93964 0
M  V30 8998 C 828.873 -3.32081 -1.39262 0
M  V30 8999 C 828.726 -4.48211 -0.377768 0
M  V30 9000 C 830.045 -3.73557 -2.32687 0
M  V30 9001 H 827.164 -0.689213 -0.261064 0
M  V30 9002 H 829.806 -1.89994 0.0150388 0
M  V30 9003 H 827.956 -3.31796 -2.02098 0
M  V30 9004 H 829.628 -4.6063 0.248591 0
M  V30 9005 H 827.871 -4.3274 0.303045 0
M  V30 9006 H 828.542 -5.44854 -0.885347 0
M  V30 9007 H 831.018 -3.75202 -1.79896 0
M  V30 9008 H 829.894 -4.74125 -2.7658 0
M  V30 9009 H 830.155 -3.05759 -3.19317 0
M  V30 9010 N 829.214 0.302327 -1.54673 0
M  V30 9011 C 830.177 1.35592 -1.8479 0
M  V30 9012 C 831.177 1.43743 -0.72073 0
M  V30 9013 O 832.367 1.43402 -0.989017 0
M  V30 9014 C 829.499 2.74091 -2.02699 0
M  V30 9015 H 830.692 1.10132 -2.78946 0
M  V30 9016 H 828.245 0.538926 -1.46715 0
M  V30 9017 H 828.98 3.04775 -1.10826 0
M  V30 9018 H 828.765 2.69565 -2.8474 0
M  V30 9019 H 830.255 3.50272 -2.27374 0
M  V30 9020 N 830.692 1.47107 0.565454 0
M  V30 9021 C 831.624 1.55024 1.6882 0
M  V30 9022 C 832.637 0.4371 1.56822 0
M  V30 9023 O 833.826 0.706315 1.63931 0
M  V30 9024 C 830.926 1.43069 3.0722 0
M  V30 9025 C 830.099 2.68807 3.45053 0
M  V30 9026 C 829.158 2.50806 4.62583 0
M  V30 9027 O 828.184 3.24593 4.67577 0
M  V30 9028 N 829.386 1.58093 5.58558 0
M  V30 9029 H 832.151 2.51836 1.62477 0
M  V30 9030 H 829.712 1.43382 0.751885 0
M  V30 9031 H 831.704 1.28773 3.83666 0
M  V30 9032 H 830.274 0.543721 3.07835 0
M  V30 9033 H 829.494 2.97923 2.58138 0
M  V30 9034 H 830.782 3.52298 3.67101 0
M  V30 9035 H 830.18 0.972807 5.57273 0
M  V30 9036 H 828.737 1.49753 6.34364 0
M  V30 9037 N 832.17 -0.811516 1.35101 0
M  V30 9038 C 833.103 -1.92872 1.21966 0
M  V30 9039 C 834.081 -1.62236 0.108667 0
M  V30 9040 O 835.265 -1.8647 0.275875 0
M  V30 9041 C 832.392 -3.27152 0.876886 0
M  V30 9042 C 831.438 -3.7674 1.99924 0
M  V30 9043 S 832.271 -3.95132 3.61429 0
M  V30 9044 C 833.427 -5.32322 3.29218 0
M  V30 9045 H 833.66 -2.03718 2.16532 0
M  V30 9046 H 831.193 -0.968352 1.20259 0
M  V30 9047 H 833.151 -4.04729 0.685917 0
M  V30 9048 H 831.812 -3.14059 -0.0506289 0
M  V30 9049 H 831.005 -4.73981 1.71343 0
M  V30 9050 H 830.607 -3.06145 2.14829 0
M  V30 9051 H 832.899 -6.1614 2.8174 0
M  V30 9052 H 833.842 -5.65893 4.25641 0
M  V30 9053 H 834.25 -4.98374 2.65111 0
M  V30 9054 N 833.648 -1.19017 -1.03309 0
M  V30 9055 C 834.578 -0.94772 -2.13402 0
M  V30 9056 C 835.559 0.117383 -1.69694 0
M  V30 9057 O 836.744 -0.0367733 -1.94165 0
M  V30 9058 C 833.874 -0.480977 -3.43953 0
M  V30 9059 C 832.828 -1.48743 -4.01322 0
M  V30 9060 C 832.154 -0.877924 -5.27443 0
M  V30 9061 C 833.454 -2.86642 -4.36616 0
M  V30 9062 H 835.148 -1.86846 -2.33942 0
M  V30 9063 H 832.694 -0.899781 -1.12427 0
M  V30 9064 H 834.647 -0.298677 -4.2034 0
M  V30 9065 H 833.371 0.475348 -3.23122 0
M  V30 9066 H 832.03 -1.65681 -3.27025 0
M  V30 9067 H 831.678 0.0858232 -5.02927 0
M  V30 9068 H 831.378 -1.54996 -5.66789 0
M  V30 9069 H 832.902 -0.706326 -6.06501 0
M  V30 9070 H 834.316 -2.73312 -5.03958 0
M  V30 9071 H 832.713 -3.50599 -4.87032 0
M  V30 9072 H 833.783 -3.39617 -3.46105 0
M  V30 9073 N 835.127 1.22348 -0.993418 0
M  V30 9074 C 836.357 1.94842 -0.687023 0
M  V30 9075 C 836.765 1.73594 0.752445 0
M  V30 9076 O 836.108 1.03238 1.51946 0
M  V30 9077 C 836.17 3.47694 -0.913754 0
M  V30 9078 C 835.834 3.92678 -2.33781 0
M  V30 9079 C 836.831 4.0031 -3.31734 0
M  V30 9080 C 834.516 4.25311 -2.67237 0
M  V30 9081 C 836.51 4.39951 -4.61218 0
M  V30 9082 C 834.197 4.64631 -3.9694 0
M  V30 9083 C 835.195 4.71919 -4.93742 0
M  V30 9084 O 834.883 5.10349 -6.21127 0
M  V30 9085 H 834.615 0.626771 -0.253247 0
M  V30 9086 H 837.169 1.56436 -1.33105 0
M  V30 9087 H 835.399 3.86115 -0.212552 0
M  V30 9088 H 837.088 4.01403 -0.602528 0
M  V30 9089 H 837.854 3.75288 -3.07219 0
M  V30 9090 H 833.733 4.18842 -1.92594 0
M  V30 9091 H 837.277 4.45555 -5.36774 0
M  V30 9092 H 833.174 4.89104 -4.21245 0
M  V30 9093 H 833.942 5.2842 -6.25072 0
M  V30 9094 N 836.605 0.766683 1.37694 0
M  V30 9095 C 837.535 0.163432 2.32927 0
M  V30 9096 C 838.516 -0.688861 1.55527 0
M  V30 9097 O 839.701 -0.627363 1.83787 0
M  V30 9098 C 836.831 -0.720416 3.39746 0
M  V30 9099 C 835.785 0.0301718 4.27989 0
M  V30 9100 C 835.111 -0.972788 5.25776 0
M  V30 9101 C 836.411 1.20623 5.0818 0
M  V30 9102 H 838.105 0.958988 2.83626 0
M  V30 9103 H 835.651 0.462601 1.36367 0
M  V30 9104 H 837.604 -1.15221 4.05342 0
M  V30 9105 H 836.328 -1.54844 2.8756 0
M  V30 9106 H 834.987 0.442685 3.63917 0
M  V30 9107 H 834.635 -1.79522 4.69873 0
M  V30 9108 H 834.335 -0.475145 5.85676 0
M  V30 9109 H 835.859 -1.40362 5.94248 0
M  V30 9110 H 837.273 0.851341 5.66944 0
M  V30 9111 H 835.67 1.63561 5.7738 0
M  V30 9112 H 836.74 2.01281 4.41151 0
M  V30 9113 N 838.083 -1.48885 0.516809 0
M  V30 9114 C 839.013 -2.32241 -0.242157 0
M  V30 9115 C 839.994 -1.41258 -0.947633 0
M  V30 9116 O 841.179 -1.70156 -0.935973 0
M  V30 9117 C 838.309 -3.22151 -1.29754 0
M  V30 9118 C 837.263 -4.22053 -0.710995 0
M  V30 9119 C 836.589 -5.01007 -1.86806 0
M  V30 9120 C 837.889 -5.21388 0.30853 0
M  V30 9121 H 839.583 -2.95943 0.453651 0
M  V30 9122 H 837.129 -1.42316 0.219612 0
M  V30 9123 H 839.082 -3.79284 -1.83634 0
M  V30 9124 H 837.806 -2.56423 -2.02274 0
M  V30 9125 H 836.465 -3.66087 -0.193819 0
M  V30 9126 H 836.113 -4.31713 -2.58133 0
M  V30 9127 H 835.813 -5.68615 -1.48159 0
M  V30 9128 H 837.337 -5.60989 -2.4109 0
M  V30 9129 H 838.751 -5.73122 -0.142703 0
M  V30 9130 H 837.148 -5.96975 0.611673 0
M  V30 9131 H 838.218 -4.69329 1.21894 0
M  V30 9132 N 839.561 -0.251338 -1.55583 0
M  V30 9133 C 840.801 0.373651 -2.00956 0
M  V30 9134 C 841.165 1.54806 -1.13574 0
M  V30 9135 O 842.366 2.24108 -1.48422 0
M  V30 9136 C 840.637 0.768919 -3.49031 0
M  V30 9137 S 842.196 1.38381 -4.16409 0
M  V30 9138 H 839.014 0.117371 -0.701245 0
M  V30 9139 H 841.616 -0.367611 -1.92013 0
M  V30 9140 H 840.32 -0.0950492 -4.1029 0
M  V30 9141 H 839.851 1.54225 -3.61909 0
M  V30 9142 H 841.866 2.6728 -4.18062 0
M  V30 9143 N 841.039 1.57585 0.0217189 0
M  V30 9144 C 842.264 1.94267 0.726309 0
M  V30 9145 C 842.689 0.851904 1.67703 0
M  V30 9146 O 842.047 -0.191792 1.80283 0
M  V30 9147 C 842.095 3.30023 1.45318 0
M  V30 9148 O 841.199 3.22791 2.5667 0
M  V30 9149 H 840.54 0.634777 0.194818 0
M  V30 9150 H 843.07 2.04585 -0.0249985 0
M  V30 9151 H 843.08 3.65084 1.82147 0
M  V30 9152 H 841.755 4.08972 0.755962 0
M  V30 9153 H 840.332 2.99373 2.2233 0
M  V30 9154 N 842.517 -0.29412 1.54831 0
M  V30 9155 C 843.763 -1.02602 1.75626 0
M  V30 9156 C 844.118 -1.84689 0.539232 0
M  V30 9157 O 843.411 -1.85788 -0.468322 0
M  V30 9158 C 843.605 -1.95782 2.99006 0
M  V30 9159 C 843.434 -1.22861 4.32591 0
M  V30 9160 C 842.204 -0.95294 4.96233 0
M  V30 9161 C 844.402 -0.629592 5.10432 0
M  V30 9162 N 842.384 -0.194728 6.13591 0
M  V30 9163 C 843.755 -0.00449586 6.2 0
M  V30 9164 C 845.81 -0.535327 4.95014 0
M  V30 9165 C 844.513 0.705754 7.15829 0
M  V30 9166 C 846.539 0.161284 5.9118 0
M  V30 9167 C 845.901 0.775203 7.00121 0
M  V30 9168 H 842 -0.358143 0.695167 0
M  V30 9169 H 844.584 -0.303896 1.92314 0
M  V30 9170 H 842.755 -2.65238 2.83731 0
M  V30 9171 H 844.487 -2.62175 3.08296 0
M  V30 9172 H 841.242 -1.25285 4.56728 0
M  V30 9173 H 841.666 0.171093 6.76784 0
M  V30 9174 H 846.308 -0.995662 4.10909 0
M  V30 9175 H 844.026 1.17784 7.9947 0
M  V30 9176 H 847.612 0.234256 5.81328 0
M  V30 9177 H 846.492 1.30566 7.73254 0
M  V30 9178 N 843.995 -1.47404 -0.557645 0
M  V30 9179 C 845.406 -1.47872 -1.13977 0
M  V30 9180 C 845.757 -0.233176 -1.94809 0
M  V30 9181 O 844.882 0.661945 -2.06027 0
M  V30 9182 C 845.477 -2.67926 -2.07368 0
M  V30 9183 C 844.036 -2.71354 -2.60852 0
M  V30 9184 C 843.183 -2.40967 -1.37223 0
M  V30 9185 H 846.134 -1.54921 -0.344268 0
M  V30 9186 H 846.155 -2.44871 -2.91236 0
M  V30 9187 H 845.667 -3.58562 -1.48509 0
M  V30 9188 H 843.768 -1.84855 -3.23511 0
M  V30 9189 H 843.881 -3.72032 -3.01876 0
M  V30 9190 H 842.245 -1.91541 -1.67882 0
M  V30 9191 H 843.028 -3.33811 -0.801583 0
M  V30 9192 N 845.473 0.80434 -1.35529 0
M  V30 9193 C 846.383 1.94784 -1.30753 0
M  V30 9194 C 847.399 1.72703 -0.212071 0
M  V30 9195 O 848.575 1.96494 -0.441841 0
M  V30 9196 C 845.64 3.29406 -1.08133 0
M  V30 9197 C 844.701 3.64367 -2.27013 0
M  V30 9198 C 843.934 4.92566 -2.05463 0
M  V30 9199 O 844.157 5.61166 -1.02222 0
M  V30 9200 O 843.091 5.25838 -2.92879 0
M  V30 9201 H 846.917 2.01761 -2.26994 0
M  V30 9202 H 844.502 0.942448 -1.15924 0
M  V30 9203 H 846.384 4.09995 -0.973756 0
M  V30 9204 H 845.059 3.23355 -0.149444 0
M  V30 9205 H 843.966 2.84146 -2.43335 0
M  V30 9206 H 845.299 3.75125 -3.18656 0
M  V30 9207 N 846.951 1.19563 1.02676 0
M  V30 9208 C 847.881 0.959024 2.12897 0
M  V30 9209 C 848.862 -0.108382 1.69754 0
M  V30 9210 O 850.047 0.0470698 1.94143 0
M  V30 9211 C 847.177 0.499211 3.43693 0
M  V30 9212 C 846.131 1.5087 4.00528 0
M  V30 9213 C 845.457 0.905884 5.2697 0
M  V30 9214 C 846.757 2.88954 4.3509 0
M  V30 9215 H 848.451 1.88084 2.32948 0
M  V30 9216 H 845.997 0.905731 1.11949 0
M  V30 9217 H 847.95 0.320965 4.20176 0
M  V30 9218 H 846.674 -0.458205 3.2337 0
M  V30 9219 H 845.333 1.67413 3.26142 0
M  V30 9220 H 844.981 -0.0591506 5.02965 0
M  V30 9221 H 844.681 1.58 5.65959 0
M  V30 9222 H 846.205 0.73848 6.06118 0
M  V30 9223 H 847.619 2.75981 5.02501 0
M  V30 9224 H 846.016 3.53177 4.85166 0
M  V30 9225 H 847.086 3.41447 3.44299 0
M  V30 9226 N 848.429 -1.21819 0.999893 0
M  V30 9227 C 849.84 -1.72517 0.713775 0
M  V30 9228 C 850.191 -1.80505 -0.768922 0
M  V30 9229 O 849.316 -1.45611 -1.60083 0
M  V30 9230 C 849.911 -3.13321 1.28901 0
M  V30 9231 C 848.47 -3.61396 1.05212 0
M  V30 9232 C 847.617 -2.39074 1.40494 0
M  V30 9233 H 850.568 -1.07068 1.17141 0
M  V30 9234 H 850.589 -3.74535 0.671084 0
M  V30 9235 H 850.101 -3.07475 2.36814 0
M  V30 9236 H 848.202 -3.72599 -0.0100732 0
M  V30 9237 H 848.315 -4.47145 1.72042 0
M  V30 9238 H 846.679 -2.41015 0.823642 0
M  V30 9239 H 847.462 -2.35884 2.49427 0
M  V30 9240 N 849.908 -0.773975 -1.37286 0
M  V30 9241 C 851.154 -0.339809 -1.99933 0
M  V30 9242 C 851.487 1.0815 -1.61299 0
M  V30 9243 O 850.762 1.74442 -0.860252 0
M  V30 9244 C 851.045 -0.485919 -3.56806 0
M  V30 9245 C 850.898 -1.9498 -4.05343 0
M  V30 9246 C 852.217 0.108461 -4.39966 0
M  V30 9247 H 849.336 -0.124944 -0.726332 0
M  V30 9248 H 851.978 -0.977433 -1.6293 0
M  V30 9249 H 850.128 0.0569023 -3.88458 0
M  V30 9250 H 851.8 -2.5525 -3.84246 0
M  V30 9251 H 850.043 -2.45784 -3.57453 0
M  V30 9252 H 850.714 -2.00308 -5.14374 0
M  V30 9253 H 853.19 -0.354722 -4.14585 0
M  V30 9254 H 852.066 -0.0238926 -5.48895 0
M  V30 9255 H 852.327 1.19901 -4.25531 0
M  V30 9256 N 851.386 1.48609 -0.524698 0
M  V30 9257 C 852.316 2.32366 0.229837 0
M  V30 9258 C 853.297 1.41759 0.940129 0
M  V30 9259 O 854.482 1.7065 0.926936 0
M  V30 9260 C 851.612 3.22835 1.28043 0
M  V30 9261 C 850.566 4.22424 0.688603 0
M  V30 9262 C 849.892 5.0199 1.84146 0
M  V30 9263 C 851.192 5.21217 -0.336176 0
M  V30 9264 H 852.886 2.95698 -0.469339 0
M  V30 9265 H 850.432 1.42197 -0.227156 0
M  V30 9266 H 852.385 3.80253 1.8162 0
M  V30 9267 H 851.109 2.57492 2.00912 0
M  V30 9268 H 849.768 3.66185 0.174402 0
M  V30 9269 H 849.416 4.33076 2.5584 0
M  V30 9270 H 849.116 5.69392 1.45142 0
M  V30 9271 H 850.64 5.62259 2.38111 0
M  V30 9272 H 852.054 5.7319 0.112307 0
M  V30 9273 H 850.451 5.96642 -0.643324 0
M  V30 9274 H 851.521 4.68676 -1.24381 0
M  V30 9275 N 852.864 0.259585 1.55447 0
M  V30 9276 C 854.089 -0.368317 2.04103 0
M  V30 9277 C 854.514 -1.49827 1.13725 0
M  V30 9278 O 853.872 -1.80814 0.132705 0
M  V30 9279 C 853.92 -0.841506 3.50644 0
M  V30 9280 O 853.024 -1.95008 3.63381 0
M  V30 9281 H 852.365 -0.0785227 0.659341 0
M  V30 9282 H 854.895 0.389349 2.00861 0
M  V30 9283 H 854.905 -1.14138 3.9171 0
M  V30 9284 H 853.58 -0.0147001 4.15897 0
M  V30 9285 H 852.157 -1.65393 3.34215 0
M  V30 9286 N 854.342 -1.57594 -0.0133615 0
M  V30 9287 C 855.305 -2.06534 -0.993799 0
M  V30 9288 C 856.305 -0.972267 -1.28077 0
M  V30 9289 O 857.495 -1.23537 -1.22818 0
M  V30 9290 C 854.627 -2.49554 -2.3224 0
M  V30 9291 H 855.82 -2.94419 -0.570741 0
M  V30 9292 H 853.373 -1.54113 -0.260546 0
M  V30 9293 H 854.108 -1.64872 -2.79263 0
M  V30 9294 H 853.893 -3.29371 -2.12737 0
M  V30 9295 H 855.383 -2.8779 -3.026 0
M  V30 9296 N 855.82 0.285905 -1.54985 0
M  V30 9297 C 856.75 1.35752 -1.89983 0
M  V30 9298 C 857.731 1.52163 -0.760295 0
M  V30 9299 O 858.916 1.65421 -1.01733 0
M  V30 9300 C 856.046 2.71925 -2.16042 0
M  V30 9301 C 855 2.70261 -3.31878 0
M  V30 9302 C 854.326 4.09864 -3.43388 0
M  V30 9303 C 855.626 2.30667 -4.68604 0
M  V30 9304 H 857.32 1.06709 -2.79738 0
M  V30 9305 H 854.866 0.511884 -1.34595 0
M  V30 9306 H 856.819 3.46992 -2.39113 0
M  V30 9307 H 855.543 3.02523 -1.23074 0
M  V30 9308 H 854.202 1.97651 -3.08755 0
M  V30 9309 H 853.85 4.37664 -2.47909 0
M  V30 9310 H 853.55 4.09648 -4.21262 0
M  V30 9311 H 855.074 4.86689 -3.68736 0
M  V30 9312 H 856.488 2.95453 -4.91305 0
M  V30 9313 H 854.885 2.41637 -5.49301 0
M  V30 9314 H 855.955 1.25793 -4.68299 0
M  V30 9315 N 857.298 1.47698 0.54982 0
M  V30 9316 C 858.208 1.63386 1.68351 0
M  V30 9317 C 859.224 0.516583 1.66155 0
M  V30 9318 O 860.4 0.785088 1.85468 0
M  V30 9319 C 857.465 1.6513 3.04849 0
M  V30 9320 C 856.526 2.88338 3.18056 0
M  V30 9321 C 855.759 2.8999 4.48042 0
M  V30 9322 O 855.982 2.00633 5.3395 0
M  V30 9323 O 854.916 3.81938 4.65196 0
M  V30 9324 H 858.742 2.59329 1.58057 0
M  V30 9325 H 856.327 1.30869 0.72067 0
M  V30 9326 H 858.209 1.68913 3.86065 0
M  V30 9327 H 856.884 0.723555 3.1551 0
M  V30 9328 H 855.791 2.90097 2.36209 0
M  V30 9329 H 857.124 3.80431 3.12302 0
M  V30 9330 N 858.776 -0.797141 1.35954 0
M  V30 9331 C 859.706 -1.92387 1.32323 0
M  V30 9332 C 860.687 -1.68967 0.196007 0
M  V30 9333 O 861.872 -1.90193 0.39245 0
M  V30 9334 C 859.002 -3.29286 1.10398 0
M  V30 9335 C 857.956 -3.67212 2.19862 0
M  V30 9336 C 857.282 -5.02377 1.8309 0
M  V30 9337 C 858.582 -3.76602 3.61896 0
M  V30 9338 H 860.276 -1.95683 2.26602 0
M  V30 9339 H 857.822 -0.94007 1.09081 0
M  V30 9340 H 859.775 -4.07721 1.06495 0
M  V30 9341 H 858.499 -3.26358 0.125668 0
M  V30 9342 H 857.158 -2.91069 2.22878 0
M  V30 9343 H 856.806 -4.95961 0.838527 0
M  V30 9344 H 856.506 -5.28722 2.56372 0
M  V30 9345 H 858.03 -5.8324 1.80729 0
M  V30 9346 H 859.444 -4.45246 3.6115 0
M  V30 9347 H 857.841 -4.14425 4.34018 0
M  V30 9348 H 858.911 -2.77906 3.97361 0
M  V30 9349 N 860.254 -1.20106 -1.0204 0
M  V30 9350 C 861.184 -0.970301 -2.12385 0
M  V30 9351 C 862.165 0.099378 -1.69809 0
M  V30 9352 O 863.35 -0.057365 -1.94115 0
M  V30 9353 C 860.48 -0.517431 -3.43424 0
M  V30 9354 C 859.434 -1.52992 -3.99722 0
M  V30 9355 C 858.76 -0.933817 -5.26483 0
M  V30 9356 C 860.06 -2.91257 -4.33551 0
M  V30 9357 H 861.754 -1.89316 -2.31948 0
M  V30 9358 H 859.3 -0.911655 -1.11467 0
M  V30 9359 H 861.253 -0.343243 -4.2 0
M  V30 9360 H 859.977 0.441049 -3.23608 0
M  V30 9361 H 858.636 -1.6914 -3.2525 0
M  V30 9362 H 858.284 0.0324763 -5.0299 0
M  V30 9363 H 857.984 -1.60999 -5.65113 0
M  V30 9364 H 859.508 -0.770614 -6.05718 0
M  V30 9365 H 860.922 -2.78642 -5.0103 0
M  V30 9366 H 859.319 -3.55745 -4.83286 0
M  V30 9367 H 860.389 -3.43269 -3.42483 0
M  V30 9368 N 861.732 1.21287 -1.00634 0
M  V30 9369 C 863.009 1.86 -0.605257 0
M  V30 9370 C 863.389 1.90139 0.917072 0
M  V30 9371 O 862.737 1.40169 1.80458 0
M  V30 9372 C 862.947 3.26183 -1.24119 0
M  V30 9373 C 864.295 4.02562 -1.35015 0
M  V30 9374 O 865.319 3.35499 -1.19661 0
M  V30 9375 O 864.178 5.22638 -1.59726 0
M  V30 9376 H 861.272 0.800549 -0.207486 0
M  V30 9377 H 863.818 1.28959 -1.10307 0
M  V30 9378 H 862.59 3.17878 -2.28186 0
M  V30 9379 H 862.213 3.90845 -0.729807 0
M  V30 9380 N 863.21 0.781244 1.36873 0
M  V30 9381 C 864.457 0.349889 1.99454 0
M  V30 9382 C 864.785 -1.07621 1.62013 0
M  V30 9383 O 864.04 -1.75665 0.86258 0
M  V30 9384 C 864.339 0.45146 3.54537 0
M  V30 9385 C 864.005 1.83718 4.11775 0
M  V30 9386 C 862.667 2.21634 4.2712 0
M  V30 9387 C 865.019 2.7449 4.43063 0
M  V30 9388 C 862.347 3.49742 4.7106 0
M  V30 9389 C 864.699 4.02017 4.88431 0
M  V30 9390 C 863.363 4.39967 5.01982 0
M  V30 9391 H 862.633 0.128033 0.729855 0
M  V30 9392 H 865.28 0.997117 1.63493 0
M  V30 9393 H 863.585 -0.279288 3.90803 0
M  V30 9394 H 865.282 0.0988609 4.00878 0
M  V30 9395 H 861.872 1.53251 4.00265 0
M  V30 9396 H 866.056 2.46453 4.30783 0
M  V30 9397 H 861.312 3.79026 4.79738 0
M  V30 9398 H 865.486 4.72475 5.11605 0
M  V30 9399 H 863.113 5.39291 5.35788 0
M  V30 9400 N 864.689 -1.48329 0.532571 0
M  V30 9401 C 865.914 -2.074 0.00147755 0
M  V30 9402 C 866.339 -1.38615 -1.27151 0
M  V30 9403 O 865.697 -0.452949 -1.75551 0
M  V30 9404 C 865.745 -3.60029 -0.202866 0
M  V30 9405 O 864.849 -3.92327 -1.27097 0
M  V30 9406 H 864.19 -0.662777 0.0402883 0
M  V30 9407 H 866.72 -1.90701 0.741224 0
M  V30 9408 H 866.73 -4.05783 -0.424722 0
M  V30 9409 H 865.405 -4.09496 0.727033 0
M  V30 9410 H 863.982 -3.58348 -1.03156 0
M  V30 9411 N 866.167 -0.267825 -1.55308 0
M  V30 9412 C 867.414 0.351036 -1.99434 0
M  V30 9413 C 867.742 1.56406 -1.15618 0
M  V30 9414 O 866.997 1.94548 -0.212045 0
M  V30 9415 C 867.296 0.784247 -3.48689 0
M  V30 9416 C 866.962 -0.323328 -4.49739 0
M  V30 9417 C 865.624 -0.627467 -4.77091 0
M  V30 9418 C 867.976 -1.07002 -5.10098 0
M  V30 9419 C 865.304 -1.682 -5.62073 0
M  V30 9420 C 867.656 -2.11422 -5.96224 0
M  V30 9421 C 866.32 -2.42479 -6.21901 0
M  V30 9422 H 865.59 0.128453 -0.729781 0
M  V30 9423 H 868.237 -0.380018 -1.87692 0
M  V30 9424 H 866.542 1.59485 -3.57871 0
M  V30 9425 H 868.239 1.2737 -3.80234 0
M  V30 9426 H 864.829 -0.0761528 -4.28532 0
M  V30 9427 H 869.013 -0.848302 -4.88996 0
M  V30 9428 H 864.269 -1.92772 -5.80215 0
M  V30 9429 H 868.443 -2.69759 -6.4203 0
M  V30 9430 H 866.07 -3.24328 -6.87543 0
M  V30 9431 N 867.645 1.57599 0.00500368 0
M  V30 9432 C 869.056 1.78462 0.54848 0
M  V30 9433 C 869.407 0.901869 1.74243 0
M  V30 9434 O 868.532 0.103014 2.16155 0
M  V30 9435 C 869.127 3.2365 1.00179 0
M  V30 9436 C 867.686 3.45627 1.49061 0
M  V30 9437 C 866.833 2.73794 0.439531 0
M  V30 9438 H 869.784 1.57151 -0.22118 0
M  V30 9439 H 869.805 3.31488 1.86805 0
M  V30 9440 H 869.317 3.87873 0.132607 0
M  V30 9441 H 867.418 2.86612 2.38085 0
M  V30 9442 H 867.531 4.54298 1.52152 0
M  V30 9443 H 865.895 2.38267 0.900043 0
M  V30 9444 H 866.678 3.40714 -0.420599 0
M  V30 9445 N 869.123 -0.277682 1.55134 0
M  V30 9446 C 870.4 -1.0309 1.66228 0
M  V30 9447 C 870.78 -2.0445 0.525701 0
M  V30 9448 O 870.128 -2.23512 -0.474816 0
M  V30 9449 C 870.338 -1.6919 3.05247 0
M  V30 9450 C 871.686 -2.20526 3.62841 0
M  V30 9451 O 872.71 -1.79185 3.07849 0
M  V30 9452 O 871.569 -2.96342 4.59177 0
M  V30 9453 H 868.663 -0.4779 0.674937 0
M  V30 9454 H 871.209 -0.273912 1.67475 0
M  V30 9455 H 869.981 -0.957163 3.79413 0
M  V30 9456 H 869.604 -2.51587 3.07879 0
M  V30 9457 N 870.601 -1.47988 -0.541979 0
M  V30 9458 C 871.841 -1.56982 -1.30905 0
M  V30 9459 C 872.205 -0.233153 -1.90579 0
M  V30 9460 O 873.406 -0.198018 -2.6807 0
M  V30 9461 C 871.677 -2.66787 -2.37823 0
M  V30 9462 S 873.236 -2.95467 -3.24414 0
M  V30 9463 H 870.054 -0.554165 -0.445446 0
M  V30 9464 H 872.656 -1.85448 -0.618803 0
M  V30 9465 H 871.36 -3.62483 -1.92443 0
M  V30 9466 H 870.891 -2.40184 -3.11569 0
M  V30 9467 H 872.906 -2.33846 -4.37642 0
M  V30 9468 N 872.079 0.78992 -1.36375 0
M  V30 9469 C 873.029 1.89227 -1.27189 0
M  V30 9470 C 874.013 1.60067 -0.163498 0
M  V30 9471 O 875.205 1.72507 -0.396262 0
M  V30 9472 C 872.334 3.26431 -1.06292 0
M  V30 9473 C 871.42 3.61602 -2.21596 0
M  V30 9474 N 871.811 3.68086 -3.4691 0
M  V30 9475 C 870.109 3.9166 -2.1335 0
M  V30 9476 C 870.81 3.99481 -4.22835 0
M  V30 9477 N 869.786 4.14438 -3.5177 0
M  V30 9478 H 873.588 1.92465 -2.22113 0
M  V30 9479 H 871.102 0.985414 -1.29087 0
M  V30 9480 H 873.099 4.05267 -0.97798 0
M  V30 9481 H 871.759 3.24468 -0.122676 0
M  V30 9482 H 872.77 3.50743 -3.81051 0
M  V30 9483 H 869.447 3.97626 -1.27279 0
M  V30 9484 H 870.837 4.11425 -5.31205 0
M  V30 9485 N 873.557 1.20646 1.01402 0
M  V30 9486 C 874.803 1.0197 1.753 0
M  V30 9487 C 875.136 -0.446803 1.8899 0
M  V30 9488 O 874.411 -1.33169 1.41762 0
M  V30 9489 C 874.694 1.70693 3.17074 0
M  V30 9490 C 874.547 3.24805 3.11162 0
M  V30 9491 C 875.866 1.44212 4.15802 0
M  V30 9492 H 872.985 0.371844 0.636318 0
M  V30 9493 H 875.627 1.48696 1.18277 0
M  V30 9494 H 873.777 1.30968 3.65759 0
M  V30 9495 H 875.449 3.73841 2.70261 0
M  V30 9496 H 873.692 3.55576 2.48492 0
M  V30 9497 H 874.363 3.68049 4.11393 0
M  V30 9498 H 876.839 1.7868 3.75783 0
M  V30 9499 H 875.715 1.94825 5.13161 0
M  V30 9500 H 875.976 0.370252 4.40547 0
M  V30 9501 N 875.035 -1.20752 1.01276 0
M  V30 9502 C 876.283 -1.89645 0.698505 0
M  V30 9503 C 876.604 -1.78986 -0.773883 0
M  V30 9504 O 875.874 -1.18977 -1.55632 0
M  V30 9505 H 874.454 -0.701992 0.255375 0
M  V30 9506 H 877.116 -1.46668 1.28353 0
M  V30 9507 H 876.212 -2.96364 0.978512 0
M  V30 9508 N 876.513 -0.788492 -1.36457 0
M  V30 9509 C 877.738 -0.371224 -2.04051 0
M  V30 9510 C 878.163 1.004 -1.59064 0
M  V30 9511 O 877.521 1.64663 -0.758679 0
M  V30 9512 C 877.569 -0.442275 -3.57877 0
M  V30 9513 O 876.673 0.55113 -4.08701 0
M  V30 9514 H 876.014 -0.157808 -0.644975 0
M  V30 9515 H 878.544 -1.06935 -1.74431 0
M  V30 9516 H 878.554 -0.305548 -4.06854 0
M  V30 9517 H 877.229 -1.44547 -3.89973 0
M  V30 9518 H 875.806 0.37614 -3.70998 0
M  V30 9519 N 877.991 1.48044 -0.54043 0
M  V30 9520 C 879.238 2.02497 -0.0101567 0
M  V30 9521 C 879.566 1.41651 1.33286 0
M  V30 9522 O 878.821 0.555504 1.8765 0
M  V30 9523 C 879.12 3.57085 0.150008 0
M  V30 9524 C 878.786 4.36769 -1.11998 0
M  V30 9525 C 877.448 4.58261 -1.46801 0
M  V30 9526 C 879.8 4.82848 -1.96232 0
M  V30 9527 C 877.128 5.23079 -2.65717 0
M  V30 9528 C 879.48 5.48977 -3.14335 0
M  V30 9529 C 878.144 5.68705 -3.49472 0
M  V30 9530 H 877.414 0.740991 -0.00371661 0
M  V30 9531 H 880.061 1.77909 -0.708562 0
M  V30 9532 H 878.366 3.80572 0.931259 0
M  V30 9533 H 880.063 3.96851 0.575384 0
M  V30 9534 H 876.653 4.20309 -0.838957 0
M  V30 9535 H 880.837 4.66038 -1.70654 0
M  V30 9536 H 876.093 5.36549 -2.93129 0
M  V30 9537 H 880.267 5.83649 -3.79904 0
M  V30 9538 H 877.894 6.18703 -4.41713 0
M  V30 9539 N 879.47 0.276058 1.55163 0
M  V30 9540 C 880.433 -0.597924 2.21263 0
M  V30 9541 C 881.433 -1.0806 1.19078 0
M  V30 9542 O 882.623 -0.980626 1.43977 0
M  V30 9543 C 879.755 -1.82503 2.87933 0
M  V30 9544 H 880.948 -0.0207769 2.99893 0
M  V30 9545 H 878.501 0.0266823 1.56277 0
M  V30 9546 H 879.236 -2.44266 2.13318 0
M  V30 9547 H 879.021 -1.48683 3.62816 0
M  V30 9548 H 880.511 -2.44651 3.38431 0
M  V30 9549 N 880.948 -1.576 0.00335426 0
M  V30 9550 C 882.197 -1.89892 -0.680001 0
M  V30 9551 C 882.51 -0.878731 -1.7475 0
M  V30 9552 O 883.716 -1.09199 -2.48572 0
M  V30 9553 C 882.172 -3.37098 -1.26066 0
M  V30 9554 C 881.78 -4.4742 -0.227807 0
M  V30 9555 C 883.524 -3.78495 -1.92202 0
M  V30 9556 C 881.431 -5.85706 -0.81865 0
M  V30 9557 H 880.361 -0.708578 -0.257746 0
M  V30 9558 H 883.012 -1.83387 0.0644472 0
M  V30 9559 H 881.394 -3.38451 -2.05589 0
M  V30 9560 H 882.568 -4.57589 0.54307 0
M  V30 9561 H 880.883 -4.15064 0.333297 0
M  V30 9562 H 883.48 -4.7915 -2.37318 0
M  V30 9563 H 883.823 -3.12187 -2.75399 0
M  V30 9564 H 884.356 -3.79456 -1.19408 0
M  V30 9565 H 881.095 -6.55495 -0.0253787 0
M  V30 9566 H 880.615 -5.79196 -1.55861 0
M  V30 9567 H 882.294 -6.33469 -1.31627 0
M  V30 9568 N 882.426 0.269451 -1.5528 0
M  V30 9569 C 883.373 1.33316 -1.88403 0
M  V30 9570 C 884.343 1.48909 -0.735881 0
M  V30 9571 O 885.528 1.63259 -0.987479 0
M  V30 9572 C 882.668 2.68778 -2.16454 0
M  V30 9573 C 881.781 2.61377 -3.43956 0
M  V30 9574 C 880.916 3.89042 -3.6169 0
M  V30 9575 C 879.955 3.76166 -4.82872 0
M  V30 9576 N 879.092 4.95673 -4.97245 0
M  V30 9577 H 883.932 1.04368 -2.79126 0
M  V30 9578 H 881.469 0.504147 -1.38191 0
M  V30 9579 H 883.427 3.47599 -2.30719 0
M  V30 9580 H 882.057 2.9592 -1.28961 0
M  V30 9581 H 881.109 1.74247 -3.38145 0
M  V30 9582 H 882.421 2.47764 -4.32914 0
M  V30 9583 H 881.575 4.76304 -3.75791 0
M  V30 9584 H 880.314 4.05526 -2.70924 0
M  V30 9585 H 879.319 2.87287 -4.68771 0
M  V30 9586 H 880.544 3.61198 -5.75077 0
M  V30 9587 H 878.49 5.12561 -4.09411 0
M  V30 9588 H 878.407 4.84605 -5.80254 0
M  V30 9589 H 879.675 5.84498 -5.15735 0
M  V30 9590 N 883.904 1.48273 0.534124 0
M  V30 9591 C 885.129 1.59988 1.31979 0
M  V30 9592 C 885.554 0.258824 1.86311 0
M  V30 9593 O 884.912 -0.768885 1.64188 0
M  V30 9594 C 884.96 2.64642 2.44943 0
M  V30 9595 O 884.064 2.21515 3.47858 0
M  V30 9596 H 883.405 0.536625 0.391063 0
M  V30 9597 H 885.935 1.94229 0.643135 0
M  V30 9598 H 885.945 2.85786 2.91187 0
M  V30 9599 H 884.62 3.62004 2.04758 0
M  V30 9600 H 883.197 2.10567 3.0776 0
M  V30 9601 N 885.382 -0.782676 1.36792 0
M  V30 9602 C 886.312 -1.90973 1.34356 0
M  V30 9603 C 887.293 -1.6875 0.213917 0
M  V30 9604 O 888.478 -1.89766 0.412601 0
M  V30 9605 C 885.608 -3.28097 1.13884 0
M  V30 9606 C 884.562 -3.6486 2.23744 0
M  V30 9607 C 883.888 -5.00406 1.88408 0
M  V30 9608 C 885.188 -3.72742 3.6587 0
M  V30 9609 H 886.882 -1.93268 2.28665 0
M  V30 9610 H 884.428 -0.928447 1.10072 0
M  V30 9611 H 886.381 -4.06569 1.10813 0
M  V30 9612 H 885.105 -3.26206 0.160275 0
M  V30 9613 H 883.764 -2.88689 2.25952 0
M  V30 9614 H 883.412 -4.95044 0.891083 0
M  V30 9615 H 883.112 -5.25973 2.61966 0
M  V30 9616 H 884.636 -5.81291 1.86905 0
M  V30 9617 H 886.05 -4.4139 3.65852 0
M  V30 9618 H 884.447 -4.09798 4.38389 0
M  V30 9619 H 885.517 -2.73676 4.00287 0
M  V30 9620 N 886.86 -1.21182 -1.00761 0
M  V30 9621 C 888.276 -0.968607 -1.26847 0
M  V30 9622 C 888.476 0.346561 -1.98497 0
M  V30 9623 O 887.532 1.07287 -2.28573 0
M  V30 9624 C 888.845 -2.1574 -2.09467 0
M  V30 9625 C 890.393 -2.19937 -2.22703 0
M  V30 9626 C 890.868 -3.38328 -3.08704 0
M  V30 9627 N 892.359 -3.38398 -3.16293 0
M  V30 9628 C 893.094 -4.26653 -3.83086 0
M  V30 9629 N 892.59 -5.25101 -4.5193 0
M  V30 9630 N 894.383 -4.14469 -3.797 0
M  V30 9631 H 886.534 -2.05763 -0.526816 0
M  V30 9632 H 888.797 -0.90087 -0.29519 0
M  V30 9633 H 888.503 -3.11034 -1.64167 0
M  V30 9634 H 888.377 -2.14584 -3.10216 0
M  V30 9635 H 890.764 -1.25201 -2.67224 0
M  V30 9636 H 890.845 -2.25139 -1.21433 0
M  V30 9637 H 890.489 -4.33356 -2.64886 0
M  V30 9638 H 890.419 -3.30364 -4.10082 0
M  V30 9639 H 892.91 -2.67149 -2.67282 0
M  V30 9640 H 893.223 -5.8875 -5.00592 0
M  V30 9641 H 891.568 -5.29029 -4.50726 0
M  V30 9642 H 894.759 -3.3682 -3.25069 0
M  V30 9643 H 894.932 -4.83458 -4.31477 0
M  V30 9644 N 888.338 1.20213 -1.01915 0
M  V30 9645 C 889.285 2.2309 -0.591571 0
M  V30 9646 C 890.255 1.61465 0.389649 0
M  V30 9647 O 891.44 1.88606 0.288511 0
M  V30 9648 C 888.58 3.45045 0.0614028 0
M  V30 9649 C 887.693 4.21091 -0.964688 0
M  V30 9650 C 886.828 5.30448 -0.282499 0
M  V30 9651 C 885.867 5.98241 -1.29517 0
M  V30 9652 N 885.004 6.99182 -0.639472 0
M  V30 9653 H 889.844 2.59023 -1.47347 0
M  V30 9654 H 887.381 1.27274 -0.737547 0
M  V30 9655 H 889.339 4.14688 0.45714 0
M  V30 9656 H 887.969 3.09797 0.906937 0
M  V30 9657 H 887.021 3.50489 -1.47857 0
M  V30 9658 H 888.333 4.67662 -1.73475 0
M  V30 9659 H 887.487 6.06466 0.168603 0
M  V30 9660 H 886.226 4.84922 0.519843 0
M  V30 9661 H 885.231 5.20982 -1.75663 0
M  V30 9662 H 886.456 6.45853 -2.09884 0
M  V30 9663 H 884.402 6.55844 0.142955 0
M  V30 9664 H 884.319 7.43893 -1.34756 0
M  V30 9665 H 885.587 7.79212 -0.212047 0
M  V30 9666 N 889.816 0.795718 1.36037 0
M  V30 9667 C 890.746 0.212803 2.32528 0
M  V30 9668 C 891.727 -0.655716 1.56953 0
M  V30 9669 O 892.912 -0.588238 1.85077 0
M  V30 9670 C 890.042 -0.648189 3.41198 0
M  V30 9671 C 888.996 0.120948 4.27829 0
M  V30 9672 C 888.322 -0.861044 5.27722 0
M  V30 9673 C 889.622 1.31375 5.05508 0
M  V30 9674 H 891.316 1.01893 2.81528 0
M  V30 9675 H 888.862 0.491422 1.35355 0
M  V30 9676 H 890.815 -1.06597 4.07695 0
M  V30 9677 H 889.539 -1.48709 2.9078 0
M  V30 9678 H 888.198 0.519777 3.62897 0
M  V30 9679 H 887.846 -1.69515 4.73575 0
M  V30 9680 H 887.546 -0.350808 5.86552 0
M  V30 9681 H 889.07 -1.27726 5.97092 0
M  V30 9682 H 890.484 0.971406 5.6501 0
M  V30 9683 H 888.881 1.75772 5.73781 0
M  V30 9684 H 889.951 2.10593 4.36782 0
M  V30 9685 N 891.294 -1.47756 0.548274 0
M  V30 9686 C 892.522 -2.06884 0.0254873 0
M  V30 9687 C 892.937 -1.40225 -1.26422 0
M  V30 9688 O 892.294 -0.495776 -1.75637 0
M  V30 9689 C 892.345 -3.61036 -0.183134 0
M  V30 9690 O 892.066 -4.25195 1.05549 0
M  V30 9691 C 893.567 -4.37008 -0.744222 0
M  V30 9692 H 890.787 -0.669697 0.041789 0
M  V30 9693 H 893.331 -1.89888 0.759138 0
M  V30 9694 H 891.486 -3.77576 -0.866886 0
M  V30 9695 H 891.9 -5.17606 0.847629 0
M  V30 9696 H 893.374 -5.45579 -0.839529 0
M  V30 9697 H 893.851 -4.0268 -1.75344 0
M  V30 9698 H 894.457 -4.25191 -0.0964542 0
M  V30 9699 N 892.772 -0.284283 -1.55015 0
M  V30 9700 C 894.049 0.382125 -1.91831 0
M  V30 9701 C 894.429 1.73007 -1.20962 0
M  V30 9702 O 893.777 2.25962 -0.339594 0
M  V30 9703 C 893.987 0.513341 -3.45204 0
M  V30 9704 C 895.335 0.791989 -4.17148 0
M  V30 9705 O 896.359 0.597799 -3.51148 0
M  V30 9706 O 895.218 1.16394 -5.33961 0
M  V30 9707 H 892.312 0.210707 -0.799707 0
M  V30 9708 H 894.858 -0.331111 -1.66438 0
M  V30 9709 H 893.63 -0.434911 -3.88876 0
M  V30 9710 H 893.253 1.27569 -3.76579 0
M  V30 9711 N 894.251 1.57596 -0.0117121 0
M  V30 9712 C 895.528 1.82323 0.708356 0
M  V30 9713 C 895.908 0.891947 1.91331 0
M  V30 9714 O 895.256 -0.0565984 2.2843 0
M  V30 9715 C 895.466 3.31111 1.10303 0
M  V30 9716 C 896.814 3.97147 1.50199 0
M  V30 9717 O 897.838 3.35503 1.1965 0
M  V30 9718 O 896.697 5.0576 2.07049 0
M  V30 9719 H 893.791 0.751173 0.345931 0
M  V30 9720 H 896.337 1.69657 -0.0380632 0
M  V30 9721 H 895.109 3.90534 0.24467 0
M  V30 9722 H 894.732 3.48818 1.90818 0
M  V30 9723 N 895.729 -0.261212 1.5542 0
M  V30 9724 C 896.639 -1.34493 1.92221 0
M  V30 9725 C 897.655 -1.53421 0.82086 0
M  V30 9726 O 898.831 -1.6732 1.12099 0
M  V30 9727 C 895.896 -2.68209 2.19692 0
M  V30 9728 C 894.957 -2.57927 3.43179 0
M  V30 9729 C 894.19 -3.85266 3.69331 0
M  V30 9730 O 894.413 -4.86493 2.97793 0
M  V30 9731 O 893.347 -3.8476 4.62865 0
M  V30 9732 H 897.173 -1.06278 2.84497 0
M  V30 9733 H 894.758 -0.460752 1.42118 0
M  V30 9734 H 896.64 -3.47252 2.38734 0
M  V30 9735 H 895.315 -2.96186 1.30597 0
M  V30 9736 H 894.222 -1.77219 3.2946 0
M  V30 9737 H 895.555 -2.34898 4.32532 0
M  V30 9738 N 897.207 -1.48554 -0.526253 0
M  V30 9739 C 898.137 -1.66252 -1.63959 0
M  V30 9740 C 899.118 -0.511351 -1.62232 0
M  V30 9741 O 900.303 -0.744322 -1.7937 0
M  V30 9742 C 897.433 -1.70556 -3.02536 0
M  V30 9743 C 896.387 -2.8521 -3.19123 0
M  V30 9744 C 895.713 -2.74606 -4.58798 0
M  V30 9745 C 897.013 -4.26463 -3.0154 0
M  V30 9746 H 898.707 -2.59459 -1.49404 0
M  V30 9747 H 896.253 -1.24862 -0.717326 0
M  V30 9748 H 898.206 -1.81524 -3.80298 0
M  V30 9749 H 896.93 -0.739297 -3.18123 0
M  V30 9750 H 895.589 -2.73802 -2.43779 0
M  V30 9751 H 895.237 -1.75941 -4.71226 0
M  V30 9752 H 894.937 -3.51544 -4.70841 0
M  V30 9753 H 896.461 -2.87548 -5.38655 0
M  V30 9754 H 897.875 -4.38685 -3.69091 0
M  V30 9755 H 896.272 -5.04428 -3.25073 0
M  V30 9756 H 897.342 -4.42667 -1.97925 0
M  V30 9757 N 898.685 0.775411 -1.37205 0
M  V30 9758 C 899.932 1.53384 -1.32211 0
M  V30 9759 C 900.26 1.9427 0.0944958 0
M  V30 9760 O 899.515 1.64059 1.06692 0
M  V30 9761 C 899.814 2.81377 -2.20367 0
M  V30 9762 C 899.48 2.59561 -3.68699 0
M  V30 9763 C 898.142 2.53319 -4.09124 0
M  V30 9764 C 900.494 2.39939 -4.62686 0
M  V30 9765 C 897.822 2.25442 -5.41658 0
M  V30 9766 C 900.174 2.13586 -5.95453 0
M  V30 9767 C 898.838 2.05786 -6.34987 0
M  V30 9768 H 898.108 0.561271 -0.483793 0
M  V30 9769 H 900.755 0.893466 -1.6938 0
M  V30 9770 H 899.06 3.49954 -1.76181 0
M  V30 9771 H 900.757 3.39238 -2.13819 0
M  V30 9772 H 897.347 2.6528 -3.36637 0
M  V30 9773 H 901.531 2.43753 -4.32317 0
M  V30 9774 H 896.787 2.17896 -5.71254 0
M  V30 9775 H 900.961 1.97401 -6.67837 0
M  V30 9776 H 898.588 1.83948 -7.37609 0
M  V30 9777 N 900.163 1.21714 1.00117 0
M  V30 9778 C 901.095 0.937627 2.09144 0
M  V30 9779 C 902.108 -0.0806291 1.626 0
M  V30 9780 O 903.297 0.152348 1.77849 0
M  V30 9781 C 900.397 0.387036 3.36683 0
M  V30 9782 C 899.57 1.46054 4.12295 0
M  V30 9783 C 898.629 0.918505 5.18122 0
M  V30 9784 O 897.655 1.60282 5.46167 0
M  V30 9785 N 898.857 -0.264308 5.79898 0
M  V30 9786 H 901.622 1.87622 2.33705 0
M  V30 9787 H 899.183 1.12291 1.16629 0
M  V30 9788 H 901.175 0.00992825 4.04699 0
M  V30 9789 H 899.745 -0.456467 3.09249 0
M  V30 9790 H 898.965 2.01133 3.39027 0
M  V30 9791 H 900.253 2.18306 4.59587 0
M  V30 9792 H 899.651 -0.837242 5.5947 0
M  V30 9793 H 898.208 -0.582886 6.49188 0
M  V30 9794 N 901.641 -1.19671 1.02551 0
M  V30 9795 C 902.871 -1.92952 0.738441 0
M  V30 9796 C 903.279 -1.75528 -0.706155 0
M  V30 9797 O 902.622 -1.0723 -1.49156 0
M  V30 9798 C 902.684 -3.45149 1.00562 0
M  V30 9799 C 902.348 -3.86341 2.44109 0
M  V30 9800 C 903.345 -3.91374 3.42231 0
M  V30 9801 C 901.03 -4.18076 2.7842 0
M  V30 9802 C 903.024 -4.27568 4.7272 0
M  V30 9803 C 900.711 -4.53943 4.0912 0
M  V30 9804 C 901.709 -4.58663 5.06081 0
M  V30 9805 O 901.397 -4.93701 6.3444 0
M  V30 9806 H 901.129 -0.619836 0.269776 0
M  V30 9807 H 903.683 -1.52852 1.37206 0
M  V30 9808 H 901.913 -3.85416 0.314849 0
M  V30 9809 H 903.602 -3.99664 0.708742 0
M  V30 9810 H 904.368 -3.67011 3.17061 0
M  V30 9811 H 900.247 -4.13589 2.03631 0
M  V30 9812 H 903.791 -4.31166 5.48399 0
M  V30 9813 H 899.688 -4.77764 4.34064 0
M  V30 9814 H 900.456 -5.11662 6.38862 0
M  V30 9815 N 903.119 -0.802921 -1.35613 0
M  V30 9816 C 904.049 -0.225131 -2.32412 0
M  V30 9817 C 905.03 0.647383 -1.57299 0
M  V30 9818 O 906.215 0.578414 -1.85386 0
M  V30 9819 C 903.345 0.630085 -3.41537 0
M  V30 9820 C 902.299 -0.143635 -4.27759 0
M  V30 9821 C 901.625 0.833046 -5.28171 0
M  V30 9822 C 902.925 -1.34054 -5.04804 0
M  V30 9823 H 904.619 -1.03385 -2.80984 0
M  V30 9824 H 902.165 -0.498593 -1.35093 0
M  V30 9825 H 904.118 1.04433 -4.08254 0
M  V30 9826 H 902.842 1.47165 -2.91565 0
M  V30 9827 H 901.501 -0.539015 -3.62616 0
M  V30 9828 H 901.149 1.67001 -4.74468 0
M  V30 9829 H 900.849 0.319697 -5.8673 0
M  V30 9830 H 902.373 1.24558 -5.97761 0
M  V30 9831 H 903.787 -1.00136 -5.64487 0
M  V30 9832 H 902.184 -1.78812 -5.72841 0
M  V30 9833 H 903.254 -2.12906 -4.35659 0
M  V30 9834 N 904.597 1.47463 -0.556102 0
M  V30 9835 C 905.527 2.32801 0.180497 0
M  V30 9836 C 906.508 1.43721 0.909848 0
M  V30 9837 O 907.693 1.72578 0.89053 0
M  V30 9838 C 904.823 3.25478 1.21167 0
M  V30 9839 C 903.777 4.2379 0.598846 0
M  V30 9840 C 903.103 5.05783 1.73457 0
M  V30 9841 C 904.403 5.20387 -0.446659 0
M  V30 9842 H 906.097 2.94636 -0.531956 0
M  V30 9843 H 903.643 1.41683 -0.257267 0
M  V30 9844 H 905.596 3.8402 1.73513 0
M  V30 9845 H 904.32 2.61695 1.95405 0
M  V30 9846 H 902.979 3.66472 0.0966897 0
M  V30 9847 H 902.627 4.38405 2.46596 0
M  V30 9848 H 902.327 5.72343 1.33031 0
M  V30 9849 H 903.851 5.67183 2.26131 0
M  V30 9850 H 905.265 5.73299 -0.00930019 0
M  V30 9851 H 903.662 5.95143 -0.769735 0
M  V30 9852 H 904.732 4.65932 -1.34295 0
M  V30 9853 N 906.075 0.2925 1.54862 0
M  V30 9854 C 907.007 -0.620889 2.2063 0
M  V30 9855 C 908.02 -1.10412 1.19637 0
M  V30 9856 O 909.209 -1.02304 1.46274 0
M  V30 9857 C 906.309 -1.861 2.83232 0
M  V30 9858 C 905.482 -1.52168 4.10078 0
M  V30 9859 C 904.541 -2.61605 4.56562 0
M  V30 9860 O 903.567 -2.27056 5.21952 0
M  V30 9861 N 904.769 -3.9199 4.28163 0
M  V30 9862 H 907.534 -0.0579028 2.99644 0
M  V30 9863 H 905.095 0.114333 1.61496 0
M  V30 9864 H 907.087 -2.58642 3.11266 0
M  V30 9865 H 905.657 -2.33259 2.08108 0
M  V30 9866 H 904.877 -0.629283 3.89145 0
M  V30 9867 H 906.165 -1.27023 4.92689 0
M  V30 9868 H 905.563 -4.22872 3.7576 0
M  V30 9869 H 904.12 -4.60857 4.60928 0
M  V30 9870 N 907.553 -1.57587 0.0200696 0
M  V30 9871 C 908.483 -2.12702 -0.963333 0
M  V30 9872 C 909.464 -1.04094 -1.34531 0
M  V30 9873 O 910.649 -1.31881 -1.42552 0
M  V30 9874 C 907.779 -2.64673 -2.24868 0
M  V30 9875 C 906.733 -3.77987 -2.00772 0
M  V30 9876 C 906.059 -4.16351 -3.35494 0
M  V30 9877 C 907.359 -5.0444 -1.35416 0
M  V30 9878 H 909.053 -2.95121 -0.504363 0
M  V30 9879 H 906.599 -1.41966 -0.24116 0
M  V30 9880 H 908.552 -3.01862 -2.94036 0
M  V30 9881 H 907.276 -1.79403 -2.72914 0
M  V30 9882 H 905.935 -3.41223 -1.34025 0
M  V30 9883 H 905.583 -3.28075 -3.81282 0
M  V30 9884 H 905.283 -4.92705 -3.20181 0
M  V30 9885 H 906.807 -4.56115 -4.05945 0
M  V30 9886 H 908.221 -5.39273 -1.94571 0
M  V30 9887 H 906.618 -5.85732 -1.30529 0
M  V30 9888 H 907.688 -4.83803 -0.325923 0
M  V30 9889 N 909.032 0.252966 -1.55557 0
M  V30 9890 C 910.278 0.983306 -1.77367 0
M  V30 9891 C 910.611 1.85203 -0.584258 0
M  V30 9892 O 909.886 1.89963 0.417644 0
M  V30 9893 C 910.169 1.84896 -3.09007 0
M  V30 9894 C 910.022 1.00883 -4.38341 0
M  V30 9895 C 911.341 2.83254 -3.36831 0
M  V30 9896 H 908.46 0.356056 -0.645286 0
M  V30 9897 H 911.102 0.254232 -1.88291 0
M  V30 9898 H 909.252 2.47058 -2.99825 0
M  V30 9899 H 910.924 0.40638 -4.59507 0
M  V30 9900 H 909.167 0.31297 -4.3267 0
M  V30 9901 H 909.838 1.64818 -5.2682 0
M  V30 9902 H 912.314 2.31228 -3.45937 0
M  V30 9903 H 911.19 3.40949 -4.30169 0
M  V30 9904 H 911.451 3.59407 -2.57447 0
M  V30 9905 N 910.51 1.48831 0.518367 0
M  V30 9906 C 911.442 1.60317 1.63802 0
M  V30 9907 C 912.455 0.486771 1.55352 0
M  V30 9908 O 913.644 0.758111 1.61601 0
M  V30 9909 C 910.744 1.52771 3.02513 0
M  V30 9910 C 909.917 2.79649 3.36326 0
M  V30 9911 C 908.976 2.65396 4.54369 0
M  V30 9912 O 908.002 3.39304 4.57013 0
M  V30 9913 N 909.204 1.75784 5.53245 0
M  V30 9914 H 911.969 2.56878 1.54383 0
M  V30 9915 H 909.53 1.45701 0.705889 0
M  V30 9916 H 911.522 1.40914 3.79375 0
M  V30 9917 H 910.092 0.641381 3.05949 0
M  V30 9918 H 909.312 3.05985 2.48529 0
M  V30 9919 H 910.6 3.63799 3.55707 0
M  V30 9920 H 909.998 1.14961 5.53896 0
M  V30 9921 H 908.555 1.69859 6.29278 0
M  V30 9922 N 911.988 -0.768124 1.37614 0
M  V30 9923 C 913.234 -1.52907 1.33219 0
M  V30 9924 C 913.567 -1.94026 -0.0821218 0
M  V30 9925 O 912.842 -1.64345 -1.04023 0
M  V30 9926 C 913.125 -2.79164 2.27463 0
M  V30 9927 C 912.978 -2.44276 3.7769 0
M  V30 9928 C 914.297 -3.81115 2.20089 0
M  V30 9929 H 911.416 -0.554712 0.485246 0
M  V30 9930 H 914.058 -0.880911 1.68345 0
M  V30 9931 H 912.208 -3.34472 1.97639 0
M  V30 9932 H 913.88 -1.94855 4.18126 0
M  V30 9933 H 912.123 -1.76925 3.96081 0
M  V30 9934 H 912.794 -3.34544 4.39072 0
M  V30 9935 H 915.27 -3.35311 2.46386 0
M  V30 9936 H 914.146 -4.67174 2.88166 0
M  V30 9937 H 914.407 -4.25644 1.19498 0
M  V30 9938 N 913.466 -1.22244 -0.994698 0
M  V30 9939 C 914.396 -1.01513 -2.10279 0
M  V30 9940 C 915.377 0.0633365 -1.69982 0
M  V30 9941 O 916.562 -0.0985268 -1.9395 0
M  V30 9942 C 913.692 -0.59016 -3.42249 0
M  V30 9943 C 912.646 -1.61436 -3.96387 0
M  V30 9944 C 911.972 -1.04528 -5.24383 0
M  V30 9945 C 913.272 -3.00388 -4.27276 0
M  V30 9946 H 914.966 -1.94194 -2.2788 0
M  V30 9947 H 912.512 -0.935094 -1.09508 0
M  V30 9948 H 914.465 -0.432254 -4.19177 0
M  V30 9949 H 913.189 0.372308 -3.24471 0
M  V30 9950 H 911.848 -1.76001 -3.21589 0
M  V30 9951 H 911.496 -0.0742225 -5.02945 0
M  V30 9952 H 911.196 -1.72949 -5.61571 0
M  V30 9953 H 912.72 -0.898922 -6.03947 0
M  V30 9954 H 914.134 -2.89207 -4.95007 0
M  V30 9955 H 912.531 -3.65916 -4.75631 0
M  V30 9956 H 913.601 -3.50456 -3.35125 0
M  V30 9957 N 914.944 1.19125 -1.03184 0
M  V30 9958 C 915.891 2.2245 -0.6152 0
M  V30 9959 C 916.861 1.61869 0.372502 0
M  V30 9960 O 918.046 1.88901 0.268491 0
M  V30 9961 C 915.186 3.45091 0.0248027 0
M  V30 9962 C 914.299 4.20044 -1.0093 0
M  V30 9963 C 913.434 5.30119 -0.338744 0
M  V30 9964 C 912.473 5.96833 -1.35855 0
M  V30 9965 N 911.61 6.98464 -0.713594 0
M  V30 9966 H 916.45 2.57445 -1.50086 0
M  V30 9967 H 913.987 1.26485 -0.751005 0
M  V30 9968 H 915.945 4.15149 0.413131 0
M  V30 9969 H 914.575 3.10742 0.874028 0
M  V30 9970 H 913.627 3.48901 -1.51566 0
M  V30 9971 H 914.939 4.65796 -1.78425 0
M  V30 9972 H 914.093 6.0661 0.104269 0
M  V30 9973 H 912.832 4.85446 0.468382 0
M  V30 9974 H 911.837 5.1909 -1.81179 0
M  V30 9975 H 913.062 6.4359 -2.16722 0
M  V30 9976 H 911.008 6.55959 0.0733863 0
M  V30 9977 H 910.925 7.42422 -1.42638 0
M  V30 9978 H 912.193 7.78943 -0.294681 0
M  V30 9979 N 916.422 0.810101 1.35185 0
M  V30 9980 C 917.652 0.404109 2.02609 0
M  V30 9981 C 918.06 -0.990748 1.61186 0
M  V30 9982 O 917.403 -1.65038 0.80674 0
M  V30 9983 C 917.465 0.412047 3.57131 0
M  V30 9984 C 917.129 1.75802 4.21832 0
M  V30 9985 C 918.126 2.71687 4.43263 0
M  V30 9986 C 915.811 2.04299 4.58876 0
M  V30 9987 C 917.805 3.9425 5.00845 0
M  V30 9988 C 915.492 3.27125 5.16171 0
M  V30 9989 C 916.49 4.21918 5.37098 0
M  V30 9990 O 916.178 5.42576 5.93184 0
M  V30 9991 H 915.91 0.161914 0.656323 0
M  V30 9992 H 918.464 1.09605 1.73712 0
M  V30 9993 H 916.694 -0.336509 3.85233 0
M  V30 9994 H 918.383 0.0278817 4.0589 0
M  V30 9995 H 919.149 2.50964 4.15021 0
M  V30 9996 H 915.028 1.31324 4.41899 0
M  V30 9997 H 918.572 4.68251 5.17094 0
M  V30 9998 H 914.469 3.47718 5.43841 0
M  V30 9999 H 915.237 5.43921 6.11631 0
M  V30 10000 N 917.9 -1.47166 0.563914 0
M  V30 10001 C 918.81 -2.33885 -0.182977 0
M  V30 10002 C 919.826 -1.48605 -0.905132 0
M  V30 10003 O 921.002 -1.81518 -0.872527 0
M  V30 10004 C 918.067 -3.25433 -1.19558 0
M  V30 10005 C 917.128 -4.26607 -0.480129 0
M  V30 10006 C 916.361 -5.1378 -1.44449 0
M  V30 10007 O 916.584 -5.03531 -2.67979 0
M  V30 10008 O 915.518 -5.94109 -0.965321 0
M  V30 10009 H 919.344 -2.99065 0.528544 0
M  V30 10010 H 916.929 -1.45834 0.324468 0
M  V30 10011 H 918.811 -3.81964 -1.77993 0
M  V30 10012 H 917.486 -2.62873 -1.8889 0
M  V30 10013 H 916.393 -3.73817 0.145583 0
M  V30 10014 H 917.726 -4.919 0.171868 0
M  V30 10015 N 919.378 -0.300708 -1.54705 0
M  V30 10016 C 920.603 0.314073 -2.05008 0
M  V30 10017 C 921.028 1.46759 -1.17657 0
M  V30 10018 O 920.386 1.80398 -0.180598 0
M  V30 10019 C 920.434 0.748243 -3.52752 0
M  V30 10020 O 919.538 1.85305 -3.68424 0
M  V30 10021 H 918.879 0.0610139 -0.661191 0
M  V30 10022 H 921.409 -0.442467 -1.99758 0
M  V30 10023 H 921.419 1.03713 -3.94598 0
M  V30 10024 H 920.094 -0.095573 -4.1579 0
M  V30 10025 H 918.671 1.56473 -3.38483 0
M  V30 10026 N 920.856 1.57574 -0.0284266 0
M  V30 10027 C 922.086 1.95787 0.659617 0
M  V30 10028 C 922.494 0.903475 1.66235 0
M  V30 10029 O 921.837 -0.12329 1.83286 0
M  V30 10030 C 921.899 3.30139 1.42298 0
M  V30 10031 C 921.563 4.53322 0.578658 0
M  V30 10032 C 922.56 5.19696 -0.145751 0
M  V30 10033 C 920.245 4.9964 0.516264 0
M  V30 10034 C 922.239 6.30708 -0.921235 0
M  V30 10035 C 919.926 6.10534 -0.262925 0
M  V30 10036 C 920.924 6.75927 -0.980382 0
M  V30 10037 O 920.612 7.84692 -1.7468 0
M  V30 10038 H 920.344 0.649681 0.186792 0
M  V30 10039 H 922.898 2.05227 -0.0842687 0
M  V30 10040 H 921.128 3.17188 2.21199 0
M  V30 10041 H 922.817 3.53259 1.99906 0
M  V30 10042 H 923.583 4.84882 -0.106876 0
M  V30 10043 H 919.462 4.48547 1.06427 0
M  V30 10044 H 923.006 6.81682 -1.48176 0
M  V30 10045 H 918.903 6.44786 -0.303519 0
M  V30 10046 H 919.671 8.01355 -1.6665 0
M  V30 10047 N 922.334 -0.244713 1.55689 0
M  V30 10048 C 923.264 -1.30667 1.93516 0
M  V30 10049 C 924.245 -1.50094 0.800371 0
M  V30 10050 O 925.43 -1.62665 1.06083 0
M  V30 10051 C 922.56 -2.66101 2.23176 0
M  V30 10052 C 921.514 -2.61366 3.38927 0
M  V30 10053 C 920.84 -4.00616 3.54134 0
M  V30 10054 C 922.14 -2.18161 4.74555 0
M  V30 10055 H 923.834 -0.992546 2.82469 0
M  V30 10056 H 921.38 -0.476018 1.35905 0
M  V30 10057 H 923.333 -3.4053 2.48228 0
M  V30 10058 H 922.057 -2.99154 1.31051 0
M  V30 10059 H 920.716 -1.89395 3.13887 0
M  V30 10060 H 920.364 -4.30938 2.59426 0
M  V30 10061 H 920.064 -3.98335 4.31975 0
M  V30 10062 H 921.588 -4.76741 3.8151 0
M  V30 10063 H 923.002 -2.82323 4.98965 0
M  V30 10064 H 921.399 -2.26988 5.55515 0
M  V30 10065 H 922.469 -1.13333 4.7147 0
M  V30 10066 N 923.813 -1.49104 -0.510467 0
M  V30 10067 C 925.09 -1.48609 -1.27179 0
M  V30 10068 C 925.47 -0.208537 -2.10067 0
M  V30 10069 O 924.818 0.809335 -2.13687 0
M  V30 10070 C 925.028 -2.75953 -2.1366 0
M  V30 10071 C 926.376 -3.25067 -2.73161 0
M  V30 10072 O 927.4 -2.77005 -2.23934 0
M  V30 10073 O 926.259 -4.08747 -3.62751 0
M  V30 10074 H 923.353 -0.594374 -0.57502 0
M  V30 10075 H 925.899 -1.61358 -0.525515 0
M  V30 10076 H 924.671 -3.60434 -1.52325 0
M  V30 10077 H 924.294 -2.66019 -2.95499 0
M  V30 10078 N 925.291 0.760815 -1.38019 0
M  V30 10079 C 926.531 1.53264 -1.35239 0
M  V30 10080 C 926.895 1.91908 0.0595038 0
M  V30 10081 O 928.096 2.67962 0.212122 0
M  V30 10082 C 926.367 2.75643 -2.27499 0
M  V30 10083 S 927.926 3.6559 -2.42672 0
M  V30 10084 H 924.744 0.52457 -0.479945 0
M  V30 10085 H 927.346 0.893737 -1.73875 0
M  V30 10086 H 926.05 2.4535 -3.28986 0
M  V30 10087 H 925.581 3.44483 -1.89987 0
M  V30 10088 H 927.596 4.68124 -1.64542 0
M  V30 10089 N 926.769 1.22769 0.988202 0
M  V30 10090 C 927.679 1.01844 2.11341 0
M  V30 10091 C 928.695 -0.0346937 1.73965 0
M  V30 10092 O 929.871 0.159061 2.00771 0
M  V30 10093 C 926.936 0.603837 3.41401 0
M  V30 10094 C 925.997 1.73113 3.92849 0
M  V30 10095 C 925.23 1.33621 5.16702 0
M  V30 10096 O 925.453 0.217041 5.69987 0
M  V30 10097 O 924.387 2.15444 5.62021 0
M  V30 10098 H 928.213 1.96127 2.31879 0
M  V30 10099 H 925.798 1.01405 1.09715 0
M  V30 10100 H 927.68 0.383196 4.19654 0
M  V30 10101 H 926.355 -0.310082 3.22211 0
M  V30 10102 H 925.262 2.00634 3.15748 0
M  V30 10103 H 926.595 2.62308 4.1648 0
M  V30 10104 N 928.247 -1.18576 1.03814 0
M  V30 10105 C 929.177 -2.24334 0.647795 0
M  V30 10106 C 930.158 -1.66508 -0.34774 0
M  V30 10107 O 931.343 -1.92852 -0.228401 0
M  V30 10108 C 928.473 -3.47299 0.00734922 0
M  V30 10109 C 927.427 -4.17859 0.926152 0
M  V30 10110 C 926.753 -5.34489 0.150317 0
M  V30 10111 C 928.053 -4.71632 2.24411 0
M  V30 10112 H 929.747 -2.57241 1.53191 0
M  V30 10113 H 927.293 -1.23649 0.738028 0
M  V30 10114 H 929.246 -4.20486 -0.277434 0
M  V30 10115 H 927.97 -3.13619 -0.911626 0
M  V30 10116 H 926.629 -3.46567 1.19528 0
M  V30 10117 H 926.277 -4.97056 -0.770985 0
M  V30 10118 H 925.977 -5.82633 0.762407 0
M  V30 10119 H 927.501 -6.10467 -0.127508 0
M  V30 10120 H 928.915 -5.36526 2.02021 0
M  V30 10121 H 927.312 -5.303 2.80894 0
M  V30 10122 H 928.382 -3.89192 2.89236 0
M  V30 10123 N 929.725 -0.817259 -1.34754 0
M  V30 10124 C 930.953 -0.415451 -2.02686 0
M  V30 10125 C 931.368 0.97688 -1.61563 0
M  V30 10126 O 930.725 1.63125 -0.818321 0
M  V30 10127 C 930.776 -0.501486 -3.58005 0
M  V30 10128 O 930.497 -1.83893 -3.97637 0
M  V30 10129 C 931.998 -0.0938504 -4.43201 0
M  V30 10130 H 929.218 -0.16742 -0.649778 0
M  V30 10131 H 931.762 -1.10384 -1.7215 0
M  V30 10132 H 929.917 0.138766 -3.87151 0
M  V30 10133 H 930.331 -1.8092 -4.92309 0
M  V30 10134 H 931.805 -0.205145 -5.51619 0
M  V30 10135 H 932.282 0.962011 -4.28535 0
M  V30 10136 H 932.888 -0.707677 -4.19371 0
M  V30 10137 N 931.203 1.46865 -0.571711 0
M  V30 10138 C 932.15 2.30189 0.167808 0
M  V30 10139 C 933.12 1.3995 0.89461 0
M  V30 10140 O 934.305 1.68905 0.887451 0
M  V30 10141 C 931.445 3.24205 1.1826 0
M  V30 10142 C 930.558 4.2954 0.460376 0
M  V30 10143 C 929.693 5.10693 1.46173 0
M  V30 10144 C 928.732 6.07788 0.725291 0
M  V30 10145 N 927.869 6.81847 1.67417 0
M  V30 10146 H 932.709 2.92902 -0.548831 0
M  V30 10147 H 930.246 1.44362 -0.282474 0
M  V30 10148 H 932.204 3.77147 1.7837 0
M  V30 10149 H 930.834 2.63324 1.86709 0
M  V30 10150 H 929.886 3.79541 -0.255546 0
M  V30 10151 H 931.198 4.98665 -0.115855 0
M  V30 10152 H 930.352 5.67857 2.13595 0
M  V30 10153 H 929.091 4.41502 2.07188 0
M  V30 10154 H 928.096 5.49787 0.037228 0
M  V30 10155 H 929.321 6.78993 0.120678 0
M  V30 10156 H 927.267 6.15376 2.27263 0
M  V30 10157 H 927.184 7.47195 1.15046 0
M  V30 10158 H 928.452 7.43577 2.33908 0
M  V30 10159 N 932.681 0.308908 1.54543 0
M  V30 10160 C 933.928 -0.298036 2.00295 0
M  V30 10161 C 934.256 -1.53285 1.19724 0
M  V30 10162 O 933.511 -1.93917 0.263551 0
M  V30 10163 C 933.81 -0.691522 3.50646 0
M  V30 10164 C 933.476 0.442454 4.48724 0
M  V30 10165 C 932.138 0.753739 4.7526 0
M  V30 10166 C 934.49 1.20488 5.07082 0
M  V30 10167 C 931.818 1.83044 5.57415 0
M  V30 10168 C 934.17 2.27156 5.90409 0
M  V30 10169 C 932.834 2.58882 6.15253 0
M  V30 10170 H 932.104 -0.109059 0.73293 0
M  V30 10171 H 934.751 0.429647 1.86618 0
M  V30 10172 H 933.056 -1.49941 3.61974 0
M  V30 10173 H 934.753 -1.17244 3.83477 0
M  V30 10174 H 931.343 0.189744 4.2818 0
M  V30 10175 H 935.527 0.977653 4.86575 0
M  V30 10176 H 930.783 2.08088 5.749 0
M  V30 10177 H 934.957 2.86687 6.34652 0
M  V30 10178 H 932.584 3.42443 6.78702 0
M  V30 10179 N 934.159 -1.57557 0.0367827 0
M  V30 10180 C 935.089 -2.13712 -0.940719 0
M  V30 10181 C 936.07 -1.05515 -1.33419 0
M  V30 10182 O 937.255 -1.33385 -1.41146 0
M  V30 10183 C 934.385 -2.67043 -2.22048 0
M  V30 10184 C 933.339 -3.80096 -1.96752 0
M  V30 10185 C 932.665 -4.19886 -3.31059 0
M  V30 10186 C 933.965 -5.05848 -1.30058 0
M  V30 10187 H 935.659 -2.9564 -0.473033 0
M  V30 10188 H 933.205 -1.42214 -0.226089 0
M  V30 10189 H 935.158 -3.04964 -2.90818 0
M  V30 10190 H 933.882 -1.82287 -2.70996 0
M  V30 10191 H 932.541 -3.42625 -1.30398 0
M  V30 10192 H 932.189 -3.32101 -3.77781 0
M  V30 10193 H 931.889 -4.96073 -3.14937 0
M  V30 10194 H 933.413 -4.60395 -4.01084 0
M  V30 10195 H 934.827 -5.41306 -1.8884 0
M  V30 10196 H 933.224 -5.87084 -1.24309 0
M  V30 10197 H 934.294 -4.84122 -0.274591 0
M  V30 10198 N 935.637 0.236453 -1.55816 0
M  V30 10199 C 936.567 1.29639 -1.94206 0
M  V30 10200 C 937.548 1.49667 -0.808319 0
M  V30 10201 O 938.733 1.621 -1.06945 0
M  V30 10202 C 935.863 2.64914 -2.24584 0
M  V30 10203 C 934.817 2.59565 -3.40308 0
M  V30 10204 C 934.143 3.98732 -3.56254 0
M  V30 10205 C 935.443 2.15642 -4.75706 0
M  V30 10206 H 937.137 0.977552 -2.82992 0
M  V30 10207 H 934.683 0.468804 -1.36155 0
M  V30 10208 H 936.636 3.39209 -2.50031 0
M  V30 10209 H 935.36 2.98455 -1.32636 0
M  V30 10210 H 934.019 1.87728 -3.14887 0
M  V30 10211 H 933.667 4.29556 -2.61707 0
M  V30 10212 H 933.367 3.96039 -4.34082 0
M  V30 10213 H 934.891 4.74711 -3.84033 0
M  V30 10214 H 936.305 2.79673 -5.00456 0
M  V30 10215 H 934.702 2.24039 -5.56711 0
M  V30 10216 H 935.772 1.10831 -4.72064 0
M  V30 10217 N 937.115 1.49373 0.502552 0
M  V30 10218 C 938.392 1.49282 1.26389 0
M  V30 10219 C 938.772 0.219674 2.09954 0
M  V30 10220 O 938.12 -0.797991 2.14113 0
M  V30 10221 C 938.33 2.77083 2.12194 0
M  V30 10222 C 939.678 3.26511 2.71433 0
M  V30 10223 O 940.702 2.78189 2.22462 0
M  V30 10224 O 939.561 4.10665 3.60578 0
M  V30 10225 H 936.655 0.597415 0.57186 0
M  V30 10226 H 939.201 1.61634 0.516951 0
M  V30 10227 H 937.973 3.61237 1.50411 0
M  V30 10228 H 937.596 2.67583 2.94084 0
M  V30 10229 N 938.594 -0.753485 1.38421 0
M  V30 10230 C 940.01 -1.05656 1.1962 0
M  V30 10231 C 940.21 -2.0145 0.0449443 0
M  V30 10232 O 939.266 -2.45039 -0.609253 0
M  V30 10233 C 940.579 -1.63655 2.52265 0
M  V30 10234 C 942.127 -1.75825 2.58949 0
M  V30 10235 C 942.602 -2.37236 3.91769 0
M  V30 10236 N 944.093 -2.44666 3.9331 0
M  V30 10237 C 944.828 -2.93077 4.92842 0
M  V30 10238 N 944.324 -3.41523 6.02772 0
M  V30 10239 N 946.117 -2.92118 4.80232 0
M  V30 10240 H 938.268 -0.117799 2.12073 0
M  V30 10241 H 940.531 -0.114889 0.941012 0
M  V30 10242 H 940.237 -1.00734 3.36965 0
M  V30 10243 H 940.111 -2.62715 2.70667 0
M  V30 10244 H 942.498 -2.37873 1.74644 0
M  V30 10245 H 942.579 -0.754693 2.44414 0
M  V30 10246 H 942.223 -1.75822 4.76497 0
M  V30 10247 H 942.153 -3.38233 4.03616 0
M  V30 10248 H 944.644 -2.10403 3.1391 0
M  V30 10249 H 944.957 -3.76919 6.74649 0
M  V30 10250 H 943.302 -3.3958 6.06391 0
M  V30 10251 H 946.493 -2.53582 3.93464 0
M  V30 10252 H 946.666 -3.29535 5.57952 0
M  V30 10253 N 940.072 -1.23292 -0.981677 0
M  V30 10254 C 941.035 -1.01417 -2.05542 0
M  V30 10255 C 942.035 0.0235354 -1.60783 0
M  V30 10256 O 943.225 -0.216082 -1.72855 0
M  V30 10257 C 940.357 -0.534239 -3.36688 0
M  V30 10258 H 941.55 -1.96702 -2.26381 0
M  V30 10259 H 939.103 -1.05318 -1.1549 0
M  V30 10260 H 939.838 0.422452 -3.21537 0
M  V30 10261 H 939.623 -1.28304 -3.70514 0
M  V30 10262 H 941.113 -0.40179 -4.15663 0
M  V30 10263 N 941.55 1.18024 -1.04442 0
M  V30 10264 C 942.48 2.23988 -0.659683 0
M  V30 10265 C 943.461 1.6669 0.338904 0
M  V30 10266 O 944.646 1.92971 0.21817 0
M  V30 10267 C 941.776 3.4729 -0.0257672 0
M  V30 10268 C 940.73 4.17362 -0.948299 0
M  V30 10269 C 940.056 5.34401 -0.17866 0
M  V30 10270 C 941.356 4.70435 -2.26909 0
M  V30 10271 H 943.05 2.56425 -1.54553 0
M  V30 10272 H 940.596 1.23256 -0.744575 0
M  V30 10273 H 942.549 4.20627 0.255131 0
M  V30 10274 H 941.273 3.14098 0.894981 0
M  V30 10275 H 939.932 3.45928 -1.21364 0
M  V30 10276 H 939.58 4.97458 0.744614 0
M  V30 10277 H 939.28 5.8222 -0.793294 0
M  V30 10278 H 940.804 6.10526 0.0951315 0
M  V30 10279 H 942.218 5.35447 -2.04864 0
M  V30 10280 H 940.615 5.28803 -2.83703 0
M  V30 10281 H 941.685 3.87653 -2.91296 0
M  V30 10282 N 943.028 0.824394 1.34319 0
M  V30 10283 C 943.991 0.252696 2.27803 0
M  V30 10284 C 944.991 -0.570254 1.50349 0
M  V30 10285 O 946.181 -0.386145 1.69866 0
M  V30 10286 C 943.313 -0.645575 3.34731 0
M  V30 10287 H 944.506 1.07742 2.79878 0
M  V30 10288 H 942.059 0.596367 1.44475 0
M  V30 10289 H 942.794 -1.4933 2.87873 0
M  V30 10290 H 942.579 -0.0569478 3.92059 0
M  V30 10291 H 944.069 -1.03933 4.0446 0
M  V30 10292 N 944.506 -1.46559 0.579492 0
M  V30 10293 C 945.454 -2.3199 -0.168413 0
M  V30 10294 C 946.448 -1.44288 -0.887551 0
M  V30 10295 O 947.654 -1.60931 -0.806305 0
M  V30 10296 H 944.029 -0.748431 -0.0731799 0
M  V30 10297 H 946 -2.92886 0.570973 0
M  V30 10298 C 944.749 -3.27392 -1.1709 0
M  V30 10299 H 944.072 -3.94853 -0.626958 0
M  V30 10300 H 945.512 -3.89955 -1.66467 0
M  V30 10301 C 943.971 -2.52511 -2.23024 0
M  V30 10302 O 944.501 -2.2858 -3.30324 0
M  V30 10303 N 942.707 -2.1313 -1.97545 0
M  V30 10304 H 942.254 -2.32793 -1.10297 0
M  V30 10305 H 942.212 -1.63348 -2.68635 0
M  V30 10306 N 945.984 -0.3171 -1.54377 0
M  V30 10307 C 947.4 0.035766 -1.5956 0
M  V30 10308 C 947.6 1.51038 -1.33378 0
M  V30 10309 O 946.656 2.26546 -1.11505 0
M  V30 10310 C 947.969 -0.376652 -2.98332 0
M  V30 10311 C 949.517 -0.326765 -3.1129 0
M  V30 10312 C 949.992 -0.714247 -4.52396 0
M  V30 10313 N 951.483 -0.667402 -4.58367 0
M  V30 10314 C 952.218 -0.939494 -5.65651 0
M  V30 10315 N 951.714 -1.27839 -6.80903 0
M  V30 10316 N 953.507 -0.865484 -5.55397 0
M  V30 10317 H 945.658 -1.27794 -1.69654 0
M  V30 10318 H 947.921 -0.5192 -0.79318 0
M  V30 10319 H 947.627 -1.40381 -3.22469 0
M  V30 10320 H 947.501 0.261611 -3.76292 0
M  V30 10321 H 949.888 0.69117 -2.86892 0
M  V30 10322 H 949.969 -0.999873 -2.35449 0
M  V30 10323 H 949.613 -1.73007 -4.77526 0
M  V30 10324 H 949.543 -0.0188962 -5.26597 0
M  V30 10325 H 952.034 -0.417062 -3.75592 0
M  V30 10326 H 952.347 -1.47155 -7.5866 0
M  V30 10327 H 950.692 -1.31658 -6.82416 0
M  V30 10328 H 953.883 -0.600265 -4.64235 0
M  V30 10329 H 954.056 -1.0809 -6.38921 0
M  V30 10330 N 947.462 1.57535 -0.0451378 0
M  V30 10331 C 948.409 2.11176 0.931313 0
M  V30 10332 C 949.379 1.01765 1.31275 0
M  V30 10333 O 950.564 1.29279 1.40327 0
M  V30 10334 C 947.704 2.65639 2.20295 0
M  V30 10335 C 946.817 3.89114 1.87654 0
M  V30 10336 C 945.952 4.31914 3.09232 0
M  V30 10337 C 944.991 5.48105 2.72484 0
M  V30 10338 N 944.128 5.85986 3.86736 0
M  V30 10339 H 948.968 2.94318 0.466986 0
M  V30 10340 H 946.505 1.45462 0.218886 0
M  V30 10341 H 948.463 2.95312 2.94697 0
M  V30 10342 H 947.093 1.85303 2.64316 0
M  V30 10343 H 946.145 3.6607 1.03427 0
M  V30 10344 H 947.457 4.7358 1.56601 0
M  V30 10345 H 946.611 4.63108 3.91939 0
M  V30 10346 H 945.35 3.46247 3.43459 0
M  V30 10347 H 944.355 5.16589 1.88192 0
M  V30 10348 H 945.58 6.35482 2.39455 0
M  V30 10349 H 943.526 5.03273 4.20775 0
M  V30 10350 H 943.443 6.65129 3.5936 0
M  V30 10351 H 944.711 6.21793 4.701 0
M  V30 10352 N 948.94 -0.228186 1.55939 0
M  V30 10353 C 950.189 -0.951563 1.77843 0
M  V30 10354 C 950.502 -1.85763 0.612501 0
M  V30 10355 O 951.708 -2.61916 0.715006 0
M  V30 10356 C 950.164 -1.74216 3.14923 0
M  V30 10357 C 949.772 -0.882569 4.39221 0
M  V30 10358 C 951.516 -2.45715 3.46156 0
M  V30 10359 C 949.423 -1.67014 5.67327 0
M  V30 10360 H 948.353 -0.359035 0.663031 0
M  V30 10361 H 951.004 -0.205636 1.82344 0
M  V30 10362 H 949.386 -2.53075 3.0458 0
M  V30 10363 H 950.56 -0.13499 4.60602 0
M  V30 10364 H 948.875 -0.280022 4.15457 0
M  V30 10365 H 951.472 -3.05127 4.39092 0
M  V30 10366 H 951.815 -3.1827 2.68346 0
M  V30 10367 H 952.348 -1.73852 3.57799 0
M  V30 10368 H 949.087 -0.987985 6.48012 0
M  V30 10369 H 948.607 -2.3925 5.50018 0
M  V30 10370 H 950.286 -2.23252 6.07262 0
M  V30 10371 N 950.418 -1.49637 -0.494624 0
M  V30 10372 C 951.666 -1.5913 -1.24587 0
M  V30 10373 C 951.987 -0.282828 -1.92938 0
M  V30 10374 O 951.257 0.69825 -1.83034 0
M  V30 10375 H 949.837 -0.586329 -0.462847 0
M  V30 10376 H 952.499 -1.86296 -0.572696 0
M  V30 10377 H 951.595 -2.3906 -2.00641 0
M  V30 10378 N 951.896 0.746133 -1.38819 0
M  V30 10379 C 952.846 1.85085 -1.33145 0
M  V30 10380 C 953.83 1.59466 -0.214339 0
M  V30 10381 O 955.022 1.71159 -0.450943 0
M  V30 10382 C 952.151 3.22884 -1.16623 0
M  V30 10383 C 951.237 3.54369 -2.32988 0
M  V30 10384 N 951.628 3.56863 -3.58445 0
M  V30 10385 C 949.926 3.84674 -2.25703 0
M  V30 10386 C 950.627 3.85827 -4.3533 0
M  V30 10387 N 949.603 4.03037 -3.64777 0
M  V30 10388 H 953.405 1.85301 -2.28124 0
M  V30 10389 H 950.919 0.943847 -1.32156 0
M  V30 10390 H 952.916 4.0195 -1.10642 0
M  V30 10391 H 951.576 3.23914 -0.225841 0
M  V30 10392 H 952.587 3.38443 -3.92017 0
M  V30 10393 H 949.264 3.93375 -1.39864 0
M  V30 10394 H 950.654 3.94317 -5.44025 0
M  V30 10395 N 953.375 1.23811 0.975125 0
M  V30 10396 C 954.622 1.07336 1.71712 0
M  V30 10397 C 954.95 -0.388954 1.90571 0
M  V30 10398 O 954.205 -1.30409 1.45918 0
M  V30 10399 C 954.504 1.74994 3.11628 0
M  V30 10400 C 954.17 3.24918 3.12632 0
M  V30 10401 C 952.832 3.65822 3.12614 0
M  V30 10402 C 955.184 4.20797 3.07538 0
M  V30 10403 C 952.512 5.01054 3.05224 0
M  V30 10404 C 954.864 5.56027 3.0169 0
M  V30 10405 C 953.528 5.96287 2.99996 0
M  V30 10406 H 952.798 0.392771 0.62834 0
M  V30 10407 H 955.445 1.53815 1.14075 0
M  V30 10408 H 953.75 1.20889 3.72684 0
M  V30 10409 H 955.447 1.5972 3.67819 0
M  V30 10410 H 952.037 2.92359 3.13407 0
M  V30 10411 H 956.221 3.902 3.06688 0
M  V30 10412 H 951.477 5.31454 3.02268 0
M  V30 10413 H 955.651 6.3003 2.96706 0
M  V30 10414 H 953.278 7.01037 2.94025 0
M  V30 10415 N 954.853 -1.17469 1.05066 0
M  V30 10416 C 955.783 -2.23635 0.671552 0
M  V30 10417 C 956.764 -1.66867 -0.33006 0
M  V30 10418 O 957.949 -1.93084 -0.207933 0
M  V30 10419 C 955.079 -3.47272 0.0441845 0
M  V30 10420 C 954.033 -4.16854 0.97042 0
M  V30 10421 C 953.359 -5.34299 0.206998 0
M  V30 10422 C 954.659 -4.69225 2.29401 0
M  V30 10423 H 956.353 -2.55602 1.55911 0
M  V30 10424 H 953.899 -1.2286 0.751101 0
M  V30 10425 H 955.852 -4.20756 -0.23282 0
M  V30 10426 H 954.576 -3.14568 -0.878311 0
M  V30 10427 H 953.235 -3.4528 1.23197 0
M  V30 10428 H 952.883 -4.97846 -0.718222 0
M  V30 10429 H 952.583 -5.81792 0.82416 0
M  V30 10430 H 954.107 -6.10568 -0.0627525 0
M  V30 10431 H 955.521 -5.34353 2.077 0
M  V30 10432 H 953.918 -5.27291 2.86503 0
M  V30 10433 H 954.988 -3.86102 2.93348 0
M  V30 10434 N 956.331 -0.831506 -1.3388 0
M  V30 10435 C 957.578 -0.423674 -1.98018 0
M  V30 10436 C 957.906 1.01533 -1.65895 0
M  V30 10437 O 957.161 1.72342 -0.927183 0
M  V30 10438 C 957.46 -0.582733 -3.52617 0
M  V30 10439 C 957.126 -1.98874 -4.04673 0
M  V30 10440 C 955.788 -2.37334 -4.186 0
M  V30 10441 C 958.14 -2.90745 -4.3257 0
M  V30 10442 C 955.468 -3.66984 -4.57755 0
M  V30 10443 C 957.82 -4.19868 -4.73174 0
M  V30 10444 C 956.484 -4.58294 -4.85307 0
M  V30 10445 H 955.754 -0.155033 -0.7246 0
M  V30 10446 H 958.401 -1.05711 -1.59679 0
M  V30 10447 H 956.706 0.134052 -3.91571 0
M  V30 10448 H 958.403 -0.247576 -4.00235 0
M  V30 10449 H 954.993 -1.68001 -3.94301 0
M  V30 10450 H 959.177 -2.62272 -4.2134 0
M  V30 10451 H 954.433 -3.9657 -4.65341 0
M  V30 10452 H 958.607 -4.91138 -4.93717 0
M  V30 10453 H 956.234 -5.58805 -5.15404 0
M  V30 10454 N 957.809 1.4625 -0.587256 0
M  V30 10455 C 959.055 2.0323 -0.0830359 0
M  V30 10456 C 959.41 1.45007 1.26455 0
M  V30 10457 O 958.703 0.607494 1.81714 0
M  V30 10458 C 958.897 3.57382 0.036328 0
M  V30 10459 C 958.726 4.30556 -1.29814 0
M  V30 10460 C 957.496 4.69285 -1.87349 0
M  V30 10461 C 959.694 4.63806 -2.22236 0
M  V30 10462 N 957.676 5.27229 -3.14488 0
M  V30 10463 C 959.047 5.22368 -3.33964 0
M  V30 10464 C 961.102 4.45738 -2.2186 0
M  V30 10465 C 959.805 5.64769 -4.45454 0
M  V30 10466 C 961.831 4.89158 -3.32383 0
M  V30 10467 C 961.193 5.47795 -4.42832 0
M  V30 10468 H 957.292 0.77856 -0.0732716 0
M  V30 10469 H 959.876 1.78343 -0.781152 0
M  V30 10470 H 958.047 3.81973 0.703621 0
M  V30 10471 H 959.779 4.01009 0.545347 0
M  V30 10472 H 956.534 4.5219 -1.40789 0
M  V30 10473 H 956.958 5.60719 -3.79372 0
M  V30 10474 H 961.6 3.99735 -1.37739 0
M  V30 10475 H 959.318 6.09748 -5.30314 0
M  V30 10476 H 962.904 4.76926 -3.33216 0
M  V30 10477 H 961.784 5.80778 -5.26941 0
M  V30 10478 N 959.287 0.325282 1.54207 0
M  V30 10479 C 960.237 -0.55548 2.2113 0
M  V30 10480 C 961.221 -1.0803 1.19241 0
M  V30 10481 O 962.413 -1.01703 1.44864 0
M  V30 10482 C 959.542 -1.71504 2.97391 0
M  V30 10483 C 958.628 -1.20503 4.0662 0
M  V30 10484 N 959.019 -0.414838 5.04096 0
M  V30 10485 C 957.317 -1.4836 4.20601 0
M  V30 10486 C 958.018 -0.140225 5.81531 0
M  V30 10487 N 956.994 -0.72683 5.38719 0
M  V30 10488 H 960.796 0.0555192 2.93848 0
M  V30 10489 H 958.31 0.131225 1.61869 0
M  V30 10490 H 960.307 -2.35781 3.43821 0
M  V30 10491 H 958.967 -2.3295 2.26195 0
M  V30 10492 H 959.978 -0.0575291 5.17868 0
M  V30 10493 H 956.655 -2.10378 3.60621 0
M  V30 10494 H 958.045 0.496026 6.70067 0
M  V30 10495 N 960.765 -1.57509 0.0534917 0
M  V30 10496 C 961.695 -2.14698 -0.917999 0
M  V30 10497 C 962.676 -1.06924 -1.32292 0
M  V30 10498 O 963.861 -1.34875 -1.39723 0
M  V30 10499 C 960.991 -2.69383 -2.19203 0
M  V30 10500 C 959.945 -3.82161 -1.9271 0
M  V30 10501 C 959.271 -4.23373 -3.26587 0
M  V30 10502 C 960.571 -5.07199 -1.24686 0
M  V30 10503 H 962.265 -2.96125 -0.44165 0
M  V30 10504 H 959.811 -1.42446 -0.210993 0
M  V30 10505 H 961.764 -3.08031 -2.87567 0
M  V30 10506 H 960.488 -1.85151 -2.69048 0
M  V30 10507 H 959.147 -3.43989 -1.26757 0
M  V30 10508 H 958.795 -3.36089 -3.74237 0
M  V30 10509 H 958.495 -4.99385 -3.09658 0
M  V30 10510 H 960.019 -4.64623 -3.96178 0
M  V30 10511 H 961.433 -5.43279 -1.83088 0
M  V30 10512 H 959.83 -5.88369 -1.18076 0
M  V30 10513 H 960.9 -4.84386 -0.223227 0
M  V30 10514 N 962.243 0.219913 -1.56058 0
M  V30 10515 C 963.659 0.569685 -1.49086 0
M  V30 10516 C 963.859 1.87066 -0.748903 0
M  V30 10517 O 962.915 2.50838 -0.289235 0
M  V30 10518 C 964.228 0.647397 -2.93648 0
M  V30 10519 C 965.776 0.737914 -3.04177 0
M  V30 10520 C 966.251 0.846957 -4.50101 0
M  V30 10521 N 967.742 0.911136 -4.5415 0
M  V30 10522 C 968.477 1.01525 -5.64341 0
M  V30 10523 N 967.973 1.0832 -6.8428 0
M  V30 10524 N 969.766 1.05051 -5.52196 0
M  V30 10525 H 961.917 -0.633778 -2.02724 0
M  V30 10526 H 964.18 -0.222583 -0.921499 0
M  V30 10527 H 963.886 -0.238987 -3.50887 0
M  V30 10528 H 963.76 1.51046 -3.45637 0
M  V30 10529 H 966.147 1.61474 -2.47002 0
M  V30 10530 H 966.228 -0.150845 -2.55355 0
M  V30 10531 H 965.872 -0.0254166 -5.07894 0
M  V30 10532 H 965.802 1.75116 -4.96631 0
M  V30 10533 H 968.293 0.868869 -3.67776 0
M  V30 10534 H 968.606 1.16247 -7.64007 0
M  V30 10535 H 966.951 1.05231 -6.86987 0
M  V30 10536 H 970.142 0.994086 -4.57423 0
M  V30 10537 H 970.315 1.12819 -6.38103 0
M  V30 10538 N 963.721 1.49897 0.486681 0
M  V30 10539 C 964.946 1.64106 1.26823 0
M  V30 10540 C 965.371 0.317967 1.85393 0
M  V30 10541 O 964.729 -0.71626 1.66551 0
M  V30 10542 C 964.777 2.72301 2.36399 0
M  V30 10543 O 963.881 2.32469 3.40634 0
M  V30 10544 H 963.222 0.548794 0.373793 0
M  V30 10545 H 965.752 1.96177 0.581017 0
M  V30 10546 H 965.762 2.94906 2.81948 0
M  V30 10547 H 964.437 3.68335 1.93137 0
M  V30 10548 H 963.014 2.20251 3.00905 0
M  V30 10549 N 965.199 -0.738761 1.39212 0
M  V30 10550 C 966.109 -1.88324 1.39897 0
M  V30 10551 C 967.125 -1.71494 0.294229 0
M  V30 10552 O 968.301 -1.94162 0.535087 0
M  V30 10553 C 965.366 -3.23871 1.23726 0
M  V30 10554 C 964.427 -3.53121 2.44139 0
M  V30 10555 C 963.66 -4.82202 2.2873 0
M  V30 10556 O 963.883 -5.55649 1.28879 0
M  V30 10557 O 962.817 -5.11265 3.17634 0
M  V30 10558 H 966.643 -1.90701 2.36362 0
M  V30 10559 H 964.228 -0.886067 1.20288 0
M  V30 10560 H 966.11 -4.04882 1.16826 0
M  V30 10561 H 964.785 -3.22274 0.303551 0
M  V30 10562 H 963.692 -2.72212 2.56615 0
M  V30 10563 H 965.025 -3.59495 3.36191 0
M  V30 10564 N 966.677 -1.24326 -0.968545 0
M  V30 10565 C 967.61 -0.978121 -2.06175 0
M  V30 10566 C 968.588 0.0878107 -1.62363 0
M  V30 10567 O 969.772 -0.0489472 -1.88436 0
M  V30 10568 C 966.899 -0.475884 -3.3534 0
M  V30 10569 C 965.945 -1.53023 -3.98103 0
M  V30 10570 S 966.778 -3.11131 -4.35841 0
M  V30 10571 C 967.934 -2.62608 -5.68144 0
M  V30 10572 H 968.167 -1.9038 -2.28348 0
M  V30 10573 H 965.7 -1.07701 -1.10633 0
M  V30 10574 H 967.658 -0.192739 -4.10047 0
M  V30 10575 H 966.319 0.429067 -3.11156 0
M  V30 10576 H 965.512 -1.12922 -4.91187 0
M  V30 10577 H 965.114 -1.76334 -3.29822 0
M  V30 10578 H 967.406 -2.05367 -6.45624 0
M  V30 10579 H 968.349 -3.54277 -6.13101 0
M  V30 10580 H 968.757 -2.03063 -5.26712 0
M  V30 10581 N 968.156 1.1691 -1.05688 0
M  V30 10582 C 969.106 2.19056 -0.632339 0
M  V30 10583 C 970.09 1.574 0.333797 0
M  V30 10584 O 971.282 1.76361 0.150223 0
M  V30 10585 C 968.411 3.43297 -0.0138209 0
M  V30 10586 C 967.497 4.12042 -1.00408 0
M  V30 10587 N 967.888 4.56535 -2.17737 0
M  V30 10588 C 966.186 4.38139 -0.833663 0
M  V30 10589 C 966.887 5.09644 -2.80425 0
M  V30 10590 N 965.863 5.02153 -2.08191 0
M  V30 10591 H 969.665 2.51165 -1.52621 0
M  V30 10592 H 967.179 1.33294 -0.927707 0
M  V30 10593 H 969.176 4.1576 0.308117 0
M  V30 10594 H 967.836 3.12677 0.87538 0
M  V30 10595 H 968.847 4.50463 -2.55546 0
M  V30 10596 H 965.524 4.175 0.00406684 0
M  V30 10597 H 966.914 5.54153 -3.79952 0
M  V30 10598 N 969.634 0.838594 1.33437 0
M  V30 10599 C 970.88 0.434813 1.98084 0
M  V30 10600 C 971.213 -1.00331 1.66275 0
M  V30 10601 O 970.488 -1.70139 0.942501 0
M  V30 10602 C 970.771 0.655602 3.54082 0
M  V30 10603 C 970.624 2.14097 3.95578 0
M  V30 10604 C 971.943 0.101576 4.39983 0
M  V30 10605 H 969.062 0.159456 0.719544 0
M  V30 10606 H 971.704 1.05406 1.58081 0
M  V30 10607 H 969.854 0.128501 3.88287 0
M  V30 10608 H 971.526 2.73292 3.71631 0
M  V30 10609 H 969.769 2.62558 3.4532 0
M  V30 10610 H 970.44 2.24621 5.04231 0
M  V30 10611 H 972.916 0.552122 4.12421 0
M  V30 10612 H 971.792 0.28575 5.48156 0
M  V30 10613 H 972.053 -0.994616 4.30767 0
M  V30 10614 N 971.112 -1.45937 0.595003 0
M  V30 10615 C 972.523 -1.85908 0.171779 0
M  V30 10616 C 972.874 -1.497 -1.26824 0
M  V30 10617 O 971.999 -0.917688 -1.95978 0
M  V30 10618 C 972.594 -3.37425 0.304976 0
M  V30 10619 C 971.153 -3.76346 -0.0634635 0
M  V30 10620 C 970.3 -2.69926 0.635255 0
M  V30 10621 H 973.251 -1.36916 0.802471 0
M  V30 10622 H 973.272 -3.77632 -0.466313 0
M  V30 10623 H 972.784 -3.63747 1.35314 0
M  V30 10624 H 970.885 -3.55642 -1.11129 0
M  V30 10625 H 970.998 -4.78021 0.321419 0
M  V30 10626 H 969.362 -2.54592 0.0742054 0
M  V30 10627 H 970.145 -2.99086 1.68531 0
M  V30 10628 N 972.59 -0.333456 -1.54032 0
M  V30 10629 C 973.815 0.270517 -2.05628 0
M  V30 10630 C 974.24 1.44231 -1.20744 0
M  V30 10631 O 973.598 1.79975 -0.218822 0
M  V30 10632 C 973.646 0.673251 -3.54259 0
M  V30 10633 O 972.75 1.77448 -3.72271 0
M  V30 10634 H 972.091 0.0469753 -0.662336 0
M  V30 10635 H 974.621 -0.484739 -1.98775 0
M  V30 10636 H 974.631 0.953194 -3.96709 0
M  V30 10637 H 973.306 -0.183747 -4.15494 0
M  V30 10638 H 971.883 1.49259 -3.41725 0
M  V30 10639 N 974.068 1.57479 -0.061844 0
M  V30 10640 C 975.314 1.93395 0.610443 0
M  V30 10641 C 975.647 0.941334 1.6986 0
M  V30 10642 O 974.922 -0.0310262 1.94475 0
M  V30 10643 C 975.205 3.39636 1.19664 0
M  V30 10644 C 975.058 4.49651 0.115805 0
M  V30 10645 C 976.377 3.86488 2.10512 0
M  V30 10646 H 973.496 0.703262 0.220436 0
M  V30 10647 H 976.138 1.89583 -0.125785 0
M  V30 10648 H 974.288 3.43015 1.82409 0
M  V30 10649 H 975.96 4.58397 -0.516728 0
M  V30 10650 H 974.203 4.30237 -0.55483 0
M  V30 10651 H 974.874 5.49089 0.566176 0
M  V30 10652 H 977.35 3.85052 1.57715 0
M  V30 10653 H 976.226 4.89444 2.48466 0
M  V30 10654 H 976.487 3.23856 3.00948 0
M  V30 10655 N 975.546 -0.211634 1.56173 0
M  V30 10656 C 976.509 -1.24588 1.92381 0
M  V30 10657 C 977.509 -1.39297 0.803311 0
M  V30 10658 O 978.699 -1.37392 1.07094 0
M  V30 10659 C 975.831 -2.61807 2.18335 0
M  V30 10660 H 977.024 -0.936814 2.84893 0
M  V30 10661 H 974.577 -0.452471 1.49607 0
M  V30 10662 H 975.312 -2.97795 1.28407 0
M  V30 10663 H 975.097 -2.52506 2.99972 0
M  V30 10664 H 976.587 -3.3642 2.4741 0
M  V30 10665 N 977.024 -1.50153 -0.478725 0
M  V30 10666 C 977.954 -1.71384 -1.58587 0
M  V30 10667 C 978.935 -0.562705 -1.60523 0
M  V30 10668 O 980.12 -0.80101 -1.76911 0
M  V30 10669 C 977.25 -1.80094 -2.96957 0
M  V30 10670 C 976.204 -2.95218 -3.09888 0
M  V30 10671 C 975.53 -2.89063 -4.49829 0
M  V30 10672 C 976.83 -4.35841 -2.8782 0
M  V30 10673 H 978.524 -2.64081 -1.41073 0
M  V30 10674 H 976.07 -1.27081 -0.677239 0
M  V30 10675 H 978.023 -1.93531 -3.74331 0
M  V30 10676 H 976.747 -0.840131 -3.1561 0
M  V30 10677 H 975.406 -2.81419 -2.34944 0
M  V30 10678 H 975.054 -1.90844 -4.6539 0
M  V30 10679 H 974.754 -3.66345 -4.59418 0
M  V30 10680 H 976.278 -3.04539 -5.29234 0
M  V30 10681 H 977.692 -4.50205 -3.54948 0
M  V30 10682 H 976.089 -5.14515 -3.0886 0
M  V30 10683 H 977.159 -4.48739 -1.83742 0
M  V30 10684 N 978.502 0.731368 -1.39602 0
M  V30 10685 C 979.918 1.03739 -1.21286 0
M  V30 10686 C 980.118 2.01353 -0.0769875 0
M  V30 10687 O 979.174 2.45978 0.570193 0
M  V30 10688 C 980.487 1.59621 -2.54837 0
M  V30 10689 C 982.035 1.71683 -2.61713 0
M  V30 10690 C 982.51 2.30973 -3.95494 0
M  V30 10691 N 984.001 2.38378 -3.97153 0
M  V30 10692 C 984.736 2.852 -4.97442 0
M  V30 10693 N 984.232 3.31891 -6.08129 0
M  V30 10694 N 986.025 2.84441 -4.84819 0
M  V30 10695 H 978.176 0.0840456 -2.12234 0
M  V30 10696 H 980.439 0.0999038 -0.942721 0
M  V30 10697 H 980.145 0.953608 -3.38525 0
M  V30 10698 H 980.019 2.58375 -2.74813 0
M  V30 10699 H 982.406 2.35064 -1.78406 0
M  V30 10700 H 982.487 0.715714 -2.45583 0
M  V30 10701 H 982.131 1.68219 -4.79234 0
M  V30 10702 H 982.061 3.31769 -4.08946 0
M  V30 10703 H 984.552 2.05382 -3.17217 0
M  V30 10704 H 984.865 3.66138 -6.8056 0
M  V30 10705 H 983.21 3.2989 -6.11717 0
M  V30 10706 H 986.401 2.4729 -3.97448 0
M  V30 10707 H 986.574 3.20616 -5.63124 0
M  V30 10708 N 979.98 1.24838 0.961938 0
M  V30 10709 C 981.227 1.09151 1.70564 0
M  V30 10710 C 981.555 -0.368719 1.90973 0
M  V30 10711 O 980.81 -1.28854 1.47293 0
M  V30 10712 C 981.109 1.78289 3.09754 0
M  V30 10713 C 980.775 3.28216 3.09169 0
M  V30 10714 C 979.437 3.69118 3.08716 0
M  V30 10715 C 981.789 4.24035 3.03058 0
M  V30 10716 C 979.117 5.04263 2.99892 0
M  V30 10717 C 981.469 5.59195 2.95776 0
M  V30 10718 C 980.133 5.99436 2.93655 0
M  V30 10719 H 979.403 0.399414 0.624139 0
M  V30 10720 H 982.05 1.55016 1.12438 0
M  V30 10721 H 980.355 1.24835 3.7138 0
M  V30 10722 H 982.052 1.63612 3.66104 0
M  V30 10723 H 978.642 2.95667 3.10289 0
M  V30 10724 H 982.826 3.93431 3.02532 0
M  V30 10725 H 978.082 5.3463 2.96615 0
M  V30 10726 H 982.256 6.33142 2.90007 0
M  V30 10727 H 979.883 7.04116 2.86573 0
M  V30 10728 N 981.458 -1.16348 1.06306 0
M  V30 10729 C 982.706 -1.86512 0.778311 0
M  V30 10730 C 983.027 -1.82107 -0.697273 0
M  V30 10731 O 982.297 -1.2547 -1.50446 0
M  V30 10732 H 980.877 -0.690529 0.284919 0
M  V30 10733 H 983.539 -1.41092 1.34458 0
M  V30 10734 H 982.635 -2.91947 1.10333 0
M  V30 10735 N 982.937 -0.845659 -1.3299 0
M  V30 10736 C 983.867 -0.298957 -2.31578 0
M  V30 10737 C 984.848 0.597012 -1.59279 0
M  V30 10738 O 986.033 0.519142 -1.87132 0
M  V30 10739 C 983.163 0.521109 -3.43368 0
M  V30 10740 C 982.117 -0.279651 -4.27085 0
M  V30 10741 C 981.443 0.664591 -5.30554 0
M  V30 10742 C 982.743 -1.50046 -5.00283 0
M  V30 10743 H 984.437 -1.12272 -2.77552 0
M  V30 10744 H 981.983 -0.54132 -1.33438 0
M  V30 10745 H 983.936 0.913921 -4.1137 0
M  V30 10746 H 982.66 1.37815 -2.96099 0
M  V30 10747 H 981.319 -0.654106 -3.60717 0
M  V30 10748 H 980.967 1.51822 -4.79541 0
M  V30 10749 H 980.667 0.132871 -5.8745 0
M  V30 10750 H 982.191 1.05477 -6.01421 0
M  V30 10751 H 983.605 -1.18044 -5.61016 0
M  V30 10752 H 982.002 -1.96946 -5.66862 0
M  V30 10753 H 983.072 -2.26659 -4.28665 0
M  V30 10754 N 984.415 1.45619 -0.602734 0
M  V30 10755 C 985.664 2.01483 -0.0936395 0
M  V30 10756 C 985.977 1.47753 1.28173 0
M  V30 10757 O 987.183 1.95562 1.88329 0
M  V30 10758 C 985.639 3.59711 -0.116738 0
M  V30 10759 C 985.247 4.22437 -1.49166 0
M  V30 10760 C 986.991 4.23157 0.337368 0
M  V30 10761 C 984.898 5.72803 -1.47141 0
M  V30 10762 H 983.828 0.753353 -0.0312382 0
M  V30 10763 H 986.479 1.67142 -0.757347 0
M  V30 10764 H 984.861 3.91218 0.613529 0
M  V30 10765 H 986.035 4.02511 -2.24325 0
M  V30 10766 H 984.35 3.71166 -1.88746 0
M  V30 10767 H 986.947 5.33407 0.371628 0
M  V30 10768 H 987.29 3.93491 1.35906 0
M  V30 10769 H 987.823 3.96349 -0.339474 0
M  V30 10770 H 984.562 6.07161 -2.47055 0
M  V30 10771 H 984.082 5.94936 -0.762329 0
M  V30 10772 H 985.761 6.35907 -1.19294 0
M  V30 10773 N 985.893 0.34162 1.53853 0
M  V30 10774 C 986.823 -0.508431 2.27897 0
M  V30 10775 C 987.804 -1.10425 1.29384 0
M  V30 10776 O 988.989 -1.126 1.58224 0
M  V30 10777 C 986.119 -1.66048 3.05034 0
M  V30 10778 C 985.073 -1.19309 4.11035 0
M  V30 10779 C 984.399 -2.4335 4.76114 0
M  V30 10780 C 985.699 -0.294952 5.21467 0
M  V30 10781 H 987.393 0.109251 2.99201 0
M  V30 10782 H 984.939 0.0539847 1.43899 0
M  V30 10783 H 986.892 -2.26158 3.5557 0
M  V30 10784 H 985.616 -2.30503 2.31379 0
M  V30 10785 H 984.275 -0.614809 3.61408 0
M  V30 10786 H 983.923 -3.06208 3.99056 0
M  V30 10787 H 983.623 -2.1276 5.47729 0
M  V30 10788 H 985.147 -3.0419 5.29434 0
M  V30 10789 H 986.561 -0.80285 5.67651 0
M  V30 10790 H 984.958 -0.0810221 6.00045 0
M  V30 10791 H 986.028 0.669433 4.80257 0
M  V30 10792 N 987.371 -1.57444 0.0701946 0
M  V30 10793 C 988.281 -2.16132 -0.912377 0
M  V30 10794 C 989.297 -1.12406 -1.32819 0
M  V30 10795 O 990.473 -1.44665 -1.40121 0
M  V30 10796 C 987.538 -2.71008 -2.16231 0
M  V30 10797 C 986.599 -3.896 -1.80306 0
M  V30 10798 C 985.832 -4.4185 -2.9934 0
M  V30 10799 O 986.055 -3.93106 -4.13309 0
M  V30 10800 O 984.989 -5.33201 -2.7925 0
M  V30 10801 H 988.815 -3.00449 -0.443167 0
M  V30 10802 H 986.4 -1.48617 -0.152786 0
M  V30 10803 H 988.282 -3.06186 -2.8953 0
M  V30 10804 H 986.957 -1.8975 -2.62253 0
M  V30 10805 H 985.864 -3.59277 -1.04264 0
M  V30 10806 H 987.197 -4.72145 -1.39068 0
M  V30 10807 N 988.849 0.203349 -1.56283 0
M  V30 10808 C 989.812 1.23566 -1.93039 0
M  V30 10809 C 990.812 1.38869 -0.810687 0
M  V30 10810 O 992.002 1.36822 -1.07821 0
M  V30 10811 C 989.134 2.60645 -2.1972 0
M  V30 10812 H 990.327 0.921692 -2.85385 0
M  V30 10813 H 987.88 0.44453 -1.49845 0
M  V30 10814 H 988.615 2.9711 -1.29985 0
M  V30 10815 H 988.4 2.50911 -3.01307 0
M  V30 10816 H 989.89 3.35103 -2.4919 0
M  V30 10817 N 990.327 1.50405 0.470755 0
M  V30 10818 C 991.557 1.64928 1.24428 0
M  V30 10819 C 991.965 0.332139 1.86262 0
M  V30 10820 O 991.308 -0.695919 1.70008 0
M  V30 10821 C 991.37 2.6829 2.39293 0
M  V30 10822 C 991.034 4.11835 1.98093 0
M  V30 10823 C 992.031 4.97693 1.50326 0
M  V30 10824 C 989.716 4.57753 2.06803 0
M  V30 10825 C 991.71 6.27516 1.11813 0
M  V30 10826 C 989.397 5.87582 1.67902 0
M  V30 10827 C 990.395 6.72289 1.20485 0
M  V30 10828 O 990.083 7.99694 0.821219 0
M  V30 10829 H 989.815 0.557418 0.382442 0
M  V30 10830 H 992.369 1.97382 0.568292 0
M  V30 10831 H 990.599 2.31079 3.10063 0
M  V30 10832 H 992.288 2.7203 3.01255 0
M  V30 10833 H 993.054 4.63434 1.43018 0
M  V30 10834 H 988.933 3.91966 2.42659 0
M  V30 10835 H 992.477 6.93586 0.747317 0
M  V30 10836 H 988.374 6.21362 1.74869 0
M  V30 10837 H 989.142 8.12968 0.950038 0
M  V30 10838 N 991.805 -0.723954 1.39988 0
M  V30 10839 C 993.045 -1.49624 1.39255 0
M  V30 10840 C 993.409 -1.91998 -0.00860198 0
M  V30 10841 O 994.61 -2.6843 -0.141002 0
M  V30 10842 C 992.881 -2.69514 2.34728 0
M  V30 10843 S 994.44 -3.59027 2.5228 0
M  V30 10844 H 991.258 -0.511661 0.493685 0
M  V30 10845 H 993.86 -0.847322 1.76184 0
M  V30 10846 H 992.564 -2.36541 3.35375 0
M  V30 10847 H 992.095 -3.39325 1.99053 0
M  V30 10848 H 994.11 -4.63597 1.76896 0
M  V30 10849 N 993.283 -1.25346 -0.955304 0
M  V30 10850 C 994.699 -1.02154 -1.22625 0
M  V30 10851 C 994.899 0.26206 -1.99789 0
M  V30 10852 O 993.955 0.974958 -2.32918 0
M  V30 10853 C 995.268 -2.2443 -2.00129 0
M  V30 10854 C 996.816 -2.29185 -2.13174 0
M  V30 10855 C 997.291 -3.51117 -2.94077 0
M  V30 10856 N 998.782 -3.51509 -3.01655 0
M  V30 10857 C 999.517 -4.42517 -3.64645 0
M  V30 10858 N 999.013 -5.43796 -4.29252 0
M  V30 10859 N 1000.81 -4.302 -3.61779 0
M  V30 10860 H 992.957 -2.07812 -0.439071 0
M  V30 10861 H 995.22 -0.91258 -0.256715 0
M  V30 10862 H 994.926 -3.17717 -1.50827 0
M  V30 10863 H 994.8 -2.27548 -3.00835 0
M  V30 10864 H 997.187 -1.36422 -2.61674 0
M  V30 10865 H 997.268 -2.30087 -1.11775 0
M  V30 10866 H 996.912 -4.44201 -2.46268 0
M  V30 10867 H 996.842 -3.4746 -3.95701 0
M  V30 10868 H 999.333 -2.78245 -2.55711 0
M  V30 10869 H 999.646 -6.09453 -4.75171 0
M  V30 10870 H 997.991 -5.4767 -4.27882 0
M  V30 10871 H 1001.18 -3.50304 -3.10491 0
M  V30 10872 H 1001.36 -5.01323 -4.10584 0
M  V30 10873 N 994.761 1.15782 -1.06922 0
M  V30 10874 C 996.009 1.86097 -0.788192 0
M  V30 10875 C 996.33 1.82475 0.687606 0
M  V30 10876 O 995.6 1.26266 1.49778 0
M  V30 10877 H 994.18 0.689008 -0.288577 0
M  V30 10878 H 996.842 1.40377 -1.35205 0
M  V30 10879 H 995.938 2.91358 -1.1188 0
M  V30 10880 N 996.239 0.8527 1.3254 0
M  V30 10881 C 997.464 0.468157 2.02047 0
M  V30 10882 C 997.889 -0.926967 1.63673 0
M  V30 10883 O 997.247 -1.60855 0.836378 0
M  V30 10884 C 997.295 0.612519 3.5536 0
M  V30 10885 O 996.399 -0.355506 4.10865 0
M  V30 10886 H 995.74 0.188401 0.636711 0
M  V30 10887 H 998.27 1.15135 1.6913 0
M  V30 10888 H 998.28 0.499315 4.04933 0
M  V30 10889 H 996.955 1.62988 3.82632 0
M  V30 10890 H 995.532 -0.198703 3.7237 0
M  V30 10891 N 997.718 -1.45297 0.610449 0
M  V30 10892 C 998.946 -2.0659 0.113211 0
M  V30 10893 C 999.361 -1.4546 -1.20361 0
M  V30 10894 O 998.718 -0.569823 -1.73376 0
M  V30 10895 C 998.769 -3.61488 -0.0298411 0
M  V30 10896 O 998.49 -4.20336 1.23488 0
M  V30 10897 C 999.991 -4.39772 -0.558202 0
M  V30 10898 H 997.211 -0.667322 0.0701555 0
M  V30 10899 H 999.755 -1.86497 0.838993 0
M  V30 10900 H 997.91 -3.80913 -0.705963 0
M  V30 10901 H 998.324 -5.13545 1.0664 0
M  V30 10902 H 999.798 -5.48648 -0.607375 0
M  V30 10903 H 1000.27 -4.09755 -1.58107 0
M  V30 10904 H 1000.88 -4.25217 0.0839704 0
M  V30 10905 N 999.196 -0.349774 -1.5367 0
M  V30 10906 C 1000.15 0.52023 -2.21986 0
M  V30 10907 C 1001.13 1.06119 -1.20944 0
M  V30 10908 O 1002.32 0.993857 -1.46463 0
M  V30 10909 C 999.451 1.66751 -3.00082 0
M  V30 10910 C 998.537 1.14019 -4.08486 0
M  V30 10911 N 998.928 0.334588 -5.04692 0
M  V30 10912 C 997.226 1.4165 -4.22908 0
M  V30 10913 C 997.927 0.0476906 -5.8168 0
M  V30 10914 N 996.903 0.641032 -5.39807 0
M  V30 10915 H 1000.7 -0.102261 -2.93722 0
M  V30 10916 H 998.219 -0.15696 -1.6164 0
M  V30 10917 H 1000.22 2.30281 -3.47529 0
M  V30 10918 H 998.876 2.29322 -2.29873 0
M  V30 10919 H 999.887 -0.0248665 -5.17894 0
M  V30 10920 H 996.564 2.04615 -3.63922 0
M  V30 10921 H 997.954 -0.602565 -6.69193 0
M  V30 10922 N 1000.67 1.57404 -0.0785433 0
M  V30 10923 C 1001.62 2.09632 0.896565 0
M  V30 10924 C 1002.61 1.00754 1.25449 0
M  V30 10925 O 1003.8 1.27053 1.23234 0
M  V30 10926 C 1000.93 2.66694 2.16169 0
M  V30 10927 C 1000.01 3.82588 1.82994 0
M  V30 10928 N 1000.41 4.91286 1.203 0
M  V30 10929 C 998.704 3.92011 2.12704 0
M  V30 10930 C 999.405 5.72077 1.05367 0
M  V30 10931 N 998.381 5.20567 1.56559 0
M  V30 10932 H 1002.18 2.9106 0.407621 0
M  V30 10933 H 999.697 1.61917 0.125155 0
M  V30 10934 H 1001.69 3.0243 2.86952 0
M  V30 10935 H 1000.35 1.86716 2.65645 0
M  V30 10936 H 1001.36 5.10509 0.871817 0
M  V30 10937 H 998.042 3.23018 2.6451 0
M  V30 10938 H 999.432 6.69523 0.564685 0
M  V30 10939 N 1002.15 -0.195058 1.56388 0
M  V30 10940 C 1003.08 -1.26978 1.8961 0
M  V30 10941 C 1004.06 -1.43946 0.756199 0
M  V30 10942 O 1005.25 -1.59335 1.0072 0
M  V30 10943 C 1002.37 -2.63638 2.12632 0
M  V30 10944 C 1001.42 -2.6354 3.35334 0
M  V30 10945 S 1002.25 -2.1497 4.90457 0
M  V30 10946 C 1003.41 -3.53454 5.16547 0
M  V30 10947 H 1003.64 -0.986091 2.8047 0
M  V30 10948 H 1001.17 -0.398552 1.49167 0
M  V30 10949 H 1003.13 -3.42304 2.26579 0
M  V30 10950 H 1001.79 -2.89218 1.22522 0
M  V30 10951 H 1000.99 -3.64027 3.48569 0
M  V30 10952 H 1000.59 -1.92956 3.20381 0
M  V30 10953 H 1002.88 -4.49318 5.0707 0
M  V30 10954 H 1003.82 -3.45113 6.18306 0
M  V30 10955 H 1004.23 -3.48368 4.44185 0
M  V30 10956 N 1003.63 -1.50653 -0.462772 0
M  V30 10957 C 1004.58 -1.70122 -1.55971 0
M  V30 10958 C 1005.55 -0.542581 -1.56988 0
M  V30 10959 O 1006.73 -0.774114 -1.74391 0
M  V30 10960 C 1003.87 -1.80899 -2.93887 0
M  V30 10961 C 1002.98 -3.08318 -3.02595 0
M  V30 10962 C 1002.12 -3.09841 -4.31477 0
M  V30 10963 C 1001.16 -4.3168 -4.33957 0
M  V30 10964 N 1000.3 -4.30894 -5.54323 0
M  V30 10965 H 1005.14 -2.63768 -1.38674 0
M  V30 10966 H 1002.67 -1.30746 -0.674091 0
M  V30 10967 H 1004.63 -1.85128 -3.73876 0
M  V30 10968 H 1003.26 -0.906854 -3.098 0
M  V30 10969 H 1002.31 -3.13521 -2.15427 0
M  V30 10970 H 1003.62 -3.98282 -3.00288 0
M  V30 10971 H 1002.78 -3.12845 -5.1982 0
M  V30 10972 H 1001.52 -2.17722 -4.36404 0
M  V30 10973 H 1000.52 -4.28879 -3.4401 0
M  V30 10974 H 1001.75 -5.25035 -4.30715 0
M  V30 10975 H 999.694 -3.41633 -5.6002 0
M  V30 10976 H 999.611 -5.14636 -5.53792 0
M  V30 10977 H 1000.88 -4.38056 -6.44769 0
M  V30 10978 N 1005.11 0.71652 -1.4037 0
M  V30 10979 C 1006.35 1.47857 -1.38803 0
M  V30 10980 C 1006.69 1.94197 0.0100536 0
M  V30 10981 O 1005.96 1.68093 0.978521 0
M  V30 10982 C 1006.25 2.7053 -2.37667 0
M  V30 10983 C 1006.1 2.3009 -3.86496 0
M  V30 10984 C 1007.42 3.72684 -2.34082 0
M  V30 10985 H 1004.54 0.53632 -0.505499 0
M  V30 10986 H 1007.18 0.817824 -1.71498 0
M  V30 10987 H 1005.33 3.26906 -2.09916 0
M  V30 10988 H 1007 1.79202 -4.2507 0
M  V30 10989 H 1005.24 1.62102 -4.02375 0
M  V30 10990 H 1005.91 3.18018 -4.51186 0
M  V30 10991 H 1008.39 3.25935 -2.58661 0
M  V30 10992 H 1007.27 4.56157 -3.05306 0
M  V30 10993 H 1007.53 4.20916 -1.35213 0
M  V30 10994 N 1006.59 1.25851 0.948643 0
M  V30 10995 C 1007.52 1.09248 2.06367 0
M  V30 10996 C 1008.5 -0.000205168 1.701 0
M  V30 10997 O 1009.68 0.170442 1.93451 0
M  V30 10998 C 1006.81 0.716777 3.39823 0
M  V30 10999 C 1005.77 1.76036 3.90122 0
M  V30 11000 C 1005.09 1.23918 5.20143 0
M  V30 11001 C 1006.39 3.16039 4.15833 0
M  V30 11002 H 1008.09 2.02518 2.20515 0
M  V30 11003 H 1005.63 0.975093 1.05962 0
M  V30 11004 H 1007.59 0.587531 4.17284 0
M  V30 11005 H 1006.31 -0.251626 3.25629 0
M  V30 11006 H 1004.97 1.87815 3.14835 0
M  V30 11007 H 1004.62 0.260836 5.02323 0
M  V30 11008 H 1004.32 1.93673 5.54765 0
M  V30 11009 H 1005.84 1.12245 6.00194 0
M  V30 11010 H 1007.25 3.0738 4.83933 0
M  V30 11011 H 1005.65 3.83317 4.61723 0
M  V30 11012 H 1006.72 3.62652 3.21887 0
M  V30 11013 N 1008.06 -1.15214 1.07534 0
M  V30 11014 C 1009 -2.18999 0.641461 0
M  V30 11015 C 1009.98 -1.58958 -0.342238 0
M  V30 11016 O 1011.16 -1.86859 -0.248218 0
M  V30 11017 C 1008.29 -3.38651 -0.0577939 0
M  V30 11018 C 1007.33 -4.17225 0.884641 0
M  V30 11019 S 1008.17 -4.79375 2.38663 0
M  V30 11020 C 1009.32 -6.02393 1.69923 0
M  V30 11021 H 1009.55 -2.55464 1.52071 0
M  V30 11022 H 1007.09 -1.26205 0.889481 0
M  V30 11023 H 1009.05 -4.07971 -0.454982 0
M  V30 11024 H 1007.71 -3.00526 -0.913407 0
M  V30 11025 H 1006.9 -5.02837 0.342133 0
M  V30 11026 H 1006.5 -3.53463 1.2223 0
M  V30 11027 H 1008.79 -6.69899 1.01201 0
M  V30 11028 H 1009.74 -6.61216 2.53375 0
M  V30 11029 H 1010.14 -5.52106 1.1764 0
M  V30 11030 N 1009.54 -0.859717 -1.32086 0
M  V30 11031 C 1010.49 -0.306042 -2.28762 0
M  V30 11032 C 1011.46 0.589801 -1.55276 0
M  V30 11033 O 1012.64 0.523633 -1.83474 0
M  V30 11034 C 1009.78 0.495256 -3.41528 0
M  V30 11035 C 1008.9 -0.426947 -4.29885 0
M  V30 11036 C 1008.03 0.387474 -5.29785 0
M  V30 11037 C 1007.07 -0.531807 -6.09785 0
M  V30 11038 N 1006.21 0.245741 -7.0167 0
M  V30 11039 H 1011.05 -1.1357 -2.7551 0
M  V30 11040 H 1008.59 -0.571468 -1.35546 0
M  V30 11041 H 1010.54 0.97551 -4.05635 0
M  V30 11042 H 1009.17 1.28969 -2.95917 0
M  V30 11043 H 1008.23 -1.02561 -3.66313 0
M  V30 11044 H 1009.54 -1.13226 -4.85779 0
M  V30 11045 H 1008.69 0.930677 -5.99519 0
M  V30 11046 H 1007.43 1.12612 -4.74521 0
M  V30 11047 H 1006.44 -1.08685 -5.3895 0
M  V30 11048 H 1007.66 -1.26915 -6.67135 0
M  V30 11049 H 1005.61 0.967391 -6.48828 0
M  V30 11050 H 1005.52 -0.400432 -7.54939 0
M  V30 11051 H 1006.79 0.770507 -7.75683 0
M  V30 11052 N 1011.02 1.44971 -0.618145 0
M  V30 11053 C 1011.95 2.28815 0.132751 0
M  V30 11054 C 1012.97 1.40551 0.821535 0
M  V30 11055 O 1014.15 1.64827 0.685155 0
M  V30 11056 C 1011.25 3.1658 1.20955 0
M  V30 11057 C 1010.43 4.33184 0.605821 0
M  V30 11058 C 1009.49 5.0208 1.57488 0
M  V30 11059 O 1008.51 5.58528 1.09706 0
M  V30 11060 N 1009.71 5.02335 2.9093 0
M  V30 11061 H 1012.48 2.939 -0.58674 0
M  V30 11062 H 1010.04 1.55276 -0.458375 0
M  V30 11063 H 1012.03 3.59535 1.85787 0
M  V30 11064 H 1010.6 2.53333 1.83143 0
M  V30 11065 H 1009.82 3.93581 -0.220827 0
M  V30 11066 H 1011.11 5.08471 0.182883 0
M  V30 11067 H 1010.51 4.57783 3.32342 0
M  V30 11068 H 1009.07 5.49119 3.51157 0
M  V30 11069 N 1012.5 0.357919 1.53482 0
M  V30 11070 C 1013.75 -0.2337 2.00744 0
M  V30 11071 C 1014.07 -1.49908 1.2471 0
M  V30 11072 O 1013.34 -1.92597 0.358235 0
M  V30 11073 H 1011.92 -0.0893474 0.741637 0
M  V30 11074 H 1014.58 0.482388 1.88836 0
M  V30 11075 H 1013.68 -0.466073 3.086 0
M  V30 11076 N 1013.98 -1.5736 0.0868897 0
M  V30 11077 C 1014.89 -2.17087 -0.889402 0
M  V30 11078 C 1015.9 -1.13809 -1.31619 0
M  V30 11079 O 1017.08 -1.46143 -1.38579 0
M  V30 11080 C 1014.14 -2.73286 -2.13344 0
M  V30 11081 C 1013.2 -3.91491 -1.76164 0
M  V30 11082 C 1012.44 -4.45 -2.94637 0
M  V30 11083 O 1012.66 -3.97467 -4.09116 0
M  V30 11084 O 1011.59 -5.36133 -2.73579 0
M  V30 11085 H 1015.42 -3.00902 -0.411275 0
M  V30 11086 H 1013.01 -1.4877 -0.137015 0
M  V30 11087 H 1014.89 -3.0924 -2.86266 0
M  V30 11088 H 1013.56 -1.92521 -2.60225 0
M  V30 11089 H 1012.47 -3.60363 -1.00447 0
M  V30 11090 H 1013.8 -4.73593 -1.34053 0
M  V30 11091 N 1015.45 0.186762 -1.56489 0
M  V30 11092 C 1016.42 1.21511 -1.94339 0
M  V30 11093 C 1017.42 1.38001 -0.82537 0
M  V30 11094 O 1018.61 1.3567 -1.09266 0
M  V30 11095 C 1015.74 2.583 -2.22472 0
M  V30 11096 H 1016.93 0.891371 -2.86347 0
M  V30 11097 H 1014.49 0.428612 -1.50308 0
M  V30 11098 H 1015.22 2.95715 -1.33129 0
M  V30 11099 H 1015.01 2.47701 -3.03951 0
M  V30 11100 H 1016.5 3.32441 -2.5273 0
M  V30 11101 N 1016.93 1.50896 0.454776 0
M  V30 11102 C 1017.86 1.73885 1.5584 0
M  V30 11103 C 1018.84 0.588172 1.59607 0
M  V30 11104 O 1020.03 0.829054 1.75614 0
M  V30 11105 C 1017.16 1.84796 2.94054 0
M  V30 11106 C 1016.11 3.00111 3.05152 0
M  V30 11107 C 1015.44 2.96183 4.45174 0
M  V30 11108 C 1016.74 4.40365 2.80849 0
M  V30 11109 H 1018.43 2.66292 1.36854 0
M  V30 11110 H 1015.98 1.28142 0.656936 0
M  V30 11111 H 1017.93 1.99462 3.71204 0
M  V30 11112 H 1016.66 0.890235 3.14233 0
M  V30 11113 H 1015.31 2.85121 2.30438 0
M  V30 11114 H 1014.96 1.98224 4.62295 0
M  V30 11115 H 1014.66 3.73608 4.53532 0
M  V30 11116 H 1016.19 3.1292 5.24322 0
M  V30 11117 H 1017.6 4.55795 3.47741 0
M  V30 11118 H 1016 5.19363 3.00636 0
M  V30 11119 H 1017.07 4.51606 1.76579 0
M  V30 11120 N 1018.41 -0.709066 1.40748 0
M  V30 11121 C 1019.64 -1.50313 1.42901 0
M  V30 11122 C 1020.06 -1.88072 0.032213 0
M  V30 11123 O 1019.42 -1.53716 -0.96131 0
M  V30 11124 C 1019.47 -2.75074 2.33166 0
M  V30 11125 O 1018.57 -3.72036 1.7794 0
M  V30 11126 H 1017.91 -0.452934 0.485538 0
M  V30 11127 H 1020.44 -0.872712 1.85054 0
M  V30 11128 H 1020.45 -3.23532 2.48578 0
M  V30 11129 H 1019.13 -2.46927 3.34664 0
M  V30 11130 H 1017.7 -3.30911 1.71908 0
M  V30 11131 N 1019.89 -1.26353 -0.941956 0
M  V30 11132 C 1020.84 -1.07842 -2.04056 0
M  V30 11133 C 1021.81 0.0163064 -1.66092 0
M  V30 11134 O 1022.99 -0.143313 -1.90261 0
M  V30 11135 C 1020.13 -0.716636 -3.37577 0
M  V30 11136 C 1019.24 -1.88754 -3.88582 0
M  V30 11137 C 1018.38 -1.46893 -5.10486 0
M  V30 11138 C 1017.42 -2.60819 -5.53751 0
M  V30 11139 N 1016.56 -2.19646 -6.66858 0
M  V30 11140 H 1021.4 -2.01856 -2.19221 0
M  V30 11141 H 1018.93 -1.00504 -1.07412 0
M  V30 11142 H 1020.89 -0.487768 -4.14339 0
M  V30 11143 H 1019.52 0.18653 -3.22261 0
M  V30 11144 H 1018.57 -2.22936 -3.08227 0
M  V30 11145 H 1019.88 -2.74264 -4.1663 0
M  V30 11146 H 1019.04 -1.20047 -5.94705 0
M  V30 11147 H 1017.78 -0.584721 -4.84182 0
M  V30 11148 H 1016.78 -2.88396 -4.6809 0
M  V30 11149 H 1018.01 -3.49838 -5.82057 0
M  V30 11150 H 1015.95 -1.33657 -6.4224 0
M  V30 11151 H 1015.87 -2.987 -6.94489 0
M  V30 11152 H 1017.14 -1.96009 -7.54454 0
M  V30 11153 N 1021.37 1.14642 -1.08144 0
M  V30 11154 C 1022.3 2.21775 -0.730609 0
M  V30 11155 C 1023.28 1.67683 0.285702 0
M  V30 11156 O 1024.46 1.93567 0.156667 0
M  V30 11157 C 1021.59 3.47033 -0.136242 0
M  V30 11158 C 1020.55 4.14134 -1.0806 0
M  V30 11159 C 1019.87 5.33563 -0.348585 0
M  V30 11160 C 1021.17 4.62978 -2.41761 0
M  V30 11161 H 1022.87 2.51378 -1.62633 0
M  V30 11162 H 1020.41 1.20825 -0.783411 0
M  V30 11163 H 1022.37 4.21226 0.121182 0
M  V30 11164 H 1021.09 3.16786 0.7946 0
M  V30 11165 H 1019.75 3.41892 -1.32308 0
M  V30 11166 H 1019.4 4.99575 0.585974 0
M  V30 11167 H 1019.1 5.79402 -0.978122 0
M  V30 11168 H 1020.62 6.10519 -0.0991508 0
M  V30 11169 H 1022.04 5.28659 -2.21795 0
M  V30 11170 H 1020.43 5.1951 -3.00383 0
M  V30 11171 H 1021.5 3.78189 -3.03482 0
M  V30 11172 N 1022.85 0.866709 1.31628 0
M  V30 11173 C 1023.79 0.318169 2.28596 0
M  V30 11174 C 1024.76 -0.581558 1.55586 0
M  V30 11175 O 1025.95 -0.513895 1.83749 0
M  V30 11176 C 1023.09 -0.477137 3.41786 0
M  V30 11177 C 1022.2 0.449739 4.29653 0
M  V30 11178 C 1021.34 -0.359373 5.29983 0
M  V30 11179 C 1020.37 0.564138 6.09495 0
M  V30 11180 N 1019.51 -0.208526 7.0179 0
M  V30 11181 H 1024.35 1.15029 2.74904 0
M  V30 11182 H 1021.89 0.578649 1.35241 0
M  V30 11183 H 1023.85 -0.953985 4.06146 0
M  V30 11184 H 1022.48 -1.27398 2.96597 0
M  V30 11185 H 1021.53 1.04502 3.65764 0
M  V30 11186 H 1022.84 1.158 4.85172 0
M  V30 11187 H 1021.99 -0.89887 6.00004 0
M  V30 11188 H 1020.73 -1.10094 4.75111 0
M  V30 11189 H 1019.74 1.11542 5.38366 0
M  V30 11190 H 1020.96 1.30451 6.66453 0
M  V30 11191 H 1018.91 -0.932969 6.49332 0
M  V30 11192 H 1018.83 0.440463 7.54716 0
M  V30 11193 H 1020.09 -0.72936 7.7608 0
M  V30 11194 N 1024.32 -1.44642 0.625825 0
M  V30 11195 C 1025.29 -2.29085 -0.072526 0
M  V30 11196 C 1026.29 -1.40755 -0.777467 0
M  V30 11197 O 1027.48 -1.62684 -0.622861 0
M  V30 11198 C 1024.61 -3.22212 -1.1132 0
M  V30 11199 H 1025.8 -2.92317 0.670124 0
M  V30 11200 H 1023.35 -1.51466 0.38571 0
M  V30 11201 H 1024.09 -2.63819 -1.88601 0
M  V30 11202 H 1023.87 -3.87299 -0.611709 0
M  V30 11203 H 1025.36 -3.8566 -1.60175 0
M  V30 11204 N 1025.8 -0.366053 -1.5329 0
M  V30 11205 C 1026.73 0.47211 -2.28677 0
M  V30 11206 C 1027.71 1.08353 -1.31125 0
M  V30 11207 O 1028.9 1.10069 -1.59995 0
M  V30 11208 C 1026.03 1.61174 -3.07637 0
M  V30 11209 C 1024.98 1.12755 -4.12881 0
M  V30 11210 C 1024.31 2.35745 -4.79925 0
M  V30 11211 C 1025.61 0.211954 -5.2187 0
M  V30 11212 H 1027.3 -0.156838 -2.98989 0
M  V30 11213 H 1024.85 -0.0768709 -1.43795 0
M  V30 11214 H 1026.8 2.20473 -3.59123 0
M  V30 11215 H 1025.52 2.26793 -2.35016 0
M  V30 11216 H 1024.18 0.557234 -3.6234 0
M  V30 11217 H 1023.83 2.99821 -4.03877 0
M  V30 11218 H 1023.53 2.04019 -5.51044 0
M  V30 11219 H 1025.06 2.95729 -5.34207 0
M  V30 11220 H 1026.47 0.71244 -5.68856 0
M  V30 11221 H 1024.87 -0.0144501 -6.00098 0
M  V30 11222 H 1025.94 -0.745753 -4.79131 0
M  V30 11223 N 1027.28 1.57312 -0.0952337 0
M  V30 11224 C 1028.23 2.15263 0.881167 0
M  V30 11225 C 1029.22 1.09552 1.29208 0
M  V30 11226 O 1030.43 1.27897 1.26659 0
M  V30 11227 H 1026.8 0.688611 0.302191 0
M  V30 11228 H 1028.77 2.96126 0.367694 0
M  V30 11229 C 1027.52 2.74779 2.13053 0
M  V30 11230 H 1026.85 3.55807 1.82323 0
M  V30 11231 H 1028.29 3.18895 2.79431 0
M  V30 11232 C 1026.74 1.7068 2.90465 0
M  V30 11233 O 1027.27 1.14582 3.85011 0
M  V30 11234 N 1025.48 1.41169 2.54007 0
M  V30 11235 H 1025.03 1.86977 1.77193 0
M  V30 11236 H 1024.99 0.717559 3.06102 0
M  V30 11237 N 1028.76 -0.17846 1.56586 0
M  V30 11238 C 1030.03 -0.923096 1.72448 0
M  V30 11239 C 1030.41 -2.00692 0.654659 0
M  V30 11240 O 1029.76 -2.26079 -0.33171 0
M  V30 11241 C 1029.97 -1.49435 3.15389 0
M  V30 11242 C 1031.32 -1.97005 3.76131 0
M  V30 11243 O 1032.34 -1.59244 3.18622 0
M  V30 11244 O 1031.2 -2.66541 4.77094 0
M  V30 11245 H 1028.3 -0.434009 0.703964 0
M  V30 11246 H 1030.84 -0.16685 1.68878 0
M  V30 11247 H 1029.62 -0.713933 3.84732 0
M  V30 11248 H 1029.24 -2.31498 3.23256 0
M  V30 11249 N 1030.24 -1.51135 -0.446768 0
M  V30 11250 C 1031.48 -1.63336 -1.19698 0
M  V30 11251 C 1031.81 -0.345099 -1.91414 0
M  V30 11252 O 1031.07 0.670365 -1.8386 0
M  V30 11253 C 1031.36 -2.78034 -2.2457 0
M  V30 11254 C 1031.03 -4.17652 -1.69934 0
M  V30 11255 C 1029.69 -4.55636 -1.54756 0
M  V30 11256 C 1032.04 -5.04813 -1.29665 0
M  V30 11257 C 1029.37 -5.78496 -0.977689 0
M  V30 11258 C 1031.72 -6.28244 -0.741112 0
M  V30 11259 C 1030.39 -6.65009 -0.576156 0
M  V30 11260 H 1029.66 -0.597689 -0.438006 0
M  V30 11261 H 1032.31 -1.85141 -0.48939 0
M  V30 11262 H 1030.61 -2.50413 -3.01331 0
M  V30 11263 H 1032.31 -2.84675 -2.8242 0
M  V30 11264 H 1028.9 -3.87699 -1.82722 0
M  V30 11265 H 1033.08 -4.76081 -1.40216 0
M  V30 11266 H 1028.34 -6.05636 -0.837563 0
M  V30 11267 H 1032.51 -6.95129 -0.42053 0
M  V30 11268 H 1030.14 -7.60085 -0.132443 0
M  V30 11269 N 1031.71 0.701592 -1.41122 0
M  V30 11270 C 1032.96 1.46376 -1.40363 0
M  V30 11271 C 1033.29 1.94197 -0.0105442 0
M  V30 11272 O 1032.57 1.69121 0.960637 0
M  V30 11273 C 1032.85 2.67994 -2.40523 0
M  V30 11274 C 1032.7 2.25977 -3.88914 0
M  V30 11275 C 1034.02 3.70181 -2.38022 0
M  V30 11276 H 1031.14 0.530929 -0.511159 0
M  V30 11277 H 1033.78 0.799588 -1.72356 0
M  V30 11278 H 1031.93 3.24661 -2.13372 0
M  V30 11279 H 1033.61 1.74684 -4.26946 0
M  V30 11280 H 1031.85 1.57826 -4.04071 0
M  V30 11281 H 1032.52 3.13215 -4.54533 0
M  V30 11282 H 1035 3.23174 -2.62103 0
M  V30 11283 H 1033.87 4.52894 -3.10127 0
M  V30 11284 H 1034.13 4.19458 -1.3967 0
M  V30 11285 N 1033.19 1.2685 0.935242 0
M  V30 11286 C 1034.14 1.08923 2.03481 0
M  V30 11287 C 1035.11 -0.00749786 1.66098 0
M  V30 11288 O 1036.29 0.153401 1.90182 0
M  V30 11289 C 1033.43 0.734529 3.37192 0
M  V30 11290 C 1032.55 1.90812 3.87576 0
M  V30 11291 C 1031.68 1.49599 5.097 0
M  V30 11292 C 1030.72 2.63752 5.5236 0
M  V30 11293 N 1029.86 2.23179 6.65684 0
M  V30 11294 H 1034.7 2.03016 2.18148 0
M  V30 11295 H 1032.23 1.01072 1.06878 0
M  V30 11296 H 1034.19 0.509734 4.14074 0
M  V30 11297 H 1032.82 -0.169438 3.22355 0
M  V30 11298 H 1031.87 2.24567 3.0704 0
M  V30 11299 H 1033.19 2.7647 4.1517 0
M  V30 11300 H 1032.34 1.23199 5.9406 0
M  V30 11301 H 1031.08 0.61039 4.83865 0
M  V30 11302 H 1030.08 2.90874 4.66554 0
M  V30 11303 H 1031.31 3.5292 5.80193 0
M  V30 11304 H 1029.26 1.37061 6.41522 0
M  V30 11305 H 1029.17 3.02379 6.92895 0
M  V30 11306 H 1030.44 2.00007 7.53404 0
M  V30 11307 N 1034.67 -1.14067 1.0875 0
M  V30 11308 C 1035.6 -2.21385 0.74236 0
M  V30 11309 C 1036.58 -1.67833 -0.276805 0
M  V30 11310 O 1037.77 -1.93647 -0.1464 0
M  V30 11311 C 1034.9 -3.46956 0.154644 0
M  V30 11312 C 1033.85 -4.13555 1.10255 0
M  V30 11313 C 1033.18 -5.3337 0.376877 0
M  V30 11314 C 1034.48 -4.6169 2.44213 0
M  V30 11315 H 1036.17 -2.50512 1.63964 0
M  V30 11316 H 1033.72 -1.20408 0.789807 0
M  V30 11317 H 1035.67 -4.21284 -0.0988419 0
M  V30 11318 H 1034.39 -3.17203 -0.777789 0
M  V30 11319 H 1033.05 -3.41186 1.34119 0
M  V30 11320 H 1032.7 -4.99879 -0.559472 0
M  V30 11321 H 1032.4 -5.78875 1.00884 0
M  V30 11322 H 1033.92 -6.10458 0.131527 0
M  V30 11323 H 1035.34 -5.27475 2.24595 0
M  V30 11324 H 1033.74 -5.17909 3.03134 0
M  V30 11325 H 1034.81 -3.76574 3.05483 0
M  V30 11326 N 1036.15 -0.873678 -1.31166 0
M  V30 11327 C 1037.37 -0.500242 -2.01277 0
M  V30 11328 C 1037.8 0.900811 -1.65127 0
M  V30 11329 O 1037.16 1.59504 -0.861862 0
M  V30 11330 C 1037.2 -0.668976 -3.5434 0
M  V30 11331 O 1036.31 0.290096 -4.11378 0
M  V30 11332 H 1035.65 -0.198507 -0.633633 0
M  V30 11333 H 1038.18 -1.17811 -1.67277 0
M  V30 11334 H 1038.19 -0.563673 -4.04088 0
M  V30 11335 H 1036.86 -1.69055 -3.79991 0
M  V30 11336 H 1035.44 0.139437 -3.72639 0
M  V30 11337 N 1037.63 1.44308 -0.633487 0
M  V30 11338 C 1038.85 2.06897 -0.144347 0
M  V30 11339 C 1039.28 1.47045 1.173 0
M  V30 11340 O 1038.63 0.572806 1.72013 0
M  V30 11341 C 1038.68 3.60571 -0.0456324 0
M  V30 11342 O 1037.79 4.0015 0.997682 0
M  V30 11343 H 1037.13 0.658427 -0.0858499 0
M  V30 11344 H 1039.66 1.85142 -0.870833 0
M  V30 11345 H 1039.67 4.07745 0.144178 0
M  V30 11346 H 1038.34 4.03515 -1.0074 0
M  V30 11347 H 1036.92 3.64603 0.782252 0
M  V30 11348 N 1039.1 0.374177 1.53094 0
M  V30 11349 C 1040.04 -0.503065 2.23611 0
M  V30 11350 C 1041.05 -1.03915 1.25321 0
M  V30 11351 O 1042.24 -0.944064 1.51492 0
M  V30 11352 C 1039.34 -1.70825 2.92698 0
M  V30 11353 C 1038.51 -1.30217 4.17567 0
M  V30 11354 C 1037.57 -2.37036 4.69788 0
M  V30 11355 O 1036.6 -1.99069 5.33254 0
M  V30 11356 N 1037.8 -3.68743 4.4834 0
M  V30 11357 H 1040.56 0.101013 2.9953 0
M  V30 11358 H 1038.12 0.199778 1.60663 0
M  V30 11359 H 1040.12 -2.41779 3.24538 0
M  V30 11360 H 1038.69 -2.219 2.2018 0
M  V30 11361 H 1037.91 -0.422121 3.91933 0
M  V30 11362 H 1039.19 -1.00728 4.9873 0
M  V30 11363 H 1038.59 -4.0236 3.97647 0
M  V30 11364 H 1037.15 -4.35776 4.84709 0
M  V30 11365 N 1040.58 -1.57259 0.103575 0
M  V30 11366 C 1041.53 -2.14487 -0.852295 0
M  V30 11367 C 1042.5 -1.06567 -1.27407 0
M  V30 11368 O 1043.68 -1.34398 -1.35432 0
M  V30 11369 C 1040.82 -2.73632 -2.10284 0
M  V30 11370 C 1039.94 -3.95811 -1.73083 0
M  V30 11371 C 1039.07 -4.43093 -2.92988 0
M  V30 11372 C 1038.11 -5.5784 -2.51953 0
M  V30 11373 N 1037.25 -5.99936 -3.64721 0
M  V30 11374 H 1042.09 -2.95849 -0.35743 0
M  V30 11375 H 1039.63 -1.46175 -0.164748 0
M  V30 11376 H 1041.58 -3.06046 -2.83534 0
M  V30 11377 H 1040.21 -1.94985 -2.57256 0
M  V30 11378 H 1039.27 -3.69656 -0.897688 0
M  V30 11379 H 1040.58 -4.79066 -1.38916 0
M  V30 11380 H 1039.73 -4.77335 -3.74481 0
M  V30 11381 H 1038.47 -3.58756 -3.30372 0
M  V30 11382 H 1037.48 -5.23217 -1.6889 0
M  V30 11383 H 1038.7 -6.43932 -2.15705 0
M  V30 11384 H 1036.65 -5.18543 -4.01807 0
M  V30 11385 H 1036.56 -6.78008 -3.34427 0
M  V30 11386 H 1037.83 -6.38812 -4.46699 0
M  V30 11387 N 1042.06 0.170153 -1.56679 0
M  V30 11388 C 1043.29 0.902134 -1.86197 0
M  V30 11389 C 1043.7 1.75775 -0.689098 0
M  V30 11390 O 1043.06 1.79271 0.341763 0
M  V30 11391 C 1043.11 1.77792 -3.14757 0
M  V30 11392 O 1042.83 0.956817 -4.27524 0
M  V30 11393 C 1044.33 2.61947 -3.57629 0
M  V30 11394 H 1041.55 0.262026 -0.617724 0
M  V30 11395 H 1044.1 0.169899 -2.03793 0
M  V30 11396 H 1042.25 2.46348 -2.98984 0
M  V30 11397 H 1042.67 1.5559 -5.00891 0
M  V30 11398 H 1044.14 3.19011 -4.50484 0
M  V30 11399 H 1044.62 3.36873 -2.81803 0
M  V30 11400 H 1045.22 1.98721 -3.76019 0
M  V30 11401 N 1043.54 1.5137 0.438746 0
M  V30 11402 C 1044.95 1.56462 1.01866 0
M  V30 11403 C 1045.3 0.387244 1.9234 0
M  V30 11404 O 1044.43 -0.496131 2.10636 0
M  V30 11405 C 1045.02 2.83557 1.85421 0
M  V30 11406 C 1043.58 2.91224 2.38464 0
M  V30 11407 C 1042.73 2.51109 1.17641 0
M  V30 11408 H 1045.68 1.57167 0.220072 0
M  V30 11409 H 1045.7 2.6724 2.70857 0
M  V30 11410 H 1045.21 3.69229 1.19546 0
M  V30 11411 H 1043.31 2.09979 3.07798 0
M  V30 11412 H 1043.42 3.94844 2.71358 0
M  V30 11413 H 1041.79 2.04276 1.5213 0
M  V30 11414 H 1042.57 3.39125 0.533785 0
M  V30 11415 N 1045.02 -0.694098 1.41492 0
M  V30 11416 C 1045.96 -1.80801 1.43456 0
M  V30 11417 C 1046.93 -1.63571 0.288757 0
M  V30 11418 O 1048.12 -1.844 0.490017 0
M  V30 11419 C 1045.26 -3.18694 1.32394 0
M  V30 11420 C 1044.37 -3.47346 2.56855 0
M  V30 11421 C 1043.51 -4.74862 2.38075 0
M  V30 11422 C 1042.55 -4.96486 3.58005 0
M  V30 11423 N 1041.68 -6.15229 3.38287 0
M  V30 11424 H 1046.52 -1.78457 2.38657 0
M  V30 11425 H 1044.06 -0.871455 1.18508 0
M  V30 11426 H 1046.02 -3.98352 1.23982 0
M  V30 11427 H 1044.65 -3.20211 0.407999 0
M  V30 11428 H 1043.7 -2.62083 2.75711 0
M  V30 11429 H 1045.01 -3.59226 3.4606 0
M  V30 11430 H 1044.17 -5.62577 2.27139 0
M  V30 11431 H 1042.9 -4.6523 1.46329 0
M  V30 11432 H 1041.91 -4.07219 3.69395 0
M  V30 11433 H 1043.13 -5.07976 4.50708 0
M  V30 11434 H 1041.08 -6.06807 2.49242 0
M  V30 11435 H 1041 -6.27883 4.21069 0
M  V30 11436 H 1042.27 -7.05674 3.31126 0
M  V30 11437 N 1046.49 -1.27344 -0.928501 0
M  V30 11438 C 1047.91 -1.12361 -1.49103 0
M  V30 11439 C 1048.26 0.291667 -1.9402 0
M  V30 11440 O 1047.38 1.18449 -1.81104 0
M  V30 11441 C 1047.98 -2.03358 -2.70981 0
M  V30 11442 C 1046.54 -1.92483 -3.23461 0
M  V30 11443 C 1045.68 -1.95961 -1.962 0
M  V30 11444 H 1048.63 -1.40249 -0.742689 0
M  V30 11445 H 1048.65 -1.58892 -3.45736 0
M  V30 11446 H 1048.17 -3.06356 -2.38259 0
M  V30 11447 H 1046.27 -0.924676 -3.60944 0
M  V30 11448 H 1046.38 -2.78682 -3.89709 0
M  V30 11449 H 1044.74 -1.40175 -2.12657 0
M  V30 11450 H 1045.53 -3.00612 -1.65793 0
M  V30 11451 N 1047.97 1.13488 -1.09353 0
M  V30 11452 C 1048.9 2.18563 -0.69012 0
M  V30 11453 C 1049.92 1.60585 0.267651 0
M  V30 11454 O 1051.11 1.78419 0.0538176 0
M  V30 11455 C 1048.21 3.389 0.00391255 0
M  V30 11456 C 1047.38 4.2639 -0.975209 0
M  V30 11457 C 1046.44 5.25258 -0.314719 0
M  V30 11458 O 1045.46 5.6101 -0.962119 0
M  V30 11459 N 1046.67 5.72978 0.931458 0
M  V30 11460 H 1049.43 2.53788 -1.59411 0
M  V30 11461 H 1046.99 1.28803 -0.980886 0
M  V30 11462 H 1048.98 4.02112 0.45696 0
M  V30 11463 H 1047.55 3.0192 0.81014 0
M  V30 11464 H 1046.77 3.59964 -1.60684 0
M  V30 11465 H 1048.06 4.817 -1.63836 0
M  V30 11466 H 1047.46 5.46078 1.477 0
M  V30 11467 H 1046.02 6.38131 1.32784 0
M  V30 11468 N 1049.45 0.880621 1.30701 0
M  V30 11469 C 1050.68 0.511682 2.00473 0
M  V30 11470 C 1051.09 -0.898684 1.6604 0
M  V30 11471 O 1050.45 -1.59035 0.895218 0
M  V30 11472 C 1050.5 0.671723 3.55204 0
M  V30 11473 O 1050.22 2.02656 3.8841 0
M  V30 11474 C 1051.72 0.3052 4.42248 0
M  V30 11475 H 1048.94 0.198231 0.64105 0
M  V30 11476 H 1051.49 1.18472 1.66687 0
M  V30 11477 H 1049.64 0.0461066 3.87373 0
M  V30 11478 H 1050.06 2.04202 4.83117 0
M  V30 11479 H 1051.53 0.468095 5.50012 0
M  V30 11480 H 1052.01 -0.756456 4.32637 0
M  V30 11481 H 1052.61 0.906959 4.15517 0
M  V30 11482 N 1050.93 -1.4397 0.641131 0
M  V30 11483 C 1051.88 -2.30728 -0.0577905 0
M  V30 11484 C 1052.85 -1.44059 -0.826819 0
M  V30 11485 O 1054.03 -1.72947 -0.805853 0
M  V30 11486 C 1051.17 -3.29478 -1.02657 0
M  V30 11487 C 1050.28 -4.31247 -0.254913 0
M  V30 11488 C 1049.42 -5.17085 -1.2164 0
M  V30 11489 C 1048.46 -6.10556 -0.434481 0
M  V30 11490 N 1047.6 -6.89059 -1.34694 0
M  V30 11491 H 1052.44 -2.8995 0.687953 0
M  V30 11492 H 1049.97 -1.4285 0.351029 0
M  V30 11493 H 1051.93 -3.85228 -1.60173 0
M  V30 11494 H 1050.56 -2.71932 -1.73933 0
M  V30 11495 H 1049.61 -3.77889 0.436338 0
M  V30 11496 H 1050.92 -4.97545 0.353642 0
M  V30 11497 H 1050.08 -5.77402 -1.86258 0
M  V30 11498 H 1048.82 -4.50885 -1.85888 0
M  V30 11499 H 1047.82 -5.49339 0.225125 0
M  V30 11500 H 1049.05 -6.78795 0.203415 0
M  V30 11501 H 1046.99 -6.25518 -1.97644 0
M  V30 11502 H 1046.91 -7.51833 -0.792657 0
M  V30 11503 H 1048.18 -7.5389 -1.98165 0
M  V30 11504 N 1052.41 -0.382291 -1.52893 0
M  V30 11505 C 1053.32 0.463745 -2.29971 0
M  V30 11506 C 1054.33 1.07777 -1.36602 0
M  V30 11507 O 1055.51 1.0851 -1.69669 0
M  V30 11508 C 1052.57 1.57938 -3.08637 0
M  V30 11509 C 1051.64 0.991182 -4.17701 0
M  V30 11510 C 1050.87 2.05365 -4.92606 0
M  V30 11511 O 1051.09 3.26757 -4.67532 0
M  V30 11512 O 1050.03 1.67487 -5.78128 0
M  V30 11513 H 1053.85 -0.163962 -3.03257 0
M  V30 11514 H 1051.44 -0.146199 -1.48683 0
M  V30 11515 H 1053.32 2.22765 -3.57706 0
M  V30 11516 H 1051.99 2.19218 -2.3817 0
M  V30 11517 H 1050.9 0.306364 -3.72843 0
M  V30 11518 H 1052.23 0.422699 -4.90382 0
M  V30 11519 N 1053.89 1.57202 -0.111913 0
M  V30 11520 C 1054.82 2.17957 0.837683 0
M  V30 11521 C 1055.8 1.1176 1.28233 0
M  V30 11522 O 1056.98 1.39967 1.34621 0
M  V30 11523 C 1054.11 2.77333 2.09054 0
M  V30 11524 C 1053.07 3.8905 1.78393 0
M  V30 11525 C 1052.39 4.35203 3.10649 0
M  V30 11526 C 1053.69 5.11477 1.05775 0
M  V30 11527 H 1055.39 2.9756 0.331441 0
M  V30 11528 H 1052.93 1.43131 0.157979 0
M  V30 11529 H 1054.88 3.18492 2.75936 0
M  V30 11530 H 1053.61 1.95009 2.6199 0
M  V30 11531 H 1052.27 3.48456 1.13903 0
M  V30 11532 H 1051.92 3.49747 3.61506 0
M  V30 11533 H 1051.62 5.10534 2.9091 0
M  V30 11534 H 1053.14 4.79007 3.78661 0
M  V30 11535 H 1054.55 5.497 1.62798 0
M  V30 11536 H 1052.95 5.92346 0.961573 0
M  V30 11537 H 1054.02 4.84881 0.043297 0
M  V30 11538 N 1055.36 -0.161842 1.56767 0
M  V30 11539 C 1056.3 -1.22927 1.9226 0
M  V30 11540 C 1057.27 -1.42309 0.786562 0
M  V30 11541 O 1058.46 -1.57163 1.04078 0
M  V30 11542 C 1055.59 -2.59069 2.18177 0
M  V30 11543 C 1054.63 -2.56368 3.40849 0
M  V30 11544 S 1055.46 -2.04518 4.94907 0
M  V30 11545 C 1056.62 -3.42418 5.23928 0
M  V30 11546 H 1056.85 -0.926377 2.82499 0
M  V30 11547 H 1054.39 -0.366822 1.49979 0
M  V30 11548 H 1056.34 -3.37421 2.33789 0
M  V30 11549 H 1055.01 -2.86554 1.28629 0
M  V30 11550 H 1054.2 -3.56551 3.56213 0
M  V30 11551 H 1053.8 -1.86116 3.24402 0
M  V30 11552 H 1056.09 -4.38461 5.16486 0
M  V30 11553 H 1057.04 -3.3192 6.25487 0
M  V30 11554 H 1057.44 -3.38868 4.51474 0
M  V30 11555 N 1056.84 -1.516 -0.430713 0
M  V30 11556 C 1057.79 -1.69776 -1.52185 0
M  V30 11557 C 1058.78 -0.551692 -1.51146 0
M  V30 11558 O 1059.97 -0.807883 -1.57487 0
M  V30 11559 C 1057.1 -1.83222 -2.90318 0
M  V30 11560 C 1056.18 -3.03633 -2.96087 0
M  V30 11561 N 1056.57 -4.267 -2.71589 0
M  V30 11562 C 1054.87 -3.03024 -3.2725 0
M  V30 11563 C 1055.57 -5.08011 -2.83372 0
M  V30 11564 N 1054.55 -4.42798 -3.15327 0
M  V30 11565 H 1058.35 -2.62586 -1.32006 0
M  V30 11566 H 1055.86 -1.49338 -0.63812 0
M  V30 11567 H 1057.86 -1.94355 -3.68825 0
M  V30 11568 H 1056.52 -0.915971 -3.11513 0
M  V30 11569 H 1057.53 -4.55535 -2.46391 0
M  V30 11570 H 1054.21 -2.21055 -3.54176 0
M  V30 11571 H 1055.6 -6.15995 -2.68329 0
M  V30 11572 N 1058.32 0.686584 -1.41858 0
M  V30 11573 C 1059.25 1.81264 -1.47193 0
M  V30 11574 C 1060.23 1.66875 -0.329657 0
M  V30 11575 O 1061.42 1.86473 -0.542347 0
M  V30 11576 C 1058.55 3.19472 -1.36216 0
M  V30 11577 C 1057.5 3.4858 -2.48347 0
M  V30 11578 C 1056.83 4.86239 -2.22432 0
M  V30 11579 C 1058.13 3.46653 -3.90678 0
M  V30 11580 H 1059.82 1.77057 -2.41436 0
M  V30 11581 H 1057.37 0.850415 -1.16206 0
M  V30 11582 H 1059.32 3.97969 -1.38558 0
M  V30 11583 H 1058.04 3.24327 -0.384611 0
M  V30 11584 H 1056.7 2.72437 -2.45303 0
M  V30 11585 H 1056.35 4.8773 -1.22999 0
M  V30 11586 H 1056.05 5.06677 -2.97577 0
M  V30 11587 H 1057.57 5.67034 -2.26505 0
M  V30 11588 H 1058.99 4.15139 -3.95389 0
M  V30 11589 H 1057.38 3.78625 -4.65578 0
M  V30 11590 H 1058.45 2.45451 -4.18189 0
M  V30 11591 N 1059.8 1.27835 0.921735 0
M  V30 11592 C 1061.04 1.15766 1.68457 0
M  V30 11593 C 1061.4 -0.290542 1.89789 0
M  V30 11594 O 1062.6 -0.53378 2.63447 0
M  V30 11595 C 1060.87 1.92591 3.0107 0
M  V30 11596 S 1062.43 1.96804 3.92191 0
M  V30 11597 H 1059.25 0.413169 0.578629 0
M  V30 11598 H 1061.85 1.61826 1.09693 0
M  V30 11599 H 1060.56 2.96991 2.8324 0
M  V30 11600 H 1060.09 1.47049 3.64884 0
M  V30 11601 H 1062.1 1.06877 4.84553 0
M  V30 11602 N 1061.28 -1.12907 1.09954 0
M  V30 11603 C 1062.21 -2.17589 0.687769 0
M  V30 11604 C 1063.19 -1.59648 -0.308444 0
M  V30 11605 O 1064.37 -1.87343 -0.208527 0
M  V30 11606 C 1061.5 -3.38697 0.0140519 0
M  V30 11607 C 1060.54 -4.15254 0.972942 0
M  V30 11608 S 1061.38 -4.74205 2.48777 0
M  V30 11609 C 1062.53 -5.98653 1.82662 0
M  V30 11610 H 1062.77 -2.52181 1.57455 0
M  V30 11611 H 1060.3 -1.24289 0.916051 0
M  V30 11612 H 1062.26 -4.08844 -0.368343 0
M  V30 11613 H 1060.92 -3.02396 -0.849456 0
M  V30 11614 H 1060.11 -5.01999 0.448715 0
M  V30 11615 H 1059.71 -3.5079 1.297 0
M  V30 11616 H 1062 -6.67602 1.15388 0
M  V30 11617 H 1062.95 -6.55693 2.67343 0
M  V30 11618 H 1063.36 -5.49486 1.29325 0
M  V30 11619 N 1062.75 -0.88754 -1.30232 0
M  V30 11620 C 1064.17 -0.581904 -1.48614 0
M  V30 11621 C 1064.37 0.879711 -1.81282 0
M  V30 11622 O 1063.43 1.66076 -1.90198 0
M  V30 11623 C 1064.74 -1.49726 -2.60773 0
M  V30 11624 C 1066.29 -1.50117 -2.74653 0
M  V30 11625 C 1066.76 -2.40251 -3.89927 0
M  V30 11626 N 1068.25 -2.38229 -3.97242 0
M  V30 11627 C 1068.99 -3.04682 -4.85754 0
M  V30 11628 N 1068.48 -3.80369 -5.79043 0
M  V30 11629 N 1070.28 -2.93901 -4.79144 0
M  V30 11630 H 1062.43 -1.83304 -1.073 0
M  V30 11631 H 1064.69 -0.78477 -0.531826 0
M  V30 11632 H 1064.4 -2.5381 -2.43462 0
M  V30 11633 H 1064.27 -1.20874 -3.57308 0
M  V30 11634 H 1066.66 -0.467832 -2.91368 0
M  V30 11635 H 1066.74 -1.83001 -1.7873 0
M  V30 11636 H 1066.38 -3.43671 -3.73969 0
M  V30 11637 H 1066.31 -2.04682 -4.85194 0
M  V30 11638 H 1068.8 -1.83229 -3.30508 0
M  V30 11639 H 1069.12 -4.28159 -6.4335 0
M  V30 11640 H 1067.46 -3.84477 -5.78967 0
M  V30 11641 H 1070.65 -2.34296 -4.05245 0
M  V30 11642 H 1070.83 -3.45967 -5.47915 0
M  V30 11643 N 1064.23 1.43628 -0.648757 0
M  V30 11644 C 1065.16 2.29045 0.0841858 0
M  V30 11645 C 1066.18 1.42262 0.791537 0
M  V30 11646 O 1067.37 1.66243 0.650039 0
M  V30 11647 C 1064.47 3.19075 1.14212 0
M  V30 11648 C 1063.64 4.34372 0.513799 0
M  V30 11649 C 1062.7 5.05307 1.46803 0
M  V30 11650 O 1061.72 5.60729 0.978346 0
M  V30 11651 N 1062.93 5.08393 2.80209 0
M  V30 11652 H 1065.69 2.9259 -0.648948 0
M  V30 11653 H 1063.25 1.54268 -0.491209 0
M  V30 11654 H 1065.24 3.63395 1.78119 0
M  V30 11655 H 1063.81 2.57161 1.77728 0
M  V30 11656 H 1063.03 3.93024 -0.304262 0
M  V30 11657 H 1064.32 5.08745 0.0749871 0
M  V30 11658 H 1063.72 4.64729 3.22557 0
M  V30 11659 H 1062.28 5.56445 3.3943 0
M  V30 11660 N 1065.71 0.390394 1.52688 0
M  V30 11661 C 1066.62 -0.451543 2.30213 0
M  V30 11662 C 1067.64 -1.07051 1.37172 0
M  V30 11663 O 1068.81 -1.07609 1.70242 0
M  V30 11664 C 1065.88 -1.56299 3.0947 0
M  V30 11665 C 1064.94 -0.969017 4.18221 0
M  V30 11666 C 1064.17 -2.0275 4.93688 0
M  V30 11667 O 1064.39 -3.24273 4.69258 0
M  V30 11668 O 1063.33 -1.64418 5.79008 0
M  V30 11669 H 1067.15 0.180042 3.03166 0
M  V30 11670 H 1064.74 0.154082 1.48603 0
M  V30 11671 H 1066.62 -2.20864 3.58883 0
M  V30 11672 H 1065.3 -2.17952 2.3933 0
M  V30 11673 H 1064.2 -0.286587 3.73001 0
M  V30 11674 H 1065.54 -0.396687 4.90599 0
M  V30 11675 N 1067.19 -1.57141 0.120249 0
M  V30 11676 C 1068.15 -2.14213 -0.815185 0
M  V30 11677 C 1069.15 -1.07731 -1.19376 0
M  V30 11678 O 1070.34 -1.33502 -1.11906 0
M  V30 11679 C 1067.47 -2.68339 -2.10255 0
M  V30 11680 H 1068.67 -2.98197 -0.319166 0
M  V30 11681 H 1066.22 -1.55767 -0.128997 0
M  V30 11682 H 1066.95 -1.87946 -2.64285 0
M  V30 11683 H 1066.74 -3.46216 -1.84057 0
M  V30 11684 H 1068.23 -3.124 -2.77121 0
M  V30 11685 N 1068.67 0.153526 -1.5685 0
M  V30 11686 C 1069.9 0.881055 -1.86872 0
M  V30 11687 C 1070.3 1.75547 -0.705692 0
M  V30 11688 O 1069.65 1.8064 0.333888 0
M  V30 11689 C 1069.71 1.79429 -3.11521 0
M  V30 11690 C 1069.37 1.0977 -4.43621 0
M  V30 11691 C 1070.37 0.454693 -5.17908 0
M  V30 11692 C 1068.06 1.08915 -4.9035 0
M  V30 11693 C 1070.05 -0.187562 -6.37124 0
M  V30 11694 C 1067.74 0.443084 -6.09492 0
M  V30 11695 C 1068.73 -0.194154 -6.82724 0
M  V30 11696 O 1068.42 -0.829995 -7.99604 0
M  V30 11697 H 1068.15 0.260486 -0.623797 0
M  V30 11698 H 1070.71 0.153024 -2.04829 0
M  V30 11699 H 1068.94 2.5631 -2.89555 0
M  V30 11700 H 1070.63 2.39321 -3.27842 0
M  V30 11701 H 1071.39 0.453151 -4.82878 0
M  V30 11702 H 1067.27 1.57456 -4.33276 0
M  V30 11703 H 1070.82 -0.685542 -6.94223 0
M  V30 11704 H 1066.71 0.44227 -6.43983 0
M  V30 11705 H 1067.48 -0.731013 -8.15229 0
M  V30 11706 N 1070.14 1.51827 0.422667 0
M  V30 11707 C 1071.07 1.77152 1.52117 0
M  V30 11708 C 1072.06 0.621895 1.58324 0
M  V30 11709 O 1073.24 0.866118 1.73816 0
M  V30 11710 C 1070.37 1.90991 2.90068 0
M  V30 11711 C 1069.32 3.06516 2.98717 0
M  V30 11712 C 1068.65 3.05559 4.38791 0
M  V30 11713 C 1069.95 4.46223 2.71445 0
M  V30 11714 H 1071.64 2.69135 1.31175 0
M  V30 11715 H 1069.19 1.29507 0.629607 0
M  V30 11716 H 1071.14 2.07291 3.6689 0
M  V30 11717 H 1069.87 0.956688 3.12274 0
M  V30 11718 H 1068.53 2.89945 2.24338 0
M  V30 11719 H 1068.17 2.07985 4.57986 0
M  V30 11720 H 1067.87 3.83144 4.45505 0
M  V30 11721 H 1069.4 3.23971 5.17566 0
M  V30 11722 H 1070.81 4.63069 3.37994 0
M  V30 11723 H 1069.21 5.25623 2.89552 0
M  V30 11724 H 1070.28 4.5525 1.6696 0
M  V30 11725 N 1071.62 -0.679052 1.4222 0
M  V30 11726 C 1072.53 -1.82221 1.47759 0
M  V30 11727 C 1073.55 -1.70092 0.3667 0
M  V30 11728 O 1074.72 -1.91718 0.616957 0
M  V30 11729 C 1071.79 -3.18332 1.37351 0
M  V30 11730 C 1070.85 -3.42449 2.58896 0
M  V30 11731 C 1070.08 -4.72067 2.48976 0
M  V30 11732 O 1070.31 -5.49683 1.5233 0
M  V30 11733 O 1069.24 -4.97333 3.39033 0
M  V30 11734 H 1073.07 -1.80504 2.44238 0
M  V30 11735 H 1070.65 -0.834251 1.23938 0
M  V30 11736 H 1072.53 -3.99563 1.33893 0
M  V30 11737 H 1071.21 -3.20696 0.439965 0
M  V30 11738 H 1070.12 -2.61083 2.6793 0
M  V30 11739 H 1071.45 -3.44912 3.51136 0
M  V30 11740 N 1073.1 -1.28322 -0.914942 0
M  V30 11741 C 1074.06 -1.12169 -1.99877 0
M  V30 11742 C 1075.06 -0.0617252 -1.60681 0
M  V30 11743 O 1076.25 -0.307405 -1.71466 0
M  V30 11744 C 1073.39 -0.711959 -3.33383 0
M  V30 11745 H 1074.58 -2.08425 -2.15636 0
M  V30 11746 H 1072.13 -1.11291 -1.09745 0
M  V30 11747 H 1072.87 0.251418 -3.23324 0
M  V30 11748 H 1072.65 -1.47764 -3.63192 0
M  V30 11749 H 1074.14 -0.621558 -4.12948 0
M  V30 11750 N 1074.58 1.12322 -1.10551 0
M  V30 11751 C 1075.51 2.20176 -0.777486 0
M  V30 11752 C 1076.49 1.68252 0.250069 0
M  V30 11753 O 1077.67 1.93856 0.115574 0
M  V30 11754 C 1074.8 3.46666 -0.209822 0
M  V30 11755 C 1073.76 4.11749 -1.1682 0
M  V30 11756 C 1073.08 5.32703 -0.461684 0
M  V30 11757 C 1074.38 4.57746 -2.51527 0
M  V30 11758 H 1076.08 2.47872 -1.67928 0
M  V30 11759 H 1073.62 1.19136 -0.808863 0
M  V30 11760 H 1075.58 4.21388 0.0318068 0
M  V30 11761 H 1074.3 3.18401 0.727226 0
M  V30 11762 H 1072.96 3.39009 -1.3953 0
M  V30 11763 H 1072.61 5.00706 0.479875 0
M  V30 11764 H 1072.31 5.77197 -1.1008 0
M  V30 11765 H 1073.83 6.10172 -0.228629 0
M  V30 11766 H 1075.25 5.23835 -2.32958 0
M  V30 11767 H 1073.64 5.13021 -3.11335 0
M  V30 11768 H 1074.71 3.71667 -3.11435 0
M  V30 11769 N 1076.06 0.894434 1.2976 0
M  V30 11770 C 1077.28 0.5322 2.00455 0
M  V30 11771 C 1077.71 -0.874427 1.66539 0
M  V30 11772 O 1077.06 -1.58113 0.887129 0
M  V30 11773 C 1077.11 0.725264 3.53231 0
M  V30 11774 O 1076.22 -0.224612 4.11788 0
M  V30 11775 H 1075.56 0.208562 0.630395 0
M  V30 11776 H 1078.09 1.20458 1.65382 0
M  V30 11777 H 1078.1 0.627889 4.0314 0
M  V30 11778 H 1076.77 1.75079 3.77253 0
M  V30 11779 H 1075.35 -0.0801361 3.72814 0
M  V30 11780 N 1077.53 -1.43282 0.656365 0
M  V30 11781 C 1078.48 -2.27932 -0.0557069 0
M  V30 11782 C 1079.47 -1.40075 -0.791698 0
M  V30 11783 O 1080.66 -1.6368 -0.673646 0
M  V30 11784 C 1077.79 -3.27821 -1.01923 0
M  V30 11785 C 1076.88 -4.23164 -0.281545 0
M  V30 11786 N 1077.27 -5.00882 0.703629 0
M  V30 11787 C 1075.56 -4.42928 -0.522558 0
M  V30 11788 C 1076.27 -5.70384 1.14177 0
M  V30 11789 N 1075.24 -5.41517 0.475394 0
M  V30 11790 H 1079.04 -2.85437 0.70022 0
M  V30 11791 H 1076.56 -1.55023 0.483902 0
M  V30 11792 H 1078.55 -3.87248 -1.54418 0
M  V30 11793 H 1077.21 -2.71878 -1.77518 0
M  V30 11794 H 1078.23 -5.06461 1.08247 0
M  V30 11795 H 1074.9 -3.98051 -1.25944 0
M  V30 11796 H 1076.29 -6.42765 1.95711 0
M  V30 11797 N 1079.01 -0.398486 -1.52479 0
M  V30 11798 C 1079.94 0.423498 -2.29627 0
M  V30 11799 C 1080.92 1.05547 -1.33394 0
M  V30 11800 O 1082.11 1.0665 -1.62294 0
M  V30 11801 C 1079.24 1.54612 -3.10986 0
M  V30 11802 C 1078.19 1.03971 -4.15179 0
M  V30 11803 C 1077.52 2.25512 -4.84818 0
M  V30 11804 C 1078.82 0.10121 -5.22202 0
M  V30 11805 H 1080.51 -0.220222 -2.98589 0
M  V30 11806 H 1078.06 -0.107355 -1.43599 0
M  V30 11807 H 1080.01 2.12806 -3.63719 0
M  V30 11808 H 1078.74 2.21756 -2.39774 0
M  V30 11809 H 1077.4 0.480251 -3.63441 0
M  V30 11810 H 1077.04 2.91187 -4.10145 0
M  V30 11811 H 1076.74 1.92285 -5.55248 0
M  V30 11812 H 1078.27 2.84331 -5.40359 0
M  V30 11813 H 1079.68 0.591617 -5.70239 0
M  V30 11814 H 1078.08 -0.141737 -5.99933 0
M  V30 11815 H 1079.15 -0.847216 -4.77441 0
M  V30 11816 N 1080.49 1.57075 -0.12858 0
M  V30 11817 C 1081.42 2.12907 0.848708 0
M  V30 11818 C 1082.44 1.07406 1.22343 0
M  V30 11819 O 1083.63 1.34746 1.17071 0
M  V30 11820 C 1080.73 2.62167 2.1476 0
M  V30 11821 C 1079.9 3.91871 1.94309 0
M  V30 11822 C 1078.96 4.26629 3.08016 0
M  V30 11823 O 1077.98 4.9528 2.80511 0
M  V30 11824 N 1079.19 3.84721 4.34706 0
M  V30 11825 H 1081.95 2.97387 0.371636 0
M  V30 11826 H 1079.51 1.61805 0.0555574 0
M  V30 11827 H 1081.5 2.82444 2.89841 0
M  V30 11828 H 1080.07 1.82514 2.53786 0
M  V30 11829 H 1079.29 3.80406 1.03367 0
M  V30 11830 H 1080.58 4.76662 1.77962 0
M  V30 11831 H 1079.98 3.2937 4.59926 0
M  V30 11832 H 1078.54 4.10087 5.06628 0
M  V30 11833 N 1081.97 -0.145205 1.5693 0
M  V30 11834 C 1083.19 -0.876386 1.87974 0
M  V30 11835 C 1083.62 -1.73866 0.717795 0
M  V30 11836 O 1082.98 -1.78224 -0.332551 0
M  V30 11837 C 1083.03 -1.70746 3.17613 0
M  V30 11838 O 1082.13 -2.81188 3.01674 0
M  V30 11839 H 1081.47 -0.243987 0.617549 0
M  V30 11840 H 1084 -0.135482 2.04151 0
M  V30 11841 H 1084.01 -2.1021 3.49679 0
M  V30 11842 H 1082.69 -1.07429 4.01786 0
M  V30 11843 H 1081.26 -2.45117 2.81019 0
M  V30 11844 N 1083.45 -1.52049 -0.414609 0
M  V30 11845 C 1084.86 -1.58062 -0.993638 0
M  V30 11846 C 1085.21 -0.417795 -1.917 0
M  V30 11847 O 1084.33 0.462558 -2.11399 0
M  V30 11848 C 1084.93 -2.86471 -1.80886 0
M  V30 11849 C 1083.49 -2.94981 -2.33801 0
M  V30 11850 C 1082.64 -2.52949 -1.13631 0
M  V30 11851 H 1085.59 -1.57497 -0.19504 0
M  V30 11852 H 1085.61 -2.71515 -2.66571 0
M  V30 11853 H 1085.12 -3.71085 -1.13657 0
M  V30 11854 H 1083.22 -2.14849 -3.04419 0
M  V30 11855 H 1083.33 -3.99111 -2.65042 0
M  V30 11856 H 1081.7 -2.0667 -1.48861 0
M  V30 11857 H 1082.48 -3.39931 -0.479765 0
M  V30 11858 N 1084.93 0.6715 -1.42579 0
M  V30 11859 C 1085.86 1.79693 -1.49107 0
M  V30 11860 C 1086.84 1.66516 -0.347338 0
M  V30 11861 O 1088.02 1.85887 -0.562094 0
M  V30 11862 C 1085.15 3.1801 -1.39596 0
M  V30 11863 C 1084.11 3.45926 -2.5203 0
M  V30 11864 C 1083.43 4.83852 -2.27577 0
M  V30 11865 C 1084.73 3.4249 -3.94333 0
M  V30 11866 H 1086.43 1.74486 -2.433 0
M  V30 11867 H 1083.97 0.838042 -1.17102 0
M  V30 11868 H 1085.92 3.96478 -1.42771 0
M  V30 11869 H 1084.65 3.23901 -0.418989 0
M  V30 11870 H 1083.31 2.6982 -2.48178 0
M  V30 11871 H 1082.96 4.86398 -1.28165 0
M  V30 11872 H 1082.66 5.03493 -3.02934 0
M  V30 11873 H 1084.18 5.646 -2.32506 0
M  V30 11874 H 1085.59 4.10922 -3.9977 0
M  V30 11875 H 1083.99 3.73666 -4.69568 0
M  V30 11876 H 1085.06 2.41002 -4.20768 0
M  V30 11877 N 1086.4 1.28806 0.908124 0
M  V30 11878 C 1087.68 1.06981 1.63751 0
M  V30 11879 C 1088.06 -0.388936 2.07486 0
M  V30 11880 O 1087.41 -1.37611 1.82415 0
M  V30 11881 C 1087.62 2.04962 2.82474 0
M  V30 11882 C 1088.97 2.35418 3.5336 0
M  V30 11883 O 1089.99 2.03091 2.92631 0
M  V30 11884 O 1088.85 2.90617 4.62822 0
M  V30 11885 H 1085.94 0.409267 0.71863 0
M  V30 11886 H 1088.49 1.40146 0.956934 0
M  V30 11887 H 1087.26 3.03254 2.47291 0
M  V30 11888 H 1086.88 1.72476 3.58242 0
M  V30 11889 N 1087.88 -1.11734 1.11145 0
M  V30 11890 C 1089.29 -1.64928 0.874959 0
M  V30 11891 C 1089.64 -1.87012 -0.593375 0
M  V30 11892 O 1088.77 -1.60206 -1.45475 0
M  V30 11893 C 1089.36 -2.99608 1.58178 0
M  V30 11894 C 1087.92 -3.49723 1.39179 0
M  V30 11895 C 1087.07 -2.24595 1.62642 0
M  V30 11896 H 1090.02 -0.954154 1.26813 0
M  V30 11897 H 1090.04 -3.66434 1.02501 0
M  V30 11898 H 1089.55 -2.83504 2.65042 0
M  V30 11899 H 1087.65 -3.70998 0.345111 0
M  V30 11900 H 1087.77 -4.28711 2.13878 0
M  V30 11901 H 1086.13 -2.32067 1.04961 0
M  V30 11902 H 1086.91 -2.11036 2.70774 0
M  V30 11903 N 1089.36 -0.901303 -1.29284 0
M  V30 11904 C 1090.58 -0.542823 -2.0017 0
M  V30 11905 C 1091.01 0.865583 -1.67001 0
M  V30 11906 O 1090.37 1.5764 -0.895502 0
M  V30 11907 C 1090.42 -0.743987 -3.52842 0
M  V30 11908 O 1089.52 0.202771 -4.11901 0
M  V30 11909 H 1088.86 -0.211903 -0.62928 0
M  V30 11910 H 1091.39 -1.21333 -1.64741 0
M  V30 11911 H 1091.4 -0.64926 -4.02801 0
M  V30 11912 H 1090.08 -1.77077 -3.7632 0
M  V30 11913 H 1088.65 0.0603637 -3.72851 0
M  V30 11914 N 1090.84 1.42931 -0.663954 0
M  V30 11915 C 1092.07 2.06028 -0.189808 0
M  V30 11916 C 1092.48 1.49827 1.14879 0
M  V30 11917 O 1091.84 0.633778 1.71142 0
M  V30 11918 C 1091.89 3.61349 -0.104343 0
M  V30 11919 O 1091.61 4.15463 -1.39004 0
M  V30 11920 C 1093.11 4.4154 0.394599 0
M  V30 11921 H 1090.33 0.664259 -0.0948744 0
M  V30 11922 H 1092.87 1.83255 -0.907632 0
M  V30 11923 H 1091.03 3.83271 0.564103 0
M  V30 11924 H 1091.44 5.09233 -1.25626 0
M  V30 11925 H 1092.92 5.50525 0.403329 0
M  V30 11926 H 1093.39 4.1534 1.4279 0
M  V30 11927 H 1094 4.24612 -0.241729 0
M  V30 11928 N 1092.32 0.406567 1.52266 0
M  V30 11929 C 1093.25 -0.411314 2.29849 0
M  V30 11930 C 1094.23 -1.04838 1.33952 0
M  V30 11931 O 1095.41 -1.05788 1.62857 0
M  V30 11932 C 1092.54 -1.52961 3.11802 0
M  V30 11933 C 1091.5 -1.01768 4.15725 0
M  V30 11934 C 1090.82 -2.22938 4.86007 0
M  V30 11935 C 1092.12 -0.073515 5.22248 0
M  V30 11936 H 1093.82 0.236054 2.98468 0
M  V30 11937 H 1091.36 0.114968 1.4354 0
M  V30 11938 H 1093.31 -2.10874 3.64843 0
M  V30 11939 H 1092.04 -2.20482 2.40947 0
M  V30 11940 H 1090.7 -0.46097 3.6369 0
M  V30 11941 H 1090.35 -2.89007 4.11684 0
M  V30 11942 H 1090.05 -1.89338 5.5626 0
M  V30 11943 H 1091.57 -2.81462 5.41859 0
M  V30 11944 H 1092.98 -0.561367 5.70545 0
M  V30 11945 H 1091.38 0.173551 5.99849 0
M  V30 11946 H 1092.45 0.872524 4.76985 0
M  V30 11947 N 1093.79 -1.57004 0.136909 0
M  V30 11948 C 1094.72 -2.19262 -0.802902 0
M  V30 11949 C 1095.71 -1.13786 -1.26439 0
M  V30 11950 O 1096.89 -1.42091 -1.32377 0
M  V30 11951 C 1094.02 -2.80624 -2.04615 0
M  V30 11952 C 1092.97 -3.91839 -1.72181 0
M  V30 11953 C 1092.3 -4.4009 -3.03686 0
M  V30 11954 C 1093.6 -5.13095 -0.976249 0
M  V30 11955 H 1095.29 -2.98049 -0.28406 0
M  V30 11956 H 1092.84 -1.43364 -0.135189 0
M  V30 11957 H 1094.79 -3.22842 -2.70834 0
M  V30 11958 H 1093.52 -1.99153 -2.58855 0
M  V30 11959 H 1092.18 -3.50224 -1.08344 0
M  V30 11960 H 1091.82 -3.55454 -3.55896 0
M  V30 11961 H 1091.52 -5.15098 -2.82751 0
M  V30 11962 H 1093.05 -4.84971 -3.70993 0
M  V30 11963 H 1094.46 -5.5222 -1.54033 0
M  V30 11964 H 1092.86 -5.93801 -0.867214 0
M  V30 11965 H 1093.93 -4.84888 0.0338488 0
M  V30 11966 N 1095.27 0.136881 -1.57004 0
M  V30 11967 C 1096.24 1.15267 -1.98106 0
M  V30 11968 C 1097.24 1.35305 -0.868856 0
M  V30 11969 O 1098.43 1.32126 -1.13527 0
M  V30 11970 C 1095.56 2.51092 -2.30577 0
M  V30 11971 H 1096.75 0.799821 -2.89038 0
M  V30 11972 H 1094.3 0.380576 -1.51596 0
M  V30 11973 H 1095.04 2.9133 -1.42469 0
M  V30 11974 H 1094.82 2.37906 -3.11678 0
M  V30 11975 H 1096.31 3.24232 -2.63179 0
M  V30 11976 N 1096.75 1.52266 0.40654 0
M  V30 11977 C 1097.66 1.78688 1.52012 0
M  V30 11978 C 1098.68 0.6726 1.60475 0
M  V30 11979 O 1099.85 0.95829 1.77141 0
M  V30 11980 C 1096.92 1.93434 2.87722 0
M  V30 11981 C 1095.98 3.17341 2.89125 0
M  V30 11982 C 1095.21 3.31374 4.18362 0
M  V30 11983 O 1095.43 2.50613 5.12396 0
M  V30 11984 O 1094.37 4.24539 4.26674 0
M  V30 11985 H 1098.19 2.73213 1.3262 0
M  V30 11986 H 1095.78 1.37142 0.592653 0
M  V30 11987 H 1097.66 2.04941 3.68208 0
M  V30 11988 H 1096.34 1.02099 3.07177 0
M  V30 11989 H 1095.24 3.1129 2.07483 0
M  V30 11990 H 1096.58 4.08466 2.7462 0
M  V30 11991 N 1098.23 -0.663929 1.42933 0
M  V30 11992 C 1099.47 -1.42603 1.44195 0
M  V30 11993 C 1099.81 -1.94101 0.0620284 0
M  V30 11994 O 1099.08 -1.71609 -0.91546 0
M  V30 11995 C 1099.37 -2.61522 2.47544 0
M  V30 11996 C 1099.22 -2.15587 3.94769 0
M  V30 11997 C 1100.54 -3.6374 2.47753 0
M  V30 11998 H 1097.66 -0.517189 0.525056 0
M  V30 11999 H 1100.3 -0.75361 1.74415 0
M  V30 12000 H 1098.45 -3.1889 2.21904 0
M  V30 12001 H 1100.12 -1.63303 4.31428 0
M  V30 12002 H 1098.36 -1.47057 4.08114 0
M  V30 12003 H 1099.03 -3.01053 4.62678 0
M  V30 12004 H 1101.51 -3.16111 2.70579 0
M  V30 12005 H 1100.39 -4.44512 3.22025 0
M  V30 12006 H 1100.65 -4.15607 1.50742 0
M  V30 12007 N 1099.71 -1.29285 -0.901281 0
M  V30 12008 C 1100.95 -1.18431 -1.66594 0
M  V30 12009 C 1101.31 0.260312 -1.90227 0
M  V30 12010 O 1102.51 0.4918 -2.64263 0
M  V30 12011 C 1100.78 -1.97357 -2.97968 0
M  V30 12012 S 1102.34 -2.03019 -3.8901 0
M  V30 12013 H 1099.16 -0.422323 -0.571983 0
M  V30 12014 H 1101.76 -1.63551 -1.07105 0
M  V30 12015 H 1100.47 -3.01459 -2.78479 0
M  V30 12016 H 1100 -1.52836 -3.62498 0
M  V30 12017 H 1102.01 -1.14572 -4.82791 0
M  V30 12018 N 1101.18 1.11143 -1.11736 0
M  V30 12019 C 1102.43 1.83219 -0.869413 0
M  V30 12020 C 1102.76 1.84588 0.603402 0
M  V30 12021 O 1102.04 1.30119 1.44566 0
M  V30 12022 C 1102.32 3.30247 -1.43559 0
M  V30 12023 C 1102.17 3.37253 -2.97624 0
M  V30 12024 C 1103.49 4.26412 -1.08907 0
M  V30 12025 H 1100.61 0.665205 -0.317286 0
M  V30 12026 H 1103.25 1.30307 -1.38275 0
M  V30 12027 H 1101.4 3.75437 -0.998978 0
M  V30 12028 H 1103.08 3.00599 -3.49911 0
M  V30 12029 H 1101.32 2.77378 -3.33532 0
M  V30 12030 H 1101.99 4.40752 -3.32328 0
M  V30 12031 H 1104.47 3.89418 -1.46604 0
M  V30 12032 H 1103.34 5.27666 -1.51195 0
M  V30 12033 H 1103.6 4.421 -0.000259009 0
M  V30 12034 N 1102.66 0.908147 1.28804 0
M  V30 12035 C 1103.57 0.397167 2.31214 0
M  V30 12036 C 1104.59 -0.512352 1.66286 0
M  V30 12037 O 1105.76 -0.399893 1.9739 0
M  V30 12038 C 1102.83 -0.359522 3.44831 0
M  V30 12039 C 1101.89 0.582539 4.25329 0
M  V30 12040 C 1101.12 -0.138133 5.33521 0
M  V30 12041 O 1101.35 -1.36076 5.53931 0
M  V30 12042 O 1100.28 0.523682 5.99618 0
M  V30 12043 H 1104.11 1.247 2.76918 0
M  V30 12044 H 1101.69 0.672766 1.33395 0
M  V30 12045 H 1103.57 -0.787098 4.13984 0
M  V30 12046 H 1102.25 -1.18528 3.01219 0
M  V30 12047 H 1101.16 1.0594 3.58786 0
M  V30 12048 H 1102.49 1.37495 4.72605 0
M  V30 12049 N 1104.14 -1.42577 0.671525 0
M  V30 12050 C 1105.07 -2.2915 -0.0477361 0
M  V30 12051 C 1106.09 -1.43503 -0.768805 0
M  V30 12052 O 1107.27 -1.67256 -0.623509 0
M  V30 12053 C 1104.37 -3.20851 -1.09122 0
M  V30 12054 C 1103.55 -4.35134 -0.44463 0
M  V30 12055 C 1102.61 -5.07579 -1.38745 0
M  V30 12056 O 1101.63 -5.62215 -0.889015 0
M  V30 12057 N 1102.83 -5.12786 -2.72086 0
M  V30 12058 H 1105.6 -2.9152 0.695415 0
M  V30 12059 H 1103.16 -1.53467 0.515689 0
M  V30 12060 H 1105.15 -3.66183 -1.72315 0
M  V30 12061 H 1103.72 -2.59956 -1.73614 0
M  V30 12062 H 1102.94 -3.9249 0.36675 0
M  V30 12063 H 1104.23 -5.088 0.00595927 0
M  V30 12064 H 1103.63 -4.69802 -3.15123 0
M  V30 12065 H 1102.19 -5.61774 -3.30535 0
M  V30 12066 N 1105.62 -0.414636 -1.52048 0
M  V30 12067 C 1106.86 0.158807 -2.03782 0
M  V30 12068 C 1107.22 1.41912 -1.29325 0
M  V30 12069 O 1108.42 2.07136 -1.71313 0
M  V30 12070 C 1106.69 0.395092 -3.55209 0
M  V30 12071 S 1108.25 0.935193 -4.28719 0
M  V30 12072 H 1105.07 0.0424729 -0.70973 0
M  V30 12073 H 1107.67 -0.568822 -1.87042 0
M  V30 12074 H 1106.38 -0.528875 -4.06978 0
M  V30 12075 H 1105.91 1.15044 -3.76203 0
M  V30 12076 H 1107.92 2.21519 -4.44009 0
M  V30 12077 N 1107.1 1.56929 -0.145233 0
M  V30 12078 C 1108.32 2.00431 0.513314 0
M  V30 12079 C 1108.74 1.0253 1.58534 0
M  V30 12080 O 1108.1 0.0220459 1.82487 0
M  V30 12081 C 1108.15 3.43856 1.11557 0
M  V30 12082 O 1107.87 4.38015 0.0863707 0
M  V30 12083 C 1109.37 4.02627 1.8549 0
M  V30 12084 H 1106.59 0.657529 0.133778 0
M  V30 12085 H 1109.13 2.03095 -0.239296 0
M  V30 12086 H 1107.29 3.4205 1.81881 0
M  V30 12087 H 1107.7 5.21842 0.527363 0
M  V30 12088 H 1109.18 5.04985 2.22923 0
M  V30 12089 H 1109.65 3.43239 2.74014 0
M  V30 12090 H 1110.26 4.08058 1.19869 0
M  V30 12091 N 1108.58 -0.128553 1.57075 0
M  V30 12092 C 1109.82 -0.83801 1.84347 0
M  V30 12093 C 1110.15 -1.80325 0.728906 0
M  V30 12094 O 1109.41 -1.93678 -0.280571 0
M  V30 12095 C 1109.7 -1.63027 3.18052 0
M  V30 12096 C 1109.37 -0.810171 4.43562 0
M  V30 12097 C 1108.03 -0.583984 4.77643 0
M  V30 12098 C 1110.38 -0.237896 5.20657 0
M  V30 12099 C 1107.71 0.224887 5.86269 0
M  V30 12100 C 1110.06 0.558114 6.30133 0
M  V30 12101 C 1108.73 0.794706 6.62752 0
M  V30 12102 H 1108 -0.30665 0.674572 0
M  V30 12103 H 1110.65 -0.100797 1.91235 0
M  V30 12104 H 1108.95 -2.43812 3.06697 0
M  V30 12105 H 1110.65 -2.183 3.36372 0
M  V30 12106 H 1107.24 -0.996547 4.16854 0
M  V30 12107 H 1111.42 -0.399881 4.94686 0
M  V30 12108 H 1106.68 0.417507 6.09973 0
M  V30 12109 H 1110.85 1.00859 6.89058 0
M  V30 12110 H 1108.48 1.42331 7.46757 0
M  V30 12111 N 1110.05 -1.5248 -0.398459 0
M  V30 12112 C 1110.99 -1.71321 -1.50746 0
M  V30 12113 C 1111.96 -0.5609 -1.52619 0
M  V30 12114 O 1113.15 -0.789557 -1.71167 0
M  V30 12115 C 1110.28 -1.76223 -2.89246 0
M  V30 12116 C 1109.32 -2.97878 -3.05239 0
M  V30 12117 S 1110.15 -4.58031 -2.77431 0
M  V30 12118 C 1111.31 -4.65735 -4.18141 0
M  V30 12119 H 1111.54 -2.65117 -1.34538 0
M  V30 12120 H 1109.08 -1.42653 -0.590727 0
M  V30 12121 H 1111.03 -1.79733 -3.69062 0
M  V30 12122 H 1109.7 -0.83536 -3.02788 0
M  V30 12123 H 1108.89 -2.97821 -4.06594 0
M  V30 12124 H 1108.49 -2.92311 -2.33304 0
M  V30 12125 H 1110.78 -4.43768 -5.11934 0
M  V30 12126 H 1111.73 -5.67709 -4.23217 0
M  V30 12127 H 1112.13 -3.94664 -4.03609 0
M  V30 12128 N 1111.53 0.65634 -1.43283 0
M  V30 12129 C 1112.81 1.41339 -1.35213 0
M  V30 12130 C 1113.19 2.111 0.00158494 0
M  V30 12131 O 1112.54 2.0457 1.018 0
M  V30 12132 C 1112.75 2.40066 -2.53317 0
M  V30 12133 C 1114.09 3.04159 -2.96264 0
M  V30 12134 O 1115.12 2.50393 -2.53341 0
M  V30 12135 O 1113.98 4.01633 -3.70612 0
M  V30 12136 H 1111.07 0.631325 -0.534189 0
M  V30 12137 H 1113.62 0.68351 -1.55326 0
M  V30 12138 H 1112.39 1.87444 -3.43483 0
M  V30 12139 H 1112.01 3.20509 -2.35287 0
M  V30 12140 N 1113.01 1.29761 0.894412 0
M  V30 12141 C 1114.23 1.21064 1.68399 0
M  V30 12142 C 1114.66 -0.224608 1.86754 0
M  V30 12143 O 1114.02 -1.16199 1.39167 0
M  V30 12144 C 1114.07 1.93468 3.04306 0
M  V30 12145 O 1113.17 1.25533 3.9283 0
M  V30 12146 H 1112.51 0.419223 0.514925 0
M  V30 12147 H 1115.04 1.71421 1.11696 0
M  V30 12148 H 1115.05 2.02127 3.54413 0
M  V30 12149 H 1113.73 2.97857 2.90265 0
M  V30 12150 H 1112.3 1.25168 3.51266 0
M  V30 12151 N 1114.49 -1.10549 1.12324 0
M  V30 12152 C 1115.43 -2.16858 0.790024 0
M  V30 12153 C 1116.4 -1.64317 -0.242694 0
M  V30 12154 O 1117.59 -1.90438 -0.117531 0
M  V30 12155 C 1114.73 -3.44197 0.249503 0
M  V30 12156 C 1113.84 -4.10696 1.33989 0
M  V30 12157 C 1112.98 -5.25751 0.758932 0
M  V30 12158 C 1112.02 -5.8415 1.82853 0
M  V30 12159 N 1111.15 -6.90585 1.26637 0
M  V30 12160 H 1115.99 -2.44705 1.7007 0
M  V30 12161 H 1113.53 -1.20117 0.849141 0
M  V30 12162 H 1115.49 -4.1712 -0.0819251 0
M  V30 12163 H 1114.12 -3.16705 -0.624332 0
M  V30 12164 H 1113.17 -3.35754 1.78812 0
M  V30 12165 H 1114.48 -4.50144 2.14875 0
M  V30 12166 H 1113.64 -6.05521 0.378104 0
M  V30 12167 H 1112.38 -4.87632 -0.0811405 0
M  V30 12168 H 1111.38 -5.03051 2.21856 0
M  V30 12169 H 1112.61 -6.24333 2.6718 0
M  V30 12170 H 1110.55 -6.54468 0.448105 0
M  V30 12171 H 1110.47 -7.28739 2.01184 0
M  V30 12172 H 1111.74 -7.74138 0.912737 0
M  V30 12173 N 1115.97 -0.914965 -1.28321 0
M  V30 12174 C 1116.9 -0.348729 -2.2552 0
M  V30 12175 C 1117.88 0.547737 -1.53097 0
M  V30 12176 O 1119.06 0.491119 -1.8199 0
M  V30 12177 C 1116.19 0.501397 -3.34968 0
M  V30 12178 C 1115.23 -0.329859 -4.25223 0
M  V30 12179 S 1116.07 -1.73737 -5.06533 0
M  V30 12180 C 1117.22 -0.89458 -6.19474 0
M  V30 12181 H 1117.46 -1.17256 -2.732 0
M  V30 12182 H 1114.99 -0.716297 -1.36779 0
M  V30 12183 H 1116.95 0.986061 -3.98481 0
M  V30 12184 H 1115.61 1.29962 -2.85952 0
M  V30 12185 H 1114.8 0.320236 -5.02982 0
M  V30 12186 H 1114.4 -0.748221 -3.66439 0
M  V30 12187 H 1116.69 -0.124776 -6.77385 0
M  V30 12188 H 1117.64 -1.64475 -6.88733 0
M  V30 12189 H 1118.05 -0.442217 -5.62765 0
M  V30 12190 N 1117.44 1.42219 -0.679077 0
M  V30 12191 C 1118.39 2.308 -0.00340316 0
M  V30 12192 C 1119.36 1.462 0.788334 0
M  V30 12193 O 1120.55 1.75023 0.759716 0
M  V30 12194 C 1117.69 3.32084 0.938854 0
M  V30 12195 C 1116.8 4.31772 0.140485 0
M  V30 12196 C 1115.93 5.20128 1.07888 0
M  V30 12197 C 1114.97 6.11493 0.27245 0
M  V30 12198 N 1114.11 6.92388 1.16378 0
M  V30 12199 H 1118.95 2.88024 -0.764587 0
M  V30 12200 H 1116.49 1.41869 -0.38878 0
M  V30 12201 H 1118.44 3.89339 1.49903 0
M  V30 12202 H 1117.07 2.76448 1.66662 0
M  V30 12203 H 1116.13 3.76599 -0.536376 0
M  V30 12204 H 1117.44 4.96432 -0.485433 0
M  V30 12205 H 1116.59 5.82137 1.70884 0
M  V30 12206 H 1115.33 4.55655 1.73868 0
M  V30 12207 H 1114.34 5.48549 -0.370693 0
M  V30 12208 H 1115.56 6.78017 -0.383315 0
M  V30 12209 H 1113.51 6.30538 1.8099 0
M  V30 12210 H 1113.42 7.5367 0.593043 0
M  V30 12211 H 1114.69 7.58879 1.78107 0
M  V30 12212 N 1118.92 0.422693 1.51826 0
M  V30 12213 C 1120.33 -0.0438129 1.86649 0
M  V30 12214 C 1120.68 -1.43246 1.34071 0
M  V30 12215 O 1119.81 -2.05256 0.685501 0
M  V30 12216 C 1120.4 -0.0862802 3.3869 0
M  V30 12217 C 1118.96 -0.497157 3.73102 0
M  V30 12218 C 1118.11 0.319655 2.75451 0
M  V30 12219 H 1121.06 0.639181 1.45259 0
M  V30 12220 H 1121.08 -0.8988 3.69732 0
M  V30 12221 H 1120.59 0.924525 3.76927 0
M  V30 12222 H 1118.69 -1.51411 3.40449 0
M  V30 12223 H 1118.81 -0.232125 4.78537 0
M  V30 12224 H 1117.17 -0.219963 2.53748 0
M  V30 12225 H 1117.95 1.32906 3.16529 0
M  V30 12226 N 1120.4 -1.5685 0.153553 0
M  V30 12227 C 1121.33 -2.20101 -0.779601 0
M  V30 12228 C 1122.31 -1.15121 -1.25225 0
M  V30 12229 O 1123.5 -1.43487 -1.30862 0
M  V30 12230 C 1120.63 -2.82778 -2.01628 0
M  V30 12231 C 1119.58 -3.93643 -1.68015 0
M  V30 12232 C 1118.91 -4.43286 -2.99001 0
M  V30 12233 C 1120.21 -5.14102 -0.921774 0
M  V30 12234 H 1121.9 -2.98334 -0.252432 0
M  V30 12235 H 1119.45 -1.43499 -0.119975 0
M  V30 12236 H 1121.4 -3.25696 -2.67395 0
M  V30 12237 H 1120.12 -2.01887 -2.56728 0
M  V30 12238 H 1118.78 -3.51354 -1.04624 0
M  V30 12239 H 1118.43 -3.59208 -3.52106 0
M  V30 12240 H 1118.13 -5.18068 -2.77272 0
M  V30 12241 H 1119.65 -4.88878 -3.65828 0
M  V30 12242 H 1121.07 -5.53823 -1.48167 0
M  V30 12243 H 1119.46 -5.94687 -0.804185 0
M  V30 12244 H 1120.53 -4.84825 0.0852757 0
M  V30 12245 N 1121.88 0.120221 -1.57141 0
M  V30 12246 C 1123.12 0.824472 -1.85941 0
M  V30 12247 C 1123.48 1.77552 -0.741152 0
M  V30 12248 O 1122.77 1.89842 0.258939 0
M  V30 12249 C 1122.97 1.61338 -3.18912 0
M  V30 12250 C 1122.79 0.740224 -4.43566 0
M  V30 12251 C 1121.56 0.39553 -5.0375 0
M  V30 12252 C 1123.76 0.0584053 -5.14267 0
M  V30 12253 N 1121.74 -0.488415 -6.11954 0
M  V30 12254 C 1123.12 -0.684591 -6.16209 0
M  V30 12255 C 1125.17 -0.0181409 -4.97897 0
M  V30 12256 C 1123.87 -1.49694 -7.03551 0
M  V30 12257 C 1125.9 -0.817313 -5.85725 0
M  V30 12258 C 1125.26 -1.54851 -6.87169 0
M  V30 12259 H 1121.36 0.278664 -0.730664 0
M  V30 12260 H 1123.94 0.0882789 -1.945 0
M  V30 12261 H 1122.12 2.32062 -3.11451 0
M  V30 12262 H 1123.85 2.26287 -3.35524 0
M  V30 12263 H 1120.6 0.737491 -4.67823 0
M  V30 12264 H 1121.03 -0.9222 -6.7069 0
M  V30 12265 H 1125.67 0.532815 -4.19429 0
M  V30 12266 H 1123.39 -2.05906 -7.81427 0
M  V30 12267 H 1126.97 -0.878884 -5.75123 0
M  V30 12268 H 1125.85 -2.15696 -7.53953 0
M  V30 12269 N 1123.36 1.52689 0.390367 0
M  V30 12270 C 1124.61 1.6689 1.13272 0
M  V30 12271 C 1124.92 0.414433 1.91159 0
M  V30 12272 O 1126.12 0.436559 2.67967 0
M  V30 12273 C 1124.58 2.94929 2.06264 0
M  V30 12274 C 1124.19 4.27551 1.33805 0
M  V30 12275 C 1125.93 3.18497 2.80642 0
M  V30 12276 C 1123.84 5.46698 2.25554 0
M  V30 12277 H 1122.77 0.621749 0.426549 0
M  V30 12278 H 1125.42 1.79185 0.395615 0
M  V30 12279 H 1123.8 2.76378 2.83604 0
M  V30 12280 H 1124.98 4.56651 0.616997 0
M  V30 12281 H 1123.29 4.10234 0.713913 0
M  V30 12282 H 1125.89 4.04693 3.49467 0
M  V30 12283 H 1126.23 2.33511 3.44642 0
M  V30 12284 H 1126.76 3.37607 2.10395 0
M  V30 12285 H 1123.5 6.34088 1.66171 0
M  V30 12286 H 1123.02 5.21913 2.95579 0
M  V30 12287 H 1124.7 5.80519 2.85668 0
M  V30 12288 N 1124.83 -0.648732 1.43629 0
M  V30 12289 C 1125.77 -1.77363 1.43589 0
M  V30 12290 C 1126.75 -1.59869 0.296783 0
M  V30 12291 O 1127.93 -1.81991 0.491065 0
M  V30 12292 C 1125.06 -3.1472 1.25175 0
M  V30 12293 C 1124.1 -3.50906 2.4242 0
M  V30 12294 S 1124.94 -3.50372 4.04968 0
M  V30 12295 C 1126.09 -4.90379 3.88946 0
M  V30 12296 H 1126.32 -1.77127 2.38774 0
M  V30 12297 H 1123.86 -0.821778 1.30714 0
M  V30 12298 H 1125.82 -3.93993 1.15239 0
M  V30 12299 H 1124.48 -3.12513 0.315303 0
M  V30 12300 H 1123.67 -4.50813 2.25353 0
M  V30 12301 H 1123.27 -2.79056 2.49006 0
M  V30 12302 H 1125.56 -5.79155 3.51548 0
M  V30 12303 H 1126.51 -5.12498 4.88622 0
M  V30 12304 H 1126.91 -4.64125 3.21323 0
M  V30 12305 N 1126.31 -1.30234 -0.887518 0
M  V30 12306 C 1127.54 -1.21652 -1.66986 0
M  V30 12307 C 1127.95 0.223473 -1.87876 0
M  V30 12308 O 1127.29 1.15993 -1.42448 0
M  V30 12309 C 1127.36 -1.87173 -3.06931 0
M  V30 12310 C 1127.02 -3.36496 -3.09224 0
M  V30 12311 C 1128.02 -4.3253 -2.88469 0
M  V30 12312 C 1125.7 -3.77901 -3.30902 0
M  V30 12313 C 1127.7 -5.67942 -2.89344 0
M  V30 12314 C 1125.38 -5.13432 -3.31407 0
M  V30 12315 C 1126.38 -6.08263 -3.10653 0
M  V30 12316 O 1126.07 -7.41318 -3.1097 0
M  V30 12317 H 1125.8 -0.422224 -0.527923 0
M  V30 12318 H 1128.35 -1.72349 -1.11736 0
M  V30 12319 H 1126.58 -1.31002 -3.63834 0
M  V30 12320 H 1128.27 -1.72745 -3.67306 0
M  V30 12321 H 1129.04 -4.01873 -2.7152 0
M  V30 12322 H 1124.92 -3.04534 -3.46093 0
M  V30 12323 H 1128.46 -6.41936 -2.73063 0
M  V30 12324 H 1124.36 -5.4373 -3.47891 0
M  V30 12325 H 1125.13 -7.50275 -3.27153 0
M  V30 12326 N 1127.79 1.09952 -1.12909 0
M  V30 12327 C 1129.02 1.8633 -0.910821 0
M  V30 12328 C 1129.44 1.80335 0.534874 0
M  V30 12329 O 1128.8 1.1769 1.37908 0
M  V30 12330 C 1128.85 3.32462 -1.39648 0
M  V30 12331 O 1127.95 4.08327 -0.578192 0
M  V30 12332 H 1127.29 0.577984 -0.32685 0
M  V30 12333 H 1129.82 1.38883 -1.50242 0
M  V30 12334 H 1129.83 3.83311 -1.39774 0
M  V30 12335 H 1128.51 3.36141 -2.44913 0
M  V30 12336 H 1127.08 3.67291 -0.644347 0
M  V30 12337 N 1129.27 0.921757 1.27833 0
M  V30 12338 C 1130.22 0.406628 2.29018 0
M  V30 12339 C 1131.21 -0.505914 1.61669 0
M  V30 12340 O 1132.42 -0.386273 1.75807 0
M  V30 12341 H 1128.79 0.112914 0.743475 0
M  V30 12342 H 1130.76 1.27295 2.69886 0
M  V30 12343 C 1129.51 -0.330783 3.46123 0
M  V30 12344 H 1128.83 0.362207 3.98156 0
M  V30 12345 H 1130.27 -0.655738 4.18899 0
M  V30 12346 C 1128.73 -1.54161 2.9956 0
M  V30 12347 O 1129.26 -2.64052 3.0272 0
M  V30 12348 N 1127.47 -1.39137 2.55126 0
M  V30 12349 H 1127.02 -0.497319 2.52754 0
M  V30 12350 H 1126.97 -2.20278 2.24333 0
M  V30 12351 N 1130.75 -1.41857 0.686609 0
M  V30 12352 C 1131.66 -2.34595 0.0159005 0
M  V30 12353 C 1132.67 -1.55741 -0.775933 0
M  V30 12354 O 1133.85 -1.8826 -0.71555 0
M  V30 12355 C 1130.91 -3.34395 -0.915473 0
M  V30 12356 C 1129.97 -4.29141 -0.116851 0
M  V30 12357 C 1129.21 -5.24174 -1.00386 0
M  V30 12358 O 1129.43 -5.24431 -2.2434 0
M  V30 12359 O 1128.36 -6.00152 -0.458337 0
M  V30 12360 H 1132.19 -2.9351 0.780101 0
M  V30 12361 H 1129.78 -1.42559 0.446896 0
M  V30 12362 H 1131.66 -3.95675 -1.44981 0
M  V30 12363 H 1130.33 -2.77936 -1.65932 0
M  V30 12364 H 1129.24 -3.71238 0.461871 0
M  V30 12365 H 1130.57 -4.88673 0.588138 0
M  V30 12366 N 1132.22 -0.430739 -1.51599 0
M  V30 12367 C 1133.13 0.390347 -2.3133 0
M  V30 12368 C 1134.15 1.03376 -1.39962 0
M  V30 12369 O 1135.33 1.03057 -1.73035 0
M  V30 12370 C 1132.39 1.48039 -3.13505 0
M  V30 12371 C 1131.45 0.857792 -4.20643 0
M  V30 12372 C 1130.69 1.89589 -4.9889 0
M  V30 12373 O 1130.91 3.11717 -4.77691 0
M  V30 12374 O 1129.84 1.49009 -5.83164 0
M  V30 12375 H 1133.67 -0.260358 -3.02582 0
M  V30 12376 H 1131.25 -0.193428 -1.48143 0
M  V30 12377 H 1133.14 2.11272 -3.64612 0
M  V30 12378 H 1131.81 2.1153 -2.45024 0
M  V30 12379 H 1130.72 0.187592 -3.73629 0
M  V30 12380 H 1132.05 0.266474 -4.91478 0
M  V30 12381 N 1133.7 1.56767 -0.161869 0
M  V30 12382 C 1134.67 2.16299 0.758104 0
M  V30 12383 C 1135.67 1.10859 1.16478 0
M  V30 12384 O 1136.86 1.36422 1.08327 0
M  V30 12385 C 1133.99 2.73819 2.03067 0
M  V30 12386 H 1135.18 2.98938 0.239992 0
M  V30 12387 H 1132.73 1.56054 0.0876532 0
M  V30 12388 H 1133.47 1.94887 2.59209 0
M  V30 12389 H 1133.25 3.50974 1.74813 0
M  V30 12390 H 1134.74 3.19638 2.68741 0
M  V30 12391 N 1135.18 -0.111886 1.57202 0
M  V30 12392 C 1136.43 -0.816794 1.84859 0
M  V30 12393 C 1136.75 -1.80079 0.748113 0
M  V30 12394 O 1136.02 -1.94578 -0.227235 0
M  V30 12395 H 1134.6 -0.304633 0.682061 0
M  V30 12396 H 1137.26 -0.097513 1.94656 0
M  V30 12397 H 1136.36 -1.35768 2.81022 0
M  V30 12398 N 1136.66 -1.52894 -0.382264 0
M  V30 12399 C 1137.88 -1.72453 -1.15216 0
M  V30 12400 C 1138.31 -0.444925 -1.82762 0
M  V30 12401 O 1137.67 0.599825 -1.7109 0
M  V30 12402 C 1137.71 -2.87939 -2.17079 0
M  V30 12403 O 1136.82 -2.55383 -3.23811 0
M  V30 12404 H 1136.16 -0.57324 -0.335099 0
M  V30 12405 H 1138.69 -1.99713 -0.444495 0
M  V30 12406 H 1138.7 -3.13628 -2.60963 0
M  V30 12407 H 1137.37 -3.80765 -1.67305 0
M  V30 12408 H 1135.95 -2.40457 -2.85018 0
M  V30 12409 N 1138.14 0.641106 -1.43971 0
M  V30 12410 C 1139.39 1.39807 -1.4594 0
M  V30 12411 C 1139.71 1.94795 -0.0893874 0
M  V30 12412 O 1138.98 1.75175 0.876962 0
M  V30 12413 H 1137.56 0.518908 -0.537349 0
M  V30 12414 H 1140.22 0.755278 -1.79671 0
M  V30 12415 H 1139.31 2.23439 -2.17903 0
M  V30 12416 N 1139.62 1.30703 0.880598 0
M  V30 12417 C 1140.86 1.19541 1.62955 0
M  V30 12418 C 1141.18 -0.249089 1.93403 0
M  V30 12419 O 1140.45 -1.1669 1.57354 0
M  V30 12420 H 1139.03 0.439434 0.604075 0
M  V30 12421 H 1141.7 1.63888 1.05483 0
M  V30 12422 H 1140.79 1.75945 2.57779 0
M  V30 12423 N 1141.09 -1.09351 1.1349 0
M  V30 12424 C 1142.32 -1.85844 0.92069 0
M  V30 12425 C 1142.74 -1.80616 -0.525303 0
M  V30 12426 O 1142.1 -1.1842 -1.37282 0
M  V30 12427 C 1142.15 -3.31716 1.4141 0
M  V30 12428 O 1141.25 -4.08014 0.599838 0
M  V30 12429 H 1140.59 -0.576242 0.32991 0
M  V30 12430 H 1143.12 -1.38084 1.50976 0
M  V30 12431 H 1143.13 -3.82564 1.41805 0
M  V30 12432 H 1141.81 -3.34837 2.46692 0
M  V30 12433 H 1140.39 -3.66944 0.663816 0
M  V30 12434 N 1142.57 -0.928524 -1.27343 0
M  V30 12435 C 1143.82 -0.570235 -1.94618 0
M  V30 12436 C 1144.15 0.886381 -1.72792 0
M  V30 12437 O 1143.43 1.63242 -1.05747 0
M  V30 12438 C 1143.71 -0.897964 -3.48724 0
M  V30 12439 C 1143.56 -2.40839 -3.7989 0
M  V30 12440 C 1144.88 -0.404429 -4.38238 0
M  V30 12441 H 1142 -0.208645 -0.70685 0
M  V30 12442 H 1144.64 -1.16045 -1.50444 0
M  V30 12443 H 1142.79 -0.395679 -3.8648 0
M  V30 12444 H 1144.46 -2.98243 -3.51921 0
M  V30 12445 H 1142.71 -2.85723 -3.26412 0
M  V30 12446 H 1143.38 -2.58823 -4.8756 0
M  V30 12447 H 1145.85 -0.834918 -4.07637 0
M  V30 12448 H 1144.73 -0.662684 -5.44885 0
M  V30 12449 H 1144.99 0.695507 -4.36595 0
M  V30 12450 N 1144.05 1.41491 -0.694123 0
M  V30 12451 C 1145.3 2.00854 -0.224033 0
M  V30 12452 C 1145.62 1.55246 1.17999 0
M  V30 12453 O 1144.89 0.782452 1.79595 0
M  V30 12454 H 1143.47 0.742721 -0.0798368 0
M  V30 12455 H 1146.13 1.73137 -0.894958 0
M  V30 12456 H 1145.23 3.11173 -0.240332 0
M  V30 12457 N 1145.53 0.438773 1.51369 0
M  V30 12458 C 1146.78 -0.128723 2.01289 0
M  V30 12459 C 1147.09 -1.43659 1.32745 0
M  V30 12460 O 1148.3 -2.08712 1.73642 0
M  V30 12461 C 1146.75 -0.279945 3.5881 0
M  V30 12462 C 1146.36 1.01758 4.3629 0
M  V30 12463 C 1148.1 -0.801133 4.16872 0
M  V30 12464 C 1146.01 0.831918 5.85519 0
M  V30 12465 H 1144.94 -0.0518814 0.752213 0
M  V30 12466 H 1147.59 0.568753 1.74463 0
M  V30 12467 H 1145.97 -1.04046 3.82087 0
M  V30 12468 H 1147.15 1.78653 4.24758 0
M  V30 12469 H 1145.46 1.46741 3.89687 0
M  V30 12470 H 1148.06 -0.956548 5.26074 0
M  V30 12471 H 1148.4 -1.78396 3.76139 0
M  V30 12472 H 1148.94 -0.0988934 3.97677 0
M  V30 12473 H 1145.67 1.78716 6.30667 0
M  V30 12474 H 1145.19 0.102785 5.99712 0
M  V30 12475 H 1146.87 0.485681 6.45174 0
M  V30 12476 N 1147.01 -1.56678 0.170181 0
M  V30 12477 C 1148.25 -1.96024 -0.475147 0
M  V30 12478 C 1148.57 -1.0588 -1.64465 0
M  V30 12479 O 1149.77 -1.34901 -2.35614 0
M  V30 12480 C 1148.23 -3.4855 -0.896704 0
M  V30 12481 C 1147.84 -4.47318 0.247142 0
M  V30 12482 C 1149.58 -3.96716 -1.51052 0
M  V30 12483 C 1147.49 -5.91082 -0.193982 0
M  V30 12484 H 1146.42 -0.731883 -0.181282 0
M  V30 12485 H 1149.07 -1.81674 0.25823 0
M  V30 12486 H 1147.45 -3.58314 -1.68603 0
M  V30 12487 H 1148.63 -4.49268 1.02445 0
M  V30 12488 H 1146.94 -4.09203 0.770839 0
M  V30 12489 H 1149.54 -5.01581 -1.85258 0
M  V30 12490 H 1149.88 -3.39588 -2.40802 0
M  V30 12491 H 1150.41 -3.89965 -0.785652 0
M  V30 12492 H 1147.15 -6.5208 0.668714 0
M  V30 12493 H 1146.67 -5.92441 -0.936675 0
M  V30 12494 H 1148.35 -6.43844 -0.638237 0
M  V30 12495 N 1148.48 0.103547 -1.57259 0
M  V30 12496 C 1149.73 0.808576 -1.85656 0
M  V30 12497 C 1150.06 1.79143 -0.757502 0
M  V30 12498 O 1149.31 1.941 0.249723 0
M  V30 12499 C 1149.61 1.57946 -3.20605 0
M  V30 12500 C 1149.28 0.739502 -4.44795 0
M  V30 12501 C 1147.94 0.507921 -4.78512 0
M  V30 12502 C 1150.29 0.155034 -5.20969 0
M  V30 12503 C 1147.62 -0.318129 -5.85837 0
M  V30 12504 C 1149.97 -0.658292 -6.29166 0
M  V30 12505 C 1148.64 -0.900044 -6.61404 0
M  V30 12506 H 1147.91 0.295879 -0.679365 0
M  V30 12507 H 1150.55 0.0703604 -1.91371 0
M  V30 12508 H 1148.86 2.38902 -3.10537 0
M  V30 12509 H 1150.56 2.12921 -3.39803 0
M  V30 12510 H 1147.15 0.930103 -4.18386 0
M  V30 12511 H 1151.33 0.32113 -4.9526 0
M  V30 12512 H 1146.59 -0.514495 -6.09231 0
M  V30 12513 H 1150.76 -1.11809 -6.87366 0
M  V30 12514 H 1148.39 -1.54194 -7.44398 0
M  V30 12515 N 1149.96 1.53094 0.37415 0
M  V30 12516 C 1150.91 1.78927 1.45787 0
M  V30 12517 C 1151.88 0.633187 1.53558 0
M  V30 12518 O 1153.06 0.874472 1.69581 0
M  V30 12519 C 1150.2 1.97726 2.8284 0
M  V30 12520 C 1149.32 3.25436 2.84104 0
M  V30 12521 C 1148.45 3.3447 4.12678 0
M  V30 12522 C 1147.49 4.56246 4.08051 0
M  V30 12523 N 1146.63 4.6248 5.28258 0
M  V30 12524 H 1151.47 2.71404 1.2306 0
M  V30 12525 H 1149 1.34453 0.596716 0
M  V30 12526 H 1150.96 2.06611 3.62447 0
M  V30 12527 H 1149.59 1.08593 3.03986 0
M  V30 12528 H 1148.64 3.25548 1.96781 0
M  V30 12529 H 1149.96 4.15112 2.76556 0
M  V30 12530 H 1149.11 3.4262 5.00696 0
M  V30 12531 H 1147.85 2.42795 4.22968 0
M  V30 12532 H 1146.85 4.48206 3.1842 0
M  V30 12533 H 1148.08 5.49254 3.99371 0
M  V30 12534 H 1146.03 3.73703 5.3915 0
M  V30 12535 H 1145.94 5.46049 5.22845 0
M  V30 12536 H 1147.21 4.74903 6.18132 0
M  V30 12537 N 1151.44 -0.633461 1.44309 0
M  V30 12538 C 1152.39 -1.76674 1.51292 0
M  V30 12539 C 1153.38 -1.64972 0.384807 0
M  V30 12540 O 1154.59 -1.71079 0.559653 0
M  V30 12541 H 1150.96 -0.583238 0.474697 0
M  V30 12542 H 1152.93 -1.67907 2.46678 0
M  V30 12543 C 1151.68 -3.15002 1.47205 0
M  V30 12544 H 1151.01 -3.24653 2.33325 0
M  V30 12545 H 1152.45 -3.94199 1.56151 0
M  V30 12546 C 1150.9 -3.3635 0.192464 0
M  V30 12547 O 1151.43 -3.94857 -0.738285 0
M  V30 12548 N 1149.64 -2.9044 0.0963424 0
M  V30 12549 H 1149.19 -2.43011 0.85459 0
M  V30 12550 H 1149.15 -3.05099 -0.759061 0
M  V30 12551 N 1152.92 -1.31168 -0.873655 0
M  V30 12552 C 1154.17 -1.20404 -1.62319 0
M  V30 12553 C 1154.49 0.238829 -1.93532 0
M  V30 12554 O 1153.76 1.15854 -1.57971 0
M  V30 12555 H 1152.34 -0.442632 -0.601736 0
M  V30 12556 H 1155 -1.64445 -1.04613 0
M  V30 12557 H 1154.1 -1.77309 -2.56842 0
M  V30 12558 N 1154.4 1.08748 -1.14068 0
M  V30 12559 C 1155.67 1.7769 -0.81766 0
M  V30 12560 C 1156.05 1.99522 0.689501 0
M  V30 12561 O 1155.4 1.60222 1.62914 0
M  V30 12562 C 1155.61 3.09517 -1.61245 0
M  V30 12563 C 1156.96 3.84108 -1.80958 0
M  V30 12564 O 1157.98 3.19289 -1.57902 0
M  V30 12565 O 1156.84 5.00491 -2.19479 0
M  V30 12566 H 1153.94 0.770953 -0.299265 0
M  V30 12567 H 1156.48 1.15242 -1.24569 0
M  V30 12568 H 1155.25 2.89155 -2.63638 0
M  V30 12569 H 1154.88 3.79692 -1.17982 0
M  V30 12570 N 1155.87 0.935264 1.26849 0
M  V30 12571 C 1157.15 0.497797 1.8916 0
M  V30 12572 C 1157.53 -1.02441 1.84578 0
M  V30 12573 O 1156.88 -1.88185 1.29609 0
M  V30 12574 C 1157.09 1.05244 3.32753 0
M  V30 12575 C 1158.44 1.11751 4.0963 0
M  V30 12576 O 1159.46 1.0026 3.41799 0
M  V30 12577 O 1158.32 1.29548 5.30923 0
M  V30 12578 H 1155.41 0.161322 0.811113 0
M  V30 12579 H 1157.96 1.02744 1.35062 0
M  V30 12580 H 1156.73 2.09617 3.30419 0
M  V30 12581 H 1156.36 0.504889 3.94381 0
M  V30 12582 N 1157.35 -1.41121 0.701616 0
M  V30 12583 C 1158.28 -2.33436 0.0545974 0
M  V30 12584 C 1159.26 -1.52144 -0.760662 0
M  V30 12585 O 1160.45 -1.80661 -0.712414 0
M  V30 12586 C 1157.58 -3.36015 -0.878117 0
M  V30 12587 C 1156.53 -4.27664 -0.169511 0
M  V30 12588 C 1155.86 -5.20666 -1.21699 0
M  V30 12589 C 1157.16 -5.13254 0.967859 0
M  V30 12590 H 1158.85 -2.87791 0.825637 0
M  V30 12591 H 1156.4 -1.38377 0.398484 0
M  V30 12592 H 1158.35 -3.99526 -1.34004 0
M  V30 12593 H 1157.08 -2.80024 -1.68089 0
M  V30 12594 H 1155.73 -3.65586 0.272441 0
M  V30 12595 H 1155.38 -4.60987 -2.01246 0
M  V30 12596 H 1155.08 -5.82822 -0.747836 0
M  V30 12597 H 1156.61 -5.87053 -1.6793 0
M  V30 12598 H 1158.02 -5.70298 0.585944 0
M  V30 12599 H 1156.42 -5.84381 1.3645 0
M  V30 12600 H 1157.49 -4.5006 1.80483 0
M  V30 12601 N 1158.83 -0.446794 -1.51134 0
M  V30 12602 C 1160.25 -0.0995905 -1.59289 0
M  V30 12603 C 1160.45 1.39191 -1.45699 0
M  V30 12604 O 1159.5 2.1628 -1.30303 0
M  V30 12605 C 1160.82 -0.628135 -2.94066 0
M  V30 12606 C 1162.36 -0.589409 -3.074 0
M  V30 12607 C 1162.84 -1.09509 -4.44715 0
M  V30 12608 N 1164.33 -1.05347 -4.51061 0
M  V30 12609 C 1165.06 -1.41551 -5.55654 0
M  V30 12610 N 1164.56 -1.85086 -6.67619 0
M  V30 12611 N 1166.35 -1.33307 -5.46064 0
M  V30 12612 H 1158.5 -1.41713 -1.58213 0
M  V30 12613 H 1160.77 -0.584555 -0.746324 0
M  V30 12614 H 1160.47 -1.67205 -3.09411 0
M  V30 12615 H 1160.35 -0.0582398 -3.77155 0
M  V30 12616 H 1162.73 0.445541 -2.91717 0
M  V30 12617 H 1162.82 -1.19582 -2.26128 0
M  V30 12618 H 1162.46 -2.12855 -4.61146 0
M  V30 12619 H 1162.39 -0.465122 -5.24542 0
M  V30 12620 H 1164.88 -0.733877 -3.70706 0
M  V30 12621 H 1165.19 -2.10923 -7.43459 0
M  V30 12622 H 1163.54 -1.8902 -6.68802 0
M  V30 12623 H 1166.73 -0.991547 -4.57478 0
M  V30 12624 H 1166.9 -1.6185 -6.27462 0
M  V30 12625 N 1160.31 1.56586 -0.178487 0
M  V30 12626 C 1161.24 2.155 0.780543 0
M  V30 12627 C 1162.25 1.11244 1.18864 0
M  V30 12628 O 1163.44 1.38403 1.12725 0
M  V30 12629 C 1160.54 2.68867 2.0631 0
M  V30 12630 C 1159.72 3.97854 1.81744 0
M  V30 12631 C 1158.77 4.36213 2.94287 0
M  V30 12632 O 1157.8 5.03954 2.64612 0
M  V30 12633 N 1159 3.98356 4.22247 0
M  V30 12634 H 1161.77 2.98419 0.276836 0
M  V30 12635 H 1159.33 1.61899 0.00405241 0
M  V30 12636 H 1161.32 2.91522 2.80708 0
M  V30 12637 H 1159.89 1.90496 2.47851 0
M  V30 12638 H 1159.11 3.83502 0.912127 0
M  V30 12639 H 1160.4 4.82083 1.62707 0
M  V30 12640 H 1159.8 3.43835 4.49215 0
M  V30 12641 H 1158.35 4.25998 4.93325 0
M  V30 12642 N 1161.79 -0.095206 1.57312 0
M  V30 12643 C 1163.06 -0.830388 1.77099 0
M  V30 12644 C 1163.44 -1.9694 0.760121 0
M  V30 12645 O 1162.79 -2.2752 -0.211403 0
M  V30 12646 C 1163 -1.32507 3.22867 0
M  V30 12647 C 1164.35 -1.7679 3.86045 0
M  V30 12648 O 1165.37 -1.42131 3.26615 0
M  V30 12649 O 1164.23 -2.40876 4.90552 0
M  V30 12650 H 1161.33 -0.396083 0.72598 0
M  V30 12651 H 1163.87 -0.0770965 1.69525 0
M  V30 12652 H 1162.64 -0.508992 3.87975 0
M  V30 12653 H 1162.27 -2.14037 3.35073 0
M  V30 12654 N 1163.26 -1.53291 -0.366026 0
M  V30 12655 C 1164.2 -1.7448 -1.47079 0
M  V30 12656 C 1165.18 -0.593147 -1.51395 0
M  V30 12657 O 1166.36 -0.825686 -1.69454 0
M  V30 12658 C 1163.49 -1.82319 -2.85443 0
M  V30 12659 C 1162.53 -3.04285 -2.98852 0
M  V30 12660 S 1163.37 -4.63812 -2.67653 0
M  V30 12661 C 1164.52 -4.74499 -4.08168 0
M  V30 12662 H 1164.75 -2.67911 -1.28884 0
M  V30 12663 H 1162.29 -1.43874 -0.560335 0
M  V30 12664 H 1164.25 -1.87521 -3.65166 0
M  V30 12665 H 1162.91 -0.899398 -3.00948 0
M  V30 12666 H 1162.1 -3.06379 -4.00185 0
M  V30 12667 H 1161.7 -2.97193 -2.27051 0
M  V30 12668 H 1163.99 -4.54527 -5.02406 0
M  V30 12669 H 1164.94 -5.76558 -4.1108 0
M  V30 12670 H 1165.34 -4.03136 -3.95147 0
M  V30 12671 N 1164.74 0.6258 -1.44643 0
M  V30 12672 C 1165.67 1.74858 -1.54748 0
M  V30 12673 C 1166.65 1.65327 -0.400138 0
M  V30 12674 O 1167.84 1.84005 -0.620948 0
M  V30 12675 C 1164.97 3.13408 -1.49643 0
M  V30 12676 C 1163.92 3.37733 -2.62908 0
M  V30 12677 C 1163.25 4.76367 -2.42855 0
M  V30 12678 C 1164.55 3.29771 -4.05029 0
M  V30 12679 H 1166.24 1.66658 -2.48728 0
M  V30 12680 H 1163.79 0.800363 -1.19709 0
M  V30 12681 H 1165.74 3.91735 -1.55312 0
M  V30 12682 H 1164.47 3.22404 -0.521824 0
M  V30 12683 H 1163.12 2.61788 -2.56637 0
M  V30 12684 H 1162.77 4.82074 -1.43575 0
M  V30 12685 H 1162.47 4.936 -3.18799 0
M  V30 12686 H 1164 5.56917 -2.50351 0
M  V30 12687 H 1165.41 3.97996 -4.12641 0
M  V30 12688 H 1163.81 3.58538 -4.81218 0
M  V30 12689 H 1164.88 2.27493 -4.28223 0
M  V30 12690 N 1166.22 1.31629 0.866686 0
M  V30 12691 C 1167.45 1.24474 1.65269 0
M  V30 12692 C 1167.86 -0.18939 1.87848 0
M  V30 12693 O 1167.22 -1.12251 1.43895 0
M  V30 12694 C 1167.27 1.98872 3.01881 0
M  V30 12695 O 1166.99 3.36687 2.8031 0
M  V30 12696 C 1168.49 1.98595 3.96327 0
M  V30 12697 H 1165.71 0.429966 0.515141 0
M  V30 12698 H 1168.26 1.73559 1.08156 0
M  V30 12699 H 1166.41 1.53539 3.55675 0
M  V30 12700 H 1166.83 3.74612 3.67105 0
M  V30 12701 H 1168.3 2.55156 4.89489 0
M  V30 12702 H 1168.78 0.969257 4.28371 0
M  V30 12703 H 1169.38 2.43821 3.4847 0
M  V30 12704 N 1167.7 -1.08142 1.14644 0
M  V30 12705 C 1168.63 -2.17139 0.858667 0
M  V30 12706 C 1169.61 -1.69064 -0.187452 0
M  V30 12707 O 1170.8 -1.94151 -0.0435458 0
M  V30 12708 C 1167.93 -3.45648 0.33834 0
M  V30 12709 C 1166.88 -4.07129 1.32021 0
M  V30 12710 C 1166.21 -5.30623 0.659075 0
M  V30 12711 C 1167.51 -4.48095 2.68343 0
M  V30 12712 H 1169.2 -2.41468 1.77012 0
M  V30 12713 H 1166.75 -1.16052 0.852523 0
M  V30 12714 H 1168.7 -4.21216 0.124611 0
M  V30 12715 H 1167.42 -3.2088 -0.608553 0
M  V30 12716 H 1166.08 -3.33596 1.52016 0
M  V30 12717 H 1165.73 -5.02142 -0.293711 0
M  V30 12718 H 1165.43 -5.72714 1.31427 0
M  V30 12719 H 1166.95 -6.08903 0.454933 0
M  V30 12720 H 1168.37 -5.14828 2.5224 0
M  V30 12721 H 1166.76 -5.01113 3.30161 0
M  V30 12722 H 1167.83 -3.59852 3.25015 0
M  V30 12723 N 1169.18 -0.941978 -1.26351 0
M  V30 12724 C 1170.11 -0.409504 -2.25512 0
M  V30 12725 C 1171.12 0.467665 -1.55938 0
M  V30 12726 O 1172.31 0.277982 -1.76322 0
M  V30 12727 C 1169.41 0.430487 -3.36155 0
M  V30 12728 C 1168.58 -0.430714 -4.35274 0
M  V30 12729 C 1167.64 0.348976 -5.25042 0
M  V30 12730 O 1166.67 -0.24827 -5.68658 0
M  V30 12731 N 1167.87 1.64531 -5.56695 0
M  V30 12732 H 1170.64 -1.26196 -2.71836 0
M  V30 12733 H 1168.2 -0.810947 -1.40126 0
M  V30 12734 H 1170.19 0.959501 -3.93161 0
M  V30 12735 H 1168.76 1.18375 -2.8932 0
M  V30 12736 H 1167.98 -1.14093 -3.77328 0
M  V30 12737 H 1169.27 -1.01896 -4.98492 0
M  V30 12738 H 1168.67 2.15266 -5.23142 0
M  V30 12739 H 1167.22 2.12055 -6.16341 0
M  V30 12740 N 1170.66 1.40747 -0.709091 0
M  V30 12741 C 1171.59 2.282 -0.00156906 0
M  V30 12742 C 1172.57 1.42981 0.774279 0
M  V30 12743 O 1173.75 1.724 0.762276 0
M  V30 12744 C 1170.88 3.23441 1.00517 0
M  V30 12745 C 1169.92 4.25291 0.320904 0
M  V30 12746 S 1170.76 5.27069 -0.946518 0
M  V30 12747 C 1171.91 6.25873 0.0582856 0
M  V30 12748 H 1172.15 2.87859 -0.743271 0
M  V30 12749 H 1169.68 1.46085 -0.499866 0
M  V30 12750 H 1171.64 3.78841 1.58082 0
M  V30 12751 H 1170.3 2.62851 1.71954 0
M  V30 12752 H 1169.49 4.92255 1.08173 0
M  V30 12753 H 1169.09 3.73557 -0.18202 0
M  V30 12754 H 1171.38 6.71398 0.907233 0
M  V30 12755 H 1172.33 7.05739 -0.577787 0
M  V30 12756 H 1172.74 5.62942 0.419108 0
M  V30 12757 N 1172.13 0.454803 1.50895 0
M  V30 12758 C 1173.38 -0.107367 2.01414 0
M  V30 12759 C 1173.7 -1.42243 1.34262 0
M  V30 12760 O 1174.9 -2.06858 1.75846 0
M  V30 12761 C 1173.36 -0.241872 3.59086 0
M  V30 12762 C 1172.97 1.06379 4.35187 0
M  V30 12763 C 1174.71 -0.756873 4.17698 0
M  V30 12764 C 1172.62 0.893973 5.84604 0
M  V30 12765 H 1171.55 -0.0439003 0.752721 0
M  V30 12766 H 1174.2 0.587225 1.7385 0
M  V30 12767 H 1172.58 -0.999873 3.83169 0
M  V30 12768 H 1173.75 1.83148 4.2284 0
M  V30 12769 H 1172.07 1.50865 3.88109 0
M  V30 12770 H 1174.67 -0.900697 5.27059 0
M  V30 12771 H 1175.01 -1.74397 3.7801 0
M  V30 12772 H 1175.54 -0.0567088 3.9776 0
M  V30 12773 H 1172.28 1.85395 6.28736 0
M  V30 12774 H 1171.8 0.166387 5.99569 0
M  V30 12775 H 1173.48 0.554084 6.44623 0
M  V30 12776 N 1173.61 -1.56489 0.186789 0
M  V30 12777 C 1174.54 -2.15911 -0.769104 0
M  V30 12778 C 1175.56 -1.11872 -1.18273 0
M  V30 12779 O 1176.75 -1.38999 -1.1199 0
M  V30 12780 C 1173.85 -2.69957 -2.04882 0
M  V30 12781 C 1173.02 -3.98812 -1.79631 0
M  V30 12782 C 1172.08 -4.37767 -2.9197 0
M  V30 12783 O 1171.1 -5.0535 -2.61935 0
M  V30 12784 N 1172.31 -4.0059 -4.20128 0
M  V30 12785 H 1175.07 -2.98561 -0.261007 0
M  V30 12786 H 1172.63 -1.61899 0.00453357 0
M  V30 12787 H 1174.62 -2.93006 -2.79158 0
M  V30 12788 H 1173.19 -1.91808 -2.46837 0
M  V30 12789 H 1172.41 -3.8398 -0.891776 0
M  V30 12790 H 1173.7 -4.82939 -1.60148 0
M  V30 12791 H 1173.1 -3.46213 -4.47385 0
M  V30 12792 H 1171.66 -4.28608 -4.91059 0
M  V30 12793 N 1175.09 0.086862 -1.5736 0
M  V30 12794 C 1176.02 1.10538 -2.05678 0
M  V30 12795 C 1177 1.41281 -0.947293 0
M  V30 12796 O 1178.19 1.51169 -1.21908 0
M  V30 12797 C 1175.32 2.42302 -2.48812 0
M  V30 12798 C 1174.27 2.25948 -3.63499 0
M  V30 12799 C 1173.6 3.62961 -3.92637 0
M  V30 12800 C 1174.9 1.69319 -4.94094 0
M  V30 12801 H 1176.59 0.703371 -2.91021 0
M  V30 12802 H 1174.14 0.336895 -1.40004 0
M  V30 12803 H 1176.09 3.13833 -2.81224 0
M  V30 12804 H 1174.81 2.84454 -1.60479 0
M  V30 12805 H 1173.47 1.5686 -3.31347 0
M  V30 12806 H 1173.12 4.02656 -3.01459 0
M  V30 12807 H 1172.82 3.52862 -4.69853 0
M  V30 12808 H 1174.34 4.35946 -4.27531 0
M  V30 12809 H 1175.76 2.30699 -5.24834 0
M  V30 12810 H 1174.15 1.69957 -5.7553 0
M  V30 12811 H 1175.22 0.653318 -4.80479 0
M  V30 12812 N 1176.57 1.53483 0.357892 0
M  V30 12813 C 1177.5 1.75257 1.46151 0
M  V30 12814 C 1178.48 0.601167 1.51079 0
M  V30 12815 O 1179.66 0.834661 1.69014 0
M  V30 12816 C 1176.79 1.8383 2.84472 0
M  V30 12817 C 1175.84 3.05866 2.97234 0
M  V30 12818 S 1176.67 4.65225 2.6519 0
M  V30 12819 C 1177.82 4.76657 4.05646 0
M  V30 12820 H 1178.06 2.6859 1.27462 0
M  V30 12821 H 1175.59 1.44169 0.552697 0
M  V30 12822 H 1177.55 1.89454 3.64167 0
M  V30 12823 H 1176.21 0.915345 3.00467 0
M  V30 12824 H 1175.4 3.08497 3.98555 0
M  V30 12825 H 1175 2.98393 2.25471 0
M  V30 12826 H 1177.3 4.57185 4.99988 0
M  V30 12827 H 1178.24 5.7873 4.08016 0
M  V30 12828 H 1178.65 4.05226 3.93004 0
M  V30 12829 N 1178.05 -0.61812 1.44973 0
M  V30 12830 C 1179.32 -1.37705 1.38913 0
M  V30 12831 C 1179.7 -2.1103 0.054385 0
M  V30 12832 O 1179.05 -2.07197 -0.963409 0
M  V30 12833 C 1179.26 -2.33265 2.59593 0
M  V30 12834 C 1180.61 -2.96197 3.04224 0
M  V30 12835 O 1181.63 -2.43589 2.59891 0
M  V30 12836 O 1180.49 -3.91666 3.8113 0
M  V30 12837 H 1177.59 -0.61694 0.55074 0
M  V30 12838 H 1180.13 -0.642088 1.57084 0
M  V30 12839 H 1178.9 -1.78271 3.48332 0
M  V30 12840 H 1178.53 -3.14158 2.43702 0
M  V30 12841 N 1179.52 -1.32087 -0.859693 0
M  V30 12842 C 1180.77 -1.22542 -1.6159 0
M  V30 12843 C 1181.1 0.213533 -1.93022 0
M  V30 12844 O 1180.38 1.14931 -1.56911 0
M  V30 12845 C 1180.66 -2.08004 -2.93949 0
M  V30 12846 C 1180.51 -3.60252 -2.6933 0
M  V30 12847 C 1181.83 -1.93732 -3.95166 0
M  V30 12848 H 1178.95 -0.446504 -0.586347 0
M  V30 12849 H 1181.59 -1.61982 -0.993064 0
M  V30 12850 H 1179.74 -1.74498 -3.47106 0
M  V30 12851 H 1181.42 -4.03947 -2.22766 0
M  V30 12852 H 1179.66 -3.83169 -2.03382 0
M  V30 12853 H 1180.33 -4.1537 -3.63555 0
M  V30 12854 H 1182.81 -2.23075 -3.5125 0
M  V30 12855 H 1181.68 -2.55815 -4.85644 0
M  V30 12856 H 1181.94 -0.903528 -4.32769 0
M  V30 12857 N 1181 1.07532 -1.15215 0
M  V30 12858 C 1181.93 2.1668 -0.870171 0
M  V30 12859 C 1182.91 1.69161 0.178483 0
M  V30 12860 O 1184.1 1.94172 0.0332489 0
M  V30 12861 C 1181.23 3.45464 -0.356666 0
M  V30 12862 C 1180.18 4.06424 -1.34179 0
M  V30 12863 C 1179.51 5.30266 -0.687206 0
M  V30 12864 C 1180.81 4.46666 -2.70715 0
M  V30 12865 H 1182.5 2.40526 -1.7829 0
M  V30 12866 H 1180.05 1.15598 -0.858665 0
M  V30 12867 H 1182 4.21144 -0.146947 0
M  V30 12868 H 1180.72 3.21199 0.591527 0
M  V30 12869 H 1179.38 3.32786 -1.53783 0
M  V30 12870 H 1179.03 5.0229 0.267077 0
M  V30 12871 H 1178.73 5.72009 -1.34462 0
M  V30 12872 H 1180.26 6.08653 -0.487218 0
M  V30 12873 H 1181.67 5.13483 -2.54966 0
M  V30 12874 H 1180.07 4.99355 -3.32813 0
M  V30 12875 H 1181.14 3.58123 -3.26919 0
M  V30 12876 N 1182.48 0.948665 1.2585 0
M  V30 12877 C 1183.73 0.610669 1.94016 0
M  V30 12878 C 1184.08 -0.842181 1.72989 0
M  V30 12879 O 1183.37 -1.59556 1.06078 0
M  V30 12880 C 1183.57 0.89784 3.45939 0
M  V30 12881 C 1183.4 2.37705 3.81741 0
M  V30 12882 C 1182.17 3.03355 4.04109 0
M  V30 12883 C 1184.37 3.35602 3.89712 0
M  V30 12884 N 1182.35 4.41211 4.26856 0
M  V30 12885 C 1183.72 4.58743 4.17079 0
M  V30 12886 C 1185.77 3.30523 3.72369 0
M  V30 12887 C 1184.48 5.77436 4.28906 0
M  V30 12888 C 1186.5 4.48548 3.85433 0
M  V30 12889 C 1185.86 5.70474 4.13205 0
M  V30 12890 H 1181.96 0.273966 0.732439 0
M  V30 12891 H 1184.55 1.21961 1.51768 0
M  V30 12892 H 1182.72 0.317878 3.87097 0
M  V30 12893 H 1184.45 0.520353 4.01341 0
M  V30 12894 H 1181.21 2.53947 3.9976 0
M  V30 12895 H 1181.63 5.12589 4.42247 0
M  V30 12896 H 1186.27 2.3731 3.4992 0
M  V30 12897 H 1183.99 6.71095 4.50174 0
M  V30 12898 H 1187.58 4.46159 3.73408 0
M  V30 12899 H 1186.46 6.60277 4.23088 0
M  V30 12900 N 1183.96 -1.40369 0.716545 0
M  V30 12901 C 1184.91 -2.3071 0.0645944 0
M  V30 12902 C 1185.88 -1.48239 -0.749294 0
M  V30 12903 O 1187.06 -1.76975 -0.713045 0
M  V30 12904 C 1184.2 -3.34456 -0.850478 0
M  V30 12905 C 1183.31 -4.31992 -0.0259594 0
M  V30 12906 C 1182.45 -5.22806 -0.940599 0
M  V30 12907 C 1181.49 -6.12001 -0.110228 0
M  V30 12908 N 1180.62 -6.9523 -0.979796 0
M  V30 12909 H 1185.46 -2.85896 0.840682 0
M  V30 12910 H 1183 -1.40789 0.426258 0
M  V30 12911 H 1184.96 -3.93177 -1.39528 0
M  V30 12912 H 1183.59 -2.8077 -1.59274 0
M  V30 12913 H 1182.64 -3.75045 0.636036 0
M  V30 12914 H 1183.95 -4.94971 0.616883 0
M  V30 12915 H 1183.11 -5.86463 -1.5539 0
M  V30 12916 H 1181.85 -4.60104 -1.61726 0
M  V30 12917 H 1180.85 -5.47373 0.516001 0
M  V30 12918 H 1182.08 -6.76763 0.562944 0
M  V30 12919 H 1180.02 -6.35115 -1.64209 0
M  V30 12920 H 1179.94 -7.54978 -0.393012 0
M  V30 12921 H 1181.21 -7.63335 -1.57924 0
M  V30 12922 N 1185.44 -0.462799 -1.50652 0
M  V30 12923 C 1186.37 0.371837 -2.26164 0
M  V30 12924 C 1187.38 0.96432 -1.31167 0
M  V30 12925 O 1188.57 0.854134 -1.56738 0
M  V30 12926 C 1185.67 1.53469 -3.0216 0
M  V30 12927 C 1184.84 1.0565 -4.24449 0
M  V30 12928 C 1183.9 2.09243 -4.82808 0
M  V30 12929 O 1182.93 1.67641 -5.43953 0
M  V30 12930 N 1184.13 3.41976 -4.69076 0
M  V30 12931 H 1186.9 -0.275476 -2.98431 0
M  V30 12932 H 1184.46 -0.293109 -1.59225 0
M  V30 12933 H 1186.45 2.22446 -3.38083 0
M  V30 12934 H 1185.02 2.08685 -2.32743 0
M  V30 12935 H 1184.24 0.192895 -3.93728 0
M  V30 12936 H 1185.53 0.714796 -5.03754 0
M  V30 12937 H 1184.92 3.78491 -4.20429 0
M  V30 12938 H 1183.48 4.06775 -5.09291 0
M  V30 12939 N 1186.91 1.56388 -0.195085 0
M  V30 12940 C 1187.82 2.22698 0.737743 0
M  V30 12941 C 1188.84 1.22605 1.23466 0
M  V30 12942 O 1190.02 1.55342 1.28183 0
M  V30 12943 C 1187.08 2.87333 1.94011 0
M  V30 12944 C 1186.14 4.02696 1.48776 0
M  V30 12945 C 1185.38 4.64239 2.63282 0
M  V30 12946 O 1185.6 4.24706 3.80763 0
M  V30 12947 O 1184.53 5.53705 2.35996 0
M  V30 12948 H 1188.36 3.03021 0.203013 0
M  V30 12949 H 1185.94 1.49361 0.0342044 0
M  V30 12950 H 1187.83 3.28226 2.64284 0
M  V30 12951 H 1186.5 2.0999 2.46345 0
M  V30 12952 H 1185.41 3.66426 0.753839 0
M  V30 12953 H 1186.74 4.81703 1.01109 0
M  V30 12954 N 1188.39 -0.0785156 1.57404 0
M  V30 12955 C 1189.64 -0.777399 1.8655 0
M  V30 12956 C 1189.96 -1.78451 0.786142 0
M  V30 12957 O 1189.23 -1.95016 -0.185911 0
M  V30 12958 H 1187.81 -0.290097 0.688369 0
M  V30 12959 H 1190.47 -0.0562017 1.94819 0
M  V30 12960 H 1189.57 -1.29776 2.83839 0
M  V30 12961 N 1189.87 -1.5367 -0.349747 0
M  V30 12962 C 1190.8 -1.84208 -1.43492 0
M  V30 12963 C 1191.78 -0.696725 -1.55177 0
M  V30 12964 O 1192.97 -0.948061 -1.69486 0
M  V30 12965 C 1190.1 -2.04613 -2.80625 0
M  V30 12966 C 1189.05 -3.20419 -2.83753 0
M  V30 12967 C 1188.38 -3.26147 -4.23713 0
M  V30 12968 C 1189.68 -4.58666 -2.49846 0
M  V30 12969 H 1191.37 -2.75087 -1.18185 0
M  V30 12970 H 1188.92 -1.32363 -0.567101 0
M  V30 12971 H 1190.87 -2.2456 -3.56582 0
M  V30 12972 H 1189.59 -1.10459 -3.07354 0
M  V30 12973 H 1188.25 -3.00318 -2.10249 0
M  V30 12974 H 1187.9 -2.29599 -4.47541 0
M  V30 12975 H 1187.6 -4.03963 -4.26717 0
M  V30 12976 H 1189.12 -3.48296 -5.0152 0
M  V30 12977 H 1190.54 -4.78668 -3.15516 0
M  V30 12978 H 1188.94 -5.3884 -2.64144 0
M  V30 12979 H 1190.01 -4.62697 -1.4505 0
M  V30 12980 N 1191.35 0.610423 -1.45298 0
M  V30 12981 C 1192.63 1.36966 -1.39641 0
M  V30 12982 C 1193.01 2.10998 -0.0655757 0
M  V30 12983 O 1192.35 2.07705 0.952407 0
M  V30 12984 C 1192.56 2.31885 -2.60826 0
M  V30 12985 C 1193.91 2.9458 -3.05791 0
M  V30 12986 O 1194.94 2.42207 -2.61179 0
M  V30 12987 O 1193.79 3.89639 -3.83202 0
M  V30 12988 H 1190.89 0.61401 -0.554004 0
M  V30 12989 H 1193.43 0.633748 -1.57422 0
M  V30 12990 H 1192.21 1.76421 -3.49272 0
M  V30 12991 H 1191.83 3.12861 -2.45364 0
M  V30 12992 N 1192.83 1.32541 0.852676 0
M  V30 12993 C 1193.76 1.24254 1.97694 0
M  V30 12994 C 1194.74 0.125971 1.69633 0
M  V30 12995 O 1195.92 0.31347 1.91653 0
M  V30 12996 C 1193.05 0.966874 3.3357 0
M  V30 12997 C 1192.01 2.0449 3.75989 0
M  V30 12998 C 1191.33 1.6216 5.09518 0
M  V30 12999 C 1192.63 3.46013 3.91244 0
M  V30 13000 H 1194.33 2.18317 2.04886 0
M  V30 13001 H 1191.87 1.05101 0.984371 0
M  V30 13002 H 1193.83 0.895444 4.11776 0
M  V30 13003 H 1192.55 -0.0093893 3.26599 0
M  V30 13004 H 1191.21 2.10651 3.00036 0
M  V30 13005 H 1190.86 0.632729 4.99005 0
M  V30 13006 H 1190.56 2.3429 5.38871 0
M  V30 13007 H 1192.08 1.56457 5.90215 0
M  V30 13008 H 1193.49 3.4243 4.59799 0
M  V30 13009 H 1191.89 4.1651 4.32017 0
M  V30 13010 H 1192.96 3.8553 2.941 0
M  V30 13011 N 1194.3 -1.0692 1.15784 0
M  V30 13012 C 1195.72 -1.31707 0.901408 0
M  V30 13013 C 1195.92 -1.96429 -0.449203 0
M  V30 13014 O 1194.98 -2.22692 -1.19015 0
M  V30 13015 C 1196.29 -2.20391 2.04568 0
M  V30 13016 C 1197.84 -2.33827 2.08072 0
M  V30 13017 C 1198.31 -3.25862 3.21835 0
M  V30 13018 N 1199.8 -3.33444 3.21511 0
M  V30 13019 C 1200.54 -4.04731 4.06177 0
M  V30 13020 N 1200.03 -4.78596 5.00917 0
M  V30 13021 N 1201.83 -4.00717 3.94185 0
M  V30 13022 H 1193.98 -0.632989 2.02749 0
M  V30 13023 H 1196.24 -0.341587 0.88432 0
M  V30 13024 H 1195.95 -1.80102 3.02087 0
M  V30 13025 H 1195.82 -3.20943 1.9818 0
M  V30 13026 H 1198.21 -2.73367 1.11151 0
M  V30 13027 H 1198.29 -1.32964 2.18527 0
M  V30 13028 H 1197.93 -2.8704 4.19012 0
M  V30 13029 H 1197.86 -4.26689 3.08617 0
M  V30 13030 H 1200.35 -2.80798 2.52905 0
M  V30 13031 H 1200.67 -5.30499 5.61952 0
M  V30 13032 H 1199.01 -4.77598 5.04902 0
M  V30 13033 H 1202.2 -3.42126 3.1948 0
M  V30 13034 H 1202.38 -4.56008 4.60392 0
M  V30 13035 N 1195.78 -0.955326 -1.25345 0
M  V30 13036 C 1196.72 -0.420299 -2.24296 0
M  V30 13037 C 1197.69 0.498753 -1.54762 0
M  V30 13038 O 1198.88 0.432971 -1.8346 0
M  V30 13039 C 1196 0.394576 -3.36394 0
M  V30 13040 C 1195.05 -0.464973 -4.23958 0
M  V30 13041 S 1195.88 -1.89764 -5.00749 0
M  V30 13042 C 1197.04 -1.09121 -6.16314 0
M  V30 13043 H 1197.27 -1.25888 -2.69331 0
M  V30 13044 H 1194.81 -0.759449 -1.34431 0
M  V30 13045 H 1196.76 0.858788 -4.01416 0
M  V30 13046 H 1195.42 1.20799 -2.89942 0
M  V30 13047 H 1194.62 0.160055 -5.03746 0
M  V30 13048 H 1194.22 -0.864422 -3.63873 0
M  V30 13049 H 1196.51 -0.340218 -6.76645 0
M  V30 13050 H 1197.45 -1.86304 -6.83152 0
M  V30 13051 H 1197.86 -0.621033 -5.61073 0
M  V30 13052 N 1197.26 1.39987 -0.723979 0
M  V30 13053 C 1198.49 2.05037 -0.27702 0
M  V30 13054 C 1198.9 1.54565 1.08421 0
M  V30 13055 O 1198.26 0.705795 1.683 0
M  V30 13056 C 1198.31 3.60582 -0.25751 0
M  V30 13057 O 1198.03 4.09194 -1.565 0
M  V30 13058 C 1199.53 4.42817 0.206972 0
M  V30 13059 H 1196.75 0.659637 -0.122963 0
M  V30 13060 H 1199.3 1.7924 -0.98454 0
M  V30 13061 H 1197.45 3.85319 0.401037 0
M  V30 13062 H 1197.87 5.03447 -1.47112 0
M  V30 13063 H 1199.34 5.5174 0.16947 0
M  V30 13064 H 1199.82 4.21023 1.25045 0
M  V30 13065 H 1200.42 4.23205 -0.421604 0
M  V30 13066 N 1198.74 0.470782 1.50404 0
M  V30 13067 C 1200.15 0.0155901 1.86693 0
M  V30 13068 C 1200.5 -1.38908 1.38561 0
M  V30 13069 O 1199.63 -2.02971 0.750454 0
M  V30 13070 C 1200.22 0.0215152 3.38793 0
M  V30 13071 C 1198.78 -0.378206 3.74495 0
M  V30 13072 C 1197.93 0.407126 2.74295 0
M  V30 13073 H 1200.88 0.68507 1.43152 0
M  V30 13074 H 1200.9 -0.780717 3.72404 0
M  V30 13075 H 1200.41 1.04397 3.73795 0
M  V30 13076 H 1198.51 -1.40503 3.45094 0
M  V30 13077 H 1198.63 -0.0797643 4.79034 0
M  V30 13078 H 1196.99 -0.139123 2.5432 0
M  V30 13079 H 1197.77 1.42909 3.12141 0
M  V30 13080 N 1200.22 -1.56282 0.203376 0
M  V30 13081 C 1201.45 -2.01905 -0.437936 0
M  V30 13082 C 1201.86 -1.08263 -1.55164 0
M  V30 13083 O 1201.2 -0.0811746 -1.83521 0
M  V30 13084 C 1201.26 -3.43908 -1.04725 0
M  V30 13085 C 1200.92 -4.56944 -0.0712582 0
M  V30 13086 C 1201.92 -5.14856 0.72243 0
M  V30 13087 C 1199.61 -5.02282 0.0422267 0
M  V30 13088 C 1201.6 -6.16562 1.61649 0
M  V30 13089 C 1199.29 -6.0383 0.939835 0
M  V30 13090 C 1200.29 -6.60844 1.72552 0
M  V30 13091 O 1199.97 -7.60417 2.60808 0
M  V30 13092 H 1199.71 -0.666416 -0.11343 0
M  V30 13093 H 1202.26 -2.03019 0.311833 0
M  V30 13094 H 1200.49 -3.39806 -1.84577 0
M  V30 13095 H 1202.18 -3.73288 -1.59407 0
M  V30 13096 H 1202.94 -4.80691 0.645105 0
M  V30 13097 H 1198.82 -4.57596 -0.559165 0
M  V30 13098 H 1202.37 -6.6099 2.23019 0
M  V30 13099 H 1198.26 -6.37418 1.01824 0
M  V30 13100 H 1199.03 -7.77869 2.54679 0
M  V30 13101 N 1201.7 0.070167 -1.57444 0
M  V30 13102 C 1202.94 0.767495 -1.8696 0
M  V30 13103 C 1203.26 1.78032 -0.795595 0
M  V30 13104 O 1202.53 1.95112 0.175566 0
M  V30 13105 H 1201.11 0.286443 -0.689898 0
M  V30 13106 H 1203.78 0.0458692 -1.94846 0
M  V30 13107 H 1202.87 1.28269 -2.84523 0
M  V30 13108 N 1203.17 1.53854 0.341593 0
M  V30 13109 C 1204.41 1.72909 1.09004 0
M  V30 13110 C 1204.78 0.48304 1.85824 0
M  V30 13111 O 1205.98 0.550651 2.63099 0
M  V30 13112 C 1204.25 2.95884 2.00468 0
M  V30 13113 S 1205.81 3.3576 2.82508 0
M  V30 13114 H 1202.63 0.608187 0.368279 0
M  V30 13115 H 1205.23 1.92001 0.368222 0
M  V30 13116 H 1203.93 3.84742 1.42836 0
M  V30 13117 H 1203.46 2.79263 2.77084 0
M  V30 13118 H 1205.48 2.89647 4.02888 0
M  V30 13119 N 1204.65 -0.602709 1.4562 0
M  V30 13120 C 1205.58 -1.72374 1.5751 0
M  V30 13121 C 1206.56 -1.64669 0.426389 0
M  V30 13122 O 1207.75 -1.82994 0.650143 0
M  V30 13123 C 1204.88 -3.10987 1.5461 0
M  V30 13124 C 1203.83 -3.33507 2.68248 0
M  V30 13125 C 1203.16 -4.72443 2.50403 0
M  V30 13126 C 1204.46 -3.23285 4.10224 0
M  V30 13127 H 1206.15 -1.62679 2.51348 0
M  V30 13128 H 1203.7 -0.781217 1.20967 0
M  V30 13129 H 1205.65 -3.89214 1.61525 0
M  V30 13130 H 1204.37 -3.21533 0.573049 0
M  V30 13131 H 1203.03 -2.57672 2.60769 0
M  V30 13132 H 1202.68 -4.79729 1.51226 0
M  V30 13133 H 1202.38 -4.88466 3.26611 0
M  V30 13134 H 1203.91 -5.52864 2.59179 0
M  V30 13135 H 1205.32 -3.91381 4.1892 0
M  V30 13136 H 1203.72 -3.50837 4.86861 0
M  V30 13137 H 1204.79 -2.20652 4.31788 0
M  V30 13138 N 1206.13 -1.32992 -0.845635 0
M  V30 13139 C 1207.54 -1.21616 -1.41656 0
M  V30 13140 C 1207.89 0.167687 -1.95482 0
M  V30 13141 O 1207.02 1.06692 -1.8827 0
M  V30 13142 C 1207.61 -2.2018 -2.575 0
M  V30 13143 C 1206.17 -2.12664 -3.10565 0
M  V30 13144 C 1205.32 -2.08042 -1.83341 0
M  V30 13145 H 1208.27 -1.44688 -0.651993 0
M  V30 13146 H 1208.29 -1.80558 -3.34931 0
M  V30 13147 H 1207.8 -3.20888 -2.18294 0
M  V30 13148 H 1205.9 -1.15235 -3.54333 0
M  V30 13149 H 1206.02 -3.02902 -3.71197 0
M  V30 13150 H 1204.38 -1.53416 -2.03312 0
M  V30 13151 H 1205.16 -3.10547 -1.46339 0
M  V30 13152 N 1207.61 1.06304 -1.1635 0
M  V30 13153 C 1208.84 1.82799 -0.96913 0
M  V30 13154 C 1209.25 1.82526 0.482659 0
M  V30 13155 O 1208.61 1.24437 1.33498 0
M  V30 13156 C 1208.66 3.29417 -1.48884 0
M  V30 13157 O 1208.38 3.29803 -2.88377 0
M  V30 13158 C 1209.88 4.22642 -1.33748 0
M  V30 13159 H 1207.1 0.576388 -0.343537 0
M  V30 13160 H 1209.64 1.34122 -1.54375 0
M  V30 13161 H 1207.8 3.75406 -0.956509 0
M  V30 13162 H 1208.21 4.21486 -3.1217 0
M  V30 13163 H 1209.69 5.23545 -1.74942 0
M  V30 13164 H 1210.16 4.38287 -0.283021 0
M  V30 13165 H 1210.77 3.82499 -1.85942 0
M  V30 13166 N 1209.09 0.96196 1.24836 0
M  V30 13167 C 1210.33 0.619489 1.92371 0
M  V30 13168 C 1210.65 -0.847233 1.75633 0
M  V30 13169 O 1209.92 -1.60419 1.12439 0
M  V30 13170 H 1208.5 0.226129 0.711951 0
M  V30 13171 H 1211.17 1.22179 1.5185 0
M  V30 13172 H 1210.26 0.855128 3.00157 0
M  V30 13173 N 1210.56 -1.39601 0.731392 0
M  V30 13174 C 1211.84 -1.94531 0.20422 0
M  V30 13175 C 1212.22 -1.66845 -1.29329 0
M  V30 13176 O 1211.57 -0.994706 -2.05713 0
M  V30 13177 C 1211.78 -3.44891 0.53395 0
M  V30 13178 C 1213.13 -4.21863 0.481298 0
M  V30 13179 O 1214.15 -3.53073 0.470929 0
M  V30 13180 O 1213.01 -5.44452 0.472663 0
M  V30 13181 H 1210.1 -0.826214 0.0360436 0
M  V30 13182 H 1212.65 -1.49121 0.810005 0
M  V30 13183 H 1211.42 -3.58463 1.56907 0
M  V30 13184 H 1211.04 -3.97472 -0.10099 0
M  V30 13185 N 1212.04 -0.478751 -1.50152 0
M  V30 13186 C 1213.46 -0.133356 -1.59042 0
M  V30 13187 C 1213.66 1.36069 -1.48618 0
M  V30 13188 O 1212.71 2.13468 -1.34862 0
M  V30 13189 C 1214.03 -0.690369 -2.92668 0
M  V30 13190 C 1215.58 -0.654481 -3.06081 0
M  V30 13191 C 1216.05 -1.18917 -4.42293 0
M  V30 13192 N 1217.54 -1.14891 -4.48725 0
M  V30 13193 C 1218.28 -1.53305 -5.52526 0
M  V30 13194 N 1217.77 -1.99205 -6.63543 0
M  V30 13195 N 1219.57 -1.4486 -5.43113 0
M  V30 13196 H 1211.72 -1.45037 -1.55171 0
M  V30 13197 H 1213.98 -0.600254 -0.733757 0
M  V30 13198 H 1213.69 -1.7373 -3.05795 0
M  V30 13199 H 1213.56 -0.138227 -3.76947 0
M  V30 13200 H 1215.95 0.383564 -2.92597 0
M  V30 13201 H 1216.03 -1.24352 -2.2354 0
M  V30 13202 H 1215.67 -2.22588 -4.56527 0
M  V30 13203 H 1215.6 -0.57628 -5.23437 0
M  V30 13204 H 1218.09 -0.812344 -3.69066 0
M  V30 13205 H 1218.41 -2.26645 -7.38818 0
M  V30 13206 H 1216.75 -2.03164 -6.64642 0
M  V30 13207 H 1219.94 -1.08836 -4.55272 0
M  V30 13208 H 1220.11 -1.75123 -6.23888 0
M  V30 13209 N 1213.52 1.56172 -0.211661 0
M  V30 13210 C 1214.75 2.02428 0.427843 0
M  V30 13211 C 1215.16 1.09162 1.54043 0
M  V30 13212 O 1214.52 0.0994249 1.82229 0
M  V30 13213 C 1214.57 3.48279 0.968728 0
M  V30 13214 O 1214.29 4.37987 -0.0994841 0
M  V30 13215 C 1215.79 4.10132 1.68246 0
M  V30 13216 H 1213.01 0.662611 0.10577 0
M  V30 13217 H 1215.56 2.01897 -0.32522 0
M  V30 13218 H 1213.71 3.49456 1.6721 0
M  V30 13219 H 1214.13 5.23609 0.305558 0
M  V30 13220 H 1215.6 5.13985 2.01304 0
M  V30 13221 H 1216.08 3.54552 2.5921 0
M  V30 13222 H 1216.68 4.12775 1.02453 0
M  V30 13223 N 1215 -0.0618163 1.57479 0
M  V30 13224 C 1216.25 -0.757569 1.87364 0
M  V30 13225 C 1216.57 -1.77607 0.805025 0
M  V30 13226 O 1215.84 -1.95202 -0.165216 0
M  V30 13227 H 1214.42 -0.28278 0.691408 0
M  V30 13228 H 1217.08 -0.0355354 1.94868 0
M  V30 13229 H 1216.18 -1.26758 2.85199 0
M  V30 13230 N 1216.48 -1.54033 -0.333429 0
M  V30 13231 C 1217.41 -1.85719 -1.4153 0
M  V30 13232 C 1218.39 -0.713144 -1.54429 0
M  V30 13233 O 1219.57 -0.965984 -1.68471 0
M  V30 13234 C 1216.7 -2.07578 -2.78439 0
M  V30 13235 C 1215.66 -3.23411 -2.80338 0
M  V30 13236 C 1214.98 -3.30622 -4.2023 0
M  V30 13237 C 1216.28 -4.6129 -2.44968 0
M  V30 13238 H 1217.98 -2.76325 -1.15261 0
M  V30 13239 H 1215.52 -1.32957 -0.55303 0
M  V30 13240 H 1217.48 -2.28329 -3.5418 0
M  V30 13241 H 1216.2 -1.13713 -3.06165 0
M  V30 13242 H 1214.86 -3.02531 -2.07052 0
M  V30 13243 H 1214.51 -2.34333 -4.45081 0
M  V30 13244 H 1214.21 -4.08466 -4.22409 0
M  V30 13245 H 1215.73 -3.53596 -4.97798 0
M  V30 13246 H 1217.14 -4.81987 -3.10421 0
M  V30 13247 H 1215.54 -5.41611 -2.58414 0
M  V30 13248 H 1216.61 -4.6421 -1.40134 0
M  V30 13249 N 1217.95 0.594978 -1.45938 0
M  V30 13250 C 1219.2 1.34976 -1.49881 0
M  V30 13251 C 1219.52 1.95025 -0.14983 0
M  V30 13252 O 1220.72 2.71417 -0.0669868 0
M  V30 13253 C 1219.18 2.44563 -2.6404 0
M  V30 13254 C 1218.79 1.9087 -4.05306 0
M  V30 13255 C 1220.53 3.21461 -2.77242 0
M  V30 13256 C 1218.44 2.98013 -5.10825 0
M  V30 13257 H 1217.37 0.507366 -0.55776 0
M  V30 13258 H 1220.02 0.636316 -1.72114 0
M  V30 13259 H 1218.4 3.1865 -2.35114 0
M  V30 13260 H 1219.57 1.23408 -4.43968 0
M  V30 13261 H 1217.89 1.26678 -3.96663 0
M  V30 13262 H 1220.49 4.01399 -3.53246 0
M  V30 13263 H 1220.83 3.73271 -1.84321 0
M  V30 13264 H 1221.36 2.54477 -3.05756 0
M  V30 13265 H 1218.1 2.51104 -6.05497 0
M  V30 13266 H 1217.62 3.64003 -4.7672 0
M  V30 13267 H 1219.3 3.62178 -5.36131 0
M  V30 13268 N 1219.43 1.33438 0.838571 0
M  V30 13269 C 1220.34 1.25753 1.98049 0
M  V30 13270 C 1221.36 0.168051 1.73187 0
M  V30 13271 O 1222.53 0.391691 1.97554 0
M  V30 13272 C 1219.6 0.997148 3.32051 0
M  V30 13273 C 1218.66 2.17667 3.70027 0
M  V30 13274 C 1217.89 1.92861 4.97635 0
M  V30 13275 O 1218.12 0.879072 5.63585 0
M  V30 13276 O 1217.05 2.79402 5.33121 0
M  V30 13277 H 1220.88 2.21786 2.07472 0
M  V30 13278 H 1218.46 1.13488 0.971645 0
M  V30 13279 H 1220.34 0.869099 4.1234 0
M  V30 13280 H 1219.02 0.0671036 3.2363 0
M  V30 13281 H 1217.93 2.36025 2.90246 0
M  V30 13282 H 1219.26 3.09006 3.83114 0
M  V30 13283 N 1220.91 -1.05686 1.16912 0
M  V30 13284 C 1222.16 -1.78862 0.955839 0
M  V30 13285 C 1222.49 -1.87257 -0.514645 0
M  V30 13286 O 1221.76 -1.36869 -1.38193 0
M  V30 13287 C 1222.05 -3.23021 1.59152 0
M  V30 13288 C 1221.9 -3.22669 3.13376 0
M  V30 13289 C 1223.22 -4.2073 1.29128 0
M  V30 13290 H 1220.34 -0.64931 0.348663 0
M  V30 13291 H 1222.98 -1.23561 1.44335 0
M  V30 13292 H 1221.13 -3.70243 1.17697 0
M  V30 13293 H 1222.8 -2.83562 3.63855 0
M  V30 13294 H 1221.05 -2.61149 3.46386 0
M  V30 13295 H 1221.72 -4.24394 3.52979 0
M  V30 13296 H 1224.19 -3.8198 1.65017 0
M  V30 13297 H 1223.07 -5.19851 1.76198 0
M  V30 13298 H 1223.33 -4.41595 0.21119 0
M  V30 13299 N 1222.39 -0.968567 -1.24324 0
M  V30 13300 C 1223.63 -0.631863 -1.92705 0
M  V30 13301 C 1223.97 0.83096 -1.75524 0
M  V30 13302 O 1223.24 1.59795 -1.10887 0
M  V30 13303 C 1223.53 -1.00845 -3.45691 0
M  V30 13304 C 1223.38 -2.52803 -3.72036 0
M  V30 13305 C 1224.7 -0.543647 -4.36729 0
M  V30 13306 H 1221.82 -0.231027 -0.699854 0
M  V30 13307 H 1224.46 -1.20773 -1.46676 0
M  V30 13308 H 1222.61 -0.518434 -3.85025 0
M  V30 13309 H 1224.28 -3.09289 -3.42255 0
M  V30 13310 H 1222.52 -2.95963 -3.17157 0
M  V30 13311 H 1223.19 -2.74203 -4.79079 0
M  V30 13312 H 1225.67 -0.964182 -4.04775 0
M  V30 13313 H 1224.55 -0.8357 -5.42501 0
M  V30 13314 H 1224.81 0.556256 -4.38587 0
M  V30 13315 N 1223.87 1.39211 -0.738786 0
M  V30 13316 C 1224.8 2.33209 -0.11647 0
M  V30 13317 C 1225.78 1.54108 0.720056 0
M  V30 13318 O 1226.96 1.82486 0.664264 0
M  V30 13319 C 1224.09 3.38226 0.78872 0
M  V30 13320 C 1223.05 4.27963 0.0560636 0
M  V30 13321 C 1222.37 5.2371 1.07852 0
M  V30 13322 C 1223.67 5.10508 -1.1036 0
M  V30 13323 H 1225.37 2.85501 -0.901649 0
M  V30 13324 H 1222.91 1.37272 -0.435032 0
M  V30 13325 H 1224.87 4.02938 1.23364 0
M  V30 13326 H 1223.59 2.84382 1.60606 0
M  V30 13327 H 1222.25 3.64735 -0.369274 0
M  V30 13328 H 1221.9 4.66161 1.88953 0
M  V30 13329 H 1221.6 5.846 0.593048 0
M  V30 13330 H 1223.12 5.91299 1.52307 0
M  V30 13331 H 1224.53 5.68544 -0.736943 0
M  V30 13332 H 1222.93 5.80558 -1.51895 0
M  V30 13333 H 1224 4.45117 -1.92352 0
M  V30 13334 N 1225.34 0.486708 1.49896 0
M  V30 13335 C 1226.76 0.141788 1.58969 0
M  V30 13336 C 1226.96 -1.35279 1.49338 0
M  V30 13337 O 1226.02 -2.1275 1.35992 0
M  V30 13338 C 1227.33 0.70588 2.92297 0
M  V30 13339 C 1228.88 0.670704 3.0573 0
M  V30 13340 C 1229.35 1.21261 4.41656 0
M  V30 13341 N 1230.84 1.17269 4.4811 0
M  V30 13342 C 1231.58 1.56233 5.51705 0
M  V30 13343 N 1231.07 2.02721 6.62477 0
M  V30 13344 N 1232.87 1.47738 5.42337 0
M  V30 13345 H 1225.02 1.45858 1.544 0
M  V30 13346 H 1227.28 0.604137 0.730563 0
M  V30 13347 H 1226.99 1.7535 3.04869 0
M  V30 13348 H 1226.86 0.158215 3.76868 0
M  V30 13349 H 1229.25 -0.368041 2.92796 0
M  V30 13350 H 1229.33 1.25535 2.22878 0
M  V30 13351 H 1228.97 2.25006 4.5534 0
M  V30 13352 H 1228.9 0.604031 5.23124 0
M  V30 13353 H 1231.39 0.831905 3.6863 0
M  V30 13354 H 1231.71 2.3056 7.37606 0
M  V30 13355 H 1230.05 2.06686 6.63556 0
M  V30 13356 H 1233.24 1.11249 4.54688 0
M  V30 13357 H 1233.42 1.78429 6.2295 0
M  V30 13358 N 1226.82 -1.56058 0.219941 0
M  V30 13359 C 1228.05 -2.031 -0.42014 0
M  V30 13360 C 1228.47 -1.09875 -1.52673 0
M  V30 13361 O 1227.83 -0.0866458 -1.81093 0
M  V30 13362 C 1227.88 -3.48389 -0.93047 0
M  V30 13363 O 1226.98 -3.583 -2.04192 0
M  V30 13364 H 1226.32 -0.657129 -0.0952772 0
M  V30 13365 H 1228.85 -2.01787 0.338105 0
M  V30 13366 H 1228.86 -3.88678 -1.2407 0
M  V30 13367 H 1227.54 -4.15725 -0.120539 0
M  V30 13368 H 1226.12 -3.29898 -1.73845 0
M  V30 13369 N 1228.3 0.053464 -1.57509 0
M  V30 13370 C 1229.58 0.783141 -1.79238 0
M  V30 13371 C 1229.96 1.94855 -0.812069 0
M  V30 13372 O 1229.31 2.28 0.151006 0
M  V30 13373 C 1229.52 1.239 -3.26266 0
M  V30 13374 C 1230.86 1.66492 -3.90596 0
M  V30 13375 O 1231.89 1.33421 -3.30269 0
M  V30 13376 O 1230.75 2.27785 -4.96766 0
M  V30 13377 H 1227.84 0.376696 -0.736226 0
M  V30 13378 H 1230.39 0.0321229 -1.6967 0
M  V30 13379 H 1229.16 0.405948 -3.89189 0
M  V30 13380 H 1228.78 2.05078 -3.4063 0
M  V30 13381 N 1229.78 1.54207 0.325255 0
M  V30 13382 C 1231.01 1.76293 1.08298 0
M  V30 13383 C 1231.42 0.510722 1.81761 0
M  V30 13384 O 1230.78 -0.5185 1.7498 0
M  V30 13385 C 1230.83 2.95498 2.08238 0
M  V30 13386 O 1230.55 4.15877 1.37759 0
M  V30 13387 C 1232.05 3.29781 2.96242 0
M  V30 13388 H 1229.27 0.588576 0.322209 0
M  V30 13389 H 1231.82 2.0109 0.371896 0
M  V30 13390 H 1229.97 2.72979 2.74884 0
M  V30 13391 H 1230.39 4.82918 2.04672 0
M  V30 13392 H 1231.86 4.16495 3.62265 0
M  V30 13393 H 1232.34 2.46874 3.63249 0
M  V30 13394 H 1232.94 3.54372 2.3516 0
M  V30 13395 N 1231.26 -0.58723 1.46251 0
M  V30 13396 C 1232.51 -1.34179 1.50595 0
M  V30 13397 C 1232.82 -1.94943 0.160171 0
M  V30 13398 O 1234.03 -2.71378 0.0813797 0
M  V30 13399 C 1232.48 -2.43159 2.65333 0
M  V30 13400 C 1232.09 -1.88718 4.06312 0
M  V30 13401 C 1233.83 -3.19986 2.78943 0
M  V30 13402 C 1231.74 -2.953 5.12398 0
M  V30 13403 H 1230.67 -0.504401 0.560442 0
M  V30 13404 H 1233.32 -0.627179 1.72449 0
M  V30 13405 H 1231.7 -3.17398 2.368 0
M  V30 13406 H 1232.88 -1.21051 4.44616 0
M  V30 13407 H 1231.19 -1.24572 3.97329 0
M  V30 13408 H 1233.79 -3.9952 3.5537 0
M  V30 13409 H 1234.13 -3.72288 1.86298 0
M  V30 13410 H 1234.67 -2.52852 3.07101 0
M  V30 13411 H 1231.4 -2.4789 6.0682 0
M  V30 13412 H 1230.92 -3.61469 4.78644 0
M  V30 13413 H 1232.6 -3.5933 5.38044 0
M  V30 13414 N 1232.74 -1.33881 -0.831482 0
M  V30 13415 C 1233.7 -1.24654 -1.92339 0
M  V30 13416 C 1234.7 -0.163788 -1.59964 0
M  V30 13417 O 1235.89 -0.415829 -1.69164 0
M  V30 13418 C 1233.02 -0.922537 -3.2818 0
M  V30 13419 H 1234.21 -2.21717 -2.01944 0
M  V30 13420 H 1231.77 -1.18046 -1.02445 0
M  V30 13421 H 1232.5 0.0452872 -3.24268 0
M  V30 13422 H 1232.29 -1.70562 -3.53059 0
M  V30 13423 H 1233.78 -0.88292 -4.0816 0
M  V30 13424 N 1234.21 1.05064 -1.1747 0
M  V30 13425 C 1235.16 2.14948 -0.888815 0
M  V30 13426 C 1236.16 1.68761 0.147038 0
M  V30 13427 O 1237.36 1.8 -0.000164278 0
M  V30 13428 H 1233.74 0.701898 -0.269894 0
M  V30 13429 H 1235.71 2.36265 -1.82268 0
M  V30 13430 C 1234.46 3.45154 -0.420006 0
M  V30 13431 H 1233.78 3.81096 -1.20854 0
M  V30 13432 H 1235.22 4.23209 -0.258866 0
M  V30 13433 C 1233.68 3.25671 0.862551 0
M  V30 13434 O 1234.21 3.5235 1.92906 0
M  V30 13435 N 1232.41 2.79048 0.81121 0
M  V30 13436 H 1231.96 2.57537 -0.0569025 0
M  V30 13437 H 1231.92 2.66392 1.66981 0
M  V30 13438 N 1235.69 0.975146 1.23809 0
M  V30 13439 C 1236.94 0.636678 1.91388 0
M  V30 13440 C 1237.25 -0.832876 1.76982 0
M  V30 13441 O 1238.46 -1.28218 2.39316 0
M  V30 13442 C 1236.92 1.08813 3.43057 0
M  V30 13443 C 1236.52 2.58165 3.66135 0
M  V30 13444 C 1238.27 0.823154 4.16443 0
M  V30 13445 C 1236.17 2.97004 5.11412 0
M  V30 13446 H 1235.1 0.234424 0.716632 0
M  V30 13447 H 1237.76 1.18235 1.40331 0
M  V30 13448 H 1236.14 0.470709 3.93192 0
M  V30 13449 H 1237.31 3.25101 3.26567 0
M  V30 13450 H 1235.63 2.82353 3.06049 0
M  V30 13451 H 1238.22 1.08925 5.23488 0
M  V30 13452 H 1238.57 -0.240705 4.15604 0
M  V30 13453 H 1239.1 1.4019 3.72279 0
M  V30 13454 H 1235.84 4.02492 5.17378 0
M  V30 13455 H 1235.36 2.34759 5.51949 0
M  V30 13456 H 1237.04 2.8732 5.79704 0
M  V30 13457 N 1237.17 -1.38817 0.746158 0
M  V30 13458 C 1238.1 -2.29081 0.0737986 0
M  V30 13459 C 1239.11 -1.47377 -0.691656 0
M  V30 13460 O 1240.3 -1.70326 -0.533973 0
M  V30 13461 C 1237.4 -3.26185 -0.919607 0
M  V30 13462 C 1236.58 -4.36879 -0.213349 0
M  V30 13463 C 1235.64 -5.1422 -1.11644 0
M  V30 13464 O 1234.66 -5.66137 -0.589747 0
M  V30 13465 N 1235.86 -5.26488 -2.44521 0
M  V30 13466 H 1238.63 -2.87424 0.848966 0
M  V30 13467 H 1236.19 -1.50518 0.596314 0
M  V30 13468 H 1238.18 -3.74802 -1.52662 0
M  V30 13469 H 1236.75 -2.68793 -1.5959 0
M  V30 13470 H 1235.97 -3.89994 0.574285 0
M  V30 13471 H 1237.26 -5.08053 0.275655 0
M  V30 13472 H 1236.66 -4.85846 -2.89777 0
M  V30 13473 H 1235.21 -5.78505 -3.00291 0
M  V30 13474 N 1238.65 -0.49465 -1.49636 0
M  V30 13475 C 1239.58 0.276606 -2.31856 0
M  V30 13476 C 1240.56 0.968499 -1.39836 0
M  V30 13477 O 1241.74 0.96113 -1.68748 0
M  V30 13478 C 1238.87 1.34522 -3.20189 0
M  V30 13479 C 1237.83 0.773571 -4.20951 0
M  V30 13480 C 1237.15 1.94223 -4.98178 0
M  V30 13481 C 1238.45 -0.231096 -5.21788 0
M  V30 13482 H 1240.15 -0.409668 -2.96584 0
M  V30 13483 H 1237.69 -0.198461 -1.42626 0
M  V30 13484 H 1239.65 1.89244 -3.76517 0
M  V30 13485 H 1238.37 2.06059 -2.53392 0
M  V30 13486 H 1237.03 0.248144 -3.65759 0
M  V30 13487 H 1236.68 2.64514 -4.27834 0
M  V30 13488 H 1236.38 1.56584 -5.66353 0
M  V30 13489 H 1237.9 2.49391 -5.57348 0
M  V30 13490 H 1239.32 0.227768 -5.72847 0
M  V30 13491 H 1237.71 -0.522984 -5.97817 0
M  V30 13492 H 1238.78 -1.14914 -4.71087 0
M  V30 13493 N 1240.13 1.55939 -0.228214 0
M  V30 13494 C 1241.07 2.21957 0.69556 0
M  V30 13495 C 1242.07 1.20109 1.19458 0
M  V30 13496 O 1243.27 1.38171 1.15364 0
M  V30 13497 H 1239.65 0.711744 0.242744 0
M  V30 13498 H 1241.62 2.98177 0.115403 0
M  V30 13499 C 1240.37 2.91847 1.88999 0
M  V30 13500 H 1239.69 3.69978 1.51512 0
M  V30 13501 H 1241.13 3.4143 2.51399 0
M  V30 13502 C 1239.59 1.94683 2.74954 0
M  V30 13503 O 1240.12 1.468 3.73915 0
M  V30 13504 N 1238.33 1.62188 2.41129 0
M  V30 13505 H 1237.87 2.01322 1.60709 0
M  V30 13506 H 1237.83 0.9744 2.98919 0
M  V30 13507 N 1241.6 -0.0451101 1.57535 0
M  V30 13508 C 1242.55 -1.05066 2.05499 0
M  V30 13509 C 1243.52 -1.36884 0.940843 0
M  V30 13510 O 1244.71 -1.47497 1.21034 0
M  V30 13511 C 1241.85 -2.35139 2.52594 0
M  V30 13512 C 1240.96 -2.0962 3.77735 0
M  V30 13513 C 1240.09 -3.33447 4.13505 0
M  V30 13514 C 1239.13 -3.03411 5.31609 0
M  V30 13515 N 1238.27 -4.19644 5.62888 0
M  V30 13516 H 1243.11 -0.63469 2.91163 0
M  V30 13517 H 1240.65 -0.30179 1.43971 0
M  V30 13518 H 1242.61 -3.11118 2.7796 0
M  V30 13519 H 1241.24 -2.74489 1.69869 0
M  V30 13520 H 1240.29 -1.24211 3.59549 0
M  V30 13521 H 1241.6 -1.83452 4.63839 0
M  V30 13522 H 1240.75 -4.17805 4.39914 0
M  V30 13523 H 1239.49 -3.62715 3.2602 0
M  V30 13524 H 1238.5 -2.17453 5.04969 0
M  V30 13525 H 1239.72 -2.75438 6.20734 0
M  V30 13526 H 1237.67 -4.48893 4.78363 0
M  V30 13527 H 1237.59 -3.96843 6.43468 0
M  V30 13528 H 1238.85 -5.04921 5.93865 0
M  V30 13529 N 1243.08 -1.54377 -0.317073 0
M  V30 13530 C 1244.31 -1.77184 -1.07798 0
M  V30 13531 C 1244.73 -0.52204 -1.80711 0
M  V30 13532 O 1244.09 0.52672 -1.7348 0
M  V30 13533 C 1244.14 -2.96887 -2.04671 0
M  V30 13534 O 1243.24 -2.68887 -3.12688 0
M  V30 13535 H 1242.58 -0.586937 -0.310485 0
M  V30 13536 H 1245.11 -2.01419 -0.35939 0
M  V30 13537 H 1245.12 -3.24414 -2.47426 0
M  V30 13538 H 1243.8 -3.87518 -1.51005 0
M  V30 13539 H 1242.38 -2.52329 -2.74562 0
M  V30 13540 N 1244.56 0.579466 -1.4656 0
M  V30 13541 C 1245.51 1.70937 -1.57744 0
M  V30 13542 C 1246.5 1.6343 -0.44577 0
M  V30 13543 O 1247.71 1.68884 -0.622762 0
M  V30 13544 H 1244.08 0.565218 -0.496017 0
M  V30 13545 H 1246.05 1.58636 -2.52739 0
M  V30 13546 C 1244.8 3.09321 -1.58794 0
M  V30 13547 H 1244.13 3.1577 -2.45213 0
M  V30 13548 H 1245.57 3.88132 -1.70674 0
M  V30 13549 C 1244.03 3.35404 -0.317165 0
M  V30 13550 O 1244.56 3.97325 0.591228 0
M  V30 13551 N 1242.76 2.89883 -0.204071 0
M  V30 13552 H 1242.31 2.39672 -0.944194 0
M  V30 13553 H 1242.27 3.07706 0.645303 0
M  V30 13554 N 1246.04 1.3432 0.824371 0
M  V30 13555 C 1246.97 1.2012 1.94027 0
M  V30 13556 C 1247.95 0.0931808 1.62333 0
M  V30 13557 O 1249.13 0.258069 1.86725 0
M  V30 13558 C 1246.26 0.845628 3.27974 0
M  V30 13559 C 1245.31 1.9632 3.7863 0
M  V30 13560 S 1246.14 3.57642 3.98563 0
M  V30 13561 C 1247.3 3.24124 5.35439 0
M  V30 13562 H 1247.53 2.14579 2.05775 0
M  V30 13563 H 1245.06 1.1933 0.979783 0
M  V30 13564 H 1247.02 0.647266 4.05365 0
M  V30 13565 H 1245.68 -0.0805948 3.13997 0
M  V30 13566 H 1244.87 1.66812 4.75594 0
M  V30 13567 H 1244.48 2.11897 3.08181 0
M  V30 13568 H 1246.77 2.75848 6.188 0
M  V30 13569 H 1247.71 4.20222 5.69929 0
M  V30 13570 H 1248.12 2.60343 5.00881 0
M  V30 13571 N 1247.52 -1.0444 1.18026 0
M  V30 13572 C 1248.48 -2.10532 0.906028 0
M  V30 13573 C 1249.48 -1.60443 -0.107022 0
M  V30 13574 O 1250.67 -1.73744 0.126001 0
M  V30 13575 C 1247.8 -3.39008 0.358625 0
M  V30 13576 H 1248.99 -2.36293 1.84677 0
M  V30 13577 H 1246.55 -1.20805 0.991763 0
M  V30 13578 H 1247.28 -3.18908 -0.588904 0
M  V30 13579 H 1247.07 -3.76678 1.08884 0
M  V30 13580 H 1248.56 -4.17189 0.185331 0
M  V30 13581 N 1248.99 -0.981699 -1.2329 0
M  V30 13582 C 1249.96 -0.527992 -2.23036 0
M  V30 13583 C 1250.96 0.383083 -1.5617 0
M  V30 13584 O 1252.15 0.176595 -1.73303 0
M  V30 13585 C 1249.28 0.233501 -3.40099 0
M  V30 13586 H 1250.47 -1.40995 -2.64689 0
M  V30 13587 H 1248.03 -0.767724 -1.36146 0
M  V30 13588 H 1248.76 1.13194 -3.03904 0
M  V30 13589 H 1248.55 -0.420505 -3.89839 0
M  V30 13590 H 1250.04 0.539485 -4.14101 0
M  V30 13591 N 1250.47 1.3842 -0.753509 0
M  V30 13592 C 1251.7 2.04403 -0.320449 0
M  V30 13593 C 1252.12 1.5683 1.05118 0
M  V30 13594 O 1251.47 0.741335 1.66765 0
M  V30 13595 C 1251.52 3.59954 -0.333937 0
M  V30 13596 O 1251.24 4.05782 -1.65144 0
M  V30 13597 C 1252.75 4.43156 0.112997 0
M  V30 13598 H 1249.97 0.656881 -0.136927 0
M  V30 13599 H 1252.51 1.77112 -1.02234 0
M  V30 13600 H 1250.66 3.86083 0.319215 0
M  V30 13601 H 1251.08 5.00213 -1.57757 0
M  V30 13602 H 1252.55 5.51975 0.0523995 0
M  V30 13603 H 1253.03 4.23581 1.16087 0
M  V30 13604 H 1253.64 4.22216 -0.511278 0
M  V30 13605 N 1251.95 0.502579 1.49372 0
M  V30 13606 C 1252.91 -0.263993 2.27675 0
M  V30 13607 C 1253.91 -0.892538 1.33755 0
M  V30 13608 O 1255.1 -0.756826 1.56901 0
M  V30 13609 C 1252.24 -1.37895 3.11765 0
M  V30 13610 H 1253.43 0.423132 2.969 0
M  V30 13611 H 1250.98 0.257595 1.54163 0
M  V30 13612 H 1251.72 -2.10018 2.47109 0
M  V30 13613 H 1251.5 -0.933694 3.80821 0
M  V30 13614 H 1252.99 -1.91889 3.70902 0
M  V30 13615 N 1253.43 -1.55816 0.23648 0
M  V30 13616 C 1254.39 -2.1967 -0.654041 0
M  V30 13617 C 1255.39 -1.1629 -1.11056 0
M  V30 13618 O 1256.58 -1.41435 -1.01695 0
M  V30 13619 C 1253.71 -2.83196 -1.89771 0
M  V30 13620 H 1254.91 -2.99743 -0.0970911 0
M  V30 13621 H 1252.46 -1.56295 -0.013098 0
M  V30 13622 H 1253.19 -2.07033 -2.49616 0
M  V30 13623 H 1252.98 -3.58915 -1.57868 0
M  V30 13624 H 1254.47 -3.32095 -2.53184 0
M  V30 13625 N 1254.91 0.036755 -1.57557 0
M  V30 13626 C 1256.15 0.729106 -1.88919 0
M  V30 13627 C 1256.48 1.75769 -0.832801 0
M  V30 13628 O 1255.74 1.94985 0.167173 0
M  V30 13629 C 1256.04 1.44206 -3.27016 0
M  V30 13630 C 1255.7 0.550184 -4.47531 0
M  V30 13631 C 1254.36 0.304511 -4.80236 0
M  V30 13632 C 1256.72 -0.0660664 -5.21158 0
M  V30 13633 C 1254.04 -0.566316 -5.8396 0
M  V30 13634 C 1256.4 -0.92455 -6.25807 0
M  V30 13635 C 1255.06 -1.17976 -6.56992 0
M  V30 13636 H 1254.33 0.266799 -0.691303 0
M  V30 13637 H 1256.98 -0.0108698 -1.91497 0
M  V30 13638 H 1255.28 2.25516 -3.2039 0
M  V30 13639 H 1256.98 1.98317 -3.48527 0
M  V30 13640 H 1253.57 0.751814 -4.21955 0
M  V30 13641 H 1257.75 0.110784 -4.96176 0
M  V30 13642 H 1253.01 -0.772428 -6.06501 0
M  V30 13643 H 1257.18 -1.40861 -6.82005 0
M  V30 13644 H 1254.81 -1.85627 -7.37188 0
M  V30 13645 N 1256.39 1.54543 0.308881 0
M  V30 13646 C 1257.33 1.85693 1.40074 0
M  V30 13647 C 1258.33 0.730004 1.52864 0
M  V30 13648 O 1259.53 0.913884 1.55075 0
M  V30 13649 H 1255.91 0.588842 0.467728 0
M  V30 13650 H 1257.88 2.76973 1.11034 0
M  V30 13651 C 1256.63 2.11399 2.76054 0
M  V30 13652 H 1255.95 2.97583 2.66992 0
M  V30 13653 H 1257.39 2.37139 3.51484 0
M  V30 13654 C 1255.85 0.91007 3.24375 0
M  V30 13655 O 1256.38 0.12663 4.015 0
M  V30 13656 N 1254.59 0.717629 2.816 0
M  V30 13657 H 1254.13 1.35637 2.18998 0
M  V30 13658 H 1254.09 -0.0863585 3.14281 0
M  V30 13659 N 1257.86 -0.571685 1.46866 0
M  V30 13660 C 1258.81 -1.67992 1.58263 0
M  V30 13661 C 1259.78 -1.60535 0.426345 0
M  V30 13662 O 1260.97 -1.79584 0.644534 0
M  V30 13663 C 1258.11 -3.06327 1.58927 0
M  V30 13664 C 1257.22 -3.24328 2.85369 0
M  V30 13665 C 1256.35 -4.52976 2.77464 0
M  V30 13666 C 1255.39 -4.64359 3.98795 0
M  V30 13667 N 1254.53 -5.84345 3.89211 0
M  V30 13668 H 1259.37 -1.57589 2.52922 0
M  V30 13669 H 1256.91 -0.767883 1.25467 0
M  V30 13670 H 1258.86 -3.86411 1.57296 0
M  V30 13671 H 1257.49 -3.15601 0.677912 0
M  V30 13672 H 1256.55 -2.37774 2.96931 0
M  V30 13673 H 1257.86 -3.28605 3.7526 0
M  V30 13674 H 1257.01 -5.41303 2.74001 0
M  V30 13675 H 1255.75 -4.51155 1.85231 0
M  V30 13676 H 1254.76 -3.74448 4.02578 0
M  V30 13677 H 1255.98 -4.6795 4.92137 0
M  V30 13678 H 1253.93 -5.835 2.99772 0
M  V30 13679 H 1253.84 -5.89938 4.72768 0
M  V30 13680 H 1255.11 -6.75072 3.89741 0
M  V30 13681 N 1259.34 -1.34755 -0.817236 0
M  V30 13682 C 1260.62 -1.18007 -1.55993 0
M  V30 13683 C 1261 0.245079 -2.09673 0
M  V30 13684 O 1260.35 1.24718 -1.91462 0
M  V30 13685 C 1260.56 -2.23934 -2.67684 0
M  V30 13686 C 1261.9 -2.59201 -3.36303 0
M  V30 13687 O 1262.93 -2.22767 -2.77945 0
M  V30 13688 O 1261.79 -3.21809 -4.41702 0
M  V30 13689 H 1258.88 -0.4578 -0.688729 0
M  V30 13690 H 1261.43 -1.46405 -0.858117 0
M  V30 13691 H 1260.2 -3.19568 -2.25813 0
M  V30 13692 H 1259.82 -1.96745 -3.4551 0
M  V30 13693 N 1260.82 1.03812 -1.18578 0
M  V30 13694 C 1261.78 2.10049 -0.91718 0
M  V30 13695 C 1262.78 1.60498 0.0985122 0
M  V30 13696 O 1263.97 1.73674 -0.135213 0
M  V30 13697 C 1261.1 3.38813 -0.376599 0
M  V30 13698 H 1262.3 2.3531 -1.85927 0
M  V30 13699 H 1259.85 1.20277 -0.998156 0
M  V30 13700 H 1260.59 3.19216 0.571983 0
M  V30 13701 H 1260.37 3.76096 -1.10881 0
M  V30 13702 H 1261.86 4.17084 -0.207453 0
M  V30 13703 N 1262.3 0.988223 1.22768 0
M  V30 13704 C 1263.23 0.554478 2.26821 0
M  V30 13705 C 1264.21 -0.416293 1.64927 0
M  V30 13706 O 1265.39 -0.30795 1.91743 0
M  V30 13707 C 1262.52 -0.136266 3.47033 0
M  V30 13708 C 1261.48 0.752575 4.21332 0
M  V30 13709 C 1260.8 -0.0708236 5.34653 0
M  V30 13710 C 1262.1 2.04717 4.80508 0
M  V30 13711 H 1263.8 1.42423 2.63355 0
M  V30 13712 H 1261.34 0.686267 1.26595 0
M  V30 13713 H 1263.3 -0.451068 4.18979 0
M  V30 13714 H 1262.02 -1.04053 3.09581 0
M  V30 13715 H 1260.68 1.05095 3.51213 0
M  V30 13716 H 1260.33 -0.975859 4.93443 0
M  V30 13717 H 1260.03 0.520835 5.85287 0
M  V30 13718 H 1261.55 -0.379828 6.09417 0
M  V30 13719 H 1262.97 1.79663 5.44421 0
M  V30 13720 H 1261.36 2.58726 5.41462 0
M  V30 13721 H 1262.43 2.72896 4.00819 0
M  V30 13722 N 1263.78 -1.38018 0.760839 0
M  V30 13723 C 1264.71 -2.32995 0.153557 0
M  V30 13724 C 1265.69 -1.55234 -0.695448 0
M  V30 13725 O 1266.87 -1.8352 -0.635148 0
M  V30 13726 C 1264 -3.39437 -0.734811 0
M  V30 13727 C 1262.96 -4.27998 0.0120287 0
M  V30 13728 C 1262.28 -5.25359 -0.995067 0
M  V30 13729 C 1263.58 -5.08687 1.18468 0
M  V30 13730 H 1265.28 -2.8403 0.946956 0
M  V30 13731 H 1262.82 -1.36562 0.456816 0
M  V30 13732 H 1264.77 -4.0485 -1.16938 0
M  V30 13733 H 1263.5 -2.86901 -1.56061 0
M  V30 13734 H 1262.16 -3.64102 0.427254 0
M  V30 13735 H 1261.81 -4.69108 -1.81512 0
M  V30 13736 H 1261.51 -5.85469 -0.499969 0
M  V30 13737 H 1263.03 -5.93648 -1.4288 0
M  V30 13738 H 1264.44 -5.67299 0.8273 0
M  V30 13739 H 1262.84 -5.78068 1.61112 0
M  V30 13740 H 1263.91 -4.42 1.99409 0
M  V30 13741 N 1265.25 -0.510493 -1.49103 0
M  V30 13742 C 1266.2 0.276449 -2.30951 0
M  V30 13743 C 1267.2 0.953893 -1.3999 0
M  V30 13744 O 1268.4 0.880499 -1.56994 0
M  V30 13745 H 1264.78 0.108013 -0.744202 0
M  V30 13746 H 1266.75 -0.433725 -2.95231 0
M  V30 13747 C 1265.5 1.32234 -3.21573 0
M  V30 13748 H 1264.82 0.810468 -3.91499 0
M  V30 13749 H 1266.26 1.84476 -3.81765 0
M  V30 13750 C 1264.72 2.3456 -2.41833 0
M  V30 13751 O 1265.25 3.40627 -2.12922 0
M  V30 13752 N 1263.45 2.07272 -2.03682 0
M  V30 13753 H 1263 1.21036 -2.27394 0
M  V30 13754 H 1262.96 2.75963 -1.50638 0
M  V30 13755 N 1266.73 1.55688 -0.24474 0
M  V30 13756 C 1267.98 1.99926 0.374301 0
M  V30 13757 C 1268.33 1.12997 1.55723 0
M  V30 13758 O 1267.63 0.185026 1.90705 0
M  V30 13759 C 1267.82 3.47487 0.835923 0
M  V30 13760 C 1267.65 4.48693 -0.300729 0
M  V30 13761 C 1266.42 4.99326 -0.774706 0
M  V30 13762 C 1268.62 5.018 -1.12699 0
M  V30 13763 N 1266.6 5.84276 -1.88399 0
M  V30 13764 C 1267.97 5.83901 -2.0847 0
M  V30 13765 C 1270.02 4.84108 -1.16379 0
M  V30 13766 C 1268.73 6.50197 -3.07629 0
M  V30 13767 C 1270.75 5.51181 -2.14368 0
M  V30 13768 C 1270.12 6.33068 -3.08876 0
M  V30 13769 H 1266.21 0.775189 0.102984 0
M  V30 13770 H 1268.8 1.91308 -0.361824 0
M  V30 13771 H 1266.97 3.56507 1.54135 0
M  V30 13772 H 1268.7 3.78604 1.42973 0
M  V30 13773 H 1265.46 4.72236 -0.359226 0
M  V30 13774 H 1265.88 6.31449 -2.44134 0
M  V30 13775 H 1270.52 4.2043 -0.447006 0
M  V30 13776 H 1268.24 7.13042 -3.80258 0
M  V30 13777 H 1271.83 5.39446 -2.1792 0
M  V30 13778 H 1270.71 6.84053 -3.8346 0
M  V30 13779 N 1268.21 -0.0283989 1.57574 0
M  V30 13780 C 1269.14 -1.02828 2.09639 0
M  V30 13781 C 1270.12 -1.37668 0.999076 0
M  V30 13782 O 1271.31 -1.4654 1.27435 0
M  V30 13783 C 1268.44 -2.329 2.57633 0
M  V30 13784 C 1267.39 -2.12301 3.71635 0
M  V30 13785 C 1266.72 -3.48138 4.05837 0
M  V30 13786 C 1268.02 -1.50864 5.00037 0
M  V30 13787 H 1269.71 -0.594876 2.93431 0
M  V30 13788 H 1267.26 -0.284701 1.41158 0
M  V30 13789 H 1269.21 -3.03179 2.92678 0
M  V30 13790 H 1267.93 -2.78302 1.70926 0
M  V30 13791 H 1266.59 -1.44454 3.3694 0
M  V30 13792 H 1266.24 -3.9119 3.16195 0
M  V30 13793 H 1265.94 -3.3518 4.82626 0
M  V30 13794 H 1267.46 -4.19779 4.43417 0
M  V30 13795 H 1268.88 -2.11062 5.33035 0
M  V30 13796 H 1267.27 -1.48479 5.81441 0
M  V30 13797 H 1268.34 -0.474541 4.82572 0
M  V30 13798 N 1269.69 -1.54705 -0.300681 0
M  V30 13799 C 1270.63 -1.85678 -1.37084 0
M  V30 13800 C 1271.6 -0.70573 -1.50362 0
M  V30 13801 O 1272.79 -0.954385 -1.65215 0
M  V30 13802 C 1269.93 -2.10995 -2.73084 0
M  V30 13803 C 1269.04 -3.38621 -2.68254 0
M  V30 13804 C 1268.18 -3.53779 -3.9625 0
M  V30 13805 C 1267.22 -4.75195 -3.85818 0
M  V30 13806 N 1266.35 -4.87157 -5.05591 0
M  V30 13807 H 1271.19 -2.76967 -1.09971 0
M  V30 13808 H 1268.73 -1.37147 -0.531887 0
M  V30 13809 H 1270.69 -2.23669 -3.52176 0
M  V30 13810 H 1269.32 -1.22973 -2.98458 0
M  V30 13811 H 1268.37 -3.34566 -1.81025 0
M  V30 13812 H 1269.68 -4.27834 -2.56436 0
M  V30 13813 H 1268.84 -3.66119 -4.83779 0
M  V30 13814 H 1267.58 -2.62699 -4.10902 0
M  V30 13815 H 1266.58 -4.62888 -2.96673 0
M  V30 13816 H 1267.81 -5.67683 -3.72711 0
M  V30 13817 H 1265.75 -3.99001 -5.20706 0
M  V30 13818 H 1265.67 -5.70372 -4.96197 0
M  V30 13819 H 1266.94 -5.03854 -5.9477 0
M  V30 13820 N 1271.17 0.563888 -1.47167 0
M  V30 13821 C 1272.39 1.35176 -1.57297 0
M  V30 13822 C 1272.82 1.86794 -0.221235 0
M  V30 13823 O 1272.17 1.62606 0.801809 0
M  V30 13824 C 1272.22 2.50225 -2.59654 0
M  V30 13825 O 1271.33 3.5225 -2.14461 0
M  V30 13826 H 1270.67 0.401795 -0.528637 0
M  V30 13827 H 1273.2 0.682137 -1.92894 0
M  V30 13828 H 1273.21 2.96886 -2.79862 0
M  V30 13829 H 1271.88 2.1201 -3.57805 0
M  V30 13830 H 1270.46 3.1194 -2.04323 0
M  V30 13831 N 1272.64 1.35187 0.810078 0
M  V30 13832 C 1273.59 1.27822 1.92173 0
M  V30 13833 C 1274.56 0.150851 1.65414 0
M  V30 13834 O 1275.75 0.333973 1.87854 0
M  V30 13835 C 1272.89 1.05258 3.28656 0
M  V30 13836 C 1272 2.26884 3.67624 0
M  V30 13837 C 1271.13 1.97499 4.9312 0
M  V30 13838 C 1270.17 3.15198 5.24706 0
M  V30 13839 N 1269.31 2.85612 6.41381 0
M  V30 13840 H 1274.15 2.22884 1.97804 0
M  V30 13841 H 1271.69 1.10799 0.967577 0
M  V30 13842 H 1273.65 0.902084 4.07331 0
M  V30 13843 H 1272.28 0.138583 3.22502 0
M  V30 13844 H 1271.33 2.5281 2.84238 0
M  V30 13845 H 1272.64 3.14783 3.86928 0
M  V30 13846 H 1271.79 1.7926 5.79613 0
M  V30 13847 H 1270.53 1.0688 4.75844 0
M  V30 13848 H 1269.54 3.34019 4.36705 0
M  V30 13849 H 1270.76 4.06614 5.43913 0
M  V30 13850 H 1268.71 1.97583 6.25537 0
M  V30 13851 H 1268.63 3.67044 6.60919 0
M  V30 13852 H 1269.89 2.70906 7.3091 0
M  V30 13853 N 1274.12 -1.03182 1.19127 0
M  V30 13854 C 1275.07 -2.13507 0.922899 0
M  V30 13855 C 1276.06 -1.68973 -0.120171 0
M  V30 13856 O 1277.27 -1.79977 0.0288007 0
M  V30 13857 H 1273.65 -0.697516 0.281027 0
M  V30 13858 H 1275.62 -2.33335 1.86003 0
M  V30 13859 C 1274.37 -3.44442 0.474864 0
M  V30 13860 H 1273.69 -3.79125 1.26902 0
M  V30 13861 H 1275.13 -4.22744 0.326162 0
M  V30 13862 C 1273.59 -3.27002 -0.81063 0
M  V30 13863 O 1274.12 -3.55374 -1.87276 0
M  V30 13864 N 1272.32 -2.80303 -0.766713 0
M  V30 13865 H 1271.87 -2.57414 0.0978672 0
M  V30 13866 H 1271.83 -2.69015 -1.62721 0
M  V30 13867 N 1275.6 -0.99472 -1.22242 0
M  V30 13868 C 1277.01 -0.706456 -1.72818 0
M  V30 13869 C 1277.36 0.776566 -1.80177 0
M  V30 13870 O 1276.49 1.60698 -1.44931 0
M  V30 13871 C 1277.08 -1.27571 -3.13865 0
M  V30 13872 C 1275.64 -1.03679 -3.61839 0
M  V30 13873 C 1274.79 -1.3948 -2.39668 0
M  V30 13874 H 1277.74 -1.16687 -1.07564 0
M  V30 13875 H 1277.76 -0.655202 -3.74816 0
M  V30 13876 H 1277.27 -2.35508 -3.08476 0
M  V30 13877 H 1275.37 0.0258679 -3.72591 0
M  V30 13878 H 1275.49 -1.70145 -4.4787 0
M  V30 13879 H 1273.85 -0.813418 -2.41362 0
M  V30 13880 H 1274.63 -2.48425 -2.36939 0
M  V30 13881 N 1277.08 1.37613 -0.768148 0
M  V30 13882 C 1278.33 1.99384 -0.330187 0
M  V30 13883 C 1278.65 1.61283 1.09604 0
M  V30 13884 O 1277.92 0.876551 1.75195 0
M  V30 13885 H 1276.5 0.737445 -0.119095 0
M  V30 13886 H 1279.16 1.6815 -0.985476 0
M  V30 13887 H 1278.26 3.09462 -0.40494 0
M  V30 13888 N 1278.56 0.518393 1.4883 0
M  V30 13889 C 1279.47 -0.254811 2.33212 0
M  V30 13890 C 1280.48 -0.950401 1.45751 0
M  V30 13891 O 1281.66 -0.927932 1.78749 0
M  V30 13892 C 1278.72 -1.29509 3.21603 0
M  V30 13893 C 1277.78 -0.611086 4.24928 0
M  V30 13894 C 1277.02 -1.6018 5.09095 0
M  V30 13895 O 1277.24 -2.83336 4.95052 0
M  V30 13896 O 1276.17 -1.14756 5.90859 0
M  V30 13897 H 1280 0.436329 3.00549 0
M  V30 13898 H 1277.59 0.27947 1.46763 0
M  V30 13899 H 1279.47 -1.89654 3.7631 0
M  V30 13900 H 1278.14 -1.96884 2.5694 0
M  V30 13901 H 1277.05 0.0305638 3.74088 0
M  V30 13902 H 1278.38 0.0205249 4.92196 0
M  V30 13903 N 1280.03 -1.55556 0.252993 0
M  V30 13904 C 1281 -2.20351 -0.630705 0
M  V30 13905 C 1282 -1.17461 -1.09816 0
M  V30 13906 O 1283.19 -1.42505 -1.00189 0
M  V30 13907 C 1280.32 -2.85192 -1.86757 0
M  V30 13908 H 1281.51 -2.99829 -0.0652939 0
M  V30 13909 H 1279.07 -1.563 0.00347982 0
M  V30 13910 H 1279.8 -2.09669 -2.47406 0
M  V30 13911 H 1279.59 -3.60569 -1.54053 0
M  V30 13912 H 1281.08 -3.34762 -2.49648 0
M  V30 13913 N 1281.51 0.0200419 -1.57587 0
M  V30 13914 C 1282.44 1.01715 -2.10181 0
M  V30 13915 C 1283.42 1.37136 -1.00636 0
M  V30 13916 O 1284.61 1.45862 -1.2821 0
M  V30 13917 C 1281.74 2.31531 -2.58865 0
M  V30 13918 C 1280.69 2.10327 -3.72755 0
M  V30 13919 C 1280.02 3.45981 -4.07678 0
M  V30 13920 C 1281.32 1.4821 -5.0083 0
M  V30 13921 H 1283.01 0.579307 -2.93742 0
M  V30 13922 H 1280.56 0.277211 -1.41307 0
M  V30 13923 H 1282.51 3.01623 -2.94281 0
M  V30 13924 H 1281.24 2.77392 -1.72399 0
M  V30 13925 H 1279.89 1.42665 -3.37701 0
M  V30 13926 H 1279.54 3.89508 -3.18265 0
M  V30 13927 H 1279.24 3.32616 -4.84397 0
M  V30 13928 H 1280.77 4.17421 -4.45637 0
M  V30 13929 H 1282.18 2.08232 -5.34146 0
M  V30 13930 H 1280.58 1.45393 -5.82221 0
M  V30 13931 H 1281.65 0.448942 -4.82817 0
M  V30 13932 N 1282.99 1.54862 0.292472 0
M  V30 13933 C 1284.27 1.65237 1.04671 0
M  V30 13934 C 1284.65 0.506168 2.04942 0
M  V30 13935 O 1284 -0.496123 2.23049 0
M  V30 13936 C 1284.21 3.03618 1.72095 0
M  V30 13937 C 1285.55 3.6072 2.23979 0
M  V30 13938 O 1286.58 3.06126 1.82114 0
M  V30 13939 O 1285.44 4.56328 3.0071 0
M  V30 13940 H 1282.53 0.670347 0.484319 0
M  V30 13941 H 1285.08 1.67206 0.28988 0
M  V30 13942 H 1283.85 3.78482 0.993324 0
M  V30 13943 H 1283.47 3.05464 2.54514 0
M  V30 13944 N 1284.47 -0.556076 1.47464 0
M  V30 13945 C 1285.88 -0.882115 1.33007 0
M  V30 13946 C 1286.08 -1.9892 0.321407 0
M  V30 13947 O 1285.14 -2.51088 -0.266668 0
M  V30 13948 C 1286.45 -1.27428 2.72365 0
M  V30 13949 C 1288 -1.38564 2.80658 0
M  V30 13950 C 1288.48 -1.81136 4.20659 0
M  V30 13951 N 1289.97 -1.88284 4.23206 0
M  V30 13952 C 1290.7 -2.22555 5.28447 0
M  V30 13953 N 1290.2 -2.55432 6.43993 0
M  V30 13954 N 1291.99 -2.23339 5.15826 0
M  V30 13955 H 1284.14 0.17481 2.11679 0
M  V30 13956 H 1286.41 0.0155421 0.947873 0
M  V30 13957 H 1286.11 -0.53463 3.47613 0
M  V30 13958 H 1285.99 -2.23019 3.04208 0
M  V30 13959 H 1288.37 -2.1161 2.05682 0
M  V30 13960 H 1288.45 -0.411588 2.52467 0
M  V30 13961 H 1288.1 -1.08659 4.96141 0
M  V30 13962 H 1288.03 -2.79546 4.46275 0
M  V30 13963 H 1290.52 -1.65259 3.3985 0
M  V30 13964 H 1290.83 -2.80612 7.20053 0
M  V30 13965 H 1289.18 -2.5301 6.47311 0
M  V30 13966 H 1292.37 -1.97094 4.24584 0
M  V30 13967 H 1292.54 -2.49717 5.97951 0
M  V30 13968 N 1285.95 -1.35615 -0.802897 0
M  V30 13969 C 1286.91 -1.28705 -1.89651 0
M  V30 13970 C 1287.91 -0.197681 -1.5958 0
M  V30 13971 O 1289.1 -0.451618 -1.68244 0
M  V30 13972 C 1286.23 -0.991941 -3.26149 0
M  V30 13973 H 1287.43 -2.25951 -1.97196 0
M  V30 13974 H 1284.98 -1.20192 -0.999179 0
M  V30 13975 H 1285.71 -0.0235051 -3.24291 0
M  V30 13976 H 1285.5 -1.78013 -3.49362 0
M  V30 13977 H 1286.99 -0.969298 -4.06195 0
M  V30 13978 N 1287.43 1.02549 -1.19673 0
M  V30 13979 C 1288.67 1.75408 -0.995732 0
M  V30 13980 C 1288.99 1.89773 0.473863 0
M  V30 13981 O 1290.19 2.59638 0.793762 0
M  V30 13982 C 1288.65 3.15444 -1.73273 0
M  V30 13983 C 1288.26 3.09121 -3.24266 0
M  V30 13984 C 1290 3.92575 -1.61509 0
M  V30 13985 C 1287.91 4.44109 -3.9054 0
M  V30 13986 H 1286.84 0.657569 -0.368944 0
M  V30 13987 H 1289.49 1.14739 -1.43203 0
M  V30 13988 H 1287.87 3.76601 -1.22425 0
M  V30 13989 H 1289.05 2.57325 -3.82257 0
M  V30 13990 H 1287.36 2.45485 -3.36342 0
M  V30 13991 H 1289.96 4.92428 -2.08372 0
M  V30 13992 H 1290.3 4.12382 -0.569804 0
M  V30 13993 H 1290.83 3.38027 -2.09721 0
M  V30 13994 H 1287.57 4.29506 -4.95182 0
M  V30 13995 H 1287.09 4.95947 -3.37337 0
M  V30 13996 H 1288.77 5.12982 -3.94282 0
M  V30 13997 N 1288.9 1.00119 1.21713 0
M  V30 13998 C 1289.81 0.567582 2.27631 0
M  V30 13999 C 1290.83 -0.387593 1.69628 0
M  V30 14000 O 1292.01 -0.252372 1.99813 0
M  V30 14001 C 1289.07 -0.102745 3.46548 0
M  V30 14002 C 1288.13 0.896433 4.19836 0
M  V30 14003 C 1287.36 0.258 5.33076 0
M  V30 14004 O 1287.59 -0.946118 5.62499 0
M  V30 14005 O 1286.52 0.967021 5.94081 0
M  V30 14006 H 1290.35 1.44898 2.66905 0
M  V30 14007 H 1287.93 0.769862 1.28037 0
M  V30 14008 H 1289.81 -0.477846 4.18682 0
M  V30 14009 H 1288.49 -0.958576 3.09181 0
M  V30 14010 H 1287.4 1.32262 3.49939 0
M  V30 14011 H 1288.73 1.72173 4.61104 0
M  V30 14012 N 1290.38 -1.37203 0.775435 0
M  V30 14013 C 1291.29 -2.34019 0.165062 0
M  V30 14014 C 1292.31 -1.6036 -0.675316 0
M  V30 14015 O 1293.48 -1.9243 -0.594375 0
M  V30 14016 C 1290.55 -3.3954 -0.700957 0
M  V30 14017 C 1289.61 -4.29015 0.156304 0
M  V30 14018 C 1288.84 -5.29497 -0.668476 0
M  V30 14019 O 1289.07 -5.37636 -1.90535 0
M  V30 14020 O 1288 -6.01852 -0.0757351 0
M  V30 14021 H 1291.83 -2.87955 0.965184 0
M  V30 14022 H 1289.41 -1.39429 0.536654 0
M  V30 14023 H 1291.29 -4.04094 -1.19524 0
M  V30 14024 H 1289.97 -2.87926 -1.4792 0
M  V30 14025 H 1288.87 -3.67549 0.69703 0
M  V30 14026 H 1290.21 -4.83944 0.897725 0
M  V30 14027 N 1291.86 -0.526279 -1.48553 0
M  V30 14028 C 1293.11 0.0091665 -2.02498 0
M  V30 14029 C 1293.43 1.34632 -1.40373 0
M  V30 14030 O 1292.69 1.88172 -0.537573 0
M  V30 14031 C 1292.99 0.184075 -3.56926 0
M  V30 14032 C 1292.65 -1.07825 -4.37818 0
M  V30 14033 C 1291.32 -1.42422 -4.59641 0
M  V30 14034 C 1293.67 -1.91616 -4.84699 0
M  V30 14035 C 1291 -2.60713 -5.25591 0
M  V30 14036 C 1293.35 -3.09082 -5.51952 0
M  V30 14037 C 1292.01 -3.44029 -5.72014 0
M  V30 14038 H 1291.28 0.00335426 -0.740992 0
M  V30 14039 H 1293.93 -0.691553 -1.78577 0
M  V30 14040 H 1292.23 0.967532 -3.79666 0
M  V30 14041 H 1293.93 0.613226 -3.96283 0
M  V30 14042 H 1290.52 -0.798812 -4.2109 0
M  V30 14043 H 1294.71 -1.66199 -4.67645 0
M  V30 14044 H 1289.96 -2.87996 -5.39322 0
M  V30 14045 H 1294.14 -3.74317 -5.87247 0
M  V30 14046 H 1291.76 -4.35789 -6.2289 0
M  V30 14047 N 1293.34 1.5542 -0.261239 0
M  V30 14048 C 1294.57 2.03687 0.363225 0
M  V30 14049 C 1294.98 1.14007 1.50492 0
M  V30 14050 O 1294.34 0.157349 1.8182 0
M  V30 14051 C 1294.39 3.51184 0.857435 0
M  V30 14052 O 1294.11 4.37449 -0.238776 0
M  V30 14053 C 1295.61 4.15277 1.55113 0
M  V30 14054 H 1292.83 0.665641 0.0846356 0
M  V30 14055 H 1295.37 2.00761 -0.389288 0
M  V30 14056 H 1293.53 3.54599 1.56008 0
M  V30 14057 H 1293.94 5.24316 0.138821 0
M  V30 14058 H 1295.42 5.20129 1.8485 0
M  V30 14059 H 1295.89 3.62619 2.47799 0
M  V30 14060 H 1296.5 4.15826 0.892695 0
M  V30 14061 N 1294.82 -0.0116844 1.57596 0
M  V30 14062 C 1295.75 -1.00599 2.10718 0
M  V30 14063 C 1296.73 -1.36601 1.01362 0
M  V30 14064 O 1297.91 -1.4518 1.28982 0
M  V30 14065 C 1295.04 -2.30155 2.60089 0
M  V30 14066 C 1294 -2.08347 3.73866 0
M  V30 14067 C 1293.32 -3.43814 4.09507 0
M  V30 14068 C 1294.62 -1.45552 5.01609 0
M  V30 14069 H 1296.32 -0.563721 2.94045 0
M  V30 14070 H 1293.86 -0.269714 1.41452 0
M  V30 14071 H 1295.81 -3.00058 2.95877 0
M  V30 14072 H 1294.54 -2.76473 1.73868 0
M  V30 14073 H 1293.2 -1.40872 3.38453 0
M  V30 14074 H 1292.85 -3.87814 3.20326 0
M  V30 14075 H 1292.55 -3.30043 4.86154 0
M  V30 14076 H 1294.07 -4.15052 4.47844 0
M  V30 14077 H 1295.48 -2.05396 5.35243 0
M  V30 14078 H 1293.88 -1.42304 5.82983 0
M  V30 14079 H 1294.95 -0.423331 4.83049 0
M  V30 14080 N 1296.29 -1.55015 -0.284256 0
M  V30 14081 C 1297.52 -1.79431 -1.04016 0
M  V30 14082 C 1297.94 -0.560254 -1.79563 0
M  V30 14083 O 1297.3 0.489804 -1.74558 0
M  V30 14084 C 1297.35 -3.01162 -1.98328 0
M  V30 14085 O 1296.45 -2.75459 -3.06914 0
M  V30 14086 H 1295.79 -0.593391 -0.297965 0
M  V30 14087 H 1298.32 -2.02136 -0.316585 0
M  V30 14088 H 1298.33 -3.29589 -2.40489 0
M  V30 14089 H 1297.01 -3.90634 -1.42751 0
M  V30 14090 H 1295.59 -2.58096 -2.69148 0
M  V30 14091 N 1297.77 0.548248 -1.47757 0
M  V30 14092 C 1299.01 1.31569 -1.56426 0
M  V30 14093 C 1299.38 1.90676 -0.225072 0
M  V30 14094 O 1300.58 2.68151 -0.186652 0
M  V30 14095 C 1298.85 2.38951 -2.65776 0
M  V30 14096 S 1300.41 3.25664 -2.94089 0
M  V30 14097 H 1297.22 0.447791 -0.552272 0
M  V30 14098 H 1299.83 0.626659 -1.85184 0
M  V30 14099 H 1298.53 1.93978 -3.61664 0
M  V30 14100 H 1298.06 3.12584 -2.38861 0
M  V30 14101 H 1300.08 4.38629 -2.31989 0
M  V30 14102 N 1299.25 1.36039 0.795694 0
M  V30 14103 C 1300.21 1.29709 1.88966 0
M  V30 14104 C 1301.21 0.206142 1.59473 0
M  V30 14105 O 1302.4 0.460534 1.68002 0
M  V30 14106 C 1299.53 1.00922 3.25619 0
M  V30 14107 H 1300.73 2.26993 1.95995 0
M  V30 14108 H 1298.28 1.2072 0.992791 0
M  V30 14109 H 1299.02 0.0407027 3.24274 0
M  V30 14110 H 1298.8 1.79863 3.48413 0
M  V30 14111 H 1300.29 0.990826 4.05675 0
M  V30 14112 N 1300.73 -1.01913 1.20215 0
M  V30 14113 C 1301.98 -1.75124 1.00876 0
M  V30 14114 C 1302.3 -1.89485 -0.460475 0
M  V30 14115 O 1301.57 -1.43552 -1.33302 0
M  V30 14116 H 1300.15 -0.648777 0.370266 0
M  V30 14117 H 1302.81 -1.22883 1.5128 0
M  V30 14118 H 1301.91 -2.7558 1.46499 0
M  V30 14119 N 1302.21 -1.00763 -1.2118 0
M  V30 14120 C 1303.44 -0.709715 -1.94027 0
M  V30 14121 C 1303.84 0.732135 -1.7446 0
M  V30 14122 O 1303.19 1.50731 -1.05004 0
M  V30 14123 C 1303.25 -0.95427 -3.46603 0
M  V30 14124 C 1302.91 -2.38347 -3.89923 0
M  V30 14125 C 1303.91 -3.36383 -3.96412 0
M  V30 14126 C 1301.6 -2.72183 -4.22163 0
M  V30 14127 C 1303.59 -4.66321 -4.34538 0
M  V30 14128 C 1301.28 -4.02336 -4.59966 0
M  V30 14129 C 1302.27 -4.99216 -4.66125 0
M  V30 14130 O 1301.96 -6.27041 -5.03065 0
M  V30 14131 H 1301.69 -0.260545 -0.623773 0
M  V30 14132 H 1304.25 -1.34922 -1.54872 0
M  V30 14133 H 1302.48 -0.257599 -3.85841 0
M  V30 14134 H 1304.17 -0.649333 -4.00673 0
M  V30 14135 H 1304.93 -3.11578 -3.71677 0
M  V30 14136 H 1300.81 -1.97468 -4.16566 0
M  V30 14137 H 1304.36 -5.41938 -4.3926 0
M  V30 14138 H 1300.25 -4.26924 -4.84155 0
M  V30 14139 H 1301.02 -6.31196 -5.21089 0
M  V30 14140 N 1303.68 1.3679 -0.7827 0
M  V30 14141 C 1304.92 2.01252 -0.357327 0
M  V30 14142 C 1305.29 1.60782 1.04944 0
M  V30 14143 O 1306.49 2.17785 1.57553 0
M  V30 14144 C 1304.76 3.53766 -0.508352 0
M  V30 14145 S 1306.32 4.38471 -0.169862 0
M  V30 14146 H 1303.14 0.697701 -0.136875 0
M  V30 14147 H 1305.74 1.66799 -1.01972 0
M  V30 14148 H 1304.44 3.80708 -1.53262 0
M  V30 14149 H 1303.97 3.93032 0.170209 0
M  V30 14150 H 1305.99 4.85373 1.03088 0
M  V30 14151 N 1305.16 0.53415 1.48272 0
M  V30 14152 C 1306.41 0.00157492 2.028 0
M  V30 14153 C 1306.74 -1.33538 1.41001 0
M  V30 14154 O 1306.02 -1.86347 0.557245 0
M  V30 14155 C 1306.3 -0.116016 3.59913 0
M  V30 14156 C 1306.15 1.2464 4.32186 0
M  V30 14157 C 1307.47 -0.840775 4.31994 0
M  V30 14158 H 1304.59 0.00204634 0.736997 0
M  V30 14159 H 1307.23 0.691985 1.76951 0
M  V30 14160 H 1305.38 -0.704027 3.82068 0
M  V30 14161 H 1307.05 1.87584 4.21438 0
M  V30 14162 H 1305.3 1.8272 3.93441 0
M  V30 14163 H 1305.97 1.11708 5.40579 0
M  V30 14164 H 1308.44 -0.341746 4.14694 0
M  V30 14165 H 1307.32 -0.89196 5.41604 0
M  V30 14166 H 1307.58 -1.89197 3.99571 0
M  V30 14167 N 1306.64 -1.55279 0.269478 0
M  V30 14168 C 1307.6 -2.21008 -0.607299 0
M  V30 14169 C 1308.6 -1.18619 -1.08564 0
M  V30 14170 O 1309.79 -1.4356 -0.986721 0
M  V30 14171 C 1306.93 -2.87157 -1.83721 0
M  V30 14172 H 1308.12 -2.99881 -0.0334894 0
M  V30 14173 H 1305.67 -1.56287 0.0200573 0
M  V30 14174 H 1306.41 -2.12281 -2.45168 0
M  V30 14175 H 1306.19 -3.62183 -1.5022 0
M  V30 14176 H 1307.68 -3.37391 -2.46083 0
M  V30 14177 N 1308.12 0.00332656 -1.576 0
M  V30 14178 C 1309.35 0.699945 -1.94701 0
M  V30 14179 C 1309.76 1.67492 -0.871312 0
M  V30 14180 O 1309.12 1.81882 0.150054 0
M  V30 14181 C 1309.17 1.43471 -3.31811 0
M  V30 14182 O 1308.89 0.498835 -4.35251 0
M  V30 14183 C 1310.39 2.22614 -3.83351 0
M  V30 14184 H 1307.61 0.195158 -0.641993 0
M  V30 14185 H 1310.16 -0.0468044 -2.04446 0
M  V30 14186 H 1308.31 2.13311 -3.23384 0
M  V30 14187 H 1308.72 1.01688 -5.14548 0
M  V30 14188 H 1310.2 2.69527 -4.81725 0
M  V30 14189 H 1310.68 3.05146 -3.15883 0
M  V30 14190 H 1311.28 1.57796 -3.94944 0
M  V30 14191 N 1309.6 1.55164 0.276031 0
M  V30 14192 C 1310.83 1.79388 1.02486 0
M  V30 14193 C 1311.23 0.565884 1.80539 0
M  V30 14194 O 1310.58 -0.47449 1.77466 0
M  V30 14195 C 1310.64 2.96494 2.03302 0
M  V30 14196 C 1310.3 4.33649 1.44214 0
M  V30 14197 C 1311.3 5.12749 0.859355 0
M  V30 14198 C 1308.99 4.80301 1.47026 0
M  V30 14199 C 1310.98 6.36633 0.312548 0
M  V30 14200 C 1308.67 6.04141 0.919587 0
M  V30 14201 C 1309.66 6.82145 0.341729 0
M  V30 14202 O 1309.35 8.0365 -0.200517 0
M  V30 14203 H 1309.08 0.601454 0.308592 0
M  V30 14204 H 1311.64 2.02999 0.313148 0
M  V30 14205 H 1309.87 2.68568 2.78223 0
M  V30 14206 H 1311.56 3.08069 2.64288 0
M  V30 14207 H 1312.32 4.77839 0.830353 0
M  V30 14208 H 1308.2 4.19597 1.90942 0
M  V30 14209 H 1311.75 6.97461 -0.139131 0
M  V30 14210 H 1307.64 6.38533 0.945819 0
M  V30 14211 H 1308.41 8.18451 -0.0895877 0
M  V30 14212 N 1311.07 -0.540404 1.48045 0
M  V30 14213 C 1312.32 -1.2987 1.55762 0
M  V30 14214 C 1312.65 -1.92877 0.226307 0
M  V30 14215 O 1311.93 -1.7875 -0.766727 0
M  V30 14216 C 1312.21 -2.39602 2.68817 0
M  V30 14217 C 1312.06 -1.81354 4.1162 0
M  V30 14218 C 1313.38 -3.41434 2.77688 0
M  V30 14219 H 1310.5 -0.47083 0.566999 0
M  V30 14220 H 1313.14 -0.603081 1.80175 0
M  V30 14221 H 1311.29 -2.98936 2.48132 0
M  V30 14222 H 1312.97 -1.26151 4.43716 0
M  V30 14223 H 1311.21 -1.1194 4.19108 0
M  V30 14224 H 1311.88 -2.60758 4.86528 0
M  V30 14225 H 1314.36 -2.92042 2.96396 0
M  V30 14226 H 1313.23 -4.15621 3.5854 0
M  V30 14227 H 1313.49 -4.01336 1.85422 0
M  V30 14228 N 1312.55 -1.36459 -0.788468 0
M  V30 14229 C 1313.48 -1.33545 -1.91541 0
M  V30 14230 C 1314.46 -0.206762 -1.68839 0
M  V30 14231 O 1315.65 -0.404553 -1.89939 0
M  V30 14232 C 1312.78 -1.12492 -3.28577 0
M  V30 14233 C 1311.73 -2.22196 -3.65805 0
M  V30 14234 C 1311.06 -1.86285 -5.01201 0
M  V30 14235 C 1312.36 -3.64286 -3.7429 0
M  V30 14236 H 1314.05 -2.27844 -1.94236 0
M  V30 14237 H 1311.6 -1.09677 -0.933105 0
M  V30 14238 H 1313.55 -1.09089 -4.07035 0
M  V30 14239 H 1312.28 -0.146446 -3.26272 0
M  V30 14240 H 1310.93 -2.24727 -2.89644 0
M  V30 14241 H 1310.58 -0.87009 -4.95417 0
M  V30 14242 H 1310.28 -2.59734 -5.27079 0
M  V30 14243 H 1311.81 -1.84439 -5.82078 0
M  V30 14244 H 1313.22 -3.63977 -4.42937 0
M  V30 14245 H 1311.62 -4.36648 -4.11653 0
M  V30 14246 H 1312.69 -3.99123 -2.75371 0
M  V30 14247 N 1314.03 1.01274 -1.20754 0
M  V30 14248 C 1315.28 1.74586 -1.01804 0
M  V30 14249 C 1315.6 1.89727 0.450419 0
M  V30 14250 O 1314.87 1.44257 1.32539 0
M  V30 14251 H 1313.45 0.646804 -0.373702 0
M  V30 14252 H 1316.11 1.22079 -1.5193 0
M  V30 14253 H 1315.21 2.748 -1.47958 0
M  V30 14254 N 1315.51 1.01404 1.20644 0
M  V30 14255 C 1316.76 0.697244 1.89265 0
M  V30 14256 C 1317.07 -0.776149 1.79542 0
M  V30 14257 O 1318.28 -1.2054 2.43274 0
M  V30 14258 C 1316.73 1.19672 3.39421 0
M  V30 14259 C 1316.34 2.69683 3.57736 0
M  V30 14260 C 1318.09 0.955225 4.13613 0
M  V30 14261 C 1315.99 3.13124 5.01704 0
M  V30 14262 H 1314.92 0.257105 0.708811 0
M  V30 14263 H 1317.57 1.22639 1.36499 0
M  V30 14264 H 1315.96 0.595562 3.91496 0
M  V30 14265 H 1317.13 3.35326 3.16059 0
M  V30 14266 H 1315.44 2.91946 2.96911 0
M  V30 14267 H 1318.04 1.25524 5.19757 0
M  V30 14268 H 1318.38 -0.108362 4.16159 0
M  V30 14269 H 1318.92 1.51962 3.67631 0
M  V30 14270 H 1315.66 4.18748 5.04311 0
M  V30 14271 H 1315.18 2.522 5.44201 0
M  V30 14272 H 1316.86 3.05617 5.70269 0
M  V30 14273 N 1316.99 -1.36373 0.789944 0
M  V30 14274 C 1318.24 -1.98834 0.361866 0
M  V30 14275 C 1318.56 -1.63006 -1.07024 0
M  V30 14276 O 1317.83 -0.904312 -1.73779 0
M  V30 14277 H 1316.41 -0.735457 0.130812 0
M  V30 14278 H 1319.07 -1.66561 1.0121 0
M  V30 14279 H 1318.16 -3.08778 0.454122 0
M  V30 14280 N 1318.47 -0.542005 -1.47987 0
M  V30 14281 C 1319.74 0.0526494 -1.95529 0
M  V30 14282 C 1320.12 1.50092 -1.48444 0
M  V30 14283 O 1319.47 2.16981 -0.716347 0
M  V30 14284 C 1319.68 -0.0770524 -3.48915 0
M  V30 14285 C 1321.03 0.0760849 -4.24532 0
M  V30 14286 O 1322.05 -0.00384644 -3.562 0
M  V30 14287 O 1320.91 0.245406 -5.45949 0
M  V30 14288 H 1318.01 0.0726163 -0.823806 0
M  V30 14289 H 1320.55 -0.607454 -1.58455 0
M  V30 14290 H 1319.32 -1.08544 -3.75944 0
M  V30 14291 H 1318.95 0.621357 -3.92715 0
M  V30 14292 N 1319.94 1.55134 -0.277709 0
M  V30 14293 C 1321.36 1.59417 0.0763615 0
M  V30 14294 C 1321.56 1.29491 1.54384 0
M  V30 14295 O 1320.62 1.05703 2.2931 0
M  V30 14296 C 1321.93 2.99194 -0.300607 0
M  V30 14297 C 1323.48 3.1202 -0.247438 0
M  V30 14298 C 1323.95 4.54068 -0.598884 0
M  V30 14299 N 1325.44 4.59917 -0.550534 0
M  V30 14300 C 1326.18 5.67859 -0.795235 0
M  V30 14301 N 1325.67 6.83936 -1.10469 0
M  V30 14302 N 1327.47 5.5742 -0.723859 0
M  V30 14303 H 1319.62 1.72851 -1.23435 0
M  V30 14304 H 1321.88 0.806137 -0.498846 0
M  V30 14305 H 1321.59 3.25937 -1.32129 0
M  V30 14306 H 1321.46 3.75504 0.35729 0
M  V30 14307 H 1323.85 2.8504 0.763959 0
M  V30 14308 H 1323.93 2.37917 -0.939629 0
M  V30 14309 H 1323.57 4.81774 -1.60798 0
M  V30 14310 H 1323.5 5.26474 0.115126 0
M  V30 14311 H 1325.99 3.76531 -0.321341 0
M  V30 14312 H 1326.31 7.62159 -1.278 0
M  V30 14313 H 1324.65 6.85545 -1.14249 0
M  V30 14314 H 1327.84 4.65613 -0.481925 0
M  V30 14315 H 1328.02 6.41465 -0.917944 0
M  V30 14316 N 1321.42 0.00503138 1.57599 0
M  V30 14317 C 1322.37 -0.993379 2.05222 0
M  V30 14318 C 1323.36 -1.30013 0.947919 0
M  V30 14319 O 1324.55 -1.29027 1.21166 0
M  V30 14320 C 1321.68 -2.28375 2.5632 0
M  V30 14321 C 1320.76 -2.00642 3.73636 0
M  V30 14322 N 1321.15 -1.43087 4.85139 0
M  V30 14323 C 1319.45 -2.30759 3.81662 0
M  V30 14324 C 1320.15 -1.31939 5.66539 0
M  V30 14325 N 1319.13 -1.80672 5.12697 0
M  V30 14326 H 1322.93 -0.542951 2.88841 0
M  V30 14327 H 1320.44 -0.20055 1.61157 0
M  V30 14328 H 1322.44 -3.00748 2.88715 0
M  V30 14329 H 1321.1 -2.74066 1.74121 0
M  V30 14330 H 1322.11 -1.10901 5.05887 0
M  V30 14331 H 1318.79 -2.7929 3.10327 0
M  V30 14332 H 1320.18 -0.876391 6.6616 0
M  V30 14333 N 1322.9 -1.55308 -0.267798 0
M  V30 14334 C 1324.12 -1.80524 -1.02107 0
M  V30 14335 C 1324.55 -0.579268 -1.78958 0
M  V30 14336 O 1323.91 0.471262 -1.75068 0
M  V30 14337 C 1323.96 -3.03248 -1.95123 0
M  V30 14338 O 1323.06 -2.78699 -3.03975 0
M  V30 14339 H 1322.4 -0.596518 -0.291655 0
M  V30 14340 H 1324.93 -2.0246 -0.295128 0
M  V30 14341 H 1324.94 -3.32121 -2.3698 0
M  V30 14342 H 1323.62 -3.92126 -1.386 0
M  V30 14343 H 1322.19 -2.60936 -2.66396 0
M  V30 14344 N 1324.38 0.532545 -1.4833 0
M  V30 14345 C 1325.65 1.29371 -1.46705 0
M  V30 14346 C 1326.03 2.10354 -0.177329 0
M  V30 14347 O 1325.38 2.12462 0.840968 0
M  V30 14348 C 1325.59 2.17733 -2.72751 0
M  V30 14349 C 1326.94 2.77956 -3.20976 0
M  V30 14350 O 1327.96 2.28022 -2.7365 0
M  V30 14351 O 1326.82 3.68779 -4.03317 0
M  V30 14352 H 1323.92 0.58378 -0.585773 0
M  V30 14353 H 1326.46 0.549411 -1.6056 0
M  V30 14354 H 1325.24 1.57659 -3.58133 0
M  V30 14355 H 1324.86 2.99415 -2.61603 0
M  V30 14356 N 1325.86 1.36875 0.78122 0
M  V30 14357 C 1326.8 1.31941 1.91557 0
M  V30 14358 C 1327.8 0.209783 1.68096 0
M  V30 14359 O 1329 0.377266 1.76002 0
M  V30 14360 H 1325.38 0.410955 0.629778 0
M  V30 14361 H 1327.35 2.27721 1.92836 0
M  V30 14362 C 1326.1 1.13379 3.28695 0
M  V30 14363 H 1325.42 1.98013 3.47319 0
M  V30 14364 H 1326.86 1.13976 4.08394 0
M  V30 14365 C 1325.32 -0.161119 3.36515 0
M  V30 14366 O 1325.85 -1.14806 3.84945 0
M  V30 14367 N 1324.06 -0.208594 2.8985 0
M  V30 14368 H 1323.6 0.595187 2.5063 0
M  V30 14369 H 1323.56 -1.07465 2.95463 0
M  V30 14370 N 1327.33 -1.00632 1.21289 0
M  V30 14371 C 1328.58 -1.73802 1.02351 0
M  V30 14372 C 1328.9 -1.90503 -0.443611 0
M  V30 14373 O 1330.1 -2.60868 -0.752356 0
M  V30 14374 C 1328.56 -3.12647 1.78269 0
M  V30 14375 C 1328.17 -3.03923 3.29142 0
M  V30 14376 C 1329.91 -3.89956 1.67735 0
M  V30 14377 C 1327.82 -4.3784 3.97556 0
M  V30 14378 H 1326.75 -0.651616 0.379358 0
M  V30 14379 H 1329.4 -1.12446 1.45011 0
M  V30 14380 H 1327.78 -3.74605 1.28401 0
M  V30 14381 H 1328.95 -2.51211 3.86303 0
M  V30 14382 H 1327.27 -2.40103 3.40205 0
M  V30 14383 H 1329.87 -4.89051 2.1618 0
M  V30 14384 H 1330.21 -4.11423 0.635338 0
M  V30 14385 H 1330.74 -3.34647 2.15072 0
M  V30 14386 H 1327.48 -4.21573 5.01952 0
M  V30 14387 H 1327 -4.90518 3.45184 0
M  V30 14388 H 1328.68 -5.06644 4.02393 0
M  V30 14389 N 1328.81 -1.02043 -1.20104 0
M  V30 14390 C 1329.74 -0.538603 -2.21753 0
M  V30 14391 C 1330.72 0.416016 -1.57188 0
M  V30 14392 O 1331.91 0.335114 -1.85497 0
M  V30 14393 C 1329.03 0.215706 -3.38012 0
M  V30 14394 C 1328.08 -0.68905 -4.20897 0
M  V30 14395 S 1328.91 -2.16041 -4.89986 0
M  V30 14396 C 1330.07 -1.41637 -6.09664 0
M  V30 14397 H 1330.3 -1.39988 -2.6228 0
M  V30 14398 H 1327.83 -0.829641 -1.30216 0
M  V30 14399 H 1329.79 0.644798 -4.05404 0
M  V30 14400 H 1328.45 1.0526 -2.95938 0
M  V30 14401 H 1327.65 -0.107195 -5.03886 0
M  V30 14402 H 1327.25 -1.05609 -3.5878 0
M  V30 14403 H 1329.54 -0.698414 -6.73891 0
M  V30 14404 H 1330.48 -2.22254 -6.72316 0
M  V30 14405 H 1330.89 -0.917572 -5.56993 0
M  V30 14406 N 1330.29 1.35952 -0.797165 0
M  V30 14407 C 1331.54 1.98283 -0.369685 0
M  V30 14408 C 1331.85 1.63968 1.06649 0
M  V30 14409 O 1333.06 2.19591 1.59662 0
M  V30 14410 C 1331.51 3.54692 -0.610046 0
M  V30 14411 C 1331.12 3.97925 -2.05814 0
M  V30 14412 C 1332.87 4.23778 -0.247457 0
M  V30 14413 C 1330.77 5.47142 -2.24475 0
M  V30 14414 H 1329.7 0.741909 -0.134489 0
M  V30 14415 H 1332.35 1.55146 -0.979893 0
M  V30 14416 H 1330.74 3.95938 0.0699822 0
M  V30 14417 H 1331.91 3.67857 -2.77521 0
M  V30 14418 H 1330.23 3.417 -2.37971 0
M  V30 14419 H 1332.82 5.33452 -0.365059 0
M  V30 14420 H 1333.17 4.08436 0.805315 0
M  V30 14421 H 1333.7 3.87921 -0.881028 0
M  V30 14422 H 1330.44 5.67441 -3.28163 0
M  V30 14423 H 1329.96 5.78811 -1.57282 0
M  V30 14424 H 1331.64 6.13475 -2.05567 0
M  V30 14425 N 1331.77 0.549846 1.47697 0
M  V30 14426 C 1333.18 0.209085 1.58225 0
M  V30 14427 C 1333.38 -1.28823 1.54941 0
M  V30 14428 O 1332.44 -2.0679 1.44893 0
M  V30 14429 C 1333.75 0.829219 2.89041 0
M  V30 14430 C 1335.3 0.79977 3.0261 0
M  V30 14431 C 1335.78 1.39884 4.36115 0
M  V30 14432 N 1337.27 1.36169 4.42733 0
M  V30 14433 C 1338 1.79492 5.44583 0
M  V30 14434 N 1337.5 2.30637 6.53283 0
M  V30 14435 N 1339.29 1.70608 5.35583 0
M  V30 14436 H 1331.44 1.52275 1.48074 0
M  V30 14437 H 1333.71 0.634579 0.704283 0
M  V30 14438 H 1333.41 1.88122 2.97158 0
M  V30 14439 H 1333.29 0.317916 3.75858 0
M  V30 14440 H 1335.67 -0.243525 2.94093 0
M  V30 14441 H 1335.75 1.34875 2.17353 0
M  V30 14442 H 1335.4 2.44116 4.45387 0
M  V30 14443 H 1335.33 0.825362 5.20092 0
M  V30 14444 H 1337.82 0.987505 3.64769 0
M  V30 14445 H 1338.13 2.61637 7.27163 0
M  V30 14446 H 1336.48 2.34643 6.54192 0
M  V30 14447 H 1339.67 1.30434 4.4956 0
M  V30 14448 H 1339.84 2.0469 6.14822 0
M  V30 14449 N 1333.25 -1.54984 0.285932 0
M  V30 14450 C 1334.16 -2.26621 -0.606648 0
M  V30 14451 C 1335.17 -1.29595 -1.16108 0
M  V30 14452 O 1336.35 -1.62551 -1.18908 0
M  V30 14453 C 1333.41 -2.98156 -1.76929 0
M  V30 14454 C 1332.47 -4.10685 -1.25045 0
M  V30 14455 C 1331.71 -4.788 -2.35768 0
M  V30 14456 O 1331.93 -4.46183 -3.55354 0
M  V30 14457 O 1330.86 -5.66523 -2.03312 0
M  V30 14458 H 1334.69 -3.03689 -0.0259981 0
M  V30 14459 H 1332.28 -1.49306 0.0529355 0
M  V30 14460 H 1334.16 -3.43076 -2.44697 0
M  V30 14461 H 1332.83 -2.23996 -2.33683 0
M  V30 14462 H 1331.74 -3.70198 -0.538919 0
M  V30 14463 H 1333.07 -4.86778 -0.728528 0
M  V30 14464 N 1334.72 -0.0133892 -1.57594 0
M  V30 14465 C 1335.95 0.682855 -1.95836 0
M  V30 14466 C 1336.37 1.65763 -0.889049 0
M  V30 14467 O 1335.73 1.80665 0.151585 0
M  V30 14468 C 1335.78 1.37931 -3.33178 0
M  V30 14469 O 1334.88 2.49416 -3.28429 0
M  V30 14470 H 1334.23 0.180629 -0.638959 0
M  V30 14471 H 1336.76 -0.0705644 -2.04478 0
M  V30 14472 H 1336.77 1.73969 -3.69051 0
M  V30 14473 H 1335.44 0.664675 -4.10554 0
M  V30 14474 H 1334.02 2.15606 -3.04251 0
M  V30 14475 N 1336.2 1.55448 0.259558 0
M  V30 14476 C 1337.45 1.76337 0.987396 0
M  V30 14477 C 1337.77 0.57505 1.86328 0
M  V30 14478 O 1337.04 -0.409621 1.9157 0
M  V30 14479 H 1335.62 0.650312 0.367565 0
M  V30 14480 H 1338.28 1.9287 0.280551 0
M  V30 14481 H 1337.38 2.66975 1.61651 0
M  V30 14482 N 1337.68 -0.524672 1.4861 0
M  V30 14483 C 1338.61 -1.64481 1.59621 0
M  V30 14484 C 1339.63 -1.55557 0.480181 0
M  V30 14485 O 1340.81 -1.61921 0.751254 0
M  V30 14486 C 1337.91 -3.03158 1.51487 0
M  V30 14487 C 1337.09 -3.37509 2.78221 0
M  V30 14488 C 1336.15 -4.5549 2.63467 0
M  V30 14489 O 1335.17 -4.58448 3.37364 0
M  V30 14490 N 1336.37 -5.53986 1.73437 0
M  V30 14491 H 1339.14 -1.5547 2.56221 0
M  V30 14492 H 1336.7 -0.712059 1.45401 0
M  V30 14493 H 1338.69 -3.79969 1.39305 0
M  V30 14494 H 1337.26 -3.06219 0.628406 0
M  V30 14495 H 1336.48 -2.49824 3.04929 0
M  V30 14496 H 1337.77 -3.57246 3.62288 0
M  V30 14497 H 1337.17 -5.54378 1.12612 0
M  V30 14498 H 1335.73 -6.29993 1.6719 0
M  V30 14499 N 1339.16 -1.37287 -0.77395 0
M  V30 14500 C 1340.09 -1.35569 -1.90114 0
M  V30 14501 C 1341.07 -0.224658 -1.6861 0
M  V30 14502 O 1342.25 -0.424676 -1.895 0
M  V30 14503 C 1339.38 -1.15971 -3.27365 0
M  V30 14504 C 1338.34 -2.26063 -3.63427 0
M  V30 14505 C 1337.66 -1.9159 -4.99197 0
M  V30 14506 C 1338.96 -3.68236 -3.70405 0
M  V30 14507 H 1340.66 -2.29891 -1.91808 0
M  V30 14508 H 1338.2 -1.10661 -0.92142 0
M  V30 14509 H 1340.16 -1.134 -4.05855 0
M  V30 14510 H 1338.88 -0.181043 -3.26098 0
M  V30 14511 H 1337.54 -2.27786 -2.87244 0
M  V30 14512 H 1337.19 -0.922586 -4.94467 0
M  V30 14513 H 1336.89 -2.65309 -5.24294 0
M  V30 14514 H 1338.41 -1.90602 -5.80089 0
M  V30 14515 H 1339.83 -3.68655 -4.39052 0
M  V30 14516 H 1338.22 -4.4099 -4.06999 0
M  V30 14517 H 1339.29 -4.02021 -2.71122 0
M  V30 14518 N 1340.64 0.999871 -1.21821 0
M  V30 14519 C 1341.88 1.7384 -1.03855 0
M  V30 14520 C 1342.21 1.89749 0.42727 0
M  V30 14521 O 1341.47 1.43261 1.33323 0
M  V30 14522 C 1341.77 3.1509 -1.6868 0
M  V30 14523 C 1341.43 3.19115 -3.18554 0
M  V30 14524 C 1340.09 3.19921 -3.5945 0
M  V30 14525 C 1342.45 3.15954 -4.14515 0
M  V30 14526 C 1339.77 3.15257 -4.94803 0
M  V30 14527 C 1342.13 3.12831 -5.49836 0
M  V30 14528 C 1340.79 3.11949 -5.90122 0
M  V30 14529 H 1340.06 0.636126 -0.380032 0
M  V30 14530 H 1342.71 1.17151 -1.51485 0
M  V30 14531 H 1341.01 3.75044 -1.13356 0
M  V30 14532 H 1342.71 3.70962 -1.52277 0
M  V30 14533 H 1339.3 3.19234 -2.85986 0
M  V30 14534 H 1343.48 3.14487 -3.83942 0
M  V30 14535 H 1338.74 3.12915 -5.25256 0
M  V30 14536 H 1342.91 3.09339 -6.23925 0
M  V30 14537 H 1340.54 3.0809 -6.94971 0
M  V30 14538 N 1342.11 1.02678 1.19562 0
M  V30 14539 C 1343.06 0.576385 2.20594 0
M  V30 14540 C 1344.05 -0.373747 1.56499 0
M  V30 14541 O 1345.24 -0.195058 1.75922 0
M  V30 14542 C 1342.37 -0.0735507 3.43221 0
M  V30 14543 C 1341.46 0.898896 4.14464 0
M  V30 14544 N 1341.85 2.06048 4.61928 0
M  V30 14545 C 1340.14 0.721889 4.40119 0
M  V30 14546 C 1340.85 2.67364 5.16615 0
M  V30 14547 N 1339.82 1.95344 5.07289 0
M  V30 14548 H 1343.62 1.46179 2.54968 0
M  V30 14549 H 1341.14 0.893484 1.35612 0
M  V30 14550 H 1343.13 -0.413825 4.14841 0
M  V30 14551 H 1341.79 -0.954671 3.10348 0
M  V30 14552 H 1342.81 2.43999 4.5682 0
M  V30 14553 H 1339.48 -0.110317 4.17354 0
M  V30 14554 H 1340.87 3.65726 5.63644 0
M  V30 14555 N 1343.59 -1.35528 0.804364 0
M  V30 14556 C 1344.84 -1.98084 0.380196 0
M  V30 14557 C 1345.15 -1.64531 -1.05778 0
M  V30 14558 O 1346.36 -2.20435 -1.58495 0
M  V30 14559 C 1344.82 -3.54364 0.628848 0
M  V30 14560 C 1344.42 -3.96828 2.07921 0
M  V30 14561 C 1346.17 -4.23641 0.269927 0
M  V30 14562 C 1344.08 -5.45944 2.27374 0
M  V30 14563 H 1343.01 -0.741185 0.138422 0
M  V30 14564 H 1345.66 -1.54624 0.988107 0
M  V30 14565 H 1344.04 -3.9597 -0.0489837 0
M  V30 14566 H 1345.21 -3.6638 2.79467 0
M  V30 14567 H 1343.53 -3.40433 2.39779 0
M  V30 14568 H 1346.12 -5.33251 0.393344 0
M  V30 14569 H 1346.47 -4.08858 -0.783644 0
M  V30 14570 H 1347 -3.87448 0.901588 0
M  V30 14571 H 1343.74 -5.65693 3.31168 0
M  V30 14572 H 1343.26 -5.77969 1.6035 0
M  V30 14573 H 1344.94 -6.12376 2.08817 0
M  V30 14574 N 1345.07 -0.557671 -1.47404 0
M  V30 14575 C 1346.35 0.031908 -1.95574 0
M  V30 14576 C 1346.73 1.48509 -1.50027 0
M  V30 14577 O 1346.08 2.16209 -0.73932 0
M  V30 14578 C 1346.29 -0.114055 -3.48814 0
M  V30 14579 C 1347.63 0.0310533 -4.24589 0
M  V30 14580 O 1348.66 -0.041626 -3.56176 0
M  V30 14581 O 1347.52 0.187487 -5.46178 0
M  V30 14582 H 1344.61 0.0638747 -0.82453 0
M  V30 14583 H 1347.16 -0.624227 -1.57802 0
M  V30 14584 H 1345.93 -1.12525 -3.74772 0
M  V30 14585 H 1345.55 0.57967 -3.93352 0
M  V30 14586 N 1346.55 1.54831 -0.294147 0
M  V30 14587 C 1347.8 2.00001 0.317135 0
M  V30 14588 C 1348.12 1.18256 1.54421 0
M  V30 14589 O 1347.38 0.245035 1.9416 0
M  V30 14590 C 1347.68 3.4997 0.72495 0
M  V30 14591 C 1347.34 4.49126 -0.399616 0
M  V30 14592 C 1346.01 4.75958 -0.708354 0
M  V30 14593 C 1348.36 5.08208 -1.15644 0
M  V30 14594 C 1345.69 5.59137 -1.77716 0
M  V30 14595 C 1348.04 5.9255 -2.21512 0
M  V30 14596 C 1346.7 6.17695 -2.52999 0
M  V30 14597 H 1345.97 0.731856 0.116048 0
M  V30 14598 H 1348.62 1.87019 -0.41182 0
M  V30 14599 H 1346.92 3.60526 1.53388 0
M  V30 14600 H 1348.62 3.82341 1.20898 0
M  V30 14601 H 1345.21 4.28341 -0.148877 0
M  V30 14602 H 1349.4 4.87486 -0.931178 0
M  V30 14603 H 1344.65 5.76859 -2.02592 0
M  V30 14604 H 1348.83 6.37359 -2.80617 0
M  V30 14605 H 1346.45 6.81939 -3.35951 0
M  V30 14606 N 1348.03 0.0217466 1.57585 0
M  V30 14607 C 1349.28 -0.657187 1.91116 0
M  V30 14608 C 1349.6 -1.7309 0.898039 0
M  V30 14609 O 1348.87 -1.95803 -0.0615116 0
M  V30 14610 H 1347.45 -0.245732 0.705425 0
M  V30 14611 H 1350.11 0.0678096 1.94782 0
M  V30 14612 H 1349.2 -1.11462 2.91518 0
M  V30 14613 N 1349.51 -1.55583 -0.251311 0
M  V30 14614 C 1350.46 -1.86337 -1.31387 0
M  V30 14615 C 1351.44 -0.723887 -1.43697 0
M  V30 14616 O 1352.63 -0.985717 -1.47012 0
M  V30 14617 C 1349.76 -2.15772 -2.67016 0
M  V30 14618 C 1348.85 -3.36036 -2.58729 0
M  V30 14619 N 1349.24 -4.55414 -2.20071 0
M  V30 14620 C 1347.54 -3.39058 -2.89751 0
M  V30 14621 C 1348.24 -5.37544 -2.22309 0
M  V30 14622 N 1347.21 -4.76494 -2.61638 0
M  V30 14623 H 1351.01 -2.76168 -1.00541 0
M  V30 14624 H 1348.53 -1.55751 -0.459941 0
M  V30 14625 H 1350.53 -2.35967 -3.43693 0
M  V30 14626 H 1349.19 -1.27237 -2.98732 0
M  V30 14627 H 1350.2 -4.8112 -1.91688 0
M  V30 14628 H 1346.87 -2.60781 -3.26036 0
M  V30 14629 H 1348.26 -6.43042 -1.94798 0
M  V30 14630 N 1350.98 0.516783 -1.48886 0
M  V30 14631 C 1352.23 1.27187 -1.57574 0
M  V30 14632 C 1352.56 1.92815 -0.255432 0
M  V30 14633 O 1351.81 1.80533 0.755403 0
M  V30 14634 C 1352.11 2.37296 -2.67256 0
M  V30 14635 C 1351.78 1.89232 -4.0927 0
M  V30 14636 C 1350.44 1.75842 -4.47921 0
M  V30 14637 C 1352.79 1.53073 -4.98215 0
M  V30 14638 C 1350.12 1.24648 -5.73306 0
M  V30 14639 C 1352.47 1.03337 -6.24103 0
M  V30 14640 C 1351.14 0.885744 -6.61597 0
M  V30 14641 H 1350.41 0.46541 -0.576606 0
M  V30 14642 H 1353.05 0.575223 -1.82657 0
M  V30 14643 H 1351.36 3.12685 -2.36084 0
M  V30 14644 H 1353.06 2.95393 -2.7119 0
M  V30 14645 H 1349.65 2.00608 -3.78754 0
M  V30 14646 H 1353.83 1.62272 -4.69022 0
M  V30 14647 H 1349.09 1.11917 -6.0107 0
M  V30 14648 H 1353.26 0.744338 -6.92411 0
M  V30 14649 H 1350.89 0.486866 -7.58639 0
M  V30 14650 N 1352.46 1.37696 0.766659 0
M  V30 14651 C 1353.39 1.36576 1.89392 0
M  V30 14652 C 1354.37 0.233597 1.68488 0
M  V30 14653 O 1355.56 0.434719 1.89272 0
M  V30 14654 C 1352.69 1.17705 3.26746 0
M  V30 14655 C 1351.64 2.27987 3.62224 0
M  V30 14656 C 1350.97 1.94235 4.98174 0
M  V30 14657 C 1352.27 3.70195 3.68447 0
M  V30 14658 H 1353.96 2.30905 1.90587 0
M  V30 14659 H 1351.51 1.11148 0.915538 0
M  V30 14660 H 1353.46 1.15551 4.05248 0
M  V30 14661 H 1352.18 0.198334 3.25997 0
M  V30 14662 H 1350.84 2.29306 2.86032 0
M  V30 14663 H 1350.49 0.948796 4.93971 0
M  V30 14664 H 1350.19 2.68086 5.2288 0
M  V30 14665 H 1351.72 1.93676 5.7907 0
M  V30 14666 H 1353.13 3.70978 4.37091 0
M  V30 14667 H 1351.53 4.43142 4.04654 0
M  V30 14668 H 1352.6 4.03453 2.68986 0
M  V30 14669 N 1353.94 -0.993397 1.22349 0
M  V30 14670 C 1355.19 -1.72945 1.04568 0
M  V30 14671 C 1355.51 -1.90419 -0.420178 0
M  V30 14672 O 1354.78 -1.46348 -1.30227 0
M  V30 14673 H 1353.36 -0.640777 0.383945 0
M  V30 14674 H 1356.02 -1.19647 1.53853 0
M  V30 14675 H 1355.12 -2.72411 1.52311 0
M  V30 14676 N 1355.42 -1.03311 -1.19015 0
M  V30 14677 C 1356.37 -0.611169 -2.24427 0
M  V30 14678 C 1357.36 0.358303 -1.65567 0
M  V30 14679 O 1358.57 0.22642 -1.7857 0
M  V30 14680 H 1354.94 -0.179393 -0.730289 0
M  V30 14681 H 1356.91 -1.51077 -2.57329 0
M  V30 14682 C 1355.66 0.0178126 -3.47695 0
M  V30 14683 H 1354.98 -0.71921 -3.93278 0
M  V30 14684 H 1356.42 0.275926 -4.23101 0
M  V30 14685 C 1354.88 1.26564 -3.12223 0
M  V30 14686 O 1355.41 2.35725 -3.25264 0
M  V30 14687 N 1353.62 1.15602 -2.66617 0
M  V30 14688 H 1353.17 0.267736 -2.56205 0
M  V30 14689 H 1353.12 1.99186 -2.43254 0
M  V30 14690 N 1356.9 1.35099 -0.81154 0
M  V30 14691 C 1358.14 1.98625 -0.394231 0
M  V30 14692 C 1358.47 1.6437 1.03985 0
M  V30 14693 O 1357.73 0.901496 1.737 0
M  V30 14694 C 1358.02 3.53444 -0.530322 0
M  V30 14695 C 1357.69 4.0758 -1.92844 0
M  V30 14696 C 1356.35 4.22077 -2.31094 0
M  V30 14697 C 1358.7 4.36838 -2.84292 0
M  V30 14698 C 1356.03 4.63153 -3.60148 0
M  V30 14699 C 1358.38 4.79355 -4.12798 0
M  V30 14700 C 1357.05 4.92057 -4.51039 0
M  V30 14701 H 1356.32 0.726822 -0.144259 0
M  V30 14702 H 1358.97 1.61231 -1.03329 0
M  V30 14703 H 1357.27 3.91328 0.192166 0
M  V30 14704 H 1358.97 4.00558 -0.188134 0
M  V30 14705 H 1355.56 3.96752 -1.62129 0
M  V30 14706 H 1359.74 4.25187 -2.55988 0
M  V30 14707 H 1355 4.71176 -3.89619 0
M  V30 14708 H 1359.17 5.00954 -4.83754 0
M  V30 14709 H 1356.8 5.23643 -5.51092 0
M  V30 14710 N 1358.37 0.56548 1.47106 0
M  V30 14711 C 1359.32 -0.177564 2.30116 0
M  V30 14712 C 1360.29 -0.900534 1.39569 0
M  V30 14713 O 1361.48 -0.894603 1.68527 0
M  V30 14714 C 1358.62 -1.19633 3.237 0
M  V30 14715 C 1357.73 -0.47858 4.29341 0
M  V30 14716 C 1356.86 -1.48336 5.10068 0
M  V30 14717 C 1355.9 -0.751049 6.07475 0
M  V30 14718 N 1355.04 -1.70306 6.81132 0
M  V30 14719 H 1359.88 0.536409 2.93132 0
M  V30 14720 H 1357.42 0.276352 1.44481 0
M  V30 14721 H 1359.37 -1.79967 3.76388 0
M  V30 14722 H 1358 -1.87823 2.6253 0
M  V30 14723 H 1357.06 0.239454 3.79646 0
M  V30 14724 H 1358.37 0.0947147 4.9871 0
M  V30 14725 H 1357.52 -2.16 5.66947 0
M  V30 14726 H 1356.26 -2.09058 4.4062 0
M  V30 14727 H 1355.27 -0.0605336 5.49767 0
M  V30 14728 H 1356.49 -0.14946 6.78936 0
M  V30 14729 H 1354.44 -2.2987 6.14407 0
M  V30 14730 H 1354.35 -1.18213 7.46701 0
M  V30 14731 H 1355.62 -2.37058 7.42579 0
M  V30 14732 N 1359.85 -1.54672 0.302354 0
M  V30 14733 C 1361.08 -2.04578 -0.309093 0
M  V30 14734 C 1361.5 -1.17957 -1.47416 0
M  V30 14735 O 1360.85 -0.2055 -1.81339 0
M  V30 14736 C 1360.9 -3.53334 -0.764023 0
M  V30 14737 O 1360.62 -4.36662 0.354674 0
M  V30 14738 C 1362.13 -4.19243 -1.44048 0
M  V30 14739 H 1359.35 -0.667651 -0.0669575 0
M  V30 14740 H 1361.89 -1.99658 0.442379 0
M  V30 14741 H 1360.04 -3.5861 -1.46552 0
M  V30 14742 H 1360.46 -5.245 0.000241188 0
M  V30 14743 H 1361.93 -5.24847 -1.70995 0
M  V30 14744 H 1362.41 -3.69061 -2.38098 0
M  V30 14745 H 1363.02 -4.18046 -0.782132 0
M  V30 14746 N 1361.33 -0.0301034 -1.57571 0
M  V30 14747 C 1362.28 0.951421 -2.10277 0
M  V30 14748 C 1363.25 1.3224 -1.00508 0
M  V30 14749 O 1364.43 1.41554 -1.27934 0
M  V30 14750 C 1361.57 2.2282 -2.63525 0
M  V30 14751 C 1360.69 1.91359 -3.87306 0
M  V30 14752 C 1359.82 3.13339 -4.28943 0
M  V30 14753 C 1358.86 2.77701 -5.4548 0
M  V30 14754 N 1358 3.9231 -5.82269 0
M  V30 14755 H 1362.84 0.495049 -2.93859 0
M  V30 14756 H 1360.37 0.232756 -1.45247 0
M  V30 14757 H 1362.33 2.97502 -2.92487 0
M  V30 14758 H 1360.96 2.66072 -1.82772 0
M  V30 14759 H 1360.01 1.06915 -3.65066 0
M  V30 14760 H 1361.33 1.61112 -4.72064 0
M  V30 14761 H 1360.48 3.9634 -4.59347 0
M  V30 14762 H 1359.22 3.46747 -3.42954 0
M  V30 14763 H 1358.22 1.93113 -5.14769 0
M  V30 14764 H 1359.45 2.45508 -6.33169 0
M  V30 14765 H 1357.39 4.25559 -4.99235 0
M  V30 14766 H 1357.31 3.65691 -6.61669 0
M  V30 14767 H 1358.58 4.76012 -6.17279 0
M  V30 14768 N 1362.81 1.55714 0.243056 0
M  V30 14769 C 1364.06 1.77726 0.970555 0
M  V30 14770 C 1364.38 0.595108 1.85172 0
M  V30 14771 O 1363.64 -0.42143 1.91108 0
M  V30 14772 C 1363.94 3.05281 1.85845 0
M  V30 14773 C 1363.6 4.36451 1.13232 0
M  V30 14774 C 1362.27 4.72095 0.931656 0
M  V30 14775 C 1364.62 5.17524 0.617944 0
M  V30 14776 C 1361.95 5.86344 0.204373 0
M  V30 14777 C 1364.3 6.32527 -0.0958899 0
M  V30 14778 C 1362.96 6.66789 -0.308 0
M  V30 14779 H 1362.23 0.650345 0.355151 0
M  V30 14780 H 1364.88 1.89986 0.240351 0
M  V30 14781 H 1363.18 2.8805 2.65584 0
M  V30 14782 H 1364.88 3.19511 2.4231 0
M  V30 14783 H 1361.47 4.08451 1.29867 0
M  V30 14784 H 1365.65 4.90439 0.760507 0
M  V30 14785 H 1360.91 6.11393 0.0296 0
M  V30 14786 H 1365.08 6.94588 -0.502077 0
M  V30 14787 H 1362.71 7.55165 -0.873502 0
M  V30 14788 N 1364.29 -0.50888 1.49158 0
M  V30 14789 C 1365.53 -1.261 1.57934 0
M  V30 14790 C 1365.86 -1.93199 0.264405 0
M  V30 14791 O 1365.13 -1.82359 -0.715684 0
M  V30 14792 H 1363.71 -0.468421 0.581886 0
M  V30 14793 H 1366.37 -0.590447 1.85741 0
M  V30 14794 H 1365.46 -2.02913 2.37135 0
M  V30 14795 N 1365.76 -1.381 -0.759346 0
M  V30 14796 C 1367.01 -1.33311 -1.51364 0
M  V30 14797 C 1367.33 0.0761325 -1.95452 0
M  V30 14798 O 1368.53 0.246541 -2.70378 0
M  V30 14799 C 1366.99 -2.34067 -2.73387 0
M  V30 14800 C 1366.6 -3.80583 -2.36348 0
M  V30 14801 C 1368.34 -2.38311 -3.51295 0
M  V30 14802 C 1366.25 -4.73039 -3.54948 0
M  V30 14803 H 1365.18 -0.495512 -0.568317 0
M  V30 14804 H 1367.83 -1.63625 -0.830602 0
M  V30 14805 H 1366.21 -1.96788 -3.43643 0
M  V30 14806 H 1367.38 -4.26769 -1.73796 0
M  V30 14807 H 1365.7 -3.79403 -1.71587 0
M  V30 14808 H 1368.3 -3.04586 -4.39467 0
M  V30 14809 H 1368.64 -1.40034 -3.92041 0
M  V30 14810 H 1369.17 -2.74361 -2.88047 0
M  V30 14811 H 1365.91 -5.7249 -3.19273 0
M  V30 14812 H 1365.43 -4.3155 -4.16563 0
M  V30 14813 H 1367.11 -4.90775 -4.21603 0
M  V30 14814 N 1367.24 0.986894 -1.22875 0
M  V30 14815 C 1368.19 2.09935 -1.00151 0
M  V30 14816 C 1369.18 1.69303 0.0573751 0
M  V30 14817 O 1370.39 1.79746 -0.0955781 0
M  V30 14818 H 1366.77 0.686605 -0.306721 0
M  V30 14819 H 1368.74 2.26271 -1.94535 0
M  V30 14820 C 1367.49 3.42442 -0.602374 0
M  V30 14821 H 1366.81 3.74154 -1.40886 0
M  V30 14822 H 1368.25 4.21242 -0.482836 0
M  V30 14823 C 1366.71 3.29785 0.688707 0
M  V30 14824 O 1367.24 3.6208 1.73957 0
M  V30 14825 N 1365.44 2.82956 0.662152 0
M  V30 14826 H 1364.99 2.56873 -0.193337 0
M  V30 14827 H 1364.95 2.74869 1.52625 0
M  V30 14828 N 1368.72 1.0394 1.18466 0
M  V30 14829 C 1370.14 0.758404 1.40429 0
M  V30 14830 C 1370.34 -0.652603 1.90639 0
M  V30 14831 O 1369.39 -1.417 2.08991 0
M  V30 14832 C 1370.71 1.80343 2.40618 0
M  V30 14833 C 1372.25 1.82419 2.54347 0
M  V30 14834 C 1372.73 2.8591 3.57798 0
M  V30 14835 N 1374.22 2.84793 3.65304 0
M  V30 14836 C 1374.95 3.61521 4.45073 0
M  V30 14837 N 1374.45 4.47997 5.28461 0
M  V30 14838 N 1376.24 3.50016 4.39824 0
M  V30 14839 H 1368.39 1.94998 0.842 0
M  V30 14840 H 1370.66 0.843649 0.43239 0
M  V30 14841 H 1370.36 2.81547 2.10771 0
M  V30 14842 H 1370.24 1.63451 3.39947 0
M  V30 14843 H 1372.62 0.818872 2.83511 0
M  V30 14844 H 1372.71 2.03388 1.55136 0
M  V30 14845 H 1372.35 3.8662 3.29375 0
M  V30 14846 H 1372.28 2.62196 4.56684 0
M  V30 14847 H 1374.77 2.22082 3.05758 0
M  V30 14848 H 1375.08 5.03257 5.86475 0
M  V30 14849 H 1373.43 4.52065 5.27885 0
M  V30 14850 H 1376.62 2.81862 3.73726 0
M  V30 14851 H 1376.79 4.10063 5.0175 0
M  V30 14852 N 1370.2 -1.34667 0.818693 0
M  V30 14853 C 1371.11 -2.33375 0.239429 0
M  V30 14854 C 1372.12 -1.62428 -0.623957 0
M  V30 14855 O 1373.3 -1.94223 -0.532854 0
M  V30 14856 C 1370.37 -3.41598 -0.59258 0
M  V30 14857 C 1369.43 -4.28301 0.292712 0
M  V30 14858 C 1368.66 -5.31356 -0.499682 0
M  V30 14859 O 1368.88 -5.43426 -1.73334 0
M  V30 14860 O 1367.82 -6.01789 0.115778 0
M  V30 14861 H 1371.64 -2.84738 1.05631 0
M  V30 14862 H 1369.23 -1.37651 0.58074 0
M  V30 14863 H 1371.11 -4.07692 -1.06607 0
M  V30 14864 H 1369.78 -2.92486 -1.38685 0
M  V30 14865 H 1368.69 -3.65145 0.81361 0
M  V30 14866 H 1370.02 -4.80843 1.05123 0
M  V30 14867 N 1371.68 -0.573274 -1.46804 0
M  V30 14868 C 1373.09 -0.23423 -1.57872 0
M  V30 14869 C 1373.29 1.26342 -1.56971 0
M  V30 14870 O 1372.35 2.04459 -1.48165 0
M  V30 14871 C 1373.66 -0.875097 -2.87685 0
M  V30 14872 C 1375.21 -0.847812 -3.01299 0
M  V30 14873 C 1375.68 -1.46804 -4.33835 0
M  V30 14874 N 1377.18 -1.43196 -4.4051 0
M  V30 14875 C 1377.91 -1.88133 -5.41658 0
M  V30 14876 N 1377.41 -2.41001 -6.49531 0
M  V30 14877 N 1379.2 -1.79107 -5.32801 0
M  V30 14878 H 1371.35 -1.54612 -1.45633 0
M  V30 14879 H 1373.61 -0.645703 -0.694098 0
M  V30 14880 H 1373.32 -1.92826 -2.94127 0
M  V30 14881 H 1373.19 -0.377671 -3.75305 0
M  V30 14882 H 1375.58 0.196707 -2.94444 0
M  V30 14883 H 1375.66 -1.38316 -2.1518 0
M  V30 14884 H 1375.31 -2.51171 -4.41447 0
M  V30 14885 H 1375.24 -0.908 -5.18713 0
M  V30 14886 H 1377.73 -1.04541 -3.63152 0
M  V30 14887 H 1378.04 -2.73172 -7.22908 0
M  V30 14888 H 1376.38 -2.45021 -6.50377 0
M  V30 14889 H 1379.58 -1.37569 -4.47429 0
M  V30 14890 H 1379.75 -2.14445 -6.11488 0
M  V30 14891 N 1373.15 1.5451 -0.310553 0
M  V30 14892 C 1374.4 2.00623 0.296343 0
M  V30 14893 C 1374.73 1.19855 1.52802 0
M  V30 14894 O 1374.01 0.277468 1.92511 0
M  V30 14895 C 1374.29 3.54305 0.643448 0
M  V30 14896 C 1374.14 4.45807 -0.598029 0
M  V30 14897 C 1375.46 4.14958 1.46623 0
M  V30 14898 H 1372.58 0.729303 0.106236 0
M  V30 14899 H 1375.22 1.85196 -0.424549 0
M  V30 14900 H 1373.37 3.67581 1.25762 0
M  V30 14901 H 1375.05 4.44421 -1.23643 0
M  V30 14902 H 1373.29 4.16014 -1.22944 0
M  V30 14903 H 1373.96 5.51124 -0.310883 0
M  V30 14904 H 1376.44 4.05176 0.947199 0
M  V30 14905 H 1375.31 5.22627 1.67787 0
M  V30 14906 H 1375.57 3.67445 2.45839 0
M  V30 14907 N 1374.63 0.0384594 1.57553 0
M  V30 14908 C 1376.04 -0.499057 1.79906 0
M  V30 14909 C 1376.4 -1.7169 0.949577 0
M  V30 14910 O 1375.52 -2.15788 0.162584 0
M  V30 14911 C 1376.12 -0.912155 3.2629 0
M  V30 14912 C 1374.67 -1.39473 3.49606 0
M  V30 14913 C 1373.82 -0.363859 2.74902 0
M  V30 14914 H 1376.77 0.264433 1.56481 0
M  V30 14915 H 1376.79 -1.77592 3.36513 0
M  V30 14916 H 1376.31 -0.0255928 3.88092 0
M  V30 14917 H 1374.41 -2.3009 2.93068 0
M  V30 14918 H 1374.52 -1.39566 4.58321 0
M  V30 14919 H 1372.88 -0.833993 2.40659 0
M  V30 14920 H 1373.67 0.514398 3.39424 0
M  V30 14921 N 1376.11 -1.55841 -0.234795 0
M  V30 14922 C 1377.36 -1.78238 -0.961116 0
M  V30 14923 C 1377.69 -0.604919 -1.84854 0
M  V30 14924 O 1376.94 0.411289 -1.91329 0
M  V30 14925 C 1377.24 -3.06262 -1.84223 0
M  V30 14926 C 1376.91 -4.37045 -1.10916 0
M  V30 14927 C 1375.57 -4.72582 -0.906606 0
M  V30 14928 C 1377.92 -5.17844 -0.59049 0
M  V30 14929 C 1375.25 -5.86444 -0.173275 0
M  V30 14930 C 1377.6 -6.32468 0.129433 0
M  V30 14931 C 1376.26 -6.66616 0.343357 0
M  V30 14932 H 1375.53 -0.652219 -0.351697 0
M  V30 14933 H 1378.18 -1.9011 -0.230272 0
M  V30 14934 H 1376.49 -2.89454 -2.64052 0
M  V30 14935 H 1378.18 -3.20791 -2.40612 0
M  V30 14936 H 1374.77 -4.09134 -1.27699 0
M  V30 14937 H 1378.96 -4.90835 -0.734487 0
M  V30 14938 H 1374.21 -6.114 0.00282409 0
M  V30 14939 H 1378.39 -6.94312 0.538905 0
M  V30 14940 H 1376.01 -7.54691 0.913538 0
M  V30 14941 N 1377.59 0.500963 -1.49426 0
M  V30 14942 C 1378.84 1.25171 -1.58162 0
M  V30 14943 C 1379.15 1.93678 -0.273556 0
M  V30 14944 O 1380.36 2.70442 -0.239462 0
M  V30 14945 C 1378.81 2.27276 -2.79059 0
M  V30 14946 C 1378.42 1.64708 -4.16624 0
M  V30 14947 C 1380.17 3.03178 -2.97125 0
M  V30 14948 C 1378.07 2.64923 -5.28743 0
M  V30 14949 H 1377 0.470867 -0.588897 0
M  V30 14950 H 1379.65 0.525569 -1.75812 0
M  V30 14951 H 1378.04 3.03052 -2.54903 0
M  V30 14952 H 1379.21 0.949231 -4.50917 0
M  V30 14953 H 1377.52 1.01195 -4.03916 0
M  V30 14954 H 1380.12 3.78122 -3.78058 0
M  V30 14955 H 1380.46 3.60793 -2.07687 0
M  V30 14956 H 1381 2.34517 -3.2132 0
M  V30 14957 H 1377.74 2.12089 -6.20241 0
M  V30 14958 H 1377.26 3.32948 -4.98904 0
M  V30 14959 H 1378.94 3.27349 -5.58079 0
M  V30 14960 N 1379.07 1.38501 0.752011 0
M  V30 14961 C 1380 1.38577 1.87933 0
M  V30 14962 C 1380.98 0.251454 1.68231 0
M  V30 14963 O 1382.16 0.45477 1.888 0
M  V30 14964 C 1379.29 1.21164 3.25479 0
M  V30 14965 C 1378.25 2.31816 3.59785 0
M  V30 14966 C 1377.57 1.99508 4.96085 0
M  V30 14967 C 1378.87 3.74082 3.645 0
M  V30 14968 H 1380.57 2.32913 1.88127 0
M  V30 14969 H 1378.11 1.12113 0.903698 0
M  V30 14970 H 1380.07 1.19842 4.04 0
M  V30 14971 H 1378.79 0.232899 3.25769 0
M  V30 14972 H 1377.45 2.32327 2.83584 0
M  V30 14973 H 1377.1 1.00114 4.92936 0
M  V30 14974 H 1376.8 2.73617 5.20007 0
M  V30 14975 H 1378.32 1.99807 5.76983 0
M  V30 14976 H 1379.74 3.75593 4.33131 0
M  V30 14977 H 1378.13 4.47409 3.99931 0
M  V30 14978 H 1379.2 4.06284 2.64692 0
M  V30 14979 N 1380.55 -0.980364 1.23396 0
M  V30 14980 C 1381.77 -1.75689 1.09275 0
M  V30 14981 C 1382.19 -1.85418 -0.355773 0
M  V30 14982 O 1381.55 -1.33337 -1.24609 0
M  V30 14983 C 1381.6 -3.18378 1.71223 0
M  V30 14984 O 1381.32 -3.09154 3.10411 0
M  V30 14985 C 1382.82 -4.12425 1.62545 0
M  V30 14986 H 1380.04 -0.551354 0.382427 0
M  V30 14987 H 1382.58 -1.23169 1.63247 0
M  V30 14988 H 1380.74 -3.67925 1.21285 0
M  V30 14989 H 1381.15 -3.9898 3.40464 0
M  V30 14990 H 1382.63 -5.1025 2.10592 0
M  V30 14991 H 1383.1 -4.35296 0.584275 0
M  V30 14992 H 1383.71 -3.68782 2.1185 0
M  V30 14993 N 1382.02 -1.04567 -1.17913 0
M  V30 14994 C 1383.25 -0.771084 -1.91671 0
M  V30 14995 C 1383.66 0.676261 -1.76701 0
M  V30 14996 O 1383 1.47314 -1.09746 0
M  V30 14997 C 1383.07 -1.06406 -3.43392 0
M  V30 14998 C 1382.73 -2.50632 -3.82142 0
M  V30 14999 C 1383.73 -3.48825 -3.85509 0
M  V30 15000 C 1381.41 -2.85476 -4.1329 0
M  V30 15001 C 1383.41 -4.79909 -4.19483 0
M  V30 15002 C 1381.09 -4.16766 -4.46934 0
M  V30 15003 C 1382.09 -5.13793 -4.50007 0
M  V30 15004 O 1381.78 -6.42728 -4.82862 0
M  V30 15005 H 1381.51 -0.280258 -0.615168 0
M  V30 15006 H 1384.07 -1.39781 -1.50501 0
M  V30 15007 H 1382.3 -0.380221 -3.84826 0
M  V30 15008 H 1383.98 -0.776475 -3.98404 0
M  V30 15009 H 1384.75 -3.23245 -3.61577 0
M  V30 15010 H 1380.63 -2.10621 -4.10073 0
M  V30 15011 H 1384.17 -5.55638 -4.21796 0
M  V30 15012 H 1380.07 -4.42111 -4.70328 0
M  V30 15013 H 1380.84 -6.47454 -5.00744 0
M  V30 15014 N 1383.5 1.34231 -0.825823 0
M  V30 15015 C 1384.78 1.92662 -0.337743 0
M  V30 15016 C 1385.16 1.75358 1.17529 0
M  V30 15017 O 1384.51 1.13405 1.98372 0
M  V30 15018 C 1384.72 3.40394 -0.770269 0
M  V30 15019 C 1386.06 4.17546 -0.770767 0
M  V30 15020 O 1387.09 3.4899 -0.713035 0
M  V30 15021 O 1385.95 5.39903 -0.846602 0
M  V30 15022 H 1383.04 0.821768 -0.0928741 0
M  V30 15023 H 1385.59 1.43187 -0.910807 0
M  V30 15024 H 1384.36 3.46802 -1.81228 0
M  V30 15025 H 1383.98 3.97223 -0.17306 0
M  V30 15026 N 1384.98 0.581051 1.46498 0
M  V30 15027 C 1386.23 0.0659956 2.02392 0
M  V30 15028 C 1386.55 -1.29329 1.45273 0
M  V30 15029 O 1385.81 -1.86047 0.607041 0
M  V30 15030 C 1386.11 -0.0514774 3.57363 0
M  V30 15031 C 1385.77 1.24 4.33514 0
M  V30 15032 C 1384.44 1.59383 4.54038 0
M  V30 15033 C 1386.79 2.09473 4.77253 0
M  V30 15034 C 1384.12 2.8004 5.15552 0
M  V30 15035 C 1386.47 3.29355 5.401 0
M  V30 15036 C 1385.13 3.65022 5.58852 0
M  V30 15037 H 1384.4 0.0241495 0.740606 0
M  V30 15038 H 1387.05 0.757354 1.75887 0
M  V30 15039 H 1385.35 -0.825955 3.82995 0
M  V30 15040 H 1387.05 -0.465726 3.98286 0
M  V30 15041 H 1383.64 0.954547 4.17835 0
M  V30 15042 H 1387.83 1.83441 4.61154 0
M  V30 15043 H 1383.08 3.07814 5.28262 0
M  V30 15044 H 1387.26 3.95855 5.7295 0
M  V30 15045 H 1384.88 4.58607 6.06287 0
M  V30 15046 N 1386.46 -1.54343 0.318742 0
M  V30 15047 C 1387.7 -2.00777 -0.285699 0
M  V30 15048 C 1388.04 -1.20664 -1.52164 0
M  V30 15049 O 1387.31 -0.287674 -1.92361 0
M  V30 15050 C 1387.59 -3.54641 -0.624649 0
M  V30 15051 C 1387.45 -4.45483 0.621663 0
M  V30 15052 C 1388.77 -4.15729 -1.4442 0
M  V30 15053 H 1385.89 -0.729856 -0.102367 0
M  V30 15054 H 1388.53 -1.84968 0.434364 0
M  V30 15055 H 1386.68 -3.68243 -1.23811 0
M  V30 15056 H 1388.35 -4.43759 1.25998 0
M  V30 15057 H 1386.59 -4.15356 1.25148 0
M  V30 15058 H 1387.26 -5.50951 0.340106 0
M  V30 15059 H 1389.74 -4.05672 -0.925699 0
M  V30 15060 H 1388.62 -5.23509 -1.65013 0
M  V30 15061 H 1388.88 -3.68743 -2.43887 0
M  V30 15062 N 1387.94 -0.0468143 -1.5753 0
M  V30 15063 C 1388.89 0.938619 -2.07783 0
M  V30 15064 C 1389.87 1.27454 -0.982057 0
M  V30 15065 O 1391.06 1.25769 -1.24544 0
M  V30 15066 C 1388.19 2.21499 -2.62285 0
M  V30 15067 C 1387.28 1.90665 -3.78824 0
M  V30 15068 N 1387.67 1.30174 -4.88762 0
M  V30 15069 C 1385.97 2.20559 -3.87646 0
M  V30 15070 C 1386.67 1.16872 -5.69838 0
M  V30 15071 N 1385.64 1.67016 -5.17307 0
M  V30 15072 H 1389.44 0.466179 -2.90179 0
M  V30 15073 H 1386.96 0.157752 -1.61632 0
M  V30 15074 H 1388.96 2.92987 -2.96588 0
M  V30 15075 H 1387.62 2.69353 -1.81326 0
M  V30 15076 H 1388.63 0.974495 -5.08649 0
M  V30 15077 H 1385.3 2.70964 -3.17623 0
M  V30 15078 H 1386.69 0.699463 -6.68249 0
M  V30 15079 N 1389.41 1.55964 0.226527 0
M  V30 15080 C 1390.66 1.7901 0.95306 0
M  V30 15081 C 1390.99 0.615608 1.84184 0
M  V30 15082 O 1390.27 -0.385341 1.90645 0
M  V30 15083 C 1390.55 3.12101 1.79624 0
M  V30 15084 C 1390.4 4.3999 0.934286 0
M  V30 15085 C 1391.72 3.4159 2.77496 0
M  V30 15086 H 1388.84 0.651236 0.345052 0
M  V30 15087 H 1391.48 1.88696 0.222236 0
M  V30 15088 H 1389.63 3.03975 2.41933 0
M  V30 15089 H 1391.31 4.6013 0.328328 0
M  V30 15090 H 1389.55 4.33138 0.239487 0
M  V30 15091 H 1390.22 5.29541 1.55853 0
M  V30 15092 H 1392.7 3.49812 2.25323 0
M  V30 15093 H 1391.57 4.35894 3.33599 0
M  V30 15094 H 1391.83 2.6351 3.54986 0
M  V30 15095 N 1390.89 -0.493031 1.4969 0
M  V30 15096 C 1392.14 -1.2433 1.58823 0
M  V30 15097 C 1392.45 -1.9353 0.283823 0
M  V30 15098 O 1393.66 -2.70311 0.253801 0
M  V30 15099 C 1392.12 -2.25792 2.8026 0
M  V30 15100 C 1391.72 -1.62496 4.17491 0
M  V30 15101 C 1393.47 -3.01598 2.98729 0
M  V30 15102 C 1391.38 -2.62115 5.30141 0
M  V30 15103 H 1390.31 -0.467738 0.591386 0
M  V30 15104 H 1392.96 -0.516238 1.76089 0
M  V30 15105 H 1391.34 -3.01696 2.56506 0
M  V30 15106 H 1392.51 -0.925305 4.51414 0
M  V30 15107 H 1390.83 -0.990516 4.04447 0
M  V30 15108 H 1393.42 -3.76111 3.80058 0
M  V30 15109 H 1393.77 -3.59687 2.09597 0
M  V30 15110 H 1394.3 -2.32809 3.2256 0
M  V30 15111 H 1391.04 -2.08797 6.21357 0
M  V30 15112 H 1390.56 -3.30298 5.00663 0
M  V30 15113 H 1392.24 -3.24385 5.59807 0
M  V30 15114 N 1392.37 -1.38898 -0.744656 0
M  V30 15115 C 1393.3 -1.32739 -1.8685 0
M  V30 15116 C 1394.32 -0.23793 -1.61052 0
M  V30 15117 O 1395.5 -0.496166 -1.71466 0
M  V30 15118 C 1392.6 -1.03602 -3.22676 0
M  V30 15119 C 1391.78 -2.23634 -3.75908 0
M  V30 15120 C 1390.84 -1.91103 -4.90271 0
M  V30 15121 O 1389.86 -2.6369 -5.04437 0
M  V30 15122 N 1391.06 -0.871358 -5.73923 0
M  V30 15123 H 1393.83 -2.29585 -1.92641 0
M  V30 15124 H 1391.39 -1.32875 -0.924979 0
M  V30 15125 H 1393.38 -0.798755 -3.96739 0
M  V30 15126 H 1391.95 -0.155218 -3.12214 0
M  V30 15127 H 1391.17 -2.63371 -2.93307 0
M  V30 15128 H 1392.46 -3.0372 -4.08205 0
M  V30 15129 H 1391.86 -0.269591 -5.65057 0
M  V30 15130 H 1390.42 -0.693984 -6.48095 0
M  V30 15131 N 1393.85 0.973806 -1.23914 0
M  V30 15132 C 1394.78 2.07003 -0.983982 0
M  V30 15133 C 1395.79 1.62739 0.0443893 0
M  V30 15134 O 1396.98 1.77465 -0.191927 0
M  V30 15135 C 1394.08 3.35737 -0.461937 0
M  V30 15136 C 1393.26 4.08939 -1.55202 0
M  V30 15137 C 1392.31 5.15947 -1.03369 0
M  V30 15138 O 1391.34 5.42461 -1.72409 0
M  V30 15139 N 1392.54 5.80343 0.135067 0
M  V30 15140 H 1395.31 2.29468 -1.92781 0
M  V30 15141 H 1392.87 1.14098 -1.14861 0
M  V30 15142 H 1394.86 4.04576 -0.100074 0
M  V30 15143 H 1393.43 3.10189 0.387467 0
M  V30 15144 H 1392.65 3.34462 -2.08635 0
M  V30 15145 H 1393.94 4.5461 -2.2849 0
M  V30 15146 H 1393.34 5.61196 0.71241 0
M  V30 15147 H 1391.89 6.50326 0.438132 0
M  V30 15148 N 1395.33 1.05191 1.17357 0
M  V30 15149 C 1396.57 0.760479 1.87246 0
M  V30 15150 C 1396.9 -0.714618 1.81434 0
M  V30 15151 O 1396.17 -1.51636 1.24029 0
M  V30 15152 H 1394.75 0.278317 0.693216 0
M  V30 15153 H 1397.41 1.33106 1.42369 0
M  V30 15154 H 1396.5 1.07542 2.92987 0
M  V30 15155 N 1396.8 -1.33791 0.83293 0
M  V30 15156 C 1397.75 -2.29332 0.25989 0
M  V30 15157 C 1398.72 -1.54056 -0.620965 0
M  V30 15158 O 1399.91 -1.82382 -0.560492 0
M  V30 15159 C 1397.05 -3.40461 -0.563964 0
M  V30 15160 C 1396.16 -4.30658 0.34025 0
M  V30 15161 C 1395.29 -5.28897 -0.494134 0
M  V30 15162 C 1394.33 -6.10733 0.408842 0
M  V30 15163 N 1393.47 -7.01032 -0.38706 0
M  V30 15164 H 1398.31 -2.77743 1.07996 0
M  V30 15165 H 1395.85 -1.3667 0.544043 0
M  V30 15166 H 1397.81 -4.03587 -1.05704 0
M  V30 15167 H 1396.44 -2.93258 -1.34905 0
M  V30 15168 H 1395.49 -3.68305 0.9516 0
M  V30 15169 H 1396.8 -4.87962 1.03415 0
M  V30 15170 H 1395.95 -5.97522 -1.05128 0
M  V30 15171 H 1394.69 -4.72155 -1.2215 0
M  V30 15172 H 1393.7 -5.41031 0.978046 0
M  V30 15173 H 1394.92 -6.69557 1.13448 0
M  V30 15174 H 1392.87 -6.46747 -1.09792 0
M  V30 15175 H 1392.79 -7.55592 0.248249 0
M  V30 15176 H 1394.05 -7.73973 -0.926631 0
M  V30 15177 N 1398.28 -0.588812 -1.46187 0
M  V30 15178 C 1399.51 -0.0825301 -2.06735 0
M  V30 15179 C 1399.93 1.22507 -1.43658 0
M  V30 15180 O 1399.28 1.74203 -0.544022 0
M  V30 15181 C 1399.33 0.083501 -3.61404 0
M  V30 15182 O 1399.05 -1.17235 -4.22123 0
M  V30 15183 C 1400.56 0.623425 -4.38894 0
M  V30 15184 H 1397.78 -0.0602413 -0.66829 0
M  V30 15185 H 1400.32 -0.811215 -1.87722 0
M  V30 15186 H 1398.47 0.762432 -3.79823 0
M  V30 15187 H 1398.89 -0.990047 -5.15071 0
M  V30 15188 H 1400.36 0.688755 -5.47686 0
M  V30 15189 H 1400.84 1.64172 -4.07362 0
M  V30 15190 H 1401.45 -0.0208373 -4.25295 0
M  V30 15191 N 1399.76 1.54172 -0.326923 0
M  V30 15192 C 1400.71 2.25931 0.552996 0
M  V30 15193 C 1401.7 1.27463 1.11578 0
M  V30 15194 O 1402.91 1.45228 1.06343 0
M  V30 15195 H 1399.28 0.725741 0.196988 0
M  V30 15196 H 1401.25 2.98307 -0.0744603 0
M  V30 15197 C 1400 3.03276 1.70056 0
M  V30 15198 H 1399.33 3.78865 1.27676 0
M  V30 15199 H 1400.77 3.56727 2.29177 0
M  V30 15200 C 1399.23 2.11775 2.62017 0
M  V30 15201 O 1399.76 1.70282 3.63822 0
M  V30 15202 N 1397.96 1.77195 2.30327 0
M  V30 15203 H 1397.51 2.11135 1.4758 0
M  V30 15204 H 1397.47 1.16253 2.92117 0
M  V30 15205 N 1401.24 0.0551678 1.57503 0
M  V30 15206 C 1402.19 -0.935665 2.12951 0
M  V30 15207 C 1403.18 -1.31954 1.06229 0
M  V30 15208 O 1404.39 -1.29873 1.24632 0
M  V30 15209 H 1400.76 -0.319618 0.680697 0
M  V30 15210 H 1402.73 -0.442937 2.95094 0
M  V30 15211 C 1401.48 -2.19977 2.69268 0
M  V30 15212 H 1400.8 -1.91319 3.51051 0
M  V30 15213 H 1402.24 -2.87456 3.11681 0
M  V30 15214 C 1400.7 -2.94714 1.63233 0
M  V30 15215 O 1401.23 -3.87803 1.04747 0
M  V30 15216 N 1399.44 -2.57518 1.34659 0
M  V30 15217 H 1398.99 -1.81894 1.82407 0
M  V30 15218 H 1398.94 -3.07829 0.639425 0
M  V30 15219 N 1402.72 -1.56081 -0.218252 0
M  V30 15220 C 1403.94 -1.83681 -0.963119 0
M  V30 15221 C 1404.37 -0.635909 -1.77025 0
M  V30 15222 O 1403.72 0.415327 -1.76479 0
M  V30 15223 C 1403.77 -3.09302 -1.85376 0
M  V30 15224 O 1402.88 -2.88228 -2.94955 0
M  V30 15225 H 1402.22 -0.605495 -0.272529 0
M  V30 15226 H 1404.75 -2.03297 -0.230567 0
M  V30 15227 H 1404.76 -3.39493 -2.26294 0
M  V30 15228 H 1403.43 -3.96337 -1.26054 0
M  V30 15229 H 1402.01 -2.69279 -2.57959 0
M  V30 15230 N 1404.2 0.485086 -1.49949 0
M  V30 15231 C 1405.11 1.61089 -1.70551 0
M  V30 15232 C 1406.12 1.63752 -0.588333 0
M  V30 15233 O 1407.3 1.81879 -0.86498 0
M  V30 15234 C 1404.36 2.97382 -1.78227 0
M  V30 15235 C 1403.42 3.05219 -3.01894 0
M  V30 15236 C 1402.66 4.35011 -3.09195 0
M  V30 15237 O 1402.88 5.24722 -2.23658 0
M  V30 15238 O 1401.81 4.48151 -4.01802 0
M  V30 15239 H 1405.64 1.46633 -2.65956 0
M  V30 15240 H 1403.22 0.663091 -1.33879 0
M  V30 15241 H 1405.11 3.78356 -1.85538 0
M  V30 15242 H 1403.78 3.12066 -0.860043 0
M  V30 15243 H 1402.69 2.23373 -3.00092 0
M  V30 15244 H 1404.02 2.95467 -3.93649 0
M  V30 15245 N 1405.67 1.39291 0.737279 0
M  V30 15246 C 1406.62 1.37829 1.85127 0
M  V30 15247 C 1407.59 0.238321 1.64381 0
M  V30 15248 O 1408.78 0.433081 1.8582 0
M  V30 15249 C 1405.92 1.22531 3.22615 0
M  V30 15250 C 1405.03 2.46052 3.55081 0
M  V30 15251 C 1404.16 2.2336 4.81958 0
M  V30 15252 C 1403.2 3.42569 5.0726 0
M  V30 15253 N 1402.34 3.19209 6.2534 0
M  V30 15254 H 1407.18 2.33056 1.85712 0
M  V30 15255 H 1404.72 1.15772 0.907484 0
M  V30 15256 H 1406.67 1.11673 4.01976 0
M  V30 15257 H 1405.3 0.30934 3.21314 0
M  V30 15258 H 1404.36 2.67521 2.70438 0
M  V30 15259 H 1405.67 3.3485 3.69698 0
M  V30 15260 H 1404.82 2.09732 5.69295 0
M  V30 15261 H 1403.56 1.31953 4.6951 0
M  V30 15262 H 1402.57 3.56698 4.18386 0
M  V30 15263 H 1403.79 4.34874 5.21595 0
M  V30 15264 H 1401.74 2.30464 6.14184 0
M  V30 15265 H 1401.65 4.01562 6.40534 0
M  V30 15266 H 1402.92 3.09269 7.15523 0
M  V30 15267 N 1407.15 -0.967221 1.24429 0
M  V30 15268 C 1408.4 -1.71026 1.08427 0
M  V30 15269 C 1408.73 -1.90815 -0.376812 0
M  V30 15270 O 1407.98 -1.46745 -1.29477 0
M  V30 15271 C 1408.28 -3.10507 1.76975 0
M  V30 15272 C 1407.95 -3.10557 3.26902 0
M  V30 15273 C 1406.61 -3.10278 3.67806 0
M  V30 15274 C 1408.96 -3.04852 4.22746 0
M  V30 15275 C 1406.29 -3.02027 5.02988 0
M  V30 15276 C 1408.64 -2.98143 5.57937 0
M  V30 15277 C 1407.3 -2.96193 5.98185 0
M  V30 15278 H 1406.57 -0.625827 0.396764 0
M  V30 15279 H 1409.22 -1.13094 1.54538 0
M  V30 15280 H 1407.53 -3.71906 1.2326 0
M  V30 15281 H 1409.22 -3.66794 1.62058 0
M  V30 15282 H 1405.81 -3.11539 2.94349 0
M  V30 15283 H 1410 -3.04197 3.92145 0
M  V30 15284 H 1405.25 -2.98878 5.33368 0
M  V30 15285 H 1409.43 -2.92688 6.31907 0
M  V30 15286 H 1407.05 -2.89555 7.02895 0
M  V30 15287 N 1408.63 -1.05812 -1.16797 0
M  V30 15288 C 1409.54 -0.675541 -2.24663 0
M  V30 15289 C 1410.56 0.30622 -1.71284 0
M  V30 15290 O 1411.73 0.156752 -2.00789 0
M  V30 15291 C 1408.8 -0.0627149 -3.46643 0
M  V30 15292 C 1407.86 -1.09572 -4.15081 0
M  V30 15293 C 1407.09 -0.512044 -5.31238 0
M  V30 15294 O 1407.31 0.676665 -5.66372 0
M  V30 15295 O 1406.25 -1.24936 -5.88791 0
M  V30 15296 H 1410.07 -1.57467 -2.59688 0
M  V30 15297 H 1407.66 -0.830073 -1.24218 0
M  V30 15298 H 1409.54 0.277543 -4.20485 0
M  V30 15299 H 1408.22 0.80997 -3.13403 0
M  V30 15300 H 1407.12 -1.48807 -3.4323 0
M  V30 15301 H 1408.46 -1.93977 -4.52365 0
M  V30 15302 N 1410.11 1.33347 -0.840014 0
M  V30 15303 C 1411.52 1.50615 -0.52795 0
M  V30 15304 C 1411.72 1.77993 0.944493 0
M  V30 15305 O 1410.78 1.84087 1.72824 0
M  V30 15306 C 1412.09 2.66001 -1.40228 0
M  V30 15307 C 1413.64 2.79886 -1.40117 0
M  V30 15308 C 1414.12 3.98335 -2.26038 0
M  V30 15309 N 1415.61 4.05572 -2.23753 0
M  V30 15310 C 1416.34 4.96422 -2.86972 0
M  V30 15311 N 1415.84 5.9238 -3.59247 0
M  V30 15312 N 1417.63 4.89428 -2.76436 0
M  V30 15313 H 1409.78 1.13839 -1.79317 0
M  V30 15314 H 1412.04 0.559772 -0.765088 0
M  V30 15315 H 1411.75 2.52453 -2.44868 0
M  V30 15316 H 1411.62 3.61434 -1.07914 0
M  V30 15317 H 1414.01 2.92865 -0.362487 0
M  V30 15318 H 1414.09 1.85211 -1.76439 0
M  V30 15319 H 1413.74 3.86115 -3.29966 0
M  V30 15320 H 1413.67 4.92257 -1.87057 0
M  V30 15321 H 1416.16 3.36899 -1.71195 0
M  V30 15322 H 1416.47 6.58367 -4.04688 0
M  V30 15323 H 1414.82 5.92451 -3.63354 0
M  V30 15324 H 1418.01 4.13428 -2.19534 0
M  V30 15325 H 1418.18 5.60032 -3.25989 0
M  V30 15326 N 1411.59 0.596556 1.45873 0
M  V30 15327 C 1412.83 0.0874583 2.02311 0
M  V30 15328 C 1413.16 -1.27781 1.46636 0
M  V30 15329 O 1412.42 -1.85393 0.62674 0
M  V30 15330 C 1412.71 -0.0135714 3.57397 0
M  V30 15331 C 1412.38 1.28591 4.32175 0
M  V30 15332 C 1411.04 1.6419 4.52322 0
M  V30 15333 C 1413.39 2.14523 4.75005 0
M  V30 15334 C 1410.72 2.85493 5.12553 0
M  V30 15335 C 1413.07 3.35065 5.36577 0
M  V30 15336 C 1411.74 3.70929 5.54949 0
M  V30 15337 H 1411.01 0.0320033 0.740309 0
M  V30 15338 H 1413.66 0.775967 1.75074 0
M  V30 15339 H 1411.96 -0.785287 3.8385 0
M  V30 15340 H 1413.66 -0.423456 3.98758 0
M  V30 15341 H 1410.25 0.99881 4.16799 0
M  V30 15342 H 1414.43 1.88321 4.59183 0
M  V30 15343 H 1409.69 3.134 5.24967 0
M  V30 15344 H 1413.86 4.01909 5.6872 0
M  V30 15345 H 1411.49 4.65011 6.01389 0
M  V30 15346 N 1413.06 -1.53996 0.335095 0
M  V30 15347 C 1414.48 -1.59591 -0.0171422 0
M  V30 15348 C 1414.68 -1.35132 -1.49471 0
M  V30 15349 O 1413.74 -1.14141 -2.25229 0
M  V30 15350 C 1415.05 -2.97872 0.411443 0
M  V30 15351 C 1416.6 -3.10887 0.363072 0
M  V30 15352 C 1417.07 -4.51532 0.766995 0
M  V30 15353 N 1418.56 -4.57557 0.72085 0
M  V30 15354 C 1419.3 -5.64516 1.00544 0
M  V30 15355 N 1418.79 -6.79365 1.35777 0
M  V30 15356 N 1420.59 -5.54349 0.930243 0
M  V30 15357 H 1412.74 -1.68151 1.29766 0
M  V30 15358 H 1415 -0.787067 0.528422 0
M  V30 15359 H 1414.71 -3.20809 1.44134 0
M  V30 15360 H 1414.58 -3.76571 -0.217678 0
M  V30 15361 H 1416.97 -2.87679 -0.657642 0
M  V30 15362 H 1417.05 -2.34266 1.02728 0
M  V30 15363 H 1416.69 -4.75474 1.78568 0
M  V30 15364 H 1416.62 -5.26539 0.0803511 0
M  V30 15365 H 1419.11 -3.75079 0.460867 0
M  V30 15366 H 1419.43 -7.56891 1.55999 0
M  V30 15367 H 1417.77 -6.80833 1.39614 0
M  V30 15368 H 1420.96 -4.63503 0.654402 0
M  V30 15369 H 1421.14 -6.37616 1.15539 0
M  V30 15370 N 1414.54 -0.0635198 -1.57472 0
M  V30 15371 C 1415.79 0.606285 -1.92792 0
M  V30 15372 C 1416.11 1.70648 -0.943615 0
M  V30 15373 O 1415.38 1.95898 0.00957612 0
M  V30 15374 H 1413.96 0.226943 -0.711692 0
M  V30 15375 H 1416.62 -0.119429 -1.94534 0
M  V30 15376 H 1415.72 1.03694 -2.9437 0
M  V30 15377 N 1416.02 1.56195 0.209972 0
M  V30 15378 C 1417.25 1.83574 0.947852 0
M  V30 15379 C 1417.66 0.641947 1.77977 0
M  V30 15380 O 1417 -0.398794 1.79319 0
M  V30 15381 C 1417.06 3.0485 1.90543 0
M  V30 15382 C 1416.73 4.39375 1.25692 0
M  V30 15383 C 1417.72 5.15932 0.641107 0
M  V30 15384 C 1415.41 4.86104 1.26522 0
M  V30 15385 C 1417.4 6.37386 0.0422484 0
M  V30 15386 C 1415.09 6.07498 0.662523 0
M  V30 15387 C 1416.09 6.8298 0.0521007 0
M  V30 15388 O 1415.78 8.02076 -0.541192 0
M  V30 15389 H 1415.51 0.614001 0.282805 0
M  V30 15390 H 1418.06 2.04144 0.226767 0
M  V30 15391 H 1416.29 2.80127 2.66582 0
M  V30 15392 H 1417.98 3.19001 2.50984 0
M  V30 15393 H 1418.75 4.80931 0.626938 0
M  V30 15394 H 1414.63 4.27318 1.72974 0
M  V30 15395 H 1418.17 6.96244 -0.434823 0
M  V30 15396 H 1414.07 6.4197 0.674144 0
M  V30 15397 H 1414.83 8.17335 -0.43664 0
M  V30 15398 N 1417.5 -0.477127 1.50204 0
M  V30 15399 C 1418.74 -1.23956 1.62525 0
M  V30 15400 C 1419.1 -1.89385 0.315789 0
M  V30 15401 O 1420.3 -2.66955 0.314378 0
M  V30 15402 C 1418.57 -2.25999 2.76874 0
M  V30 15403 S 1420.13 -3.11262 3.09292 0
M  V30 15404 H 1416.95 -0.420931 0.573008 0
M  V30 15405 H 1419.55 -0.537592 1.87963 0
M  V30 15406 H 1418.26 -1.76501 3.70507 0
M  V30 15407 H 1417.79 -3.00832 2.53503 0
M  V30 15408 H 1419.8 -4.27061 2.52652 0
M  V30 15409 N 1418.98 -1.3968 -0.729882 0
M  V30 15410 C 1419.89 -1.41094 -1.87429 0
M  V30 15411 C 1420.9 -0.305142 -1.71303 0
M  V30 15412 O 1422.08 -0.54744 -1.93817 0
M  V30 15413 C 1419.14 -1.25786 -3.23077 0
M  V30 15414 C 1418.2 -2.46382 -3.5156 0
M  V30 15415 C 1417.44 -2.31795 -4.80735 0
M  V30 15416 O 1417.66 -1.32415 -5.54818 0
M  V30 15417 O 1416.59 -3.20883 -5.09232 0
M  V30 15418 H 1420.42 -2.37571 -1.89192 0
M  V30 15419 H 1418.01 -1.2085 -0.878389 0
M  V30 15420 H 1419.89 -1.19402 -4.0413 0
M  V30 15421 H 1418.56 -0.324065 -3.22074 0
M  V30 15422 H 1417.47 -2.58343 -2.70573 0
M  V30 15423 H 1418.8 -3.38473 -3.57347 0
M  V30 15424 N 1420.45 0.960609 -1.2494 0
M  V30 15425 C 1421.87 1.23057 -1.01633 0
M  V30 15426 C 1422.07 1.99676 0.270527 0
M  V30 15427 O 1421.13 2.32503 0.984823 0
M  V30 15428 C 1422.44 2.01078 -2.2358 0
M  V30 15429 C 1423.99 2.14144 -2.28279 0
M  V30 15430 C 1424.46 2.95563 -3.49867 0
M  V30 15431 N 1425.95 3.03143 -3.50227 0
M  V30 15432 C 1426.69 3.66518 -4.40967 0
M  V30 15433 N 1426.18 4.31553 -5.41972 0
M  V30 15434 N 1427.98 3.636 -4.28663 0
M  V30 15435 H 1420.13 0.447876 -2.07624 0
M  V30 15436 H 1422.39 0.260581 -0.911483 0
M  V30 15437 H 1422.1 1.52172 -3.17075 0
M  V30 15438 H 1421.97 3.01797 -2.2627 0
M  V30 15439 H 1424.36 2.6225 -1.35311 0
M  V30 15440 H 1424.44 1.1275 -2.29611 0
M  V30 15441 H 1424.08 2.48149 -4.43153 0
M  V30 15442 H 1424.01 3.9717 -3.45779 0
M  V30 15443 H 1426.5 2.56888 -2.77159 0
M  V30 15444 H 1426.82 4.7775 -6.07433 0
M  V30 15445 H 1425.16 4.302 -5.45851 0
M  V30 15446 H 1428.35 3.11973 -3.48985 0
M  V30 15447 H 1428.53 4.12706 -4.99578 0
M  V30 15448 N 1421.93 1.0643 1.16234 0
M  V30 15449 C 1422.9 0.680383 2.18869 0
M  V30 15450 C 1423.9 -0.274591 1.58438 0
M  V30 15451 O 1425.09 -0.0567907 1.74107 0
M  V30 15452 C 1422.22 0.00134091 3.409 0
M  V30 15453 H 1423.41 1.58894 2.54347 0
M  V30 15454 H 1420.96 0.859688 1.30534 0
M  V30 15455 H 1421.7 -0.919903 3.1098 0
M  V30 15456 H 1421.48 0.688057 3.86016 0
M  V30 15457 H 1422.97 -0.252938 4.16833 0
M  V30 15458 N 1423.41 -1.329 0.847073 0
M  V30 15459 C 1424.64 -2.01418 0.459829 0
M  V30 15460 C 1425.05 -1.63857 -0.945921 0
M  V30 15461 O 1424.39 -0.851946 -1.6275 0
M  V30 15462 C 1424.45 -3.55859 0.510376 0
M  V30 15463 C 1424.12 -4.16824 1.87368 0
M  V30 15464 C 1425.11 -4.35602 2.83808 0
M  V30 15465 C 1422.8 -4.53067 2.16876 0
M  V30 15466 C 1424.79 -4.89782 4.07912 0
M  V30 15467 C 1422.48 -5.06953 3.41235 0
M  V30 15468 C 1423.48 -5.25258 4.36569 0
M  V30 15469 O 1423.17 -5.77995 5.58728 0
M  V30 15470 H 1422.9 -0.651608 0.179952 0
M  V30 15471 H 1425.45 -1.70624 1.14353 0
M  V30 15472 H 1423.68 -3.86015 -0.230145 0
M  V30 15473 H 1425.37 -4.05659 0.139804 0
M  V30 15474 H 1426.14 -4.07942 2.62313 0
M  V30 15475 H 1422.02 -4.3811 1.43461 0
M  V30 15476 H 1425.56 -5.03985 4.82333 0
M  V30 15477 H 1421.46 -5.34045 3.62583 0
M  V30 15478 H 1422.23 -5.96399 5.60581 0
M  V30 15479 N 1424.89 -0.604284 -1.45555 0
M  V30 15480 C 1426.12 -0.104452 -2.06636 0
M  V30 15481 C 1426.53 1.20976 -1.44949 0
M  V30 15482 O 1425.89 1.73616 -0.562468 0
M  V30 15483 C 1425.94 0.0451646 -3.61472 0
M  V30 15484 O 1425.66 -1.21705 -4.20856 0
M  V30 15485 C 1427.16 0.57684 -4.39531 0
M  V30 15486 H 1424.38 -0.067326 -0.667614 0
M  V30 15487 H 1426.93 -0.831079 -1.86851 0
M  V30 15488 H 1425.08 0.722104 -3.80611 0
M  V30 15489 H 1425.49 -1.04462 -5.13992 0
M  V30 15490 H 1426.97 0.630627 -5.48386 0
M  V30 15491 H 1427.45 1.59842 -4.09081 0
M  V30 15492 H 1428.05 -0.0659444 -4.25249 0
M  V30 15493 N 1426.37 1.53816 -0.343257 0
M  V30 15494 C 1427.62 2.0009 0.254346 0
M  V30 15495 C 1427.93 1.23502 1.51679 0
M  V30 15496 O 1429.13 1.60251 2.19162 0
M  V30 15497 C 1427.59 3.56357 0.503775 0
M  V30 15498 C 1427.2 4.418 -0.742754 0
M  V30 15499 C 1428.94 4.11046 1.06025 0
M  V30 15500 C 1426.85 5.89576 -0.46414 0
M  V30 15501 H 1425.78 0.747496 0.0988189 0
M  V30 15502 H 1428.43 1.77679 -0.45854 0
M  V30 15503 H 1426.81 3.74833 1.27736 0
M  V30 15504 H 1427.99 4.35099 -1.51742 0
M  V30 15505 H 1426.3 3.98101 -1.22085 0
M  V30 15506 H 1428.9 5.19063 1.28365 0
M  V30 15507 H 1429.24 3.64247 2.01568 0
M  V30 15508 H 1429.77 3.9628 0.347384 0
M  V30 15509 H 1426.51 6.40608 -1.38928 0
M  V30 15510 H 1426.03 5.99181 0.272441 0
M  V30 15511 H 1427.71 6.46949 -0.0812761 0
M  V30 15512 N 1427.84 0.0718701 1.57436 0
M  V30 15513 C 1428.77 -0.89288 2.15754 0
M  V30 15514 C 1429.76 -1.31036 1.0846 0
M  V30 15515 O 1430.94 -1.38139 1.36496 0
M  V30 15516 C 1428.07 -2.16044 2.71923 0
M  V30 15517 C 1427.02 -1.88236 3.84384 0
M  V30 15518 C 1426.35 -3.21624 4.27156 0
M  V30 15519 C 1427.65 -1.18758 5.0862 0
M  V30 15520 H 1429.34 -0.407061 2.9662 0
M  V30 15521 H 1426.89 -0.194354 1.42682 0
M  V30 15522 H 1428.84 -2.83952 3.11366 0
M  V30 15523 H 1427.57 -2.66868 1.88279 0
M  V30 15524 H 1426.23 -1.22734 3.45445 0
M  V30 15525 H 1425.87 -3.70289 3.40433 0
M  V30 15526 H 1425.57 -3.03809 5.02965 0
M  V30 15527 H 1427.1 -3.90729 4.69215 0
M  V30 15528 H 1428.51 -1.76735 5.45378 0
M  V30 15529 H 1426.91 -1.11201 5.89707 0
M  V30 15530 H 1427.98 -0.166682 4.84613 0
M  V30 15531 N 1429.32 -1.56304 -0.201686 0
M  V30 15532 C 1430.74 -1.49741 -0.552247 0
M  V30 15533 C 1430.94 -0.770683 -1.86179 0
M  V30 15534 O 1429.99 -0.318489 -2.50483 0
M  V30 15535 C 1431.31 -2.94384 -0.613083 0
M  V30 15536 C 1432.86 -3.05018 -0.702365 0
M  V30 15537 C 1433.33 -4.51058 -0.794371 0
M  V30 15538 N 1434.82 -4.55183 -0.858072 0
M  V30 15539 C 1435.56 -5.65487 -0.949317 0
M  V30 15540 N 1435.05 -6.85497 -1.00327 0
M  V30 15541 N 1436.85 -5.53385 -0.985995 0
M  V30 15542 H 1429 -2.01971 0.657394 0
M  V30 15543 H 1431.26 -0.918839 0.233322 0
M  V30 15544 H 1430.97 -3.50584 0.279921 0
M  V30 15545 H 1430.84 -3.47376 -1.47002 0
M  V30 15546 H 1433.23 -2.4887 -1.5858 0
M  V30 15547 H 1433.31 -2.55161 0.180636 0
M  V30 15548 H 1432.95 -5.07829 0.0846883 0
M  V30 15549 H 1432.88 -4.98641 -1.69308 0
M  V30 15550 H 1435.37 -3.68765 -0.825888 0
M  V30 15551 H 1435.69 -7.65312 -1.07322 0
M  V30 15552 H 1434.03 -6.88169 -0.972061 0
M  V30 15553 H 1437.22 -4.58552 -0.940635 0
M  V30 15554 H 1437.39 -6.39376 -1.05365 0
M  V30 15555 N 1430.8 0.469154 -1.50455 0
M  V30 15556 C 1432.22 0.803067 -1.37924 0
M  V30 15557 C 1432.42 1.96708 -0.436837 0
M  V30 15558 O 1431.47 2.52216 0.119823 0
M  V30 15559 C 1432.79 1.11332 -2.79331 0
M  V30 15560 C 1434.33 1.21965 -2.88259 0
M  V30 15561 C 1434.81 1.56302 -4.30504 0
M  V30 15562 N 1436.3 1.6329 -4.33464 0
M  V30 15563 C 1437.03 1.91367 -5.40524 0
M  V30 15564 N 1436.53 2.17451 -6.57789 0
M  V30 15565 N 1438.32 1.92885 -5.2797 0
M  V30 15566 H 1430.47 -0.297928 -2.103 0
M  V30 15567 H 1432.74 -0.0707794 -0.945354 0
M  V30 15568 H 1432.44 0.331052 -3.50138 0
M  V30 15569 H 1432.32 2.04903 -3.16693 0
M  V30 15570 H 1434.7 1.99259 -2.17669 0
M  V30 15571 H 1434.79 0.263692 -2.54437 0
M  V30 15572 H 1434.43 0.795479 -5.01632 0
M  V30 15573 H 1434.36 2.53052 -4.61814 0
M  V30 15574 H 1436.85 1.45164 -3.48907 0
M  V30 15575 H 1437.16 2.38154 -7.35189 0
M  V30 15576 H 1435.51 2.14839 -6.60961 0
M  V30 15577 H 1438.7 1.72005 -4.35353 0
M  V30 15578 H 1438.87 2.1443 -6.11493 0
M  V30 15579 N 1432.28 1.40065 0.722464 0
M  V30 15580 C 1433.23 1.36267 1.82798 0
M  V30 15581 C 1434.21 0.241375 1.59079 0
M  V30 15582 O 1435.4 0.479929 1.70369 0
M  V30 15583 C 1432.53 1.22086 3.20858 0
M  V30 15584 C 1431.62 2.38969 3.50364 0
M  V30 15585 N 1432.01 3.6445 3.50727 0
M  V30 15586 C 1430.31 2.32199 3.80788 0
M  V30 15587 C 1431.01 4.41816 3.78383 0
M  V30 15588 N 1429.99 3.71565 3.96787 0
M  V30 15589 H 1433.79 2.31236 1.81403 0
M  V30 15590 H 1431.3 1.33739 0.92128 0
M  V30 15591 H 1433.3 1.17448 4.00014 0
M  V30 15592 H 1431.96 0.280787 3.23484 0
M  V30 15593 H 1432.97 3.97705 3.3174 0
M  V30 15594 H 1429.65 1.46521 3.90945 0
M  V30 15595 H 1431.04 5.5064 3.85027 0
M  V30 15596 N 1433.76 -0.95397 1.25448 0
M  V30 15597 C 1435.01 -1.6953 1.10018 0
M  V30 15598 C 1435.33 -1.9166 -0.359385 0
M  V30 15599 O 1434.6 -1.50417 -1.25506 0
M  V30 15600 H 1433.18 -0.628238 0.404136 0
M  V30 15601 H 1435.84 -1.14691 1.57581 0
M  V30 15602 H 1434.93 -2.67427 1.60901 0
M  V30 15603 N 1435.24 -1.07045 -1.15668 0
M  V30 15604 C 1436.17 -0.709413 -2.22463 0
M  V30 15605 C 1437.15 0.30169 -1.67403 0
M  V30 15606 O 1438.33 0.175131 -1.93409 0
M  V30 15607 C 1435.46 -0.103121 -3.47147 0
M  V30 15608 C 1434.42 -1.04103 -4.15146 0
M  V30 15609 C 1433.74 -0.297656 -5.33871 0
M  V30 15610 C 1435.04 -2.37332 -4.65264 0
M  V30 15611 H 1436.74 -1.60227 -2.52918 0
M  V30 15612 H 1434.28 -0.771846 -1.21567 0
M  V30 15613 H 1436.23 0.161371 -4.21091 0
M  V30 15614 H 1434.96 0.824792 -3.16014 0
M  V30 15615 H 1433.62 -1.2904 -3.43139 0
M  V30 15616 H 1433.27 0.633618 -4.98993 0
M  V30 15617 H 1432.97 -0.922789 -5.80309 0
M  V30 15618 H 1434.49 -0.0408892 -6.10586 0
M  V30 15619 H 1435.9 -2.1674 -5.30751 0
M  V30 15620 H 1434.3 -2.95412 -5.22352 0
M  V30 15621 H 1435.37 -2.99859 -3.81068 0
M  V30 15622 N 1436.71 1.32449 -0.85411 0
M  V30 15623 C 1437.64 2.31383 -0.313697 0
M  V30 15624 C 1438.62 1.59656 0.586858 0
M  V30 15625 O 1439.81 1.87459 0.507216 0
M  V30 15626 C 1436.94 3.43693 0.499235 0
M  V30 15627 C 1435.89 4.26899 -0.306839 0
M  V30 15628 C 1435.22 5.30966 0.630795 0
M  V30 15629 C 1436.52 4.99318 -1.53229 0
M  V30 15630 H 1438.21 2.76832 -1.14037 0
M  V30 15631 H 1435.76 1.33091 -0.549805 0
M  V30 15632 H 1437.71 4.11944 0.887709 0
M  V30 15633 H 1436.44 2.96971 1.35926 0
M  V30 15634 H 1435.1 3.60294 -0.677061 0
M  V30 15635 H 1434.74 4.80498 1.48765 0
M  V30 15636 H 1434.44 5.87522 0.0954635 0
M  V30 15637 H 1435.97 6.0208 1.01646 0
M  V30 15638 H 1437.38 5.60253 -1.21614 0
M  V30 15639 H 1435.78 5.65596 -2.00552 0
M  V30 15640 H 1436.85 4.27213 -2.29383 0
M  V30 15641 N 1438.19 0.611994 1.45232 0
M  V30 15642 C 1439.44 0.108911 2.02207 0
M  V30 15643 C 1439.77 -1.26219 1.47983 0
M  V30 15644 O 1439.02 -1.84718 0.646368 0
M  V30 15645 C 1439.32 0.0243361 3.57392 0
M  V30 15646 C 1438.99 1.33168 4.30787 0
M  V30 15647 C 1437.65 1.68978 4.50555 0
M  V30 15648 C 1440 2.19549 4.72703 0
M  V30 15649 C 1437.33 2.90913 5.09496 0
M  V30 15650 C 1439.68 3.40737 5.32993 0
M  V30 15651 C 1438.34 3.76794 5.50983 0
M  V30 15652 H 1437.61 0.0398534 0.739927 0
M  V30 15653 H 1440.26 0.794492 1.74241 0
M  V30 15654 H 1438.57 -0.74453 3.84661 0
M  V30 15655 H 1440.26 -0.381139 3.99185 0
M  V30 15656 H 1436.85 1.04296 4.15717 0
M  V30 15657 H 1441.04 1.93181 4.57159 0
M  V30 15658 H 1436.29 3.1895 5.21614 0
M  V30 15659 H 1440.47 4.07919 5.64425 0
M  V30 15660 H 1438.09 4.71364 5.96423 0
M  V30 15661 N 1439.67 -1.53632 0.351409 0
M  V30 15662 C 1440.6 -2.28217 -0.49391 0
M  V30 15663 C 1441.58 -1.30085 -1.09599 0
M  V30 15664 O 1442.77 -1.58938 -1.1159 0
M  V30 15665 C 1439.9 -3.06085 -1.64102 0
M  V30 15666 C 1438.85 -4.11786 -1.16689 0
M  V30 15667 C 1438.18 -4.77654 -2.40314 0
M  V30 15668 C 1439.48 -5.21644 -0.261742 0
M  V30 15669 H 1441.17 -2.99125 0.1283 0
M  V30 15670 H 1438.72 -1.43861 0.0631462 0
M  V30 15671 H 1440.67 -3.57003 -2.2389 0
M  V30 15672 H 1439.39 -2.32842 -2.29025 0
M  V30 15673 H 1438.05 -3.61792 -0.591784 0
M  V30 15674 H 1437.7 -4.00997 -3.03661 0
M  V30 15675 H 1437.4 -5.49072 -2.09268 0
M  V30 15676 H 1438.92 -5.3136 -3.00813 0
M  V30 15677 H 1440.34 -5.6815 -0.766689 0
M  V30 15678 H 1438.73 -6.00085 -0.0428132 0
M  V30 15679 H 1439.8 -4.79821 0.699999 0
M  V30 15680 N 1441.15 -0.0802183 -1.57396 0
M  V30 15681 C 1442.1 0.894334 -2.09728 0
M  V30 15682 C 1443.08 1.25342 -1.00887 0
M  V30 15683 O 1444.27 1.23099 -1.27184 0
M  V30 15684 C 1441.4 2.15885 -2.66924 0
M  V30 15685 C 1440.49 1.82587 -3.82783 0
M  V30 15686 N 1440.88 1.19777 -4.91413 0
M  V30 15687 C 1439.18 2.12287 -3.92237 0
M  V30 15688 C 1439.88 1.04758 -5.72189 0
M  V30 15689 N 1438.85 1.56005 -5.20733 0
M  V30 15690 H 1442.66 0.404523 -2.91103 0
M  V30 15691 H 1440.17 0.123432 -1.6193 0
M  V30 15692 H 1442.17 2.8663 -3.02736 0
M  V30 15693 H 1440.83 2.65446 -1.86998 0
M  V30 15694 H 1441.84 0.866384 -5.10602 0
M  V30 15695 H 1438.52 2.64166 -3.23299 0
M  V30 15696 H 1439.91 0.55756 -6.69583 0
M  V30 15697 N 1442.63 1.56409 0.193394 0
M  V30 15698 C 1443.56 1.97707 1.24234 0
M  V30 15699 C 1444.54 0.849286 1.47381 0
M  V30 15700 O 1445.72 1.11374 1.59089 0
M  V30 15701 C 1442.85 2.31804 2.5862 0
M  V30 15702 C 1441.81 3.47337 2.50082 0
M  V30 15703 C 1441.13 3.67114 3.88756 0
M  V30 15704 C 1442.43 4.81472 2.02441 0
M  V30 15705 H 1444.13 2.8558 0.89914 0
M  V30 15706 H 1441.67 1.37396 0.431078 0
M  V30 15707 H 1443.62 2.5929 3.32185 0
M  V30 15708 H 1442.35 1.40816 2.94684 0
M  V30 15709 H 1441.01 3.19944 1.78973 0
M  V30 15710 H 1440.66 2.73454 4.22175 0
M  V30 15711 H 1440.36 4.44838 3.83918 0
M  V30 15712 H 1441.88 3.96978 4.6394 0
M  V30 15713 H 1443.29 5.07978 2.65766 0
M  V30 15714 H 1441.69 5.62677 2.08601 0
M  V30 15715 H 1442.76 4.74941 0.977704 0
M  V30 15716 N 1444.1 -0.461169 1.50702 0
M  V30 15717 C 1445.35 -1.21251 1.62186 0
M  V30 15718 C 1445.68 -1.91735 0.326818 0
M  V30 15719 O 1444.93 -1.83212 -0.687879 0
M  V30 15720 C 1445.23 -2.27213 2.75879 0
M  V30 15721 C 1444.9 -1.73912 4.16011 0
M  V30 15722 C 1443.56 -1.59097 4.54138 0
M  V30 15723 C 1445.91 -1.34477 5.03553 0
M  V30 15724 C 1443.24 -1.03285 5.77537 0
M  V30 15725 C 1445.59 -0.801027 6.27508 0
M  V30 15726 C 1444.26 -0.639586 6.64429 0
M  V30 15727 H 1443.53 -0.443689 0.593482 0
M  V30 15728 H 1446.17 -0.507035 1.84666 0
M  V30 15729 H 1444.48 -3.03707 2.47526 0
M  V30 15730 H 1446.18 -2.85124 2.81967 0
M  V30 15731 H 1442.77 -1.86413 3.85938 0
M  V30 15732 H 1446.95 -1.44753 4.74721 0
M  V30 15733 H 1442.21 -0.895316 6.04809 0
M  V30 15734 H 1446.38 -0.486842 6.94696 0
M  V30 15735 H 1444.01 -0.204966 7.59924 0
M  V30 15736 N 1445.58 -1.40446 -0.715026 0
M  V30 15737 C 1446.54 -1.40506 -1.81082 0
M  V30 15738 C 1447.54 -0.298768 -1.58 0
M  V30 15739 O 1448.73 -0.5577 -1.65031 0
M  V30 15740 C 1445.87 -1.19735 -3.19181 0
M  V30 15741 H 1447.06 -2.38034 -1.82427 0
M  V30 15742 H 1444.61 -1.26303 -0.920718 0
M  V30 15743 H 1445.35 -0.229695 -3.23486 0
M  V30 15744 H 1445.13 -1.99871 -3.37334 0
M  V30 15745 H 1446.62 -1.22566 -3.99208 0
M  V30 15746 N 1447.06 0.947303 -1.25952 0
M  V30 15747 C 1447.99 2.0625 -1.09467 0
M  V30 15748 C 1448.97 1.701 -0.00160498 0
M  V30 15749 O 1450.16 1.93432 -0.172501 0
M  V30 15750 C 1447.29 3.39746 -0.720392 0
M  V30 15751 C 1446.24 3.89935 -1.76451 0
M  V30 15752 C 1445.57 5.2001 -1.24472 0
M  V30 15753 C 1446.87 4.15496 -3.16481 0
M  V30 15754 H 1448.56 2.203 -2.02752 0
M  V30 15755 H 1446.11 1.05858 -0.97622 0
M  V30 15756 H 1448.06 4.17221 -0.591972 0
M  V30 15757 H 1446.78 3.25656 0.248161 0
M  V30 15758 H 1445.44 3.14635 -1.8815 0
M  V30 15759 H 1445.09 5.02295 -0.266182 0
M  V30 15760 H 1444.79 5.54559 -1.94263 0
M  V30 15761 H 1446.31 6.00075 -1.12884 0
M  V30 15762 H 1447.73 4.83605 -3.07894 0
M  V30 15763 H 1446.12 4.61315 -3.83808 0
M  V30 15764 H 1447.19 3.21501 -3.62995 0
M  V30 15765 N 1448.54 1.07657 1.15099 0
M  V30 15766 C 1449.47 0.643791 2.18931 0
M  V30 15767 C 1450.45 -0.340546 1.58994 0
M  V30 15768 O 1451.63 -0.24623 1.86885 0
M  V30 15769 C 1448.76 -0.0541901 3.38657 0
M  V30 15770 C 1447.81 0.889081 4.1713 0
M  V30 15771 S 1448.64 2.39173 4.79121 0
M  V30 15772 C 1449.8 1.70563 6.02212 0
M  V30 15773 H 1450.03 1.52342 2.55302 0
M  V30 15774 H 1447.56 0.890824 1.2611 0
M  V30 15775 H 1449.52 -0.45064 4.08019 0
M  V30 15776 H 1448.18 -0.910208 3.00623 0
M  V30 15777 H 1447.37 0.347484 5.02801 0
M  V30 15778 H 1446.98 1.22606 3.53332 0
M  V30 15779 H 1449.27 1.01914 6.69791 0
M  V30 15780 H 1450.21 2.54078 6.60946 0
M  V30 15781 H 1450.62 1.18228 5.51981 0
M  V30 15782 N 1450.02 -1.31994 0.861122 0
M  V30 15783 C 1451.43 -1.49756 0.551844 0
M  V30 15784 C 1451.63 -1.79473 -0.916056 0
M  V30 15785 O 1450.69 -1.86813 -1.69874 0
M  V30 15786 C 1452 -2.63737 1.44442 0
M  V30 15787 C 1453.55 -2.77621 1.44552 0
M  V30 15788 C 1454.02 -3.94689 2.32346 0
M  V30 15789 N 1455.52 -4.01961 2.30177 0
M  V30 15790 C 1456.25 -4.91794 2.94833 0
M  V30 15791 N 1455.75 -5.86589 3.68626 0
M  V30 15792 N 1457.54 -4.84968 2.84188 0
M  V30 15793 H 1449.69 -1.10972 1.81105 0
M  V30 15794 H 1451.95 -0.54753 0.773896 0
M  V30 15795 H 1451.66 -2.48526 2.48853 0
M  V30 15796 H 1451.53 -3.59671 1.13651 0
M  V30 15797 H 1453.92 -2.92251 0.409034 0
M  V30 15798 H 1454 -1.8238 1.79363 0
M  V30 15799 H 1453.65 -3.80817 3.36067 0
M  V30 15800 H 1453.58 -4.89219 1.94865 0
M  V30 15801 H 1456.07 -3.34132 1.76533 0
M  V30 15802 H 1456.38 -6.51846 4.15111 0
M  V30 15803 H 1454.72 -5.86596 3.72734 0
M  V30 15804 H 1457.92 -4.09883 2.26084 0
M  V30 15805 H 1458.09 -5.54774 3.34857 0
M  V30 15806 N 1451.49 -0.619688 -1.44906 0
M  V30 15807 C 1452.46 0.0822364 -2.29052 0
M  V30 15808 C 1453.46 0.783427 -1.40425 0
M  V30 15809 O 1454.65 0.629751 -1.62419 0
M  V30 15810 C 1451.78 1.12685 -3.21737 0
M  V30 15811 H 1452.97 -0.657726 -2.92599 0
M  V30 15812 H 1450.53 -0.379286 -1.51628 0
M  V30 15813 H 1451.26 1.89717 -2.63017 0
M  V30 15814 H 1451.05 0.628122 -3.87036 0
M  V30 15815 H 1452.54 1.61808 -3.84978 0
M  V30 15816 N 1452.97 1.53444 -0.359552 0
M  V30 15817 C 1453.94 2.24173 0.477412 0
M  V30 15818 C 1454.94 1.24747 1.01464 0
M  V30 15819 O 1456.13 1.49069 0.901343 0
M  V30 15820 C 1453.26 2.9738 1.66667 0
M  V30 15821 H 1454.45 2.99566 -0.141407 0
M  V30 15822 H 1452 1.55904 -0.111143 0
M  V30 15823 H 1452.74 2.26214 2.32374 0
M  V30 15824 H 1452.52 3.70325 1.28848 0
M  V30 15825 H 1454.01 3.51165 2.25994 0
M  V30 15826 N 1454.45 0.0885642 1.57351 0
M  V30 15827 C 1455.7 -0.575536 1.93732 0
M  V30 15828 C 1456.02 -1.69126 0.970644 0
M  V30 15829 O 1455.29 -1.95888 0.0215907 0
M  V30 15830 H 1453.87 -0.215592 0.715213 0
M  V30 15831 H 1456.53 0.150362 1.94319 0
M  V30 15832 H 1455.63 -0.989979 2.95983 0
M  V30 15833 N 1455.93 -1.56509 -0.185096 0
M  V30 15834 C 1456.86 -1.98363 -1.23184 0
M  V30 15835 C 1457.84 -0.85709 -1.46929 0
M  V30 15836 O 1459.02 -1.12216 -1.58497 0
M  V30 15837 C 1456.15 -2.33172 -2.57387 0
M  V30 15838 C 1455.11 -3.48658 -2.48236 0
M  V30 15839 C 1454.43 -3.69171 -3.86804 0
M  V30 15840 C 1455.73 -4.82538 -1.99885 0
M  V30 15841 H 1457.43 -2.86053 -0.883982 0
M  V30 15842 H 1454.97 -1.37623 -0.423786 0
M  V30 15843 H 1456.93 -2.61048 -3.30805 0
M  V30 15844 H 1455.65 -1.42377 -2.93933 0
M  V30 15845 H 1454.31 -3.20889 -1.77273 0
M  V30 15846 H 1453.96 -2.75689 -4.20719 0
M  V30 15847 H 1453.66 -4.46868 -3.81553 0
M  V30 15848 H 1455.18 -3.99433 -4.61829 0
M  V30 15849 H 1456.6 -5.0938 -2.63068 0
M  V30 15850 H 1454.99 -5.63775 -2.05614 0
M  V30 15851 H 1456.06 -4.75453 -0.952503 0
M  V30 15852 N 1457.41 0.45317 -1.50944 0
M  V30 15853 C 1458.82 1.03354 -1.55482 0
M  V30 15854 C 1459.17 1.92701 -0.368873 0
M  V30 15855 O 1458.29 2.10153 0.516208 0
M  V30 15856 C 1458.89 1.88118 -2.81775 0
M  V30 15857 C 1457.45 2.41232 -2.88936 0
M  V30 15858 C 1456.59 1.20032 -2.49975 0
M  V30 15859 H 1459.55 0.235059 -1.5695 0
M  V30 15860 H 1459.57 2.73394 -2.64643 0
M  V30 15861 H 1459.08 1.23064 -3.68072 0
M  V30 15862 H 1457.18 3.09788 -2.07032 0
M  V30 15863 H 1457.29 2.75113 -3.92237 0
M  V30 15864 H 1455.66 1.54072 -2.02815 0
M  V30 15865 H 1456.44 0.56612 -3.386 0
M  V30 15866 N 1458.88 1.40823 0.707568 0
M  V30 15867 C 1459.79 1.44058 1.85161 0
M  V30 15868 C 1460.81 0.332357 1.70796 0
M  V30 15869 O 1461.99 0.578205 1.92922 0
M  V30 15870 C 1459.05 1.3091 3.21035 0
M  V30 15871 C 1458.11 2.51944 3.47595 0
M  V30 15872 C 1457.35 2.39414 4.76987 0
M  V30 15873 O 1457.57 1.41224 5.52641 0
M  V30 15874 O 1456.5 3.28944 5.04063 0
M  V30 15875 H 1460.33 2.40551 1.85388 0
M  V30 15876 H 1457.91 1.22232 0.859052 0
M  V30 15877 H 1459.8 1.25816 4.02179 0
M  V30 15878 H 1458.47 0.375263 3.21517 0
M  V30 15879 H 1457.38 2.62615 2.66428 0
M  V30 15880 H 1458.71 3.44115 3.51917 0
M  V30 15881 N 1460.36 -0.94061 1.26453 0
M  V30 15882 C 1461.29 -2.05667 1.10559 0
M  V30 15883 C 1462.27 -1.70097 0.0106258 0
M  V30 15884 O 1463.46 -1.93338 0.182756 0
M  V30 15885 C 1460.59 -3.3936 0.7384 0
M  V30 15886 C 1459.54 -3.88993 1.78517 0
M  V30 15887 C 1458.87 -5.19343 1.27228 0
M  V30 15888 C 1460.17 -4.13812 3.1868 0
M  V30 15889 H 1461.86 -2.19221 2.03918 0
M  V30 15890 H 1459.41 -1.05339 0.98182 0
M  V30 15891 H 1461.36 -4.16902 0.61409 0
M  V30 15892 H 1460.09 -3.25783 -0.230887 0
M  V30 15893 H 1458.74 -3.13633 1.89816 0
M  V30 15894 H 1458.39 -5.02147 0.292816 0
M  V30 15895 H 1458.09 -5.53521 1.97201 0
M  V30 15896 H 1459.62 -5.99468 1.16065 0
M  V30 15897 H 1461.03 -4.81966 3.10455 0
M  V30 15898 H 1459.43 -4.59273 3.86249 0
M  V30 15899 H 1460.5 -3.19571 3.64695 0
M  V30 15900 N 1461.84 -1.08266 -1.14527 0
M  V30 15901 C 1463.07 -0.832994 -1.89937 0
M  V30 15902 C 1463.49 0.608985 -1.77969 0
M  V30 15903 O 1462.85 1.42657 -1.11887 0
M  V30 15904 C 1462.9 -1.25782 -3.37952 0
M  V30 15905 O 1462 -0.408853 -4.10368 0
M  V30 15906 H 1461.34 -0.30267 -0.591005 0
M  V30 15907 H 1463.87 -1.44371 -1.44977 0
M  V30 15908 H 1463.88 -1.23804 -3.88763 0
M  V30 15909 H 1462.56 -2.30804 -3.4598 0
M  V30 15910 H 1461.13 -0.49192 -3.69641 0
M  V30 15911 N 1463.32 1.31536 -0.86811 0
M  V30 15912 C 1464.56 1.98573 -0.484592 0
M  V30 15913 C 1464.92 1.6713 0.945066 0
M  V30 15914 O 1466.12 2.27364 1.43384 0
M  V30 15915 C 1464.4 3.49817 -0.732305 0
M  V30 15916 S 1465.95 4.36503 -0.448369 0
M  V30 15917 H 1462.77 0.687584 -0.180969 0
M  V30 15918 H 1465.37 1.59976 -1.12373 0
M  V30 15919 H 1464.08 3.70191 -1.77163 0
M  V30 15920 H 1463.61 3.93318 -0.0800886 0
M  V30 15921 H 1465.62 4.90947 0.720116 0
M  V30 15922 N 1464.8 0.627364 1.44575 0
M  V30 15923 C 1466.02 0.135576 2.06956 0
M  V30 15924 C 1466.45 -1.17922 1.46547 0
M  V30 15925 O 1465.81 -1.72255 0.565509 0
M  V30 15926 C 1465.85 0.030347 3.60587 0
M  V30 15927 O 1464.96 -1.01464 3.99724 0
M  V30 15928 H 1464.3 0.083058 0.658785 0
M  V30 15929 H 1466.83 0.862977 1.8551 0
M  V30 15930 H 1466.84 -0.161461 4.0768 0
M  V30 15931 H 1465.51 0.990285 4.03938 0
M  V30 15932 H 1464.09 -0.797701 3.64268 0
M  V30 15933 N 1466.28 -1.53251 0.367684 0
M  V30 15934 C 1467.22 -2.258 -0.477802 0
M  V30 15935 C 1468.19 -1.26554 -1.07579 0
M  V30 15936 O 1469.38 -1.5534 -1.10788 0
M  V30 15937 C 1466.52 -3.05216 -1.6105 0
M  V30 15938 C 1465.63 -4.19357 -1.03748 0
M  V30 15939 C 1464.77 -4.86211 -2.13945 0
M  V30 15940 C 1463.8 -5.9238 -1.5412 0
M  V30 15941 N 1462.94 -6.52916 -2.58158 0
M  V30 15942 H 1467.78 -2.97635 0.147367 0
M  V30 15943 H 1465.32 -1.46857 0.084495 0
M  V30 15944 H 1467.28 -3.49536 -2.27772 0
M  V30 15945 H 1465.91 -2.35632 -2.20629 0
M  V30 15946 H 1464.96 -3.79507 -0.260476 0
M  V30 15947 H 1466.27 -4.95645 -0.560105 0
M  V30 15948 H 1465.42 -5.33725 -2.88483 0
M  V30 15949 H 1464.16 -4.09399 -2.65035 0
M  V30 15950 H 1463.17 -5.44225 -0.780968 0
M  V30 15951 H 1464.39 -6.71112 -1.03852 0
M  V30 15952 H 1462.34 -5.78956 -3.08457 0
M  V30 15953 H 1462.26 -7.2475 -2.15113 0
M  V30 15954 H 1463.52 -7.05079 -3.32392 0
M  V30 15955 N 1467.75 -0.0969077 -1.57302 0
M  V30 15956 C 1469.03 0.608737 -1.85886 0
M  V30 15957 C 1469.41 1.86228 -0.994096 0
M  V30 15958 O 1468.76 2.28402 -0.0669975 0
M  V30 15959 C 1468.97 0.922385 -3.3659 0
M  V30 15960 C 1470.32 1.28505 -4.04687 0
M  V30 15961 O 1471.34 1.01334 -3.41482 0
M  V30 15962 O 1470.2 1.794 -5.16215 0
M  V30 15963 H 1467.29 0.304808 -0.768779 0
M  V30 15964 H 1469.84 -0.129742 -1.69203 0
M  V30 15965 H 1468.61 0.0331488 -3.91286 0
M  V30 15966 H 1468.23 1.71678 -3.58626 0
M  V30 15967 N 1469.23 1.56605 0.176793 0
M  V30 15968 C 1470.48 1.80875 0.892578 0
M  V30 15969 C 1470.79 0.673245 1.83648 0
M  V30 15970 O 1472 0.800732 2.59423 0
M  V30 15971 C 1470.46 3.20481 1.63768 0
M  V30 15972 C 1470.06 4.41885 0.737685 0
M  V30 15973 C 1471.81 3.54048 2.34202 0
M  V30 15974 C 1469.71 5.72512 1.48271 0
M  V30 15975 H 1468.64 0.674476 0.337042 0
M  V30 15976 H 1471.3 1.82922 0.145574 0
M  V30 15977 H 1469.68 3.12736 2.42924 0
M  V30 15978 H 1470.85 4.60797 -0.0165186 0
M  V30 15979 H 1469.17 4.16153 0.143277 0
M  V30 15980 H 1471.76 4.48886 2.90526 0
M  V30 15981 H 1472.11 2.78665 3.09276 0
M  V30 15982 H 1472.64 3.63322 1.61995 0
M  V30 15983 H 1469.38 6.5091 0.774399 0
M  V30 15984 H 1468.9 5.57586 2.21038 0
M  V30 15985 H 1470.58 6.14274 2.03165 0
M  V30 15986 N 1470.71 -0.445159 1.51182 0
M  V30 15987 C 1471.64 -1.55788 1.68115 0
M  V30 15988 C 1472.65 -1.52793 0.561964 0
M  V30 15989 O 1473.84 -1.57711 0.836029 0
M  V30 15990 C 1470.94 -2.94702 1.67344 0
M  V30 15991 C 1470.12 -3.22286 2.9572 0
M  V30 15992 C 1469.18 -4.40884 2.87241 0
M  V30 15993 O 1468.2 -4.3992 3.61191 0
M  V30 15994 N 1469.4 -5.44013 2.02558 0
M  V30 15995 H 1472.17 -1.4167 2.64102 0
M  V30 15996 H 1469.73 -0.633984 1.48971 0
M  V30 15997 H 1471.72 -3.7205 1.5925 0
M  V30 15998 H 1470.29 -3.02457 0.789842 0
M  V30 15999 H 1469.51 -2.33309 3.17743 0
M  V30 16000 H 1470.8 -3.3754 3.80715 0
M  V30 16001 H 1470.2 -5.47629 1.4184 0
M  V30 16002 H 1468.75 -6.20245 2.0035 0
M  V30 16003 N 1472.19 -1.41197 -0.700089 0
M  V30 16004 C 1473.42 -1.43449 -1.4868 0
M  V30 16005 C 1473.83 -0.0368799 -1.89164 0
M  V30 16006 O 1473.17 0.953129 -1.57039 0
M  V30 16007 C 1473.23 -2.27583 -2.78291 0
M  V30 16008 C 1472.89 -3.75805 -2.60038 0
M  V30 16009 C 1473.89 -4.68074 -2.2628 0
M  V30 16010 C 1471.58 -4.19796 -2.75819 0
M  V30 16011 C 1473.57 -6.02322 -2.08535 0
M  V30 16012 C 1471.26 -5.5411 -2.57692 0
M  V30 16013 C 1472.26 -6.45189 -2.24099 0
M  V30 16014 O 1471.94 -7.77025 -2.06125 0
M  V30 16015 H 1471.68 -0.490779 -0.464879 0
M  V30 16016 H 1474.23 -1.86071 -0.869864 0
M  V30 16017 H 1472.46 -1.79767 -3.42375 0
M  V30 16018 H 1474.15 -2.21591 -3.40077 0
M  V30 16019 H 1474.91 -4.35379 -2.13707 0
M  V30 16020 H 1470.79 -3.49213 -3.0095 0
M  V30 16021 H 1474.34 -6.73376 -1.82238 0
M  V30 16022 H 1470.23 -5.86386 -2.69854 0
M  V30 16023 H 1471 -7.88121 -2.20924 0
M  V30 16024 N 1473.67 0.933891 -1.2695 0
M  V30 16025 C 1474.6 2.05078 -1.11649 0
M  V30 16026 C 1475.58 1.70089 -0.0196463 0
M  V30 16027 O 1476.76 1.93239 -0.193007 0
M  V30 16028 C 1473.89 3.38963 -0.756387 0
M  V30 16029 C 1472.85 3.88041 -1.80577 0
M  V30 16030 C 1472.17 5.18661 -1.2998 0
M  V30 16031 C 1473.47 4.12116 -3.2087 0
M  V30 16032 H 1475.17 2.18137 -2.05077 0
M  V30 16033 H 1472.71 1.04817 -0.987392 0
M  V30 16034 H 1474.66 4.1657 -0.63619 0
M  V30 16035 H 1473.39 3.25901 0.213607 0
M  V30 16036 H 1472.05 3.12622 -1.91477 0
M  V30 16037 H 1471.7 5.01985 -0.319442 0
M  V30 16038 H 1471.4 5.52467 -2.00134 0
M  V30 16039 H 1472.92 5.98844 -1.19242 0
M  V30 16040 H 1474.33 4.80312 -3.13006 0
M  V30 16041 H 1472.73 4.57218 -3.88679 0
M  V30 16042 H 1473.8 3.17633 -3.66384 0
M  V30 16043 N 1475.14 1.08871 1.13951 0
M  V30 16044 C 1476.09 0.722966 2.19184 0
M  V30 16045 C 1477.06 -0.293108 1.63493 0
M  V30 16046 O 1478.25 -0.176036 1.89986 0
M  V30 16047 C 1475.39 0.143542 3.44801 0
M  V30 16048 C 1474.5 1.21297 4.14622 0
M  V30 16049 C 1473.63 0.596902 5.27836 0
M  V30 16050 C 1472.67 1.64803 5.89497 0
M  V30 16051 N 1471.81 1.05341 6.94152 0
M  V30 16052 H 1476.65 1.62464 2.49819 0
M  V30 16053 H 1474.19 0.811803 1.22671 0
M  V30 16054 H 1476.14 -0.210153 4.1667 0
M  V30 16055 H 1474.77 -0.721426 3.14635 0
M  V30 16056 H 1473.83 1.68403 3.41093 0
M  V30 16057 H 1475.14 2.00931 4.56539 0
M  V30 16058 H 1474.29 0.191724 6.06397 0
M  V30 16059 H 1473.03 -0.231052 4.87152 0
M  V30 16060 H 1472.04 2.06282 5.09635 0
M  V30 16061 H 1473.26 2.47855 6.32254 0
M  V30 16062 H 1471.21 0.24664 6.55536 0
M  V30 16063 H 1471.12 1.7868 7.34581 0
M  V30 16064 H 1472.39 0.674253 7.76578 0
M  V30 16065 N 1476.62 -1.31073 0.875073 0
M  V30 16066 C 1477.9 -1.91276 0.409015 0
M  V30 16067 C 1478.28 -1.79599 -1.10939 0
M  V30 16068 O 1477.63 -1.2069 -1.94026 0
M  V30 16069 C 1477.84 -3.373 0.896074 0
M  V30 16070 C 1479.18 -4.14397 0.925205 0
M  V30 16071 O 1480.21 -3.46104 0.842069 0
M  V30 16072 O 1479.07 -5.36389 1.0464 0
M  V30 16073 H 1476.16 -0.817755 0.12331 0
M  V30 16074 H 1478.71 -1.39708 0.963322 0
M  V30 16075 H 1477.48 -3.39837 1.93975 0
M  V30 16076 H 1477.1 -3.96307 0.320367 0
M  V30 16077 N 1478.1 -0.635022 -1.4424 0
M  V30 16078 C 1479.33 -0.146549 -2.06882 0
M  V30 16079 C 1479.75 1.17143 -1.4717 0
M  V30 16080 O 1479.11 1.71952 -0.574636 0
M  V30 16081 C 1479.16 -0.0494694 -3.60566 0
M  V30 16082 O 1478.26 0.993423 -4.00256 0
M  V30 16083 H 1477.6 -0.0865505 -0.658335 0
M  V30 16084 H 1480.13 -0.872803 -1.85049 0
M  V30 16085 H 1480.14 0.139839 -4.0776 0
M  V30 16086 H 1478.82 -1.01169 -4.03407 0
M  V30 16087 H 1477.39 0.778372 -3.64686 0
M  V30 16088 N 1479.58 1.53054 -0.375806 0
M  V30 16089 C 1480.51 2.28973 0.45754 0
M  V30 16090 C 1481.49 1.31812 1.07516 0
M  V30 16091 O 1482.67 1.60693 1.09048 0
M  V30 16092 C 1479.8 3.08657 1.59212 0
M  V30 16093 C 1478.76 4.1359 1.10123 0
M  V30 16094 C 1478.08 4.81417 2.32684 0
M  V30 16095 C 1479.38 5.21994 0.17872 0
M  V30 16096 H 1481.08 2.98883 -0.175872 0
M  V30 16097 H 1478.62 1.43743 -0.0860253 0
M  V30 16098 H 1480.58 3.6052 2.18182 0
M  V30 16099 H 1479.3 2.36456 2.25291 0
M  V30 16100 H 1477.96 3.62688 0.534151 0
M  V30 16101 H 1477.61 4.05778 2.97243 0
M  V30 16102 H 1477.31 5.52332 2.00506 0
M  V30 16103 H 1478.83 5.36079 2.92322 0
M  V30 16104 H 1480.25 5.69298 0.676204 0
M  V30 16105 H 1478.64 6.00077 -0.0526605 0
M  V30 16106 H 1479.71 4.78646 -0.776246 0
M  V30 16107 N 1481.06 0.105248 1.57248 0
M  V30 16108 C 1482.02 -0.835589 2.13426 0
M  V30 16109 C 1483.02 -1.20398 1.06587 0
M  V30 16110 O 1484.21 -1.13175 1.32428 0
M  V30 16111 C 1481.34 -2.12806 2.6632 0
M  V30 16112 H 1482.53 -0.347606 2.97879 0
M  V30 16113 H 1480.09 -0.143855 1.55637 0
M  V30 16114 H 1480.82 -2.66066 1.85416 0
M  V30 16115 H 1480.61 -1.87352 3.44444 0
M  V30 16116 H 1482.1 -2.80089 3.09741 0
M  V30 16117 N 1482.53 -1.56697 -0.168486 0
M  V30 16118 C 1483.46 -1.99659 -1.21073 0
M  V30 16119 C 1484.45 -0.872625 -1.46011 0
M  V30 16120 O 1485.63 -1.13891 -1.57297 0
M  V30 16121 C 1482.76 -2.35889 -2.54899 0
M  V30 16122 C 1481.71 -3.51272 -2.44524 0
M  V30 16123 C 1481.04 -3.73253 -3.82866 0
M  V30 16124 C 1482.34 -4.84631 -1.94756 0
M  V30 16125 H 1484.03 -2.86974 -0.853593 0
M  V30 16126 H 1481.58 -1.38065 -0.409165 0
M  V30 16127 H 1483.53 -2.64542 -3.28017 0
M  V30 16128 H 1482.26 -1.45486 -2.92406 0
M  V30 16129 H 1480.92 -3.22751 -1.7386 0
M  V30 16130 H 1480.56 -2.80136 -4.17772 0
M  V30 16131 H 1480.26 -4.5089 -3.76792 0
M  V30 16132 H 1481.79 -4.04309 -4.57566 0
M  V30 16133 H 1483.2 -5.12142 -2.5765 0
M  V30 16134 H 1481.6 -5.65925 -1.99623 0
M  V30 16135 H 1482.67 -4.76436 -0.902021 0
M  V30 16136 N 1484.01 0.437135 -1.51416 0
M  V30 16137 C 1485.26 1.18421 -1.63771 0
M  V30 16138 C 1485.58 1.91718 -0.356282 0
M  V30 16139 O 1484.85 1.85566 0.627863 0
M  V30 16140 H 1483.43 0.440125 -0.603572 0
M  V30 16141 H 1486.09 0.501155 -1.88347 0
M  V30 16142 H 1485.19 1.91367 -2.46546 0
M  V30 16143 N 1485.49 1.41566 0.692592 0
M  V30 16144 C 1486.44 1.43648 1.80648 0
M  V30 16145 C 1487.41 0.290497 1.6354 0
M  V30 16146 O 1488.59 0.491979 1.84348 0
M  V30 16147 C 1485.73 1.32733 3.18553 0
M  V30 16148 C 1484.85 2.57224 3.47073 0
M  V30 16149 C 1483.98 2.38581 4.74608 0
M  V30 16150 C 1483.02 3.58534 4.96105 0
M  V30 16151 N 1482.16 3.38942 6.14868 0
M  V30 16152 H 1487 2.38847 1.78203 0
M  V30 16153 H 1484.53 1.186 0.870193 0
M  V30 16154 H 1486.49 1.24405 3.9822 0
M  V30 16155 H 1485.12 0.411407 3.20168 0
M  V30 16156 H 1484.17 2.7599 2.6179 0
M  V30 16157 H 1485.49 3.46443 3.58858 0
M  V30 16158 H 1484.64 2.27738 5.62335 0
M  V30 16159 H 1483.38 1.46824 4.65074 0
M  V30 16160 H 1482.38 3.69828 4.06826 0
M  V30 16161 H 1483.61 4.51248 5.07496 0
M  V30 16162 H 1481.55 2.49887 6.06541 0
M  V30 16163 H 1481.47 4.21737 6.27434 0
M  V30 16164 H 1482.74 3.31877 7.05321 0
M  V30 16165 N 1486.97 -0.927146 1.27443 0
M  V30 16166 C 1488.2 -1.70896 1.16629 0
M  V30 16167 C 1488.61 -1.8676 -0.276811 0
M  V30 16168 O 1487.97 -1.38503 -1.18842 0
M  V30 16169 C 1488.02 -3.1083 1.84573 0
M  V30 16170 O 1487.74 -2.9571 3.23244 0
M  V30 16171 C 1489.24 -4.05159 1.79891 0
M  V30 16172 H 1486.46 -0.534638 0.405467 0
M  V30 16173 H 1489.01 -1.16134 1.68325 0
M  V30 16174 H 1487.16 -3.6245 1.3678 0
M  V30 16175 H 1487.57 -3.84181 3.57079 0
M  V30 16176 H 1489.05 -5.00859 2.32044 0
M  V30 16177 H 1489.53 -4.32426 0.768373 0
M  V30 16178 H 1490.13 -3.59464 2.273 0
M  V30 16179 N 1488.45 -1.09474 -1.13372 0
M  V30 16180 C 1489.36 -0.746674 -2.224 0
M  V30 16181 C 1490.37 0.251572 -1.72172 0
M  V30 16182 O 1491.55 0.092793 -2.01186 0
M  V30 16183 C 1488.61 -0.172965 -3.46268 0
M  V30 16184 C 1487.67 -1.22722 -4.11385 0
M  V30 16185 C 1486.91 -0.680794 -5.2934 0
M  V30 16186 O 1487.13 0.496135 -5.68238 0
M  V30 16187 O 1486.06 -1.43605 -5.84518 0
M  V30 16188 H 1489.89 -1.65649 -2.54547 0
M  V30 16189 H 1487.48 -0.869172 -1.21514 0
M  V30 16190 H 1489.36 0.143629 -4.21155 0
M  V30 16191 H 1488.03 0.709853 -3.15821 0
M  V30 16192 H 1486.94 -1.59652 -3.38323 0
M  V30 16193 H 1488.27 -2.0827 -4.45965 0
M  V30 16194 N 1489.92 1.30607 -0.882012 0
M  V30 16195 C 1490.83 2.31967 -0.350503 0
M  V30 16196 C 1491.85 1.6522 0.54575 0
M  V30 16197 O 1493.03 1.96544 0.439581 0
M  V30 16198 C 1490.09 3.44037 0.428924 0
M  V30 16199 C 1489.15 4.26417 -0.496727 0
M  V30 16200 C 1488.39 5.33135 0.245597 0
M  V30 16201 O 1488.61 5.51077 1.47209 0
M  V30 16202 O 1487.54 6.00551 -0.402767 0
M  V30 16203 H 1491.37 2.79374 -1.19095 0
M  V30 16204 H 1488.95 1.34723 -0.645754 0
M  V30 16205 H 1490.84 4.12314 0.870346 0
M  V30 16206 H 1489.51 2.9877 1.24573 0
M  V30 16207 H 1488.42 3.60848 -0.986899 0
M  V30 16208 H 1489.75 4.7528 -1.27945 0
M  V30 16209 N 1491.4 0.642663 1.43901 0
M  V30 16210 C 1492.31 -0.0562462 2.34533 0
M  V30 16211 C 1493.33 -0.823457 1.53281 0
M  V30 16212 O 1494.5 -0.773103 1.85971 0
M  V30 16213 C 1491.57 -1.01787 3.31422 0
M  V30 16214 C 1490.63 -0.248759 4.28579 0
M  V30 16215 C 1489.86 -1.16458 5.20839 0
M  V30 16216 O 1490.09 -2.40361 5.17284 0
M  V30 16217 O 1489.02 -0.642671 5.98459 0
M  V30 16218 H 1492.85 0.689476 2.9577 0
M  V30 16219 H 1490.43 0.402847 1.43866 0
M  V30 16220 H 1492.31 -1.5708 3.91029 0
M  V30 16221 H 1490.99 -1.744 2.72702 0
M  V30 16222 H 1489.9 0.347495 3.72483 0
M  V30 16223 H 1491.23 0.437589 4.90251 0
M  V30 16224 N 1492.88 -1.52852 0.383918 0
M  V30 16225 C 1493.84 -2.24904 -0.441687 0
M  V30 16226 C 1494.84 -1.26345 -0.99466 0
M  V30 16227 O 1496.03 -1.50484 -0.877513 0
M  V30 16228 C 1493.17 -2.99994 -1.61915 0
M  V30 16229 H 1494.36 -2.99304 0.189047 0
M  V30 16230 H 1491.91 -1.55708 0.135932 0
M  V30 16231 H 1492.65 -2.29882 -2.28746 0
M  V30 16232 H 1492.43 -3.72328 -1.2294 0
M  V30 16233 H 1493.92 -3.54716 -2.20378 0
M  V30 16234 N 1494.36 -0.113586 -1.5719 0
M  V30 16235 C 1495.29 0.835363 -2.18046 0
M  V30 16236 C 1496.27 1.28114 -1.11897 0
M  V30 16237 O 1497.46 1.34472 -1.40111 0
M  V30 16238 C 1494.59 2.08759 -2.77556 0
M  V30 16239 C 1493.54 1.77979 -3.8924 0
M  V30 16240 C 1492.87 3.10185 -4.35533 0
M  V30 16241 C 1494.17 1.05231 -5.11589 0
M  V30 16242 H 1495.86 0.328275 -2.97595 0
M  V30 16243 H 1493.41 0.156456 -1.43148 0
M  V30 16244 H 1495.36 2.75597 -3.18785 0
M  V30 16245 H 1494.08 2.61783 -1.95288 0
M  V30 16246 H 1492.74 1.13532 -3.48577 0
M  V30 16247 H 1492.39 3.61133 -3.50131 0
M  V30 16248 H 1492.09 2.90367 -5.10843 0
M  V30 16249 H 1493.61 3.78151 -4.7941 0
M  V30 16250 H 1495.03 1.62213 -5.49872 0
M  V30 16251 H 1493.42 0.955269 -5.92448 0
M  V30 16252 H 1494.49 0.038137 -4.84885 0
M  V30 16253 N 1495.84 1.56784 0.160173 0
M  V30 16254 C 1496.78 1.97267 1.1981 0
M  V30 16255 C 1497.75 0.83824 1.43397 0
M  V30 16256 O 1498.94 1.09926 1.55952 0
M  V30 16257 C 1496.08 2.34725 2.52979 0
M  V30 16258 C 1495.19 3.61397 2.36677 0
M  V30 16259 C 1494.33 3.88018 3.62789 0
M  V30 16260 C 1493.37 5.08002 3.41468 0
M  V30 16261 N 1492.5 5.30699 4.59677 0
M  V30 16262 H 1497.34 2.85743 0.845878 0
M  V30 16263 H 1494.88 1.41379 0.406249 0
M  V30 16264 H 1496.84 2.54468 3.30608 0
M  V30 16265 H 1495.47 1.49345 2.86175 0
M  V30 16266 H 1494.52 3.49505 1.50167 0
M  V30 16267 H 1495.83 4.49185 2.16875 0
M  V30 16268 H 1494.99 4.08188 4.48851 0
M  V30 16269 H 1493.73 2.98627 3.85582 0
M  V30 16270 H 1492.73 4.87718 2.53793 0
M  V30 16271 H 1493.96 5.98934 3.20086 0
M  V30 16272 H 1491.9 4.44261 4.82668 0
M  V30 16273 H 1491.82 6.1273 4.42829 0
M  V30 16274 H 1493.09 5.55357 5.46991 0
M  V30 16275 N 1497.32 -0.429099 1.51646 0
M  V30 16276 C 1498.27 -1.52004 1.69937 0
M  V30 16277 C 1499.25 -1.51087 0.5533 0
M  V30 16278 O 1500.44 -1.57401 0.809558 0
M  V30 16279 C 1497.57 -2.90123 1.83531 0
M  V30 16280 C 1496.66 -2.95764 3.03948 0
M  V30 16281 N 1497.05 -2.71135 4.26989 0
M  V30 16282 C 1495.35 -3.26927 3.03372 0
M  V30 16283 C 1496.05 -2.82831 5.08312 0
M  V30 16284 N 1495.02 -3.14856 4.43133 0
M  V30 16285 H 1498.82 -1.31726 2.62727 0
M  V30 16286 H 1496.34 -0.63653 1.49406 0
M  V30 16287 H 1498.34 -3.68618 1.94747 0
M  V30 16288 H 1497 -3.11415 0.919285 0
M  V30 16289 H 1498.01 -2.45906 4.55797 0
M  V30 16290 H 1494.68 -3.53941 2.21432 0
M  V30 16291 H 1496.07 -2.67673 6.1628 0
M  V30 16292 N 1498.79 -1.41931 -0.685074 0
M  V30 16293 C 1500.04 -1.41852 -1.44514 0
M  V30 16294 C 1500.37 -0.0313137 -1.94475 0
M  V30 16295 O 1499.62 0.958606 -1.70614 0
M  V30 16296 C 1499.92 -2.38099 -2.6654 0
M  V30 16297 C 1499.59 -3.8471 -2.35178 0
M  V30 16298 C 1498.25 -4.24647 -2.26336 0
M  V30 16299 C 1500.6 -4.77232 -2.0952 0
M  V30 16300 C 1497.93 -5.55101 -1.89947 0
M  V30 16301 C 1500.28 -6.08017 -1.74638 0
M  V30 16302 C 1498.95 -6.46964 -1.64299 0
M  V30 16303 H 1498.22 -0.519072 -0.528815 0
M  V30 16304 H 1500.86 -1.74802 -0.782078 0
M  V30 16305 H 1499.17 -1.9844 -3.3783 0
M  V30 16306 H 1500.87 -2.35306 -3.24703 0
M  V30 16307 H 1497.46 -3.53085 -2.42959 0
M  V30 16308 H 1501.64 -4.47173 -2.1529 0
M  V30 16309 H 1496.9 -5.84148 -1.80503 0
M  V30 16310 H 1501.07 -6.79203 -1.53807 0
M  V30 16311 H 1498.7 -7.47959 -1.35871 0
M  V30 16312 N 1500.27 0.920374 -1.27933 0
M  V30 16313 C 1501.69 1.19761 -1.05496 0
M  V30 16314 C 1501.89 2.00435 0.206864 0
M  V30 16315 O 1500.94 2.35518 0.910356 0
M  V30 16316 C 1502.26 1.93863 -2.29864 0
M  V30 16317 C 1503.8 2.06773 -2.34976 0
M  V30 16318 C 1504.28 2.84282 -3.59093 0
M  V30 16319 N 1505.77 2.91847 -3.59694 0
M  V30 16320 C 1506.51 3.52303 -4.52404 0
M  V30 16321 N 1506 4.14092 -5.55427 0
M  V30 16322 N 1507.79 3.49778 -4.40013 0
M  V30 16323 H 1499.95 0.381596 -2.08944 0
M  V30 16324 H 1502.21 0.231451 -0.919312 0
M  V30 16325 H 1501.91 1.42008 -3.21756 0
M  V30 16326 H 1501.79 2.94446 -2.35757 0
M  V30 16327 H 1504.18 2.57812 -1.43586 0
M  V30 16328 H 1504.26 1.05388 -2.33082 0
M  V30 16329 H 1503.9 2.33925 -4.50823 0
M  V30 16330 H 1503.83 3.85968 -3.5824 0
M  V30 16331 H 1506.32 2.4794 -2.85191 0
M  V30 16332 H 1506.63 4.58183 -6.22325 0
M  V30 16333 H 1504.98 4.12616 -5.59261 0
M  V30 16334 H 1508.17 3.00712 -3.58733 0
M  V30 16335 H 1508.34 3.96603 -5.12455 0
M  V30 16336 N 1501.75 1.10074 1.1279 0
M  V30 16337 C 1503 0.842118 1.84489 0
M  V30 16338 C 1503.33 -0.630737 1.83672 0
M  V30 16339 O 1502.6 -1.46481 1.27959 0
M  V30 16340 C 1502.89 1.3864 3.32342 0
M  V30 16341 C 1502.74 2.92585 3.41635 0
M  V30 16342 C 1504.06 1.02565 4.27982 0
M  V30 16343 H 1501.18 0.307376 0.669842 0
M  V30 16344 H 1503.82 1.36326 1.32345 0
M  V30 16345 H 1501.97 0.943134 3.76878 0
M  V30 16346 H 1503.64 3.4541 3.0576 0
M  V30 16347 H 1501.88 3.29378 2.82299 0
M  V30 16348 H 1502.56 3.25749 4.45636 0
M  V30 16349 H 1505.03 1.40807 3.91552 0
M  V30 16350 H 1503.91 1.43345 5.29852 0
M  V30 16351 H 1504.17 -0.0653712 4.42052 0
M  V30 16352 N 1503.23 -1.30138 0.888926 0
M  V30 16353 C 1504.17 -2.28023 0.356923 0
M  V30 16354 C 1505.14 -1.56551 -0.555066 0
M  V30 16355 O 1506.33 -1.84595 -0.482633 0
M  V30 16356 C 1503.47 -3.42546 -0.419056 0
M  V30 16357 C 1502.58 -4.28827 0.5226 0
M  V30 16358 C 1501.72 -5.30517 -0.269366 0
M  V30 16359 C 1500.76 -6.08449 0.667507 0
M  V30 16360 N 1499.89 -7.02043 -0.08938 0
M  V30 16361 H 1504.73 -2.72912 1.19678 0
M  V30 16362 H 1502.27 -1.34239 0.60152 0
M  V30 16363 H 1504.23 -4.07707 -0.884911 0
M  V30 16364 H 1502.86 -2.98716 -1.22346 0
M  V30 16365 H 1501.91 -3.63938 1.10695 0
M  V30 16366 H 1503.22 -4.83136 1.24018 0
M  V30 16367 H 1502.38 -6.01444 -0.796901 0
M  V30 16368 H 1501.12 -4.76911 -1.02014 0
M  V30 16369 H 1500.12 -5.36396 1.20664 0
M  V30 16370 H 1501.35 -6.64143 1.41744 0
M  V30 16371 H 1499.29 -6.50822 -0.822622 0
M  V30 16372 H 1499.21 -7.53859 0.568499 0
M  V30 16373 H 1500.48 -7.77206 -0.597529 0
M  V30 16374 N 1504.71 -0.650285 -1.43559 0
M  V30 16375 C 1505.95 -0.162484 -2.01847 0
M  V30 16376 C 1506.28 1.22251 -1.51278 0
M  V30 16377 O 1505.54 1.82939 -0.695115 0
M  V30 16378 C 1505.83 -0.119084 -3.57202 0
M  V30 16379 C 1505.5 -1.44543 -4.27104 0
M  V30 16380 C 1504.16 -1.80864 -4.45917 0
M  V30 16381 C 1506.51 -2.32005 -4.66715 0
M  V30 16382 C 1503.84 -3.04319 -5.01604 0
M  V30 16383 C 1506.19 -3.54748 -5.23771 0
M  V30 16384 C 1504.86 -3.9127 -5.408 0
M  V30 16385 H 1504.13 -0.0594573 -0.738611 0
M  V30 16386 H 1506.78 -0.84041 -1.72074 0
M  V30 16387 H 1505.08 0.642282 -3.865 0
M  V30 16388 H 1506.78 0.275168 -4.00055 0
M  V30 16389 H 1503.37 -1.15281 -4.12805 0
M  V30 16390 H 1507.55 -2.05234 -4.51877 0
M  V30 16391 H 1502.81 -3.32668 -5.12974 0
M  V30 16392 H 1506.98 -4.2274 -5.53411 0
M  V30 16393 H 1504.61 -4.87011 -5.83716 0
M  V30 16394 N 1506.18 1.52647 -0.392018 0
M  V30 16395 C 1507.13 2.28073 0.456674 0
M  V30 16396 C 1508.13 1.3208 1.06071 0
M  V30 16397 O 1509.33 1.49608 1.00088 0
M  V30 16398 H 1505.71 0.733443 0.166029 0
M  V30 16399 H 1507.68 2.97723 -0.200916 0
M  V30 16400 C 1506.43 3.10216 1.5704 0
M  V30 16401 H 1505.75 3.83939 1.11493 0
M  V30 16402 H 1507.19 3.66126 2.1384 0
M  V30 16403 C 1505.65 2.22698 2.52799 0
M  V30 16404 O 1506.18 1.8556 3.56273 0
M  V30 16405 N 1504.38 1.86804 2.22604 0
M  V30 16406 H 1503.93 2.17204 1.38492 0
M  V30 16407 H 1503.89 1.28538 2.86924 0
M  V30 16408 N 1507.66 0.121921 1.57128 0
M  V30 16409 C 1508.57 -0.840825 2.19014 0
M  V30 16410 C 1509.59 -1.29051 1.16712 0
M  V30 16411 O 1510.76 -1.35289 1.49194 0
M  V30 16412 C 1507.83 -2.07204 2.7797 0
M  V30 16413 C 1506.89 -1.67399 3.95318 0
M  V30 16414 C 1506.12 -2.84652 4.51452 0
M  V30 16415 O 1506.35 -4.00161 4.06482 0
M  V30 16416 O 1505.28 -2.61568 5.42094 0
M  V30 16417 H 1509.11 -0.344146 3.01744 0
M  V30 16418 H 1506.69 -0.103841 1.49039 0
M  V30 16419 H 1508.57 -2.79307 3.1554 0
M  V30 16420 H 1507.25 -2.55872 1.9827 0
M  V30 16421 H 1506.16 -0.92395 3.62511 0
M  V30 16422 H 1507.49 -1.2347 4.76462 0
M  V30 16423 N 1509.14 -1.56867 -0.151857 0
M  V30 16424 C 1510.1 -1.96997 -1.17152 0
M  V30 16425 C 1511.1 -0.855905 -1.36128 0
M  V30 16426 O 1512.29 -1.12261 -1.33203 0
M  V30 16427 C 1509.43 -2.28171 -2.5328 0
M  V30 16428 H 1510.62 -2.88261 -0.827365 0
M  V30 16429 H 1508.17 -1.51226 -0.395024 0
M  V30 16430 H 1508.91 -1.39683 -2.92676 0
M  V30 16431 H 1508.69 -3.09394 -2.40869 0
M  V30 16432 H 1510.18 -2.60073 -3.26729 0
M  V30 16433 N 1510.62 0.421051 -1.51871 0
M  V30 16434 C 1511.55 1.51928 -1.77313 0
M  V30 16435 C 1512.53 1.58258 -0.623579 0
M  V30 16436 O 1513.71 1.73724 -0.867967 0
M  V30 16437 C 1510.84 2.89865 -1.913 0
M  V30 16438 C 1509.8 2.98391 -3.06834 0
M  V30 16439 C 1509.12 4.38466 -3.06026 0
M  V30 16440 C 1510.42 2.7097 -4.46511 0
M  V30 16441 H 1512.12 1.30889 -2.69274 0
M  V30 16442 H 1509.66 0.628229 -1.29573 0
M  V30 16443 H 1511.62 3.66669 -2.07682 0
M  V30 16444 H 1510.34 3.12172 -0.960011 0
M  V30 16445 H 1509 2.24029 -2.90184 0
M  V30 16446 H 1508.65 4.57764 -2.08472 0
M  V30 16447 H 1508.35 4.45097 -3.83618 0
M  V30 16448 H 1509.87 5.17221 -3.24522 0
M  V30 16449 H 1511.29 3.37501 -4.63428 0
M  V30 16450 H 1509.68 2.88992 -5.25931 0
M  V30 16451 H 1510.75 1.66476 -4.55427 0
M  V30 16452 N 1512.1 1.42293 0.677538 0
M  V30 16453 C 1513.51 1.25158 0.990334 0
M  V30 16454 C 1513.71 0.153803 2.00912 0
M  V30 16455 O 1512.77 -0.475868 2.47975 0
M  V30 16456 C 1514.08 2.60745 1.49775 0
M  V30 16457 C 1515.63 2.68077 1.61566 0
M  V30 16458 C 1516.1 4.04024 2.15705 0
M  V30 16459 N 1517.6 4.05964 2.23042 0
M  V30 16460 C 1518.33 5.07968 2.66 0
M  V30 16461 N 1517.83 6.20356 3.08432 0
M  V30 16462 N 1519.62 4.95325 2.65725 0
M  V30 16463 H 1511.77 2.124 0.00295822 0
M  V30 16464 H 1514.03 0.945848 0.06384 0
M  V30 16465 H 1513.74 3.41919 0.823672 0
M  V30 16466 H 1513.61 2.84476 2.47695 0
M  V30 16467 H 1516 1.87251 2.28082 0
M  V30 16468 H 1516.08 2.48137 0.621434 0
M  V30 16469 H 1515.73 4.85306 1.498 0
M  V30 16470 H 1515.66 4.21314 3.15914 0
M  V30 16471 H 1518.15 3.24827 1.93122 0
M  V30 16472 H 1518.46 6.94043 3.39889 0
M  V30 16473 H 1516.8 6.23865 3.06296 0
M  V30 16474 H 1520 4.06599 2.31936 0
M  V30 16475 H 1520.17 5.74954 2.98884 0
M  V30 16476 N 1513.57 -0.913576 1.28419 0
M  V30 16477 C 1514.48 -2.04922 1.14211 0
M  V30 16478 C 1515.5 -1.73865 0.0686424 0
M  V30 16479 O 1516.68 -1.99473 0.277968 0
M  V30 16480 C 1513.74 -3.37214 0.805445 0
M  V30 16481 C 1512.8 -3.81879 1.96129 0
M  V30 16482 C 1512.04 -5.07858 1.6406 0
M  V30 16483 O 1512.26 -5.67693 0.555032 0
M  V30 16484 O 1511.19 -5.4824 2.48428 0
M  V30 16485 H 1515.02 -2.19827 2.09547 0
M  V30 16486 H 1512.6 -1.03501 1.0774 0
M  V30 16487 H 1514.49 -4.16639 0.631648 0
M  V30 16488 H 1513.16 -3.23484 -0.118254 0
M  V30 16489 H 1512.07 -3.03281 2.19024 0
M  V30 16490 H 1513.4 -4.00173 2.8657 0
M  V30 16491 N 1515.05 -1.1067 -1.12204 0
M  V30 16492 C 1516.28 -0.873095 -1.88127 0
M  V30 16493 C 1516.7 0.571099 -1.79221 0
M  V30 16494 O 1516.06 1.40251 -1.14888 0
M  V30 16495 C 1516.11 -1.32922 -3.35208 0
M  V30 16496 O 1515.21 -0.495807 -4.09409 0
M  V30 16497 H 1514.55 -0.315138 -0.584452 0
M  V30 16498 H 1517.08 -1.47413 -1.41882 0
M  V30 16499 H 1517.09 -1.32023 -3.86049 0
M  V30 16500 H 1515.77 -2.38091 -3.41007 0
M  V30 16501 H 1514.35 -0.570216 -3.68515 0
M  V30 16502 N 1516.53 1.29665 -0.895815 0
M  V30 16503 C 1517.78 1.96376 -0.529921 0
M  V30 16504 C 1518.13 1.69358 0.912991 0
M  V30 16505 O 1517.42 0.993893 1.63806 0
M  V30 16506 C 1517.62 3.49355 -0.754025 0
M  V30 16507 C 1517.45 3.91244 -2.21717 0
M  V30 16508 C 1516.22 4.16307 -2.86386 0
M  V30 16509 C 1518.42 4.03256 -3.19201 0
M  V30 16510 N 1516.4 4.44735 -4.23184 0
M  V30 16511 C 1517.77 4.35691 -4.41105 0
M  V30 16512 C 1519.82 3.85718 -3.14843 0
M  V30 16513 C 1518.53 4.52416 -5.59207 0
M  V30 16514 C 1520.55 4.0365 -4.32227 0
M  V30 16515 C 1519.91 4.36441 -5.529 0
M  V30 16516 H 1516.01 0.743141 -0.243445 0
M  V30 16517 H 1518.6 1.56681 -1.15581 0
M  V30 16518 H 1516.77 3.8808 -0.157541 0
M  V30 16519 H 1518.5 4.03149 -0.353953 0
M  V30 16520 H 1515.26 4.09919 -2.37199 0
M  V30 16521 H 1515.68 4.63064 -4.93863 0
M  V30 16522 H 1520.32 3.59433 -2.22638 0
M  V30 16523 H 1518.04 4.77539 -6.51907 0
M  V30 16524 H 1521.63 3.91537 -4.30337 0
M  V30 16525 H 1520.51 4.50029 -6.42218 0
M  V30 16526 N 1518.01 0.657889 1.43212 0
M  V30 16527 C 1518.96 -0.0308596 2.30779 0
M  V30 16528 C 1519.93 -0.809951 1.45014 0
M  V30 16529 O 1521.11 -0.785615 1.73876 0
M  V30 16530 C 1518.25 -0.988048 3.30653 0
M  V30 16531 C 1517.36 -0.204567 4.31515 0
M  V30 16532 C 1516.5 -1.15598 5.1847 0
M  V30 16533 C 1515.54 -0.363197 6.11022 0
M  V30 16534 N 1514.67 -1.26644 6.90584 0
M  V30 16535 H 1519.51 0.721745 2.89128 0
M  V30 16536 H 1517.05 0.367677 1.42431 0
M  V30 16537 H 1519.01 -1.55666 3.87071 0
M  V30 16538 H 1517.64 -1.70747 2.73944 0
M  V30 16539 H 1516.69 0.48041 3.77354 0
M  V30 16540 H 1518 0.411684 4.97098 0
M  V30 16541 H 1517.16 -1.79507 5.79536 0
M  V30 16542 H 1515.9 -1.80613 4.53023 0
M  V30 16543 H 1514.9 0.28922 5.49039 0
M  V30 16544 H 1516.13 0.28262 6.78512 0
M  V30 16545 H 1514.07 -1.90331 6.27782 0
M  V30 16546 H 1513.99 -0.70486 7.52707 0
M  V30 16547 H 1515.26 -1.89353 7.56152 0
M  V30 16548 N 1519.49 -1.52437 0.400108 0
M  V30 16549 C 1520.71 -2.0613 -0.178364 0
M  V30 16550 C 1521.13 -1.27094 -1.39616 0
M  V30 16551 O 1520.49 -0.320409 -1.79665 0
M  V30 16552 C 1520.54 -3.57478 -0.53777 0
M  V30 16553 O 1520.26 -4.33522 0.631657 0
M  V30 16554 C 1521.76 -4.27556 -1.17094 0
M  V30 16555 H 1518.98 -0.670558 -0.0243619 0
M  V30 16556 H 1521.52 -1.9644 0.568459 0
M  V30 16557 H 1519.68 -3.67205 -1.23449 0
M  V30 16558 H 1520.09 -5.23437 0.333803 0
M  V30 16559 H 1521.57 -5.3466 -1.3727 0
M  V30 16560 H 1522.04 -3.83456 -2.14145 0
M  V30 16561 H 1522.65 -4.22174 -0.514687 0
M  V30 16562 N 1520.96 -0.130252 -1.57061 0
M  V30 16563 C 1521.91 0.815767 -2.15902 0
M  V30 16564 C 1522.88 1.2558 -1.08715 0
M  V30 16565 O 1524.07 1.33132 -1.36677 0
M  V30 16566 C 1521.21 2.0561 -2.77162 0
M  V30 16567 C 1520.32 1.6634 -3.98692 0
M  V30 16568 C 1519.45 2.85425 -4.48002 0
M  V30 16569 C 1518.49 2.42449 -5.62036 0
M  V30 16570 N 1517.63 3.54486 -6.0604 0
M  V30 16571 H 1522.47 0.307164 -2.96413 0
M  V30 16572 H 1520.01 0.139913 -1.46433 0
M  V30 16573 H 1521.97 2.78298 -3.10815 0
M  V30 16574 H 1520.6 2.5391 -1.99323 0
M  V30 16575 H 1519.65 0.834817 -3.71127 0
M  V30 16576 H 1520.96 1.30765 -4.81354 0
M  V30 16577 H 1520.11 3.66325 -4.83623 0
M  V30 16578 H 1518.85 3.24235 -3.64312 0
M  V30 16579 H 1517.86 1.59985 -5.26008 0
M  V30 16580 H 1519.08 2.04744 -6.475 0
M  V30 16581 H 1517.03 3.92948 -5.25289 0
M  V30 16582 H 1516.95 3.22871 -6.83586 0
M  V30 16583 H 1518.21 4.35792 -6.46302 0
M  V30 16584 N 1522.44 1.56945 0.143535 0
M  V30 16585 C 1523.69 1.8381 0.856831 0
M  V30 16586 C 1524.02 0.712375 1.80662 0
M  V30 16587 O 1523.3 -0.283743 1.92419 0
M  V30 16588 C 1523.58 3.21184 1.62828 0
M  V30 16589 C 1523.43 4.44324 0.699744 0
M  V30 16590 C 1524.75 3.5582 2.58999 0
M  V30 16591 H 1521.87 0.668611 0.310046 0
M  V30 16592 H 1524.51 1.89609 0.1219 0
M  V30 16593 H 1522.66 3.16372 2.2548 0
M  V30 16594 H 1524.34 4.61224 0.0839619 0
M  V30 16595 H 1522.58 4.33799 0.0095529 0
M  V30 16596 H 1523.25 5.37058 1.27564 0
M  V30 16597 H 1525.73 3.61264 2.06464 0
M  V30 16598 H 1524.6 4.52964 3.10024 0
M  V30 16599 H 1524.86 2.81956 3.40519 0
M  V30 16600 N 1523.92 -0.412991 1.52093 0
M  V30 16601 C 1524.87 -1.52347 1.75765 0
M  V30 16602 C 1525.86 -1.57463 0.624641 0
M  V30 16603 O 1527.07 -1.60916 0.806599 0
M  V30 16604 H 1523.44 -0.50659 0.555761 0
M  V30 16605 H 1525.42 -1.29564 2.68804 0
M  V30 16606 C 1524.16 -2.89757 1.92188 0
M  V30 16607 H 1523.49 -2.86561 2.78788 0
M  V30 16608 H 1524.93 -3.66759 2.12753 0
M  V30 16609 C 1523.39 -3.29801 0.687963 0
M  V30 16610 O 1523.92 -4.01435 -0.145984 0
M  V30 16611 N 1522.12 -2.85819 0.524978 0
M  V30 16612 H 1521.67 -2.27694 1.20471 0
M  V30 16613 H 1521.63 -3.12972 -0.299325 0
M  V30 16614 N 1525.4 -1.4265 -0.669982 0
M  V30 16615 C 1526.65 -1.44587 -1.4306 0
M  V30 16616 C 1527 -0.0629167 -1.92297 0
M  V30 16617 O 1526.29 0.915708 -1.68301 0
M  V30 16618 C 1526.49 -2.40913 -2.63999 0
M  V30 16619 C 1526.32 -3.88438 -2.26597 0
M  V30 16620 C 1525.09 -4.56936 -2.15725 0
M  V30 16621 C 1527.28 -4.78731 -1.87938 0
M  V30 16622 N 1525.27 -5.89465 -1.71477 0
M  V30 16623 C 1526.64 -6.00404 -1.54645 0
M  V30 16624 C 1528.69 -4.66143 -1.74973 0
M  V30 16625 C 1527.4 -7.10888 -1.09688 0
M  V30 16626 C 1529.42 -5.76613 -1.3142 0
M  V30 16627 C 1528.78 -6.97401 -0.99054 0
M  V30 16628 H 1524.88 -0.584242 -0.519794 0
M  V30 16629 H 1527.47 -1.78711 -0.772679 0
M  V30 16630 H 1525.64 -2.08843 -3.27474 0
M  V30 16631 H 1527.37 -2.33398 -3.30617 0
M  V30 16632 H 1524.12 -4.11213 -2.34948 0
M  V30 16633 H 1524.55 -6.59771 -1.51762 0
M  V30 16634 H 1529.19 -3.73231 -1.98641 0
M  V30 16635 H 1526.91 -8.03642 -0.847666 0
M  V30 16636 H 1530.49 -5.68886 -1.21902 0
M  V30 16637 H 1529.37 -7.81429 -0.658653 0
M  V30 16638 N 1526.88 0.906753 -1.28902 0
M  V30 16639 C 1527.81 2.02663 -1.15974 0
M  V30 16640 C 1528.79 1.70009 -0.0557202 0
M  V30 16641 O 1529.97 1.92786 -0.233952 0
M  V30 16642 C 1527.1 3.37283 -0.828115 0
M  V30 16643 C 1526.06 3.84123 -1.88767 0
M  V30 16644 C 1525.38 5.15787 -1.40953 0
M  V30 16645 C 1526.68 4.05217 -3.2954 0
M  V30 16646 H 1528.38 2.13738 -2.09658 0
M  V30 16647 H 1525.92 1.02699 -1.0094 0
M  V30 16648 H 1527.88 4.15127 -0.724408 0
M  V30 16649 H 1526.6 3.2628 0.14443 0
M  V30 16650 H 1525.26 3.0849 -1.98065 0
M  V30 16651 H 1524.91 5.01194 -0.425848 0
M  V30 16652 H 1524.61 5.48098 -2.11807 0
M  V30 16653 H 1526.13 5.9618 -1.31918 0
M  V30 16654 H 1527.55 4.73565 -3.23124 0
M  V30 16655 H 1525.94 4.48871 -3.9829 0
M  V30 16656 H 1527.01 3.0979 -3.73039 0
M  V30 16657 N 1528.36 1.11264 1.11616 0
M  V30 16658 C 1529.32 0.7726 2.15786 0
M  V30 16659 C 1530.32 -0.207145 1.5946 0
M  V30 16660 O 1531.51 0.0171053 1.74192 0
M  V30 16661 C 1528.64 0.145927 3.40588 0
M  V30 16662 H 1529.83 1.69539 2.47379 0
M  V30 16663 H 1527.39 0.914278 1.2677 0
M  V30 16664 H 1528.12 -0.787178 3.14601 0
M  V30 16665 H 1527.91 0.851161 3.8275 0
M  V30 16666 H 1529.4 -0.0759176 4.17531 0
M  V30 16667 N 1529.83 -1.29188 0.902679 0
M  V30 16668 C 1530.78 -2.25236 0.353959 0
M  V30 16669 C 1531.77 -1.52002 -0.527659 0
M  V30 16670 O 1532.96 -1.73107 -0.369189 0
M  V30 16671 C 1530.09 -3.40785 -0.414803 0
M  V30 16672 C 1529.17 -4.21353 0.481904 0
M  V30 16673 N 1529.57 -4.80143 1.59048 0
M  V30 16674 C 1527.86 -4.45119 0.280241 0
M  V30 16675 C 1528.56 -5.40661 2.14616 0
M  V30 16676 N 1527.54 -5.24213 1.43882 0
M  V30 16677 H 1531.34 -2.68252 1.20076 0
M  V30 16678 H 1528.86 -1.43832 0.754069 0
M  V30 16679 H 1530.85 -4.08662 -0.824674 0
M  V30 16680 H 1529.51 -2.99305 -1.25883 0
M  V30 16681 H 1530.52 -4.78838 1.97319 0
M  V30 16682 H 1527.2 -4.14184 -0.525174 0
M  V30 16683 H 1528.59 -5.97246 3.07809 0
M  V30 16684 N 1531.31 -0.665475 -1.42861 0
M  V30 16685 C 1532.26 0.030395 -2.3258 0
M  V30 16686 C 1533.25 0.800329 -1.49302 0
M  V30 16687 O 1534.46 0.709346 -1.65434 0
M  V30 16688 H 1530.83 0.0286201 -0.751455 0
M  V30 16689 H 1532.81 -0.743838 -2.8898 0
M  V30 16690 C 1531.55 0.974474 -3.33765 0
M  V30 16691 H 1530.88 0.391447 -3.97879 0
M  V30 16692 H 1532.32 1.43023 -3.99149 0
M  V30 16693 C 1530.78 2.0764 -2.65306 0
M  V30 16694 O 1531.31 3.16172 -2.47787 0
M  V30 16695 N 1529.51 1.84544 -2.24481 0
M  V30 16696 H 1529.06 0.962826 -2.3893 0
M  V30 16697 H 1529.02 2.58464 -1.79007 0
M  V30 16698 N 1532.79 1.52222 -0.408187 0
M  V30 16699 C 1534.04 2.02102 0.168154 0
M  V30 16700 C 1534.37 1.2933 1.4487 0
M  V30 16701 O 1533.64 0.399336 1.90356 0
M  V30 16702 C 1533.93 3.57679 0.416821 0
M  V30 16703 C 1533.78 4.41101 -0.880335 0
M  V30 16704 C 1535.1 4.23442 1.19936 0
M  V30 16705 H 1532.22 0.734583 0.0596402 0
M  V30 16706 H 1534.86 1.82121 -0.541467 0
M  V30 16707 H 1533.01 3.74835 1.02131 0
M  V30 16708 H 1534.68 4.35658 -1.51656 0
M  V30 16709 H 1532.92 4.07353 -1.49152 0
M  V30 16710 H 1533.6 5.48031 -0.660748 0
M  V30 16711 H 1536.07 4.10379 0.687605 0
M  V30 16712 H 1534.95 5.32239 1.3421 0
M  V30 16713 H 1535.21 3.82335 2.21973 0
M  V30 16714 N 1534.27 0.138579 1.5699 0
M  V30 16715 C 1535.49 -0.525074 2.00643 0
M  V30 16716 C 1535.92 -1.58174 1.01796 0
M  V30 16717 O 1535.28 -1.81298 -0.00754003 0
M  V30 16718 C 1535.32 -1.11019 3.43085 0
M  V30 16719 O 1534.43 -2.22529 3.4721 0
M  V30 16720 H 1533.77 -0.129283 0.651292 0
M  V30 16721 H 1536.3 0.23283 2.03271 0
M  V30 16722 H 1536.31 -1.44093 3.81708 0
M  V30 16723 H 1534.98 -0.336325 4.14538 0
M  V30 16724 H 1533.56 -1.90747 3.20422 0
M  V30 16725 N 1535.75 -1.57019 -0.13521 0
M  V30 16726 C 1536.69 -1.99148 -1.16657 0
M  V30 16727 C 1537.66 -0.860947 -1.42045 0
M  V30 16728 O 1538.85 -1.12393 -1.54183 0
M  V30 16729 C 1535.99 -2.3872 -2.49212 0
M  V30 16730 C 1535.1 -3.65117 -2.30898 0
M  V30 16731 C 1534.24 -3.9374 -3.5657 0
M  V30 16732 C 1533.27 -5.1337 -3.33343 0
M  V30 16733 N 1532.41 -5.37945 -4.51176 0
M  V30 16734 H 1537.25 -2.87052 -0.800312 0
M  V30 16735 H 1534.79 -1.42007 -0.383705 0
M  V30 16736 H 1536.75 -2.59695 -3.26518 0
M  V30 16737 H 1535.38 -1.53879 -2.83762 0
M  V30 16738 H 1534.43 -3.5185 -1.44588 0
M  V30 16739 H 1535.74 -4.52578 -2.09701 0
M  V30 16740 H 1534.89 -4.15277 -4.423 0
M  V30 16741 H 1533.63 -3.04723 -3.80782 0
M  V30 16742 H 1532.64 -4.91694 -2.46002 0
M  V30 16743 H 1533.86 -6.0395 -3.10517 0
M  V30 16744 H 1531.81 -4.51884 -4.75539 0
M  V30 16745 H 1531.73 -6.19698 -4.33025 0
M  V30 16746 H 1532.99 -5.63989 -5.38086 0
M  V30 16747 N 1537.22 0.404919 -1.52309 0
M  V30 16748 C 1538.5 1.16473 -1.57142 0
M  V30 16749 C 1538.88 2.08094 -0.354967 0
M  V30 16750 O 1538.23 2.18825 0.65788 0
M  V30 16751 C 1538.44 1.93834 -2.90223 0
M  V30 16752 C 1539.79 2.49754 -3.43378 0
M  V30 16753 O 1540.81 2.04009 -2.91991 0
M  V30 16754 O 1539.67 3.33271 -4.3312 0
M  V30 16755 H 1536.76 0.532036 -0.633141 0
M  V30 16756 H 1539.31 0.411359 -1.64639 0
M  V30 16757 H 1538.08 1.2674 -3.70206 0
M  V30 16758 H 1537.71 2.76167 -2.86038 0
M  V30 16759 N 1538.7 1.43003 0.662408 0
M  V30 16760 C 1539.65 1.47701 1.79686 0
M  V30 16761 C 1540.64 0.351491 1.65713 0
M  V30 16762 O 1541.85 0.525071 1.72171 0
M  V30 16763 H 1538.23 0.46285 0.592684 0
M  V30 16764 H 1540.2 2.43245 1.72843 0
M  V30 16765 C 1538.95 1.40828 3.17904 0
M  V30 16766 H 1538.27 2.26736 3.29288 0
M  V30 16767 H 1539.71 1.48177 3.97265 0
M  V30 16768 C 1538.17 0.124659 3.36669 0
M  V30 16769 O 1538.7 -0.81769 3.9329 0
M  V30 16770 N 1536.9 0.0378063 2.90575 0
M  V30 16771 H 1536.45 0.805456 2.44684 0
M  V30 16772 H 1536.41 -0.820377 3.03508 0
M  V30 16773 N 1540.18 -0.899904 1.29381 0
M  V30 16774 C 1541.6 -1.18067 1.07388 0
M  V30 16775 C 1541.8 -2.00739 -0.174951 0
M  V30 16776 O 1540.85 -2.36937 -0.872771 0
M  V30 16777 C 1542.17 -1.90182 2.32919 0
M  V30 16778 C 1543.71 -2.03009 2.38236 0
M  V30 16779 C 1544.19 -2.78533 3.6357 0
M  V30 16780 N 1545.68 -2.86088 3.64291 0
M  V30 16781 C 1546.41 -3.45062 4.57952 0
M  V30 16782 N 1545.91 -4.05204 5.61945 0
M  V30 16783 N 1547.7 -3.42734 4.45522 0
M  V30 16784 H 1539.85 -0.348306 2.09525 0
M  V30 16785 H 1542.12 -0.216796 0.922878 0
M  V30 16786 H 1541.82 -1.36871 3.23974 0
M  V30 16787 H 1541.7 -2.90658 2.40412 0
M  V30 16788 H 1544.08 -2.55495 1.47669 0
M  V30 16789 H 1544.17 -1.01666 2.34729 0
M  V30 16790 H 1543.81 -2.26723 4.54488 0
M  V30 16791 H 1543.74 -3.8022 3.64335 0
M  V30 16792 H 1546.23 -2.43372 2.891 0
M  V30 16793 H 1546.54 -4.48225 6.29535 0
M  V30 16794 H 1544.89 -4.03667 5.65755 0
M  V30 16795 H 1548.08 -2.94967 3.63472 0
M  V30 16796 H 1548.25 -3.884 5.187 0
M  V30 16797 N 1541.66 -1.11854 -1.11024 0
M  V30 16798 C 1542.59 -0.738635 -2.16972 0
M  V30 16799 C 1543.6 0.231814 -1.61141 0
M  V30 16800 O 1544.79 0.0140607 -1.78494 0
M  V30 16801 C 1541.89 -0.0715797 -3.38824 0
M  V30 16802 C 1541.07 -1.06995 -4.24112 0
M  V30 16803 C 1540.12 -0.431644 -5.24427 0
M  V30 16804 O 1539.15 -1.08685 -5.58727 0
M  V30 16805 N 1540.35 0.803593 -5.74911 0
M  V30 16806 H 1543.12 -1.65025 -2.50174 0
M  V30 16807 H 1540.68 -1.00933 -1.26586 0
M  V30 16808 H 1542.67 0.367274 -4.0303 0
M  V30 16809 H 1541.24 0.742686 -3.03649 0
M  V30 16810 H 1540.46 -1.68662 -3.56296 0
M  V30 16811 H 1541.75 -1.74525 -4.77931 0
M  V30 16812 H 1541.15 1.355 -5.49232 0
M  V30 16813 H 1539.7 1.18536 -6.40931 0
M  V30 16814 O 1543.18 1.23426 -1.04155 0
M  V30 16815 H 1543.87 1.80103 -0.712928 0
M  V30 END ATOM
M  V30 BEGIN BOND
M  V30 END BOND
M  V30 END CTAB
M  END
$$$$
