drugbank_target|P21728 D(1A) dopamine receptor (DB00246; DB00248; DB00334; DB00353; DB00363; DB00397; DB00408; DB00477; DB00502; DB00508; DB00543; DB00589; DB00623; DB00679; DB00714; DB00734; DB00800; DB00805; DB00850; DB00875; DB00988; DB01038; DB01186; DB01200; DB01224; DB01235; DB01238; DB01239; DB01267; DB01403; DB01608; DB01614; DB01621; DB01622; DB01623; DB01624; DB04946; DB05271; DB06077; DB06216; DB09286; DB12093; DB12890; DB14185)
 OpenBabel12092119223D

  0  0  0     0  0            999 V3000
M  V30 BEGIN CTAB
M  V30 COUNTS 6975 7057 0 0 0
M  V30 BEGIN ATOM
M  V30 1 H -0.908 1.98254 -0.117106 0
M  V30 2 N 0 1.576 0 0
M  V30 3 C 0.933 2.03868 1.02534 0
M  V30 4 C 1.911 0.928543 1.3348 0
M  V30 5 O 3.095 1.19667 1.45644 0
M  V30 6 C 0.222 2.43627 2.35294 0
M  V30 7 C -0.732 3.65373 2.2001 0
M  V30 8 S 0.101 5.13292 1.52614 0
M  V30 9 C 1.257 5.56322 2.86805 0
M  V30 10 H 1.49 2.90518 0.631377 0
M  V30 11 H -0.977 1.52953 0.210867 0
M  V30 12 H 0.981 2.67203 3.11629 0
M  V30 13 H -0.358 1.57376 2.7183 0
M  V30 14 H -1.165 3.90944 3.18086 0
M  V30 15 H -1.563 3.418 1.51819 0
M  V30 16 H 0.729 5.58782 3.83104 0
M  V30 17 H 1.672 6.56266 2.65933 0
M  V30 18 H 2.08 4.83886 2.90714 0
M  V30 19 N 1.4781 -0.272755 1.55222 0
M  V30 20 C 2.8941 -0.619959 1.47067 0
M  V30 21 C 3.0941 -1.895 0.684978 0
M  V30 22 O 2.1501 -2.51675 0.203931 0
M  V30 23 C 3.4631 -0.746693 2.91282 0
M  V30 24 C 5.0111 -0.840731 3.01497 0
M  V30 25 C 5.4861 -0.99924 4.46967 0
M  V30 26 N 6.9771 -1.06476 4.50796 0
M  V30 27 C 7.7121 -1.20621 5.6057 0
M  V30 28 N 7.2081 -1.31483 6.80209 0
M  V30 29 N 9.0011 -1.23733 5.48312 0
M  V30 30 H 1.1521 0.564606 2.04758 0
M  V30 31 H 3.4151 0.191177 0.928523 0
M  V30 32 H 3.1211 0.119753 3.51496 0
M  V30 33 H 2.9951 -1.6269 3.40311 0
M  V30 34 H 5.3821 -1.69764 2.41379 0
M  V30 35 H 5.4631 0.0640874 2.5572 0
M  V30 36 H 5.1071 -0.146984 5.07687 0
M  V30 37 H 5.0371 -1.91871 4.90401 0
M  V30 38 H 7.5281 -0.993196 3.64615 0
M  V30 39 H 7.8411 -1.42111 7.59621 0
M  V30 40 H 6.1861 -1.28487 6.8302 0
M  V30 41 H 9.3771 -1.14877 4.53785 0
M  V30 42 H 9.5501 -1.34412 6.33906 0
M  V30 43 N 2.9562 -1.48159 -0.537278 0
M  V30 44 C 4.1842 -1.59454 -1.31841 0
M  V30 45 C 4.5992 -0.252065 -1.8711 0
M  V30 46 O 3.9562 0.757621 -1.66031 0
M  V30 47 C 4.0072 -2.63546 -2.47439 0
M  V30 48 O 3.7282 -3.92583 -1.94449 0
M  V30 49 C 5.2292 -2.85212 -3.39366 0
M  V30 50 H 2.4492 -0.53785 -0.401196 0
M  V30 51 H 4.9932 -1.93932 -0.648891 0
M  V30 52 H 3.1482 -2.31946 -3.1029 0
M  V30 53 H 3.5622 -4.49629 -2.70063 0
M  V30 54 H 5.0362 -3.61863 -4.16844 0
M  V30 55 H 5.5132 -1.93765 -3.94147 0
M  V30 56 H 6.1192 -3.18086 -2.82314 0
M  V30 57 N 4.4343 0.785586 -1.36625 0
M  V30 58 C 5.3643 1.91259 -1.33949 0
M  V30 59 C 6.3453 1.68795 -0.210325 0
M  V30 60 O 7.5303 1.89854 -0.408561 0
M  V30 61 C 4.6603 3.28339 -1.13186 0
M  V30 62 C 3.6143 3.65335 -2.22967 0
M  V30 63 C 2.9403 5.00806 -1.87342 0
M  V30 64 C 4.2403 3.7352 -3.65075 0
M  V30 65 H 5.9343 1.93755 -2.28253 0
M  V30 66 H 3.4803 0.930788 -1.09874 0
M  V30 67 H 5.4333 4.06804 -1.09948 0
M  V30 68 H 4.1573 3.2624 -0.153332 0
M  V30 69 H 2.8163 2.89169 -2.25337 0
M  V30 70 H 2.4643 4.95233 -0.880545 0
M  V30 71 H 2.1643 5.26529 -2.60846 0
M  V30 72 H 3.6883 5.81687 -1.85667 0
M  V30 73 H 5.1023 4.42168 -3.64911 0
M  V30 74 H 3.4993 4.10731 -4.37516 0
M  V30 75 H 4.5693 2.74527 -3.99703 0
M  V30 76 N 5.9124 1.20967 1.01018 0
M  V30 77 C 6.8604 0.961223 2.1181 0
M  V30 78 C 7.8544 -0.0897034 1.69162 0
M  V30 79 O 9.0604 0.0612271 1.79896 0
M  V30 80 H 5.4354 0.29355 0.692338 0
M  V30 81 H 7.4064 1.90178 2.29946 0
M  V30 82 C 6.1554 0.536854 3.4353 0
M  V30 83 H 5.4784 1.33713 3.76777 0
M  V30 84 H 6.9184 0.402286 4.22087 0
M  V30 85 C 5.3774 -0.751574 3.2841 0
M  V30 86 O 5.9074 -1.80841 3.58691 0
M  V30 87 N 4.1134 -0.716079 2.81639 0
M  V30 88 H 3.6604 0.144236 2.57196 0
M  V30 89 H 3.6184 -1.57847 2.71904 0
M  V30 90 N 7.3905 -1.2043 1.01659 0
M  V30 91 C 8.6185 -1.93777 0.725132 0
M  V30 92 C 9.0335 -1.74772 -0.714166 0
M  V30 93 O 8.3905 -1.06169 -1.4844 0
M  V30 94 C 8.4415 -3.45876 1.05129 0
M  V30 95 O 8.1625 -3.6426 2.43406 0
M  V30 96 C 9.6635 -4.36368 0.780891 0
M  V30 97 H 6.8835 -0.615901 0.266284 0
M  V30 98 H 9.4275 -1.52922 1.35776 0
M  V30 99 H 7.5825 -3.8461 0.464065 0
M  V30 100 H 7.9965 -4.58246 2.55169 0
M  V30 101 H 9.4705 -5.41743 1.05918 0
M  V30 102 H 9.9475 -4.38275 -0.284937 0
M  V30 103 H 10.5535 -4.03296 1.35027 0
M  V30 104 N 8.8686 -0.792821 -1.36206 0
M  V30 105 C 10.0936 -0.377701 -2.03932 0
M  V30 106 C 10.5186 0.998947 -1.59382 0
M  V30 107 O 9.8766 1.64421 -0.763903 0
M  V30 108 C 9.9246 -0.453635 -3.57735 0
M  V30 109 O 9.0286 0.538151 -4.08874 0
M  V30 110 H 8.3696 -0.159855 -0.644471 0
M  V30 111 H 10.8996 -1.07488 -1.7409 0
M  V30 112 H 10.9096 -0.318464 -4.06755 0
M  V30 113 H 9.5846 -1.45784 -3.89512 0
M  V30 114 H 8.1616 0.364359 -3.71116 0
M  V30 115 N 10.3467 1.47872 -0.545128 0
M  V30 116 C 11.3097 2.28337 0.198717 0
M  V30 117 C 12.3097 1.36255 0.853888 0
M  V30 118 O 13.4997 1.59003 0.711606 0
M  V30 119 C 10.6317 3.15585 1.28915 0
M  V30 120 H 11.8247 2.95567 -0.507941 0
M  V30 121 H 9.3777 1.53362 -0.301616 0
M  V30 122 H 10.1127 2.53019 2.02859 0
M  V30 123 H 9.8977 3.83337 0.824309 0
M  V30 124 H 11.3877 3.76243 1.81194 0
M  V30 125 N 11.8248 0.280983 1.55075 0
M  V30 126 C 12.7578 -0.645439 2.18882 0
M  V30 127 C 13.7358 -1.14786 1.15165 0
M  V30 128 O 14.9198 -1.21975 1.43716 0
M  V30 129 C 12.0468 -1.88088 2.81674 0
M  V30 130 C 11.0928 -1.51343 3.98745 0
M  V30 131 S 11.9258 -0.586548 5.32278 0
M  V30 132 C 13.0818 -1.83024 5.98543 0
M  V30 133 H 13.3148 -0.1033 2.9712 0
M  V30 134 H 10.8478 0.0652099 1.54262 0
M  V30 135 H 12.8058 -2.58997 3.18482 0
M  V30 136 H 11.4668 -2.39417 2.03318 0
M  V30 137 H 10.6598 -2.43289 4.41392 0
M  V30 138 H 10.2618 -0.884477 3.63391 0
M  V30 139 H 12.5538 -2.77342 6.18133 0
M  V30 140 H 13.4968 -1.44668 6.93164 0
M  V30 141 H 13.9048 -1.99785 5.27964 0
M  V30 142 N 13.3029 -1.57598 0.00835791 0
M  V30 143 C 14.5799 -1.82172 -0.712235 0
M  V30 144 C 14.9599 -0.887873 -1.9152 0
M  V30 145 O 14.3079 0.06146 -2.28417 0
M  V30 146 C 14.5179 -3.30875 -1.11008 0
M  V30 147 C 15.8659 -3.96826 -1.51044 0
M  V30 148 O 16.8899 -3.35248 -1.20364 0
M  V30 149 O 15.7489 -5.05318 -2.08125 0
M  V30 150 H 12.8429 -0.750435 -0.347529 0
M  V30 151 H 15.3889 -1.69665 0.0344523 0
M  V30 152 H 14.1609 -3.90481 -0.252982 0
M  V30 153 H 13.7839 -3.48412 -1.9156 0
M  V30 154 N 14.781 0.264519 -1.55364 0
M  V30 155 C 16.029 0.993021 -1.76021 0
M  V30 156 C 16.35 1.86511 -0.569099 0
M  V30 157 O 15.62 1.91438 0.415735 0
M  V30 158 H 14.2 0.369639 -0.649135 0
M  V30 159 H 16.862 0.286707 -1.9278 0
M  V30 160 H 15.958 1.62502 -2.66457 0
M  V30 161 N 16.2591 1.48442 0.529413 0
M  V30 162 C 17.4871 1.60151 1.30994 0
M  V30 163 C 17.9021 0.261985 1.86973 0
M  V30 164 O 17.2591 -0.748805 1.66431 0
M  V30 165 C 17.3101 2.64854 2.46038 0
M  V30 166 O 17.0311 3.93608 1.92365 0
M  V30 167 C 18.5321 2.87007 3.37849 0
M  V30 168 H 15.7521 0.539971 0.398338 0
M  V30 169 H 18.2961 1.94273 0.638597 0
M  V30 170 H 16.4511 2.33589 3.09055 0
M  V30 171 H 16.8651 4.51055 2.67675 0
M  V30 172 H 18.3391 3.64068 4.14919 0
M  V30 173 H 18.8161 1.95852 3.93114 0
M  V30 174 H 19.4221 3.19579 2.80623 0
M  V30 175 N 17.7372 -0.778329 1.37039 0
M  V30 176 C 18.9852 -1.53361 1.31623 0
M  V30 177 C 19.3062 -1.94739 -0.100831 0
M  V30 178 O 18.5762 -1.65797 -1.04347 0
M  V30 179 H 17.1562 -0.568794 0.484234 0
M  V30 180 H 19.8182 -0.926742 1.71457 0
M  V30 181 H 18.9142 -2.43606 1.95096 0
M  V30 182 N 19.2153 -1.21501 -1.00376 0
M  V30 183 C 20.1453 -0.999478 -2.11028 0
M  V30 184 C 21.1263 0.0759671 -1.6993 0
M  V30 185 O 22.3113 -0.0841106 -1.94018 0
M  V30 186 C 19.4413 -0.564709 -3.42678 0
M  V30 187 C 18.3953 -1.58486 -3.97576 0
M  V30 188 C 17.7213 -1.00628 -5.25146 0
M  V30 189 C 19.0213 -2.97204 -4.29496 0
M  V30 190 H 20.7153 -1.92495 -2.29317 0
M  V30 191 H 18.2613 -0.92693 -1.102 0
M  V30 192 H 20.2143 -0.401091 -4.19487 0
M  V30 193 H 18.9383 0.396411 -3.24185 0
M  V30 194 H 17.5973 -1.73606 -3.22888 0
M  V30 195 H 17.2453 -0.0368439 -5.02987 0
M  V30 196 H 16.9453 -1.68771 -5.62841 0
M  V30 197 H 18.4693 -0.854015 -6.04598 0
M  V30 198 H 19.8833 -2.8552 -4.97143 0
M  V30 199 H 18.2803 -3.62372 -4.78338 0
M  V30 200 H 19.3503 -3.47956 -3.3772 0
M  V30 201 N 20.6934 1.19889 -1.02296 0
M  V30 202 C 21.9394 1.89701 -0.717033 0
M  V30 203 C 22.2724 1.7905 0.751989 0
M  V30 204 O 21.5474 1.17891 1.547 0
M  V30 205 C 21.8304 3.40858 -1.16136 0
M  V30 206 C 21.6834 3.60411 -2.69117 0
M  V30 207 C 23.0024 4.33876 -0.737549 0
M  V30 208 H 20.1214 0.688874 -0.261957 0
M  V30 209 H 22.7634 1.41154 -1.27183 0
M  V30 210 H 20.9134 3.82335 -0.689342 0
M  V30 211 H 22.5854 3.28145 -3.2422 0
M  V30 212 H 20.8284 3.03665 -3.0979 0
M  V30 213 H 21.4994 4.66396 -2.95261 0
M  V30 214 H 23.9754 4.00081 -1.14344 0
M  V30 215 H 22.8514 5.38242 -1.0764 0
M  V30 216 H 23.1124 4.40628 0.360436 0
M  V30 217 N 22.1715 0.800033 1.35784 0
M  V30 218 C 23.4175 0.377901 1.99248 0
M  V30 219 C 23.7505 -1.05052 1.63333 0
M  V30 220 O 23.0255 -1.72768 0.893385 0
M  V30 221 C 23.3085 0.553922 3.55814 0
M  V30 222 C 23.1615 2.0268 4.01548 0
M  V30 223 C 24.4805 -0.0244802 4.40093 0
M  V30 224 H 21.5995 0.138782 0.723815 0
M  V30 225 H 24.2415 1.00835 1.61035 0
M  V30 226 H 22.3915 0.0172398 3.88496 0
M  V30 227 H 24.0635 2.62536 3.79305 0
M  V30 228 H 22.3065 2.5256 3.52698 0
M  V30 229 H 22.9775 2.10087 5.10458 0
M  V30 230 H 25.4535 0.433775 4.13833 0
M  V30 231 H 24.3295 0.128637 5.48749 0
M  V30 232 H 24.5905 -1.11758 4.27741 0
M  V30 233 N 23.6496 -1.47581 0.552962 0
M  V30 234 C 24.5596 -2.33743 -0.200353 0
M  V30 235 C 25.5756 -1.47928 -0.916151 0
M  V30 236 O 26.7516 -1.80865 -0.885993 0
M  V30 237 C 23.8166 -3.24536 -1.21973 0
M  V30 238 C 22.8776 -4.26238 -0.511819 0
M  V30 239 C 22.1106 -5.12693 -1.48263 0
M  V30 240 O 22.3336 -5.01525 -2.71714 0
M  V30 241 O 21.2676 -5.93375 -1.00945 0
M  V30 242 H 25.0936 -2.9945 0.506304 0
M  V30 243 H 22.6786 -1.46071 0.313622 0
M  V30 244 H 24.5606 -3.80631 -1.80827 0
M  V30 245 H 23.2356 -2.61462 -1.90839 0
M  V30 246 H 22.1426 -3.73914 0.117799 0
M  V30 247 H 23.4756 -4.92014 0.135308 0
M  V30 248 N 25.1277 -0.289203 -1.54924 0
M  V30 249 C 26.5437 0.0645403 -1.59469 0
M  V30 250 C 26.7437 1.53419 -1.30632 0
M  V30 251 O 25.7997 2.2852 -1.074 0
M  V30 252 C 27.1127 -0.32278 -2.98963 0
M  V30 253 C 28.6607 -0.270564 -3.11828 0
M  V30 254 C 29.1357 -0.632532 -4.53611 0
M  V30 255 N 30.6267 -0.584617 -4.59496 0
M  V30 256 C 31.3617 -0.837314 -5.67254 0
M  V30 257 N 30.8577 -1.15536 -6.83098 0
M  V30 258 N 32.6507 -0.765166 -5.56868 0
M  V30 259 H 24.8017 -1.24714 -1.71931 0
M  V30 260 H 27.0647 -0.504809 -0.802416 0
M  V30 261 H 26.7707 -1.34541 -3.24948 0
M  V30 262 H 26.6447 0.32944 -3.75759 0
M  V30 263 H 29.0317 0.742805 -2.85598 0
M  V30 264 H 29.1127 -0.957242 -2.37214 0
M  V30 265 H 28.7567 -1.64365 -4.80569 0
M  V30 266 H 28.6867 0.07609 -5.26545 0
M  V30 267 H 31.1777 -0.349248 -3.76283 0
M  V30 268 H 31.4907 -1.33447 -7.61191 0
M  V30 269 H 29.8357 -1.19328 -6.84679 0
M  V30 270 H 33.0267 -0.516432 -4.65243 0
M  V30 271 H 33.1997 -0.965477 -6.40767 0
M  V30 272 N 26.6058 1.57591 -0.0167156 0
M  V30 273 C 27.8828 1.82547 0.702564 0
M  V30 274 C 28.2628 0.898018 1.91047 0
M  V30 275 O 27.6108 -0.0493456 2.28447 0
M  V30 276 C 27.8208 3.31459 1.09251 0
M  V30 277 C 29.1688 3.97622 1.48937 0
M  V30 278 O 30.1928 3.35881 1.18584 0
M  V30 279 O 29.0518 5.06415 2.05442 0
M  V30 280 H 26.1458 0.752268 0.343544 0
M  V30 281 H 28.6918 1.69644 -0.0434495 0
M  V30 282 H 27.4638 3.9061 0.23227 0
M  V30 283 H 27.0868 3.49422 1.89709 0
M  V30 284 N 28.0839 -0.256276 1.55502 0
M  V30 285 C 29.3309 -0.985619 1.76895 0
M  V30 286 C 29.6589 -1.85671 0.579355 0
M  V30 287 O 28.9139 -1.90744 -0.437651 0
M  V30 288 C 29.2129 -1.88432 3.03691 0
M  V30 289 C 28.8789 -1.16936 4.35473 0
M  V30 290 C 27.5409 -0.97173 4.71286 0
M  V30 291 C 29.8929 -0.661889 5.1698 0
M  V30 292 C 27.2209 -0.254179 5.86149 0
M  V30 293 C 29.5729 0.042149 6.32586 0
M  V30 294 C 28.2369 0.25134 6.67027 0
M  V30 295 H 27.5069 -0.360663 0.647304 0
M  V30 296 H 30.1539 -0.256483 1.89775 0
M  V30 297 H 28.4589 -2.68021 2.85783 0
M  V30 298 H 30.1559 -2.45015 3.1744 0
M  V30 299 H 26.7459 -1.33332 4.07333 0
M  V30 300 H 30.9299 -0.802145 4.89775 0
M  V30 301 H 26.1859 -0.0815408 6.11346 0
M  V30 302 H 30.3599 0.443049 6.94989 0
M  V30 303 H 27.9869 0.809314 7.5588 0
M  V30 304 N 29.562 -1.4872 -0.521534 0
M  V30 305 C 30.787 -1.61101 -1.30618 0
M  V30 306 C 31.212 -0.274611 -1.86085 0
M  V30 307 O 30.57 0.754937 -1.64834 0
M  V30 308 C 30.618 -2.66709 -2.4269 0
M  V30 309 O 29.722 -2.24456 -3.45967 0
M  V30 310 H 29.063 -0.539921 -0.386499 0
M  V30 311 H 31.593 -1.94767 -0.626645 0
M  V30 312 H 31.603 -2.88245 -2.88754 0
M  V30 313 H 30.278 -3.63727 -2.01682 0
M  V30 314 H 28.855 -2.13168 -3.05964 0
M  V30 315 N 31.0401 0.771051 -1.3745 0
M  V30 316 C 32.2861 1.5319 -1.32894 0
M  V30 317 C 32.6191 1.94008 0.0862511 0
M  V30 318 O 31.8941 1.64124 1.04373 0
M  V30 319 C 32.1771 2.79648 -2.26868 0
M  V30 320 C 32.0301 2.45079 -3.77169 0
M  V30 321 C 33.3491 3.81583 -2.19277 0
M  V30 322 H 30.4681 0.555744 -0.484064 0
M  V30 323 H 33.1101 0.884492 -1.68157 0
M  V30 324 H 31.2601 3.34891 -1.96926 0
M  V30 325 H 32.9321 1.95745 -4.1771 0
M  V30 326 H 31.1751 1.77767 -3.95704 0
M  V30 327 H 31.8461 3.35478 -4.38359 0
M  V30 328 H 34.3221 3.35835 -2.45671 0
M  V30 329 H 33.1981 4.67787 -2.87171 0
M  V30 330 H 33.4591 4.25897 -1.18592 0
M  V30 331 N 32.5182 1.22032 0.997298 0
M  V30 332 C 33.9342 0.979326 1.26021 0
M  V30 333 C 34.1342 -0.32972 1.98784 0
M  V30 334 O 33.1902 -1.05345 2.29475 0
M  V30 335 C 34.5032 2.17509 2.07631 0
M  V30 336 C 36.0512 2.21817 2.2083 0
M  V30 337 C 36.5262 3.40933 3.05825 0
M  V30 338 N 38.0172 3.41067 3.13412 0
M  V30 339 C 38.7522 4.29885 3.79455 0
M  V30 340 N 38.2482 5.28914 4.47462 0
M  V30 341 N 40.0412 4.17673 3.76173 0
M  V30 342 H 32.1922 2.06202 0.509352 0
M  V30 343 H 34.4552 0.90334 0.287541 0
M  V30 344 H 34.1612 3.12415 1.61524 0
M  V30 345 H 34.0352 2.17206 3.08385 0
M  V30 346 H 36.4222 1.27462 2.66153 0
M  V30 347 H 36.5032 2.2616 1.1952 0
M  V30 348 H 36.1472 4.35586 2.61203 0
M  V30 349 H 36.0772 3.33829 4.07266 0
M  V30 350 H 38.5682 2.69406 2.65007 0
M  V30 351 H 38.8812 5.92973 4.95583 0
M  V30 352 H 37.2262 5.32831 4.46224 0
M  V30 353 H 40.4172 3.39564 3.22202 0
M  V30 354 H 40.5902 4.87098 4.27363 0
M  V30 355 N 33.9963 -1.19345 1.0293 0
M  V30 356 C 35.2453 -1.88363 0.721256 0
M  V30 357 C 35.5583 -1.80514 -0.753254 0
M  V30 358 O 36.7643 -2.44788 -1.17436 0
M  V30 359 C 35.2203 -3.37872 1.23978 0
M  V30 360 C 34.8283 -3.54278 2.74211 0
M  V30 361 C 36.5723 -4.12365 1.00775 0
M  V30 362 C 34.4793 -4.97682 3.19479 0
M  V30 363 H 33.4093 -0.705484 0.266098 0
M  V30 364 H 36.0603 -1.34928 1.24365 0
M  V30 365 H 34.4423 -3.90707 0.6453 0
M  V30 366 H 35.6163 -3.11769 3.39318 0
M  V30 367 H 33.9313 -2.93174 2.95699 0
M  V30 368 H 36.5283 -5.18119 1.32123 0
M  V30 369 H 36.8713 -4.16263 -0.0554308 0
M  V30 370 H 37.4043 -3.65668 1.56625 0
M  V30 371 H 34.1433 -4.98945 4.25128 0
M  V30 372 H 33.6633 -5.4095 2.591 0
M  V30 373 H 35.3423 -5.66337 3.12845 0
M  V30 374 N 35.4744 -0.807222 -1.35358 0
M  V30 375 C 36.4044 -0.232509 -2.3234 0
M  V30 376 C 37.3854 0.642386 -1.57504 0
M  V30 377 O 38.5704 0.572526 -1.85569 0
M  V30 378 C 35.7004 0.619238 -3.41735 0
M  V30 379 C 34.6544 -0.157215 -4.27711 0
M  V30 380 C 33.9804 0.816273 -5.28433 0
M  V30 381 C 35.2804 -1.35656 -5.04376 0
M  V30 382 H 36.9744 -1.04276 -2.80654 0
M  V30 383 H 34.5204 -0.50288 -1.34934 0
M  V30 384 H 36.4734 1.03137 -4.08584 0
M  V30 385 H 35.1974 1.46239 -2.92031 0
M  V30 386 H 33.8564 -0.550525 -3.62443 0
M  V30 387 H 33.5044 1.65494 -4.74996 0
M  V30 388 H 33.2044 0.301067 -5.86828 0
M  V30 389 H 34.7284 1.22659 -5.98153 0
M  V30 390 H 36.1424 -1.01927 -5.64166 0
M  V30 391 H 34.5394 -1.8063 -5.7227 0
M  V30 392 H 35.6094 -2.14288 -4.34981 0
M  V30 393 N 36.9525 1.47285 -0.560781 0
M  V30 394 C 38.1805 2.06855 -0.0430262 0
M  V30 395 C 38.5955 1.41291 1.25229 0
M  V30 396 O 37.9525 0.510648 1.7521 0
M  V30 397 C 38.0035 3.61178 0.152518 0
M  V30 398 O 37.7245 4.24285 -1.0915 0
M  V30 399 C 39.2255 4.37624 0.707145 0
M  V30 400 H 36.4455 0.669319 -0.0474652 0
M  V30 401 H 38.9895 1.89237 -0.77521 0
M  V30 402 H 37.1445 3.78298 0.834843 0
M  V30 403 H 37.5585 5.16868 -0.891482 0
M  V30 404 H 39.0325 5.46271 0.793244 0
M  V30 405 H 39.5095 4.04152 1.71923 0
M  V30 406 H 40.1155 4.25257 0.0604027 0
M  V30 407 N 38.4306 0.297415 1.54768 0
M  V30 408 C 39.3936 -0.567375 2.22066 0
M  V30 409 C 40.3936 -1.06409 1.20556 0
M  V30 410 O 41.5836 -0.960691 1.45315 0
M  V30 411 C 38.7156 -1.78517 2.90421 0
M  V30 412 H 39.9086 0.0205534 2.99893 0
M  V30 413 H 37.4616 0.0482163 1.56226 0
M  V30 414 H 38.1966 -2.41303 2.16664 0
M  V30 415 H 37.9816 -1.43669 3.64831 0
M  V30 416 H 39.4716 -2.39964 3.41771 0
M  V30 417 N 39.9087 -1.5758 0.0250728 0
M  V30 418 C 41.1487 -1.93497 -0.65865 0
M  V30 419 C 41.5127 -0.901409 -1.69525 0
M  V30 420 O 42.7137 -1.14664 -2.43116 0
M  V30 421 C 40.9847 -3.34352 -1.26267 0
M  V30 422 S 42.5437 -3.92191 -1.96803 0
M  V30 423 H 39.3617 -0.67709 -0.216958 0
M  V30 424 H 41.9637 -1.95303 0.0877692 0
M  V30 425 H 40.6677 -4.07395 -0.495741 0
M  V30 426 H 40.1987 -3.3598 -2.04648 0
M  V30 427 H 42.2137 -3.75298 -3.24601 0
M  V30 428 N 41.3868 0.248026 -1.55636 0
M  V30 429 C 42.6338 0.976224 -1.77415 0
M  V30 430 C 42.9618 1.85361 -0.589193 0
M  V30 431 O 42.2168 1.90973 0.427529 0
M  V30 432 C 42.5158 1.86819 -3.04686 0
M  V30 433 C 42.1818 1.14625 -4.36087 0
M  V30 434 C 40.8438 0.946723 -4.71795 0
M  V30 435 C 43.1958 0.634463 -5.17324 0
M  V30 436 C 40.5238 0.223091 -5.86276 0
M  V30 437 C 42.8758 -0.0756959 -6.32555 0
M  V30 438 C 41.5398 -0.286711 -6.66884 0
M  V30 439 H 40.8098 0.357226 -0.649208 0
M  V30 440 H 43.4568 0.246415 -1.89908 0
M  V30 441 H 41.7618 2.66502 -2.872 0
M  V30 442 H 43.4588 2.43329 -3.18735 0
M  V30 443 H 40.0488 1.3117 -4.08035 0
M  V30 444 H 44.2328 0.77616 -4.90193 0
M  V30 445 H 39.4888 0.0491185 -6.1138 0
M  V30 446 H 43.6628 -0.479899 -6.94745 0
M  V30 447 H 41.2898 -0.849389 -7.5544 0
M  V30 448 N 42.8649 1.48995 0.513639 0
M  V30 449 C 43.7949 1.67636 1.62544 0
M  V30 450 C 44.7759 0.525087 1.61793 0
M  V30 451 O 45.9609 0.759502 1.78732 0
M  V30 452 C 43.0909 1.73114 3.01079 0
M  V30 453 C 42.0449 2.87905 3.16693 0
M  V30 454 C 41.3709 2.78486 4.56453 0
M  V30 455 C 42.6709 4.29005 2.97913 0
M  V30 456 H 44.3649 2.60716 1.47198 0
M  V30 457 H 41.9109 1.25465 0.706714 0
M  V30 458 H 43.8639 1.84742 3.78746 0
M  V30 459 H 42.5879 0.766241 3.17484 0
M  V30 460 H 41.2469 2.75859 2.41448 0
M  V30 461 H 40.8949 1.7993 4.69717 0
M  V30 462 H 40.5949 3.55523 4.67843 0
M  V30 463 H 42.1189 2.92104 5.36197 0
M  V30 464 H 43.5329 4.41798 3.65359 0
M  V30 465 H 41.9299 5.07166 3.20785 0
M  V30 466 H 42.9999 4.44329 1.94165 0
M  V30 467 N 44.343 -0.763751 1.37857 0
M  V30 468 C 45.568 -1.55805 1.36893 0
M  V30 469 C 45.993 -1.88054 -0.0416135 0
M  V30 470 O 45.351 -1.49825 -1.02089 0
M  V30 471 C 45.399 -2.84012 2.22192 0
M  V30 472 O 44.503 -3.78732 1.63204 0
M  V30 473 H 43.844 -0.471638 0.46739 0
M  V30 474 H 46.374 -0.944657 1.81487 0
M  V30 475 H 46.384 -3.33037 2.35691 0
M  V30 476 H 45.059 -2.59869 3.24716 0
M  V30 477 H 43.636 -3.37402 1.58791 0
M  V30 478 N 45.8211 -1.22559 -0.990812 0
M  V30 479 C 46.7511 -1.0218 -2.09956 0
M  V30 480 C 47.7321 0.0579394 -1.70001 0
M  V30 481 O 48.9171 -0.104684 -1.93918 0
M  V30 482 C 46.0471 -0.601023 -3.4206 0
M  V30 483 C 45.0011 -1.62694 -3.95872 0
M  V30 484 C 44.3271 -1.06193 -5.24049 0
M  V30 485 C 45.6271 -3.01743 -4.2632 0
M  V30 486 H 47.3211 -1.94916 -2.27262 0
M  V30 487 H 44.8671 -0.938566 -1.09211 0
M  V30 488 H 46.8201 -0.445561 -4.19038 0
M  V30 489 H 45.5441 0.362005 -3.24588 0
M  V30 490 H 44.2031 -1.77021 -3.21028 0
M  V30 491 H 43.8511 -0.0901903 -5.02919 0
M  V30 492 H 43.5511 -1.74732 -5.61019 0
M  V30 493 H 45.0751 -0.918092 -6.03658 0
M  V30 494 H 46.4891 -2.90777 -4.94087 0
M  V30 495 H 44.8861 -3.67425 -4.74467 0
M  V30 496 H 45.9561 -3.51518 -3.34011 0
M  V30 497 N 47.2992 1.18797 -1.03562 0
M  V30 498 C 48.2292 2.24472 -0.643019 0
M  V30 499 C 49.2102 1.66433 0.351283 0
M  V30 500 O 50.3952 1.92803 0.232505 0
M  V30 501 C 47.5252 3.473 4.24935e-05 0
M  V30 502 C 46.4792 4.18055 -0.917257 0
M  V30 503 C 45.8052 5.34519 -0.138941 0
M  V30 504 C 47.1052 4.72109 -2.23407 0
M  V30 505 H 48.7992 2.57566 -1.52643 0
M  V30 506 H 46.3452 1.23806 -0.735394 0
M  V30 507 H 48.2982 4.20426 0.286383 0
M  V30 508 H 47.0222 3.13424 0.918299 0
M  V30 509 H 45.6812 3.46821 -1.1879 0
M  V30 510 H 45.3292 4.96891 0.781562 0
M  V30 511 H 45.0292 5.82794 -0.750005 0
M  V30 512 H 46.5532 6.10438 0.1405 0
M  V30 513 H 47.9672 5.36955 -2.00879 0
M  V30 514 H 46.3642 5.30897 -2.79765 0
M  V30 515 H 47.4342 3.89807 -2.88407 0
M  V30 516 N 48.7773 0.814389 1.34928 0
M  V30 517 C 50.0263 0.394871 1.97797 0
M  V30 518 C 50.3393 -1.04555 1.65311 0
M  V30 519 O 51.5453 -1.56856 2.21604 0
M  V30 520 C 50.0013 0.655103 3.53888 0
M  V30 521 C 49.6093 2.10858 3.95276 0
M  V30 522 C 51.3533 0.301329 4.23429 0
M  V30 523 C 49.2603 2.31415 5.44244 0
M  V30 524 H 48.1903 0.143913 0.740139 0
M  V30 525 H 50.8413 0.999544 1.53888 0
M  V30 526 H 49.2233 -0.0196253 3.95995 0
M  V30 527 H 50.3973 2.82176 3.64298 0
M  V30 528 H 48.7123 2.42297 3.38646 0
M  V30 529 H 51.3093 0.432869 5.32945 0
M  V30 530 H 51.6523 -0.75331 4.09428 0
M  V30 531 H 52.1853 0.930288 3.86769 0
M  V30 532 H 48.9243 3.35353 5.63222 0
M  V30 533 H 48.4443 1.6463 5.76764 0
M  V30 534 H 50.1233 2.13352 6.10811 0
M  V30 535 N 50.2554 -1.46986 0.568584 0
M  V30 536 C 51.1854 -2.32946 -0.160753 0
M  V30 537 C 52.1664 -1.44487 -0.897631 0
M  V30 538 O 53.3514 -1.73327 -0.875867 0
M  V30 539 C 50.4814 -3.26494 -1.18403 0
M  V30 540 C 49.4354 -4.24282 -0.562895 0
M  V30 541 C 48.7614 -5.07236 -1.69163 0
M  V30 542 C 50.0614 -5.19989 0.490761 0
M  V30 543 H 51.7554 -2.94175 0.556916 0
M  V30 544 H 49.3014 -1.4146 0.26927 0
M  V30 545 H 51.2544 -3.85477 -1.70251 0
M  V30 546 H 49.9784 -2.63343 -1.93179 0
M  V30 547 H 48.6374 -3.66541 -0.0656164 0
M  V30 548 H 48.2854 -4.4048 -2.42871 0
M  V30 549 H 47.9854 -5.7345 -1.28174 0
M  V30 550 H 49.5094 -5.6908 -2.21314 0
M  V30 551 H 50.9234 -5.73271 0.0579047 0
M  V30 552 H 49.3204 -5.94469 0.820165 0
M  V30 553 H 50.3904 -4.64777 1.3824 0
M  V30 554 N 51.7335 -0.305618 -1.54608 0
M  V30 555 C 52.9585 0.307562 -2.05107 0
M  V30 556 C 53.3835 1.46385 -1.18123 0
M  V30 557 O 52.7415 1.8034 -0.186324 0
M  V30 558 C 52.7895 0.73704 -3.52987 0
M  V30 559 O 51.8935 1.84134 -3.6901 0
M  V30 560 H 51.2345 0.0589143 -0.661381 0
M  V30 561 H 53.7645 -0.448807 -1.99617 0
M  V30 562 H 53.7745 1.02459 -3.94925 0
M  V30 563 H 52.4495 -0.108773 -4.15758 0
M  V30 564 H 51.0265 1.55398 -3.38978 0
M  V30 565 N 53.2116 1.57565 -0.0334293 0
M  V30 566 C 54.4396 1.9628 0.654347 0
M  V30 567 C 54.8546 0.910138 1.65414 0
M  V30 568 O 54.2116 -0.107595 1.82183 0
M  V30 569 C 54.2626 3.35067 1.35693 0
M  V30 570 O 53.9836 4.36296 0.397191 0
M  V30 571 C 55.4846 3.88439 2.13613 0
M  V30 572 H 52.7046 0.646369 0.180132 0
M  V30 573 H 55.2486 2.04282 -0.0944721 0
M  V30 574 H 53.4036 3.2827 2.05712 0
M  V30 575 H 53.8176 5.1678 0.896597 0
M  V30 576 H 55.2916 4.8788 2.58219 0
M  V30 577 H 55.7686 3.22914 2.97696 0
M  V30 578 H 56.3746 3.98516 1.48543 0
M  V30 579 N 54.6897 -0.239769 1.55765 0
M  V30 580 C 55.6197 -1.30052 1.9393 0
M  V30 581 C 56.6007 -1.49839 0.805132 0
M  V30 582 O 57.7857 -1.62328 1.06599 0
M  V30 583 C 54.9157 -2.65391 2.2402 0
M  V30 584 C 53.8697 -2.60289 3.39755 0
M  V30 585 C 53.1957 -3.99489 3.55405 0
M  V30 586 C 54.4957 -2.16654 4.75246 0
M  V30 587 H 56.1897 -0.983573 2.82783 0
M  V30 588 H 53.7357 -0.471701 1.36055 0
M  V30 589 H 55.6887 -3.3974 2.49308 0
M  V30 590 H 54.4127 -2.98736 1.32 0
M  V30 591 H 53.0717 -1.88398 3.14487 0
M  V30 592 H 52.7197 -4.30112 2.60793 0
M  V30 593 H 52.4197 -3.96962 4.33238 0
M  V30 594 H 53.9437 -4.75528 3.83022 0
M  V30 595 H 55.3577 -2.80737 4.99859 0
M  V30 596 H 53.7547 -2.25223 5.56232 0
M  V30 597 H 54.8247 -1.11835 4.71827 0
M  V30 598 N 56.1678 -1.49265 -0.50573 0
M  V30 599 C 57.0978 -1.68495 -1.61653 0
M  V30 600 C 58.0788 -0.53366 -1.61512 0
M  V30 601 O 59.2638 -0.76897 -1.78327 0
M  V30 602 C 56.3938 -1.74709 -3.00157 0
M  V30 603 C 55.3478 -2.89581 -3.15162 0
M  V30 604 C 54.6738 -2.80903 -4.5497 0
M  V30 605 C 55.9738 -4.30578 -2.95634 0
M  V30 606 H 57.6678 -2.61493 -1.45814 0
M  V30 607 H 55.2138 -1.25838 -0.70005 0
M  V30 608 H 57.1668 -1.86748 -3.77761 0
M  V30 609 H 55.8908 -0.783067 -3.17074 0
M  V30 610 H 54.5498 -2.77136 -2.39982 0
M  V30 611 H 54.1978 -1.82419 -4.68756 0
M  V30 612 H 53.8978 -3.57999 -4.65951 0
M  V30 613 H 55.4218 -2.94944 -5.34641 0
M  V30 614 H 56.8358 -4.4373 -3.63011 0
M  V30 615 H 55.2328 -5.0886 -3.18091 0
M  V30 616 H 56.3028 -4.45352 -1.91806 0
M  V30 617 N 57.6459 0.756429 -1.3826 0
M  V30 618 C 58.8939 1.51248 -1.34047 0
M  V30 619 C 59.2149 1.94875 0.0698372 0
M  V30 620 O 58.4849 1.67436 1.01696 0
M  V30 621 H 57.0649 0.561018 -0.493222 0
M  V30 622 H 59.7269 0.899347 -1.7291 0
M  V30 623 H 58.8229 2.40472 -1.98947 0
M  V30 624 N 59.124 1.23083 0.984299 0
M  V30 625 C 60.072 1.00593 2.09723 0
M  V30 626 C 61.066 -0.0538014 1.69315 0
M  V30 627 O 62.272 0.0993719 1.79725 0
M  V30 628 H 58.647 0.30817 0.685956 0
M  V30 629 H 60.618 1.95012 2.2586 0
M  V30 630 C 59.367 0.609601 3.42314 0
M  V30 631 H 58.69 1.41675 3.73856 0
M  V30 632 H 60.13 0.491726 4.21139 0
M  V30 633 C 58.589 -0.681745 3.2993 0
M  V30 634 O 59.119 -1.73192 3.62446 0
M  V30 635 N 57.325 -0.656178 2.83095 0
M  V30 636 H 56.872 0.198759 2.56832 0
M  V30 637 H 56.83 -1.52044 2.75191 0
M  V30 638 N 60.6021 -1.18246 1.0419 0
M  V30 639 C 61.8301 -1.92195 0.766072 0
M  V30 640 C 62.2451 -1.76247 -0.676933 0
M  V30 641 O 61.6021 -1.09293 -1.46155 0
M  V30 642 C 61.6531 -3.43568 1.12442 0
M  V30 643 O 61.3741 -3.59015 2.51078 0
M  V30 644 C 62.8751 -4.34613 0.873275 0
M  V30 645 H 60.0951 -0.610114 0.279288 0
M  V30 646 H 62.6391 -1.50007 1.38989 0
M  V30 647 H 60.7941 -3.8354 0.545542 0
M  V30 648 H 61.2081 -4.5273 2.64831 0
M  V30 649 H 62.6821 -5.39374 1.17385 0
M  V30 650 H 63.1591 -4.38781 -0.191909 0
M  V30 651 H 63.7651 -4.00341 1.43551 0
M  V30 652 N 62.0802 -0.821533 -1.34494 0
M  V30 653 C 63.0102 -0.257138 -2.3208 0
M  V30 654 C 63.9912 0.625645 -1.58176 0
M  V30 655 O 65.1762 0.552811 -1.86166 0
M  V30 656 C 62.3062 0.582958 -3.42372 0
M  V30 657 C 61.2602 -0.202571 -4.2752 0
M  V30 658 C 60.5862 0.760179 -5.29269 0
M  V30 659 C 61.8862 -1.40998 -5.02908 0
M  V30 660 H 63.5802 -1.07247 -2.79532 0
M  V30 661 H 61.1262 -0.517163 -1.34393 0
M  V30 662 H 63.0792 0.987972 -4.09655 0
M  V30 663 H 61.8032 1.43133 -2.93565 0
M  V30 664 H 60.4622 -0.588936 -3.61838 0
M  V30 665 H 60.1102 1.60447 -4.76724 0
M  V30 666 H 59.8102 0.238809 -5.87115 0
M  V30 667 H 61.3342 1.16308 -5.9942 0
M  V30 668 H 62.7482 -1.07905 -5.63054 0
M  V30 669 H 61.1452 -1.86689 -5.70322 0
M  V30 670 H 62.2152 -2.1889 -4.32684 0
M  V30 671 N 63.5583 1.46682 -0.576371 0
M  V30 672 C 64.8043 2.02712 -0.0596221 0
M  V30 673 C 65.1373 1.44765 1.29448 0
M  V30 674 O 64.4123 0.610355 1.84675 0
M  V30 675 C 64.6953 3.60098 0.0129503 0
M  V30 676 C 64.5483 4.28441 -1.3696 0
M  V30 677 C 65.8673 4.34224 0.71678 0
M  V30 678 H 62.9863 0.736637 -0.0231407 0
M  V30 679 H 65.6283 1.74898 -0.742351 0
M  V30 680 H 63.7783 3.83926 0.594378 0
M  V30 681 H 65.4503 4.15896 -1.9957 0
M  V30 682 H 63.6933 3.8805 -1.93907 0
M  V30 683 H 64.3643 5.3716 -1.27135 0
M  V30 684 H 66.8403 4.15503 0.222908 0
M  V30 685 H 65.7163 5.43936 0.73657 0
M  V30 686 H 65.9773 4.04823 1.77682 0
M  V30 687 N 65.0364 0.313813 1.54444 0
M  V30 688 C 66.2764 -0.292389 2.02298 0
M  V30 689 C 66.6404 -1.50105 1.19719 0
M  V30 690 O 67.8414 -2.17947 1.5733 0
M  V30 691 C 66.1124 -0.627682 3.51845 0
M  V30 692 S 67.6714 -1.21493 4.21646 0
M  V30 693 H 64.4894 -0.0890247 0.705405 0
M  V30 694 H 67.0914 0.444668 1.90376 0
M  V30 695 H 65.7954 0.260265 4.09574 0
M  V30 696 H 65.3264 -1.39519 3.67829 0
M  V30 697 H 67.3414 -2.5022 4.28491 0
M  V30 698 N 66.5145 -1.57545 0.0417849 0
M  V30 699 C 67.4775 -2.09885 -0.92093 0
M  V30 700 C 68.4775 -1.01648 -1.24596 0
M  V30 701 O 69.6675 -1.27759 -1.1842 0
M  V30 702 C 66.7995 -2.57527 -2.23367 0
M  V30 703 H 67.9925 -2.96236 -0.467382 0
M  V30 704 H 65.5455 -1.5493 -0.206467 0
M  V30 705 H 66.2805 -1.74542 -2.73323 0
M  V30 706 H 66.0655 -3.36613 -2.01083 0
M  V30 707 H 67.5555 -2.98201 -2.92346 0
M  V30 708 N 67.9926 0.231505 -1.5589 0
M  V30 709 C 68.9556 1.27028 -1.90779 0
M  V30 710 C 69.9556 1.40308 -0.785507 0
M  V30 711 O 71.1456 1.38744 -1.05336 0
M  V30 712 C 68.2776 2.64566 -2.14983 0
M  V30 713 H 69.4706 0.973017 -2.83677 0
M  V30 714 H 67.0236 0.471486 -1.49019 0
M  V30 715 H 67.7586 2.99406 -1.24604 0
M  V30 716 H 67.5436 2.56305 -2.96732 0
M  V30 717 H 69.0336 3.39543 -2.43105 0
M  V30 718 N 69.4707 1.49531 0.497807 0
M  V30 719 C 70.7167 1.59415 1.25358 0
M  V30 720 C 71.0497 0.281422 1.9215 0
M  V30 721 O 70.3247 -0.715249 1.80871 0
M  V30 722 C 70.6077 2.75566 2.3181 0
M  V30 723 C 70.4607 4.16642 1.69498 0
M  V30 724 C 71.7797 2.87347 3.33346 0
M  V30 725 H 68.8987 0.580244 0.454408 0
M  V30 726 H 71.5407 1.81827 0.551262 0
M  V30 727 H 69.6907 2.56587 2.91711 0
M  V30 728 H 71.3627 4.47145 1.13399 0
M  V30 729 H 69.6057 4.22141 0.998978 0
M  V30 730 H 70.2767 4.93792 2.46725 0
M  V30 731 H 72.7527 3.04634 2.83438 0
M  V30 732 H 71.6287 3.70289 4.05188 0
M  V30 733 H 71.8897 1.96834 3.95865 0
M  V30 734 N 70.9488 -0.749086 1.3866 0
M  V30 735 C 72.1978 -1.50371 1.3443 0
M  V30 736 C 72.5108 -1.95503 -0.0616397 0
M  V30 737 O 73.7168 -2.70554 -0.226489 0
M  V30 738 C 72.1728 -2.71644 2.36088 0
M  V30 739 C 71.7808 -2.3352 3.82325 0
M  V30 740 C 73.5248 -3.49518 2.40909 0
M  V30 741 C 71.4318 -3.51431 4.75658 0
M  V30 742 H 70.3618 -0.564628 0.499712 0
M  V30 743 H 73.0128 -0.818449 1.64237 0
M  V30 744 H 71.3948 -3.42175 1.9933 0
M  V30 745 H 72.5688 -1.70627 4.28046 0
M  V30 746 H 70.8838 -1.6877 3.80665 0
M  V30 747 H 73.4808 -4.37197 3.07836 0
M  V30 748 H 73.8238 -3.90992 1.42937 0
M  V30 749 H 74.3568 -2.86005 2.76489 0
M  V30 750 H 71.0958 -3.15019 5.74842 0
M  V30 751 H 70.6158 -4.13352 4.34627 0
M  V30 752 H 72.2948 -4.17953 4.93887 0
M  V30 753 N 72.4269 -1.23603 -0.977757 0
M  V30 754 C 73.8429 -0.999251 -1.24447 0
M  V30 755 C 74.0429 0.298053 -1.99283 0
M  V30 756 O 73.0989 1.01681 -2.31122 0
M  V30 757 C 74.4119 -2.20784 -2.04144 0
M  V30 758 C 75.9599 -2.25303 -2.17273 0
M  V30 759 C 76.4349 -3.45755 -3.00362 0
M  V30 760 N 77.9259 -3.4601 -3.07947 0
M  V30 761 C 78.6609 -4.35868 -3.72568 0
M  V30 762 N 78.1569 -5.35966 -4.38991 0
M  V30 763 N 79.9499 -4.23605 -3.6948 0
M  V30 764 H 72.1009 -2.06986 -0.476483 0
M  V30 765 H 74.3639 -0.907801 -0.273134 0
M  V30 766 H 74.0699 -3.14945 -1.56533 0
M  V30 767 H 73.9439 -2.22085 -3.04891 0
M  V30 768 H 76.3309 -1.3168 -2.64092 0
M  V30 769 H 76.4119 -2.28033 -1.15907 0
M  V30 770 H 76.0559 -4.39687 -2.5424 0
M  V30 771 H 75.9859 -3.40266 -4.01904 0
M  V30 772 H 78.4769 -2.73588 -2.60688 0
M  V30 773 H 78.7899 -6.00783 -4.86086 0
M  V30 774 H 77.1349 -5.39863 -4.37691 0
M  V30 775 H 80.3259 -3.44647 -3.16759 0
M  V30 776 H 80.4989 -4.93836 -4.1956 0
M  V30 777 N 73.905 1.17692 -1.04816 0
M  V30 778 C 75.152 1.87859 -0.75599 0
M  V30 779 C 75.48 1.80812 0.716752 0
M  V30 780 O 74.735 1.20819 1.53952 0
M  V30 781 C 75.034 3.37462 -1.17703 0
M  V30 782 C 74.7 3.64713 -2.65133 0
M  V30 783 C 73.362 3.71859 -3.05408 0
M  V30 784 C 75.714 3.76492 -3.60421 0
M  V30 785 C 73.042 3.88271 -4.39843 0
M  V30 786 C 75.394 3.94421 -4.94585 0
M  V30 787 C 74.058 3.99806 -5.3452 0
M  V30 788 H 73.328 0.687425 -0.276636 0
M  V30 789 H 75.975 1.39255 -1.31455 0
M  V30 790 H 74.28 3.88097 -0.537395 0
M  V30 791 H 75.977 3.90109 -0.928218 0
M  V30 792 H 72.567 3.59772 -2.32942 0
M  V30 793 H 76.751 3.70295 -3.30447 0
M  V30 794 H 72.007 3.90687 -4.70291 0
M  V30 795 H 76.181 4.02477 -5.68318 0
M  V30 796 H 73.808 4.12276 -6.38696 0
M  V30 797 N 75.3831 0.828654 1.34056 0
M  V30 798 C 76.7991 0.515135 1.51058 0
M  V30 799 C 76.9991 -0.959581 1.77184 0
M  V30 800 O 76.0551 -1.74382 1.82612 0
M  V30 801 C 77.3681 1.37963 2.67183 0
M  V30 802 C 78.9161 1.37735 2.81066 0
M  V30 803 C 79.3911 2.22645 4.00241 0
M  V30 804 N 80.8821 2.203 4.07458 0
M  V30 805 C 81.6171 2.82744 4.98842 0
M  V30 806 N 81.1131 3.54201 5.9541 0
M  V30 807 N 82.9061 2.72268 4.91759 0
M  V30 808 H 75.0571 1.78343 1.15358 0
M  V30 809 H 77.3201 0.760304 0.566252 0
M  V30 810 H 77.0261 2.42714 2.54525 0
M  V30 811 H 76.9001 1.0484 3.62338 0
M  V30 812 H 79.2871 0.337593 2.93163 0
M  V30 813 H 79.3681 1.74859 1.86703 0
M  V30 814 H 79.0121 3.26674 3.88905 0
M  V30 815 H 78.9421 1.82869 4.93829 0
M  V30 816 H 81.4331 1.68327 3.38341 0
M  V30 817 H 81.7461 3.9908 6.61782 0
M  V30 818 H 80.0911 3.58308 5.95517 0
M  V30 819 H 83.2821 2.16014 4.15278 0
M  V30 820 H 83.4551 3.21219 5.62781 0
M  V30 821 N 76.8612 -1.46375 0.584142 0
M  V30 822 C 77.8112 -2.27371 -0.169232 0
M  V30 823 C 78.7952 -1.35955 -0.860523 0
M  V30 824 O 79.9872 -1.60119 -0.754382 0
M  V30 825 C 77.1162 -3.22334 -1.18134 0
M  V30 826 C 76.2022 -4.21235 -0.492088 0
M  V30 827 N 76.5932 -5.03766 0.453129 0
M  V30 828 C 74.8912 -4.39773 -0.742652 0
M  V30 829 C 75.5922 -5.75366 0.85609 0
M  V30 830 N 74.5682 -5.43214 0.204926 0
M  V30 831 H 78.3702 -2.88572 0.557097 0
M  V30 832 H 75.8842 -1.57242 0.406042 0
M  V30 833 H 77.8812 -3.79071 -1.73525 0
M  V30 834 H 76.5412 -2.62693 -1.90847 0
M  V30 835 H 77.5522 -5.11227 0.828723 0
M  V30 836 H 74.2292 -3.91279 -1.45625 0
M  V30 837 H 75.6192 -6.5172 1.63434 0
M  V30 838 N 78.3393 -0.321999 -1.54275 0
M  V30 839 C 79.2693 0.537411 -2.27231 0
M  V30 840 C 80.2503 1.12064 -1.27968 0
M  V30 841 O 81.4353 1.14606 -1.56777 0
M  V30 842 C 78.5653 1.69919 -3.02894 0
M  V30 843 C 77.5193 1.24534 -4.09482 0
M  V30 844 C 76.8453 2.49394 -4.72977 0
M  V30 845 C 78.1453 0.361335 -5.21049 0
M  V30 846 H 79.8393 -0.0711406 -2.99315 0
M  V30 847 H 77.3853 -0.0356555 -1.43956 0
M  V30 848 H 79.3383 2.30668 -3.52662 0
M  V30 849 H 78.0623 2.33431 -2.28424 0
M  V30 850 H 76.7213 0.660782 -3.60596 0
M  V30 851 H 76.3693 3.11265 -3.95124 0
M  V30 852 H 76.0693 2.19718 -5.44975 0
M  V30 853 H 77.5933 3.10908 -5.25517 0
M  V30 854 H 79.0073 0.875072 -5.66582 0
M  V30 855 H 77.4043 0.157428 -5.99893 0
M  V30 856 H 78.4743 -0.60822 -4.8107 0
M  V30 857 N 79.8174 1.5752 -0.0501392 0
M  V30 858 C 81.2334 1.56631 0.306402 0
M  V30 859 C 81.4334 1.0577 1.71508 0
M  V30 860 O 80.4894 0.713837 2.422 0
M  V30 861 C 81.8024 3.00393 0.135811 0
M  V30 862 C 83.3504 3.12315 0.206993 0
M  V30 863 C 83.8254 4.57954 0.064944 0
M  V30 864 N 85.3164 4.63041 0.121254 0
M  V30 865 C 86.0514 5.73389 0.0354381 0
M  V30 866 N 85.5474 6.92724 -0.102666 0
M  V30 867 N 87.3404 5.62026 0.090946 0
M  V30 868 H 79.4914 1.88903 -0.971046 0
M  V30 869 H 81.7544 0.869876 -0.376855 0
M  V30 870 H 81.4604 3.41635 -0.835384 0
M  V30 871 H 81.3344 3.66373 0.897275 0
M  V30 872 H 83.7214 2.70973 1.16866 0
M  V30 873 H 83.8024 2.49016 -0.585208 0
M  V30 874 H 83.4464 4.99981 -0.893394 0
M  V30 875 H 83.3764 5.19258 0.876277 0
M  V30 876 H 85.8674 3.77216 0.227284 0
M  V30 877 H 86.1804 7.72633 -0.160882 0
M  V30 878 H 84.5254 6.94864 -0.137737 0
M  V30 879 H 87.7164 4.67684 0.197388 0
M  V30 880 H 87.8894 6.47997 0.0206089 0
M  V30 881 N 81.2955 -0.223234 1.56011 0
M  V30 882 C 82.5205 -0.968978 1.83373 0
M  V30 883 C 82.9455 -1.77227 0.630254 0
M  V30 884 O 82.3035 -1.76345 -0.420959 0
M  V30 885 C 82.3515 -1.86363 3.08709 0
M  V30 886 O 81.4555 -2.95873 2.87285 0
M  V30 887 H 80.7965 -0.274461 0.604622 0
M  V30 888 H 83.3265 -0.237056 2.03222 0
M  V30 889 H 83.3365 -2.27376 3.38768 0
M  V30 890 H 82.0115 -1.27319 3.95933 0
M  V30 891 H 80.5885 -2.58818 2.68454 0
M  V30 892 N 82.7736 -1.49793 -0.48987 0
M  V30 893 C 83.7206 -1.67281 -1.59014 0
M  V30 894 C 84.6906 -0.514177 -1.57941 0
M  V30 895 O 85.8756 -0.742533 -1.75759 0
M  V30 896 C 83.0156 -1.75569 -2.97102 0
M  V30 897 C 82.1286 -3.0281 -3.08107 0
M  V30 898 C 81.2636 -3.02008 -4.36995 0
M  V30 899 C 80.3026 -4.23782 -4.41673 0
M  V30 900 N 79.4396 -4.20826 -5.62005 0
M  V30 901 H 84.2796 -2.61224 -1.43409 0
M  V30 902 H 81.8166 -1.29508 -0.697565 0
M  V30 903 H 83.7746 -1.78354 -3.77155 0
M  V30 904 H 82.4046 -0.850827 -3.11385 0
M  V30 905 H 81.4566 -3.09584 -2.21047 0
M  V30 906 H 82.7686 -3.92801 -3.07423 0
M  V30 907 H 81.9226 -3.03418 -5.25378 0
M  V30 908 H 80.6616 -2.09815 -4.4026 0
M  V30 909 H 79.6666 -4.22604 -3.5169 0
M  V30 910 H 80.8916 -5.17181 -4.40115 0
M  V30 911 H 78.8376 -3.31476 -5.66091 0
M  V30 912 H 78.7546 -5.04564 -5.62984 0
M  V30 913 H 80.0226 -4.26355 -6.52565 0
M  V30 914 N 84.2517 0.741722 -1.39055 0
M  V30 915 C 85.4977 1.50336 -1.36113 0
M  V30 916 C 85.8307 1.94148 0.0450796 0
M  V30 917 O 85.1057 1.66301 1.00868 0
M  V30 918 C 85.3887 2.74773 -2.32749 0
M  V30 919 C 85.2417 2.37023 -3.82283 0
M  V30 920 C 86.5607 3.76846 -2.27322 0
M  V30 921 H 83.6797 0.545351 -0.495743 0
M  V30 922 H 86.3217 0.848624 -1.69995 0
M  V30 923 H 84.4717 3.30639 -2.03986 0
M  V30 924 H 86.1437 1.8684 -4.21768 0
M  V30 925 H 84.3867 1.69334 -3.99385 0
M  V30 926 H 85.0577 3.26104 -4.45376 0
M  V30 927 H 87.5337 3.30548 -2.5274 0
M  V30 928 H 86.4097 4.6159 -2.97028 0
M  V30 929 H 86.6707 4.23286 -1.27599 0
M  V30 930 N 85.7298 1.2412 0.971189 0
M  V30 931 C 86.9578 1.10575 1.74874 0
M  V30 932 C 87.3728 -0.342017 1.85676 0
M  V30 933 O 86.7298 -1.23617 1.34258 0
M  V30 934 C 86.7808 1.73579 3.171 0
M  V30 935 O 86.5018 3.12695 3.06844 0
M  V30 936 C 88.0028 1.65598 4.11208 0
M  V30 937 H 85.2228 0.386504 0.548503 0
M  V30 938 H 87.7668 1.64156 1.21955 0
M  V30 939 H 85.9218 1.24009 3.67016 0
M  V30 940 H 86.3358 3.43412 3.96445 0
M  V30 941 H 87.8098 2.1437 5.08674 0
M  V30 942 H 88.2868 0.616532 4.34851 0
M  V30 943 H 88.8928 2.14578 3.67201 0
M  V30 944 N 87.2079 -1.17134 1.05439 0
M  V30 945 C 88.1559 -2.23289 0.651511 0
M  V30 946 C 89.1499 -1.66186 -0.328411 0
M  V30 947 O 90.3559 -1.78949 -0.194206 0
M  V30 948 H 86.7309 -0.726938 0.192523 0
M  V30 949 H 88.7019 -2.54565 1.55689 0
M  V30 950 C 87.4509 -3.47671 0.0448436 0
M  V30 951 H 86.7739 -3.91918 0.78996 0
M  V30 952 H 88.2139 -4.2353 -0.19964 0
M  V30 953 C 86.6729 -3.14453 -1.20918 0
M  V30 954 O 87.2029 -3.29459 -2.29825 0
M  V30 955 N 85.4089 -2.68657 -1.10779 0
M  V30 956 H 84.9559 -2.56646 -0.221526 0
M  V30 957 H 84.9139 -2.46804 -1.9477 0
M  V30 958 N 88.686 -0.835752 -1.33615 0
M  V30 959 C 89.933 -0.429959 -1.97883 0
M  V30 960 C 90.261 1.01006 -1.66217 0
M  V30 961 O 89.516 1.72047 -0.93265 0
M  V30 962 C 89.815 -0.593925 -3.52431 0
M  V30 963 C 89.481 -2.00158 -4.04039 0
M  V30 964 C 88.143 -2.38662 -4.17844 0
M  V30 965 C 90.495 -2.92117 -4.31644 0
M  V30 966 C 87.823 -3.68435 -4.56588 0
M  V30 967 C 90.175 -4.21368 -4.71838 0
M  V30 968 C 88.839 -4.59833 -4.83849 0
M  V30 969 H 88.109 -0.157333 -0.724104 0
M  V30 970 H 90.756 -1.06217 -1.59343 0
M  V30 971 H 89.061 0.121619 -3.91611 0
M  V30 972 H 90.758 -0.260282 -4.00154 0
M  V30 973 H 87.348 -1.69252 -3.93766 0
M  V30 974 H 91.532 -2.63608 -4.20505 0
M  V30 975 H 86.788 -3.98046 -4.64079 0
M  V30 976 H 90.962 -4.92703 -4.92155 0
M  V30 977 H 88.589 -5.60438 -5.13627 0
M  V30 978 N 90.1641 1.46063 -0.591896 0
M  V30 979 C 91.4111 2.02338 -0.0809991 0
M  V30 980 C 91.7391 1.46228 1.28249 0
M  V30 981 O 90.9941 0.620818 1.85592 0
M  V30 982 C 91.2931 3.57391 0.0249813 0
M  V30 983 C 90.9591 4.32583 -1.27211 0
M  V30 984 C 89.6211 4.52844 -1.62745 0
M  V30 985 C 91.9731 4.75687 -2.13005 0
M  V30 986 C 89.3011 5.13462 -2.83855 0
M  V30 987 C 91.6531 5.37644 -3.3335 0
M  V30 988 C 90.3171 5.5613 -3.69155 0
M  V30 989 H 89.5871 0.740407 -0.0296397 0
M  V30 990 H 92.2341 1.75321 -0.770374 0
M  V30 991 H 90.5391 3.83597 0.797537 0
M  V30 992 H 92.2361 3.98621 0.436184 0
M  V30 993 H 88.8261 4.17116 -0.985499 0
M  V30 994 H 93.0101 4.59782 -1.86855 0
M  V30 995 H 88.2661 5.25965 -3.11722 0
M  V30 996 H 92.4401 5.7 -4.00092 0
M  V30 997 H 90.0671 6.0287 -4.63089 0
M  V30 998 N 91.6422 0.330177 1.54103 0
M  V30 999 C 92.8882 -0.270806 2.00984 0
M  V30 1000 C 93.2212 -1.51265 1.21789 0
M  V30 1001 O 92.4962 -1.92142 0.301927 0
M  V30 1002 C 92.7792 -0.598339 3.55094 0
M  V30 1003 C 92.6322 0.654674 4.4501 0
M  V30 1004 C 93.9512 -1.41334 4.16789 0
M  V30 1005 H 91.0702 -0.0969531 0.730595 0
M  V30 1006 H 93.7122 0.448066 1.84641 0
M  V30 1007 H 91.8622 -1.21078 3.69151 0
M  V30 1008 H 93.5342 1.29285 4.42813 0
M  V30 1009 H 91.7772 1.28224 4.14416 0
M  V30 1010 H 92.4482 0.380944 5.50684 0
M  V30 1011 H 94.9242 -0.895597 4.06347 0
M  V30 1012 H 93.8002 -1.61127 5.24718 0
M  V30 1013 H 94.0612 -2.41146 3.70541 0
M  V30 1014 N 93.1203 -1.57491 0.0584922 0
M  V30 1015 C 94.3693 -1.92155 -0.613146 0
M  V30 1016 C 94.6823 -0.939334 -1.71569 0
M  V30 1017 O 95.8883 -1.17829 -2.44599 0
M  V30 1018 C 94.3443 -3.41303 -1.14195 0
M  V30 1019 C 93.9523 -4.47944 -0.0711265 0
M  V30 1020 C 95.6963 -3.84988 -1.78841 0
M  V30 1021 C 93.6033 -5.88212 -0.613225 0
M  V30 1022 H 92.5333 -0.717162 -0.232796 0
M  V30 1023 H 95.1843 -1.83049 0.12857 0
M  V30 1024 H 93.5663 -3.45437 -1.93621 0
M  V30 1025 H 94.7403 -4.55408 0.702836 0
M  V30 1026 H 93.0553 -4.13644 0.478313 0
M  V30 1027 H 95.6523 -4.87159 -2.20408 0
M  V30 1028 H 95.9953 -3.21632 -2.64308 0
M  V30 1029 H 96.5283 -3.83401 -1.06059 0
M  V30 1030 H 93.2673 -6.55183 0.203978 0
M  V30 1031 H 92.7873 -5.84294 -1.35501 0
M  V30 1032 H 94.4663 -6.37687 -1.09383 0
M  V30 1033 N 94.5984 0.214957 -1.56127 0
M  V30 1034 C 95.8234 0.95924 -1.83884 0
M  V30 1035 C 96.2484 1.7689 -0.639644 0
M  V30 1036 O 95.6064 1.76566 0.411601 0
M  V30 1037 C 95.6544 1.84723 -3.09693 0
M  V30 1038 O 94.7584 2.94346 -2.8885 0
M  V30 1039 H 94.0994 0.27125 -0.606069 0
M  V30 1040 H 96.6294 0.226276 -2.03345 0
M  V30 1041 H 96.6394 2.25576 -3.39969 0
M  V30 1042 H 95.3144 1.25218 -3.96602 0
M  V30 1043 H 93.8914 2.57391 -2.69823 0
M  V30 1044 N 96.0765 1.50051 0.48192 0
M  V30 1045 C 97.0065 1.71046 1.58951 0
M  V30 1046 C 97.9875 0.559288 1.60642 0
M  V30 1047 O 99.1725 0.797243 1.77081 0
M  V30 1048 C 96.3025 1.79462 2.97339 0
M  V30 1049 C 95.2565 2.94558 3.10515 0
M  V30 1050 C 94.5825 2.88105 4.50444 0
M  V30 1051 C 95.8825 4.35227 2.88747 0
M  V30 1052 H 97.5765 2.6378 1.41635 0
M  V30 1053 H 95.1225 1.26936 0.679942 0
M  V30 1054 H 97.0755 1.92734 3.74742 0
M  V30 1055 H 95.7995 0.833412 3.15788 0
M  V30 1056 H 94.4585 2.80918 2.35543 0
M  V30 1057 H 94.1065 1.89853 4.65795 0
M  V30 1058 H 93.8065 3.65366 4.60197 0
M  V30 1059 H 95.3305 3.03412 5.29881 0
M  V30 1060 H 96.7445 4.49449 3.55905 0
M  V30 1061 H 95.1415 5.13856 3.09955 0
M  V30 1062 H 96.2115 4.48347 1.84696 0
M  V30 1063 N 97.5546 -0.734337 1.39446 0
M  V30 1064 C 98.5176 -1.83004 1.37994 0
M  V30 1065 C 99.5176 -1.58397 0.276938 0
M  V30 1066 O 100.708 -1.65785 0.534875 0
M  V30 1067 C 97.8396 -3.20802 1.1532 0
M  V30 1068 H 99.0326 -1.85694 2.35494 0
M  V30 1069 H 96.5856 -0.938059 1.25021 0
M  V30 1070 H 97.3206 -3.23772 0.185036 0
M  V30 1071 H 97.1056 -3.4006 1.95197 0
M  V30 1072 H 98.5956 -4.00862 1.17046 0
M  V30 1073 N 99.0327 -1.24633 -0.964593 0
M  V30 1074 C 100.279 -1.08949 -1.71049 0
M  V30 1075 C 100.612 0.370302 -1.90637 0
M  V30 1076 O 99.8867 1.27349 -1.47011 0
M  V30 1077 C 100.17 -1.83329 -3.0994 0
M  V30 1078 C 100.023 -3.37077 -2.97824 0
M  V30 1079 C 101.342 -1.60846 -4.09654 0
M  V30 1080 H 98.4607 -0.397178 -0.620821 0
M  V30 1081 H 101.103 -1.5334 -1.12191 0
M  V30 1082 H 99.2527 -1.45597 -3.60186 0
M  V30 1083 H 100.925 -3.84425 -2.5498 0
M  V30 1084 H 99.1677 -3.65298 -2.33965 0
M  V30 1085 H 99.8387 -3.84324 -3.96231 0
M  V30 1086 H 102.315 -1.93674 -3.68279 0
M  V30 1087 H 101.191 -2.1534 -5.04896 0
M  V30 1088 H 101.452 -0.547434 -4.38698 0
M  V30 1089 N 100.511 1.16574 -1.06058 0
M  V30 1090 C 101.736 1.91493 -0.796562 0
M  V30 1091 C 102.161 1.76773 0.642868 0
M  V30 1092 O 101.519 1.09142 1.44768 0
M  V30 1093 C 101.567 3.40293 -1.19303 0
M  V30 1094 O 100.671 4.11074 -0.330394 0
M  V30 1095 H 100.012 0.596678 -0.291326 0
M  V30 1096 H 102.542 1.47708 -1.41575 0
M  V30 1097 H 102.552 3.91057 -1.16356 0
M  V30 1098 H 101.227 3.50326 -2.24153 0
M  V30 1099 H 99.8038 3.70513 -0.421225 0
M  V30 1100 N 101.989 0.842826 1.3317 0
M  V30 1101 C 103.266 0.362216 1.92217 0
M  V30 1102 C 103.646 -1.15289 1.76838 0
M  V30 1103 O 102.994 -1.96914 1.15919 0
M  V30 1104 C 103.204 0.813495 3.39387 0
M  V30 1105 C 104.552 0.823804 4.16532 0
M  V30 1106 O 105.576 0.757358 3.48055 0
M  V30 1107 O 104.435 0.915193 5.38782 0
M  V30 1108 H 101.529 0.103317 0.820521 0
M  V30 1109 H 104.075 0.928942 1.42017 0
M  V30 1110 H 102.847 1.85624 3.4447 0
M  V30 1111 H 102.47 0.223561 3.96971 0
M  V30 1112 N 103.467 -1.45747 0.599634 0
M  V30 1113 C 104.397 -2.33235 -0.111306 0
M  V30 1114 C 105.378 -1.46359 -0.866781 0
M  V30 1115 O 106.563 -1.75146 -0.838904 0
M  V30 1116 C 103.693 -3.28932 -1.11451 0
M  V30 1117 C 102.647 -4.25381 -0.472772 0
M  V30 1118 C 101.973 -5.1071 -1.58365 0
M  V30 1119 C 103.273 -5.18831 0.600948 0
M  V30 1120 H 104.967 -2.92927 0.61919 0
M  V30 1121 H 102.513 -1.40857 0.299215 0
M  V30 1122 H 104.466 -3.89002 -1.62036 0
M  V30 1123 H 103.19 -2.67381 -1.8755 0
M  V30 1124 H 101.849 -3.66598 0.0121472 0
M  V30 1125 H 101.497 -4.45533 -2.33473 0
M  V30 1126 H 101.197 -5.7604 -1.15982 0
M  V30 1127 H 102.721 -5.73647 -2.09194 0
M  V30 1128 H 104.135 -5.73019 0.179491 0
M  V30 1129 H 102.532 -5.92595 0.946076 0
M  V30 1130 H 103.602 -4.6174 1.48068 0
M  V30 1131 N 104.945 -0.338344 -1.53925 0
M  V30 1132 C 105.875 0.51328 -2.27789 0
M  V30 1133 C 106.856 1.107 -1.29149 0
M  V30 1134 O 108.041 1.12937 -1.57984 0
M  V30 1135 C 105.171 1.66697 -3.04679 0
M  V30 1136 C 104.125 1.20183 -4.1078 0
M  V30 1137 C 103.451 2.44363 -4.75595 0
M  V30 1138 C 104.751 0.30605 -5.21403 0
M  V30 1139 H 106.445 -0.102883 -2.99223 0
M  V30 1140 H 103.991 -0.0509219 -1.4391 0
M  V30 1141 H 105.944 2.26915 -3.55088 0
M  V30 1142 H 104.668 2.30995 -2.30887 0
M  V30 1143 H 103.327 0.622499 -3.61276 0
M  V30 1144 H 102.975 3.07057 -3.98403 0
M  V30 1145 H 102.675 2.13925 -5.47275 0
M  V30 1146 H 104.199 3.05317 -5.28786 0
M  V30 1147 H 105.613 0.814929 -5.67478 0
M  V30 1148 H 104.01 0.0937929 -6.00027 0
M  V30 1149 H 105.08 -0.65921 -4.80398 0
M  V30 1150 N 106.423 1.57458 -0.0668435 0
M  V30 1151 C 107.669 1.93587 0.6043 0
M  V30 1152 C 108.002 0.946722 1.69561 0
M  V30 1153 O 107.277 -0.0248516 1.94484 0
M  V30 1154 C 107.56 3.40014 1.18585 0
M  V30 1155 C 107.413 4.49685 0.101529 0
M  V30 1156 C 108.732 3.87154 2.09284 0
M  V30 1157 H 105.851 0.703958 0.218202 0
M  V30 1158 H 108.493 1.89542 -0.131804 0
M  V30 1159 H 106.643 3.43592 1.81319 0
M  V30 1160 H 108.315 4.5823 -0.531279 0
M  V30 1161 H 106.558 4.30059 -0.568487 0
M  V30 1162 H 107.229 5.49266 0.54874 0
M  V30 1163 H 109.705 3.85551 1.56491 0
M  V30 1164 H 108.581 4.90231 2.46911 0
M  V30 1165 H 108.842 3.2481 2.99918 0
M  V30 1166 N 107.901 -0.206675 1.56239 0
M  V30 1167 C 108.864 -1.23976 1.92776 0
M  V30 1168 C 109.864 -1.39041 0.807729 0
M  V30 1169 O 111.054 -1.37051 1.0753 0
M  V30 1170 C 108.186 -2.61112 2.19165 0
M  V30 1171 H 109.379 -0.927764 2.85189 0
M  V30 1172 H 106.932 -0.447718 1.4975 0
M  V30 1173 H 107.667 -2.97386 1.29352 0
M  V30 1174 H 107.452 -2.51552 3.00772 0
M  V30 1175 H 108.942 -3.35633 2.48476 0
M  V30 1176 N 109.379 -1.50304 -0.473955 0
M  V30 1177 C 110.625 -1.61389 -1.22806 0
M  V30 1178 C 110.958 -0.311955 -1.91678 0
M  V30 1179 O 110.233 0.686384 -1.81986 0
M  V30 1180 C 110.516 -2.79219 -2.27396 0
M  V30 1181 C 110.369 -4.19286 -1.62848 0
M  V30 1182 C 111.688 -2.92614 -3.28732 0
M  V30 1183 H 108.807 -0.587399 -0.445119 0
M  V30 1184 H 111.449 -1.82681 -0.522265 0
M  V30 1185 H 109.599 -2.61195 -2.87592 0
M  V30 1186 H 111.271 -4.48892 -1.06271 0
M  V30 1187 H 109.514 -4.23677 -0.931693 0
M  V30 1188 H 110.185 -4.97655 -2.38838 0
M  V30 1189 H 112.661 -3.09105 -2.78556 0
M  V30 1190 H 111.537 -3.76688 -3.99246 0
M  V30 1191 H 111.798 -2.03107 -3.92683 0
M  V30 1192 N 110.857 0.726932 -1.39834 0
M  V30 1193 C 111.787 1.85405 -1.41941 0
M  V30 1194 C 112.768 1.67751 -0.281728 0
M  V30 1195 O 113.953 1.8795 -0.488717 0
M  V30 1196 C 111.083 3.23243 -1.2701 0
M  V30 1197 C 110.037 3.55549 -2.38262 0
M  V30 1198 C 109.363 4.9241 -2.08415 0
M  V30 1199 C 110.663 3.577 -3.80589 0
M  V30 1200 H 112.357 1.83899 -2.36266 0
M  V30 1201 H 109.903 0.883349 -1.13723 0
M  V30 1202 H 111.856 4.01775 -1.27103 0
M  V30 1203 H 110.58 3.25296 -0.291564 0
M  V30 1204 H 109.239 2.79351 -2.37399 0
M  V30 1205 H 108.887 4.91052 -1.0898 0
M  V30 1206 H 108.587 5.14992 -2.82943 0
M  V30 1207 H 110.111 5.73289 -2.10171 0
M  V30 1208 H 111.525 4.26293 -3.83337 0
M  V30 1209 H 109.922 3.91804 -4.54543 0
M  V30 1210 H 110.992 2.57328 -4.10987 0
M  V30 1211 N 112.336 1.25143 0.95797 0
M  V30 1212 C 113.582 1.09855 1.70469 0
M  V30 1213 C 113.915 -0.360187 1.90831 0
M  V30 1214 O 113.19 -1.26568 1.47685 0
M  V30 1215 C 113.473 1.8497 3.08963 0
M  V30 1216 C 113.326 3.38652 2.96032 0
M  V30 1217 C 114.645 1.63016 4.08795 0
M  V30 1218 H 111.764 0.400465 0.618706 0
M  V30 1219 H 114.406 1.53933 1.11376 0
M  V30 1220 H 112.556 1.47505 3.59409 0
M  V30 1221 H 114.228 3.85772 2.52938 0
M  V30 1222 H 112.471 3.66534 2.32025 0
M  V30 1223 H 113.142 3.8642 3.94187 0
M  V30 1224 H 115.618 1.95625 3.67247 0
M  V30 1225 H 114.494 2.18015 5.03747 0
M  V30 1226 H 114.755 0.570692 4.38401 0
M  V30 1227 N 113.814 -1.1601 1.06675 0
M  V30 1228 C 114.747 -2.1947 0.625168 0
M  V30 1229 C 115.725 -1.58699 -0.354041 0
M  V30 1230 O 116.909 -1.86669 -0.262098 0
M  V30 1231 C 114.036 -3.38598 -0.0829593 0
M  V30 1232 C 113.082 -4.1787 0.853611 0
M  V30 1233 S 113.915 -4.81135 2.35094 0
M  V30 1234 C 115.071 -6.03639 1.65441 0
M  V30 1235 H 115.304 -2.56587 1.50168 0
M  V30 1236 H 112.837 -1.26862 0.880078 0
M  V30 1237 H 114.795 -4.07621 -0.485288 0
M  V30 1238 H 113.456 -2.99839 -0.935716 0
M  V30 1239 H 112.649 -5.03078 0.304755 0
M  V30 1240 H 112.251 -3.54361 1.196 0
M  V30 1241 H 114.543 -6.70632 0.962201 0
M  V30 1242 H 115.486 -6.63081 2.48454 0
M  V30 1243 H 115.894 -5.52965 1.13534 0
M  V30 1244 N 115.292 -0.849877 -1.32721 0
M  V30 1245 C 116.703 -0.506188 -1.79707 0
M  V30 1246 C 117.054 0.975627 -1.70223 0
M  V30 1247 O 116.179 1.76078 -1.25799 0
M  V30 1248 C 116.774 -0.912044 -3.26293 0
M  V30 1249 C 115.333 -0.620326 -3.71253 0
M  V30 1250 C 114.48 -1.11439 -2.53922 0
M  V30 1251 H 117.431 -1.03754 -1.20087 0
M  V30 1252 H 117.452 -0.226493 -3.79825 0
M  V30 1253 H 116.964 -1.99057 -3.33164 0
M  V30 1254 H 115.065 0.447674 -3.69901 0
M  V30 1255 H 115.178 -1.18327 -4.64258 0
M  V30 1256 H 113.542 -0.534834 -2.49021 0
M  V30 1257 H 114.325 -2.19992 -2.6355 0
M  V30 1258 N 116.77 1.45427 -0.607355 0
M  V30 1259 C 118.016 2.03097 -0.111035 0
M  V30 1260 C 118.371 1.46735 1.24445 0
M  V30 1261 O 117.664 0.632478 1.8086 0
M  V30 1262 C 117.858 3.57398 -0.0129263 0
M  V30 1263 C 117.687 4.28726 -1.35735 0
M  V30 1264 C 116.457 4.66659 -1.93798 0
M  V30 1265 C 118.655 4.60699 -2.28607 0
M  V30 1266 N 116.637 5.22845 -3.21723 0
M  V30 1267 C 118.008 5.17716 -3.41131 0
M  V30 1268 C 120.063 4.42638 -2.27982 0
M  V30 1269 C 118.766 5.58576 -4.53194 0
M  V30 1270 C 120.792 4.84531 -3.39093 0
M  V30 1271 C 120.154 5.4164 -4.50339 0
M  V30 1272 H 116.253 0.777476 -0.083994 0
M  V30 1273 H 118.837 1.77249 -0.805655 0
M  V30 1274 H 117.008 3.82907 0.650914 0
M  V30 1275 H 118.74 4.01722 0.490033 0
M  V30 1276 H 115.495 4.50207 -1.47007 0
M  V30 1277 H 115.919 5.55438 -3.87063 0
M  V30 1278 H 120.561 3.97798 -1.43235 0
M  V30 1279 H 118.279 6.02382 -5.38667 0
M  V30 1280 H 121.865 4.72289 -3.39757 0
M  V30 1281 H 120.745 5.73461 -5.34895 0
M  V30 1282 N 118.248 0.346503 1.53744 0
M  V30 1283 C 119.195 -0.508914 2.25119 0
M  V30 1284 C 120.165 -1.09315 1.25058 0
M  V30 1285 O 121.35 -1.12921 1.53797 0
M  V30 1286 C 118.49 -1.65246 3.02965 0
M  V30 1287 C 117.603 -1.09525 4.17886 0
M  V30 1288 C 116.738 -2.20634 4.83212 0
M  V30 1289 C 115.777 -1.62279 5.90196 0
M  V30 1290 N 114.914 -2.67143 6.49291 0
M  V30 1291 H 119.754 0.106283 2.9781 0
M  V30 1292 H 117.291 0.0642227 1.4696 0
M  V30 1293 H 119.249 -2.32574 3.4636 0
M  V30 1294 H 117.879 -2.2386 2.32565 0
M  V30 1295 H 116.931 -0.312818 3.79112 0
M  V30 1296 H 118.243 -0.628444 4.94825 0
M  V30 1297 H 117.397 -2.95821 5.29693 0
M  V30 1298 H 116.136 -2.70659 4.05703 0
M  V30 1299 H 115.141 -0.855989 5.43096 0
M  V30 1300 H 116.366 -1.13102 6.69615 0
M  V30 1301 H 114.312 -3.16417 5.74645 0
M  V30 1302 H 114.229 -2.25093 7.21713 0
M  V30 1303 H 115.497 -3.4209 7.00425 0
M  V30 1304 N 119.726 -1.57421 0.075193 0
M  V30 1305 C 120.689 -2.11791 -0.876203 0
M  V30 1306 C 121.689 -1.04268 -1.22412 0
M  V30 1307 O 122.879 -1.30242 -1.15684 0
M  V30 1308 C 120.011 -2.62207 -2.17854 0
M  V30 1309 H 121.204 -2.9716 -0.40444 0
M  V30 1310 H 118.757 -1.55333 -0.173557 0
M  V30 1311 H 119.492 -1.803 -2.6956 0
M  V30 1312 H 119.277 -3.40802 -1.93897 0
M  V30 1313 H 120.767 -3.04335 -2.85955 0
M  V30 1314 N 121.204 0.198386 -1.56346 0
M  V30 1315 C 122.45 0.920648 -1.80698 0
M  V30 1316 C 122.783 1.83045 -0.648697 0
M  V30 1317 O 122.058 1.91308 0.350925 0
M  V30 1318 C 122.341 1.73971 -3.15287 0
M  V30 1319 C 122.194 0.85485 -4.41602 0
M  V30 1320 C 123.513 2.71296 -3.46535 0
M  V30 1321 H 120.632 0.333261 -0.657348 0
M  V30 1322 H 123.274 0.188198 -1.89066 0
M  V30 1323 H 121.424 2.36416 -3.08285 0
M  V30 1324 H 123.096 0.245362 -4.60647 0
M  V30 1325 H 121.339 0.161398 -4.335 0
M  V30 1326 H 122.01 1.46286 -5.32264 0
M  V30 1327 H 124.486 2.18983 -3.53816 0
M  V30 1328 H 123.362 3.2569 -4.41834 0
M  V30 1329 H 123.623 3.5018 -2.69864 0
M  V30 1330 N 122.682 1.50554 0.465978 0
M  V30 1331 C 123.645 1.69233 1.54574 0
M  V30 1332 C 124.645 0.562901 1.50626 0
M  V30 1333 O 125.835 0.830016 1.53155 0
M  V30 1334 C 122.967 1.7223 2.94193 0
M  V30 1335 H 124.16 2.65571 1.39327 0
M  V30 1336 H 121.713 1.40111 0.692711 0
M  V30 1337 H 122.448 0.77603 3.14878 0
M  V30 1338 H 122.233 2.54285 2.98466 0
M  V30 1339 H 123.723 1.88618 3.72576 0
M  V30 1340 N 124.16 -0.719506 1.40217 0
M  V30 1341 C 125.07 -1.86378 1.42479 0
M  V30 1342 C 126.086 -1.71073 0.317834 0
M  V30 1343 O 127.262 -1.93406 0.561794 0
M  V30 1344 C 124.327 -3.22136 1.28178 0
M  V30 1345 C 123.388 -3.49723 2.48982 0
M  V30 1346 C 122.621 -4.79004 2.35353 0
M  V30 1347 O 122.844 -5.53821 1.36524 0
M  V30 1348 O 121.778 -5.06839 3.2465 0
M  V30 1349 H 125.604 -1.87425 2.38968 0
M  V30 1350 H 123.189 -0.869405 1.21498 0
M  V30 1351 H 125.071 -4.03234 1.22395 0
M  V30 1352 H 123.746 -3.21825 0.347934 0
M  V30 1353 H 122.653 -2.6865 2.60342 0
M  V30 1354 H 123.986 -3.54828 3.41113 0
M  V30 1355 N 125.638 -1.25649 -0.95132 0
M  V30 1356 C 126.887 -1.09988 -1.69073 0
M  V30 1357 C 127.2 0.358355 -1.92289 0
M  V30 1358 O 128.406 0.635466 -2.63958 0
M  V30 1359 C 126.862 -1.92012 -3.044 0
M  V30 1360 C 126.47 -3.42347 -2.88968 0
M  V30 1361 C 128.214 -1.8493 -3.82101 0
M  V30 1362 C 126.121 -4.16655 -4.19705 0
M  V30 1363 H 125.051 -0.407993 -0.63408 0
M  V30 1364 H 127.702 -1.49873 -1.05879 0
M  V30 1365 H 126.084 -1.44952 -3.68517 0
M  V30 1366 H 127.258 -3.97104 -2.33762 0
M  V30 1367 H 125.573 -3.50557 -2.24719 0
M  V30 1368 H 128.17 -2.37739 -4.78941 0
M  V30 1369 H 128.513 -0.817883 -4.08187 0
M  V30 1370 H 129.046 -2.29758 -3.2474 0
M  V30 1371 H 125.785 -5.20224 -3.98807 0
M  V30 1372 H 125.305 -3.66681 -4.74663 0
M  V30 1373 H 126.984 -4.24551 -4.88227 0
M  V30 1374 N 127.117 1.15442 -1.07289 0
M  V30 1375 C 128.08 2.18358 -0.696591 0
M  V30 1376 C 129.08 1.58637 0.262837 0
M  V30 1377 O 130.27 1.74145 0.0438809 0
M  V30 1378 C 127.402 3.4089 -0.0266151 0
M  V30 1379 H 128.595 2.53162 -1.60776 0
M  V30 1380 H 126.148 1.29893 -0.869342 0
M  V30 1381 H 126.883 3.11653 0.896822 0
M  V30 1382 H 126.668 3.85495 -0.716657 0
M  V30 1383 H 128.158 4.17009 0.222028 0
M  V30 1384 N 128.595 0.856903 1.32268 0
M  V30 1385 C 129.843 0.460474 1.96784 0
M  V30 1386 C 130.164 -0.987701 1.68135 0
M  V30 1387 O 129.434 -1.69058 0.989765 0
M  V30 1388 H 128.014 0.167289 0.728027 0
M  V30 1389 H 130.676 1.09383 1.61312 0
M  V30 1390 H 129.772 0.60739 3.06133 0
M  V30 1391 N 130.073 -1.45103 0.615059 0
M  V30 1392 C 131.32 -2.02183 0.113179 0
M  V30 1393 C 131.648 -1.48249 -1.25906 0
M  V30 1394 O 130.903 -0.650265 -1.84581 0
M  V30 1395 C 131.202 -3.57386 0.0318797 0
M  V30 1396 C 130.868 -4.30505 1.34077 0
M  V30 1397 C 129.53 -4.50197 1.69929 0
M  V30 1398 C 131.882 -4.72238 2.20546 0
M  V30 1399 C 129.21 -5.08881 2.91988 0
M  V30 1400 C 131.562 -5.32272 3.41861 0
M  V30 1401 C 130.226 -5.50187 3.77956 0
M  V30 1402 H 129.496 -0.739842 0.0414151 0
M  V30 1403 H 132.143 -1.74073 0.798168 0
M  V30 1404 H 130.448 -3.84817 -0.736409 0
M  V30 1405 H 132.145 -3.99264 -0.372712 0
M  V30 1406 H 128.735 -4.15496 1.05173 0
M  V30 1407 H 132.919 -4.56751 1.94146 0
M  V30 1408 H 128.175 -5.20939 3.2005 0
M  V30 1409 H 132.349 -5.63563 4.09109 0
M  V30 1410 H 129.976 -5.95427 4.72622 0
M  V30 1411 N 131.551 -0.354651 -1.53558 0
M  V30 1412 C 132.797 0.231422 -2.02079 0
M  V30 1413 C 133.152 1.47308 -1.23767 0
M  V30 1414 O 132.445 1.8891 -0.319947 0
M  V30 1415 C 132.639 0.587121 -3.52545 0
M  V30 1416 C 132.468 -0.618513 -4.45426 0
M  V30 1417 C 131.238 -1.12724 -4.92566 0
M  V30 1418 C 133.436 -1.48039 -4.92533 0
M  V30 1419 N 131.418 -2.29404 -5.69427 0
M  V30 1420 C 132.789 -2.49397 -5.67628 0
M  V30 1421 C 134.844 -1.50454 -4.74624 0
M  V30 1422 C 133.547 -3.53013 -6.26717 0
M  V30 1423 C 135.573 -2.52958 -5.34571 0
M  V30 1424 C 134.935 -3.5304 -6.09543 0
M  V30 1425 H 131.034 0.0476909 -0.780544 0
M  V30 1426 H 133.618 -0.496727 -1.88257 0
M  V30 1427 H 131.789 1.28436 -3.6655 0
M  V30 1428 H 133.521 1.15734 -3.87799 0
M  V30 1429 H 130.276 -0.693577 -4.68494 0
M  V30 1430 H 130.7 -2.88347 -6.12524 0
M  V30 1431 H 135.342 -0.744356 -4.16196 0
M  V30 1432 H 133.06 -4.2992 -6.84247 0
M  V30 1433 H 136.646 -2.55667 -5.22614 0
M  V30 1434 H 135.526 -4.31056 -6.55103 0
M  V30 1435 N 133.029 1.57378 -0.0835403 0
M  V30 1436 C 134.44 1.81261 0.447358 0
M  V30 1437 C 134.791 0.998331 1.68902 0
M  V30 1438 O 133.916 0.224282 2.15235 0
M  V30 1439 C 134.511 3.28767 0.818386 0
M  V30 1440 C 133.07 3.53455 1.29409 0
M  V30 1441 C 132.217 2.75831 0.285024 0
M  V30 1442 H 135.168 1.5566 -0.309115 0
M  V30 1443 H 135.189 3.41459 1.67887 0
M  V30 1444 H 134.701 3.88006 -0.0855019 0
M  V30 1445 H 132.802 2.99534 2.21608 0
M  V30 1446 H 132.915 4.62128 1.2639 0
M  V30 1447 H 131.279 2.42947 0.764767 0
M  V30 1448 H 132.062 3.37813 -0.611341 0
M  V30 1449 N 134.507 -0.190092 1.56449 0
M  V30 1450 C 135.754 -0.909705 1.80916 0
M  V30 1451 C 136.082 -1.83047 0.657583 0
M  V30 1452 O 135.337 -1.92428 -0.356356 0
M  V30 1453 C 135.636 -1.75382 3.1141 0
M  V30 1454 C 135.302 -0.983606 4.40041 0
M  V30 1455 C 133.964 -0.770967 4.74984 0
M  V30 1456 C 136.316 -0.442024 5.19322 0
M  V30 1457 C 133.644 -0.0053448 5.867 0
M  V30 1458 C 135.996 0.310412 6.31838 0
M  V30 1459 C 134.66 0.534023 6.6536 0
M  V30 1460 H 133.93 -0.332885 0.662019 0
M  V30 1461 H 136.577 -0.175762 1.90692 0
M  V30 1462 H 134.882 -2.55659 2.96893 0
M  V30 1463 H 136.579 -2.31331 3.27547 0
M  V30 1464 H 133.169 -1.15936 4.12622 0
M  V30 1465 H 137.353 -0.593693 4.92736 0
M  V30 1466 H 132.609 0.177825 6.11141 0
M  V30 1467 H 136.783 0.737419 6.92485 0
M  V30 1468 H 134.41 1.12918 7.51767 0
M  V30 1469 N 135.985 -1.50799 -0.457987 0
M  V30 1470 C 137.233 -1.62121 -1.2067 0
M  V30 1471 C 137.554 -0.329793 -1.92191 0
M  V30 1472 O 136.824 0.653409 -1.84682 0
M  V30 1473 H 135.404 -0.597441 -0.448411 0
M  V30 1474 H 138.066 -1.87637 -0.527096 0
M  V30 1475 H 137.162 -2.43882 -1.94751 0
M  V30 1476 N 137.463 0.71206 -1.40597 0
M  V30 1477 C 138.688 1.50617 -1.42581 0
M  V30 1478 C 139.113 1.88079 -0.0282102 0
M  V30 1479 O 138.471 1.53511 0.964579 0
M  V30 1480 C 138.519 2.7557 -2.3258 0
M  V30 1481 O 137.623 3.72414 -1.77148 0
M  V30 1482 H 136.964 0.453966 -0.484573 0
M  V30 1483 H 139.494 0.876649 -1.84868 0
M  V30 1484 H 139.504 3.2406 -2.47889 0
M  V30 1485 H 138.179 2.47639 -3.34138 0
M  V30 1486 H 136.756 3.31276 -1.71204 0
M  V30 1487 N 138.941 1.26152 0.944643 0
M  V30 1488 C 140.188 1.11492 1.69044 0
M  V30 1489 C 140.516 -0.342366 1.91463 0
M  V30 1490 O 139.771 -1.26812 1.49054 0
M  V30 1491 C 140.07 1.82541 3.07268 0
M  V30 1492 C 139.736 3.32445 3.04616 0
M  V30 1493 C 138.398 3.73337 3.036 0
M  V30 1494 C 140.75 4.28171 2.97185 0
M  V30 1495 C 138.078 5.08348 2.92915 0
M  V30 1496 C 140.43 5.63218 2.88041 0
M  V30 1497 C 139.094 6.03426 2.85366 0
M  V30 1498 H 138.364 0.407977 0.618576 0
M  V30 1499 H 141.011 1.56551 1.10291 0
M  V30 1500 H 139.316 1.29941 3.69625 0
M  V30 1501 H 141.013 1.68642 3.63815 0
M  V30 1502 H 137.603 2.99915 3.06185 0
M  V30 1503 H 141.787 3.97563 2.97081 0
M  V30 1504 H 137.043 5.38667 2.89219 0
M  V30 1505 H 141.217 6.37078 2.81254 0
M  V30 1506 H 138.844 7.07999 2.76842 0
M  V30 1507 N 140.419 -1.14872 1.07899 0
M  V30 1508 C 141.659 -1.8745 0.814965 0
M  V30 1509 C 142.023 -1.80758 -0.64733 0
M  V30 1510 O 143.224 -2.48422 -1.02664 0
M  V30 1511 C 141.495 -3.32286 1.31607 0
M  V30 1512 S 143.054 -4.22537 1.18357 0
M  V30 1513 H 139.872 -0.646833 0.295174 0
M  V30 1514 H 142.474 -1.38555 1.37923 0
M  V30 1515 H 141.178 -3.34703 2.37491 0
M  V30 1516 H 140.709 -3.86238 0.747261 0
M  V30 1517 H 142.724 -4.96044 0.124586 0
M  V30 1518 N 141.898 -0.863906 -1.31812 0
M  V30 1519 C 142.846 -0.30422 -2.30602 0
M  V30 1520 C 143.84 0.577419 -1.59255 0
M  V30 1521 O 145.046 0.464194 -1.73912 0
M  V30 1522 H 141.421 -0.0796877 -0.747766 0
M  V30 1523 H 143.392 -1.15148 -2.75288 0
M  V30 1524 C 142.141 0.484617 -3.44306 0
M  V30 1525 H 141.464 -0.18451 -3.99374 0
M  V30 1526 H 142.904 0.841664 -4.15562 0
M  V30 1527 C 141.363 1.6735 -2.92396 0
M  V30 1528 O 141.893 2.77273 -2.90659 0
M  V30 1529 N 140.099 1.50362 -2.48676 0
M  V30 1530 H 139.646 0.609402 -2.50288 0
M  V30 1531 H 139.604 2.30051 -2.14299 0
M  V30 1532 N 143.376 1.44774 -0.622745 0
M  V30 1533 C 144.625 2.01334 -0.121397 0
M  V30 1534 C 144.938 1.49505 1.26125 0
M  V30 1535 O 146.144 1.98139 1.85616 0
M  V30 1536 C 144.6 3.59516 -0.166298 0
M  V30 1537 C 144.208 4.20342 -1.54974 0
M  V30 1538 C 145.952 4.23582 0.279021 0
M  V30 1539 C 143.859 5.70721 -1.55021 0
M  V30 1540 H 142.789 0.752851 -0.0416172 0
M  V30 1541 H 145.44 1.66083 -0.780309 0
M  V30 1542 H 143.822 3.92027 0.559557 0
M  V30 1543 H 144.996 3.99381 -2.29851 0
M  V30 1544 H 143.311 3.68529 -1.93843 0
M  V30 1545 H 145.908 5.33868 0.298083 0
M  V30 1546 H 146.251 3.95327 1.30471 0
M  V30 1547 H 146.784 3.95843 -0.394063 0
M  V30 1548 H 143.523 6.03698 -2.55399 0
M  V30 1549 H 143.043 5.93829 -0.844245 0
M  V30 1550 H 144.722 6.34203 -1.28047 0
M  V30 1551 N 144.854 0.36279 1.53368 0
M  V30 1552 C 146.1 -0.220702 2.02199 0
M  V30 1553 C 146.455 -1.46649 1.24546 0
M  V30 1554 O 145.748 -1.88737 0.32996 0
M  V30 1555 C 145.942 -0.568417 3.52851 0
M  V30 1556 C 145.771 0.642126 4.45092 0
M  V30 1557 C 144.541 1.15335 4.91961 0
M  V30 1558 C 146.739 1.50649 4.91741 0
M  V30 1559 N 144.721 2.3242 5.68202 0
M  V30 1560 C 146.092 2.52404 5.66297 0
M  V30 1561 C 148.147 1.52969 4.73819 0
M  V30 1562 C 146.85 3.56331 6.24836 0
M  V30 1563 C 148.876 2.55789 5.33222 0
M  V30 1564 C 148.238 3.56268 6.07662 0
M  V30 1565 H 144.337 -0.0435508 0.780786 0
M  V30 1566 H 146.921 0.506704 1.87991 0
M  V30 1567 H 145.092 -1.2649 3.67226 0
M  V30 1568 H 146.824 -1.13676 3.88407 0
M  V30 1569 H 143.579 0.718412 4.68119 0
M  V30 1570 H 144.003 2.91591 6.10986 0
M  V30 1571 H 148.645 0.766418 4.15795 0
M  V30 1572 H 146.363 4.33543 6.81958 0
M  V30 1573 H 149.949 2.58435 5.21251 0
M  V30 1574 H 148.829 4.34524 6.52808 0
M  V30 1575 N 146.332 -1.57332 0.0918853 0
M  V30 1576 C 147.578 -1.94524 -0.573425 0
M  V30 1577 C 147.911 -0.973578 -1.68033 0
M  V30 1578 O 147.186 -0.00609226 -1.94499 0
M  V30 1579 C 147.469 -3.41858 -1.13161 0
M  V30 1580 C 147.322 -4.4979 -0.0299747 0
M  V30 1581 C 148.641 -3.90435 -2.03098 0
M  V30 1582 H 145.76 -0.70734 -0.206975 0
M  V30 1583 H 148.402 -1.89309 0.161942 0
M  V30 1584 H 146.552 -3.46433 -1.7583 0
M  V30 1585 H 148.224 -4.57327 0.604112 0
M  V30 1586 H 146.467 -4.291 0.636833 0
M  V30 1587 H 147.138 -5.50069 -0.461287 0
M  V30 1588 H 149.614 -3.87992 -1.50338 0
M  V30 1589 H 148.49 -4.94097 -2.39081 0
M  V30 1590 H 148.751 -3.29541 -2.94712 0
M  V30 1591 N 147.81 0.181792 -1.56548 0
M  V30 1592 C 148.773 1.20894 -1.94724 0
M  V30 1593 C 149.773 1.37738 -0.829747 0
M  V30 1594 O 150.963 1.35323 -1.09697 0
M  V30 1595 C 148.095 2.57593 -2.23291 0
M  V30 1596 H 149.288 0.882275 -2.86629 0
M  V30 1597 H 146.841 0.423838 -1.50444 0
M  V30 1598 H 147.576 2.95291 -1.34067 0
M  V30 1599 H 147.361 2.46735 -3.04736 0
M  V30 1600 H 148.851 3.31637 -2.53785 0
M  V30 1601 N 149.288 1.51039 0.449983 0
M  V30 1602 C 150.535 1.63081 1.20045 0
M  V30 1603 C 150.863 0.341024 1.91487 0
M  V30 1604 O 150.118 -0.674276 1.83717 0
M  V30 1605 C 150.417 2.77556 2.25161 0
M  V30 1606 C 150.083 4.17289 1.70823 0
M  V30 1607 C 148.745 4.55305 1.55725 0
M  V30 1608 C 151.097 5.04536 1.3074 0
M  V30 1609 C 148.425 5.78287 0.989999 0
M  V30 1610 C 150.777 6.28085 0.754482 0
M  V30 1611 C 149.441 6.64885 0.590308 0
M  V30 1612 H 148.711 0.596755 0.439277 0
M  V30 1613 H 151.358 1.85037 0.49333 0
M  V30 1614 H 149.663 2.49771 3.01863 0
M  V30 1615 H 151.36 2.84073 2.83026 0
M  V30 1616 H 147.95 3.8731 1.83546 0
M  V30 1617 H 152.134 4.75782 1.41229 0
M  V30 1618 H 147.39 6.05456 0.850451 0
M  V30 1619 H 151.564 6.95038 0.435324 0
M  V30 1620 H 149.191 7.60055 0.14862 0
M  V30 1621 N 150.766 -0.704594 1.40972 0
M  V30 1622 C 152.043 -1.45847 1.30338 0
M  V30 1623 C 152.423 -2.10973 -0.0732344 0
M  V30 1624 O 151.771 -2.00997 -1.08685 0
M  V30 1625 C 151.981 -2.48525 2.45023 0
M  V30 1626 C 153.329 -3.1404 2.8577 0
M  V30 1627 O 154.353 -2.58848 2.44696 0
M  V30 1628 O 153.212 -4.13981 3.56766 0
M  V30 1629 H 150.306 -0.649092 0.512454 0
M  V30 1630 H 152.852 -0.735836 1.52917 0
M  V30 1631 H 151.624 -1.98994 3.36923 0
M  V30 1632 H 151.247 -3.2831 2.24272 0
M  V30 1633 N 152.244 -1.26651 -0.937939 0
M  V30 1634 C 153.493 -1.11775 -1.67897 0
M  V30 1635 C 153.806 0.33794 -1.92659 0
M  V30 1636 O 155.012 0.607434 -2.64618 0
M  V30 1637 C 153.468 -1.9523 -3.02346 0
M  V30 1638 C 153.076 -3.45393 -2.8532 0
M  V30 1639 C 154.82 -1.88972 -3.80118 0
M  V30 1640 C 152.727 -4.21083 -4.15263 0
M  V30 1641 H 151.657 -0.414696 -0.629717 0
M  V30 1642 H 154.308 -1.50988 -1.04283 0
M  V30 1643 H 152.69 -1.48853 -3.66959 0
M  V30 1644 H 153.864 -3.99561 -2.29537 0
M  V30 1645 H 152.179 -3.52921 -2.20988 0
M  V30 1646 H 154.776 -2.42805 -4.76392 0
M  V30 1647 H 155.119 -0.86113 -4.07296 0
M  V30 1648 H 155.652 -2.33189 -3.22285 0
M  V30 1649 H 152.391 -5.24425 -3.93267 0
M  V30 1650 H 151.911 -3.71695 -4.70747 0
M  V30 1651 H 153.59 -4.29706 -4.83696 0
M  V30 1652 N 153.722 1.14298 -1.08507 0
M  V30 1653 C 154.655 2.18447 -0.660004 0
M  V30 1654 C 155.633 1.59242 0.328749 0
M  V30 1655 O 156.817 1.87062 0.232367 0
M  V30 1656 C 153.944 3.38688 0.0290807 0
M  V30 1657 C 152.99 4.1646 -0.919982 0
M  V30 1658 S 153.823 4.77334 -2.42718 0
M  V30 1659 C 154.979 6.00931 -1.75024 0
M  V30 1660 H 155.212 2.54166 -1.54231 0
M  V30 1661 H 152.745 1.25446 -0.900149 0
M  V30 1662 H 154.703 4.08342 0.420378 0
M  V30 1663 H 153.364 3.01289 0.887895 0
M  V30 1664 H 152.557 5.02529 -0.384751 0
M  V30 1665 H 152.159 3.52414 -1.25223 0
M  V30 1666 H 154.451 6.69017 -1.06877 0
M  V30 1667 H 155.394 6.59044 -2.58971 0
M  V30 1668 H 155.802 5.51089 -1.22317 0
M  V30 1669 N 155.201 0.870884 1.31352 0
M  V30 1670 C 156.441 0.488783 1.9847 0
M  V30 1671 C 156.805 -0.941536 1.67329 0
M  V30 1672 O 158.006 -1.42903 2.27667 0
M  V30 1673 C 156.277 0.739688 3.49662 0
M  V30 1674 S 157.836 0.457582 4.36408 0
M  V30 1675 H 154.654 0.18242 0.6872 0
M  V30 1676 H 157.256 1.12711 1.59739 0
M  V30 1677 H 155.96 1.77944 3.69816 0
M  V30 1678 H 155.491 0.0883905 3.93301 0
M  V30 1679 H 157.506 -0.709752 4.91098 0
M  V30 1680 N 156.679 -1.44442 0.630414 0
M  V30 1681 C 157.904 -2.06927 0.139944 0
M  V30 1682 C 158.329 -1.46795 -1.17613 0
M  V30 1683 O 157.687 -0.569144 -1.72135 0
M  V30 1684 C 157.735 -3.6058 0.0379581 0
M  V30 1685 O 156.839 -3.99937 -1.0062 0
M  V30 1686 H 156.18 -0.658608 0.0844483 0
M  V30 1687 H 158.71 -1.85327 0.866891 0
M  V30 1688 H 158.72 -4.07714 -0.152856 0
M  V30 1689 H 157.395 -4.03728 0.998809 0
M  V30 1690 H 155.972 -3.64436 -0.79001 0
M  V30 1691 N 158.157 -0.370918 -1.53173 0
M  V30 1692 C 159.385 0.217704 -2.05751 0
M  V30 1693 C 159.8 1.42018 -1.24404 0
M  V30 1694 O 159.157 1.80245 -0.286033 0
M  V30 1695 C 159.208 0.605954 -3.56385 0
M  V30 1696 O 158.929 -0.548734 -4.3465 0
M  V30 1697 C 160.43 1.2524 -4.25241 0
M  V30 1698 H 157.65 0.0371659 -0.66997 0
M  V30 1699 H 160.194 -0.530832 -1.9749 0
M  V30 1700 H 158.349 1.3044 -3.6478 0
M  V30 1701 H 158.763 -0.23376 -5.23979 0
M  V30 1702 H 160.237 1.47458 -5.3194 0
M  V30 1703 H 160.714 2.2143 -3.79296 0
M  V30 1704 H 161.32 0.595233 -4.21114 0
M  V30 1705 N 159.635 1.57281 -0.100228 0
M  V30 1706 C 160.598 2.13158 0.842398 0
M  V30 1707 C 161.598 1.06202 1.20738 0
M  V30 1708 O 162.788 1.32066 1.13597 0
M  V30 1709 C 159.92 2.65639 2.13655 0
M  V30 1710 H 161.113 2.97766 0.357114 0
M  V30 1711 H 158.666 1.5559 0.148823 0
M  V30 1712 H 159.401 1.84566 2.66657 0
M  V30 1713 H 159.186 3.43844 1.88451 0
M  V30 1714 H 160.676 3.08846 2.81077 0
M  V30 1715 N 161.113 -0.173488 1.56642 0
M  V30 1716 C 162.338 -0.910149 1.86363 0
M  V30 1717 C 162.763 -1.75132 0.686318 0
M  V30 1718 O 162.121 -1.77595 -0.364643 0
M  V30 1719 C 162.169 -1.76447 3.14482 0
M  V30 1720 O 161.273 -2.86584 2.96553 0
M  V30 1721 H 160.614 -0.255086 0.613047 0
M  V30 1722 H 163.144 -0.172283 2.03873 0
M  V30 1723 H 163.154 -2.16483 3.45831 0
M  V30 1724 H 161.829 -1.14658 3.99783 0
M  V30 1725 H 160.406 -2.50146 2.76553 0
M  V30 1726 N 162.591 -1.51276 -0.441967 0
M  V30 1727 C 163.84 -1.6295 -1.18871 0
M  V30 1728 C 164.153 -0.349312 -1.92456 0
M  V30 1729 O 165.359 -0.345355 -2.69295 0
M  V30 1730 C 163.815 -2.87759 -2.16155 0
M  V30 1731 C 163.423 -4.22764 -1.48239 0
M  V30 1732 C 165.167 -3.08788 -2.91291 0
M  V30 1733 C 163.074 -5.38728 -2.4398 0
M  V30 1734 H 162.004 -0.606913 -0.447406 0
M  V30 1735 H 164.655 -1.77739 -0.456205 0
M  V30 1736 H 163.037 -2.66593 -2.92821 0
M  V30 1737 H 164.211 -4.54293 -0.771635 0
M  V30 1738 H 162.526 -4.07575 -0.852741 0
M  V30 1739 H 165.123 -3.92599 -3.63002 0
M  V30 1740 H 165.466 -2.21679 -3.5237 0
M  V30 1741 H 165.999 -3.30272 -2.21733 0
M  V30 1742 H 162.738 -6.28082 -1.87598 0
M  V30 1743 H 162.258 -5.1158 -3.13123 0
M  V30 1744 H 163.937 -5.70489 -3.05207 0
M  V30 1745 N 164.069 0.697108 -1.41344 0
M  V30 1746 C 164.999 1.82353 -1.45841 0
M  V30 1747 C 165.98 1.67115 -0.317247 0
M  V30 1748 O 167.165 1.86871 -0.528474 0
M  V30 1749 C 164.295 3.20476 -1.33838 0
M  V30 1750 C 163.249 3.50415 -2.4575 0
M  V30 1751 C 162.575 4.87878 -2.18813 0
M  V30 1752 C 163.875 3.49546 -3.88091 0
M  V30 1753 H 165.569 1.78846 -2.40113 0
M  V30 1754 H 163.115 0.859028 -1.15571 0
M  V30 1755 H 165.068 3.98988 -1.35596 0
M  V30 1756 H 163.792 3.24604 -0.360498 0
M  V30 1757 H 162.451 2.74253 -2.43271 0
M  V30 1758 H 162.099 4.8863 -1.19371 0
M  V30 1759 H 161.799 5.08875 -2.93803 0
M  V30 1760 H 163.323 5.68702 -2.22284 0
M  V30 1761 H 164.737 4.18066 -3.92293 0
M  V30 1762 H 163.134 3.82075 -4.62751 0
M  V30 1763 H 164.204 2.48552 -4.16353 0
M  V30 1764 N 165.547 1.27147 0.931209 0
M  V30 1765 C 166.495 1.09398 2.05268 0
M  V30 1766 C 167.489 0.0180591 1.6939 0
M  V30 1767 O 168.695 0.17551 1.79142 0
M  V30 1768 H 165.07 0.336986 0.672268 0
M  V30 1769 H 167.041 2.04416 2.17386 0
M  V30 1770 C 165.79 0.75424 3.39421 0
M  V30 1771 H 165.113 1.57404 3.67511 0
M  V30 1772 H 166.553 0.669903 4.18674 0
M  V30 1773 C 165.012 -0.541197 3.32525 0
M  V30 1774 O 165.542 -1.57664 3.69466 0
M  V30 1775 N 163.748 -0.535517 2.85623 0
M  V30 1776 H 163.295 0.307511 2.55758 0
M  V30 1777 H 163.253 -1.40236 2.81392 0
M  V30 1778 N 167.025 -1.13721 1.09112 0
M  V30 1779 C 167.955 -2.21148 0.749385 0
M  V30 1780 C 168.936 -1.6792 -0.271475 0
M  V30 1781 O 170.121 -1.93693 -0.140251 0
M  V30 1782 C 167.251 -3.46905 0.165659 0
M  V30 1783 C 166.205 -4.13203 1.11567 0
M  V30 1784 C 165.531 -5.33248 0.393809 0
M  V30 1785 C 166.831 -4.60912 2.45678 0
M  V30 1786 H 168.525 -2.4999 1.64758 0
M  V30 1787 H 166.071 -1.20156 0.793626 0
M  V30 1788 H 168.024 -4.21313 -0.085466 0
M  V30 1789 H 166.748 -3.17449 -0.767714 0
M  V30 1790 H 165.407 -3.40758 1.35202 0
M  V30 1791 H 165.055 -5.00054 -0.543599 0
M  V30 1792 H 164.755 -5.78552 1.02721 0
M  V30 1793 H 166.279 -6.10413 0.150908 0
M  V30 1794 H 167.693 -5.26759 2.26269 0
M  V30 1795 H 166.09 -5.16944 3.04776 0
M  V30 1796 H 167.16 -3.75603 3.06677 0
M  V30 1797 N 168.503 -0.877838 -1.30888 0
M  V30 1798 C 169.743 -0.499301 -1.98208 0
M  V30 1799 C 170.107 0.932649 -1.67826 0
M  V30 1800 O 171.308 1.41694 -2.28421 0
M  V30 1801 C 169.579 -0.758221 -3.49265 0
M  V30 1802 S 171.138 -0.480719 -4.36159 0
M  V30 1803 H 167.956 -0.186062 -0.686223 0
M  V30 1804 H 170.558 -1.13556 -1.59139 0
M  V30 1805 H 169.262 -1.79903 -3.68867 0
M  V30 1806 H 168.793 -0.109247 -3.93248 0
M  V30 1807 H 170.808 0.683698 -4.91467 0
M  V30 1808 N 169.982 1.44106 -0.638065 0
M  V30 1809 C 171.228 2.02277 -0.145546 0
M  V30 1810 C 171.561 1.50125 1.23191 0
M  V30 1811 O 170.836 0.688133 1.8192 0
M  V30 1812 C 171.119 3.59829 -0.139791 0
M  V30 1813 C 170.972 4.22247 -1.55008 0
M  V30 1814 C 172.291 4.36873 0.531966 0
M  V30 1815 H 169.41 0.734992 -0.0543632 0
M  V30 1816 H 172.052 1.71592 -0.815863 0
M  V30 1817 H 170.202 3.86102 0.431007 0
M  V30 1818 H 171.874 4.07057 -2.1703 0
M  V30 1819 H 170.117 3.79476 -2.10191 0
M  V30 1820 H 170.788 5.31284 -1.49804 0
M  V30 1821 H 173.264 4.16074 0.0464781 0
M  V30 1822 H 172.14 5.4657 0.505206 0
M  V30 1823 H 172.401 4.11995 1.60352 0
M  V30 1824 N 171.46 0.379036 1.52974 0
M  V30 1825 C 172.709 -0.207612 2.00629 0
M  V30 1826 C 173.022 -1.48758 1.27006 0
M  V30 1827 O 174.228 -2.15365 1.65318 0
M  V30 1828 C 172.684 -0.42053 3.57435 0
M  V30 1829 C 172.292 0.845587 4.39948 0
M  V30 1830 C 174.036 -0.964102 4.13407 0
M  V30 1831 C 171.943 0.601513 5.88333 0
M  V30 1832 H 170.873 -0.0813591 0.749598 0
M  V30 1833 H 173.524 0.499853 1.76561 0
M  V30 1834 H 171.906 -1.18959 3.7771 0
M  V30 1835 H 173.08 1.61848 4.31442 0
M  V30 1836 H 171.395 1.31336 3.95145 0
M  V30 1837 H 173.992 -1.16225 5.21916 0
M  V30 1838 H 174.335 -1.93019 3.68849 0
M  V30 1839 H 174.868 -0.25487 3.96983 0
M  V30 1840 H 171.607 1.53831 6.37194 0
M  V30 1841 H 171.127 -0.132628 5.99653 0
M  V30 1842 H 172.806 0.232134 6.46583 0
M  V30 1843 N 172.938 -1.57226 0.108567 0
M  V30 1844 C 174.163 -1.99604 -0.563303 0
M  V30 1845 C 174.588 -0.987563 -1.6009 0
M  V30 1846 O 173.946 0.0421687 -1.81251 0
M  V30 1847 C 173.994 -3.40902 -1.17552 0
M  V30 1848 O 173.098 -3.42896 -2.2912 0
M  V30 1849 H 172.439 -0.648704 -0.1417 0
M  V30 1850 H 174.969 -2.03679 0.193961 0
M  V30 1851 H 174.979 -3.78886 -1.51357 0
M  V30 1852 H 173.654 -4.1382 -0.415445 0
M  V30 1853 H 172.231 -3.1672 -1.96832 0
M  V30 1854 N 174.416 0.165178 -1.56732 0
M  V30 1855 C 175.662 0.882112 -1.82611 0
M  V30 1856 C 175.995 1.81628 -0.687378 0
M  V30 1857 O 175.27 1.92009 0.310267 0
M  V30 1858 C 175.553 1.67245 -3.18906 0
M  V30 1859 C 175.406 0.760987 -4.43316 0
M  V30 1860 C 176.725 2.63884 -3.52212 0
M  V30 1861 H 173.844 0.319242 -0.664269 0
M  V30 1862 H 176.486 0.148052 -1.89422 0
M  V30 1863 H 174.636 2.29824 -3.1323 0
M  V30 1864 H 176.308 0.147596 -4.61064 0
M  V30 1865 H 174.551 0.0694102 -4.33744 0
M  V30 1866 H 175.222 1.34962 -5.35247 0
M  V30 1867 H 177.698 2.11429 -3.58381 0
M  V30 1868 H 176.574 3.16245 -4.48643 0
M  V30 1869 H 176.835 3.44377 -2.77231 0
M  V30 1870 N 175.894 1.51508 0.433938 0
M  V30 1871 C 177.171 1.54888 1.19453 0
M  V30 1872 C 177.551 0.315154 2.08734 0
M  V30 1873 O 176.899 -0.699558 2.17528 0
M  V30 1874 C 177.109 2.86467 1.99342 0
M  V30 1875 C 178.457 3.38545 2.56267 0
M  V30 1876 O 179.481 2.88041 2.0955 0
M  V30 1877 O 178.34 4.26675 3.41483 0
M  V30 1878 H 175.434 0.622863 0.544032 0
M  V30 1879 H 177.98 1.63823 0.442732 0
M  V30 1880 H 176.752 3.67718 1.33788 0
M  V30 1881 H 176.375 2.8071 2.8158 0
M  V30 1882 N 177.372 -0.689602 1.41712 0
M  V30 1883 C 178.788 -1.00093 1.24312 0
M  V30 1884 C 178.988 -2.01036 0.136729 0
M  V30 1885 O 178.044 -2.47562 -0.496918 0
M  V30 1886 C 179.357 -1.51985 2.59463 0
M  V30 1887 C 180.905 -1.63838 2.66695 0
M  V30 1888 C 181.38 -2.1913 4.02177 0
M  V30 1889 N 182.871 -2.26483 4.04054 0
M  V30 1890 C 183.606 -2.70306 5.0569 0
M  V30 1891 N 183.102 -3.13691 6.17713 0
M  V30 1892 N 184.895 -2.69923 4.9305 0
M  V30 1893 H 177.046 -0.0210029 2.1239 0
M  V30 1894 H 179.309 -0.0718733 0.945272 0
M  V30 1895 H 179.015 -0.85269 3.41207 0
M  V30 1896 H 178.889 -2.50103 2.82362 0
M  V30 1897 H 181.276 -2.29664 1.85306 0
M  V30 1898 H 181.357 -0.642492 2.476 0
M  V30 1899 H 181.001 -1.53918 4.84016 0
M  V30 1900 H 180.931 -3.19482 4.18615 0
M  V30 1901 H 183.422 -1.95874 3.23174 0
M  V30 1902 H 183.735 -3.45773 6.9113 0
M  V30 1903 H 182.08 -3.11585 6.21241 0
M  V30 1904 H 185.271 -2.35382 4.04614 0
M  V30 1905 H 185.444 -3.03758 5.72394 0
M  V30 1906 N 178.85 -1.27639 -0.924453 0
M  V30 1907 C 180.08 -1.16819 -1.70402 0
M  V30 1908 C 180.488 0.277191 -1.87158 0
M  V30 1909 O 179.831 1.20025 -1.39067 0
M  V30 1910 C 179.893 -1.78305 -3.12166 0
M  V30 1911 C 179.557 -3.27502 -3.18734 0
M  V30 1912 C 180.554 -4.2409 -3.00738 0
M  V30 1913 C 178.239 -3.68269 -3.4159 0
M  V30 1914 C 180.233 -5.59422 -3.05492 0
M  V30 1915 C 177.92 -5.0373 -3.45977 0
M  V30 1916 C 178.918 -5.99116 -3.27946 0
M  V30 1917 O 178.606 -7.32108 -3.32074 0
M  V30 1918 H 178.338 -0.406931 -0.539799 0
M  V30 1919 H 180.892 -1.69078 -1.16626 0
M  V30 1920 H 179.122 -1.20528 -3.67437 0
M  V30 1921 H 180.811 -1.62154 -3.72103 0
M  V30 1922 H 181.577 -3.93931 -2.82919 0
M  V30 1923 H 177.456 -2.94496 -3.54673 0
M  V30 1924 H 181 -6.33852 -2.91337 0
M  V30 1925 H 176.897 -5.33543 -3.63321 0
M  V30 1926 H 177.665 -7.40598 -3.48507 0
M  V30 1927 N 180.328 1.1314 -1.09713 0
M  V30 1928 C 181.574 1.84967 -0.846104 0
M  V30 1929 C 181.929 1.82082 0.621601 0
M  V30 1930 O 181.222 1.2501 1.452 0
M  V30 1931 C 181.416 3.32167 -1.3191 0
M  V30 1932 C 181.245 3.49386 -2.83125 0
M  V30 1933 C 180.015 3.63456 -3.51038 0
M  V30 1934 C 182.213 3.45179 -3.81256 0
M  V30 1935 N 180.195 3.68966 -4.9065 0
M  V30 1936 C 181.566 3.57094 -5.06837 0
M  V30 1937 C 183.621 3.28598 -3.74069 0
M  V30 1938 C 182.324 3.5414 -6.26081 0
M  V30 1939 C 184.35 3.26953 -4.92804 0
M  V30 1940 C 183.712 3.39422 -6.17229 0
M  V30 1941 H 179.811 0.692899 -0.362512 0
M  V30 1942 H 182.395 1.35506 -1.39808 0
M  V30 1943 H 180.566 3.80186 -0.794535 0
M  V30 1944 H 182.298 3.91815 -1.01308 0
M  V30 1945 H 179.053 3.65256 -3.01471 0
M  V30 1946 H 179.477 3.75404 -5.63383 0
M  V30 1947 H 184.119 3.17858 -2.78794 0
M  V30 1948 H 181.837 3.63653 -7.21653 0
M  V30 1949 H 185.423 3.15316 -4.88945 0
M  V30 1950 H 184.303 3.38114 -7.07565 0
M  V30 1951 N 181.806 0.884767 1.30421 0
M  V30 1952 C 182.769 0.356277 2.26414 0
M  V30 1953 C 183.769 -0.501124 1.52792 0
M  V30 1954 O 184.959 -0.30831 1.7145 0
M  V30 1955 C 182.091 -0.492316 3.37326 0
M  V30 1956 H 183.284 1.20389 2.74675 0
M  V30 1957 H 180.837 0.661607 1.41607 0
M  V30 1958 H 181.572 -1.36052 2.94381 0
M  V30 1959 H 181.357 0.121832 3.91911 0
M  V30 1960 H 182.847 -0.853871 4.08777 0
M  V30 1961 N 183.284 -1.43765 0.645699 0
M  V30 1962 C 184.533 -2.01116 0.153412 0
M  V30 1963 C 184.846 -1.51493 -1.23731 0
M  V30 1964 O 186.052 -2.01067 -1.8244 0
M  V30 1965 C 184.508 -3.59206 0.223473 0
M  V30 1966 C 184.116 -4.17823 1.61642 0
M  V30 1967 C 185.86 -4.23972 -0.211597 0
M  V30 1968 C 183.767 -5.68183 1.64081 0
M  V30 1969 H 182.697 -0.752093 0.0535891 0
M  V30 1970 H 185.348 -1.6482 0.806633 0
M  V30 1971 H 183.73 -3.92867 -0.497118 0
M  V30 1972 H 184.904 -3.95674 2.36176 0
M  V30 1973 H 183.219 -3.65399 1.99681 0
M  V30 1974 H 185.816 -5.34275 -0.213112 0
M  V30 1975 H 186.159 -3.97352 -1.24165 0
M  V30 1976 H 186.692 -3.95166 0.456988 0
M  V30 1977 H 183.431 -5.99559 2.64971 0
M  V30 1978 H 182.951 -5.9241 0.938611 0
M  V30 1979 H 184.63 -6.32085 1.3812 0
M  V30 1980 N 184.763 -0.387143 -1.52771 0
M  V30 1981 C 185.988 0.198407 -2.06449 0
M  V30 1982 C 186.413 1.39918 -1.25716 0
M  V30 1983 O 185.771 1.79099 -0.281657 0
M  V30 1984 C 185.819 0.548893 -3.56398 0
M  V30 1985 O 184.923 1.64315 -3.78252 0
M  V30 1986 H 184.264 0.0237731 -0.663574 0
M  V30 1987 H 186.794 -0.553989 -1.96957 0
M  V30 1988 H 186.804 0.813812 -3.99801 0
M  V30 1989 H 185.479 -0.329005 -4.14597 0
M  V30 1990 H 184.056 1.37211 -3.46738 0
M  V30 1991 N 186.241 1.57166 -0.116904 0
M  V30 1992 C 187.466 1.999 0.55271 0
M  V30 1993 C 187.891 0.996039 1.59564 0
M  V30 1994 O 187.249 -0.032556 1.81271 0
M  V30 1995 C 187.297 3.4152 1.15742 0
M  V30 1996 O 186.401 3.44106 2.27299 0
M  V30 1997 H 185.742 0.649447 0.138258 0
M  V30 1998 H 188.272 2.03573 -0.204759 0
M  V30 1999 H 188.282 3.79684 1.49346 0
M  V30 2000 H 186.957 4.14034 0.393493 0
M  V30 2001 H 185.534 3.17759 1.9515 0
M  V30 2002 N 187.719 -0.156864 1.56817 0
M  V30 2003 C 189.13 -0.717916 1.72345 0
M  V30 2004 C 189.481 -1.82124 0.729747 0
M  V30 2005 O 188.606 -2.16141 -0.105781 0
M  V30 2006 C 189.201 -1.30904 3.12489 0
M  V30 2007 C 187.76 -1.81676 3.29653 0
M  V30 2008 C 186.907 -0.701349 2.68284 0
M  V30 2009 H 189.858 0.0686989 1.58551 0
M  V30 2010 H 189.879 -2.17882 3.11942 0
M  V30 2011 H 189.391 -0.505796 3.8479 0
M  V30 2012 H 187.492 -2.64598 2.62333 0
M  V30 2013 H 187.605 -1.95226 4.3752 0
M  V30 2014 H 185.969 -1.12548 2.28484 0
M  V30 2015 H 186.752 0.0902846 3.43181 0
M  V30 2016 N 189.197 -1.51736 -0.425897 0
M  V30 2017 C 190.444 -1.6497 -1.17436 0
M  V30 2018 C 190.772 -0.371445 -1.9092 0
M  V30 2019 O 190.027 0.644963 -1.84767 0
M  V30 2020 C 190.326 -2.81103 -2.20717 0
M  V30 2021 C 189.992 -4.19954 -1.64162 0
M  V30 2022 C 188.654 -4.57725 -1.48462 0
M  V30 2023 C 191.006 -5.06552 -1.22696 0
M  V30 2024 C 188.334 -5.79789 -0.897873 0
M  V30 2025 C 190.686 -6.29205 -0.654464 0
M  V30 2026 C 189.35 -6.6574 -0.484456 0
M  V30 2027 H 188.62 -0.603668 -0.429727 0
M  V30 2028 H 191.267 -1.85798 -0.463829 0
M  V30 2029 H 189.572 -2.54542 -2.97852 0
M  V30 2030 H 191.269 -2.8854 -2.78471 0
M  V30 2031 H 187.859 -3.90181 -1.77361 0
M  V30 2032 H 192.043 -4.77968 -1.33642 0
M  V30 2033 H 187.299 -6.06733 -0.75402 0
M  V30 2034 H 191.473 -6.95643 -0.324694 0
M  V30 2035 H 189.1 -7.60195 -0.0276833 0
M  V30 2036 N 190.675 0.682077 -1.42076 0
M  V30 2037 C 192.091 0.994324 -1.24841 0
M  V30 2038 C 192.291 2.0096 -0.147389 0
M  V30 2039 O 191.347 2.47822 0.483782 0
M  V30 2040 C 192.66 1.50607 -2.60265 0
M  V30 2041 C 194.208 1.62421 -2.6756 0
M  V30 2042 C 194.683 2.16994 -4.03333 0
M  V30 2043 N 196.174 2.24337 -4.0525 0
M  V30 2044 C 196.909 2.67621 -5.07116 0
M  V30 2045 N 196.405 3.1041 -6.19368 0
M  V30 2046 N 198.198 2.67305 -4.94474 0
M  V30 2047 H 190.349 0.00973908 -2.12398 0
M  V30 2048 H 192.612 0.0668593 -0.945639 0
M  V30 2049 H 192.318 0.834583 -3.41654 0
M  V30 2050 H 192.192 2.48602 -2.83684 0
M  V30 2051 H 194.579 2.28678 -1.86521 0
M  V30 2052 H 194.66 0.629352 -2.47937 0
M  V30 2053 H 194.304 1.51349 -4.84826 0
M  V30 2054 H 194.234 3.17258 -4.20304 0
M  V30 2055 H 196.725 1.94158 -3.24209 0
M  V30 2056 H 197.038 3.42103 -6.92954 0
M  V30 2057 H 195.383 3.08286 -6.22884 0
M  V30 2058 H 198.574 2.33233 -4.05857 0
M  V30 2059 H 198.747 3.00718 -5.73997 0
M  V30 2060 N 192.153 1.28127 0.917671 0
M  V30 2061 C 193.383 1.17722 1.6978 0
M  V30 2062 C 193.791 -0.267261 1.87303 0
M  V30 2063 O 193.134 -1.19286 1.39702 0
M  V30 2064 C 193.196 1.79958 3.11216 0
M  V30 2065 C 192.86 3.29187 3.16993 0
M  V30 2066 C 193.857 4.25679 2.98485 0
M  V30 2067 C 191.542 3.70075 3.39632 0
M  V30 2068 C 193.536 5.61035 3.02521 0
M  V30 2069 C 191.223 5.05557 3.433 0
M  V30 2070 C 192.221 6.00847 3.24764 0
M  V30 2071 O 191.909 7.33859 3.28187 0
M  V30 2072 H 191.641 0.409788 0.537634 0
M  V30 2073 H 194.195 1.69694 1.15728 0
M  V30 2074 H 192.425 1.22475 3.66793 0
M  V30 2075 H 194.114 1.64125 3.71238 0
M  V30 2076 H 194.88 3.95426 2.80826 0
M  V30 2077 H 190.759 2.96373 3.53106 0
M  V30 2078 H 194.303 6.35388 2.87971 0
M  V30 2079 H 190.2 5.35462 3.60486 0
M  V30 2080 H 190.968 7.42436 3.44575 0
M  V30 2081 N 193.631 -1.12557 1.10312 0
M  V30 2082 C 194.541 -2.21841 0.763142 0
M  V30 2083 C 195.557 -1.72354 -0.238801 0
M  V30 2084 O 196.733 -2.01249 -0.0778746 0
M  V30 2085 C 193.798 -3.46131 0.198632 0
M  V30 2086 C 192.859 -4.10464 1.25769 0
M  V30 2087 C 192.092 -5.28821 0.72002 0
M  V30 2088 O 192.315 -5.6859 -0.453993 0
M  V30 2089 O 191.249 -5.83437 1.47935 0
M  V30 2090 H 195.075 -2.53312 1.67532 0
M  V30 2091 H 192.66 -1.20867 0.878157 0
M  V30 2092 H 194.542 -4.2125 -0.112401 0
M  V30 2093 H 193.217 -3.16338 -0.686419 0
M  V30 2094 H 192.124 -3.3713 1.62156 0
M  V30 2095 H 193.457 -4.44408 2.11571 0
M  V30 2096 N 195.109 -0.891671 -1.2995 0
M  V30 2097 C 196.525 -0.58662 -1.48428 0
M  V30 2098 C 196.725 0.873951 -1.81561 0
M  V30 2099 O 195.781 1.65471 -1.90724 0
M  V30 2100 C 197.094 -1.50553 -2.60296 0
M  V30 2101 C 198.642 -1.50988 -2.74175 0
M  V30 2102 C 199.117 -2.41488 -3.89163 0
M  V30 2103 N 200.608 -2.39489 -3.96483 0
M  V30 2104 C 201.343 -3.06223 -4.84784 0
M  V30 2105 N 200.839 -3.82206 -5.77833 0
M  V30 2106 N 202.632 -2.95421 -4.78208 0
M  V30 2107 H 194.783 -1.83644 -1.06718 0
M  V30 2108 H 197.046 -0.786455 -0.529332 0
M  V30 2109 H 196.752 -2.54581 -2.42654 0
M  V30 2110 H 196.626 -1.22008 -3.56923 0
M  V30 2111 H 199.013 -0.47708 -2.91218 0
M  V30 2112 H 199.094 -1.83567 -1.78148 0
M  V30 2113 H 198.738 -3.44857 -3.72876 0
M  V30 2114 H 198.668 -2.06222 -4.84541 0
M  V30 2115 H 201.159 -1.84278 -3.29924 0
M  V30 2116 H 201.472 -4.302 -6.41988 0
M  V30 2117 H 199.817 -3.86313 -5.77743 0
M  V30 2118 H 203.008 -2.35581 -4.04499 0
M  V30 2119 H 203.181 -3.47704 -5.46814 0
M  V30 2120 N 196.587 1.43421 -0.653314 0
M  V30 2121 C 197.534 2.30768 0.0382271 0
M  V30 2122 C 198.504 1.44755 0.814576 0
M  V30 2123 O 199.689 1.73624 0.791162 0
M  V30 2124 C 196.829 3.30336 0.998599 0
M  V30 2125 C 195.942 4.31448 0.218342 0
M  V30 2126 C 195.077 5.18098 1.17252 0
M  V30 2127 C 194.116 6.10902 0.382702 0
M  V30 2128 N 193.253 6.90176 1.28848 0
M  V30 2129 H 198.093 2.89357 -0.712511 0
M  V30 2130 H 195.63 1.42548 -0.363128 0
M  V30 2131 H 197.588 3.86572 1.56901 0
M  V30 2132 H 196.218 2.73397 1.71621 0
M  V30 2133 H 195.27 3.77506 -0.46836 0
M  V30 2134 H 196.582 4.97227 -0.395812 0
M  V30 2135 H 195.736 5.7896 1.81356 0
M  V30 2136 H 194.475 4.52444 1.82058 0
M  V30 2137 H 193.48 5.49128 -0.27169 0
M  V30 2138 H 194.705 6.78598 -0.260957 0
M  V30 2139 H 192.651 6.27171 1.92334 0
M  V30 2140 H 192.568 7.52478 0.728887 0
M  V30 2141 H 193.836 7.55543 1.91766 0
M  V30 2142 N 198.065 0.39524 1.52563 0
M  V30 2143 C 198.998 -0.4813 2.23067 0
M  V30 2144 C 199.976 -1.05927 1.23362 0
M  V30 2145 O 201.16 -1.10979 1.52368 0
M  V30 2146 C 198.287 -1.66676 2.9485 0
M  V30 2147 C 197.333 -1.21348 4.08873 0
M  V30 2148 S 198.166 -0.190102 5.35162 0
M  V30 2149 C 199.322 -1.38121 6.1047 0
M  V30 2150 H 199.555 0.117381 2.97068 0
M  V30 2151 H 197.088 0.179458 1.53354 0
M  V30 2152 H 199.046 -2.3466 3.36816 0
M  V30 2153 H 197.707 -2.23676 2.20518 0
M  V30 2154 H 196.9 -2.09877 4.58222 0
M  V30 2155 H 196.502 -0.612486 3.68951 0
M  V30 2156 H 198.794 -2.30726 6.37002 0
M  V30 2157 H 199.737 -0.928521 7.01986 0
M  V30 2158 H 200.145 -1.60071 5.41329 0
M  V30 2159 N 199.544 -1.57102 0.125237 0
M  V30 2160 C 200.772 -1.99761 -0.538797 0
M  V30 2161 C 201.187 -1.00503 -1.59827 0
M  V30 2162 O 200.544 0.00119474 -1.825 0
M  V30 2163 C 200.595 -3.42408 -1.15927 0
M  V30 2164 O 200.316 -4.37869 -0.142143 0
M  V30 2165 C 201.817 -4.00232 -1.90602 0
M  V30 2166 H 199.037 -0.655772 -0.14214 0
M  V30 2167 H 201.581 -2.03383 0.213413 0
M  V30 2168 H 199.736 -3.39706 -1.86223 0
M  V30 2169 H 200.15 -5.21128 -0.593775 0
M  V30 2170 H 201.624 -5.02105 -2.29335 0
M  V30 2171 H 202.101 -3.39721 -2.78363 0
M  V30 2172 H 202.707 -4.06499 -1.25055 0
M  V30 2173 N 201.022 0.148545 -1.56898 0
M  V30 2174 C 202.433 0.708766 -1.72723 0
M  V30 2175 C 202.784 1.81734 -0.739395 0
M  V30 2176 O 201.909 2.16194 0.0943169 0
M  V30 2177 C 202.504 1.29245 -3.13179 0
M  V30 2178 C 201.063 1.79925 -3.30611 0
M  V30 2179 C 200.21 0.687111 -2.68652 0
M  V30 2180 H 203.161 -0.0771063 -1.58513 0
M  V30 2181 H 203.182 2.16224 -3.13093 0
M  V30 2182 H 202.694 0.485382 -3.85053 0
M  V30 2183 H 200.795 2.63203 -2.63732 0
M  V30 2184 H 200.908 1.92903 -4.38549 0
M  V30 2185 H 199.272 1.11335 -2.29078 0
M  V30 2186 H 200.055 -0.108483 -3.43129 0
M  V30 2187 N 202.5 1.5196 0.417844 0
M  V30 2188 C 203.447 1.74678 1.50852 0
M  V30 2189 C 204.417 0.588947 1.55308 0
M  V30 2190 O 205.602 0.825544 1.72016 0
M  V30 2191 C 202.742 1.89544 2.88387 0
M  V30 2192 C 201.855 3.17166 2.93309 0
M  V30 2193 C 200.99 3.22513 4.22088 0
M  V30 2194 C 200.029 4.44372 4.20951 0
M  V30 2195 N 199.166 4.47161 5.41287 0
M  V30 2196 H 204.006 2.67768 1.30783 0
M  V30 2197 H 201.543 1.32689 0.63498 0
M  V30 2198 H 203.501 1.96146 3.68216 0
M  V30 2199 H 202.131 0.998424 3.06971 0
M  V30 2200 H 201.183 3.19778 2.06024 0
M  V30 2201 H 202.495 4.07021 2.88332 0
M  V30 2202 H 201.649 3.28139 5.10303 0
M  V30 2203 H 200.388 2.30581 4.29748 0
M  V30 2204 H 199.393 4.38902 3.31127 0
M  V30 2205 H 200.618 5.3759 4.14938 0
M  V30 2206 H 198.564 3.58108 5.49632 0
M  V30 2207 H 198.481 5.3085 5.3827 0
M  V30 2208 H 199.749 4.57005 6.3148 0
M  V30 2209 N 203.978 -0.674533 1.42435 0
M  V30 2210 C 204.941 -1.76986 1.45632 0
M  V30 2211 C 205.941 -1.5708 0.343871 0
M  V30 2212 O 207.131 -1.63367 0.604709 0
M  V30 2213 C 204.263 -3.15623 1.28822 0
M  V30 2214 H 205.456 -1.75539 2.43158 0
M  V30 2215 H 203.009 -0.884189 1.28887 0
M  V30 2216 H 203.744 -3.22696 0.322193 0
M  V30 2217 H 203.529 -3.31475 2.09444 0
M  V30 2218 H 205.019 -3.95537 1.33942 0
M  V30 2219 N 205.456 -1.28612 -0.910864 0
M  V30 2220 C 206.419 -1.12803 -1.9952 0
M  V30 2221 C 207.419 -0.0668264 -1.60661 0
M  V30 2222 O 208.609 -0.312847 -1.71368 0
M  V30 2223 C 205.741 -0.72254 -3.33155 0
M  V30 2224 H 206.934 -2.09109 -2.14973 0
M  V30 2225 H 204.487 -1.11639 -1.09391 0
M  V30 2226 H 205.222 0.241152 -3.23402 0
M  V30 2227 H 205.007 -1.48916 -3.62721 0
M  V30 2228 H 206.497 -0.634666 -4.12749 0
M  V30 2229 N 206.934 1.1197 -1.10907 0
M  V30 2230 C 208.181 1.83588 -0.854507 0
M  V30 2231 C 208.509 1.84357 0.6199 0
M  V30 2232 O 207.764 1.28809 1.47332 0
M  V30 2233 C 208.063 3.30749 -1.35425 0
M  V30 2234 C 207.729 3.50146 -2.84093 0
M  V30 2235 C 206.391 3.55148 -3.2469 0
M  V30 2236 C 208.743 3.56857 -3.79872 0
M  V30 2237 C 206.071 3.6441 -4.59806 0
M  V30 2238 C 208.423 3.6765 -5.14797 0
M  V30 2239 C 207.087 3.7091 -5.54961 0
M  V30 2240 H 206.357 0.671795 -0.312686 0
M  V30 2241 H 209.004 1.32091 -1.38652 0
M  V30 2242 H 207.309 3.84703 -0.742361 0
M  V30 2243 H 209.006 3.8464 -1.1337 0
M  V30 2244 H 205.596 3.46919 -2.51685 0
M  V30 2245 H 209.78 3.52258 -3.49611 0
M  V30 2246 H 205.036 3.65208 -4.9034 0
M  V30 2247 H 209.21 3.71786 -5.88853 0
M  V30 2248 H 206.837 3.7784 -6.59652 0
M  V30 2249 N 208.412 0.89855 1.29475 0
M  V30 2250 C 209.661 0.519863 1.94885 0
M  V30 2251 C 209.974 -0.9383 1.71625 0
M  V30 2252 O 211.18 -1.42445 2.31131 0
M  V30 2253 C 209.636 0.878836 3.49005 0
M  V30 2254 C 209.244 2.35569 3.81066 0
M  V30 2255 C 210.988 0.570004 4.20656 0
M  V30 2256 C 208.895 2.65558 5.28425 0
M  V30 2257 H 207.825 0.190692 0.729488 0
M  V30 2258 H 210.476 1.09539 1.47219 0
M  V30 2259 H 208.858 0.232253 3.95318 0
M  V30 2260 H 210.032 3.04773 3.45616 0
M  V30 2261 H 208.347 2.63343 3.22552 0
M  V30 2262 H 210.944 0.770925 5.29113 0
M  V30 2263 H 211.287 -0.491404 4.1339 0
M  V30 2264 H 211.82 1.17438 3.8007 0
M  V30 2265 H 208.559 3.70493 5.40754 0
M  V30 2266 H 208.079 2.00977 5.65127 0
M  V30 2267 H 209.758 2.51765 5.96006 0
M  V30 2268 N 209.89 -1.43072 0.660911 0
M  V30 2269 C 210.82 -2.33497 -0.0122829 0
M  V30 2270 C 211.801 -1.49903 -0.803925 0
M  V30 2271 O 212.986 -1.78546 -0.763864 0
M  V30 2272 C 210.116 -3.33363 -0.973994 0
M  V30 2273 C 209.07 -4.27003 -0.291928 0
M  V30 2274 C 208.396 -5.16967 -1.36562 0
M  V30 2275 C 209.696 -5.15816 0.820462 0
M  V30 2276 H 211.39 -2.90038 0.742873 0
M  V30 2277 H 208.936 -1.39461 0.358688 0
M  V30 2278 H 210.889 -3.95524 -1.45392 0
M  V30 2279 H 209.613 -2.75095 -1.7604 0
M  V30 2280 H 208.272 -3.66217 0.167623 0
M  V30 2281 H 207.92 -4.55034 -2.14366 0
M  V30 2282 H 207.62 -5.80441 -0.914454 0
M  V30 2283 H 209.144 -5.82003 -1.84675 0
M  V30 2284 H 210.558 -5.71742 0.422366 0
M  V30 2285 H 208.955 -5.8805 1.19656 0
M  V30 2286 H 210.025 -4.55045 1.67518 0
M  V30 2287 N 211.368 -0.403325 -1.52352 0
M  V30 2288 C 212.617 0.175668 -2.00934 0
M  V30 2289 C 212.93 1.46718 -1.29356 0
M  V30 2290 O 214.136 2.12708 -1.68724 0
M  V30 2291 C 212.592 0.363612 -3.58058 0
M  V30 2292 C 212.2 -0.915472 -4.38547 0
M  V30 2293 C 213.944 0.89821 -4.14888 0
M  V30 2294 C 211.851 -0.695035 -5.87302 0
M  V30 2295 H 210.781 0.0694234 -0.750797 0
M  V30 2296 H 213.432 -0.527879 -1.75743 0
M  V30 2297 H 211.814 1.12935 -3.79555 0
M  V30 2298 H 212.988 -1.68691 -4.28812 0
M  V30 2299 H 211.303 -1.37606 -3.93006 0
M  V30 2300 H 213.9 1.07907 -5.23699 0
M  V30 2301 H 214.243 1.87126 -3.71873 0
M  V30 2302 H 214.776 0.191681 -3.97338 0
M  V30 2303 H 211.515 -1.63948 -6.34666 0
M  V30 2304 H 211.035 0.0372116 -5.99788 0
M  V30 2305 H 212.714 -0.33497 -6.46132 0
M  V30 2306 N 212.846 1.57033 -0.133567 0
M  V30 2307 C 214.071 2.00475 0.531477 0
M  V30 2308 C 214.496 1.01291 1.58499 0
M  V30 2309 O 213.854 -0.0133279 1.81295 0
M  V30 2310 C 213.902 3.42729 1.12113 0
M  V30 2311 O 213.006 3.46498 2.23636 0
M  V30 2312 H 212.347 0.650876 0.131362 0
M  V30 2313 H 214.877 2.03344 -0.22634 0
M  V30 2314 H 214.887 3.81246 1.4531 0
M  V30 2315 H 213.562 4.14428 0.349557 0
M  V30 2316 H 212.139 3.19811 1.91769 0
M  V30 2317 N 214.325 -0.140222 1.56975 0
M  V30 2318 C 215.571 -0.852949 1.83991 0
M  V30 2319 C 215.904 -1.80512 0.716187 0
M  V30 2320 O 215.179 -1.92479 -0.279681 0
M  V30 2321 C 215.462 -1.6215 3.21527 0
M  V30 2322 C 215.315 -0.690363 4.4447 0
M  V30 2323 C 216.634 -2.58247 3.56366 0
M  V30 2324 H 213.753 -0.308634 0.669264 0
M  V30 2325 H 216.395 -0.117898 1.89634 0
M  V30 2326 H 214.545 -2.24812 3.16847 0
M  V30 2327 H 216.217 -0.0742264 4.6124 0
M  V30 2328 H 214.46 -0.000396433 4.338 0
M  V30 2329 H 215.131 -1.2643 5.37326 0
M  V30 2330 H 217.607 -2.05701 3.61699 0
M  V30 2331 H 216.483 -3.09067 4.53617 0
M  V30 2332 H 216.744 -3.39923 2.82674 0
M  V30 2333 N 215.803 -1.52179 -0.40978 0
M  V30 2334 C 216.766 -1.74853 -1.48186 0
M  V30 2335 C 217.766 -0.618417 -1.48433 0
M  V30 2336 O 218.956 -0.886286 -1.49969 0
M  V30 2337 C 216.088 -1.8303 -2.87598 0
M  V30 2338 H 217.281 -2.70559 -1.29374 0
M  V30 2339 H 214.834 -1.42586 -0.640233 0
M  V30 2340 H 215.569 -0.89236 -3.11781 0
M  V30 2341 H 215.354 -2.65187 -2.88822 0
M  V30 2342 H 216.844 -2.02316 -3.65319 0
M  V30 2343 N 217.281 0.66697 -1.42791 0
M  V30 2344 C 218.527 1.42754 -1.44889 0
M  V30 2345 C 218.882 1.92283 -0.0669755 0
M  V30 2346 O 218.175 1.68494 0.912154 0
M  V30 2347 C 218.369 2.6349 -2.4147 0
M  V30 2348 C 218.198 2.25776 -3.88915 0
M  V30 2349 C 216.968 2.1476 -4.57391 0
M  V30 2350 C 219.166 1.86927 -4.79127 0
M  V30 2351 N 217.148 1.70232 -5.89826 0
M  V30 2352 C 218.519 1.53378 -6.00729 0
M  V30 2353 C 220.574 1.73989 -4.66511 0
M  V30 2354 C 219.277 1.08187 -7.11117 0
M  V30 2355 C 221.303 1.30203 -5.76889 0
M  V30 2356 C 220.665 0.975818 -6.97608 0
M  V30 2357 H 216.764 0.518559 -0.585338 0
M  V30 2358 H 219.348 0.768906 -1.78874 0
M  V30 2359 H 217.519 3.27033 -2.09533 0
M  V30 2360 H 219.251 3.30123 -2.34096 0
M  V30 2361 H 216.006 2.3408 -4.11708 0
M  V30 2362 H 216.43 1.50369 -6.6009 0
M  V30 2363 H 221.072 1.97853 -3.7365 0
M  V30 2364 H 218.79 0.830701 -8.03819 0
M  V30 2365 H 222.376 1.20701 -5.69142 0
M  V30 2366 H 221.256 0.642157 -7.81566 0
M  V30 2367 N 218.759 1.29093 0.90403 0
M  V30 2368 C 219.987 1.19689 1.68766 0
M  V30 2369 C 220.402 -0.243113 1.87228 0
M  V30 2370 O 219.759 -1.16326 1.40621 0
M  V30 2371 C 219.81 1.90144 3.07453 0
M  V30 2372 O 219.531 3.2852 2.89838 0
M  V30 2373 C 221.032 1.87162 4.01852 0
M  V30 2374 H 218.252 0.415035 0.527244 0
M  V30 2375 H 220.796 1.7039 1.13082 0
M  V30 2376 H 218.951 1.43289 3.59926 0
M  V30 2377 H 219.365 3.63944 3.77684 0
M  V30 2378 H 220.839 2.41032 4.96596 0
M  V30 2379 H 221.316 0.84617 4.30972 0
M  V30 2380 H 221.922 2.33741 3.5531 0
M  V30 2381 N 220.237 -1.11381 1.11499 0
M  V30 2382 C 221.167 -2.19509 0.796125 0
M  V30 2383 C 222.148 -1.68458 -0.235796 0
M  V30 2384 O 223.333 -1.93947 -0.0991344 0
M  V30 2385 C 220.463 -3.46475 0.239205 0
M  V30 2386 C 219.417 -4.10744 1.20307 0
M  V30 2387 C 218.743 -5.32293 0.50683 0
M  V30 2388 C 220.043 -4.55597 2.55399 0
M  V30 2389 H 221.737 -2.46439 1.70024 0
M  V30 2390 H 219.283 -1.18446 0.818935 0
M  V30 2391 H 221.236 -4.214 0.00392006 0
M  V30 2392 H 219.96 -3.19006 -0.700206 0
M  V30 2393 H 218.619 -3.37813 1.42399 0
M  V30 2394 H 218.267 -5.01095 -0.437408 0
M  V30 2395 H 217.967 -5.76243 1.1497 0
M  V30 2396 H 219.491 -6.09956 0.280351 0
M  V30 2397 H 220.905 -5.21841 2.37391 0
M  V30 2398 H 219.302 -5.10363 3.15673 0
M  V30 2399 H 220.372 -3.69013 3.14575 0
M  V30 2400 N 221.715 -0.905404 -1.28997 0
M  V30 2401 C 222.94 -0.549175 -1.99997 0
M  V30 2402 C 223.365 0.860276 -1.67275 0
M  V30 2403 O 222.723 1.57355 -0.900502 0
M  V30 2404 C 222.771 -0.755185 -3.52604 0
M  V30 2405 O 221.875 0.189692 -4.11964 0
M  V30 2406 H 221.216 -0.213899 -0.628604 0
M  V30 2407 H 223.746 -1.21856 -1.64354 0
M  V30 2408 H 223.756 -0.662045 -4.02593 0
M  V30 2409 H 222.431 -1.78271 -3.75755 0
M  V30 2410 H 221.008 0.0485257 -3.72868 0
M  V30 2411 N 223.193 1.4272 -0.668489 0
M  V30 2412 C 224.439 2.01923 -0.188419 0
M  V30 2413 C 224.772 1.52704 1.19979 0
M  V30 2414 O 224.047 0.726566 1.8042 0
M  V30 2415 C 224.33 3.59451 -0.216085 0
M  V30 2416 C 224.183 4.18864 -1.6393 0
M  V30 2417 C 225.502 4.37903 0.439179 0
M  V30 2418 H 222.621 0.733674 -0.0699412 0
M  V30 2419 H 225.263 1.69822 -0.852076 0
M  V30 2420 H 223.413 3.86929 0.349012 0
M  V30 2421 H 225.085 4.02362 -2.25616 0
M  V30 2422 H 223.328 3.74933 -2.18193 0
M  V30 2423 H 223.999 5.27987 -1.61039 0
M  V30 2424 H 226.475 4.16079 -0.0417878 0
M  V30 2425 H 225.351 5.47519 0.389157 0
M  V30 2426 H 225.612 4.15303 1.51577 0
M  V30 2427 N 224.671 0.411399 1.52136 0
M  V30 2428 C 225.601 -0.404015 2.29978 0
M  V30 2429 C 226.582 -1.04412 1.34284 0
M  V30 2430 O 227.767 -1.0527 1.63192 0
M  V30 2431 C 224.897 -1.5197 3.12286 0
M  V30 2432 C 223.851 -1.00448 4.16046 0
M  V30 2433 C 223.177 -2.21393 4.86712 0
M  V30 2434 C 224.477 -0.0569336 5.22269 0
M  V30 2435 H 226.171 0.245529 2.98392 0
M  V30 2436 H 223.717 0.119525 1.43503 0
M  V30 2437 H 225.67 -2.09715 3.6551 0
M  V30 2438 H 224.394 -2.19716 2.41646 0
M  V30 2439 H 223.053 -0.449421 3.63835 0
M  V30 2440 H 222.701 -2.87699 4.12599 0
M  V30 2441 H 222.401 -1.87571 5.56858 0
M  V30 2442 H 223.925 -2.7974 5.4275 0
M  V30 2443 H 225.339 -0.54325 5.7072 0
M  V30 2444 H 223.736 0.192594 5.99791 0
M  V30 2445 H 224.806 0.887663 4.76706 0
M  V30 2446 N 226.149 -1.5696 0.141893 0
M  V30 2447 C 227.398 -1.95135 -0.510427 0
M  V30 2448 C 227.711 -1.02896 -1.66348 0
M  V30 2449 O 228.917 -1.30629 -2.38009 0
M  V30 2450 C 227.373 -3.46876 -0.959427 0
M  V30 2451 C 226.981 -4.47691 0.166419 0
M  V30 2452 C 228.725 -3.93927 -1.58183 0
M  V30 2453 C 226.632 -5.90636 -0.300565 0
M  V30 2454 H 225.562 -0.728494 -0.194454 0
M  V30 2455 H 228.213 -1.8211 0.22542 0
M  V30 2456 H 226.595 -3.55215 -1.75038 0
M  V30 2457 H 227.769 -4.51043 0.94325 0
M  V30 2458 H 226.084 -4.10527 0.696905 0
M  V30 2459 H 228.681 -4.98158 -1.94275 0
M  V30 2460 H 229.024 -3.3519 -2.46888 0
M  V30 2461 H 229.557 -3.88484 -0.855863 0
M  V30 2462 H 226.296 -6.5318 0.550989 0
M  V30 2463 H 225.816 -5.90655 -1.04338 0
M  V30 2464 H 227.495 -6.42588 -0.754265 0
M  V30 2465 N 227.627 0.131896 -1.57047 0
M  V30 2466 C 228.852 0.860418 -1.8871 0
M  V30 2467 C 229.277 1.73251 -0.73251 0
M  V30 2468 O 228.635 1.785 0.317429 0
M  V30 2469 C 228.683 1.68047 -3.19049 0
M  V30 2470 O 227.787 2.7862 -3.04047 0
M  V30 2471 H 227.128 0.238743 -0.619595 0
M  V30 2472 H 229.658 0.118169 -2.04258 0
M  V30 2473 H 229.668 2.07238 -3.51449 0
M  V30 2474 H 228.343 1.04018 -4.02682 0
M  V30 2475 H 226.92 2.42726 -2.83088 0
M  V30 2476 N 229.106 1.52395 0.401703 0
M  V30 2477 C 230.353 1.66817 1.14796 0
M  V30 2478 C 230.681 0.401772 1.90305 0
M  V30 2479 O 229.936 -0.615487 1.85769 0
M  V30 2480 C 230.235 2.84578 2.16217 0
M  V30 2481 C 229.901 4.22513 1.5746 0
M  V30 2482 C 228.563 4.60029 1.41161 0
M  V30 2483 C 230.915 5.0844 1.14622 0
M  V30 2484 C 228.243 5.81144 0.80552 0
M  V30 2485 C 230.595 6.30167 0.55428 0
M  V30 2486 C 229.259 6.66426 0.378482 0
M  V30 2487 H 228.529 0.610428 0.420069 0
M  V30 2488 H 231.176 1.86512 0.434212 0
M  V30 2489 H 229.481 2.59248 2.93764 0
M  V30 2490 H 231.178 2.92933 2.73845 0
M  V30 2491 H 227.768 3.92953 1.71132 0
M  V30 2492 H 231.952 4.80034 1.26021 0
M  V30 2493 H 227.208 6.07855 0.657399 0
M  V30 2494 H 231.382 6.96071 0.213983 0
M  V30 2495 H 229.009 7.60143 -0.0932606 0
M  V30 2496 N 230.584 -0.659388 1.43143 0
M  V30 2497 C 231.833 -1.41518 1.43721 0
M  V30 2498 C 232.146 -1.95499 0.0628176 0
M  V30 2499 O 233.352 -2.71446 -0.0539683 0
M  V30 2500 C 231.808 -2.5608 2.52885 0
M  V30 2501 C 231.416 -2.08733 3.96402 0
M  V30 2502 C 233.16 -3.3349 2.62649 0
M  V30 2503 C 231.067 -3.20469 4.97045 0
M  V30 2504 H 229.997 -0.531705 0.534608 0
M  V30 2505 H 232.648 -0.712343 1.69109 0
M  V30 2506 H 231.03 -3.28805 2.20688 0
M  V30 2507 H 232.204 -1.43059 4.3803 0
M  V30 2508 H 230.519 -1.44219 3.90627 0
M  V30 2509 H 233.116 -4.16734 3.35017 0
M  V30 2510 H 233.459 -3.8111 1.67513 0
M  V30 2511 H 233.992 -2.67842 2.94118 0
M  V30 2512 H 230.731 -2.77824 5.93712 0
M  V30 2513 H 230.251 -3.84874 4.60034 0
M  V30 2514 H 231.93 -3.85698 5.19467 0
M  V30 2515 N 232.062 -1.29571 -0.897171 0
M  V30 2516 C 233.473 -1.15964 -1.46319 0
M  V30 2517 C 233.824 0.244267 -1.94674 0
M  V30 2518 O 232.949 1.13998 -1.83939 0
M  V30 2519 C 233.544 -2.09906 -2.65942 0
M  V30 2520 C 232.103 -2.00314 -3.18671 0
M  V30 2521 C 231.25 -2.00687 -1.91363 0
M  V30 2522 H 234.201 -1.42019 -0.708268 0
M  V30 2523 H 234.222 -1.67276 -3.41759 0
M  V30 2524 H 233.734 -3.12075 -2.30718 0
M  V30 2525 H 231.835 -1.01242 -3.58582 0
M  V30 2526 H 231.948 -2.88102 -3.82798 0
M  V30 2527 H 230.312 -1.45319 -2.09175 0
M  V30 2528 H 231.095 -3.04566 -1.58413 0
M  V30 2529 N 233.54 1.10788 -1.12088 0
M  V30 2530 C 234.786 1.82942 -0.875226 0
M  V30 2531 C 235.119 1.84779 0.597538 0
M  V30 2532 O 234.394 1.30578 1.44152 0
M  V30 2533 C 234.677 3.29789 -1.44606 0
M  V30 2534 C 234.53 3.36307 -2.98693 0
M  V30 2535 C 235.849 4.26064 -1.10261 0
M  V30 2536 H 232.968 0.664195 -0.319397 0
M  V30 2537 H 235.61 1.29867 -1.38689 0
M  V30 2538 H 233.76 3.75118 -1.01089 0
M  V30 2539 H 235.432 2.99487 -3.50864 0
M  V30 2540 H 233.675 2.76318 -3.34411 0
M  V30 2541 H 234.346 4.39694 -3.33726 0
M  V30 2542 H 236.822 3.88951 -1.4784 0
M  V30 2543 H 235.698 5.27183 -1.52869 0
M  V30 2544 H 235.959 4.42098 -0.0142953 0
M  V30 2545 N 235.018 0.912232 1.28515 0
M  V30 2546 C 235.95 0.35676 2.26406 0
M  V30 2547 C 236.963 -0.503933 1.54804 0
M  V30 2548 O 238.152 -0.319059 1.75625 0
M  V30 2549 C 235.252 -0.508825 3.35058 0
M  V30 2550 C 234.425 0.329007 4.36161 0
M  V30 2551 C 233.484 -0.471422 5.24084 0
M  V30 2552 O 232.51 0.115482 5.69083 0
M  V30 2553 N 233.712 -1.77479 5.52704 0
M  V30 2554 H 236.477 1.19818 2.74707 0
M  V30 2555 H 234.038 0.778022 1.4198 0
M  V30 2556 H 236.03 -1.051 3.90815 0
M  V30 2557 H 234.6 -1.25095 2.86478 0
M  V30 2558 H 233.82 1.05256 3.79888 0
M  V30 2559 H 235.108 0.90234 5.00735 0
M  V30 2560 H 234.506 -2.27417 5.17975 0
M  V30 2561 H 233.063 -2.26382 6.11224 0
M  V30 2562 N 236.496 -1.42363 0.676048 0
M  V30 2563 C 237.426 -2.33497 0.0124832 0
M  V30 2564 C 238.407 -1.50748 -0.787981 0
M  V30 2565 O 239.592 -1.79346 -0.744884 0
M  V30 2566 C 236.722 -3.34377 -0.938582 0
M  V30 2567 C 235.676 -4.27289 -0.246622 0
M  V30 2568 C 235.002 -5.18386 -1.31071 0
M  V30 2569 C 236.302 -5.14916 0.875125 0
M  V30 2570 H 237.996 -2.89233 0.773593 0
M  V30 2571 H 235.542 -1.39073 0.37346 0
M  V30 2572 H 237.495 -3.97044 -1.41188 0
M  V30 2573 H 236.219 -2.76947 -1.73113 0
M  V30 2574 H 234.878 -3.66018 0.206456 0
M  V30 2575 H 234.526 -4.57282 -2.09528 0
M  V30 2576 H 234.226 -5.81378 -0.852839 0
M  V30 2577 H 235.75 -5.83929 -1.78492 0
M  V30 2578 H 237.164 -5.71262 0.482983 0
M  V30 2579 H 235.561 -5.86747 1.25887 0
M  V30 2580 H 236.631 -4.53242 1.72335 0
M  V30 2581 N 237.974 -0.419461 -1.51915 0
M  V30 2582 C 239.199 0.154572 -2.06823 0
M  V30 2583 C 239.624 1.3722 -1.28656 0
M  V30 2584 O 238.982 1.78461 -0.319583 0
M  V30 2585 C 239.03 0.473172 -3.57482 0
M  V30 2586 O 238.134 1.56255 -3.81652 0
M  V30 2587 H 237.475 0.0096924 -0.663929 0
M  V30 2588 H 240.005 -0.595642 -1.95738 0
M  V30 2589 H 240.015 0.728825 -4.01438 0
M  V30 2590 H 238.69 -0.416873 -4.13805 0
M  V30 2591 H 237.267 1.29825 -3.49571 0
M  V30 2592 N 239.452 1.56882 -0.150215 0
M  V30 2593 C 240.698 1.97299 0.494427 0
M  V30 2594 C 241.053 1.0338 1.62266 0
M  V30 2595 O 240.346 0.0694497 1.91474 0
M  V30 2596 C 240.54 3.41801 1.04437 0
M  V30 2597 C 240.369 4.49691 -0.0290451 0
M  V30 2598 C 239.139 5.03095 -0.47156 0
M  V30 2599 C 241.337 5.07693 -0.821703 0
M  V30 2600 N 239.319 5.94593 -1.52749 0
M  V30 2601 C 240.69 5.95431 -1.72805 0
M  V30 2602 C 242.745 4.90256 -0.869134 0
M  V30 2603 C 241.448 6.67599 -2.67777 0
M  V30 2604 C 243.474 5.63127 -1.8067 0
M  V30 2605 C 242.836 6.50576 -2.70057 0
M  V30 2606 H 238.935 0.76755 0.149639 0
M  V30 2607 H 241.519 1.93145 -0.24556 0
M  V30 2608 H 239.69 3.46541 1.75396 0
M  V30 2609 H 241.422 3.69272 1.6559 0
M  V30 2610 H 238.177 4.73543 -0.0732101 0
M  V30 2611 H 238.601 6.45047 -2.05531 0
M  V30 2612 H 243.243 4.22363 -0.192134 0
M  V30 2613 H 240.961 7.34717 -3.36476 0
M  V30 2614 H 244.547 5.51629 -1.84924 0
M  V30 2615 H 243.427 7.05974 -3.41424 0
M  V30 2616 N 240.93 -0.123565 1.57115 0
M  V30 2617 C 241.88 -1.1575 1.96433 0
M  V30 2618 C 242.864 -1.37313 0.838686 0
M  V30 2619 O 244.056 -1.38482 1.10235 0
M  V30 2620 C 241.185 -2.48526 2.36833 0
M  V30 2621 C 240.271 -2.30457 3.5602 0
M  V30 2622 N 240.662 -1.8219 4.71848 0
M  V30 2623 C 238.96 -2.61129 3.61563 0
M  V30 2624 C 239.661 -1.77721 5.53886 0
M  V30 2625 N 238.637 -2.21899 4.96248 0
M  V30 2626 H 242.439 -0.776797 2.83449 0
M  V30 2627 H 239.953 -0.331364 1.58983 0
M  V30 2628 H 241.95 -3.233 2.63216 0
M  V30 2629 H 240.61 -2.87358 1.5118 0
M  V30 2630 H 241.621 -1.51805 4.95152 0
M  V30 2631 H 238.298 -3.03678 2.86507 0
M  V30 2632 H 239.688 -1.41697 6.56789 0
M  V30 2633 N 242.408 -1.52605 -0.393616 0
M  V30 2634 C 243.355 -1.77055 -1.48054 0
M  V30 2635 C 244.325 -0.61358 -1.54352 0
M  V30 2636 O 245.51 -0.852806 -1.70681 0
M  V30 2637 C 242.65 -1.94108 -2.85335 0
M  V30 2638 C 241.763 -3.21792 -2.88226 0
M  V30 2639 C 240.898 -3.29188 -4.16904 0
M  V30 2640 C 239.937 -4.51013 -4.13828 0
M  V30 2641 N 239.074 -4.55716 -5.34105 0
M  V30 2642 H 243.914 -2.69815 -1.26506 0
M  V30 2643 H 241.451 -1.33683 -0.61379 0
M  V30 2644 H 243.409 -2.01979 -3.65049 0
M  V30 2645 H 242.039 -1.04713 -3.05344 0
M  V30 2646 H 241.091 -3.23015 -2.00911 0
M  V30 2647 H 242.403 -4.11557 -2.8182 0
M  V30 2648 H 241.557 -3.36216 -5.05018 0
M  V30 2649 H 240.296 -2.37389 -4.26026 0
M  V30 2650 H 239.301 -4.44115 -3.24102 0
M  V30 2651 H 240.526 -5.44123 -4.06333 0
M  V30 2652 H 238.472 -3.66807 -5.43865 0
M  V30 2653 H 238.389 -5.39346 -5.29756 0
M  V30 2654 H 239.657 -4.66993 -6.2413 0
M  V30 2655 N 243.887 0.651787 -1.4349 0
M  V30 2656 C 244.85 1.74647 -1.48429 0
M  V30 2657 C 245.85 1.56513 -0.368817 0
M  V30 2658 O 247.04 1.62385 -0.630623 0
M  V30 2659 C 244.172 3.13533 -1.33827 0
M  V30 2660 H 245.365 1.71649 -2.4592 0
M  V30 2661 H 242.918 0.863573 -1.30277 0
M  V30 2662 H 243.653 3.22142 -0.37349 0
M  V30 2663 H 243.438 3.28101 -2.14691 0
M  V30 2664 H 244.928 3.93356 -1.40218 0
M  V30 2665 N 245.365 1.30045 0.890287 0
M  V30 2666 C 246.312 1.15976 1.99545 0
M  V30 2667 C 247.282 0.0506202 1.66023 0
M  V30 2668 O 248.467 0.219847 1.89529 0
M  V30 2669 C 245.607 0.852054 3.34416 0
M  V30 2670 C 244.72 2.04255 3.80662 0
M  V30 2671 C 243.855 1.6734 5.04154 0
M  V30 2672 C 242.894 2.82916 5.42794 0
M  V30 2673 N 242.031 2.46333 6.57468 0
M  V30 2674 H 246.871 2.10524 2.10911 0
M  V30 2675 H 244.408 1.04749 1.03276 0
M  V30 2676 H 246.366 0.654296 4.12037 0
M  V30 2677 H 244.996 -0.0565502 3.2275 0
M  V30 2678 H 244.048 2.35172 2.98995 0
M  V30 2679 H 245.36 2.90826 4.05242 0
M  V30 2680 H 244.514 1.43908 5.89386 0
M  V30 2681 H 243.253 0.779308 4.81433 0
M  V30 2682 H 242.258 3.0702 4.56091 0
M  V30 2683 H 243.483 3.73004 5.6749 0
M  V30 2684 H 241.429 1.59423 6.36334 0
M  V30 2685 H 241.346 3.26436 6.81891 0
M  V30 2686 H 242.614 2.26244 7.45945 0
M  V30 2687 N 246.843 -1.10192 1.12674 0
M  V30 2688 C 248.254 -1.63707 0.897604 0
M  V30 2689 C 248.605 -1.87812 -0.567546 0
M  V30 2690 O 247.73 -1.62196 -1.43253 0
M  V30 2691 C 248.325 -2.974 1.62292 0
M  V30 2692 C 246.884 -3.47772 1.43986 0
M  V30 2693 C 246.031 -2.22332 1.65722 0
M  V30 2694 H 248.982 -0.936587 1.28116 0
M  V30 2695 H 249.003 -3.64986 1.07541 0
M  V30 2696 H 248.515 -2.79824 2.68924 0
M  V30 2697 H 246.616 -3.70487 0.396206 0
M  V30 2698 H 246.729 -4.25723 2.19765 0
M  V30 2699 H 245.093 -2.30599 1.08149 0
M  V30 2700 H 245.876 -2.07285 2.73657 0
M  V30 2701 N 248.321 -0.919034 -1.28029 0
M  V30 2702 C 249.549 -0.570971 -1.98866 0
M  V30 2703 C 249.964 0.848996 -1.68634 0
M  V30 2704 O 249.321 1.56307 -0.942036 0
M  V30 2705 C 249.372 -0.776876 -3.53054 0
M  V30 2706 O 249.093 -2.14097 -3.82222 0
M  V30 2707 C 250.594 -0.436356 -4.41147 0
M  V30 2708 H 247.814 -0.217175 -0.634883 0
M  V30 2709 H 250.358 -1.23368 -1.63097 0
M  V30 2710 H 248.513 -0.161085 -3.87065 0
M  V30 2711 H 248.927 -2.18455 -4.76841 0
M  V30 2712 H 250.401 -0.63117 -5.4838 0
M  V30 2713 H 250.878 0.627686 -4.34692 0
M  V30 2714 H 251.484 -1.02991 -4.12641 0
M  V30 2715 N 249.799 1.42003 -0.683588 0
M  V30 2716 C 251.024 2.06265 -0.216647 0
M  V30 2717 C 251.449 1.51059 1.12083 0
M  V30 2718 O 250.807 0.632638 1.69904 0
M  V30 2719 C 250.855 3.60191 -0.171759 0
M  V30 2720 O 249.959 4.03396 0.857069 0
M  V30 2721 H 249.3 0.65502 -0.108834 0
M  V30 2722 H 251.83 1.81982 -0.935077 0
M  V30 2723 H 251.84 4.08 0.0014303 0
M  V30 2724 H 250.515 3.99743 -1.14796 0
M  V30 2725 H 249.092 3.67117 0.654208 0
M  V30 2726 N 251.277 0.427512 1.51691 0
M  V30 2727 C 252.688 -0.0378867 1.86662 0
M  V30 2728 C 253.039 -1.42819 1.34525 0
M  V30 2729 O 252.164 -2.05037 0.692014 0
M  V30 2730 C 252.759 -0.0755266 3.38716 0
M  V30 2731 C 251.318 -0.485309 3.73258 0
M  V30 2732 C 250.465 0.328399 2.75349 0
M  V30 2733 H 253.416 0.64379 1.45055 0
M  V30 2734 H 253.437 -0.887056 3.70016 0
M  V30 2735 H 252.949 0.936487 3.76632 0
M  V30 2736 H 251.05 -1.50329 3.40928 0
M  V30 2737 H 251.163 -0.21693 4.78609 0
M  V30 2738 H 249.527 -0.211905 2.53817 0
M  V30 2739 H 250.31 1.3391 3.16106 0
M  V30 2740 N 252.755 -1.56801 0.158532 0
M  V30 2741 C 253.98 -2.01295 -0.499516 0
M  V30 2742 C 254.405 -1.03799 -1.56867 0
M  V30 2743 O 253.763 -0.0155162 -1.81293 0
M  V30 2744 C 253.811 -3.44469 -1.06647 0
M  V30 2745 O 252.915 -3.50012 -2.18095 0
M  V30 2746 H 252.256 -0.652884 -0.12099 0
M  V30 2747 H 254.786 -2.02958 0.258661 0
M  V30 2748 H 254.796 -3.8351 -1.39227 0
M  V30 2749 H 253.471 -4.14932 -0.283581 0
M  V30 2750 H 252.048 -3.22822 -1.86656 0
M  V30 2751 N 254.233 0.115231 -1.57178 0
M  V30 2752 C 255.51 0.852873 -1.76027 0
M  V30 2753 C 255.89 1.97892 -0.73498 0
M  V30 2754 O 255.238 2.27232 0.24036 0
M  V30 2755 C 255.448 1.36608 -3.21153 0
M  V30 2756 C 256.796 1.81692 -3.83762 0
M  V30 2757 O 257.82 1.46278 -3.24779 0
M  V30 2758 O 256.679 2.47104 -4.87444 0
M  V30 2759 H 253.773 0.405296 -0.720877 0
M  V30 2760 H 256.319 0.0986785 -1.69413 0
M  V30 2761 H 255.091 0.558357 -3.87296 0
M  V30 2762 H 254.714 2.18287 -3.3232 0
M  V30 2763 N 255.711 1.52812 0.385517 0
M  V30 2764 C 256.959 1.67694 1.12797 0
M  V30 2765 C 257.28 0.421115 1.90399 0
M  V30 2766 O 256.55 -0.564551 1.87589 0
M  V30 2767 H 255.13 0.618155 0.419396 0
M  V30 2768 H 257.792 1.89938 0.436972 0
M  V30 2769 H 256.888 2.52896 1.82894 0
M  V30 2770 N 257.189 -0.644168 1.43834 0
M  V30 2771 C 258.137 -1.77793 1.49974 0
M  V30 2772 C 259.131 -1.65253 0.372536 0
M  V30 2773 O 260.337 -1.7149 0.546924 0
M  V30 2774 H 256.712 -0.58675 0.47035 0
M  V30 2775 H 258.683 -1.69736 2.45423 0
M  V30 2776 C 257.432 -3.16087 1.4486 0
M  V30 2777 H 256.755 -3.26378 2.30905 0
M  V30 2778 H 258.195 -3.95349 1.53217 0
M  V30 2779 C 256.654 -3.36484 0.167463 0
M  V30 2780 O 257.184 -3.94298 -0.767609 0
M  V30 2781 N 255.39 -2.90504 0.0747556 0
M  V30 2782 H 254.937 -2.4364 0.836507 0
M  V30 2783 H 254.895 -3.04527 -0.781714 0
M  V30 2784 N 258.668 -1.30515 -0.883378 0
M  V30 2785 C 259.631 -1.1701 -1.97082 0
M  V30 2786 C 260.631 -0.10089 -1.60483 0
M  V30 2787 O 261.821 -0.349127 -1.70666 0
M  V30 2788 C 258.953 -0.793045 -3.31547 0
M  V30 2789 H 260.146 -2.13622 -2.10489 0
M  V30 2790 H 257.699 -1.13935 -1.06998 0
M  V30 2791 H 258.434 0.172499 -3.23841 0
M  V30 2792 H 258.219 -1.56576 -3.5948 0
M  V30 2793 H 259.709 -0.722073 -4.1131 0
M  V30 2794 N 260.146 1.09593 -1.13257 0
M  V30 2795 C 261.374 1.855 -0.916378 0
M  V30 2796 C 261.789 1.81069 0.534738 0
M  V30 2797 O 261.146 1.20562 1.37007 0
M  V30 2798 C 261.197 3.33546 -1.39388 0
M  V30 2799 O 260.918 3.37927 -2.78813 0
M  V30 2800 C 262.419 4.26299 -1.21588 0
M  V30 2801 H 259.639 0.585991 -0.326887 0
M  V30 2802 H 262.183 1.38488 -1.5047 0
M  V30 2803 H 260.338 3.77992 -0.848597 0
M  V30 2804 H 260.752 4.30254 -2.9997 0
M  V30 2805 H 262.226 5.28341 -1.59876 0
M  V30 2806 H 262.703 4.38918 -0.157376 0
M  V30 2807 H 263.309 3.87668 -1.7491 0
M  V30 2808 N 261.624 0.925811 1.2754 0
M  V30 2809 C 262.849 0.580924 1.99098 0
M  V30 2810 C 263.274 -0.833555 1.68622 0
M  V30 2811 O 262.632 -1.55903 0.925422 0
M  V30 2812 C 262.68 0.811186 3.51358 0
M  V30 2813 O 261.784 -0.124129 4.12213 0
M  V30 2814 H 261.125 0.223873 0.625122 0
M  V30 2815 H 263.655 1.24455 1.62395 0
M  V30 2816 H 263.665 0.72601 4.01489 0
M  V30 2817 H 262.34 1.84227 3.72872 0
M  V30 2818 H 260.917 0.0108006 3.72898 0
M  V30 2819 N 263.102 -1.41638 0.69111 0
M  V30 2820 C 264.032 -2.3347 0.037248 0
M  V30 2821 C 265.013 -1.51575 -0.771947 0
M  V30 2822 O 266.198 -1.80126 -0.72582 0
M  V30 2823 C 263.328 -3.35354 -0.903064 0
M  V30 2824 C 262.282 -4.27526 -0.201288 0
M  V30 2825 C 261.608 -5.19747 -1.25565 0
M  V30 2826 C 262.908 -5.13959 0.929689 0
M  V30 2827 H 264.602 -2.88397 0.804227 0
M  V30 2828 H 262.148 -1.38669 0.388189 0
M  V30 2829 H 264.101 -3.98519 -1.36969 0
M  V30 2830 H 262.825 -2.78767 -1.70166 0
M  V30 2831 H 261.484 -3.65779 0.245265 0
M  V30 2832 H 261.132 -4.59479 -2.04666 0
M  V30 2833 H 260.832 -5.8225 -0.791128 0
M  V30 2834 H 262.356 -5.85789 -1.72288 0
M  V30 2835 H 263.77 -5.70718 0.543546 0
M  V30 2836 H 262.167 -5.85379 1.32103 0
M  V30 2837 H 263.237 -4.51389 1.77133 0
M  V30 2838 N 264.58 -0.43555 -1.51462 0
M  V30 2839 C 265.543 0.365137 -2.26273 0
M  V30 2840 C 266.543 0.951227 -1.29647 0
M  V30 2841 O 267.733 0.825958 -1.53374 0
M  V30 2842 C 264.865 1.51645 -3.05314 0
M  V30 2843 H 266.058 -0.290474 -2.9849 0
M  V30 2844 H 263.611 -0.188676 -1.55157 0
M  V30 2845 H 264.346 2.20816 -2.3751 0
M  V30 2846 H 264.131 1.10238 -3.76284 0
M  V30 2847 H 265.621 2.08218 -3.61987 0
M  V30 2848 N 266.058 1.56714 -0.166846 0
M  V30 2849 C 266.968 2.21331 0.777791 0
M  V30 2850 C 267.984 1.20358 1.25658 0
M  V30 2851 O 269.16 1.53005 1.30964 0
M  V30 2852 C 266.225 2.83787 1.99163 0
M  V30 2853 C 265.286 3.99947 1.56016 0
M  V30 2854 C 264.519 4.59415 2.71613 0
M  V30 2855 O 264.742 4.17769 3.88362 0
M  V30 2856 O 263.676 5.49359 2.45945 0
M  V30 2857 H 267.502 3.02605 0.257636 0
M  V30 2858 H 265.087 1.49275 0.0611393 0
M  V30 2859 H 266.969 3.23405 2.70161 0
M  V30 2860 H 265.644 2.05513 2.50092 0
M  V30 2861 H 264.551 3.65007 0.819809 0
M  V30 2862 H 265.884 4.79801 1.09782 0
M  V30 2863 N 267.536 -0.106894 1.57237 0
M  V30 2864 C 268.764 -0.826389 1.8968 0
M  V30 2865 C 269.179 -1.72856 0.759353 0
M  V30 2866 O 268.536 -1.80503 -0.269263 0
M  V30 2867 C 268.587 -1.64967 3.21665 0
M  V30 2868 O 268.308 -0.783804 4.31031 0
M  V30 2869 C 269.809 -2.47326 3.67892 0
M  V30 2870 H 267.029 -0.236927 0.627779 0
M  V30 2871 H 269.573 -0.0876593 2.04312 0
M  V30 2872 H 267.728 -2.34103 3.08666 0
M  V30 2873 H 268.142 -1.35284 5.06753 0
M  V30 2874 H 269.616 -3.00604 4.6297 0
M  V30 2875 H 270.093 -3.25247 2.95146 0
M  V30 2876 H 270.699 -1.83411 3.83719 0
M  V30 2877 N 269.014 -1.53014 -0.377408 0
M  V30 2878 C 270.263 -1.67845 -1.11853 0
M  V30 2879 C 270.576 -0.430625 -1.90801 0
M  V30 2880 O 271.782 -0.459261 -2.67587 0
M  V30 2881 C 270.238 -2.96668 -2.03756 0
M  V30 2882 C 269.846 -4.28671 -1.30175 0
M  V30 2883 C 271.59 -3.20865 -2.77932 0
M  V30 2884 C 269.497 -5.48591 -2.20911 0
M  V30 2885 H 268.427 -0.625343 -0.421263 0
M  V30 2886 H 271.078 -1.79514 -0.380409 0
M  V30 2887 H 269.46 -2.78773 -2.8125 0
M  V30 2888 H 270.634 -4.57157 -0.578259 0
M  V30 2889 H 268.949 -4.10825 -0.679108 0
M  V30 2890 H 271.546 -4.07642 -3.46024 0
M  V30 2891 H 271.889 -2.36424 -3.4265 0
M  V30 2892 H 272.422 -3.39379 -2.07525 0
M  V30 2893 H 269.161 -6.35474 -1.6079 0
M  V30 2894 H 268.681 -5.244 -2.91144 0
M  V30 2895 H 270.36 -5.8292 -2.80736 0
M  V30 2896 N 270.492 0.636531 -1.44174 0
M  V30 2897 C 271.769 1.39463 -1.37148 0
M  V30 2898 C 272.149 2.11082 -0.027507 0
M  V30 2899 O 271.497 2.05954 0.989716 0
M  V30 2900 C 271.707 2.36552 -2.56601 0
M  V30 2901 C 273.055 3.00048 -3.00427 0
M  V30 2902 O 274.079 2.46878 -2.56767 0
M  V30 2903 O 272.938 3.96488 -3.76111 0
M  V30 2904 H 270.032 0.623903 -0.542839 0
M  V30 2905 H 272.578 0.662039 -1.56253 0
M  V30 2906 H 271.35 1.82692 -3.46034 0
M  V30 2907 H 270.973 3.17236 -2.39681 0
M  V30 2908 N 271.97 1.30982 0.876444 0
M  V30 2909 C 272.918 1.18006 2.00443 0
M  V30 2910 C 273.912 0.0898871 1.69161 0
M  V30 2911 O 275.118 0.251333 1.78237 0
M  V30 2912 H 271.493 0.365196 0.65737 0
M  V30 2913 H 273.464 2.13453 2.0852 0
M  V30 2914 C 272.213 0.897521 3.35916 0
M  V30 2915 H 271.536 1.7285 3.60504 0
M  V30 2916 H 272.976 0.846874 4.15456 0
M  V30 2917 C 271.435 -0.399674 3.34521 0
M  V30 2918 O 271.965 -1.41852 3.7582 0
M  V30 2919 N 270.171 -0.413893 2.87637 0
M  V30 2920 H 269.718 0.41571 2.54224 0
M  V30 2921 H 269.676 -1.28175 2.87086 0
M  V30 2922 N 273.449 -1.08991 1.13837 0
M  V30 2923 C 274.689 -1.82867 0.913183 0
M  V30 2924 C 275.053 -1.83936 -0.550604 0
M  V30 2925 O 276.254 -2.53515 -0.893515 0
M  V30 2926 C 274.525 -3.24843 1.49036 0
M  V30 2927 S 276.084 -4.15669 1.40588 0
M  V30 2928 H 272.902 -0.630278 0.329046 0
M  V30 2929 H 275.504 -1.31049 1.45073 0
M  V30 2930 H 274.208 -3.21644 2.54899 0
M  V30 2931 H 273.739 -3.81734 0.950947 0
M  V30 2932 H 275.754 -4.94686 0.387353 0
M  V30 2933 N 274.927 -0.932562 -1.27047 0
M  V30 2934 C 276.204 -0.49377 -1.89265 0
M  V30 2935 C 276.584 1.02833 -1.8436 0
M  V30 2936 O 275.932 1.88461 -1.29209 0
M  V30 2937 C 276.142 -1.04536 -3.32976 0
M  V30 2938 C 277.49 -1.10879 -4.09867 0
M  V30 2939 O 278.514 -0.995327 -3.42011 0
M  V30 2940 O 277.373 -1.28417 -5.31198 0
M  V30 2941 H 274.467 -0.159596 -0.811454 0
M  V30 2942 H 277.013 -1.02457 -1.3528 0
M  V30 2943 H 275.785 -2.08913 -3.30864 0
M  V30 2944 H 275.408 -0.496494 -3.94488 0
M  V30 2945 N 276.405 1.4127 -0.698611 0
M  V30 2946 C 277.63 2.06024 -0.238512 0
M  V30 2947 C 278.055 1.5224 1.10475 0
M  V30 2948 O 277.413 0.650623 1.69223 0
M  V30 2949 C 277.461 3.59988 -0.209952 0
M  V30 2950 O 276.565 4.04282 0.814235 0
M  V30 2951 H 275.906 0.653829 -0.115775 0
M  V30 2952 H 278.436 1.8098 -0.954326 0
M  V30 2953 H 278.446 4.07979 -0.0418436 0
M  V30 2954 H 277.121 3.98503 -1.1903 0
M  V30 2955 H 275.698 3.6779 0.615234 0
M  V30 2956 N 277.883 0.443576 1.51229 0
M  V30 2957 C 279.108 -0.121648 2.07043 0
M  V30 2958 C 279.533 -1.35156 1.30823 0
M  V30 2959 O 278.891 -1.7793 0.347934 0
M  V30 2960 C 278.939 -0.41624 3.5819 0
M  V30 2961 O 278.043 -1.50163 3.8409 0
M  V30 2962 H 277.384 0.000871367 0.663999 0
M  V30 2963 H 279.914 0.626706 1.94765 0
M  V30 2964 H 279.924 -0.664867 4.02546 0
M  V30 2965 H 278.599 0.482653 4.1309 0
M  V30 2966 H 277.176 -1.24248 3.51592 0
M  V30 2967 N 279.361 -1.56624 0.175154 0
M  V30 2968 C 280.291 -2.21155 -0.749195 0
M  V30 2969 C 281.272 -1.16836 -1.23626 0
M  V30 2970 O 282.457 -1.45277 -1.28873 0
M  V30 2971 C 279.587 -2.8553 -1.97711 0
M  V30 2972 C 278.541 -3.95921 -1.62575 0
M  V30 2973 C 277.867 -4.47365 -2.92864 0
M  V30 2974 C 279.167 -5.15323 -0.850838 0
M  V30 2975 H 280.861 -2.98653 -0.211295 0
M  V30 2976 H 278.407 -1.43651 -0.100188 0
M  V30 2977 H 280.36 -3.2935 -2.62881 0
M  V30 2978 H 279.084 -2.05406 -2.53921 0
M  V30 2979 H 277.743 -3.52762 -0.997719 0
M  V30 2980 H 277.391 -3.64027 -3.47122 0
M  V30 2981 H 277.091 -5.21839 -2.70106 0
M  V30 2982 H 278.615 -4.93873 -3.59056 0
M  V30 2983 H 280.029 -5.55812 -1.40521 0
M  V30 2984 H 278.426 -5.95739 -0.722154 0
M  V30 2985 H 279.496 -4.84661 0.152082 0
M  V30 2986 N 280.839 0.0985539 -1.57292 0
M  V30 2987 C 282.064 0.820196 -1.90493 0
M  V30 2988 C 282.489 1.71658 -0.769094 0
M  V30 2989 O 281.847 1.79133 0.279495 0
M  V30 2990 C 281.895 1.61242 -3.22542 0
M  V30 2991 O 280.999 2.72108 -3.09888 0
M  V30 2992 H 280.34 0.225547 -0.62452 0
M  V30 2993 H 282.87 0.0748159 -2.04463 0
M  V30 2994 H 282.88 1.99737 -3.55766 0
M  V30 2995 H 281.555 0.954535 -4.04798 0
M  V30 2996 H 280.132 2.36667 -2.88172 0
M  V30 2997 N 282.317 1.53212 0.369288 0
M  V30 2998 C 283.733 1.42902 0.710712 0
M  V30 2999 C 283.933 0.565135 1.93413 0
M  V30 3000 O 282.989 0.0461484 2.52458 0
M  V30 3001 C 284.302 2.86042 0.927382 0
M  V30 3002 C 285.85 2.9565 1.02762 0
M  V30 3003 C 286.325 4.39843 1.27679 0
M  V30 3004 N 287.816 4.43256 1.34457 0
M  V30 3005 C 288.551 5.51929 1.55439 0
M  V30 3006 N 288.047 6.70655 1.73762 0
M  V30 3007 N 289.84 5.39502 1.57779 0
M  V30 3008 H 281.991 2.07888 -0.435457 0
M  V30 3009 H 284.254 0.938661 -0.132739 0
M  V30 3010 H 283.96 3.51557 0.100287 0
M  V30 3011 H 283.834 3.29472 1.83653 0
M  V30 3012 H 286.221 2.30291 1.84527 0
M  V30 3013 H 286.302 2.5562 0.0959504 0
M  V30 3014 H 285.946 5.05774 0.464175 0
M  V30 3015 H 285.876 4.77443 2.22162 0
M  V30 3016 H 288.367 3.5769 1.21926 0
M  V30 3017 H 288.68 7.49248 1.89335 0
M  V30 3018 H 287.025 6.73648 1.70948 0
M  V30 3019 H 290.216 4.45713 1.43029 0
M  V30 3020 H 290.389 6.2426 1.7379 0
M  V30 3021 N 283.795 -0.628877 1.44509 0
M  V30 3022 C 285.023 -1.41554 1.50897 0
M  V30 3023 C 285.438 -1.8832 0.134564 0
M  V30 3024 O 284.795 -1.60969 -0.859965 0
M  V30 3025 C 284.846 -2.63435 2.47556 0
M  V30 3026 O 284.567 -2.18619 3.79654 0
M  V30 3027 C 286.068 -3.56537 2.63431 0
M  V30 3028 H 283.288 -0.434044 0.511709 0
M  V30 3029 H 285.832 -0.768895 1.89495 0
M  V30 3030 H 283.987 -3.24187 2.12089 0
M  V30 3031 H 284.401 -2.97652 4.31861 0
M  V30 3032 H 285.875 -4.38657 3.35088 0
M  V30 3033 H 286.352 -4.05493 1.68738 0
M  V30 3034 H 286.958 -3.01653 2.9981 0
M  V30 3035 N 285.273 -1.31445 -0.869486 0
M  V30 3036 C 286.503 -1.23942 -1.65294 0
M  V30 3037 C 286.911 0.197561 -1.88166 0
M  V30 3038 O 286.254 1.14019 -1.44033 0
M  V30 3039 C 286.316 -1.91385 -3.04322 0
M  V30 3040 C 285.98 -3.40726 -3.04557 0
M  V30 3041 C 286.977 -4.36464 -2.82481 0
M  V30 3042 C 284.662 -3.82425 -3.25663 0
M  V30 3043 C 286.656 -5.71876 -2.8149 0
M  V30 3044 C 284.343 -5.1795 -3.243 0
M  V30 3045 C 285.341 -6.12486 -3.02241 0
M  V30 3046 O 285.029 -7.45534 -3.00724 0
M  V30 3047 H 284.761 -0.429459 -0.522054 0
M  V30 3048 H 287.315 -1.73873 -1.0935 0
M  V30 3049 H 285.545 -1.36004 -3.61994 0
M  V30 3050 H 287.234 -1.77791 -3.64891 0
M  V30 3051 H 288 -4.05576 -2.65956 0
M  V30 3052 H 283.879 -3.09274 -3.41863 0
M  V30 3053 H 287.423 -6.45638 -2.64191 0
M  V30 3054 H 283.32 -5.48473 -3.40365 0
M  V30 3055 H 284.088 -7.54713 -3.16782 0
M  V30 3056 N 286.751 1.08385 -1.14413 0
M  V30 3057 C 287.714 2.13486 -0.834048 0
M  V30 3058 C 288.714 1.59988 0.161418 0
M  V30 3059 O 289.904 1.74071 -0.0669575 0
M  V30 3060 C 287.036 3.4003 -0.243354 0
M  V30 3061 H 288.229 2.42425 -1.7655 0
M  V30 3062 H 285.782 1.24101 -0.950189 0
M  V30 3063 H 286.517 3.16726 0.696807 0
M  V30 3064 H 286.302 3.80157 -0.960367 0
M  V30 3065 H 287.792 4.17577 -0.0436242 0
M  V30 3066 N 288.23 0.939286 1.26551 0
M  V30 3067 C 289.479 0.581601 1.93133 0
M  V30 3068 C 289.792 -0.883224 1.74524 0
M  V30 3069 O 290.998 -1.3502 2.35546 0
M  V30 3070 C 289.454 0.989425 3.46032 0
M  V30 3071 C 289.062 2.47573 3.73379 0
M  V30 3072 C 290.806 0.703544 4.18629 0
M  V30 3073 C 288.713 2.82235 5.19709 0
M  V30 3074 H 287.643 0.213803 0.723052 0
M  V30 3075 H 290.294 1.14167 1.4366 0
M  V30 3076 H 288.676 0.357902 3.94379 0
M  V30 3077 H 289.85 3.15614 3.35744 0
M  V30 3078 H 288.165 2.73471 3.1401 0
M  V30 3079 H 290.762 0.938869 5.26393 0
M  V30 3080 H 291.105 -0.359639 4.14744 0
M  V30 3081 H 291.638 1.2947 3.76141 0
M  V30 3082 H 288.377 3.87509 5.28694 0
M  V30 3083 H 287.897 2.18854 5.58447 0
M  V30 3084 H 289.576 2.70599 5.87695 0
M  V30 3085 N 289.708 -1.40897 0.706093 0
M  V30 3086 C 290.933 -2.05895 0.249435 0
M  V30 3087 C 291.358 -1.52823 -1.09666 0
M  V30 3088 O 290.716 -0.659589 -1.68876 0
M  V30 3089 C 290.764 -3.59872 0.22904 0
M  V30 3090 O 289.868 -4.04708 -0.792784 0
M  V30 3091 H 289.209 -0.653206 0.119241 0
M  V30 3092 H 291.739 -1.80471 0.96391 0
M  V30 3093 H 291.749 -4.07951 0.0634791 0
M  V30 3094 H 290.424 -3.97866 1.21141 0
M  V30 3095 H 289.001 -3.68111 -0.59572 0
M  V30 3096 N 291.186 -0.45159 -1.50991 0
M  V30 3097 C 292.411 0.110667 -2.07105 0
M  V30 3098 C 292.836 1.3446 -1.31538 0
M  V30 3099 O 292.194 1.77743 -0.357365 0
M  V30 3100 C 292.242 0.397238 -3.58405 0
M  V30 3101 O 291.346 1.48124 -3.84881 0
M  V30 3102 H 290.687 -0.00439271 -0.663985 0
M  V30 3103 H 293.217 -0.637026 -1.9443 0
M  V30 3104 H 293.227 0.64351 -4.02893 0
M  V30 3105 H 291.902 -0.504553 -4.12828 0
M  V30 3106 H 290.479 1.22381 -3.52246 0
M  V30 3107 N 292.664 1.56529 -0.183458 0
M  V30 3108 C 293.889 2.02064 0.467428 0
M  V30 3109 C 294.314 1.06282 1.55196 0
M  V30 3110 O 293.672 0.0443565 1.81246 0
M  V30 3111 C 293.72 3.46122 1.01153 0
M  V30 3112 O 292.824 3.53437 2.12499 0
M  V30 3113 H 292.165 0.654726 0.110588 0
M  V30 3114 H 294.695 2.02521 -0.290917 0
M  V30 3115 H 294.705 3.85676 1.33108 0
M  V30 3116 H 293.38 4.15331 0.217533 0
M  V30 3117 H 291.957 3.2575 1.81497 0
M  V30 3118 N 294.142 -0.090211 1.57342 0
M  V30 3119 C 295.388 -0.793982 1.86611 0
M  V30 3120 C 295.721 -1.78142 0.773252 0
M  V30 3121 O 294.996 -1.93271 -0.218304 0
M  V30 3122 C 295.279 -1.51839 3.26523 0
M  V30 3123 C 295.132 -0.548609 4.46442 0
M  V30 3124 C 296.451 -2.46779 3.64401 0
M  V30 3125 H 293.57 -0.287186 0.678744 0
M  V30 3126 H 296.212 -0.0575076 1.89913 0
M  V30 3127 H 294.362 -2.14617 3.23839 0
M  V30 3128 H 296.034 0.0725513 4.61243 0
M  V30 3129 H 294.277 0.137614 4.33582 0
M  V30 3130 H 294.948 -1.09271 5.41076 0
M  V30 3131 H 297.424 -1.94089 3.68061 0
M  V30 3132 H 296.3 -2.94479 4.63221 0
M  V30 3133 H 296.561 -3.30758 2.93346 0
M  V30 3134 N 295.62 -1.53406 -0.361157 0
M  V30 3135 C 296.869 -1.69022 -1.10066 0
M  V30 3136 C 297.182 -0.450838 -1.90333 0
M  V30 3137 O 298.388 -0.487617 -2.67085 0
M  V30 3138 C 296.844 -2.98812 -2.00598 0
M  V30 3139 C 296.452 -4.30027 -1.25621 0
M  V30 3140 C 298.196 -3.23795 -2.74513 0
M  V30 3141 C 296.103 -5.50903 -2.1508 0
M  V30 3142 H 295.033 -0.629776 -0.414606 0
M  V30 3143 H 297.684 -1.79907 -0.361348 0
M  V30 3144 H 296.066 -2.8174 -2.78278 0
M  V30 3145 H 297.24 -4.57745 -0.529739 0
M  V30 3146 H 295.555 -4.11522 -0.635496 0
M  V30 3147 H 298.152 -4.11289 -3.41681 0
M  V30 3148 H 298.495 -2.40045 -3.40123 0
M  V30 3149 H 299.028 -3.41561 -2.03914 0
M  V30 3150 H 295.767 -6.37143 -1.54041 0
M  V30 3151 H 295.287 -5.27459 -2.85565 0
M  V30 3152 H 296.966 -5.85865 -2.74538 0
M  V30 3153 N 297.098 0.621204 -1.44841 0
M  V30 3154 C 298.323 1.41244 -1.51871 0
M  V30 3155 C 298.748 1.87519 -0.147764 0
M  V30 3156 O 298.106 1.59334 0.865 0
M  V30 3157 C 298.154 2.60221 -2.49634 0
M  V30 3158 O 297.258 3.60395 -2.00473 0
M  V30 3159 H 296.599 0.42223 -0.512463 0
M  V30 3160 H 299.129 0.757305 -1.90069 0
M  V30 3161 H 299.139 3.0764 -2.67996 0
M  V30 3162 H 297.814 2.25887 -3.4921 0
M  V30 3163 H 296.391 3.19717 -1.91925 0
M  V30 3164 N 298.576 1.31904 0.862503 0
M  V30 3165 C 299.823 1.22017 1.61611 0
M  V30 3166 C 300.151 -0.21991 1.93253 0
M  V30 3167 O 299.406 -1.17076 1.56817 0
M  V30 3168 C 299.705 2.01713 2.95037 0
M  V30 3169 C 299.371 3.51145 2.82857 0
M  V30 3170 C 298.033 3.91889 2.79243 0
M  V30 3171 C 300.385 4.46204 2.69353 0
M  V30 3172 C 297.713 5.25947 2.59993 0
M  V30 3173 C 300.065 5.80397 2.5164 0
M  V30 3174 C 298.729 6.20352 2.46413 0
M  V30 3175 H 297.999 0.44649 0.591378 0
M  V30 3176 H 300.646 1.63248 1.00111 0
M  V30 3177 H 298.951 1.53185 3.60613 0
M  V30 3178 H 300.648 1.91437 3.52353 0
M  V30 3179 H 297.238 3.1878 2.86491 0
M  V30 3180 H 301.422 4.15652 2.71196 0
M  V30 3181 H 296.678 5.5597 2.54376 0
M  V30 3182 H 300.852 6.53676 2.40169 0
M  V30 3183 H 298.479 7.24172 2.31256 0
M  V30 3184 N 300.054 -1.07777 1.14986 0
M  V30 3185 C 301.284 -1.83752 0.944402 0
M  V30 3186 C 301.692 -1.8218 -0.51058 0
M  V30 3187 O 301.035 -1.22852 -1.36576 0
M  V30 3188 C 301.097 -3.32128 1.37592 0
M  V30 3189 C 300.761 -3.57425 2.84775 0
M  V30 3190 C 301.758 -3.5173 3.8286 0
M  V30 3191 C 299.443 -3.8523 3.2234 0
M  V30 3192 C 301.437 -3.73482 5.16517 0
M  V30 3193 C 299.124 -4.06634 4.56171 0
M  V30 3194 C 300.122 -4.00754 5.53069 0
M  V30 3195 O 299.81 -4.2159 6.84483 0
M  V30 3196 H 299.542 -0.58673 0.335744 0
M  V30 3197 H 302.096 -1.36982 1.53052 0
M  V30 3198 H 300.326 -3.79686 0.733165 0
M  V30 3199 H 302.015 -3.89555 1.14024 0
M  V30 3200 H 302.781 -3.30256 3.55184 0
M  V30 3201 H 298.66 -3.88923 2.47508 0
M  V30 3202 H 302.204 -3.68808 5.92137 0
M  V30 3203 H 298.101 -4.27593 4.83564 0
M  V30 3204 H 298.869 -4.38961 6.90837 0
M  V30 3205 N 301.532 -0.945985 -1.26051 0
M  V30 3206 C 302.781 -0.591836 -1.92822 0
M  V30 3207 C 303.094 0.873956 -1.7499 0
M  V30 3208 O 304.3 1.33769 -2.36259 0
M  V30 3209 C 302.756 -1.00776 -3.45503 0
M  V30 3210 C 302.364 -2.4955 -3.7206 0
M  V30 3211 C 304.108 -0.725735 -4.1825 0
M  V30 3212 C 302.015 -2.84988 -5.18205 0
M  V30 3213 H 300.945 -0.217635 -0.721908 0
M  V30 3214 H 303.596 -1.14927 -1.43052 0
M  V30 3215 H 301.978 -0.378812 -3.94184 0
M  V30 3216 H 303.152 -3.1739 -3.34066 0
M  V30 3217 H 301.467 -2.75133 -3.12555 0
M  V30 3218 H 304.064 -0.966771 -5.25887 0
M  V30 3219 H 304.407 0.337639 -4.14929 0
M  V30 3220 H 304.94 -1.31463 -3.7545 0
M  V30 3221 H 301.679 -3.90307 -5.26631 0
M  V30 3222 H 301.199 -2.21813 -5.57278 0
M  V30 3223 H 302.878 -2.73712 -5.86252 0
M  V30 3224 N 303.011 1.40521 -0.713556 0
M  V30 3225 C 304.422 1.83853 -0.324807 0
M  V30 3226 C 304.773 1.59667 1.14021 0
M  V30 3227 O 303.898 1.07649 1.87725 0
M  V30 3228 C 304.493 3.33751 -0.582746 0
M  V30 3229 C 303.052 3.75584 -0.247727 0
M  V30 3230 C 302.199 2.63753 -0.856121 0
M  V30 3231 H 305.15 1.29817 -0.91286 0
M  V30 3232 H 305.171 3.80194 0.152682 0
M  V30 3233 H 304.683 3.51322 -1.64908 0
M  V30 3234 H 302.784 3.63608 0.813624 0
M  V30 3235 H 302.897 4.7373 -0.715307 0
M  V30 3236 H 301.261 2.53108 -0.28432 0
M  V30 3237 H 302.044 2.84137 -1.92668 0
M  V30 3238 N 304.489 0.459591 1.5075 0
M  V30 3239 C 305.735 -0.0994966 2.02556 0
M  V30 3240 C 306.068 -1.40399 1.3417 0
M  V30 3241 O 305.343 -1.88892 0.463683 0
M  V30 3242 C 305.626 -0.295242 3.58888 0
M  V30 3243 C 305.479 1.02947 4.37861 0
M  V30 3244 C 306.798 -1.05502 4.27267 0
M  V30 3245 H 303.917 -0.034686 0.736183 0
M  V30 3246 H 306.559 0.602938 1.8018 0
M  V30 3247 H 304.709 -0.893563 3.78084 0
M  V30 3248 H 306.381 1.66348 4.30263 0
M  V30 3249 H 304.624 1.62885 4.02058 0
M  V30 3250 H 305.295 0.846281 5.45474 0
M  V30 3251 H 307.771 -0.547993 4.12476 0
M  V30 3252 H 306.647 -1.16077 5.36486 0
M  V30 3253 H 306.908 -2.08875 3.89645 0
M  V30 3254 N 305.967 -1.56429 0.191757 0
M  V30 3255 C 306.93 -2.17707 -0.716688 0
M  V30 3256 C 307.93 -1.13061 -1.14341 0
M  V30 3257 O 309.12 -1.38464 -1.05704 0
M  V30 3258 C 306.252 -2.77644 -1.97804 0
M  V30 3259 H 307.445 -2.99342 -0.1829 0
M  V30 3260 H 304.998 -1.56193 -0.0578566 0
M  V30 3261 H 305.733 -1.99799 -2.55443 0
M  V30 3262 H 305.518 -3.54246 -1.68083 0
M  V30 3263 H 307.008 -3.24708 -2.62592 0
M  V30 3264 N 307.445 0.0818655 -1.57387 0
M  V30 3265 C 308.694 0.781681 -1.85937 0
M  V30 3266 C 309.007 1.79246 -0.782957 0
M  V30 3267 O 310.213 2.54112 -0.955987 0
M  V30 3268 C 308.669 1.44109 -3.29789 0
M  V30 3269 C 308.277 0.469396 -4.45534 0
M  V30 3270 C 310.021 2.12386 -3.67549 0
M  V30 3271 C 307.928 1.13415 -5.80423 0
M  V30 3272 H 306.858 0.295682 -0.693605 0
M  V30 3273 H 309.509 0.0348051 -1.83467 0
M  V30 3274 H 307.891 2.23588 -3.2684 0
M  V30 3275 H 309.065 -0.294856 -4.59856 0
M  V30 3276 H 307.38 -0.108383 -4.16259 0
M  V30 3277 H 309.977 2.62878 -4.65617 0
M  V30 3278 H 310.32 2.91877 -2.96839 0
M  V30 3279 H 310.853 1.39751 -3.72444 0
M  V30 3280 H 307.592 0.379771 -6.54399 0
M  V30 3281 H 307.112 1.8695 -5.69921 0
M  V30 3282 H 308.791 1.65686 -6.25426 0
M  V30 3283 N 308.923 1.53595 0.353017 0
M  V30 3284 C 309.856 1.7572 1.45594 0
M  V30 3285 C 310.834 0.605961 1.50887 0
M  V30 3286 O 312.018 0.840023 1.68748 0
M  V30 3287 C 309.145 1.84732 2.83887 0
M  V30 3288 C 308.191 3.06808 2.96262 0
M  V30 3289 S 309.024 4.66065 2.63711 0
M  V30 3290 C 310.18 4.77943 4.04131 0
M  V30 3291 H 310.413 2.68994 1.26608 0
M  V30 3292 H 307.946 1.44343 0.548117 0
M  V30 3293 H 309.904 1.9061 3.63563 0
M  V30 3294 H 308.565 0.92488 3.00175 0
M  V30 3295 H 307.758 3.09761 3.97573 0
M  V30 3296 H 307.36 2.99108 2.24523 0
M  V30 3297 H 309.652 4.5877 4.98534 0
M  V30 3298 H 310.595 5.80022 4.06177 0
M  V30 3299 H 311.003 4.06472 3.91715 0
M  V30 3300 N 310.401 -0.613514 1.45168 0
M  V30 3301 C 311.65 -1.36874 1.4815 0
M  V30 3302 C 311.963 -1.952 0.124982 0
M  V30 3303 O 313.169 -2.71481 0.0324176 0
M  V30 3304 C 311.625 -2.47905 2.60904 0
M  V30 3305 C 311.233 -1.96016 4.02842 0
M  V30 3306 C 312.977 -3.24965 2.73126 0
M  V30 3307 C 310.884 -3.04494 5.06988 0
M  V30 3308 H 309.814 -0.514428 0.551253 0
M  V30 3309 H 312.465 -0.658182 1.7129 0
M  V30 3310 H 310.847 -3.21618 2.31037 0
M  V30 3311 H 312.021 -1.29051 4.4236 0
M  V30 3312 H 310.336 -1.31719 3.95018 0
M  V30 3313 H 312.933 -4.05865 3.48106 0
M  V30 3314 H 313.276 -3.75588 1.79553 0
M  V30 3315 H 313.809 -2.5835 3.0249 0
M  V30 3316 H 310.548 -2.58795 6.0225 0
M  V30 3317 H 310.068 -3.70044 4.72046 0
M  V30 3318 H 311.747 -3.68976 5.31475 0
M  V30 3319 N 311.879 -1.3236 -0.855495 0
M  V30 3320 C 313.125 -1.23054 -1.612 0
M  V30 3321 C 313.458 0.207404 -1.93089 0
M  V30 3322 O 312.733 1.14432 -1.57275 0
M  V30 3323 C 313.016 -2.08937 -2.93287 0
M  V30 3324 C 312.869 -3.61105 -2.68185 0
M  V30 3325 C 314.188 -1.94986 -3.94549 0
M  V30 3326 H 311.307 -0.448364 -0.584926 0
M  V30 3327 H 313.949 -1.62297 -0.987917 0
M  V30 3328 H 312.099 -1.75599 -3.46551 0
M  V30 3329 H 313.771 -4.04652 -2.21483 0
M  V30 3330 H 312.014 -3.83813 -2.02164 0
M  V30 3331 H 312.685 -4.16522 -3.62234 0
M  V30 3332 H 315.161 -2.24189 -3.5054 0
M  V30 3333 H 314.037 -2.57356 -4.84829 0
M  V30 3334 H 314.298 -0.917263 -4.3248 0
M  V30 3335 N 313.357 1.07166 -1.15556 0
M  V30 3336 C 314.585 1.83514 -0.955519 0
M  V30 3337 C 315 1.82163 0.49621 0
M  V30 3338 O 314.357 1.23441 1.34419 0
M  V30 3339 C 314.408 3.30515 -1.46432 0
M  V30 3340 O 314.129 3.31937 -2.85918 0
M  V30 3341 C 315.63 4.23625 -1.30603 0
M  V30 3342 H 312.85 0.578926 -0.339244 0
M  V30 3343 H 315.394 1.35265 -1.53374 0
M  V30 3344 H 313.549 3.76106 -0.928584 0
M  V30 3345 H 313.963 4.23794 -3.09029 0
M  V30 3346 H 315.437 5.24831 -1.71047 0
M  V30 3347 H 315.914 4.38485 -0.250441 0
M  V30 3348 H 316.52 3.83871 -1.83094 0
M  V30 3349 N 314.835 0.952656 1.25548 0
M  V30 3350 C 316.065 0.622592 1.96996 0
M  V30 3351 C 316.473 -0.809112 1.71026 0
M  V30 3352 O 315.816 -1.55258 0.981861 0
M  V30 3353 C 315.878 0.798946 3.5051 0
M  V30 3354 C 315.542 2.20744 4.00151 0
M  V30 3355 C 316.539 3.18394 4.11001 0
M  V30 3356 C 314.224 2.5311 4.33867 0
M  V30 3357 C 316.218 4.46504 4.54877 0
M  V30 3358 C 313.905 3.8145 4.7743 0
M  V30 3359 C 314.903 4.77959 4.87897 0
M  V30 3360 O 314.591 6.04012 5.30494 0
M  V30 3361 H 314.323 0.232503 0.634758 0
M  V30 3362 H 316.877 1.2789 1.60728 0
M  V30 3363 H 315.107 0.0854903 3.86605 0
M  V30 3364 H 316.796 0.47023 4.03167 0
M  V30 3365 H 317.562 2.94715 3.85186 0
M  V30 3366 H 313.441 1.78719 4.24948 0
M  V30 3367 H 316.985 5.21835 4.62962 0
M  V30 3368 H 312.882 4.04936 5.0269 0
M  V30 3369 H 313.65 6.0736 5.48685 0
M  V30 3370 N 316.313 -1.40141 0.720998 0
M  V30 3371 C 317.541 -2.05096 0.272656 0
M  V30 3372 C 317.956 -1.54334 -1.0875 0
M  V30 3373 O 317.313 -0.702211 -1.6845 0
M  V30 3374 C 317.364 -3.60636 0.249835 0
M  V30 3375 O 317.085 -4.09526 1.55629 0
M  V30 3376 C 318.586 -4.42772 -0.216396 0
M  V30 3377 H 315.806 -0.659897 0.121558 0
M  V30 3378 H 318.35 -1.79449 0.980723 0
M  V30 3379 H 316.505 -3.85232 -0.409237 0
M  V30 3380 H 316.919 -5.03758 1.4604 0
M  V30 3381 H 318.393 -5.51702 -0.181212 0
M  V30 3382 H 318.87 -4.20756 -1.25941 0
M  V30 3383 H 319.476 -4.23294 0.412596 0
M  V30 3384 N 317.792 -0.46758 -1.50504 0
M  V30 3385 C 319.208 -0.121533 -1.59137 0
M  V30 3386 C 319.408 1.3717 -1.47603 0
M  V30 3387 O 318.464 2.14464 -1.33272 0
M  V30 3388 C 319.777 -0.6686 -2.93173 0
M  V30 3389 C 321.325 -0.631716 -3.06559 0
M  V30 3390 C 321.8 -1.15627 -4.43164 0
M  V30 3391 N 323.291 -1.11553 -4.49567 0
M  V30 3392 C 324.026 -1.49195 -5.5365 0
M  V30 3393 N 323.522 -1.94269 -6.65005 0
M  V30 3394 N 325.315 -1.4082 -5.44175 0
M  V30 3395 H 317.466 -1.4388 -1.56245 0
M  V30 3396 H 319.729 -0.594784 -0.738198 0
M  V30 3397 H 319.435 -1.71453 -3.07078 0
M  V30 3398 H 319.309 -0.11021 -3.77039 0
M  V30 3399 H 321.696 0.405297 -2.92304 0
M  V30 3400 H 321.777 -1.22687 -2.24458 0
M  V30 3401 H 321.421 -2.1919 -4.58168 0
M  V30 3402 H 321.351 -0.537365 -5.23851 0
M  V30 3403 H 323.842 -0.784895 -3.69659 0
M  V30 3404 H 324.155 -2.21148 -7.40482 0
M  V30 3405 H 322.5 -1.98219 -6.66134 0
M  V30 3406 H 325.691 -1.0545 -4.56068 0
M  V30 3407 H 325.864 -1.70481 -6.25172 0
M  V30 3408 N 319.27 1.56325 -0.20005 0
M  V30 3409 C 320.519 1.96895 0.437652 0
M  V30 3410 C 320.832 1.08999 1.62415 0
M  V30 3411 O 322.038 1.39372 2.32997 0
M  V30 3412 C 320.494 3.50198 0.830025 0
M  V30 3413 C 320.102 4.46765 -0.332461 0
M  V30 3414 C 321.846 3.99526 1.43453 0
M  V30 3415 C 319.753 5.91344 0.0811468 0
M  V30 3416 H 318.683 0.735209 0.167282 0
M  V30 3417 H 321.334 1.81148 -0.292853 0
M  V30 3418 H 319.716 3.61467 1.61734 0
M  V30 3419 H 320.89 4.47231 -1.11 0
M  V30 3420 H 319.205 4.07657 -0.848789 0
M  V30 3421 H 321.802 5.05025 1.75652 0
M  V30 3422 H 322.145 3.44122 2.34277 0
M  V30 3423 H 322.678 3.91393 0.71109 0
M  V30 3424 H 319.417 6.50685 -0.793033 0
M  V30 3425 H 318.937 5.94121 0.823445 0
M  V30 3426 H 320.616 6.44945 0.515252 0
M  V30 3427 N 320.748 -0.0735177 1.57428 0
M  V30 3428 C 321.978 -0.78483 1.91112 0
M  V30 3429 C 322.386 -1.71729 0.7941 0
M  V30 3430 O 321.729 -1.82105 -0.241542 0
M  V30 3431 C 321.791 -1.63346 3.20247 0
M  V30 3432 C 321.455 -0.870557 4.48632 0
M  V30 3433 C 322.452 -0.19058 5.19551 0
M  V30 3434 C 320.137 -0.838242 4.95256 0
M  V30 3435 C 322.131 0.511503 6.35344 0
M  V30 3436 C 319.818 -0.132386 6.10957 0
M  V30 3437 C 320.816 0.541288 6.80852 0
M  V30 3438 O 320.504 1.23578 7.94345 0
M  V30 3439 H 320.236 -0.228408 0.636244 0
M  V30 3440 H 322.79 -0.0486039 2.05342 0
M  V30 3441 H 321.02 -2.41245 3.02222 0
M  V30 3442 H 322.709 -2.22329 3.39595 0
M  V30 3443 H 323.475 -0.206864 4.84559 0
M  V30 3444 H 319.354 -1.35206 4.40727 0
M  V30 3445 H 322.898 1.03789 6.89836 0
M  V30 3446 H 318.795 -0.114023 6.45399 0
M  V30 3447 H 319.563 1.14487 8.10454 0
M  V30 3448 N 322.226 -1.5378 -0.344866 0
M  V30 3449 C 323.642 -1.44015 -0.687888 0
M  V30 3450 C 323.842 -0.595834 -1.92489 0
M  V30 3451 O 322.898 -0.0863064 -2.52352 0
M  V30 3452 C 324.211 -2.87481 -0.881758 0
M  V30 3453 C 325.759 -2.97247 -0.980459 0
M  V30 3454 C 326.234 -4.41819 -1.20665 0
M  V30 3455 N 327.725 -4.45339 -1.27389 0
M  V30 3456 C 328.46 -5.54333 -1.46639 0
M  V30 3457 N 327.956 -6.73335 -1.63071 0
M  V30 3458 N 329.749 -5.41944 -1.49176 0
M  V30 3459 H 321.9 -2.07169 0.468475 0
M  V30 3460 H 324.163 -0.93643 0.147655 0
M  V30 3461 H 323.869 -3.51672 -0.0443444 0
M  V30 3462 H 323.743 -3.32352 -1.78388 0
M  V30 3463 H 326.13 -2.33197 -1.8084 0
M  V30 3464 H 326.211 -2.5574 -0.0552713 0
M  V30 3465 H 325.855 -5.06449 -0.383652 0
M  V30 3466 H 325.785 -4.80917 -2.14539 0
M  V30 3467 H 328.276 -3.59585 -1.1622 0
M  V30 3468 H 328.589 -7.52165 -1.77391 0
M  V30 3469 H 326.934 -6.76282 -1.60209 0
M  V30 3470 H 330.125 -4.47932 -1.3592 0
M  V30 3471 H 330.298 -6.26946 -1.63837 0
M  V30 3472 N 323.704 0.605807 -1.45491 0
M  V30 3473 C 324.953 1.36086 -1.48874 0
M  V30 3474 C 325.266 1.95131 -0.135333 0
M  V30 3475 O 326.472 2.7146 -0.0468144 0
M  V30 3476 C 324.928 2.46518 -2.62215 0
M  V30 3477 C 324.536 1.93877 -4.03876 0
M  V30 3478 C 326.28 3.23512 -2.74846 0
M  V30 3479 C 324.187 3.01801 -5.08596 0
M  V30 3480 H 323.117 0.511497 -0.553974 0
M  V30 3481 H 325.768 0.649089 -1.71636 0
M  V30 3482 H 324.15 3.20388 -2.32739 0
M  V30 3483 H 325.324 1.26704 -4.43038 0
M  V30 3484 H 323.639 1.29622 -3.95711 0
M  V30 3485 H 326.236 4.04013 -3.50253 0
M  V30 3486 H 326.579 3.74631 -1.81542 0
M  V30 3487 H 327.112 2.56742 -3.03856 0
M  V30 3488 H 323.851 2.55597 -6.03614 0
M  V30 3489 H 323.371 3.67535 -4.74002 0
M  V30 3490 H 325.05 3.66152 -5.33424 0
M  V30 3491 N 325.182 1.32811 0.848464 0
M  V30 3492 C 326.145 1.22194 1.9391 0
M  V30 3493 C 327.145 0.143404 1.60159 0
M  V30 3494 O 328.335 0.394253 1.6968 0
M  V30 3495 C 325.467 0.88067 3.29328 0
M  V30 3496 H 326.66 2.19127 2.04752 0
M  V30 3497 H 324.213 1.16731 1.0394 0
M  V30 3498 H 324.948 -0.0865776 3.24184 0
M  V30 3499 H 324.733 1.66052 3.55203 0
M  V30 3500 H 326.223 0.830871 4.09251 0
M  V30 3501 N 326.66 -1.06551 1.16123 0
M  V30 3502 C 327.592 -2.13908 0.823171 0
M  V30 3503 C 328.605 -1.61926 -0.16843 0
M  V30 3504 O 329.794 -1.78412 0.055962 0
M  V30 3505 C 326.894 -3.38283 0.204424 0
M  V30 3506 C 326.067 -4.19589 1.23548 0
M  V30 3507 C 325.126 -5.2233 0.637011 0
M  V30 3508 O 324.152 -5.54034 1.30516 0
M  V30 3509 N 325.354 -5.77621 -0.577474 0
M  V30 3510 H 328.119 -2.43508 1.74711 0
M  V30 3511 H 325.68 -1.2253 1.05821 0
M  V30 3512 H 327.672 -4.0416 -0.208909 0
M  V30 3513 H 326.242 -3.06329 -0.623012 0
M  V30 3514 H 325.462 -3.49406 1.82507 0
M  V30 3515 H 326.75 -4.70718 1.93137 0
M  V30 3516 H 326.148 -5.54125 -1.13853 0
M  V30 3517 H 324.705 -6.45087 -0.933053 0
M  V30 3518 N 328.138 -0.959301 -1.25041 0
M  V30 3519 C 329.085 -0.482057 -2.2571 0
M  V30 3520 C 330.055 0.467939 -1.59372 0
M  V30 3521 O 331.24 0.380159 -1.86974 0
M  V30 3522 C 328.38 0.229623 -3.44335 0
M  V30 3523 C 327.493 -0.758156 -4.25295 0
M  V30 3524 C 326.628 -0.0234403 -5.31195 0
M  V30 3525 C 325.667 -1.00184 -6.03846 0
M  V30 3526 N 324.804 -0.29769 -7.01469 0
M  V30 3527 H 329.644 -1.34538 -2.65901 0
M  V30 3528 H 327.181 -0.674592 -1.3072 0
M  V30 3529 H 329.139 0.658856 -4.11965 0
M  V30 3530 H 327.769 1.05696 -3.05005 0
M  V30 3531 H 326.821 -1.30586 -3.57284 0
M  V30 3532 H 328.133 -1.50458 -4.75567 0
M  V30 3533 H 327.287 0.464201 -6.04922 0
M  V30 3534 H 326.026 0.755741 -4.81809 0
M  V30 3535 H 325.031 -1.50044 -5.2893 0
M  V30 3536 H 326.256 -1.78133 -6.55321 0
M  V30 3537 H 324.202 0.462668 -6.54366 0
M  V30 3538 H 324.119 -0.983128 -7.4958 0
M  V30 3539 H 325.387 0.16826 -7.79318 0
M  V30 3540 N 329.616 1.39756 -0.72842 0
M  V30 3541 C 330.548 2.29157 -0.0446202 0
M  V30 3542 C 331.561 1.46484 0.710367 0
M  V30 3543 O 332.75 1.69632 0.55562 0
M  V30 3544 C 329.85 3.24987 0.961071 0
M  V30 3545 C 329.023 4.36572 0.268967 0
M  V30 3546 C 328.082 5.12756 1.18184 0
M  V30 3547 O 327.108 5.6534 0.661794 0
M  V30 3548 N 328.31 5.23331 2.51206 0
M  V30 3549 H 331.075 2.88482 -0.812295 0
M  V30 3550 H 328.636 1.51265 -0.577098 0
M  V30 3551 H 330.628 3.72827 1.57423 0
M  V30 3552 H 329.198 2.66739 1.63 0
M  V30 3553 H 328.418 3.90694 -0.524574 0
M  V30 3554 H 329.706 5.08363 -0.210934 0
M  V30 3555 H 329.104 4.82116 2.9594 0
M  V30 3556 H 327.661 5.74634 3.07634 0
M  V30 3557 N 331.094 0.475555 1.50254 0
M  V30 3558 C 332.343 -0.0795996 2.01543 0
M  V30 3559 C 332.656 -1.4038 1.36209 0
M  V30 3560 O 333.862 -2.04415 1.7868 0
M  V30 3561 C 332.318 -0.192363 3.59386 0
M  V30 3562 C 331.926 1.12367 4.33679 0
M  V30 3563 C 333.67 -0.699238 4.18701 0
M  V30 3564 C 331.577 0.974453 5.83317 0
M  V30 3565 H 330.507 -0.0335228 0.753254 0
M  V30 3566 H 333.158 0.611128 1.73025 0
M  V30 3567 H 331.54 -0.946974 3.84511 0
M  V30 3568 H 332.714 1.88958 4.20276 0
M  V30 3569 H 331.029 1.562 3.85993 0
M  V30 3570 H 333.626 -0.827978 5.28251 0
M  V30 3571 H 333.969 -1.69171 3.80377 0
M  V30 3572 H 334.502 -0.00188807 3.978 0
M  V30 3573 H 331.241 1.94042 6.26121 0
M  V30 3574 H 330.761 0.248998 5.99283 0
M  V30 3575 H 332.44 0.642867 6.43798 0
M  V30 3576 N 332.573 -1.56217 0.208337 0
M  V30 3577 C 333.989 -1.58919 -0.14729 0
M  V30 3578 C 334.189 -1.22486 -1.59998 0
M  V30 3579 O 333.245 -0.953849 -2.3379 0
M  V30 3580 C 334.558 -3.00236 0.167048 0
M  V30 3581 C 336.106 -3.12813 0.108219 0
M  V30 3582 C 336.581 -4.56284 0.396049 0
M  V30 3583 N 338.072 -4.61912 0.345142 0
M  V30 3584 C 338.807 -5.70837 0.541523 0
M  V30 3585 N 338.303 -6.88178 0.798968 0
M  V30 3586 N 340.096 -5.60091 0.474867 0
M  V30 3587 H 332.247 -1.78177 1.15614 0
M  V30 3588 H 334.51 -0.827555 0.462446 0
M  V30 3589 H 334.216 -3.31499 1.1748 0
M  V30 3590 H 334.09 -3.7354 -0.524184 0
M  V30 3591 H 336.477 -2.81354 -0.890157 0
M  V30 3592 H 336.558 -2.41866 0.832729 0
M  V30 3593 H 336.202 -4.88458 1.3918 0
M  V30 3594 H 336.132 -5.25439 -0.349502 0
M  V30 3595 H 338.623 -3.77589 0.153316 0
M  V30 3596 H 338.936 -7.67095 0.93727 0
M  V30 3597 H 337.281 -6.89953 0.836013 0
M  V30 3598 H 340.472 -4.67297 0.274064 0
M  V30 3599 H 340.645 -6.44917 0.631326 0
M  V30 3600 N 334.051 0.0651679 -1.57465 0
M  V30 3601 C 335.467 0.420105 -1.53972 0
M  V30 3602 C 335.667 1.78782 -0.929474 0
M  V30 3603 O 334.723 2.46771 -0.534839 0
M  V30 3604 C 336.036 0.355084 -2.98596 0
M  V30 3605 C 337.584 0.434792 -3.09965 0
M  V30 3606 C 338.059 0.399609 -4.56253 0
M  V30 3607 N 339.55 0.459488 -4.60915 0
M  V30 3608 C 340.285 0.454584 -5.71595 0
M  V30 3609 N 339.781 0.404102 -6.9162 0
M  V30 3610 N 341.574 0.501635 -5.59857 0
M  V30 3611 H 333.725 -0.830328 -1.95498 0
M  V30 3612 H 335.988 -0.312244 -0.895102 0
M  V30 3613 H 335.694 -0.583357 -3.46828 0
M  V30 3614 H 335.568 1.16275 -3.58831 0
M  V30 3615 H 337.955 1.36366 -2.61703 0
M  V30 3616 H 338.036 -0.40157 -2.52628 0
M  V30 3617 H 337.68 -0.525436 -5.05175 0
M  V30 3618 H 337.61 1.25359 -5.11461 0
M  V30 3619 H 340.101 0.502482 -3.74544 0
M  V30 3620 H 340.414 0.404468 -7.71741 0
M  V30 3621 H 338.759 0.37069 -6.94011 0
M  V30 3622 H 341.95 0.538812 -4.64989 0
M  V30 3623 H 342.123 0.494345 -6.46112 0
M  V30 3624 N 335.529 1.53961 0.336706 0
M  V30 3625 C 336.778 1.70751 1.07363 0
M  V30 3626 C 337.091 0.481061 1.89592 0
M  V30 3627 O 338.297 0.530046 2.66276 0
M  V30 3628 C 336.753 3.01965 1.95818 0
M  V30 3629 C 336.361 4.31971 1.18764 0
M  V30 3630 C 338.105 3.28121 2.69327 0
M  V30 3631 C 336.012 5.54255 2.06289 0
M  V30 3632 H 334.942 0.636292 0.404535 0
M  V30 3633 H 337.593 1.80459 0.332681 0
M  V30 3634 H 335.975 2.86132 2.7376 0
M  V30 3635 H 337.149 4.5853 0.456849 0
M  V30 3636 H 335.464 4.12481 0.569946 0
M  V30 3637 H 338.061 4.16673 3.35094 0
M  V30 3638 H 338.404 2.45426 3.36261 0
M  V30 3639 H 338.937 3.44762 1.98454 0
M  V30 3640 H 335.676 6.39513 1.43885 0
M  V30 3641 H 335.196 5.31935 2.77138 0
M  V30 3642 H 336.875 5.90159 2.65182 0
M  V30 3643 N 337.007 -0.598083 1.45811 0
M  V30 3644 C 337.97 -1.69018 1.54808 0
M  V30 3645 C 338.97 -1.55037 0.426652 0
M  V30 3646 O 340.16 -1.59932 0.690456 0
M  V30 3647 C 337.292 -3.0835 1.45371 0
M  V30 3648 H 338.485 -1.62403 2.52121 0
M  V30 3649 H 336.038 -0.814626 1.33392 0
M  V30 3650 H 336.773 -3.20534 0.492793 0
M  V30 3651 H 336.558 -3.19907 2.26721 0
M  V30 3652 H 338.048 -3.8788 1.54721 0
M  V30 3653 N 338.485 -1.33259 -0.841409 0
M  V30 3654 C 339.448 -1.23221 -1.9326 0
M  V30 3655 C 340.448 -0.151895 -1.60081 0
M  V30 3656 O 341.638 -0.403246 -1.69468 0
M  V30 3657 C 338.77 -0.898123 -3.28856 0
M  V30 3658 H 339.963 -2.2021 -2.03587 0
M  V30 3659 H 337.516 -1.17281 -1.03319 0
M  V30 3660 H 338.251 0.0693841 -3.24226 0
M  V30 3661 H 338.036 -1.67934 -3.54317 0
M  V30 3662 H 339.526 -0.852563 -4.08805 0
M  V30 3663 N 339.963 1.05934 -1.16686 0
M  V30 3664 C 340.893 2.1546 -0.899949 0
M  V30 3665 C 341.874 1.69391 0.155154 0
M  V30 3666 O 343.059 1.94199 0.00648693 0
M  V30 3667 C 340.189 3.44939 -0.404241 0
M  V30 3668 C 339.143 4.04536 -1.39767 0
M  V30 3669 C 338.469 5.29268 -0.760216 0
M  V30 3670 C 339.769 4.42893 -2.76845 0
M  V30 3671 H 341.463 2.38046 -1.81588 0
M  V30 3672 H 339.009 1.14404 -0.874514 0
M  V30 3673 H 340.962 4.20901 -0.204971 0
M  V30 3674 H 339.686 3.21983 0.547206 0
M  V30 3675 H 338.345 3.30635 -1.58355 0
M  V30 3676 H 337.993 5.02611 0.197831 0
M  V30 3677 H 337.693 5.70101 -1.42332 0
M  V30 3678 H 339.217 6.07924 -0.57105 0
M  V30 3679 H 340.631 5.09921 -2.62019 0
M  V30 3680 H 339.028 4.94721 -3.39663 0
M  V30 3681 H 340.098 3.53584 -3.31823 0
M  V30 3682 N 341.441 0.965919 1.2453 0
M  V30 3683 C 342.351 0.502154 2.29163 0
M  V30 3684 C 343.367 -0.436017 1.68448 0
M  V30 3685 O 344.543 -0.309497 1.99008 0
M  V30 3686 C 341.608 -0.201956 3.46111 0
M  V30 3687 C 340.669 0.775821 4.22232 0
M  V30 3688 C 339.902 0.105217 5.33596 0
M  V30 3689 O 340.125 -1.10683 5.59558 0
M  V30 3690 O 339.059 0.796475 5.96607 0
M  V30 3691 H 342.885 1.37194 2.70946 0
M  V30 3692 H 340.47 0.732875 1.30189 0
M  V30 3693 H 342.352 -0.597564 4.17142 0
M  V30 3694 H 341.027 -1.04673 3.06309 0
M  V30 3695 H 339.934 1.22185 3.53584 0
M  V30 3696 H 341.267 1.58896 4.65846 0
M  V30 3697 N 342.919 -1.39368 0.735821 0
M  V30 3698 C 344.335 -1.54204 0.411492 0
M  V30 3699 C 344.535 -1.70268 -1.07755 0
M  V30 3700 O 343.591 -1.70364 -1.86366 0
M  V30 3701 C 344.904 -2.75925 1.19523 0
M  V30 3702 C 346.452 -2.89761 1.18354 0
M  V30 3703 C 346.927 -4.14421 1.94986 0
M  V30 3704 N 348.418 -4.21462 1.92156 0
M  V30 3705 C 349.153 -5.16871 2.48258 0
M  V30 3706 N 348.649 -6.18063 3.13001 0
M  V30 3707 N 350.442 -5.09093 2.38287 0
M  V30 3708 H 342.593 -1.27189 1.70108 0
M  V30 3709 H 344.856 -0.616517 0.720147 0
M  V30 3710 H 344.562 -2.70401 2.24892 0
M  V30 3711 H 344.436 -3.68614 0.800222 0
M  V30 3712 H 346.823 -2.94777 0.137975 0
M  V30 3713 H 346.904 -1.98133 1.61793 0
M  V30 3714 H 346.548 -4.10166 2.99543 0
M  V30 3715 H 346.478 -5.05095 1.48953 0
M  V30 3716 H 348.969 -3.48979 1.44991 0
M  V30 3717 H 349.282 -6.87326 3.53275 0
M  V30 3718 H 347.627 -6.18448 3.17091 0
M  V30 3719 H 350.818 -4.28973 1.8735 0
M  V30 3720 H 350.991 -5.83272 2.82308 0
M  V30 3721 N 344.397 -0.483516 -1.5 0
M  V30 3722 C 345.36 0.292965 -2.2732 0
M  V30 3723 C 346.36 0.909499 -1.32608 0
M  V30 3724 O 347.55 0.776745 -1.55924 0
M  V30 3725 C 344.682 1.41854 -3.09984 0
M  V30 3726 H 345.875 -0.385289 -2.97415 0
M  V30 3727 H 343.428 -0.237942 -1.54478 0
M  V30 3728 H 344.163 2.13148 -2.44414 0
M  V30 3729 H 343.948 0.982114 -3.79601 0
M  V30 3730 H 345.438 1.96597 -3.68429 0
M  V30 3731 N 345.875 1.56104 -0.216619 0
M  V30 3732 C 346.838 2.18819 0.681962 0
M  V30 3733 C 347.838 1.14866 1.12528 0
M  V30 3734 O 349.028 1.40128 1.03488 0
M  V30 3735 C 346.16 2.80756 1.93362 0
M  V30 3736 H 347.353 2.99595 0.135254 0
M  V30 3737 H 344.906 1.56265 0.0330003 0
M  V30 3738 H 345.641 2.03837 2.52232 0
M  V30 3739 H 345.426 3.56876 1.62426 0
M  V30 3740 H 346.916 3.28844 2.57393 0
M  V30 3741 N 347.353 -0.0568162 1.57498 0
M  V30 3742 C 348.599 -0.75422 1.88253 0
M  V30 3743 C 348.932 -1.76461 0.810865 0
M  V30 3744 O 348.207 -1.93691 -0.177259 0
M  V30 3745 C 348.49 -1.44878 3.2967 0
M  V30 3746 C 348.343 -0.453789 4.47505 0
M  V30 3747 C 349.662 -2.38994 3.69554 0
M  V30 3748 H 346.781 -0.272724 0.684683 0
M  V30 3749 H 349.423 -0.0172113 1.89992 0
M  V30 3750 H 347.573 -2.077 3.28318 0
M  V30 3751 H 349.245 0.170371 4.60985 0
M  V30 3752 H 347.488 0.229552 4.33192 0
M  V30 3753 H 348.159 -0.977699 5.43273 0
M  V30 3754 H 350.635 -1.86239 3.72095 0
M  V30 3755 H 349.511 -2.84587 4.69363 0
M  V30 3756 H 349.772 -3.24461 3.00296 0
M  V30 3757 N 348.832 -1.54138 -0.328536 0
M  V30 3758 C 349.782 -1.79557 -1.4051 0
M  V30 3759 C 350.766 -0.651373 -1.47126 0
M  V30 3760 O 351.958 -0.911226 -1.51742 0
M  V30 3761 C 349.087 -2.02196 -2.77438 0
M  V30 3762 C 348.173 -3.22724 -2.75155 0
M  V30 3763 N 348.564 -4.43881 -2.42494 0
M  V30 3764 C 346.862 -3.24196 -3.06289 0
M  V30 3765 C 347.563 -5.25797 -2.48822 0
M  V30 3766 N 346.539 -4.62862 -2.8506 0
M  V30 3767 H 350.341 -2.70814 -1.1418 0
M  V30 3768 H 347.855 -1.53265 -0.536991 0
M  V30 3769 H 349.852 -2.18546 -3.55026 0
M  V30 3770 H 348.512 -1.12191 -3.04702 0
M  V30 3771 H 349.523 -4.70969 -2.15428 0
M  V30 3772 H 346.2 -2.44208 -3.38627 0
M  V30 3773 H 347.59 -6.32535 -2.26603 0
M  V30 3774 N 350.31 0.590341 -1.46126 0
M  V30 3775 C 351.273 1.68194 -1.55703 0
M  V30 3776 C 352.273 1.54808 -0.434868 0
M  V30 3777 O 353.463 1.59564 -0.698928 0
M  V30 3778 C 350.595 3.07575 -1.47005 0
M  V30 3779 H 351.788 1.61064 -2.52979 0
M  V30 3780 H 349.341 0.807541 -1.33823 0
M  V30 3781 H 350.076 3.20268 -0.509785 0
M  V30 3782 H 349.861 3.187 -2.28414 0
M  V30 3783 H 351.351 3.87055 -1.56776 0
M  V30 3784 N 351.788 1.33704 0.83433 0
M  V30 3785 C 352.735 1.24335 1.94447 0
M  V30 3786 C 353.705 0.120991 1.65659 0
M  V30 3787 O 354.89 0.300035 1.88426 0
M  V30 3788 C 352.03 0.993124 3.30501 0
M  V30 3789 C 351.143 2.20217 3.71657 0
M  V30 3790 C 350.278 1.88572 4.96602 0
M  V30 3791 C 349.317 3.05683 5.30306 0
M  V30 3792 N 348.454 2.73997 6.46429 0
M  V30 3793 H 353.294 2.1928 2.01792 0
M  V30 3794 H 350.831 1.09035 0.987404 0
M  V30 3795 H 352.789 0.828467 4.08892 0
M  V30 3796 H 351.419 0.0803902 3.227 0
M  V30 3797 H 350.471 2.47642 2.88752 0
M  V30 3798 H 351.783 3.07752 3.92543 0
M  V30 3799 H 350.937 1.68776 5.82752 0
M  V30 3800 H 349.676 0.982799 4.77695 0
M  V30 3801 H 348.681 3.26088 4.42659 0
M  V30 3802 H 349.906 3.96737 5.51159 0
M  V30 3803 H 347.852 1.86268 6.28999 0
M  V30 3804 H 347.769 3.55064 6.67432 0
M  V30 3805 H 349.037 2.57679 7.35678 0
M  V30 3806 N 353.266 -1.05314 1.17247 0
M  V30 3807 C 354.214 -2.15137 0.884238 0
M  V30 3808 C 355.208 -1.68729 -0.15063 0
M  V30 3809 O 356.414 -1.8 -0.00366673 0
M  V30 3810 H 352.789 -0.702471 0.2684 0
M  V30 3811 H 354.76 -2.36652 1.81764 0
M  V30 3812 C 353.509 -3.45243 0.412659 0
M  V30 3813 H 352.832 -3.81352 1.20043 0
M  V30 3814 H 354.272 -4.23263 0.249858 0
M  V30 3815 C 352.731 -3.25487 -0.86948 0
M  V30 3816 O 353.261 -3.51938 -1.93655 0
M  V30 3817 N 351.467 -2.78875 -0.817147 0
M  V30 3818 H 351.014 -2.57549 0.0514211 0
M  V30 3819 H 350.972 -2.66036 -1.67547 0
M  V30 3820 N 354.744 -0.972509 -1.24016 0
M  V30 3821 C 355.984 -0.644951 -1.93958 0
M  V30 3822 C 356.348 0.80559 -1.74282 0
M  V30 3823 O 357.549 1.2436 -2.38302 0
M  V30 3824 C 355.82 -1.01521 -3.42678 0
M  V30 3825 S 357.379 -0.802927 -4.31391 0
M  V30 3826 H 354.197 -0.236452 -0.670531 0
M  V30 3827 H 356.799 -1.25048 -1.50277 0
M  V30 3828 H 355.503 -2.06769 -3.54506 0
M  V30 3829 H 355.034 -0.400648 -3.91355 0
M  V30 3830 H 357.049 0.317256 -4.95185 0
M  V30 3831 N 356.222 1.38976 -0.743202 0
M  V30 3832 C 357.154 2.29096 -0.0689228 0
M  V30 3833 C 358.167 1.47229 0.694791 0
M  V30 3834 O 359.356 1.70212 0.537597 0
M  V30 3835 C 356.456 3.25988 0.926548 0
M  V30 3836 C 355.629 4.36833 0.222647 0
M  V30 3837 C 354.688 5.13981 1.12739 0
M  V30 3838 O 353.714 5.6601 0.601795 0
M  V30 3839 N 354.916 5.25966 2.45641 0
M  V30 3840 H 357.681 2.87604 -0.842846 0
M  V30 3841 H 355.242 1.50645 -0.593109 0
M  V30 3842 H 357.234 3.74476 1.5346 0
M  V30 3843 H 355.804 2.68453 1.60162 0
M  V30 3844 H 355.024 3.90116 -0.565983 0
M  V30 3845 H 356.312 5.0811 -0.264841 0
M  V30 3846 H 355.71 4.85228 2.9081 0
M  V30 3847 H 354.267 5.77865 3.01522 0
M  V30 3848 N 357.7 0.491464 1.49741 0
M  V30 3849 C 358.928 -0.0535151 2.06831 0
M  V30 3850 C 359.343 -1.31683 1.35296 0
M  V30 3851 O 358.7 -1.77402 0.42836 0
M  V30 3852 C 358.751 -0.320835 3.60073 0
M  V30 3853 O 358.472 0.892394 4.28915 0
M  V30 3854 C 359.973 -0.910519 4.33848 0
M  V30 3855 H 357.193 0.0161909 0.670805 0
M  V30 3856 H 359.737 0.68609 1.92647 0
M  V30 3857 H 357.892 -1.0104 3.73991 0
M  V30 3858 H 358.306 0.649401 5.20464 0
M  V30 3859 H 359.78 -1.04721 5.41976 0
M  V30 3860 H 360.257 -1.90589 3.95692 0
M  V30 3861 H 360.863 -0.258712 4.24512 0
M  V30 3862 N 359.178 -1.55987 0.224894 0
M  V30 3863 C 360.406 -2.02784 -0.410665 0
M  V30 3864 C 360.821 -1.10464 -1.53112 0
M  V30 3865 O 360.178 -0.114871 -1.82138 0
M  V30 3866 C 360.229 -3.49087 -0.939165 0
M  V30 3867 O 359.95 -4.37887 0.136614 0
M  V30 3868 C 361.451 -4.11543 -1.64763 0
M  V30 3869 H 358.671 -0.663484 -0.100148 0
M  V30 3870 H 361.215 -2.01614 0.342326 0
M  V30 3871 H 359.37 -3.50861 -1.64242 0
M  V30 3872 H 359.784 -5.23849 -0.261155 0
M  V30 3873 H 361.258 -5.15673 -1.96939 0
M  V30 3874 H 361.735 -3.56736 -2.56195 0
M  V30 3875 H 362.341 -4.13629 -0.989503 0
M  V30 3876 N 360.656 0.0484629 -1.57525 0
M  V30 3877 C 361.884 0.755421 -1.92616 0
M  V30 3878 C 362.299 1.69919 -0.822984 0
M  V30 3879 O 361.656 1.81378 0.202085 0
M  V30 3880 C 361.707 1.52915 -3.27566 0
M  V30 3881 O 361.428 0.62329 -4.33644 0
M  V30 3882 C 362.929 2.33502 -3.76818 0
M  V30 3883 H 360.149 0.213465 -0.63614 0
M  V30 3884 H 362.693 0.0117698 -2.04497 0
M  V30 3885 H 360.848 2.22486 -3.17142 0
M  V30 3886 H 361.262 1.16383 -5.11425 0
M  V30 3887 H 362.736 2.83214 -4.73808 0
M  V30 3888 H 363.213 3.14068 -3.07014 0
M  V30 3889 H 363.819 1.69043 -3.90262 0
M  V30 3890 N 362.134 1.5431 0.320358 0
M  V30 3891 C 363.382 1.72327 1.05583 0
M  V30 3892 C 363.703 0.50149 1.88441 0
M  V30 3893 O 362.973 -0.48448 1.89815 0
M  V30 3894 H 361.553 0.635387 0.3928 0
M  V30 3895 H 364.215 1.91621 0.356019 0
M  V30 3896 H 363.311 2.60426 1.72003 0
M  V30 3897 N 363.613 -0.582584 1.46437 0
M  V30 3898 C 364.561 -1.71272 1.5738 0
M  V30 3899 C 365.555 -1.63524 0.44229 0
M  V30 3900 O 366.761 -1.69016 0.619166 0
M  V30 3901 H 363.136 -0.566273 0.494813 0
M  V30 3902 H 365.107 -1.59174 2.52401 0
M  V30 3903 C 363.856 -3.09658 1.58136 0
M  V30 3904 H 363.179 -3.16291 2.44541 0
M  V30 3905 H 364.619 -3.88494 1.69847 0
M  V30 3906 C 363.078 -3.3547 0.310026 0
M  V30 3907 O 363.608 -3.97199 -0.599683 0
M  V30 3908 N 361.814 -2.89925 0.197901 0
M  V30 3909 H 361.361 -2.39873 0.93909 0
M  V30 3910 H 361.319 -3.07568 -0.65185 0
M  V30 3911 N 365.091 -1.34144 -0.827227 0
M  V30 3912 C 366.339 -1.26009 -1.58007 0
M  V30 3913 C 366.66 0.170971 -1.94249 0
M  V30 3914 O 365.93 1.10256 -1.61927 0
M  V30 3915 H 364.51 -0.463414 -0.585881 0
M  V30 3916 H 367.172 -1.68005 -0.987951 0
M  V30 3917 H 366.268 -1.86187 -2.50481 0
M  V30 3918 N 366.569 1.04691 -1.17803 0
M  V30 3919 C 367.516 2.12557 -0.899343 0
M  V30 3920 C 368.486 1.65339 0.158771 0
M  V30 3921 O 369.671 1.90789 0.0204797 0
M  V30 3922 C 366.811 3.42481 -0.424315 0
M  V30 3923 C 365.924 4.03346 -1.54713 0
M  V30 3924 C 365.059 5.21208 -1.02546 0
M  V30 3925 C 364.098 5.74089 -2.12339 0
M  V30 3926 N 363.235 6.83247 -1.61612 0
M  V30 3927 H 368.075 2.35734 -1.823 0
M  V30 3928 H 365.612 1.1564 -0.909159 0
M  V30 3929 H 367.57 4.16996 -0.130421 0
M  V30 3930 H 366.2 3.19471 0.462377 0
M  V30 3931 H 365.252 3.2622 -1.95664 0
M  V30 3932 H 366.564 4.38628 -2.37501 0
M  V30 3933 H 365.718 6.02812 -0.685718 0
M  V30 3934 H 364.457 4.87414 -0.167084 0
M  V30 3935 H 363.462 4.91111 -2.47165 0
M  V30 3936 H 364.687 6.0993 -2.98601 0
M  V30 3937 H 362.633 6.5134 -0.780533 0
M  V30 3938 H 362.55 7.17559 -2.38003 0
M  V30 3939 H 363.818 7.68491 -1.30545 0
M  V30 3940 N 368.047 0.979072 1.23499 0
M  V30 3941 C 369.458 0.684391 1.73704 0
M  V30 3942 C 369.809 -0.799448 1.79174 0
M  V30 3943 O 368.934 -1.62531 1.42873 0
M  V30 3944 C 369.529 1.23564 3.15464 0
M  V30 3945 C 368.088 0.99063 3.6313 0
M  V30 3946 C 367.235 1.36416 2.41425 0
M  V30 3947 H 370.186 1.15307 1.09041 0
M  V30 3948 H 370.207 0.607417 3.7562 0
M  V30 3949 H 369.719 2.31561 3.1145 0
M  V30 3950 H 367.82 -0.0733136 3.72528 0
M  V30 3951 H 367.933 1.64427 4.5 0
M  V30 3952 H 366.297 0.782616 2.42378 0
M  V30 3953 H 367.08 2.45387 2.40083 0
M  V30 3954 N 369.525 -1.3858 0.750561 0
M  V30 3955 C 370.771 -2.00481 0.305825 0
M  V30 3956 C 371.104 -1.5944 -1.10872 0
M  V30 3957 O 370.379 -0.83052 -1.75877 0
M  V30 3958 C 370.662 -3.5758 0.425287 0
M  V30 3959 C 370.515 -4.08594 1.88072 0
M  V30 3960 C 371.834 -4.39719 -0.183122 0
M  V30 3961 H 368.953 -0.728348 0.112598 0
M  V30 3962 H 371.595 -1.64566 0.949638 0
M  V30 3963 H 369.745 -3.88306 -0.122828 0
M  V30 3964 H 371.417 -3.88523 2.48691 0
M  V30 3965 H 369.66 -3.61574 2.39681 0
M  V30 3966 H 370.331 -5.177 1.91548 0
M  V30 3967 H 372.807 -4.15128 0.284303 0
M  V30 3968 H 371.683 -5.48856 -0.0692757 0
M  V30 3969 H 371.944 -4.23434 -1.27106 0
M  V30 3970 N 371.003 -0.499398 -1.49478 0
M  V30 3971 C 371.913 0.284489 -2.32869 0
M  V30 3972 C 372.929 0.968885 -1.44529 0
M  V30 3973 O 374.105 0.95062 -1.77553 0
M  V30 3974 C 371.17 1.33594 -3.19928 0
M  V30 3975 C 370.231 0.665149 -4.24116 0
M  V30 3976 C 369.464 1.6665 -5.07014 0
M  V30 3977 O 369.687 2.89618 -4.91404 0
M  V30 3978 O 368.621 1.22271 -5.8935 0
M  V30 3979 H 372.447 -0.39802 -3.01081 0
M  V30 3980 H 370.032 -0.260758 -1.47107 0
M  V30 3981 H 371.914 1.94431 -3.73864 0
M  V30 3982 H 370.589 2.0014 -2.54412 0
M  V30 3983 H 369.496 0.0170769 -3.74096 0
M  V30 3984 H 370.829 0.0421555 -4.92182 0
M  V30 3985 N 372.481 1.55866 -0.233164 0
M  V30 3986 C 373.721 2.00506 0.397078 0
M  V30 3987 C 374.085 1.1176 1.56121 0
M  V30 3988 O 375.286 1.45796 2.25825 0
M  V30 3989 C 373.557 3.4811 0.809601 0
M  V30 3990 S 375.116 4.14765 1.43231 0
M  V30 3991 H 371.934 0.699828 0.125547 0
M  V30 3992 H 374.536 1.92429 -0.345177 0
M  V30 3993 H 373.24 4.10373 -0.0471601 0
M  V30 3994 H 372.771 3.60085 1.58438 0
M  V30 3995 H 374.786 4.14914 2.7214 0
M  V30 3996 N 373.959 -0.0401083 1.57549 0
M  V30 3997 C 375.184 -0.748931 1.93406 0
M  V30 3998 C 375.609 -1.68686 0.832274 0
M  V30 3999 O 374.967 -1.80047 -0.212818 0
M  V30 4000 C 375.015 -1.4916 3.28304 0
M  V30 4001 O 374.119 -2.6042 3.19774 0
M  V30 4002 H 373.46 -0.202212 0.63246 0
M  V30 4003 H 375.99 0.00112086 2.046 0
M  V30 4004 H 376 -1.86395 3.62934 0
M  V30 4005 H 374.675 -0.80364 4.08062 0
M  V30 4006 H 373.252 -2.25808 2.96758 0
M  V30 4007 N 375.437 -1.54477 -0.31217 0
M  V30 4008 C 376.369 -1.81011 -1.40598 0
M  V30 4009 C 377.382 -0.692546 -1.47335 0
M  V30 4010 O 378.571 -0.969847 -1.49854 0
M  V30 4011 C 375.671 -1.92307 -2.79054 0
M  V30 4012 C 374.844 -3.22594 -2.95384 0
M  V30 4013 C 373.903 -3.24448 -4.1427 0
M  V30 4014 O 372.929 -3.98035 -4.06887 0
M  V30 4015 N 374.131 -2.49042 -5.24365 0
M  V30 4016 H 376.896 -2.75408 -1.18196 0
M  V30 4017 H 374.457 -1.53914 -0.502202 0
M  V30 4018 H 376.449 -1.90962 -3.56813 0
M  V30 4019 H 375.019 -1.04955 -2.94454 0
M  V30 4020 H 374.239 -3.36806 -2.04831 0
M  V30 4021 H 375.527 -4.08593 -3.03198 0
M  V30 4022 H 374.925 -1.88867 -5.33241 0
M  V30 4023 H 373.482 -2.53463 -6.005 0
M  V30 4024 N 376.915 0.57481 -1.46744 0
M  V30 4025 C 378.326 1.15695 -1.46532 0
M  V30 4026 C 378.677 1.95068 -0.210425 0
M  V30 4027 O 377.802 2.05241 0.685944 0
M  V30 4028 C 378.397 2.1048 -2.65487 0
M  V30 4029 C 376.956 2.64002 -2.68291 0
M  V30 4030 C 376.103 1.40026 -2.39349 0
M  V30 4031 H 379.054 0.362325 -1.54509 0
M  V30 4032 H 379.075 2.94074 -2.41455 0
M  V30 4033 H 378.587 1.52683 -3.56805 0
M  V30 4034 H 376.688 3.25646 -1.81067 0
M  V30 4035 H 376.801 3.06197 -3.68483 0
M  V30 4036 H 375.165 1.70106 -1.89568 0
M  V30 4037 H 375.948 0.840485 -3.32852 0
M  V30 4038 N 378.394 1.34581 0.820102 0
M  V30 4039 C 379.304 1.28471 1.96297 0
M  V30 4040 C 380.32 0.191902 1.72939 0
M  V30 4041 O 381.496 0.418879 1.96996 0
M  V30 4042 C 378.561 1.04281 3.30645 0
M  V30 4043 C 377.622 2.22745 3.66992 0
M  V30 4044 C 376.855 1.997 4.9493 0
M  V30 4045 O 377.078 0.956656 5.6232 0
M  V30 4046 O 376.012 2.86723 5.2922 0
M  V30 4047 H 379.838 2.24624 2.04396 0
M  V30 4048 H 377.423 1.14816 0.955913 0
M  V30 4049 H 379.305 0.925841 4.11104 0
M  V30 4050 H 377.98 0.111697 3.23507 0
M  V30 4051 H 376.887 2.40003 2.86966 0
M  V30 4052 H 378.22 3.14257 3.78819 0
M  V30 4053 N 379.872 -1.04064 1.18357 0
M  V30 4054 C 381.097 -1.81454 1.00445 0
M  V30 4055 C 381.522 -1.82823 -0.442423 0
M  V30 4056 O 380.88 -1.24555 -1.31741 0
M  V30 4057 C 380.928 -3.24925 1.56384 0
M  V30 4058 O 380.032 -4.04856 0.785209 0
M  V30 4059 H 379.373 -0.560604 0.355835 0
M  V30 4060 H 381.903 -1.31059 1.57114 0
M  V30 4061 H 381.913 -3.75702 1.59097 0
M  V30 4062 H 380.588 -3.23244 2.61699 0
M  V30 4063 H 379.165 -3.63537 0.830399 0
M  V30 4064 N 381.35 -0.985608 -1.22978 0
M  V30 4065 C 382.575 -0.675254 -1.961 0
M  V30 4066 C 383 0.752154 -1.72407 0
M  V30 4067 O 382.358 1.5131 -0.998751 0
M  V30 4068 C 382.406 -0.977899 -3.47087 0
M  V30 4069 O 381.51 -0.072685 -4.12336 0
M  V30 4070 H 380.851 -0.253443 -0.613728 0
M  V30 4071 H 383.381 -1.32061 -1.56272 0
M  V30 4072 H 383.391 -0.916739 -3.97567 0
M  V30 4073 H 382.066 -2.01807 -3.63657 0
M  V30 4074 H 380.643 -0.188703 -3.72422 0
M  V30 4075 N 382.828 1.3818 -0.7579 0
M  V30 4076 C 384.075 2.00019 -0.315985 0
M  V30 4077 C 384.403 1.60163 1.10355 0
M  V30 4078 O 383.658 0.83264 1.77103 0
M  V30 4079 C 383.957 3.55252 -0.391218 0
M  V30 4080 C 383.623 4.14834 -1.76702 0
M  V30 4081 C 382.285 4.30821 -2.14353 0
M  V30 4082 C 384.637 4.47658 -2.66931 0
M  V30 4083 C 381.965 4.76928 -3.41696 0
M  V30 4084 C 384.317 4.95184 -3.93669 0
M  V30 4085 C 382.981 5.09377 -4.31383 0
M  V30 4086 H 382.251 0.731923 -0.115627 0
M  V30 4087 H 384.898 1.65161 -0.969223 0
M  V30 4088 H 383.203 3.90273 0.34558 0
M  V30 4089 H 384.9 4.00988 -0.030805 0
M  V30 4090 H 381.49 4.02808 -1.46435 0
M  V30 4091 H 385.674 4.34904 -2.39106 0
M  V30 4092 H 380.93 4.86103 -3.70829 0
M  V30 4093 H 385.104 5.19551 -4.63724 0
M  V30 4094 H 382.731 5.44865 -5.30119 0
M  V30 4095 N 384.306 0.507319 1.49211 0
M  V30 4096 C 385.253 -0.267728 2.29242 0
M  V30 4097 C 386.223 -0.954609 1.35928 0
M  V30 4098 O 387.408 -0.960046 1.64887 0
M  V30 4099 C 384.548 -1.32243 3.18756 0
M  V30 4100 C 383.661 -0.64669 4.27132 0
M  V30 4101 C 382.796 -1.68238 5.03855 0
M  V30 4102 C 381.835 -0.98885 6.0406 0
M  V30 4103 N 380.972 -1.96903 6.73924 0
M  V30 4104 H 385.812 0.420968 2.95012 0
M  V30 4105 H 383.349 0.219443 1.45454 0
M  V30 4106 H 385.307 -1.94599 3.69036 0
M  V30 4107 H 383.937 -1.97981 2.54958 0
M  V30 4108 H 382.989 0.0902926 3.80293 0
M  V30 4109 H 384.301 -0.101058 4.98698 0
M  V30 4110 H 383.455 -2.38081 5.58034 0
M  V30 4111 H 382.194 -2.26187 4.32077 0
M  V30 4112 H 381.199 -0.276222 5.49106 0
M  V30 4113 H 382.424 -0.415767 6.77826 0
M  V30 4114 H 380.37 -2.53803 6.04913 0
M  V30 4115 H 380.287 -1.47423 7.41487 0
M  V30 4116 H 381.555 -2.66015 7.32705 0
M  V30 4117 N 385.784 -1.5574 0.241426 0
M  V30 4118 C 386.717 -2.17168 -0.700935 0
M  V30 4119 C 387.695 -1.12206 -1.1768 0
M  V30 4120 O 388.879 -1.40565 -1.25593 0
M  V30 4121 C 386.006 -2.76796 -1.95196 0
M  V30 4122 C 385.052 -3.94764 -1.61442 0
M  V30 4123 S 385.885 -5.30613 -0.72182 0
M  V30 4124 C 387.041 -5.93691 -1.98197 0
M  V30 4125 H 387.274 -2.96761 -0.178882 0
M  V30 4126 H 384.807 -1.54378 0.0259299 0
M  V30 4127 H 386.765 -3.11787 -2.67019 0
M  V30 4128 H 385.426 -1.9716 -2.44514 0
M  V30 4129 H 384.619 -4.35057 -2.54443 0
M  V30 4130 H 384.221 -3.61022 -0.976672 0
M  V30 4131 H 386.513 -6.10874 -2.92983 0
M  V30 4132 H 387.456 -6.89258 -1.62262 0
M  V30 4133 H 387.864 -5.22709 -2.13156 0
M  V30 4134 N 387.262 0.0317525 -1.57568 0
M  V30 4135 C 388.487 0.738664 -1.938 0
M  V30 4136 C 388.912 1.68242 -0.841208 0
M  V30 4137 O 388.27 1.80157 0.203267 0
M  V30 4138 C 388.318 1.47417 -3.29091 0
M  V30 4139 O 387.422 2.5872 -3.2115 0
M  V30 4140 H 386.763 0.198856 -0.633524 0
M  V30 4141 H 389.293 -0.0119713 -2.04596 0
M  V30 4142 H 389.303 1.84468 -3.63917 0
M  V30 4143 H 387.978 0.781988 -4.08482 0
M  V30 4144 H 386.555 2.24231 -2.97951 0
M  V30 4145 N 388.74 1.54641 0.303973 0
M  V30 4146 C 389.987 1.7378 1.03955 0
M  V30 4147 C 390.315 0.521986 1.87365 0
M  V30 4148 O 389.57 -0.496099 1.89308 0
M  V30 4149 C 389.869 2.97753 1.97681 0
M  V30 4150 C 389.535 4.31671 1.30271 0
M  V30 4151 C 388.197 4.68075 1.11619 0
M  V30 4152 C 390.549 5.147 0.82055 0
M  V30 4153 C 387.877 5.8509 0.434304 0
M  V30 4154 C 390.229 6.32416 0.152395 0
M  V30 4155 C 388.893 6.67484 -0.0461067 0
M  V30 4156 H 388.163 0.635908 0.380398 0
M  V30 4157 H 390.81 1.88896 0.314718 0
M  V30 4158 H 389.115 2.77406 2.76682 0
M  V30 4159 H 390.812 3.09756 2.54661 0
M  V30 4160 H 387.402 4.03041 1.45795 0
M  V30 4161 H 391.586 4.87077 0.952374 0
M  V30 4162 H 386.842 6.10806 0.269495 0
M  V30 4163 H 391.016 6.96023 -0.229126 0
M  V30 4164 H 388.643 7.58011 -0.576494 0
M  V30 4165 N 390.218 -0.567019 1.47046 0
M  V30 4166 C 391.165 -1.67489 1.58796 0
M  V30 4167 C 392.135 -1.60399 0.43144 0
M  V30 4168 O 393.32 -1.79378 0.650233 0
M  V30 4169 C 390.46 -3.05821 1.59899 0
M  V30 4170 C 389.573 -3.2342 2.86397 0
M  V30 4171 C 388.708 -4.52093 2.789 0
M  V30 4172 C 387.747 -4.6309 4.00267 0
M  V30 4173 N 386.884 -5.83106 3.91064 0
M  V30 4174 H 391.724 -1.56785 2.53422 0
M  V30 4175 H 389.261 -0.763896 1.2571 0
M  V30 4176 H 391.219 -3.8591 1.58522 0
M  V30 4177 H 389.849 -3.15384 0.687929 0
M  V30 4178 H 388.901 -2.3683 2.97684 0
M  V30 4179 H 390.213 -3.27412 3.76301 0
M  V30 4180 H 389.367 -5.4043 2.75718 0
M  V30 4181 H 388.106 -4.50565 1.86662 0
M  V30 4182 H 387.111 -3.73168 4.03765 0
M  V30 4183 H 388.336 -4.66386 4.93621 0
M  V30 4184 H 386.282 -5.82546 3.01623 0
M  V30 4185 H 386.199 -5.88434 4.74638 0
M  V30 4186 H 387.467 -6.73831 3.91882 0
M  V30 4187 N 391.696 -1.35014 -0.812953 0
M  V30 4188 C 393.112 -1.14914 -1.10757 0
M  V30 4189 C 393.312 0.0426818 -2.01455 0
M  V30 4190 O 392.368 0.715212 -2.42159 0
M  V30 4191 C 393.681 -2.44911 -1.74468 0
M  V30 4192 C 395.229 -2.5106 -1.86917 0
M  V30 4193 C 395.704 -3.81085 -2.54044 0
M  V30 4194 N 397.195 -3.82301 -2.61535 0
M  V30 4195 C 397.93 -4.79634 -3.14227 0
M  V30 4196 N 397.426 -5.87353 -3.67407 0
M  V30 4197 N 399.219 -4.67078 -3.12721 0
M  V30 4198 H 391.37 -2.1136 -0.20989 0
M  V30 4199 H 393.633 -0.935128 -0.155692 0
M  V30 4200 H 393.339 -3.32267 -1.15289 0
M  V30 4201 H 393.213 -2.58989 -2.74234 0
M  V30 4202 H 395.6 -1.64137 -2.45241 0
M  V30 4203 H 395.681 -2.40901 -0.860242 0
M  V30 4204 H 395.325 -4.68402 -1.96372 0
M  V30 4205 H 395.255 -3.88529 -3.55461 0
M  V30 4206 H 397.746 -3.04465 -2.23851 0
M  V30 4207 H 398.059 -6.57624 -4.05894 0
M  V30 4208 H 396.404 -5.91054 -3.65623 0
M  V30 4209 H 399.595 -3.82067 -2.70449 0
M  V30 4210 H 399.768 -5.43098 -3.53481 0
M  V30 4211 N 393.175 1.03435 -1.18907 0
M  V30 4212 C 394.085 2.15075 -0.937015 0
M  V30 4213 C 395.101 1.73706 0.101085 0
M  V30 4214 O 396.277 2.01232 -0.0822948 0
M  V30 4215 C 393.342 3.43458 -0.473057 0
M  V30 4216 C 392.403 3.99172 -1.57989 0
M  V30 4217 C 391.636 5.21427 -1.13797 0
M  V30 4218 O 391.859 5.704 0.000725941 0
M  V30 4219 O 390.793 5.69837 -1.9383 0
M  V30 4220 H 394.619 2.39198 -1.87131 0
M  V30 4221 H 392.204 1.13506 -0.971427 0
M  V30 4222 H 394.086 4.20811 -0.222702 0
M  V30 4223 H 392.761 3.20793 0.432869 0
M  V30 4224 H 391.668 3.23178 -1.88433 0
M  V30 4225 H 393.001 4.2619 -2.46217 0
M  V30 4226 N 394.653 0.992116 1.22453 0
M  V30 4227 C 395.881 0.685944 1.95198 0
M  V30 4228 C 396.296 -0.749233 1.73297 0
M  V30 4229 O 395.653 -1.50549 1.03156 0
M  V30 4230 C 395.704 0.981395 3.47924 0
M  V30 4231 O 395.425 2.36018 3.6909 0
M  V30 4232 C 396.926 0.692815 4.37853 0
M  V30 4233 H 394.146 0.253821 0.621141 0
M  V30 4234 H 396.69 1.32668 1.55626 0
M  V30 4235 H 394.845 0.386481 3.85467 0
M  V30 4236 H 395.259 2.45884 4.63294 0
M  V30 4237 H 396.733 0.949818 5.43767 0
M  V30 4238 H 397.21 -0.373181 4.37612 0
M  V30 4239 H 397.816 1.26874 4.05935 0
M  V30 4240 N 396.131 -1.37776 0.765217 0
M  V30 4241 C 397.078 -2.30342 0.145274 0
M  V30 4242 C 398.048 -1.5077 -0.696971 0
M  V30 4243 O 399.233 -1.79362 -0.650689 0
M  V30 4244 C 396.373 -3.37227 -0.732939 0
M  V30 4245 C 395.486 -4.31819 0.125199 0
M  V30 4246 C 394.621 -5.25777 -0.757107 0
M  V30 4247 C 393.66 -6.12012 0.103963 0
M  V30 4248 N 392.797 -6.98232 -0.735953 0
M  V30 4249 H 397.637 -2.8278 0.940195 0
M  V30 4250 H 395.174 -1.39211 0.475255 0
M  V30 4251 H 397.132 -3.97818 -1.25686 0
M  V30 4252 H 395.762 -2.86171 -1.49353 0
M  V30 4253 H 394.814 -3.7259 0.766865 0
M  V30 4254 H 396.126 -4.92509 0.789683 0
M  V30 4255 H 395.28 -5.91541 -1.34776 0
M  V30 4256 H 394.019 -4.65481 -1.45529 0
M  V30 4257 H 393.024 -5.45233 0.707197 0
M  V30 4258 H 394.249 -6.74379 0.799381 0
M  V30 4259 H 392.195 -6.40472 -1.41887 0
M  V30 4260 H 392.112 -7.55891 -0.128624 0
M  V30 4261 H 393.38 -7.68393 -1.31121 0
M  V30 4262 N 397.609 -0.515225 -1.4894 0
M  V30 4263 C 398.855 0.0242508 -2.02785 0
M  V30 4264 C 399.188 1.35323 -1.39289 0
M  V30 4265 O 398.463 1.87041 -0.533469 0
M  V30 4266 C 398.746 0.16184 -3.59736 0
M  V30 4267 C 398.599 -1.19127 -4.33738 0
M  V30 4268 C 399.918 0.895719 -4.30888 0
M  V30 4269 H 397.037 0.00733914 -0.736963 0
M  V30 4270 H 399.679 -0.669395 -1.77818 0
M  V30 4271 H 397.829 0.752624 -3.8114 0
M  V30 4272 H 399.501 -1.82202 -4.23792 0
M  V30 4273 H 397.744 -1.77695 -3.95736 0
M  V30 4274 H 398.415 -1.04815 -5.41957 0
M  V30 4275 H 400.891 0.394528 -4.14225 0
M  V30 4276 H 399.767 0.960859 -5.40425 0
M  V30 4277 H 400.028 1.9427 -3.97129 0
M  V30 4278 N 399.087 1.5561 -0.249682 0
M  V30 4279 C 400.017 2.24477 0.642826 0
M  V30 4280 C 400.998 1.22601 1.17911 0
M  V30 4281 O 402.183 1.5126 1.21795 0
M  V30 4282 C 399.313 2.94638 1.83863 0
M  V30 4283 C 398.267 4.03227 1.435 0
M  V30 4284 C 397.593 4.60828 2.71186 0
M  V30 4285 C 398.893 5.18796 0.604002 0
M  V30 4286 H 400.587 2.99321 0.0685625 0
M  V30 4287 H 398.133 1.43965 0.0315363 0
M  V30 4288 H 400.086 3.41517 2.46868 0
M  V30 4289 H 398.81 2.17287 2.43832 0
M  V30 4290 H 397.469 3.57121 0.828275 0
M  V30 4291 H 397.117 3.80174 3.29358 0
M  V30 4292 H 396.817 5.34132 2.44901 0
M  V30 4293 H 398.341 5.10442 3.35084 0
M  V30 4294 H 399.755 5.61883 1.13842 0
M  V30 4295 H 398.152 5.98506 0.437097 0
M  V30 4296 H 399.222 4.83384 -0.383147 0
M  V30 4297 N 400.565 -0.0233959 1.57583 0
M  V30 4298 C 401.512 -1.02224 2.06927 0
M  V30 4299 C 402.482 -1.35575 0.959617 0
M  V30 4300 O 403.667 -1.45815 1.23055 0
M  V30 4301 C 400.807 -2.31636 2.5581 0
M  V30 4302 C 399.92 -2.04394 3.80588 0
M  V30 4303 C 399.055 -3.27717 4.18061 0
M  V30 4304 C 398.094 -2.96056 5.3574 0
M  V30 4305 N 397.231 -4.11847 5.68618 0
M  V30 4306 H 402.071 -0.594504 2.9201 0
M  V30 4307 H 399.608 -0.281921 1.44373 0
M  V30 4308 H 401.566 -3.07258 2.82221 0
M  V30 4309 H 400.196 -2.72122 1.73636 0
M  V30 4310 H 399.248 -1.19244 3.61227 0
M  V30 4311 H 400.56 -1.77042 4.66323 0
M  V30 4312 H 399.714 -4.11702 4.4563 0
M  V30 4313 H 398.453 -3.58188 3.30988 0
M  V30 4314 H 397.458 -2.10474 5.07918 0
M  V30 4315 H 398.683 -2.66857 6.24471 0
M  V30 4316 H 396.629 -4.42258 4.84504 0
M  V30 4317 H 396.546 -3.87938 6.48876 0
M  V30 4318 H 397.814 -4.96689 6.00766 0
M  V30 4319 N 402.043 -1.548 -0.295768 0
M  V30 4320 C 403.271 -1.78327 -1.04914 0
M  V30 4321 C 403.686 -0.545316 -1.80753 0
M  V30 4322 O 403.043 0.485013 -1.75937 0
M  V30 4323 C 403.094 -2.99418 -2.02561 0
M  V30 4324 O 402.815 -4.18431 -1.29798 0
M  V30 4325 C 404.316 -3.35375 -2.89895 0
M  V30 4326 H 401.536 -0.594618 -0.310918 0
M  V30 4327 H 404.08 -2.01763 -0.333454 0
M  V30 4328 H 402.235 -2.78175 -2.69624 0
M  V30 4329 H 402.649 -4.86736 -1.95419 0
M  V30 4330 H 404.123 -4.23332 -3.54251 0
M  V30 4331 H 404.6 -2.53761 -3.58472 0
M  V30 4332 H 405.206 -3.58796 -2.28355 0
M  V30 4333 N 403.521 0.559213 -1.47345 0
M  V30 4334 C 404.451 1.67622 -1.62558 0
M  V30 4335 C 405.432 1.63331 -0.475087 0
M  V30 4336 O 406.617 1.80983 -0.704182 0
M  V30 4337 C 403.747 3.0626 -1.63774 0
M  V30 4338 C 402.701 3.25397 -2.7803 0
M  V30 4339 C 402.027 4.64801 -2.64318 0
M  V30 4340 C 403.327 3.10965 -4.19641 0
M  V30 4341 H 405.021 1.55146 -2.56067 0
M  V30 4342 H 402.567 0.744961 -1.23233 0
M  V30 4343 H 404.52 3.84247 -1.73008 0
M  V30 4344 H 403.244 3.1969 -0.66825 0
M  V30 4345 H 401.903 2.49817 -2.68304 0
M  V30 4346 H 401.551 4.75028 -1.65401 0
M  V30 4347 H 401.251 4.78555 -3.40968 0
M  V30 4348 H 402.775 5.44926 -2.75478 0
M  V30 4349 H 404.189 3.78772 -4.30354 0
M  V30 4350 H 402.586 3.36229 -4.97062 0
M  V30 4351 H 403.656 2.07736 -4.38148 0
M  V30 4352 N 404.999 1.35443 0.805782 0
M  V30 4353 C 406.224 1.32037 1.59941 0
M  V30 4354 C 406.649 -0.0994215 1.87837 0
M  V30 4355 O 406.007 -1.06648 1.46615 0
M  V30 4356 C 406.055 2.13354 2.90711 0
M  V30 4357 O 405.159 1.5148 3.83572 0
M  V30 4358 H 404.5 0.452666 0.485787 0
M  V30 4359 H 407.03 1.78496 1.00002 0
M  V30 4360 H 407.04 2.25338 3.40128 0
M  V30 4361 H 405.715 3.16572 2.69732 0
M  V30 4362 H 404.292 1.4834 3.42125 0
M  V30 4363 N 406.477 -1.02803 1.19454 0
M  V30 4364 C 407.723 -1.76478 0.999171 0
M  V30 4365 C 408.056 -1.88456 -0.468828 0
M  V30 4366 O 407.331 -1.40198 -1.34814 0
M  V30 4367 C 407.614 -3.19044 1.66981 0
M  V30 4368 C 407.467 -3.14932 3.21151 0
M  V30 4369 C 408.786 -4.17456 1.39349 0
M  V30 4370 H 405.905 -0.640614 0.364393 0
M  V30 4371 H 408.547 -1.20005 1.47305 0
M  V30 4372 H 406.697 -3.67263 1.2669 0
M  V30 4373 H 408.369 -2.74605 3.70661 0
M  V30 4374 H 406.612 -2.52625 3.52652 0
M  V30 4375 H 407.283 -4.1566 3.63223 0
M  V30 4376 H 409.759 -3.77842 1.74283 0
M  V30 4377 H 408.635 -5.154 1.88823 0
M  V30 4378 H 408.896 -4.40949 0.318813 0
M  V30 4379 N 407.956 -0.998596 -1.21925 0
M  V30 4380 C 409.205 -0.673085 -1.90138 0
M  V30 4381 C 409.518 0.79895 -1.78539 0
M  V30 4382 O 410.724 1.23628 -2.4172 0
M  V30 4383 C 409.18 -1.15339 -3.40918 0
M  V30 4384 C 408.788 -2.65106 -3.61141 0
M  V30 4385 C 410.532 -0.902476 -4.14796 0
M  V30 4386 C 408.439 -3.0671 -5.05651 0
M  V30 4387 H 407.369 -0.248057 -0.712028 0
M  V30 4388 H 410.02 -1.20891 -1.38049 0
M  V30 4389 H 408.402 -0.545658 -3.92223 0
M  V30 4390 H 409.576 -3.31274 -3.20304 0
M  V30 4391 H 407.891 -2.88142 -3.00605 0
M  V30 4392 H 410.488 -1.18895 -5.21314 0
M  V30 4393 H 410.831 0.161349 -4.15987 0
M  V30 4394 H 411.364 -1.47269 -3.69536 0
M  V30 4395 H 408.103 -4.12292 -5.09603 0
M  V30 4396 H 407.623 -2.45249 -5.47369 0
M  V30 4397 H 409.302 -2.9833 -5.74115 0
M  V30 4398 N 409.434 1.37368 -0.772513 0
M  V30 4399 C 410.367 2.27956 -0.105593 0
M  V30 4400 C 411.345 1.46362 0.708295 0
M  V30 4401 O 412.529 1.75695 0.682895 0
M  V30 4402 C 409.656 3.27687 0.856686 0
M  V30 4403 C 408.702 4.26312 0.1267 0
M  V30 4404 S 409.535 5.22206 -1.1858 0
M  V30 4405 C 410.691 6.25488 -0.227081 0
M  V30 4406 H 410.924 2.84171 -0.87372 0
M  V30 4407 H 408.457 1.43654 -0.565939 0
M  V30 4408 H 410.415 3.85653 1.40648 0
M  V30 4409 H 409.076 2.70417 1.59793 0
M  V30 4410 H 408.269 4.96674 0.856212 0
M  V30 4411 H 407.871 3.72339 -0.352117 0
M  V30 4412 H 410.163 6.74836 0.600231 0
M  V30 4413 H 411.106 7.02371 -0.898899 0
M  V30 4414 H 411.514 5.64267 0.162053 0
M  V30 4415 N 410.912 0.523116 1.48665 0
M  V30 4416 C 412.16 -0.0134497 2.02096 0
M  V30 4417 C 412.481 -1.35418 1.40311 0
M  V30 4418 O 411.751 -1.87543 0.566074 0
M  V30 4419 H 410.331 -0.00795915 0.746958 0
M  V30 4420 H 412.993 0.685388 1.82451 0
M  V30 4421 H 412.089 -0.126849 3.11842 0
M  V30 4422 N 412.39 -1.55475 0.257931 0
M  V30 4423 C 413.636 -1.99502 -0.364266 0
M  V30 4424 C 413.969 -1.146 -1.56782 0
M  V30 4425 O 413.244 -0.211968 -1.93342 0
M  V30 4426 C 413.527 -3.51917 -0.763333 0
M  V30 4427 C 413.38 -4.4758 0.446371 0
M  V30 4428 C 414.699 -4.09742 -1.60623 0
M  V30 4429 H 411.818 -0.725277 -0.130929 0
M  V30 4430 H 414.46 -1.8653 0.361446 0
M  V30 4431 H 412.61 -3.63101 -1.38166 0
M  V30 4432 H 414.282 -4.48362 1.08487 0
M  V30 4433 H 412.525 -4.19947 1.08753 0
M  V30 4434 H 413.196 -5.51862 0.123645 0
M  V30 4435 H 415.672 -4.01727 -1.08418 0
M  V30 4436 H 414.548 -5.16631 -1.85429 0
M  V30 4437 H 414.809 -3.58889 -2.58169 0
M  V30 4438 N 413.868 0.0150385 -1.57593 0
M  V30 4439 C 415.115 0.703001 -1.89906 0
M  V30 4440 C 415.443 1.74604 -0.856944 0
M  V30 4441 O 414.698 1.95197 0.140287 0
M  V30 4442 C 414.997 1.39686 -3.28972 0
M  V30 4443 C 414.663 0.488457 -4.48246 0
M  V30 4444 C 413.325 0.2383 -4.8061 0
M  V30 4445 C 415.677 -0.137881 -5.21018 0
M  V30 4446 C 413.005 -0.646738 -5.83125 0
M  V30 4447 C 415.357 -1.0107 -6.24474 0
M  V30 4448 C 414.021 -1.27019 -6.55303 0
M  V30 4449 H 413.291 0.257246 -0.694914 0
M  V30 4450 H 415.938 -0.037259 -1.91464 0
M  V30 4451 H 414.243 2.21079 -3.23468 0
M  V30 4452 H 415.94 1.93495 -3.51227 0
M  V30 4453 H 412.53 0.693593 -4.22951 0
M  V30 4454 H 416.714 0.0423953 -4.96282 0
M  V30 4455 H 411.97 -0.855937 -6.05379 0
M  V30 4456 H 416.144 -1.50247 -6.79999 0
M  V30 4457 H 413.771 -1.95769 -7.3456 0
M  V30 4458 N 415.346 1.54954 0.287554 0
M  V30 4459 C 416.592 1.75132 1.02257 0
M  V30 4460 C 416.925 0.542858 1.86458 0
M  V30 4461 O 416.2 -0.459856 1.88986 0
M  V30 4462 C 416.483 3.04812 1.91733 0
M  V30 4463 C 416.336 4.35985 1.10622 0
M  V30 4464 C 417.655 3.30438 2.90687 0
M  V30 4465 H 414.774 0.637194 0.370341 0
M  V30 4466 H 417.416 1.87678 0.296111 0
M  V30 4467 H 415.566 2.94247 2.53675 0
M  V30 4468 H 417.238 4.58487 0.508636 0
M  V30 4469 H 415.481 4.31865 0.409271 0
M  V30 4470 H 416.152 5.23017 1.76513 0
M  V30 4471 H 418.628 3.40701 2.38877 0
M  V30 4472 H 417.504 4.22467 3.50447 0
M  V30 4473 H 417.765 2.49377 3.65053 0
M  V30 4474 N 416.824 -0.551391 1.4764 0
M  V30 4475 C 418.064 -1.31901 1.56145 0
M  V30 4476 C 418.428 -1.90724 0.221013 0
M  V30 4477 O 419.629 -2.6819 0.180945 0
M  V30 4478 C 417.9 -2.39517 2.65267 0
M  V30 4479 S 419.459 -3.26289 2.93395 0
M  V30 4480 H 416.277 -0.448965 0.551318 0
M  V30 4481 H 418.879 -0.630599 1.85051 0
M  V30 4482 H 417.583 -1.94747 3.6125 0
M  V30 4483 H 417.114 -3.13092 2.38195 0
M  V30 4484 H 419.129 -4.39122 2.31055 0
M  V30 4485 N 418.302 -1.35869 -0.798587 0
M  V30 4486 C 419.542 -1.30961 -1.56935 0
M  V30 4487 C 419.906 0.112404 -1.91671 0
M  V30 4488 O 421.107 0.285937 -2.67275 0
M  V30 4489 C 419.378 -2.19811 -2.81811 0
M  V30 4490 S 420.937 -2.32498 -3.72143 0
M  V30 4491 H 417.755 -0.465297 -0.537606 0
M  V30 4492 H 420.357 -1.71344 -0.941346 0
M  V30 4493 H 419.061 -3.22095 -2.54329 0
M  V30 4494 H 418.592 -1.80415 -3.49591 0
M  V30 4495 H 420.607 -1.5157 -4.72484 0
M  V30 4496 N 419.78 1.02168 -1.19998 0
M  V30 4497 C 421.026 1.7606 -1.01855 0
M  V30 4498 C 421.381 1.87178 0.445222 0
M  V30 4499 O 420.674 1.3828 1.32624 0
M  V30 4500 C 420.868 3.18081 -1.62969 0
M  V30 4501 C 420.697 3.20809 -3.15137 0
M  V30 4502 C 419.467 3.28342 -3.84083 0
M  V30 4503 C 421.665 3.07268 -4.1242 0
M  V30 4504 N 419.647 3.2052 -5.23584 0
M  V30 4505 C 421.018 3.0716 -5.38566 0
M  V30 4506 C 423.073 2.91448 -4.03686 0
M  V30 4507 C 421.776 2.92853 -6.56985 0
M  V30 4508 C 423.802 2.78494 -5.21723 0
M  V30 4509 C 423.164 2.79046 -6.46771 0
M  V30 4510 H 419.263 0.655192 -0.426905 0
M  V30 4511 H 421.847 1.21564 -1.52087 0
M  V30 4512 H 420.018 3.70882 -1.15329 0
M  V30 4513 H 421.75 3.80375 -1.38192 0
M  V30 4514 H 418.505 3.34859 -3.34913 0
M  V30 4515 H 418.929 3.19997 -5.96599 0
M  V30 4516 H 423.571 2.89838 -3.07821 0
M  V30 4517 H 421.289 2.93213 -7.53028 0
M  V30 4518 H 424.875 2.67278 -5.16773 0
M  V30 4519 H 423.755 2.69134 -7.36571 0
M  V30 4520 N 421.258 1.00505 1.21394 0
M  V30 4521 C 422.188 0.585684 2.26035 0
M  V30 4522 C 423.169 -0.393525 1.65485 0
M  V30 4523 O 424.354 -0.281497 1.92149 0
M  V30 4524 C 421.484 -0.0884283 3.47187 0
M  V30 4525 C 420.438 0.810567 4.20254 0
M  V30 4526 C 419.764 0.00286382 5.347 0
M  V30 4527 C 421.064 2.1132 4.77641 0
M  V30 4528 H 422.758 1.46039 2.61368 0
M  V30 4529 H 420.304 0.703648 1.25638 0
M  V30 4530 H 422.257 -0.393286 4.19561 0
M  V30 4531 H 420.981 -0.997766 3.10986 0
M  V30 4532 H 419.64 1.09925 3.49731 0
M  V30 4533 H 419.288 -0.907765 4.94741 0
M  V30 4534 H 418.988 0.601444 5.84514 0
M  V30 4535 H 420.512 -0.295808 6.09883 0
M  V30 4536 H 421.926 1.87148 5.41893 0
M  V30 4537 H 420.323 2.66164 5.37845 0
M  V30 4538 H 421.393 2.78393 3.9702 0
M  V30 4539 N 422.737 -1.36956 0.779787 0
M  V30 4540 C 424.148 -1.82094 0.412156 0
M  V30 4541 C 424.499 -1.64926 -1.06273 0
M  V30 4542 O 423.624 -1.16483 -1.82375 0
M  V30 4543 C 424.219 -3.3059 0.741319 0
M  V30 4544 C 422.778 -3.73974 0.426641 0
M  V30 4545 C 421.925 -2.59368 0.980987 0
M  V30 4546 H 424.876 -1.25314 0.973758 0
M  V30 4547 H 424.897 -3.80489 0.028887 0
M  V30 4548 H 424.409 -3.43054 1.81482 0
M  V30 4549 H 422.51 -3.67076 -0.639215 0
M  V30 4550 H 422.623 -4.69778 0.940515 0
M  V30 4551 H 420.987 -2.51463 0.404757 0
M  V30 4552 H 421.77 -2.74621 2.06005 0
M  V30 4553 N 424.215 -0.530993 -1.48385 0
M  V30 4554 C 425.462 0.0027373 -2.025 0
M  V30 4555 C 425.79 1.34186 -1.40799 0
M  V30 4556 O 425.045 1.88 -0.543544 0
M  V30 4557 C 425.344 0.172742 -3.56982 0
M  V30 4558 C 425.01 -1.09215 -4.37473 0
M  V30 4559 C 423.672 -1.43881 -4.59186 0
M  V30 4560 C 426.024 -1.93153 -4.84088 0
M  V30 4561 C 423.352 -2.62381 -5.2476 0
M  V30 4562 C 425.704 -3.10833 -5.50968 0
M  V30 4563 C 424.368 -3.45843 -5.70919 0
M  V30 4564 H 423.638 0.00100165 -0.740999 0
M  V30 4565 H 426.285 -0.697219 -1.78357 0
M  V30 4566 H 424.59 0.955473 -3.79971 0
M  V30 4567 H 426.287 0.600642 -3.96476 0
M  V30 4568 H 422.877 -0.812177 -4.20834 0
M  V30 4569 H 427.061 -1.67683 -4.67115 0
M  V30 4570 H 422.317 -2.89707 -5.38405 0
M  V30 4571 H 426.491 -3.7618 -5.86056 0
M  V30 4572 H 424.118 -4.37764 -6.21503 0
M  V30 4573 N 425.693 1.55336 -0.266172 0
M  V30 4574 C 426.94 1.99397 0.353158 0
M  V30 4575 C 427.268 1.15451 1.56529 0
M  V30 4576 O 426.523 0.209974 1.9457 0
M  V30 4577 C 426.822 3.48606 0.787957 0
M  V30 4578 C 426.488 4.49773 -0.318541 0
M  V30 4579 C 425.15 4.77158 -0.62239 0
M  V30 4580 C 427.502 5.10212 -1.06459 0
M  V30 4581 C 424.83 5.62251 -1.67602 0
M  V30 4582 C 427.182 5.96449 -2.10788 0
M  V30 4583 C 425.846 6.22158 -2.41817 0
M  V30 4584 H 425.116 0.729644 0.12923 0
M  V30 4585 H 427.763 1.87732 -0.37802 0
M  V30 4586 H 426.068 3.57701 1.59866 0
M  V30 4587 H 427.765 3.80098 1.27775 0
M  V30 4588 H 424.355 4.2854 -0.0715925 0
M  V30 4589 H 428.539 4.89086 -0.843098 0
M  V30 4590 H 423.795 5.80419 -1.92155 0
M  V30 4591 H 427.969 6.42317 -2.69076 0
M  V30 4592 H 425.596 6.87888 -3.23596 0
M  V30 4593 N 427.171 -0.0066808 1.57599 0
M  V30 4594 C 428.42 -0.692078 1.89455 0
M  V30 4595 C 428.733 -1.75306 0.867586 0
M  V30 4596 O 429.939 -2.49262 1.07614 0
M  V30 4597 C 428.395 -1.2821 3.36289 0
M  V30 4598 C 428.003 -0.256291 4.47266 0
M  V30 4599 C 429.747 -1.94608 3.77264 0
M  V30 4600 C 427.654 -0.855927 5.85173 0
M  V30 4601 H 426.584 -0.262252 0.706923 0
M  V30 4602 H 429.235 0.052769 1.83424 0
M  V30 4603 H 427.617 -2.0774 3.37135 0
M  V30 4604 H 428.791 0.513923 4.57925 0
M  V30 4605 H 427.106 0.306862 4.15268 0
M  V30 4606 H 429.703 -2.40364 4.77629 0
M  V30 4607 H 430.046 -2.77382 3.10427 0
M  V30 4608 H 430.579 -1.21822 3.78688 0
M  V30 4609 H 427.318 -0.0671161 6.55466 0
M  V30 4610 H 426.838 -1.59546 5.78191 0
M  V30 4611 H 428.517 -1.35658 6.32618 0
M  V30 4612 N 428.649 -1.55105 -0.279332 0
M  V30 4613 C 429.579 -1.90557 -1.34945 0
M  V30 4614 C 430.56 -0.766738 -1.51839 0
M  V30 4615 O 431.745 -1.02434 -1.64988 0
M  V30 4616 C 428.875 -2.17193 -2.71006 0
M  V30 4617 C 427.829 -3.33021 -2.68851 0
M  V30 4618 C 427.155 -3.45123 -4.08405 0
M  V30 4619 C 428.455 -4.69578 -2.28678 0
M  V30 4620 H 430.149 -2.80188 -1.05522 0
M  V30 4621 H 427.695 -1.34811 -0.506173 0
M  V30 4622 H 429.648 -2.40581 -3.45975 0
M  V30 4623 H 428.372 -1.24355 -3.01999 0
M  V30 4624 H 427.031 -3.0959 -1.9634 0
M  V30 4625 H 426.679 -2.49762 -4.3661 0
M  V30 4626 H 426.379 -4.22995 -4.07859 0
M  V30 4627 H 427.903 -3.70796 -4.85121 0
M  V30 4628 H 429.317 -4.92553 -2.93368 0
M  V30 4629 H 427.714 -5.5032 -2.39306 0
M  V30 4630 H 428.784 -4.68828 -1.23807 0
M  V30 4631 N 430.127 0.543554 -1.4793 0
M  V30 4632 C 431.075 1.67039 -1.61866 0
M  V30 4633 C 432.069 1.62294 -0.48549 0
M  V30 4634 O 433.275 1.67315 -0.66376 0
M  V30 4635 H 429.65 0.552954 -0.509652 0
M  V30 4636 H 431.621 1.52426 -2.56533 0
M  V30 4637 C 430.37 3.05357 -1.6629 0
M  V30 4638 H 429.693 3.09696 -2.5284 0
M  V30 4639 H 431.133 3.83855 -1.80088 0
M  V30 4640 C 429.592 3.34531 -0.398861 0
M  V30 4641 O 430.122 3.98649 0.494162 0
M  V30 4642 N 428.328 2.89299 -0.2747 0
M  V30 4643 H 427.875 2.37298 -1.00236 0
M  V30 4644 H 427.833 3.09188 0.570075 0
M  V30 4645 N 431.605 1.3629 0.791371 0
M  V30 4646 C 432.845 1.31792 1.56238 0
M  V30 4647 C 433.209 -0.102237 1.91728 0
M  V30 4648 O 434.41 -0.271759 2.67423 0
M  V30 4649 C 432.681 2.21303 2.80642 0
M  V30 4650 S 434.24 2.34468 3.70904 0
M  V30 4651 H 431.058 0.468141 0.535131 0
M  V30 4652 H 433.66 1.71841 0.932246 0
M  V30 4653 H 432.364 3.23439 2.52617 0
M  V30 4654 H 431.895 1.82266 3.4863 0
M  V30 4655 H 433.91 1.54074 4.71673 0
M  V30 4656 N 433.083 -1.0153 1.20538 0
M  V30 4657 C 434.332 -1.74558 1.01057 0
M  V30 4658 C 434.645 -1.90168 -0.457756 0
M  V30 4659 O 435.851 -2.60301 -0.771722 0
M  V30 4660 C 434.307 -3.13963 1.75941 0
M  V30 4661 C 433.915 -3.06361 3.26875 0
M  V30 4662 C 435.659 -3.91191 1.64832 0
M  V30 4663 C 433.566 -4.40782 3.94291 0
M  V30 4664 H 432.496 -0.654417 0.374505 0
M  V30 4665 H 435.147 -1.13521 1.44171 0
M  V30 4666 H 433.529 -3.75549 1.25614 0
M  V30 4667 H 434.703 -2.54074 3.84425 0
M  V30 4668 H 433.018 -2.42625 3.38411 0
M  V30 4669 H 435.615 -4.90644 2.12539 0
M  V30 4670 H 435.958 -4.11884 0.604745 0
M  V30 4671 H 436.491 -3.36236 2.12579 0
M  V30 4672 H 433.23 -4.25292 4.98805 0
M  V30 4673 H 432.75 -4.9307 3.41529 0
M  V30 4674 H 434.429 -5.09621 3.98617 0
M  V30 4675 N 434.561 -1.01147 -1.20859 0
M  V30 4676 C 435.491 -0.597663 -2.25722 0
M  V30 4677 C 436.472 0.384744 -1.65692 0
M  V30 4678 O 437.657 0.271303 -1.92296 0
M  V30 4679 C 434.787 0.0700149 -3.47229 0
M  V30 4680 C 433.741 -0.832843 -4.19819 0
M  V30 4681 C 433.067 -0.0312202 -5.34691 0
M  V30 4682 C 434.367 -2.1385 -4.76514 0
M  V30 4683 H 436.061 -1.47423 -2.60589 0
M  V30 4684 H 433.607 -0.710301 -1.25263 0
M  V30 4685 H 435.56 0.37103 -4.19763 0
M  V30 4686 H 434.284 0.981259 -3.11511 0
M  V30 4687 H 432.943 -1.11778 -3.49144 0
M  V30 4688 H 432.591 0.881515 -4.95215 0
M  V30 4689 H 432.291 -0.632434 -5.84187 0
M  V30 4690 H 433.815 0.26346 -6.10031 0
M  V30 4691 H 435.229 -1.9002 -5.40893 0
M  V30 4692 H 433.626 -2.69012 -5.36426 0
M  V30 4693 H 434.696 -2.80495 -3.95538 0
M  V30 4694 N 436.039 1.36541 -0.78704 0
M  V30 4695 C 437.45 1.81873 -0.421807 0
M  V30 4696 C 437.801 1.65487 1.05397 0
M  V30 4697 O 436.926 1.17448 1.81755 0
M  V30 4698 C 437.521 3.30192 -0.758841 0
M  V30 4699 C 436.08 3.73743 -0.446468 0
M  V30 4700 C 435.227 2.58844 -0.994728 0
M  V30 4701 H 438.178 1.24796 -0.98039 0
M  V30 4702 H 438.199 3.80468 -0.0490648 0
M  V30 4703 H 437.711 3.42087 -1.83299 0
M  V30 4704 H 435.812 3.6741 0.619739 0
M  V30 4705 H 435.925 4.69272 -0.965415 0
M  V30 4706 H 434.289 2.51245 -0.418087 0
M  V30 4707 H 435.072 2.73525 -2.07458 0
M  V30 4708 N 437.518 0.538854 1.48102 0
M  V30 4709 C 438.765 0.0080018 2.02498 0
M  V30 4710 C 439.093 -1.33437 1.41509 0
M  V30 4711 O 438.348 -1.87709 0.553507 0
M  V30 4712 C 438.647 -0.153808 3.57069 0
M  V30 4713 C 438.313 1.11533 4.36888 0
M  V30 4714 C 436.975 1.46314 4.58417 0
M  V30 4715 C 439.327 1.95718 4.83057 0
M  V30 4716 C 436.655 2.6516 5.23361 0
M  V30 4717 C 439.007 3.13751 5.49312 0
M  V30 4718 C 437.671 3.48866 5.69077 0
M  V30 4719 H 436.941 0.00292807 0.740994 0
M  V30 4720 H 439.588 0.706668 1.77984 0
M  V30 4721 H 437.893 -0.935309 3.80472 0
M  V30 4722 H 439.59 -0.579607 3.96789 0
M  V30 4723 H 436.18 0.834484 4.20398 0
M  V30 4724 H 440.364 1.70158 4.66219 0
M  V30 4725 H 435.62 2.92558 5.36861 0
M  V30 4726 H 439.794 3.79282 5.84053 0
M  V30 4727 H 437.421 4.41054 6.19173 0
M  V30 4728 N 438.996 -1.55193 0.274407 0
M  V30 4729 C 440.236 -2.01488 -0.343778 0
M  V30 4730 C 440.6 -1.1586 -1.53103 0
M  V30 4731 O 441.801 -1.51732 -2.2188 0
M  V30 4732 C 440.072 -3.50134 -0.717021 0
M  V30 4733 S 441.631 -4.18417 -1.32184 0
M  V30 4734 H 438.449 -0.70291 -0.106948 0
M  V30 4735 H 441.051 -1.91446 0.396075 0
M  V30 4736 H 439.755 -4.10104 0.155947 0
M  V30 4737 H 439.286 -3.64159 -1.48835 0
M  V30 4738 H 441.301 -4.21984 -2.61044 0
M  V30 4739 N 440.474 -0.00167713 -1.576 0
M  V30 4740 C 441.722 0.681471 -1.90264 0
M  V30 4741 C 442.043 1.7422 -0.875924 0
M  V30 4742 O 441.313 1.95709 0.0864412 0
M  V30 4743 H 439.893 0.254696 -0.702239 0
M  V30 4744 H 442.555 -0.0429996 -1.94853 0
M  V30 4745 H 441.651 1.15166 -2.90075 0
M  V30 4746 N 441.952 1.55251 0.271103 0
M  V30 4747 C 443.177 1.80306 1.02491 0
M  V30 4748 C 443.602 0.575457 1.79081 0
M  V30 4749 O 442.96 -0.474987 1.74967 0
M  V30 4750 C 443.008 3.02832 1.95768 0
M  V30 4751 O 442.112 2.78051 3.04568 0
M  V30 4752 H 441.453 0.595896 0.292923 0
M  V30 4753 H 443.983 2.02397 0.299436 0
M  V30 4754 H 443.993 3.31616 2.37686 0
M  V30 4755 H 442.668 3.9183 1.39434 0
M  V30 4756 H 441.245 2.60369 2.66951 0
M  V30 4757 N 443.43 -0.535701 1.48216 0
M  V30 4758 C 444.678 -1.28928 1.55634 0
M  V30 4759 C 444.999 -1.93645 0.229514 0
M  V30 4760 O 444.269 -1.81038 -0.74846 0
M  V30 4761 H 442.849 -0.47884 0.573342 0
M  V30 4762 H 445.511 -0.623853 1.84646 0
M  V30 4763 H 444.607 -2.07157 2.33436 0
M  V30 4764 N 444.908 -1.36708 -0.784132 0
M  V30 4765 C 445.818 -1.3363 -1.92822 0
M  V30 4766 C 446.834 -0.237686 -1.72369 0
M  V30 4767 O 448.01 -0.470962 -1.95816 0
M  V30 4768 C 445.075 -1.13011 -3.27764 0
M  V30 4769 C 444.136 -2.32397 -3.60957 0
M  V30 4770 C 443.369 -2.12752 -4.89461 0
M  V30 4771 O 443.592 -1.10541 -5.59586 0
M  V30 4772 O 442.526 -3.00653 -5.21432 0
M  V30 4773 H 446.352 -2.29964 -1.98369 0
M  V30 4774 H 443.937 -1.1731 -0.925136 0
M  V30 4775 H 445.819 -1.03451 -4.08504 0
M  V30 4776 H 444.494 -0.19743 -3.23097 0
M  V30 4777 H 443.401 -2.47527 -2.80502 0
M  V30 4778 H 444.734 -3.2419 -3.70354 0
M  V30 4779 N 446.386 1.0089 -1.21074 0
M  V30 4780 C 447.614 1.78191 -1.05145 0
M  V30 4781 C 448.029 1.84537 0.398952 0
M  V30 4782 O 447.386 1.30393 1.27687 0
M  V30 4783 C 447.437 3.22288 -1.63746 0
M  V30 4784 O 447.158 3.16315 -3.03111 0
M  V30 4785 C 448.659 4.16106 -1.52875 0
M  V30 4786 H 445.879 0.560129 -0.369454 0
M  V30 4787 H 448.423 1.26945 -1.60328 0
M  V30 4788 H 446.578 3.70655 -1.12664 0
M  V30 4789 H 446.992 4.06817 -3.31059 0
M  V30 4790 H 448.466 5.15026 -1.98626 0
M  V30 4791 H 448.943 4.36541 -0.482521 0
M  V30 4792 H 449.549 3.73625 -2.03185 0
M  V30 4793 N 447.864 1.01787 1.20321 0
M  V30 4794 C 448.796 0.547357 2.22568 0
M  V30 4795 C 449.809 -0.370922 1.58518 0
M  V30 4796 O 450.998 -0.169067 1.77698 0
M  V30 4797 C 448.098 -0.223031 3.38165 0
M  V30 4798 C 447.271 0.697472 4.31803 0
M  V30 4799 C 446.33 -0.025562 5.26194 0
M  V30 4800 O 445.356 0.597367 5.66057 0
M  V30 4801 N 446.558 -1.29999 5.65757 0
M  V30 4802 H 449.323 1.42668 2.63564 0
M  V30 4803 H 446.884 0.895552 1.34876 0
M  V30 4804 H 448.876 -0.716002 3.98316 0
M  V30 4805 H 447.446 -1.00366 2.9605 0
M  V30 4806 H 446.666 1.37073 3.69601 0
M  V30 4807 H 447.954 1.32347 4.91286 0
M  V30 4808 H 447.352 -1.827 5.35385 0
M  V30 4809 H 445.909 -1.73766 6.28211 0
M  V30 4810 N 449.342 -1.36122 0.79427 0
M  V30 4811 C 450.753 -1.81646 0.431446 0
M  V30 4812 C 451.104 -1.66043 -1.04518 0
M  V30 4813 O 450.229 -1.1841 -1.8113 0
M  V30 4814 C 450.824 -3.29785 0.776341 0
M  V30 4815 C 449.383 -3.73501 0.466282 0
M  V30 4816 C 448.53 -2.58313 1.00844 0
M  V30 4817 H 451.481 -1.24274 0.986995 0
M  V30 4818 H 451.502 -3.80437 0.0692413 0
M  V30 4819 H 451.014 -3.4111 1.8511 0
M  V30 4820 H 449.115 -3.67733 -0.600245 0
M  V30 4821 H 449.228 -4.68754 0.990288 0
M  V30 4822 H 447.592 -2.5102 0.431406 0
M  V30 4823 H 448.375 -2.72421 2.08906 0
M  V30 4824 N 450.82 -0.546701 -1.47814 0
M  V30 4825 C 452.067 -0.0187407 -2.02491 0
M  V30 4826 C 452.395 1.32685 -1.42215 0
M  V30 4827 O 451.65 1.87413 -0.563454 0
M  V30 4828 C 451.949 0.134869 -3.57145 0
M  V30 4829 C 451.615 -1.13849 -4.3629 0
M  V30 4830 C 450.277 -1.48743 -4.57634 0
M  V30 4831 C 452.629 -1.98277 -4.82012 0
M  V30 4832 C 449.957 -2.67932 -5.21948 0
M  V30 4833 C 452.309 -3.16659 -5.4764 0
M  V30 4834 C 450.973 -3.51879 -5.67219 0
M  V30 4835 H 450.243 -0.0068577 -0.740968 0
M  V30 4836 H 452.89 -0.716097 -1.77607 0
M  V30 4837 H 451.195 0.915118 -3.80963 0
M  V30 4838 H 452.892 0.558556 -3.97091 0
M  V30 4839 H 449.482 -0.856767 -4.19949 0
M  V30 4840 H 453.666 -1.72628 -4.6531 0
M  V30 4841 H 448.922 -2.95401 -5.35302 0
M  V30 4842 H 453.096 -3.82374 -5.82033 0
M  V30 4843 H 450.723 -4.44331 -6.16825 0
M  V30 4844 N 452.299 1.55045 -0.282633 0
M  V30 4845 C 453.539 2.01668 0.333088 0
M  V30 4846 C 453.903 1.1667 1.52486 0
M  V30 4847 O 455.104 1.52907 2.21072 0
M  V30 4848 C 453.375 3.50509 0.698442 0
M  V30 4849 S 454.934 4.19112 1.29963 0
M  V30 4850 H 451.752 0.703468 0.103219 0
M  V30 4851 H 454.354 1.91233 -0.406222 0
M  V30 4852 H 453.058 4.10015 -0.177693 0
M  V30 4853 H 452.589 3.64943 1.46902 0
M  V30 4854 H 454.604 4.23362 2.58803 0
M  V30 4855 N 453.777 0.010035 1.57597 0
M  V30 4856 C 455.026 -0.671945 1.90178 0
M  V30 4857 C 455.339 -1.74376 0.886131 0
M  V30 4858 O 456.545 -2.48107 1.10252 0
M  V30 4859 C 455.001 -1.24636 3.3763 0
M  V30 4860 C 454.609 -0.208838 4.47513 0
M  V30 4861 C 456.353 -1.90595 3.79307 0
M  V30 4862 C 454.26 -0.793814 5.86048 0
M  V30 4863 H 453.19 -0.25474 0.709665 0
M  V30 4864 H 455.841 0.0722206 1.83358 0
M  V30 4865 H 454.223 -2.04152 3.3932 0
M  V30 4866 H 455.397 0.562463 4.57354 0
M  V30 4867 H 453.712 0.350889 4.14919 0
M  V30 4868 H 456.309 -2.35284 4.80151 0
M  V30 4869 H 456.652 -2.74074 3.13352 0
M  V30 4870 H 457.185 -1.17798 3.79958 0
M  V30 4871 H 453.924 0.00240855 6.555 0
M  V30 4872 H 453.444 -1.53404 5.79851 0
M  V30 4873 H 455.123 -1.2894 6.34022 0
M  V30 4874 N 455.255 -1.55392 -0.262866 0
M  V30 4875 C 456.532 -1.67204 -1.01499 0
M  V30 4876 C 456.912 -0.545186 -2.03939 0
M  V30 4877 O 456.26 0.453467 -2.23955 0
M  V30 4878 C 456.47 -3.06847 -1.6627 0
M  V30 4879 C 457.818 -3.64928 -2.17054 0
M  V30 4880 O 458.842 -3.09545 -1.76239 0
M  V30 4881 O 457.701 -4.61984 -2.91947 0
M  V30 4882 H 454.795 -0.679467 -0.471438 0
M  V30 4883 H 457.341 -1.67729 -0.257918 0
M  V30 4884 H 456.113 -3.80309 -0.920915 0
M  V30 4885 H 455.736 -3.10266 -2.48638 0
M  V30 4886 N 456.733 0.527833 -1.48498 0
M  V30 4887 C 457.958 1.313 -1.60546 0
M  V30 4888 C 458.383 1.86199 -0.26672 0
M  V30 4889 O 457.741 1.64513 0.761918 0
M  V30 4890 C 457.789 2.43818 -2.65678 0
M  V30 4891 O 456.893 3.46916 -2.22987 0
M  V30 4892 H 456.234 0.388784 -0.538277 0
M  V30 4893 H 458.764 0.634896 -1.945 0
M  V30 4894 H 458.774 2.89973 -2.87018 0
M  V30 4895 H 457.449 2.03222 -3.62869 0
M  V30 4896 H 456.026 3.06864 -2.11869 0
M  V30 4897 N 458.211 1.37122 0.776871 0
M  V30 4898 C 459.159 1.32549 1.91138 0
M  V30 4899 C 460.153 0.215119 1.68029 0
M  V30 4900 O 461.359 0.382852 1.75881 0
M  V30 4901 H 457.734 0.412952 0.62847 0
M  V30 4902 H 459.705 2.28332 1.92112 0
M  V30 4903 C 458.454 1.14422 3.28333 0
M  V30 4904 H 457.777 1.99115 3.46689 0
M  V30 4905 H 459.217 1.15272 4.0803 0
M  V30 4906 C 457.676 -0.150434 3.36564 0
M  V30 4907 O 458.206 -1.13584 3.85307 0
M  V30 4908 N 456.412 -0.19939 2.89915 0
M  V30 4909 H 455.959 0.603142 2.5044 0
M  V30 4910 H 455.917 -1.06526 2.95803 0
M  V30 4911 N 459.689 -1.00246 1.21608 0
M  V30 4912 C 460.917 -1.77631 1.06089 0
M  V30 4913 C 461.332 -1.84746 -0.38916 0
M  V30 4914 O 460.689 -1.31068 -1.26994 0
M  V30 4915 C 460.74 -3.21415 1.65453 0
M  V30 4916 O 460.461 -3.14703 3.04785 0
M  V30 4917 C 461.962 -4.15289 1.55079 0
M  V30 4918 H 459.182 -0.558162 0.37242 0
M  V30 4919 H 461.726 -1.26093 1.60999 0
M  V30 4920 H 459.881 -3.70053 1.14629 0
M  V30 4921 H 460.295 -4.05056 3.33212 0
M  V30 4922 H 461.769 -5.13965 2.01355 0
M  V30 4923 H 462.246 -4.36279 0.505665 0
M  V30 4924 H 462.852 -3.72543 2.05163 0
M  V30 4925 N 461.167 -1.02423 -1.1978 0
M  V30 4926 C 462.414 -0.717988 -1.89344 0
M  V30 4927 C 462.742 0.753036 -1.79331 0
M  V30 4928 O 461.997 1.56355 -1.17692 0
M  V30 4929 C 462.296 -1.1088 -3.39765 0
M  V30 4930 C 461.962 -2.57731 -3.6998 0
M  V30 4931 C 460.624 -2.97854 -3.77937 0
M  V30 4932 C 462.976 -3.52763 -3.83677 0
M  V30 4933 C 460.304 -4.31931 -3.97054 0
M  V30 4934 C 462.656 -4.86538 -4.04306 0
M  V30 4935 C 461.32 -5.26356 -4.10494 0
M  V30 4936 H 460.59 -0.26273 -0.692859 0
M  V30 4937 H 463.237 -1.28623 -1.41875 0
M  V30 4938 H 461.542 -0.459094 -3.89101 0
M  V30 4939 H 463.239 -0.849432 -3.919 0
M  V30 4940 H 459.829 -2.25646 -3.64393 0
M  V30 4941 H 464.013 -3.2292 -3.76877 0
M  V30 4942 H 459.269 -4.62324 -4.00083 0
M  V30 4943 H 463.443 -5.60093 -4.13846 0
M  V30 4944 H 461.07 -6.3026 -4.2506 0
M  V30 4945 N 462.645 1.35699 -0.801477 0
M  V30 4946 C 463.922 1.9324 -0.302937 0
M  V30 4947 C 464.302 1.73209 1.20672 0
M  V30 4948 O 463.65 1.09809 2.00385 0
M  V30 4949 C 463.86 3.41728 -0.708747 0
M  V30 4950 C 465.208 4.18868 -0.695328 0
M  V30 4951 O 466.232 3.5022 -0.649971 0
M  V30 4952 O 465.091 5.41342 -0.749081 0
M  V30 4953 H 462.185 0.82331 -0.0780367 0
M  V30 4954 H 464.731 1.44806 -0.884832 0
M  V30 4955 H 463.503 3.50015 -1.74944 0
M  V30 4956 H 463.126 3.97471 -0.101384 0
M  V30 4957 N 464.123 0.554532 1.47522 0
M  V30 4958 C 465.369 0.0295227 2.02779 0
M  V30 4959 C 465.702 -1.31582 1.42828 0
M  V30 4960 O 464.977 -1.85561 0.582872 0
M  V30 4961 C 465.26 -0.0664057 3.60039 0
M  V30 4962 C 465.113 1.30585 4.30427 0
M  V30 4963 C 466.432 -0.781162 4.33112 0
M  V30 4964 H 463.551 0.0122027 0.736899 0
M  V30 4965 H 466.193 0.716305 1.7598 0
M  V30 4966 H 464.343 -0.651307 3.83002 0
M  V30 4967 H 466.015 1.93374 4.18813 0
M  V30 4968 H 464.258 1.88125 3.90886 0
M  V30 4969 H 464.929 1.19147 5.38988 0
M  V30 4970 H 467.405 -0.284565 4.15126 0
M  V30 4971 H 466.281 -0.817237 5.42782 0
M  V30 4972 H 466.542 -1.83672 4.0214 0
M  V30 4973 N 465.601 -1.54893 0.290851 0
M  V30 4974 C 466.848 -1.99933 -0.321391 0
M  V30 4975 C 467.176 -1.17927 -1.54672 0
M  V30 4976 O 466.431 -0.240902 -1.94212 0
M  V30 4977 C 466.73 -3.49815 -0.732397 0
M  V30 4978 C 466.396 -4.4921 0.390056 0
M  V30 4979 C 465.058 -4.76107 0.698223 0
M  V30 4980 C 467.41 -5.08453 1.14562 0
M  V30 4981 C 464.738 -5.59514 1.76526 0
M  V30 4982 C 467.09 -5.9302 2.2025 0
M  V30 4983 C 465.754 -6.18232 2.51684 0
M  V30 4984 H 465.024 -0.731608 -0.117605 0
M  V30 4985 H 467.671 -1.87107 0.407839 0
M  V30 4986 H 465.976 -3.60199 -1.54155 0
M  V30 4987 H 467.673 -3.82083 -1.21712 0
M  V30 4988 H 464.263 -4.28372 0.13976 0
M  V30 4989 H 468.447 -4.87683 0.920801 0
M  V30 4990 H 463.703 -5.77289 2.01364 0
M  V30 4991 H 467.877 -6.37955 2.7926 0
M  V30 4992 H 465.504 -6.82653 3.34499 0
M  V30 4993 N 467.08 -0.0183926 -1.57589 0
M  V30 4994 C 468.326 0.663543 -1.91638 0
M  V30 4995 C 468.659 1.72392 -0.894134 0
M  V30 4996 O 467.934 1.94316 0.0846449 0
M  V30 4997 C 468.217 1.28984 -3.36207 0
M  V30 4998 C 468.07 0.239761 -4.49161 0
M  V30 4999 C 469.389 2.2109 -3.80536 0
M  V30 5000 H 466.508 0.239746 -0.696915 0
M  V30 5001 H 469.15 -0.073456 -1.89858 0
M  V30 5002 H 467.3 1.91799 -3.37854 0
M  V30 5003 H 468.972 -0.390119 -4.59647 0
M  V30 5004 H 467.215 -0.435972 -4.31604 0
M  V30 5005 H 467.886 0.717383 -5.47319 0
M  V30 5006 H 470.362 1.68273 -3.80557 0
M  V30 5007 H 469.238 2.61869 -4.82406 0
M  V30 5008 H 469.499 3.09764 -3.15434 0
M  V30 5009 N 468.558 1.5553 0.254621 0
M  V30 5010 C 469.804 1.7818 0.980989 0
M  V30 5011 C 470.159 0.586059 1.83257 0
M  V30 5012 O 469.452 -0.420889 1.8692 0
M  V30 5013 C 469.646 3.03891 1.88109 0
M  V30 5014 C 469.475 4.35578 1.11812 0
M  V30 5015 C 468.245 4.98497 0.826343 0
M  V30 5016 C 470.443 5.11869 0.499486 0
M  V30 5017 N 468.425 6.13888 0.0385095 0
M  V30 5018 C 469.796 6.1981 -0.153292 0
M  V30 5019 C 471.851 4.96216 0.409175 0
M  V30 5020 C 470.554 7.13801 -0.8877 0
M  V30 5021 C 472.58 5.90578 -0.311683 0
M  V30 5022 C 471.942 6.97922 -0.953129 0
M  V30 5023 H 468.041 0.704057 0.340335 0
M  V30 5024 H 470.625 1.93025 0.254855 0
M  V30 5025 H 468.796 2.90389 2.57932 0
M  V30 5026 H 470.528 3.14869 2.54244 0
M  V30 5027 H 467.283 4.59769 1.13621 0
M  V30 5028 H 467.707 6.76129 -0.343275 0
M  V30 5029 H 472.349 4.1331 0.890765 0
M  V30 5030 H 470.067 7.96214 -1.38092 0
M  V30 5031 H 473.653 5.80544 -0.382125 0
M  V30 5032 H 472.533 7.69681 -1.50203 0
M  V30 5033 N 470.036 -0.519951 1.48776 0
M  V30 5034 C 471.283 -1.27522 1.57303 0
M  V30 5035 C 471.611 -1.92869 0.251328 0
M  V30 5036 O 470.866 -1.80372 -0.759243 0
M  V30 5037 C 471.165 -2.37864 2.6675 0
M  V30 5038 C 470.831 -1.90103 4.08867 0
M  V30 5039 C 469.493 -1.76795 4.47546 0
M  V30 5040 C 471.845 -1.54133 4.97888 0
M  V30 5041 C 469.173 -1.25868 5.73039 0
M  V30 5042 C 471.525 -1.04665 6.23881 0
M  V30 5043 C 470.189 -0.899823 6.61407 0
M  V30 5044 H 469.459 -0.466636 0.575614 0
M  V30 5045 H 472.106 -0.579109 1.82534 0
M  V30 5046 H 470.411 -3.13186 2.35418 0
M  V30 5047 H 472.108 -2.95969 2.70561 0
M  V30 5048 H 468.698 -2.01414 3.78326 0
M  V30 5049 H 472.882 -1.6327 4.68675 0
M  V30 5050 H 468.138 -1.13196 6.0083 0
M  V30 5051 H 472.312 -0.759074 6.92251 0
M  V30 5052 H 469.939 -0.503011 7.58534 0
M  V30 5053 N 471.514 -1.37532 -0.769588 0
M  V30 5054 C 472.762 -1.32597 -1.5252 0
M  V30 5055 C 473.083 0.0884294 -1.94799 0
M  V30 5056 O 472.353 1.03289 -1.66458 0
M  V30 5057 H 470.933 -0.487846 -0.565699 0
M  V30 5058 H 473.595 -1.72044 -0.915806 0
M  V30 5059 H 472.691 -1.96643 -2.42359 0
M  V30 5060 N 472.992 0.995999 -1.22138 0
M  V30 5061 C 474.238 1.7386 -1.05567 0
M  V30 5062 C 474.593 1.8808 0.405418 0
M  V30 5063 O 473.886 1.41062 1.29661 0
M  V30 5064 C 474.08 3.14553 -1.6968 0
M  V30 5065 C 473.909 3.14053 -3.21871 0
M  V30 5066 C 472.679 3.20121 -3.90961 0
M  V30 5067 C 474.877 2.98451 -4.18845 0
M  V30 5068 N 472.859 3.09342 -5.30265 0
M  V30 5069 C 474.23 2.95667 -5.4496 0
M  V30 5070 C 476.285 2.8282 -4.09777 0
M  V30 5071 C 474.988 2.78852 -6.63049 0
M  V30 5072 C 477.014 2.67364 -5.27513 0
M  V30 5073 C 476.376 2.65264 -6.52544 0
M  V30 5074 H 472.475 0.645989 -0.440706 0
M  V30 5075 H 475.059 1.1831 -1.54631 0
M  V30 5076 H 473.23 3.68353 -1.2317 0
M  V30 5077 H 474.962 3.77358 -1.4623 0
M  V30 5078 H 471.717 3.27679 -3.4194 0
M  V30 5079 H 472.141 3.0727 -6.03253 0
M  V30 5080 H 476.783 2.83243 -3.139 0
M  V30 5081 H 474.501 2.77175 -7.59078 0
M  V30 5082 H 478.087 2.56256 -5.22326 0
M  V30 5083 H 476.967 2.5345 -7.42114 0
M  V30 5084 N 474.47 1.03057 1.19235 0
M  V30 5085 C 475.433 0.617418 2.20727 0
M  V30 5086 C 476.433 -0.319856 1.57587 0
M  V30 5087 O 477.623 -0.106633 1.73873 0
M  V30 5088 C 474.755 -0.096296 3.40764 0
M  V30 5089 H 475.948 1.51544 2.58794 0
M  V30 5090 H 473.501 0.821949 1.32942 0
M  V30 5091 H 474.236 -1.00859 3.08217 0
M  V30 5092 H 474.021 0.577217 3.87828 0
M  V30 5093 H 475.511 -0.372219 4.15938 0
M  V30 5094 N 475.948 -1.35272 0.808662 0
M  V30 5095 C 476.896 -2.31663 0.208606 0
M  V30 5096 C 477.89 -1.56731 -0.642778 0
M  V30 5097 O 479.096 -1.71843 -0.53571 0
M  V30 5098 H 475.471 -0.750421 0.0486993 0
M  V30 5099 H 477.442 -2.79814 1.03666 0
M  V30 5100 C 476.191 -3.42008 -0.626573 0
M  V30 5101 H 475.514 -3.99795 0.0192103 0
M  V30 5102 H 476.954 -4.11727 -1.01278 0
M  V30 5103 C 475.413 -2.85226 -1.79298 0
M  V30 5104 O 475.943 -2.78945 -2.89055 0
M  V30 5105 N 474.149 -2.42245 -1.60516 0
M  V30 5106 H 473.696 -2.47554 -0.712375 0
M  V30 5107 H 473.654 -2.04603 -2.38715 0
M  V30 5108 N 477.426 -0.562348 -1.47226 0
M  V30 5109 C 478.651 -0.0432632 -2.07355 0
M  V30 5110 C 479.076 1.24332 -1.41149 0
M  V30 5111 O 478.434 1.74603 -0.488226 0
M  V30 5112 C 478.482 0.130288 -3.60365 0
M  V30 5113 O 477.586 1.19166 -3.94808 0
M  V30 5114 H 476.927 -0.0536334 -0.66183 0
M  V30 5115 H 479.457 -0.779495 -1.89169 0
M  V30 5116 H 479.467 0.342881 -4.06557 0
M  V30 5117 H 478.142 -0.809389 -4.07948 0
M  V30 5118 H 476.719 0.959153 -3.60354 0
M  V30 5119 N 478.904 1.54736 -0.299062 0
M  V30 5120 C 480.129 2.04975 0.316254 0
M  V30 5121 C 480.554 1.17501 1.46885 0
M  V30 5122 O 479.912 0.178678 1.80417 0
M  V30 5123 C 479.96 3.52672 0.751997 0
M  V30 5124 O 479.064 3.68226 1.85697 0
M  V30 5125 H 478.405 0.661126 0.0617175 0
M  V30 5126 H 480.935 1.99805 -0.440341 0
M  V30 5127 H 480.945 3.94488 1.04133 0
M  V30 5128 H 479.62 4.158 -0.0911482 0
M  V30 5129 H 478.197 3.38316 1.56834 0
M  V30 5130 N 480.382 0.0267497 1.57577 0
M  V30 5131 C 481.312 -0.954308 2.13108 0
M  V30 5132 C 482.293 -1.34088 1.04663 0
M  V30 5133 O 483.478 -1.41992 1.32484 0
M  V30 5134 C 480.608 -2.23744 2.65624 0
M  V30 5135 C 479.562 -1.99168 3.78835 0
M  V30 5136 C 478.888 -3.33726 4.17769 0
M  V30 5137 C 480.188 -1.33277 5.0501 0
M  V30 5138 H 481.882 -0.491848 2.95332 0
M  V30 5139 H 479.428 -0.23514 1.42067 0
M  V30 5140 H 481.381 -2.92754 3.03106 0
M  V30 5141 H 480.105 -2.72151 1.80558 0
M  V30 5142 H 478.764 -1.32577 3.41788 0
M  V30 5143 H 478.412 -3.79888 3.29688 0
M  V30 5144 H 478.112 -3.18089 4.94058 0
M  V30 5145 H 479.636 -4.04008 4.57832 0
M  V30 5146 H 481.05 -1.92283 5.40093 0
M  V30 5147 H 479.447 -1.28045 5.8628 0
M  V30 5148 H 480.517 -0.305411 4.83937 0
M  V30 5149 N 481.861 -1.55662 -0.24637 0
M  V30 5150 C 482.809 -1.91186 -1.3248 0
M  V30 5151 C 483.803 -0.790996 -1.49799 0
M  V30 5152 O 485.009 -0.975617 -1.51267 0
M  V30 5153 H 481.384 -0.607207 -0.443626 0
M  V30 5154 H 483.355 -2.81221 -0.997853 0
M  V30 5155 C 482.104 -2.22349 -2.67313 0
M  V30 5156 H 481.427 -3.08097 -2.54786 0
M  V30 5157 H 482.867 -2.51107 -3.41645 0
M  V30 5158 C 481.326 -1.04001 -3.20446 0
M  V30 5159 O 481.856 -0.28828 -4.00664 0
M  V30 5160 N 480.062 -0.830494 -2.7848 0
M  V30 5161 H 479.609 -1.4435 -2.13356 0
M  V30 5162 H 479.567 -0.0403258 -3.14374 0
M  V30 5163 N 483.339 0.512053 -1.4905 0
M  V30 5164 C 484.75 1.09376 -1.51307 0
M  V30 5165 C 485.101 1.94 -0.292971 0
M  V30 5166 O 484.226 2.07965 0.598277 0
M  V30 5167 C 484.821 1.99031 -2.74176 0
M  V30 5168 C 483.38 2.52385 -2.79247 0
M  V30 5169 C 482.527 1.29749 -2.45073 0
M  V30 5170 H 485.478 0.296467 -1.55906 0
M  V30 5171 H 485.499 2.83569 -2.53711 0
M  V30 5172 H 485.011 1.37412 -3.62959 0
M  V30 5173 H 483.112 3.17673 -1.94716 0
M  V30 5174 H 483.225 2.90293 -3.81139 0
M  V30 5175 H 481.589 1.61912 -1.96612 0
M  V30 5176 H 482.372 0.698555 -3.36118 0
M  V30 5177 N 484.817 1.37938 0.762283 0
M  V30 5178 C 486.066 1.32989 1.51647 0
M  V30 5179 C 486.379 -0.0802922 1.95435 0
M  V30 5180 O 487.585 -0.252295 2.70325 0
M  V30 5181 C 486.041 2.33485 2.73885 0
M  V30 5182 C 485.649 3.80079 2.37157 0
M  V30 5183 C 487.393 2.37563 3.51801 0
M  V30 5184 C 485.3 4.72283 3.55954 0
M  V30 5185 H 484.23 0.494301 0.56937 0
M  V30 5186 H 486.881 1.63448 0.834083 0
M  V30 5187 H 485.263 1.96056 3.44061 0
M  V30 5188 H 486.437 4.26398 1.74704 0
M  V30 5189 H 484.752 3.79037 1.72395 0
M  V30 5190 H 487.349 3.0365 4.40114 0
M  V30 5191 H 487.692 1.39199 3.92338 0
M  V30 5192 H 488.225 2.73747 2.8863 0
M  V30 5193 H 484.964 5.7181 3.2049 0
M  V30 5194 H 484.484 4.30663 4.1748 0
M  V30 5195 H 486.163 4.89876 4.22647 0
M  V30 5196 N 486.295 -0.989507 1.22664 0
M  V30 5197 C 487.544 -1.72375 1.04737 0
M  V30 5198 C 487.857 -1.91096 -0.417316 0
M  V30 5199 O 489.063 -2.6188 -0.716334 0
M  V30 5200 C 487.519 -3.10161 1.82561 0
M  V30 5201 C 487.127 -2.99358 3.333 0
M  V30 5202 C 488.871 -3.87607 1.73093 0
M  V30 5203 C 486.778 -4.32319 4.03552 0
M  V30 5204 H 485.708 -0.646326 0.388302 0
M  V30 5205 H 488.359 -1.10437 1.46546 0
M  V30 5206 H 486.741 -3.728 1.33552 0
M  V30 5207 H 487.915 -2.45863 3.89728 0
M  V30 5208 H 486.23 -2.35392 3.43481 0
M  V30 5209 H 488.827 -4.86025 2.22899 0
M  V30 5210 H 489.17 -4.10509 0.691976 0
M  V30 5211 H 489.703 -3.31652 2.19663 0
M  V30 5212 H 486.442 -4.14616 5.07714 0
M  V30 5213 H 485.962 -4.85714 3.51911 0
M  V30 5214 H 487.641 -5.01051 4.09337 0
M  V30 5215 N 487.773 -1.03688 -1.18687 0
M  V30 5216 C 489.003 -0.756819 -1.92239 0
M  V30 5217 C 489.411 0.689374 -1.76194 0
M  V30 5218 O 488.754 1.48126 -1.08648 0
M  V30 5219 C 488.816 -1.03851 -3.44173 0
M  V30 5220 C 488.48 -2.47785 -3.83994 0
M  V30 5221 C 489.477 -3.4595 -3.88091 0
M  V30 5222 C 487.162 -2.82397 -4.154 0
M  V30 5223 C 489.156 -4.76779 -4.23038 0
M  V30 5224 C 486.843 -4.13433 -4.50018 0
M  V30 5225 C 487.841 -5.10434 -4.53813 0
M  V30 5226 O 487.529 -6.39122 -4.87625 0
M  V30 5227 H 487.261 -0.275678 -0.617234 0
M  V30 5228 H 489.815 -1.38658 -1.51536 0
M  V30 5229 H 488.045 -0.351612 -3.85098 0
M  V30 5230 H 489.734 -0.746846 -3.9897 0
M  V30 5231 H 490.5 -3.20549 -3.63969 0
M  V30 5232 H 486.379 -2.07568 -4.11627 0
M  V30 5233 H 489.923 -5.52488 -4.25914 0
M  V30 5234 H 485.82 -4.38604 -4.736 0
M  V30 5235 H 486.588 -6.43715 -5.05542 0
M  V30 5236 N 489.251 1.34841 -0.815825 0
M  V30 5237 C 490.214 2.27959 -0.238185 0
M  V30 5238 C 491.214 1.49983 0.579816 0
M  V30 5239 O 492.404 1.69617 0.396953 0
M  V30 5240 C 489.536 3.34314 0.666876 0
M  V30 5241 H 490.729 2.80558 -1.05958 0
M  V30 5242 H 488.282 1.44852 -0.587156 0
M  V30 5243 H 489.017 2.86916 1.5116 0
M  V30 5244 H 488.802 3.92014 0.0819106 0
M  V30 5245 H 490.292 4.0379 1.06506 0
M  V30 5246 N 490.729 0.570148 1.46925 0
M  V30 5247 C 491.976 0.0509529 2.02436 0
M  V30 5248 C 492.304 -1.30405 1.44308 0
M  V30 5249 O 491.559 -1.86493 0.593198 0
M  V30 5250 C 491.858 -0.0780336 3.57315 0
M  V30 5251 C 491.524 1.20775 4.34424 0
M  V30 5252 C 490.186 1.56004 4.5521 0
M  V30 5253 C 492.538 2.0592 4.78797 0
M  V30 5254 C 489.866 2.76201 5.17619 0
M  V30 5255 C 492.218 3.25332 5.42533 0
M  V30 5256 C 490.882 3.60859 5.61549 0
M  V30 5257 H 490.152 0.018645 0.740765 0
M  V30 5258 H 492.799 0.744262 1.76445 0
M  V30 5259 H 491.104 -0.854394 3.82371 0
M  V30 5260 H 492.801 -0.495312 3.97929 0
M  V30 5261 H 489.391 0.923469 4.18533 0
M  V30 5262 H 493.575 1.80008 4.62505 0
M  V30 5263 H 488.831 3.0388 5.30535 0
M  V30 5264 H 493.005 3.91586 5.75876 0
M  V30 5265 H 490.632 4.54088 6.09678 0
M  V30 5266 N 492.207 -1.54576 0.307264 0
M  V30 5267 C 493.155 -2.25208 -0.581723 0
M  V30 5268 C 494.149 -1.26031 -1.13192 0
M  V30 5269 O 495.355 -1.43862 -1.08184 0
M  V30 5270 H 491.73 -0.723173 -0.206214 0
M  V30 5271 H 493.701 -2.98378 0.0364663 0
M  V30 5272 C 492.45 -3.01086 -1.73904 0
M  V30 5273 H 491.773 -3.77208 -1.32491 0
M  V30 5274 H 493.213 -3.5378 -2.33701 0
M  V30 5275 C 491.672 -2.08422 -2.64692 0
M  V30 5276 O 492.202 -1.65636 -3.65961 0
M  V30 5277 N 490.408 -1.74247 -2.32564 0
M  V30 5278 H 489.955 -2.09238 -1.50257 0
M  V30 5279 H 489.913 -1.12524 -2.93574 0
M  V30 5280 N 493.685 -0.035106 -1.57561 0
M  V30 5281 C 494.648 0.929819 -2.09492 0
M  V30 5282 C 495.648 1.25026 -1.01119 0
M  V30 5283 O 496.838 1.18961 -1.27255 0
M  V30 5284 C 493.97 2.24457 -2.56577 0
M  V30 5285 H 495.163 0.479935 -2.96035 0
M  V30 5286 H 492.716 0.213033 -1.54841 0
M  V30 5287 H 493.451 2.74061 -1.73382 0
M  V30 5288 H 493.236 2.02508 -3.35757 0
M  V30 5289 H 494.726 2.93607 -2.96959 0
M  V30 5290 N 495.163 1.55791 0.238111 0
M  V30 5291 C 496.44 1.68798 0.98826 0
M  V30 5292 C 496.82 0.577562 2.03045 0
M  V30 5293 O 496.168 -0.41778 2.24648 0
M  V30 5294 C 496.378 3.09454 1.61367 0
M  V30 5295 C 497.726 3.68335 2.11221 0
M  V30 5296 O 498.75 3.1231 1.71292 0
M  V30 5297 O 497.609 4.6657 2.84561 0
M  V30 5298 H 494.703 0.686881 0.460568 0
M  V30 5299 H 497.249 1.68118 0.231202 0
M  V30 5300 H 496.021 3.81726 0.860295 0
M  V30 5301 H 495.644 3.14182 2.4367 0
M  V30 5302 N 496.642 -0.504142 1.49319 0
M  V30 5303 C 497.889 -1.25846 1.58647 0
M  V30 5304 C 498.217 -1.92592 0.27177 0
M  V30 5305 O 497.472 -1.81167 -0.74007 0
M  V30 5306 C 497.771 -2.35021 2.69258 0
M  V30 5307 C 497.437 -1.85755 4.1086 0
M  V30 5308 C 496.099 -1.72038 4.49395 0
M  V30 5309 C 498.451 -1.48844 4.99495 0
M  V30 5310 C 495.779 -1.19783 5.74342 0
M  V30 5311 C 498.131 -0.980422 6.24956 0
M  V30 5312 C 496.795 -0.829622 6.62324 0
M  V30 5313 H 496.065 -0.460505 0.580531 0
M  V30 5314 H 498.712 -0.559716 1.83138 0
M  V30 5315 H 497.017 -3.10672 2.38726 0
M  V30 5316 H 498.714 -2.93083 2.73685 0
M  V30 5317 H 495.304 -1.9739 3.80441 0
M  V30 5318 H 499.488 -1.5829 4.70381 0
M  V30 5319 H 494.744 -1.06817 6.01997 0
M  V30 5320 H 498.918 -0.685608 6.93017 0
M  V30 5321 H 496.545 -0.42253 7.59025 0
M  V30 5322 N 498.12 -1.38341 -0.754957 0
M  V30 5323 C 499.536 -1.19508 -1.05783 0
M  V30 5324 C 499.736 -0.0428005 -2.01455 0
M  V30 5325 O 498.792 0.611861 -2.44975 0
M  V30 5326 C 500.105 -2.52091 -1.63923 0
M  V30 5327 C 501.653 -2.58762 -1.76101 0
M  V30 5328 C 502.128 -3.91517 -2.37652 0
M  V30 5329 N 503.619 -3.93049 -2.45085 0
M  V30 5330 C 504.354 -4.9253 -2.93602 0
M  V30 5331 N 503.85 -6.02408 -3.42165 0
M  V30 5332 N 505.643 -4.79921 -2.92629 0
M  V30 5333 H 497.794 -2.1206 -0.120056 0
M  V30 5334 H 500.057 -0.94089 -0.11589 0
M  V30 5335 H 499.763 -3.36858 -1.01093 0
M  V30 5336 H 499.637 -2.70388 -2.63003 0
M  V30 5337 H 502.024 -1.74391 -2.38058 0
M  V30 5338 H 502.105 -2.44333 -0.757294 0
M  V30 5339 H 501.749 -4.76309 -1.76329 0
M  V30 5340 H 501.679 -4.03256 -3.38662 0
M  V30 5341 H 504.17 -3.13685 -2.10736 0
M  V30 5342 H 504.483 -6.74248 -3.77637 0
M  V30 5343 H 502.828 -6.0603 -3.40225 0
M  V30 5344 H 506.019 -3.93194 -2.54001 0
M  V30 5345 H 506.192 -5.57601 -3.30128 0
M  V30 5346 N 499.598 0.982988 -1.23187 0
M  V30 5347 C 500.545 2.07491 -1.01075 0
M  V30 5348 C 501.515 1.65949 0.070905 0
M  V30 5349 O 502.7 1.90629 -0.0806822 0
M  V30 5350 C 499.84 3.39751 -0.605261 0
M  V30 5351 C 498.953 3.94578 -1.75876 0
M  V30 5352 C 498.088 5.15039 -1.3003 0
M  V30 5353 C 497.127 5.62027 -2.42472 0
M  V30 5354 N 496.264 6.73719 -1.97602 0
M  V30 5355 H 501.104 2.25739 -1.9454 0
M  V30 5356 H 498.641 1.10659 -0.969179 0
M  V30 5357 H 500.599 4.15719 -0.351279 0
M  V30 5358 H 499.229 3.21473 0.292382 0
M  V30 5359 H 498.281 3.1539 -2.12681 0
M  V30 5360 H 499.593 4.25422 -2.60418 0
M  V30 5361 H 498.747 5.9833 -1.00429 0
M  V30 5362 H 497.486 4.85843 -0.425216 0
M  V30 5363 H 496.491 4.77318 -2.7285 0
M  V30 5364 H 497.716 5.93244 -3.30512 0
M  V30 5365 H 495.662 6.46287 -1.1247 0
M  V30 5366 H 495.579 7.03934 -2.75705 0
M  V30 5367 H 496.847 7.6049 -1.71098 0
M  V30 5368 N 501.076 1.04316 1.18135 0
M  V30 5369 C 502.039 0.640794 2.2006 0
M  V30 5370 C 503.039 -0.303124 1.57917 0
M  V30 5371 O 504.229 -0.0881855 1.73977 0
M  V30 5372 C 501.361 -0.060148 3.40847 0
M  V30 5373 H 502.554 1.54281 2.57172 0
M  V30 5374 H 500.107 0.836004 1.32063 0
M  V30 5375 H 500.842 -0.975845 3.0927 0
M  V30 5376 H 500.627 0.618319 3.87194 0
M  V30 5377 H 502.117 -0.328082 4.16309 0
M  V30 5378 N 502.554 -1.34406 0.822964 0
M  V30 5379 C 503.801 -1.98284 0.411057 0
M  V30 5380 C 504.129 -1.65245 -1.02588 0
M  V30 5381 O 503.384 -0.91619 -1.72929 0
M  V30 5382 C 503.683 -3.52981 0.560268 0
M  V30 5383 C 503.349 -4.05931 1.96293 0
M  V30 5384 C 502.011 -4.20103 2.34664 0
M  V30 5385 C 504.363 -4.34412 2.87985 0
M  V30 5386 C 501.691 -4.60082 3.64062 0
M  V30 5387 C 504.043 -4.75838 4.16847 0
M  V30 5388 C 502.707 -4.88215 4.55195 0
M  V30 5389 H 501.977 -0.725573 0.150416 0
M  V30 5390 H 504.624 -1.60349 1.04692 0
M  V30 5391 H 502.929 -3.91477 -0.158982 0
M  V30 5392 H 504.626 -4.00385 0.222087 0
M  V30 5393 H 501.216 -3.95363 1.65487 0
M  V30 5394 H 505.4 -4.23001 2.59584 0
M  V30 5395 H 500.656 -4.67856 3.93599 0
M  V30 5396 H 504.83 -4.96834 4.87984 0
M  V30 5397 H 502.457 -5.18952 5.55512 0
M  V30 5398 N 504.032 -0.577932 -1.46621 0
M  V30 5399 C 505.257 -0.0652536 -2.07297 0
M  V30 5400 C 505.682 1.22828 -1.4246 0
M  V30 5401 O 505.04 1.74075 -0.506718 0
M  V30 5402 C 505.088 0.0920589 -3.60482 0
M  V30 5403 O 504.192 1.14972 -3.96049 0
M  V30 5404 H 503.533 -0.06065 -0.661224 0
M  V30 5405 H 506.063 -0.799515 -1.88332 0
M  V30 5406 H 506.073 0.299741 -4.06897 0
M  V30 5407 H 504.748 -0.852612 -4.07067 0
M  V30 5408 H 503.325 0.920879 -3.61351 0
M  V30 5409 N 505.51 1.54411 -0.315457 0
M  V30 5410 C 506.738 2.04833 0.291738 0
M  V30 5411 C 507.153 1.19203 1.46411 0
M  V30 5412 O 506.51 0.220867 1.81159 0
M  V30 5413 C 506.561 3.53969 0.73404 0
M  V30 5414 O 506.282 4.36346 -0.391682 0
M  V30 5415 C 507.783 4.2045 1.40489 0
M  V30 5416 H 505.003 0.668195 0.0612947 0
M  V30 5417 H 507.547 1.99276 -0.45929 0
M  V30 5418 H 505.702 3.5984 1.43506 0
M  V30 5419 H 506.116 5.24481 -0.0447088 0
M  V30 5420 H 507.59 5.26278 1.66539 0
M  V30 5421 H 508.067 3.71067 2.3496 0
M  V30 5422 H 508.673 4.18694 0.746662 0
M  V30 5423 N 506.988 0.0434614 1.5754 0
M  V30 5424 C 507.918 -0.931651 2.14109 0
M  V30 5425 C 508.899 -1.32971 1.06079 0
M  V30 5426 O 510.084 -1.40579 1.33982 0
M  V30 5427 C 507.214 -2.20914 2.67982 0
M  V30 5428 C 506.168 -1.95139 3.80926 0
M  V30 5429 C 505.494 -3.29276 4.21285 0
M  V30 5430 C 506.794 -1.27913 5.06395 0
M  V30 5431 H 508.488 -0.460497 2.95837 0
M  V30 5432 H 506.034 -0.220058 1.42309 0
M  V30 5433 H 507.987 -2.89522 3.06194 0
M  V30 5434 H 506.711 -2.70221 1.83434 0
M  V30 5435 H 505.37 -1.28945 3.43175 0
M  V30 5436 H 505.018 -3.76369 3.33699 0
M  V30 5437 H 504.718 -3.12831 4.97404 0
M  V30 5438 H 506.242 -3.99129 4.62091 0
M  V30 5439 H 507.656 -1.86544 5.42102 0
M  V30 5440 H 506.053 -1.2182 5.87605 0
M  V30 5441 H 507.123 -0.254066 4.84234 0
M  V30 5442 N 508.466 -1.55915 -0.229846 0
M  V30 5443 C 509.396 -1.94754 -1.28815 0
M  V30 5444 C 510.377 -0.814657 -1.49323 0
M  V30 5445 O 511.562 -1.07631 -1.61645 0
M  V30 5446 C 508.692 -2.25705 -2.63959 0
M  V30 5447 C 507.646 -3.41406 -2.5812 0
M  V30 5448 C 506.972 -3.57941 -3.97218 0
M  V30 5449 C 508.272 -4.76616 -2.13623 0
M  V30 5450 H 509.966 -2.83404 -0.965547 0
M  V30 5451 H 507.512 -1.36353 -0.463028 0
M  V30 5452 H 509.465 -2.51467 -3.38146 0
M  V30 5453 H 508.189 -1.339 -2.9789 0
M  V30 5454 H 506.848 -3.1568 -1.86391 0
M  V30 5455 H 506.496 -2.63526 -4.28443 0
M  V30 5456 H 506.196 -4.35757 -3.94195 0
M  V30 5457 H 507.72 -3.86042 -4.73079 0
M  V30 5458 H 509.134 -5.01637 -2.77549 0
M  V30 5459 H 507.531 -5.57655 -2.21677 0
M  V30 5460 H 508.601 -4.7253 -1.08829 0
M  V30 5461 N 509.944 0.496216 -1.49584 0
M  V30 5462 C 511.192 1.24756 -1.58998 0
M  V30 5463 C 511.513 1.92968 -0.280775 0
M  V30 5464 O 510.783 1.82959 0.700198 0
M  V30 5465 H 509.363 0.463471 -0.585836 0
M  V30 5466 H 512.025 0.574678 -1.86235 0
M  V30 5467 H 511.121 2.00895 -2.38847 0
M  V30 5468 N 511.423 1.38739 0.74761 0
M  V30 5469 C 512.663 1.36695 1.51966 0
M  V30 5470 C 513.027 -0.0411889 1.91956 0
M  V30 5471 O 514.228 -0.186543 2.68152 0
M  V30 5472 C 512.499 2.30119 2.73459 0
M  V30 5473 S 514.058 2.4615 3.63257 0
M  V30 5474 H 510.876 0.484929 0.519966 0
M  V30 5475 H 513.478 1.7472 0.877104 0
M  V30 5476 H 512.182 3.31312 2.422 0
M  V30 5477 H 511.713 1.93265 3.42655 0
M  V30 5478 H 513.728 1.69001 4.66533 0
M  V30 5479 N 512.901 -0.976442 1.23707 0
M  V30 5480 C 514.131 -1.75087 1.09673 0
M  V30 5481 C 514.539 -1.85852 -0.354344 0
M  V30 5482 O 513.882 -1.33985 -1.25673 0
M  V30 5483 C 513.944 -3.19272 1.65245 0
M  V30 5484 C 513.608 -3.32004 3.14042 0
M  V30 5485 C 514.605 -3.18017 4.11292 0
M  V30 5486 C 512.29 -3.56525 3.53829 0
M  V30 5487 C 514.284 -3.28363 5.46312 0
M  V30 5488 C 511.971 -3.6651 4.88993 0
M  V30 5489 C 512.969 -3.52439 5.85043 0
M  V30 5490 O 512.657 -3.62063 7.1775 0
M  V30 5491 H 512.389 -0.556164 0.384262 0
M  V30 5492 H 514.943 -1.23518 1.64111 0
M  V30 5493 H 513.173 -3.72107 1.05231 0
M  V30 5494 H 514.862 -3.7849 1.46629 0
M  V30 5495 H 515.628 -2.98966 3.81896 0
M  V30 5496 H 511.507 -3.66547 2.79579 0
M  V30 5497 H 515.051 -3.17297 6.21263 0
M  V30 5498 H 510.948 -3.85072 5.18063 0
M  V30 5499 H 511.716 -3.78833 7.25553 0
M  V30 5500 N 514.379 -1.04941 -1.1758 0
M  V30 5501 C 515.795 -0.770282 -1.39781 0
M  V30 5502 C 515.995 0.636417 -1.91186 0
M  V30 5503 O 515.051 1.39923 -2.10185 0
M  V30 5504 C 516.364 -1.82376 -2.3908 0
M  V30 5505 C 517.912 -1.84569 -2.52791 0
M  V30 5506 C 518.387 -2.88933 -3.55361 0
M  V30 5507 N 519.878 -2.8788 -3.62877 0
M  V30 5508 C 520.613 -3.65282 -4.41992 0
M  V30 5509 N 520.109 -4.52461 -5.24643 0
M  V30 5510 N 521.902 -3.53732 -4.36841 0
M  V30 5511 H 514.053 -1.95705 -0.825438 0
M  V30 5512 H 516.316 -0.847284 -0.425222 0
M  V30 5513 H 516.022 -2.83323 -2.08376 0
M  V30 5514 H 515.896 -1.66327 -3.38549 0
M  V30 5515 H 518.283 -0.842879 -2.82807 0
M  V30 5516 H 518.364 -2.04696 -1.53406 0
M  V30 5517 H 518.008 -3.89398 -3.26085 0
M  V30 5518 H 517.938 -2.66059 -4.54445 0
M  V30 5519 H 520.429 -2.24666 -3.03864 0
M  V30 5520 H 520.742 -5.08211 -5.82187 0
M  V30 5521 H 519.087 -4.56524 -5.24033 0
M  V30 5522 H 522.278 -2.85021 -3.71323 0
M  V30 5523 H 522.451 -4.14302 -4.98255 0
M  V30 5524 N 515.857 1.33968 -0.830081 0
M  V30 5525 C 516.787 2.31911 -0.271911 0
M  V30 5526 C 517.768 1.58571 0.61556 0
M  V30 5527 O 518.953 1.86514 0.540946 0
M  V30 5528 C 516.083 3.42737 0.561146 0
M  V30 5529 C 515.037 4.27383 -0.229789 0
M  V30 5530 C 514.363 5.29742 0.726463 0
M  V30 5531 C 515.663 5.02 -1.44197 0
M  V30 5532 H 517.357 2.78844 -1.09025 0
M  V30 5533 H 514.903 1.34061 -0.52571 0
M  V30 5534 H 516.856 4.10276 0.961867 0
M  V30 5535 H 515.58 2.94471 1.41261 0
M  V30 5536 H 514.239 3.61456 -0.611964 0
M  V30 5537 H 513.887 4.77736 1.57408 0
M  V30 5538 H 513.587 5.87255 0.20142 0
M  V30 5539 H 515.111 6.00149 1.12489 0
M  V30 5540 H 516.525 5.62355 -1.11488 0
M  V30 5541 H 514.922 5.69122 -1.90317 0
M  V30 5542 H 515.992 4.31281 -2.2164 0
M  V30 5543 N 517.335 0.585699 1.46312 0
M  V30 5544 C 518.575 0.0751432 2.04262 0
M  V30 5545 C 518.939 -1.26201 1.44697 0
M  V30 5546 O 520.14 -1.86198 1.93865 0
M  V30 5547 C 518.411 0.013478 3.57397 0
M  V30 5548 S 519.97 -0.439068 4.36598 0
M  V30 5549 H 516.788 0.0389228 0.709934 0
M  V30 5550 H 519.39 0.778871 1.79315 0
M  V30 5551 H 518.094 0.990558 3.98266 0
M  V30 5552 H 517.625 -0.712927 3.86886 0
M  V30 5553 H 519.64 -1.6932 4.66417 0
M  V30 5554 N 518.813 -1.54241 0.323641 0
M  V30 5555 C 520.224 -1.85975 -0.164405 0
M  V30 5556 C 520.575 -1.24529 -1.51615 0
M  V30 5557 O 519.7 -0.551351 -2.09258 0
M  V30 5558 C 520.295 -3.37424 -0.305091 0
M  V30 5559 C 518.854 -3.69107 -0.737358 0
M  V30 5560 C 518.001 -2.76942 0.140884 0
M  V30 5561 H 520.952 -1.49088 0.543922 0
M  V30 5562 H 520.973 -3.63147 -1.13598 0
M  V30 5563 H 520.485 -3.82116 0.678876 0
M  V30 5564 H 518.586 -3.29947 -1.73107 0
M  V30 5565 H 518.699 -4.76035 -0.541053 0
M  V30 5566 H 517.063 -2.51795 -0.383572 0
M  V30 5567 H 517.846 -3.24461 1.12162 0
M  V30 5568 N 520.291 -0.0518155 -1.57515 0
M  V30 5569 C 521.254 0.907547 -2.10467 0
M  V30 5570 C 522.254 1.23947 -1.02439 0
M  V30 5571 O 523.444 1.17604 -1.2851 0
M  V30 5572 C 520.576 2.21723 -2.58944 0
M  V30 5573 H 521.769 0.44851 -2.96527 0
M  V30 5574 H 519.322 0.196598 -1.55059 0
M  V30 5575 H 520.057 2.72206 -1.76279 0
M  V30 5576 H 519.842 1.98935 -3.37886 0
M  V30 5577 H 521.332 2.90441 -3.00056 0
M  V30 5578 N 521.769 1.56035 0.221574 0
M  V30 5579 C 522.997 1.8313 0.962864 0
M  V30 5580 C 523.412 0.630934 1.77946 0
M  V30 5581 O 522.769 -0.400519 1.78051 0
M  V30 5582 C 522.82 3.08742 1.88045 0
M  V30 5583 O 522.541 4.24147 1.09686 0
M  V30 5584 C 524.042 3.48824 2.73563 0
M  V30 5585 H 521.262 0.608775 0.282194 0
M  V30 5586 H 523.806 2.03124 0.23681 0
M  V30 5587 H 521.961 2.90723 2.56045 0
M  V30 5588 H 522.375 4.95505 1.71974 0
M  V30 5589 H 523.849 4.39752 3.3365 0
M  V30 5590 H 524.326 2.70575 3.45956 0
M  V30 5591 H 524.932 3.69282 2.10976 0
M  V30 5592 N 523.247 -0.488276 1.49845 0
M  V30 5593 C 524.195 -1.60917 1.67954 0
M  V30 5594 C 525.189 -1.6038 0.54539 0
M  V30 5595 O 526.395 -1.64736 0.7254 0
M  V30 5596 H 522.77 -0.533658 0.529824 0
M  V30 5597 H 524.741 -1.428 2.62013 0
M  V30 5598 C 523.49 -2.98975 1.77509 0
M  V30 5599 H 522.813 -3.00099 2.6416 0
M  V30 5600 H 524.253 -3.76906 1.9421 0
M  V30 5601 C 522.712 -3.3282 0.522745 0
M  V30 5602 O 523.242 -4.00208 -0.345866 0
M  V30 5603 N 521.448 -2.8808 0.381882 0
M  V30 5604 H 520.995 -2.33415 1.08974 0
M  V30 5605 H 520.953 -3.11091 -0.454929 0
M  V30 5606 N 524.725 -1.39134 -0.740242 0
M  V30 5607 C 525.673 -1.3757 -1.87556 0
M  V30 5608 C 526.667 -0.259593 -1.67399 0
M  V30 5609 O 527.873 -0.429349 -1.74804 0
M  V30 5610 H 524.248 -0.42947 -0.6173 0
M  V30 5611 H 526.219 -2.33345 -1.85991 0
M  V30 5612 C 524.968 -1.23087 -3.25184 0
M  V30 5613 H 524.291 -2.08237 -3.41288 0
M  V30 5614 H 525.731 -1.26049 -4.0483 0
M  V30 5615 C 524.19 0.0611471 -3.36845 0
M  V30 5616 O 524.72 1.03328 -3.88183 0
M  V30 5617 N 522.926 0.122454 -2.90342 0
M  V30 5618 H 522.473 -0.669329 -2.48752 0
M  V30 5619 H 522.431 0.986463 -2.98523 0
M  V30 5620 N 526.204 0.969867 -1.24223 0
M  V30 5621 C 527.167 2.04564 -1.03373 0
M  V30 5622 C 528.167 1.60798 0.00819206 0
M  V30 5623 O 529.357 1.72641 -0.232567 0
M  V30 5624 C 526.489 3.36163 -0.566343 0
M  V30 5625 H 527.682 2.24494 -1.98853 0
M  V30 5626 H 525.235 1.1448 -1.06415 0
M  V30 5627 H 525.97 3.21925 0.391751 0
M  V30 5628 H 525.755 3.69273 -1.31834 0
M  V30 5629 H 527.245 4.1526 -0.441435 0
M  V30 5630 N 527.682 1.05563 1.17022 0
M  V30 5631 C 528.931 0.763036 1.8671 0
M  V30 5632 C 529.244 -0.712857 1.82147 0
M  V30 5633 O 530.45 -1.11955 2.47343 0
M  V30 5634 C 528.906 1.31474 3.35026 0
M  V30 5635 C 528.514 2.82034 3.48081 0
M  V30 5636 C 530.258 1.09935 4.10018 0
M  V30 5637 C 528.165 3.30486 4.90442 0
M  V30 5638 H 527.095 0.281747 0.699382 0
M  V30 5639 H 529.746 1.2734 1.32124 0
M  V30 5640 H 528.128 0.732171 3.89173 0
M  V30 5641 H 529.302 3.46178 3.04133 0
M  V30 5642 H 527.617 3.02156 2.86515 0
M  V30 5643 H 530.214 1.43632 5.15048 0
M  V30 5644 H 530.557 0.0373072 4.16283 0
M  V30 5645 H 531.09 1.64732 3.62089 0
M  V30 5646 H 527.829 4.36137 4.89352 0
M  V30 5647 H 527.349 2.71086 5.35044 0
M  V30 5648 H 529.028 3.25382 5.59227 0
M  V30 5649 N 529.16 -1.33526 0.837174 0
M  V30 5650 C 530.07 -2.33023 0.271568 0
M  V30 5651 C 531.086 -1.63272 -0.601514 0
M  V30 5652 O 532.262 -1.94939 -0.506038 0
M  V30 5653 C 529.327 -3.42382 -0.545448 0
M  V30 5654 C 528.388 -4.27857 0.351709 0
M  V30 5655 C 527.621 -5.31994 -0.426409 0
M  V30 5656 O 527.844 -5.45763 -1.65828 0
M  V30 5657 O 526.778 -6.01572 0.1987 0
M  V30 5658 H 530.604 -2.83256 1.09545 0
M  V30 5659 H 528.189 -1.36837 0.599655 0
M  V30 5660 H 530.071 -4.09122 -1.00979 0
M  V30 5661 H 528.746 -2.94369 -1.34641 0
M  V30 5662 H 527.653 -3.6399 0.863853 0
M  V30 5663 H 528.986 -4.79349 1.1174 0
M  V30 5664 N 530.638 -0.59345 -1.46 0
M  V30 5665 C 531.866 -0.0890934 -2.06708 0
M  V30 5666 C 532.281 1.2205 -1.44046 0
M  V30 5667 O 531.638 1.74029 -0.549551 0
M  V30 5668 C 531.689 0.0720263 -3.61428 0
M  V30 5669 O 531.41 -1.18574 -4.21748 0
M  V30 5670 C 532.911 0.609487 -4.3909 0
M  V30 5671 H 530.131 -0.0623628 -0.668096 0
M  V30 5672 H 532.675 -0.817171 -1.87464 0
M  V30 5673 H 530.83 0.750369 -3.80063 0
M  V30 5674 H 531.244 -1.0064 -5.14754 0
M  V30 5675 H 532.718 0.671363 -5.47902 0
M  V30 5676 H 533.195 1.62878 -4.07882 0
M  V30 5677 H 533.801 -0.03434 -4.25286 0
M  V30 5678 N 532.116 1.54067 -0.331816 0
M  V30 5679 C 533.362 2.01012 0.268667 0
M  V30 5680 C 533.695 1.2195 1.51136 0
M  V30 5681 O 532.97 0.303972 1.9211 0
M  V30 5682 C 533.253 3.55158 0.59456 0
M  V30 5683 C 533.106 4.4494 -0.659409 0
M  V30 5684 C 534.425 4.16939 1.4089 0
M  V30 5685 H 531.544 0.730698 0.0961756 0
M  V30 5686 H 534.186 1.84593 -0.450031 0
M  V30 5687 H 532.336 3.6928 1.20685 0
M  V30 5688 H 534.008 4.42675 -1.29756 0
M  V30 5689 H 532.251 4.1428 -1.28665 0
M  V30 5690 H 532.922 5.50643 -0.386804 0
M  V30 5691 H 535.398 4.06443 0.891272 0
M  V30 5692 H 534.274 5.24889 1.60569 0
M  V30 5693 H 534.535 3.70798 2.40752 0
M  V30 5694 N 533.594 0.0601682 1.57485 0
M  V30 5695 C 534.819 -0.624416 1.97777 0
M  V30 5696 C 535.244 -1.63051 0.937867 0
M  V30 5697 O 534.602 -1.81036 -0.0978845 0
M  V30 5698 C 534.65 -1.27979 3.37126 0
M  V30 5699 O 533.754 -2.39556 3.35688 0
M  V30 5700 H 533.095 -0.161581 0.64404 0
M  V30 5701 H 535.625 0.131237 2.04179 0
M  V30 5702 H 535.635 -1.62937 3.74053 0
M  V30 5703 H 534.31 -0.542501 4.12347 0
M  V30 5704 H 532.887 -2.06478 3.10517 0
M  V30 5705 N 535.072 -1.5615 -0.213296 0
M  V30 5706 C 536.321 -1.78743 -0.93455 0
M  V30 5707 C 536.634 -0.630199 -1.8517 0
M  V30 5708 O 537.84 -0.739966 -2.61222 0
M  V30 5709 C 536.296 -3.16571 -1.71203 0
M  V30 5710 C 535.904 -4.40043 -0.840617 0
M  V30 5711 C 537.648 -3.48485 -2.42401 0
M  V30 5712 C 535.555 -5.68895 -1.61592 0
M  V30 5713 H 534.485 -0.666426 -0.352692 0
M  V30 5714 H 537.136 -1.82532 -0.188227 0
M  V30 5715 H 535.518 -3.06981 -2.50157 0
M  V30 5716 H 536.692 -4.6071 -0.0910326 0
M  V30 5717 H 535.007 -4.15706 -0.240365 0
M  V30 5718 H 537.604 -4.41983 -3.00924 0
M  V30 5719 H 537.947 -2.71371 -3.15695 0
M  V30 5720 H 538.48 -3.59442 -1.7043 0
M  V30 5721 H 535.219 -6.48925 -0.926106 0
M  V30 5722 H 534.739 -5.52275 -2.33991 0
M  V30 5723 H 536.418 -6.09365 -2.17447 0
M  V30 5724 N 536.55 0.480323 -1.50102 0
M  V30 5725 C 537.498 1.60024 -1.68805 0
M  V30 5726 C 538.492 1.60089 -0.553888 0
M  V30 5727 O 539.698 1.64349 -0.734127 0
M  V30 5728 H 536.073 0.530841 -0.532646 0
M  V30 5729 H 538.044 1.41408 -2.62767 0
M  V30 5730 C 536.793 2.98029 -1.79092 0
M  V30 5731 H 536.116 2.98694 -2.65748 0
M  V30 5732 H 537.556 3.75871 -1.96206 0
M  V30 5733 C 536.015 3.32538 -0.540388 0
M  V30 5734 O 536.545 4.00386 0.324637 0
M  V30 5735 N 534.751 2.87873 -0.397154 0
M  V30 5736 H 534.298 2.32834 -1.1021 0
M  V30 5737 H 534.256 3.11328 0.438425 0
M  V30 5738 N 538.028 1.39524 0.732853 0
M  V30 5739 C 538.976 1.38563 1.86824 0
M  V30 5740 C 539.97 0.268467 1.67259 0
M  V30 5741 O 541.176 0.438613 1.74574 0
M  V30 5742 H 537.551 0.432737 0.615014 0
M  V30 5743 H 539.522 2.34328 1.84751 0
M  V30 5744 C 538.271 1.2481 3.24527 0
M  V30 5745 H 537.594 2.10044 3.40179 0
M  V30 5746 H 539.034 1.28194 4.04156 0
M  V30 5747 C 537.493 -0.0432825 3.36872 0
M  V30 5748 O 538.023 -1.01268 3.88726 0
M  V30 5749 N 536.229 -0.107055 2.90403 0
M  V30 5750 H 535.776 0.682512 2.48394 0
M  V30 5751 H 535.734 -0.970618 2.99042 0
M  V30 5752 N 539.506 -0.963266 1.24736 0
M  V30 5753 C 540.454 -2.07985 1.04139 0
M  V30 5754 C 541.448 -1.69381 -0.0250556 0
M  V30 5755 O 542.654 -1.79531 0.129863 0
M  V30 5756 H 539.029 -0.680627 0.319768 0
M  V30 5757 H 541 -2.22517 1.98818 0
M  V30 5758 C 539.749 -3.4123 0.667615 0
M  V30 5759 H 539.072 -3.71397 1.48 0
M  V30 5760 H 540.512 -4.20244 0.563136 0
M  V30 5761 C 538.971 -3.3104 -0.625647 0
M  V30 5762 O 539.501 -3.65334 -1.67016 0
M  V30 5763 N 537.707 -2.84168 -0.608033 0
M  V30 5764 H 537.254 -2.56458 0.242323 0
M  V30 5765 H 537.212 -2.77732 -1.47352 0
M  V30 5766 N 540.985 -1.06182 -1.16461 0
M  V30 5767 C 542.233 -0.776326 -1.86595 0
M  V30 5768 C 542.554 0.69921 -1.82033 0
M  V30 5769 O 541.824 1.50579 -1.2531 0
M  V30 5770 H 540.404 -0.284184 -0.690832 0
M  V30 5771 H 543.066 -1.34308 -1.41235 0
M  V30 5772 H 542.162 -1.10022 -2.92064 0
M  V30 5773 N 542.463 1.3308 -0.844243 0
M  V30 5774 C 543.426 2.27403 -0.286485 0
M  V30 5775 C 544.426 1.51179 0.547872 0
M  V30 5776 O 545.616 1.70421 0.360886 0
M  V30 5777 C 542.748 3.35653 0.595813 0
M  V30 5778 H 543.941 2.78248 -1.11885 0
M  V30 5779 H 541.494 1.43574 -0.617749 0
M  V30 5780 H 542.229 2.90058 1.4504 0
M  V30 5781 H 542.014 3.921 -0.00125994 0
M  V30 5782 H 543.504 4.05958 0.979168 0
M  V30 5783 N 543.941 0.601185 1.45683 0
M  V30 5784 C 544.904 -0.111398 2.28929 0
M  V30 5785 C 545.904 -0.801246 1.39416 0
M  V30 5786 O 547.094 -0.650383 1.61603 0
M  V30 5787 C 544.226 -1.16773 3.20276 0
M  V30 5788 H 545.419 0.620412 2.93413 0
M  V30 5789 H 542.972 0.359946 1.52099 0
M  V30 5790 H 543.707 -1.93051 2.60579 0
M  V30 5791 H 543.492 -0.677358 3.86205 0
M  V30 5792 H 544.982 -1.66698 3.82886 0
M  V30 5793 N 545.419 -1.53889 0.339982 0
M  V30 5794 C 546.352 -2.21187 -0.561405 0
M  V30 5795 C 547.33 -1.19463 -1.10306 0
M  V30 5796 O 548.514 -1.48268 -1.164 0
M  V30 5797 C 545.641 -2.8865 -1.77198 0
M  V30 5798 C 544.687 -4.04232 -1.3601 0
M  V30 5799 S 545.52 -5.34129 -0.382909 0
M  V30 5800 C 546.676 -6.05094 -1.60039 0
M  V30 5801 H 546.909 -2.97298 0.0102092 0
M  V30 5802 H 544.442 -1.53901 0.124056 0
M  V30 5803 H 546.4 -3.28138 -2.4665 0
M  V30 5804 H 545.061 -2.12311 -2.3148 0
M  V30 5805 H 544.254 -4.50358 -2.2626 0
M  V30 5806 H 543.856 -3.66503 -0.745098 0
M  V30 5807 H 546.148 -6.2827 -2.53541 0
M  V30 5808 H 547.091 -6.98182 -1.18099 0
M  V30 5809 H 547.499 -5.35207 -1.79483 0
M  V30 5810 N 546.897 -0.0685191 -1.57451 0
M  V30 5811 C 548.144 0.601348 -1.93365 0
M  V30 5812 C 548.472 1.69816 -0.948294 0
M  V30 5813 O 547.727 1.95666 0.0366199 0
M  V30 5814 C 548.026 1.22051 -3.35914 0
M  V30 5815 C 547.692 0.250165 -4.50205 0
M  V30 5816 C 546.354 -0.0167954 -4.81197 0
M  V30 5817 C 548.706 -0.413867 -5.19554 0
M  V30 5818 C 546.034 -0.95493 -5.78876 0
M  V30 5819 C 548.386 -1.3403 -6.18238 0
M  V30 5820 C 547.05 -1.61576 -6.47649 0
M  V30 5821 H 546.32 0.220049 -0.707573 0
M  V30 5822 H 548.967 -0.138697 -1.90997 0
M  V30 5823 H 547.272 2.03622 -3.34732 0
M  V30 5824 H 548.969 1.74605 -3.6099 0
M  V30 5825 H 545.559 0.468421 -4.26033 0
M  V30 5826 H 549.743 -0.220733 -4.95809 0
M  V30 5827 H 544.999 -1.17563 -5.99991 0
M  V30 5828 H 549.173 -1.86081 -6.71079 0
M  V30 5829 H 546.8 -2.34431 -7.2315 0
M  V30 5830 N 548.375 1.56261 0.205012 0
M  V30 5831 C 549.6 1.84491 0.947512 0
M  V30 5832 C 550.025 0.650894 1.76479 0
M  V30 5833 O 549.383 -0.40035 1.76824 0
M  V30 5834 C 549.431 3.10863 1.82747 0
M  V30 5835 O 548.535 2.90719 2.925 0
M  V30 5836 H 547.876 0.607783 0.267386 0
M  V30 5837 H 550.406 2.03485 0.213323 0
M  V30 5838 H 550.416 3.41399 2.23407 0
M  V30 5839 H 549.091 3.97392 1.2269 0
M  V30 5840 H 547.668 2.71457 2.55667 0
M  V30 5841 N 549.853 -0.472356 1.50355 0
M  V30 5842 C 551.078 -1.25251 1.65309 0
M  V30 5843 C 551.503 -1.85081 0.335643 0
M  V30 5844 O 550.861 -1.67227 -0.700335 0
M  V30 5845 C 550.909 -2.3379 2.74544 0
M  V30 5846 O 550.013 -3.38401 2.35709 0
M  V30 5847 H 549.354 -0.368539 0.552336 0
M  V30 5848 H 551.884 -0.562271 1.96722 0
M  V30 5849 H 551.894 -2.79121 2.97583 0
M  V30 5850 H 550.569 -1.89614 3.70161 0
M  V30 5851 H 549.146 -2.9879 2.23112 0
M  V30 5852 N 551.331 -1.39911 -0.725443 0
M  V30 5853 C 552.281 -1.35878 -1.83088 0
M  V30 5854 C 553.265 -0.237989 -1.5913 0
M  V30 5855 O 554.457 -0.476302 -1.70471 0
M  V30 5856 C 551.586 -1.21403 -3.21117 0
M  V30 5857 C 550.672 -2.38223 -3.50871 0
M  V30 5858 N 551.063 -3.63703 -3.51502 0
M  V30 5859 C 549.361 -2.31388 -3.81281 0
M  V30 5860 C 550.062 -4.4101 -3.79322 0
M  V30 5861 N 549.038 -3.7072 -3.97577 0
M  V30 5862 H 552.84 -2.3085 -1.81895 0
M  V30 5863 H 550.354 -1.33543 -0.924125 0
M  V30 5864 H 552.351 -1.16597 -4.00263 0
M  V30 5865 H 551.011 -0.273902 -3.23543 0
M  V30 5866 H 552.022 -3.96998 -3.32586 0
M  V30 5867 H 548.699 -1.45689 -3.91256 0
M  V30 5868 H 550.089 -5.49819 -3.86198 0
M  V30 5869 N 552.809 0.956637 -1.25245 0
M  V30 5870 C 553.759 2.03841 -1.02141 0
M  V30 5871 C 554.743 1.60848 0.0410058 0
M  V30 5872 O 555.935 1.76142 -0.174084 0
M  V30 5873 C 553.064 3.37282 -0.639963 0
M  V30 5874 C 552.15 3.86805 -1.73903 0
M  V30 5875 N 552.541 4.09143 -2.97381 0
M  V30 5876 C 550.839 4.15574 -1.61909 0
M  V30 5877 C 551.54 4.49923 -3.68707 0
M  V30 5878 N 550.516 4.55737 -2.96318 0
M  V30 5879 H 554.318 2.19102 -1.95886 0
M  V30 5880 H 551.832 1.1413 -1.15534 0
M  V30 5881 H 553.829 4.14403 -0.455643 0
M  V30 5882 H 552.489 3.23401 0.29018 0
M  V30 5883 H 553.5 3.96275 -3.33447 0
M  V30 5884 H 550.177 4.10566 -0.757764 0
M  V30 5885 H 551.567 4.75526 -4.74684 0
M  V30 5886 N 554.287 1.06798 1.15896 0
M  V30 5887 C 555.197 0.694564 2.24083 0
M  V30 5888 C 556.213 -0.291687 1.71538 0
M  V30 5889 O 557.389 -0.139723 2.00915 0
M  V30 5890 C 554.454 0.0921014 3.46578 0
M  V30 5891 C 553.515 1.13087 4.14137 0
M  V30 5892 C 552.748 0.557064 5.30785 0
M  V30 5893 O 552.971 -0.628623 5.66925 0
M  V30 5894 O 551.905 1.29924 5.8771 0
M  V30 5895 H 555.731 1.59663 2.58344 0
M  V30 5896 H 553.316 0.840575 1.2351 0
M  V30 5897 H 555.198 -0.241884 4.20705 0
M  V30 5898 H 553.873 -0.78337 3.14078 0
M  V30 5899 H 552.78 1.51712 3.41957 0
M  V30 5900 H 554.113 1.97805 4.50704 0
M  V30 5901 N 555.766 -1.3263 0.851289 0
M  V30 5902 C 557.177 -1.79653 0.5081 0
M  V30 5903 C 557.528 -1.70327 -0.973815 0
M  V30 5904 O 556.653 -1.25986 -1.75944 0
M  V30 5905 C 557.248 -3.26196 0.915515 0
M  V30 5906 C 555.807 -3.71187 0.624277 0
M  V30 5907 C 554.954 -2.53804 1.11709 0
M  V30 5908 H 557.905 -1.19976 1.03882 0
M  V30 5909 H 557.926 -3.79801 0.230535 0
M  V30 5910 H 557.438 -3.32952 1.99411 0
M  V30 5911 H 555.539 -3.69948 -0.443737 0
M  V30 5912 H 555.652 -4.64132 1.18821 0
M  V30 5913 H 554.016 -2.48964 0.537484 0
M  V30 5914 H 554.799 -2.63315 2.20272 0
M  V30 5915 N 557.244 -0.608902 -1.45362 0
M  V30 5916 C 558.66 -0.272659 -1.57254 0
M  V30 5917 C 558.86 1.22477 -1.60005 0
M  V30 5918 O 557.916 2.00785 -1.53106 0
M  V30 5919 C 559.229 -0.944991 -2.85465 0
M  V30 5920 C 560.777 -0.921033 -2.99142 0
M  V30 5921 C 561.252 -1.5734 -4.30126 0
M  V30 5922 N 562.743 -1.53895 -4.36887 0
M  V30 5923 C 563.478 -2.01286 -5.36909 0
M  V30 5924 N 562.974 -2.56768 -6.43461 0
M  V30 5925 N 564.767 -1.92046 -5.28275 0
M  V30 5926 H 556.918 -1.58117 -1.4182 0
M  V30 5927 H 559.181 -0.662437 -0.678146 0
M  V30 5928 H 558.887 -1.99941 -2.89338 0
M  V30 5929 H 558.761 -0.469079 -3.74272 0
M  V30 5930 H 561.148 0.124846 -2.94836 0
M  V30 5931 H 561.229 -1.43522 -2.11743 0
M  V30 5932 H 560.873 -2.61862 -4.35191 0
M  V30 5933 H 560.803 -1.03422 -5.16344 0
M  V30 5934 H 563.294 -1.13366 -3.60495 0
M  V30 5935 H 563.607 -2.9072 -7.16032 0
M  V30 5936 H 561.952 -2.60808 -6.44208 0
M  V30 5937 H 565.143 -1.48439 -4.43941 0
M  V30 5938 H 565.316 -2.29293 -6.06077 0
M  V30 5939 N 558.722 1.53707 -0.348139 0
M  V30 5940 C 559.97 2.00591 0.246478 0
M  V30 5941 C 560.291 1.23753 1.50699 0
M  V30 5942 O 559.561 0.345964 1.92821 0
M  V30 5943 H 558.141 0.741053 0.0940679 0
M  V30 5944 H 560.803 1.89139 -0.470354 0
M  V30 5945 H 559.899 3.08297 0.485714 0
M  V30 5946 N 560.2 0.0768682 1.57412 0
M  V30 5947 C 561.425 -0.603404 1.98428 0
M  V30 5948 C 561.85 -1.62047 0.955108 0
M  V30 5949 O 561.208 -1.81129 -0.0786778 0
M  V30 5950 C 561.256 -1.24396 3.38464 0
M  V30 5951 O 560.36 -2.35982 3.3821 0
M  V30 5952 H 559.701 -0.154741 0.645718 0
M  V30 5953 H 562.231 0.152885 2.04028 0
M  V30 5954 H 562.241 -1.5896 3.7576 0
M  V30 5955 H 560.916 -0.498735 4.12899 0
M  V30 5956 H 559.493 -2.03173 3.1269 0
M  V30 5957 N 561.678 -1.56367 -0.196722 0
M  V30 5958 C 562.927 -1.79724 -0.915539 0
M  V30 5959 C 563.24 -0.649804 -1.84491 0
M  V30 5960 O 564.446 -0.767631 -2.60422 0
M  V30 5961 C 562.902 -3.18369 -1.67836 0
M  V30 5962 C 562.51 -4.4091 -0.793897 0
M  V30 5963 C 564.254 -3.51037 -2.38691 0
M  V30 5964 C 562.161 -5.70577 -1.55549 0
M  V30 5965 H 561.091 -0.67013 -0.345604 0
M  V30 5966 H 563.742 -1.82721 -0.168856 0
M  V30 5967 H 562.124 -3.09617 -2.46887 0
M  V30 5968 H 563.298 -4.60781 -0.042163 0
M  V30 5969 H 561.613 -4.15937 -0.19626 0
M  V30 5970 H 564.21 -4.4515 -2.96219 0
M  V30 5971 H 564.553 -2.74704 -3.12799 0
M  V30 5972 H 565.086 -3.61229 -1.66608 0
M  V30 5973 H 561.825 -6.49871 -0.857226 0
M  V30 5974 H 561.345 -5.54726 -2.2812 0
M  V30 5975 H 563.024 -6.11637 -2.10971 0
M  V30 5976 N 563.156 0.464375 -1.50603 0
M  V30 5977 C 564.381 1.24372 -1.65971 0
M  V30 5978 C 564.806 1.84901 -0.345453 0
M  V30 5979 O 564.164 1.67596 0.691457 0
M  V30 5980 C 564.212 2.32331 -2.7578 0
M  V30 5981 O 563.316 3.37146 -2.375 0
M  V30 5982 H 562.657 0.365604 -0.554283 0
M  V30 5983 H 565.187 0.55183 -1.97018 0
M  V30 5984 H 565.197 2.77539 -2.99059 0
M  V30 5985 H 563.872 1.87648 -3.71162 0
M  V30 5986 H 562.449 2.97602 -2.24694 0
M  V30 5987 N 564.634 1.40294 0.718013 0
M  V30 5988 C 565.581 1.40367 1.8321 0
M  V30 5989 C 566.551 0.260952 1.64037 0
M  V30 5990 O 567.736 0.458648 1.85205 0
M  V30 5991 C 564.876 1.26965 3.20895 0
M  V30 5992 C 563.989 2.50922 3.51656 0
M  V30 5993 C 563.124 2.29981 4.78834 0
M  V30 5994 C 562.163 3.49527 5.02491 0
M  V30 5995 N 561.3 3.27796 6.20882 0
M  V30 5996 H 566.14 2.35593 1.82482 0
M  V30 5997 H 563.677 1.17012 0.891444 0
M  V30 5998 H 565.635 1.17202 4.00399 0
M  V30 5999 H 564.265 0.353591 3.20858 0
M  V30 6000 H 563.317 2.71223 2.66725 0
M  V30 6001 H 564.629 3.39913 3.65048 0
M  V30 6002 H 563.783 2.17558 5.66351 0
M  V30 6003 H 562.522 1.38411 4.67647 0
M  V30 6004 H 561.527 3.6243 4.1343 0
M  V30 6005 H 562.752 4.42021 5.15553 0
M  V30 6006 H 560.698 2.38906 6.1095 0
M  V30 6007 H 560.615 4.10351 6.34939 0
M  V30 6008 H 561.883 3.19101 7.11193 0
M  V30 6009 N 566.112 -0.949982 1.2575 0
M  V30 6010 C 567.022 -2.08109 1.08295 0
M  V30 6011 C 568.038 -1.7399 0.0188181 0
M  V30 6012 O 569.214 -2.00187 0.220724 0
M  V30 6013 C 566.279 -3.39383 0.708534 0
M  V30 6014 C 565.34 -3.8734 1.85111 0
M  V30 6015 C 564.573 -5.12349 1.49447 0
M  V30 6016 O 564.796 -5.6905 0.392212 0
M  V30 6017 O 563.73 -5.5513 2.32624 0
M  V30 6018 H 567.556 -2.25738 2.03165 0
M  V30 6019 H 565.141 -1.06545 1.04731 0
M  V30 6020 H 567.023 -4.18277 0.512061 0
M  V30 6021 H 565.698 -3.23013 -0.210854 0
M  V30 6022 H 564.605 -3.09429 2.10248 0
M  V30 6023 H 565.938 -4.08216 2.74991 0
M  V30 6024 N 567.59 -1.07411 -1.15328 0
M  V30 6025 C 568.83 -0.807011 -1.87794 0
M  V30 6026 C 569.194 0.654987 -1.80482 0
M  V30 6027 O 570.395 1.03716 -2.47985 0
M  V30 6028 C 568.666 -1.30198 -3.32841 0
M  V30 6029 S 570.225 -1.16564 -4.23034 0
M  V30 6030 H 567.043 -0.292429 -0.648079 0
M  V30 6031 H 569.645 -1.37334 -1.39139 0
M  V30 6032 H 568.349 -2.3607 -3.35707 0
M  V30 6033 H 567.88 -0.730881 -3.86551 0
M  V30 6034 H 569.895 -0.103557 -4.96092 0
M  V30 6035 N 569.068 1.32177 -0.85831 0
M  V30 6036 C 570.016 2.30729 -0.294442 0
M  V30 6037 C 571.01 1.59009 0.584165 0
M  V30 6038 O 572.216 1.73713 0.471562 0
M  V30 6039 H 568.591 0.748097 -0.0765171 0
M  V30 6040 H 570.562 2.75774 -1.1398 0
M  V30 6041 C 569.311 3.44098 0.499208 0
M  V30 6042 H 568.634 3.99449 -0.167579 0
M  V30 6043 H 570.074 4.15202 0.859273 0
M  V30 6044 C 568.533 2.91684 1.68588 0
M  V30 6045 O 569.063 2.89481 2.78503 0
M  V30 6046 N 567.269 2.48036 1.51415 0
M  V30 6047 H 566.816 2.50027 0.620006 0
M  V30 6048 H 566.774 2.13322 2.30957 0
M  V30 6049 N 570.547 0.616602 1.45037 0
M  V30 6050 C 571.477 -0.0840787 2.33349 0
M  V30 6051 C 572.458 -0.849641 1.4736 0
M  V30 6052 O 573.643 -0.818407 1.76113 0
M  V30 6053 C 570.773 -1.07604 3.3021 0
M  V30 6054 C 569.727 -0.423096 4.25904 0
M  V30 6055 C 569.053 -1.52394 5.12523 0
M  V30 6056 C 570.353 0.661457 5.18095 0
M  V30 6057 H 572.047 0.653333 2.92185 0
M  V30 6058 H 569.593 0.315634 1.40498 0
M  V30 6059 H 571.546 -1.57485 3.90866 0
M  V30 6060 H 570.27 -1.84416 2.69552 0
M  V30 6061 H 568.929 0.05493 3.66559 0
M  V30 6062 H 568.577 -2.28257 4.48227 0
M  V30 6063 H 568.277 -1.09251 5.77354 0
M  V30 6064 H 569.801 -2.02485 5.76049 0
M  V30 6065 H 571.215 0.246353 5.7277 0
M  V30 6066 H 569.612 1.01517 5.91451 0
M  V30 6067 H 570.682 1.53446 4.59981 0
M  V30 6068 N 572.025 -1.5352 0.356285 0
M  V30 6069 C 573.271 -2.01414 -0.236653 0
M  V30 6070 C 573.604 -1.24339 -1.49176 0
M  V30 6071 O 572.879 -0.334496 -1.91602 0
M  V30 6072 C 573.162 -3.56059 -0.537982 0
M  V30 6073 C 573.015 -4.43835 0.730112 0
M  V30 6074 C 574.334 -4.19127 -1.34239 0
M  V30 6075 H 571.453 -0.732135 -0.0845386 0
M  V30 6076 H 574.095 -1.83854 0.479341 0
M  V30 6077 H 572.245 -3.71153 -1.14795 0
M  V30 6078 H 573.917 -4.40555 1.36782 0
M  V30 6079 H 572.16 -4.1218 1.3524 0
M  V30 6080 H 572.831 -5.49958 0.474358 0
M  V30 6081 H 575.307 -4.07809 -0.826498 0
M  V30 6082 H 574.183 -5.27378 -1.52198 0
M  V30 6083 H 574.444 -3.74581 -2.34822 0
M  V30 6084 N 573.503 -0.0852151 -1.57369 0
M  V30 6085 C 574.733 0.588605 -1.98038 0
M  V30 6086 C 575.141 1.62869 -0.962817 0
M  V30 6087 O 574.484 1.83611 0.057134 0
M  V30 6088 C 574.546 1.30303 -3.35054 0
M  V30 6089 C 574.21 0.414855 -4.55113 0
M  V30 6090 C 575.207 -0.333011 -5.18832 0
M  V30 6091 C 572.892 0.335804 -5.01176 0
M  V30 6092 C 574.886 -1.14801 -6.26976 0
M  V30 6093 C 572.573 -0.482857 -6.09189 0
M  V30 6094 C 573.571 -1.22342 -6.71953 0
M  V30 6095 O 573.259 -2.02855 -7.77885 0
M  V30 6096 H 572.991 0.163249 -0.655992 0
M  V30 6097 H 575.545 -0.1582 -2.0479 0
M  V30 6098 H 573.775 2.0962 -3.24956 0
M  V30 6099 H 575.464 1.87041 -3.60237 0
M  V30 6100 H 576.23 -0.281611 -4.84182 0
M  V30 6101 H 572.109 0.901869 -4.52092 0
M  V30 6102 H 575.653 -1.72654 -6.75897 0
M  V30 6103 H 571.55 -0.535773 -6.43273 0
M  V30 6104 H 572.318 -1.95432 -7.94826 0
M  V30 6105 N 574.981 1.5647 0.188427 0
M  V30 6106 C 575.911 1.98101 1.23606 0
M  V30 6107 C 576.892 0.853961 1.47111 0
M  V30 6108 O 578.077 1.11879 1.58735 0
M  V30 6109 C 575.207 2.32624 2.57882 0
M  V30 6110 C 574.161 3.48129 2.48978 0
M  V30 6111 C 573.487 3.68347 3.87588 0
M  V30 6112 C 574.787 4.82112 2.00911 0
M  V30 6113 H 576.481 2.85864 0.890068 0
M  V30 6114 H 574.027 1.37532 0.426714 0
M  V30 6115 H 575.98 2.60343 3.3136 0
M  V30 6116 H 574.704 1.41751 2.94235 0
M  V30 6117 H 573.363 3.20511 1.77956 0
M  V30 6118 H 573.011 2.74793 4.21305 0
M  V30 6119 H 572.711 4.46055 3.82503 0
M  V30 6120 H 574.235 3.98449 4.62678 0
M  V30 6121 H 575.649 5.08819 2.64151 0
M  V30 6122 H 574.046 5.63337 2.06814 0
M  V30 6123 H 575.116 4.75249 0.96262 0
M  V30 6124 N 576.459 -0.456382 1.50847 0
M  V30 6125 C 577.708 -1.2042 1.61808 0
M  V30 6126 C 578.021 -1.9278 0.330932 0
M  V30 6127 O 579.227 -2.69612 0.319643 0
M  V30 6128 C 577.683 -2.18891 2.85683 0
M  V30 6129 C 577.291 -1.52267 4.2133 0
M  V30 6130 C 579.035 -2.94224 3.05994 0
M  V30 6131 C 576.942 -2.4911 5.36375 0
M  V30 6132 H 575.872 -0.453177 0.602616 0
M  V30 6133 H 578.523 -0.473144 1.77295 0
M  V30 6134 H 576.905 -2.95351 2.63787 0
M  V30 6135 H 578.079 -0.814949 4.53536 0
M  V30 6136 H 576.394 -0.891594 4.06743 0
M  V30 6137 H 578.991 -3.66732 3.89117 0
M  V30 6138 H 579.334 -3.54469 2.18306 0
M  V30 6139 H 579.867 -2.24874 3.28141 0
M  V30 6140 H 576.606 -1.93582 6.26264 0
M  V30 6141 H 576.126 -3.17991 5.08569 0
M  V30 6142 H 577.805 -3.10637 5.67551 0
M  V30 6143 N 577.937 -1.40673 -0.710563 0
M  V30 6144 C 579.348 -1.34975 -1.28991 0
M  V30 6145 C 579.699 -0.0256272 -1.96183 0
M  V30 6146 O 578.824 0.876339 -1.97862 0
M  V30 6147 C 579.419 -2.44467 -2.34567 0
M  V30 6148 C 577.978 -2.42213 -2.88114 0
M  V30 6149 C 577.125 -2.25085 -1.61963 0
M  V30 6150 H 580.076 -1.50406 -0.506343 0
M  V30 6151 H 580.097 -2.12663 -3.15523 0
M  V30 6152 H 579.609 -3.40825 -1.85634 0
M  V30 6153 H 577.71 -1.49568 -3.41263 0
M  V30 6154 H 577.823 -3.37983 -3.39565 0
M  V30 6155 H 576.187 -1.72691 -1.87216 0
M  V30 6156 H 576.97 -3.23449 -1.15047 0
M  V30 6157 N 579.415 0.9433 -1.26252 0
M  V30 6158 C 580.365 2.02746 -1.04297 0
M  V30 6159 C 581.349 1.60882 0.0239435 0
M  V30 6160 O 582.541 1.75947 -0.192757 0
M  V30 6161 C 579.67 3.36585 -0.6757 0
M  V30 6162 C 578.756 3.84939 -1.77996 0
M  V30 6163 N 579.147 4.05966 -3.01704 0
M  V30 6164 C 577.445 4.13833 -1.66308 0
M  V30 6165 C 578.146 4.45987 -3.73458 0
M  V30 6166 N 577.122 4.52569 -3.01135 0
M  V30 6167 H 580.924 2.17012 -1.98199 0
M  V30 6168 H 578.438 1.12898 -1.16738 0
M  V30 6169 H 580.435 4.13896 -0.499571 0
M  V30 6170 H 579.095 3.2369 0.255863 0
M  V30 6171 H 580.106 3.92716 -3.37631 0
M  V30 6172 H 576.783 4.09739 -0.801267 0
M  V30 6173 H 578.173 4.70465 -4.79701 0
M  V30 6174 N 580.893 1.08022 1.14757 0
M  V30 6175 C 581.856 0.71048 2.1791 0
M  V30 6176 C 582.856 -0.252731 1.58801 0
M  V30 6177 O 584.046 -0.0327915 1.74169 0
M  V30 6178 C 581.178 0.0483203 3.40866 0
M  V30 6179 H 582.371 1.62384 2.52134 0
M  V30 6180 H 579.924 0.877595 1.29337 0
M  V30 6181 H 580.659 -0.876959 3.12218 0
M  V30 6182 H 580.444 0.741189 3.85031 0
M  V30 6183 H 581.934 -0.195471 4.17142 0
M  V30 6184 N 582.371 -1.3172 0.865308 0
M  V30 6185 C 583.617 -1.97168 0.474633 0
M  V30 6186 C 583.95 -1.68263 -0.969604 0
M  V30 6187 O 583.225 -0.976588 -1.68205 0
M  V30 6188 C 583.508 -3.52689 0.726808 0
M  V30 6189 C 583.361 -3.91185 2.22024 0
M  V30 6190 C 584.68 -4.39689 0.190201 0
M  V30 6191 H 581.799 -0.716185 0.17392 0
M  V30 6192 H 584.441 -1.55925 1.08569 0
M  V30 6193 H 582.591 -3.8795 0.206705 0
M  V30 6194 H 584.263 -3.66049 2.80724 0
M  V30 6195 H 582.506 -3.3996 2.69462 0
M  V30 6196 H 583.177 -4.99604 2.34735 0
M  V30 6197 H 585.653 -4.11225 0.635103 0
M  V30 6198 H 584.529 -5.47469 0.396132 0
M  V30 6199 H 584.79 -4.32683 -0.907625 0
M  V30 6200 N 583.85 -0.624285 -1.44708 0
M  V30 6201 C 585.098 -0.125802 -2.01708 0
M  V30 6202 C 585.418 1.2543 -1.49306 0
M  V30 6203 O 584.689 1.83198 -0.693924 0
M  V30 6204 H 583.269 -0.0435161 -0.745731 0
M  V30 6205 H 585.931 -0.809446 -1.77296 0
M  V30 6206 H 585.027 -0.0882734 -3.11975 0
M  V30 6207 N 585.328 1.53329 -0.364422 0
M  V30 6208 C 586.553 2.06132 0.229033 0
M  V30 6209 C 586.978 1.23625 1.41769 0
M  V30 6210 O 586.336 0.255038 1.79497 0
M  V30 6211 C 586.384 3.55544 0.60174 0
M  V30 6212 O 585.488 3.75771 1.69912 0
M  V30 6213 H 584.829 0.663148 0.0336213 0
M  V30 6214 H 587.359 1.97758 -0.524689 0
M  V30 6215 H 587.369 3.98549 0.873073 0
M  V30 6216 H 586.044 4.15039 -0.267421 0
M  V30 6217 H 584.621 3.44663 1.42343 0
M  V30 6218 N 586.806 0.0935595 1.57322 0
M  V30 6219 C 588.031 -0.582324 1.99057 0
M  V30 6220 C 588.456 -1.61025 0.972242 0
M  V30 6221 O 587.814 -1.81202 -0.0594622 0
M  V30 6222 C 587.862 -1.20799 3.39765 0
M  V30 6223 O 586.966 -2.32382 3.40694 0
M  V30 6224 H 586.307 -0.147884 0.647323 0
M  V30 6225 H 588.837 0.174516 2.03854 0
M  V30 6226 H 588.847 -1.54966 3.77425 0
M  V30 6227 H 587.522 -0.454914 4.13405 0
M  V30 6228 H 586.099 -1.99845 3.14827 0
M  V30 6229 N 588.284 -1.56567 -0.180126 0
M  V30 6230 C 589.194 -1.98947 -1.24327 0
M  V30 6231 C 590.21 -0.899446 -1.4895 0
M  V30 6232 O 591.386 -1.20639 -1.61271 0
M  V30 6233 C 588.451 -2.33328 -2.56435 0
M  V30 6234 C 587.512 -3.56114 -2.39752 0
M  V30 6235 C 586.745 -3.88845 -3.65561 0
M  V30 6236 O 586.968 -3.22662 -4.70368 0
M  V30 6237 O 585.902 -4.82226 -3.60197 0
M  V30 6238 H 589.728 -2.89634 -0.913565 0
M  V30 6239 H 587.313 -1.44319 -0.386306 0
M  V30 6240 H 589.195 -2.5645 -3.34382 0
M  V30 6241 H 587.87 -1.45806 -2.89002 0
M  V30 6242 H 586.777 -3.38221 -1.59866 0
M  V30 6243 H 588.11 -4.4415 -2.12113 0
M  V30 6244 N 589.762 0.448376 -1.51087 0
M  V30 6245 C 591.039 1.20926 -1.53741 0
M  V30 6246 C 591.419 2.09025 -0.295222 0
M  V30 6247 O 590.767 2.16851 0.720283 0
M  V30 6248 C 590.977 2.02067 -2.84552 0
M  V30 6249 C 592.325 2.59486 -3.36084 0
M  V30 6250 O 593.349 2.12289 -2.86028 0
M  V30 6251 O 592.208 3.45539 -4.23397 0
M  V30 6252 H 589.302 0.549951 -0.617643 0
M  V30 6253 H 591.848 0.458344 -1.63393 0
M  V30 6254 H 590.62 1.37291 -3.66425 0
M  V30 6255 H 590.243 2.84246 -2.78011 0
M  V30 6256 N 591.24 1.41047 0.703093 0
M  V30 6257 C 592.17 1.45067 1.82969 0
M  V30 6258 C 593.151 0.31016 1.67248 0
M  V30 6259 O 594.336 0.520548 1.87093 0
M  V30 6260 C 591.466 1.32478 3.2104 0
M  V30 6261 C 590.42 2.44262 3.51454 0
M  V30 6262 C 589.746 2.16742 4.88801 0
M  V30 6263 C 591.046 3.86606 3.51189 0
M  V30 6264 H 592.74 2.39353 1.79863 0
M  V30 6265 H 590.286 1.15206 0.863919 0
M  V30 6266 H 592.239 1.33904 3.99559 0
M  V30 6267 H 590.963 0.346735 3.24754 0
M  V30 6268 H 589.622 2.42107 2.75282 0
M  V30 6269 H 589.27 1.17299 4.89132 0
M  V30 6270 H 588.97 2.91643 5.10116 0
M  V30 6271 H 590.494 2.19872 5.69639 0
M  V30 6272 H 591.908 3.90517 4.19725 0
M  V30 6273 H 590.305 4.61128 3.84033 0
M  V30 6274 H 591.375 4.15296 2.50315 0
M  V30 6275 N 592.718 -0.936591 1.26751 0
M  V30 6276 C 593.665 -2.03597 1.08706 0
M  V30 6277 C 594.635 -1.66097 -0.00926542 0
M  V30 6278 O 595.82 -1.90199 0.151377 0
M  V30 6279 C 592.96 -3.3727 0.73094 0
M  V30 6280 C 592.073 -3.87778 1.90399 0
M  V30 6281 C 591.208 -5.09859 1.49056 0
M  V30 6282 C 590.247 -5.5264 2.63164 0
M  V30 6283 N 589.384 -6.65921 2.22471 0
M  V30 6284 H 594.224 -2.18364 2.02784 0
M  V30 6285 H 591.761 -1.06985 1.00958 0
M  V30 6286 H 593.719 -4.14128 0.505328 0
M  V30 6287 H 592.349 -3.22337 -0.172868 0
M  V30 6288 H 591.401 -3.07279 2.2424 0
M  V30 6289 H 592.713 -4.15464 2.76028 0
M  V30 6290 H 591.867 -5.9419 1.22567 0
M  V30 6291 H 590.606 -4.8393 0.60524 0
M  V30 6292 H 589.611 -4.66863 2.90377 0
M  V30 6293 H 590.836 -5.80568 3.52303 0
M  V30 6294 H 588.782 -6.41667 1.36379 0
M  V30 6295 H 588.699 -6.93216 3.01641 0
M  V30 6296 H 589.967 -7.53616 1.99205 0
M  V30 6297 N 594.196 -1.08629 -1.14182 0
M  V30 6298 C 595.143 -0.718299 -2.19338 0
M  V30 6299 C 596.113 0.296587 -1.63431 0
M  V30 6300 O 597.298 0.180079 -1.89948 0
M  V30 6301 C 594.438 -0.136203 -3.44831 0
M  V30 6302 C 593.551 -1.20414 -4.14879 0
M  V30 6303 C 592.686 -0.585666 -5.27962 0
M  V30 6304 C 591.725 -1.63548 -5.89846 0
M  V30 6305 N 590.862 -1.03864 -6.94375 0
M  V30 6306 H 595.702 -1.61932 -2.50164 0
M  V30 6307 H 593.239 -0.80919 -1.22844 0
M  V30 6308 H 595.197 0.219021 -4.16625 0
M  V30 6309 H 593.827 0.728121 -3.14481 0
M  V30 6310 H 592.879 -1.67676 -3.41451 0
M  V30 6311 H 594.191 -1.99959 -4.56966 0
M  V30 6312 H 593.345 -0.178818 -6.06436 0
M  V30 6313 H 592.084 0.24142 -4.87102 0
M  V30 6314 H 591.089 -2.05197 -5.10073 0
M  V30 6315 H 592.314 -2.46509 -6.3278 0
M  V30 6316 H 590.26 -0.232687 -6.55587 0
M  V30 6317 H 590.177 -1.77116 -7.3496 0
M  V30 6318 H 591.445 -0.657724 -7.7672 0
M  V30 6319 N 595.674 1.31259 -0.872281 0
M  V30 6320 C 596.584 2.32221 -0.333255 0
M  V30 6321 C 597.6 1.6481 0.558013 0
M  V30 6322 O 598.776 1.96212 0.454175 0
M  V30 6323 C 595.841 3.43708 0.454479 0
M  V30 6324 C 594.902 4.26774 -0.465024 0
M  V30 6325 C 594.135 5.32937 0.28521 0
M  V30 6326 O 594.358 5.49968 1.513 0
M  V30 6327 O 593.292 6.00834 -0.358126 0
M  V30 6328 H 597.118 2.80252 -1.17016 0
M  V30 6329 H 594.703 1.352 -0.635724 0
M  V30 6330 H 596.585 4.11656 0.900963 0
M  V30 6331 H 595.26 2.97836 1.26789 0
M  V30 6332 H 594.167 3.61571 -0.960055 0
M  V30 6333 H 595.5 4.76217 -1.2441 0
M  V30 6334 N 597.152 0.631951 1.44375 0
M  V30 6335 C 598.062 -0.073674 2.34484 0
M  V30 6336 C 599.078 -0.834825 1.52665 0
M  V30 6337 O 600.254 -0.786902 1.85391 0
M  V30 6338 C 597.319 -1.04247 3.30656 0
M  V30 6339 C 596.38 -0.280602 4.28382 0
M  V30 6340 C 595.613 -1.20325 5.19959 0
M  V30 6341 O 595.836 -2.44199 5.15484 0
M  V30 6342 O 594.77 -0.687128 5.97965 0
M  V30 6343 H 598.596 0.667477 2.96274 0
M  V30 6344 H 596.181 0.392144 1.44162 0
M  V30 6345 H 598.063 -1.59981 3.89851 0
M  V30 6346 H 596.738 -1.76422 2.71398 0
M  V30 6347 H 595.645 0.319804 3.72731 0
M  V30 6348 H 596.978 0.401144 4.90563 0
M  V30 6349 N 598.631 -1.53133 0.372548 0
M  V30 6350 C 599.594 -2.24569 -0.458389 0
M  V30 6351 C 600.594 -1.25603 -1.00402 0
M  V30 6352 O 601.784 -1.49827 -0.888672 0
M  V30 6353 C 598.916 -2.98783 -1.6414 0
M  V30 6354 H 600.109 -2.99436 0.166799 0
M  V30 6355 H 597.662 -1.55805 0.124357 0
M  V30 6356 H 598.397 -2.28176 -2.30448 0
M  V30 6357 H 598.182 -3.71404 -1.25704 0
M  V30 6358 H 599.672 -3.53068 -2.23008 0
M  V30 6359 N 600.109 -0.101901 -1.5727 0
M  V30 6360 C 601.072 0.840129 -2.13247 0
M  V30 6361 C 602.072 1.20625 -1.06331 0
M  V30 6362 O 603.262 1.13456 -1.32186 0
M  V30 6363 C 600.394 2.13372 -2.65867 0
M  V30 6364 H 601.587 0.353945 -2.97804 0
M  V30 6365 H 599.14 0.147167 -1.55606 0
M  V30 6366 H 599.875 2.66461 -1.84849 0
M  V30 6367 H 599.66 1.88085 -3.44044 0
M  V30 6368 H 601.15 2.80748 -3.09145 0
M  V30 6369 N 601.587 1.56661 0.17182 0
M  V30 6370 C 602.835 1.81606 0.886774 0
M  V30 6371 C 603.156 0.678818 1.82803 0
M  V30 6372 O 602.426 -0.301354 1.93568 0
M  V30 6373 H 601.006 0.669934 0.330451 0
M  V30 6374 H 603.668 1.94142 0.171757 0
M  V30 6375 H 602.764 2.75634 1.46398 0
M  V30 6376 N 603.065 -0.440357 1.51323 0
M  V30 6377 C 604.314 -1.18697 1.63076 0
M  V30 6378 C 604.627 -1.92418 0.35136 0
M  V30 6379 O 605.833 -2.69258 0.348221 0
M  V30 6380 C 604.289 -2.15849 2.87988 0
M  V30 6381 C 603.897 -1.47789 4.22921 0
M  V30 6382 C 605.641 -2.90962 3.09098 0
M  V30 6383 C 603.548 -2.43407 5.38987 0
M  V30 6384 H 602.478 -0.44676 0.607389 0
M  V30 6385 H 605.129 -0.454313 1.77787 0
M  V30 6386 H 603.511 -2.92537 2.66905 0
M  V30 6387 H 604.685 -0.7668 4.54375 0
M  V30 6388 H 603 -0.848404 4.07665 0
M  V30 6389 H 605.597 -3.62584 3.92985 0
M  V30 6390 H 605.94 -3.52133 2.22053 0
M  V30 6391 H 606.473 -2.21381 3.30507 0
M  V30 6392 H 603.212 -1.86929 6.28282 0
M  V30 6393 H 602.732 -3.12579 5.11913 0
M  V30 6394 H 604.411 -3.046 5.70813 0
M  V30 6395 N 604.543 -1.41418 -0.695603 0
M  V30 6396 C 605.506 -1.42988 -1.79129 0
M  V30 6397 C 606.506 -0.320514 -1.57573 0
M  V30 6398 O 607.696 -0.58039 -1.64247 0
M  V30 6399 C 604.828 -1.24122 -3.175 0
M  V30 6400 H 606.021 -2.40526 -1.7913 0
M  V30 6401 H 603.574 -1.2756 -0.903225 0
M  V30 6402 H 604.309 -0.274253 -3.23138 0
M  V30 6403 H 604.094 -2.045 -3.34547 0
M  V30 6404 H 605.584 -1.28056 -3.97481 0
M  V30 6405 N 606.021 0.929856 -1.27246 0
M  V30 6406 C 607.437 1.20542 -1.04603 0
M  V30 6407 C 607.637 2.00276 0.221754 0
M  V30 6408 O 606.693 2.34835 0.927833 0
M  V30 6409 C 608.006 1.95566 -2.28417 0
M  V30 6410 C 609.554 2.08513 -2.33433 0
M  V30 6411 C 610.029 2.86943 -3.5697 0
M  V30 6412 N 611.52 2.94512 -3.57515 0
M  V30 6413 C 612.255 3.55656 -4.49774 0
M  V30 6414 N 611.751 4.18209 -5.52334 0
M  V30 6415 N 613.544 3.53038 -4.37402 0
M  V30 6416 H 605.695 0.397113 -2.08655 0
M  V30 6417 H 607.958 0.238277 -0.917566 0
M  V30 6418 H 607.664 1.44395 -3.20691 0
M  V30 6419 H 607.538 2.9619 -2.33563 0
M  V30 6420 H 609.925 2.58872 -1.41666 0
M  V30 6421 H 610.006 1.07117 -2.32292 0
M  V30 6422 H 609.65 2.37268 -4.49072 0
M  V30 6423 H 609.58 3.8862 -3.55362 0
M  V30 6424 H 612.071 2.50053 -2.83341 0
M  V30 6425 H 612.384 4.62796 -6.18902 0
M  V30 6426 H 610.729 4.16761 -5.56179 0
M  V30 6427 H 613.92 3.0337 -3.56489 0
M  V30 6428 H 614.093 4.004 -5.09493 0
M  V30 6429 N 607.499 1.09233 1.13605 0
M  V30 6430 C 608.91 0.846839 1.6639 0
M  V30 6431 C 609.261 -0.625031 1.85978 0
M  V30 6432 O 608.386 -1.48173 1.57714 0
M  V30 6433 C 608.981 1.5307 3.0225 0
M  V30 6434 C 607.54 1.33223 3.52035 0
M  V30 6435 C 606.687 1.58806 2.27323 0
M  V30 6436 H 609.638 1.25175 0.975541 0
M  V30 6437 H 609.659 0.96267 3.68121 0
M  V30 6438 H 609.171 2.60192 2.87961 0
M  V30 6439 H 607.272 0.282091 3.71531 0
M  V30 6440 H 607.385 2.0657 4.32279 0
M  V30 6441 H 605.749 1.01007 2.33815 0
M  V30 6442 H 606.532 2.67153 2.15602 0
M  V30 6443 N 608.977 -1.30795 0.87923 0
M  V30 6444 C 609.907 -2.30742 0.357796 0
M  V30 6445 C 610.888 -1.60747 -0.556283 0
M  V30 6446 O 612.073 -1.88393 -0.47135 0
M  V30 6447 C 609.203 -3.44583 -0.433555 0
M  V30 6448 C 608.157 -4.26235 0.388251 0
M  V30 6449 C 607.483 -5.32073 -0.529352 0
M  V30 6450 C 608.783 -4.96303 1.62729 0
M  V30 6451 H 610.477 -2.74605 1.19299 0
M  V30 6452 H 608.023 -1.32017 0.575104 0
M  V30 6453 H 609.976 -4.13563 -0.808934 0
M  V30 6454 H 608.7 -2.99511 -1.30234 0
M  V30 6455 H 607.359 -3.58936 0.745695 0
M  V30 6456 H 607.007 -4.83249 -1.39569 0
M  V30 6457 H 606.707 -5.87598 0.0166741 0
M  V30 6458 H 608.231 -6.0391 -0.901373 0
M  V30 6459 H 609.645 -5.5783 1.32283 0
M  V30 6460 H 608.042 -5.61666 2.11309 0
M  V30 6461 H 609.112 -4.22758 2.37494 0
M  V30 6462 N 610.455 -0.639598 -1.44038 0
M  V30 6463 C 611.365 0.0612377 -2.3452 0
M  V30 6464 C 612.381 0.826717 -1.53106 0
M  V30 6465 O 613.557 0.777059 -1.85806 0
M  V30 6466 C 610.622 1.02492 -3.31204 0
M  V30 6467 C 609.683 0.25788 -4.28525 0
M  V30 6468 C 608.916 1.17566 -5.2059 0
M  V30 6469 O 609.139 2.41461 -5.16771 0
M  V30 6470 O 608.073 0.655407 -5.98321 0
M  V30 6471 H 611.899 -0.68318 -2.95916 0
M  V30 6472 H 609.484 -0.399784 -1.43952 0
M  V30 6473 H 611.366 1.57911 -3.90694 0
M  V30 6474 H 610.041 1.7498 -2.7233 0
M  V30 6475 H 608.948 -0.339566 -3.72556 0
M  V30 6476 H 610.281 -0.427154 -4.90343 0
M  V30 6477 N 611.933 1.52934 -0.380664 0
M  V30 6478 C 612.88 2.26197 0.458641 0
M  V30 6479 C 613.85 1.27462 1.06502 0
M  V30 6480 O 615.035 1.56274 1.09467 0
M  V30 6481 C 612.175 3.06571 1.58456 0
M  V30 6482 C 611.288 4.20222 1.00189 0
M  V30 6483 C 610.423 4.88007 2.09815 0
M  V30 6484 C 609.462 5.93665 1.49092 0
M  V30 6485 N 608.599 6.55081 2.52613 0
M  V30 6486 H 613.439 2.975 -0.172595 0
M  V30 6487 H 610.976 1.4678 -0.0969426 0
M  V30 6488 H 612.934 3.51455 2.24801 0
M  V30 6489 H 611.564 2.37494 2.18624 0
M  V30 6490 H 610.616 3.79714 0.228292 0
M  V30 6491 H 611.928 4.96102 0.518064 0
M  V30 6492 H 611.082 5.36151 2.83948 0
M  V30 6493 H 609.821 4.11632 2.61555 0
M  V30 6494 H 608.826 5.44868 0.7348 0
M  V30 6495 H 610.051 6.71969 0.981582 0
M  V30 6496 H 607.997 5.8155 3.03538 0
M  V30 6497 H 607.914 7.26548 2.08961 0
M  V30 6498 H 609.182 7.07871 3.26402 0
M  V30 6499 N 613.412 0.11024 1.57214 0
M  V30 6500 C 614.342 -0.840002 2.17867 0
M  V30 6501 C 615.323 -1.28352 1.11624 0
M  V30 6502 O 616.508 -1.3477 1.39824 0
M  V30 6503 C 613.638 -2.09349 2.77111 0
M  V30 6504 C 612.592 -1.78807 3.8886 0
M  V30 6505 C 611.918 -3.11112 4.34872 0
M  V30 6506 C 613.218 -1.0632 5.11364 0
M  V30 6507 H 614.912 -0.334608 2.97524 0
M  V30 6508 H 612.458 -0.159502 1.43114 0
M  V30 6509 H 614.411 -2.76275 3.18198 0
M  V30 6510 H 613.135 -2.62198 1.9473 0
M  V30 6511 H 611.794 -1.14273 3.48335 0
M  V30 6512 H 611.442 -3.61877 3.49362 0
M  V30 6513 H 611.142 -2.91453 5.10224 0
M  V30 6514 H 612.666 -3.79171 4.78604 0
M  V30 6515 H 614.08 -1.63383 5.49526 0
M  V30 6516 H 612.477 -0.967876 5.92243 0
M  V30 6517 H 613.547 -0.0484569 4.84876 0
M  V30 6518 N 614.89 -1.56749 -0.16351 0
M  V30 6519 C 616.115 -1.86938 -0.898264 0
M  V30 6520 C 616.54 -0.697456 -1.74692 0
M  V30 6521 O 615.898 0.353327 -1.77824 0
M  V30 6522 C 615.946 -3.15599 -1.74441 0
M  V30 6523 O 615.05 -2.98371 -2.8469 0
M  V30 6524 H 614.391 -0.614659 -0.251178 0
M  V30 6525 H 616.921 -2.03979 -0.159298 0
M  V30 6526 H 616.931 -3.47202 -2.14277 0
M  V30 6527 H 615.606 -4.00505 -1.1211 0
M  V30 6528 H 614.183 -2.7814 -2.4838 0
M  V30 6529 N 616.368 0.432326 -1.51554 0
M  V30 6530 C 617.779 1.01202 -1.56892 0
M  V30 6531 C 618.13 1.92175 -0.395394 0
M  V30 6532 O 617.255 2.10844 0.487198 0
M  V30 6533 C 617.85 1.84217 -2.8434 0
M  V30 6534 C 616.409 2.37228 -2.92233 0
M  V30 6535 C 615.556 1.16576 -2.51606 0
M  V30 6536 H 618.507 0.213407 -1.57259 0
M  V30 6537 H 618.528 2.69721 -2.68385 0
M  V30 6538 H 618.04 1.17979 -3.69733 0
M  V30 6539 H 616.141 3.06905 -2.11282 0
M  V30 6540 H 616.254 2.69682 -3.95991 0
M  V30 6541 H 614.618 1.51263 -2.04919 0
M  V30 6542 H 615.401 0.519404 -3.39348 0
M  V30 6543 N 617.846 1.41785 0.688094 0
M  V30 6544 C 618.809 1.43936 1.78368 0
M  V30 6545 C 619.809 0.328866 1.57401 0
M  V30 6546 O 620.999 0.589093 1.63937 0
M  V30 6547 C 618.131 1.25804 3.16838 0
M  V30 6548 H 619.324 2.41472 1.77852 0
M  V30 6549 H 616.877 1.28037 0.896448 0
M  V30 6550 H 617.612 0.291386 3.22988 0
M  V30 6551 H 617.397 2.06272 3.33458 0
M  V30 6552 H 618.887 1.30162 3.96797 0
M  V30 6553 N 619.324 -0.923095 1.27737 0
M  V30 6554 C 620.254 -2.04124 1.13383 0
M  V30 6555 C 621.235 -1.70066 0.0340658 0
M  V30 6556 O 622.42 -1.93068 0.209383 0
M  V30 6557 C 619.55 -3.3831 0.785097 0
M  V30 6558 C 618.504 -3.86496 1.8386 0
M  V30 6559 C 617.83 -5.1754 1.34373 0
M  V30 6560 C 619.13 -4.09381 3.24353 0
M  V30 6561 H 620.824 -2.1639 2.06919 0
M  V30 6562 H 618.37 -1.03976 0.996243 0
M  V30 6563 H 620.323 -4.16016 0.671485 0
M  V30 6564 H 619.047 -3.2607 -0.185969 0
M  V30 6565 H 617.706 -3.10987 1.9412 0
M  V30 6566 H 617.354 -5.01696 0.361989 0
M  V30 6567 H 617.054 -5.50751 2.04811 0
M  V30 6568 H 618.578 -5.97811 1.24315 0
M  V30 6569 H 619.992 -4.77641 3.17067 0
M  V30 6570 H 618.389 -4.53906 3.92542 0
M  V30 6571 H 619.459 -3.14515 3.69064 0
M  V30 6572 N 620.802 -1.09834 -1.13024 0
M  V30 6573 C 622.027 -0.85909 -1.88771 0
M  V30 6574 C 622.452 0.584402 -1.78791 0
M  V30 6575 O 621.81 1.41101 -1.13842 0
M  V30 6576 C 621.858 -1.30427 -3.36186 0
M  V30 6577 O 620.962 -0.465368 -4.09766 0
M  V30 6578 H 620.303 -0.310786 -0.586778 0
M  V30 6579 H 622.833 -1.46355 -1.42973 0
M  V30 6580 H 622.843 -1.2915 -3.8702 0
M  V30 6581 H 621.518 -2.3555 -3.42767 0
M  V30 6582 H 620.095 -0.542814 -3.68928 0
M  V30 6583 N 622.28 1.30327 -0.886154 0
M  V30 6584 C 623.526 1.96388 -0.505941 0
M  V30 6585 C 623.859 1.69784 0.942712 0
M  V30 6586 O 623.134 1.00322 1.6663 0
M  V30 6587 C 623.417 3.51488 -0.782826 0
M  V30 6588 C 623.27 3.87603 -2.28219 0
M  V30 6589 C 624.589 4.39331 -0.260128 0
M  V30 6590 H 621.708 0.713327 -0.185292 0
M  V30 6591 H 624.35 1.54178 -1.11036 0
M  V30 6592 H 622.5 3.87572 -0.268399 0
M  V30 6593 H 624.172 3.61537 -2.86512 0
M  V30 6594 H 622.415 3.3563 -2.74837 0
M  V30 6595 H 623.086 4.95806 -2.42653 0
M  V30 6596 H 625.562 4.10162 -0.700444 0
M  V30 6597 H 624.438 5.46769 -0.483179 0
M  V30 6598 H 624.699 4.34072 0.838674 0
M  V30 6599 N 623.758 0.647228 1.43697 0
M  V30 6600 C 625.007 0.155552 2.01099 0
M  V30 6601 C 625.32 -1.23569 1.51624 0
M  V30 6602 O 626.526 -1.82226 2.01261 0
M  V30 6603 C 624.982 0.227296 3.59182 0
M  V30 6604 C 624.59 1.62086 4.17651 0
M  V30 6605 C 626.334 -0.207085 4.23995 0
M  V30 6606 C 624.241 1.64685 5.68008 0
M  V30 6607 H 623.171 0.0543895 0.752036 0
M  V30 6608 H 625.822 0.808386 1.64734 0
M  V30 6609 H 624.204 -0.492937 3.9292 0
M  V30 6610 H 625.378 2.36597 3.95422 0
M  V30 6611 H 623.693 2.0007 3.65186 0
M  V30 6612 H 626.29 -0.207426 5.34298 0
M  V30 6613 H 626.633 -1.23742 3.97484 0
M  V30 6614 H 627.166 0.461193 3.95118 0
M  V30 6615 H 623.905 2.65608 5.99277 0
M  V30 6616 H 623.425 0.944914 5.9231 0
M  V30 6617 H 625.104 1.38792 6.31938 0
M  V30 6618 N 625.236 -1.5273 0.388769 0
M  V30 6619 C 626.166 -2.29353 -0.438111 0
M  V30 6620 C 627.147 -1.32719 -1.06394 0
M  V30 6621 O 628.332 -1.61612 -1.07681 0
M  V30 6622 C 625.462 -3.09995 -1.56589 0
M  V30 6623 C 624.416 -4.14509 -1.06613 0
M  V30 6624 C 623.742 -4.83372 -2.28594 0
M  V30 6625 C 625.042 -5.22127 -0.134459 0
M  V30 6626 H 626.736 -2.98723 0.201206 0
M  V30 6627 H 624.282 -1.43665 0.0982089 0
M  V30 6628 H 626.235 -3.62357 -2.15118 0
M  V30 6629 H 624.959 -2.38357 -2.23279 0
M  V30 6630 H 623.618 -3.63128 -0.503383 0
M  V30 6631 H 623.266 -4.08283 -2.93792 0
M  V30 6632 H 622.966 -5.54012 -1.95817 0
M  V30 6633 H 624.49 -5.38538 -2.87766 0
M  V30 6634 H 625.904 -5.69851 -0.627914 0
M  V30 6635 H 624.301 -6.00011 0.103534 0
M  V30 6636 H 625.371 -4.77971 0.816798 0
M  V30 6637 N 626.714 -0.118576 -1.57153 0
M  V30 6638 C 627.991 0.583062 -1.86708 0
M  V30 6639 C 628.371 1.84841 -1.01967 0
M  V30 6640 O 627.719 2.28288 -0.0984673 0
M  V30 6641 C 627.929 0.875912 -3.3783 0
M  V30 6642 C 629.277 1.22916 -4.0642 0
M  V30 6643 O 630.301 0.966188 -3.42846 0
M  V30 6644 O 629.16 1.72269 -5.18638 0
M  V30 6645 H 626.254 0.294185 -0.772906 0
M  V30 6646 H 628.8 -0.153048 -1.69008 0
M  V30 6647 H 627.572 -0.0207776 -3.91294 0
M  V30 6648 H 627.195 1.66719 -3.60958 0
M  V30 6649 N 628.193 1.56834 0.155195 0
M  V30 6650 C 629.423 1.86778 0.883044 0
M  V30 6651 C 629.831 0.703824 1.75622 0
M  V30 6652 O 629.174 -0.33581 1.80605 0
M  V30 6653 C 629.236 3.1133 1.79761 0
M  V30 6654 C 628.9 4.43504 1.10242 0
M  V30 6655 C 629.897 5.17859 0.460204 0
M  V30 6656 C 627.582 4.90233 1.09437 0
M  V30 6657 C 629.576 6.37144 -0.180782 0
M  V30 6658 C 627.263 6.09444 0.449569 0
M  V30 6659 C 628.261 6.82744 -0.186888 0
M  V30 6660 O 627.949 7.99692 -0.821486 0
M  V30 6661 H 627.681 0.62352 0.261149 0
M  V30 6662 H 630.235 2.04813 0.155204 0
M  V30 6663 H 628.465 2.89282 2.56618 0
M  V30 6664 H 630.154 3.27587 2.39669 0
M  V30 6665 H 630.92 4.8283 0.458289 0
M  V30 6666 H 626.799 4.33109 1.57917 0
M  V30 6667 H 630.343 6.94296 -0.678154 0
M  V30 6668 H 626.24 6.43936 0.449123 0
M  V30 6669 H 627.008 8.15306 -0.722337 0
M  V30 6670 N 629.671 -0.424282 1.51781 0
M  V30 6671 C 630.948 -1.18464 1.55646 0
M  V30 6672 C 631.328 -2.08529 0.328438 0
M  V30 6673 O 630.676 -2.17969 -0.685693 0
M  V30 6674 C 630.886 -1.97514 2.87731 0
M  V30 6675 C 632.234 -2.54106 3.40169 0
M  V30 6676 O 633.258 -2.07711 2.89369 0
M  V30 6677 O 632.117 -3.38759 4.28841 0
M  V30 6678 H 629.211 -0.540055 0.626314 0
M  V30 6679 H 631.757 -0.432291 1.64102 0
M  V30 6680 H 630.529 -1.31444 3.68562 0
M  V30 6681 H 630.152 -2.79787 2.82498 0
M  V30 6682 N 631.149 -1.42148 -0.680565 0
M  V30 6683 C 632.377 -1.45696 -1.46902 0
M  V30 6684 C 632.792 -0.0665858 -1.88683 0
M  V30 6685 O 632.149 0.917436 -1.57764 0
M  V30 6686 C 632.2 -2.37898 -2.72188 0
M  V30 6687 O 631.921 -3.71526 -2.32163 0
M  V30 6688 C 633.422 -2.50407 -3.65802 0
M  V30 6689 H 630.642 -0.495729 -0.45221 0
M  V30 6690 H 633.186 -1.866 -0.836709 0
M  V30 6691 H 631.341 -2.00263 -3.31622 0
M  V30 6692 H 631.755 -4.20849 -3.13027 0
M  V30 6693 H 633.229 -3.19056 -4.50452 0
M  V30 6694 H 633.706 -1.5401 -4.11312 0
M  V30 6695 H 634.312 -2.8874 -3.12265 0
M  V30 6696 N 632.627 0.916307 -1.28225 0
M  V30 6697 C 633.904 1.64429 -1.05936 0
M  V30 6698 C 634.284 2.07234 0.402139 0
M  V30 6699 O 633.632 1.81535 1.3877 0
M  V30 6700 C 633.842 2.83773 -2.03159 0
M  V30 6701 C 635.19 3.54852 -2.33164 0
M  V30 6702 O 636.214 2.93918 -2.01223 0
M  V30 6703 O 635.073 4.64663 -2.87664 0
M  V30 6704 H 632.167 0.721221 -0.404683 0
M  V30 6705 H 634.713 0.965838 -1.39534 0
M  V30 6706 H 633.485 2.49217 -3.01673 0
M  V30 6707 H 633.108 3.59333 -1.70192 0
M  V30 6708 N 634.105 1.10431 1.1244 0
M  V30 6709 C 635.351 0.847972 1.84221 0
M  V30 6710 C 635.684 -0.624903 1.83871 0
M  V30 6711 O 634.959 -1.46074 1.28423 0
M  V30 6712 C 635.242 1.39695 3.319 0
M  V30 6713 C 635.095 2.93668 3.40704 0
M  V30 6714 C 636.414 1.03924 4.27654 0
M  V30 6715 H 633.533 0.309502 0.668863 0
M  V30 6716 H 636.175 1.36745 1.31912 0
M  V30 6717 H 634.325 0.955095 3.76577 0
M  V30 6718 H 635.997 3.46379 3.04662 0
M  V30 6719 H 634.24 3.30272 2.81252 0
M  V30 6720 H 634.911 3.27162 4.446 0
M  V30 6721 H 637.387 1.42049 3.91102 0
M  V30 6722 H 636.263 1.45027 5.29394 0
M  V30 6723 H 636.524 -0.051336 4.4207 0
M  V30 6724 N 635.583 -1.29855 0.893053 0
M  V30 6725 C 636.808 -2.00512 0.530066 0
M  V30 6726 C 637.233 -1.66446 -0.876199 0
M  V30 6727 O 636.591 -0.885446 -1.58207 0
M  V30 6728 C 636.639 -3.53308 0.721505 0
M  V30 6729 O 635.743 -4.11764 -0.228994 0
M  V30 6730 H 635.084 -0.630617 0.207891 0
M  V30 6731 H 637.614 -1.6551 1.20282 0
M  V30 6732 H 637.624 -4.03206 0.623599 0
M  V30 6733 H 636.299 -3.77439 1.74678 0
M  V30 6734 H 634.876 -3.72805 -0.0841034 0
M  V30 6735 N 637.061 -0.65484 -1.43351 0
M  V30 6736 C 637.991 0.0221809 -2.33489 0
M  V30 6737 C 638.972 0.810272 -1.49561 0
M  V30 6738 O 640.157 0.771426 -1.78221 0
M  V30 6739 C 637.287 0.988117 -3.32947 0
M  V30 6740 C 636.241 0.310026 -4.26876 0
M  V30 6741 C 635.567 1.38752 -5.16384 0
M  V30 6742 C 636.867 -0.798589 -5.16159 0
M  V30 6743 H 638.561 -0.730571 -2.9035 0
M  V30 6744 H 636.107 -0.352773 -1.39612 0
M  V30 6745 H 638.06 1.47067 -3.94904 0
M  V30 6746 H 636.784 1.77205 -2.74346 0
M  V30 6747 H 635.443 -0.152097 -3.66284 0
M  V30 6748 H 635.091 2.16293 -4.54121 0
M  V30 6749 H 634.791 0.939051 -5.80048 0
M  V30 6750 H 636.315 1.87141 -5.81215 0
M  V30 6751 H 637.729 -0.398126 -5.71916 0
M  V30 6752 H 636.126 -1.17163 -5.88552 0
M  V30 6753 H 637.196 -1.65588 -4.55751 0
M  V30 6754 N 638.539 1.52521 -0.396863 0
M  V30 6755 C 639.449 2.30403 0.44178 0
M  V30 6756 C 640.465 1.37625 1.06468 0
M  V30 6757 O 641.641 1.70697 1.06886 0
M  V30 6758 C 638.706 3.1013 1.54986 0
M  V30 6759 C 637.767 4.18628 0.951279 0
M  V30 6760 C 637 4.94543 2.00655 0
M  V30 6761 O 637.223 4.70629 3.22281 0
M  V30 6762 O 636.157 5.797 1.61962 0
M  V30 6763 H 639.983 3.03087 -0.192892 0
M  V30 6764 H 637.568 1.48537 -0.16038 0
M  V30 6765 H 639.45 3.59816 2.19341 0
M  V30 6766 H 638.125 2.40251 2.16935 0
M  V30 6767 H 637.032 3.73119 0.270773 0
M  V30 6768 H 638.365 4.90763 0.375887 0
M  V30 6769 N 640.017 0.126909 1.57088 0
M  V30 6770 C 640.964 -0.82036 2.15728 0
M  V30 6771 C 641.934 -1.25811 1.08447 0
M  V30 6772 O 643.119 -1.33422 1.36393 0
M  V30 6773 C 640.259 -2.06199 2.76724 0
M  V30 6774 C 639.372 -1.67188 3.98337 0
M  V30 6775 C 638.507 -2.86378 4.47393 0
M  V30 6776 C 637.546 -2.43644 5.61519 0
M  V30 6777 N 636.683 -3.55775 6.05284 0
M  V30 6778 H 641.523 -0.313472 2.96347 0
M  V30 6779 H 639.06 -0.14303 1.46403 0
M  V30 6780 H 641.018 -2.78959 3.10222 0
M  V30 6781 H 639.648 -2.54333 1.98782 0
M  V30 6782 H 638.7 -0.842714 3.70948 0
M  V30 6783 H 640.012 -1.31789 4.81075 0
M  V30 6784 H 639.166 -3.67353 4.82842 0
M  V30 6785 H 637.905 -3.25009 3.63621 0
M  V30 6786 H 636.91 -1.61104 5.25667 0
M  V30 6787 H 638.135 -2.06122 6.47063 0
M  V30 6788 H 636.081 -3.94065 5.24451 0
M  V30 6789 H 635.998 -3.24325 6.82898 0
M  V30 6790 H 637.266 -4.37166 6.45373 0
M  V30 6791 N 641.495 -1.56914 -0.146875 0
M  V30 6792 C 642.744 -1.82546 -0.857898 0
M  V30 6793 C 643.057 -0.708169 -1.8233 0
M  V30 6794 O 644.263 -0.850093 -2.57848 0
M  V30 6795 C 642.719 -3.23548 -1.57623 0
M  V30 6796 C 642.327 -4.43212 -0.653224 0
M  V30 6797 C 644.071 -3.58453 -2.27402 0
M  V30 6798 C 641.978 -5.75237 -1.37318 0
M  V30 6799 H 640.908 -0.680786 -0.32411 0
M  V30 6800 H 643.559 -1.83166 -0.110639 0
M  V30 6801 H 641.941 -3.17315 -2.36912 0
M  V30 6802 H 643.115 -4.60682 0.104452 0
M  V30 6803 H 641.43 -4.16351 -0.0638336 0
M  V30 6804 H 644.027 -4.54349 -2.81907 0
M  V30 6805 H 644.37 -2.84516 -3.03901 0
M  V30 6806 H 644.903 -3.66347 -1.55032 0
M  V30 6807 H 641.642 -6.52269 -0.650041 0
M  V30 6808 H 641.162 -5.61703 -2.10357 0
M  V30 6809 H 642.841 -6.18039 -1.91406 0
M  V30 6810 N 642.974 0.416227 -1.52004 0
M  V30 6811 C 643.906 1.52552 -1.71058 0
M  V30 6812 C 644.919 1.51693 -0.59102 0
M  V30 6813 O 646.108 1.56087 -0.865973 0
M  V30 6814 C 643.208 2.91455 -1.72937 0
M  V30 6815 C 642.381 3.16584 -3.01816 0
M  V30 6816 C 641.44 4.35322 -2.95603 0
M  V30 6817 O 640.466 4.32947 -3.6952 0
M  V30 6818 N 641.668 5.40049 -2.12903 0
M  V30 6819 H 644.433 1.36604 -2.66757 0
M  V30 6820 H 641.994 0.60544 -1.50153 0
M  V30 6821 H 643.986 3.68944 -1.66321 0
M  V30 6822 H 642.556 3.00895 -0.847418 0
M  V30 6823 H 641.776 2.27203 -3.22137 0
M  V30 6824 H 643.064 3.30213 -3.87088 0
M  V30 6825 H 642.462 5.44823 -1.52265 0
M  V30 6826 H 641.019 6.16308 -2.1215 0
M  V30 6827 N 644.452 1.42507 0.673017 0
M  V30 6828 C 645.863 1.38347 1.25367 0
M  V30 6829 C 646.214 0.0776327 1.96046 0
M  V30 6830 O 645.339 -0.823571 2.00116 0
M  V30 6831 C 645.934 2.506 2.28002 0
M  V30 6832 C 644.493 2.49767 2.81591 0
M  V30 6833 C 643.64 2.293 1.55938 0
M  V30 6834 H 646.591 1.51695 0.466288 0
M  V30 6835 H 646.612 2.20953 3.09774 0
M  V30 6836 H 646.124 3.45627 1.76532 0
M  V30 6837 H 644.225 1.58563 3.37177 0
M  V30 6838 H 644.338 3.46867 3.30485 0
M  V30 6839 H 642.702 1.77594 1.82572 0
M  V30 6840 H 643.485 3.26385 1.06431 0
M  V30 6841 N 645.93 -0.909495 1.28709 0
M  V30 6842 C 647.179 -1.65365 1.15487 0
M  V30 6843 C 647.492 -1.93364 -0.294941 0
M  V30 6844 O 648.698 -2.65905 -0.548338 0
M  V30 6845 C 647.154 -2.97923 2.01916 0
M  V30 6846 C 646.762 -2.77556 3.51663 0
M  V30 6847 C 648.506 -3.75814 1.97393 0
M  V30 6848 C 646.413 -4.0578 4.30229 0
M  V30 6849 H 645.343 -0.620323 0.42862 0
M  V30 6850 H 647.994 -1.00894 1.53273 0
M  V30 6851 H 646.376 -3.63552 1.5699 0
M  V30 6852 H 647.55 -2.2058 4.04575 0
M  V30 6853 H 645.865 -2.13072 3.57756 0
M  V30 6854 H 648.462 -4.70866 2.53357 0
M  V30 6855 H 648.805 -4.05277 0.951643 0
M  V30 6856 H 649.338 -3.1701 2.40311 0
M  V30 6857 H 646.077 -3.81488 5.33055 0
M  V30 6858 H 645.597 -4.62351 3.82089 0
M  V30 6859 H 647.276 -4.74004 4.40374 0
M  V30 6860 N 647.408 -1.11026 -1.11852 0
M  V30 6861 C 648.636 -0.878818 -1.87308 0
M  V30 6862 C 649.051 0.57111 -1.79955 0
M  V30 6863 O 648.408 1.39409 -1.17777 0
M  V30 6864 C 648.459 -1.3264 -3.36287 0
M  V30 6865 O 648.18 -2.71948 -3.43476 0
M  V30 6866 C 649.681 -1.12974 -4.28663 0
M  V30 6867 H 646.901 -0.315015 -0.592458 0
M  V30 6868 H 649.445 -1.47649 -1.41492 0
M  V30 6869 H 647.6 -0.772269 -3.79625 0
M  V30 6870 H 648.014 -2.91241 -4.3621 0
M  V30 6871 H 649.488 -1.49198 -5.31454 0
M  V30 6872 H 649.965 -0.0689127 -4.39146 0
M  V30 6873 H 650.571 -1.67064 -3.91113 0
M  V30 6874 N 648.886 1.2938 -0.899927 0
M  V30 6875 C 649.818 2.26737 -0.335139 0
M  V30 6876 C 650.831 1.54316 0.518681 0
M  V30 6877 O 652.02 1.75313 0.335803 0
M  V30 6878 C 649.12 3.34558 0.540774 0
M  V30 6879 C 648.293 4.36455 -0.287372 0
M  V30 6880 C 647.352 5.2361 0.52141 0
M  V30 6881 O 646.378 5.69167 -0.0611735 0
M  V30 6882 N 647.58 5.50985 1.82745 0
M  V30 6883 H 650.345 2.75838 -1.17191 0
M  V30 6884 H 647.906 1.42716 -0.764438 0
M  V30 6885 H 649.898 3.89794 1.08825 0
M  V30 6886 H 648.468 2.85272 1.27823 0
M  V30 6887 H 647.688 3.80875 -1.01626 0
M  V30 6888 H 648.976 5.01573 -0.854518 0
M  V30 6889 H 648.374 5.15781 2.32349 0
M  V30 6890 H 646.931 6.09036 2.32204 0
M  V30 6891 N 650.364 0.662433 1.43002 0
M  V30 6892 C 651.312 -0.035345 2.32573 0
M  V30 6893 C 652.306 -0.803505 1.49131 0
M  V30 6894 O 653.512 -0.712865 1.65282 0
M  V30 6895 H 649.887 -0.0302194 0.751393 0
M  V30 6896 H 651.858 0.737686 2.89138 0
M  V30 6897 C 650.607 -0.981575 3.33557 0
M  V30 6898 H 649.93 -0.399914 3.97795 0
M  V30 6899 H 651.37 -1.43873 3.98844 0
M  V30 6900 C 649.829 -2.08204 2.64863 0
M  V30 6901 O 650.359 -3.16698 2.47113 0
M  V30 6902 N 648.565 -1.85022 2.24088 0
M  V30 6903 H 648.112 -0.967909 2.38724 0
M  V30 6904 H 648.07 -2.58845 1.78457 0
M  V30 6905 N 651.842 -1.52309 0.404946 0
M  V30 6906 C 653.09 -2.01368 -0.17186 0
M  V30 6907 C 653.411 -1.29261 -1.46002 0
M  V30 6908 O 652.681 -0.41729 -1.91404 0
M  V30 6909 H 651.261 -0.744034 -0.0664993 0
M  V30 6910 H 653.923 -1.87263 0.540228 0
M  V30 6911 H 653.019 -3.09888 -0.370957 0
M  V30 6912 N 653.32 -0.135238 -1.57019 0
M  V30 6913 C 654.252 0.839675 -2.13265 0
M  V30 6914 C 655.265 1.21887 -1.07923 0
M  V30 6915 O 656.454 1.16499 -1.35241 0
M  V30 6916 C 653.554 2.13647 -2.63075 0
M  V30 6917 C 652.727 1.92646 -3.92691 0
M  V30 6918 C 651.786 3.06205 -4.27931 0
M  V30 6919 O 650.812 2.78409 -4.96465 0
M  V30 6920 N 652.014 4.33072 -3.86561 0
M  V30 6921 H 654.779 0.359026 -2.97542 0
M  V30 6922 H 652.34 0.0486979 -1.61827 0
M  V30 6923 H 654.332 2.88641 -2.8367 0
M  V30 6924 H 652.902 2.5301 -1.83588 0
M  V30 6925 H 652.122 1.01754 -3.80841 0
M  V30 6926 H 653.41 1.75939 -4.77413 0
M  V30 6927 H 652.808 4.58526 -3.31316 0
M  V30 6928 H 651.365 5.04885 -4.12231 0
M  V30 6929 N 654.798 1.5699 0.138552 0
M  V30 6930 C 655.748 1.9532 1.17619 0
M  V30 6931 C 656.732 0.825545 1.38107 0
M  V30 6932 O 657.924 1.08908 1.39528 0
M  V30 6933 C 655.053 2.34451 2.50774 0
M  V30 6934 C 654.139 3.53805 2.33844 0
M  V30 6935 N 654.53 4.70088 1.86685 0
M  V30 6936 C 652.828 3.59055 2.64567 0
M  V30 6937 C 653.529 5.52165 1.82998 0
M  V30 6938 N 652.505 4.94108 2.26624 0
M  V30 6939 H 656.307 2.82694 0.803809 0
M  V30 6940 H 653.821 1.5866 0.346519 0
M  V30 6941 H 655.818 2.60119 3.25797 0
M  V30 6942 H 654.478 1.48431 2.88788 0
M  V30 6943 H 655.489 4.93681 1.56523 0
M  V30 6944 H 652.166 2.83596 3.06398 0
M  V30 6945 H 653.556 6.55407 1.47957 0
M  V30 6946 N 656.276 -0.40816 1.52223 0
M  V30 6947 C 657.687 -0.986929 1.58482 0
M  V30 6948 C 658.038 -1.91521 0.425917 0
M  V30 6949 O 657.163 -2.11593 -0.453593 0
M  V30 6950 C 657.758 -1.7967 2.87235 0
M  V30 6951 C 656.317 -2.32549 2.9597 0
M  V30 6952 C 655.464 -1.12558 2.53428 0
M  V30 6953 H 658.415 -0.188362 1.57578 0
M  V30 6954 H 658.436 -2.65417 2.72642 0
M  V30 6955 H 657.948 -1.12082 3.71563 0
M  V30 6956 H 656.049 -3.03505 2.16137 0
M  V30 6957 H 656.162 -2.63348 4.00231 0
M  V30 6958 H 654.526 -1.47984 2.07299 0
M  V30 6959 H 655.309 -0.465351 3.40131 0
M  V30 6960 N 657.755 -1.42862 -0.66545 0
M  V30 6961 C 658.983 -1.47246 -1.45349 0
M  V30 6962 C 659.398 -0.0865944 -1.88601 0
M  V30 6963 O 658.755 0.900652 -1.58728 0
M  V30 6964 C 658.806 -2.40772 -2.6965 0
M  V30 6965 O 658.527 -3.73968 -2.2821 0
M  V30 6966 C 660.028 -2.54272 -3.63126 0
M  V30 6967 H 657.248 -0.500497 -0.446927 0
M  V30 6968 H 659.792 -1.87477 -0.816871 0
M  V30 6969 H 657.947 -2.0377 -3.29479 0
M  V30 6970 H 658.361 -4.24146 -3.08546 0
M  V30 6971 H 659.835 -3.23815 -4.47043 0
M  V30 6972 H 660.312 -1.58364 -4.09656 0
M  V30 6973 H 660.918 -2.92036 -3.09185 0
M  V30 6974 O 659.272 0.808226 -1.39821 0
M  V30 6975 H 659.963 1.45282 -1.28112 0
M  V30 END ATOM
M  V30 BEGIN BOND
M  V30 END BOND
M  V30 END CTAB
M  END
$$$$
