drugbank_target|P53667 LIM domain kinase 1 (DB08912; DB12010)
 OpenBabel12092120583D

  0  0  0     0  0            999 V3000
M  V30 BEGIN CTAB
M  V30 COUNTS 10091 10218 0 0 0
M  V30 BEGIN ATOM
M  V30 1 H -0.908 1.98254 -0.117106 0
M  V30 2 N 0 1.576 0 0
M  V30 3 C 0.933 2.03868 1.02534 0
M  V30 4 C 1.911 0.928543 1.3348 0
M  V30 5 O 3.095 1.19667 1.45644 0
M  V30 6 C 0.222 2.43627 2.35294 0
M  V30 7 C -0.732 3.65373 2.2001 0
M  V30 8 S 0.101 5.13292 1.52614 0
M  V30 9 C 1.257 5.56322 2.86805 0
M  V30 10 H 1.49 2.90518 0.631377 0
M  V30 11 H -0.977 1.52953 0.210867 0
M  V30 12 H 0.981 2.67203 3.11629 0
M  V30 13 H -0.358 1.57376 2.7183 0
M  V30 14 H -1.165 3.90944 3.18086 0
M  V30 15 H -1.563 3.418 1.51819 0
M  V30 16 H 0.729 5.58782 3.83104 0
M  V30 17 H 1.672 6.56266 2.65933 0
M  V30 18 H 2.08 4.83886 2.90714 0
M  V30 19 N 1.4781 -0.272755 1.55222 0
M  V30 20 C 2.8941 -0.619959 1.47067 0
M  V30 21 C 3.0941 -1.895 0.684978 0
M  V30 22 O 2.1501 -2.51675 0.203931 0
M  V30 23 C 3.4631 -0.746693 2.91282 0
M  V30 24 C 5.0111 -0.840731 3.01497 0
M  V30 25 C 5.4861 -0.99924 4.46967 0
M  V30 26 N 6.9771 -1.06476 4.50796 0
M  V30 27 C 7.7121 -1.20621 5.6057 0
M  V30 28 N 7.2081 -1.31483 6.80209 0
M  V30 29 N 9.0011 -1.23733 5.48312 0
M  V30 30 H 1.1521 0.564606 2.04758 0
M  V30 31 H 3.4151 0.191177 0.928523 0
M  V30 32 H 3.1211 0.119753 3.51496 0
M  V30 33 H 2.9951 -1.6269 3.40311 0
M  V30 34 H 5.3821 -1.69764 2.41379 0
M  V30 35 H 5.4631 0.0640874 2.5572 0
M  V30 36 H 5.1071 -0.146984 5.07687 0
M  V30 37 H 5.0371 -1.91871 4.90401 0
M  V30 38 H 7.5281 -0.993196 3.64615 0
M  V30 39 H 7.8411 -1.42111 7.59621 0
M  V30 40 H 6.1861 -1.28487 6.8302 0
M  V30 41 H 9.3771 -1.14877 4.53785 0
M  V30 42 H 9.5501 -1.34412 6.33906 0
M  V30 43 N 2.9562 -1.48159 -0.537278 0
M  V30 44 C 3.8862 -1.65029 -1.6519 0
M  V30 45 C 4.8672 -0.499281 -1.62607 0
M  V30 46 O 6.0522 -0.730972 -1.79918 0
M  V30 47 C 3.1822 -1.68303 -3.03795 0
M  V30 48 C 2.1362 -2.8283 -3.21234 0
M  V30 49 C 1.4622 -2.71189 -4.60826 0
M  V30 50 C 2.7622 -4.24211 -3.04701 0
M  V30 51 H 4.4562 -2.58341 -1.51328 0
M  V30 52 H 2.0022 -1.24325 -0.726585 0
M  V30 53 H 3.9552 -1.78693 -3.81637 0
M  V30 54 H 2.6792 -0.715635 -3.18663 0
M  V30 55 H 1.3382 -2.71983 -2.45807 0
M  V30 56 H 0.9862 -1.72435 -4.7252 0
M  V30 57 H 0.6862 -3.48035 -4.7344 0
M  V30 58 H 2.2102 -2.83537 -5.40777 0
M  V30 59 H 3.6242 -4.3593 -3.72341 0
M  V30 60 H 2.0212 -5.01998 -3.28813 0
M  V30 61 H 3.0912 -4.41184 -2.01209 0
M  V30 62 N 4.4343 0.785586 -1.36625 0
M  V30 63 C 5.6623 1.57448 -1.3423 0
M  V30 64 C 6.0773 1.88649 0.0755653 0
M  V30 65 O 5.4343 1.50414 1.03354 0
M  V30 66 C 5.4853 2.89316 -2.16745 0
M  V30 67 O 5.2063 2.59459 -3.53005 0
M  V30 68 C 6.7073 3.83606 -2.22174 0
M  V30 69 H 3.9273 0.488226 -0.4603 0
M  V30 70 H 6.4713 0.974733 -1.79775 0
M  V30 71 H 4.6263 3.4575 -1.74745 0
M  V30 72 H 5.0403 3.43804 -3.96105 0
M  V30 73 H 6.5143 4.73181 -2.8426 0
M  V30 74 H 6.9913 4.21734 -1.22627 0
M  V30 75 H 7.5973 3.33104 -2.64427 0
M  V30 76 N 5.9124 1.20967 1.01018 0
M  V30 77 C 6.8424 0.988272 2.11555 0
M  V30 78 C 7.8234 -0.0849778 1.69888 0
M  V30 79 O 9.0084 0.0738202 1.9406 0
M  V30 80 C 6.1384 0.546528 3.42973 0
M  V30 81 C 5.0924 1.56375 3.9841 0
M  V30 82 C 4.4184 0.97842 5.25672 0
M  V30 83 C 5.7184 2.94922 4.31066 0
M  V30 84 H 7.4124 1.91276 2.30334 0
M  V30 85 H 4.9584 0.921073 1.1069 0
M  V30 86 H 6.9114 0.378839 4.19694 0
M  V30 87 H 5.6354 -0.413598 3.23971 0
M  V30 88 H 4.2944 1.71891 3.23804 0
M  V30 89 H 3.9424 0.0101688 5.02999 0
M  V30 90 H 3.6424 1.65784 5.63728 0
M  V30 91 H 5.1664 0.821939 6.05043 0
M  V30 92 H 6.5804 2.8288 4.9865 0
M  V30 93 H 4.9774 3.5983 4.80253 0
M  V30 94 H 6.0474 3.4616 3.39561 0
M  V30 95 N 7.3905 -1.2043 1.01659 0
M  V30 96 C 8.3205 -2.25466 0.607226 0
M  V30 97 C 9.3015 -1.65853 -0.377716 0
M  V30 98 O 10.4865 -1.92409 -0.263149 0
M  V30 99 C 7.6165 -3.47256 -0.0552949 0
M  V30 100 C 6.5705 -4.19462 0.850632 0
M  V30 101 C 5.8965 -5.34673 0.0538859 0
M  V30 102 C 7.1965 -4.75603 2.15868 0
M  V30 103 H 8.8905 -2.59962 1.48526 0
M  V30 104 H 6.4365 -1.2496 0.715605 0
M  V30 105 H 8.3895 -4.19917 -0.353233 0
M  V30 106 H 7.1135 -3.11924 -0.968045 0
M  V30 107 H 5.7725 -3.48667 1.13257 0
M  V30 108 H 5.4205 -4.95585 -0.860514 0
M  V30 109 H 5.1205 -5.83913 0.657192 0
M  V30 110 H 6.6445 -6.10138 -0.237598 0
M  V30 111 H 8.0585 -5.40083 1.92311 0
M  V30 112 H 6.4555 -5.3528 2.71284 0
M  V30 113 H 7.5255 -3.94346 2.82169 0
M  V30 114 N 8.8686 -0.792821 -1.36206 0
M  V30 115 C 10.1086 -0.372238 -2.00982 0
M  V30 116 C 10.4726 1.03749 -1.61555 0
M  V30 117 O 11.6736 1.55934 -2.18948 0
M  V30 118 C 9.9446 -0.534566 -3.5338 0
M  V30 119 S 11.5036 -0.202365 -4.38333 0
M  V30 120 H 8.3216 -0.142044 -0.696667 0
M  V30 121 H 10.9236 -1.03206 -1.66039 0
M  V30 122 H 9.6276 -1.5608 -3.79562 0
M  V30 123 H 9.1586 0.141065 -3.93147 0
M  V30 124 H 11.1736 0.994869 -4.86124 0
M  V30 125 N 10.3467 1.47872 -0.545128 0
M  V30 126 C 11.5867 2.04391 -0.0187854 0
M  V30 127 C 11.9507 1.41162 1.30144 0
M  V30 128 O 13.1517 1.88656 1.91474 0
M  V30 129 C 11.4227 3.57299 0.0850867 0
M  V30 130 S 12.9817 4.35221 0.559302 0
M  V30 131 H 9.7997 0.710737 -0.0193301 0
M  V30 132 H 12.4017 1.81395 -0.729125 0
M  V30 133 H 11.1057 4.00847 -0.880351 0
M  V30 134 H 10.6367 3.84773 0.819348 0
M  V30 135 H 12.6517 4.61571 1.82118 0
M  V30 136 N 11.8248 0.280983 1.55075 0
M  V30 137 C 13.0528 -0.337293 2.04132 0
M  V30 138 C 13.4678 -1.4903 1.15912 0
M  V30 139 O 12.8248 -1.81606 0.180459 0
M  V30 140 C 12.8758 -0.812706 3.52246 0
M  V30 141 O 12.5968 0.294387 4.3711 0
M  V30 142 C 14.0978 -1.4982 4.17216 0
M  V30 143 H 11.3178 -0.0761638 0.666663 0
M  V30 144 H 13.8618 0.414787 2.00249 0
M  V30 145 H 12.0168 -1.51486 3.56554 0
M  V30 146 H 12.4308 -0.0721325 5.2445 0
M  V30 147 H 13.9048 -1.7822 5.22438 0
M  V30 148 H 14.3818 -2.43168 3.65741 0
M  V30 149 H 14.9878 -0.839742 4.16927 0
M  V30 150 N 13.3029 -1.57598 0.00835791 0
M  V30 151 C 14.5489 -1.92046 -0.670055 0
M  V30 152 C 14.9039 -0.88351 -1.70915 0
M  V30 153 O 14.1969 0.103223 -1.91322 0
M  V30 154 C 14.3909 -3.3101 -1.34787 0
M  V30 155 C 14.2199 -4.48126 -0.375945 0
M  V30 156 C 12.9899 -5.05297 0.0166914 0
M  V30 157 C 15.1879 -5.1303 0.361272 0
M  V30 158 N 13.1699 -6.05931 0.985952 0
M  V30 159 C 14.5409 -6.08571 1.18495 0
M  V30 160 C 16.5959 -4.9609 0.42421 0
M  V30 161 C 15.2989 -6.88996 2.06584 0
M  V30 162 C 17.3249 -5.77107 1.29236 0
M  V30 163 C 16.6869 -6.72248 2.10386 0
M  V30 164 H 12.7859 -0.75096 -0.218136 0
M  V30 165 H 15.3699 -1.94572 0.0706669 0
M  V30 166 H 13.5409 -3.29342 -2.05884 0
M  V30 167 H 15.2729 -3.52864 -1.98164 0
M  V30 168 H 12.0279 -4.72279 -0.353435 0
M  V30 169 H 12.4519 -6.60932 1.4662 0
M  V30 170 H 17.0939 -4.22378 -0.188915 0
M  V30 171 H 14.8119 -7.62028 2.6896 0
M  V30 172 H 18.3979 -5.66038 1.34508 0
M  V30 173 H 17.2779 -7.33846 2.76476 0
M  V30 174 N 14.781 0.264519 -1.55364 0
M  V30 175 C 16.197 0.61215 -1.47394 0
M  V30 176 C 16.397 1.89134 -0.695018 0
M  V30 177 O 15.453 2.51563 -0.217275 0
M  V30 178 C 16.766 0.731235 -2.91674 0
M  V30 179 C 18.314 0.82473 -3.01939 0
M  V30 180 C 18.789 0.975522 -4.4749 0
M  V30 181 N 20.28 1.04083 -4.51354 0
M  V30 182 C 21.015 1.17646 -5.61201 0
M  V30 183 N 20.511 1.27874 -6.80896 0
M  V30 184 N 22.304 1.20823 -5.48961 0
M  V30 185 H 14.455 -0.575456 -2.04456 0
M  V30 186 H 16.718 -0.196099 -0.927496 0
M  V30 187 H 16.424 -0.138392 -3.51428 0
M  V30 188 H 16.298 1.60883 -3.41169 0
M  V30 189 H 18.685 1.68482 -2.42276 0
M  V30 190 H 18.766 -0.0776479 -2.55682 0
M  V30 191 H 18.41 0.120058 -5.07758 0
M  V30 192 H 18.34 1.89268 -4.91412 0
M  V30 193 H 20.831 0.973846 -3.65136 0
M  V30 194 H 21.144 1.38081 -7.60364 0
M  V30 195 H 19.489 1.24863 -6.83692 0
M  V30 196 H 22.68 1.12469 -4.54388 0
M  V30 197 H 22.853 1.31049 -6.3461 0
M  V30 198 N 16.2591 1.48442 0.529413 0
M  V30 199 C 17.1691 1.6569 1.66084 0
M  V30 200 C 18.1851 0.539432 1.65427 0
M  V30 201 O 19.3611 0.810572 1.84368 0
M  V30 202 C 16.4261 1.69315 3.02545 0
M  V30 203 C 15.4871 2.92694 3.14052 0
M  V30 204 C 14.7201 2.96137 4.44003 0
M  V30 205 O 14.9431 2.07973 5.31134 0
M  V30 206 O 13.8771 3.88312 4.59888 0
M  V30 207 H 17.7031 2.61483 1.54469 0
M  V30 208 H 15.2881 1.3185 0.702567 0
M  V30 209 H 17.1701 1.74217 3.83701 0
M  V30 210 H 15.8451 0.766966 3.14483 0
M  V30 211 H 14.7521 2.93324 2.32189 0
M  V30 212 H 16.0851 3.84699 3.0703 0
M  V30 213 N 17.7372 -0.778329 1.37039 0
M  V30 214 C 18.6472 -1.92253 1.34446 0
M  V30 215 C 19.6632 -1.72267 0.244991 0
M  V30 216 O 20.8392 -1.95615 0.479258 0
M  V30 217 C 17.9042 -3.27282 1.144 0
M  V30 218 C 16.9652 -3.59969 2.33925 0
M  V30 219 C 16.1982 -4.88555 2.14825 0
M  V30 220 O 16.4212 -5.59113 1.12912 0
M  V30 221 O 15.3552 -5.20153 3.02861 0
M  V30 222 H 19.1812 -1.97392 2.30803 0
M  V30 223 H 16.7662 -0.920154 1.17701 0
M  V30 224 H 18.6482 -4.08062 1.05182 0
M  V30 225 H 17.3232 -3.23011 0.211124 0
M  V30 226 H 16.2302 -2.7945 2.48714 0
M  V30 227 H 17.5632 -3.68976 3.25757 0
M  V30 228 N 19.2153 -1.21501 -1.00376 0
M  V30 229 C 20.6313 -0.972629 -1.26539 0
M  V30 230 C 20.8313 0.340257 -1.98606 0
M  V30 231 O 19.8873 1.06561 -2.28913 0
M  V30 232 C 21.2003 -2.16404 -2.08781 0
M  V30 233 C 22.7483 -2.20643 -2.22004 0
M  V30 234 C 23.2233 -3.39306 -3.07629 0
M  V30 235 N 24.7143 -3.39401 -3.15217 0
M  V30 236 C 25.4493 -4.27867 -3.81729 0
M  V30 237 N 24.9453 -5.26533 -4.5026 0
M  V30 238 N 26.7383 -4.15672 -3.78382 0
M  V30 239 H 18.8893 -2.05929 -0.520281 0
M  V30 240 H 21.1523 -0.901803 -0.292328 0
M  V30 241 H 20.8583 -3.11554 -1.63178 0
M  V30 242 H 20.7323 -2.15567 -3.09533 0
M  V30 243 H 23.1193 -1.26048 -2.66825 0
M  V30 244 H 23.2003 -2.25523 -1.20718 0
M  V30 245 H 22.8443 -4.34195 -2.63509 0
M  V30 246 H 22.7743 -3.31665 -4.09031 0
M  V30 247 H 25.2653 -2.67997 -2.66432 0
M  V30 248 H 25.5783 -5.90337 -4.98721 0
M  V30 249 H 23.9233 -5.30457 -4.49044 0
M  V30 250 H 27.1143 -3.3785 -3.23998 0
M  V30 251 H 27.2873 -4.84825 -4.2994 0
M  V30 252 N 20.6934 1.19889 -1.02296 0
M  V30 253 C 21.6264 2.21639 -0.543282 0
M  V30 254 C 22.6044 1.57275 0.412698 0
M  V30 255 O 23.7884 1.85568 0.331198 0
M  V30 256 C 20.9154 3.38057 0.208571 0
M  V30 257 C 19.9614 4.20751 -0.697933 0
M  V30 258 S 20.7944 4.89529 -2.17075 0
M  V30 259 C 21.9504 6.09363 -1.42923 0
M  V30 260 H 22.1834 2.61984 -1.40541 0
M  V30 261 H 19.7164 1.30041 -0.832387 0
M  V30 262 H 21.6744 4.05539 0.63624 0
M  V30 263 H 20.3354 2.96159 1.04635 0
M  V30 264 H 19.5284 5.03862 -0.117831 0
M  V30 265 H 19.1304 3.58556 -1.06366 0
M  V30 266 H 21.4224 6.73742 -0.712637 0
M  V30 267 H 22.3654 6.71845 -2.23673 0
M  V30 268 H 22.7734 5.56798 -0.929327 0
M  V30 269 N 22.1715 0.800033 1.35784 0
M  V30 270 C 23.4195 0.376597 1.9856 0
M  V30 271 C 23.7405 -1.05812 1.63795 0
M  V30 272 O 23.0105 -1.73103 0.917171 0
M  V30 273 H 21.5905 0.136261 0.734467 0
M  V30 274 H 24.2525 1.02442 1.65806 0
M  V30 275 H 23.3485 0.477002 3.08433 0
M  V30 276 N 23.6496 -1.47581 0.552962 0
M  V30 277 C 24.5596 -2.33743 -0.200353 0
M  V30 278 C 25.5756 -1.47928 -0.916151 0
M  V30 279 O 26.7516 -1.80865 -0.885993 0
M  V30 280 C 23.8166 -3.24536 -1.21973 0
M  V30 281 C 22.8776 -4.26238 -0.511819 0
M  V30 282 C 22.1106 -5.12693 -1.48263 0
M  V30 283 O 22.3336 -5.01525 -2.71714 0
M  V30 284 O 21.2676 -5.93375 -1.00945 0
M  V30 285 H 25.0936 -2.9945 0.506304 0
M  V30 286 H 22.6786 -1.46071 0.313622 0
M  V30 287 H 24.5606 -3.80631 -1.80827 0
M  V30 288 H 23.2356 -2.61462 -1.90839 0
M  V30 289 H 22.1426 -3.73914 0.117799 0
M  V30 290 H 23.4756 -4.92014 0.135308 0
M  V30 291 N 25.1277 -0.289203 -1.54924 0
M  V30 292 C 26.0377 0.601863 -2.26748 0
M  V30 293 C 27.0537 1.15834 -1.2984 0
M  V30 294 O 28.2297 1.18564 -1.62802 0
M  V30 295 C 25.2947 1.76299 -2.98529 0
M  V30 296 C 24.3557 1.24178 -4.10948 0
M  V30 297 C 23.5887 2.34757 -4.79296 0
M  V30 298 O 23.8117 3.54411 -4.46933 0
M  V30 299 O 22.7457 2.02115 -5.66951 0
M  V30 300 H 26.5717 0.0195879 -3.03694 0
M  V30 301 H 24.1567 -0.0560868 -1.49295 0
M  V30 302 H 26.0387 2.43973 -3.43592 0
M  V30 303 H 24.7137 2.33209 -2.24488 0
M  V30 304 H 23.6207 0.531104 -3.70311 0
M  V30 305 H 24.9537 0.718252 -4.86931 0
M  V30 306 N 26.6058 1.57591 -0.0167156 0
M  V30 307 C 27.8538 1.90906 0.663285 0
M  V30 308 C 28.1748 0.892509 1.73376 0
M  V30 309 O 27.4448 -0.0677623 1.95783 0
M  V30 310 H 26.0248 0.704637 0.247983 0
M  V30 311 H 28.6868 1.94803 -0.0615909 0
M  V30 312 H 27.7828 2.9116 1.12393 0
M  V30 313 N 28.0839 -0.256276 1.55502 0
M  V30 314 C 29.3089 -1.00766 1.81276 0
M  V30 315 C 29.7339 -1.78524 0.59252 0
M  V30 316 O 29.0919 -1.75413 -0.45827 0
M  V30 317 C 29.1399 -1.92869 3.04687 0
M  V30 318 O 28.2439 -3.019 2.80945 0
M  V30 319 H 27.5849 -0.287224 0.598664 0
M  V30 320 H 30.1149 -0.280109 2.02674 0
M  V30 321 H 30.1249 -2.34511 3.33869 0
M  V30 322 H 28.7999 -1.35689 3.93143 0
M  V30 323 H 27.3769 -2.64454 2.62904 0
M  V30 324 N 29.562 -1.4872 -0.521534 0
M  V30 325 C 30.472 -1.66569 -1.65203 0
M  V30 326 C 31.488 -0.548197 -1.65139 0
M  V30 327 O 32.664 -0.820339 -1.83936 0
M  V30 328 C 29.729 -1.70917 -3.01642 0
M  V30 329 C 28.79 -2.94356 -3.12495 0
M  V30 330 C 28.023 -2.98487 -4.42426 0
M  V30 331 O 28.246 -2.10786 -5.30024 0
M  V30 332 O 27.18 -3.90746 -4.57822 0
M  V30 333 H 31.006 -2.62298 -1.5308 0
M  V30 334 H 28.591 -1.3222 -0.695565 0
M  V30 335 H 30.473 -1.7625 -3.82771 0
M  V30 336 H 29.148 -0.783633 -3.14071 0
M  V30 337 H 28.055 -2.94552 -2.3063 0
M  V30 338 H 29.388 -3.86322 -3.04986 0
M  V30 339 N 31.0401 0.771051 -1.3745 0
M  V30 340 C 31.9701 1.89827 -1.3597 0
M  V30 341 C 32.9511 1.68562 -0.228216 0
M  V30 342 O 34.1361 1.8941 -0.428675 0
M  V30 343 C 31.2661 3.2712 -1.16662 0
M  V30 344 C 30.2201 3.6295 -2.2683 0
M  V30 345 C 29.5461 4.98791 -1.92644 0
M  V30 346 C 30.8461 3.69627 -3.69017 0
M  V30 347 H 32.5401 1.91323 -2.30295 0
M  V30 348 H 30.0861 0.919082 -1.10855 0
M  V30 349 H 32.0391 4.05615 -1.14256 0
M  V30 350 H 30.7631 3.26059 -0.187926 0
M  V30 351 H 29.4221 2.86763 -2.28392 0
M  V30 352 H 29.0701 4.94271 -0.933021 0
M  V30 353 H 28.7701 5.23733 -2.66416 0
M  V30 354 H 30.2941 5.79685 -1.91826 0
M  V30 355 H 31.7081 4.38273 -3.69581 0
M  V30 356 H 30.1051 4.06067 -4.41848 0
M  V30 357 H 31.1751 2.70273 -4.02592 0
M  V30 358 N 32.5182 1.22032 0.997298 0
M  V30 359 C 33.9292 1.0397 1.55071 0
M  V30 360 C 34.2802 -0.398192 1.92117 0
M  V30 361 O 33.4052 -1.28254 1.74298 0
M  V30 362 C 34.0002 1.88109 2.81781 0
M  V30 363 C 32.5592 1.74357 3.33581 0
M  V30 364 C 31.7062 1.84846 2.06706 0
M  V30 365 H 34.6572 1.35941 0.818883 0
M  V30 366 H 34.6782 1.39589 3.53971 0
M  V30 367 H 34.1902 2.92754 2.54787 0
M  V30 368 H 32.2912 0.72427 3.65493 0
M  V30 369 H 32.4042 2.56772 4.04481 0
M  V30 370 H 30.7682 1.28238 2.20062 0
M  V30 371 H 31.5512 2.91014 1.82114 0
M  V30 372 N 33.9963 -1.19345 1.0293 0
M  V30 373 C 35.2423 -1.89318 0.727083 0
M  V30 374 C 35.5753 -1.79446 -0.742483 0
M  V30 375 O 34.8503 -1.1871 -1.54072 0
M  V30 376 C 35.1333 -3.40238 1.17942 0
M  V30 377 C 34.9863 -3.58979 2.71024 0
M  V30 378 C 36.3053 -4.33479 0.760548 0
M  V30 379 H 33.4243 -0.687475 0.265606 0
M  V30 380 H 36.0663 -1.40477 1.2793 0
M  V30 381 H 34.2163 -3.81964 0.709608 0
M  V30 382 H 35.8883 -3.26421 3.25955 0
M  V30 383 H 34.1313 -3.02018 3.11396 0
M  V30 384 H 34.8023 -4.64823 2.9773 0
M  V30 385 H 37.2783 -3.99469 1.16464 0
M  V30 386 H 36.1543 -5.37664 1.10493 0
M  V30 387 H 36.4153 -4.40813 -0.337063 0
M  V30 388 N 35.4744 -0.807222 -1.35358 0
M  V30 389 C 36.7144 -0.393534 -2.00576 0
M  V30 390 C 37.0784 1.0203 -1.62647 0
M  V30 391 O 38.2794 1.53603 -2.20589 0
M  V30 392 C 36.5504 -0.572017 -3.52793 0
M  V30 393 S 38.1094 -0.248845 -4.38094 0
M  V30 394 H 34.9274 -0.149425 -0.695121 0
M  V30 395 H 37.5294 -1.04961 -1.64935 0
M  V30 396 H 36.2334 -1.60097 -3.77885 0
M  V30 397 H 35.7644 0.099359 -3.93275 0
M  V30 398 H 37.7794 0.943253 -4.87152 0
M  V30 399 N 36.9525 1.47285 -0.560781 0
M  V30 400 C 37.9155 2.28535 0.174488 0
M  V30 401 C 38.9155 1.37153 0.839388 0
M  V30 402 O 40.1055 1.59748 0.694702 0
M  V30 403 C 37.2375 3.16934 1.25561 0
M  V30 404 H 38.4305 2.95012 -0.539262 0
M  V30 405 H 35.9835 1.53034 -0.317865 0
M  V30 406 H 36.7185 2.55157 2.00164 0
M  V30 407 H 36.5035 3.8419 0.783604 0
M  V30 408 H 37.9935 3.78143 1.77193 0
M  V30 409 N 38.4306 0.297415 1.54768 0
M  V30 410 C 39.6556 -0.318435 2.04941 0
M  V30 411 C 40.0806 -1.4701 1.17345 0
M  V30 412 O 39.4386 -1.80436 0.176758 0
M  V30 413 C 39.4866 -0.755749 3.52592 0
M  V30 414 O 38.5906 -1.86088 3.68028 0
M  V30 415 H 37.9316 -0.062421 0.661059 0
M  V30 416 H 40.4616 0.438215 1.99852 0
M  V30 417 H 40.4716 -1.04552 3.94376 0
M  V30 418 H 39.1466 0.0867233 4.1581 0
M  V30 419 H 37.7236 -1.57193 3.38149 0
M  V30 420 N 39.9087 -1.5758 0.0250728 0
M  V30 421 C 41.1487 -1.93497 -0.65865 0
M  V30 422 C 41.5127 -0.901409 -1.69525 0
M  V30 423 O 42.7137 -1.14664 -2.43116 0
M  V30 424 C 40.9847 -3.34352 -1.26267 0
M  V30 425 S 42.5437 -3.92191 -1.96803 0
M  V30 426 H 39.3617 -0.67709 -0.216958 0
M  V30 427 H 41.9637 -1.95303 0.0877692 0
M  V30 428 H 40.6677 -4.07395 -0.495741 0
M  V30 429 H 40.1987 -3.3598 -2.04648 0
M  V30 430 H 42.2137 -3.75298 -3.24601 0
M  V30 431 N 41.3868 0.248026 -1.55636 0
M  V30 432 C 42.6348 0.974295 -1.77065 0
M  V30 433 C 42.9558 1.85897 -0.588849 0
M  V30 434 O 42.2258 1.91868 0.395407 0
M  V30 435 H 40.8058 0.362733 -0.653019 0
M  V30 436 H 43.4678 0.266244 -1.93073 0
M  V30 437 H 42.5638 1.59667 -2.68166 0
M  V30 438 N 42.8649 1.48995 0.513639 0
M  V30 439 C 43.7969 1.60836 1.63293 0
M  V30 440 C 44.8099 0.491701 1.55197 0
M  V30 441 O 45.9989 0.763238 1.6136 0
M  V30 442 C 43.0989 1.53731 3.02027 0
M  V30 443 C 42.2719 2.80715 3.35437 0
M  V30 444 C 41.3309 2.66837 4.53525 0
M  V30 445 O 40.3569 3.40753 4.55934 0
M  V30 446 N 41.5589 1.77539 5.52684 0
M  V30 447 H 44.3239 2.57366 1.53566 0
M  V30 448 H 41.8849 1.45925 0.701259 0
M  V30 449 H 43.8769 1.42118 3.78926 0
M  V30 450 H 42.4469 0.651092 3.05744 0
M  V30 451 H 41.6669 3.06772 2.47557 0
M  V30 452 H 42.9549 3.64927 3.54551 0
M  V30 453 H 42.3529 1.16719 5.53528 0
M  V30 454 H 40.9099 1.71856 6.28736 0
M  V30 455 N 44.343 -0.763751 1.37857 0
M  V30 456 C 45.759 -1.06542 1.18832 0
M  V30 457 C 45.959 -2.01478 0.0299722 0
M  V30 458 O 45.015 -2.4458 -0.627447 0
M  V30 459 C 46.328 -1.65525 2.51042 0
M  V30 460 C 47.876 -1.77745 2.57635 0
M  V30 461 C 48.351 -2.4014 3.89996 0
M  V30 462 N 49.842 -2.47582 3.91481 0
M  V30 463 C 50.577 -2.96732 4.9065 0
M  V30 464 N 50.073 -3.45993 6.00217 0
M  V30 465 N 51.866 -2.95679 4.78048 0
M  V30 466 H 44.017 -0.133556 2.1198 0
M  V30 467 H 46.28 -0.121879 0.940133 0
M  V30 468 H 45.986 -1.03236 3.36207 0
M  V30 469 H 45.86 -2.64719 2.68707 0
M  V30 470 H 48.247 -2.39164 1.72872 0
M  V30 471 H 48.328 -0.772836 2.43846 0
M  V30 472 H 47.972 -1.79358 4.75177 0
M  V30 473 H 47.902 -3.41223 4.01092 0
M  V30 474 H 50.393 -2.1273 3.12337 0
M  V30 475 H 50.706 -3.81922 6.7183 0
M  V30 476 H 49.051 -3.44077 6.03851 0
M  V30 477 H 52.242 -2.56499 3.91568 0
M  V30 478 H 52.415 -3.33672 5.55488 0
M  V30 479 N 45.8211 -1.22559 -0.990812 0
M  V30 480 C 47.0701 -1.04553 -1.72486 0
M  V30 481 C 47.3831 0.419349 -1.91052 0
M  V30 482 O 48.5891 0.719121 -2.61803 0
M  V30 483 C 47.0451 -1.82231 -3.10355 0
M  V30 484 C 46.6531 -3.32981 -2.99713 0
M  V30 485 C 48.3971 -1.7268 -3.87791 0
M  V30 486 C 46.3041 -4.03091 -4.32748 0
M  V30 487 H 45.2341 -0.387614 -0.646739 0
M  V30 488 H 47.8851 -1.46429 -1.10593 0
M  V30 489 H 46.2671 -1.33155 -3.72942 0
M  V30 490 H 47.4411 -3.89466 -2.46278 0
M  V30 491 H 45.7561 -3.43231 -2.35758 0
M  V30 492 H 48.3531 -2.22381 -4.86262 0
M  V30 493 H 48.6961 -0.687607 -4.10582 0
M  V30 494 H 49.2291 -2.1931 -3.31885 0
M  V30 495 H 45.9681 -5.07273 -4.15156 0
M  V30 496 H 45.4881 -3.51394 -4.86089 0
M  V30 497 H 47.1671 -4.08804 -5.01486 0
M  V30 498 N 47.2992 1.18797 -1.03562 0
M  V30 499 C 48.5292 1.92319 -0.754773 0
M  V30 500 C 48.9372 1.7612 0.691248 0
M  V30 501 O 48.2802 1.08491 1.48241 0
M  V30 502 C 48.3422 3.44284 -1.03484 0
M  V30 503 C 48.0062 3.84258 -2.47376 0
M  V30 504 C 49.0032 3.88459 -3.45537 0
M  V30 505 C 46.6882 4.15701 -2.81954 0
M  V30 506 C 48.6822 4.23545 -4.76328 0
M  V30 507 C 46.3692 4.50458 -4.12954 0
M  V30 508 C 47.3672 4.54356 -5.09951 0
M  V30 509 O 47.0552 4.88305 -6.38603 0
M  V30 510 H 46.7872 0.617527 -0.275021 0
M  V30 511 H 49.3412 1.51683 -1.38497 0
M  V30 512 H 47.5712 3.85135 -0.347513 0
M  V30 513 H 49.2602 3.99049 -0.7426 0
M  V30 514 H 50.0262 3.6431 -3.20162 0
M  V30 515 H 45.9052 4.11847 -2.0713 0
M  V30 516 H 49.4492 4.26502 -5.52035 0
M  V30 517 H 45.3462 4.74067 -4.38099 0
M  V30 518 H 46.1142 5.06227 -6.43177 0
M  V30 519 N 48.7773 0.814389 1.34928 0
M  V30 520 C 50.0543 0.321363 1.92942 0
M  V30 521 C 50.4343 -1.19014 1.74353 0
M  V30 522 O 49.7823 -1.99328 1.11716 0
M  V30 523 C 49.9923 0.741323 3.41036 0
M  V30 524 C 51.3403 0.735266 4.18185 0
M  V30 525 O 52.3643 0.68336 3.49584 0
M  V30 526 O 51.2233 0.800703 5.40602 0
M  V30 527 H 48.3173 0.0858893 0.822528 0
M  V30 528 H 50.8633 0.898609 1.43955 0
M  V30 529 H 49.6353 1.78276 3.4833 0
M  V30 530 H 49.2583 0.139307 3.97356 0
M  V30 531 N 50.2554 -1.46986 0.568584 0
M  V30 532 C 51.5034 -2.02041 0.0487022 0
M  V30 533 C 51.8244 -1.44408 -1.31039 0
M  V30 534 O 51.0944 -0.623477 -1.85714 0
M  V30 535 H 49.6744 -0.746849 0.015014 0
M  V30 536 H 52.3364 -1.80257 0.741168 0
M  V30 537 H 51.4324 -3.12085 -0.0308961 0
M  V30 538 N 51.7335 -0.305618 -1.54608 0
M  V30 539 C 52.6655 0.602161 -2.21149 0
M  V30 540 C 53.6785 1.09394 -1.20569 0
M  V30 541 O 54.8675 1.0106 -1.47136 0
M  V30 542 C 51.9675 1.83692 -2.84799 0
M  V30 543 C 51.1405 1.48686 -4.11353 0
M  V30 544 C 50.1995 2.57725 -4.58764 0
M  V30 545 O 49.2255 2.22623 -5.23858 0
M  V30 546 N 50.4275 3.88346 -4.31471 0
M  V30 547 H 53.1925 0.0324966 -2.99682 0
M  V30 548 H 50.7535 -0.128021 -1.61393 0
M  V30 549 H 52.7455 2.55994 -3.13448 0
M  V30 550 H 51.3155 2.31486 -2.10078 0
M  V30 551 H 50.5355 0.596269 -3.89664 0
M  V30 552 H 51.8235 1.22842 -4.93748 0
M  V30 553 H 51.2215 4.19671 -3.79331 0
M  V30 554 H 49.7785 4.56932 -4.64818 0
M  V30 555 N 53.2116 1.57565 -0.0334293 0
M  V30 556 C 54.4416 1.95996 0.653398 0
M  V30 557 C 54.8496 0.908749 1.65947 0
M  V30 558 O 54.1926 -0.117471 1.83324 0
M  V30 559 C 54.2546 3.30589 1.41249 0
M  V30 560 C 53.9186 4.53503 0.564263 0
M  V30 561 C 54.9156 5.19647 -0.16225 0
M  V30 562 C 52.6006 4.99801 0.500398 0
M  V30 563 C 54.5946 6.30412 -0.941255 0
M  V30 564 C 52.2816 6.10448 -0.282308 0
M  V30 565 C 53.2796 6.75612 -1.00184 0
M  V30 566 O 52.9676 7.84134 -1.77171 0
M  V30 567 H 52.6996 0.65027 0.184728 0
M  V30 568 H 55.2536 2.05199 -0.0907841 0
M  V30 569 H 53.4836 3.17888 2.20191 0
M  V30 570 H 55.1726 3.53892 1.98784 0
M  V30 571 H 55.9386 4.84846 -0.12227 0
M  V30 572 H 51.8176 4.48883 1.05002 0
M  V30 573 H 55.3616 6.81208 -1.50339 0
M  V30 574 H 51.2586 6.44686 -0.323989 0
M  V30 575 H 52.0266 8.00822 -1.69194 0
M  V30 576 N 54.6897 -0.239769 1.55765 0
M  V30 577 C 55.6197 -1.30052 1.9393 0
M  V30 578 C 56.6007 -1.49839 0.805132 0
M  V30 579 O 57.7857 -1.62328 1.06599 0
M  V30 580 C 54.9157 -2.65391 2.2402 0
M  V30 581 C 53.8697 -2.60289 3.39755 0
M  V30 582 C 53.1957 -3.99489 3.55405 0
M  V30 583 C 54.4957 -2.16654 4.75246 0
M  V30 584 H 56.1897 -0.983573 2.82783 0
M  V30 585 H 53.7357 -0.471701 1.36055 0
M  V30 586 H 55.6887 -3.3974 2.49308 0
M  V30 587 H 54.4127 -2.98736 1.32 0
M  V30 588 H 53.0717 -1.88398 3.14487 0
M  V30 589 H 52.7197 -4.30112 2.60793 0
M  V30 590 H 52.4197 -3.96962 4.33238 0
M  V30 591 H 53.9437 -4.75528 3.83022 0
M  V30 592 H 55.3577 -2.80737 4.99859 0
M  V30 593 H 53.7547 -2.25223 5.56232 0
M  V30 594 H 54.8247 -1.11835 4.71827 0
M  V30 595 N 56.1678 -1.49265 -0.50573 0
M  V30 596 C 57.0998 -1.617 -1.62437 0
M  V30 597 C 58.1128 -0.499924 -1.54934 0
M  V30 598 O 59.3018 -0.771785 -1.60953 0
M  V30 599 C 56.4018 -1.5533 -3.01207 0
M  V30 600 C 55.5748 -2.8249 -3.33943 0
M  V30 601 C 54.6338 -2.69238 -4.52103 0
M  V30 602 O 53.6598 -3.43167 -4.5412 0
M  V30 603 N 54.8618 -1.80468 -5.51735 0
M  V30 604 H 57.6268 -2.58177 -1.52199 0
M  V30 605 H 55.1878 -1.46294 -0.693511 0
M  V30 606 H 57.1798 -1.44125 -3.78167 0
M  V30 607 H 55.7498 -0.667297 -3.05395 0
M  V30 608 H 54.9698 -3.08081 -2.45926 0
M  V30 609 H 56.2578 -3.66802 -3.5261 0
M  V30 610 H 55.6558 -1.19653 -5.52901 0
M  V30 611 H 54.2128 -1.75188 -6.27816 0
M  V30 612 N 57.6459 0.756429 -1.3826 0
M  V30 613 C 58.6089 1.85176 -1.35065 0
M  V30 614 C 59.6089 1.58818 -0.251703 0
M  V30 615 O 60.7989 1.66615 -0.508433 0
M  V30 616 C 57.9309 3.22596 -1.10201 0
M  V30 617 H 59.1239 1.89417 -2.3251 0
M  V30 618 H 56.6769 0.95783 -1.23512 0
M  V30 619 H 57.4119 3.24025 -0.133504 0
M  V30 620 H 57.1969 3.43122 -1.89762 0
M  V30 621 H 58.6869 4.02673 -1.10654 0
M  V30 622 N 59.124 1.23083 0.984299 0
M  V30 623 C 60.054 1.03292 2.09411 0
M  V30 624 C 61.035 -0.048923 1.7003 0
M  V30 625 O 62.22 0.114967 1.93859 0
M  V30 626 C 59.35 0.619155 3.41736 0
M  V30 627 C 58.304 1.64791 3.95004 0
M  V30 628 C 57.63 1.0897 5.23478 0
M  V30 629 C 58.93 3.03999 4.24714 0
M  V30 630 H 60.624 1.96119 2.26225 0
M  V30 631 H 58.17 0.944344 1.08711 0
M  V30 632 H 60.123 0.467777 4.18796 0
M  V30 633 H 58.847 -0.344786 3.24775 0
M  V30 634 H 57.506 1.78721 3.20085 0
M  V30 635 H 57.154 0.11686 5.02864 0
M  V30 636 H 56.854 1.77704 5.60085 0
M  V30 637 H 58.378 0.950093 6.03163 0
M  V30 638 H 59.792 2.93393 4.92538 0
M  V30 639 H 58.189 3.69936 4.72512 0
M  V30 640 H 59.259 3.53285 3.32142 0
M  V30 641 N 60.6021 -1.18246 1.0419 0
M  V30 642 C 61.5501 -2.23968 0.627792 0
M  V30 643 C 62.5441 -1.65828 -0.346019 0
M  V30 644 O 63.7501 -1.78733 -0.213175 0
M  V30 645 H 60.1251 -0.728939 0.184802 0
M  V30 646 H 62.0961 -2.56202 1.52981 0
M  V30 647 C 60.8451 -3.47699 0.00796591 0
M  V30 648 H 60.1681 -3.92734 0.748347 0
M  V30 649 H 61.6081 -4.23294 -0.24455 0
M  V30 650 C 60.0671 -3.13153 -1.24246 0
M  V30 651 O 60.5971 -3.27003 -2.33307 0
M  V30 652 N 58.8031 -2.67467 -1.13622 0
M  V30 653 H 58.3501 -2.56396 -0.248734 0
M  V30 654 H 58.3081 -2.44724 -1.97377 0
M  V30 655 N 62.0802 -0.821533 -1.34494 0
M  V30 656 C 63.0432 -0.247847 -2.27856 0
M  V30 657 C 64.0432 0.573453 -1.50227 0
M  V30 658 O 65.2332 0.389759 -1.69784 0
M  V30 659 C 62.3652 0.652698 -3.34593 0
M  V30 660 H 63.5582 -1.07146 -2.80107 0
M  V30 661 H 61.1112 -0.593291 -1.44602 0
M  V30 662 H 61.8462 1.49943 -2.87555 0
M  V30 663 H 61.6312 0.065292 -3.92046 0
M  V30 664 H 63.1212 1.04793 -4.04238 0
M  V30 665 N 63.5583 1.46682 -0.576371 0
M  V30 666 C 64.8353 1.95599 0.00703437 0
M  V30 667 C 65.2153 1.51904 1.46589 0
M  V30 668 O 64.5633 0.766755 2.15251 0
M  V30 669 C 64.7733 3.4864 -0.158404 0
M  V30 670 C 66.1213 4.24594 -0.0229439 0
M  V30 671 O 67.1453 3.56094 -0.0869173 0
M  V30 672 O 66.0043 5.46373 0.118015 0
M  V30 673 H 63.0983 0.825275 0.053384 0
M  V30 674 H 65.6443 1.56996 -0.644244 0
M  V30 675 H 64.4163 3.7331 -1.17282 0
M  V30 676 H 64.0393 3.94057 0.5296 0
M  V30 677 N 65.0364 0.313813 1.54444 0
M  V30 678 C 66.2824 -0.284918 2.01395 0
M  V30 679 C 66.6374 -1.50537 1.19818 0
M  V30 680 O 65.9304 -1.89692 0.269748 0
M  V30 681 C 66.1244 -0.680386 3.50864 0
M  V30 682 C 65.9534 0.500198 4.4691 0
M  V30 683 C 64.7234 0.996248 4.95382 0
M  V30 684 C 66.9214 1.34928 4.96285 0
M  V30 685 N 64.9034 2.14226 5.75309 0
M  V30 686 C 66.2744 2.3426 5.7404 0
M  V30 687 C 68.3294 1.37818 4.78446 0
M  V30 688 C 67.0324 3.36272 6.35856 0
M  V30 689 C 69.0584 2.38695 5.4109 0
M  V30 690 C 68.4204 3.36755 6.18688 0
M  V30 691 H 64.5194 -0.0683689 0.779006 0
M  V30 692 H 67.1034 0.44664 1.89508 0
M  V30 693 H 65.2744 -1.38109 3.63016 0
M  V30 694 H 67.0064 -1.25975 3.84594 0
M  V30 695 H 63.7614 0.56912 4.70168 0
M  V30 696 H 64.1854 2.72005 6.19953 0
M  V30 697 H 68.8274 0.633747 4.18023 0
M  V30 698 H 66.5454 4.11627 6.95405 0
M  V30 699 H 70.1314 2.41721 5.29209 0
M  V30 700 H 69.0114 4.13535 6.66302 0
M  V30 701 N 66.5145 -1.57545 0.0417849 0
M  V30 702 C 67.4645 -2.07483 -0.945247 0
M  V30 703 C 68.4485 -0.977983 -1.27767 0
M  V30 704 O 69.6405 -1.24142 -1.26166 0
M  V30 705 C 66.7695 -2.61576 -2.22335 0
M  V30 706 C 65.8555 -3.78213 -1.91874 0
M  V30 707 N 66.2465 -4.88344 -1.31733 0
M  V30 708 C 64.5445 -3.8694 -2.21796 0
M  V30 709 C 65.2455 -5.69462 -1.1869 0
M  V30 710 N 64.2215 -5.16771 -1.68666 0
M  V30 711 H 68.0235 -2.90029 -0.475441 0
M  V30 712 H 65.5375 -1.61581 -0.162911 0
M  V30 713 H 67.5345 -2.95651 -2.93932 0
M  V30 714 H 66.1945 -1.80465 -2.69931 0
M  V30 715 H 67.2055 -5.08335 -0.990729 0
M  V30 716 H 63.8825 -3.16757 -2.71977 0
M  V30 717 H 65.2725 -6.68023 -0.720793 0
M  V30 718 N 67.9926 0.231505 -1.5589 0
M  V30 719 C 68.9556 1.27028 -1.90779 0
M  V30 720 C 69.9556 1.40308 -0.785507 0
M  V30 721 O 71.1456 1.38744 -1.05336 0
M  V30 722 C 68.2776 2.64566 -2.14983 0
M  V30 723 H 69.4706 0.973017 -2.83677 0
M  V30 724 H 67.0236 0.471486 -1.49019 0
M  V30 725 H 67.7586 2.99406 -1.24604 0
M  V30 726 H 67.5436 2.56305 -2.96732 0
M  V30 727 H 69.0336 3.39543 -2.43105 0
M  V30 728 N 69.4707 1.49531 0.497807 0
M  V30 729 C 70.7477 1.49682 1.25915 0
M  V30 730 C 71.1277 0.226339 2.09883 0
M  V30 731 O 70.4757 -0.791189 2.14365 0
M  V30 732 C 70.6857 2.77755 2.11313 0
M  V30 733 C 72.0337 3.27371 2.70395 0
M  V30 734 O 73.0577 2.78894 2.21578 0
M  V30 735 O 71.9167 4.11808 3.59272 0
M  V30 736 H 69.0107 0.599228 0.56996 0
M  V30 737 H 71.5567 1.61798 0.511816 0
M  V30 738 H 70.3287 3.61713 1.49264 0
M  V30 739 H 69.9517 2.68515 2.93233 0
M  V30 740 N 70.9488 -0.749086 1.3866 0
M  V30 741 C 72.1888 -1.52112 1.36534 0
M  V30 742 C 72.5528 -1.91951 -0.0432316 0
M  V30 743 O 73.7538 -2.68132 -0.189396 0
M  V30 744 C 72.0248 -2.73704 2.29828 0
M  V30 745 S 73.5838 -3.63519 2.45763 0
M  V30 746 H 70.4018 -0.520482 0.484375 0
M  V30 747 H 73.0038 -0.878963 1.74627 0
M  V30 748 H 71.7078 -2.42552 3.31054 0
M  V30 749 H 71.2388 -3.4286 1.929 0
M  V30 750 H 73.2538 -4.66712 1.68505 0
M  V30 751 N 72.4269 -1.23603 -0.977757 0
M  V30 752 C 73.6739 -1.06971 -1.71941 0
M  V30 753 C 74.0019 0.393009 -1.90488 0
M  V30 754 O 73.2569 1.30719 -1.4564 0
M  V30 755 C 73.5559 -1.7433 -3.11999 0
M  V30 756 C 73.2219 -3.24252 -3.13323 0
M  V30 757 C 71.8839 -3.65156 -3.13392 0
M  V30 758 C 74.2359 -4.20141 -3.08433 0
M  V30 759 C 71.5639 -5.00403 -3.0629 0
M  V30 760 C 73.9159 -5.55384 -3.02873 0
M  V30 761 C 72.5799 -5.95647 -3.01265 0
M  V30 762 H 71.8499 -0.391433 -0.629175 0
M  V30 763 H 74.4969 -1.53572 -1.14403 0
M  V30 764 H 72.8019 -1.20096 -3.7294 0
M  V30 765 H 74.4989 -1.58936 -3.68158 0
M  V30 766 H 71.0889 -2.91692 -3.14029 0
M  V30 767 H 75.2729 -3.89547 -3.07517 0
M  V30 768 H 70.5289 -5.3081 -3.03399 0
M  V30 769 H 74.7029 -6.29398 -2.98046 0
M  V30 770 H 72.3299 -7.0041 -2.95516 0
M  V30 771 N 73.905 1.17692 -1.04816 0
M  V30 772 C 75.321 1.39863 -0.768794 0
M  V30 773 C 75.521 1.91118 0.638451 0
M  V30 774 O 74.577 2.10036 1.40146 0
M  V30 775 C 75.89 2.39274 -1.82122 0
M  V30 776 C 77.438 2.52987 -1.843 0
M  V30 777 C 77.913 3.55669 -2.88555 0
M  V30 778 N 79.404 3.63183 -2.87493 0
M  V30 779 C 80.139 4.42381 -3.64811 0
M  V30 780 N 79.635 5.25125 -4.51903 0
M  V30 781 N 81.428 4.37217 -3.53267 0
M  V30 782 H 73.579 0.82752 -1.95617 0
M  V30 783 H 75.842 0.426123 -0.846831 0
M  V30 784 H 75.548 2.08678 -2.83102 0
M  V30 785 H 75.422 3.38725 -1.65967 0
M  V30 786 H 77.809 2.82896 -0.839869 0
M  V30 787 H 77.89 1.53623 -2.04532 0
M  V30 788 H 77.534 3.26499 -3.89051 0
M  V30 789 H 77.464 4.54728 -2.65575 0
M  V30 790 H 79.955 3.04103 -2.24343 0
M  V30 791 H 80.268 5.82728 -5.07591 0
M  V30 792 H 78.613 5.24519 -4.55966 0
M  V30 793 H 81.804 3.71626 -2.84625 0
M  V30 794 H 81.977 4.98696 -4.13771 0
M  V30 795 N 75.3831 0.828654 1.34056 0
M  V30 796 C 76.6231 0.425394 1.99924 0
M  V30 797 C 76.9871 -0.994294 1.64249 0
M  V30 798 O 78.1881 -1.50074 2.23005 0
M  V30 799 C 76.4591 0.628071 3.51838 0
M  V30 800 S 78.0181 0.318511 4.37642 0
M  V30 801 H 74.8361 0.160465 0.692656 0
M  V30 802 H 77.4381 1.07572 1.63244 0
M  V30 803 H 76.1421 1.66089 3.7529 0
M  V30 804 H 75.6731 -0.0367799 3.93383 0
M  V30 805 H 77.6881 -0.865632 4.88591 0
M  V30 806 N 76.8612 -1.46375 0.584142 0
M  V30 807 C 78.1012 -2.0427 0.0729695 0
M  V30 808 C 78.4652 -1.44563 -1.26355 0
M  V30 809 O 79.6662 -1.93667 -1.86405 0
M  V30 810 C 77.9372 -3.57399 0.00967464 0
M  V30 811 S 79.4962 -4.36551 -0.443714 0
M  V30 812 H 76.3142 -0.709975 0.0381673 0
M  V30 813 H 78.9162 -1.79398 0.776962 0
M  V30 814 H 77.6202 -3.98372 0.986319 0
M  V30 815 H 77.1512 -3.8681 -0.717044 0
M  V30 816 H 79.1662 -4.66237 -1.69816 0
M  V30 817 N 78.3393 -0.321999 -1.54275 0
M  V30 818 C 79.6163 0.335232 -1.92706 0
M  V30 819 C 79.9963 1.70006 -1.25145 0
M  V30 820 O 79.3443 2.25067 -0.394596 0
M  V30 821 C 79.5543 0.429008 -3.46353 0
M  V30 822 C 80.9023 0.690029 -4.18956 0
M  V30 823 O 81.9263 0.511992 -3.52501 0
M  V30 824 O 80.7853 1.03338 -5.36641 0
M  V30 825 H 77.8793 0.191143 -0.804608 0
M  V30 826 H 80.4253 -0.3716 -1.65581 0
M  V30 827 H 79.1973 -0.529611 -3.87699 0
M  V30 828 H 78.8203 1.18348 -3.79578 0
M  V30 829 N 79.8174 1.5752 -0.0501392 0
M  V30 830 C 81.0574 1.94521 0.627783 0
M  V30 831 C 81.4214 0.928265 1.68069 0
M  V30 832 O 82.6224 1.18517 2.41261 0
M  V30 833 C 80.8934 3.36319 1.20932 0
M  V30 834 S 82.4524 3.95272 1.90539 0
M  V30 835 H 79.2704 0.680456 0.206158 0
M  V30 836 H 81.8724 1.95139 -0.118829 0
M  V30 837 H 80.5764 4.08132 0.430865 0
M  V30 838 H 80.1074 3.39193 1.99277 0
M  V30 839 H 82.1224 3.80415 3.18589 0
M  V30 840 N 81.2955 -0.223234 1.56011 0
M  V30 841 C 82.5205 -0.968978 1.83373 0
M  V30 842 C 82.9455 -1.77227 0.630254 0
M  V30 843 O 82.3035 -1.76345 -0.420959 0
M  V30 844 C 82.3515 -1.86363 3.08709 0
M  V30 845 O 81.4555 -2.95873 2.87285 0
M  V30 846 H 80.7965 -0.274461 0.604622 0
M  V30 847 H 83.3265 -0.237056 2.03222 0
M  V30 848 H 83.3365 -2.27376 3.38768 0
M  V30 849 H 82.0115 -1.27319 3.95933 0
M  V30 850 H 80.5885 -2.58818 2.68454 0
M  V30 851 N 82.7736 -1.49793 -0.48987 0
M  V30 852 C 83.7366 -1.66752 -1.57246 0
M  V30 853 C 84.7366 -0.538867 -1.51502 0
M  V30 854 O 85.9266 -0.805545 -1.54456 0
M  V30 855 C 83.0586 -1.67528 -2.96896 0
M  V30 856 H 84.2516 -2.63321 -1.43534 0
M  V30 857 H 81.8046 -1.38992 -0.714914 0
M  V30 858 H 82.5396 -0.725837 -3.16073 0
M  V30 859 H 82.3246 -2.49504 -3.02473 0
M  V30 860 H 83.8146 -1.82667 -3.7553 0
M  V30 861 N 84.2517 0.741722 -1.39055 0
M  V30 862 C 85.4767 1.53607 -1.39354 0
M  V30 863 C 85.9017 1.88096 0.0116905 0
M  V30 864 O 85.2597 1.5143 0.996924 0
M  V30 865 C 85.3077 2.80441 -2.26682 0
M  V30 866 O 84.4117 3.76088 -1.69208 0
M  V30 867 H 83.7527 0.464142 -0.474835 0
M  V30 868 H 86.2827 0.915665 -1.82967 0
M  V30 869 H 86.2927 3.29246 -2.40959 0
M  V30 870 H 84.9677 2.5467 -3.2881 0
M  V30 871 H 83.5447 3.34833 -1.64138 0
M  V30 872 N 85.7298 1.2412 0.971189 0
M  V30 873 C 86.6598 1.05508 2.08304 0
M  V30 874 C 87.6408 -0.0308864 1.70072 0
M  V30 875 O 88.8258 0.135521 1.93727 0
M  V30 876 C 85.9558 0.655365 3.4106 0
M  V30 877 C 84.9098 1.68971 3.93234 0
M  V30 878 C 84.2358 1.14516 5.22293 0
M  V30 879 C 85.5358 3.08487 4.21465 0
M  V30 880 H 87.2298 1.98507 2.24132 0
M  V30 881 H 84.7758 0.955821 1.07704 0
M  V30 882 H 86.7288 0.51217 4.18276 0
M  V30 883 H 85.4528 -0.31032 3.25122 0
M  V30 884 H 84.1118 1.82106 3.18171 0
M  V30 885 H 83.7598 0.170189 5.02712 0
M  V30 886 H 83.4598 1.83635 5.58168 0
M  V30 887 H 84.9838 1.01401 6.02121 0
M  V30 888 H 86.3978 2.98601 4.89398 0
M  V30 889 H 84.7948 3.74926 4.68562 0
M  V30 890 H 85.8648 3.56787 3.28376 0
M  V30 891 N 87.2079 -1.17134 1.05439 0
M  V30 892 C 88.4329 -1.91913 0.786396 0
M  V30 893 C 88.8579 -1.7643 -0.652234 0
M  V30 894 O 88.2159 -1.08372 -1.45345 0
M  V30 895 C 88.2639 -3.40921 1.17497 0
M  V30 896 O 87.3679 -4.11244 0.308589 0
M  V30 897 H 86.7089 -0.598215 0.288158 0
M  V30 898 H 89.2389 -1.48457 1.4079 0
M  V30 899 H 89.2489 -3.91668 1.14281 0
M  V30 900 H 87.9239 -3.5151 2.22292 0
M  V30 901 H 86.5009 -3.70731 0.40157 0
M  V30 902 N 88.686 -0.835752 -1.33615 0
M  V30 903 C 89.636 -0.238856 -2.26745 0
M  V30 904 C 90.62 0.604343 -1.49119 0
M  V30 905 O 91.812 0.456822 -1.71003 0
M  V30 906 C 88.941 0.587725 -3.38232 0
M  V30 907 C 88.027 -0.266811 -4.2326 0
M  V30 908 N 88.418 -1.34403 -4.87616 0
M  V30 909 C 86.716 -0.0533131 -4.45968 0
M  V30 910 C 87.417 -1.86819 -5.50884 0
M  V30 911 N 86.393 -1.17013 -5.30857 0
M  V30 912 H 90.195 -1.06266 -2.74016 0
M  V30 913 H 87.709 -0.679881 -1.47483 0
M  V30 914 H 89.706 1.03161 -4.03935 0
M  V30 915 H 88.366 1.40954 -2.9251 0
M  V30 916 H 89.377 -1.7269 -4.88261 0
M  V30 917 H 86.054 0.735312 -4.10974 0
M  V30 918 H 87.444 -2.7701 -6.1214 0
M  V30 919 N 90.1641 1.46063 -0.591896 0
M  V30 920 C 91.0961 2.28539 0.174001 0
M  V30 921 C 92.1091 1.39047 0.846753 0
M  V30 922 O 93.2981 1.63564 0.714774 0
M  V30 923 C 90.3981 3.14347 1.26645 0
M  V30 924 C 89.5711 4.32021 0.683856 0
M  V30 925 C 88.6301 4.99157 1.66518 0
M  V30 926 O 87.6561 5.56458 1.19763 0
M  V30 927 N 88.8581 4.97005 2.99943 0
M  V30 928 H 91.6231 2.94911 -0.533633 0
M  V30 929 H 89.1841 1.56077 -0.430294 0
M  V30 930 H 91.1761 3.56125 1.92242 0
M  V30 931 H 89.7461 2.49988 1.87682 0
M  V30 932 H 88.9661 3.93915 -0.1498 0
M  V30 933 H 90.2541 5.08059 0.274567 0
M  V30 934 H 89.6521 4.51714 3.40545 0
M  V30 935 H 88.2091 5.42696 3.61004 0
M  V30 936 N 91.6422 0.330177 1.54103 0
M  V30 937 C 92.8722 -0.271784 2.04805 0
M  V30 938 C 93.2802 -1.45816 1.20559 0
M  V30 939 O 92.6232 -1.82247 0.2306 0
M  V30 940 C 92.6852 -0.763238 3.51305 0
M  V30 941 C 92.3492 0.301705 4.56003 0
M  V30 942 C 93.3462 1.13999 5.07248 0
M  V30 943 C 91.0312 0.451793 5.00264 0
M  V30 944 C 93.0252 2.11402 6.01322 0
M  V30 945 C 90.7122 1.42924 5.94151 0
M  V30 946 C 91.7102 2.25882 6.44567 0
M  V30 947 O 91.3982 3.21965 7.3661 0
M  V30 948 H 91.1302 -0.058693 0.673447 0
M  V30 949 H 93.6842 0.476395 1.99799 0
M  V30 950 H 91.9142 -1.56244 3.5373 0
M  V30 951 H 93.6032 -1.28427 3.85047 0
M  V30 952 H 94.3692 1.03505 4.73827 0
M  V30 953 H 90.2482 -0.184044 4.60632 0
M  V30 954 H 93.7922 2.76192 6.40596 0
M  V30 955 H 89.6892 1.53479 6.26988 0
M  V30 956 H 90.4572 3.17281 7.54503 0
M  V30 957 N 93.1203 -1.57491 0.0584922 0
M  V30 958 C 94.3503 -1.9701 -0.622134 0
M  V30 959 C 94.7583 -0.935034 -1.6448 0
M  V30 960 O 94.1013 0.0882904 -1.83488 0
M  V30 961 C 94.1633 -3.32794 -1.35972 0
M  V30 962 C 93.8273 -4.54343 -0.492043 0
M  V30 963 C 94.8243 -5.19323 0.244901 0
M  V30 964 C 92.5093 -5.00534 -0.420821 0
M  V30 965 C 94.5033 -6.28835 1.04143 0
M  V30 966 C 92.1903 -6.09921 0.379389 0
M  V30 967 C 93.1883 -6.73933 1.10919 0
M  V30 968 O 92.8763 -7.81216 1.89623 0
M  V30 969 H 92.6083 -0.653127 -0.174359 0
M  V30 970 H 95.1623 -2.05029 0.123418 0
M  V30 971 H 93.3923 -3.21351 -2.15105 0
M  V30 972 H 95.0813 -3.5701 -1.93129 0
M  V30 973 H 95.8473 -4.8459 0.19939 0
M  V30 974 H 91.7263 -4.50496 -0.978474 0
M  V30 975 H 95.2703 -6.7873 1.61157 0
M  V30 976 H 91.1673 -6.44089 0.426512 0
M  V30 977 H 91.9353 -7.98029 1.81913 0
M  V30 978 N 94.5984 0.214957 -1.56127 0
M  V30 979 C 95.5084 1.28727 -1.96129 0
M  V30 980 C 96.5244 1.50916 -0.866044 0
M  V30 981 O 97.7004 1.63918 -1.17016 0
M  V30 982 C 94.7654 2.61569 -2.27558 0
M  V30 983 C 93.8264 2.47625 -3.50685 0
M  V30 984 C 93.0594 3.74132 -3.80606 0
M  V30 985 O 93.2824 4.77438 -3.12104 0
M  V30 986 O 92.2164 3.70849 -4.74083 0
M  V30 987 H 96.0424 0.977855 -2.87527 0
M  V30 988 H 93.6274 0.418358 -1.43423 0
M  V30 989 H 95.5094 3.40012 -2.48938 0
M  V30 990 H 94.1844 2.92178 -1.39332 0
M  V30 991 H 93.0914 1.67361 -3.34576 0
M  V30 992 H 94.4244 2.21954 -4.39315 0
M  V30 993 N 96.0765 1.50051 0.48192 0
M  V30 994 C 97.0235 1.68122 1.58125 0
M  V30 995 C 97.9935 0.522545 1.57666 0
M  V30 996 O 99.1785 0.751844 1.75362 0
M  V30 997 C 96.3185 1.77142 2.96167 0
M  V30 998 C 95.4315 3.0444 3.06497 0
M  V30 999 C 94.5665 3.04321 4.35387 0
M  V30 1000 C 93.6055 4.26118 4.3942 0
M  V30 1001 N 92.7425 4.238 5.59766 0
M  V30 1002 H 97.5825 2.6198 1.42022 0
M  V30 1003 H 95.1195 1.29877 0.690687 0
M  V30 1004 H 97.0775 1.80352 3.76203 0
M  V30 1005 H 95.7075 0.867329 3.1093 0
M  V30 1006 H 94.7595 3.10752 2.19402 0
M  V30 1007 H 96.0715 3.94426 3.05336 0
M  V30 1008 H 95.2255 3.062 5.23762 0
M  V30 1009 H 93.9645 2.12147 4.39141 0
M  V30 1010 H 92.9695 4.24463 3.49444 0
M  V30 1011 H 94.1945 5.19507 4.37366 0
M  V30 1012 H 92.1405 3.34474 5.64326 0
M  V30 1013 H 92.0575 5.07542 5.60301 0
M  V30 1014 H 93.3255 4.2981 6.50295 0
M  V30 1015 N 97.5546 -0.734337 1.39446 0
M  V30 1016 C 98.8316 -1.48579 1.27215 0
M  V30 1017 C 99.2116 -2.1077 -0.117968 0
M  V30 1018 O 98.5596 -1.98646 -1.12924 0
M  V30 1019 C 98.7696 -2.53667 2.39696 0
M  V30 1020 C 100.118 -3.20031 2.79044 0
M  V30 1021 O 101.142 -2.6398 2.39151 0
M  V30 1022 O 100.001 -4.21455 3.47905 0
M  V30 1023 H 97.0946 -0.659816 0.49857 0
M  V30 1024 H 99.6406 -0.768106 1.51322 0
M  V30 1025 H 98.4126 -2.06096 3.32626 0
M  V30 1026 H 98.0356 -3.32994 2.17258 0
M  V30 1027 N 99.0327 -1.24633 -0.964593 0
M  V30 1028 C 100.281 -1.08573 -1.70459 0
M  V30 1029 C 100.602 0.375655 -1.91347 0
M  V30 1030 O 99.8717 1.26779 -1.49345 0
M  V30 1031 H 98.4517 -0.398784 -0.631649 0
M  V30 1032 H 101.114 -1.56601 -1.16026 0
M  V30 1033 H 100.21 -1.58623 -2.68785 0
M  V30 1034 N 100.511 1.16574 -1.06058 0
M  V30 1035 C 101.443 2.2045 -0.627239 0
M  V30 1036 C 102.456 1.59752 0.313534 0
M  V30 1037 O 103.645 1.78192 0.104896 0
M  V30 1038 C 100.745 3.3875 0.100974 0
M  V30 1039 C 99.9178 4.29008 -0.852687 0
M  V30 1040 C 98.9768 5.25944 -0.164152 0
M  V30 1041 O 98.0028 5.63535 -0.801047 0
M  V30 1042 N 99.2048 5.70075 1.09518 0
M  V30 1043 H 101.97 2.58249 -1.52077 0
M  V30 1044 H 99.5308 1.3156 -0.943594 0
M  V30 1045 H 101.523 4.00638 0.57194 0
M  V30 1046 H 100.093 2.99476 0.89628 0
M  V30 1047 H 99.3128 3.64419 -1.50308 0
M  V30 1048 H 100.601 4.86195 -1.49972 0
M  V30 1049 H 99.9988 5.41624 1.6328 0
M  V30 1050 H 98.5558 6.34067 1.51006 0
M  V30 1051 N 101.989 0.842826 1.3317 0
M  V30 1052 C 102.919 0.294028 2.31641 0
M  V30 1053 C 103.9 -0.600401 1.59151 0
M  V30 1054 O 105.085 -0.523124 1.87022 0
M  V30 1055 C 102.215 -0.528416 3.43257 0
M  V30 1056 C 101.169 0.27056 4.27144 0
M  V30 1057 C 100.495 -0.675881 5.30411 0
M  V30 1058 C 101.795 1.48981 5.00602 0
M  V30 1059 H 103.489 1.11681 2.77791 0
M  V30 1060 H 101.035 0.538478 1.33553 0
M  V30 1061 H 102.988 -0.922674 4.11175 0
M  V30 1062 H 101.712 -1.38445 2.95805 0
M  V30 1063 H 100.371 0.646427 3.60856 0
M  V30 1064 H 100.019 -1.52842 4.79216 0
M  V30 1065 H 99.7189 -0.145374 5.8742 0
M  V30 1066 H 101.243 -1.06757 6.01195 0
M  V30 1067 H 102.657 1.16849 5.61266 0
M  V30 1068 H 101.054 1.95739 5.6728 0
M  V30 1069 H 102.124 2.25746 4.29147 0
M  V30 1070 N 103.467 -1.45747 0.599634 0
M  V30 1071 C 104.714 -2.02292 0.0917284 0
M  V30 1072 C 105.042 -1.46906 -1.27472 0
M  V30 1073 O 104.297 -0.630652 -1.8526 0
M  V30 1074 C 104.596 -3.57399 -0.00602758 0
M  V30 1075 C 104.262 -4.31902 1.29503 0
M  V30 1076 C 102.924 -4.51974 1.65144 0
M  V30 1077 C 105.276 -4.74551 2.15525 0
M  V30 1078 C 102.604 -5.11949 2.86574 0
M  V30 1079 C 104.956 -5.35868 3.36196 0
M  V30 1080 C 103.62 -5.54165 3.72099 0
M  V30 1081 H 102.89 -0.740239 0.0335658 0
M  V30 1082 H 105.537 -1.7491 0.779661 0
M  V30 1083 H 103.842 -3.84014 -0.777183 0
M  V30 1084 H 105.539 -3.98846 -0.415038 0
M  V30 1085 H 102.129 -4.16588 1.00761 0
M  V30 1086 H 106.313 -4.58784 1.8929 0
M  V30 1087 H 101.569 -5.24305 3.14507 0
M  V30 1088 H 105.743 -5.6787 4.03109 0
M  V30 1089 H 103.37 -6.00406 4.6628 0
M  V30 1090 N 104.945 -0.338344 -1.53925 0
M  V30 1091 C 106.185 0.260168 -2.02737 0
M  V30 1092 C 106.549 1.48181 -1.22092 0
M  V30 1093 O 107.75 2.15416 -1.60777 0
M  V30 1094 C 106.021 0.571627 -3.52799 0
M  V30 1095 S 107.58 1.14769 -4.23525 0
M  V30 1096 H 104.398 0.077791 -0.706732 0
M  V30 1097 H 107 -0.474899 -1.89644 0
M  V30 1098 H 105.704 -0.325392 -4.09108 0
M  V30 1099 H 105.235 1.3365 -3.70002 0
M  V30 1100 H 107.25 2.43372 -4.32417 0
M  V30 1101 N 106.423 1.57458 -0.0668435 0
M  V30 1102 C 107.37 2.12439 0.902122 0
M  V30 1103 C 108.34 1.03565 1.2986 0
M  V30 1104 O 109.525 1.312 1.38532 0
M  V30 1105 C 106.665 2.6865 2.16614 0
M  V30 1106 C 105.778 3.91663 1.82274 0
M  V30 1107 C 104.913 4.36134 3.0325 0
M  V30 1108 C 103.952 5.51808 2.64904 0
M  V30 1109 N 103.089 5.9126 3.78624 0
M  V30 1110 H 107.929 2.94934 0.426382 0
M  V30 1111 H 105.466 1.4575 0.198819 0
M  V30 1112 H 107.424 2.99346 2.90599 0
M  V30 1113 H 106.054 1.88928 2.61737 0
M  V30 1114 H 105.106 3.6746 0.983719 0
M  V30 1115 H 106.418 4.75693 1.50059 0
M  V30 1116 H 105.572 4.68465 3.85519 0
M  V30 1117 H 104.311 3.50948 3.38655 0
M  V30 1118 H 103.316 5.19133 1.81055 0
M  V30 1119 H 104.541 6.38722 2.30675 0
M  V30 1120 H 102.487 5.09024 4.138 0
M  V30 1121 H 102.404 6.70018 3.5016 0
M  V30 1122 H 103.672 6.28212 4.61486 0
M  V30 1123 N 107.901 -0.206675 1.56239 0
M  V30 1124 C 108.848 -1.25617 1.93621 0
M  V30 1125 C 109.818 -1.45824 0.795274 0
M  V30 1126 O 111.003 -1.59148 1.05245 0
M  V30 1127 C 108.143 -2.59839 2.27107 0
M  V30 1128 C 107.256 -2.47308 3.54207 0
M  V30 1129 C 106.391 -3.74155 3.7707 0
M  V30 1130 C 105.43 -3.56407 4.97635 0
M  V30 1131 N 104.567 -4.75238 5.1681 0
M  V30 1132 H 109.407 -0.930383 2.83104 0
M  V30 1133 H 106.944 -0.448065 1.4011 0
M  V30 1134 H 108.902 -3.38021 2.44535 0
M  V30 1135 H 107.532 -2.90485 1.40778 0
M  V30 1136 H 106.584 -1.60483 3.4489 0
M  V30 1137 H 107.896 -2.30122 4.42544 0
M  V30 1138 H 107.05 -4.60778 3.94675 0
M  V30 1139 H 105.789 -3.94282 2.87042 0
M  V30 1140 H 104.794 -2.68168 4.79964 0
M  V30 1141 H 106.019 -3.37736 5.89161 0
M  V30 1142 H 103.965 -4.95651 4.29728 0
M  V30 1143 H 103.882 -4.60835 5.99306 0
M  V30 1144 H 105.15 -5.63246 5.38864 0
M  V30 1145 N 109.379 -1.50304 -0.473955 0
M  V30 1146 C 110.656 -1.51667 -1.23518 0
M  V30 1147 C 111.036 -0.259701 -2.09496 0
M  V30 1148 O 110.384 0.756986 -2.15597 0
M  V30 1149 C 110.594 -2.81082 -2.06868 0
M  V30 1150 C 111.942 -3.31631 -2.65153 0
M  V30 1151 O 112.966 -2.82384 -2.17113 0
M  V30 1152 O 111.825 -4.17471 -3.52675 0
M  V30 1153 H 108.919 -0.60822 -0.560355 0
M  V30 1154 H 111.465 -1.62592 -0.486011 0
M  V30 1155 H 110.237 -3.64041 -1.4349 0
M  V30 1156 H 109.86 -2.73146 -2.88924 0
M  V30 1157 N 110.857 0.726932 -1.39834 0
M  V30 1158 C 112.087 1.51393 -1.40583 0
M  V30 1159 C 112.495 1.892 -0.000740625 0
M  V30 1160 O 111.838 1.55189 0.982951 0
M  V30 1161 C 111.9 2.82588 -2.22226 0
M  V30 1162 C 111.564 2.67169 -3.70769 0
M  V30 1163 C 112.561 2.3518 -4.63666 0
M  V30 1164 C 110.246 2.83788 -4.14451 0
M  V30 1165 C 112.24 2.20002 -5.98229 0
M  V30 1166 C 109.927 2.68229 -5.49087 0
M  V30 1167 C 110.925 2.36382 -6.4079 0
M  V30 1168 O 110.613 2.2093 -7.72946 0
M  V30 1169 H 110.345 0.474168 -0.48181 0
M  V30 1170 H 112.899 0.905247 -1.84376 0
M  V30 1171 H 111.129 3.45746 -1.73195 0
M  V30 1172 H 112.818 3.44247 -2.15055 0
M  V30 1173 H 113.584 2.21984 -4.31217 0
M  V30 1174 H 109.463 3.07566 -3.43401 0
M  V30 1175 H 113.007 1.95067 -6.69772 0
M  V30 1176 H 108.904 2.81006 -5.81125 0
M  V30 1177 H 109.672 2.35937 -7.83757 0
M  V30 1178 N 112.336 1.25143 0.95797 0
M  V30 1179 C 113.582 1.10863 1.70531 0
M  V30 1180 C 113.937 -0.347391 1.89238 0
M  V30 1181 O 113.23 -1.25262 1.44983 0
M  V30 1182 C 113.424 1.79272 3.09187 0
M  V30 1183 C 113.253 3.31376 3.04006 0
M  V30 1184 C 112.023 4.0062 3.07948 0
M  V30 1185 C 114.221 4.27825 2.8543 0
M  V30 1186 N 112.203 5.39526 2.9289 0
M  V30 1187 C 113.574 5.53794 2.78769 0
M  V30 1188 C 115.629 4.1828 2.70085 0
M  V30 1189 C 114.332 6.7131 2.58331 0
M  V30 1190 C 116.358 5.35485 2.51017 0
M  V30 1191 C 115.72 6.60393 2.45073 0
M  V30 1192 H 111.819 0.460362 0.632132 0
M  V30 1193 H 114.403 1.58196 1.13499 0
M  V30 1194 H 112.574 1.34439 3.64391 0
M  V30 1195 H 114.306 1.57764 3.72683 0
M  V30 1196 H 111.061 3.51855 3.17009 0
M  V30 1197 H 111.485 6.12416 2.88574 0
M  V30 1198 H 116.127 3.22461 2.73457 0
M  V30 1199 H 113.845 7.67243 2.53701 0
M  V30 1200 H 117.431 5.29959 2.40073 0
M  V30 1201 H 116.311 7.49557 2.30509 0
M  V30 1202 N 113.814 -1.1601 1.06675 0
M  V30 1203 C 114.777 -2.18724 0.685001 0
M  V30 1204 C 115.777 -1.58496 -0.271246 0
M  V30 1205 O 116.967 -1.74119 -0.0531156 0
M  V30 1206 C 114.099 -3.40899 0.00853648 0
M  V30 1207 H 115.292 -2.54011 1.59431 0
M  V30 1208 H 112.845 -1.30352 0.862441 0
M  V30 1209 H 113.58 -3.11173 -0.913337 0
M  V30 1210 H 113.365 -3.8587 0.696204 0
M  V30 1211 H 114.855 -4.16886 -0.24414 0
M  V30 1212 N 115.292 -0.849877 -1.32721 0
M  V30 1213 C 116.708 -0.539102 -1.50219 0
M  V30 1214 C 116.908 0.931271 -1.78689 0
M  V30 1215 O 115.964 1.71455 -1.85363 0
M  V30 1216 C 117.277 -1.42196 -2.64954 0
M  V30 1217 C 118.825 -1.42189 -2.78839 0
M  V30 1218 C 119.3 -2.28985 -3.96648 0
M  V30 1219 N 120.791 -2.26754 -4.03902 0
M  V30 1220 C 121.526 -2.90644 -4.94281 0
M  V30 1221 N 121.022 -3.63629 -5.897 0
M  V30 1222 N 122.815 -2.80057 -4.87365 0
M  V30 1223 H 114.966 -1.80156 -1.12506 0
M  V30 1224 H 117.229 -0.769217 -0.554085 0
M  V30 1225 H 116.935 -2.46733 -2.50631 0
M  V30 1226 H 116.809 -1.10591 -3.60624 0
M  V30 1227 H 119.196 -0.38419 -2.92588 0
M  V30 1228 H 119.277 -1.77807 -1.83898 0
M  V30 1229 H 118.921 -3.32819 -3.83658 0
M  V30 1230 H 118.851 -1.90702 -4.90857 0
M  V30 1231 H 121.342 -1.73688 -3.3562 0
M  V30 1232 H 121.655 -4.09558 -6.55349 0
M  V30 1233 H 120 -3.67737 -5.89741 0
M  V30 1234 H 123.191 -2.22593 -4.11789 0
M  V30 1235 H 123.364 -3.30132 -5.57599 0
M  V30 1236 N 116.77 1.45427 -0.607355 0
M  V30 1237 C 118 2.06314 -0.108656 0
M  V30 1238 C 118.408 1.45269 1.21217 0
M  V30 1239 O 117.751 0.561115 1.74921 0
M  V30 1240 C 117.813 3.59345 0.105618 0
M  V30 1241 C 117.477 4.42723 -1.13337 0
M  V30 1242 C 118.474 4.77715 -2.05145 0
M  V30 1243 C 116.159 4.83478 -1.36213 0
M  V30 1244 C 118.153 5.52317 -3.18158 0
M  V30 1245 C 115.84 5.57835 -2.49527 0
M  V30 1246 C 116.838 5.92171 -3.40327 0
M  V30 1247 O 116.526 6.65019 -4.51669 0
M  V30 1248 H 116.258 0.672782 -0.0658842 0
M  V30 1249 H 118.812 1.87664 -0.834945 0
M  V30 1250 H 117.042 3.76394 0.886796 0
M  V30 1251 H 118.731 4.02076 0.555886 0
M  V30 1252 H 119.497 4.46787 -1.88697 0
M  V30 1253 H 115.376 4.56188 -0.664362 0
M  V30 1254 H 118.92 5.79036 -3.89054 0
M  V30 1255 H 114.817 5.88177 -2.65928 0
M  V30 1256 H 115.585 6.83469 -4.50348 0
M  V30 1257 N 118.248 0.346503 1.53744 0
M  V30 1258 C 119.496 -0.248612 2.00565 0
M  V30 1259 C 119.817 -1.5083 1.23593 0
M  V30 1260 O 119.087 -1.92858 0.343912 0
M  V30 1261 H 117.667 -0.0948564 0.740953 0
M  V30 1262 H 120.329 0.468341 1.89189 0
M  V30 1263 H 119.425 -0.488994 3.08245 0
M  V30 1264 N 119.726 -1.57421 0.075193 0
M  V30 1265 C 120.636 -2.1642 -0.905511 0
M  V30 1266 C 121.652 -1.12828 -1.32461 0
M  V30 1267 O 122.828 -1.45109 -1.39661 0
M  V30 1268 C 119.893 -2.71693 -2.15369 0
M  V30 1269 C 118.954 -3.90171 -1.79068 0
M  V30 1270 C 118.187 -4.42798 -2.97936 0
M  V30 1271 O 118.41 -3.94416 -4.12058 0
M  V30 1272 O 117.344 -5.34085 -2.77555 0
M  V30 1273 H 121.17 -3.00588 -0.433626 0
M  V30 1274 H 118.755 -1.48664 -0.148067 0
M  V30 1275 H 120.637 -3.07104 -2.88557 0
M  V30 1276 H 119.312 -1.90582 -2.61649 0
M  V30 1277 H 118.219 -3.59606 -1.03122 0
M  V30 1278 H 119.552 -4.72584 -1.37569 0
M  V30 1279 N 121.204 0.198386 -1.56346 0
M  V30 1280 C 122.429 0.939682 -1.84891 0
M  V30 1281 C 122.854 1.76202 -0.658369 0
M  V30 1282 O 122.212 1.76993 0.392851 0
M  V30 1283 C 122.26 1.81428 -3.11635 0
M  V30 1284 O 121.364 2.91265 -2.91956 0
M  V30 1285 H 120.705 0.264807 -0.608912 0
M  V30 1286 H 123.235 0.204695 -2.03573 0
M  V30 1287 H 123.245 2.21958 -3.42343 0
M  V30 1288 H 121.92 1.21004 -3.97908 0
M  V30 1289 H 120.497 2.54514 -2.72538 0
M  V30 1290 N 122.682 1.50554 0.465978 0
M  V30 1291 C 123.922 1.63439 1.22747 0
M  V30 1292 C 124.286 0.329822 1.89146 0
M  V30 1293 O 125.487 0.334161 2.66715 0
M  V30 1294 C 123.758 2.78542 2.2394 0
M  V30 1295 S 125.317 3.11591 3.0896 0
M  V30 1296 H 122.135 0.576113 0.416672 0
M  V30 1297 H 124.737 1.88357 0.523641 0
M  V30 1298 H 123.441 3.71805 1.7375 0
M  V30 1299 H 122.972 2.55726 2.98944 0
M  V30 1300 H 124.987 2.55811 4.25176 0
M  V30 1301 N 124.16 -0.719506 1.40217 0
M  V30 1302 C 125.11 -1.8251 1.36653 0
M  V30 1303 C 126.094 -1.59028 0.244732 0
M  V30 1304 O 127.286 -1.70268 0.483524 0
M  V30 1305 C 124.415 -3.20599 1.22763 0
M  V30 1306 C 123.501 -3.49858 2.39708 0
M  V30 1307 N 123.892 -3.49957 3.6519 0
M  V30 1308 C 122.19 -3.80297 2.33002 0
M  V30 1309 C 122.891 -3.77449 4.42614 0
M  V30 1310 N 121.867 -3.96002 3.72402 0
M  V30 1311 H 125.669 -1.80914 2.31619 0
M  V30 1312 H 123.183 -0.918455 1.33933 0
M  V30 1313 H 125.18 -3.99766 1.18292 0
M  V30 1314 H 123.84 -3.23424 0.287614 0
M  V30 1315 H 124.851 -3.309 3.98404 0
M  V30 1316 H 121.528 -3.90635 1.47346 0
M  V30 1317 H 122.918 -3.83863 5.51451 0
M  V30 1318 N 125.638 -1.25649 -0.95132 0
M  V30 1319 C 126.886 -1.10375 -1.69298 0
M  V30 1320 C 127.207 0.355339 -1.91735 0
M  V30 1321 O 126.477 1.25188 -1.50681 0
M  V30 1322 H 125.057 -0.405461 -0.627384 0
M  V30 1323 H 127.719 -1.57823 -1.14358 0
M  V30 1324 H 126.815 -1.61465 -2.67087 0
M  V30 1325 N 127.117 1.15442 -1.07289 0
M  V30 1326 C 128.357 1.8788 -0.805012 0
M  V30 1327 C 128.721 1.80413 0.656907 0
M  V30 1328 O 129.922 2.47874 1.0398 0
M  V30 1329 C 128.193 3.3298 -1.29843 0
M  V30 1330 S 129.752 4.23158 -1.16114 0
M  V30 1331 H 126.57 0.64839 -0.291739 0
M  V30 1332 H 129.172 1.39285 -1.37186 0
M  V30 1333 H 127.876 3.35958 -2.35712 0
M  V30 1334 H 127.407 3.86629 -0.726767 0
M  V30 1335 H 129.422 4.96103 -0.0982778 0
M  V30 1336 N 128.595 0.856903 1.32268 0
M  V30 1337 C 129.82 0.474569 2.01897 0
M  V30 1338 C 130.245 -0.921766 1.63967 0
M  V30 1339 O 129.603 -1.60589 0.84148 0
M  V30 1340 C 129.651 0.623799 3.55164 0
M  V30 1341 O 128.755 -0.342459 4.10976 0
M  V30 1342 H 128.096 0.190422 0.63611 0
M  V30 1343 H 130.626 1.15672 1.68764 0
M  V30 1344 H 130.636 0.512169 4.04773 0
M  V30 1345 H 129.311 1.64202 3.82113 0
M  V30 1346 H 127.888 -0.18688 3.72431 0
M  V30 1347 N 130.073 -1.45103 0.615059 0
M  V30 1348 C 130.983 -2.34382 -0.101034 0
M  V30 1349 C 131.999 -1.51681 -0.852585 0
M  V30 1350 O 133.175 -1.8446 -0.808484 0
M  V30 1351 C 130.24 -3.29417 -1.08099 0
M  V30 1352 C 129.301 -4.28025 -0.330577 0
M  V30 1353 C 128.534 -5.1852 -1.26385 0
M  V30 1354 O 128.757 -5.12598 -2.50198 0
M  V30 1355 O 127.691 -5.97122 -0.756866 0
M  V30 1356 H 131.517 -2.97033 0.632855 0
M  V30 1357 H 129.102 -1.4461 0.375293 0
M  V30 1358 H 130.984 -3.87958 -1.6452 0
M  V30 1359 H 129.659 -2.69321 -1.79577 0
M  V30 1360 H 128.566 -3.73078 0.276283 0
M  V30 1361 H 129.899 -4.90997 0.343866 0
M  V30 1362 N 131.551 -0.354651 -1.53558 0
M  V30 1363 C 132.483 0.5315 -2.22952 0
M  V30 1364 C 133.496 1.05503 -1.23988 0
M  V30 1365 O 134.685 0.963279 -1.50277 0
M  V30 1366 C 131.785 1.74538 -2.90499 0
M  V30 1367 C 130.958 1.35524 -4.15875 0
M  V30 1368 C 130.017 2.42999 -4.66731 0
M  V30 1369 O 129.043 2.05844 -5.30676 0
M  V30 1370 N 130.245 3.74423 -4.43608 0
M  V30 1371 H 133.01 -0.0628615 -2.99634 0
M  V30 1372 H 130.571 -0.179302 -1.60904 0
M  V30 1373 H 132.563 2.45892 -3.21433 0
M  V30 1374 H 131.133 2.24686 -2.17336 0
M  V30 1375 H 130.353 0.471998 -3.91364 0
M  V30 1376 H 131.641 1.07071 -4.97406 0
M  V30 1377 H 131.039 4.07391 -3.92491 0
M  V30 1378 H 129.596 4.41913 -4.7912 0
M  V30 1379 N 133.029 1.57378 -0.0835403 0
M  V30 1380 C 134.278 1.93106 0.582498 0
M  V30 1381 C 134.591 0.96651 1.70053 0
M  V30 1382 O 135.797 1.21705 2.42693 0
M  V30 1383 C 134.253 3.43076 1.08751 0
M  V30 1384 C 133.861 4.48 -0.000146404 0
M  V30 1385 C 135.605 3.87785 1.72694 0
M  V30 1386 C 133.512 5.89113 0.519568 0
M  V30 1387 H 132.442 0.720775 0.221358 0
M  V30 1388 H 135.093 1.82821 -0.157675 0
M  V30 1389 H 133.475 3.48474 1.88101 0
M  V30 1390 H 134.649 4.54233 -0.775199 0
M  V30 1391 H 132.964 4.1283 -0.54406 0
M  V30 1392 H 135.561 4.90604 2.1263 0
M  V30 1393 H 135.904 3.25796 2.59158 0
M  V30 1394 H 136.437 3.8504 0.999457 0
M  V30 1395 H 133.176 6.54775 -0.308186 0
M  V30 1396 H 132.696 5.86376 1.26188 0
M  V30 1397 H 134.375 6.39346 0.992237 0
M  V30 1398 N 134.507 -0.190092 1.56449 0
M  V30 1399 C 135.735 -0.925772 1.85033 0
M  V30 1400 C 136.15 -1.76638 0.666658 0
M  V30 1401 O 135.507 -1.78822 -0.364565 0
M  V30 1402 C 135.558 -1.81786 3.12468 0
M  V30 1403 O 135.279 -1.01118 4.26271 0
M  V30 1404 C 136.78 -2.6648 3.54265 0
M  V30 1405 H 134 -0.269872 0.614337 0
M  V30 1406 H 136.544 -0.195837 2.0356 0
M  V30 1407 H 134.699 -2.50136 2.95822 0
M  V30 1408 H 135.113 -1.61956 4.98869 0
M  V30 1409 H 136.587 -3.24722 4.46385 0
M  V30 1410 H 137.064 -3.40434 2.77491 0
M  V30 1411 H 137.67 -2.03493 3.73458 0
M  V30 1412 N 135.985 -1.50799 -0.457987 0
M  V30 1413 C 136.932 -1.70617 -1.5543 0
M  V30 1414 C 137.902 -0.547562 -1.56815 0
M  V30 1415 O 139.087 -0.779647 -1.74144 0
M  V30 1416 C 136.227 -1.81831 -2.93311 0
M  V30 1417 C 135.34 -3.09278 -3.01615 0
M  V30 1418 C 134.475 -3.11209 -4.30491 0
M  V30 1419 C 133.514 -4.33055 -4.32585 0
M  V30 1420 N 132.651 -4.32652 -5.52952 0
M  V30 1421 H 137.491 -2.64207 -1.37836 0
M  V30 1422 H 135.028 -1.30959 -0.669937 0
M  V30 1423 H 136.986 -1.86314 -3.73287 0
M  V30 1424 H 135.616 -0.916685 -3.0951 0
M  V30 1425 H 134.668 -3.14203 -2.1443 0
M  V30 1426 H 135.98 -3.99233 -2.99022 0
M  V30 1427 H 135.134 -3.14494 -5.18824 0
M  V30 1428 H 133.873 -2.19106 -4.35711 0
M  V30 1429 H 132.878 -4.29969 -3.42647 0
M  V30 1430 H 134.103 -5.264 -4.29046 0
M  V30 1431 H 132.049 -3.43409 -5.58933 0
M  V30 1432 H 131.966 -5.16392 -5.52155 0
M  V30 1433 H 133.234 -4.40101 -6.43375 0
M  V30 1434 N 137.463 0.71206 -1.40597 0
M  V30 1435 C 138.711 1.46907 -1.38791 0
M  V30 1436 C 139.032 1.94998 0.00780391 0
M  V30 1437 O 138.302 1.70587 0.963174 0
M  V30 1438 H 136.882 0.545043 -0.51082 0
M  V30 1439 H 139.544 0.843882 -1.75683 0
M  V30 1440 H 138.64 2.34021 -2.06496 0
M  V30 1441 N 138.941 1.26152 0.944643 0
M  V30 1442 C 139.871 1.09902 2.06019 0
M  V30 1443 C 140.852 0.00519538 1.70099 0
M  V30 1444 O 142.037 0.176583 1.93396 0
M  V30 1445 C 139.167 0.727562 3.39594 0
M  V30 1446 C 138.121 1.77274 3.89561 0
M  V30 1447 C 137.447 1.25569 5.19747 0
M  V30 1448 C 138.747 3.17357 4.14827 0
M  V30 1449 H 140.441 2.03217 2.19871 0
M  V30 1450 H 137.987 0.978452 1.05652 0
M  V30 1451 H 139.94 0.600777 4.17095 0
M  V30 1452 H 138.664 -0.241287 3.25707 0
M  V30 1453 H 137.323 1.88814 3.14237 0
M  V30 1454 H 136.971 0.276783 5.02238 0
M  V30 1455 H 136.671 1.95433 5.54148 0
M  V30 1456 H 138.195 1.1415 5.99835 0
M  V30 1457 H 139.609 3.08914 4.82954 0
M  V30 1458 H 138.006 3.84781 4.60504 0
M  V30 1459 H 139.076 3.63673 3.20734 0
M  V30 1460 N 140.419 -1.14872 1.07899 0
M  V30 1461 C 141.665 -1.86064 0.806725 0
M  V30 1462 C 141.998 -1.82434 -0.665706 0
M  V30 1463 O 141.273 -1.25138 -1.48899 0
M  V30 1464 C 141.556 -3.34929 1.32267 0
M  V30 1465 C 141.409 -3.47161 2.86006 0
M  V30 1466 C 142.728 -4.29863 0.943717 0
M  V30 1467 H 139.847 -0.675591 0.294526 0
M  V30 1468 H 142.489 -1.34925 1.33773 0
M  V30 1469 H 140.639 -3.78611 0.870974 0
M  V30 1470 H 142.311 -3.12302 3.39507 0
M  V30 1471 H 140.554 -2.88539 3.23925 0
M  V30 1472 H 141.225 -4.51777 3.17177 0
M  V30 1473 H 143.701 -3.9417 1.33302 0
M  V30 1474 H 142.577 -5.32494 1.33198 0
M  V30 1475 H 142.838 -4.41846 -0.149796 0
M  V30 1476 N 141.898 -0.863906 -1.31812 0
M  V30 1477 C 142.831 -0.259963 -2.26714 0
M  V30 1478 C 143.809 0.607392 -1.50829 0
M  V30 1479 O 144.993 0.562155 -1.79922 0
M  V30 1480 C 142.12 0.632456 -3.32743 0
M  V30 1481 C 141.166 -0.162743 -4.26189 0
M  V30 1482 S 141.999 -1.53726 -5.12961 0
M  V30 1483 C 143.155 -0.650803 -6.22507 0
M  V30 1484 H 143.388 -1.06445 -2.77591 0
M  V30 1485 H 140.921 -0.662071 -1.39485 0
M  V30 1486 H 142.879 1.14167 -3.94305 0
M  V30 1487 H 141.54 1.41083 -2.80632 0
M  V30 1488 H 140.733 0.517366 -5.01338 0
M  V30 1489 H 140.335 -0.60385 -3.69093 0
M  V30 1490 H 142.627 0.141134 -6.77353 0
M  V30 1491 H 143.57 -1.37322 -6.94657 0
M  V30 1492 H 143.978 -0.221041 -5.64067 0
M  V30 1493 N 143.376 1.44774 -0.622745 0
M  V30 1494 C 144.622 2.0242 -0.124083 0
M  V30 1495 C 144.955 1.4881 1.24777 0
M  V30 1496 O 144.23 0.668799 1.8264 0
M  V30 1497 C 144.513 3.59957 -0.101619 0
M  V30 1498 C 144.366 4.23867 -1.50521 0
M  V30 1499 C 145.685 4.36284 0.578272 0
M  V30 1500 H 142.804 0.735528 -0.0465645 0
M  V30 1501 H 145.446 1.72447 -0.797617 0
M  V30 1502 H 143.596 3.85623 0.471934 0
M  V30 1503 H 145.268 4.09336 -2.12701 0
M  V30 1504 H 143.511 3.81684 -2.06154 0
M  V30 1505 H 144.182 5.32843 -1.4416 0
M  V30 1506 H 146.658 4.16001 0.0906057 0
M  V30 1507 H 145.534 5.46004 0.563149 0
M  V30 1508 H 145.795 4.10271 1.64713 0
M  V30 1509 N 144.854 0.36279 1.53368 0
M  V30 1510 C 145.817 -0.472679 2.24273 0
M  V30 1511 C 146.817 -1.012 1.24961 0
M  V30 1512 O 148.007 -0.898194 1.49259 0
M  V30 1513 C 145.139 -1.66039 2.97731 0
M  V30 1514 H 146.332 0.14773 2.99536 0
M  V30 1515 H 143.885 0.114434 1.55881 0
M  V30 1516 H 144.62 -2.31896 2.26704 0
M  V30 1517 H 144.405 -1.28066 3.70596 0
M  V30 1518 H 145.895 -2.25252 3.51641 0
M  V30 1519 N 146.332 -1.57332 0.0918853 0
M  V30 1520 C 147.58 -1.93853 -0.571446 0
M  V30 1521 C 147.901 -0.974212 -1.6892 0
M  V30 1522 O 147.171 -0.0257254 -1.95883 0
M  V30 1523 H 145.751 -0.715666 -0.214082 0
M  V30 1524 H 148.413 -1.94287 0.154464 0
M  V30 1525 H 147.509 -2.96191 -0.983729 0
M  V30 1526 N 147.81 0.181792 -1.56548 0
M  V30 1527 C 148.72 1.24538 -1.98815 0
M  V30 1528 C 149.736 1.49045 -0.897861 0
M  V30 1529 O 150.912 1.61399 -1.20467 0
M  V30 1530 C 147.977 2.56683 -2.33055 0
M  V30 1531 C 147.038 2.40131 -3.55859 0
M  V30 1532 C 146.271 3.65975 -3.88456 0
M  V30 1533 O 146.494 4.70711 -3.22161 0
M  V30 1534 O 145.428 3.6071 -4.81842 0
M  V30 1535 H 149.254 0.916647 -2.89536 0
M  V30 1536 H 146.839 0.387842 -1.44278 0
M  V30 1537 H 148.721 3.34655 -2.56094 0
M  V30 1538 H 147.396 2.89157 -1.45498 0
M  V30 1539 H 146.303 1.60226 -3.38051 0
M  V30 1540 H 147.636 2.12585 -4.43924 0
M  V30 1541 N 149.288 1.51039 0.449983 0
M  V30 1542 C 150.218 1.74379 1.55288 0
M  V30 1543 C 151.199 0.593236 1.5942 0
M  V30 1544 O 152.384 0.834625 1.7535 0
M  V30 1545 C 149.514 1.85728 2.93466 0
M  V30 1546 C 148.468 3.01078 3.04197 0
M  V30 1547 C 147.794 2.97595 4.44231 0
M  V30 1548 C 149.094 4.41254 2.7945 0
M  V30 1549 H 150.788 2.66725 1.36008 0
M  V30 1550 H 148.334 1.2835 0.652864 0
M  V30 1551 H 150.287 2.0064 3.70569 0
M  V30 1552 H 149.011 0.900207 3.13949 0
M  V30 1553 H 147.67 2.85851 2.29531 0
M  V30 1554 H 147.318 1.99691 4.61663 0
M  V30 1555 H 147.018 3.75046 4.52343 0
M  V30 1556 H 148.542 3.14583 5.23326 0
M  V30 1557 H 149.956 4.56897 3.46292 0
M  V30 1558 H 148.353 5.20315 2.98985 0
M  V30 1559 H 149.423 4.52164 1.75144 0
M  V30 1560 N 150.766 -0.704594 1.40972 0
M  V30 1561 C 151.713 -1.81862 1.42109 0
M  V30 1562 C 152.683 -1.63781 0.276593 0
M  V30 1563 O 153.868 -1.84759 0.4763 0
M  V30 1564 C 151.008 -3.19669 1.30022 0
M  V30 1565 C 150.121 -3.49246 2.54267 0
M  V30 1566 C 149.256 -4.76618 2.3454 0
M  V30 1567 C 148.295 -4.99133 3.54306 0
M  V30 1568 N 147.432 -6.17726 3.33706 0
M  V30 1569 H 152.272 -1.80226 2.37324 0
M  V30 1570 H 149.809 -0.880238 1.17857 0
M  V30 1571 H 151.767 -3.99263 1.21018 0
M  V30 1572 H 150.397 -3.20506 0.384192 0
M  V30 1573 H 149.449 -2.64125 2.73756 0
M  V30 1574 H 150.761 -3.61788 3.43381 0
M  V30 1575 H 149.915 -5.64249 2.22952 0
M  V30 1576 H 148.654 -4.66305 1.42867 0
M  V30 1577 H 147.659 -4.09953 3.66359 0
M  V30 1578 H 148.884 -5.11311 4.4692 0
M  V30 1579 H 146.83 -6.08642 2.44725 0
M  V30 1580 H 146.747 -6.30995 4.16391 0
M  V30 1581 H 148.015 -7.08115 3.25873 0
M  V30 1582 N 152.244 -1.26651 -0.937939 0
M  V30 1583 C 153.474 -1.15006 -1.71631 0
M  V30 1584 C 153.882 0.297026 -1.86854 0
M  V30 1585 O 153.225 1.21493 -1.37786 0
M  V30 1586 C 153.287 -1.74984 -3.14039 0
M  V30 1587 C 152.951 -3.24103 -3.2219 0
M  V30 1588 C 153.948 -4.20877 -3.05219 0
M  V30 1589 C 151.633 -3.64625 -3.45476 0
M  V30 1590 C 153.627 -5.56151 -3.11408 0
M  V30 1591 C 151.314 -5.00032 -3.513 0
M  V30 1592 C 152.312 -5.95604 -3.34282 0
M  V30 1593 O 152 -7.28545 -3.3982 0
M  V30 1594 H 151.732 -0.401183 -0.544085 0
M  V30 1595 H 154.286 -1.67832 -1.18413 0
M  V30 1596 H 152.516 -1.16624 -3.68695 0
M  V30 1597 H 154.205 -1.58199 -3.73802 0
M  V30 1598 H 154.971 -3.90908 -2.87081 0
M  V30 1599 H 150.85 -2.90718 -3.57777 0
M  V30 1600 H 154.394 -6.30727 -2.98043 0
M  V30 1601 H 150.291 -5.29659 -3.68959 0
M  V30 1602 H 151.059 -7.3686 -3.56343 0
M  V30 1603 N 153.722 1.14298 -1.08507 0
M  V30 1604 C 154.672 2.17449 -0.685569 0
M  V30 1605 C 155.656 1.58167 0.295315 0
M  V30 1606 O 156.848 1.76675 0.107172 0
M  V30 1607 C 153.977 3.43161 -0.0975318 0
M  V30 1608 C 153.063 4.09471 -1.10426 0
M  V30 1609 N 153.454 4.51089 -2.28806 0
M  V30 1610 C 151.752 4.35976 -0.940258 0
M  V30 1611 C 152.453 5.02654 -2.9277 0
M  V30 1612 N 151.429 4.96927 -2.20374 0
M  V30 1613 H 155.231 2.47369 -1.587 0
M  V30 1614 H 152.745 1.30992 -0.959936 0
M  V30 1615 H 154.742 4.16388 0.20664 0
M  V30 1616 H 153.402 3.14719 0.798872 0
M  V30 1617 H 154.413 4.44097 -2.66455 0
M  V30 1618 H 151.09 4.17386 -0.0977441 0
M  V30 1619 H 152.48 5.44723 -3.93352 0
M  V30 1620 N 155.201 0.870884 1.31352 0
M  V30 1621 C 156.612 0.534714 1.78879 0
M  V30 1622 C 156.963 -0.948423 1.71754 0
M  V30 1623 O 156.088 -1.74055 1.28584 0
M  V30 1624 C 156.683 0.963839 3.24801 0
M  V30 1625 C 155.242 0.679311 3.70219 0
M  V30 1626 C 154.389 1.15465 2.52117 0
M  V30 1627 H 157.34 1.05651 1.18421 0
M  V30 1628 H 157.361 0.286892 3.79417 0
M  V30 1629 H 156.873 2.04332 3.29955 0
M  V30 1630 H 154.974 -0.388769 3.70566 0
M  V30 1631 H 155.087 1.25698 4.62317 0
M  V30 1632 H 153.451 0.574383 2.48139 0
M  V30 1633 H 154.234 2.24157 2.60016 0
M  V30 1634 N 156.679 -1.44442 0.630414 0
M  V30 1635 C 157.589 -2.34476 -0.0761693 0
M  V30 1636 C 158.605 -1.52576 -0.836449 0
M  V30 1637 O 159.781 -1.85307 -0.788874 0
M  V30 1638 C 156.846 -3.30545 -1.04599 0
M  V30 1639 C 155.907 -4.28352 -0.28516 0
M  V30 1640 C 155.14 -5.19831 -1.20878 0
M  V30 1641 O 155.363 -5.15223 -2.44747 0
M  V30 1642 O 154.297 -5.97892 -0.693491 0
M  V30 1643 H 158.123 -2.96345 0.664324 0
M  V30 1644 H 155.708 -1.44203 0.39061 0
M  V30 1645 H 157.59 -3.89681 -1.60396 0
M  V30 1646 H 156.265 -2.7121 -1.76711 0
M  V30 1647 H 155.172 -3.72764 0.315837 0
M  V30 1648 H 156.505 -4.90605 0.395924 0
M  V30 1649 N 158.157 -0.370918 -1.53173 0
M  V30 1650 C 159.397 0.217106 -2.03244 0
M  V30 1651 C 159.761 1.45558 -1.25207 0
M  V30 1652 O 160.962 2.11957 -1.65311 0
M  V30 1653 C 159.233 0.496664 -3.53932 0
M  V30 1654 S 160.792 1.0576 -4.25864 0
M  V30 1655 H 157.61 0.0627827 -0.708223 0
M  V30 1656 H 160.212 -0.515019 -1.88594 0
M  V30 1657 H 158.916 -0.412096 -4.08326 0
M  V30 1658 H 158.447 1.25772 -3.72753 0
M  V30 1659 H 160.462 2.34145 -4.37482 0
M  V30 1660 N 159.635 1.57281 -0.100228 0
M  V30 1661 C 160.882 1.94537 0.562268 0
M  V30 1662 C 161.21 0.982315 1.67871 0
M  V30 1663 O 160.465 0.00280936 1.957 0
M  V30 1664 C 160.764 3.38305 1.15259 0
M  V30 1665 C 160.43 4.50618 0.159409 0
M  V30 1666 C 159.092 4.81066 -0.113741 0
M  V30 1667 C 161.444 5.18615 -0.518461 0
M  V30 1668 C 158.772 5.76835 -1.07137 0
M  V30 1669 C 161.124 6.15412 -1.46459 0
M  V30 1670 C 159.788 6.44262 -1.74592 0
M  V30 1671 H 159.058 0.711863 0.205748 0
M  V30 1672 H 161.705 1.90679 -0.17715 0
M  V30 1673 H 160.01 3.38766 1.96836 0
M  V30 1674 H 161.707 3.64435 1.67297 0
M  V30 1675 H 158.297 4.2689 0.382491 0
M  V30 1676 H 162.481 4.95264 -0.320581 0
M  V30 1677 H 157.737 5.975 -1.29628 0
M  V30 1678 H 161.911 6.67194 -1.99564 0
M  V30 1679 H 159.538 7.1828 -2.48953 0
M  V30 1680 N 161.113 -0.173488 1.56642 0
M  V30 1681 C 162.362 -0.888758 1.81063 0
M  V30 1682 C 162.675 -1.83506 0.67712 0
M  V30 1683 O 163.881 -2.59254 0.806206 0
M  V30 1684 C 162.337 -1.63091 3.20826 0
M  V30 1685 C 161.945 -0.728357 4.4204 0
M  V30 1686 C 163.689 -2.33454 3.54541 0
M  V30 1687 C 161.596 -1.47062 5.72823 0
M  V30 1688 H 160.526 -0.335618 0.675186 0
M  V30 1689 H 163.177 -0.141712 1.82952 0
M  V30 1690 H 161.559 -2.42263 3.13248 0
M  V30 1691 H 162.733 0.0262449 4.60793 0
M  V30 1692 H 161.048 -0.134492 4.16183 0
M  V30 1693 H 163.645 -2.89578 4.49498 0
M  V30 1694 H 163.988 -3.08687 2.79317 0
M  V30 1695 H 164.521 -1.61227 3.63663 0
M  V30 1696 H 161.26 -0.760658 6.51072 0
M  V30 1697 H 160.78 -2.1986 5.58052 0
M  V30 1698 H 162.459 -2.01868 6.14702 0
M  V30 1699 N 162.591 -1.51276 -0.441967 0
M  V30 1700 C 163.831 -1.65372 -1.20132 0
M  V30 1701 C 164.195 -0.359871 -1.88597 0
M  V30 1702 O 165.396 -0.376551 -2.66149 0
M  V30 1703 C 163.667 -2.8207 -2.1948 0
M  V30 1704 S 165.226 -3.16467 -3.03964 0
M  V30 1705 H 162.044 -0.582669 -0.407453 0
M  V30 1706 H 164.646 -1.89166 -0.493609 0
M  V30 1707 H 163.35 -3.74523 -1.67812 0
M  V30 1708 H 162.881 -2.6045 -2.94838 0
M  V30 1709 H 164.896 -2.62543 -4.21053 0
M  V30 1710 N 164.069 0.697108 -1.41344 0
M  V30 1711 C 164.999 1.82353 -1.45841 0
M  V30 1712 C 165.98 1.67115 -0.317247 0
M  V30 1713 O 167.165 1.86871 -0.528474 0
M  V30 1714 C 164.295 3.20476 -1.33838 0
M  V30 1715 C 163.249 3.50415 -2.4575 0
M  V30 1716 C 162.575 4.87878 -2.18813 0
M  V30 1717 C 163.875 3.49546 -3.88091 0
M  V30 1718 H 165.569 1.78846 -2.40113 0
M  V30 1719 H 163.115 0.859028 -1.15571 0
M  V30 1720 H 165.068 3.98988 -1.35596 0
M  V30 1721 H 163.792 3.24604 -0.360498 0
M  V30 1722 H 162.451 2.74253 -2.43271 0
M  V30 1723 H 162.099 4.8863 -1.19371 0
M  V30 1724 H 161.799 5.08875 -2.93803 0
M  V30 1725 H 163.323 5.68702 -2.22284 0
M  V30 1726 H 164.737 4.18066 -3.92293 0
M  V30 1727 H 163.134 3.82075 -4.62751 0
M  V30 1728 H 164.204 2.48552 -4.16353 0
M  V30 1729 N 165.547 1.27147 0.931209 0
M  V30 1730 C 166.775 1.16082 1.71267 0
M  V30 1731 C 167.19 -0.282772 1.8667 0
M  V30 1732 O 166.547 -1.19283 1.38122 0
M  V30 1733 C 166.598 1.8358 3.11417 0
M  V30 1734 O 166.319 3.22299 2.96741 0
M  V30 1735 C 167.82 1.78597 4.05732 0
M  V30 1736 H 165.04 0.403758 0.535929 0
M  V30 1737 H 167.584 1.67953 1.16671 0
M  V30 1738 H 165.739 1.35623 3.62885 0
M  V30 1739 H 166.153 3.55851 3.85319 0
M  V30 1740 H 167.627 2.30444 5.01597 0
M  V30 1741 H 168.104 0.754564 4.3267 0
M  V30 1742 H 168.71 2.26152 3.60188 0
M  V30 1743 N 167.025 -1.13721 1.09112 0
M  V30 1744 C 168.265 -1.86576 0.834801 0
M  V30 1745 C 168.629 -1.81435 -0.628122 0
M  V30 1746 O 169.83 -2.49497 -1.00024 0
M  V30 1747 C 168.101 -3.30872 1.35124 0
M  V30 1748 S 169.66 -4.21257 1.22832 0
M  V30 1749 H 166.478 -0.643666 0.302017 0
M  V30 1750 H 169.08 -1.37085 1.39385 0
M  V30 1751 H 167.784 -3.32166 2.41027 0
M  V30 1752 H 167.315 -3.85423 0.788185 0
M  V30 1753 H 169.33 -4.95884 0.177191 0
M  V30 1754 N 168.503 -0.877838 -1.30888 0
M  V30 1755 C 169.751 -0.491723 -1.96027 0
M  V30 1756 C 170.072 0.960827 -1.69685 0
M  V30 1757 O 169.342 1.67462 -1.01654 0
M  V30 1758 H 167.922 -0.17885 -0.725273 0
M  V30 1759 H 170.584 -1.11935 -1.59551 0
M  V30 1760 H 169.68 -0.656016 -3.05128 0
M  V30 1761 N 169.982 1.44106 -0.638065 0
M  V30 1762 C 171.21 2.06336 -0.152615 0
M  V30 1763 C 171.625 1.47731 1.17563 0
M  V30 1764 O 170.982 0.602806 1.72257 0
M  V30 1765 C 171.033 3.61479 -0.0391491 0
M  V30 1766 O 170.754 4.17903 -1.31487 0
M  V30 1767 C 172.255 4.40757 0.474176 0
M  V30 1768 H 169.475 0.665862 -0.0828776 0
M  V30 1769 H 172.019 1.84862 -0.87443 0
M  V30 1770 H 170.174 3.82191 0.633142 0
M  V30 1771 H 170.588 5.11416 -1.16421 0
M  V30 1772 H 172.062 5.49707 0.502562 0
M  V30 1773 H 172.539 4.12697 1.50258 0
M  V30 1774 H 173.145 4.24979 -0.165102 0
M  V30 1775 N 171.46 0.379036 1.52974 0
M  V30 1776 C 172.707 -0.206421 2.01445 0
M  V30 1777 C 173.035 -1.47668 1.26587 0
M  V30 1778 O 172.29 -1.92514 0.351675 0
M  V30 1779 C 172.589 -0.53096 3.53434 0
M  V30 1780 C 172.255 0.646546 4.46241 0
M  V30 1781 C 170.917 0.969604 4.7133 0
M  V30 1782 C 173.269 1.43479 5.01062 0
M  V30 1783 C 170.597 2.08263 5.48492 0
M  V30 1784 C 172.949 2.53834 5.7944 0
M  V30 1785 C 171.613 2.86659 6.02812 0
M  V30 1786 H 170.883 -0.0755349 0.73714 0
M  V30 1787 H 173.53 0.514271 1.84465 0
M  V30 1788 H 171.835 -1.33285 3.68432 0
M  V30 1789 H 173.532 -0.996417 3.88423 0
M  V30 1790 H 170.122 0.384734 4.2687 0
M  V30 1791 H 174.306 1.19844 4.81613 0
M  V30 1792 H 169.562 2.34078 5.64816 0
M  V30 1793 H 173.736 3.15319 6.20924 0
M  V30 1794 H 171.363 3.73026 6.62387 0
M  V30 1795 N 172.938 -1.57226 0.108567 0
M  V30 1796 C 174.187 -1.94008 -0.551703 0
M  V30 1797 C 174.5 -0.993442 -1.68494 0
M  V30 1798 O 175.706 -1.25551 -2.40726 0
M  V30 1799 C 174.162 -3.44763 -1.03279 0
M  V30 1800 C 173.77 -4.47943 0.0714193 0
M  V30 1801 C 175.514 -3.90483 -1.66503 0
M  V30 1802 C 173.421 -5.89865 -0.425779 0
M  V30 1803 H 172.351 -0.724206 -0.209863 0
M  V30 1804 H 175.002 -1.82547 0.186741 0
M  V30 1805 H 173.384 -3.51422 -1.82533 0
M  V30 1806 H 174.558 -4.52942 0.847365 0
M  V30 1807 H 172.873 -4.11913 0.609669 0
M  V30 1808 H 175.47 -4.93925 -2.04798 0
M  V30 1809 H 175.813 -3.29877 -2.53942 0
M  V30 1810 H 176.346 -3.86581 -0.938074 0
M  V30 1811 H 173.085 -6.54202 0.412316 0
M  V30 1812 H 172.605 -5.88309 -1.16843 0
M  V30 1813 H 174.284 -6.40844 -0.890397 0
M  V30 1814 N 174.416 0.165178 -1.56732 0
M  V30 1815 C 175.664 0.879068 -1.8198 0
M  V30 1816 C 175.985 1.82514 -0.686561 0
M  V30 1817 O 175.255 1.93694 0.293146 0
M  V30 1818 H 173.835 0.327608 -0.671329 0
M  V30 1819 H 176.497 0.163526 -1.94213 0
M  V30 1820 H 175.593 1.45228 -2.76252 0
M  V30 1821 N 175.894 1.51508 0.433938 0
M  V30 1822 C 177.171 1.54888 1.19453 0
M  V30 1823 C 177.551 0.315154 2.08734 0
M  V30 1824 O 176.899 -0.699558 2.17528 0
M  V30 1825 C 177.109 2.86467 1.99342 0
M  V30 1826 C 178.457 3.38545 2.56267 0
M  V30 1827 O 179.481 2.88041 2.0955 0
M  V30 1828 O 178.34 4.26675 3.41483 0
M  V30 1829 H 175.434 0.622863 0.544032 0
M  V30 1830 H 177.98 1.63823 0.442732 0
M  V30 1831 H 176.752 3.67718 1.33788 0
M  V30 1832 H 176.375 2.8071 2.8158 0
M  V30 1833 N 177.372 -0.689602 1.41712 0
M  V30 1834 C 178.62 -1.4468 1.4111 0
M  V30 1835 C 178.941 -1.94986 0.0232196 0
M  V30 1836 O 178.211 -1.72097 -0.935913 0
M  V30 1837 H 176.791 -0.536847 0.519427 0
M  V30 1838 H 179.453 -0.815825 1.77004 0
M  V30 1839 H 178.549 -2.30706 2.10193 0
M  V30 1840 N 178.85 -1.27639 -0.924453 0
M  V30 1841 C 180.127 -1.04887 -1.651 0
M  V30 1842 C 180.507 0.415327 -2.06974 0
M  V30 1843 O 179.855 1.39923 -1.80648 0
M  V30 1844 C 180.065 -2.01348 -2.85061 0
M  V30 1845 C 181.413 -2.30899 -3.56329 0
M  V30 1846 O 182.437 -1.99348 -2.95193 0
M  V30 1847 O 181.296 -2.84699 -4.66485 0
M  V30 1848 H 178.39 -0.400083 -0.723784 0
M  V30 1849 H 180.936 -1.38916 -0.974703 0
M  V30 1850 H 179.708 -3.0008 -2.51133 0
M  V30 1851 H 179.331 -1.679 -3.6041 0
M  V30 1852 N 180.328 1.1314 -1.09713 0
M  V30 1853 C 181.556 1.88321 -0.856898 0
M  V30 1854 C 181.971 1.79276 0.592073 0
M  V30 1855 O 181.328 1.16142 1.40774 0
M  V30 1856 C 181.379 3.37812 -1.28706 0
M  V30 1857 O 181.1 3.46627 -2.67921 0
M  V30 1858 C 182.601 4.29952 -1.07964 0
M  V30 1859 H 179.821 0.596094 -0.308079 0
M  V30 1860 H 182.365 1.43205 -1.45988 0
M  V30 1861 H 180.52 3.805 -0.727912 0
M  V30 1862 H 180.934 4.39579 -2.8613 0
M  V30 1863 H 182.408 5.33159 -1.42986 0
M  V30 1864 H 182.885 4.39196 -0.0176577 0
M  V30 1865 H 183.491 3.93036 -1.62489 0
M  V30 1866 N 181.806 0.884767 1.30421 0
M  V30 1867 C 183.036 0.517293 2.00019 0
M  V30 1868 C 183.444 -0.898632 1.66497 0
M  V30 1869 O 182.787 -1.60245 0.898181 0
M  V30 1870 C 182.849 0.612025 3.54252 0
M  V30 1871 C 182.513 1.99222 4.1129 0
M  V30 1872 C 183.51 2.9616 4.273 0
M  V30 1873 C 181.195 2.29755 4.46674 0
M  V30 1874 C 183.189 4.21764 4.77906 0
M  V30 1875 C 180.876 3.55606 4.96979 0
M  V30 1876 C 181.874 4.51425 5.12547 0
M  V30 1877 O 181.562 5.75043 5.61766 0
M  V30 1878 H 181.294 0.198529 0.64619 0
M  V30 1879 H 183.848 1.1919 1.67281 0
M  V30 1880 H 182.078 -0.119561 3.86515 0
M  V30 1881 H 183.767 0.255859 4.05093 0
M  V30 1882 H 184.533 2.73882 4.00267 0
M  V30 1883 H 180.412 1.55942 4.33824 0
M  V30 1884 H 183.956 4.96561 4.89972 0
M  V30 1885 H 179.853 3.7772 5.23448 0
M  V30 1886 H 180.621 5.77422 5.80109 0
M  V30 1887 N 183.284 -1.43765 0.645699 0
M  V30 1888 C 184.512 -2.06253 0.163556 0
M  V30 1889 C 184.927 -1.48352 -1.16778 0
M  V30 1890 O 184.284 -0.611932 -1.71935 0
M  V30 1891 C 184.335 -3.61453 0.0583186 0
M  V30 1892 O 184.056 -4.172 1.33702 0
M  V30 1893 C 185.557 -4.41002 -0.450795 0
M  V30 1894 H 182.777 -0.665413 0.0864077 0
M  V30 1895 H 185.321 -1.84396 0.884222 0
M  V30 1896 H 183.476 -3.82522 -0.612865 0
M  V30 1897 H 183.89 -5.10791 1.19131 0
M  V30 1898 H 185.364 -5.49966 -0.473403 0
M  V30 1899 H 185.841 -4.13488 -1.48068 0
M  V30 1900 H 186.447 -4.24886 0.187637 0
M  V30 1901 N 184.763 -0.387143 -1.52771 0
M  V30 1902 C 185.693 0.440551 -2.29306 0
M  V30 1903 C 186.674 1.06535 -1.32606 0
M  V30 1904 O 187.859 1.07853 -1.61497 0
M  V30 1905 C 184.989 1.56919 -3.09829 0
M  V30 1906 C 183.943 1.07054 -4.14395 0
M  V30 1907 C 183.269 2.29109 -4.83129 0
M  V30 1908 C 184.569 0.140015 -5.22112 0
M  V30 1909 H 186.263 -0.198026 -2.98744 0
M  V30 1910 H 183.809 -0.09668 -1.43675 0
M  V30 1911 H 185.762 2.15503 -3.62128 0
M  V30 1912 H 184.486 2.23532 -2.3812 0
M  V30 1913 H 183.145 0.507247 -3.63074 0
M  V30 1914 H 182.793 2.94227 -4.0797 0
M  V30 1915 H 182.493 1.96406 -5.53804 0
M  V30 1916 H 184.017 2.88339 -5.38231 0
M  V30 1917 H 185.431 0.633978 -5.69784 0
M  V30 1918 H 183.828 -0.0971485 -6.00021 0
M  V30 1919 H 184.898 -0.811711 -4.78058 0
M  V30 1920 N 186.241 1.57166 -0.116904 0
M  V30 1921 C 187.487 1.95412 0.542405 0
M  V30 1922 C 187.82 1.00019 1.66463 0
M  V30 1923 O 187.095 0.0370346 1.94465 0
M  V30 1924 C 187.378 3.43615 1.07708 0
M  V30 1925 C 187.231 4.49781 -0.0415868 0
M  V30 1926 C 188.55 3.93616 1.96861 0
M  V30 1927 H 185.669 0.710543 0.195696 0
M  V30 1928 H 188.311 1.89027 -0.192038 0
M  V30 1929 H 186.461 3.49187 1.70296 0
M  V30 1930 H 188.133 4.56308 -0.676793 0
M  V30 1931 H 186.376 4.28033 -0.705019 0
M  V30 1932 H 187.047 5.50733 0.373717 0
M  V30 1933 H 189.523 3.90335 1.44146 0
M  V30 1934 H 188.399 4.97838 2.3119 0
M  V30 1935 H 188.66 3.34188 2.89432 0
M  V30 1936 N 187.719 -0.156864 1.56817 0
M  V30 1937 C 188.629 -1.2136 2.00771 0
M  V30 1938 C 189.645 -1.47598 0.921459 0
M  V30 1939 O 190.821 -1.59462 1.2302 0
M  V30 1940 C 187.886 -2.52943 2.37109 0
M  V30 1941 C 186.947 -2.34439 3.59634 0
M  V30 1942 C 186.18 -3.59748 3.94229 0
M  V30 1943 O 186.403 -4.65526 3.29609 0
M  V30 1944 O 185.337 -3.52998 4.8752 0
M  V30 1945 H 189.163 -0.870468 2.90958 0
M  V30 1946 H 186.748 -0.36484 1.44877 0
M  V30 1947 H 188.63 -3.30538 2.61386 0
M  V30 1948 H 187.305 -2.86806 1.5008 0
M  V30 1949 H 186.212 -1.54828 3.40557 0
M  V30 1950 H 187.545 -2.05496 4.4725 0
M  V30 1951 N 189.197 -1.51736 -0.425897 0
M  V30 1952 C 190.147 -1.70258 -1.51645 0
M  V30 1953 C 191.131 -0.556488 -1.5097 0
M  V30 1954 O 192.323 -0.812879 -1.5723 0
M  V30 1955 C 189.452 -1.84143 -2.89735 0
M  V30 1956 C 188.538 -3.04572 -2.95122 0
M  V30 1957 N 188.929 -4.2756 -2.70233 0
M  V30 1958 C 187.227 -3.04061 -3.26286 0
M  V30 1959 C 187.928 -5.08908 -2.81757 0
M  V30 1960 N 186.904 -4.43797 -3.13919 0
M  V30 1961 H 190.706 -2.63004 -1.31172 0
M  V30 1962 H 188.22 -1.4954 -0.633375 0
M  V30 1963 H 190.217 -1.95525 -3.68206 0
M  V30 1964 H 188.877 -0.925857 -3.1122 0
M  V30 1965 H 189.888 -4.56315 -2.44943 0
M  V30 1966 H 186.565 -2.22179 -3.53473 0
M  V30 1967 H 187.955 -6.16843 -2.66372 0
M  V30 1968 N 190.675 0.682077 -1.42076 0
M  V30 1969 C 191.9 1.47558 -1.45744 0
M  V30 1970 C 192.325 1.87977 -0.0680981 0
M  V30 1971 O 191.683 1.55522 0.9318 0
M  V30 1972 C 191.731 2.70575 -2.38373 0
M  V30 1973 O 190.835 3.68573 -1.85007 0
M  V30 1974 H 190.176 0.443585 -0.494093 0
M  V30 1975 H 192.706 0.837238 -1.86686 0
M  V30 1976 H 192.716 3.18729 -2.54707 0
M  V30 1977 H 191.391 2.40495 -3.39315 0
M  V30 1978 H 189.968 3.2757 -1.78192 0
M  V30 1979 N 192.153 1.28127 0.917671 0
M  V30 1980 C 193.1 1.11717 2.0196 0
M  V30 1981 C 194.07 0.0153929 1.66093 0
M  V30 1982 O 195.255 0.179596 1.89953 0
M  V30 1983 C 192.395 0.780927 3.36148 0
M  V30 1984 C 191.508 1.96135 3.84909 0
M  V30 1985 C 190.643 1.56609 5.0759 0
M  V30 1986 C 189.682 2.71339 5.48673 0
M  V30 1987 N 188.819 2.32332 6.62545 0
M  V30 1988 H 193.659 2.06003 2.15329 0
M  V30 1989 H 191.196 1.02535 1.05475 0
M  V30 1990 H 193.154 0.56675 4.13333 0
M  V30 1991 H 191.784 -0.124998 3.22558 0
M  V30 1992 H 190.836 2.28777 3.03916 0
M  V30 1993 H 192.148 2.82165 4.1132 0
M  V30 1994 H 191.302 1.31374 5.92305 0
M  V30 1995 H 190.041 0.677014 4.82978 0
M  V30 1996 H 189.046 2.97276 4.62501 0
M  V30 1997 H 190.271 3.60882 5.75274 0
M  V30 1998 H 188.217 1.45889 6.39572 0
M  V30 1999 H 188.134 3.11899 6.88662 0
M  V30 2000 H 189.402 2.10371 7.50576 0
M  V30 2001 N 193.631 -1.12557 1.10312 0
M  V30 2002 C 194.561 -2.20341 0.772798 0
M  V30 2003 C 195.542 -1.68198 -0.25365 0
M  V30 2004 O 196.727 -1.93831 -0.119699 0
M  V30 2005 C 193.857 -3.46709 0.202443 0
M  V30 2006 C 192.811 -4.11996 1.15943 0
M  V30 2007 C 192.137 -5.328 0.450345 0
M  V30 2008 C 193.437 -4.5828 2.50552 0
M  V30 2009 H 195.131 -2.48229 1.674 0
M  V30 2010 H 192.677 -1.19308 0.806326 0
M  V30 2011 H 194.63 -4.2138 -0.0407752 0
M  V30 2012 H 193.354 -3.18245 -0.734001 0
M  V30 2013 H 192.013 -3.39305 1.38808 0
M  V30 2014 H 191.661 -5.00602 -0.490531 0
M  V30 2015 H 191.361 -5.7743 1.08851 0
M  V30 2016 H 192.885 -6.10219 0.215642 0
M  V30 2017 H 194.299 -5.2433 2.31843 0
M  V30 2018 H 192.696 -5.13683 3.10242 0
M  V30 2019 H 193.766 -3.72329 3.10643 0
M  V30 2020 N 195.109 -0.891671 -1.2995 0
M  V30 2021 C 196.339 -0.527893 -1.99742 0
M  V30 2022 C 196.747 0.88979 -1.66971 0
M  V30 2023 O 196.09 1.59766 -0.906667 0
M  V30 2024 C 196.152 -0.630804 -3.53922 0
M  V30 2025 C 195.816 -2.01401 -4.10228 0
M  V30 2026 C 196.813 -2.98422 -4.25724 0
M  V30 2027 C 194.498 -2.32121 -4.45449 0
M  V30 2028 C 196.492 -4.24293 -4.75662 0
M  V30 2029 C 194.179 -3.58237 -4.95086 0
M  V30 2030 C 195.177 -4.54137 -5.10146 0
M  V30 2031 O 194.865 -5.78014 -5.58708 0
M  V30 2032 H 194.597 -0.201953 -0.645129 0
M  V30 2033 H 197.151 -1.20076 -1.66646 0
M  V30 2034 H 195.381 0.0990616 -3.86573 0
M  V30 2035 H 197.07 -0.277338 -4.04951 0
M  V30 2036 H 197.836 -2.76001 -3.98809 0
M  V30 2037 H 193.715 -1.5824 -4.32991 0
M  V30 2038 H 197.259 -4.99153 -4.87332 0
M  V30 2039 H 193.156 -3.80491 -5.21437 0
M  V30 2040 H 193.924 -5.8049 -5.77039 0
M  V30 2041 N 196.587 1.43421 -0.653314 0
M  V30 2042 C 197.827 2.03689 -0.170346 0
M  V30 2043 C 198.191 1.50427 1.19314 0
M  V30 2044 O 199.392 2.0234 1.76952 0
M  V30 2045 C 197.663 3.56946 -0.180183 0
M  V30 2046 S 199.222 4.38171 0.234925 0
M  V30 2047 H 196.04 0.707345 -0.0719976 0
M  V30 2048 H 198.642 1.75486 -0.86167 0
M  V30 2049 H 197.346 3.93212 -1.17526 0
M  V30 2050 H 196.877 3.89791 0.531675 0
M  V30 2051 H 198.892 4.73808 1.47378 0
M  V30 2052 N 198.065 0.39524 1.52563 0
M  V30 2053 C 199.313 -0.184678 2.01254 0
M  V30 2054 C 199.634 -1.46822 1.28329 0
M  V30 2055 O 198.904 -1.91666 0.405094 0
M  V30 2056 H 197.484 -0.0712355 0.743596 0
M  V30 2057 H 200.146 0.528293 1.87603 0
M  V30 2058 H 199.242 -0.390681 3.09645 0
M  V30 2059 N 199.544 -1.57102 0.125237 0
M  V30 2060 C 200.494 -2.12202 -0.833936 0
M  V30 2061 C 201.478 -1.04433 -1.22403 0
M  V30 2062 O 202.67 -1.30655 -1.19408 0
M  V30 2063 C 199.799 -2.72994 -2.08157 0
M  V30 2064 C 198.885 -3.87852 -1.71556 0
M  V30 2065 N 199.276 -4.9464 -1.05662 0
M  V30 2066 C 197.574 -3.98153 -2.00973 0
M  V30 2067 C 198.275 -5.74953 -0.883376 0
M  V30 2068 N 197.251 -5.24985 -1.41036 0
M  V30 2069 H 201.053 -2.92141 -0.321035 0
M  V30 2070 H 198.567 -1.62217 -0.0770315 0
M  V30 2071 H 200.564 -3.10816 -2.77847 0
M  V30 2072 H 199.224 -1.9452 -2.59985 0
M  V30 2073 H 200.235 -5.12872 -0.719878 0
M  V30 2074 H 196.912 -3.30728 -2.54804 0
M  V30 2075 H 198.302 -6.70904 -0.365675 0
M  V30 2076 N 201.022 0.148545 -1.56898 0
M  V30 2077 C 202.262 0.86765 -1.85071 0
M  V30 2078 C 202.626 1.78417 -0.709317 0
M  V30 2079 O 203.827 2.54261 -0.872049 0
M  V30 2080 C 202.098 1.62306 -3.1842 0
M  V30 2081 S 203.657 2.3878 -3.68143 0
M  V30 2082 H 200.475 0.290174 -0.649092 0
M  V30 2083 H 203.077 0.127755 -1.95082 0
M  V30 2084 H 201.781 0.941192 -3.99462 0
M  V30 2085 H 201.312 2.4039 -3.1141 0
M  V30 2086 H 203.327 3.63942 -3.37285 0
M  V30 2087 N 202.5 1.5196 0.417844 0
M  V30 2088 C 203.73 1.69181 1.18581 0
M  V30 2089 C 204.138 0.397104 1.84986 0
M  V30 2090 O 203.481 -0.636011 1.72339 0
M  V30 2091 C 203.543 2.76497 2.29759 0
M  V30 2092 C 203.207 4.18514 1.83563 0
M  V30 2093 C 204.204 5.02648 1.32821 0
M  V30 2094 C 201.889 4.64708 1.90661 0
M  V30 2095 C 203.883 6.31044 0.897894 0
M  V30 2096 C 201.57 5.93096 1.47241 0
M  V30 2097 C 202.568 6.76093 0.968891 0
M  V30 2098 O 202.256 8.02078 0.540924 0
M  V30 2099 H 201.988 0.570457 0.362705 0
M  V30 2100 H 204.542 1.99249 0.498885 0
M  V30 2101 H 202.772 2.41786 3.01789 0
M  V30 2102 H 204.461 2.82403 2.91553 0
M  V30 2103 H 205.227 4.68154 1.26716 0
M  V30 2104 H 201.106 4.00216 2.28797 0
M  V30 2105 H 204.65 6.95776 0.504192 0
M  V30 2106 H 200.547 6.271 1.53022 0
M  V30 2107 H 201.315 8.15794 0.66502 0
M  V30 2108 N 203.978 -0.674533 1.42435 0
M  V30 2109 C 205.208 -1.46071 1.46105 0
M  V30 2110 C 205.616 -1.89067 0.0709605 0
M  V30 2111 O 204.959 -1.58731 -0.924677 0
M  V30 2112 C 205.021 -2.74145 2.32561 0
M  V30 2113 C 204.685 -2.53224 3.8043 0
M  V30 2114 C 205.682 -2.17809 4.72075 0
M  V30 2115 C 203.367 -2.6821 4.24698 0
M  V30 2116 C 205.361 -1.97648 6.05982 0
M  V30 2117 C 203.048 -2.47665 5.58664 0
M  V30 2118 C 204.046 -2.12437 6.49122 0
M  V30 2119 O 203.734 -1.9209 7.80613 0
M  V30 2120 H 203.466 -0.455959 0.499076 0
M  V30 2121 H 206.02 -0.836193 1.87609 0
M  V30 2122 H 204.25 -3.3908 1.85908 0
M  V30 2123 H 205.939 -3.36028 2.27683 0
M  V30 2124 H 206.705 -2.05826 4.39159 0
M  V30 2125 H 202.584 -2.94609 3.54579 0
M  V30 2126 H 206.128 -1.70075 6.7655 0
M  V30 2127 H 202.025 -2.59244 5.91154 0
M  V30 2128 H 202.793 -2.06686 7.91974 0
M  V30 2129 N 205.456 -1.28612 -0.910864 0
M  V30 2130 C 206.388 -1.08589 -2.01844 0
M  V30 2131 C 207.401 -0.0367419 -1.62759 0
M  V30 2132 O 208.59 -0.280101 -1.76289 0
M  V30 2133 C 205.69 -0.628626 -3.33019 0
M  V30 2134 C 204.863 -1.75382 -4.00699 0
M  V30 2135 C 203.922 -1.28945 -5.10156 0
M  V30 2136 O 202.948 -1.9922 -5.33198 0
M  V30 2137 N 204.15 -0.154224 -5.80295 0
M  V30 2138 H 206.915 -2.03973 -2.19579 0
M  V30 2139 H 204.476 -1.20403 -1.08234 0
M  V30 2140 H 206.468 -0.301508 -4.03575 0
M  V30 2141 H 205.038 0.232451 -3.11735 0
M  V30 2142 H 204.258 -2.25039 -3.23653 0
M  V30 2143 H 205.546 -2.50854 -4.42662 0
M  V30 2144 H 204.944 0.43194 -5.64049 0
M  V30 2145 H 203.501 0.113599 -6.51701 0
M  V30 2146 N 206.934 1.1197 -1.10907 0
M  V30 2147 C 208.162 1.87402 -0.876824 0
M  V30 2148 C 208.577 1.79894 0.573025 0
M  V30 2149 O 207.934 1.17629 1.39534 0
M  V30 2150 C 207.985 3.36428 -1.32282 0
M  V30 2151 O 207.706 3.43765 -2.71582 0
M  V30 2152 C 209.207 4.28783 -1.12518 0
M  V30 2153 H 206.427 0.592793 -0.314384 0
M  V30 2154 H 208.971 1.41649 -1.47499 0
M  V30 2155 H 207.126 3.79706 -0.768229 0
M  V30 2156 H 207.54 4.3652 -2.90776 0
M  V30 2157 H 209.014 5.31613 -1.48633 0
M  V30 2158 H 209.491 4.39153 -0.0642394 0
M  V30 2159 H 210.097 3.91291 -1.66648 0
M  V30 2160 N 208.412 0.89855 1.29475 0
M  V30 2161 C 209.658 0.524658 1.95896 0
M  V30 2162 C 209.991 -0.926468 1.70676 0
M  V30 2163 O 209.266 -1.65665 1.01908 0
M  V30 2164 C 209.549 0.81633 3.50725 0
M  V30 2165 C 209.402 2.31907 3.85408 0
M  V30 2166 C 210.721 0.302038 4.39062 0
M  V30 2167 H 207.84 0.19209 0.711527 0
M  V30 2168 H 210.482 1.12502 1.53112 0
M  V30 2169 H 208.632 0.305369 3.87298 0
M  V30 2170 H 210.304 2.89949 3.58786 0
M  V30 2171 H 208.547 2.78027 3.32992 0
M  V30 2172 H 209.218 2.47373 4.93468 0
M  V30 2173 H 211.694 0.739551 4.09475 0
M  V30 2174 H 210.57 0.535331 5.46283 0
M  V30 2175 H 210.831 -0.797216 4.34853 0
M  V30 2176 N 209.89 -1.43072 0.660911 0
M  V30 2177 C 211.136 -2.0202 0.177708 0
M  V30 2178 C 211.469 -1.52066 -1.20787 0
M  V30 2179 O 210.744 -0.716987 -1.80802 0
M  V30 2180 C 211.027 -3.59561 0.197019 0
M  V30 2181 C 210.88 -4.19727 1.61706 0
M  V30 2182 C 212.199 -4.37664 -0.462396 0
M  V30 2183 H 209.318 -0.734034 0.0660494 0
M  V30 2184 H 211.96 -1.70272 0.843058 0
M  V30 2185 H 210.11 -3.86739 -0.369527 0
M  V30 2186 H 211.782 -4.03553 2.23479 0
M  V30 2187 H 210.025 -3.76084 2.16201 0
M  V30 2188 H 210.696 -5.28834 1.58237 0
M  V30 2189 H 213.172 -4.16095 0.0197215 0
M  V30 2190 H 212.048 -5.47305 -0.418188 0
M  V30 2191 H 212.309 -4.14493 -1.53778 0
M  V30 2192 N 211.368 -0.403325 -1.52352 0
M  V30 2193 C 212.596 0.174012 -2.06167 0
M  V30 2194 C 213.011 1.39347 -1.27388 0
M  V30 2195 O 212.368 1.79597 -0.324201 0
M  V30 2196 C 212.419 0.530223 -3.5759 0
M  V30 2197 O 212.14 -0.640806 -4.33388 0
M  V30 2198 C 213.641 1.16192 -4.27802 0
M  V30 2199 H 210.861 0.0229464 -0.670608 0
M  V30 2200 H 213.405 -0.572604 -1.9632 0
M  V30 2201 H 211.56 1.22673 -3.67464 0
M  V30 2202 H 211.974 -0.344851 -5.23365 0
M  V30 2203 H 213.448 1.36141 -5.34948 0
M  V30 2204 H 213.925 2.13335 -3.83907 0
M  V30 2205 H 214.531 0.505775 -4.22282 0
M  V30 2206 N 212.846 1.57033 -0.133567 0
M  V30 2207 C 214.257 1.82593 0.389464 0
M  V30 2208 C 214.608 1.05156 1.6564 0
M  V30 2209 O 213.733 0.292644 2.14412 0
M  V30 2210 C 214.328 3.31204 0.713377 0
M  V30 2211 C 212.887 3.57393 1.18098 0
M  V30 2212 C 212.034 2.76598 0.197126 0
M  V30 2213 H 214.985 1.54598 -0.358481 0
M  V30 2214 H 215.006 3.46627 1.56939 0
M  V30 2215 H 214.518 3.87537 -0.2089 0
M  V30 2216 H 212.619 3.06433 2.11966 0
M  V30 2217 H 212.732 4.65915 1.11624 0
M  V30 2218 H 211.096 2.45257 0.687088 0
M  V30 2219 H 211.879 3.35697 -0.718504 0
M  V30 2220 N 214.325 -0.140222 1.56975 0
M  V30 2221 C 215.571 -0.852949 1.83991 0
M  V30 2222 C 215.904 -1.80512 0.716187 0
M  V30 2223 O 215.179 -1.92479 -0.279681 0
M  V30 2224 C 215.462 -1.6215 3.21527 0
M  V30 2225 C 215.315 -0.690363 4.4447 0
M  V30 2226 C 216.634 -2.58247 3.56366 0
M  V30 2227 H 213.753 -0.308634 0.669264 0
M  V30 2228 H 216.395 -0.117898 1.89634 0
M  V30 2229 H 214.545 -2.24812 3.16847 0
M  V30 2230 H 216.217 -0.0742264 4.6124 0
M  V30 2231 H 214.46 -0.000396433 4.338 0
M  V30 2232 H 215.131 -1.2643 5.37326 0
M  V30 2233 H 217.607 -2.05701 3.61699 0
M  V30 2234 H 216.483 -3.09067 4.53617 0
M  V30 2235 H 216.744 -3.39923 2.82674 0
M  V30 2236 N 215.803 -1.52179 -0.40978 0
M  V30 2237 C 217.052 -1.65434 -1.15388 0
M  V30 2238 C 217.365 -0.390056 -1.91671 0
M  V30 2239 O 218.571 -0.402399 -2.68501 0
M  V30 2240 C 217.027 -2.92279 -2.10003 0
M  V30 2241 C 216.635 -4.25813 -1.39239 0
M  V30 2242 C 218.379 -3.14897 -2.84675 0
M  V30 2243 C 216.286 -5.43782 -2.32498 0
M  V30 2244 H 215.216 -0.616267 -0.434432 0
M  V30 2245 H 217.867 -1.78666 -0.418401 0
M  V30 2246 H 216.249 -2.72744 -2.871 0
M  V30 2247 H 217.423 -4.55828 -0.675099 0
M  V30 2248 H 215.738 -4.09292 -0.766097 0
M  V30 2249 H 218.335 -4.0021 -3.54593 0
M  V30 2250 H 218.678 -2.29103 -3.47588 0
M  V30 2251 H 219.211 -3.34901 -2.14677 0
M  V30 2252 H 215.95 -6.3192 -1.74233 0
M  V30 2253 H 215.47 -5.18106 -3.02201 0
M  V30 2254 H 217.149 -5.76834 -2.93038 0
M  V30 2255 N 217.281 0.66697 -1.42791 0
M  V30 2256 C 218.191 1.80962 -1.49299 0
M  V30 2257 C 219.207 1.69775 -0.381108 0
M  V30 2258 O 220.383 1.91188 -0.633188 0
M  V30 2259 C 217.448 3.17156 -1.40045 0
M  V30 2260 C 216.509 3.40242 -2.6179 0
M  V30 2261 C 215.742 4.69939 -2.52969 0
M  V30 2262 O 215.965 5.48372 -1.56985 0
M  V30 2263 O 214.899 4.94441 -3.43237 0
M  V30 2264 H 218.725 1.78427 -2.45759 0
M  V30 2265 H 216.31 0.823713 -1.24641 0
M  V30 2266 H 218.192 3.98413 -1.37276 0
M  V30 2267 H 216.867 3.20312 -0.467138 0
M  V30 2268 H 215.774 2.58802 -2.70134 0
M  V30 2269 H 217.107 3.41923 -3.54047 0
M  V30 2270 N 218.759 1.29093 0.90403 0
M  V30 2271 C 219.691 1.09658 2.01266 0
M  V30 2272 C 220.704 0.0453729 1.62737 0
M  V30 2273 O 221.893 0.289446 1.76138 0
M  V30 2274 C 218.993 0.646278 3.32681 0
M  V30 2275 C 218.166 1.77505 3.99763 0
M  V30 2276 C 217.225 1.31649 5.09465 0
M  V30 2277 O 216.251 2.02045 5.32134 0
M  V30 2278 N 217.453 0.184997 5.80205 0
M  V30 2279 H 220.218 2.05135 2.18494 0
M  V30 2280 H 217.779 1.20975 1.07594 0
M  V30 2281 H 219.771 0.322906 4.0341 0
M  V30 2282 H 218.341 -0.215916 3.11853 0
M  V30 2283 H 217.561 2.26752 3.22455 0
M  V30 2284 H 218.849 2.53198 4.41325 0
M  V30 2285 H 218.247 -0.402021 5.6427 0
M  V30 2286 H 216.804 -0.0790358 6.51752 0
M  V30 2287 N 220.237 -1.11381 1.11499 0
M  V30 2288 C 221.486 -1.82494 0.858993 0
M  V30 2289 C 221.799 -1.85605 -0.617278 0
M  V30 2290 O 223.005 -2.52824 -0.989552 0
M  V30 2291 C 221.461 -3.27745 1.48699 0
M  V30 2292 C 221.069 -3.32961 2.99735 0
M  V30 2293 C 222.813 -4.03754 1.31085 0
M  V30 2294 C 220.72 -4.72612 3.55516 0
M  V30 2295 H 219.65 -0.683802 0.317696 0
M  V30 2296 H 222.301 -1.25331 1.34031 0
M  V30 2297 H 220.683 -3.84844 0.933339 0
M  V30 2298 H 221.857 -2.85741 3.61509 0
M  V30 2299 H 220.172 -2.70433 3.16631 0
M  V30 2300 H 222.769 -5.06891 1.70192 0
M  V30 2301 H 223.112 -4.15527 0.253496 0
M  V30 2302 H 223.645 -3.53043 1.83318 0
M  V30 2303 H 220.384 -4.66036 4.60967 0
M  V30 2304 H 219.904 -5.2024 2.98513 0
M  V30 2305 H 221.583 -5.4157 3.53992 0
M  V30 2306 N 221.715 -0.905404 -1.28997 0
M  V30 2307 C 222.645 -0.404212 -2.29975 0
M  V30 2308 C 223.626 0.523784 -1.61835 0
M  V30 2309 O 224.811 0.433298 -1.89304 0
M  V30 2310 C 221.941 0.364042 -3.45387 0
M  V30 2311 C 220.895 -0.474048 -4.25367 0
M  V30 2312 C 220.221 0.422045 -5.33032 0
M  V30 2313 C 221.521 -1.72696 -4.92923 0
M  V30 2314 H 223.215 -1.24807 -2.72146 0
M  V30 2315 H 220.761 -0.601585 -1.30832 0
M  V30 2316 H 222.714 0.725447 -4.15109 0
M  V30 2317 H 221.438 1.24174 -3.02074 0
M  V30 2318 H 220.097 -0.81786 -3.57361 0
M  V30 2319 H 219.745 1.29804 -4.85963 0
M  V30 2320 H 219.445 -0.135057 -5.87445 0
M  V30 2321 H 220.969 0.779517 -6.05604 0
M  V30 2322 H 222.383 -1.43495 -5.55051 0
M  V30 2323 H 220.78 -2.22582 -5.57295 0
M  V30 2324 H 221.85 -2.45964 -4.17887 0
M  V30 2325 N 223.193 1.4272 -0.668489 0
M  V30 2326 C 224.604 1.84793 -0.266151 0
M  V30 2327 C 224.955 1.55959 1.19043 0
M  V30 2328 O 224.08 1.01622 1.91055 0
M  V30 2329 C 224.675 3.35436 -0.476271 0
M  V30 2330 C 223.234 3.76182 -0.128113 0
M  V30 2331 C 222.381 2.66344 -0.771777 0
M  V30 2332 H 225.332 1.32656 -0.871098 0
M  V30 2333 H 225.353 3.79515 0.273561 0
M  V30 2334 H 224.865 3.5639 -1.53647 0
M  V30 2335 H 222.966 3.60836 0.928891 0
M  V30 2336 H 223.079 4.75766 -0.564231 0
M  V30 2337 H 221.443 2.53885 -0.203652 0
M  V30 2338 H 222.226 2.90123 -1.83531 0
M  V30 2339 N 224.671 0.411399 1.52136 0
M  V30 2340 C 225.948 -0.222308 1.94333 0
M  V30 2341 C 226.328 -1.6242 1.34844 0
M  V30 2342 O 225.676 -2.22384 0.525145 0
M  V30 2343 C 225.886 -0.226345 3.48265 0
M  V30 2344 C 227.234 -0.444592 4.22266 0
M  V30 2345 O 228.258 -0.305602 3.54887 0
M  V30 2346 O 227.117 -0.718749 5.41753 0
M  V30 2347 H 224.211 -0.143907 0.814383 0
M  V30 2348 H 226.757 0.467506 1.63133 0
M  V30 2349 H 225.529 0.75475 3.83952 0
M  V30 2350 H 225.152 -0.960163 3.85832 0
M  V30 2351 N 226.149 -1.5696 0.141893 0
M  V30 2352 C 227.374 -2.00754 -0.520838 0
M  V30 2353 C 227.799 -1.0213 -1.57959 0
M  V30 2354 O 227.157 0.00371324 -1.813 0
M  V30 2355 C 227.205 -3.43318 -1.10294 0
M  V30 2356 O 226.309 -3.47679 -2.21795 0
M  V30 2357 H 225.65 -0.651564 -0.127908 0
M  V30 2358 H 228.18 -2.03221 0.23712 0
M  V30 2359 H 228.19 -3.82012 -1.43287 0
M  V30 2360 H 226.865 -4.14608 -0.327574 0
M  V30 2361 H 225.442 -3.20824 -1.9007 0
M  V30 2362 N 227.627 0.131896 -1.57047 0
M  V30 2363 C 229.038 0.690407 -1.73465 0
M  V30 2364 C 229.389 1.8094 -0.758629 0
M  V30 2365 O 228.514 2.16282 0.0713813 0
M  V30 2366 C 229.109 1.25916 -3.14532 0
M  V30 2367 C 227.668 1.76409 -3.32501 0
M  V30 2368 C 226.815 0.658579 -2.69366 0
M  V30 2369 H 229.766 -0.0939144 -1.58422 0
M  V30 2370 H 229.787 2.12892 -3.15369 0
M  V30 2371 H 229.299 0.444515 -3.85546 0
M  V30 2372 H 227.4 2.60391 -2.66509 0
M  V30 2373 H 227.513 1.88241 -4.4057 0
M  V30 2374 H 225.877 1.08899 -2.30246 0
M  V30 2375 H 226.66 -0.14487 -3.42994 0
M  V30 2376 N 229.106 1.52395 0.401703 0
M  V30 2377 C 230.354 1.66488 1.14569 0
M  V30 2378 C 230.675 0.400897 1.90835 0
M  V30 2379 O 229.945 -0.584415 1.8698 0
M  V30 2380 H 228.525 0.613672 0.425929 0
M  V30 2381 H 231.187 1.89464 0.457093 0
M  V30 2382 H 230.283 2.50942 1.85566 0
M  V30 2383 N 230.584 -0.659388 1.43143 0
M  V30 2384 C 231.809 -1.45221 1.48073 0
M  V30 2385 C 232.234 -1.87845 0.097995 0
M  V30 2386 O 231.592 -1.56985 -0.90694 0
M  V30 2387 C 231.64 -2.66748 2.42647 0
M  V30 2388 O 230.744 -3.65583 1.90848 0
M  V30 2389 H 230.085 -0.435669 0.501088 0
M  V30 2390 H 232.615 -0.807432 1.87994 0
M  V30 2391 H 232.625 -3.14637 2.59745 0
M  V30 2392 H 231.3 -2.35067 3.43098 0
M  V30 2393 H 229.877 -3.24693 1.83381 0
M  V30 2394 N 232.062 -1.29571 -0.897171 0
M  V30 2395 C 233.012 -1.11539 -1.98855 0
M  V30 2396 C 233.996 -0.0340716 -1.60864 0
M  V30 2397 O 235.188 -0.256062 -1.75138 0
M  V30 2398 C 232.317 -0.796603 -3.3393 0
M  V30 2399 C 231.403 -1.91758 -3.78272 0
M  V30 2400 N 231.794 -3.16143 -3.94826 0
M  V30 2401 C 230.092 -1.81119 -4.07568 0
M  V30 2402 C 230.793 -3.89293 -4.32233 0
M  V30 2403 N 229.769 -3.17255 -4.41419 0
M  V30 2404 H 233.571 -2.05894 -2.09726 0
M  V30 2405 H 231.085 -1.20732 -1.08616 0
M  V30 2406 H 233.082 -0.648459 -4.11826 0
M  V30 2407 H 231.742 0.139003 -3.24402 0
M  V30 2408 H 232.753 -3.5157 -3.80288 0
M  V30 2409 H 229.43 -0.948461 -4.06584 0
M  V30 2410 H 230.82 -4.9635 -4.52865 0
M  V30 2411 N 233.54 1.10788 -1.12088 0
M  V30 2412 C 234.47 2.19083 -0.807755 0
M  V30 2413 C 235.451 1.6858 0.226859 0
M  V30 2414 O 236.636 1.93997 0.0888475 0
M  V30 2415 C 233.766 3.46344 -0.257576 0
M  V30 2416 C 232.72 4.101 -1.22483 0
M  V30 2417 C 232.046 5.32016 -0.535052 0
M  V30 2418 C 233.346 4.54236 -2.57811 0
M  V30 2419 H 235.04 2.45534 -1.71328 0
M  V30 2420 H 232.586 1.1801 -0.825205 0
M  V30 2421 H 234.539 4.21392 -0.0262679 0
M  V30 2422 H 233.263 3.19373 0.683278 0
M  V30 2423 H 231.922 3.37054 -1.44189 0
M  V30 2424 H 231.57 5.01319 0.410827 0
M  V30 2425 H 231.27 5.75625 -1.18024 0
M  V30 2426 H 232.794 6.09799 -0.312695 0
M  V30 2427 H 234.208 5.20575 -2.40155 0
M  V30 2428 H 232.605 5.08682 -3.18375 0
M  V30 2429 H 233.675 3.6734 -3.16528 0
M  V30 2430 N 235.018 0.912232 1.28515 0
M  V30 2431 C 236.429 0.591352 1.77087 0
M  V30 2432 C 236.78 -0.8933 1.74684 0
M  V30 2433 O 235.905 -1.69876 1.34056 0
M  V30 2434 C 236.5 1.06668 3.2157 0
M  V30 2435 C 235.059 0.79675 3.67871 0
M  V30 2436 C 234.206 1.23427 2.48316 0
M  V30 2437 H 237.157 1.09365 1.15 0
M  V30 2438 H 237.178 0.407455 3.78312 0
M  V30 2439 H 236.69 2.14726 3.23287 0
M  V30 2440 H 234.791 -0.270679 3.71616 0
M  V30 2441 H 234.904 1.40343 4.58084 0
M  V30 2442 H 233.268 0.653036 2.46186 0
M  V30 2443 H 234.051 2.32316 2.52753 0
M  V30 2444 N 236.496 -1.42363 0.676048 0
M  V30 2445 C 237.446 -2.27987 -0.0242903 0
M  V30 2446 C 238.43 -1.41153 -0.772319 0
M  V30 2447 O 239.622 -1.64592 -0.651025 0
M  V30 2448 C 236.751 -3.29195 -0.973953 0
M  V30 2449 C 235.837 -4.23512 -0.223202 0
M  V30 2450 N 236.228 -4.99865 0.772589 0
M  V30 2451 C 234.526 -4.43606 -0.461469 0
M  V30 2452 C 235.227 -5.68757 1.22027 0
M  V30 2453 N 234.203 -5.40811 0.549975 0
M  V30 2454 H 238.005 -2.84445 0.73949 0
M  V30 2455 H 235.519 -1.54341 0.50522 0
M  V30 2456 H 237.516 -3.89339 -1.49067 0
M  V30 2457 H 236.176 -2.74298 -1.73755 0
M  V30 2458 H 237.187 -5.04921 1.15217 0
M  V30 2459 H 233.864 -3.99749 -1.20446 0
M  V30 2460 H 235.254 -6.40007 2.0455 0
M  V30 2461 N 237.974 -0.419461 -1.51915 0
M  V30 2462 C 239.202 0.152136 -2.0634 0
M  V30 2463 C 239.617 1.37988 -1.28859 0
M  V30 2464 O 238.974 1.79243 -0.343232 0
M  V30 2465 C 239.025 0.492266 -3.58133 0
M  V30 2466 O 238.746 -0.686736 -4.32684 0
M  V30 2467 C 240.247 1.11648 -4.2901 0
M  V30 2468 H 237.467 0.0158325 -0.670813 0
M  V30 2469 H 240.011 -0.593394 -1.95702 0
M  V30 2470 H 238.166 1.18769 -3.68745 0
M  V30 2471 H 238.58 -0.400341 -5.2297 0
M  V30 2472 H 240.054 1.3046 -5.36362 0
M  V30 2473 H 240.531 2.09251 -3.86148 0
M  V30 2474 H 241.137 0.460958 -4.22795 0
M  V30 2475 N 239.452 1.56882 -0.150215 0
M  V30 2476 C 240.698 1.96518 0.500834 0
M  V30 2477 C 241.031 1.03527 1.64304 0
M  V30 2478 O 240.306 0.0782751 1.94342 0
M  V30 2479 C 240.589 3.45822 1.00395 0
M  V30 2480 C 240.442 4.49591 -0.136983 0
M  V30 2481 C 241.761 3.97704 1.88467 0
M  V30 2482 H 238.88 0.714535 0.18058 0
M  V30 2483 H 241.522 1.88577 -0.232091 0
M  V30 2484 H 239.672 3.5272 1.62851 0
M  V30 2485 H 241.344 4.5477 -0.77343 0
M  V30 2486 H 239.587 4.26441 -0.795652 0
M  V30 2487 H 240.258 5.51402 0.256815 0
M  V30 2488 H 242.734 3.93304 1.35834 0
M  V30 2489 H 241.61 5.0263 2.20578 0
M  V30 2490 H 241.871 3.40252 2.82279 0
M  V30 2491 N 240.93 -0.123565 1.57115 0
M  V30 2492 C 242.158 -0.846461 1.88793 0
M  V30 2493 C 242.573 -1.73652 0.740976 0
M  V30 2494 O 241.93 -1.80207 -0.288393 0
M  V30 2495 C 241.981 -1.6837 3.19897 0
M  V30 2496 O 241.702 -0.829477 4.30176 0
M  V30 2497 C 243.203 -2.51214 3.65248 0
M  V30 2498 H 240.423 -0.243573 0.625231 0
M  V30 2499 H 242.967 -0.109324 2.04208 0
M  V30 2500 H 241.122 -2.37364 3.06165 0
M  V30 2501 H 241.536 -1.40651 5.0529 0
M  V30 2502 H 243.01 -3.05497 4.59756 0
M  V30 2503 H 243.487 -3.28359 2.9168 0
M  V30 2504 H 244.093 -1.8747 3.81752 0
M  V30 2505 N 242.408 -1.52605 -0.393616 0
M  V30 2506 C 243.338 -1.80022 -1.48709 0
M  V30 2507 C 244.319 -0.651995 -1.57108 0
M  V30 2508 O 245.504 -0.89913 -1.72132 0
M  V30 2509 C 242.634 -1.96492 -2.86371 0
M  V30 2510 C 241.588 -3.12161 -2.92813 0
M  V30 2511 C 240.914 -3.13877 -4.3288 0
M  V30 2512 C 242.214 -4.51322 -2.6288 0
M  V30 2513 H 243.908 -2.71589 -1.26015 0
M  V30 2514 H 241.454 -1.30684 -0.604778 0
M  V30 2515 H 243.407 -2.14255 -3.62867 0
M  V30 2516 H 242.131 -1.01611 -3.10391 0
M  V30 2517 H 240.79 -2.94173 -2.18764 0
M  V30 2518 H 240.438 -2.16687 -4.53933 0
M  V30 2519 H 240.138 -3.91576 -4.38112 0
M  V30 2520 H 241.662 -3.33789 -5.1129 0
M  V30 2521 H 243.076 -4.69435 -3.29096 0
M  V30 2522 H 241.473 -5.31053 -2.79468 0
M  V30 2523 H 242.543 -4.58353 -1.58242 0
M  V30 2524 N 243.887 0.651787 -1.4349 0
M  V30 2525 C 245.133 1.41376 -1.45398 0
M  V30 2526 C 245.466 1.94041 -0.0784823 0
M  V30 2527 O 244.741 1.72379 0.900878 0
M  V30 2528 C 245.024 2.59414 -2.49752 0
M  V30 2529 C 244.877 2.12232 -3.96582 0
M  V30 2530 C 246.196 3.61626 -2.50827 0
M  V30 2531 H 243.315 0.512719 -0.529422 0
M  V30 2532 H 245.957 0.738796 -1.75048 0
M  V30 2533 H 244.107 3.16997 -2.246 0
M  V30 2534 H 245.779 1.59639 -4.32797 0
M  V30 2535 H 244.022 1.43592 -4.09346 0
M  V30 2536 H 244.693 2.9712 -4.65214 0
M  V30 2537 H 247.169 3.13805 -2.7325 0
M  V30 2538 H 246.045 4.41766 -3.25783 0
M  V30 2539 H 246.306 4.14314 -1.5426 0
M  V30 2540 N 245.365 1.30045 0.890287 0
M  V30 2541 C 246.59 1.21598 1.68014 0
M  V30 2542 C 247.015 -0.218678 1.86825 0
M  V30 2543 O 246.373 -1.15756 1.39536 0
M  V30 2544 C 246.421 1.94434 3.03691 0
M  V30 2545 O 245.525 1.2678 3.92429 0
M  V30 2546 H 244.866 0.420856 0.513592 0
M  V30 2547 H 247.396 1.71775 1.11151 0
M  V30 2548 H 247.406 2.03251 3.5377 0
M  V30 2549 H 246.081 2.98777 2.89318 0
M  V30 2550 H 244.658 1.26282 3.50866 0
M  V30 2551 N 246.843 -1.10192 1.12674 0
M  V30 2552 C 248.092 -1.81573 0.8783 0
M  V30 2553 C 248.405 -1.86249 -0.597557 0
M  V30 2554 O 249.611 -2.5386 -0.962681 0
M  V30 2555 C 248.067 -3.26149 1.52167 0
M  V30 2556 C 247.675 -3.29763 3.03249 0
M  V30 2557 C 249.419 -4.0234 1.3536 0
M  V30 2558 C 247.326 -4.68815 3.60508 0
M  V30 2559 H 246.256 -0.680394 0.324931 0
M  V30 2560 H 248.907 -1.23902 1.35353 0
M  V30 2561 H 247.289 -3.83832 0.974104 0
M  V30 2562 H 248.463 -2.8189 3.6452 0
M  V30 2563 H 246.778 -2.67059 3.19481 0
M  V30 2564 H 249.375 -5.05058 1.75559 0
M  V30 2565 H 249.718 -4.15235 0.297554 0
M  V30 2566 H 250.251 -3.51079 1.87052 0
M  V30 2567 H 246.99 -4.61121 4.65884 0
M  V30 2568 H 246.51 -5.17045 3.04014 0
M  V30 2569 H 248.189 -5.37785 3.59717 0
M  V30 2570 N 248.321 -0.919034 -1.28029 0
M  V30 2571 C 249.732 -0.600735 -1.76771 0
M  V30 2572 C 250.083 0.884024 -1.75156 0
M  V30 2573 O 249.208 1.69163 -1.34956 0
M  V30 2574 C 249.803 -1.08372 -3.21 0
M  V30 2575 C 248.362 -0.816248 -3.67443 0
M  V30 2576 C 247.509 -1.24742 -2.47658 0
M  V30 2577 H 250.46 -1.09974 -1.14418 0
M  V30 2578 H 250.481 -0.427512 -3.78091 0
M  V30 2579 H 249.993 -2.16437 -3.22144 0
M  V30 2580 H 248.094 0.250968 -3.71754 0
M  V30 2581 H 248.207 -1.4277 -4.57333 0
M  V30 2582 H 246.571 -0.666083 -2.45836 0
M  V30 2583 H 247.354 -2.33653 -2.51518 0
M  V30 2584 N 249.799 1.42003 -0.683588 0
M  V30 2585 C 250.762 2.29191 -0.0198243 0
M  V30 2586 C 251.762 1.43773 0.72013 0
M  V30 2587 O 252.952 1.65061 0.556815 0
M  V30 2588 C 250.084 3.26435 0.982487 0
M  V30 2589 H 251.277 2.8938 -0.787345 0
M  V30 2590 H 248.83 1.49789 -0.446418 0
M  V30 2591 H 249.565 2.71203 1.77819 0
M  V30 2592 H 249.35 3.89449 0.455182 0
M  V30 2593 H 250.84 3.918 1.44508 0
M  V30 2594 N 251.277 0.427512 1.51691 0
M  V30 2595 C 252.502 -0.143601 2.06902 0
M  V30 2596 C 252.927 -1.36536 1.29382 0
M  V30 2597 O 252.285 -1.78289 0.329043 0
M  V30 2598 C 252.333 -0.454207 3.57728 0
M  V30 2599 O 251.437 -1.54228 3.82475 0
M  V30 2600 H 250.778 -0.00617128 0.663971 0
M  V30 2601 H 253.308 0.606014 1.95419 0
M  V30 2602 H 253.318 -0.707525 4.01818 0
M  V30 2603 H 251.993 0.438812 4.13579 0
M  V30 2604 H 250.57 -1.2797 3.50254 0
M  V30 2605 N 252.755 -1.56801 0.158532 0
M  V30 2606 C 253.98 -2.01295 -0.499516 0
M  V30 2607 C 254.405 -1.03799 -1.56867 0
M  V30 2608 O 253.763 -0.0155162 -1.81293 0
M  V30 2609 C 253.811 -3.44469 -1.06647 0
M  V30 2610 O 252.915 -3.50012 -2.18095 0
M  V30 2611 H 252.256 -0.652884 -0.12099 0
M  V30 2612 H 254.786 -2.02958 0.258661 0
M  V30 2613 H 254.796 -3.8351 -1.39227 0
M  V30 2614 H 253.471 -4.14932 -0.283581 0
M  V30 2615 H 252.048 -3.22822 -1.86656 0
M  V30 2616 N 254.233 0.115231 -1.57178 0
M  V30 2617 C 255.183 1.14707 -1.97044 0
M  V30 2618 C 256.167 1.36866 -0.845957 0
M  V30 2619 O 257.359 1.37895 -1.10968 0
M  V30 2620 C 254.488 2.47266 -2.38148 0
M  V30 2621 C 253.574 2.28566 -3.57237 0
M  V30 2622 N 253.965 1.79685 -4.72807 0
M  V30 2623 C 252.263 2.59208 -3.62943 0
M  V30 2624 C 252.964 1.74781 -5.54821 0
M  V30 2625 N 251.94 2.19264 -4.97417 0
M  V30 2626 H 255.742 0.761754 -2.83857 0
M  V30 2627 H 253.256 0.322928 -1.59157 0
M  V30 2628 H 255.253 3.219 -2.64927 0
M  V30 2629 H 253.913 2.86552 -1.52702 0
M  V30 2630 H 254.924 1.49177 -4.9595 0
M  V30 2631 H 251.601 3.02154 -2.88113 0
M  V30 2632 H 252.991 1.38212 -6.57531 0
M  V30 2633 N 255.711 1.52812 0.385517 0
M  V30 2634 C 256.959 1.67694 1.12797 0
M  V30 2635 C 257.28 0.421115 1.90399 0
M  V30 2636 O 256.55 -0.564551 1.87589 0
M  V30 2637 H 255.13 0.618155 0.419396 0
M  V30 2638 H 257.792 1.89938 0.436972 0
M  V30 2639 H 256.888 2.52896 1.82894 0
M  V30 2640 N 257.189 -0.644168 1.43834 0
M  V30 2641 C 258.136 -1.75671 1.49694 0
M  V30 2642 C 259.106 -1.6246 0.345809 0
M  V30 2643 O 260.291 -1.82573 0.554234 0
M  V30 2644 C 257.431 -3.13867 1.43463 0
M  V30 2645 C 256.544 -3.38147 2.6885 0
M  V30 2646 C 255.679 -4.66241 2.54544 0
M  V30 2647 C 254.718 -4.83657 3.75157 0
M  V30 2648 N 253.855 -6.03016 3.59605 0
M  V30 2649 H 258.695 -1.69998 2.44754 0
M  V30 2650 H 256.232 -0.829458 1.21484 0
M  V30 2651 H 258.19 -3.9377 1.37843 0
M  V30 2652 H 256.82 -3.18588 0.519783 0
M  V30 2653 H 255.872 -2.52276 2.84712 0
M  V30 2654 H 257.184 -3.46899 3.58417 0
M  V30 2655 H 256.338 -5.54285 2.46683 0
M  V30 2656 H 255.077 -4.59826 1.62516 0
M  V30 2657 H 254.082 -3.94046 3.83416 0
M  V30 2658 H 255.307 -4.91896 4.68204 0
M  V30 2659 H 253.253 -5.97715 2.7032 0
M  V30 2660 H 253.17 -6.12766 4.42779 0
M  V30 2661 H 254.438 -6.93657 3.55613 0
M  V30 2662 N 258.668 -1.30515 -0.883378 0
M  V30 2663 C 260.084 -1.08881 -1.16692 0
M  V30 2664 C 260.284 0.149409 -2.00945 0
M  V30 2665 O 259.34 0.84257 -2.38027 0
M  V30 2666 C 260.653 -2.35319 -1.87204 0
M  V30 2667 C 262.201 -2.40799 -1.99962 0
M  V30 2668 C 262.676 -3.67083 -2.73887 0
M  V30 2669 N 264.167 -3.679 -2.81432 0
M  V30 2670 C 264.902 -4.62303 -3.3921 0
M  V30 2671 N 264.398 -5.67052 -3.98025 0
M  V30 2672 N 266.191 -4.49845 -3.3704 0
M  V30 2673 H 258.342 -2.09951 -0.321633 0
M  V30 2674 H 260.605 -0.92556 -0.205043 0
M  V30 2675 H 260.311 -3.25689 -1.3274 0
M  V30 2676 H 260.185 -2.44089 -2.87577 0
M  V30 2677 H 262.572 -1.50907 -2.53597 0
M  V30 2678 H 262.653 -2.36003 -0.98673 0
M  V30 2679 H 262.297 -4.57334 -2.20925 0
M  V30 2680 H 262.227 -3.69141 -3.75556 0
M  V30 2681 H 264.718 -2.92171 -2.39676 0
M  V30 2682 H 265.031 -6.35184 -4.40183 0
M  V30 2683 H 263.376 -5.70842 -3.96439 0
M  V30 2684 H 266.567 -3.67194 -2.90321 0
M  V30 2685 H 266.74 -5.23597 -3.81772 0
M  V30 2686 N 260.146 1.09593 -1.13257 0
M  V30 2687 C 261.394 1.81375 -0.891492 0
M  V30 2688 C 261.715 1.86049 0.584009 0
M  V30 2689 O 260.985 1.34481 1.42449 0
M  V30 2690 H 259.565 0.671708 -0.326828 0
M  V30 2691 H 262.227 1.3256 -1.42877 0
M  V30 2692 H 261.323 2.84612 -1.28071 0
M  V30 2693 N 261.624 0.925811 1.2754 0
M  V30 2694 C 262.554 0.440748 2.29303 0
M  V30 2695 C 263.535 -0.497971 1.62648 0
M  V30 2696 O 264.72 -0.403126 1.8997 0
M  V30 2697 C 261.85 -0.309048 3.45922 0
M  V30 2698 C 260.804 0.54166 4.24559 0
M  V30 2699 C 260.13 -0.337191 5.33636 0
M  V30 2700 C 261.43 1.80516 4.90114 0
M  V30 2701 H 263.124 1.29121 2.70126 0
M  V30 2702 H 260.67 0.622323 1.29858 0
M  V30 2703 H 262.623 -0.659315 4.1621 0
M  V30 2704 H 261.347 -1.19352 3.04011 0
M  V30 2705 H 260.006 0.874609 3.56014 0
M  V30 2706 H 259.654 -1.22056 4.87966 0
M  V30 2707 H 259.354 0.228497 5.87156 0
M  V30 2708 H 260.878 -0.683072 6.06767 0
M  V30 2709 H 262.292 1.52307 5.52698 0
M  V30 2710 H 260.689 2.3142 5.53683 0
M  V30 2711 H 261.759 2.52581 4.13921 0
M  V30 2712 N 263.102 -1.41638 0.69111 0
M  V30 2713 C 264.327 -2.06148 0.227583 0
M  V30 2714 C 264.752 -1.51652 -1.11281 0
M  V30 2715 O 264.11 -0.64164 -1.69566 0
M  V30 2716 C 264.158 -3.60095 0.190858 0
M  V30 2717 O 263.262 -4.03845 -0.835664 0
M  V30 2718 H 262.603 -0.654434 0.112306 0
M  V30 2719 H 265.133 -1.81484 0.944714 0
M  V30 2720 H 265.143 -4.07995 0.020207 0
M  V30 2721 H 263.818 -3.99129 1.16915 0
M  V30 2722 H 262.395 -3.67458 -0.63473 0
M  V30 2723 N 264.58 -0.43555 -1.51462 0
M  V30 2724 C 265.826 0.131709 -2.02372 0
M  V30 2725 C 266.159 1.42516 -1.3192 0
M  V30 2726 O 265.434 1.89606 -0.433573 0
M  V30 2727 C 265.717 0.352301 -3.58373 0
M  V30 2728 C 265.57 -0.959676 -4.39443 0
M  V30 2729 C 266.889 1.12286 -4.25535 0
M  V30 2730 H 264.008 0.0463936 -0.735538 0
M  V30 2731 H 266.65 -0.574197 -1.81116 0
M  V30 2732 H 264.8 0.9536 -3.76615 0
M  V30 2733 H 266.472 -1.59482 -4.32855 0
M  V30 2734 H 264.715 -1.56468 -4.04599 0
M  V30 2735 H 265.386 -0.759394 -5.46752 0
M  V30 2736 H 267.862 0.613545 -4.11552 0
M  V30 2737 H 266.738 1.24598 -5.34571 0
M  V30 2738 H 266.999 2.15048 -3.86273 0
M  V30 2739 N 266.058 1.56714 -0.166846 0
M  V30 2740 C 267.283 2.01557 0.488833 0
M  V30 2741 C 267.708 1.0463 1.56314 0
M  V30 2742 O 267.066 0.0251304 1.81283 0
M  V30 2743 C 267.114 3.4503 1.04818 0
M  V30 2744 O 266.218 3.51163 2.16236 0
M  V30 2745 H 265.559 0.653516 0.117526 0
M  V30 2746 H 268.089 2.02818 -0.269421 0
M  V30 2747 H 268.099 3.84243 1.37191 0
M  V30 2748 H 266.774 4.15077 0.261572 0
M  V30 2749 H 265.351 3.23807 1.84942 0
M  V30 2750 N 267.536 -0.106894 1.57237 0
M  V30 2751 C 268.785 -0.811163 1.8467 0
M  V30 2752 C 269.098 -1.80469 0.754342 0
M  V30 2753 O 270.304 -2.55601 0.915439 0
M  V30 2754 C 268.76 -1.49337 3.27454 0
M  V30 2755 C 268.368 -0.540217 4.44731 0
M  V30 2756 C 270.112 -2.18206 3.64124 0
M  V30 2757 C 268.019 -1.22634 5.78545 0
M  V30 2758 H 266.949 -0.306679 0.688813 0
M  V30 2759 H 269.6 -0.0639887 1.83388 0
M  V30 2760 H 267.982 -2.2876 3.23241 0
M  V30 2761 H 269.156 0.221659 4.60267 0
M  V30 2762 H 267.471 0.042146 4.16379 0
M  V30 2763 H 270.068 -2.70253 4.61376 0
M  V30 2764 H 270.411 -2.96562 2.92158 0
M  V30 2765 H 270.944 -1.45658 3.70174 0
M  V30 2766 H 267.683 -0.483832 6.53712 0
M  V30 2767 H 267.203 -1.95993 5.66874 0
M  V30 2768 H 268.882 -1.75615 6.2271 0
M  V30 2769 N 269.014 -1.53014 -0.377408 0
M  V30 2770 C 270.291 -1.59215 -1.13622 0
M  V30 2771 C 270.671 -0.392407 -2.07421 0
M  V30 2772 O 270.019 0.618342 -2.19975 0
M  V30 2773 C 270.229 -2.93669 -1.88573 0
M  V30 2774 C 271.577 -3.47822 -2.43526 0
M  V30 2775 O 272.601 -2.9562 -1.98715 0
M  V30 2776 O 271.46 -4.39055 -3.25412 0
M  V30 2777 H 268.554 -0.642625 -0.52054 0
M  V30 2778 H 271.1 -1.65353 -0.381625 0
M  V30 2779 H 269.872 -3.7243 -1.20048 0
M  V30 2780 H 269.495 -2.90968 -2.70968 0
M  V30 2781 N 270.492 0.636531 -1.44174 0
M  V30 2782 C 271.903 1.21806 -1.41493 0
M  V30 2783 C 272.254 1.95785 -0.1275 0
M  V30 2784 O 271.379 2.02147 0.772376 0
M  V30 2785 C 271.974 2.21551 -2.56321 0
M  V30 2786 C 270.533 2.75143 -2.56853 0
M  V30 2787 C 269.68 1.50052 -2.33195 0
M  V30 2788 H 272.631 0.427531 -1.52833 0
M  V30 2789 H 272.652 3.0405 -2.28765 0
M  V30 2790 H 272.164 1.67679 -3.50008 0
M  V30 2791 H 270.265 3.33033 -1.67093 0
M  V30 2792 H 270.378 3.2155 -3.55165 0
M  V30 2793 H 268.742 1.77993 -1.82183 0
M  V30 2794 H 269.525 0.980903 -3.28988 0
M  V30 2795 N 271.97 1.30982 0.876444 0
M  V30 2796 C 273.381 1.18277 1.44456 0
M  V30 2797 C 273.732 -0.213265 1.95037 0
M  V30 2798 O 272.857 -1.11057 1.85729 0
M  V30 2799 C 273.452 2.1411 2.62569 0
M  V30 2800 C 272.011 2.05358 3.15444 0
M  V30 2801 C 271.158 2.03706 1.88146 0
M  V30 2802 H 274.109 1.43127 0.685584 0
M  V30 2803 H 274.13 1.72692 3.39054 0
M  V30 2804 H 273.642 3.15706 2.25724 0
M  V30 2805 H 271.743 1.06934 3.56926 0
M  V30 2806 H 271.856 2.94156 3.78166 0
M  V30 2807 H 270.22 1.48629 2.06837 0
M  V30 2808 H 271.003 3.07047 1.53547 0
M  V30 2809 N 273.449 -1.08991 1.13837 0
M  V30 2810 C 274.399 -2.1393 0.788535 0
M  V30 2811 C 275.383 -1.59396 -0.219516 0
M  V30 2812 O 276.575 -1.76985 -0.0227557 0
M  V30 2813 C 273.704 -3.42305 0.261147 0
M  V30 2814 C 272.79 -4.03736 1.29837 0
M  V30 2815 N 273.181 -4.39659 2.50067 0
M  V30 2816 C 271.479 -4.30993 1.1472 0
M  V30 2817 C 272.18 -4.88113 3.16419 0
M  V30 2818 N 271.156 -4.85846 2.43832 0
M  V30 2819 H 274.958 -2.39516 1.70322 0
M  V30 2820 H 272.472 -1.26263 1.02134 0
M  V30 2821 H 274.469 -4.16899 -0.0077405 0
M  V30 2822 H 273.129 -3.18172 -0.647805 0
M  V30 2823 H 274.14 -4.30878 2.8734 0
M  V30 2824 H 270.817 -4.16444 0.296773 0
M  V30 2825 H 272.207 -5.25336 4.18894 0
M  V30 2826 N 274.927 -0.932562 -1.27047 0
M  V30 2827 C 276.175 -0.574422 -1.93765 0
M  V30 2828 C 276.496 0.887993 -1.73608 0
M  V30 2829 O 275.766 1.62999 -1.08665 0
M  V30 2830 H 274.346 -0.209451 -0.717035 0
M  V30 2831 H 277.008 -1.18601 -1.5466 0
M  V30 2832 H 276.104 -0.784841 -3.02071 0
M  V30 2833 N 276.405 1.4127 -0.698611 0
M  V30 2834 C 277.816 1.84187 -0.305289 0
M  V30 2835 C 278.167 1.58449 1.15708 0
M  V30 2836 O 277.292 1.05651 1.88856 0
M  V30 2837 C 277.887 3.3435 -0.547314 0
M  V30 2838 C 276.446 3.75826 -0.207878 0
M  V30 2839 C 275.593 2.64647 -0.828099 0
M  V30 2840 H 278.544 1.30778 -0.89904 0
M  V30 2841 H 278.565 3.8001 0.192998 0
M  V30 2842 H 278.077 3.53051 -1.61172 0
M  V30 2843 H 276.178 3.62725 0.852143 0
M  V30 2844 H 276.291 4.74462 -0.665021 0
M  V30 2845 H 274.655 2.53395 -0.257458 0
M  V30 2846 H 275.438 2.86165 -1.89643 0
M  V30 2847 N 277.883 0.443576 1.51229 0
M  V30 2848 C 279.294 -0.0180867 1.86691 0
M  V30 2849 C 279.645 -1.41384 1.36033 0
M  V30 2850 O 278.77 -2.04291 0.713722 0
M  V30 2851 C 279.365 -0.039597 3.38777 0
M  V30 2852 C 277.924 -0.445692 3.73752 0
M  V30 2853 C 277.071 0.357584 2.74985 0
M  V30 2854 H 280.022 0.659138 1.44364 0
M  V30 2855 H 280.043 -0.847761 3.70936 0
M  V30 2856 H 279.555 0.976382 3.75617 0
M  V30 2857 H 277.656 -1.46704 3.42503 0
M  V30 2858 H 277.769 -0.166155 4.78812 0
M  V30 2859 H 276.133 -0.184973 2.54027 0
M  V30 2860 H 276.916 1.37256 3.14668 0
M  V30 2861 N 279.361 -1.56624 0.175154 0
M  V30 2862 C 280.609 -1.96609 -0.467885 0
M  V30 2863 C 280.93 -1.06238 -1.63519 0
M  V30 2864 O 280.2 -0.129523 -1.95471 0
M  V30 2865 H 278.78 -0.726008 -0.175845 0
M  V30 2866 H 281.442 -1.93195 0.257234 0
M  V30 2867 H 280.538 -3.00989 -0.825342 0
M  V30 2868 N 280.839 0.0985539 -1.57292 0
M  V30 2869 C 282.079 0.808332 -1.87737 0
M  V30 2870 C 282.443 1.7607 -0.76572 0
M  V30 2871 O 283.644 2.51358 -0.952499 0
M  V30 2872 C 281.915 1.52093 -3.23423 0
M  V30 2873 S 283.474 2.26947 -3.75554 0
M  V30 2874 H 280.292 0.269377 -0.657995 0
M  V30 2875 H 282.894 0.0656269 -1.9539 0
M  V30 2876 H 281.598 0.81363 -4.02254 0
M  V30 2877 H 281.129 2.30361 -3.189 0
M  V30 2878 H 283.144 3.53027 -3.48692 0
M  V30 2879 N 282.317 1.53212 0.369288 0
M  V30 2880 C 283.565 1.68881 1.11012 0
M  V30 2881 C 283.886 0.441285 1.89941 0
M  V30 2882 O 283.156 -0.544623 1.88177 0
M  V30 2883 H 281.736 0.622569 0.412816 0
M  V30 2884 H 284.398 1.90391 0.416802 0
M  V30 2885 H 283.494 2.54822 1.80201 0
M  V30 2886 N 283.795 -0.628877 1.44509 0
M  V30 2887 C 285.023 -1.41554 1.50897 0
M  V30 2888 C 285.438 -1.8832 0.134564 0
M  V30 2889 O 284.795 -1.60969 -0.859965 0
M  V30 2890 C 284.846 -2.63435 2.47556 0
M  V30 2891 O 284.567 -2.18619 3.79654 0
M  V30 2892 C 286.068 -3.56537 2.63431 0
M  V30 2893 H 283.288 -0.434044 0.511709 0
M  V30 2894 H 285.832 -0.768895 1.89495 0
M  V30 2895 H 283.987 -3.24187 2.12089 0
M  V30 2896 H 284.401 -2.97652 4.31861 0
M  V30 2897 H 285.875 -4.38657 3.35088 0
M  V30 2898 H 286.352 -4.05493 1.68738 0
M  V30 2899 H 286.958 -3.01653 2.9981 0
M  V30 2900 N 285.273 -1.31445 -0.869486 0
M  V30 2901 C 286.183 -1.21097 -2.0093 0
M  V30 2902 C 287.199 -0.127584 -1.73532 0
M  V30 2903 O 288.375 -0.345477 -1.98415 0
M  V30 2904 C 285.44 -0.919378 -3.34288 0
M  V30 2905 C 284.501 -2.08971 -3.75006 0
M  V30 2906 C 283.734 -1.81194 -5.02001 0
M  V30 2907 O 283.957 -0.747296 -5.65484 0
M  V30 2908 O 282.891 -2.66883 -5.39497 0
M  V30 2909 H 286.717 -2.16883 -2.12592 0
M  V30 2910 H 284.302 -1.11189 -0.997868 0
M  V30 2911 H 286.184 -0.772625 -4.14257 0
M  V30 2912 H 284.859 0.00844772 -3.23699 0
M  V30 2913 H 283.766 -2.29187 -2.95676 0
M  V30 2914 H 285.099 -2.9998 -3.90221 0
M  V30 2915 N 286.751 1.08385 -1.14413 0
M  V30 2916 C 287.701 2.13509 -0.79987 0
M  V30 2917 C 288.685 1.5951 0.211059 0
M  V30 2918 O 289.877 1.76995 0.0133694 0
M  V30 2919 C 287.006 3.42162 -0.279297 0
M  V30 2920 C 286.092 4.03042 -1.31976 0
M  V30 2921 N 286.483 4.38327 -2.52395 0
M  V30 2922 C 284.781 4.30379 -1.17004 0
M  V30 2923 C 285.482 4.86428 -3.19003 0
M  V30 2924 N 284.458 4.84547 -2.46405 0
M  V30 2925 H 288.26 2.38609 -1.7159 0
M  V30 2926 H 285.774 1.2572 -1.02802 0
M  V30 2927 H 287.771 4.16898 -0.0143688 0
M  V30 2928 H 286.431 3.18511 0.630923 0
M  V30 2929 H 287.442 4.29349 -2.89621 0
M  V30 2930 H 284.119 4.16281 -0.318854 0
M  V30 2931 H 285.509 5.23107 -4.21674 0
M  V30 2932 N 288.23 0.939286 1.26551 0
M  V30 2933 C 289.455 0.602008 1.98471 0
M  V30 2934 C 289.88 -0.815624 1.69497 0
M  V30 2935 O 289.238 -1.54912 0.941905 0
M  V30 2936 C 289.286 0.848407 3.50477 0
M  V30 2937 O 288.39 -0.0804009 4.12322 0
M  V30 2938 H 287.731 0.23049 0.622712 0
M  V30 2939 H 290.261 1.2617 1.61066 0
M  V30 2940 H 290.271 0.768553 4.00696 0
M  V30 2941 H 288.946 1.88171 3.70897 0
M  V30 2942 H 287.523 0.0503508 3.72866 0
M  V30 2943 N 289.708 -1.40897 0.706093 0
M  V30 2944 C 290.658 -2.27987 0.0240746 0
M  V30 2945 C 291.642 -1.42759 -0.742204 0
M  V30 2946 O 292.834 -1.65936 -0.615966 0
M  V30 2947 C 289.963 -3.31186 -0.903907 0
M  V30 2948 C 289.049 -4.2389 -0.133318 0
M  V30 2949 N 289.44 -4.98113 0.878444 0
M  V30 2950 C 287.738 -4.44485 -0.367269 0
M  V30 2951 C 288.439 -5.6604 1.34064 0
M  V30 2952 N 287.415 -5.39522 0.664565 0
M  V30 2953 H 291.217 -2.82812 0.799658 0
M  V30 2954 H 288.731 -1.53235 0.537845 0
M  V30 2955 H 290.728 -3.92413 -1.40775 0
M  V30 2956 H 289.388 -2.77922 -1.67897 0
M  V30 2957 H 290.399 -5.02364 1.25901 0
M  V30 2958 H 287.076 -4.02213 -1.1194 0
M  V30 2959 H 288.466 -6.35524 2.1808 0
M  V30 2960 N 291.186 -0.45159 -1.50991 0
M  V30 2961 C 292.414 0.108334 -2.06616 0
M  V30 2962 C 292.829 1.35224 -1.31757 0
M  V30 2963 O 292.186 1.78475 -0.381174 0
M  V30 2964 C 292.237 0.41619 -3.59096 0
M  V30 2965 O 291.958 -0.778361 -4.3113 0
M  V30 2966 C 293.459 1.02523 -4.31282 0
M  V30 2967 H 290.679 0.00159995 -0.670998 0
M  V30 2968 H 293.223 -0.634771 -1.94399 0
M  V30 2969 H 291.378 1.10921 -3.71181 0
M  V30 2970 H 291.792 -0.511181 -5.22003 0
M  V30 2971 H 293.266 1.19053 -5.39009 0
M  V30 2972 H 293.743 2.01013 -3.905 0
M  V30 2973 H 294.349 0.371173 -4.23677 0
M  V30 2974 N 292.664 1.56529 -0.183458 0
M  V30 2975 C 293.91 1.97537 0.459036 0
M  V30 2976 C 294.243 1.06989 1.62071 0
M  V30 2977 O 293.518 0.11948 1.94133 0
M  V30 2978 C 293.801 3.47874 0.930368 0
M  V30 2979 C 293.654 4.492 -0.232317 0
M  V30 2980 C 294.973 4.01612 1.79989 0
M  V30 2981 H 292.092 0.718204 0.165383 0
M  V30 2982 H 294.734 1.88042 -0.272038 0
M  V30 2983 H 292.884 3.56095 1.55333 0
M  V30 2984 H 294.556 4.53027 -0.86972 0
M  V30 2985 H 292.799 4.24657 -0.885928 0
M  V30 2986 H 293.47 5.51823 0.139796 0
M  V30 2987 H 295.946 3.96097 1.27461 0
M  V30 2988 H 294.822 5.07195 2.09867 0
M  V30 2989 H 295.083 3.46163 2.74998 0
M  V30 2990 N 294.142 -0.090211 1.57342 0
M  V30 2991 C 295.558 -0.444547 1.53284 0
M  V30 2992 C 295.758 -1.80238 0.900914 0
M  V30 2993 O 294.814 -2.4759 0.495513 0
M  V30 2994 C 296.127 -0.402543 2.97993 0
M  V30 2995 C 297.675 -0.48405 3.09234 0
M  V30 2996 C 298.15 -0.472144 4.5556 0
M  V30 2997 N 299.641 -0.532757 4.60126 0
M  V30 2998 C 300.376 -0.545462 5.708 0
M  V30 2999 N 299.872 -0.514082 6.9089 0
M  V30 3000 N 301.665 -0.59064 5.58988 0
M  V30 3001 H 293.816 0.799121 1.96794 0
M  V30 3002 H 296.079 0.297965 0.899956 0
M  V30 3003 H 295.785 0.528106 3.47712 0
M  V30 3004 H 295.659 -1.21969 3.56936 0
M  V30 3005 H 298.046 -1.40512 2.595 0
M  V30 3006 H 298.127 0.361328 2.53235 0
M  V30 3007 H 297.771 0.445 5.05947 0
M  V30 3008 H 297.701 -1.3348 5.09402 0
M  V30 3009 H 300.192 -0.562006 3.73698 0
M  V30 3010 H 300.505 -0.527195 7.71 0
M  V30 3011 H 298.85 -0.481054 6.93333 0
M  V30 3012 H 302.041 -0.61272 4.64073 0
M  V30 3013 H 302.214 -0.597073 6.45243 0
M  V30 3014 N 295.62 -1.53406 -0.361157 0
M  V30 3015 C 296.866 -1.70054 -1.10496 0
M  V30 3016 C 297.199 -0.453278 -1.88836 0
M  V30 3017 O 296.474 0.5495 -1.86576 0
M  V30 3018 C 296.757 -2.95317 -2.06058 0
M  V30 3019 C 296.61 -4.3021 -1.31298 0
M  V30 3020 C 297.929 -3.16193 -3.06121 0
M  V30 3021 H 295.048 -0.618799 -0.400321 0
M  V30 3022 H 297.69 -1.86052 -0.385318 0
M  V30 3023 H 295.84 -2.81809 -2.67425 0
M  V30 3024 H 297.512 -4.55538 -0.726807 0
M  V30 3025 H 295.755 -4.29421 -0.614853 0
M  V30 3026 H 296.426 -5.14 -2.01265 0
M  V30 3027 H 298.902 -3.28916 -2.5486 0
M  V30 3028 H 297.778 -4.05266 -3.70204 0
M  V30 3029 H 298.039 -2.31676 -3.76535 0
M  V30 3030 N 297.098 0.621204 -1.44841 0
M  V30 3031 C 298.03 1.74615 -1.48466 0
M  V30 3032 C 299.043 1.58377 -0.37691 0
M  V30 3033 O 300.232 1.66508 -0.643215 0
M  V30 3034 C 297.332 3.12459 -1.31236 0
M  V30 3035 C 296.505 3.55064 -2.55438 0
M  V30 3036 C 295.564 4.71821 -2.32963 0
M  V30 3037 O 294.59 4.79628 -3.06505 0
M  V30 3038 N 295.792 5.64186 -1.36654 0
M  V30 3039 H 298.557 1.71973 -2.45449 0
M  V30 3040 H 296.118 0.806077 -1.40407 0
M  V30 3041 H 298.11 3.88302 -1.14032 0
M  V30 3042 H 296.68 3.09686 -0.4258 0
M  V30 3043 H 295.9 2.69324 -2.87851 0
M  V30 3044 H 297.188 3.80284 -3.38026 0
M  V30 3045 H 296.586 5.6058 -0.759344 0
M  V30 3046 H 295.143 6.39618 -1.25425 0
M  V30 3047 N 298.576 1.31904 0.862503 0
M  V30 3048 C 299.824 1.21776 1.61292 0
M  V30 3049 C 300.145 -0.222413 1.93727 0
M  V30 3050 O 299.415 -1.1451 1.58947 0
M  V30 3051 H 297.995 0.447717 0.597962 0
M  V30 3052 H 300.657 1.65326 1.03215 0
M  V30 3053 H 299.753 1.7948 2.5533 0
M  V30 3054 N 300.054 -1.07777 1.14986 0
M  V30 3055 C 301.3 -1.80557 0.923422 0
M  V30 3056 C 301.633 -1.86298 -0.548337 0
M  V30 3057 O 300.908 -1.34354 -1.40639 0
M  V30 3058 C 301.191 -3.25839 1.53299 0
M  V30 3059 C 301.044 -3.28269 3.07505 0
M  V30 3060 C 302.363 -4.22991 1.21518 0
M  V30 3061 H 299.482 -0.655493 0.336894 0
M  V30 3062 H 302.124 -1.26144 1.42083 0
M  V30 3063 H 300.274 -3.72306 1.10999 0
M  V30 3064 H 301.946 -2.90079 3.58681 0
M  V30 3065 H 300.189 -2.67355 3.4162 0
M  V30 3066 H 300.86 -4.30691 3.45266 0
M  V30 3067 H 303.336 -3.84894 1.581 0
M  V30 3068 H 302.212 -5.22945 1.66793 0
M  V30 3069 H 302.473 -4.41904 0.131505 0
M  V30 3070 N 301.532 -0.945985 -1.26051 0
M  V30 3071 C 302.809 -0.513816 -1.88731 0
M  V30 3072 C 303.189 1.00872 -1.8544 0
M  V30 3073 O 302.537 1.8708 -1.312 0
M  V30 3074 C 302.747 -1.08062 -3.31849 0
M  V30 3075 C 304.095 -1.1522 -4.08668 0
M  V30 3076 O 305.119 -1.03155 -3.40936 0
M  V30 3077 O 303.978 -1.34044 -5.29806 0
M  V30 3078 H 301.072 -0.168193 -0.809716 0
M  V30 3079 H 303.618 -1.03886 -1.34186 0
M  V30 3080 H 302.39 -2.1241 -3.2863 0
M  V30 3081 H 302.013 -0.538307 -3.93939 0
M  V30 3082 N 303.011 1.40521 -0.713556 0
M  V30 3083 C 304.422 1.83853 -0.324807 0
M  V30 3084 C 304.773 1.59667 1.14021 0
M  V30 3085 O 303.898 1.07649 1.87725 0
M  V30 3086 C 304.493 3.33751 -0.582746 0
M  V30 3087 C 303.052 3.75584 -0.247727 0
M  V30 3088 C 302.199 2.63753 -0.856121 0
M  V30 3089 H 305.15 1.29817 -0.91286 0
M  V30 3090 H 305.171 3.80194 0.152682 0
M  V30 3091 H 304.683 3.51322 -1.64908 0
M  V30 3092 H 302.784 3.63608 0.813624 0
M  V30 3093 H 302.897 4.7373 -0.715307 0
M  V30 3094 H 301.261 2.53108 -0.28432 0
M  V30 3095 H 302.044 2.84137 -1.92668 0
M  V30 3096 N 304.489 0.459591 1.5075 0
M  V30 3097 C 305.737 -0.0991532 2.01857 0
M  V30 3098 C 306.058 -1.41247 1.34441 0
M  V30 3099 O 305.328 -1.89775 0.486022 0
M  V30 3100 H 303.908 -0.039633 0.745948 0
M  V30 3101 H 306.57 0.607387 1.85194 0
M  V30 3102 H 305.666 -0.258998 3.11023 0
M  V30 3103 N 305.967 -1.56429 0.191757 0
M  V30 3104 C 307.207 -1.99383 -0.450099 0
M  V30 3105 C 307.571 -1.07581 -1.59029 0
M  V30 3106 O 308.772 -1.39758 -2.29611 0
M  V30 3107 C 307.043 -3.45841 -0.901611 0
M  V30 3108 S 308.602 -4.10822 -1.54177 0
M  V30 3109 H 305.42 -0.696253 -0.144057 0
M  V30 3110 H 308.022 -1.93276 0.294036 0
M  V30 3111 H 306.726 -4.10354 -0.0616596 0
M  V30 3112 H 306.257 -3.55757 -1.67929 0
M  V30 3113 H 308.272 -4.07553 -2.83046 0
M  V30 3114 N 307.445 0.0818655 -1.57387 0
M  V30 3115 C 308.378 1.12986 -1.98266 0
M  V30 3116 C 309.356 1.38123 -0.857954 0
M  V30 3117 O 310.54 1.51663 -1.1194 0
M  V30 3118 C 307.667 2.47632 -2.31076 0
M  V30 3119 C 306.713 2.38693 -3.53452 0
M  V30 3120 S 307.546 1.79071 -5.04672 0
M  V30 3121 C 308.702 3.15316 -5.40673 0
M  V30 3122 H 308.935 0.781435 -2.86846 0
M  V30 3123 H 306.468 0.290034 -1.51651 0
M  V30 3124 H 308.426 3.25089 -2.50654 0
M  V30 3125 H 307.087 2.79638 -1.43043 0
M  V30 3126 H 306.28 3.37964 -3.73893 0
M  V30 3127 H 305.882 1.69369 -3.33452 0
M  V30 3128 H 308.174 4.11613 -5.38127 0
M  V30 3129 H 309.117 2.99664 -6.41566 0
M  V30 3130 H 309.525 3.15457 -4.68132 0
M  V30 3131 N 308.923 1.53595 0.353017 0
M  V30 3132 C 310.148 1.7462 1.11904 0
M  V30 3133 C 310.573 0.479721 1.8188 0
M  V30 3134 O 309.931 -0.567066 1.72204 0
M  V30 3135 C 309.979 2.92029 2.11545 0
M  V30 3136 O 309.083 2.61516 3.18878 0
M  V30 3137 H 308.424 0.579531 0.324099 0
M  V30 3138 H 310.954 2.00525 0.406301 0
M  V30 3139 H 310.964 3.18551 2.5493 0
M  V30 3140 H 309.639 3.83888 1.60008 0
M  V30 3141 H 308.216 2.45852 2.80377 0
M  V30 3142 N 310.401 -0.613514 1.45168 0
M  V30 3143 C 311.812 -1.19539 1.43413 0
M  V30 3144 C 312.163 -1.95558 0.158632 0
M  V30 3145 O 311.288 -2.0335 -0.740119 0
M  V30 3146 C 311.883 -2.17445 2.59813 0
M  V30 3147 C 310.442 -2.71022 2.61197 0
M  V30 3148 C 309.589 -1.46323 2.35552 0
M  V30 3149 H 312.54 -0.403163 1.53494 0
M  V30 3150 H 312.561 -3.00373 2.33574 0
M  V30 3151 H 312.073 -1.62089 3.52631 0
M  V30 3152 H 310.174 -3.30332 1.7237 0
M  V30 3153 H 310.287 -3.15859 3.60236 0
M  V30 3154 H 308.651 -1.75072 1.84992 0
M  V30 3155 H 309.434 -0.92844 3.30507 0
M  V30 3156 N 311.879 -1.3236 -0.855495 0
M  V30 3157 C 313.156 -1.13491 -1.59309 0
M  V30 3158 C 313.536 0.30503 -2.08885 0
M  V30 3159 O 312.884 1.30151 -1.87811 0
M  V30 3160 C 313.094 -2.16176 -2.73987 0
M  V30 3161 C 314.442 -2.49463 -3.43589 0
M  V30 3162 O 315.466 -2.14715 -2.84211 0
M  V30 3163 O 314.325 -3.09027 -4.50738 0
M  V30 3164 H 311.419 -0.437887 -0.701559 0
M  V30 3165 H 313.965 -1.43887 -0.899696 0
M  V30 3166 H 312.737 -3.1297 -2.34873 0
M  V30 3167 H 312.36 -1.86769 -3.51003 0
M  V30 3168 N 313.357 1.07166 -1.15556 0
M  V30 3169 C 314.603 1.80065 -0.932984 0
M  V30 3170 C 314.936 1.86586 0.53845 0
M  V30 3171 O 314.211 1.35098 1.39924 0
M  V30 3172 C 314.494 3.25022 -1.55025 0
M  V30 3173 C 314.347 3.26634 -3.09242 0
M  V30 3174 C 315.666 4.22341 -1.2376 0
M  V30 3175 H 312.785 0.653697 -0.340366 0
M  V30 3176 H 315.427 1.25389 -1.4275 0
M  V30 3177 H 313.577 3.71712 -1.12972 0
M  V30 3178 H 315.249 2.88173 -3.60214 0
M  V30 3179 H 313.492 2.65539 -3.43033 0
M  V30 3180 H 314.163 4.28854 -3.47546 0
M  V30 3181 H 316.639 3.8405 -1.60139 0
M  V30 3182 H 315.515 5.22053 -1.69564 0
M  V30 3183 H 315.776 4.41828 -0.154938 0
M  V30 3184 N 314.835 0.952656 1.25548 0
M  V30 3185 C 315.782 0.47008 2.25962 0
M  V30 3186 C 316.752 -0.476384 1.59122 0
M  V30 3187 O 317.937 -0.39007 1.8677 0
M  V30 3188 C 315.077 -0.247881 3.44209 0
M  V30 3189 C 314.19 0.735591 4.25691 0
M  V30 3190 C 313.325 -0.0047306 5.312 0
M  V30 3191 C 312.364 0.969805 6.04368 0
M  V30 3192 N 311.501 0.260486 7.01617 0
M  V30 3193 H 316.341 1.33126 2.66611 0
M  V30 3194 H 313.878 0.66765 1.31076 0
M  V30 3195 H 315.836 -0.680695 4.1161 0
M  V30 3196 H 314.466 -1.07312 3.0444 0
M  V30 3197 H 313.518 1.28689 3.57971 0
M  V30 3198 H 314.83 1.47934 4.76358 0
M  V30 3199 H 313.984 -0.496275 6.04667 0
M  V30 3200 H 312.723 -0.781282 4.81401 0
M  V30 3201 H 311.728 1.47237 5.29718 0
M  V30 3202 H 312.953 1.74655 6.56256 0
M  V30 3203 H 310.899 -0.497364 6.54112 0
M  V30 3204 H 310.816 0.943362 7.50091 0
M  V30 3205 H 312.084 -0.209587 7.79218 0
M  V30 3206 N 316.313 -1.40141 0.720998 0
M  V30 3207 C 317.261 -2.3252 0.0608547 0
M  V30 3208 C 318.255 -1.52326 -0.741152 0
M  V30 3209 O 319.461 -1.68089 -0.643911 0
M  V30 3210 H 315.836 -0.751999 0.000876664 0
M  V30 3211 H 317.807 -2.8584 0.856614 0
M  V30 3212 C 316.556 -3.37331 -0.842809 0
M  V30 3213 H 315.879 -3.99108 -0.235084 0
M  V30 3214 H 317.319 -4.04452 -1.27257 0
M  V30 3215 C 315.778 -2.73246 -1.97074 0
M  V30 3216 O 316.308 -2.59998 -3.06209 0
M  V30 3217 N 314.514 -2.31547 -1.75597 0
M  V30 3218 H 314.061 -2.42522 -0.868368 0
M  V30 3219 H 314.019 -1.89007 -2.51244 0
M  V30 3220 N 317.792 -0.46758 -1.50504 0
M  V30 3221 C 319.017 0.0886943 -2.0721 0
M  V30 3222 C 319.442 1.33057 -1.32956 0
M  V30 3223 O 318.8 1.77354 -0.376197 0
M  V30 3224 C 318.848 0.359202 -3.58806 0
M  V30 3225 O 317.952 1.44034 -3.8643 0
M  V30 3226 H 317.293 -0.0114349 -0.663902 0
M  V30 3227 H 319.823 -0.657613 -1.93744 0
M  V30 3228 H 319.833 0.600742 -4.03553 0
M  V30 3229 H 318.508 -0.548311 -4.1227 0
M  V30 3230 H 317.085 1.18638 -3.53524 0
M  V30 3231 N 319.27 1.56325 -0.20005 0
M  V30 3232 C 320.519 1.96895 0.437652 0
M  V30 3233 C 320.832 1.08999 1.62415 0
M  V30 3234 O 322.038 1.39372 2.32997 0
M  V30 3235 C 320.494 3.50198 0.830025 0
M  V30 3236 C 320.102 4.46765 -0.332461 0
M  V30 3237 C 321.846 3.99526 1.43453 0
M  V30 3238 C 319.753 5.91344 0.0811468 0
M  V30 3239 H 318.683 0.735209 0.167282 0
M  V30 3240 H 321.334 1.81148 -0.292853 0
M  V30 3241 H 319.716 3.61467 1.61734 0
M  V30 3242 H 320.89 4.47231 -1.11 0
M  V30 3243 H 319.205 4.07657 -0.848789 0
M  V30 3244 H 321.802 5.05025 1.75652 0
M  V30 3245 H 322.145 3.44122 2.34277 0
M  V30 3246 H 322.678 3.91393 0.71109 0
M  V30 3247 H 319.417 6.50685 -0.793033 0
M  V30 3248 H 318.937 5.94121 0.823445 0
M  V30 3249 H 320.616 6.44945 0.515252 0
M  V30 3250 N 320.748 -0.0735177 1.57428 0
M  V30 3251 C 321.698 -1.09442 2.00016 0
M  V30 3252 C 322.682 -1.34575 0.881947 0
M  V30 3253 O 323.874 -1.34905 1.14585 0
M  V30 3254 C 321.003 -2.40865 2.4462 0
M  V30 3255 C 320.089 -2.19014 3.63172 0
M  V30 3256 N 320.48 -1.67087 4.77405 0
M  V30 3257 C 318.778 -2.49494 3.69688 0
M  V30 3258 C 319.479 -1.6001 5.5926 0
M  V30 3259 N 318.455 -2.05999 5.03056 0
M  V30 3260 H 322.257 -0.686227 2.85776 0
M  V30 3261 H 319.771 -0.280617 1.59957 0
M  V30 3262 H 321.768 -3.14763 2.73368 0
M  V30 3263 H 320.428 -2.82403 1.60246 0
M  V30 3264 H 321.439 -1.35975 4.99731 0
M  V30 3265 H 318.116 -2.94409 2.96023 0
M  V30 3266 H 319.506 -1.2073 6.60964 0
M  V30 3267 N 322.226 -1.5378 -0.344866 0
M  V30 3268 C 323.472 -1.71216 -1.08687 0
M  V30 3269 C 323.805 -0.473281 -1.88345 0
M  V30 3270 O 323.08 0.52968 -1.87149 0
M  V30 3271 C 323.363 -2.97486 -2.02914 0
M  V30 3272 C 323.216 -4.31579 -1.26727 0
M  V30 3273 C 324.535 -3.19422 -3.0275 0
M  V30 3274 H 321.654 -0.62301 -0.393735 0
M  V30 3275 H 324.296 -1.8645 -0.365563 0
M  V30 3276 H 322.446 -2.84629 -2.64421 0
M  V30 3277 H 324.118 -4.56284 -0.67845 0
M  V30 3278 H 322.361 -4.30049 -0.569273 0
M  V30 3279 H 323.032 -5.16106 -1.95803 0
M  V30 3280 H 325.508 -3.316 -2.51357 0
M  V30 3281 H 324.384 -4.09169 -3.65885 0
M  V30 3282 H 324.645 -2.35656 -3.74057 0
M  V30 3283 N 323.704 0.605807 -1.45491 0
M  V30 3284 C 324.952 1.36207 -1.49305 0
M  V30 3285 C 325.273 1.94519 -0.136863 0
M  V30 3286 O 324.543 1.77261 0.833983 0
M  V30 3287 H 323.123 0.50565 -0.549843 0
M  V30 3288 H 325.785 0.711239 -1.81459 0
M  V30 3289 H 324.881 2.18058 -2.23287 0
M  V30 3290 N 325.182 1.32811 0.848464 0
M  V30 3291 C 326.459 1.14334 1.58704 0
M  V30 3292 C 326.839 -0.293948 2.09043 0
M  V30 3293 O 326.187 -1.29153 1.88499 0
M  V30 3294 C 326.397 2.17626 2.72837 0
M  V30 3295 C 327.745 2.51282 3.42261 0
M  V30 3296 O 328.769 2.16219 2.83068 0
M  V30 3297 O 327.628 3.11413 4.49093 0
M  V30 3298 H 324.722 0.441601 0.699226 0
M  V30 3299 H 327.268 1.44362 0.892053 0
M  V30 3300 H 326.04 3.14211 2.3321 0
M  V30 3301 H 325.663 1.88628 3.50008 0
M  V30 3302 N 326.66 -1.06551 1.16123 0
M  V30 3303 C 328.076 -1.3142 0.905585 0
M  V30 3304 C 328.276 -1.96571 -0.442964 0
M  V30 3305 O 327.332 -2.23068 -1.18308 0
M  V30 3306 C 328.645 -2.19741 2.05267 0
M  V30 3307 C 330.193 -2.33165 2.08813 0
M  V30 3308 C 330.668 -3.24838 3.22868 0
M  V30 3309 N 332.159 -3.32421 3.22568 0
M  V30 3310 C 332.894 -4.0344 4.0746 0
M  V30 3311 N 332.39 -4.77003 5.02434 0
M  V30 3312 N 334.183 -3.99464 3.95456 0
M  V30 3313 H 326.334 -0.626548 2.02949 0
M  V30 3314 H 328.597 -0.338777 0.8854 0
M  V30 3315 H 328.303 -1.79142 3.02657 0
M  V30 3316 H 328.177 -3.20313 1.99198 0
M  V30 3317 H 330.564 -2.73013 1.12018 0
M  V30 3318 H 330.645 -1.3227 2.18948 0
M  V30 3319 H 330.289 -2.85708 4.19921 0
M  V30 3320 H 330.219 -4.25707 3.0997 0
M  V30 3321 H 332.71 -2.79994 2.53795 0
M  V30 3322 H 333.023 -5.28712 5.63634 0
M  V30 3323 H 331.368 -4.75992 5.06415 0
M  V30 3324 H 334.559 -3.4111 3.20564 0
M  V30 3325 H 334.732 -4.54544 4.61837 0
M  V30 3326 N 328.138 -0.959301 -1.25041 0
M  V30 3327 C 329.387 -0.612254 -1.92183 0
M  V30 3328 C 329.7 0.855347 -1.75907 0
M  V30 3329 O 330.906 1.31256 -2.37664 0
M  V30 3330 C 329.362 -1.04435 -3.44414 0
M  V30 3331 C 328.97 -2.53482 -3.69393 0
M  V30 3332 C 330.714 -0.770055 -4.17457 0
M  V30 3333 C 328.621 -2.90468 -5.15153 0
M  V30 3334 H 327.551 -0.225279 -0.719559 0
M  V30 3335 H 330.202 -1.16438 -1.41825 0
M  V30 3336 H 328.584 -0.4206 -3.9376 0
M  V30 3337 H 329.758 -3.20916 -3.30681 0
M  V30 3338 H 328.073 -2.78432 -3.0962 0
M  V30 3339 H 330.67 -1.02249 -5.24832 0
M  V30 3340 H 331.013 0.293611 -4.15263 0
M  V30 3341 H 331.546 -1.35437 -3.74034 0
M  V30 3342 H 328.285 -3.95871 -5.22462 0
M  V30 3343 H 327.805 -2.27711 -5.54894 0
M  V30 3344 H 329.484 -2.79914 -5.83315 0
M  V30 3345 N 329.616 1.39756 -0.72842 0
M  V30 3346 C 330.546 2.33289 -0.0991354 0
M  V30 3347 C 331.527 1.53568 0.731489 0
M  V30 3348 O 332.712 1.81987 0.677807 0
M  V30 3349 C 329.842 3.3763 0.813834 0
M  V30 3350 C 328.796 4.2791 0.0878663 0
M  V30 3351 C 328.122 5.22894 1.11741 0
M  V30 3352 C 329.422 5.11314 -1.06563 0
M  V30 3353 H 331.116 2.86163 -0.880408 0
M  V30 3354 H 328.662 1.37591 -0.424819 0
M  V30 3355 H 330.615 4.0201 1.26355 0
M  V30 3356 H 329.339 2.83181 1.62715 0
M  V30 3357 H 327.998 3.65 -0.342159 0
M  V30 3358 H 327.646 4.64744 1.92412 0
M  V30 3359 H 327.346 5.84143 0.636477 0
M  V30 3360 H 328.87 5.90151 1.56697 0
M  V30 3361 H 330.284 5.69076 -0.694671 0
M  V30 3362 H 328.681 5.81671 -1.47577 0
M  V30 3363 H 329.751 4.46534 -1.89038 0
M  V30 3364 N 331.094 0.475555 1.50254 0
M  V30 3365 C 332.004 -0.321501 2.32387 0
M  V30 3366 C 333.02 -0.991755 1.42969 0
M  V30 3367 O 334.196 -0.978747 1.76018 0
M  V30 3368 C 331.261 -1.38667 3.17762 0
M  V30 3369 C 330.322 -0.732538 4.23004 0
M  V30 3370 C 329.555 -1.74695 5.04299 0
M  V30 3371 O 329.778 -2.97399 4.86734 0
M  V30 3372 O 328.712 -1.31631 5.8733 0
M  V30 3373 H 332.538 0.350071 3.01676 0
M  V30 3374 H 330.123 0.237321 1.47503 0
M  V30 3375 H 332.005 -2.00354 3.70724 0
M  V30 3376 H 330.68 -2.04163 2.51196 0
M  V30 3377 H 329.587 -0.0765902 3.74022 0
M  V30 3378 H 330.92 -0.120452 4.92053 0
M  V30 3379 N 332.573 -1.56217 0.208337 0
M  V30 3380 C 333.822 -1.97124 -0.427204 0
M  V30 3381 C 334.135 -1.09859 -1.61835 0
M  V30 3382 O 335.341 -1.40606 -2.32255 0
M  V30 3383 C 333.797 -3.50633 -0.811442 0
M  V30 3384 C 333.405 -4.46582 0.35615 0
M  V30 3385 C 335.149 -4.00282 -1.41332 0
M  V30 3386 C 333.056 -5.91379 -0.0497852 0
M  V30 3387 H 331.986 -0.736086 -0.163381 0
M  V30 3388 H 334.637 -1.8099 0.302456 0
M  V30 3389 H 333.019 -3.62319 -1.59815 0
M  V30 3390 H 334.193 -4.46636 1.1337 0
M  V30 3391 H 332.508 -4.07202 0.870396 0
M  V30 3392 H 335.105 -5.0595 -1.72972 0
M  V30 3393 H 335.448 -3.45359 -2.32449 0
M  V30 3394 H 335.981 -3.91764 -0.690323 0
M  V30 3395 H 332.72 -6.50255 0.827529 0
M  V30 3396 H 332.24 -5.94549 -0.791926 0
M  V30 3397 H 333.919 -6.45209 -0.481042 0
M  V30 3398 N 334.051 0.0651679 -1.57465 0
M  V30 3399 C 334.999 1.09542 -2.05191 0
M  V30 3400 C 335.993 1.39675 -0.958509 0
M  V30 3401 O 337.199 1.39003 -1.14359 0
M  V30 3402 H 333.574 0.370623 -0.654326 0
M  V30 3403 H 335.545 0.666802 -2.90854 0
M  V30 3404 C 334.294 2.39881 -2.51699 0
M  V30 3405 H 333.617 2.17547 -3.3543 0
M  V30 3406 H 335.057 3.104 -2.88839 0
M  V30 3407 C 333.516 3.0631 -1.40271 0
M  V30 3408 O 334.046 3.94664 -0.748523 0
M  V30 3409 N 332.252 2.67041 -1.14618 0
M  V30 3410 H 331.799 1.95281 -1.67997 0
M  V30 3411 H 331.757 3.1181 -0.402688 0
M  V30 3412 N 335.529 1.53961 0.336706 0
M  V30 3413 C 336.777 1.71197 1.07405 0
M  V30 3414 C 337.098 0.481475 1.88962 0
M  V30 3415 O 336.368 -0.504585 1.8929 0
M  V30 3416 H 334.948 0.631185 0.399517 0
M  V30 3417 H 337.61 1.91232 0.376323 0
M  V30 3418 H 336.706 2.58587 1.74755 0
M  V30 3419 N 337.007 -0.598083 1.45811 0
M  V30 3420 C 338.235 -1.38322 1.53866 0
M  V30 3421 C 338.65 -1.87992 0.174479 0
M  V30 3422 O 338.007 -1.62756 -0.825627 0
M  V30 3423 C 338.058 -2.58125 2.53089 0
M  V30 3424 O 337.779 -2.10516 3.84206 0
M  V30 3425 C 339.28 -3.50869 2.70935 0
M  V30 3426 H 336.5 -0.423093 0.520801 0
M  V30 3427 H 339.044 -0.728527 1.91083 0
M  V30 3428 H 337.199 -3.19615 2.18917 0
M  V30 3429 H 337.613 -2.88425 4.38077 0
M  V30 3430 H 339.087 -4.31451 3.44317 0
M  V30 3431 H 339.564 -4.01822 1.77301 0
M  V30 3432 H 340.17 -2.95225 3.06141 0
M  V30 3433 N 338.485 -1.33259 -0.841409 0
M  V30 3434 C 339.896 -1.22066 -1.41269 0
M  V30 3435 C 340.247 0.161479 -1.95534 0
M  V30 3436 O 339.372 1.06094 -1.88608 0
M  V30 3437 C 339.967 -2.20996 -2.568 0
M  V30 3438 C 338.526 -2.13649 -3.09888 0
M  V30 3439 C 337.673 -2.08623 -1.82679 0
M  V30 3440 H 340.624 -1.44895 -0.647395 0
M  V30 3441 H 340.645 -1.81621 -3.34356 0
M  V30 3442 H 340.157 -3.2158 -2.17274 0
M  V30 3443 H 338.258 -1.16359 -3.53965 0
M  V30 3444 H 338.371 -3.04079 -3.70234 0
M  V30 3445 H 336.735 -1.54061 -2.02824 0
M  V30 3446 H 337.518 -3.1101 -1.45353 0
M  V30 3447 N 339.963 1.05934 -1.16686 0
M  V30 3448 C 341.212 1.78188 -0.945085 0
M  V30 3449 C 341.525 1.88338 0.528021 0
M  V30 3450 O 342.731 2.57258 0.867799 0
M  V30 3451 C 341.187 3.20277 -1.64167 0
M  V30 3452 C 340.795 3.18281 -3.15279 0
M  V30 3453 C 342.539 3.97039 -1.502 0
M  V30 3454 C 340.446 4.55112 -3.7766 0
M  V30 3455 H 339.376 0.667866 -0.349959 0
M  V30 3456 H 342.027 1.18794 -1.39858 0
M  V30 3457 H 340.409 3.79952 -1.11589 0
M  V30 3458 H 341.583 2.68167 -3.74731 0
M  V30 3459 H 339.898 2.55018 -3.29173 0
M  V30 3460 H 342.495 4.98194 -1.94183 0
M  V30 3461 H 342.838 4.13845 -0.451461 0
M  V30 3462 H 343.371 3.43894 -1.99954 0
M  V30 3463 H 340.11 4.43512 -4.82677 0
M  V30 3464 H 339.63 5.05406 -3.22994 0
M  V30 3465 H 341.309 5.24064 -3.79428 0
M  V30 3466 N 341.441 0.965919 1.2453 0
M  V30 3467 C 342.857 0.67216 1.44756 0
M  V30 3468 C 343.057 -0.766609 1.86347 0
M  V30 3469 O 342.113 -1.5407 2.00047 0
M  V30 3470 C 343.426 1.65473 2.51076 0
M  V30 3471 C 344.974 1.66716 2.64905 0
M  V30 3472 C 345.449 2.63766 3.74421 0
M  V30 3473 N 346.94 2.62198 3.81846 0
M  V30 3474 C 347.675 3.33966 4.66106 0
M  V30 3475 N 347.171 4.15245 5.54566 0
M  V30 3476 N 348.964 3.22799 4.60171 0
M  V30 3477 H 341.115 1.89553 0.958293 0
M  V30 3478 H 343.378 0.815979 0.482579 0
M  V30 3479 H 343.084 2.68296 2.27399 0
M  V30 3480 H 342.958 1.4261 3.49202 0
M  V30 3481 H 345.345 0.646057 2.87941 0
M  V30 3482 H 345.426 1.93642 1.67142 0
M  V30 3483 H 345.07 3.6601 3.52135 0
M  V30 3484 H 345 2.34121 4.71694 0
M  V30 3485 H 347.491 2.032 3.18619 0
M  V30 3486 H 347.804 4.66898 6.15814 0
M  V30 3487 H 346.149 4.1934 5.54237 0
M  V30 3488 H 349.34 2.58764 3.90075 0
M  V30 3489 H 349.513 3.78994 5.25612 0
M  V30 3490 N 342.919 -1.39368 0.735821 0
M  V30 3491 C 343.867 -2.32443 0.0855131 0
M  V30 3492 C 344.861 -1.53104 -0.724954 0
M  V30 3493 O 346.067 -1.68762 -0.626047 0
M  V30 3494 H 342.442 -0.751948 0.00885257 0
M  V30 3495 H 344.413 -2.84916 0.886883 0
M  V30 3496 C 343.162 -3.38206 -0.806983 0
M  V30 3497 H 342.485 -3.99335 -0.19274 0
M  V30 3498 H 343.925 -4.05779 -1.2296 0
M  V30 3499 C 342.384 -2.75321 -1.94165 0
M  V30 3500 O 342.914 -2.63231 -3.03435 0
M  V30 3501 N 341.12 -2.33396 -1.73132 0
M  V30 3502 H 340.667 -2.4343 -0.842596 0
M  V30 3503 H 340.625 -1.91661 -2.49225 0
M  V30 3504 N 344.397 -0.483516 -1.5 0
M  V30 3505 C 345.643 0.0672592 -2.02688 0
M  V30 3506 C 345.976 1.38247 -1.36387 0
M  V30 3507 O 345.251 1.88131 -0.493675 0
M  V30 3508 C 345.534 0.238109 -3.59312 0
M  V30 3509 C 345.387 -1.099 -4.36168 0
M  V30 3510 C 346.706 0.986916 -4.28892 0
M  V30 3511 H 343.825 0.0229696 -0.736642 0
M  V30 3512 H 346.467 -0.631527 -1.79197 0
M  V30 3513 H 344.617 0.8333 -3.79458 0
M  V30 3514 H 346.289 -1.73172 -4.27562 0
M  V30 3515 H 344.532 -1.69261 -3.99416 0
M  V30 3516 H 345.203 -0.932954 -5.44059 0
M  V30 3517 H 347.679 0.482302 -4.13295 0
M  V30 3518 H 346.555 1.07527 -5.38265 0
M  V30 3519 H 346.816 2.0265 -3.92919 0
M  V30 3520 N 345.875 1.56104 -0.216619 0
M  V30 3521 C 347.286 1.844 0.292128 0
M  V30 3522 C 347.637 1.13788 1.59833 0
M  V30 3523 O 346.762 0.405888 2.12559 0
M  V30 3524 C 347.357 3.3452 0.53681 0
M  V30 3525 C 345.916 3.63151 0.989876 0
M  V30 3526 C 345.063 2.77255 0.0502302 0
M  V30 3527 H 348.014 1.52481 -0.439926 0
M  V30 3528 H 348.035 3.54459 1.38345 0
M  V30 3529 H 347.547 3.85885 -0.414031 0
M  V30 3530 H 345.648 3.17238 1.95425 0
M  V30 3531 H 345.761 4.71177 0.867698 0
M  V30 3532 H 344.125 2.48555 0.556117 0
M  V30 3533 H 344.908 3.31416 -0.89544 0
M  V30 3534 N 347.353 -0.0568162 1.57498 0
M  V30 3535 C 348.283 -1.06593 2.0775 0
M  V30 3536 C 349.264 -1.39448 0.974082 0
M  V30 3537 O 350.449 -1.48815 1.24771 0
M  V30 3538 C 347.579 -2.37509 2.5339 0
M  V30 3539 C 346.533 -2.1897 3.67745 0
M  V30 3540 C 345.859 -3.55402 3.99492 0
M  V30 3541 C 347.159 -1.59859 4.97235 0
M  V30 3542 H 348.853 -0.647706 2.9231 0
M  V30 3543 H 346.399 -0.310116 1.40621 0
M  V30 3544 H 348.352 -3.08409 2.87162 0
M  V30 3545 H 347.076 -2.8134 1.65878 0
M  V30 3546 H 345.735 -1.50508 3.3428 0
M  V30 3547 H 345.383 -3.9683 3.09088 0
M  V30 3548 H 345.083 -3.43831 4.76502 0
M  V30 3549 H 346.607 -4.27708 4.35773 0
M  V30 3550 H 348.021 -2.20642 5.29141 0
M  V30 3551 H 346.418 -1.58942 5.78669 0
M  V30 3552 H 347.488 -0.561506 4.81638 0
M  V30 3553 N 348.832 -1.54138 -0.328536 0
M  V30 3554 C 350.109 -1.62749 -1.08499 0
M  V30 3555 C 350.489 -0.458198 -2.06067 0
M  V30 3556 O 349.837 0.548046 -2.2183 0
M  V30 3557 C 350.047 -2.99519 -1.79135 0
M  V30 3558 C 351.395 -3.55394 -2.32337 0
M  V30 3559 O 352.419 -3.01792 -1.89209 0
M  V30 3560 O 351.278 -4.49186 -3.11279 0
M  V30 3561 H 348.372 -0.65886 -0.499832 0
M  V30 3562 H 350.918 -1.66484 -0.328826 0
M  V30 3563 H 349.69 -3.76061 -1.08139 0
M  V30 3564 H 349.313 -2.99441 -2.61574 0
M  V30 3565 N 350.31 0.590341 -1.46126 0
M  V30 3566 C 351.22 1.72793 -1.58681 0
M  V30 3567 C 352.236 1.67516 -0.470566 0
M  V30 3568 O 353.412 1.87562 -0.733642 0
M  V30 3569 C 350.477 3.09287 -1.5666 0
M  V30 3570 C 349.538 3.25886 -2.79458 0
M  V30 3571 C 348.771 4.55869 -2.77524 0
M  V30 3572 O 348.994 5.3928 -1.85832 0
M  V30 3573 O 347.928 4.75552 -3.68964 0
M  V30 3574 H 351.754 1.65149 -2.54872 0
M  V30 3575 H 349.339 0.756486 -1.28832 0
M  V30 3576 H 351.221 3.90577 -1.58202 0
M  V30 3577 H 349.896 3.17385 -0.636271 0
M  V30 3578 H 348.803 2.44119 -2.83472 0
M  V30 3579 H 350.136 3.22675 -3.71674 0
M  V30 3580 N 351.788 1.33704 0.83433 0
M  V30 3581 C 353.037 1.24763 1.58484 0
M  V30 3582 C 353.35 -0.183775 1.94735 0
M  V30 3583 O 354.556 -0.395234 2.68608 0
M  V30 3584 C 353.012 2.18638 2.85876 0
M  V30 3585 C 352.62 3.66974 2.56971 0
M  V30 3586 C 354.364 2.18581 3.63899 0
M  V30 3587 C 352.271 4.5275 3.80488 0
M  V30 3588 H 351.201 0.463425 0.594772 0
M  V30 3589 H 353.852 1.58797 0.919551 0
M  V30 3590 H 352.234 1.77542 3.5397 0
M  V30 3591 H 353.408 4.16538 1.9706 0
M  V30 3592 H 351.723 3.69366 1.92244 0
M  V30 3593 H 354.32 2.79894 4.55591 0
M  V30 3594 H 354.663 1.18207 3.99165 0
M  V30 3595 H 355.196 2.58062 3.02735 0
M  V30 3596 H 351.935 5.54017 3.5035 0
M  V30 3597 H 351.455 4.07927 4.39722 0
M  V30 3598 H 353.134 4.66784 4.4802 0
M  V30 3599 N 353.266 -1.05314 1.17247 0
M  V30 3600 C 354.543 -1.75184 0.87005 0
M  V30 3601 C 354.923 -2.01481 -0.629965 0
M  V30 3602 O 354.271 -1.64988 -1.58086 0
M  V30 3603 C 354.481 -3.04594 1.70363 0
M  V30 3604 C 355.829 -3.78567 1.92281 0
M  V30 3605 O 356.853 -3.14461 1.67311 0
M  V30 3606 O 355.712 -4.93755 2.3424 0
M  V30 3607 H 352.806 -0.761729 0.322021 0
M  V30 3608 H 355.352 -1.11493 1.27935 0
M  V30 3609 H 354.124 -2.81201 2.72106 0
M  V30 3610 H 353.747 -3.76022 1.29202 0
M  V30 3611 N 354.744 -0.972509 -1.24016 0
M  V30 3612 C 355.674 -0.525548 -2.27509 0
M  V30 3613 C 356.655 0.437262 -1.64384 0
M  V30 3614 O 357.84 0.332343 -1.91335 0
M  V30 3615 C 354.97 0.180448 -3.46831 0
M  V30 3616 C 353.924 -0.698859 -4.22256 0
M  V30 3617 C 353.25 0.138903 -5.3452 0
M  V30 3618 C 354.55 -1.98582 -4.83076 0
M  V30 3619 H 356.244 -1.39058 -2.65148 0
M  V30 3620 H 353.79 -0.67009 -1.27459 0
M  V30 3621 H 355.743 0.504387 -4.18371 0
M  V30 3622 H 354.467 1.07987 -3.08231 0
M  V30 3623 H 353.126 -1.00614 -3.52523 0
M  V30 3624 H 352.774 1.03862 -4.9216 0
M  V30 3625 H 352.474 -0.446259 -5.85903 0
M  V30 3626 H 353.998 0.457404 -6.08884 0
M  V30 3627 H 355.412 -1.72715 -5.46665 0
M  V30 3628 H 353.809 -2.5181 -5.44713 0
M  V30 3629 H 354.879 -2.67769 -4.04262 0
M  V30 3630 N 356.222 1.38976 -0.743202 0
M  V30 3631 C 357.152 2.33171 -0.123873 0
M  V30 3632 C 358.133 1.54336 0.71516 0
M  V30 3633 O 359.318 1.82696 0.658467 0
M  V30 3634 C 356.448 3.38474 0.777978 0
M  V30 3635 C 355.402 4.27979 0.0424758 0
M  V30 3636 C 354.728 5.2405 1.06189 0
M  V30 3637 C 356.028 5.10155 -1.1198 0
M  V30 3638 H 357.722 2.85213 -0.910709 0
M  V30 3639 H 355.268 1.37133 -0.439388 0
M  V30 3640 H 357.221 4.03328 1.22084 0
M  V30 3641 H 355.945 2.84891 1.59702 0
M  V30 3642 H 354.604 3.64616 -0.380853 0
M  V30 3643 H 354.252 4.66758 1.87472 0
M  V30 3644 H 353.952 5.84785 0.574485 0
M  V30 3645 H 355.476 5.9178 1.50428 0
M  V30 3646 H 356.89 5.68307 -0.75499 0
M  V30 3647 H 355.287 5.80073 -1.53738 0
M  V30 3648 H 356.357 4.44504 -1.93764 0
M  V30 3649 N 357.7 0.491464 1.49741 0
M  V30 3650 C 358.949 -0.0582189 2.01616 0
M  V30 3651 C 359.262 -1.38927 1.3769 0
M  V30 3652 O 360.468 -2.02509 1.80838 0
M  V30 3653 C 358.924 -0.154235 3.59569 0
M  V30 3654 C 358.532 1.1696 4.32463 0
M  V30 3655 C 360.276 -0.65479 4.1942 0
M  V30 3656 C 358.183 1.03627 5.8225 0
M  V30 3657 H 357.113 -0.0255317 0.753568 0
M  V30 3658 H 359.764 0.629445 1.72367 0
M  V30 3659 H 358.146 -0.906138 3.85493 0
M  V30 3660 H 359.32 1.93405 4.18248 0
M  V30 3661 H 357.635 1.60285 3.84315 0
M  V30 3662 H 360.232 -0.771903 5.29099 0
M  V30 3663 H 360.575 -1.65127 3.8215 0
M  V30 3664 H 361.108 0.040304 3.9778 0
M  V30 3665 H 357.847 2.00672 6.24028 0
M  V30 3666 H 357.367 0.312546 5.98985 0
M  V30 3667 H 359.046 0.711114 6.4308 0
M  V30 3668 N 359.178 -1.55987 0.224894 0
M  V30 3669 C 360.11 -2.17722 -0.716224 0
M  V30 3670 C 361.123 -1.14723 -1.15509 0
M  V30 3671 O 362.312 -1.41688 -1.08567 0
M  V30 3672 C 359.412 -2.74873 -1.98238 0
M  V30 3673 C 358.585 -4.03074 -1.69853 0
M  V30 3674 C 357.644 -4.44757 -2.81208 0
M  V30 3675 O 356.67 -5.11587 -2.49534 0
M  V30 3676 N 357.872 -4.10716 -4.10235 0
M  V30 3677 H 360.637 -2.99109 -0.188123 0
M  V30 3678 H 358.198 -1.6184 0.0440123 0
M  V30 3679 H 360.19 -2.99727 -2.7193 0
M  V30 3680 H 358.76 -1.9777 -2.42086 0
M  V30 3681 H 357.98 -3.86041 -0.797875 0
M  V30 3682 H 359.268 -4.86701 -1.48324 0
M  V30 3683 H 358.666 -3.57019 -4.38809 0
M  V30 3684 H 357.223 -4.40455 -4.80461 0
M  V30 3685 N 360.656 0.0484629 -1.57525 0
M  V30 3686 C 361.566 1.07241 -2.08654 0
M  V30 3687 C 362.582 1.409 -1.02095 0
M  V30 3688 O 363.758 1.50609 -1.33712 0
M  V30 3689 C 360.823 2.36008 -2.5397 0
M  V30 3690 C 359.884 2.09108 -3.7493 0
M  V30 3691 C 359.117 3.31736 -4.18075 0
M  V30 3692 O 359.34 4.41714 -3.60895 0
M  V30 3693 O 358.274 3.18576 -5.10679 0
M  V30 3694 H 362.1 0.667965 -2.96263 0
M  V30 3695 H 359.685 0.26417 -1.47046 0
M  V30 3696 H 361.567 3.11747 -2.83535 0
M  V30 3697 H 360.242 2.75786 -1.69481 0
M  V30 3698 H 359.149 1.31 -3.50414 0
M  V30 3699 H 360.482 1.74198 -4.60343 0
M  V30 3700 N 362.134 1.5431 0.320358 0
M  V30 3701 C 363.362 1.76636 1.07738 0
M  V30 3702 C 363.777 0.51649 1.81598 0
M  V30 3703 O 363.134 -0.512942 1.75143 0
M  V30 3704 C 363.185 2.96158 2.07299 0
M  V30 3705 O 362.906 4.16313 1.36438 0
M  V30 3706 C 364.407 3.3072 2.95193 0
M  V30 3707 H 361.627 0.589597 0.320339 0
M  V30 3708 H 364.171 2.01207 0.36551 0
M  V30 3709 H 362.326 2.73851 2.74016 0
M  V30 3710 H 362.74 4.83565 2.03138 0
M  V30 3711 H 364.214 4.17643 3.60941 0
M  V30 3712 H 364.691 2.48026 3.62463 0
M  V30 3713 H 365.297 3.55117 2.34034 0
M  V30 3714 N 363.613 -0.582584 1.46437 0
M  V30 3715 C 364.838 -1.37168 1.55563 0
M  V30 3716 C 365.263 -1.87061 0.19743 0
M  V30 3717 O 364.621 -1.61572 -0.822451 0
M  V30 3718 C 364.669 -2.53511 2.56446 0
M  V30 3719 O 363.773 -3.54953 2.09958 0
M  V30 3720 H 363.114 -0.408494 0.523477 0
M  V30 3721 H 365.644 -0.706646 1.9201 0
M  V30 3722 H 365.654 -3.00426 2.76058 0
M  V30 3723 H 364.329 -2.16549 3.55076 0
M  V30 3724 H 362.906 -3.14516 2.00334 0
M  V30 3725 N 365.091 -1.34144 -0.827227 0
M  V30 3726 C 366.507 -1.13732 -1.11969 0
M  V30 3727 C 366.707 0.0640463 -2.01398 0
M  V30 3728 O 365.763 0.740856 -2.41387 0
M  V30 3729 C 367.076 -2.43047 -1.77055 0
M  V30 3730 C 368.624 -2.49063 -1.89569 0
M  V30 3731 C 369.099 -3.78369 -2.58072 0
M  V30 3732 N 370.59 -3.79505 -2.65575 0
M  V30 3733 C 371.325 -4.76274 -3.19297 0
M  V30 3734 N 370.821 -5.83424 -3.73616 0
M  V30 3735 N 372.614 -4.63735 -3.17658 0
M  V30 3736 H 364.765 -2.11126 -0.232296 0
M  V30 3737 H 367.028 -0.933424 -0.165602 0
M  V30 3738 H 366.734 -3.31025 -1.18807 0
M  V30 3739 H 366.608 -2.56066 -2.76966 0
M  V30 3740 H 368.995 -1.61527 -2.46968 0
M  V30 3741 H 369.076 -2.39975 -0.885745 0
M  V30 3742 H 368.72 -4.66293 -2.01329 0
M  V30 3743 H 368.65 -3.84737 -3.59562 0
M  V30 3744 H 371.141 -3.02074 -2.27068 0
M  V30 3745 H 371.454 -6.53282 -4.12846 0
M  V30 3746 H 369.799 -5.87143 -3.71871 0
M  V30 3747 H 372.99 -3.79177 -2.74486 0
M  V30 3748 H 373.163 -5.39318 -3.59221 0
M  V30 3749 N 366.569 1.04691 -1.17803 0
M  V30 3750 C 367.499 2.14494 -0.92275 0
M  V30 3751 C 368.48 1.69546 0.137179 0
M  V30 3752 O 369.665 1.94195 -0.0141108 0
M  V30 3753 C 366.795 3.44491 -0.440803 0
M  V30 3754 C 365.749 4.03031 -1.4405 0
M  V30 3755 C 365.075 5.28432 -0.81631 0
M  V30 3756 C 366.375 4.39932 -2.81527 0
M  V30 3757 H 368.069 2.36107 -1.84103 0
M  V30 3758 H 365.615 1.1347 -0.886599 0
M  V30 3759 H 367.568 4.2066 -0.249602 0
M  V30 3760 H 366.292 3.22546 0.513025 0
M  V30 3761 H 364.951 3.28937 -1.61853 0
M  V30 3762 H 364.599 5.02792 0.144511 0
M  V30 3763 H 364.299 5.68559 -1.48371 0
M  V30 3764 H 365.823 6.07284 -0.635496 0
M  V30 3765 H 367.237 5.07113 -2.67412 0
M  V30 3766 H 365.634 4.9109 -3.44892 0
M  V30 3767 H 366.704 3.50045 -3.35554 0
M  V30 3768 N 368.047 0.979072 1.23499 0
M  V30 3769 C 368.977 0.537606 2.27227 0
M  V30 3770 C 369.958 -0.428539 1.64613 0
M  V30 3771 O 371.143 -0.322191 1.91509 0
M  V30 3772 C 368.273 -0.162052 3.46922 0
M  V30 3773 C 367.227 0.721242 4.21879 0
M  V30 3774 C 366.553 -0.110555 5.34586 0
M  V30 3775 C 367.853 2.01141 4.82016 0
M  V30 3776 H 369.547 1.40462 2.64406 0
M  V30 3777 H 367.093 0.67684 1.27102 0
M  V30 3778 H 369.046 -0.482192 4.18632 0
M  V30 3779 H 367.77 -1.06351 3.08799 0
M  V30 3780 H 366.429 1.02482 3.51984 0
M  V30 3781 H 366.077 -1.0125 4.92704 0
M  V30 3782 H 365.777 0.477325 5.85658 0
M  V30 3783 H 367.301 -0.425107 6.09118 0
M  V30 3784 H 368.715 1.75612 5.45741 0
M  V30 3785 H 367.112 2.54695 5.43369 0
M  V30 3786 H 368.182 2.69909 4.02836 0
M  V30 3787 N 369.525 -1.3858 0.750561 0
M  V30 3788 C 370.457 -2.29057 0.0810714 0
M  V30 3789 C 371.47 -1.47596 -0.686973 0
M  V30 3790 O 372.659 -1.70495 -0.528563 0
M  V30 3791 C 369.759 -3.26475 -0.909247 0
M  V30 3792 C 368.932 -4.36945 -0.199478 0
M  V30 3793 C 367.991 -5.14572 -1.10011 0
M  V30 3794 O 367.017 -5.66321 -0.57177 0
M  V30 3795 N 368.219 -5.27262 -2.42849 0
M  V30 3796 H 370.984 -2.87153 0.858087 0
M  V30 3797 H 368.545 -1.50328 0.60109 0
M  V30 3798 H 370.537 -3.75285 -1.51471 0
M  V30 3799 H 369.107 -2.69298 -1.58736 0
M  V30 3800 H 368.327 -3.8981 0.586664 0
M  V30 3801 H 369.615 -5.07963 0.291783 0
M  V30 3802 H 369.013 -4.86763 -2.88233 0
M  V30 3803 H 367.57 -5.79456 -2.98453 0
M  V30 3804 N 371.003 -0.499398 -1.49478 0
M  V30 3805 C 371.933 0.269244 -2.31943 0
M  V30 3806 C 372.914 0.964054 -1.40143 0
M  V30 3807 O 374.099 0.955767 -1.69052 0
M  V30 3808 C 371.229 1.33504 -3.20615 0
M  V30 3809 C 370.183 0.760202 -4.21195 0
M  V30 3810 C 369.509 1.9264 -4.98792 0
M  V30 3811 C 370.809 -0.247661 -5.21712 0
M  V30 3812 H 372.503 -0.419082 -2.96452 0
M  V30 3813 H 370.049 -0.202988 -1.42562 0
M  V30 3814 H 372.002 1.88048 -3.77115 0
M  V30 3815 H 370.726 2.05253 -2.54045 0
M  V30 3816 H 369.385 0.23653 -3.65836 0
M  V30 3817 H 369.033 2.63154 -4.28671 0
M  V30 3818 H 368.733 1.54785 -5.66847 0
M  V30 3819 H 370.257 2.4762 -5.58137 0
M  V30 3820 H 371.671 0.209579 -5.72917 0
M  V30 3821 H 370.068 -0.541962 -5.97648 0
M  V30 3822 H 371.138 -1.16409 -4.7072 0
M  V30 3823 N 372.481 1.55866 -0.233164 0
M  V30 3824 C 373.709 2.02998 0.399905 0
M  V30 3825 C 374.124 1.11274 1.52524 0
M  V30 3826 O 373.481 0.124528 1.82075 0
M  V30 3827 C 373.532 3.4958 0.920639 0
M  V30 3828 O 373.253 4.37808 -0.159834 0
M  V30 3829 C 374.754 4.12411 1.62578 0
M  V30 3830 H 371.974 0.664006 0.0966281 0
M  V30 3831 H 374.518 2.0143 -0.353013 0
M  V30 3832 H 372.673 3.51727 1.62379 0
M  V30 3833 H 373.087 5.23981 0.23337 0
M  V30 3834 H 374.561 5.16711 1.94201 0
M  V30 3835 H 375.038 3.5809 2.54299 0
M  V30 3836 H 375.644 4.14148 0.967553 0
M  V30 3837 N 373.959 -0.0401083 1.57549 0
M  V30 3838 C 374.889 -1.04384 2.08869 0
M  V30 3839 C 375.87 -1.38407 0.988817 0
M  V30 3840 O 377.055 -1.47483 1.26342 0
M  V30 3841 C 374.185 -2.34808 2.55895 0
M  V30 3842 C 373.139 -2.15057 3.70047 0
M  V30 3843 C 372.465 -3.51145 4.03239 0
M  V30 3844 C 373.765 -1.54576 4.98902 0
M  V30 3845 H 375.459 -0.616666 2.92981 0
M  V30 3846 H 373.005 -0.295184 1.40942 0
M  V30 3847 H 374.958 -3.05346 2.90417 0
M  V30 3848 H 373.682 -2.79565 1.68853 0
M  V30 3849 H 372.341 -1.46954 3.35857 0
M  V30 3850 H 371.989 -3.93529 3.13279 0
M  V30 3851 H 371.689 -3.38758 4.80122 0
M  V30 3852 H 373.213 -4.23062 4.40285 0
M  V30 3853 H 374.627 -2.15017 5.31451 0
M  V30 3854 H 373.024 -1.52796 5.80322 0
M  V30 3855 H 374.094 -0.51039 4.82206 0
M  V30 3856 N 375.437 -1.54477 -0.31217 0
M  V30 3857 C 376.347 -1.87695 -1.4074 0
M  V30 3858 C 377.363 -0.769975 -1.56036 0
M  V30 3859 O 378.539 -1.06537 -1.70915 0
M  V30 3860 C 375.604 -2.10755 -2.75287 0
M  V30 3861 C 374.665 -3.34514 -2.69071 0
M  V30 3862 C 373.898 -3.56465 -3.97201 0
M  V30 3863 O 374.121 -2.81637 -4.96021 0
M  V30 3864 O 373.055 -4.49964 -3.9977 0
M  V30 3865 H 376.881 -2.80849 -1.15574 0
M  V30 3866 H 374.466 -1.40526 -0.507228 0
M  V30 3867 H 376.348 -2.27188 -3.54913 0
M  V30 3868 H 375.023 -1.20788 -3.0032 0
M  V30 3869 H 373.93 -3.23456 -1.87955 0
M  V30 3870 H 375.263 -4.24575 -2.48992 0
M  V30 3871 N 376.915 0.57481 -1.46744 0
M  V30 3872 C 377.865 1.67838 -1.54319 0
M  V30 3873 C 378.849 1.55759 -0.40346 0
M  V30 3874 O 380.041 1.6454 -0.652347 0
M  V30 3875 C 377.17 3.06624 -1.5439 0
M  V30 3876 C 376.256 3.23971 -2.73685 0
M  V30 3877 N 376.647 3.11447 -3.9854 0
M  V30 3878 C 374.945 3.5493 -2.70075 0
M  V30 3879 C 375.646 3.31011 -4.78337 0
M  V30 3880 N 374.622 3.56533 -4.10348 0
M  V30 3881 H 378.424 1.56698 -2.48642 0
M  V30 3882 H 375.938 0.779071 -1.42493 0
M  V30 3883 H 377.935 3.85839 -1.57905 0
M  V30 3884 H 376.595 3.1889 -0.611493 0
M  V30 3885 H 377.606 2.89145 -4.29669 0
M  V30 3886 H 374.283 3.73832 -1.85893 0
M  V30 3887 H 375.673 3.26445 -5.87268 0
M  V30 3888 N 378.394 1.34581 0.820102 0
M  V30 3889 C 379.671 1.17675 1.56244 0
M  V30 3890 C 380.051 -0.249541 2.0962 0
M  V30 3891 O 379.399 -1.25125 1.91196 0
M  V30 3892 C 379.609 2.23364 2.6816 0
M  V30 3893 C 380.957 2.58485 3.36854 0
M  V30 3894 O 381.981 2.22175 2.78418 0
M  V30 3895 O 380.84 3.20868 4.42386 0
M  V30 3896 H 377.934 0.456333 0.689702 0
M  V30 3897 H 380.48 1.46222 0.861231 0
M  V30 3898 H 379.252 3.19087 2.26493 0
M  V30 3899 H 378.875 1.96009 3.45928 0
M  V30 3900 N 379.872 -1.04064 1.18357 0
M  V30 3901 C 381.283 -1.58719 0.98312 0
M  V30 3902 C 381.634 -1.90556 -0.467193 0
M  V30 3903 O 380.759 -1.69561 -1.34454 0
M  V30 3904 C 381.354 -2.88379 1.77828 0
M  V30 3905 C 379.913 -3.3965 1.62218 0
M  V30 3906 C 379.06 -2.13235 1.77274 0
M  V30 3907 H 382.011 -0.867359 1.32901 0
M  V30 3908 H 382.032 -3.58773 1.26737 0
M  V30 3909 H 381.544 -2.65176 2.83379 0
M  V30 3910 H 379.645 -3.67866 0.592036 0
M  V30 3911 H 379.758 -4.13475 2.42023 0
M  V30 3912 H 378.122 -2.24542 1.20221 0
M  V30 3913 H 378.905 -1.92487 2.8426 0
M  V30 3914 N 381.35 -0.985608 -1.22978 0
M  V30 3915 C 382.3 -0.50118 -2.22423 0
M  V30 3916 C 383.284 0.426649 -1.5514 0
M  V30 3917 O 384.476 0.254656 -1.75159 0
M  V30 3918 C 381.605 0.190003 -3.42774 0
M  V30 3919 C 380.691 -0.757703 -4.17276 0
M  V30 3920 N 381.082 -1.90251 -4.68656 0
M  V30 3921 C 379.38 -0.57209 -4.42316 0
M  V30 3922 C 380.081 -2.49676 -5.25392 0
M  V30 3923 N 379.057 -1.78013 -5.13627 0
M  V30 3924 H 382.859 -1.37441 -2.59783 0
M  V30 3925 H 380.373 -0.846941 -1.38567 0
M  V30 3926 H 382.37 0.55439 -4.13197 0
M  V30 3927 H 381.03 1.05946 -3.06929 0
M  V30 3928 H 382.041 -2.28354 -4.64839 0
M  V30 3929 H 378.718 0.251909 -4.16739 0
M  V30 3930 H 380.108 -3.46384 -5.75732 0
M  V30 3931 N 382.828 1.3818 -0.7579 0
M  V30 3932 C 384.105 1.94106 -0.241306 0
M  V30 3933 C 384.485 1.69282 1.26122 0
M  V30 3934 O 383.833 1.03378 2.03777 0
M  V30 3935 C 384.043 3.43809 -0.59967 0
M  V30 3936 C 385.391 4.20868 -0.561717 0
M  V30 3937 O 386.415 3.5211 -0.538222 0
M  V30 3938 O 385.274 5.43451 -0.576478 0
M  V30 3939 H 382.368 0.825376 -0.0518042 0
M  V30 3940 H 384.914 1.47548 -0.838315 0
M  V30 3941 H 383.686 3.55403 -1.6372 0
M  V30 3942 H 383.309 3.97592 0.0251197 0
M  V30 3943 N 384.306 0.507319 1.49211 0
M  V30 3944 C 385.534 -0.0315749 2.06876 0
M  V30 3945 C 385.949 -1.30241 1.36685 0
M  V30 3946 O 385.306 -1.76937 0.447152 0
M  V30 3947 C 385.357 -0.282627 3.60393 0
M  V30 3948 O 385.078 0.937835 4.27944 0
M  V30 3949 C 386.579 -0.864453 4.3479 0
M  V30 3950 H 383.799 0.0233048 0.670595 0
M  V30 3951 H 386.343 0.706484 1.91909 0
M  V30 3952 H 384.498 -0.97068 3.75042 0
M  V30 3953 H 384.912 0.704567 5.19746 0
M  V30 3954 H 386.386 -0.989664 5.43056 0
M  V30 3955 H 386.863 -1.86382 3.97692 0
M  V30 3956 H 387.469 -0.213672 4.24763 0
M  V30 3957 N 385.784 -1.5574 0.241426 0
M  V30 3958 C 386.714 -2.24133 -0.654722 0
M  V30 3959 C 387.695 -1.21974 -1.1856 0
M  V30 3960 O 388.88 -1.50612 -1.22595 0
M  V30 3961 C 386.01 -2.93659 -1.85423 0
M  V30 3962 C 384.964 -4.0246 -1.45636 0
M  V30 3963 C 384.29 -4.59383 -2.73626 0
M  V30 3964 C 385.59 -5.18468 -0.631506 0
M  V30 3965 H 387.284 -2.99281 -0.0844353 0
M  V30 3966 H 384.83 -1.43947 -0.0391707 0
M  V30 3967 H 386.783 -3.40203 -2.48676 0
M  V30 3968 H 385.507 -2.15991 -2.44981 0
M  V30 3969 H 384.166 -3.56676 -0.847202 0
M  V30 3970 H 383.814 -3.78422 -3.3137 0
M  V30 3971 H 383.514 -5.32826 -2.4773 0
M  V30 3972 H 385.038 -5.08658 -3.37786 0
M  V30 3973 H 386.452 -5.61272 -1.1682 0
M  V30 3974 H 384.849 -5.98266 -0.468831 0
M  V30 3975 H 385.919 -4.8358 0.357506 0
M  V30 3976 N 387.262 0.0317525 -1.57568 0
M  V30 3977 C 388.51 0.721676 -1.88776 0
M  V30 3978 C 388.831 1.76039 -0.838772 0
M  V30 3979 O 388.101 1.95482 0.127935 0
M  V30 3980 H 386.681 0.269534 -0.696678 0
M  V30 3981 H 389.343 -0.00165879 -1.949 0
M  V30 3982 H 388.439 1.21293 -2.87566 0
M  V30 3983 N 388.74 1.54641 0.303973 0
M  V30 3984 C 389.69 1.8177 1.37636 0
M  V30 3985 C 390.674 0.674697 1.46071 0
M  V30 3986 O 391.866 0.935251 1.50273 0
M  V30 3987 C 388.995 2.06584 2.74186 0
M  V30 3988 C 388.081 3.2706 2.69986 0
M  V30 3989 N 388.472 4.47682 2.35402 0
M  V30 3990 C 386.77 3.29028 3.01092 0
M  V30 3991 C 387.471 5.29689 2.40426 0
M  V30 3992 N 386.447 4.67339 2.7766 0
M  V30 3993 H 390.249 2.72596 1.09857 0
M  V30 3994 H 387.763 1.541 0.51254 0
M  V30 3995 H 389.76 2.24166 3.51504 0
M  V30 3996 H 388.42 1.17024 3.02879 0
M  V30 3997 H 389.431 4.74336 2.07908 0
M  V30 3998 H 386.108 2.49565 3.34699 0
M  V30 3999 H 387.498 6.3606 2.16512 0
M  V30 4000 N 390.218 -0.567019 1.47046 0
M  V30 4001 C 391.466 -1.322 1.52864 0
M  V30 4002 C 391.787 -1.94088 0.188388 0
M  V30 4003 O 391.057 -1.7941 -0.786693 0
M  V30 4004 H 389.637 -0.490894 0.563056 0
M  V30 4005 H 392.299 -0.662879 1.83281 0
M  V30 4006 H 391.395 -2.12062 2.2899 0
M  V30 4007 N 391.696 -1.35014 -0.812953 0
M  V30 4008 C 392.626 -1.30069 -1.93919 0
M  V30 4009 C 393.607 -0.176275 -1.69184 0
M  V30 4010 O 394.792 -0.370227 -1.90638 0
M  V30 4011 C 391.922 -1.06547 -3.30552 0
M  V30 4012 C 390.876 -2.15561 -3.69753 0
M  V30 4013 C 390.202 -1.77214 -5.04479 0
M  V30 4014 C 391.502 -3.57476 -3.808 0
M  V30 4015 H 393.196 -2.24303 -1.98314 0
M  V30 4016 H 390.742 -1.07977 -0.952736 0
M  V30 4017 H 392.695 -1.01729 -4.08937 0
M  V30 4018 H 391.419 -0.0875719 -3.26483 0
M  V30 4019 H 390.078 -2.19466 -2.9365 0
M  V30 4020 H 389.726 -0.780589 -4.96906 0
M  V30 4021 H 389.426 -2.50184 -5.31678 0
M  V30 4022 H 390.95 -1.7391 -5.8531 0
M  V30 4023 H 392.364 -3.55929 -4.4943 0
M  V30 4024 H 390.761 -4.29152 -4.19462 0
M  V30 4025 H 391.831 -3.94091 -2.82525 0
M  V30 4026 N 393.175 1.03435 -1.18907 0
M  V30 4027 C 394.423 1.76394 -0.986382 0
M  V30 4028 C 394.744 1.88883 0.484567 0
M  V30 4029 O 394.014 1.41843 1.3512 0
M  V30 4030 H 392.594 0.65344 -0.361975 0
M  V30 4031 H 395.256 1.248 -1.49703 0
M  V30 4032 H 394.352 2.77424 -1.42978 0
M  V30 4033 N 394.653 0.992116 1.22453 0
M  V30 4034 C 396.064 0.702776 1.72968 0
M  V30 4035 C 396.415 -0.780399 1.80012 0
M  V30 4036 O 395.54 -1.61007 1.44589 0
M  V30 4037 C 396.135 1.26903 3.14135 0
M  V30 4038 C 394.694 1.02909 3.62059 0
M  V30 4039 C 393.841 1.38969 2.39964 0
M  V30 4040 H 396.792 1.16457 1.07812 0
M  V30 4041 H 396.813 0.647223 3.74955 0
M  V30 4042 H 396.325 2.34851 3.08977 0
M  V30 4043 H 394.426 -0.0337979 3.72585 0
M  V30 4044 H 394.539 1.69191 4.48231 0
M  V30 4045 H 392.903 0.808279 2.41535 0
M  V30 4046 H 393.686 2.4792 2.37467 0
M  V30 4047 N 396.131 -1.37776 0.765217 0
M  V30 4048 C 397.041 -2.34135 0.147666 0
M  V30 4049 C 398.057 -1.59854 -0.687215 0
M  V30 4050 O 399.233 -1.91983 -0.608659 0
M  V30 4051 C 396.298 -3.3901 -0.72617 0
M  V30 4052 C 395.359 -4.2912 0.124417 0
M  V30 4053 C 394.592 -5.28986 -0.707807 0
M  V30 4054 O 394.815 -5.36205 -1.94525 0
M  V30 4055 O 393.749 -6.01779 -0.12046 0
M  V30 4056 H 397.575 -2.88664 0.943758 0
M  V30 4057 H 395.16 -1.39824 0.526277 0
M  V30 4058 H 397.042 -4.03195 -1.22524 0
M  V30 4059 H 395.717 -2.86819 -1.50056 0
M  V30 4060 H 394.624 -3.68057 0.669696 0
M  V30 4061 H 395.957 -4.84598 0.861736 0
M  V30 4062 N 397.609 -0.515225 -1.4894 0
M  V30 4063 C 398.837 0.0206034 -2.0689 0
M  V30 4064 C 399.252 1.29514 -1.37374 0
M  V30 4065 O 398.609 1.76698 -0.456529 0
M  V30 4066 C 398.66 0.26351 -3.60538 0
M  V30 4067 O 398.381 -0.960517 -4.27441 0
M  V30 4068 C 399.882 0.841383 -4.35242 0
M  V30 4069 H 397.102 -0.0268608 -0.670462 0
M  V30 4070 H 399.646 -0.716651 -1.91532 0
M  V30 4071 H 397.801 0.950777 -3.75552 0
M  V30 4072 H 398.215 -0.73212 -5.19365 0
M  V30 4073 H 399.689 0.96085 -5.43573 0
M  V30 4074 H 400.166 1.8427 -3.98674 0
M  V30 4075 H 400.772 0.191143 -4.2487 0
M  V30 4076 N 399.087 1.5561 -0.249682 0
M  V30 4077 C 400.312 2.03865 0.381305 0
M  V30 4078 C 400.737 1.12769 1.50548 0
M  V30 4079 O 400.095 0.121189 1.80895 0
M  V30 4080 C 400.143 3.50101 0.863816 0
M  V30 4081 O 399.247 3.62132 1.97318 0
M  V30 4082 H 398.588 0.658827 0.0827194 0
M  V30 4083 H 401.118 2.01105 -0.376552 0
M  V30 4084 H 401.128 3.90975 1.1663 0
M  V30 4085 H 399.803 4.1588 0.0411816 0
M  V30 4086 H 398.38 3.33155 1.67517 0
M  V30 4087 N 400.565 -0.0233959 1.57583 0
M  V30 4088 C 401.976 -0.56927 1.77809 0
M  V30 4089 C 402.327 -1.75284 0.881472 0
M  V30 4090 O 401.452 -2.1626 0.0777805 0
M  V30 4091 C 402.047 -1.03949 3.22459 0
M  V30 4092 C 400.606 -1.53084 3.43864 0
M  V30 4093 C 399.753 -0.471454 2.73263 0
M  V30 4094 H 402.704 0.202825 1.57399 0
M  V30 4095 H 402.725 -1.90661 3.29285 0
M  V30 4096 H 402.237 -0.177865 3.87692 0
M  V30 4097 H 400.338 -2.41414 2.83814 0
M  V30 4098 H 400.451 -1.57443 4.52491 0
M  V30 4099 H 398.815 -0.927788 2.37201 0
M  V30 4100 H 399.598 0.380808 3.41181 0
M  V30 4101 N 402.043 -1.548 -0.295768 0
M  V30 4102 C 402.973 -1.89115 -1.36959 0
M  V30 4103 C 403.954 -0.75059 -1.52644 0
M  V30 4104 O 405.139 -1.00678 -1.66065 0
M  V30 4105 C 402.269 -2.14307 -2.73295 0
M  V30 4106 C 401.223 -3.30151 -2.72368 0
M  V30 4107 C 400.549 -3.40772 -4.12042 0
M  V30 4108 C 401.849 -4.67126 -2.33646 0
M  V30 4109 H 403.543 -2.79053 -1.08488 0
M  V30 4110 H 401.089 -1.34266 -0.520443 0
M  V30 4111 H 403.042 -2.36898 -3.48507 0
M  V30 4112 H 401.766 -1.21145 -3.03301 0
M  V30 4113 H 400.425 -3.0749 -1.99613 0
M  V30 4114 H 400.073 -2.45117 -4.39234 0
M  V30 4115 H 399.773 -4.18645 -4.12322 0
M  V30 4116 H 401.297 -3.6563 -4.89027 0
M  V30 4117 H 402.711 -4.89414 -2.98575 0
M  V30 4118 H 401.108 -5.47751 -2.45129 0
M  V30 4119 H 402.178 -4.67489 -1.28772 0
M  V30 4120 N 403.521 0.559213 -1.47345 0
M  V30 4121 C 404.746 1.34676 -1.57725 0
M  V30 4122 C 405.171 1.86723 -0.227164 0
M  V30 4123 O 404.529 1.6286 0.796642 0
M  V30 4124 C 404.577 2.49399 -2.60447 0
M  V30 4125 O 403.681 3.51567 -2.15578 0
M  V30 4126 H 403.022 0.400115 -0.52991 0
M  V30 4127 H 405.552 0.676009 -1.93109 0
M  V30 4128 H 405.562 2.95996 -2.80803 0
M  V30 4129 H 404.237 2.10873 -3.58477 0
M  V30 4130 H 402.814 3.11289 -2.05313 0
M  V30 4131 N 404.999 1.35443 0.805782 0
M  V30 4132 C 406.224 1.32037 1.59941 0
M  V30 4133 C 406.649 -0.0994215 1.87837 0
M  V30 4134 O 406.007 -1.06648 1.46615 0
M  V30 4135 C 406.055 2.13354 2.90711 0
M  V30 4136 O 405.159 1.5148 3.83572 0
M  V30 4137 H 404.5 0.452666 0.485787 0
M  V30 4138 H 407.03 1.78496 1.00002 0
M  V30 4139 H 407.04 2.25338 3.40128 0
M  V30 4140 H 405.715 3.16572 2.69732 0
M  V30 4141 H 404.292 1.4834 3.42125 0
M  V30 4142 N 406.477 -1.02803 1.19454 0
M  V30 4143 C 407.888 -1.57667 0.999899 0
M  V30 4144 C 408.239 -1.91041 -0.446956 0
M  V30 4145 O 407.364 -1.70978 -1.32648 0
M  V30 4146 C 407.959 -2.86477 1.80877 0
M  V30 4147 C 406.518 -3.37911 1.65811 0
M  V30 4148 C 405.665 -2.11343 1.79526 0
M  V30 4149 H 408.616 -0.853214 1.33813 0
M  V30 4150 H 408.637 -3.57408 1.30536 0
M  V30 4151 H 408.149 -2.62155 2.86175 0
M  V30 4152 H 406.25 -3.67218 0.63102 0
M  V30 4153 H 406.363 -4.10885 2.46395 0
M  V30 4154 H 404.727 -2.23254 1.22596 0
M  V30 4155 H 405.51 -1.89461 2.86285 0
M  V30 4156 N 407.956 -0.998596 -1.21925 0
M  V30 4157 C 408.919 -0.558679 -2.22287 0
M  V30 4158 C 409.919 0.361525 -1.56683 0
M  V30 4159 O 411.109 0.152695 -1.73529 0
M  V30 4160 C 408.241 0.18661 -3.40389 0
M  V30 4161 H 409.434 -1.4463 -2.62721 0
M  V30 4162 H 406.987 -0.786413 -1.35075 0
M  V30 4163 H 407.722 1.08996 -3.05435 0
M  V30 4164 H 407.507 -0.474188 -3.89222 0
M  V30 4165 H 408.997 0.482367 -4.14805 0
M  V30 4166 N 409.434 1.37368 -0.772513 0
M  V30 4167 C 410.664 2.03647 -0.348082 0
M  V30 4168 C 411.072 1.58392 1.03482 0
M  V30 4169 O 410.415 0.760921 1.672 0
M  V30 4170 C 410.477 3.58131 -0.313404 0
M  V30 4171 C 410.141 4.2652 -1.64102 0
M  V30 4172 C 411.138 4.50587 -2.5936 0
M  V30 4173 C 408.823 4.64335 -1.91567 0
M  V30 4174 C 410.817 5.11526 -3.80289 0
M  V30 4175 C 408.504 5.24996 -3.12766 0
M  V30 4176 C 409.502 5.48529 -4.06946 0
M  V30 4177 O 409.19 6.07921 -5.26011 0
M  V30 4178 H 408.922 0.660538 -0.143753 0
M  V30 4179 H 411.476 1.76669 -1.04772 0
M  V30 4180 H 409.706 3.84159 0.442617 0
M  V30 4181 H 411.395 4.05813 0.0840613 0
M  V30 4182 H 412.161 4.21784 -2.39423 0
M  V30 4183 H 408.04 4.45353 -1.19088 0
M  V30 4184 H 411.584 5.29811 -4.53813 0
M  V30 4185 H 407.481 5.53223 -3.32588 0
M  V30 4186 H 408.249 6.26398 -5.26847 0
M  V30 4187 N 410.912 0.523116 1.48665 0
M  V30 4188 C 412.14 -0.0096312 2.06898 0
M  V30 4189 C 412.555 -1.28784 1.38059 0
M  V30 4190 O 411.912 -1.76453 0.465893 0
M  V30 4191 C 411.963 -0.244386 3.60673 0
M  V30 4192 O 411.684 0.983172 4.26925 0
M  V30 4193 C 413.185 -0.818289 4.35682 0
M  V30 4194 H 410.405 0.0304161 0.67031 0
M  V30 4195 H 412.949 0.726799 1.91149 0
M  V30 4196 H 411.104 -0.930847 3.76051 0
M  V30 4197 H 411.518 0.759653 5.1897 0
M  V30 4198 H 412.992 -0.93201 5.44075 0
M  V30 4199 H 413.469 -1.82153 3.99646 0
M  V30 4200 H 414.075 -0.168609 4.24966 0
M  V30 4201 N 412.39 -1.55475 0.257931 0
M  V30 4202 C 413.801 -1.8511 -0.243135 0
M  V30 4203 C 414.152 -1.17986 -1.5676 0
M  V30 4204 O 413.277 -0.462102 -2.11409 0
M  V30 4205 C 413.872 -3.35826 -0.447929 0
M  V30 4206 C 412.431 -3.65647 -0.893245 0
M  V30 4207 C 411.578 -2.7729 0.0232965 0
M  V30 4208 H 414.529 -1.51261 0.480199 0
M  V30 4209 H 414.55 -3.58002 -1.28898 0
M  V30 4210 H 414.062 -3.84652 0.516196 0
M  V30 4211 H 412.163 -3.22308 -1.86945 0
M  V30 4212 H 412.276 -4.73312 -0.742469 0
M  V30 4213 H 410.64 -2.49942 -0.490021 0
M  V30 4214 H 411.423 -3.28926 0.982994 0
M  V30 4215 N 413.868 0.0150385 -1.57593 0
M  V30 4216 C 415.093 0.718067 -1.94573 0
M  V30 4217 C 415.518 1.6734 -0.859005 0
M  V30 4218 O 414.876 1.80362 0.184147 0
M  V30 4219 C 414.924 1.43918 -3.30636 0
M  V30 4220 O 414.028 2.55299 -3.23876 0
M  V30 4221 H 413.369 0.192125 -0.635597 0
M  V30 4222 H 415.899 -0.0336708 -2.04572 0
M  V30 4223 H 415.909 1.80598 -3.65853 0
M  V30 4224 H 414.584 0.738619 -4.09289 0
M  V30 4225 H 413.161 2.21058 -3.00312 0
M  V30 4226 N 415.346 1.54954 0.287554 0
M  V30 4227 C 416.594 1.74528 1.01904 0
M  V30 4228 C 416.915 0.541349 1.87335 0
M  V30 4229 O 416.185 -0.444108 1.908 0
M  V30 4230 H 414.765 0.643576 0.379235 0
M  V30 4231 H 417.427 1.92333 0.315294 0
M  V30 4232 H 416.523 2.64015 1.6644 0
M  V30 4233 N 416.824 -0.551391 1.4764 0
M  V30 4234 C 417.734 -1.68525 1.63207 0
M  V30 4235 C 418.75 -1.6621 0.514815 0
M  V30 4236 O 419.926 -1.85551 0.783113 0
M  V30 4237 C 416.991 -3.05025 1.64805 0
M  V30 4238 C 416.052 -3.18362 2.88 0
M  V30 4239 C 415.285 -4.4835 2.89513 0
M  V30 4240 O 415.508 -5.34163 2.00065 0
M  V30 4241 O 414.442 -4.65602 3.81443 0
M  V30 4242 H 418.268 -1.58333 2.59161 0
M  V30 4243 H 415.853 -0.722063 1.30792 0
M  V30 4244 H 417.735 -3.86245 1.68502 0
M  V30 4245 H 416.41 -3.15587 0.720197 0
M  V30 4246 H 415.317 -2.36518 2.89845 0
M  V30 4247 H 416.65 -3.12707 3.80099 0
M  V30 4248 N 418.302 -1.35869 -0.798587 0
M  V30 4249 C 419.265 -1.29307 -1.89242 0
M  V30 4250 C 420.265 -0.202747 -1.59517 0
M  V30 4251 O 421.455 -0.456957 -1.681 0
M  V30 4252 C 418.587 -1.00229 -3.25833 0
M  V30 4253 H 419.78 -2.26576 -1.96478 0
M  V30 4254 H 417.333 -1.20509 -0.995358 0
M  V30 4255 H 418.068 -0.033801 -3.24282 0
M  V30 4256 H 417.853 -1.79121 -3.48795 0
M  V30 4257 H 419.343 -0.98219 -4.05885 0
M  V30 4258 N 419.78 1.02168 -1.19998 0
M  V30 4259 C 421.028 1.75338 -1.00504 0
M  V30 4260 C 421.349 1.89387 0.464506 0
M  V30 4261 O 420.619 1.43268 1.33608 0
M  V30 4262 H 419.199 0.649564 -0.368885 0
M  V30 4263 H 421.861 1.23205 -1.51018 0
M  V30 4264 H 420.957 2.75892 -1.45912 0
M  V30 4265 N 421.258 1.00505 1.21394 0
M  V30 4266 C 422.483 0.706367 1.95001 0
M  V30 4267 C 422.908 -0.72463 1.73582 0
M  V30 4268 O 422.266 -1.49702 1.0227 0
M  V30 4269 C 422.314 1.03299 3.45487 0
M  V30 4270 O 421.418 0.138275 4.12168 0
M  V30 4271 H 420.759 0.263175 0.609619 0
M  V30 4272 H 423.289 1.34531 1.54151 0
M  V30 4273 H 423.299 0.979872 3.96059 0
M  V30 4274 H 421.974 2.07567 3.60401 0
M  V30 4275 H 420.551 0.247928 3.72075 0
M  V30 4276 N 422.737 -1.36956 0.779787 0
M  V30 4277 C 423.962 -2.04283 0.358224 0
M  V30 4278 C 424.387 -1.58422 -1.01411 0
M  V30 4279 O 423.745 -0.748179 -1.65142 0
M  V30 4280 C 423.793 -3.58152 0.419479 0
M  V30 4281 O 422.897 -4.08342 -0.577142 0
M  V30 4282 H 422.238 -0.645967 0.153698 0
M  V30 4283 H 424.768 -1.75108 1.05822 0
M  V30 4284 H 424.778 -4.07041 0.279636 0
M  V30 4285 H 423.453 -3.90886 1.42061 0
M  V30 4286 H 422.03 -3.70751 -0.399755 0
M  V30 4287 N 424.215 -0.530993 -1.48385 0
M  V30 4288 C 425.178 0.220497 -2.28137 0
M  V30 4289 C 426.178 0.866851 -1.35434 0
M  V30 4290 O 427.368 0.726746 -1.58316 0
M  V30 4291 C 424.5 1.31921 -3.1434 0
M  V30 4292 H 425.693 -0.479714 -2.96038 0
M  V30 4293 H 423.246 -0.286968 -1.53643 0
M  V30 4294 H 423.981 2.05264 -2.51072 0
M  V30 4295 H 423.766 0.86085 -3.82533 0
M  V30 4296 H 425.256 1.84776 -3.74497 0
M  V30 4297 N 425.693 1.55336 -0.266172 0
M  V30 4298 C 427.109 1.59356 0.0882065 0
M  V30 4299 C 427.309 1.2834 1.55342 0
M  V30 4300 O 426.365 1.03996 2.30089 0
M  V30 4301 C 427.678 2.99409 -0.278364 0
M  V30 4302 C 429.226 3.12196 -0.224243 0
M  V30 4303 C 429.701 4.545 -0.565123 0
M  V30 4304 N 431.192 4.60313 -0.51634 0
M  V30 4305 C 431.927 5.68434 -0.753013 0
M  V30 4306 N 431.423 6.84738 -1.05383 0
M  V30 4307 N 433.216 5.57942 -0.682414 0
M  V30 4308 H 425.367 1.73764 -1.22147 0
M  V30 4309 H 427.63 0.809822 -0.492841 0
M  V30 4310 H 427.336 3.2691 -1.29703 0
M  V30 4311 H 427.21 3.75228 0.385186 0
M  V30 4312 H 429.597 2.84464 0.78512 0
M  V30 4313 H 429.678 2.38609 -0.921922 0
M  V30 4314 H 429.322 4.82956 -1.57213 0
M  V30 4315 H 429.252 5.26374 0.154248 0
M  V30 4316 H 431.743 3.7676 -0.29335 0
M  V30 4317 H 432.056 7.63088 -1.22133 0
M  V30 4318 H 430.401 6.86375 -1.09151 0
M  V30 4319 H 433.592 4.65958 -0.44731 0
M  V30 4320 H 433.765 6.4213 -0.870248 0
M  V30 4321 N 427.171 -0.0066808 1.57599 0
M  V30 4322 C 428.103 -1.02827 2.04839 0
M  V30 4323 C 429.116 -1.31108 0.965113 0
M  V30 4324 O 430.305 -1.28202 1.24203 0
M  V30 4325 C 427.405 -2.36464 2.42771 0
M  V30 4326 C 426.578 -2.27219 3.73751 0
M  V30 4327 C 425.637 -3.43489 3.98625 0
M  V30 4328 O 424.663 -3.21976 4.69382 0
M  V30 4329 N 425.865 -4.66116 3.46 0
M  V30 4330 H 428.63 -0.625455 2.93101 0
M  V30 4331 H 426.191 -0.194198 1.60731 0
M  V30 4332 H 428.183 -3.13008 2.56531 0
M  V30 4333 H 426.753 -2.68512 1.60063 0
M  V30 4334 H 425.973 -1.35629 3.70133 0
M  V30 4335 H 427.261 -2.18208 4.59633 0
M  V30 4336 H 426.659 -4.86493 2.88688 0
M  V30 4337 H 425.216 -5.39949 3.65101 0
M  V30 4338 N 428.649 -1.55105 -0.279332 0
M  V30 4339 C 429.596 -1.8755 -1.34513 0
M  V30 4340 C 430.566 -0.726384 -1.49375 0
M  V30 4341 O 431.751 -0.977063 -1.63884 0
M  V30 4342 C 428.891 -2.14738 -2.70151 0
M  V30 4343 C 428.004 -3.42285 -2.63562 0
M  V30 4344 C 427.139 -3.59206 -3.91337 0
M  V30 4345 C 426.178 -4.80467 -3.79233 0
M  V30 4346 N 425.315 -4.94079 -4.98829 0
M  V30 4347 H 430.155 -2.78456 -1.06143 0
M  V30 4348 H 427.692 -1.37867 -0.512936 0
M  V30 4349 H 429.65 -2.28501 -3.49061 0
M  V30 4350 H 428.28 -1.27075 -2.96735 0
M  V30 4351 H 427.332 -3.37029 -1.76397 0
M  V30 4352 H 428.644 -4.31328 -2.50515 0
M  V30 4353 H 427.798 -3.72751 -4.78687 0
M  V30 4354 H 426.537 -2.68337 -4.07243 0
M  V30 4355 H 425.542 -4.66932 -2.90266 0
M  V30 4356 H 426.767 -5.72765 -3.64852 0
M  V30 4357 H 424.713 -4.06139 -5.15158 0
M  V30 4358 H 424.63 -5.77156 -4.8829 0
M  V30 4359 H 425.898 -5.12003 -5.8777 0
M  V30 4360 N 430.127 0.543554 -1.4793 0
M  V30 4361 C 431.538 1.12561 -1.48953 0
M  V30 4362 C 431.889 1.94578 -0.251754 0
M  V30 4363 O 431.014 2.0665 0.642255 0
M  V30 4364 C 431.609 2.04801 -2.69892 0
M  V30 4365 C 430.168 2.58251 -2.73831 0
M  V30 4366 C 429.315 1.34918 -2.42265 0
M  V30 4367 H 432.266 0.32947 -1.55242 0
M  V30 4368 H 432.287 2.88886 -2.47639 0
M  V30 4369 H 431.799 1.4508 -3.59963 0
M  V30 4370 H 429.9 3.21732 -1.87934 0
M  V30 4371 H 430.013 2.98312 -3.74895 0
M  V30 4372 H 428.377 1.66046 -1.93134 0
M  V30 4373 H 429.16 0.769693 -3.3456 0
M  V30 4374 N 431.605 1.3629 0.791371 0
M  V30 4375 C 432.851 1.30605 1.55146 0
M  V30 4376 C 433.184 -0.115042 1.93859 0
M  V30 4377 O 432.459 -1.06798 1.62556 0
M  V30 4378 C 432.742 2.22692 2.82985 0
M  V30 4379 C 432.595 3.73489 2.50651 0
M  V30 4380 C 433.914 2.13588 3.84796 0
M  V30 4381 H 431.033 0.475761 0.562868 0
M  V30 4382 H 433.675 1.66825 0.909358 0
M  V30 4383 H 431.825 1.91933 3.37778 0
M  V30 4384 H 433.497 4.14758 2.01924 0
M  V30 4385 H 431.74 3.93021 1.83622 0
M  V30 4386 H 432.411 4.3333 3.41949 0
M  V30 4387 H 434.887 2.40659 3.39445 0
M  V30 4388 H 433.763 2.80195 4.71998 0
M  V30 4389 H 434.024 1.12256 4.27611 0
M  V30 4390 N 433.083 -1.0153 1.20538 0
M  V30 4391 C 434.013 -2.11972 0.979295 0
M  V30 4392 C 434.994 -1.6985 -0.0921787 0
M  V30 4393 O 436.179 -1.94089 0.0655932 0
M  V30 4394 C 433.309 -3.43201 0.531984 0
M  V30 4395 C 432.263 -3.9907 1.54685 0
M  V30 4396 C 431.589 -5.26082 0.956127 0
M  V30 4397 C 432.889 -4.32313 2.93092 0
M  V30 4398 H 434.583 -2.31143 1.90298 0
M  V30 4399 H 432.129 -1.11079 0.916372 0
M  V30 4400 H 434.082 -4.1985 0.361044 0
M  V30 4401 H 432.806 -3.23792 -0.427327 0
M  V30 4402 H 431.465 -3.2453 1.70517 0
M  V30 4403 H 431.113 -5.02999 -0.0111538 0
M  V30 4404 H 430.813 -5.64426 1.63393 0
M  V30 4405 H 432.337 -6.05386 0.796284 0
M  V30 4406 H 433.751 -4.99845 2.80763 0
M  V30 4407 H 432.148 -4.81774 3.57791 0
M  V30 4408 H 433.218 -3.41025 3.44717 0
M  V30 4409 N 434.561 -1.01147 -1.20859 0
M  V30 4410 C 435.977 -0.725422 -1.42161 0
M  V30 4411 C 436.177 0.696919 -1.89064 0
M  V30 4412 O 435.233 1.46539 -2.05627 0
M  V30 4413 C 436.546 -1.74678 -2.44761 0
M  V30 4414 C 438.094 -1.76433 -2.58535 0
M  V30 4415 C 438.569 -2.77481 -3.64374 0
M  V30 4416 N 440.06 -2.76189 -3.71852 0
M  V30 4417 C 440.795 -3.51035 -4.53389 0
M  V30 4418 N 440.291 -4.35541 -5.38773 0
M  V30 4419 N 442.084 -3.39655 -4.47873 0
M  V30 4420 H 434.235 -1.92979 -0.887282 0
M  V30 4421 H 436.498 -0.833327 -0.451962 0
M  V30 4422 H 436.204 -2.76551 -2.17285 0
M  V30 4423 H 436.078 -1.55472 -3.43669 0
M  V30 4424 H 438.465 -0.75248 -2.85345 0
M  V30 4425 H 438.546 -1.99712 -1.5984 0
M  V30 4426 H 438.19 -3.78827 -3.38308 0
M  V30 4427 H 438.12 -2.51466 -4.6268 0
M  V30 4428 H 440.611 -2.14885 -3.10858 0
M  V30 4429 H 440.924 -4.89432 -5.98061 0
M  V30 4430 H 439.269 -4.39621 -5.38292 0
M  V30 4431 H 442.46 -2.73063 -3.80203 0
M  V30 4432 H 442.633 -3.9824 -5.11184 0
M  V30 4433 N 436.039 1.36541 -0.78704 0
M  V30 4434 C 437.264 2.0409 -0.369053 0
M  V30 4435 C 437.689 1.58957 1.00569 0
M  V30 4436 O 437.047 0.756926 1.64743 0
M  V30 4437 C 437.095 3.57924 -0.438466 0
M  V30 4438 O 436.199 4.08642 0.555479 0
M  V30 4439 H 435.54 0.645142 -0.157122 0
M  V30 4440 H 438.07 1.74545 -1.06749 0
M  V30 4441 H 438.08 4.06887 -0.301218 0
M  V30 4442 H 436.755 3.90127 -1.44132 0
M  V30 4443 H 435.332 3.70958 0.380088 0
M  V30 4444 N 437.518 0.538854 1.48102 0
M  V30 4445 C 438.758 0.0101209 2.04397 0
M  V30 4446 C 439.122 -1.30741 1.40609 0
M  V30 4447 O 440.323 -1.92272 1.87843 0
M  V30 4448 C 438.594 -0.100232 3.57259 0
M  V30 4449 S 440.153 -0.577746 4.3498 0
M  V30 4450 H 436.971 0.0163171 0.710813 0
M  V30 4451 H 439.573 0.721429 1.81702 0
M  V30 4452 H 438.277 0.863351 4.01216 0
M  V30 4453 H 437.808 -0.835651 3.84422 0
M  V30 4454 H 439.823 -1.84073 4.60794 0
M  V30 4455 N 438.996 -1.55193 0.274407 0
M  V30 4456 C 440.221 -2.04446 -0.348824 0
M  V30 4457 C 440.646 -1.15149 -1.48735 0
M  V30 4458 O 440.004 -0.149952 -1.80679 0
M  V30 4459 C 440.052 -3.51431 -0.808009 0
M  V30 4460 O 439.156 -3.65225 -1.91531 0
M  V30 4461 H 438.497 -0.66006 -0.0722276 0
M  V30 4462 H 441.027 -2.00481 0.408498 0
M  V30 4463 H 441.037 -3.92781 -1.10395 0
M  V30 4464 H 439.712 -4.15892 0.0249865 0
M  V30 4465 H 438.289 -3.35778 -1.62196 0
M  V30 4466 N 440.474 -0.00167713 -1.576 0
M  V30 4467 C 441.723 0.682021 -1.89819 0
M  V30 4468 C 442.036 1.74844 -0.876871 0
M  V30 4469 O 443.242 2.48688 -1.08934 0
M  V30 4470 C 441.698 1.26425 -3.36964 0
M  V30 4471 C 441.306 0.232568 -4.47396 0
M  V30 4472 C 443.05 1.92604 -3.78291 0
M  V30 4473 C 440.957 0.824882 -5.85619 0
M  V30 4474 H 439.887 0.258499 -0.708304 0
M  V30 4475 H 442.538 -0.0624957 -1.83394 0
M  V30 4476 H 440.92 2.05949 -3.38232 0
M  V30 4477 H 442.094 -0.5382 -4.57646 0
M  V30 4478 H 440.409 -0.32888 -4.15099 0
M  V30 4479 H 443.006 2.37827 -4.78897 0
M  V30 4480 H 443.349 2.75732 -3.11894 0
M  V30 4481 H 443.882 1.19812 -3.79328 0
M  V30 4482 H 440.621 0.0323542 -6.55492 0
M  V30 4483 H 440.141 1.56477 -5.79029 0
M  V30 4484 H 441.82 1.32301 -6.33329 0
M  V30 4485 N 441.952 1.55251 0.271103 0
M  V30 4486 C 443.229 1.66664 1.02384 0
M  V30 4487 C 443.609 0.534363 2.04225 0
M  V30 4488 O 442.957 -0.465337 2.23712 0
M  V30 4489 C 443.167 3.05961 1.67895 0
M  V30 4490 C 444.515 3.63772 2.18986 0
M  V30 4491 O 445.539 3.08606 1.77878 0
M  V30 4492 O 444.398 4.60429 2.94393 0
M  V30 4493 H 441.492 0.676957 0.475035 0
M  V30 4494 H 444.038 1.67589 0.26681 0
M  V30 4495 H 442.81 3.79815 0.941071 0
M  V30 4496 H 442.433 3.08943 2.5028 0
M  V30 4497 N 443.43 -0.535701 1.48216 0
M  V30 4498 C 444.846 -0.863701 1.3421 0
M  V30 4499 C 445.046 -1.98458 0.34879 0
M  V30 4500 O 444.102 -2.51432 -0.23204 0
M  V30 4501 C 445.415 -1.23662 2.74095 0
M  V30 4502 C 446.963 -1.34683 2.82541 0
M  V30 4503 C 447.438 -1.75322 4.23115 0
M  V30 4504 N 448.929 -1.82434 4.2576 0
M  V30 4505 C 449.664 -2.15252 5.31464 0
M  V30 4506 N 449.16 -2.46533 6.47452 0
M  V30 4507 N 450.953 -2.16209 5.18855 0
M  V30 4508 H 443.104 0.203965 2.11418 0
M  V30 4509 H 445.367 0.0286033 0.947568 0
M  V30 4510 H 445.073 -0.486674 3.48316 0
M  V30 4511 H 444.947 -2.18805 3.07253 0
M  V30 4512 H 447.334 -2.08756 2.08579 0
M  V30 4513 H 447.415 -0.376756 2.5301 0
M  V30 4514 H 447.059 -1.01812 4.97591 0
M  V30 4515 H 446.989 -2.7337 4.50085 0
M  V30 4516 H 449.48 -1.6056 3.42095 0
M  V30 4517 H 449.793 -2.70662 7.23852 0
M  V30 4518 H 448.138 -2.44065 6.50736 0
M  V30 4519 H 451.329 -1.91224 4.2726 0
M  V30 4520 H 451.502 -2.41453 6.01335 0
M  V30 4521 N 444.908 -1.36708 -0.784132 0
M  V30 4522 C 446.133 -1.34565 -1.5782 0
M  V30 4523 C 446.558 0.0695257 -1.87971 0
M  V30 4524 O 445.916 1.04302 -1.48293 0
M  V30 4525 C 445.964 -2.17952 -2.87279 0
M  V30 4526 O 445.068 -1.57563 -3.81114 0
M  V30 4527 H 444.409 -0.460337 -0.478524 0
M  V30 4528 H 446.939 -1.80064 -0.971495 0
M  V30 4529 H 446.949 -2.30721 -3.365 0
M  V30 4530 H 445.624 -3.20823 -2.64661 0
M  V30 4531 H 444.201 -1.53764 -3.39722 0
M  V30 4532 N 446.386 1.0089 -1.21074 0
M  V30 4533 C 447.797 1.56056 -1.02486 0
M  V30 4534 C 448.148 1.91728 0.416506 0
M  V30 4535 O 447.273 1.73066 1.29912 0
M  V30 4536 C 447.868 2.83563 -1.85411 0
M  V30 4537 C 446.427 3.3523 -1.71166 0
M  V30 4538 C 445.574 2.0846 -1.82865 0
M  V30 4539 H 448.525 0.831818 -1.35154 0
M  V30 4540 H 448.546 3.55286 -1.36205 0
M  V30 4541 H 448.058 2.57569 -2.9031 0
M  V30 4542 H 446.159 3.66167 -0.689361 0
M  V30 4543 H 446.272 4.06913 -2.52901 0
M  V30 4544 H 444.636 2.21275 -1.26132 0
M  V30 4545 H 445.419 1.84883 -2.89263 0
M  V30 4546 N 447.864 1.01787 1.20321 0
M  V30 4547 C 449.112 0.706538 1.89347 0
M  V30 4548 C 449.433 -0.766289 1.79313 0
M  V30 4549 O 448.703 -1.55126 1.19635 0
M  V30 4550 H 447.283 0.258348 0.700903 0
M  V30 4551 H 449.945 1.28974 1.46122 0
M  V30 4552 H 449.041 0.991066 2.95946 0
M  V30 4553 N 449.342 -1.36122 0.79427 0
M  V30 4554 C 450.305 -2.28309 0.201889 0
M  V30 4555 C 451.305 -1.49041 -0.603603 0
M  V30 4556 O 452.495 -1.68964 -0.423888 0
M  V30 4557 C 449.627 -3.3321 -0.719978 0
M  V30 4558 H 450.82 -2.82208 1.01481 0
M  V30 4559 H 448.373 -1.45768 0.564037 0
M  V30 4560 H 449.108 -2.84475 -1.55706 0
M  V30 4561 H 448.893 -3.91835 -0.144266 0
M  V30 4562 H 450.383 -4.02044 -1.12916 0
M  V30 4563 N 450.82 -0.546701 -1.47814 0
M  V30 4564 C 452.068 -0.0187037 -2.02091 0
M  V30 4565 C 452.389 1.33168 -1.42447 0
M  V30 4566 O 451.659 1.86619 -0.595839 0
M  V30 4567 H 450.239 -0.00392531 -0.74699 0
M  V30 4568 H 452.901 -0.714327 -1.81338 0
M  V30 4569 H 451.997 0.0772219 -3.12004 0
M  V30 4570 N 452.299 1.55045 -0.282633 0
M  V30 4571 C 453.524 2.04628 0.337977 0
M  V30 4572 C 453.949 1.15937 1.48123 0
M  V30 4573 O 453.307 0.159532 1.80597 0
M  V30 4574 C 453.355 3.51854 0.78936 0
M  V30 4575 O 452.459 3.66236 1.89592 0
M  V30 4576 H 451.8 0.660434 0.0687261 0
M  V30 4577 H 454.33 2.00261 -0.419124 0
M  V30 4578 H 454.34 3.93361 1.08311 0
M  V30 4579 H 453.015 4.15873 -0.0470419 0
M  V30 4580 H 451.592 3.36633 1.60413 0
M  V30 4581 N 453.777 0.010035 1.57597 0
M  V30 4582 C 454.707 -0.976857 2.12084 0
M  V30 4583 C 455.688 -1.35191 1.03235 0
M  V30 4584 O 456.873 -1.43389 1.3097 0
M  V30 4585 C 454.003 -2.26548 2.63236 0
M  V30 4586 C 452.957 -2.03175 3.76701 0
M  V30 4587 C 452.283 -3.38138 4.14206 0
M  V30 4588 C 453.583 -1.38625 5.03568 0
M  V30 4589 H 455.277 -0.523145 2.94794 0
M  V30 4590 H 452.823 -0.250195 1.4181 0
M  V30 4591 H 454.776 -2.95952 2.99984 0
M  V30 4592 H 453.5 -2.74051 1.77661 0
M  V30 4593 H 452.159 -1.36195 3.40362 0
M  V30 4594 H 451.807 -3.83363 3.25641 0
M  V30 4595 H 451.507 -3.23312 4.90656 0
M  V30 4596 H 453.031 -4.08841 4.53521 0
M  V30 4597 H 454.445 -1.98 5.38023 0
M  V30 4598 H 452.842 -1.34256 5.84889 0
M  V30 4599 H 453.912 -0.356722 4.83586 0
M  V30 4600 N 455.255 -1.55392 -0.262866 0
M  V30 4601 C 456.503 -1.76127 -0.991147 0
M  V30 4602 C 456.824 -0.571083 -1.8645 0
M  V30 4603 O 456.094 0.413698 -1.91482 0
M  V30 4604 H 454.674 -0.649528 -0.368948 0
M  V30 4605 H 457.336 -1.9281 -0.284655 0
M  V30 4606 H 456.432 -2.6663 -1.62219 0
M  V30 4607 N 456.733 0.527833 -1.48498 0
M  V30 4608 C 457.958 1.313 -1.60546 0
M  V30 4609 C 458.383 1.86199 -0.26672 0
M  V30 4610 O 457.741 1.64513 0.761918 0
M  V30 4611 C 457.789 2.43818 -2.65678 0
M  V30 4612 O 456.893 3.46916 -2.22987 0
M  V30 4613 H 456.234 0.388784 -0.538277 0
M  V30 4614 H 458.764 0.634896 -1.945 0
M  V30 4615 H 458.774 2.89973 -2.87018 0
M  V30 4616 H 457.449 2.03222 -3.62869 0
M  V30 4617 H 456.026 3.06864 -2.11869 0
M  V30 4618 N 458.211 1.37122 0.776871 0
M  V30 4619 C 459.622 1.28667 1.35284 0
M  V30 4620 C 459.973 -0.0680035 1.96082 0
M  V30 4621 O 459.098 -0.969743 1.93455 0
M  V30 4622 C 459.693 2.32997 2.45963 0
M  V30 4623 C 458.252 2.28191 2.99342 0
M  V30 4624 C 457.399 2.17101 1.72517 0
M  V30 4625 H 460.35 1.47819 0.577527 0
M  V30 4626 H 460.371 1.97366 3.2531 0
M  V30 4627 H 459.883 3.3158 2.01684 0
M  V30 4628 H 457.984 1.33115 3.4801 0
M  V30 4629 H 458.097 3.21397 3.55304 0
M  V30 4630 H 456.461 1.63562 1.95242 0
M  V30 4631 H 457.244 3.17591 1.30348 0
M  V30 4632 N 459.689 -1.00246 1.21608 0
M  V30 4633 C 460.652 -2.07233 0.979133 0
M  V30 4634 C 461.652 -1.6072 -0.0508219 0
M  V30 4635 O 462.842 -1.73196 0.186712 0
M  V30 4636 C 459.974 -3.37546 0.477016 0
M  V30 4637 H 461.167 -2.29687 1.92831 0
M  V30 4638 H 458.72 -1.17261 1.03342 0
M  V30 4639 H 459.455 -3.20773 -0.476966 0
M  V30 4640 H 459.24 -3.72638 1.21997 0
M  V30 4641 H 460.73 -4.16285 0.331181 0
M  V30 4642 N 461.167 -1.02423 -1.1978 0
M  V30 4643 C 462.392 -0.7373 -1.93852 0
M  V30 4644 C 462.817 0.696923 -1.74713 0
M  V30 4645 O 462.175 1.48056 -1.04638 0
M  V30 4646 C 462.223 -1.08783 -3.438 0
M  V30 4647 O 461.327 -0.20383 -4.11896 0
M  V30 4648 H 460.668 -0.27284 -0.605355 0
M  V30 4649 H 463.198 -1.36966 -1.51992 0
M  V30 4650 H 463.208 -1.04276 -3.9445 0
M  V30 4651 H 461.883 -2.13274 -3.57053 0
M  V30 4652 H 460.46 -0.307091 -3.71633 0
M  V30 4653 N 462.645 1.35699 -0.801477 0
M  V30 4654 C 463.577 2.28598 -0.166028 0
M  V30 4655 C 464.59 1.50044 0.631721 0
M  V30 4656 O 465.779 1.72339 0.464921 0
M  V30 4657 C 462.879 3.29625 0.787451 0
M  V30 4658 C 462.052 4.37384 0.037171 0
M  V30 4659 C 461.111 5.183 0.908375 0
M  V30 4660 O 460.137 5.68053 0.361189 0
M  V30 4661 N 461.339 5.35912 2.23112 0
M  V30 4662 H 464.104 2.83771 -0.964071 0
M  V30 4663 H 461.665 1.47994 -0.656469 0
M  V30 4664 H 463.657 3.80648 1.37439 0
M  V30 4665 H 462.227 2.75004 1.48632 0
M  V30 4666 H 461.447 3.87364 -0.730935 0
M  V30 4667 H 462.735 5.0653 -0.480109 0
M  V30 4668 H 462.133 4.97125 2.69968 0
M  V30 4669 H 460.69 5.90133 2.76741 0
M  V30 4670 N 464.123 0.554532 1.47522 0
M  V30 4671 C 465.539 0.214107 1.58157 0
M  V30 4672 C 465.739 -1.28331 1.55349 0
M  V30 4673 O 464.795 -2.06329 1.45549 0
M  V30 4674 C 466.108 0.838391 2.88776 0
M  V30 4675 C 467.656 0.809374 3.02354 0
M  V30 4676 C 468.131 1.41268 4.35669 0
M  V30 4677 N 469.622 1.37574 4.42298 0
M  V30 4678 C 470.357 1.8122 5.4401 0
M  V30 4679 N 469.853 2.3271 6.52547 0
M  V30 4680 N 471.646 1.72307 5.35039 0
M  V30 4681 H 463.797 1.52744 1.4759 0
M  V30 4682 H 466.06 0.636812 0.702264 0
M  V30 4683 H 465.766 1.89065 2.96559 0
M  V30 4684 H 465.64 0.329847 3.75755 0
M  V30 4685 H 468.027 -0.234187 2.94169 0
M  V30 4686 H 468.108 1.35565 2.16924 0
M  V30 4687 H 467.752 2.45529 4.4461 0
M  V30 4688 H 467.682 0.841871 5.19827 0
M  V30 4689 H 470.173 0.999081 3.64454 0
M  V30 4690 H 470.486 2.63944 7.26329 0
M  V30 4691 H 468.831 2.36719 6.53444 0
M  V30 4692 H 472.022 1.3186 4.49144 0
M  V30 4693 H 472.195 2.06641 6.14169 0
M  V30 4694 N 465.601 -1.54893 0.290851 0
M  V30 4695 C 466.548 -2.23138 -0.58974 0
M  V30 4696 C 467.518 -1.21036 -1.13752 0
M  V30 4697 O 468.703 -1.49626 -1.18392 0
M  V30 4698 C 465.843 -2.96811 -1.76061 0
M  V30 4699 C 464.956 -4.13665 -1.24519 0
M  V30 4700 C 464.091 -4.74944 -2.3791 0
M  V30 4701 C 463.13 -5.83963 -1.83451 0
M  V30 4702 N 462.267 -6.39239 -2.90376 0
M  V30 4703 H 467.107 -2.98 -0.00114915 0
M  V30 4704 H 464.644 -1.47096 0.0112006 0
M  V30 4705 H 466.602 -3.37751 -2.44909 0
M  V30 4706 H 465.232 -2.24344 -2.32098 0
M  V30 4707 H 464.284 -3.77737 -0.449288 0
M  V30 4708 H 465.596 -4.92238 -0.806424 0
M  V30 4709 H 464.75 -5.18684 -3.14724 0
M  V30 4710 H 463.489 -3.95682 -2.85109 0
M  V30 4711 H 462.494 -5.39657 -1.05122 0
M  V30 4712 H 463.719 -6.65103 -1.37169 0
M  V30 4713 H 461.665 -5.62864 -3.36927 0
M  V30 4714 H 461.582 -7.13129 -2.50965 0
M  V30 4715 H 462.85 -6.87637 -3.67118 0
M  V30 4716 N 467.08 -0.0183926 -1.57589 0
M  V30 4717 C 468.357 0.700621 -1.82622 0
M  V30 4718 C 468.737 1.90951 -0.90005 0
M  V30 4719 O 468.085 2.28452 0.0469145 0
M  V30 4720 C 468.295 1.08899 -3.31575 0
M  V30 4721 C 469.643 1.48514 -3.9778 0
M  V30 4722 O 470.667 1.18227 -3.36007 0
M  V30 4723 O 469.526 2.04903 -5.06633 0
M  V30 4724 H 466.62 0.342743 -0.752633 0
M  V30 4725 H 469.166 -0.0452548 -1.6964 0
M  V30 4726 H 467.938 0.228113 -3.90635 0
M  V30 4727 H 467.561 1.89338 -3.49624 0
M  V30 4728 N 468.558 1.5553 0.254621 0
M  V30 4729 C 469.488 1.9268 1.31897 0
M  V30 4730 C 470.469 0.790797 1.506 0
M  V30 4731 O 471.654 1.05045 1.63337 0
M  V30 4732 C 468.784 2.21477 2.67517 0
M  V30 4733 C 467.738 3.37256 2.63519 0
M  V30 4734 C 467.064 3.51576 4.02862 0
M  V30 4735 C 468.364 4.73157 2.21179 0
M  V30 4736 H 470.058 2.81832 1.01051 0
M  V30 4737 H 467.604 1.35599 0.484662 0
M  V30 4738 H 469.557 2.46055 3.42104 0
M  V30 4739 H 468.281 1.29144 2.99982 0
M  V30 4740 H 466.94 3.12675 1.9139 0
M  V30 4741 H 466.588 2.56676 4.32581 0
M  V30 4742 H 466.288 4.2943 4.01078 0
M  V30 4743 H 467.812 3.78467 4.79161 0
M  V30 4744 H 469.226 4.97158 2.85494 0
M  V30 4745 H 467.623 5.54058 2.30521 0
M  V30 4746 H 468.693 4.70739 1.16332 0
M  V30 4747 N 470.036 -0.519951 1.48776 0
M  V30 4748 C 471.284 -1.2727 1.56993 0
M  V30 4749 C 471.605 -1.9339 0.25004 0
M  V30 4750 O 470.875 -1.81822 -0.729216 0
M  V30 4751 H 469.455 -0.472732 0.578389 0
M  V30 4752 H 472.117 -0.604234 1.85297 0
M  V30 4753 H 471.213 -2.04669 2.3562 0
M  V30 4754 N 471.514 -1.37532 -0.769588 0
M  V30 4755 C 472.93 -1.18379 -1.07045 0
M  V30 4756 C 473.13 -0.0214312 -2.01489 0
M  V30 4757 O 472.186 0.637809 -2.44312 0
M  V30 4758 C 473.499 -2.50338 -1.66588 0
M  V30 4759 C 475.047 -2.56879 -1.78835 0
M  V30 4760 C 475.522 -3.88974 -2.41792 0
M  V30 4761 N 477.013 -3.90428 -2.4924 0
M  V30 4762 C 477.748 -4.89388 -2.98809 0
M  V30 4763 N 477.244 -5.98745 -3.48535 0
M  V30 4764 N 479.037 -4.76791 -2.97703 0
M  V30 4765 H 471.188 -2.11921 -0.142541 0
M  V30 4766 H 473.451 -0.939608 -0.125863 0
M  V30 4767 H 473.157 -3.35767 -1.0466 0
M  V30 4768 H 473.031 -2.67583 -2.65856 0
M  V30 4769 H 475.418 -1.71856 -2.39895 0
M  V30 4770 H 475.499 -2.43516 -0.783166 0
M  V30 4771 H 475.143 -4.74412 -1.81371 0
M  V30 4772 H 475.073 -3.99641 -3.4292 0
M  V30 4773 H 477.564 -3.11433 -2.14052 0
M  V30 4774 H 477.877 -6.70205 -3.84767 0
M  V30 4775 H 476.222 -6.02387 -3.46634 0
M  V30 4776 H 479.413 -3.90478 -2.58157 0
M  V30 4777 H 479.586 -5.54069 -3.36024 0
M  V30 4778 N 472.992 0.995999 -1.22138 0
M  V30 4779 C 474.217 1.77601 -1.0711 0
M  V30 4780 C 474.642 1.84339 0.374264 0
M  V30 4781 O 474 1.29359 1.27028 0
M  V30 4782 C 474.048 3.18897 -1.68336 0
M  V30 4783 O 473.152 4.01663 -0.934928 0
M  V30 4784 H 472.493 0.547011 -0.376397 0
M  V30 4785 H 475.023 1.25137 -1.6187 0
M  V30 4786 H 475.033 3.69539 -1.72931 0
M  V30 4787 H 473.708 3.13308 -2.73516 0
M  V30 4788 H 472.285 3.60204 -0.964751 0
M  V30 4789 N 474.47 1.03057 1.19235 0
M  V30 4790 C 475.38 0.622922 2.26179 0
M  V30 4791 C 476.396 -0.346113 1.70523 0
M  V30 4792 O 477.572 -0.203572 2.00369 0
M  V30 4793 C 474.637 -0.0182063 3.46695 0
M  V30 4794 C 473.698 0.998546 4.17526 0
M  V30 4795 C 472.931 0.387917 5.32288 0
M  V30 4796 O 473.154 -0.808668 5.64639 0
M  V30 4797 O 472.088 1.1116 5.91546 0
M  V30 4798 H 475.914 1.51363 2.63292 0
M  V30 4799 H 473.499 0.800856 1.26122 0
M  V30 4800 H 475.381 -0.375606 4.19723 0
M  V30 4801 H 474.056 -0.882895 3.11427 0
M  V30 4802 H 472.963 1.40756 3.4661 0
M  V30 4803 H 474.296 1.83366 4.56769 0
M  V30 4804 N 475.948 -1.35272 0.808662 0
M  V30 4805 C 477.173 -2.03477 0.401475 0
M  V30 4806 C 477.598 -1.60537 -0.980279 0
M  V30 4807 O 476.956 -0.78304 -1.63518 0
M  V30 4808 C 477.004 -3.57181 0.495354 0
M  V30 4809 O 476.108 -4.09474 -0.490397 0
M  V30 4810 H 475.449 -0.642561 0.167366 0
M  V30 4811 H 477.979 -1.72824 1.09512 0
M  V30 4812 H 477.989 -4.06356 0.365912 0
M  V30 4813 H 476.664 -3.87784 1.5032 0
M  V30 4814 H 475.241 -3.71516 -0.321023 0
M  V30 4815 N 477.426 -0.562348 -1.47226 0
M  V30 4816 C 478.356 0.170627 -2.32876 0
M  V30 4817 C 479.337 0.903748 -1.44106 0
M  V30 4818 O 480.522 0.883206 -1.72954 0
M  V30 4819 C 477.652 1.19786 -3.25989 0
M  V30 4820 C 476.606 0.580875 -4.2404 0
M  V30 4821 C 475.932 1.71311 -5.06514 0
M  V30 4822 C 477.232 -0.468714 -5.20193 0
M  V30 4823 H 478.926 -0.544441 -2.94408 0
M  V30 4824 H 476.472 -0.263271 -1.41573 0
M  V30 4825 H 478.425 1.71884 -3.84752 0
M  V30 4826 H 477.149 1.94294 -2.62521 0
M  V30 4827 H 475.808 0.0811538 -3.6651 0
M  V30 4828 H 475.456 2.44736 -4.39447 0
M  V30 4829 H 475.156 1.30604 -5.72902 0
M  V30 4830 H 476.68 2.23725 -5.68137 0
M  V30 4831 H 478.094 -0.0336028 -5.7329 0
M  V30 4832 H 476.491 -0.794957 -5.94811 0
M  V30 4833 H 477.561 -1.36269 -4.65359 0
M  V30 4834 N 478.904 1.54736 -0.299062 0
M  V30 4835 C 480.32 1.59507 0.0543849 0
M  V30 4836 C 480.52 1.31606 1.52585 0
M  V30 4837 O 479.576 1.08853 2.27832 0
M  V30 4838 C 480.889 2.98751 -0.34181 0
M  V30 4839 C 482.437 3.1165 -0.290414 0
M  V30 4840 C 482.912 4.53199 -0.661402 0
M  V30 4841 N 484.403 4.59114 -0.613863 0
M  V30 4842 C 485.138 5.66709 -0.873417 0
M  V30 4843 N 484.634 6.82349 -1.19884 0
M  V30 4844 N 486.427 5.56369 -0.800608 0
M  V30 4845 H 478.578 1.71133 -1.25806 0
M  V30 4846 H 480.841 0.799186 -0.509908 0
M  V30 4847 H 480.547 3.24085 -1.36608 0
M  V30 4848 H 480.421 3.75961 0.305508 0
M  V30 4849 H 482.808 2.86066 0.724605 0
M  V30 4850 H 482.889 2.366 -0.972327 0
M  V30 4851 H 482.533 4.79513 -1.67422 0
M  V30 4852 H 482.463 5.26583 0.0425612 0
M  V30 4853 H 484.954 3.76053 -0.3732 0
M  V30 4854 H 485.267 7.60326 -1.38291 0
M  V30 4855 H 483.612 6.83906 -1.23685 0
M  V30 4856 H 486.803 4.64904 -0.546045 0
M  V30 4857 H 486.976 6.40139 -1.00626 0
M  V30 4858 N 480.382 0.0267497 1.57577 0
M  V30 4859 C 481.628 -0.653371 1.91987 0
M  V30 4860 C 481.961 -1.71915 0.903263 0
M  V30 4861 O 481.236 -1.94358 -0.0743387 0
M  V30 4862 C 481.519 -1.272 3.36886 0
M  V30 4863 C 481.372 -0.215938 4.49281 0
M  V30 4864 C 482.691 -2.19069 3.81703 0
M  V30 4865 H 479.81 -0.236047 0.698177 0
M  V30 4866 H 482.452 0.0835236 1.89816 0
M  V30 4867 H 480.602 -1.90005 3.38866 0
M  V30 4868 H 482.274 0.41449 4.59434 0
M  V30 4869 H 480.517 0.458855 4.31366 0
M  V30 4870 H 481.188 -0.688347 5.47691 0
M  V30 4871 H 483.664 -1.66253 3.81444 0
M  V30 4872 H 482.54 -2.59307 4.83788 0
M  V30 4873 H 482.801 -3.08087 3.17072 0
M  V30 4874 N 481.861 -1.55662 -0.24637 0
M  V30 4875 C 483.107 -1.77782 -0.975779 0
M  V30 4876 C 483.44 -0.592103 -1.84953 0
M  V30 4877 O 482.715 0.409588 -1.90138 0
M  V30 4878 C 482.998 -3.09788 -1.83584 0
M  V30 4879 C 482.851 -4.38764 -0.990241 0
M  V30 4880 C 484.17 -3.38029 -2.81823 0
M  V30 4881 H 481.289 -0.646789 -0.353317 0
M  V30 4882 H 483.931 -1.88398 -0.246248 0
M  V30 4883 H 482.081 -3.00869 -2.45784 0
M  V30 4884 H 483.753 -4.59675 -0.386897 0
M  V30 4885 H 481.996 -4.32798 -0.294626 0
M  V30 4886 H 482.667 -5.27514 -1.62584 0
M  V30 4887 H 485.143 -3.46915 -2.2976 0
M  V30 4888 H 484.019 -4.3161 -3.39122 0
M  V30 4889 H 484.28 -2.58968 -3.58313 0
M  V30 4890 N 483.339 0.512053 -1.4905 0
M  V30 4891 C 484.579 1.27715 -1.59588 0
M  V30 4892 C 484.943 1.90071 -0.271502 0
M  V30 4893 O 486.144 2.67616 -0.251987 0
M  V30 4894 C 484.415 2.32399 -2.71524 0
M  V30 4895 S 485.974 3.18396 -3.01943 0
M  V30 4896 H 482.792 0.43419 -0.563027 0
M  V30 4897 H 485.394 0.581315 -1.86657 0
M  V30 4898 H 484.098 1.85101 -3.66287 0
M  V30 4899 H 483.629 3.06667 -2.46412 0
M  V30 4900 H 485.644 4.32842 -2.42616 0
M  V30 4901 N 484.817 1.37938 0.762283 0
M  V30 4902 C 486.233 1.18945 1.06415 0
M  V30 4903 C 486.433 0.0321163 2.01474 0
M  V30 4904 O 485.489 -0.624844 2.44647 0
M  V30 4905 C 486.802 2.51218 1.65258 0
M  V30 4906 C 488.35 2.57824 1.7747 0
M  V30 4907 C 488.825 3.90251 2.39725 0
M  V30 4908 N 490.316 3.91744 2.47166 0
M  V30 4909 C 491.051 4.90966 2.96209 0
M  V30 4910 N 490.547 6.00585 3.45354 0
M  V30 4911 N 492.34 4.78363 2.9517 0
M  V30 4912 H 484.491 2.11994 0.131301 0
M  V30 4913 H 486.754 0.940262 0.120879 0
M  V30 4914 H 486.46 3.36317 1.02878 0
M  V30 4915 H 486.334 2.68989 2.64433 0
M  V30 4916 H 488.721 1.73126 2.3898 0
M  V30 4917 H 488.802 2.43928 0.770241 0
M  V30 4918 H 488.446 4.75368 1.78852 0
M  V30 4919 H 488.376 4.01454 3.40796 0
M  V30 4920 H 490.867 3.12563 2.12397 0
M  V30 4921 H 491.18 6.72236 3.81207 0
M  V30 4922 H 489.525 6.04217 3.43434 0
M  V30 4923 H 492.716 3.91841 2.56082 0
M  V30 4924 H 492.889 5.55843 3.33081 0
M  V30 4925 N 486.295 -0.989507 1.22664 0
M  V30 4926 C 487.706 -1.54406 1.04955 0
M  V30 4927 C 488.057 -1.92366 -0.385951 0
M  V30 4928 O 487.182 -1.75111 -1.27142 0
M  V30 4929 C 487.777 -2.80578 1.89899 0
M  V30 4930 C 486.336 -3.32464 1.76478 0
M  V30 4931 C 485.483 -2.05524 1.86159 0
M  V30 4932 H 488.434 -0.810211 1.3646 0
M  V30 4933 H 488.455 -3.53075 1.4184 0
M  V30 4934 H 487.967 -2.52918 2.94371 0
M  V30 4935 H 486.068 -3.65024 0.747528 0
M  V30 4936 H 486.181 -4.02838 2.59342 0
M  V30 4937 H 484.545 -2.19241 1.29636 0
M  V30 4938 H 485.328 -1.80258 2.92168 0
M  V30 4939 N 487.773 -1.03688 -1.18687 0
M  V30 4940 C 488.723 -0.595067 -2.20098 0
M  V30 4941 C 489.707 0.360465 -1.5681 0
M  V30 4942 O 490.899 0.180136 -1.76081 0
M  V30 4943 C 488.028 0.0444495 -3.43271 0
M  V30 4944 C 487.114 -0.934002 -4.13687 0
M  V30 4945 N 487.505 -2.09957 -4.60165 0
M  V30 4946 C 485.803 -0.759177 -4.39491 0
M  V30 4947 C 486.504 -2.71735 -5.1433 0
M  V30 4948 N 485.48 -1.99638 -5.05614 0
M  V30 4949 H 489.282 -1.48336 -2.5372 0
M  V30 4950 H 486.796 -0.904949 -1.3485 0
M  V30 4951 H 488.793 0.37864 -4.15177 0
M  V30 4952 H 487.453 0.928325 -3.11147 0
M  V30 4953 H 488.464 -2.47863 -4.54735 0
M  V30 4954 H 485.141 0.0749292 -4.17433 0
M  V30 4955 H 486.531 -3.70492 -5.60523 0
M  V30 4956 N 489.251 1.34841 -0.815825 0
M  V30 4957 C 490.667 1.51543 -0.500697 0
M  V30 4958 C 490.867 1.76261 0.976444 0
M  V30 4959 O 489.923 1.8094 1.76117 0
M  V30 4960 C 491.236 2.68487 -1.35407 0
M  V30 4961 C 492.784 2.82368 -1.35046 0
M  V30 4962 C 493.259 4.02347 -2.18816 0
M  V30 4963 N 494.75 4.09542 -2.16402 0
M  V30 4964 C 495.485 5.01517 -2.77971 0
M  V30 4965 N 494.981 5.98763 -3.48503 0
M  V30 4966 N 496.774 4.94334 -2.67563 0
M  V30 4967 H 488.925 1.17055 -1.77234 0
M  V30 4968 H 491.188 0.573481 -0.754866 0
M  V30 4969 H 490.894 2.56829 -2.40274 0
M  V30 4970 H 490.768 3.63321 -1.01377 0
M  V30 4971 H 493.155 2.93471 -0.309604 0
M  V30 4972 H 493.236 1.88363 -1.73069 0
M  V30 4973 H 492.88 3.92004 -3.22948 0
M  V30 4974 H 492.81 4.95551 -1.78148 0
M  V30 4975 H 495.301 3.39932 -1.65091 0
M  V30 4976 H 495.614 6.6556 -3.92747 0
M  V30 4977 H 493.959 5.98909 -3.52609 0
M  V30 4978 H 497.15 4.1732 -2.12041 0
M  V30 4979 H 497.323 5.6582 -3.15834 0
M  V30 4980 N 490.729 0.570148 1.46925 0
M  V30 4981 C 491.978 0.0487352 2.01641 0
M  V30 4982 C 492.291 -1.31433 1.44861 0
M  V30 4983 O 493.497 -1.92638 1.91318 0
M  V30 4984 C 491.953 0.0365817 3.59881 0
M  V30 4985 C 491.561 1.39719 4.25655 0
M  V30 4986 C 493.305 -0.431545 4.22301 0
M  V30 4987 C 491.212 1.34345 5.75939 0
M  V30 4988 H 490.142 0.0144492 0.753862 0
M  V30 4989 H 492.793 0.719928 1.68788 0
M  V30 4990 H 491.175 -0.700522 3.89755 0
M  V30 4991 H 492.349 2.15303 4.07408 0
M  V30 4992 H 490.664 1.80431 3.75278 0
M  V30 4993 H 493.261 -0.490354 5.32447 0
M  V30 4994 H 493.604 -1.44638 3.90366 0
M  V30 4995 H 494.137 0.251102 3.97007 0
M  V30 4996 H 490.876 2.33469 6.12513 0
M  V30 4997 H 490.396 0.629615 5.96486 0
M  V30 4998 H 492.075 1.051 6.38407 0
M  V30 4999 N 492.207 -1.54576 0.307264 0
M  V30 5000 C 493.454 -2.00263 -0.300167 0
M  V30 5001 C 493.782 -1.19561 -1.53413 0
M  V30 5002 O 493.037 -0.261487 -1.93945 0
M  V30 5003 C 493.336 -3.50572 -0.695253 0
M  V30 5004 C 493.002 -4.48771 0.437679 0
M  V30 5005 C 491.664 -4.7534 0.748681 0
M  V30 5006 C 494.016 -5.0721 1.19949 0
M  V30 5007 C 491.344 -5.5761 1.8245 0
M  V30 5008 C 493.696 -5.90651 2.26527 0
M  V30 5009 C 492.36 -6.15528 2.58227 0
M  V30 5010 H 491.63 -0.732814 -0.109839 0
M  V30 5011 H 494.277 -1.86664 0.427661 0
M  V30 5012 H 492.582 -3.61814 -1.50326 0
M  V30 5013 H 494.279 -3.83352 -1.17653 0
M  V30 5014 H 490.869 -4.282 0.185187 0
M  V30 5015 H 495.053 -4.86679 0.972474 0
M  V30 5016 H 490.309 -5.75121 2.07476 0
M  V30 5017 H 494.483 -6.34957 2.86011 0
M  V30 5018 H 492.11 -6.79066 3.4172 0
M  V30 5019 N 493.685 -0.035106 -1.57561 0
M  V30 5020 C 495.101 0.321334 -1.56332 0
M  V30 5021 C 495.301 1.72509 -1.04129 0
M  V30 5022 O 494.357 2.4287 -0.690694 0
M  V30 5023 C 495.67 0.164469 -3.0025 0
M  V30 5024 C 497.218 0.236786 -3.12103 0
M  V30 5025 C 497.693 0.10864 -4.57871 0
M  V30 5026 N 499.184 0.165433 -4.62904 0
M  V30 5027 C 499.919 0.0901506 -5.73329 0
M  V30 5028 N 499.415 -0.0365606 -6.9279 0
M  V30 5029 N 501.208 0.144572 -5.61914 0
M  V30 5030 H 493.359 -0.952976 -1.89821 0
M  V30 5031 H 495.622 -0.368537 -0.873432 0
M  V30 5032 H 495.328 -0.802746 -3.42416 0
M  V30 5033 H 495.202 0.932194 -3.655 0
M  V30 5034 H 497.589 1.19446 -2.69845 0
M  V30 5035 H 497.67 -0.561419 -2.49563 0
M  V30 5036 H 497.314 -0.845644 -5.00811 0
M  V30 5037 H 497.244 0.925786 -5.18398 0
M  V30 5038 H 499.735 0.263269 -3.76982 0
M  V30 5039 H 500.048 -0.0871487 -7.72751 0
M  V30 5040 H 498.393 -0.0714256 -6.94963 0
M  V30 5041 H 501.584 0.242006 -4.67474 0
M  V30 5042 H 501.757 0.0824413 -6.47948 0
M  V30 5043 N 495.163 1.55791 0.238111 0
M  V30 5044 C 496.574 1.68383 0.806472 0
M  V30 5045 C 496.925 0.634157 1.85669 0
M  V30 5046 O 496.05 -0.217913 2.153 0
M  V30 5047 C 496.645 3.05268 1.46959 0
M  V30 5048 C 495.204 3.1977 1.98555 0
M  V30 5049 C 494.351 2.64279 0.839763 0
M  V30 5050 H 497.302 1.58694 0.0137535 0
M  V30 5051 H 497.323 3.00203 2.33792 0
M  V30 5052 H 496.835 3.81643 0.704993 0
M  V30 5053 H 494.936 2.48234 2.77868 0
M  V30 5054 H 495.049 4.26788 2.17689 0
M  V30 5055 H 493.413 2.22329 1.24265 0
M  V30 5056 H 494.196 3.43187 0.0881032 0
M  V30 5057 N 496.642 -0.504142 1.49319 0
M  V30 5058 C 497.867 -1.28729 1.62615 0
M  V30 5059 C 498.292 -1.85752 0.296309 0
M  V30 5060 O 497.65 -1.65704 -0.735649 0
M  V30 5061 C 497.698 -2.39561 2.69524 0
M  V30 5062 O 496.802 -3.43324 2.28478 0
M  V30 5063 H 496.143 -0.380172 0.544395 0
M  V30 5064 H 498.673 -0.603872 1.95485 0
M  V30 5065 H 498.683 -2.8537 2.91595 0
M  V30 5066 H 497.358 -1.97423 3.66056 0
M  V30 5067 H 495.935 -3.03455 2.16725 0
M  V30 5068 N 498.12 -1.38341 -0.754957 0
M  V30 5069 C 499.397 -1.24995 -1.50451 0
M  V30 5070 C 499.777 0.149244 -2.10572 0
M  V30 5071 O 499.125 1.15861 -1.96948 0
M  V30 5072 C 499.335 -2.35904 -2.57197 0
M  V30 5073 C 500.683 -2.74262 -3.24138 0
M  V30 5074 O 501.707 -2.35205 -2.67501 0
M  V30 5075 O 500.566 -3.4161 -4.26574 0
M  V30 5076 H 497.66 -0.48872 -0.667144 0
M  V30 5077 H 500.206 -1.50165 -0.790486 0
M  V30 5078 H 498.978 -3.2953 -2.11011 0
M  V30 5079 H 498.601 -2.12291 -3.36182 0
M  V30 5080 N 499.598 0.982988 -1.23187 0
M  V30 5081 C 500.528 2.09301 -1.03515 0
M  V30 5082 C 501.509 1.70035 0.0471136 0
M  V30 5083 O 502.694 1.93847 -0.117029 0
M  V30 5084 C 499.824 3.4167 -0.622791 0
M  V30 5085 C 498.778 3.94828 -1.65211 0
M  V30 5086 C 498.104 5.23362 -1.09527 0
M  V30 5087 C 499.404 4.2439 -3.04451 0
M  V30 5088 H 501.098 2.26016 -1.96359 0
M  V30 5089 H 498.644 1.08611 -0.945501 0
M  V30 5090 H 500.597 4.18746 -0.472233 0
M  V30 5091 H 499.321 3.24811 0.341329 0
M  V30 5092 H 497.98 3.19895 -1.79061 0
M  V30 5093 H 497.628 5.02852 -0.122211 0
M  V30 5094 H 497.328 5.59895 -1.783 0
M  V30 5095 H 498.852 6.03062 -0.956511 0
M  V30 5096 H 500.266 4.92225 -2.93917 0
M  V30 5097 H 498.663 4.72118 -3.70438 0
M  V30 5098 H 499.733 3.31765 -3.53638 0
M  V30 5099 N 501.076 1.04316 1.18135 0
M  V30 5100 C 502.325 0.74319 1.87509 0
M  V30 5101 C 502.638 -0.732136 1.81381 0
M  V30 5102 O 503.844 -1.14572 2.46141 0
M  V30 5103 C 502.3 1.27913 3.36402 0
M  V30 5104 C 501.908 2.78326 3.51053 0
M  V30 5105 C 503.652 1.0558 4.11161 0
M  V30 5106 C 501.559 3.25266 4.93919 0
M  V30 5107 H 500.489 0.274313 0.702331 0
M  V30 5108 H 503.14 1.25931 1.33467 0
M  V30 5109 H 501.522 0.690853 3.89927 0
M  V30 5110 H 502.696 3.42933 3.07788 0
M  V30 5111 H 501.011 2.991 2.89704 0
M  V30 5112 H 503.608 1.38161 5.16542 0
M  V30 5113 H 503.951 -0.00684729 4.16299 0
M  V30 5114 H 504.484 1.60882 3.63816 0
M  V30 5115 H 501.223 4.30922 4.9395 0
M  V30 5116 H 500.743 2.65396 5.3789 0
M  V30 5117 H 502.422 3.19433 5.62647 0
M  V30 5118 N 502.554 -1.34406 0.822964 0
M  V30 5119 C 503.504 -2.26963 0.217208 0
M  V30 5120 C 504.488 -1.48536 -0.618545 0
M  V30 5121 O 505.68 -1.7056 -0.473118 0
M  V30 5122 C 502.809 -3.37655 -0.619973 0
M  V30 5123 C 501.895 -4.23495 0.226411 0
M  V30 5124 N 502.286 -4.88876 1.29744 0
M  V30 5125 C 500.584 -4.45999 0.0107554 0
M  V30 5126 C 501.285 -5.52642 1.81553 0
M  V30 5127 N 500.261 -5.31949 1.11942 0
M  V30 5128 H 504.063 -2.75017 1.03647 0
M  V30 5129 H 501.577 -1.48126 0.665777 0
M  V30 5130 H 503.574 -4.02932 -1.07011 0
M  V30 5131 H 502.234 -2.91151 -1.43739 0
M  V30 5132 H 503.245 -4.89886 1.68024 0
M  V30 5133 H 499.922 -4.10253 -0.774495 0
M  V30 5134 H 501.312 -6.14755 2.71156 0
M  V30 5135 N 504.032 -0.577932 -1.46621 0
M  V30 5136 C 505.28 -0.061566 -2.02006 0
M  V30 5137 C 505.601 1.30117 -1.4524 0
M  V30 5138 O 504.871 1.85313 -0.63529 0
M  V30 5139 H 503.451 -0.0197692 -0.746738 0
M  V30 5140 H 506.113 -0.752631 -1.79782 0
M  V30 5141 H 505.209 0.0110238 -3.12098 0
M  V30 5142 N 505.51 1.54411 -0.315457 0
M  V30 5143 C 506.42 2.27737 0.56329 0
M  V30 5144 C 507.436 1.31787 1.13614 0
M  V30 5145 O 508.612 1.64791 1.15784 0
M  V30 5146 C 505.677 3.01478 1.71207 0
M  V30 5147 C 504.738 4.12997 1.17185 0
M  V30 5148 C 503.971 4.83212 2.26588 0
M  V30 5149 O 504.194 4.52884 3.46775 0
M  V30 5150 O 503.128 5.70299 1.92463 0
M  V30 5151 H 506.954 3.03683 -0.0319614 0
M  V30 5152 H 504.539 1.49178 -0.0814188 0
M  V30 5153 H 506.421 3.47683 2.38106 0
M  V30 5154 H 505.096 2.28414 2.29366 0
M  V30 5155 H 504.003 3.71159 0.468174 0
M  V30 5156 H 505.336 4.8808 0.635501 0
M  V30 5157 N 506.988 0.0434614 1.5754 0
M  V30 5158 C 508.234 -0.632971 1.92669 0
M  V30 5159 C 508.567 -1.70947 0.921446 0
M  V30 5160 O 507.842 -1.94426 -0.0537202 0
M  V30 5161 C 508.125 -1.23619 3.38216 0
M  V30 5162 C 507.978 -0.168274 4.49485 0
M  V30 5163 C 509.297 -2.15008 3.84005 0
M  V30 5164 H 506.416 -0.228629 0.700641 0
M  V30 5165 H 509.058 0.103651 1.89717 0
M  V30 5166 H 507.208 -1.864 3.40863 0
M  V30 5167 H 508.88 0.463196 4.58969 0
M  V30 5168 H 507.123 0.504581 4.30855 0
M  V30 5169 H 507.794 -0.630218 5.48391 0
M  V30 5170 H 510.27 -1.62198 3.83185 0
M  V30 5171 H 509.146 -2.54161 4.86511 0
M  V30 5172 H 509.407 -3.04707 3.20322 0
M  V30 5173 N 508.466 -1.55915 -0.229846 0
M  V30 5174 C 509.396 -1.94754 -1.28815 0
M  V30 5175 C 510.377 -0.814657 -1.49323 0
M  V30 5176 O 511.562 -1.07631 -1.61645 0
M  V30 5177 C 508.692 -2.25705 -2.63959 0
M  V30 5178 C 507.646 -3.41406 -2.5812 0
M  V30 5179 C 506.972 -3.57941 -3.97218 0
M  V30 5180 C 508.272 -4.76616 -2.13623 0
M  V30 5181 H 509.966 -2.83404 -0.965547 0
M  V30 5182 H 507.512 -1.36353 -0.463028 0
M  V30 5183 H 509.465 -2.51467 -3.38146 0
M  V30 5184 H 508.189 -1.339 -2.9789 0
M  V30 5185 H 506.848 -3.1568 -1.86391 0
M  V30 5186 H 506.496 -2.63526 -4.28443 0
M  V30 5187 H 506.196 -4.35757 -3.94195 0
M  V30 5188 H 507.72 -3.86042 -4.73079 0
M  V30 5189 H 509.134 -5.01637 -2.77549 0
M  V30 5190 H 507.531 -5.57655 -2.21677 0
M  V30 5191 H 508.601 -4.7253 -1.08829 0
M  V30 5192 N 509.944 0.496216 -1.49584 0
M  V30 5193 C 511.192 1.24756 -1.58998 0
M  V30 5194 C 511.513 1.92968 -0.280775 0
M  V30 5195 O 510.783 1.82959 0.700198 0
M  V30 5196 H 509.363 0.463471 -0.585836 0
M  V30 5197 H 512.025 0.574678 -1.86235 0
M  V30 5198 H 511.121 2.00895 -2.38847 0
M  V30 5199 N 511.423 1.38739 0.74761 0
M  V30 5200 C 512.37 1.36449 1.86146 0
M  V30 5201 C 513.34 0.226098 1.64554 0
M  V30 5202 O 514.525 0.41926 1.86137 0
M  V30 5203 C 511.665 1.2013 3.23516 0
M  V30 5204 C 510.778 2.43407 3.56899 0
M  V30 5205 C 509.913 2.19773 4.83605 0
M  V30 5206 C 508.952 3.3879 5.09792 0
M  V30 5207 N 508.089 3.14553 6.27695 0
M  V30 5208 H 512.929 2.3167 1.87438 0
M  V30 5209 H 510.466 1.15094 0.916063 0
M  V30 5210 H 512.424 1.08683 4.02795 0
M  V30 5211 H 511.054 0.285453 3.21535 0
M  V30 5212 H 510.106 2.65504 2.72418 0
M  V30 5213 H 511.418 3.32094 3.72176 0
M  V30 5214 H 510.572 2.05496 5.70838 0
M  V30 5215 H 509.311 1.28461 4.70478 0
M  V30 5216 H 508.316 3.53579 4.21025 0
M  V30 5217 H 509.541 4.30986 5.24812 0
M  V30 5218 H 507.487 2.25893 6.1588 0
M  V30 5219 H 507.404 3.96791 6.435 0
M  V30 5220 H 508.672 3.03943 7.17801 0
M  V30 5221 N 512.901 -0.976442 1.23707 0
M  V30 5222 C 514.149 -1.71487 1.06942 0
M  V30 5223 C 514.47 -1.9098 -0.393897 0
M  V30 5224 O 513.74 -1.48128 -1.28198 0
M  V30 5225 H 512.32 -0.635425 0.392739 0
M  V30 5226 H 514.982 -1.17515 1.55487 0
M  V30 5227 H 514.078 -2.70286 1.56051 0
M  V30 5228 N 514.379 -1.04941 -1.1758 0
M  V30 5229 C 515.619 -0.766996 -1.89464 0
M  V30 5230 C 515.983 0.693123 -1.79053 0
M  V30 5231 O 517.184 1.08953 -2.45729 0
M  V30 5232 C 515.455 -1.23108 -3.35528 0
M  V30 5233 S 517.014 -1.07565 -4.25412 0
M  V30 5234 H 513.832 -0.278616 -0.654136 0
M  V30 5235 H 516.434 -1.34352 -1.4202 0
M  V30 5236 H 515.138 -2.28896 -3.40639 0
M  V30 5237 H 514.669 -0.648724 -3.88014 0
M  V30 5238 H 516.684 0.00169467 -4.962 0
M  V30 5239 N 515.857 1.33968 -0.830081 0
M  V30 5240 C 517.104 1.98063 -0.421566 0
M  V30 5241 C 517.432 1.65787 1.0171 0
M  V30 5242 O 516.687 0.925348 1.72441 0
M  V30 5243 C 516.986 3.52679 -0.57898 0
M  V30 5244 C 516.652 4.04884 -1.98443 0
M  V30 5245 C 515.314 4.18852 -2.36888 0
M  V30 5246 C 517.666 4.32879 -2.90285 0
M  V30 5247 C 514.994 4.58145 -3.66497 0
M  V30 5248 C 517.346 4.7362 -4.19364 0
M  V30 5249 C 516.01 4.85794 -4.57778 0
M  V30 5250 H 515.28 0.724765 -0.154262 0
M  V30 5251 H 517.927 1.59792 -1.05541 0
M  V30 5252 H 516.232 3.91556 0.138219 0
M  V30 5253 H 517.929 4.00261 -0.243317 0
M  V30 5254 H 514.519 3.9448 -1.67581 0
M  V30 5255 H 518.703 4.21619 -2.61823 0
M  V30 5256 H 513.959 4.65762 -3.96075 0
M  V30 5257 H 518.133 4.9424 -4.90612 0
M  V30 5258 H 515.76 5.15998 -5.58256 0
M  V30 5259 N 517.335 0.585699 1.46312 0
M  V30 5260 C 518.583 0.072278 2.01971 0
M  V30 5261 C 518.904 -1.29345 1.45928 0
M  V30 5262 O 518.174 -1.84973 0.645109 0
M  V30 5263 H 516.754 0.023729 0.746623 0
M  V30 5264 H 519.416 0.762155 1.7938 0
M  V30 5265 H 518.512 0.00552767 3.121 0
M  V30 5266 N 518.813 -1.54241 0.323641 0
M  V30 5267 C 519.745 -2.21836 -0.576311 0
M  V30 5268 C 520.758 -1.21837 -1.07979 0
M  V30 5269 O 521.947 -1.48306 -0.99336 0
M  V30 5270 C 519.047 -2.86923 -1.80356 0
M  V30 5271 C 518.22 -4.1306 -1.43875 0
M  V30 5272 C 517.279 -4.6174 -2.52353 0
M  V30 5273 O 516.305 -5.26421 -2.16494 0
M  V30 5274 N 517.507 -4.35974 -3.83284 0
M  V30 5275 H 520.272 -2.997 0.00247987 0
M  V30 5276 H 517.833 -1.61233 0.146848 0
M  V30 5277 H 519.825 -3.16414 -2.52318 0
M  V30 5278 H 518.395 -2.12765 -2.29019 0
M  V30 5279 H 517.615 -3.90334 -0.550752 0
M  V30 5280 H 518.903 -4.95148 -1.17071 0
M  V30 5281 H 518.301 -3.84203 -4.15216 0
M  V30 5282 H 516.858 -4.70119 -4.51477 0
M  V30 5283 N 520.291 -0.0518155 -1.57515 0
M  V30 5284 C 521.254 0.907547 -2.10467 0
M  V30 5285 C 522.254 1.23947 -1.02439 0
M  V30 5286 O 523.444 1.17604 -1.2851 0
M  V30 5287 C 520.576 2.21723 -2.58944 0
M  V30 5288 H 521.769 0.44851 -2.96527 0
M  V30 5289 H 519.322 0.196598 -1.55059 0
M  V30 5290 H 520.057 2.72206 -1.76279 0
M  V30 5291 H 519.842 1.98935 -3.37886 0
M  V30 5292 H 521.332 2.90441 -3.00056 0
M  V30 5293 N 521.769 1.56035 0.221574 0
M  V30 5294 C 523.018 1.78245 0.944016 0
M  V30 5295 C 523.331 0.620371 1.85501 0
M  V30 5296 O 524.537 0.726103 2.6161 0
M  V30 5297 C 522.993 3.15659 1.7288 0
M  V30 5298 C 522.601 4.39591 0.863942 0
M  V30 5299 C 524.345 3.47195 2.44246 0
M  V30 5300 C 522.252 5.6803 1.64607 0
M  V30 5301 H 521.182 0.664547 0.356222 0
M  V30 5302 H 523.833 1.8243 0.197904 0
M  V30 5303 H 522.215 3.0565 2.51781 0
M  V30 5304 H 523.389 4.60655 0.115464 0
M  V30 5305 H 521.704 4.15572 0.262407 0
M  V30 5306 H 524.301 4.40381 3.03263 0
M  V30 5307 H 524.644 2.69693 3.1713 0
M  V30 5308 H 525.177 3.58533 1.72334 0
M  V30 5309 H 521.916 6.48425 0.960507 0
M  V30 5310 H 521.436 5.51027 2.36917 0
M  V30 5311 H 523.115 6.08203 2.20675 0
M  V30 5312 N 523.247 -0.488276 1.49845 0
M  V30 5313 C 524.194 -1.58836 1.67451 0
M  V30 5314 C 525.164 -1.57886 0.515857 0
M  V30 5315 O 526.349 -1.75679 0.744403 0
M  V30 5316 C 523.489 -2.96915 1.75885 0
M  V30 5317 C 522.602 -3.07784 3.03138 0
M  V30 5318 C 521.737 -4.36673 3.02473 0
M  V30 5319 C 520.776 -4.41222 4.24252 0
M  V30 5320 N 519.913 -5.61557 4.21424 0
M  V30 5321 H 524.753 -1.43131 2.61376 0
M  V30 5322 H 522.29 -0.696186 1.29583 0
M  V30 5323 H 524.248 -3.76965 1.78755 0
M  V30 5324 H 522.878 -3.11295 0.85414 0
M  V30 5325 H 521.93 -2.20717 3.09819 0
M  V30 5326 H 523.242 -3.07005 3.93128 0
M  V30 5327 H 522.396 -5.25055 3.03977 0
M  V30 5328 H 521.135 -4.40037 2.10283 0
M  V30 5329 H 520.14 -3.5124 4.22978 0
M  V30 5330 H 521.365 -4.39564 5.17649 0
M  V30 5331 H 519.311 -5.65738 3.32078 0
M  V30 5332 H 519.228 -5.62447 5.05163 0
M  V30 5333 H 520.496 -6.52111 4.2705 0
M  V30 5334 N 524.725 -1.39134 -0.740242 0
M  V30 5335 C 525.971 -1.36273 -1.50192 0
M  V30 5336 C 526.304 0.0430136 -1.94152 0
M  V30 5337 O 525.579 1.00691 -1.66408 0
M  V30 5338 C 525.862 -2.33041 -2.74525 0
M  V30 5339 C 525.715 -3.82535 -2.36617 0
M  V30 5340 C 527.034 -2.27723 -3.76604 0
M  V30 5341 H 524.153 -0.496323 -0.544823 0
M  V30 5342 H 526.795 -1.70085 -0.846815 0
M  V30 5343 H 524.945 -2.04337 -3.30422 0
M  V30 5344 H 526.617 -4.21967 -1.86391 0
M  V30 5345 H 524.86 -3.99565 -1.68909 0
M  V30 5346 H 525.531 -4.45723 -3.2563 0
M  V30 5347 H 528.007 -2.53091 -3.30279 0
M  V30 5348 H 526.883 -2.97519 -4.61274 0
M  V30 5349 H 527.144 -1.28049 -4.2315 0
M  V30 5350 N 526.204 0.969867 -1.24223 0
M  V30 5351 C 527.432 1.74756 -1.10761 0
M  V30 5352 C 527.847 1.85713 0.340041 0
M  V30 5353 O 527.204 1.34389 1.23474 0
M  V30 5354 C 527.255 3.16915 -1.73917 0
M  V30 5355 O 526.976 3.06511 -3.13021 0
M  V30 5356 C 528.477 4.11032 -1.66036 0
M  V30 5357 H 525.697 0.548092 -0.387087 0
M  V30 5358 H 528.241 1.2178 -1.64286 0
M  V30 5359 H 526.396 3.66884 -1.244 0
M  V30 5360 H 526.81 3.96079 -3.43834 0
M  V30 5361 H 528.284 5.08446 -2.14911 0
M  V30 5362 H 528.761 4.34785 -0.621159 0
M  V30 5363 H 529.367 3.66972 -2.14969 0
M  V30 5364 N 527.682 1.05563 1.17022 0
M  V30 5365 C 528.632 0.630007 2.19123 0
M  V30 5366 C 529.616 -0.335472 1.57364 0
M  V30 5367 O 530.808 -0.1521 1.76345 0
M  V30 5368 C 527.937 0.0101676 3.43298 0
M  V30 5369 C 527.023 0.999698 4.12149 0
M  V30 5370 N 527.414 2.17251 4.56766 0
M  V30 5371 C 525.712 0.829 4.38228 0
M  V30 5372 C 526.413 2.79883 5.09942 0
M  V30 5373 N 525.389 2.07656 5.02374 0
M  V30 5374 H 529.191 1.52353 2.51328 0
M  V30 5375 H 526.705 0.926288 1.33393 0
M  V30 5376 H 528.702 -0.312541 4.15727 0
M  V30 5377 H 527.362 -0.878707 3.12584 0
M  V30 5378 H 528.373 2.55067 4.50734 0
M  V30 5379 H 525.05 -0.00850974 4.17499 0
M  V30 5380 H 526.44 3.79362 5.54558 0
M  V30 5381 N 529.16 -1.33526 0.837174 0
M  V30 5382 C 530.576 -1.50727 0.524743 0
M  V30 5383 C 530.776 -1.77792 -0.948279 0
M  V30 5384 O 529.832 -1.83719 -1.73216 0
M  V30 5385 C 531.145 -2.66299 1.39661 0
M  V30 5386 C 532.693 -2.80183 1.39521 0
M  V30 5387 C 533.168 -3.98815 2.25189 0
M  V30 5388 N 534.659 -4.06047 2.2289 0
M  V30 5389 C 535.394 -4.97032 2.85915 0
M  V30 5390 N 534.89 -5.93143 3.57985 0
M  V30 5391 N 536.683 -4.90015 2.75394 0
M  V30 5392 H 528.834 -1.1422 1.79074 0
M  V30 5393 H 531.097 -0.561399 0.763894 0
M  V30 5394 H 530.803 -2.52974 2.4433 0
M  V30 5395 H 530.677 -3.61663 1.07145 0
M  V30 5396 H 533.064 -2.92942 0.356253 0
M  V30 5397 H 533.145 -1.85586 1.76044 0
M  V30 5398 H 532.789 -3.86817 3.29143 0
M  V30 5399 H 532.719 -4.92654 1.86009 0
M  V30 5400 H 535.21 -3.37262 1.70478 0
M  V30 5401 H 535.523 -6.59227 4.03286 0
M  V30 5402 H 533.868 -5.93223 3.62093 0
M  V30 5403 H 537.059 -4.13894 2.18654 0
M  V30 5404 H 537.232 -5.60724 3.24796 0
M  V30 5405 N 530.638 -0.59345 -1.46 0
M  V30 5406 C 531.548 0.135817 -2.34207 0
M  V30 5407 C 532.564 0.875008 -1.50398 0
M  V30 5408 O 533.74 0.835778 -1.83239 0
M  V30 5409 C 530.805 1.12977 -3.27776 0
M  V30 5410 C 529.866 0.394081 -4.27487 0
M  V30 5411 C 529.099 1.34068 -5.16586 0
M  V30 5412 O 529.322 2.5778 -5.08828 0
M  V30 5413 O 528.256 0.845426 -5.95933 0
M  V30 5414 H 532.082 -0.588691 -2.9794 0
M  V30 5415 H 529.667 -0.353784 -1.45151 0
M  V30 5416 H 531.549 1.70261 -3.85473 0
M  V30 5417 H 530.224 1.83556 -2.66625 0
M  V30 5418 H 529.131 -0.220869 -3.73447 0
M  V30 5419 H 530.464 -0.270939 -4.91454 0
M  V30 5420 N 532.116 1.54067 -0.331816 0
M  V30 5421 C 533.344 2.05131 0.269996 0
M  V30 5422 C 533.759 1.20749 1.45138 0
M  V30 5423 O 533.116 0.240069 1.80914 0
M  V30 5424 C 533.167 3.54728 0.696456 0
M  V30 5425 O 532.888 4.35906 -0.43794 0
M  V30 5426 C 534.389 4.21916 1.36021 0
M  V30 5427 H 531.609 0.668807 0.0542042 0
M  V30 5428 H 534.153 1.98777 -0.4804 0
M  V30 5429 H 532.308 3.61342 1.39681 0
M  V30 5430 H 532.722 5.24404 -0.100334 0
M  V30 5431 H 534.196 5.28015 1.60947 0
M  V30 5432 H 534.673 3.73538 2.31011 0
M  V30 5433 H 535.279 4.19463 0.702212 0
M  V30 5434 N 533.594 0.0601682 1.57485 0
M  V30 5435 C 534.842 -0.610386 1.92662 0
M  V30 5436 C 535.163 -1.70849 0.939981 0
M  V30 5437 O 534.433 -1.95895 -0.0137455 0
M  V30 5438 H 533.013 -0.228457 0.711208 0
M  V30 5439 H 535.675 0.115288 1.94559 0
M  V30 5440 H 534.771 -1.0432 2.94149 0
M  V30 5441 N 535.072 -1.5615 -0.213296 0
M  V30 5442 C 535.982 -1.96265 -1.28519 0
M  V30 5443 C 536.998 -0.86765 -1.50824 0
M  V30 5444 O 538.174 -1.17191 -1.63793 0
M  V30 5445 C 535.239 -2.27836 -2.61327 0
M  V30 5446 C 534.3 -3.50949 -2.47252 0
M  V30 5447 C 533.533 -3.81004 -3.73727 0
M  V30 5448 O 533.756 -3.12612 -4.77106 0
M  V30 5449 O 532.69 -4.74477 -3.70344 0
M  V30 5450 H 536.516 -2.87631 -0.974795 0
M  V30 5451 H 534.101 -1.43467 -0.416832 0
M  V30 5452 H 535.983 -2.49299 -3.39747 0
M  V30 5453 H 534.658 -1.39643 -2.9203 0
M  V30 5454 H 533.565 -3.34754 -1.67004 0
M  V30 5455 H 534.898 -4.39551 -2.21486 0
M  V30 5456 N 536.55 0.480323 -1.50102 0
M  V30 5457 C 537.796 1.23489 -1.60867 0
M  V30 5458 C 538.129 1.91809 -0.303827 0
M  V30 5459 O 537.404 1.81694 0.694092 0
M  V30 5460 C 537.687 2.28578 -2.78252 0
M  V30 5461 C 537.54 1.64624 -4.18592 0
M  V30 5462 C 538.859 3.2997 -2.91218 0
M  V30 5463 H 535.978 0.447605 -0.585507 0
M  V30 5464 H 538.62 0.530005 -1.82458 0
M  V30 5465 H 536.77 2.88697 -2.59974 0
M  V30 5466 H 538.442 1.08173 -4.48438 0
M  V30 5467 H 536.685 0.949645 -4.23278 0
M  V30 5468 H 537.356 2.40946 -4.96638 0
M  V30 5469 H 539.832 2.79864 -3.07921 0
M  V30 5470 H 538.708 4.00839 -3.74993 0
M  V30 5471 H 538.969 3.93541 -2.0144 0
M  V30 5472 N 538.028 1.39524 0.732853 0
M  V30 5473 C 538.961 1.32806 1.85574 0
M  V30 5474 C 539.939 0.201354 1.61348 0
M  V30 5475 O 541.123 0.38216 1.84585 0
M  V30 5476 C 538.25 1.06271 3.21596 0
M  V30 5477 C 537.296 2.21161 3.64678 0
M  V30 5478 S 538.129 3.83454 3.73796 0
M  V30 5479 C 539.285 3.59149 5.12604 0
M  V30 5480 H 539.518 2.27838 1.9099 0
M  V30 5481 H 537.051 1.25605 0.897927 0
M  V30 5482 H 539.009 0.916461 4.00139 0
M  V30 5483 H 537.67 0.129223 3.13834 0
M  V30 5484 H 536.863 1.98193 4.63396 0
M  V30 5485 H 536.465 2.32 2.93346 0
M  V30 5486 H 538.757 3.16547 5.99003 0
M  V30 5487 H 539.7 4.57335 5.40602 0
M  V30 5488 H 540.108 2.93203 4.82382 0
M  V30 5489 N 539.506 -0.963266 1.24736 0
M  V30 5490 C 540.752 -1.70933 1.09131 0
M  V30 5491 C 541.085 -1.90676 -0.368273 0
M  V30 5492 O 540.36 -1.47147 -1.27193 0
M  V30 5493 C 540.643 -3.09744 1.83658 0
M  V30 5494 C 540.496 -2.97465 3.37394 0
M  V30 5495 C 541.815 -4.09483 1.61282 0
M  V30 5496 H 538.934 -0.620398 0.397838 0
M  V30 5497 H 541.576 -1.12028 1.53459 0
M  V30 5498 H 539.726 -3.60031 1.4598 0
M  V30 5499 H 541.398 -2.54571 3.84696 0
M  V30 5500 H 539.641 -2.33576 3.65547 0
M  V30 5501 H 540.312 -3.95822 3.84745 0
M  V30 5502 H 542.788 -3.68073 1.94066 0
M  V30 5503 H 541.664 -5.04666 2.15878 0
M  V30 5504 H 541.925 -4.38639 0.552102 0
M  V30 5505 N 540.985 -1.06182 -1.16461 0
M  V30 5506 C 541.918 -0.615859 -2.19733 0
M  V30 5507 C 542.896 0.360766 -1.58547 0
M  V30 5508 O 544.08 0.270009 -1.86556 0
M  V30 5509 C 541.207 0.097312 -3.3856 0
M  V30 5510 C 540.253 -0.835889 -4.18229 0
M  V30 5511 S 541.086 -2.33052 -4.82128 0
M  V30 5512 C 542.242 -1.62881 -6.04335 0
M  V30 5513 H 542.475 -1.49079 -2.57221 0
M  V30 5514 H 540.008 -0.874692 -1.27234 0
M  V30 5515 H 541.966 0.502563 -4.07412 0
M  V30 5516 H 540.627 0.948418 -2.99439 0
M  V30 5517 H 539.82 -0.283426 -5.03202 0
M  V30 5518 H 539.422 -1.18097 -3.54865 0
M  V30 5519 H 541.714 -0.933764 -6.71034 0
M  V30 5520 H 542.657 -2.45641 -6.64128 0
M  V30 5521 H 543.065 -1.11189 -5.53441 0
M  V30 5522 N 542.463 1.3308 -0.844243 0
M  V30 5523 C 543.41 2.29104 -0.279323 0
M  V30 5524 C 544.38 1.54577 0.607882 0
M  V30 5525 O 545.565 1.8285 0.545009 0
M  V30 5526 C 542.705 3.40927 0.53508 0
M  V30 5527 C 541.818 4.30354 -0.376749 0
M  V30 5528 C 540.953 5.29297 0.449276 0
M  V30 5529 C 539.992 6.10365 -0.460606 0
M  V30 5530 N 539.129 7.01335 0.327612 0
M  V30 5531 H 543.969 2.76817 -1.10346 0
M  V30 5532 H 541.506 1.36203 -0.555611 0
M  V30 5533 H 543.464 4.04469 1.02278 0
M  V30 5534 H 542.094 2.94391 1.32414 0
M  V30 5535 H 541.146 3.67485 -0.982791 0
M  V30 5536 H 542.458 4.87067 -1.07549 0
M  V30 5537 H 541.612 5.98392 1.00058 0
M  V30 5538 H 540.351 4.73174 1.18143 0
M  V30 5539 H 539.356 5.40182 -1.02388 0
M  V30 5540 H 540.581 6.68571 -1.1912 0
M  V30 5541 H 538.527 6.47655 1.04305 0
M  V30 5542 H 538.444 7.55355 -0.3123 0
M  V30 5543 H 539.712 7.74731 0.86098 0
M  V30 5544 N 543.941 0.601185 1.45683 0
M  V30 5545 C 544.851 -0.123395 2.34275 0
M  V30 5546 C 545.867 -0.86702 1.5086 0
M  V30 5547 O 547.043 -0.826049 1.8368 0
M  V30 5548 C 544.108 -1.11237 3.2837 0
M  V30 5549 C 543.169 -0.371405 4.2769 0
M  V30 5550 C 542.402 -1.31327 5.1729 0
M  V30 5551 O 542.625 -2.55078 5.10188 0
M  V30 5552 O 541.559 -0.813811 5.96373 0
M  V30 5553 H 545.385 0.604483 2.97623 0
M  V30 5554 H 542.97 0.361477 1.44961 0
M  V30 5555 H 544.852 -1.68214 3.8637 0
M  V30 5556 H 543.527 -1.82139 2.67595 0
M  V30 5557 H 542.434 0.24067 3.73325 0
M  V30 5558 H 543.767 0.296998 4.91303 0
M  V30 5559 N 545.419 -1.53889 0.339982 0
M  V30 5560 C 546.349 -2.27843 -0.510856 0
M  V30 5561 C 547.33 -1.29267 -1.10563 0
M  V30 5562 O 548.515 -1.58104 -1.12768 0
M  V30 5563 C 545.645 -3.04857 -1.66372 0
M  V30 5564 C 544.599 -4.10907 -1.19746 0
M  V30 5565 C 543.925 -4.75855 -2.43857 0
M  V30 5566 C 545.225 -5.21435 -0.300501 0
M  V30 5567 H 546.919 -2.99212 0.106067 0
M  V30 5568 H 544.465 -1.43904 0.0524533 0
M  V30 5569 H 546.418 -3.5533 -2.26537 0
M  V30 5570 H 545.142 -2.31133 -2.30749 0
M  V30 5571 H 543.801 -3.61342 -0.618654 0
M  V30 5572 H 543.449 -3.9873 -3.06633 0
M  V30 5573 H 543.149 -5.47502 -2.13343 0
M  V30 5574 H 544.673 -5.2911 -3.04754 0
M  V30 5575 H 546.087 -5.67565 -0.80889 0
M  V30 5576 H 544.484 -6.00036 -0.0874076 0
M  V30 5577 H 545.554 -4.80328 0.664321 0
M  V30 5578 N 546.897 -0.0685191 -1.57451 0
M  V30 5579 C 548.146 0.600898 -1.92541 0
M  V30 5580 C 548.459 1.70967 -0.950239 0
M  V30 5581 O 549.665 2.43844 -1.19384 0
M  V30 5582 C 548.121 1.12019 -3.42023 0
M  V30 5583 C 547.729 0.0426028 -4.4798 0
M  V30 5584 C 549.473 1.76386 -3.86119 0
M  V30 5585 C 547.38 0.575759 -5.88591 0
M  V30 5586 H 546.31 0.228225 -0.71863 0
M  V30 5587 H 548.961 -0.140223 -1.82963 0
M  V30 5588 H 547.343 1.91418 -3.46663 0
M  V30 5589 H 548.517 -0.73182 -4.54952 0
M  V30 5590 H 546.832 -0.504642 -4.13331 0
M  V30 5591 H 549.429 2.17302 -4.88553 0
M  V30 5592 H 549.772 2.62255 -3.23308 0
M  V30 5593 H 550.305 1.03615 -3.84069 0
M  V30 5594 H 547.044 -0.245691 -6.55039 0
M  V30 5595 H 546.564 1.31778 -5.85145 0
M  V30 5596 H 548.243 1.0532 -6.3837 0
M  V30 5597 N 548.375 1.56261 0.205012 0
M  V30 5598 C 549.791 1.49623 0.555433 0
M  V30 5599 C 549.991 0.766719 1.86343 0
M  V30 5600 O 549.047 0.313158 2.50551 0
M  V30 5601 C 550.36 2.94253 0.619347 0
M  V30 5602 C 551.908 3.04868 0.708855 0
M  V30 5603 C 552.383 4.50888 0.803969 0
M  V30 5604 N 553.874 4.54999 0.867758 0
M  V30 5605 C 554.609 5.65284 0.96135 0
M  V30 5606 N 554.105 6.85282 1.01786 0
M  V30 5607 N 555.898 5.53174 0.997771 0
M  V30 5608 H 548.049 2.0211 -0.653094 0
M  V30 5609 H 550.312 0.919333 -0.231366 0
M  V30 5610 H 550.018 3.50643 -0.272458 0
M  V30 5611 H 549.892 3.47063 1.47741 0
M  V30 5612 H 552.279 2.48532 1.5911 0
M  V30 5613 H 552.36 2.55199 -0.175205 0
M  V30 5614 H 552.004 5.07846 -0.0738798 0
M  V30 5615 H 551.934 4.98279 1.70369 0
M  V30 5616 H 554.425 3.68588 0.833735 0
M  V30 5617 H 554.738 7.65081 1.08951 0
M  V30 5618 H 553.083 6.8796 0.986706 0
M  V30 5619 H 556.274 4.5835 0.950392 0
M  V30 5620 H 556.447 6.39151 1.06725 0
M  V30 5621 N 549.853 -0.472356 1.50355 0
M  V30 5622 C 551.1 -1.22453 1.61281 0
M  V30 5623 C 551.428 -1.91972 0.31256 0
M  V30 5624 O 550.683 -1.82696 -0.701475 0
M  V30 5625 C 550.982 -2.29257 2.74182 0
M  V30 5626 C 550.648 -1.76999 4.14708 0
M  V30 5627 C 549.31 -1.62467 4.52944 0
M  V30 5628 C 551.662 -1.38215 5.0254 0
M  V30 5629 C 548.99 -1.07574 5.76754 0
M  V30 5630 C 551.342 -0.847638 6.26895 0
M  V30 5631 C 550.006 -0.688946 6.63935 0
M  V30 5632 H 549.276 -0.448087 0.590168 0
M  V30 5633 H 551.923 -0.520744 1.84284 0
M  V30 5634 H 550.228 -3.05538 2.45263 0
M  V30 5635 H 551.925 -2.87212 2.7984 0
M  V30 5636 H 548.515 -1.89276 3.84542 0
M  V30 5637 H 552.699 -1.48276 4.73633 0
M  V30 5638 H 547.955 -0.940237 6.04127 0
M  V30 5639 H 552.129 -0.538455 6.94315 0
M  V30 5640 H 549.756 -0.261435 7.5975 0
M  V30 5641 N 551.331 -1.39911 -0.725443 0
M  V30 5642 C 552.608 -1.28158 -1.47766 0
M  V30 5643 C 552.988 0.104545 -2.10841 0
M  V30 5644 O 552.336 1.11657 -1.99361 0
M  V30 5645 C 552.546 -2.41306 -2.52135 0
M  V30 5646 C 553.894 -2.81076 -3.18247 0
M  V30 5647 O 554.918 -2.40827 -2.62452 0
M  V30 5648 O 553.777 -3.50581 -4.19231 0
M  V30 5649 H 550.871 -0.502761 -0.656628 0
M  V30 5650 H 553.417 -1.51808 -0.758456 0
M  V30 5651 H 552.189 -3.33932 -2.03974 0
M  V30 5652 H 551.812 -2.19374 -3.31603 0
M  V30 5653 N 552.809 0.956637 -1.25245 0
M  V30 5654 C 553.719 2.0868 -1.0719 0
M  V30 5655 C 554.735 1.73997 -0.00959074 0
M  V30 5656 O 555.911 2.00301 -0.210104 0
M  V30 5657 C 552.976 3.39754 -0.690526 0
M  V30 5658 C 552.037 3.88316 -1.83055 0
M  V30 5659 C 551.27 5.13134 -1.46728 0
M  V30 5660 O 551.493 5.6925 -0.362029 0
M  V30 5661 O 550.427 5.56356 -2.29677 0
M  V30 5662 H 554.253 2.26813 -2.01965 0
M  V30 5663 H 551.838 1.07098 -1.04165 0
M  V30 5664 H 553.72 4.18543 -0.489871 0
M  V30 5665 H 552.395 3.22896 0.227981 0
M  V30 5666 H 551.302 3.1054 -2.08604 0
M  V30 5667 H 552.635 4.09669 -2.72822 0
M  V30 5668 N 554.287 1.06798 1.15896 0
M  V30 5669 C 555.197 0.694564 2.24083 0
M  V30 5670 C 556.213 -0.291687 1.71538 0
M  V30 5671 O 557.389 -0.139723 2.00915 0
M  V30 5672 C 554.454 0.0921014 3.46578 0
M  V30 5673 C 553.515 1.13087 4.14137 0
M  V30 5674 C 552.748 0.557064 5.30785 0
M  V30 5675 O 552.971 -0.628623 5.66925 0
M  V30 5676 O 551.905 1.29924 5.8771 0
M  V30 5677 H 555.731 1.59663 2.58344 0
M  V30 5678 H 553.316 0.840575 1.2351 0
M  V30 5679 H 555.198 -0.241884 4.20705 0
M  V30 5680 H 553.873 -0.78337 3.14078 0
M  V30 5681 H 552.78 1.51712 3.41957 0
M  V30 5682 H 554.113 1.97805 4.50704 0
M  V30 5683 N 555.766 -1.3263 0.851289 0
M  V30 5684 C 556.994 -2.01563 0.466899 0
M  V30 5685 C 557.409 -1.63996 -0.935447 0
M  V30 5686 O 556.766 -0.85957 -1.6099 0
M  V30 5687 C 556.817 -3.56613 0.592433 0
M  V30 5688 O 556.538 -3.92828 1.93954 0
M  V30 5689 C 558.039 -4.42818 0.206612 0
M  V30 5690 H 555.259 -0.645307 0.183902 0
M  V30 5691 H 557.803 -1.69285 1.1473 0
M  V30 5692 H 555.958 -3.87379 -0.0401936 0
M  V30 5693 H 556.372 -4.87545 1.9339 0
M  V30 5694 H 557.846 -5.50918 0.345462 0
M  V30 5695 H 558.323 -4.30844 -0.85264 0
M  V30 5696 H 558.929 -4.17434 0.814176 0
M  V30 5697 N 557.244 -0.608902 -1.45362 0
M  V30 5698 C 558.176 0.147318 -2.28726 0
M  V30 5699 C 559.189 0.830468 -1.40025 0
M  V30 5700 O 560.378 0.695636 -1.64387 0
M  V30 5701 C 557.478 1.22968 -3.15804 0
M  V30 5702 C 556.651 0.633391 -4.3279 0
M  V30 5703 C 555.71 1.60682 -5.01067 0
M  V30 5704 O 554.736 1.13261 -5.57818 0
M  V30 5705 N 555.938 2.94123 -5.00472 0
M  V30 5706 H 558.703 -0.568014 -2.94268 0
M  V30 5707 H 556.264 -0.448479 -1.55564 0
M  V30 5708 H 558.256 1.88072 -3.58345 0
M  V30 5709 H 556.826 1.84752 -2.52162 0
M  V30 5710 H 556.046 -0.195762 -3.93714 0
M  V30 5711 H 557.334 0.215255 -5.08344 0
M  V30 5712 H 556.732 3.3525 -4.55657 0
M  V30 5713 H 555.289 3.54646 -5.46872 0
M  V30 5714 N 558.722 1.53707 -0.348139 0
M  V30 5715 C 560.138 1.596 0.00361134 0
M  V30 5716 C 560.338 1.36394 1.4832 0
M  V30 5717 O 559.394 1.16046 2.24253 0
M  V30 5718 C 560.707 2.97512 -0.436682 0
M  V30 5719 C 562.255 3.10568 -0.389416 0
M  V30 5720 C 562.73 4.50866 -0.805249 0
M  V30 5721 N 564.221 4.56929 -0.759616 0
M  V30 5722 C 564.956 5.63643 -1.05327 0
M  V30 5723 N 564.452 6.78189 -1.41531 0
M  V30 5724 N 566.245 5.5354 -0.977207 0
M  V30 5725 H 558.396 1.67044 -1.31187 0
M  V30 5726 H 560.659 0.782559 -0.535075 0
M  V30 5727 H 560.365 3.19575 -1.46849 0
M  V30 5728 H 560.239 3.76742 0.185744 0
M  V30 5729 H 562.626 2.88226 0.633228 0
M  V30 5730 H 562.707 2.33387 -1.04711 0
M  V30 5731 H 562.351 4.73943 -1.82593 0
M  V30 5732 H 562.281 5.26452 -0.124989 0
M  V30 5733 H 564.772 3.74675 -0.49265 0
M  V30 5734 H 565.085 7.55541 -1.62411 0
M  V30 5735 H 563.43 6.79624 -1.45381 0
M  V30 5736 H 566.621 4.62932 -0.693675 0
M  V30 5737 H 566.794 6.36614 -1.2094 0
M  V30 5738 N 560.2 0.0768682 1.57412 0
M  V30 5739 C 561.428 -0.59997 1.9801 0
M  V30 5740 C 561.843 -1.62842 0.955408 0
M  V30 5741 O 561.2 -1.8241 -0.057314 0
M  V30 5742 C 561.251 -1.26401 3.38681 0
M  V30 5743 O 560.972 -0.276723 4.37225 0
M  V30 5744 C 562.473 -2.0282 3.94182 0
M  V30 5745 H 559.693 -0.162239 0.651091 0
M  V30 5746 H 562.237 0.150771 2.03943 0
M  V30 5747 H 560.392 -1.96581 3.33819 0
M  V30 5748 H 560.806 -0.753744 5.19056 0
M  V30 5749 H 562.28 -2.44667 4.94815 0
M  V30 5750 H 562.757 -2.88678 3.31001 0
M  V30 5751 H 563.363 -1.37496 4.02461 0
M  V30 5752 N 561.678 -1.56367 -0.196722 0
M  V30 5753 C 562.925 -1.80529 -0.917366 0
M  V30 5754 C 563.253 -0.649817 -1.83324 0
M  V30 5755 O 562.508 0.36451 -1.92275 0
M  V30 5756 C 562.807 -3.10663 -1.767 0
M  V30 5757 C 562.473 -4.3962 -1.00225 0
M  V30 5758 C 561.135 -4.74653 -0.791095 0
M  V30 5759 C 563.487 -5.1913 -0.464035 0
M  V30 5760 C 560.815 -5.86692 -0.0302155 0
M  V30 5761 C 563.167 -6.31964 0.283625 0
M  V30 5762 C 561.831 -6.65581 0.505813 0
M  V30 5763 H 561.101 -0.660602 -0.335688 0
M  V30 5764 H 563.748 -1.90615 -0.183844 0
M  V30 5765 H 562.053 -2.95807 -2.56915 0
M  V30 5766 H 563.75 -3.26563 -2.32718 0
M  V30 5767 H 560.34 -4.12127 -1.17684 0
M  V30 5768 H 564.524 -4.9248 -0.614575 0
M  V30 5769 H 559.78 -6.11211 0.151917 0
M  V30 5770 H 563.954 -6.92791 0.708057 0
M  V30 5771 H 561.581 -7.52239 1.0973 0
M  V30 5772 N 563.156 0.464375 -1.50603 0
M  V30 5773 C 564.086 1.56944 -1.72889 0
M  V30 5774 C 565.067 1.59979 -0.577997 0
M  V30 5775 O 566.252 1.76138 -0.817855 0
M  V30 5776 C 563.382 2.95225 -1.8292 0
M  V30 5777 C 562.336 3.07056 -2.98162 0
M  V30 5778 C 561.662 4.47051 -2.93343 0
M  V30 5779 C 562.962 2.83648 -4.38567 0
M  V30 5780 H 564.656 1.38547 -2.65415 0
M  V30 5781 H 562.202 0.665082 -1.27721 0
M  V30 5782 H 564.155 3.72467 -1.97095 0
M  V30 5783 H 562.879 3.14793 -0.870209 0
M  V30 5784 H 561.538 2.32248 -2.83648 0
M  V30 5785 H 561.186 4.63547 -1.95276 0
M  V30 5786 H 560.886 4.55902 -3.70712 0
M  V30 5787 H 562.41 5.26304 -3.09575 0
M  V30 5788 H 563.824 3.50636 -4.53572 0
M  V30 5789 H 562.221 3.03937 -5.17438 0
M  V30 5790 H 563.291 1.79451 -4.50472 0
M  V30 5791 N 564.634 1.40294 0.718013 0
M  V30 5792 C 565.581 1.40367 1.8321 0
M  V30 5793 C 566.551 0.260952 1.64037 0
M  V30 5794 O 567.736 0.458648 1.85205 0
M  V30 5795 C 564.876 1.26965 3.20895 0
M  V30 5796 C 563.989 2.50922 3.51656 0
M  V30 5797 C 563.124 2.29981 4.78834 0
M  V30 5798 C 562.163 3.49527 5.02491 0
M  V30 5799 N 561.3 3.27796 6.20882 0
M  V30 5800 H 566.14 2.35593 1.82482 0
M  V30 5801 H 563.677 1.17012 0.891444 0
M  V30 5802 H 565.635 1.17202 4.00399 0
M  V30 5803 H 564.265 0.353591 3.20858 0
M  V30 5804 H 563.317 2.71223 2.66725 0
M  V30 5805 H 564.629 3.39913 3.65048 0
M  V30 5806 H 563.783 2.17558 5.66351 0
M  V30 5807 H 562.522 1.38411 4.67647 0
M  V30 5808 H 561.527 3.6243 4.1343 0
M  V30 5809 H 562.752 4.42021 5.15553 0
M  V30 5810 H 560.698 2.38906 6.1095 0
M  V30 5811 H 560.615 4.10351 6.34939 0
M  V30 5812 H 561.883 3.19101 7.11193 0
M  V30 5813 N 566.112 -0.949982 1.2575 0
M  V30 5814 C 567.022 -2.08109 1.08295 0
M  V30 5815 C 568.038 -1.7399 0.0188181 0
M  V30 5816 O 569.214 -2.00187 0.220724 0
M  V30 5817 C 566.279 -3.39383 0.708534 0
M  V30 5818 C 565.34 -3.8734 1.85111 0
M  V30 5819 C 564.573 -5.12349 1.49447 0
M  V30 5820 O 564.796 -5.6905 0.392212 0
M  V30 5821 O 563.73 -5.5513 2.32624 0
M  V30 5822 H 567.556 -2.25738 2.03165 0
M  V30 5823 H 565.141 -1.06545 1.04731 0
M  V30 5824 H 567.023 -4.18277 0.512061 0
M  V30 5825 H 565.698 -3.23013 -0.210854 0
M  V30 5826 H 564.605 -3.09429 2.10248 0
M  V30 5827 H 565.938 -4.08216 2.74991 0
M  V30 5828 N 567.59 -1.07411 -1.15328 0
M  V30 5829 C 568.836 -0.798831 -1.86404 0
M  V30 5830 C 569.169 0.673433 -1.8215 0
M  V30 5831 O 568.444 1.49428 -1.24505 0
M  V30 5832 C 568.727 -1.30846 -3.35487 0
M  V30 5833 C 568.58 -2.84532 -3.4837 0
M  V30 5834 C 569.899 -0.925486 -4.30259 0
M  V30 5835 H 567.018 -0.291659 -0.676834 0
M  V30 5836 H 569.66 -1.332 -1.35491 0
M  V30 5837 H 567.81 -0.854916 -3.78977 0
M  V30 5838 H 569.482 -3.3818 -3.13739 0
M  V30 5839 H 567.725 -3.22699 -2.8991 0
M  V30 5840 H 568.396 -3.15259 -4.53118 0
M  V30 5841 H 570.872 -1.3163 -3.94731 0
M  V30 5842 H 569.748 -1.3094 -5.33053 0
M  V30 5843 H 570.009 0.168525 -4.41779 0
M  V30 5844 N 569.068 1.32177 -0.85831 0
M  V30 5845 C 570.015 2.28794 -0.303607 0
M  V30 5846 C 570.985 1.55213 0.591453 0
M  V30 5847 O 572.17 1.83418 0.525585 0
M  V30 5848 C 569.31 3.41475 0.49889 0
M  V30 5849 C 568.423 4.2993 -0.422373 0
M  V30 5850 C 567.558 5.29743 0.393111 0
M  V30 5851 C 566.597 6.09842 -0.525317 0
M  V30 5852 N 565.734 7.01643 0.253208 0
M  V30 5853 H 570.574 2.75631 -1.13276 0
M  V30 5854 H 568.111 1.35606 -0.570026 0
M  V30 5855 H 570.069 4.05531 0.979826 0
M  V30 5856 H 568.699 2.95779 1.29284 0
M  V30 5857 H 567.751 3.66422 -1.02171 0
M  V30 5858 H 569.063 4.85899 -1.12709 0
M  V30 5859 H 568.217 5.9942 0.937056 0
M  V30 5860 H 566.956 4.744 1.13117 0
M  V30 5861 H 565.961 5.39066 -1.08112 0
M  V30 5862 H 567.186 6.6727 -1.26205 0
M  V30 5863 H 565.132 6.48725 0.974295 0
M  V30 5864 H 565.049 7.54981 -0.392398 0
M  V30 5865 H 566.317 7.756 0.778761 0
M  V30 5866 N 570.547 0.616602 1.45037 0
M  V30 5867 C 571.793 0.115501 2.02471 0
M  V30 5868 C 572.126 -1.25406 1.4828 0
M  V30 5869 O 571.401 -1.82922 0.661051 0
M  V30 5870 C 571.684 0.0863588 3.59996 0
M  V30 5871 C 571.537 1.48723 4.24501 0
M  V30 5872 C 572.856 -0.596762 4.36035 0
M  V30 5873 H 569.975 0.0434461 0.735718 0
M  V30 5874 H 572.617 0.7903 1.72784 0
M  V30 5875 H 570.767 -0.488277 3.85419 0
M  V30 5876 H 572.439 2.10964 4.10234 0
M  V30 5877 H 570.682 2.04534 3.82555 0
M  V30 5878 H 571.353 1.419 5.3345 0
M  V30 5879 H 573.829 -0.10824 4.15959 0
M  V30 5880 H 572.705 -0.586289 5.4576 0
M  V30 5881 H 572.966 -1.66451 4.09569 0
M  V30 5882 N 572.025 -1.5352 0.356285 0
M  V30 5883 C 572.958 -2.2177 -0.537913 0
M  V30 5884 C 573.936 -1.20626 -1.09033 0
M  V30 5885 O 575.12 -1.49494 -1.1482 0
M  V30 5886 C 572.247 -2.90513 -1.74126 0
M  V30 5887 C 571.293 -4.05652 -1.31715 0
M  V30 5888 S 572.126 -5.34505 -0.326236 0
M  V30 5889 C 573.282 -6.06757 -1.53612 0
M  V30 5890 H 573.515 -2.97271 0.0417411 0
M  V30 5891 H 571.048 -1.53761 0.140372 0
M  V30 5892 H 573.006 -3.30735 -2.43155 0
M  V30 5893 H 571.667 -2.14754 -2.29215 0
M  V30 5894 H 570.86 -4.52733 -2.21471 0
M  V30 5895 H 570.462 -3.67272 -0.706183 0
M  V30 5896 H 572.754 -6.30924 -2.46863 0
M  V30 5897 H 573.697 -6.99395 -1.10687 0
M  V30 5898 H 574.105 -5.3708 -1.73796 0
M  V30 5899 N 573.503 -0.0852151 -1.57369 0
M  V30 5900 C 574.919 0.271436 -1.57275 0
M  V30 5901 C 575.119 1.69109 -1.09565 0
M  V30 5902 O 574.175 2.40549 -0.767611 0
M  V30 5903 C 575.488 0.0688638 -3.00621 0
M  V30 5904 C 577.036 0.137373 -3.12698 0
M  V30 5905 C 577.511 -0.0370832 -4.57985 0
M  V30 5906 N 579.002 0.0180794 -4.63196 0
M  V30 5907 C 579.737 -0.0922953 -5.73326 0
M  V30 5908 N 579.233 -0.256948 -6.92323 0
M  V30 5909 N 581.026 -0.0342702 -5.6209 0
M  V30 5910 H 573.177 -1.01288 -1.86693 0
M  V30 5911 H 575.44 -0.396138 -0.861266 0
M  V30 5912 H 575.146 -0.911277 -3.39689 0
M  V30 5913 H 575.02 0.815442 -3.6828 0
M  V30 5914 H 577.407 1.10801 -2.73509 0
M  V30 5915 H 577.488 -0.640532 -2.47651 0
M  V30 5916 H 577.132 -1.00455 -4.97867 0
M  V30 5917 H 577.062 0.760392 -5.21081 0
M  V30 5918 H 579.553 0.143202 -3.77629 0
M  V30 5919 H 579.866 -0.332949 -7.72082 0
M  V30 5920 H 578.211 -0.292487 -6.94384 0
M  V30 5921 H 581.402 0.0931605 -4.68007 0
M  V30 5922 H 581.575 -0.12374 -6.47882 0
M  V30 5923 N 574.981 1.5647 0.188427 0
M  V30 5924 C 576.221 1.82803 0.914469 0
M  V30 5925 C 576.585 0.663681 1.80165 0
M  V30 5926 O 577.786 0.807059 2.56398 0
M  V30 5927 C 576.057 3.14187 1.70357 0
M  V30 5928 S 577.616 3.61947 2.48072 0
M  V30 5929 H 574.434 0.641497 0.306599 0
M  V30 5930 H 577.036 1.94694 0.177361 0
M  V30 5931 H 575.74 3.96937 1.04255 0
M  V30 5932 H 575.271 3.05192 2.48237 0
M  V30 5933 H 577.286 3.27913 3.72407 0
M  V30 5934 N 576.459 -0.456382 1.50847 0
M  V30 5935 C 577.389 -1.56025 1.73719 0
M  V30 5936 C 578.37 -1.5967 0.586473 0
M  V30 5937 O 579.555 -1.75702 0.827185 0
M  V30 5938 C 576.685 -2.94251 1.84483 0
M  V30 5939 C 575.639 -3.05471 2.99786 0
M  V30 5940 C 574.965 -4.45489 2.95709 0
M  V30 5941 C 576.265 -2.81318 4.40065 0
M  V30 5942 H 577.959 -1.37138 2.66146 0
M  V30 5943 H 575.505 -0.658299 1.28072 0
M  V30 5944 H 577.458 -3.71417 1.99067 0
M  V30 5945 H 576.182 -3.14328 0.886891 0
M  V30 5946 H 574.841 -2.30741 2.84876 0
M  V30 5947 H 574.489 -4.62505 1.97732 0
M  V30 5948 H 574.189 -4.53929 3.73125 0
M  V30 5949 H 575.713 -5.24655 3.12362 0
M  V30 5950 H 577.127 -3.48226 4.55425 0
M  V30 5951 H 575.524 -3.01188 5.19043 0
M  V30 5952 H 576.594 -1.7706 4.51418 0
M  V30 5953 N 577.937 -1.40673 -0.710563 0
M  V30 5954 C 578.847 -1.43663 -1.85467 0
M  V30 5955 C 579.863 -0.328721 -1.70867 0
M  V30 5956 O 581.039 -0.574098 -1.93044 0
M  V30 5957 C 578.104 -1.30226 -3.21313 0
M  V30 5958 C 577.165 -2.51204 -3.48131 0
M  V30 5959 C 576.398 -2.38398 -4.77495 0
M  V30 5960 O 576.621 -1.40048 -5.5294 0
M  V30 5961 O 575.555 -3.2787 -5.04762 0
M  V30 5962 H 579.381 -2.40156 -1.859 0
M  V30 5963 H 576.966 -1.22049 -0.861652 0
M  V30 5964 H 578.848 -1.2496 -4.02446 0
M  V30 5965 H 577.523 -0.368419 -3.21597 0
M  V30 5966 H 576.43 -2.62048 -2.66987 0
M  V30 5967 H 577.763 -3.43366 -3.52648 0
M  V30 5968 N 579.415 0.9433 -1.26252 0
M  V30 5969 C 580.365 2.02746 -1.04297 0
M  V30 5970 C 581.349 1.60882 0.0239435 0
M  V30 5971 O 582.541 1.75947 -0.192757 0
M  V30 5972 C 579.67 3.36585 -0.6757 0
M  V30 5973 C 578.756 3.84939 -1.77996 0
M  V30 5974 N 579.147 4.05966 -3.01704 0
M  V30 5975 C 577.445 4.13833 -1.66308 0
M  V30 5976 C 578.146 4.45987 -3.73458 0
M  V30 5977 N 577.122 4.52569 -3.01135 0
M  V30 5978 H 580.924 2.17012 -1.98199 0
M  V30 5979 H 578.438 1.12898 -1.16738 0
M  V30 5980 H 580.435 4.13896 -0.499571 0
M  V30 5981 H 579.095 3.2369 0.255863 0
M  V30 5982 H 580.106 3.92716 -3.37631 0
M  V30 5983 H 576.783 4.09739 -0.801267 0
M  V30 5984 H 578.173 4.70465 -4.79701 0
M  V30 5985 N 580.893 1.08022 1.14757 0
M  V30 5986 C 582.304 0.829144 1.67279 0
M  V30 5987 C 582.655 -0.644721 1.85305 0
M  V30 5988 O 581.78 -1.49838 1.56133 0
M  V30 5989 C 582.375 1.49855 3.03857 0
M  V30 5990 C 580.934 1.29482 3.53428 0
M  V30 5991 C 580.081 1.56386 2.28995 0
M  V30 5992 H 583.032 1.24134 0.988762 0
M  V30 5993 H 583.053 0.923572 3.69121 0
M  V30 5994 H 582.565 2.57123 2.90705 0
M  V30 5995 H 580.666 0.242669 3.71809 0
M  V30 5996 H 580.779 2.01974 4.34446 0
M  V30 5997 H 579.143 0.985217 2.34874 0
M  V30 5998 H 579.926 2.64851 2.18423 0
M  V30 5999 N 582.371 -1.3172 0.865308 0
M  V30 6000 C 583.319 -2.30569 0.306674 0
M  V30 6001 C 584.313 -1.59317 -0.575724 0
M  V30 6002 O 585.519 -1.73961 -0.462343 0
M  V30 6003 H 581.894 -0.747681 0.0804834 0
M  V30 6004 H 583.865 -2.75165 1.15441 0
M  V30 6005 C 582.614 -3.44358 -0.480952 0
M  V30 6006 H 581.937 -3.99354 0.18876 0
M  V30 6007 H 583.377 -4.15652 -0.837241 0
M  V30 6008 C 581.836 -2.92574 -1.67039 0
M  V30 6009 O 582.366 -2.90954 -2.76964 0
M  V30 6010 N 580.572 -2.48835 -1.50097 0
M  V30 6011 H 580.119 -2.50353 -0.606738 0
M  V30 6012 H 580.077 -2.14543 -2.29823 0
M  V30 6013 N 583.85 -0.624285 -1.44708 0
M  V30 6014 C 585.096 -0.126237 -2.02407 0
M  V30 6015 C 585.428 1.24618 -1.48943 0
M  V30 6016 O 584.704 1.82569 -0.670742 0
M  V30 6017 C 584.986 -0.105449 -3.59946 0
M  V30 6018 C 584.84 -1.50972 -4.23707 0
M  V30 6019 C 586.159 0.573629 -4.36346 0
M  V30 6020 H 583.278 -0.0473472 -0.735478 0
M  V30 6021 H 585.92 -0.799452 -1.72362 0
M  V30 6022 H 584.07 0.46783 -3.85673 0
M  V30 6023 H 585.742 -2.13136 -4.0911 0
M  V30 6024 H 583.985 -2.0656 -3.81465 0
M  V30 6025 H 584.656 -1.44727 -5.32689 0
M  V30 6026 H 587.132 0.0861787 -4.16011 0
M  V30 6027 H 586.008 0.557338 -5.46063 0
M  V30 6028 H 586.269 1.64276 -4.10446 0
M  V30 6029 N 585.328 1.53329 -0.364422 0
M  V30 6030 C 586.258 2.28627 0.474543 0
M  V30 6031 C 587.239 1.31009 1.08492 0
M  V30 6032 O 588.424 1.59878 1.10239 0
M  V30 6033 C 585.554 3.07465 1.61501 0
M  V30 6034 C 584.508 4.1276 1.13194 0
M  V30 6035 C 583.834 4.79674 2.36255 0
M  V30 6036 C 585.134 5.21847 0.217507 0
M  V30 6037 H 586.828 2.99005 -0.153656 0
M  V30 6038 H 584.374 1.43803 -0.0753406 0
M  V30 6039 H 586.327 3.58889 2.20855 0
M  V30 6040 H 585.051 2.34775 2.27042 0
M  V30 6041 H 583.71 3.62281 0.56109 0
M  V30 6042 H 583.358 4.03557 3.00251 0
M  V30 6043 H 583.058 5.50827 2.04606 0
M  V30 6044 H 584.582 5.33892 2.96297 0
M  V30 6045 H 585.996 5.6878 0.718493 0
M  V30 6046 H 584.393 6.00099 -0.00806408 0
M  V30 6047 H 585.463 4.7921 -0.740653 0
M  V30 6048 N 586.806 0.0935595 1.57322 0
M  V30 6049 C 587.753 -0.865935 2.1394 0
M  V30 6050 C 588.723 -1.28083 1.05754 0
M  V30 6051 O 589.908 -1.36285 1.33533 0
M  V30 6052 C 587.048 -2.12023 2.72287 0
M  V30 6053 C 586.161 -1.756 3.94701 0
M  V30 6054 C 585.296 -2.95804 4.41218 0
M  V30 6055 C 584.335 -2.555 5.56225 0
M  V30 6056 N 583.472 -3.68534 5.97601 0
M  V30 6057 H 588.312 -0.376261 2.95615 0
M  V30 6058 H 585.849 -0.174052 1.46067 0
M  V30 6059 H 587.807 -2.85477 3.04235 0
M  V30 6060 H 586.437 -2.58492 1.93343 0
M  V30 6061 H 585.489 -0.921208 3.69077 0
M  V30 6062 H 586.801 -1.41964 4.78171 0
M  V30 6063 H 585.955 -3.77513 4.74941 0
M  V30 6064 H 584.694 -3.32649 3.56645 0
M  V30 6065 H 583.699 -1.72218 5.22131 0
M  V30 6066 H 584.924 -2.19801 6.42545 0
M  V30 6067 H 582.87 -4.051 5.15974 0
M  V30 6068 H 582.787 -3.38737 6.75865 0
M  V30 6069 H 584.055 -4.50757 6.35955 0
M  V30 6070 N 588.284 -1.56567 -0.180126 0
M  V30 6071 C 589.531 -1.81492 -0.898167 0
M  V30 6072 C 589.859 -0.669225 -1.82624 0
M  V30 6073 O 589.114 0.344096 -1.92651 0
M  V30 6074 C 589.413 -3.1252 -1.73395 0
M  V30 6075 C 589.079 -4.40658 -0.955567 0
M  V30 6076 C 587.741 -4.75465 -0.740707 0
M  V30 6077 C 590.093 -5.19593 -0.408948 0
M  V30 6078 C 587.421 -5.86691 0.0320128 0
M  V30 6079 C 589.773 -6.31627 0.350638 0
M  V30 6080 C 588.437 -6.65007 0.576378 0
M  V30 6081 H 587.707 -0.664125 -0.328662 0
M  V30 6082 H 590.354 -1.908 -0.163616 0
M  V30 6083 H 588.659 -2.98515 -2.53763 0
M  V30 6084 H 590.356 -3.29013 -2.29241 0
M  V30 6085 H 586.946 -4.13352 -1.13306 0
M  V30 6086 H 591.13 -4.93104 -0.562307 0
M  V30 6087 H 586.386 -6.11016 0.216735 0
M  V30 6088 H 590.56 -6.92001 0.781497 0
M  V30 6089 H 588.187 -7.51033 1.17703 0
M  V30 6090 N 589.762 0.448376 -1.51087 0
M  V30 6091 C 591.011 1.19561 -1.62444 0
M  V30 6092 C 591.324 1.92602 -0.341151 0
M  V30 6093 O 592.53 2.69439 -0.333936 0
M  V30 6094 C 590.986 2.17373 -2.8684 0
M  V30 6095 C 590.594 1.5003 -4.22131 0
M  V30 6096 C 592.338 2.92597 -3.0755 0
M  V30 6097 C 590.245 2.46262 -5.37689 0
M  V30 6098 H 589.175 0.449975 -0.605011 0
M  V30 6099 H 591.826 0.463735 -1.77544 0
M  V30 6100 H 590.208 2.93948 -2.65349 0
M  V30 6101 H 591.382 0.790886 -4.53962 0
M  V30 6102 H 589.697 0.870011 -4.0721 0
M  V30 6103 H 592.294 3.64663 -3.91056 0
M  V30 6104 H 592.637 3.53306 -2.20183 0
M  V30 6105 H 593.17 2.23131 -3.29329 0
M  V30 6106 H 589.909 1.90258 -6.27281 0
M  V30 6107 H 589.429 3.15289 -5.10248 0
M  V30 6108 H 591.108 3.07623 -5.6919 0
M  V30 6109 N 591.24 1.41047 0.703093 0
M  V30 6110 C 592.488 1.39723 1.4602 0
M  V30 6111 C 592.809 0.00461257 1.94999 0
M  V30 6112 O 592.079 -0.952292 1.71196 0
M  V30 6113 H 590.659 0.514281 0.541779 0
M  V30 6114 H 593.321 1.76217 0.832678 0
M  V30 6115 H 592.417 2.07982 2.32701 0
M  V30 6116 N 592.718 -0.936591 1.26751 0
M  V30 6117 C 593.964 -1.6858 1.12733 0
M  V30 6118 C 594.297 -1.91414 -0.327745 0
M  V30 6119 O 593.572 -1.49812 -1.24043 0
M  V30 6120 C 593.855 -3.05779 1.90187 0
M  V30 6121 C 593.708 -2.90242 3.43627 0
M  V30 6122 C 595.027 -4.0597 1.69931 0
M  V30 6123 H 592.146 -0.61182 0.410908 0
M  V30 6124 H 594.788 -1.08747 1.55801 0
M  V30 6125 H 592.938 -3.56853 1.53584 0
M  V30 6126 H 594.61 -2.46354 3.9001 0
M  V30 6127 H 592.853 -2.2577 3.70419 0
M  V30 6128 H 593.524 -3.87572 3.93055 0
M  V30 6129 H 596 -3.63874 2.0183 0
M  V30 6130 H 594.876 -4.99974 2.26534 0
M  V30 6131 H 595.137 -4.37369 0.64502 0
M  V30 6132 N 594.196 -1.08629 -1.14182 0
M  V30 6133 C 595.126 -0.740003 -2.21464 0
M  V30 6134 C 596.107 0.278591 -1.67803 0
M  V30 6135 O 597.292 0.148461 -1.93632 0
M  V30 6136 C 594.422 -0.150952 -3.46972 0
M  V30 6137 C 593.376 -1.09815 -4.13672 0
M  V30 6138 C 592.702 -0.3712 -5.3341 0
M  V30 6139 C 594.002 -2.43722 -4.61949 0
M  V30 6140 H 595.696 -1.63697 -2.50686 0
M  V30 6141 H 593.242 -0.788526 -1.20492 0
M  V30 6142 H 595.195 0.103325 -4.21273 0
M  V30 6143 H 593.919 0.781164 -3.1712 0
M  V30 6144 H 592.578 -1.33756 -3.41328 0
M  V30 6145 H 592.226 0.564792 -4.99819 0
M  V30 6146 H 591.926 -1.00267 -5.78982 0
M  V30 6147 H 593.45 -0.12503 -6.10472 0
M  V30 6148 H 594.864 -2.24034 -5.27714 0
M  V30 6149 H 593.261 -3.02582 -5.18232 0
M  V30 6150 H 594.331 -3.05082 -3.76899 0
M  V30 6151 N 595.674 1.31259 -0.872281 0
M  V30 6152 C 596.904 2.00504 -0.498183 0
M  V30 6153 C 597.312 1.65632 0.914479 0
M  V30 6154 O 596.655 0.882849 1.61095 0
M  V30 6155 C 596.717 3.5482 -0.578194 0
M  V30 6156 C 596.381 4.13172 -1.95289 0
M  V30 6157 C 597.378 4.30107 -2.92069 0
M  V30 6158 C 595.063 4.48846 -2.25483 0
M  V30 6159 C 597.057 4.81908 -4.17185 0
M  V30 6160 C 594.744 5.00349 -3.50847 0
M  V30 6161 C 595.742 5.16831 -4.46514 0
M  V30 6162 O 595.43 5.67228 -5.69656 0
M  V30 6163 H 595.162 0.648055 -0.192354 0
M  V30 6164 H 597.716 1.6841 -1.17589 0
M  V30 6165 H 595.946 3.86383 0.156438 0
M  V30 6166 H 597.635 4.05318 -0.217192 0
M  V30 6167 H 598.401 4.02862 -2.7005 0
M  V30 6168 H 594.28 4.35292 -1.51795 0
M  V30 6169 H 597.824 4.94688 -4.91863 0
M  V30 6170 H 593.721 5.27028 -3.72708 0
M  V30 6171 H 594.489 5.85592 -5.7186 0
M  V30 6172 N 597.152 0.631951 1.44375 0
M  V30 6173 C 598.099 -0.0724807 2.30686 0
M  V30 6174 C 599.069 -0.835975 1.43529 0
M  V30 6175 O 600.254 -0.816849 1.7243 0
M  V30 6176 C 597.394 -1.04753 3.28817 0
M  V30 6177 C 596.507 -0.282367 4.31076 0
M  V30 6178 C 595.642 -1.2493 5.163 0
M  V30 6179 C 594.681 -0.473349 6.10267 0
M  V30 6180 N 593.818 -1.39079 6.88187 0
M  V30 6181 H 598.658 0.669477 2.90383 0
M  V30 6182 H 596.195 0.341927 1.43071 0
M  V30 6183 H 598.153 -1.62623 3.842 0
M  V30 6184 H 596.783 -1.75661 2.70819 0
M  V30 6185 H 595.835 0.412268 3.78159 0
M  V30 6186 H 597.147 0.321955 4.9776 0
M  V30 6187 H 596.301 -1.89931 5.76204 0
M  V30 6188 H 595.04 -1.88755 4.49692 0
M  V30 6189 H 594.045 0.190142 5.49471 0
M  V30 6190 H 595.27 0.16019 6.78911 0
M  V30 6191 H 593.216 -2.01623 6.24247 0
M  V30 6192 H 593.133 -0.840513 7.51313 0
M  V30 6193 H 594.401 -2.02961 7.52613 0
M  V30 6194 N 598.631 -1.53133 0.372548 0
M  V30 6195 C 599.908 -1.93704 -0.271693 0
M  V30 6196 C 600.288 -1.30667 -1.65799 0
M  V30 6197 O 599.636 -0.46838 -2.23648 0
M  V30 6198 C 599.846 -3.47576 -0.314903 0
M  V30 6199 C 601.194 -4.20998 -0.551912 0
M  V30 6200 O 602.218 -3.53994 -0.39582 0
M  V30 6201 O 601.077 -5.39748 -0.85639 0
M  V30 6202 H 598.171 -0.810457 -0.164586 0
M  V30 6203 H 600.717 -1.6427 0.425838 0
M  V30 6204 H 599.489 -3.85749 0.656792 0
M  V30 6205 H 599.112 -3.83264 -1.05804 0
M  V30 6206 N 600.109 -0.101901 -1.5727 0
M  V30 6207 C 601.056 0.854577 -2.14396 0
M  V30 6208 C 602.026 1.27521 -1.06432 0
M  V30 6209 O 603.211 1.35575 -1.34253 0
M  V30 6210 C 600.351 2.10576 -2.73408 0
M  V30 6211 C 599.464 1.73504 -3.95626 0
M  V30 6212 C 598.599 2.9346 -4.42781 0
M  V30 6213 C 597.638 2.52547 -5.57572 0
M  V30 6214 N 596.775 3.65359 -5.99547 0
M  V30 6215 H 601.615 0.360578 -2.9581 0
M  V30 6216 H 599.152 0.166303 -1.46157 0
M  V30 6217 H 601.11 2.83859 -3.05745 0
M  V30 6218 H 599.74 2.57463 -1.94711 0
M  V30 6219 H 598.792 0.901622 -3.6956 0
M  V30 6220 H 600.104 1.39426 -4.78917 0
M  V30 6221 H 599.258 3.74988 -4.76937 0
M  V30 6222 H 597.997 3.30753 -3.58404 0
M  V30 6223 H 597.002 1.69446 -5.23037 0
M  V30 6224 H 598.227 2.1639 -6.43702 0
M  V30 6225 H 596.173 4.02358 -5.18116 0
M  V30 6226 H 596.09 3.35148 -6.77652 0
M  V30 6227 H 597.358 4.47378 -6.38336 0
M  V30 6228 N 601.587 1.56661 0.17182 0
M  V30 6229 C 603.003 1.50768 0.52357 0
M  V30 6230 C 603.203 0.806072 1.84675 0
M  V30 6231 O 602.259 0.366233 2.4983 0
M  V30 6232 C 603.572 2.955 0.556793 0
M  V30 6233 C 605.12 3.06303 0.644029 0
M  V30 6234 C 605.595 4.52492 0.708148 0
M  V30 6235 N 607.086 4.56737 0.771051 0
M  V30 6236 C 607.821 5.67196 0.841229 0
M  V30 6237 N 607.317 6.87287 0.872272 0
M  V30 6238 N 609.11 5.55165 0.88021 0
M  V30 6239 H 601.261 2.00679 -0.695817 0
M  V30 6240 H 603.524 0.914219 -0.250814 0
M  V30 6241 H 603.23 3.49986 -0.346774 0
M  V30 6242 H 603.104 3.50119 1.40346 0
M  V30 6243 H 605.491 2.51851 1.53802 0
M  V30 6244 H 605.572 2.5477 -0.229297 0
M  V30 6245 H 605.216 5.07575 -0.181585 0
M  V30 6246 H 605.146 5.01781 1.59761 0
M  V30 6247 H 607.637 3.70274 0.755364 0
M  V30 6248 H 607.95 7.6722 0.92698 0
M  V30 6249 H 606.295 6.89898 0.840557 0
M  V30 6250 H 609.486 4.60263 0.852956 0
M  V30 6251 H 609.659 6.41271 0.931439 0
M  V30 6252 N 603.065 -0.440357 1.51323 0
M  V30 6253 C 603.995 -1.54174 1.75364 0
M  V30 6254 C 604.976 -1.59039 0.603375 0
M  V30 6255 O 606.161 -1.74815 0.845774 0
M  V30 6256 C 603.291 -2.92277 1.87593 0
M  V30 6257 C 602.245 -3.02274 3.03009 0
M  V30 6258 C 601.571 -4.42327 3.00418 0
M  V30 6259 C 602.871 -2.76634 4.43024 0
M  V30 6260 H 604.565 -1.34307 2.67585 0
M  V30 6261 H 602.111 -0.644678 1.28763 0
M  V30 6262 H 604.064 -3.69284 2.02995 0
M  V30 6263 H 602.788 -3.13369 0.920179 0
M  V30 6264 H 601.447 -2.27706 2.87307 0
M  V30 6265 H 601.095 -4.60382 2.02626 0
M  V30 6266 H 600.795 -4.49946 3.77918 0
M  V30 6267 H 602.319 -5.21312 3.17909 0
M  V30 6268 H 603.733 -3.43376 4.59093 0
M  V30 6269 H 602.13 -2.95666 5.22208 0
M  V30 6270 H 603.2 -1.72262 4.5327 0
M  V30 6271 N 604.543 -1.41418 -0.695603 0
M  V30 6272 C 605.491 -1.43467 -1.83084 0
M  V30 6273 C 606.485 -0.312719 -1.66489 0
M  V30 6274 O 607.691 -0.484744 -1.7335 0
M  V30 6275 H 604.066 -0.448891 -0.603325 0
M  V30 6276 H 606.037 -2.39144 -1.78473 0
M  V30 6277 C 604.786 -1.3337 -3.21104 0
M  V30 6278 H 604.109 -2.18989 -3.3449 0
M  V30 6279 H 605.549 -1.38865 -4.00615 0
M  V30 6280 C 604.008 -0.0460484 -3.36869 0
M  V30 6281 O 604.538 0.909258 -3.91274 0
M  V30 6282 N 602.744 0.0300222 -2.90584 0
M  V30 6283 H 602.291 -0.748129 -2.46497 0
M  V30 6284 H 602.249 0.890991 -3.01511 0
M  V30 6285 N 606.021 0.929856 -1.27246 0
M  V30 6286 C 607.268 1.67731 -1.13457 0
M  V30 6287 C 607.596 1.9185 0.319998 0
M  V30 6288 O 606.851 1.50524 1.25064 0
M  V30 6289 C 607.15 3.05116 -1.86115 0
M  V30 6290 C 606.816 3.00715 -3.35978 0
M  V30 6291 C 605.478 2.99222 -3.76855 0
M  V30 6292 C 607.83 2.92168 -4.3161 0
M  V30 6293 C 605.158 2.86962 -5.11732 0
M  V30 6294 C 607.51 2.81449 -5.66542 0
M  V30 6295 C 606.174 2.78305 -6.06715 0
M  V30 6296 H 605.444 0.613772 -0.415168 0
M  V30 6297 H 608.091 1.08456 -1.57827 0
M  V30 6298 H 606.396 3.68083 -1.34246 0
M  V30 6299 H 608.093 3.61822 -1.72876 0
M  V30 6300 H 604.683 3.02664 -3.03468 0
M  V30 6301 H 608.867 2.92421 -4.01003 0
M  V30 6302 H 604.123 2.82913 -5.42006 0
M  V30 6303 H 608.297 2.738 -6.40317 0
M  V30 6304 H 605.924 2.68561 -7.11181 0
M  V30 6305 N 607.499 1.09233 1.13605 0
M  V30 6306 C 608.748 0.82205 1.84188 0
M  V30 6307 C 609.061 -0.654548 1.84323 0
M  V30 6308 O 610.267 -1.04029 2.50779 0
M  V30 6309 C 608.723 1.42066 3.30674 0
M  V30 6310 C 608.331 2.92965 3.38933 0
M  V30 6311 C 610.075 1.22924 4.06313 0
M  V30 6312 C 607.982 3.45922 4.79679 0
M  V30 6313 H 606.912 0.303854 0.690064 0
M  V30 6314 H 609.563 1.31479 1.28006 0
M  V30 6315 H 607.945 0.855613 3.86646 0
M  V30 6316 H 609.119 3.55679 2.92966 0
M  V30 6317 H 607.434 3.11118 2.76757 0
M  V30 6318 H 610.031 1.59945 5.10217 0
M  V30 6319 H 610.374 0.169726 4.15954 0
M  V30 6320 H 610.907 1.76168 3.56665 0
M  V30 6321 H 607.646 4.51484 4.75229 0
M  V30 6322 H 607.166 2.87971 5.26149 0
M  V30 6323 H 608.845 3.43009 5.48592 0
M  V30 6324 N 608.977 -1.30795 0.87923 0
M  V30 6325 C 610.205 -2.00527 0.509548 0
M  V30 6326 C 610.62 -1.65944 -0.90045 0
M  V30 6327 O 609.977 -0.893525 -1.5913 0
M  V30 6328 C 610.028 -3.55276 0.667943 0
M  V30 6329 O 609.749 -3.88625 2.02242 0
M  V30 6330 C 611.25 -4.4228 0.300494 0
M  V30 6331 H 608.47 -0.641261 0.197549 0
M  V30 6332 H 611.014 -1.66813 1.18295 0
M  V30 6333 H 609.169 -3.87377 0.0419843 0
M  V30 6334 H 609.583 -4.83334 2.03688 0
M  V30 6335 H 611.057 -5.50061 0.462242 0
M  V30 6336 H 611.534 -4.32556 -0.76106 0
M  V30 6337 H 612.14 -4.15613 0.902536 0
M  V30 6338 N 610.455 -0.639598 -1.44038 0
M  V30 6339 C 611.365 0.0612377 -2.3452 0
M  V30 6340 C 612.381 0.826717 -1.53106 0
M  V30 6341 O 613.557 0.777059 -1.85806 0
M  V30 6342 C 610.622 1.02492 -3.31204 0
M  V30 6343 C 609.683 0.25788 -4.28525 0
M  V30 6344 C 608.916 1.17566 -5.2059 0
M  V30 6345 O 609.139 2.41461 -5.16771 0
M  V30 6346 O 608.073 0.655407 -5.98321 0
M  V30 6347 H 611.899 -0.68318 -2.95916 0
M  V30 6348 H 609.484 -0.399784 -1.43952 0
M  V30 6349 H 611.366 1.57911 -3.90694 0
M  V30 6350 H 610.041 1.7498 -2.7233 0
M  V30 6351 H 608.948 -0.339566 -3.72556 0
M  V30 6352 H 610.281 -0.427154 -4.90343 0
M  V30 6353 N 611.933 1.52934 -0.380664 0
M  V30 6354 C 613.163 2.05587 0.204302 0
M  V30 6355 C 613.571 1.25288 1.41773 0
M  V30 6356 O 612.914 0.290394 1.8139 0
M  V30 6357 C 612.976 3.53624 0.647324 0
M  V30 6358 C 612.64 4.54765 -0.451465 0
M  V30 6359 C 613.637 5.03226 -1.30614 0
M  V30 6360 C 611.322 4.98508 -0.616025 0
M  V30 6361 C 613.316 5.94046 -2.31058 0
M  V30 6362 C 611.003 5.89131 -1.62381 0
M  V30 6363 C 612.001 6.36792 -2.46952 0
M  V30 6364 O 611.689 7.25626 -3.46009 0
M  V30 6365 H 611.421 0.675013 0.0365198 0
M  V30 6366 H 613.975 1.98125 -0.541827 0
M  V30 6367 H 612.205 3.58676 1.44529 0
M  V30 6368 H 613.894 3.89061 1.15698 0
M  V30 6369 H 614.66 4.70167 -1.19027 0
M  V30 6370 H 610.539 4.60989 0.0324987 0
M  V30 6371 H 614.083 6.3117 -2.97104 0
M  V30 6372 H 609.98 6.21603 -1.7401 0
M  V30 6373 H 610.748 7.43664 -3.41916 0
M  V30 6374 N 613.412 0.11024 1.57214 0
M  V30 6375 C 614.661 -0.549638 1.94067 0
M  V30 6376 C 614.974 -1.68388 0.995234 0
M  V30 6377 O 616.18 -2.40593 1.25807 0
M  V30 6378 C 614.636 -1.02912 3.44873 0
M  V30 6379 C 614.244 0.0761861 4.47935 0
M  V30 6380 C 615.988 -1.66087 3.9066 0
M  V30 6381 C 613.895 -0.419502 5.8991 0
M  V30 6382 H 612.825 -0.209092 0.724428 0
M  V30 6383 H 615.476 0.188683 1.82527 0
M  V30 6384 H 613.858 -1.82159 3.51616 0
M  V30 6385 H 615.032 0.852185 4.52851 0
M  V30 6386 H 613.347 0.614052 4.11847 0
M  V30 6387 H 615.944 -2.04272 4.94143 0
M  V30 6388 H 616.287 -2.53591 3.30148 0
M  V30 6389 H 616.82 -0.933959 3.86681 0
M  V30 6390 H 613.559 0.419277 6.54158 0
M  V30 6391 H 613.079 -1.16217 5.88433 0
M  V30 6392 H 614.758 -0.883577 6.40938 0
M  V30 6393 N 614.89 -1.56749 -0.16351 0
M  V30 6394 C 615.837 -1.97011 -1.2023 0
M  V30 6395 C 616.807 -0.835186 -1.43575 0
M  V30 6396 O 617.992 -1.09594 -1.56185 0
M  V30 6397 C 615.132 -2.34186 -2.53478 0
M  V30 6398 C 614.245 -3.60893 -2.37446 0
M  V30 6399 C 613.38 -3.87245 -3.63614 0
M  V30 6400 C 612.419 -5.07274 -3.42548 0
M  V30 6401 N 611.556 -5.29719 -4.60806 0
M  V30 6402 H 616.396 -2.85562 -0.851958 0
M  V30 6403 H 613.933 -1.41292 -0.409257 0
M  V30 6404 H 615.891 -2.53764 -3.31149 0
M  V30 6405 H 614.521 -1.48736 -2.86492 0
M  V30 6406 H 613.573 -3.49185 -1.50911 0
M  V30 6407 H 614.885 -4.48722 -2.1783 0
M  V30 6408 H 614.039 -4.07232 -4.49719 0
M  V30 6409 H 612.778 -2.97806 -3.86216 0
M  V30 6410 H 611.783 -4.87177 -2.5483 0
M  V30 6411 H 613.008 -5.98251 -3.2136 0
M  V30 6412 H 610.954 -4.43233 -4.83612 0
M  V30 6413 H 610.871 -6.11786 -4.44132 0
M  V30 6414 H 612.139 -5.54192 -5.48171 0
M  V30 6415 N 616.368 0.432326 -1.51554 0
M  V30 6416 C 617.616 1.17901 -1.64146 0
M  V30 6417 C 617.937 1.91604 -0.362367 0
M  V30 6418 O 617.207 1.85764 0.621968 0
M  V30 6419 H 615.787 0.438206 -0.604966 0
M  V30 6420 H 618.449 0.495172 -1.88505 0
M  V30 6421 H 617.545 1.90584 -2.47152 0
M  V30 6422 N 617.846 1.41785 0.688094 0
M  V30 6423 C 619.094 1.41264 1.4453 0
M  V30 6424 C 619.415 0.0252946 1.94984 0
M  V30 6425 O 618.685 -0.934081 1.72197 0
M  V30 6426 H 617.265 0.519998 0.536294 0
M  V30 6427 H 619.927 1.7709 0.813941 0
M  V30 6428 H 619.023 2.10439 2.30482 0
M  V30 6429 N 619.324 -0.923095 1.27737 0
M  V30 6430 C 620.552 -1.70525 1.17171 0
M  V30 6431 C 620.967 -1.86847 -0.270881 0
M  V30 6432 O 620.324 -1.38879 -1.18401 0
M  V30 6433 C 620.375 -3.10242 1.85559 0
M  V30 6434 O 620.096 -2.94683 3.24182 0
M  V30 6435 C 621.597 -4.04586 1.81176 0
M  V30 6436 H 618.817 -0.533347 0.407163 0
M  V30 6437 H 621.361 -1.15599 1.68692 0
M  V30 6438 H 619.516 -3.62014 1.3793 0
M  V30 6439 H 619.93 -3.83045 3.58297 0
M  V30 6440 H 621.404 -5.00119 2.33633 0
M  V30 6441 H 621.881 -4.3218 0.782099 0
M  V30 6442 H 622.487 -3.58741 2.2844 0
M  V30 6443 N 620.802 -1.09834 -1.13024 0
M  V30 6444 C 621.732 -0.763451 -2.20666 0
M  V30 6445 C 622.713 0.260778 -1.68089 0
M  V30 6446 O 623.898 0.127915 -1.93778 0
M  V30 6447 C 621.028 -0.187744 -3.46792 0
M  V30 6448 C 619.982 -1.14196 -4.12484 0
M  V30 6449 C 619.308 -0.427755 -5.32986 0
M  V30 6450 C 620.608 -2.48607 -4.59338 0
M  V30 6451 H 622.302 -1.66347 -2.48936 0
M  V30 6452 H 619.848 -0.801261 -1.19649 0
M  V30 6453 H 621.801 0.0586375 -4.21359 0
M  V30 6454 H 620.525 0.747485 -3.17931 0
M  V30 6455 H 619.184 -1.37369 -3.3989 0
M  V30 6456 H 618.832 0.511747 -5.0039 0
M  V30 6457 H 618.532 -1.06403 -5.77886 0
M  V30 6458 H 620.056 -0.189772 -6.10305 0
M  V30 6459 H 621.47 -2.29618 -5.25308 0
M  V30 6460 H 619.867 -3.08062 -5.14993 0
M  V30 6461 H 620.937 -3.09062 -3.73642 0
M  V30 6462 N 622.28 1.30327 -0.886154 0
M  V30 6463 C 623.696 1.48676 -0.580323 0
M  V30 6464 C 623.896 1.81189 0.881639 0
M  V30 6465 O 622.952 1.90021 1.66278 0
M  V30 6466 C 624.265 2.60932 -1.49449 0
M  V30 6467 C 625.813 2.74812 -1.49824 0
M  V30 6468 C 626.288 3.90183 -2.39836 0
M  V30 6469 N 627.779 3.97495 -2.37806 0
M  V30 6470 C 628.514 4.86078 -3.04165 0
M  V30 6471 N 628.01 5.79448 -3.79753 0
M  V30 6472 N 629.803 4.79456 -2.93391 0
M  V30 6473 H 621.954 1.07495 -1.8319 0
M  V30 6474 H 624.217 0.532661 -0.784204 0
M  V30 6475 H 623.923 2.43731 -2.5355 0
M  V30 6476 H 623.797 3.57437 -1.20494 0
M  V30 6477 H 626.184 2.91418 -0.464731 0
M  V30 6478 H 626.265 1.78924 -1.82811 0
M  V30 6479 H 625.909 3.74334 -3.43273 0
M  V30 6480 H 625.839 4.85411 -2.04166 0
M  V30 6481 H 628.33 3.30703 -1.82877 0
M  V30 6482 H 628.643 6.43805 -4.27475 0
M  V30 6483 H 626.988 5.79376 -3.8386 0
M  V30 6484 H 630.179 4.05494 -2.33864 0
M  V30 6485 H 630.352 5.48283 -3.45383 0
M  V30 6486 N 623.758 0.647228 1.43697 0
M  V30 6487 C 625.006 0.157876 2.01482 0
M  V30 6488 C 625.327 -1.23039 1.51282 0
M  V30 6489 O 624.597 -1.82071 0.722982 0
M  V30 6490 H 623.177 0.0553745 0.744945 0
M  V30 6491 H 625.839 0.83755 1.75986 0
M  V30 6492 H 624.935 0.137895 3.11795 0
M  V30 6493 N 625.236 -1.5273 0.388769 0
M  V30 6494 C 626.485 -2.00757 -0.194833 0
M  V30 6495 C 626.798 -1.27951 -1.47946 0
M  V30 6496 O 628.004 -1.66686 -2.14308 0
M  V30 6497 C 626.46 -3.57695 -0.397762 0
M  V30 6498 C 626.068 -4.394 0.873583 0
M  V30 6499 C 627.812 -4.14012 -0.937759 0
M  V30 6500 C 625.719 -5.87938 0.638962 0
M  V30 6501 H 624.649 -0.750101 -0.0765845 0
M  V30 6502 H 627.3 -1.76239 0.511086 0
M  V30 6503 H 625.682 -3.7846 -1.16552 0
M  V30 6504 H 626.856 -4.30403 1.64591 0
M  V30 6505 H 625.171 -3.94301 1.33849 0
M  V30 6506 H 627.768 -5.22645 -1.12899 0
M  V30 6507 H 628.111 -3.7007 -1.90666 0
M  V30 6508 H 628.644 -3.97137 -0.229588 0
M  V30 6509 H 625.383 -6.36202 1.57885 0
M  V30 6510 H 624.903 -5.99726 -0.094443 0
M  V30 6511 H 626.582 -6.46423 0.273299 0
M  V30 6512 N 626.714 -0.118576 -1.57153 0
M  V30 6513 C 627.963 0.539339 -1.94355 0
M  V30 6514 C 628.276 1.67858 -1.00415 0
M  V30 6515 O 629.482 2.39922 -1.27081 0
M  V30 6516 C 627.938 1.01082 -3.45414 0
M  V30 6517 C 627.546 -0.0999402 -4.47889 0
M  V30 6518 C 629.29 1.64013 -3.91535 0
M  V30 6519 C 627.197 0.388212 -5.90124 0
M  V30 6520 H 626.127 0.205247 -0.725527 0
M  V30 6521 H 628.778 -0.19836 -1.82425 0
M  V30 6522 H 627.16 1.80292 -3.52577 0
M  V30 6523 H 628.334 -0.876189 -4.52393 0
M  V30 6524 H 626.649 -0.635885 -4.11516 0
M  V30 6525 H 629.246 2.01649 -4.95219 0
M  V30 6526 H 629.589 2.51836 -3.31488 0
M  V30 6527 H 630.122 0.913439 -3.87171 0
M  V30 6528 H 626.861 -0.453963 -6.53926 0
M  V30 6529 H 626.381 1.13095 -5.89041 0
M  V30 6530 H 628.06 0.849574 -6.41398 0
M  V30 6531 N 628.193 1.56834 0.155195 0
M  V30 6532 C 629.14 1.97646 1.19184 0
M  V30 6533 C 630.11 0.842788 1.4313 0
M  V30 6534 O 631.295 1.1042 1.55602 0
M  V30 6535 C 628.435 2.35527 2.52232 0
M  V30 6536 C 627.548 3.62147 2.35529 0
M  V30 6537 C 626.683 3.89167 3.61555 0
M  V30 6538 C 625.722 5.09084 3.39853 0
M  V30 6539 N 624.859 5.32156 4.5799 0
M  V30 6540 H 629.699 2.8601 0.836802 0
M  V30 6541 H 627.236 1.41507 0.401758 0
M  V30 6542 H 629.194 2.55516 3.29799 0
M  V30 6543 H 627.824 1.50253 2.85699 0
M  V30 6544 H 626.876 3.4998 1.49057 0
M  V30 6545 H 628.188 4.49871 2.15448 0
M  V30 6546 H 627.342 4.09611 4.47553 0
M  V30 6547 H 626.081 2.9985 3.84632 0
M  V30 6548 H 625.086 4.88522 2.52243 0
M  V30 6549 H 626.311 5.99947 3.18183 0
M  V30 6550 H 624.257 4.45791 4.81255 0
M  V30 6551 H 624.174 6.14133 4.40882 0
M  V30 6552 H 625.442 5.57091 5.45225 0
M  V30 6553 N 629.671 -0.424282 1.51781 0
M  V30 6554 C 630.896 -1.19928 1.6921 0
M  V30 6555 C 631.321 -1.8392 0.394355 0
M  V30 6556 O 630.679 -1.69371 -0.646778 0
M  V30 6557 C 630.727 -2.24937 2.81843 0
M  V30 6558 O 629.831 -3.3073 2.46356 0
M  V30 6559 H 629.172 -0.35078 0.563781 0
M  V30 6560 H 631.702 -0.499401 1.98412 0
M  V30 6561 H 631.712 -2.69512 3.06312 0
M  V30 6562 H 630.387 -1.77742 3.76006 0
M  V30 6563 H 628.964 -2.9154 2.32505 0
M  V30 6564 N 631.149 -1.42148 -0.680565 0
M  V30 6565 C 632.082 -1.39602 -1.80517 0
M  V30 6566 C 633.06 -0.261098 -1.6049 0
M  V30 6567 O 634.244 -0.450404 -1.8304 0
M  V30 6568 C 631.371 -1.18134 -3.1743 0
M  V30 6569 C 630.417 -2.34543 -3.56219 0
M  V30 6570 S 631.25 -3.97063 -3.59306 0
M  V30 6571 C 632.406 -3.77926 -4.98921 0
M  V30 6572 H 632.639 -2.3477 -1.82402 0
M  V30 6573 H 630.172 -1.28851 -0.850691 0
M  V30 6574 H 632.13 -1.06434 -3.96462 0
M  V30 6575 H 630.791 -0.245611 -3.13138 0
M  V30 6576 H 629.984 -2.15255 -4.55721 0
M  V30 6577 H 629.586 -2.42728 -2.84533 0
M  V30 6578 H 631.878 -3.3856 -5.86842 0
M  V30 6579 H 632.821 -4.77084 -5.23256 0
M  V30 6580 H 633.229 -3.10904 -4.71167 0
M  V30 6581 N 632.627 0.916307 -1.28225 0
M  V30 6582 C 633.904 1.64429 -1.05936 0
M  V30 6583 C 634.284 2.07234 0.402139 0
M  V30 6584 O 633.632 1.81535 1.3877 0
M  V30 6585 C 633.842 2.83773 -2.03159 0
M  V30 6586 C 635.19 3.54852 -2.33164 0
M  V30 6587 O 636.214 2.93918 -2.01223 0
M  V30 6588 O 635.073 4.64663 -2.87664 0
M  V30 6589 H 632.167 0.721221 -0.404683 0
M  V30 6590 H 634.713 0.965838 -1.39534 0
M  V30 6591 H 633.485 2.49217 -3.01673 0
M  V30 6592 H 633.108 3.59333 -1.70192 0
M  V30 6593 N 634.105 1.10431 1.1244 0
M  V30 6594 C 635.33 0.869089 1.88313 0
M  V30 6595 C 635.755 -0.574912 1.79099 0
M  V30 6596 O 635.113 -1.40496 1.14589 0
M  V30 6597 C 635.161 1.32208 3.3549 0
M  V30 6598 O 634.265 0.487092 4.09513 0
M  V30 6599 H 633.606 0.313894 0.585121 0
M  V30 6600 H 636.136 1.47111 1.42195 0
M  V30 6601 H 636.146 1.31201 3.86329 0
M  V30 6602 H 634.821 2.37364 3.41513 0
M  V30 6603 H 633.398 0.562372 3.68635 0
M  V30 6604 N 635.583 -1.29855 0.893053 0
M  V30 6605 C 636.515 -2.26911 0.32311 0
M  V30 6606 C 637.528 -1.54039 -0.526858 0
M  V30 6607 O 638.717 -1.75132 -0.345095 0
M  V30 6608 C 635.817 -3.34266 -0.558509 0
M  V30 6609 C 634.99 -4.36601 0.264222 0
M  V30 6610 C 634.049 -5.23326 -0.549171 0
M  V30 6611 O 633.075 -5.69192 0.0309883 0
M  V30 6612 N 634.277 -5.50008 -1.85664 0
M  V30 6613 H 637.042 -2.76455 1.15726 0
M  V30 6614 H 634.603 -1.4312 0.756859 0
M  V30 6615 H 636.595 -3.89211 -1.1089 0
M  V30 6616 H 635.165 -2.8459 -1.29334 0
M  V30 6617 H 634.385 -3.81409 0.996046 0
M  V30 6618 H 635.673 -5.02019 0.827906 0
M  V30 6619 H 635.071 -5.14542 -2.35081 0
M  V30 6620 H 633.628 -6.07796 -2.35431 0
M  V30 6621 N 637.061 -0.65484 -1.43351 0
M  V30 6622 C 638.291 -0.176429 -2.05845 0
M  V30 6623 C 638.699 1.16375 -1.49176 0
M  V30 6624 O 638.042 1.72981 -0.618322 0
M  V30 6625 C 638.104 -0.0125844 -3.59498 0
M  V30 6626 C 637.768 -1.27831 -4.38758 0
M  V30 6627 C 638.765 -2.2074 -4.70712 0
M  V30 6628 C 636.45 -1.52035 -4.78739 0
M  V30 6629 C 638.444 -3.36145 -5.41558 0
M  V30 6630 C 636.131 -2.67732 -5.49329 0
M  V30 6631 C 637.129 -3.59612 -5.80662 0
M  V30 6632 O 636.817 -4.73289 -6.4981 0
M  V30 6633 H 636.549 -0.0879682 -0.670252 0
M  V30 6634 H 639.103 -0.896193 -1.84818 0
M  V30 6635 H 637.333 0.762567 -3.79107 0
M  V30 6636 H 639.022 0.423392 -4.03686 0
M  V30 6637 H 639.788 -2.03284 -4.40341 0
M  V30 6638 H 635.667 -0.813987 -4.53757 0
M  V30 6639 H 639.211 -4.07881 -5.65932 0
M  V30 6640 H 635.108 -2.85122 -5.79116 0
M  V30 6641 H 635.876 -4.72575 -6.68293 0
M  V30 6642 N 638.539 1.52521 -0.396863 0
M  V30 6643 C 639.95 1.86547 0.0754868 0
M  V30 6644 C 640.301 1.31621 1.45501 0
M  V30 6645 O 639.426 0.650563 2.0639 0
M  V30 6646 C 640.021 3.38495 0.143754 0
M  V30 6647 C 638.58 3.72205 0.560413 0
M  V30 6648 C 637.727 2.75954 -0.272856 0
M  V30 6649 H 640.678 1.46323 -0.614434 0
M  V30 6650 H 640.699 3.68153 0.961425 0
M  V30 6651 H 640.211 3.78442 -0.860415 0
M  V30 6652 H 638.312 3.3783 1.57167 0
M  V30 6653 H 638.425 4.78074 0.313314 0
M  V30 6654 H 636.789 2.53339 0.263 0
M  V30 6655 H 637.572 3.1874 -1.27515 0
M  V30 6656 N 640.017 0.126909 1.57088 0
M  V30 6657 C 641.263 -0.523662 1.96543 0
M  V30 6658 C 641.618 -1.63783 1.0096 0
M  V30 6659 O 640.911 -1.91556 0.0410175 0
M  V30 6660 C 641.105 -1.095 3.40212 0
M  V30 6661 C 640.934 -0.037715 4.49684 0
M  V30 6662 C 639.704 0.396823 5.03739 0
M  V30 6663 C 641.902 0.746245 5.08857 0
M  V30 6664 N 639.884 1.43905 5.96795 0
M  V30 6665 C 641.255 1.63947 5.97931 0
M  V30 6666 C 643.31 0.796259 4.91492 0
M  V30 6667 C 642.013 2.57837 6.715 0
M  V30 6668 C 644.039 1.7229 5.65747 0
M  V30 6669 C 643.401 2.60369 6.54513 0
M  V30 6670 H 639.5 -0.161016 0.765244 0
M  V30 6671 H 642.084 0.21686 1.93489 0
M  V30 6672 H 640.255 -1.80521 3.43899 0
M  V30 6673 H 641.987 -1.71054 3.66773 0
M  V30 6674 H 638.742 0.00290406 4.736 0
M  V30 6675 H 639.166 1.95932 6.48027 0
M  V30 6676 H 643.808 0.129412 4.22602 0
M  V30 6677 H 641.526 3.25532 7.39631 0
M  V30 6678 H 645.112 1.76715 5.54313 0
M  V30 6679 H 643.992 3.30906 7.10965 0
M  V30 6680 N 641.495 -1.56914 -0.146875 0
M  V30 6681 C 642.72 -1.87881 -0.878386 0
M  V30 6682 C 643.145 -0.715945 -1.73942 0
M  V30 6683 O 642.503 0.334447 -1.78189 0
M  V30 6684 C 642.551 -3.17431 -1.71084 0
M  V30 6685 O 641.655 -3.01374 -2.81509 0
M  V30 6686 H 640.996 -0.617289 -0.244644 0
M  V30 6687 H 643.526 -2.04136 -0.137654 0
M  V30 6688 H 643.536 -3.49455 -2.10582 0
M  V30 6689 H 642.211 -4.01671 -1.07856 0
M  V30 6690 H 640.788 -2.80758 -2.45416 0
M  V30 6691 N 642.974 0.416227 -1.52004 0
M  V30 6692 C 643.906 1.52552 -1.71058 0
M  V30 6693 C 644.919 1.51693 -0.59102 0
M  V30 6694 O 646.108 1.56087 -0.865973 0
M  V30 6695 C 643.208 2.91455 -1.72937 0
M  V30 6696 C 642.381 3.16584 -3.01816 0
M  V30 6697 C 641.44 4.35322 -2.95603 0
M  V30 6698 O 640.466 4.32947 -3.6952 0
M  V30 6699 N 641.668 5.40049 -2.12903 0
M  V30 6700 H 644.433 1.36604 -2.66757 0
M  V30 6701 H 641.994 0.60544 -1.50153 0
M  V30 6702 H 643.986 3.68944 -1.66321 0
M  V30 6703 H 642.556 3.00895 -0.847418 0
M  V30 6704 H 641.776 2.27203 -3.22137 0
M  V30 6705 H 643.064 3.30213 -3.87088 0
M  V30 6706 H 642.462 5.44823 -1.52265 0
M  V30 6707 H 641.019 6.16308 -2.1215 0
M  V30 6708 N 644.452 1.42507 0.673017 0
M  V30 6709 C 645.868 1.25472 0.986355 0
M  V30 6710 C 646.068 0.160181 2.00862 0
M  V30 6711 O 645.124 -0.467993 2.48125 0
M  V30 6712 C 646.437 2.61219 1.48947 0
M  V30 6713 C 647.985 2.68589 1.60715 0
M  V30 6714 C 648.46 4.04707 2.14422 0
M  V30 6715 N 649.951 4.0667 2.21752 0
M  V30 6716 C 650.686 5.0881 2.64386 0
M  V30 6717 N 650.182 6.21332 3.0646 0
M  V30 6718 N 651.975 4.96166 2.64151 0
M  V30 6719 H 644.126 2.124 -0.00378532 0
M  V30 6720 H 646.389 0.946046 0.0608367 0
M  V30 6721 H 646.095 3.42179 0.812812 0
M  V30 6722 H 645.969 2.85261 2.46791 0
M  V30 6723 H 648.356 1.87974 2.27486 0
M  V30 6724 H 648.437 2.48333 0.613552 0
M  V30 6725 H 648.081 4.8578 1.48258 0
M  V30 6726 H 648.011 4.22315 3.14575 0
M  V30 6727 H 650.502 3.25438 1.92089 0
M  V30 6728 H 650.815 6.95118 3.37684 0
M  V30 6729 H 649.16 6.24835 3.04313 0
M  V30 6730 H 652.351 4.07334 2.30644 0
M  V30 6731 H 652.524 5.759 2.97057 0
M  V30 6732 N 645.93 -0.909495 1.28709 0
M  V30 6733 C 647.176 -1.66151 1.16283 0
M  V30 6734 C 647.509 -1.92067 -0.287069 0
M  V30 6735 O 646.784 -1.52409 -1.20837 0
M  V30 6736 C 647.067 -3.01676 1.9663 0
M  V30 6737 C 646.92 -2.82888 3.49707 0
M  V30 6738 C 648.239 -4.02274 1.78504 0
M  V30 6739 H 645.358 -0.602966 0.423793 0
M  V30 6740 H 648 -1.05418 1.58073 0
M  V30 6741 H 646.15 -3.53515 1.61119 0
M  V30 6742 H 647.822 -2.38026 3.95147 0
M  V30 6743 H 646.065 -2.17862 3.75125 0
M  V30 6744 H 646.736 -3.79147 4.01187 0
M  V30 6745 H 649.212 -3.59511 2.09503 0
M  V30 6746 H 648.088 -4.95056 2.37088 0
M  V30 6747 H 648.349 -4.35903 0.737647 0
M  V30 6748 N 647.408 -1.11026 -1.11852 0
M  V30 6749 C 648.633 -0.879064 -1.87849 0
M  V30 6750 C 649.058 0.565406 -1.79401 0
M  V30 6751 O 648.416 1.39886 -1.15333 0
M  V30 6752 C 648.464 -1.33985 -3.34784 0
M  V30 6753 O 647.568 -0.508803 -4.09249 0
M  V30 6754 H 646.909 -0.316992 -0.583448 0
M  V30 6755 H 649.439 -1.47863 -1.41413 0
M  V30 6756 H 649.449 -1.33248 -3.85628 0
M  V30 6757 H 648.124 -2.39172 -3.40249 0
M  V30 6758 H 646.701 -0.581913 -3.68332 0
M  V30 6759 N 648.886 1.2938 -0.899927 0
M  V30 6760 C 650.133 1.9555 -0.525963 0
M  V30 6761 C 650.461 1.70945 0.927789 0
M  V30 6762 O 649.716 1.01545 1.67293 0
M  V30 6763 C 650.015 3.49114 -0.765113 0
M  V30 6764 C 649.681 3.93796 -2.19626 0
M  V30 6765 C 648.343 4.05707 -2.58758 0
M  V30 6766 C 650.695 4.16883 -3.12823 0
M  V30 6767 C 648.023 4.38074 -3.90267 0
M  V30 6768 C 650.375 4.50725 -4.4388 0
M  V30 6769 C 649.039 4.60845 -4.82885 0
M  V30 6770 H 648.309 0.715569 -0.192463 0
M  V30 6771 H 650.956 1.53972 -1.13863 0
M  V30 6772 H 649.261 3.91738 -0.069531 0
M  V30 6773 H 650.958 3.98409 -0.455144 0
M  V30 6774 H 647.548 3.85042 -1.88256 0
M  V30 6775 H 651.732 4.07147 -2.83804 0
M  V30 6776 H 646.988 4.44112 -4.20207 0
M  V30 6777 H 651.162 4.67538 -5.16121 0
M  V30 6778 H 648.789 4.85681 -5.84823 0
M  V30 6779 N 650.364 0.662433 1.43002 0
M  V30 6780 C 651.327 -0.0142016 2.29196 0
M  V30 6781 C 652.327 -0.741394 1.42688 0
M  V30 6782 O 653.517 -0.581257 1.64216 0
M  V30 6783 C 650.649 -1.03084 3.24941 0
M  V30 6784 H 651.842 0.7443 2.90517 0
M  V30 6785 H 649.395 0.424133 1.50435 0
M  V30 6786 H 650.13 -1.81826 2.68533 0
M  V30 6787 H 649.915 -0.512946 3.8873 0
M  V30 6788 H 651.405 -1.50308 3.89612 0
M  V30 6789 N 651.842 -1.52309 0.404946 0
M  V30 6790 C 652.789 -2.26898 -0.422597 0
M  V30 6791 C 653.759 -1.2914 -1.04461 0
M  V30 6792 O 654.944 -1.57996 -1.06967 0
M  V30 6793 C 652.084 -3.09053 -1.53559 0
M  V30 6794 C 651.197 -4.21762 -0.934908 0
M  V30 6795 C 650.332 -4.91283 -2.02025 0
M  V30 6796 C 649.371 -5.95962 -1.39628 0
M  V30 6797 N 648.508 -6.59017 -2.42159 0
M  V30 6798 H 653.348 -2.97188 0.219903 0
M  V30 6799 H 650.885 -1.46607 0.120282 0
M  V30 6800 H 652.843 -3.54987 -2.19181 0
M  V30 6801 H 651.473 -2.40942 -2.14818 0
M  V30 6802 H 650.525 -3.80029 -0.167854 0
M  V30 6803 H 651.837 -4.96864 -0.439073 0
M  V30 6804 H 650.991 -5.40601 -2.75383 0
M  V30 6805 H 649.73 -4.15741 -2.54973 0
M  V30 6806 H 648.735 -5.45968 -0.648023 0
M  V30 6807 H 649.96 -6.73445 -0.874553 0
M  V30 6808 H 647.906 -5.86306 -2.94247 0
M  V30 6809 H 647.823 -7.2978 -1.97376 0
M  V30 6810 H 649.091 -7.12974 -3.15099 0
M  V30 6811 N 653.32 -0.135238 -1.57019 0
M  V30 6812 C 654.597 0.563227 -1.87316 0
M  V30 6813 C 654.977 1.83749 -1.03921 0
M  V30 6814 O 654.325 2.2817 -0.122675 0
M  V30 6815 C 654.535 0.840031 -3.3874 0
M  V30 6816 C 655.883 1.18598 -4.077 0
M  V30 6817 O 656.907 0.92977 -3.43851 0
M  V30 6818 O 655.766 1.66758 -5.20436 0
M  V30 6819 H 652.86 0.285971 -0.775983 0
M  V30 6820 H 655.406 -0.170965 -1.68837 0
M  V30 6821 H 654.178 -0.0622785 -3.9125 0
M  V30 6822 H 653.801 1.62882 -3.62706 0
M  V30 6823 N 654.798 1.5699 0.138552 0
M  V30 6824 C 656.047 1.82998 0.848205 0
M  V30 6825 C 656.36 0.717829 1.81952 0
M  V30 6826 O 657.566 0.863756 2.57394 0
M  V30 6827 C 656.022 3.24379 1.55904 0
M  V30 6828 C 655.63 4.43552 0.62971 0
M  V30 6829 C 657.374 3.59654 2.25498 0
M  V30 6830 C 655.281 5.75957 1.34266 0
M  V30 6831 H 654.211 0.682495 0.320495 0
M  V30 6832 H 656.862 1.83222 0.100924 0
M  V30 6833 H 655.244 3.18567 2.35226 0
M  V30 6834 H 656.418 4.6062 -0.128882 0
M  V30 6835 H 654.733 4.16379 0.0417526 0
M  V30 6836 H 657.33 4.55837 2.79493 0
M  V30 6837 H 657.673 2.86124 3.02388 0
M  V30 6838 H 658.206 3.67164 1.53087 0
M  V30 6839 H 654.945 6.52604 0.615441 0
M  V30 6840 H 654.465 5.62811 2.07375 0
M  V30 6841 H 656.144 6.19046 1.88126 0
M  V30 6842 N 656.276 -0.40816 1.52223 0
M  V30 6843 C 657.239 -1.48 1.7501 0
M  V30 6844 C 658.239 -1.48367 0.619996 0
M  V30 6845 O 659.429 -1.49874 0.887881 0
M  V30 6846 C 656.561 -2.87403 1.83336 0
M  V30 6847 H 657.754 -1.29086 2.70697 0
M  V30 6848 H 655.307 -0.638715 1.42654 0
M  V30 6849 H 656.042 -3.11686 0.895677 0
M  V30 6850 H 655.827 -2.8854 2.65494 0
M  V30 6851 H 657.317 -3.65103 2.02705 0
M  V30 6852 N 657.755 -1.42862 -0.66545 0
M  V30 6853 C 658.98 -1.47456 -1.45848 0
M  V30 6854 C 659.405 -0.0900312 -1.87884 0
M  V30 6855 O 658.763 0.913587 -1.56599 0
M  V30 6856 C 658.811 -2.41514 -2.67774 0
M  V30 6857 O 657.915 -1.89296 -3.66389 0
M  V30 6858 H 657.256 -0.499236 -0.437789 0
M  V30 6859 H 659.786 -1.8765 -0.815394 0
M  V30 6860 H 659.796 -2.58409 -3.15735 0
M  V30 6861 H 658.471 -3.42099 -2.36519 0
M  V30 6862 H 657.048 -1.82003 -3.25468 0
M  V30 6863 N 659.233 0.902656 -1.29189 0
M  V30 6864 C 660.481 1.6496 -1.16758 0
M  V30 6865 C 660.802 1.92952 0.28188 0
M  V30 6866 O 660.072 1.55351 1.19344 0
M  V30 6867 H 658.652 0.611447 -0.429118 0
M  V30 6868 H 661.314 1.0825 -1.62074 0
M  V30 6869 H 660.41 2.60728 -1.71544 0
M  V30 6870 N 660.711 1.11618 1.11262 0
M  V30 6871 C 661.644 0.719995 2.16544 0
M  V30 6872 C 662.622 -0.28471 1.60088 0
M  V30 6873 O 663.806 -0.180693 1.87632 0
M  V30 6874 C 660.933 0.0643302 3.38639 0
M  V30 6875 C 659.979 1.03448 4.13764 0
M  V30 6876 S 660.812 2.55789 4.70459 0
M  V30 6877 C 661.968 1.91529 5.95875 0
M  V30 6878 H 662.201 1.61181 2.49816 0
M  V30 6879 H 659.734 0.934401 1.22916 0
M  V30 6880 H 661.692 -0.307609 4.09346 0
M  V30 6881 H 660.353 -0.804471 3.03623 0
M  V30 6882 H 659.546 0.523188 5.01277 0
M  V30 6883 H 659.148 1.34893 3.48826 0
M  V30 6884 H 661.44 1.25286 6.65815 0
M  V30 6885 H 662.383 2.77047 6.51652 0
M  V30 6886 H 662.791 1.37468 5.47506 0
M  V30 6887 N 662.189 -1.289 0.906776 0
M  V30 6888 C 663.152 -2.25777 0.394656 0
M  V30 6889 C 664.152 -1.53621 -0.475119 0
M  V30 6890 O 665.342 -1.71949 -0.279165 0
M  V30 6891 C 662.474 -3.38113 -0.43499 0
M  V30 6892 H 663.667 -2.72592 1.25033 0
M  V30 6893 H 661.22 -1.40463 0.685547 0
M  V30 6894 H 661.955 -2.96648 -1.31036 0
M  V30 6895 H 661.74 -3.91647 0.188334 0
M  V30 6896 H 663.23 -4.10168 -0.784365 0
M  V30 6897 N 663.667 -0.670007 -1.42649 0
M  V30 6898 C 664.897 -0.198252 -2.05647 0
M  V30 6899 C 665.305 1.14786 -1.50402 0
M  V30 6900 O 664.648 1.72316 -0.636634 0
M  V30 6901 C 664.71 -0.0507132 -3.59464 0
M  V30 6902 C 664.374 -1.32478 -4.37377 0
M  V30 6903 C 665.371 -2.2572 -4.68344 0
M  V30 6904 C 663.056 -1.57104 -4.77099 0
M  V30 6905 C 665.05 -3.4187 -5.37963 0
M  V30 6906 C 662.737 -2.73543 -5.46459 0
M  V30 6907 C 663.735 -3.65751 -5.76815 0
M  V30 6908 O 663.423 -4.80154 -6.44753 0
M  V30 6909 H 663.155 -0.0950721 -0.669281 0
M  V30 6910 H 665.709 -0.915745 -1.83857 0
M  V30 6911 H 663.939 0.722314 -3.79894 0
M  V30 6912 H 665.628 0.380552 -4.04112 0
M  V30 6913 H 666.394 -2.07943 -4.38161 0
M  V30 6914 H 662.273 -0.862069 -4.52868 0
M  V30 6915 H 665.817 -4.13861 -5.61574 0
M  V30 6916 H 661.714 -2.91248 -5.7606 0
M  V30 6917 H 662.482 -4.79637 -6.63243 0
M  V30 6918 N 665.145 1.52092 -0.413018 0
M  V30 6919 C 666.075 2.30021 0.401567 0
M  V30 6920 C 667.056 1.34395 1.04269 0
M  V30 6921 O 668.241 1.63304 1.05097 0
M  V30 6922 C 665.371 3.12447 1.51638 0
M  V30 6923 C 664.325 4.16153 1.00005 0
M  V30 6924 C 663.651 4.86948 2.20875 0
M  V30 6925 C 664.951 5.22275 0.0513757 0
M  V30 6926 H 666.645 2.98365 -0.248704 0
M  V30 6927 H 664.191 1.4349 -0.121052 0
M  V30 6928 H 666.144 3.65733 2.09326 0
M  V30 6929 H 664.868 2.41879 2.19458 0
M  V30 6930 H 663.527 3.63882 0.445549 0
M  V30 6931 H 663.175 4.12905 2.8726 0
M  V30 6932 H 662.875 5.57057 1.86978 0
M  V30 6933 H 664.399 5.43048 2.79162 0
M  V30 6934 H 665.813 5.70778 0.537176 0
M  V30 6935 H 664.21 5.9977 -0.198977 0
M  V30 6936 H 665.28 4.76611 -0.892736 0
M  V30 6937 N 666.623 0.143563 1.56945 0
M  V30 6938 C 667.573 -0.809115 2.1316 0
M  V30 6939 C 668.557 -1.21176 1.05855 0
M  V30 6940 O 669.749 -1.17875 1.3204 0
M  V30 6941 C 666.878 -2.04957 2.75405 0
M  V30 6942 C 665.964 -1.67018 3.89828 0
M  V30 6943 N 666.355 -0.998822 4.9584 0
M  V30 6944 C 664.653 -1.96313 4.00471 0
M  V30 6945 C 665.354 -0.816217 5.75945 0
M  V30 6946 N 664.33 -1.349 5.26596 0
M  V30 6947 H 668.132 -0.286919 2.92496 0
M  V30 6948 H 665.646 -0.0580948 1.62296 0
M  V30 6949 H 667.643 -2.74201 3.14037 0
M  V30 6950 H 666.303 -2.57697 1.97541 0
M  V30 6951 H 667.314 -0.659975 5.13678 0
M  V30 6952 H 663.991 -2.50927 3.33679 0
M  V30 6953 H 665.381 -0.287353 6.71285 0
M  V30 6954 N 668.101 -1.57061 -0.130224 0
M  V30 6955 C 669.326 -1.88802 -0.858409 0
M  V30 6956 C 669.751 -0.734353 -1.73173 0
M  V30 6957 O 669.109 0.315529 -1.78533 0
M  V30 6958 C 669.157 -3.19228 -1.67708 0
M  V30 6959 O 668.261 -3.04343 -2.78297 0
M  V30 6960 H 667.602 -0.619849 -0.238083 0
M  V30 6961 H 670.132 -2.04271 -0.115995 0
M  V30 6962 H 670.142 -3.51669 -2.06864 0
M  V30 6963 H 668.817 -4.02793 -1.0359 0
M  V30 6964 H 667.394 -2.83346 -2.42425 0
M  V30 6965 N 669.579 0.400081 -1.52437 0
M  V30 6966 C 670.512 1.50929 -1.7116 0
M  V30 6967 C 671.49 1.52679 -0.559275 0
M  V30 6968 O 672.674 1.71251 -0.787735 0
M  V30 6969 C 669.801 2.89433 -1.75915 0
M  V30 6970 C 668.847 3.05556 -2.97553 0
M  V30 6971 S 669.68 2.77919 -4.57735 0
M  V30 6972 C 670.836 4.18636 -4.6529 0
M  V30 6973 H 671.069 1.3482 -2.64973 0
M  V30 6974 H 668.602 0.592245 -1.4259 0
M  V30 6975 H 670.56 3.69253 -1.7934 0
M  V30 6976 H 669.221 3.02877 -0.832137 0
M  V30 6977 H 668.414 4.0691 -2.97388 0
M  V30 6978 H 668.016 2.33615 -2.92062 0
M  V30 6979 H 670.308 5.12406 -4.43223 0
M  V30 6980 H 671.251 4.23821 -5.67258 0
M  V30 6981 H 671.659 4.04029 -3.94234 0
M  V30 6982 N 671.057 1.43213 0.657864 0
M  V30 6983 C 672.005 1.48271 1.79216 0
M  V30 6984 C 672.999 0.35675 1.65601 0
M  V30 6985 O 674.205 0.530535 1.72004 0
M  V30 6986 H 670.58 0.464729 0.591211 0
M  V30 6987 H 672.551 2.43792 1.7207 0
M  V30 6988 C 671.3 1.41837 3.17455 0
M  V30 6989 H 670.623 2.27781 3.28567 0
M  V30 6990 H 672.063 1.49438 3.96793 0
M  V30 6991 C 670.522 0.135347 3.36628 0
M  V30 6992 O 671.052 -0.805199 3.93547 0
M  V30 6993 N 669.258 0.0470316 2.90562 0
M  V30 6994 H 668.805 0.813221 2.44427 0
M  V30 6995 H 668.763 -0.810737 3.03767 0
M  V30 6996 N 672.536 -0.895792 1.29666 0
M  V30 6997 C 673.785 -1.64131 1.17234 0
M  V30 6998 C 674.098 -1.93665 -0.274416 0
M  V30 6999 O 675.304 -2.66472 -0.520105 0
M  V30 7000 C 673.76 -2.95764 2.05065 0
M  V30 7001 C 673.368 -2.7381 3.54587 0
M  V30 7002 C 675.112 -3.737 2.01367 0
M  V30 7003 C 673.019 -4.01194 4.34508 0
M  V30 7004 H 671.949 -0.615742 0.435175 0
M  V30 7005 H 674.6 -0.992626 1.54335 0
M  V30 7006 H 672.982 -3.61867 1.60837 0
M  V30 7007 H 674.156 -2.16277 4.06892 0
M  V30 7008 H 672.471 -2.09265 3.59996 0
M  V30 7009 H 675.068 -4.68152 2.58337 0
M  V30 7010 H 675.411 -4.04245 0.994575 0
M  V30 7011 H 675.944 -3.14444 2.43659 0
M  V30 7012 H 672.683 -3.75813 5.37071 0
M  V30 7013 H 672.203 -4.58272 3.86971 0
M  V30 7014 H 673.882 -4.69307 4.45376 0
M  V30 7015 N 674.014 -1.12206 -1.10668 0
M  V30 7016 C 675.263 -0.870595 -1.81944 0
M  V30 7017 C 675.576 0.605447 -1.85994 0
M  V30 7018 O 676.782 0.973433 -2.53449 0
M  V30 7019 C 675.238 -1.50783 -3.26791 0
M  V30 7020 C 674.846 -3.01849 -3.31046 0
M  V30 7021 C 676.59 -1.33653 -4.02911 0
M  V30 7022 C 674.497 -3.58518 -4.70339 0
M  V30 7023 H 673.427 -0.322043 -0.681765 0
M  V30 7024 H 676.078 -1.34827 -1.24475 0
M  V30 7025 H 674.46 -0.957825 -3.84242 0
M  V30 7026 H 675.634 -3.63321 -2.83433 0
M  V30 7027 H 673.949 -3.18346 -2.68411 0
M  V30 7028 H 676.546 -1.73416 -5.05797 0
M  V30 7029 H 676.889 -0.279949 -4.15358 0
M  V30 7030 H 677.422 -1.85562 -3.51868 0
M  V30 7031 H 674.161 -4.63925 -4.63091 0
M  V30 7032 H 673.681 -3.01819 -5.18329 0
M  V30 7033 H 675.36 -3.57434 -5.39305 0
M  V30 7034 N 675.492 1.28418 -0.913599 0
M  V30 7035 C 676.442 2.24928 -0.373042 0
M  V30 7036 C 677.426 1.52444 0.514753 0
M  V30 7037 O 678.618 1.73414 0.3545 0
M  V30 7038 C 675.747 3.41124 0.385896 0
M  V30 7039 C 674.833 4.20929 -0.51761 0
M  V30 7040 N 675.224 4.78777 -1.63113 0
M  V30 7041 C 673.522 4.44865 -0.317969 0
M  V30 7042 C 674.223 5.38822 -2.19193 0
M  V30 7043 N 673.199 5.22974 -1.48321 0
M  V30 7044 H 677.001 2.67224 -1.22346 0
M  V30 7045 H 674.515 1.43187 -0.766236 0
M  V30 7046 H 676.512 4.09347 0.789997 0
M  V30 7047 H 675.172 3.00362 1.23341 0
M  V30 7048 H 676.183 4.77148 -2.01372 0
M  V30 7049 H 672.86 4.14614 0.49004 0
M  V30 7050 H 674.25 5.94615 -3.12861 0
M  V30 7051 N 676.97 0.677563 1.42291 0
M  V30 7052 C 678.386 0.347376 1.55774 0
M  V30 7053 C 678.586 -1.14703 1.65667 0
M  V30 7054 O 677.642 -1.93252 1.62512 0
M  V30 7055 C 678.955 1.08011 2.80631 0
M  V30 7056 C 680.503 1.06271 2.94407 0
M  V30 7057 C 680.978 1.77683 4.22129 0
M  V30 7058 N 682.469 1.74564 4.29047 0
M  V30 7059 C 683.204 2.26673 5.26694 0
M  V30 7060 N 682.7 2.87176 6.30477 0
M  V30 7061 N 684.493 2.17032 5.18511 0
M  V30 7062 H 676.644 1.64703 1.34114 0
M  V30 7063 H 678.907 0.694038 0.645768 0
M  V30 7064 H 678.613 2.13518 2.79469 0
M  V30 7065 H 678.487 0.647115 3.71608 0
M  V30 7066 H 680.874 0.0159658 2.95096 0
M  V30 7067 H 680.955 1.53461 2.04654 0
M  V30 7068 H 680.599 2.82327 4.22201 0
M  V30 7069 H 680.529 1.2794 5.10822 0
M  V30 7070 H 683.02 1.30436 3.54676 0
M  V30 7071 H 683.333 3.24551 7.01346 0
M  V30 7072 H 681.678 2.91247 6.31031 0
M  V30 7073 H 684.869 1.69451 4.36353 0
M  V30 7074 H 685.042 2.57948 5.94446 0
M  V30 7075 N 678.448 -1.51871 0.421078 0
M  V30 7076 C 679.725 -1.9447 -0.20993 0
M  V30 7077 C 680.105 -1.35875 -1.61558 0
M  V30 7078 O 679.453 -0.539294 -2.22045 0
M  V30 7079 C 679.663 -3.48402 -0.204165 0
M  V30 7080 C 681.011 -4.2254 -0.417696 0
M  V30 7081 O 682.035 -3.55074 -0.282999 0
M  V30 7082 O 680.894 -5.422 -0.684239 0
M  V30 7083 H 677.988 -0.815283 -0.138718 0
M  V30 7084 H 680.534 -1.62832 0.477884 0
M  V30 7085 H 679.306 -3.83464 0.779183 0
M  V30 7086 H 678.929 -3.86436 -0.935576 0
M  V30 7087 N 679.926 -0.151884 -1.56866 0
M  V30 7088 C 680.856 0.781943 -2.20018 0
M  V30 7089 C 681.837 1.25347 -1.14987 0
M  V30 7090 O 683.022 1.31015 -1.43348 0
M  V30 7091 C 680.152 2.01928 -2.82564 0
M  V30 7092 C 679.106 1.68434 -3.93464 0
M  V30 7093 C 678.432 2.99472 -4.42968 0
M  V30 7094 C 679.732 0.927244 -5.14003 0
M  V30 7095 H 681.426 0.255607 -2.98307 0
M  V30 7096 H 678.972 0.121502 -1.43486 0
M  V30 7097 H 680.925 2.67741 -3.25411 0
M  V30 7098 H 679.649 2.56943 -2.01614 0
M  V30 7099 H 678.308 1.04998 -3.51242 0
M  V30 7100 H 677.956 3.52488 -3.58834 0
M  V30 7101 H 677.656 2.77823 -5.17772 0
M  V30 7102 H 679.18 3.66348 -4.88489 0
M  V30 7103 H 680.594 1.48756 -5.53665 0
M  V30 7104 H 678.991 0.810513 -5.94601 0
M  V30 7105 H 680.061 -0.0801163 -4.84834 0
M  V30 7106 N 681.404 1.57128 0.121893 0
M  V30 7107 C 682.352 2.01109 1.16868 0
M  V30 7108 C 683.346 0.907532 1.43039 0
M  V30 7109 O 684.552 1.09274 1.43036 0
M  V30 7110 H 680.927 0.640539 0.393971 0
M  V30 7111 H 682.898 2.88261 0.771224 0
M  V30 7112 C 681.647 2.42887 2.48799 0
M  V30 7113 H 680.97 3.2737 2.29498 0
M  V30 7114 H 682.41 2.77461 3.20611 0
M  V30 7115 C 680.869 1.29137 3.11168 0
M  V30 7116 O 681.399 0.605756 3.97106 0
M  V30 7117 N 679.605 1.04916 2.71 0
M  V30 7118 H 679.152 1.60848 2.01211 0
M  V30 7119 H 679.11 0.290016 3.1306 0
M  V30 7120 N 682.882 -0.391992 1.52647 0
M  V30 7121 C 684.107 -1.16312 1.71716 0
M  V30 7122 C 684.532 -1.83042 0.433279 0
M  V30 7123 O 683.89 -1.70705 -0.610707 0
M  V30 7124 C 683.938 -2.18908 2.86551 0
M  V30 7125 O 683.042 -3.2543 2.53316 0
M  V30 7126 H 682.383 -0.338743 0.571095 0
M  V30 7127 H 684.913 -0.457202 1.99426 0
M  V30 7128 H 684.923 -2.62954 3.1196 0
M  V30 7129 H 683.598 -1.69726 3.79692 0
M  V30 7130 H 682.175 -2.86543 2.38637 0
M  V30 7131 N 684.36 -1.4356 -0.65026 0
M  V30 7132 C 685.31 -1.45392 -1.75628 0
M  V30 7133 C 686.294 -0.322006 -1.57645 0
M  V30 7134 O 687.486 -0.565996 -1.67707 0
M  V30 7135 C 684.615 -1.38254 -3.1423 0
M  V30 7136 C 683.701 -2.56487 -3.3775 0
M  V30 7137 N 684.092 -3.81824 -3.31729 0
M  V30 7138 C 682.39 -2.51274 -3.6848 0
M  V30 7139 C 683.091 -4.60497 -3.55412 0
M  V30 7140 N 682.067 -3.91274 -3.77367 0
M  V30 7141 H 685.869 -2.40167 -1.69402 0
M  V30 7142 H 683.383 -1.38254 -0.852037 0
M  V30 7143 H 685.38 -1.3765 -3.9352 0
M  V30 7144 H 684.04 -0.445019 -3.21636 0
M  V30 7145 H 685.051 -4.14069 -3.11074 0
M  V30 7146 H 681.728 -1.66223 -3.82983 0
M  V30 7147 H 683.118 -5.69518 -3.5651 0
M  V30 7148 N 685.838 0.888903 -1.30139 0
M  V30 7149 C 686.786 2.0156 -1.16088 0
M  V30 7150 C 687.78 1.69239 -0.0737413 0
M  V30 7151 O 688.986 1.78468 -0.234313 0
M  V30 7152 H 685.361 0.660825 -0.358907 0
M  V30 7153 H 687.332 2.10547 -2.11453 0
M  V30 7154 C 686.081 3.36758 -0.865426 0
M  V30 7155 H 685.404 3.62137 -1.69402 0
M  V30 7156 H 686.844 4.16246 -0.807192 0
M  V30 7157 C 685.303 3.34124 0.431577 0
M  V30 7158 O 685.833 3.7445 1.45431 0
M  V30 7159 N 684.039 2.87229 0.441321 0
M  V30 7160 H 683.586 2.54609 -0.391433 0
M  V30 7161 H 683.544 2.8585 1.30909 0
M  V30 7162 N 687.317 1.12792 1.10072 0
M  V30 7163 C 688.557 0.895691 1.8373 0
M  V30 7164 C 688.921 -0.568131 1.83402 0
M  V30 7165 O 690.122 -0.917666 2.52651 0
M  V30 7166 C 688.393 1.4593 3.2625 0
M  V30 7167 S 689.952 1.36615 4.16991 0
M  V30 7168 H 686.77 0.323017 0.633389 0
M  V30 7169 H 689.372 1.43816 1.32428 0
M  V30 7170 H 688.076 2.51818 3.24062 0
M  V30 7171 H 687.607 0.914478 3.82624 0
M  V30 7172 H 689.622 0.340131 4.95033 0
M  V30 7173 N 688.795 -1.27931 0.920396 0
M  V30 7174 C 689.725 -2.29487 0.431024 0
M  V30 7175 C 690.706 -1.62435 -0.504861 0
M  V30 7176 O 691.891 -1.89797 -0.411176 0
M  V30 7177 C 689.021 -3.45788 -0.323709 0
M  V30 7178 C 687.975 -4.24784 0.523658 0
M  V30 7179 C 687.301 -5.33488 -0.359809 0
M  V30 7180 C 688.601 -4.90874 1.78437 0
M  V30 7181 H 690.295 -2.70671 1.27975 0
M  V30 7182 H 687.841 -1.30121 0.616813 0
M  V30 7183 H 689.794 -4.15927 -0.676952 0
M  V30 7184 H 688.518 -3.03502 -1.2064 0
M  V30 7185 H 687.177 -3.56382 0.85951 0
M  V30 7186 H 686.825 -4.87445 -1.24124 0
M  V30 7187 H 686.525 -5.87247 0.203605 0
M  V30 7188 H 688.049 -6.06472 -0.708787 0
M  V30 7189 H 689.463 -5.53339 1.49963 0
M  V30 7190 H 687.86 -5.54659 2.29071 0
M  V30 7191 H 688.93 -4.14988 2.50824 0
M  V30 7192 N 690.273 -0.685099 -1.4193 0
M  V30 7193 C 691.519 -0.211971 -2.01689 0
M  V30 7194 C 691.852 1.18189 -1.54094 0
M  V30 7195 O 691.127 1.79559 -0.747572 0
M  V30 7196 C 691.41 -0.258019 -3.59174 0
M  V30 7197 C 691.263 -1.68807 -4.16922 0
M  V30 7198 C 692.582 0.388044 -4.38386 0
M  V30 7199 H 689.701 -0.0784987 -0.732808 0
M  V30 7200 H 692.343 -0.871837 -1.68816 0
M  V30 7201 H 690.493 0.303832 -3.8731 0
M  V30 7202 H 692.165 -2.30296 -3.99702 0
M  V30 7203 H 690.408 -2.22553 -3.72361 0
M  V30 7204 H 691.079 -1.6719 -5.26072 0
M  V30 7205 H 693.555 -0.0903432 -4.16002 0
M  V30 7206 H 692.431 0.325232 -5.47936 0
M  V30 7207 H 692.692 1.4672 -4.17044 0
M  V30 7208 N 691.751 1.51645 -0.429126 0
M  V30 7209 C 693.167 1.59394 -0.080994 0
M  V30 7210 C 693.367 1.44064 1.40882 0
M  V30 7211 O 692.423 1.27771 2.17786 0
M  V30 7212 C 693.736 2.94779 -0.593773 0
M  V30 7213 C 695.284 3.08067 -0.553494 0
M  V30 7214 C 695.759 4.45963 -1.04311 0
M  V30 7215 N 697.25 4.5226 -1.00076 0
M  V30 7216 C 697.985 5.57268 -1.35056 0
M  V30 7217 N 697.481 6.69734 -1.77282 0
M  V30 7218 N 699.274 5.47582 -1.26925 0
M  V30 7219 H 691.425 1.59856 -1.39857 0
M  V30 7220 H 693.688 0.753095 -0.575805 0
M  V30 7221 H 693.394 3.11342 -1.63583 0
M  V30 7222 H 693.268 3.77197 -0.0142202 0
M  V30 7223 H 695.655 2.91177 0.479556 0
M  V30 7224 H 695.736 2.27508 -1.16935 0
M  V30 7225 H 695.38 4.63598 -2.07459 0
M  V30 7226 H 695.31 5.25049 -0.403873 0
M  V30 7227 H 697.801 3.71537 -0.690564 0
M  V30 7228 H 698.114 7.4587 -2.02232 0
M  V30 7229 H 696.459 6.70963 -1.81202 0
M  V30 7230 H 699.65 4.58604 -0.93809 0
M  V30 7231 H 699.823 6.29308 -1.54516 0
M  V30 7232 N 693.229 0.160201 1.56784 0
M  V30 7233 C 694.139 -0.787167 2.21 0
M  V30 7234 C 695.155 -1.26167 1.19825 0
M  V30 7235 O 696.331 -1.31611 1.52448 0
M  V30 7236 C 693.396 -2.00364 2.8294 0
M  V30 7237 C 692.457 -1.5771 3.99282 0
M  V30 7238 C 691.69 -2.73558 4.58259 0
M  V30 7239 O 691.913 -3.90129 4.16119 0
M  V30 7240 O 690.847 -2.48271 5.48311 0
M  V30 7241 H 694.673 -0.270462 3.02493 0
M  V30 7242 H 692.258 -0.0674666 1.49248 0
M  V30 7243 H 694.14 -2.71529 3.22257 0
M  V30 7244 H 692.815 -2.50961 2.04451 0
M  V30 7245 H 691.722 -0.835274 3.64656 0
M  V30 7246 H 693.055 -1.11815 4.79331 0
M  V30 7247 N 694.707 -1.5719 -0.113559 0
M  V30 7248 C 695.655 -2.01725 -1.158 0
M  V30 7249 C 696.649 -0.915105 -1.42556 0
M  V30 7250 O 697.855 -1.10031 -1.42454 0
M  V30 7251 H 694.23 -0.64262 -0.390569 0
M  V30 7252 H 696.201 -2.88666 -0.755926 0
M  V30 7253 C 694.95 -2.44203 -2.47507 0
M  V30 7254 H 694.273 -3.28582 -2.27758 0
M  V30 7255 H 695.713 -2.79158 -3.19135 0
M  V30 7256 C 694.172 -1.30785 -3.10478 0
M  V30 7257 O 694.702 -0.626807 -3.9678 0
M  V30 7258 N 692.908 -1.06352 -2.7044 0
M  V30 7259 H 692.455 -1.61913 -2.00355 0
M  V30 7260 H 692.413 -0.306614 -3.12901 0
M  V30 7261 N 696.185 0.383891 -1.52853 0
M  V30 7262 C 697.132 1.46924 -1.77995 0
M  V30 7263 C 698.102 1.53958 -0.623396 0
M  V30 7264 O 699.287 1.70134 -0.863657 0
M  V30 7265 C 696.427 2.84093 -1.95921 0
M  V30 7266 C 695.54 2.86171 -3.23621 0
M  V30 7267 C 694.675 4.14799 -3.31836 0
M  V30 7268 C 693.714 4.10948 -4.53639 0
M  V30 7269 N 692.851 5.31192 -4.59107 0
M  V30 7270 H 697.691 1.24786 -2.70615 0
M  V30 7271 H 695.228 0.605265 -1.34071 0
M  V30 7272 H 697.186 3.63755 -2.04299 0
M  V30 7273 H 695.816 3.04671 -1.06656 0
M  V30 7274 H 694.868 1.9885 -3.24288 0
M  V30 7275 H 696.18 2.79194 -4.13343 0
M  V30 7276 H 695.334 5.02867 -3.39425 0
M  V30 7277 H 694.073 4.24505 -2.40097 0
M  V30 7278 H 693.078 3.21268 -4.46169 0
M  V30 7279 H 694.303 4.0286 -5.467 0
M  V30 7280 H 692.249 5.41518 -3.70262 0
M  V30 7281 H 692.166 5.26311 -5.42708 0
M  V30 7282 H 693.434 6.21143 -4.70958 0
M  V30 7283 N 697.663 1.43903 0.642637 0
M  V30 7284 C 698.611 1.50164 1.77634 0
M  V30 7285 C 699.605 0.374294 1.65213 0
M  V30 7286 O 700.811 0.548748 1.71431 0
M  V30 7287 H 697.186 0.470974 0.586249 0
M  V30 7288 H 699.157 2.45603 1.69474 0
M  V30 7289 C 697.906 1.45196 3.15933 0
M  V30 7290 H 697.229 2.31253 3.26132 0
M  V30 7291 H 698.669 1.53638 3.95185 0
M  V30 7292 C 697.128 0.171043 3.36466 0
M  V30 7293 O 697.658 -0.763413 3.94379 0
M  V30 7294 N 695.864 0.077847 2.90496 0
M  V30 7295 H 695.411 0.8391 2.43551 0
M  V30 7296 H 695.369 -0.778473 3.0461 0
M  V30 7297 N 699.141 -0.881989 1.30609 0
M  V30 7298 C 700.387 -1.63647 1.19781 0
M  V30 7299 C 700.72 -1.92632 -0.246265 0
M  V30 7300 O 699.995 -1.54938 -1.17577 0
M  V30 7301 C 700.278 -2.97437 2.02985 0
M  V30 7302 C 700.131 -2.75406 3.55628 0
M  V30 7303 C 701.45 -3.98397 1.86997 0
M  V30 7304 H 698.569 -0.593841 0.436488 0
M  V30 7305 H 701.211 -1.02041 1.60273 0
M  V30 7306 H 699.361 -3.50018 1.68581 0
M  V30 7307 H 701.033 -2.2959 4.00107 0
M  V30 7308 H 699.276 -2.09856 3.79662 0
M  V30 7309 H 699.947 -3.70552 4.09139 0
M  V30 7310 H 702.423 -3.54986 2.17081 0
M  V30 7311 H 701.299 -4.89916 2.47536 0
M  V30 7312 H 701.56 -4.3424 0.829943 0
M  V30 7313 N 700.619 -1.13374 -1.09472 0
M  V30 7314 C 701.865 -0.896516 -1.81908 0
M  V30 7315 C 702.198 0.575933 -1.85463 0
M  V30 7316 O 701.473 1.42618 -1.32251 0
M  V30 7317 C 701.756 -1.48445 -3.28079 0
M  V30 7318 C 701.609 -3.02598 -3.32798 0
M  V30 7319 C 702.928 -1.15226 -4.24748 0
M  V30 7320 H 700.047 -0.327127 -0.660422 0
M  V30 7321 H 702.689 -1.40195 -1.2824 0
M  V30 7322 H 700.839 -1.0546 -3.73912 0
M  V30 7323 H 702.511 -3.54335 -2.95372 0
M  V30 7324 H 700.754 -3.37613 -2.72397 0
M  V30 7325 H 701.425 -3.38835 -4.3577 0
M  V30 7326 H 703.901 -1.52369 -3.87199 0
M  V30 7327 H 702.777 -1.59012 -5.25363 0
M  V30 7328 H 703.038 -0.0658891 -4.42051 0
M  V30 7329 N 702.098 1.27442 -0.927168 0
M  V30 7330 C 703.344 1.94679 -0.568164 0
M  V30 7331 C 703.677 1.72697 0.888219 0
M  V30 7332 O 702.952 1.05573 1.63354 0
M  V30 7333 C 703.235 3.4882 -0.894253 0
M  V30 7334 C 703.088 3.80146 -2.40435 0
M  V30 7335 C 704.407 4.38281 -0.399766 0
M  V30 7336 H 701.526 0.707071 -0.207892 0
M  V30 7337 H 704.168 1.50568 -1.15885 0
M  V30 7338 H 702.318 3.86522 -0.391566 0
M  V30 7339 H 703.99 3.52238 -2.97869 0
M  V30 7340 H 702.233 3.26716 -2.85375 0
M  V30 7341 H 702.904 4.87835 -2.58304 0
M  V30 7342 H 705.38 4.07726 -0.83058 0
M  V30 7343 H 704.256 5.44955 -0.656885 0
M  V30 7344 H 704.517 4.36521 0.700153 0
M  V30 7345 N 703.576 0.692616 1.41565 0
M  V30 7346 C 704.539 0.0344174 2.29174 0
M  V30 7347 C 705.539 -0.710961 1.44229 0
M  V30 7348 O 706.729 -0.546293 1.65412 0
M  V30 7349 C 703.861 -0.961682 3.27054 0
M  V30 7350 H 705.054 0.805755 2.88873 0
M  V30 7351 H 702.607 0.455947 1.49502 0
M  V30 7352 H 703.342 -1.76089 2.72329 0
M  V30 7353 H 703.127 -0.430375 3.89731 0
M  V30 7354 H 704.617 -1.4201 3.92712 0
M  V30 7355 N 705.054 -1.51416 0.437162 0
M  V30 7356 C 706.331 -1.94682 -0.189292 0
M  V30 7357 C 706.711 -1.37581 -1.60108 0
M  V30 7358 O 706.059 -0.562815 -2.2146 0
M  V30 7359 C 706.269 -3.48599 -0.167201 0
M  V30 7360 C 707.617 -4.2296 -0.372856 0
M  V30 7361 O 708.641 -3.55354 -0.245323 0
M  V30 7362 O 707.5 -5.42895 -0.626693 0
M  V30 7363 H 704.594 -0.816708 -0.130063 0
M  V30 7364 H 707.14 -1.62316 0.495128 0
M  V30 7365 H 705.912 -3.82616 0.81981 0
M  V30 7366 H 705.535 -3.87406 -0.894537 0
M  V30 7367 N 706.532 -0.168513 -1.56696 0
M  V30 7368 C 707.779 0.477158 -1.96798 0
M  V30 7369 C 708.107 1.63442 -1.05437 0
M  V30 7370 O 707.362 1.95503 -0.0878903 0
M  V30 7371 C 707.661 1.00441 -3.42996 0
M  V30 7372 C 707.327 -0.0366556 -4.50885 0
M  V30 7373 C 705.989 -0.322785 -4.80116 0
M  V30 7374 C 708.341 -0.743447 -5.1587 0
M  V30 7375 C 705.669 -1.32114 -5.71632 0
M  V30 7376 C 708.021 -1.73077 -6.08463 0
M  V30 7377 C 706.685 -2.02437 -6.36062 0
M  V30 7378 H 705.955 0.174604 -0.720135 0
M  V30 7379 H 708.602 -0.259884 -1.89728 0
M  V30 7380 H 706.907 1.81922 -3.47004 0
M  V30 7381 H 708.604 1.51294 -3.71364 0
M  V30 7382 H 705.194 0.196532 -4.28149 0
M  V30 7383 H 709.378 -0.535602 -4.93401 0
M  V30 7384 H 704.634 -1.55482 -5.913 0
M  V30 7385 H 708.808 -2.28382 -6.57886 0
M  V30 7386 H 706.435 -2.79946 -7.06777 0
M  V30 7387 N 708.01 1.57248 0.105221 0
M  V30 7388 C 709.258 1.85204 0.808951 0
M  V30 7389 C 709.579 0.75574 1.7976 0
M  V30 7390 O 708.849 -0.218984 1.94672 0
M  V30 7391 H 707.429 0.683346 0.301739 0
M  V30 7392 H 710.091 1.94695 0.0892605 0
M  V30 7393 H 709.187 2.81595 1.34575 0
M  V30 7394 N 709.488 -0.375779 1.53054 0
M  V30 7395 C 710.418 -1.46598 1.81745 0
M  V30 7396 C 711.399 -1.56337 0.670286 0
M  V30 7397 O 712.584 -1.71071 0.919158 0
M  V30 7398 C 709.714 -2.84058 1.99821 0
M  V30 7399 C 708.668 -2.8915 3.15557 0
M  V30 7400 C 707.994 -4.29187 3.18908 0
M  V30 7401 C 709.294 -2.57595 4.54359 0
M  V30 7402 H 710.988 -1.22837 2.73041 0
M  V30 7403 H 708.534 -0.589485 1.31381 0
M  V30 7404 H 710.487 -3.60342 2.18475 0
M  V30 7405 H 709.211 -3.09184 1.05226 0
M  V30 7406 H 707.87 -2.15316 2.96706 0
M  V30 7407 H 707.518 -4.51374 2.2197 0
M  V30 7408 H 707.218 -4.33512 3.96662 0
M  V30 7409 H 708.742 -5.07359 3.39734 0
M  V30 7410 H 710.156 -3.23595 4.73243 0
M  V30 7411 H 708.553 -2.73252 5.34279 0
M  V30 7412 H 709.623 -1.52882 4.60169 0
M  V30 7413 N 710.966 -1.44241 -0.634997 0
M  V30 7414 C 711.929 -1.50457 -1.72903 0
M  V30 7415 C 712.929 -0.387058 -1.56072 0
M  V30 7416 O 714.119 -0.649531 -1.61638 0
M  V30 7417 C 711.251 -1.37477 -3.1195 0
M  V30 7418 H 712.444 -2.47907 -1.68767 0
M  V30 7419 H 709.997 -1.31276 -0.84831 0
M  V30 7420 H 710.732 -0.41106 -3.21684 0
M  V30 7421 H 710.517 -2.18506 -3.25573 0
M  V30 7422 H 712.007 -1.44799 -3.91692 0
M  V30 7423 N 712.444 0.87505 -1.31075 0
M  V30 7424 C 713.86 1.15997 -1.09622 0
M  V30 7425 C 714.06 2.01036 0.136611 0
M  V30 7426 O 713.116 2.38559 0.827397 0
M  V30 7427 C 714.429 1.85702 -2.36506 0
M  V30 7428 C 715.977 1.98425 -2.42067 0
M  V30 7429 C 716.452 2.71544 -3.68819 0
M  V30 7430 N 717.943 2.79084 -3.69684 0
M  V30 7431 C 718.678 3.36259 -4.64454 0
M  V30 7432 N 718.174 3.94406 -5.69575 0
M  V30 7433 N 719.967 3.34169 -4.51982 0
M  V30 7434 H 712.118 0.308258 -2.10151 0
M  V30 7435 H 714.381 0.199145 -0.926847 0
M  V30 7436 H 714.087 1.30663 -3.26527 0
M  V30 7437 H 713.961 2.86017 -2.45915 0
M  V30 7438 H 716.348 2.5263 -1.52518 0
M  V30 7439 H 716.429 0.971682 -2.36626 0
M  V30 7440 H 716.073 2.18008 -4.58732 0
M  V30 7441 H 716.003 3.73198 -3.71525 0
M  V30 7442 H 718.494 2.3781 -2.93691 0
M  V30 7443 H 718.807 4.36129 -6.37974 0
M  V30 7444 H 717.152 3.92797 -5.73355 0
M  V30 7445 H 720.343 2.87977 -3.69035 0
M  V30 7446 H 720.516 3.78431 -5.26017 0
M  V30 7447 N 713.922 1.13953 1.08869 0
M  V30 7448 C 714.852 0.844824 2.17681 0
M  V30 7449 C 715.833 -0.198213 1.68941 0
M  V30 7450 O 717.018 -0.0559073 1.9412 0
M  V30 7451 C 714.148 0.316325 3.45856 0
M  V30 7452 C 713.102 1.29426 4.07962 0
M  V30 7453 C 712.428 0.625275 5.31031 0
M  V30 7454 C 713.728 2.65484 4.49795 0
M  V30 7455 H 715.422 1.75471 2.42591 0
M  V30 7456 H 712.968 0.845116 1.16592 0
M  V30 7457 H 714.921 0.0977876 4.21287 0
M  V30 7458 H 713.645 -0.628972 3.20486 0
M  V30 7459 H 712.304 1.49889 3.34558 0
M  V30 7460 H 711.952 -0.325678 5.01945 0
M  V30 7461 H 711.652 1.27777 5.73539 0
M  V30 7462 H 713.176 0.416152 6.0918 0
M  V30 7463 H 714.59 2.48957 5.16424 0
M  V30 7464 H 712.987 3.26963 5.03205 0
M  V30 7465 H 714.057 3.22717 3.61914 0
M  V30 7466 N 715.4 -1.26948 0.933913 0
M  V30 7467 C 716.333 -2.24977 0.382169 0
M  V30 7468 C 717.311 -1.53893 -0.524949 0
M  V30 7469 O 718.495 -1.82699 -0.464048 0
M  V30 7470 C 715.622 -3.35676 -0.451615 0
M  V30 7471 C 714.668 -4.24686 0.392947 0
M  V30 7472 S 715.501 -5.03898 1.81237 0
M  V30 7473 C 716.657 -6.18078 0.986443 0
M  V30 7474 H 716.89 -2.71429 1.21299 0
M  V30 7475 H 714.423 -1.35701 0.736523 0
M  V30 7476 H 716.381 -3.99901 -0.926797 0
M  V30 7477 H 715.042 -2.8785 -1.25703 0
M  V30 7478 H 714.235 -5.03402 -0.245533 0
M  V30 7479 H 713.837 -3.65288 0.802537 0
M  V30 7480 H 716.129 -6.77125 0.225321 0
M  V30 7481 H 717.072 -6.86216 1.74682 0
M  V30 7482 H 717.48 -5.62047 0.525711 0
M  V30 7483 N 716.879 -0.700114 -1.41195 0
M  V30 7484 C 718.125 -0.233351 -2.01453 0
M  V30 7485 C 718.458 1.16548 -1.55339 0
M  V30 7486 O 717.733 1.78756 -0.766575 0
M  V30 7487 C 718.016 -0.2961 -3.58881 0
M  V30 7488 C 717.869 -1.7322 -4.15108 0
M  V30 7489 C 719.188 0.341525 -4.38773 0
M  V30 7490 H 716.307 -0.0862667 -0.731934 0
M  V30 7491 H 718.949 -0.889693 -1.67882 0
M  V30 7492 H 717.099 0.262736 -3.87611 0
M  V30 7493 H 718.771 -2.34523 -3.97236 0
M  V30 7494 H 717.014 -2.2649 -3.69979 0
M  V30 7495 H 717.685 -1.7276 -5.24269 0
M  V30 7496 H 720.161 -0.134461 -4.15883 0
M  V30 7497 H 719.037 0.267098 -5.4825 0
M  V30 7498 H 719.298 1.42289 -4.18577 0
M  V30 7499 N 718.357 1.51182 -0.445186 0
M  V30 7500 C 719.634 1.9478 0.178965 0
M  V30 7501 C 720.014 1.38428 1.59376 0
M  V30 7502 O 719.362 0.574552 2.21159 0
M  V30 7503 C 719.572 3.48683 0.148711 0
M  V30 7504 C 720.92 4.23152 0.35042 0
M  V30 7505 O 721.944 3.55479 0.226474 0
M  V30 7506 O 720.803 5.4322 0.597893 0
M  V30 7507 H 717.897 0.817387 0.12573 0
M  V30 7508 H 720.443 1.62051 -0.503729 0
M  V30 7509 H 719.215 3.82176 -0.84009 0
M  V30 7510 H 718.838 3.87875 0.873979 0
M  V30 7511 N 719.835 0.176821 1.56605 0
M  V30 7512 C 720.745 -0.763682 2.21822 0
M  V30 7513 C 721.761 -1.24889 1.21156 0
M  V30 7514 O 722.937 -1.29987 1.53836 0
M  V30 7515 C 720.002 -1.97352 2.8505 0
M  V30 7516 C 719.063 -1.53466 4.00932 0
M  V30 7517 C 718.296 -2.68682 4.61135 0
M  V30 7518 O 718.519 -3.85694 4.20234 0
M  V30 7519 O 717.453 -2.42442 5.50913 0
M  V30 7520 H 721.279 -0.238363 3.02763 0
M  V30 7521 H 718.864 -0.0516331 1.49311 0
M  V30 7522 H 720.746 -2.68096 3.25119 0
M  V30 7523 H 719.421 -2.48779 2.07101 0
M  V30 7524 H 718.328 -0.796551 3.65521 0
M  V30 7525 H 719.661 -1.06724 4.8049 0
M  V30 7526 N 721.313 -1.57302 -0.09688 0
M  V30 7527 C 722.26 -2.01933 -1.11766 0
M  V30 7528 C 723.23 -0.895329 -1.39904 0
M  V30 7529 O 724.415 -1.16119 -1.51397 0
M  V30 7530 C 721.555 -2.44726 -2.43317 0
M  V30 7531 C 720.668 -3.70639 -2.21925 0
M  V30 7532 C 719.803 -4.02318 -3.46862 0
M  V30 7533 C 718.842 -5.21346 -3.20725 0
M  V30 7534 N 717.979 -5.48787 -4.37924 0
M  V30 7535 H 722.819 -2.88919 -0.730075 0
M  V30 7536 H 720.356 -1.42901 -0.348962 0
M  V30 7537 H 722.314 -2.6758 -3.20088 0
M  V30 7538 H 720.944 -1.60753 -2.79926 0
M  V30 7539 H 719.996 -3.55271 -1.35965 0
M  V30 7540 H 721.308 -4.57557 -1.98603 0
M  V30 7541 H 720.462 -4.25939 -4.32042 0
M  V30 7542 H 719.201 -3.13918 -3.73238 0
M  V30 7543 H 718.206 -4.97547 -2.33938 0
M  V30 7544 H 719.431 -6.11343 -2.95697 0
M  V30 7545 H 717.377 -4.63346 -4.64378 0
M  V30 7546 H 717.294 -6.30073 -4.17785 0
M  V30 7547 H 718.562 -5.76943 -5.24173 0
M  V30 7548 N 722.791 0.367657 -1.53252 0
M  V30 7549 C 724.019 1.13119 -1.73239 0
M  V30 7550 C 724.434 1.831 -0.460404 0
M  V30 7551 O 723.791 1.73483 0.566557 0
M  V30 7552 C 723.842 2.16308 -2.89643 0
M  V30 7553 O 723.563 1.49175 -4.1192 0
M  V30 7554 C 725.064 3.05224 -3.21486 0
M  V30 7555 H 722.284 0.338318 -0.579467 0
M  V30 7556 H 724.828 0.42721 -1.99988 0
M  V30 7557 H 722.983 2.82307 -2.65295 0
M  V30 7558 H 723.397 2.17912 -4.7709 0
M  V30 7559 H 724.871 3.73613 -4.06346 0
M  V30 7560 H 725.348 3.69919 -2.36763 0
M  V30 7561 H 725.954 2.44843 -3.47753 0
M  V30 7562 N 724.269 1.44576 0.627338 0
M  V30 7563 C 725.201 1.47724 1.75243 0
M  V30 7564 C 726.214 0.370193 1.58535 0
M  V30 7565 O 727.403 0.636151 1.66779 0
M  V30 7566 C 724.503 1.2991 3.13012 0
M  V30 7567 C 723.676 2.5393 3.56143 0
M  V30 7568 C 722.735 2.30961 4.72804 0
M  V30 7569 O 721.761 3.04469 4.80923 0
M  V30 7570 N 722.963 1.34261 5.6476 0
M  V30 7571 H 725.728 2.44718 1.73012 0
M  V30 7572 H 723.289 1.40064 0.812022 0
M  V30 7573 H 725.281 1.12385 3.88782 0
M  V30 7574 H 723.851 0.412668 3.09864 0
M  V30 7575 H 723.071 2.86707 2.70542 0
M  V30 7576 H 724.359 3.36411 3.81713 0
M  V30 7577 H 723.757 0.735573 5.60897 0
M  V30 7578 H 722.314 1.22713 6.40144 0
M  V30 7579 N 725.747 -0.868086 1.31537 0
M  V30 7580 C 727.158 -1.437 1.19195 0
M  V30 7581 C 727.509 -1.95169 -0.200842 0
M  V30 7582 O 726.634 -1.86432 -1.09872 0
M  V30 7583 C 727.229 -2.612 2.15778 0
M  V30 7584 C 725.788 -3.1413 2.07363 0
M  V30 7585 C 724.935 -1.86845 2.049 0
M  V30 7586 H 727.886 -0.676457 1.43561 0
M  V30 7587 H 727.907 -3.37948 1.74847 0
M  V30 7588 H 727.419 -2.23709 3.17137 0
M  V30 7589 H 725.52 -3.56238 1.09204 0
M  V30 7590 H 725.633 -3.76285 2.96557 0
M  V30 7591 H 723.997 -2.05886 1.49943 0
M  V30 7592 H 724.78 -1.51589 3.08019 0
M  V30 7593 N 727.225 -1.14528 -1.08264 0
M  V30 7594 C 728.135 -0.84728 -2.18765 0
M  V30 7595 C 729.151 0.172826 -1.7314 0
M  V30 7596 O 730.327 0.000985336 -2.014 0
M  V30 7597 C 727.392 -0.330633 -3.4512 0
M  V30 7598 C 726.453 -1.41348 -4.05363 0
M  V30 7599 C 725.686 -0.921387 -5.25686 0
M  V30 7600 O 725.909 0.236587 -5.69909 0
M  V30 7601 O 724.843 -1.70101 -5.77364 0
M  V30 7602 H 728.669 -1.7708 -2.46731 0
M  V30 7603 H 726.254 -0.923661 -1.17426 0
M  V30 7604 H 728.136 -0.0485053 -4.21372 0
M  V30 7605 H 726.811 0.565147 -3.18728 0
M  V30 7606 H 725.718 -1.74908 -3.30693 0
M  V30 7607 H 727.051 -2.28383 -4.36007 0
M  V30 7608 N 728.703 1.26451 -0.940633 0
M  V30 7609 C 729.951 1.93395 -0.586748 0
M  V30 7610 C 730.272 1.7417 0.876921 0
M  V30 7611 O 729.542 1.097 1.62304 0
M  V30 7612 H 728.122 0.715687 -0.214012 0
M  V30 7613 H 730.784 1.53902 -1.19584 0
M  V30 7614 H 729.88 3.01565 -0.804059 0
M  V30 7615 N 730.181 0.707592 1.40822 0
M  V30 7616 C 731.111 0.0644925 2.33411 0
M  V30 7617 C 732.092 -0.754205 1.52466 0
M  V30 7618 O 733.277 -0.704749 1.80961 0
M  V30 7619 C 730.407 -0.863865 3.36385 0
M  V30 7620 C 729.361 -0.15138 4.27732 0
M  V30 7621 C 728.687 -1.19491 5.21177 0
M  V30 7622 C 729.987 0.989607 5.12839 0
M  V30 7623 H 731.681 0.837829 2.87438 0
M  V30 7624 H 729.227 0.404346 1.38207 0
M  V30 7625 H 731.18 -1.32309 4.0009 0
M  V30 7626 H 729.904 -1.66901 2.80734 0
M  V30 7627 H 728.563 0.287937 3.65467 0
M  V30 7628 H 728.211 -1.9929 4.61836 0
M  V30 7629 H 727.911 -0.723123 5.83134 0
M  V30 7630 H 729.435 -1.6544 5.8776 0
M  V30 7631 H 730.849 0.610114 5.70044 0
M  V30 7632 H 729.246 1.38926 5.83798 0
M  V30 7633 H 730.316 1.82389 4.49291 0
M  V30 7634 N 731.66 -1.50943 0.453197 0
M  V30 7635 C 733.076 -1.59245 0.106342 0
M  V30 7636 C 733.276 -1.46287 -1.38572 0
M  V30 7637 O 732.332 -1.31219 -2.15726 0
M  V30 7638 C 733.645 -2.93797 0.640595 0
M  V30 7639 C 735.193 -3.07148 0.602435 0
M  V30 7640 C 735.668 -4.44247 1.11393 0
M  V30 7641 N 737.159 -4.50611 1.07258 0
M  V30 7642 C 737.894 -5.55049 1.43905 0
M  V30 7643 N 737.39 -6.66828 1.87914 0
M  V30 7644 N 739.183 -5.45494 1.35621 0
M  V30 7645 H 731.334 -1.5761 1.42382 0
M  V30 7646 H 733.597 -0.74384 0.587713 0
M  V30 7647 H 733.303 -3.087 1.68515 0
M  V30 7648 H 733.177 -3.77127 0.0742272 0
M  V30 7649 H 735.564 -2.91903 -0.433171 0
M  V30 7650 H 735.645 -2.25619 1.20539 0
M  V30 7651 H 735.289 -4.60239 2.14808 0
M  V30 7652 H 735.219 -5.2434 0.487353 0
M  V30 7653 H 737.71 -3.70391 0.749585 0
M  V30 7654 H 738.023 -7.42558 2.14072 0
M  V30 7655 H 736.368 -6.67995 1.91853 0
M  V30 7656 H 739.559 -4.57053 1.01093 0
M  V30 7657 H 739.732 -6.2677 1.64508 0
M  V30 7658 N 733.138 -0.185124 -1.56509 0
M  V30 7659 C 734.363 0.465278 -2.02114 0
M  V30 7660 C 734.788 1.55083 -1.06447 0
M  V30 7661 O 734.146 1.81241 -0.0462852 0
M  V30 7662 C 734.194 1.00784 -3.46229 0
M  V30 7663 O 733.298 2.12123 -3.53663 0
M  V30 7664 H 732.639 0.109891 -0.654843 0
M  V30 7665 H 735.169 -0.293072 -2.0249 0
M  V30 7666 H 735.179 1.32697 -3.85818 0
M  V30 7667 H 733.854 0.213113 -4.15354 0
M  V30 7668 H 732.431 1.8115 -3.25943 0
M  V30 7669 N 734.616 1.57351 0.0885366 0
M  V30 7670 C 735.546 2.05561 1.10757 0
M  V30 7671 C 736.527 0.945789 1.41382 0
M  V30 7672 O 737.712 1.21747 1.51299 0
M  V30 7673 C 734.842 2.48554 2.42566 0
M  V30 7674 C 733.796 3.63259 2.26334 0
M  V30 7675 C 733.122 3.9225 3.63378 0
M  V30 7676 C 734.422 4.93913 1.69844 0
M  V30 7677 H 736.116 2.90946 0.706468 0
M  V30 7678 H 733.662 1.39968 0.338385 0
M  V30 7679 H 735.615 2.8089 3.14132 0
M  V30 7680 H 734.339 1.60176 2.84625 0
M  V30 7681 H 732.998 3.31179 1.57213 0
M  V30 7682 H 732.646 3.0103 4.02976 0
M  V30 7683 H 732.346 4.69478 3.53362 0
M  V30 7684 H 733.87 4.27067 4.36401 0
M  V30 7685 H 735.284 5.24588 2.31258 0
M  V30 7686 H 733.681 5.75349 1.70569 0
M  V30 7687 H 734.751 4.80409 0.65843 0
M  V30 7688 N 736.094 -0.359525 1.53444 0
M  V30 7689 C 737.041 -1.44073 1.8031 0
M  V30 7690 C 738.011 -1.52946 0.647811 0
M  V30 7691 O 739.196 -1.68739 0.890614 0
M  V30 7692 C 736.336 -2.80941 2.00416 0
M  V30 7693 C 735.449 -2.80986 3.28132 0
M  V30 7694 C 734.584 -4.09468 3.38393 0
M  V30 7695 C 733.623 -4.03679 4.60119 0
M  V30 7696 N 732.76 -5.23821 4.675 0
M  V30 7697 H 737.6 -1.20464 2.72566 0
M  V30 7698 H 735.137 -0.583859 1.35017 0
M  V30 7699 H 737.095 -3.60459 2.1006 0
M  V30 7700 H 735.725 -3.02936 1.11489 0
M  V30 7701 H 734.777 -1.93666 3.27411 0
M  V30 7702 H 736.089 -2.72583 4.17732 0
M  V30 7703 H 735.243 -4.97404 3.47382 0
M  V30 7704 H 733.982 -4.20632 2.4682 0
M  V30 7705 H 732.987 -3.14129 4.51224 0
M  V30 7706 H 734.212 -3.94112 5.5304 0
M  V30 7707 H 732.158 -5.35559 3.7883 0
M  V30 7708 H 732.075 -5.17611 5.51013 0
M  V30 7709 H 733.343 -6.13572 4.8078 0
M  V30 7710 N 737.572 -1.44907 -0.619662 0
M  V30 7711 C 738.519 -1.52654 -1.73105 0
M  V30 7712 C 739.489 -0.373334 -1.6185 0
M  V30 7713 O 740.674 -0.585143 -1.81606 0
M  V30 7714 C 737.814 -1.48769 -3.11387 0
M  V30 7715 C 736.927 -2.74551 -3.33535 0
M  V30 7716 C 736.062 -2.62421 -4.61854 0
M  V30 7717 C 735.101 -3.83312 -4.77219 0
M  V30 7718 N 734.238 -3.69789 -5.96826 0
M  V30 7719 H 739.078 -2.47605 -1.65819 0
M  V30 7720 H 736.615 -1.22875 -0.808719 0
M  V30 7721 H 738.573 -1.44507 -3.91374 0
M  V30 7722 H 737.203 -0.573783 -3.1766 0
M  V30 7723 H 736.255 -2.88953 -2.47408 0
M  V30 7724 H 737.567 -3.64253 -3.40765 0
M  V30 7725 H 736.721 -2.56056 -5.50019 0
M  V30 7726 H 735.46 -1.70298 -4.57001 0
M  V30 7727 H 734.465 -3.90049 -3.87481 0
M  V30 7728 H 735.69 -4.76486 -4.83878 0
M  V30 7729 H 733.636 -2.80426 -5.93041 0
M  V30 7730 H 733.553 -4.53116 -6.05163 0
M  V30 7731 H 734.821 -3.67335 -6.87521 0
M  V30 7732 N 739.05 0.861098 -1.31996 0
M  V30 7733 C 740.461 1.43065 -1.19955 0
M  V30 7734 C 740.812 1.95273 0.190489 0
M  V30 7735 O 739.937 1.87012 1.08882 0
M  V30 7736 C 740.532 2.60052 -2.1716 0
M  V30 7737 C 739.091 3.13026 -2.09026 0
M  V30 7738 C 738.238 1.85756 -2.05888 0
M  V30 7739 H 741.189 0.668834 -1.43918 0
M  V30 7740 H 741.21 3.37016 -1.76637 0
M  V30 7741 H 740.722 2.22024 -3.18319 0
M  V30 7742 H 738.823 3.55653 -1.11092 0
M  V30 7743 H 738.936 3.74707 -2.98549 0
M  V30 7744 H 737.3 2.05088 -1.51033 0
M  V30 7745 H 738.083 1.49954 -3.08818 0
M  V30 7746 N 740.528 1.15101 1.07655 0
M  V30 7747 C 741.805 0.834578 1.76902 0
M  V30 7748 C 742.185 -0.670431 2.00171 0
M  V30 7749 O 741.533 -1.61378 1.6177 0
M  V30 7750 C 741.743 1.64191 3.07965 0
M  V30 7751 C 743.091 1.84615 3.82364 0
M  V30 7752 O 744.115 1.60941 3.17768 0
M  V30 7753 O 742.974 2.24244 4.98374 0
M  V30 7754 H 740.068 0.306608 0.768063 0
M  V30 7755 H 742.614 1.25663 1.14048 0
M  V30 7756 H 741.386 2.66386 2.86626 0
M  V30 7757 H 741.009 1.216 3.78549 0
M  V30 7758 N 742.006 -1.2595 0.947325 0
M  V30 7759 C 743.422 -1.45737 0.650597 0
M  V30 7760 C 743.622 -1.85189 -0.794188 0
M  V30 7761 O 742.678 -1.97738 -1.57022 0
M  V30 7762 C 743.991 -2.53505 1.61728 0
M  V30 7763 C 745.539 -2.67351 1.62765 0
M  V30 7764 C 746.014 -3.78296 2.58179 0
M  V30 7765 N 747.505 -3.85696 2.56501 0
M  V30 7766 C 748.24 -4.71012 3.2701 0
M  V30 7767 N 747.736 -5.60669 4.06966 0
M  V30 7768 N 749.529 -4.64912 3.15932 0
M  V30 7769 H 741.68 -0.986327 1.8811 0
M  V30 7770 H 743.943 -0.494639 0.808725 0
M  V30 7771 H 743.649 -2.31357 2.6489 0
M  V30 7772 H 743.523 -3.51281 1.3741 0
M  V30 7773 H 745.91 -2.88869 0.603241 0
M  V30 7774 H 745.991 -1.69998 1.91139 0
M  V30 7775 H 745.635 -3.5753 3.60742 0
M  V30 7776 H 745.565 -4.75117 2.27093 0
M  V30 7777 H 748.056 -3.21601 1.98447 0
M  V30 7778 H 748.369 -6.22677 4.57704 0
M  V30 7779 H 746.714 -5.60402 4.11066 0
M  V30 7780 H 749.905 -3.93874 2.52945 0
M  V30 7781 H 750.078 -5.3118 3.71149 0
M  V30 7782 N 743.484 -0.715051 -1.40445 0
M  V30 7783 C 744.431 -0.0621393 -2.30716 0
M  V30 7784 C 745.401 0.750871 -1.48159 0
M  V30 7785 O 746.586 0.714928 -1.76899 0
M  V30 7786 C 743.726 0.854036 -3.34365 0
M  V30 7787 C 742.839 0.0305565 -4.31989 0
M  V30 7788 C 741.974 0.946162 -5.22706 0
M  V30 7789 C 741.013 0.116741 -6.11989 0
M  V30 7790 N 740.15 0.987194 -6.95125 0
M  V30 7791 H 744.99 -0.83764 -2.85985 0
M  V30 7792 H 742.527 -0.424759 -1.40834 0
M  V30 7793 H 744.485 1.39946 -3.93028 0
M  V30 7794 H 743.115 1.59572 -2.806 0
M  V30 7795 H 742.167 -0.632044 -3.75112 0
M  V30 7796 H 743.479 -0.611615 -4.95036 0
M  V30 7797 H 742.633 1.56014 -5.86297 0
M  V30 7798 H 741.372 1.62216 -4.59932 0
M  V30 7799 H 740.377 -0.510176 -5.47428 0
M  V30 7800 H 741.602 -0.555742 -6.76822 0
M  V30 7801 H 739.548 1.64885 -6.3494 0
M  V30 7802 H 739.465 0.401046 -7.54936 0
M  V30 7803 H 740.733 1.58737 -7.63166 0
M  V30 7804 N 744.962 1.50701 -0.461195 0
M  V30 7805 C 745.909 2.2831 0.338094 0
M  V30 7806 C 746.879 1.32928 0.995957 0
M  V30 7807 O 748.064 1.61857 1.0103 0
M  V30 7808 C 745.204 3.14539 1.41983 0
M  V30 7809 C 744.317 4.24942 0.77773 0
M  V30 7810 C 743.452 4.98443 1.83652 0
M  V30 7811 C 742.491 6.00733 1.17413 0
M  V30 7812 N 741.628 6.6755 2.17533 0
M  V30 7813 H 746.468 2.96167 -0.330051 0
M  V30 7814 H 744.005 1.4606 -0.174611 0
M  V30 7815 H 745.963 3.62877 2.05855 0
M  V30 7816 H 744.593 2.48749 2.05727 0
M  V30 7817 H 743.645 3.80391 0.0266924 0
M  V30 7818 H 744.957 4.98151 0.254362 0
M  V30 7819 H 744.111 5.50449 2.55129 0
M  V30 7820 H 742.85 4.24917 2.39367 0
M  V30 7821 H 741.855 5.47997 0.444944 0
M  V30 7822 H 743.08 6.76227 0.624006 0
M  V30 7823 H 741.026 5.96823 2.72284 0
M  V30 7824 H 740.943 7.36603 1.70154 0
M  V30 7825 H 742.211 7.24178 2.88421 0
M  V30 7826 N 746.441 0.193421 1.56409 0
M  V30 7827 C 747.857 -0.162447 1.58771 0
M  V30 7828 C 748.057 -1.6116 1.20954 0
M  V30 7829 O 747.113 -2.3469 0.931497 0
M  V30 7830 C 748.426 0.138391 3.00381 0
M  V30 7831 C 749.974 0.0783649 3.12902 0
M  V30 7832 C 750.449 0.352491 4.56642 0
M  V30 7833 N 751.94 0.30105 4.62221 0
M  V30 7834 C 752.675 0.487028 5.71328 0
M  V30 7835 N 752.171 0.733265 6.88909 0
M  V30 7836 N 753.964 0.4214 5.60518 0
M  V30 7837 H 746.115 1.13909 1.79272 0
M  V30 7838 H 748.378 0.454528 0.83193 0
M  V30 7839 H 748.084 1.14312 3.32604 0
M  V30 7840 H 747.958 -0.559804 3.73023 0
M  V30 7841 H 750.345 -0.916963 2.80492 0
M  V30 7842 H 750.426 0.809611 2.4265 0
M  V30 7843 H 750.07 1.34513 4.89764 0
M  V30 7844 H 750 -0.399624 5.25081 0
M  V30 7845 H 752.491 0.117279 3.77718 0
M  V30 7846 H 752.804 0.86403 7.67955 0
M  V30 7847 H 751.149 0.770138 6.9072 0
M  V30 7848 H 754.34 0.229461 4.67537 0
M  V30 7849 H 754.513 0.569758 6.4549 0
M  V30 7850 N 747.919 -1.57396 -0.0801906 0
M  V30 7851 C 749.149 -1.90778 -0.792924 0
M  V30 7852 C 749.557 -0.786814 -1.72064 0
M  V30 7853 O 748.9 0.249259 -1.82001 0
M  V30 7854 C 748.962 -3.19552 -1.64702 0
M  V30 7855 C 748.626 -4.48259 -0.889567 0
M  V30 7856 C 749.623 -5.19465 -0.212602 0
M  V30 7857 C 747.308 -4.94896 -0.859229 0
M  V30 7858 C 749.302 -6.35555 0.484566 0
M  V30 7859 C 746.989 -6.10895 -0.158284 0
M  V30 7860 C 747.987 -6.81075 0.512421 0
M  V30 7861 O 747.675 -7.94862 1.20209 0
M  V30 7862 H 747.407 -0.63527 -0.231103 0
M  V30 7863 H 749.961 -2.0532 -0.0573081 0
M  V30 7864 H 748.191 -3.01196 -2.42524 0
M  V30 7865 H 749.88 -3.38649 -2.23767 0
M  V30 7866 H 750.646 -4.84467 -0.227403 0
M  V30 7867 H 746.525 -4.4015 -1.37073 0
M  V30 7868 H 750.069 -6.9027 1.00864 0
M  V30 7869 H 745.966 -6.45345 -0.141381 0
M  V30 7870 H 746.734 -8.10932 1.11051 0
M  V30 7871 N 749.397 0.351382 -1.53633 0
M  V30 7872 C 750.625 1.11275 -1.74429 0
M  V30 7873 C 751.04 1.82602 -0.479798 0
M  V30 7874 O 750.397 1.74074 0.548125 0
M  V30 7875 C 750.448 2.13223 -2.91921 0
M  V30 7876 O 750.169 1.44798 -4.13479 0
M  V30 7877 C 751.67 3.01797 -3.24706 0
M  V30 7878 H 748.89 0.332153 -0.583023 0
M  V30 7879 H 751.434 0.405974 -2.0043 0
M  V30 7880 H 749.589 2.79477 -2.68274 0
M  V30 7881 H 750.003 2.12839 -4.79374 0
M  V30 7882 H 751.477 3.69282 -4.10286 0
M  V30 7883 H 751.954 3.67387 -2.40673 0
M  V30 7884 H 752.56 2.41141 -3.5033 0
M  V30 7885 N 750.875 1.45233 0.611969 0
M  V30 7886 C 752.121 1.49242 1.37312 0
M  V30 7887 C 752.454 0.131963 1.93751 0
M  V30 7888 O 751.729 -0.852999 1.74798 0
M  V30 7889 C 752.012 2.56811 2.52428 0
M  V30 7890 C 751.865 4.02284 2.01215 0
M  V30 7891 C 753.184 2.60705 3.54572 0
M  V30 7892 H 750.303 0.54336 0.497925 0
M  V30 7893 H 752.945 1.77019 0.690242 0
M  V30 7894 H 751.095 2.33256 3.10683 0
M  V30 7895 H 752.767 4.37035 1.47643 0
M  V30 7896 H 751.01 4.1315 1.32248 0
M  V30 7897 H 751.681 4.7323 2.84178 0
M  V30 7898 H 754.157 2.81799 3.06151 0
M  V30 7899 H 753.033 3.37841 4.32614 0
M  V30 7900 H 753.294 1.65627 4.09903 0
M  V30 7901 N 752.353 -0.854086 1.3245 0
M  V30 7902 C 753.599 -1.61069 1.23225 0
M  V30 7903 C 753.932 -1.93111 -0.205349 0
M  V30 7904 O 753.207 -1.57397 -1.14265 0
M  V30 7905 C 753.49 -2.93065 2.09249 0
M  V30 7906 C 753.343 -2.67801 3.6139 0
M  V30 7907 C 754.662 -3.94341 1.95406 0
M  V30 7908 H 751.781 -0.584449 0.448986 0
M  V30 7909 H 754.423 -0.986189 1.62402 0
M  V30 7910 H 752.573 -3.46364 1.75967 0
M  V30 7911 H 754.245 -2.21052 4.04887 0
M  V30 7912 H 752.488 -2.01756 3.84027 0
M  V30 7913 H 753.159 -3.6179 4.16907 0
M  V30 7914 H 755.635 -3.50301 2.24562 0
M  V30 7915 H 754.511 -4.84555 2.57872 0
M  V30 7916 H 754.772 -4.32382 0.921865 0
M  V30 7917 N 753.831 -1.1567 -1.07043 0
M  V30 7918 C 755.079 -0.931673 -1.79344 0
M  V30 7919 C 755.4 0.542421 -1.87304 0
M  V30 7920 O 754.67 1.39418 -1.37621 0
M  V30 7921 H 753.25 -0.34171 -0.664262 0
M  V30 7922 H 755.912 -1.45795 -1.29344 0
M  V30 7923 H 755.008 -1.34379 -2.81689 0
M  V30 7924 N 755.309 1.25446 -0.953992 0
M  V30 7925 C 756.257 2.27909 -0.46478 0
M  V30 7926 C 757.251 1.62904 0.464607 0
M  V30 7927 O 758.457 1.76733 0.341407 0
M  V30 7928 H 754.832 0.74036 -0.131798 0
M  V30 7929 H 756.803 2.66559 -1.34122 0
M  V30 7930 C 755.552 3.46853 0.242589 0
M  V30 7931 H 754.875 3.97105 -0.463418 0
M  V30 7932 H 756.315 4.20432 0.548919 0
M  V30 7933 C 754.774 3.03386 1.46487 0
M  V30 7934 O 755.304 3.09342 2.56262 0
M  V30 7935 N 753.51 2.58584 1.32599 0
M  V30 7936 H 753.057 2.53938 0.432834 0
M  V30 7937 H 753.015 2.29866 2.14497 0
M  V30 7938 N 756.787 0.722489 1.40064 0
M  V30 7939 C 758.198 0.336507 1.83642 0
M  V30 7940 C 758.549 -1.13002 1.6039 0
M  V30 7941 O 757.674 -1.87036 1.08842 0
M  V30 7942 C 758.269 0.603985 3.33373 0
M  V30 7943 C 756.828 0.271637 3.75419 0
M  V30 7944 C 755.975 0.872898 2.63203 0
M  V30 7945 H 758.926 0.921108 1.29233 0
M  V30 7946 H 758.947 -0.128471 3.80283 0
M  V30 7947 H 758.459 1.67141 3.50265 0
M  V30 7948 H 756.56 -0.790455 3.64119 0
M  V30 7949 H 756.673 0.745457 4.73265 0
M  V30 7950 H 755.037 0.300431 2.52922 0
M  V30 7951 H 755.82 1.94473 2.82905 0
M  V30 7952 N 758.265 -1.50454 0.469181 0
M  V30 7953 C 759.495 -2.06429 -0.0840913 0
M  V30 7954 C 759.903 -1.3334 -1.34227 0
M  V30 7955 O 759.246 -0.395656 -1.79389 0
M  V30 7956 C 759.308 -3.56797 -0.440049 0
M  V30 7957 C 758.972 -4.51359 0.715838 0
M  V30 7958 C 759.969 -4.94754 1.59732 0
M  V30 7959 C 757.654 -4.94069 0.905621 0
M  V30 7960 C 759.648 -5.79564 2.653 0
M  V30 7961 C 757.335 -5.78662 1.96453 0
M  V30 7962 C 758.333 -6.21311 2.83658 0
M  V30 7963 O 758.021 -7.04218 3.87727 0
M  V30 7964 H 757.753 -0.675994 0.00289751 0
M  V30 7965 H 760.307 -1.94629 0.656417 0
M  V30 7966 H 758.537 -3.66492 -1.23372 0
M  V30 7967 H 760.226 -3.95145 -0.928181 0
M  V30 7968 H 760.992 -4.62428 1.46237 0
M  V30 7969 H 756.871 -4.60394 0.236326 0
M  V30 7970 H 760.415 -6.12774 3.33398 0
M  V30 7971 H 756.312 -6.10401 2.09955 0
M  V30 7972 H 757.08 -7.22464 3.84692 0
M  V30 7973 N 759.743 -0.201713 -1.56304 0
M  V30 7974 C 760.989 0.429292 -1.98818 0
M  V30 7975 C 761.344 1.58779 -1.08659 0
M  V30 7976 O 760.637 1.91142 -0.132365 0
M  V30 7977 C 760.831 0.931432 -3.45049 0
M  V30 7978 C 760.66 -0.176878 -4.49352 0
M  V30 7979 C 759.43 -0.636712 -5.01272 0
M  V30 7980 C 761.628 -0.988177 -5.04717 0
M  V30 7981 N 759.61 -1.72215 -5.8925 0
M  V30 7982 C 760.981 -1.92288 -5.89428 0
M  V30 7983 C 763.036 -1.02985 -4.87133 0
M  V30 7984 C 761.739 -2.89582 -6.58434 0
M  V30 7985 C 763.765 -1.99087 -5.56883 0
M  V30 7986 C 763.127 -2.913 -6.41345 0
M  V30 7987 H 759.226 0.124322 -0.772054 0
M  V30 7988 H 761.81 -0.308929 -1.92234 0
M  V30 7989 H 759.981 1.63907 -3.52121 0
M  V30 7990 H 761.713 1.5336 -3.74517 0
M  V30 7991 H 758.468 -0.228861 -4.73047 0
M  V30 7992 H 758.892 -2.26627 -6.37941 0
M  V30 7993 H 763.534 -0.330894 -4.21503 0
M  V30 7994 H 761.252 -3.6045 -7.23258 0
M  V30 7995 H 764.838 -2.0296 -5.45251 0
M  V30 7996 H 763.718 -3.6445 -6.94367 0
M  V30 7997 N 761.222 1.57436 0.0718424 0
M  V30 7998 C 762.155 1.98982 1.11721 0
M  V30 7999 C 763.133 0.866731 1.37574 0
M  V30 8000 O 764.317 1.12903 1.50948 0
M  V30 8001 C 761.444 2.32648 2.46155 0
M  V30 8002 C 760.49 3.54964 2.36437 0
M  V30 8003 S 761.323 5.05802 1.75854 0
M  V30 8004 C 762.479 5.42669 3.11867 0
M  V30 8005 H 762.712 2.87338 0.763154 0
M  V30 8006 H 760.245 1.51833 0.280372 0
M  V30 8007 H 762.203 2.52719 3.23486 0
M  V30 8008 H 760.864 1.44821 2.78722 0
M  V30 8009 H 760.057 3.76038 3.35577 0
M  V30 8010 H 759.659 3.34524 1.67242 0
M  V30 8011 H 761.951 5.40737 4.08178 0
M  V30 8012 H 762.894 6.43461 2.95573 0
M  V30 8013 H 763.302 4.70131 3.1247 0
M  V30 8014 N 762.7 -0.34323 1.53817 0
M  V30 8015 C 763.663 -1.40444 1.8113 0
M  V30 8016 C 764.663 -1.45604 0.682366 0
M  V30 8017 O 765.853 -1.45974 0.950649 0
M  V30 8018 C 762.985 -2.79369 1.95361 0
M  V30 8019 H 764.178 -1.17489 2.75928 0
M  V30 8020 H 761.731 -0.577636 1.45234 0
M  V30 8021 H 762.466 -3.07607 1.02707 0
M  V30 8022 H 762.251 -2.7702 2.77493 0
M  V30 8023 H 763.741 -3.56178 2.18008 0
M  V30 8024 N 764.178 -1.45556 -0.604258 0
M  V30 8025 C 765.589 -1.44171 -1.18624 0
M  V30 8026 C 765.94 -0.171081 -1.95453 0
M  V30 8027 O 765.065 0.727156 -2.03817 0
M  V30 8028 C 765.66 -2.61193 -2.15786 0
M  V30 8029 C 764.219 -2.62918 -2.69353 0
M  V30 8030 C 763.366 -2.36479 -1.4482 0
M  V30 8031 H 766.317 -1.53747 -0.393381 0
M  V30 8032 H 766.338 -2.35481 -2.98879 0
M  V30 8033 H 765.85 -3.53656 -1.59841 0
M  V30 8034 H 763.951 -1.7447 -3.29228 0
M  V30 8035 H 764.064 -3.6224 -3.13559 0
M  V30 8036 H 762.428 -1.86103 -1.73891 0
M  V30 8037 H 763.211 -3.31091 -0.907376 0
M  V30 8038 N 765.656 0.84705 -1.32902 0
M  V30 8039 C 766.566 1.98845 -1.2449 0
M  V30 8040 C 767.582 1.7329 -0.15702 0
M  V30 8041 O 768.758 1.978 -0.379104 0
M  V30 8042 C 765.823 3.32679 -0.975985 0
M  V30 8043 C 764.884 3.71405 -2.15306 0
M  V30 8044 C 764.117 4.98853 -1.89688 0
M  V30 8045 O 764.34 5.64134 -0.843168 0
M  V30 8046 O 763.274 5.34889 -2.76002 0
M  V30 8047 H 767.1 2.0888 -2.2046 0
M  V30 8048 H 764.685 0.978852 -1.12867 0
M  V30 8049 H 766.567 4.12885 -0.842826 0
M  V30 8050 H 765.242 3.23667 -0.0464954 0
M  V30 8051 H 764.149 2.91743 -2.34172 0
M  V30 8052 H 765.482 3.85073 -3.06561 0
M  V30 8053 N 767.134 1.16236 1.06428 0
M  V30 8054 C 768.067 0.81119 2.13295 0
M  V30 8055 C 769.045 -0.216555 1.61151 0
M  V30 8056 O 770.229 -0.100949 1.88229 0
M  V30 8057 C 767.356 0.207901 3.38061 0
M  V30 8058 C 766.402 1.20904 4.09004 0
M  V30 8059 S 767.235 2.75513 4.59187 0
M  V30 8060 C 768.391 2.1663 5.87216 0
M  V30 8061 H 768.624 1.71632 2.42755 0
M  V30 8062 H 766.157 0.985693 1.18842 0
M  V30 8063 H 768.115 -0.133715 4.10282 0
M  V30 8064 H 766.776 -0.67497 3.06762 0
M  V30 8065 H 765.969 0.735326 4.98607 0
M  V30 8066 H 765.571 1.49567 3.42791 0
M  V30 8067 H 767.863 1.53413 6.59902 0
M  V30 8068 H 768.806 3.04437 6.39315 0
M  V30 8069 H 769.214 1.60565 5.41183 0
M  V30 8070 N 768.612 -1.24939 0.960631 0
M  V30 8071 C 769.861 -1.92118 0.614298 0
M  V30 8072 C 770.174 -1.75998 -0.853474 0
M  V30 8073 O 771.38 -2.37804 -1.31003 0
M  V30 8074 C 769.836 -3.44303 1.04801 0
M  V30 8075 C 769.444 -3.69123 2.53875 0
M  V30 8076 C 771.188 -4.17375 0.774497 0
M  V30 8077 C 769.095 -5.14843 2.91016 0
M  V30 8078 H 768.025 -0.719319 0.226045 0
M  V30 8079 H 770.676 -1.41701 1.16589 0
M  V30 8080 H 769.058 -3.93715 0.42479 0
M  V30 8081 H 770.232 -3.30339 3.21267 0
M  V30 8082 H 768.547 -3.09323 2.78762 0
M  V30 8083 H 771.144 -5.24723 1.02808 0
M  V30 8084 H 771.487 -4.15294 -0.289192 0
M  V30 8085 H 772.02 -3.7389 1.35835 0
M  V30 8086 H 768.759 -5.2204 3.96427 0
M  V30 8087 H 768.279 -5.54652 2.28302 0
M  V30 8088 H 769.958 -5.83017 2.80535 0
M  V30 8089 N 770.09 -0.729906 -1.39679 0
M  V30 8090 C 771.038 -0.0756589 -2.32477 0
M  V30 8091 C 772.032 0.731438 -1.52795 0
M  V30 8092 O 773.238 0.633195 -1.68495 0
M  V30 8093 H 769.613 -0.00566492 -0.751979 0
M  V30 8094 H 771.584 -0.874797 -2.85289 0
M  V30 8095 C 770.333 0.821313 -3.37861 0
M  V30 8096 H 769.656 0.209666 -3.9925 0
M  V30 8097 H 771.096 1.24679 -4.05254 0
M  V30 8098 C 769.555 1.9533 -2.74495 0
M  V30 8099 O 770.085 3.04548 -2.61942 0
M  V30 8100 N 768.291 1.74119 -2.3266 0
M  V30 8101 H 767.838 0.852908 -2.4307 0
M  V30 8102 H 767.796 2.50036 -1.90603 0
M  V30 8103 N 771.568 1.50203 -0.477153 0
M  V30 8104 C 772.816 2.01959 0.0755889 0
M  V30 8105 C 773.137 1.3608 1.39668 0
M  V30 8106 O 772.407 0.508136 1.89195 0
M  V30 8107 H 770.987 0.74636 0.0309248 0
M  V30 8108 H 773.649 1.84473 -0.628959 0
M  V30 8109 H 772.745 3.11305 0.222683 0
M  V30 8110 N 773.046 0.209999 1.56195 0
M  V30 8111 C 774.462 -0.145598 1.58934 0
M  V30 8112 C 774.662 -1.59868 1.22656 0
M  V30 8113 O 773.718 -2.33689 0.956336 0
M  V30 8114 C 775.031 0.170243 3.00218 0
M  V30 8115 C 776.579 0.111548 3.12801 0
M  V30 8116 C 777.054 0.400904 4.56242 0
M  V30 8117 N 778.545 0.350058 4.61875 0
M  V30 8118 C 779.28 0.547598 5.70779 0
M  V30 8119 N 778.776 0.806291 6.88092 0
M  V30 8120 N 780.569 0.480827 5.6004 0
M  V30 8121 H 772.72 1.15804 1.78054 0
M  V30 8122 H 774.983 0.463326 0.827063 0
M  V30 8123 H 774.689 1.17833 3.31373 0
M  V30 8124 H 774.563 -0.520208 3.73596 0
M  V30 8125 H 776.95 -0.887162 2.81449 0
M  V30 8126 H 777.031 0.835302 2.41777 0
M  V30 8127 H 776.675 1.397 4.8831 0
M  V30 8128 H 776.605 -0.34391 5.25476 0
M  V30 8129 H 779.096 0.157334 3.77572 0
M  V30 8130 H 779.409 0.945433 7.66995 0
M  V30 8131 H 777.754 0.843355 6.89864 0
M  V30 8132 H 780.945 0.279037 4.67268 0
M  V30 8133 H 781.118 0.638189 6.4485 0
M  V30 8134 N 774.524 -1.57472 -0.0634922 0
M  V30 8135 C 775.749 -1.92273 -0.77756 0
M  V30 8136 C 776.174 -0.807141 -1.69902 0
M  V30 8137 O 775.532 0.239523 -1.79711 0
M  V30 8138 C 775.58 -3.26054 -1.54017 0
M  V30 8139 O 774.684 -3.15873 -2.65138 0
M  V30 8140 H 774.025 -0.629389 -0.211579 0
M  V30 8141 H 776.555 -2.04579 -0.0292523 0
M  V30 8142 H 776.565 -3.60127 -1.91763 0
M  V30 8143 H 775.24 -4.06824 -0.864128 0
M  V30 8144 H 773.817 -2.93373 -2.30189 0
M  V30 8145 N 776.003 0.335068 -1.53997 0
M  V30 8146 C 777.233 1.0926 -1.75345 0
M  V30 8147 C 777.641 1.82568 -0.496545 0
M  V30 8148 O 776.984 1.75525 0.541897 0
M  V30 8149 C 777.046 2.14473 -2.88516 0
M  V30 8150 C 776.71 1.60665 -4.27827 0
M  V30 8151 C 777.707 1.05448 -5.09094 0
M  V30 8152 C 775.392 1.65255 -4.74337 0
M  V30 8153 C 777.386 0.555372 -6.34976 0
M  V30 8154 C 775.073 1.14956 -6.0019 0
M  V30 8155 C 776.071 0.601907 -6.80343 0
M  V30 8156 O 775.759 0.106445 -8.0383 0
M  V30 8157 H 775.491 0.331329 -0.589234 0
M  V30 8158 H 778.045 0.39042 -2.01655 0
M  V30 8159 H 776.275 2.88274 -2.5775 0
M  V30 8160 H 777.964 2.75857 -2.97755 0
M  V30 8161 H 778.73 1.01218 -4.74321 0
M  V30 8162 H 774.609 2.06822 -4.12002 0
M  V30 8163 H 778.153 0.127245 -6.97484 0
M  V30 8164 H 774.05 1.18891 -6.34457 0
M  V30 8165 H 774.818 0.222944 -8.18196 0
M  V30 8166 N 777.481 1.45874 0.596531 0
M  V30 8167 C 778.758 1.40942 1.35627 0
M  V30 8168 C 779.138 0.0857066 2.10926 0
M  V30 8169 O 778.486 -0.932544 2.08605 0
M  V30 8170 C 778.696 2.63027 2.29386 0
M  V30 8171 C 780.044 3.08588 2.91649 0
M  V30 8172 O 781.068 2.63478 2.39704 0
M  V30 8173 O 779.927 3.86902 3.85965 0
M  V30 8174 H 777.021 0.559838 0.608696 0
M  V30 8175 H 779.567 1.5802 0.618698 0
M  V30 8176 H 778.339 3.5094 1.7308 0
M  V30 8177 H 777.962 2.48338 3.10506 0
M  V30 8178 N 778.959 -0.83999 1.33349 0
M  V30 8179 C 779.869 -1.98182 1.25543 0
M  V30 8180 C 780.885 -1.73204 0.166208 0
M  V30 8181 O 782.061 -1.97596 0.389589 0
M  V30 8182 C 779.126 -3.32157 0.993614 0
M  V30 8183 C 778.187 -3.70258 2.17273 0
M  V30 8184 C 777.42 -4.9784 1.92331 0
M  V30 8185 O 777.643 -5.63679 0.873074 0
M  V30 8186 O 776.577 -5.33418 2.78835 0
M  V30 8187 H 780.403 -2.07708 2.21565 0
M  V30 8188 H 777.988 -0.972852 1.13384 0
M  V30 8189 H 779.87 -4.12433 0.864711 0
M  V30 8190 H 778.545 -3.23637 0.0636596 0
M  V30 8191 H 777.452 -2.90497 2.35716 0
M  V30 8192 H 778.785 -3.83442 3.08598 0
M  V30 8193 N 780.437 -1.16799 -1.0581 0
M  V30 8194 C 781.384 -0.87902 -2.13405 0
M  V30 8195 C 782.354 0.174541 -1.6518 0
M  V30 8196 O 783.539 0.0386843 -1.90761 0
M  V30 8197 C 780.679 -0.391616 -3.42871 0
M  V30 8198 C 779.792 -1.50857 -4.04804 0
M  V30 8199 C 778.927 -0.975682 -5.22163 0
M  V30 8200 C 777.966 -2.06851 -5.76089 0
M  V30 8201 N 777.103 -1.55085 -6.84758 0
M  V30 8202 H 781.943 -1.80043 -2.37463 0
M  V30 8203 H 779.48 -0.898083 -1.16503 0
M  V30 8204 H 781.438 -0.0906247 -4.17102 0
M  V30 8205 H 780.068 0.49284 -3.19016 0
M  V30 8206 H 779.12 -1.92542 -3.28073 0
M  V30 8207 H 780.432 -2.33305 -4.40874 0
M  V30 8208 H 779.586 -0.628165 -6.03439 0
M  V30 8209 H 778.325 -0.120566 -4.87551 0
M  V30 8210 H 777.33 -2.42467 -4.93447 0
M  V30 8211 H 778.555 -2.92768 -6.12751 0
M  V30 8212 H 776.501 -0.718345 -6.52055 0
M  V30 8213 H 776.418 -2.31145 -7.19797 0
M  V30 8214 H 777.686 -1.23206 -7.69702 0
M  V30 8215 N 781.915 1.24427 -0.967243 0
M  V30 8216 C 783.161 1.92772 -0.629812 0
M  V30 8217 C 783.494 1.75436 0.832827 0
M  V30 8218 O 782.769 1.10716 1.59913 0
M  V30 8219 C 783.052 3.45798 -1.00477 0
M  V30 8220 C 782.905 3.72304 -2.52407 0
M  V30 8221 C 784.224 4.36787 -0.538999 0
M  V30 8222 H 781.343 0.700099 -0.230282 0
M  V30 8223 H 783.985 1.46805 -1.20616 0
M  V30 8224 H 782.135 3.8508 -0.514336 0
M  V30 8225 H 783.807 3.42584 -3.08924 0
M  V30 8226 H 782.05 3.17472 -2.95625 0
M  V30 8227 H 782.721 4.7937 -2.73693 0
M  V30 8228 H 785.197 4.04877 -0.959874 0
M  V30 8229 H 784.073 5.4259 -0.829926 0
M  V30 8230 H 784.334 4.38527 0.560923 0
M  V30 8231 N 783.393 0.737304 1.3929 0
M  V30 8232 C 784.67 0.212464 1.94443 0
M  V30 8233 C 785.05 -1.28621 1.67391 0
M  V30 8234 O 784.398 -2.0529 1.00342 0
M  V30 8235 C 784.608 0.548565 3.44662 0
M  V30 8236 C 785.956 0.499177 4.21656 0
M  V30 8237 O 786.98 0.485892 3.5287 0
M  V30 8238 O 785.839 0.495739 5.44247 0
M  V30 8239 H 782.933 0.0395457 0.826054 0
M  V30 8240 H 785.479 0.816319 1.48776 0
M  V30 8241 H 784.251 1.58426 3.57795 0
M  V30 8242 H 783.874 -0.0841399 3.97511 0
M  V30 8243 N 784.871 -1.49948 0.485112 0
M  V30 8244 C 786.117 -2.02695 -0.0651022 0
M  V30 8245 C 786.45 -1.36534 -1.38102 0
M  V30 8246 O 785.725 -0.495677 -1.88078 0
M  V30 8247 C 786.008 -3.59337 -0.234285 0
M  V30 8248 C 785.861 -4.3605 1.10364 0
M  V30 8249 C 787.18 -4.28996 -0.982351 0
M  V30 8250 H 784.299 -0.736666 -0.0221856 0
M  V30 8251 H 786.941 -1.7913 0.633433 0
M  V30 8252 H 785.091 -3.79546 -0.829262 0
M  V30 8253 H 786.763 -4.27377 1.73627 0
M  V30 8254 H 785.006 -3.99236 1.69686 0
M  V30 8255 H 785.677 -5.43959 0.938743 0
M  V30 8256 H 788.153 -4.13346 -0.477904 0
M  V30 8257 H 787.029 -5.38379 -1.06955 0
M  V30 8258 H 787.29 -3.93135 -2.02231 0
M  V30 8259 N 786.349 -0.21828 -1.56081 0
M  V30 8260 C 787.596 0.414307 -1.98216 0
M  V30 8261 C 787.924 1.60005 -1.10584 0
M  V30 8262 O 787.179 1.95124 -0.150043 0
M  V30 8263 C 787.478 0.894782 -3.46018 0
M  V30 8264 C 787.144 -0.180083 -4.5054 0
M  V30 8265 C 785.806 -0.475367 -4.78846 0
M  V30 8266 C 788.158 -0.907191 -5.13244 0
M  V30 8267 C 785.486 -1.50233 -5.67139 0
M  V30 8268 C 787.838 -1.92347 -6.02649 0
M  V30 8269 C 786.502 -2.22571 -6.293 0
M  V30 8270 H 785.772 0.151606 -0.725325 0
M  V30 8271 H 788.419 -0.320113 -1.88806 0
M  V30 8272 H 786.724 1.7079 -3.52616 0
M  V30 8273 H 788.421 1.39403 -3.75989 0
M  V30 8274 H 785.011 0.06022 -4.28558 0
M  V30 8275 H 789.195 -0.692303 -4.91448 0
M  V30 8276 H 784.451 -1.74215 -5.86054 0
M  V30 8277 H 788.625 -2.49197 -6.50288 0
M  V30 8278 H 786.252 -3.0229 -6.97513 0
M  V30 8279 N 787.827 1.57504 0.0551401 0
M  V30 8280 C 789.052 1.92682 0.767352 0
M  V30 8281 C 789.477 0.81614 1.69472 0
M  V30 8282 O 788.835 -0.229989 1.79835 0
M  V30 8283 C 788.883 3.26866 1.52286 0
M  V30 8284 O 787.987 3.17274 2.63459 0
M  V30 8285 H 787.328 0.630502 0.208238 0
M  V30 8286 H 789.858 2.04592 0.0184026 0
M  V30 8287 H 789.868 3.61138 1.8985 0
M  V30 8288 H 788.543 4.07276 0.842541 0
M  V30 8289 H 787.12 2.94589 2.2863 0
M  V30 8290 N 789.305 -0.326896 1.54172 0
M  V30 8291 C 790.552 -1.06523 1.72218 0
M  V30 8292 C 790.88 -1.88119 0.494114 0
M  V30 8293 O 790.135 -1.8855 -0.524147 0
M  V30 8294 C 790.434 -2.0208 2.94785 0
M  V30 8295 C 790.1 -1.36665 4.2969 0
M  V30 8296 C 788.762 -1.18556 4.66367 0
M  V30 8297 C 791.114 -0.896868 5.13425 0
M  V30 8298 C 788.442 -0.521113 5.84381 0
M  V30 8299 C 790.794 -0.246261 6.3212 0
M  V30 8300 C 789.458 -0.052987 6.67479 0
M  V30 8301 H 788.728 -0.389796 0.63019 0
M  V30 8302 H 791.375 -0.342725 1.88408 0
M  V30 8303 H 789.68 -2.8077 2.73268 0
M  V30 8304 H 791.377 -2.59231 3.05941 0
M  V30 8305 H 787.967 -1.51762 4.00832 0
M  V30 8306 H 792.151 -1.02458 4.85609 0
M  V30 8307 H 787.407 -0.36014 6.10338 0
M  V30 8308 H 791.581 0.125775 6.96286 0
M  V30 8309 H 789.208 0.463903 7.58783 0
M  V30 8310 N 790.784 -1.46188 -0.588786 0
M  V30 8311 C 792.032 -1.50885 -1.34455 0
M  V30 8312 C 792.353 -0.159555 -1.94346 0
M  V30 8313 O 791.623 0.813239 -1.78222 0
M  V30 8314 H 790.203 -0.555707 -0.499198 0
M  V30 8315 H 792.865 -1.82277 -0.690014 0
M  V30 8316 H 791.961 -2.25816 -2.15438 0
M  V30 8317 N 792.262 0.832906 -1.33792 0
M  V30 8318 C 793.511 1.58351 -1.24932 0
M  V30 8319 C 793.824 1.94754 0.181703 0
M  V30 8320 O 795.03 2.6865 0.392375 0
M  V30 8321 C 793.486 2.85643 -2.18943 0
M  V30 8322 C 793.094 2.56581 -3.67247 0
M  V30 8323 C 794.838 3.63667 -2.18968 0
M  V30 8324 C 792.745 3.80006 -4.53155 0
M  V30 8325 H 791.675 0.594278 -0.464058 0
M  V30 8326 H 794.326 0.91786 -1.58895 0
M  V30 8327 H 792.708 3.53781 -1.77919 0
M  V30 8328 H 793.882 1.96617 -4.16747 0
M  V30 8329 H 792.197 1.91851 -3.6957 0
M  V30 8330 H 794.794 4.55293 -2.80379 0
M  V30 8331 H 795.137 3.99039 -1.18631 0
M  V30 8332 H 795.67 3.0246 -2.58384 0
M  V30 8333 H 792.409 3.4976 -5.5439 0
M  V30 8334 H 791.929 4.39288 -4.08395 0
M  V30 8335 H 793.608 4.47523 -4.6726 0
M  V30 8336 N 793.74 1.17359 1.05189 0
M  V30 8337 C 794.986 0.963413 1.78455 0
M  V30 8338 C 795.319 -0.506703 1.87473 0
M  V30 8339 O 794.594 -1.37611 1.37453 0
M  V30 8340 C 794.877 1.60519 3.22344 0
M  V30 8341 C 794.73 3.14741 3.21338 0
M  V30 8342 C 796.049 1.3091 4.20179 0
M  V30 8343 H 793.168 0.351412 0.647826 0
M  V30 8344 H 795.81 1.44858 1.22948 0
M  V30 8345 H 793.96 1.19265 3.69741 0
M  V30 8346 H 795.632 3.65053 2.82017 0
M  V30 8347 H 793.875 3.4749 2.59679 0
M  V30 8348 H 794.546 3.54775 4.22894 0
M  V30 8349 H 797.022 1.66635 3.81277 0
M  V30 8350 H 795.898 1.784 5.191 0
M  V30 8351 H 796.159 0.229908 4.41502 0
M  V30 8352 N 795.218 -1.23913 0.973828 0
M  V30 8353 C 796.148 -2.27453 0.527969 0
M  V30 8354 C 797.129 -1.6443 -0.435513 0
M  V30 8355 O 798.314 -1.9137 -0.330306 0
M  V30 8356 C 795.444 -3.4685 -0.176757 0
M  V30 8357 C 794.398 -4.22181 0.703352 0
M  V30 8358 C 793.724 -5.34534 -0.133215 0
M  V30 8359 C 795.024 -4.82865 1.99096 0
M  V30 8360 H 796.718 -2.65 1.3934 0
M  V30 8361 H 794.264 -1.27388 0.671446 0
M  V30 8362 H 796.217 -4.18424 -0.499934 0
M  V30 8363 H 794.941 -3.08346 -1.07659 0
M  V30 8364 H 793.6 -3.52416 1.00989 0
M  V30 8365 H 793.248 -4.92271 -1.03338 0
M  V30 8366 H 792.948 -5.85855 0.452494 0
M  V30 8367 H 794.472 -6.08933 -0.450924 0
M  V30 8368 H 795.886 -5.46481 1.73297 0
M  V30 8369 H 794.283 -5.44444 2.52389 0
M  V30 8370 H 795.353 -4.03977 2.68199 0
M  V30 8371 N 796.696 -0.74468 -1.38897 0
M  V30 8372 C 797.936 -0.301691 -2.02161 0
M  V30 8373 C 798.3 1.09338 -1.57826 0
M  V30 8374 O 799.501 1.63499 -2.13358 0
M  V30 8375 C 797.772 -0.410601 -3.55034 0
M  V30 8376 S 799.331 -0.0488802 -4.38773 0
M  V30 8377 H 796.149 -0.117583 -0.70121 0
M  V30 8378 H 798.751 -0.973334 -1.69548 0
M  V30 8379 H 797.455 -1.42705 -3.8479 0
M  V30 8380 H 796.986 0.278531 -3.92413 0
M  V30 8381 H 799.001 1.16434 -4.82346 0
M  V30 8382 N 798.174 1.49689 -0.493057 0
M  V30 8383 C 799.084 2.32746 0.294358 0
M  V30 8384 C 800.1 1.44117 0.975003 0
M  V30 8385 O 801.276 1.77149 0.958138 0
M  V30 8386 C 798.341 3.19358 1.34949 0
M  V30 8387 C 797.402 4.2383 0.683122 0
M  V30 8388 C 796.635 5.06303 1.68798 0
M  V30 8389 O 796.858 4.90172 2.91698 0
M  V30 8390 O 795.792 5.88826 1.24768 0
M  V30 8391 H 799.618 3.01247 -0.385254 0
M  V30 8392 H 797.203 1.47216 -0.254519 0
M  V30 8393 H 799.085 3.73037 1.96014 0
M  V30 8394 H 797.76 2.53561 2.01217 0
M  V30 8395 H 796.667 3.74086 0.0329351 0
M  V30 8396 H 798 4.9216 0.0630192 0
M  V30 8397 N 799.652 0.226554 1.55963 0
M  V30 8398 C 800.901 -0.40417 1.97609 0
M  V30 8399 C 801.214 -1.60541 1.1174 0
M  V30 8400 O 802.42 -2.30598 1.43307 0
M  V30 8401 C 800.876 -0.770466 3.51556 0
M  V30 8402 C 800.484 0.408244 4.46136 0
M  V30 8403 C 802.228 -1.36651 4.01904 0
M  V30 8404 C 800.135 0.0192347 5.91397 0
M  V30 8405 H 799.065 -0.15478 0.737943 0
M  V30 8406 H 801.716 0.323558 1.80625 0
M  V30 8407 H 800.098 -1.55575 3.6416 0
M  V30 8408 H 801.272 1.18575 4.45283 0
M  V30 8409 H 799.587 0.917859 4.06158 0
M  V30 8410 H 802.184 -1.67055 5.07934 0
M  V30 8411 H 802.527 -2.28403 3.48049 0
M  V30 8412 H 803.06 -0.644556 3.92543 0
M  V30 8413 H 799.799 0.90336 6.49245 0
M  V30 8414 H 799.319 -0.722485 5.95433 0
M  V30 8415 H 800.998 -0.405711 6.45727 0
M  V30 8416 N 801.13 -1.57531 -0.0467866 0
M  V30 8417 C 802.379 -1.87632 -0.740069 0
M  V30 8418 C 802.692 -0.822691 -1.77457 0
M  V30 8419 O 803.898 -1.01235 -2.5192 0
M  V30 8420 C 802.354 -3.32917 -1.36727 0
M  V30 8421 C 801.962 -4.46469 -0.370035 0
M  V30 8422 C 803.706 -3.72189 -2.04146 0
M  V30 8423 C 801.613 -5.82806 -1.00457 0
M  V30 8424 H 800.543 -0.70002 -0.280158 0
M  V30 8425 H 803.194 -1.83499 0.00607151 0
M  V30 8426 H 801.576 -3.31739 -2.16252 0
M  V30 8427 H 802.75 -4.59085 0.397217 0
M  V30 8428 H 801.065 -4.15914 0.201079 0
M  V30 8429 H 803.662 -4.71357 -2.52441 0
M  V30 8430 H 804.005 -3.03268 -2.85192 0
M  V30 8431 H 804.538 -3.75465 -1.3142 0
M  V30 8432 H 801.277 -6.55083 -0.233907 0
M  V30 8433 H 800.797 -5.73944 -1.74209 0
M  V30 8434 H 802.476 -6.28961 -1.51713 0
M  V30 8435 N 802.608 0.318715 -1.54344 0
M  V30 8436 C 803.856 1.054 -1.72439 0
M  V30 8437 C 804.177 1.88388 -0.503495 0
M  V30 8438 O 803.447 1.89866 0.48246 0
M  V30 8439 H 802.027 0.392124 -0.635805 0
M  V30 8440 H 804.689 0.35398 -1.91659 0
M  V30 8441 H 803.785 1.71726 -2.60608 0
M  V30 8442 N 804.086 1.46499 0.581025 0
M  V30 8443 C 805.502 1.31491 0.904563 0
M  V30 8444 C 805.702 0.287598 1.99437 0
M  V30 8445 O 804.758 -0.309247 2.50599 0
M  V30 8446 C 806.071 2.70163 1.32032 0
M  V30 8447 C 807.619 2.78266 1.43308 0
M  V30 8448 C 808.094 4.17524 1.8825 0
M  V30 8449 N 809.585 4.19949 1.9544 0
M  V30 8450 C 810.32 5.24594 2.31493 0
M  V30 8451 N 809.816 6.39564 2.66326 0
M  V30 8452 N 811.609 5.11961 2.32062 0
M  V30 8453 H 803.76 2.11946 -0.138856 0
M  V30 8454 H 806.023 0.948 0.000548528 0
M  V30 8455 H 805.729 3.46655 0.593554 0
M  V30 8456 H 805.603 3.00379 2.2815 0
M  V30 8457 H 807.99 2.02061 2.15071 0
M  V30 8458 H 808.071 2.51732 0.45438 0
M  V30 8459 H 807.715 4.94225 1.17065 0
M  V30 8460 H 807.645 4.41466 2.87081 0
M  V30 8461 H 810.136 3.36996 1.71004 0
M  V30 8462 H 810.449 7.15187 2.92793 0
M  V30 8463 H 808.794 6.42923 2.6396 0
M  V30 8464 H 811.985 4.21177 2.04272 0
M  V30 8465 H 812.158 5.93626 2.5983 0
M  V30 8466 N 805.565 -0.825799 1.34232 0
M  V30 8467 C 806.811 -1.58419 1.26614 0
M  V30 8468 C 807.144 -1.93503 -0.164341 0
M  V30 8469 O 806.419 -1.59785 -1.109 0
M  V30 8470 C 806.702 -2.8856 2.15418 0
M  V30 8471 C 806.555 -2.60075 3.66989 0
M  V30 8472 C 807.874 -3.90107 2.03726 0
M  V30 8473 H 804.993 -0.574794 0.461282 0
M  V30 8474 H 807.635 -0.951519 1.64457 0
M  V30 8475 H 805.785 -3.42553 1.83275 0
M  V30 8476 H 807.457 -2.12414 4.09485 0
M  V30 8477 H 805.7 -1.93565 3.88221 0
M  V30 8478 H 806.371 -3.52866 4.24488 0
M  V30 8479 H 808.847 -3.45459 2.31942 0
M  V30 8480 H 807.723 -4.78976 2.68092 0
M  V30 8481 H 807.984 -4.30329 1.01337 0
M  V30 8482 N 807.043 -1.17915 -1.04565 0
M  V30 8483 C 807.991 -0.897919 -2.1457 0
M  V30 8484 C 808.985 0.139883 -1.68821 0
M  V30 8485 O 810.191 -0.00779463 -1.79998 0
M  V30 8486 H 806.566 -0.272867 -0.700748 0
M  V30 8487 H 808.537 -1.83268 -2.3549 0
M  V30 8488 C 807.286 -0.434634 -3.44973 0
M  V30 8489 H 806.609 -1.22469 -3.8058 0
M  V30 8490 H 808.049 -0.276804 -4.23095 0
M  V30 8491 C 806.508 0.848738 -3.26034 0
M  V30 8492 O 807.038 1.9141 -3.53164 0
M  V30 8493 N 805.244 0.799373 -2.79389 0
M  V30 8494 H 804.791 -0.0678192 -2.57511 0
M  V30 8495 H 804.749 1.6585 -2.67098 0
M  V30 8496 N 808.521 1.23394 -0.980386 0
M  V30 8497 C 809.484 2.23092 -0.525619 0
M  V30 8498 C 810.484 1.56129 0.384745 0
M  V30 8499 O 811.674 1.73284 0.178439 0
M  V30 8500 C 808.806 3.40074 0.23712 0
M  V30 8501 H 809.999 2.64839 -1.40714 0
M  V30 8502 H 807.552 1.36227 -0.766275 0
M  V30 8503 H 808.287 3.03783 1.13518 0
M  V30 8504 H 808.072 3.89883 -0.416356 0
M  V30 8505 H 809.562 4.14043 0.543892 0
M  V30 8506 N 809.999 0.752036 1.385 0
M  V30 8507 C 811.276 0.233075 1.94206 0
M  V30 8508 C 811.656 -1.26838 1.68746 0
M  V30 8509 O 811.004 -2.04214 1.02513 0
M  V30 8510 C 811.214 0.58509 3.44061 0
M  V30 8511 C 812.562 0.543871 4.21102 0
M  V30 8512 O 813.586 0.523291 3.52335 0
M  V30 8513 O 812.445 0.553436 5.4369 0
M  V30 8514 H 809.539 0.0483049 0.825588 0
M  V30 8515 H 812.085 0.832053 1.47902 0
M  V30 8516 H 810.857 1.62212 3.56094 0
M  V30 8517 H 810.48 -0.0419738 3.97578 0
M  V30 8518 N 811.477 -1.49425 0.500989 0
M  V30 8519 C 812.888 -1.86624 0.0532011 0
M  V30 8520 C 813.239 -1.41331 -1.36088 0
M  V30 8521 O 812.364 -0.791195 -2.01418 0
M  V30 8522 C 812.959 -3.38681 0.0897693 0
M  V30 8523 C 811.518 -3.75181 -0.302677 0
M  V30 8524 C 810.665 -2.73419 0.462307 0
M  V30 8525 H 813.616 -1.41743 0.713773 0
M  V30 8526 H 813.637 -3.73902 -0.705528 0
M  V30 8527 H 813.149 -3.71616 1.11907 0
M  V30 8528 H 811.25 -3.47855 -1.33521 0
M  V30 8529 H 811.363 -4.79097 0.0167653 0
M  V30 8530 H 809.727 -2.54548 -0.0878557 0
M  V30 8531 H 810.51 -3.09198 1.49169 0
M  V30 8532 N 812.955 -0.234822 -1.55841 0
M  V30 8533 C 814.232 0.442961 -1.90518 0
M  V30 8534 C 814.612 1.76768 -1.15397 0
M  V30 8535 O 813.96 2.26928 -0.267534 0
M  V30 8536 C 814.17 0.622905 -3.43396 0
M  V30 8537 C 815.518 0.9243 -4.14417 0
M  V30 8538 O 816.542 0.709211 -3.49068 0
M  V30 8539 O 815.401 1.33323 -5.29988 0
M  V30 8540 H 812.495 0.236042 -0.792599 0
M  V30 8541 H 815.041 -0.277992 -1.67408 0
M  V30 8542 H 813.813 -0.310973 -3.90062 0
M  V30 8543 H 813.436 1.39485 -3.7233 0
M  V30 8544 N 814.433 1.57553 0.0384317 0
M  V30 8545 C 815.663 1.92813 0.742064 0
M  V30 8546 C 816.071 0.832157 1.69917 0
M  V30 8547 O 815.414 -0.200917 1.82598 0
M  V30 8548 C 815.476 3.23806 1.56172 0
M  V30 8549 C 815.14 4.50459 0.770407 0
M  V30 8550 C 816.137 5.19846 0.0748006 0
M  V30 8551 C 813.822 4.97001 0.727714 0
M  V30 8552 C 815.816 6.34047 -0.652902 0
M  V30 8553 C 813.503 6.111 -0.00373992 0
M  V30 8554 C 814.501 6.79477 -0.692816 0
M  V30 8555 O 814.189 7.91395 -1.41241 0
M  V30 8556 H 813.921 0.641174 0.214179 0
M  V30 8557 H 816.475 2.054 0.00285095 0
M  V30 8558 H 814.705 3.0752 2.34453 0
M  V30 8559 H 816.394 3.44463 2.14709 0
M  V30 8560 H 817.16 4.84899 0.098875 0
M  V30 8561 H 813.039 4.43629 1.25355 0
M  V30 8562 H 816.583 6.87353 -1.1913 0
M  V30 8563 H 812.48 6.45493 -0.0297703 0
M  V30 8564 H 813.248 8.07702 -1.32512 0
M  V30 8565 N 815.911 -0.310526 1.54511 0
M  V30 8566 C 816.841 -1.38757 1.878 0
M  V30 8567 C 817.822 -1.53353 0.735991 0
M  V30 8568 O 819.007 -1.67018 0.990887 0
M  V30 8569 C 816.137 -2.75327 2.11689 0
M  V30 8570 C 815.091 -2.75506 3.27537 0
M  V30 8571 C 814.417 -4.15275 3.36824 0
M  V30 8572 C 815.717 -2.38093 4.64875 0
M  V30 8573 H 817.411 -1.11146 2.78005 0
M  V30 8574 H 814.957 -0.533232 1.33763 0
M  V30 8575 H 816.91 -3.50752 2.33562 0
M  V30 8576 H 815.634 -3.04443 1.18245 0
M  V30 8577 H 814.293 -2.02538 3.05572 0
M  V30 8578 H 813.941 -4.41553 2.40915 0
M  V30 8579 H 813.641 -4.16299 4.14692 0
M  V30 8580 H 815.165 -4.92493 3.60947 0
M  V30 8581 H 816.579 -3.03232 4.86542 0
M  V30 8582 H 814.976 -2.50345 5.45387 0
M  V30 8583 H 816.046 -1.33227 4.66239 0
M  V30 8584 N 817.389 -1.46805 -0.573248 0
M  V30 8585 C 818.8 -1.46655 -1.15539 0
M  V30 8586 C 819.151 -0.2125 -1.95046 0
M  V30 8587 O 818.276 0.683759 -2.05314 0
M  V30 8588 C 818.871 -2.65711 -2.10198 0
M  V30 8589 C 817.43 -2.68572 -2.63716 0
M  V30 8590 C 816.577 -2.39498 -1.39772 0
M  V30 8591 H 819.528 -1.54547 -0.36068 0
M  V30 8592 H 819.549 -2.41768 -2.93817 0
M  V30 8593 H 819.061 -3.56967 -1.52303 0
M  V30 8594 H 817.162 -1.81414 -3.25453 0
M  V30 8595 H 817.275 -3.68809 -3.05805 0
M  V30 8596 H 815.639 -1.89749 -1.69904 0
M  V30 8597 H 816.422 -3.32942 -0.836943 0
M  V30 8598 N 818.867 0.818669 -1.34668 0
M  V30 8599 C 820.283 1.11243 -1.14443 0
M  V30 8600 C 820.483 2.01435 0.0512212 0
M  V30 8601 O 819.539 2.41854 0.725471 0
M  V30 8602 C 820.852 1.75504 -2.4417 0
M  V30 8603 C 822.4 1.8798 -2.50265 0
M  V30 8604 C 822.875 2.55657 -3.80004 0
M  V30 8605 N 824.366 2.63153 -3.81189 0
M  V30 8606 C 825.101 3.16258 -4.78298 0
M  V30 8607 N 824.597 3.69893 -5.85791 0
M  V30 8608 N 826.39 3.14698 -4.65748 0
M  V30 8609 H 818.541 0.218848 -2.1127 0
M  V30 8610 H 820.804 0.159655 -0.934459 0
M  V30 8611 H 820.51 1.16697 -3.31775 0
M  V30 8612 H 820.384 2.75329 -2.57825 0
M  V30 8613 H 822.771 2.45934 -1.63096 0
M  V30 8614 H 822.852 0.870447 -2.40535 0
M  V30 8615 H 822.496 1.98356 -4.67565 0
M  V30 8616 H 822.426 3.57105 -3.87019 0
M  V30 8617 H 824.917 2.2514 -3.03513 0
M  V30 8618 H 825.23 4.08678 -6.55898 0
M  V30 8619 H 823.575 3.68125 -5.89499 0
M  V30 8620 H 826.766 2.72066 -3.80917 0
M  V30 8621 H 826.939 3.5578 -5.41594 0
M  V30 8622 N 820.346 1.18468 1.03938 0
M  V30 8623 C 821.574 1.00576 1.80809 0
M  V30 8624 C 821.989 -0.445786 1.83462 0
M  V30 8625 O 821.346 -1.30964 1.27101 0
M  V30 8626 C 821.397 1.55491 3.26351 0
M  V30 8627 O 821.118 2.94963 3.23926 0
M  V30 8628 C 822.619 1.42236 4.19862 0
M  V30 8629 H 819.839 0.35508 0.56935 0
M  V30 8630 H 822.383 1.57046 1.30984 0
M  V30 8631 H 820.538 1.03195 3.73403 0
M  V30 8632 H 820.952 3.20598 4.15111 0
M  V30 8633 H 822.426 1.85455 5.19914 0
M  V30 8634 H 822.903 0.371267 4.37628 0
M  V30 8635 H 823.509 1.9361 3.78675 0
M  V30 8636 N 821.824 -1.22873 0.986916 0
M  V30 8637 C 822.757 -2.23154 0.477245 0
M  V30 8638 C 823.735 -1.55981 -0.459206 0
M  V30 8639 O 824.919 -1.84503 -0.386141 0
M  V30 8640 C 822.046 -3.37289 -0.308838 0
M  V30 8641 C 821.092 -4.22637 0.572717 0
M  V30 8642 S 821.925 -4.95758 2.02446 0
M  V30 8643 C 823.081 -6.13338 1.2477 0
M  V30 8644 H 823.314 -2.6604 1.32702 0
M  V30 8645 H 820.847 -1.32455 0.793415 0
M  V30 8646 H 822.805 -4.03472 -0.756351 0
M  V30 8647 H 821.466 -2.92922 -1.13381 0
M  V30 8648 H 820.659 -5.0399 -0.0318024 0
M  V30 8649 H 820.261 -3.61555 0.956746 0
M  V30 8650 H 822.553 -6.7556 0.51231 0
M  V30 8651 H 823.496 -6.78189 2.03629 0
M  V30 8652 H 823.904 -5.59311 0.763622 0
M  V30 8653 N 823.302 -0.75937 -1.38099 0
M  V30 8654 C 824.579 -0.243371 -1.9408 0
M  V30 8655 C 824.959 1.25942 -1.69416 0
M  V30 8656 O 824.307 2.03667 -1.03595 0
M  V30 8657 C 824.517 -0.603328 -3.43745 0
M  V30 8658 C 825.865 -0.566195 -4.20808 0
M  V30 8659 O 826.889 -0.541969 -3.52053 0
M  V30 8660 O 825.748 -0.582261 -5.43389 0
M  V30 8661 H 822.842 -0.0526825 -0.82532 0
M  V30 8662 H 825.388 -0.839884 -1.47459 0
M  V30 8663 H 824.16 -1.64098 -3.55229 0
M  V30 8664 H 823.783 0.0208887 -3.97595 0
M  V30 8665 N 824.78 1.49157 -0.508906 0
M  V30 8666 C 826.027 2.02473 0.0327983 0
M  V30 8667 C 826.355 1.38792 1.36261 0
M  V30 8668 O 825.61 0.515576 1.88786 0
M  V30 8669 C 825.909 3.56687 0.225717 0
M  V30 8670 C 825.575 4.39046 -1.02708 0
M  V30 8671 C 824.237 4.61271 -1.37048 0
M  V30 8672 C 826.589 4.86902 -1.85946 0
M  V30 8673 C 823.917 5.28598 -2.54562 0
M  V30 8674 C 826.269 5.55521 -3.0262 0
M  V30 8675 C 824.933 5.7599 -3.3733 0
M  V30 8676 H 824.203 0.740903 0.0120017 0
M  V30 8677 H 826.85 1.79372 -0.670665 0
M  V30 8678 H 825.155 3.78511 1.01177 0
M  V30 8679 H 826.852 3.95541 0.659433 0
M  V30 8680 H 823.442 4.21994 -0.749615 0
M  V30 8681 H 827.626 4.69553 -1.6073 0
M  V30 8682 H 822.882 5.42646 -2.81682 0
M  V30 8683 H 827.056 5.91576 -3.67438 0
M  V30 8684 H 824.683 6.27934 -4.2849 0
M  V30 8685 N 826.258 0.243083 1.55714 0
M  V30 8686 C 827.506 -0.381964 1.98458 0
M  V30 8687 C 827.827 -1.58745 1.13247 0
M  V30 8688 O 827.097 -1.94723 0.214384 0
M  V30 8689 H 825.677 -0.144114 0.732967 0
M  V30 8690 H 828.339 0.340985 1.91894 0
M  V30 8691 H 827.435 -0.693702 3.04293 0
M  V30 8692 N 827.736 -1.57571 -0.0300757 0
M  V30 8693 C 828.666 -2.0953 -1.03051 0
M  V30 8694 C 829.647 -0.99761 -1.37774 0
M  V30 8695 O 830.832 -1.27279 -1.46676 0
M  V30 8696 C 827.962 -2.57385 -2.33174 0
M  V30 8697 C 826.916 -3.71409 -2.12696 0
M  V30 8698 C 826.242 -4.05467 -3.4857 0
M  V30 8699 C 827.542 -4.99877 -1.51396 0
M  V30 8700 H 829.236 -2.93367 -0.597999 0
M  V30 8701 H 826.782 -1.41127 -0.286203 0
M  V30 8702 H 828.735 -2.92355 -3.03491 0
M  V30 8703 H 827.459 -1.70629 -2.78484 0
M  V30 8704 H 826.118 -3.36786 -1.44813 0
M  V30 8705 H 825.766 -3.15779 -3.91526 0
M  V30 8706 H 825.466 -4.82269 -3.35694 0
M  V30 8707 H 826.99 -4.4297 -4.2025 0
M  V30 8708 H 828.404 -5.3281 -2.11629 0
M  V30 8709 H 826.801 -5.81283 -1.49098 0
M  V30 8710 H 827.871 -4.82522 -0.479676 0
M  V30 8711 N 829.214 0.302327 -1.54673 0
M  V30 8712 C 830.162 1.39286 -1.86285 0
M  V30 8713 C 831.156 1.52553 -0.736478 0
M  V30 8714 O 832.362 1.54686 -0.92045 0
M  V30 8715 H 828.737 0.465228 -0.590819 0
M  V30 8716 H 830.708 1.09859 -2.77441 0
M  V30 8717 C 829.457 2.75155 -2.12567 0
M  V30 8718 H 828.78 2.65728 -2.98712 0
M  V30 8719 H 830.22 3.50476 -2.38627 0
M  V30 8720 C 828.679 3.23987 -0.923813 0
M  V30 8721 O 829.209 4.01443 -0.143649 0
M  V30 8722 N 827.415 2.81293 -0.72956 0
M  V30 8723 H 826.962 2.18421 -1.36565 0
M  V30 8724 H 826.92 3.14315 0.0730351 0
M  V30 8725 N 830.692 1.47107 0.565454 0
M  V30 8726 C 831.938 1.53535 1.32495 0
M  V30 8727 C 832.271 0.193537 1.93233 0
M  V30 8728 O 831.546 -0.796956 1.77423 0
M  V30 8729 C 831.829 2.64712 2.4413 0
M  V30 8730 C 831.682 4.08482 1.88314 0
M  V30 8731 C 833.001 2.71853 3.46098 0
M  V30 8732 H 830.12 0.558926 0.480386 0
M  V30 8733 H 832.762 1.79125 0.633575 0
M  V30 8734 H 830.912 2.43023 3.03104 0
M  V30 8735 H 832.584 4.4151 1.33665 0
M  V30 8736 H 830.827 4.17148 1.19037 0
M  V30 8737 H 831.498 4.82032 2.68978 0
M  V30 8738 H 833.974 2.91397 2.97031 0
M  V30 8739 H 832.85 3.51433 4.21646 0
M  V30 8740 H 833.111 1.78584 4.04426 0
M  V30 8741 N 832.17 -0.811516 1.35101 0
M  V30 8742 C 833.586 -1.10634 1.15031 0
M  V30 8743 C 833.786 -2.01459 -0.0405379 0
M  V30 8744 O 832.842 -2.42235 -0.712635 0
M  V30 8745 C 834.155 -1.74207 2.45097 0
M  V30 8746 C 835.703 -1.8665 2.51258 0
M  V30 8747 C 836.178 -2.53638 3.81355 0
M  V30 8748 N 837.669 -2.61128 3.82579 0
M  V30 8749 C 838.404 -3.13717 4.79968 0
M  V30 8750 N 837.9 -3.66782 5.87744 0
M  V30 8751 N 839.693 -3.12224 4.67411 0
M  V30 8752 H 831.844 -0.207641 2.11383 0
M  V30 8753 H 834.107 -0.154697 0.935293 0
M  V30 8754 H 833.813 -1.14936 3.32389 0
M  V30 8755 H 833.687 -2.73958 2.59281 0
M  V30 8756 H 836.074 -2.45066 1.64398 0
M  V30 8757 H 836.155 -0.857678 2.40993 0
M  V30 8758 H 835.799 -1.95873 4.68611 0
M  V30 8759 H 835.729 -3.55047 3.88907 0
M  V30 8760 H 838.22 -2.23527 3.04703 0
M  V30 8761 H 838.533 -4.05194 6.58056 0
M  V30 8762 H 836.878 -3.64994 5.91443 0
M  V30 8763 H 840.069 -2.70042 3.82354 0
M  V30 8764 H 840.242 -3.52903 5.43474 0
M  V30 8765 N 833.648 -1.19017 -1.03309 0
M  V30 8766 C 834.896 -0.988258 -1.76289 0
M  V30 8767 C 835.217 0.482557 -1.88935 0
M  V30 8768 O 834.487 1.34969 -1.41987 0
M  V30 8769 H 833.067 -0.36267 -0.653054 0
M  V30 8770 H 835.729 -1.49836 -1.2464 0
M  V30 8771 H 834.825 -1.43273 -2.77271 0
M  V30 8772 N 835.127 1.22348 -0.993418 0
M  V30 8773 C 836.374 1.9111 -0.669568 0
M  V30 8774 C 836.702 1.77357 0.79843 0
M  V30 8775 O 835.957 1.13675 1.593 0
M  V30 8776 C 836.256 3.42477 -1.02197 0
M  V30 8777 C 835.922 3.7642 -2.48232 0
M  V30 8778 C 834.584 3.85395 -2.88139 0
M  V30 8779 C 836.936 3.9253 -3.42884 0
M  V30 8780 C 834.264 4.07918 -4.21687 0
M  V30 8781 C 836.616 4.16557 -4.76091 0
M  V30 8782 C 835.28 4.23757 -5.15739 0
M  V30 8783 H 834.55 0.699321 -0.245012 0
M  V30 8784 H 837.197 1.45102 -1.2497 0
M  V30 8785 H 835.502 3.90143 -0.359921 0
M  V30 8786 H 837.199 3.93935 -0.74942 0
M  V30 8787 H 833.789 3.70017 -2.16299 0
M  V30 8788 H 837.973 3.84974 -3.13224 0
M  V30 8789 H 833.229 4.11719 -4.51993 0
M  V30 8790 H 837.403 4.27966 -5.4938 0
M  V30 8791 H 835.03 4.40962 -6.19239 0
M  V30 8792 N 836.605 0.766683 1.37694 0
M  V30 8793 C 837.535 0.163432 2.32927 0
M  V30 8794 C 838.516 -0.688861 1.55527 0
M  V30 8795 O 839.701 -0.627363 1.83787 0
M  V30 8796 C 836.831 -0.720416 3.39746 0
M  V30 8797 C 835.785 0.0301718 4.27989 0
M  V30 8798 C 835.111 -0.972788 5.25776 0
M  V30 8799 C 836.411 1.20623 5.0818 0
M  V30 8800 H 838.105 0.958988 2.83626 0
M  V30 8801 H 835.651 0.462601 1.36367 0
M  V30 8802 H 837.604 -1.15221 4.05342 0
M  V30 8803 H 836.328 -1.54844 2.8756 0
M  V30 8804 H 834.987 0.442685 3.63917 0
M  V30 8805 H 834.635 -1.79522 4.69873 0
M  V30 8806 H 834.335 -0.475145 5.85676 0
M  V30 8807 H 835.859 -1.40362 5.94248 0
M  V30 8808 H 837.273 0.851341 5.66944 0
M  V30 8809 H 835.67 1.63561 5.7738 0
M  V30 8810 H 836.74 2.01281 4.41151 0
M  V30 8811 N 838.083 -1.48885 0.516809 0
M  V30 8812 C 839.36 -1.95412 -0.0858293 0
M  V30 8813 C 839.74 -1.45875 -1.5259 0
M  V30 8814 O 839.088 -0.679415 -2.18166 0
M  V30 8815 C 839.298 -3.48995 0.0178194 0
M  V30 8816 C 840.646 -4.24342 -0.14813 0
M  V30 8817 O 841.67 -3.56155 -0.0566125 0
M  V30 8818 O 840.529 -5.45454 -0.338035 0
M  V30 8819 H 837.623 -0.822455 -0.0865884 0
M  V30 8820 H 840.169 -1.59464 0.580472 0
M  V30 8821 H 838.941 -3.77732 1.02147 0
M  V30 8822 H 838.564 -3.91604 -0.687924 0
M  V30 8823 N 839.561 -0.251338 -1.55583 0
M  V30 8824 C 840.977 0.103409 -1.59265 0
M  V30 8825 C 841.177 1.56559 -1.26852 0
M  V30 8826 O 840.233 2.31071 -1.01796 0
M  V30 8827 C 841.546 -0.249781 -2.99661 0
M  V30 8828 C 843.094 -0.194442 -3.12395 0
M  V30 8829 C 843.569 -0.521728 -4.55019 0
M  V30 8830 N 845.06 -0.472393 -4.60785 0
M  V30 8831 C 845.795 -0.698737 -5.69127 0
M  V30 8832 N 845.291 -0.988443 -6.85713 0
M  V30 8833 N 847.084 -0.629143 -5.58568 0
M  V30 8834 H 839.235 -1.20484 -1.74921 0
M  V30 8835 H 841.498 -0.485092 -0.814488 0
M  V30 8836 H 841.204 -1.26577 -3.28133 0
M  V30 8837 H 841.078 0.420973 -3.74844 0
M  V30 8838 H 843.465 0.812229 -2.83702 0
M  V30 8839 H 843.546 -0.899111 -2.39478 0
M  V30 8840 H 843.19 -1.52597 -4.84434 0
M  V30 8841 H 843.12 0.204468 -5.26203 0
M  V30 8842 H 845.611 -0.257386 -3.77022 0
M  V30 8843 H 845.924 -1.14846 -7.64219 0
M  V30 8844 H 844.269 -1.02596 -6.87386 0
M  V30 8845 H 847.46 -0.402826 -4.66364 0
M  V30 8846 H 847.633 -0.808935 -6.42931 0
M  V30 8847 N 841.039 1.57585 0.0217189 0
M  V30 8848 C 842.269 1.9359 0.721572 0
M  V30 8849 C 842.677 0.850132 1.69025 0
M  V30 8850 O 842.02 -0.181539 1.82801 0
M  V30 8851 C 842.082 3.25445 1.52729 0
M  V30 8852 C 841.746 4.51251 0.722586 0
M  V30 8853 C 842.743 5.19896 0.0196598 0
M  V30 8854 C 840.428 4.97745 0.674959 0
M  V30 8855 C 842.422 6.33319 -0.720114 0
M  V30 8856 C 840.109 6.11062 -0.068555 0
M  V30 8857 C 841.107 6.78704 -0.764845 0
M  V30 8858 O 840.795 7.89852 -1.49627 0
M  V30 8859 H 840.527 0.643409 0.207366 0
M  V30 8860 H 843.081 2.05391 -0.0189346 0
M  V30 8861 H 841.311 3.0999 2.31178 0
M  V30 8862 H 843 3.46721 2.11044 0
M  V30 8863 H 843.766 4.84977 0.0474394 0
M  V30 8864 H 839.645 4.44934 1.20643 0
M  V30 8865 H 843.189 6.86051 -1.26413 0
M  V30 8866 H 839.086 6.45425 -0.0982318 0
M  V30 8867 H 839.854 8.06251 -1.41071 0
M  V30 8868 N 842.517 -0.29412 1.54831 0
M  V30 8869 C 843.757 -1.03635 1.76179 0
M  V30 8870 C 844.121 -1.84251 0.539953 0
M  V30 8871 O 845.322 -2.61282 0.631295 0
M  V30 8872 C 843.593 -1.91275 3.01909 0
M  V30 8873 S 845.152 -2.7205 3.44288 0
M  V30 8874 H 841.97 -0.349403 0.619224 0
M  V30 8875 H 844.572 -0.309006 1.93042 0
M  V30 8876 H 843.276 -1.30937 3.88952 0
M  V30 8877 H 842.807 -2.68365 2.87652 0
M  V30 8878 H 844.822 -3.93791 3.01899 0
M  V30 8879 N 843.995 -1.47404 -0.557645 0
M  V30 8880 C 845.406 -1.47872 -1.13977 0
M  V30 8881 C 845.757 -0.233176 -1.94809 0
M  V30 8882 O 844.882 0.661945 -2.06027 0
M  V30 8883 C 845.477 -2.67926 -2.07368 0
M  V30 8884 C 844.036 -2.71354 -2.60852 0
M  V30 8885 C 843.183 -2.40967 -1.37223 0
M  V30 8886 H 846.134 -1.54921 -0.344268 0
M  V30 8887 H 846.155 -2.44871 -2.91236 0
M  V30 8888 H 845.667 -3.58562 -1.48509 0
M  V30 8889 H 843.768 -1.84855 -3.23511 0
M  V30 8890 H 843.881 -3.72032 -3.01876 0
M  V30 8891 H 842.245 -1.91541 -1.67882 0
M  V30 8892 H 843.028 -3.33811 -0.801583 0
M  V30 8893 N 845.473 0.80434 -1.35529 0
M  V30 8894 C 846.884 1.37849 -1.25915 0
M  V30 8895 C 847.235 1.95905 0.107495 0
M  V30 8896 O 846.36 1.91462 1.00852 0
M  V30 8897 C 846.955 2.50608 -2.27994 0
M  V30 8898 C 845.514 3.03879 -2.22114 0
M  V30 8899 C 844.661 1.76856 -2.13582 0
M  V30 8900 H 847.612 0.607192 -1.46625 0
M  V30 8901 H 847.633 3.29221 -1.90772 0
M  V30 8902 H 847.145 2.08323 -3.27449 0
M  V30 8903 H 845.246 3.50622 -1.26077 0
M  V30 8904 H 845.359 3.61707 -3.14173 0
M  V30 8905 H 843.723 1.98498 -1.59595 0
M  V30 8906 H 844.506 1.36721 -3.14901 0
M  V30 8907 N 846.951 1.19563 1.02676 0
M  V30 8908 C 847.899 0.931942 2.13114 0
M  V30 8909 C 848.893 -0.113007 1.69023 0
M  V30 8910 O 850.099 0.0364298 1.79963 0
M  V30 8911 H 846.474 0.283981 0.696318 0
M  V30 8912 H 848.445 1.86991 2.32545 0
M  V30 8913 C 847.194 0.489461 3.44238 0
M  V30 8914 H 846.517 1.28508 3.78584 0
M  V30 8915 H 847.957 0.34408 4.22602 0
M  V30 8916 C 846.416 -0.796761 3.27343 0
M  V30 8917 O 846.946 -1.85767 3.56165 0
M  V30 8918 N 845.152 -0.754824 2.80626 0
M  V30 8919 H 844.699 0.108778 2.5737 0
M  V30 8920 H 844.657 -1.6158 2.69702 0
M  V30 8921 N 848.429 -1.21819 0.999893 0
M  V30 8922 C 849.669 -1.92473 0.687996 0
M  V30 8923 C 850.033 -1.76033 -0.766569 0
M  V30 8924 O 851.234 -2.41013 -1.19021 0
M  V30 8925 C 849.505 -3.40332 1.09129 0
M  V30 8926 S 851.064 -4.29496 0.898822 0
M  V30 8927 H 847.882 -0.665097 0.251329 0
M  V30 8928 H 850.484 -1.47454 1.28364 0
M  V30 8929 H 849.188 -3.49812 2.14615 0
M  V30 8930 H 848.719 -3.90365 0.487724 0
M  V30 8931 H 850.734 -4.95769 -0.206873 0
M  V30 8932 N 849.908 -0.773975 -1.37286 0
M  V30 8933 C 851.319 -0.404433 -1.82267 0
M  V30 8934 C 851.67 1.06971 -1.64474 0
M  V30 8935 O 850.795 1.82867 -1.15708 0
M  V30 8936 C 851.39 -0.727298 -3.30902 0
M  V30 8937 C 849.949 -0.410784 -3.74152 0
M  V30 8938 C 849.096 -0.969983 -2.59782 0
M  V30 8939 H 852.047 -0.968437 -1.25726 0
M  V30 8940 H 852.068 -0.0127575 -3.80498 0
M  V30 8941 H 851.58 -1.80026 -3.4382 0
M  V30 8942 H 849.681 0.65477 -3.66802 0
M  V30 8943 H 849.794 -0.920592 -4.70172 0
M  V30 8944 H 848.158 -0.394094 -2.51633 0
M  V30 8945 H 848.941 -2.04839 -2.75492 0
M  V30 8946 N 851.386 1.48609 -0.524698 0
M  V30 8947 C 852.797 1.86516 -0.0828846 0
M  V30 8948 C 853.148 1.43478 1.33822 0
M  V30 8949 O 852.273 0.823139 2.00133 0
M  V30 8950 C 852.868 3.38495 -0.143639 0
M  V30 8951 C 851.427 3.75615 0.242951 0
M  V30 8952 C 850.574 2.72649 -0.505747 0
M  V30 8953 H 853.525 1.40589 -0.736233 0
M  V30 8954 H 853.546 3.74977 0.645955 0
M  V30 8955 H 853.058 3.69789 -1.17805 0
M  V30 8956 H 851.159 3.49935 1.27971 0
M  V30 8957 H 851.272 4.7901 -0.0929834 0
M  V30 8958 H 849.636 2.54656 0.0473482 0
M  V30 8959 H 850.419 3.06786 -1.54069 0
M  V30 8960 N 852.864 0.259585 1.55447 0
M  V30 8961 C 854.089 -0.368317 2.04103 0
M  V30 8962 C 854.514 -1.49827 1.13725 0
M  V30 8963 O 853.872 -1.80814 0.132705 0
M  V30 8964 C 853.92 -0.841506 3.50644 0
M  V30 8965 O 853.024 -1.95008 3.63381 0
M  V30 8966 H 852.365 -0.0785227 0.659341 0
M  V30 8967 H 854.895 0.389349 2.00861 0
M  V30 8968 H 854.905 -1.14138 3.9171 0
M  V30 8969 H 853.58 -0.0147001 4.15897 0
M  V30 8970 H 852.157 -1.65393 3.34215 0
M  V30 8971 N 854.342 -1.57594 -0.0133615 0
M  V30 8972 C 855.589 -1.8998 -0.70098 0
M  V30 8973 C 855.917 -0.858802 -1.74513 0
M  V30 8974 O 855.172 0.138209 -1.95211 0
M  V30 8975 C 855.471 -3.29121 -1.39336 0
M  V30 8976 C 855.137 -4.48298 -0.483687 0
M  V30 8977 C 853.799 -4.80635 -0.233186 0
M  V30 8978 C 856.151 -5.21003 0.143426 0
M  V30 8979 C 853.479 -5.83055 0.652943 0
M  V30 8980 C 855.831 -6.24366 1.01735 0
M  V30 8981 C 854.495 -6.55168 1.27716 0
M  V30 8982 H 853.765 -0.695187 -0.256507 0
M  V30 8983 H 856.412 -1.9146 0.0392965 0
M  V30 8984 H 854.717 -3.23703 -2.20735 0
M  V30 8985 H 856.414 -3.51433 -1.93121 0
M  V30 8986 H 853.004 -4.23024 -0.689092 0
M  V30 8987 H 857.188 -4.96286 -0.0371139 0
M  V30 8988 H 852.444 -6.05288 0.862379 0
M  V30 8989 H 856.618 -6.79839 1.5097 0
M  V30 8990 H 854.245 -7.34351 1.9655 0
M  V30 8991 N 855.82 0.285905 -1.54985 0
M  V30 8992 C 857.067 1.0192 -1.74982 0
M  V30 8993 C 857.395 1.86743 -0.543816 0
M  V30 8994 O 856.65 1.89874 0.473972 0
M  V30 8995 C 856.949 1.94193 -3.0004 0
M  V30 8996 C 856.615 1.25225 -4.33162 0
M  V30 8997 C 855.277 1.06149 -4.69346 0
M  V30 8998 C 857.629 0.760427 -5.15623 0
M  V30 8999 C 854.957 0.365991 -5.85557 0
M  V30 9000 C 857.309 0.0785787 -6.32551 0
M  V30 9001 C 855.973 -0.124002 -6.67385 0
M  V30 9002 H 855.243 0.372951 -0.640304 0
M  V30 9003 H 857.89 0.292652 -1.89251 0
M  V30 9004 H 856.195 2.73426 -2.80616 0
M  V30 9005 H 857.892 2.51029 -3.12707 0
M  V30 9006 H 854.482 1.41081 -4.04715 0
M  V30 9007 H 858.666 0.895466 -4.88155 0
M  V30 9008 H 853.922 0.198193 -6.11079 0
M  V30 9009 H 858.096 -0.310339 -6.95708 0
M  V30 9010 H 855.723 -0.664918 -7.57287 0
M  V30 9011 N 857.298 1.47698 0.54982 0
M  V30 9012 C 858.709 1.48474 1.13191 0
M  V30 9013 C 859.06 0.243504 1.94683 0
M  V30 9014 O 858.185 -0.651009 2.06375 0
M  V30 9015 C 858.78 2.69022 2.05944 0
M  V30 9016 C 857.339 2.72733 2.5941 0
M  V30 9017 C 856.486 2.41691 1.35944 0
M  V30 9018 H 859.437 1.55101 0.336048 0
M  V30 9019 H 859.458 2.46412 2.89934 0
M  V30 9020 H 858.97 3.59345 1.46605 0
M  V30 9021 H 857.071 1.86568 3.22526 0
M  V30 9022 H 857.184 3.73628 2.99899 0
M  V30 9023 H 855.548 1.92428 1.66864 0
M  V30 9024 H 856.331 3.34231 0.783869 0
M  V30 9025 N 858.776 -0.797141 1.35954 0
M  V30 9026 C 860.025 -1.54983 1.29086 0
M  V30 9027 C 860.338 -1.95167 -0.130003 0
M  V30 9028 O 861.544 -2.69596 -0.32101 0
M  V30 9029 C 860 -2.79738 2.26439 0
M  V30 9030 C 859.608 -2.46753 3.73921 0
M  V30 9031 C 861.352 -3.57733 2.28533 0
M  V30 9032 C 859.259 -3.67858 4.63071 0
M  V30 9033 H 858.189 -0.581766 0.479651 0
M  V30 9034 H 860.84 -0.87541 1.61273 0
M  V30 9035 H 859.222 -3.48939 1.87236 0
M  V30 9036 H 860.396 -1.85499 4.21814 0
M  V30 9037 H 858.711 -1.81985 3.74527 0
M  V30 9038 H 861.308 -4.47699 2.92351 0
M  V30 9039 H 861.651 -3.95754 1.29169 0
M  V30 9040 H 862.184 -2.95504 2.66313 0
M  V30 9041 H 858.923 -3.34939 5.63468 0
M  V30 9042 H 858.443 -4.28305 4.19898 0
M  V30 9043 H 860.122 -4.34977 4.78961 0
M  V30 9044 N 860.254 -1.20106 -1.0204 0
M  V30 9045 C 861.482 -1.0344 -1.79186 0
M  V30 9046 C 861.897 0.416542 -1.84148 0
M  V30 9047 O 861.254 1.28925 -1.29168 0
M  V30 9048 C 861.305 -1.60663 -3.23836 0
M  V30 9049 O 861.026 -3.00079 -3.19193 0
M  V30 9050 C 862.527 -1.48897 -4.17546 0
M  V30 9051 H 859.747 -0.364093 -0.563629 0
M  V30 9052 H 862.291 -1.5911 -1.28469 0
M  V30 9053 H 860.446 -1.09122 -3.71714 0
M  V30 9054 H 860.86 -3.27162 -4.09958 0
M  V30 9055 H 862.334 -1.93703 -5.16898 0
M  V30 9056 H 862.811 -0.440843 -4.36982 0
M  V30 9057 H 863.417 -1.9961 -3.75547 0
M  V30 9058 N 861.732 1.21287 -1.00634 0
M  V30 9059 C 862.978 1.90671 -0.690822 0
M  V30 9060 C 863.311 1.77996 0.776592 0
M  V30 9061 O 862.586 1.15748 1.5631 0
M  V30 9062 C 862.869 3.42426 -1.11428 0
M  V30 9063 C 862.722 3.64086 -2.64124 0
M  V30 9064 C 864.041 4.34851 -0.677686 0
M  V30 9065 H 861.16 0.692419 -0.252439 0
M  V30 9066 H 863.802 1.42893 -1.25226 0
M  V30 9067 H 861.952 3.83249 -0.636586 0
M  V30 9068 H 863.624 3.32582 -3.19667 0
M  V30 9069 H 861.867 3.07906 -3.05576 0
M  V30 9070 H 862.538 4.7042 -2.88806 0
M  V30 9071 H 865.014 4.01619 -1.0882 0
M  V30 9072 H 863.89 5.39675 -1.00213 0
M  V30 9073 H 864.151 4.4009 0.421125 0
M  V30 9074 N 863.21 0.781244 1.36873 0
M  V30 9075 C 864.626 0.461968 1.52768 0
M  V30 9076 C 864.826 -1.02099 1.73719 0
M  V30 9077 O 863.882 -1.80665 1.76399 0
M  V30 9078 C 865.195 1.2853 2.71846 0
M  V30 9079 C 866.743 1.27817 2.85713 0
M  V30 9080 C 867.218 2.08506 4.07786 0
M  V30 9081 N 868.709 2.05909 4.14917 0
M  V30 9082 C 869.444 2.65118 5.08429 0
M  V30 9083 N 868.94 3.33152 6.07438 0
M  V30 9084 N 870.733 2.54896 5.00983 0
M  V30 9085 H 862.884 1.74198 1.21527 0
M  V30 9086 H 865.147 0.740027 0.592506 0
M  V30 9087 H 864.853 2.3366 2.62861 0
M  V30 9088 H 864.727 0.920981 3.65784 0
M  V30 9089 H 867.114 0.234817 2.94164 0
M  V30 9090 H 867.195 1.68219 1.92707 0
M  V30 9091 H 866.839 3.12867 4.00096 0
M  V30 9092 H 866.769 1.65479 4.99924 0
M  V30 9093 H 869.26 1.56386 3.44023 0
M  V30 9094 H 869.573 3.75681 6.75339 0
M  V30 9095 H 867.918 3.37253 6.07689 0
M  V30 9096 H 871.109 2.01352 4.22581 0
M  V30 9097 H 871.282 3.01332 5.73675 0
M  V30 9098 N 864.689 -1.48329 0.532571 0
M  V30 9099 C 865.929 -2.044 0.00145618 0
M  V30 9100 C 866.293 -1.40053 -1.31336 0
M  V30 9101 O 867.494 -1.87026 -1.93066 0
M  V30 9102 C 865.765 -3.57214 -0.115376 0
M  V30 9103 S 867.324 -4.34731 -0.59618 0
M  V30 9104 H 864.142 -0.710876 0.0133038 0
M  V30 9105 H 866.744 -1.82006 0.71372 0
M  V30 9106 H 865.448 -4.01579 0.846335 0
M  V30 9107 H 864.979 -3.84065 -0.85194 0
M  V30 9108 H 866.994 -4.6001 -1.86025 0
M  V30 9109 N 866.167 -0.267825 -1.55308 0
M  V30 9110 C 867.407 0.352316 -2.01341 0
M  V30 9111 C 867.771 1.53593 -1.1521 0
M  V30 9112 O 868.972 2.22521 -1.50791 0
M  V30 9113 C 867.243 0.731857 -3.49827 0
M  V30 9114 S 868.802 1.33956 -4.17853 0
M  V30 9115 H 865.62 0.109927 -0.702451 0
M  V30 9116 H 868.222 -0.387955 -1.91612 0
M  V30 9117 H 866.926 -0.138561 -4.10166 0
M  V30 9118 H 866.457 1.50378 -3.63525 0
M  V30 9119 H 868.472 2.62831 -4.20874 0
M  V30 9120 N 867.645 1.57599 0.00500368 0
M  V30 9121 C 868.922 1.81561 0.727654 0
M  V30 9122 C 869.302 0.871604 1.92266 0
M  V30 9123 O 868.65 -0.0808232 2.28357 0
M  V30 9124 C 868.86 3.29922 1.13809 0
M  V30 9125 C 870.208 3.95531 1.54403 0
M  V30 9126 O 871.232 3.34215 1.23202 0
M  V30 9127 O 870.091 5.03535 2.12402 0
M  V30 9128 H 867.185 0.747462 0.353878 0
M  V30 9129 H 869.731 1.69688 -0.0200667 0
M  V30 9130 H 868.503 3.90253 0.286078 0
M  V30 9131 H 868.126 3.46775 1.94507 0
M  V30 9132 N 869.123 -0.277682 1.55134 0
M  V30 9133 C 870.053 -1.34742 1.90701 0
M  V30 9134 C 871.034 -1.51757 0.768354 0
M  V30 9135 O 872.219 -1.64879 1.02609 0
M  V30 9136 C 869.349 -2.70775 2.17481 0
M  V30 9137 C 868.303 -2.68497 3.33307 0
M  V30 9138 C 867.629 -4.08037 3.45557 0
M  V30 9139 C 868.929 -2.28178 4.69821 0
M  V30 9140 H 870.623 -1.05224 2.803 0
M  V30 9141 H 868.169 -0.504738 1.34864 0
M  V30 9142 H 870.122 -3.45719 2.40949 0
M  V30 9143 H 868.846 -3.01867 1.24676 0
M  V30 9144 H 867.505 -1.9601 3.09799 0
M  V30 9145 H 867.153 -4.36344 2.50226 0
M  V30 9146 H 866.853 -4.07409 4.23429 0
M  V30 9147 H 868.377 -4.84726 3.71312 0
M  V30 9148 H 869.791 -2.92843 4.92865 0
M  V30 9149 H 868.188 -2.3872 5.50575 0
M  V30 9150 H 869.258 -1.23308 4.6896 0
M  V30 9151 N 870.601 -1.47988 -0.541979 0
M  V30 9152 C 871.878 -1.45878 -1.30303 0
M  V30 9153 C 872.258 -0.163931 -2.10463 0
M  V30 9154 O 871.606 0.854479 -2.11922 0
M  V30 9155 C 871.816 -2.71359 -2.19466 0
M  V30 9156 C 873.164 -3.19199 -2.79995 0
M  V30 9157 O 874.188 -2.72193 -2.2976 0
M  V30 9158 O 873.047 -4.00961 -3.71339 0
M  V30 9159 H 870.141 -0.582043 -0.587498 0
M  V30 9160 H 872.687 -1.60207 -0.559623 0
M  V30 9161 H 871.459 -3.57122 -1.59936 0
M  V30 9162 H 871.082 -2.59692 -3.01075 0
M  V30 9163 N 872.079 0.78992 -1.36375 0
M  V30 9164 C 873.49 1.36506 -1.2737 0
M  V30 9165 C 873.841 1.96008 0.086711 0
M  V30 9166 O 872.966 1.92521 0.988159 0
M  V30 9167 C 873.561 2.48175 -2.30639 0
M  V30 9168 C 872.12 3.01506 -2.25325 0
M  V30 9169 C 871.267 1.74581 -2.15445 0
M  V30 9170 H 874.218 0.591606 -1.47261 0
M  V30 9171 H 874.239 3.27179 -1.94253 0
M  V30 9172 H 873.751 2.04838 -3.2964 0
M  V30 9173 H 871.852 3.49265 -1.29788 0
M  V30 9174 H 871.965 3.58355 -3.17992 0
M  V30 9175 H 870.329 1.96794 -1.61692 0
M  V30 9176 H 871.112 1.33373 -3.16333 0
M  V30 9177 N 873.557 1.20646 1.01402 0
M  V30 9178 C 874.467 0.973385 2.13453 0
M  V30 9179 C 875.483 -0.0715865 1.73853 0
M  V30 9180 O 876.659 0.116438 2.01063 0
M  V30 9181 C 873.724 0.531285 3.42605 0
M  V30 9182 C 872.785 1.64741 3.96433 0
M  V30 9183 C 872.018 1.22631 5.1942 0
M  V30 9184 O 872.241 0.0960891 5.70319 0
M  V30 9185 O 871.175 2.03474 5.66465 0
M  V30 9186 H 875.001 1.91164 2.35987 0
M  V30 9187 H 872.586 0.990553 1.11841 0
M  V30 9188 H 874.468 0.294095 4.20373 0
M  V30 9189 H 873.143 -0.378358 3.21481 0
M  V30 9190 H 872.05 1.93891 3.19933 0
M  V30 9191 H 873.383 2.53415 4.2195 0
M  V30 9192 N 875.035 -1.20752 1.01276 0
M  V30 9193 C 875.982 -2.234 0.579732 0
M  V30 9194 C 876.952 -1.61256 -0.398206 0
M  V30 9195 O 878.137 -1.8845 -0.29851 0
M  V30 9196 C 875.277 -3.45008 -0.0797006 0
M  V30 9197 C 874.39 -4.21597 0.942343 0
M  V30 9198 C 873.525 -5.30591 0.254364 0
M  V30 9199 C 872.564 -5.98919 1.26343 0
M  V30 9200 N 871.701 -6.99511 0.602384 0
M  V30 9201 H 876.541 -2.59801 1.45971 0
M  V30 9202 H 874.078 -1.27663 0.730787 0
M  V30 9203 H 876.036 -4.1444 -0.479125 0
M  V30 9204 H 874.666 -3.09312 -0.923354 0
M  V30 9205 H 873.718 -3.51268 1.45996 0
M  V30 9206 H 875.03 -4.68576 1.70992 0
M  V30 9207 H 874.184 -6.06368 -0.200763 0
M  V30 9208 H 872.923 -4.84639 -0.545553 0
M  V30 9209 H 871.928 -5.21906 1.72898 0
M  V30 9210 H 873.153 -6.46957 2.06456 0
M  V30 9211 H 871.099 -6.55759 -0.177734 0
M  V30 9212 H 871.016 -7.44597 1.30809 0
M  V30 9213 H 872.284 -7.79313 0.17072 0
M  V30 9214 N 876.513 -0.788492 -1.36457 0
M  V30 9215 C 877.929 -0.470063 -1.52521 0
M  V30 9216 C 878.129 1.01176 -1.74258 0
M  V30 9217 O 877.185 1.79726 -1.77355 0
M  V30 9218 C 878.498 -1.2997 -2.71161 0
M  V30 9219 C 880.046 -1.2933 -2.85031 0
M  V30 9220 C 880.521 -2.10665 -4.06674 0
M  V30 9221 N 882.012 -2.08107 -4.13819 0
M  V30 9222 C 882.747 -2.6781 -5.07016 0
M  V30 9223 N 882.243 -3.36369 -6.05663 0
M  V30 9224 N 884.036 -2.57549 -4.99625 0
M  V30 9225 H 876.187 -1.7484 -1.20602 0
M  V30 9226 H 878.45 -0.743159 -0.588574 0
M  V30 9227 H 878.156 -2.35051 -2.61618 0
M  V30 9228 H 878.03 -0.940367 -3.6529 0
M  V30 9229 H 880.417 -0.250414 -2.94036 0
M  V30 9230 H 880.498 -1.69239 -1.91812 0
M  V30 9231 H 880.142 -3.14984 -3.98431 0
M  V30 9232 H 880.072 -1.68128 -4.9904 0
M  V30 9233 H 882.563 -1.58208 -3.43189 0
M  V30 9234 H 882.876 -3.79258 -6.73338 0
M  V30 9235 H 881.221 -3.40471 -6.05891 0
M  V30 9236 H 884.412 -2.0359 -4.21508 0
M  V30 9237 H 884.585 -3.0437 -5.72069 0
M  V30 9238 N 877.991 1.48044 -0.54043 0
M  V30 9239 C 879.402 1.86418 -0.102662 0
M  V30 9240 C 879.753 1.4489 1.32293 0
M  V30 9241 O 878.878 0.844319 1.99249 0
M  V30 9242 C 879.473 3.38324 -0.179533 0
M  V30 9243 C 878.032 3.75852 0.203098 0
M  V30 9244 C 877.179 2.72097 -0.534637 0
M  V30 9245 H 880.13 1.398 -0.751103 0
M  V30 9246 H 880.151 3.75641 0.606147 0
M  V30 9247 H 879.663 3.68518 -1.21721 0
M  V30 9248 H 877.764 3.51272 1.24252 0
M  V30 9249 H 877.877 4.78884 -0.143784 0
M  V30 9250 H 876.241 2.54692 0.0203358 0
M  V30 9251 H 877.024 3.05135 -1.57314 0
M  V30 9252 N 879.47 0.276058 1.55163 0
M  V30 9253 C 880.695 -0.346648 2.04483 0
M  V30 9254 C 881.12 -1.48613 1.15308 0
M  V30 9255 O 880.478 -1.80663 0.151875 0
M  V30 9256 C 880.526 -0.804268 3.51517 0
M  V30 9257 O 879.63 -1.91143 3.65429 0
M  V30 9258 H 878.971 -0.0715251 0.660136 0
M  V30 9259 H 881.501 0.410631 2.00437 0
M  V30 9260 H 881.511 -1.09977 3.92898 0
M  V30 9261 H 880.186 0.0294123 4.1589 0
M  V30 9262 H 878.763 -1.61839 3.3595 0
M  V30 9263 N 880.948 -1.576 0.00335426 0
M  V30 9264 C 882.195 -1.90713 -0.680791 0
M  V30 9265 C 882.523 -0.877263 -1.73592 0
M  V30 9266 O 881.778 0.117497 -1.95347 0
M  V30 9267 C 882.077 -3.3058 -1.35837 0
M  V30 9268 C 881.743 -4.48786 -0.436111 0
M  V30 9269 C 880.405 -4.80855 -0.182195 0
M  V30 9270 C 882.757 -5.20821 0.198677 0
M  V30 9271 C 880.085 -5.8233 0.714747 0
M  V30 9272 C 882.437 -6.23252 1.08351 0
M  V30 9273 C 881.101 -6.53776 1.34658 0
M  V30 9274 H 880.371 -0.697869 -0.249119 0
M  V30 9275 H 883.018 -1.91407 0.0596011 0
M  V30 9276 H 881.323 -3.26026 -2.17289 0
M  V30 9277 H 883.02 -3.53462 -1.89383 0
M  V30 9278 H 879.61 -4.23731 -0.644186 0
M  V30 9279 H 883.794 -4.96298 0.0155259 0
M  V30 9280 H 879.05 -6.04339 0.926529 0
M  V30 9281 H 883.224 -6.78199 1.58172 0
M  V30 9282 H 880.851 -7.32225 2.04328 0
M  V30 9283 N 882.426 0.269451 -1.5528 0
M  V30 9284 C 883.672 1.00206 -1.76314 0
M  V30 9285 C 884.005 1.85812 -0.564581 0
M  V30 9286 O 883.28 1.89509 0.437769 0
M  V30 9287 C 883.563 1.88163 -3.07029 0
M  V30 9288 C 883.416 1.05527 -4.37246 0
M  V30 9289 C 884.735 2.8681 -3.33808 0
M  V30 9290 H 881.854 0.36288 -0.641473 0
M  V30 9291 H 884.496 0.274188 -1.88011 0
M  V30 9292 H 882.646 2.50224 -2.97187 0
M  V30 9293 H 884.318 0.455094 -4.5905 0
M  V30 9294 H 882.561 0.358842 -4.32313 0
M  V30 9295 H 883.232 1.70397 -5.25042 0
M  V30 9296 H 885.708 2.34884 -3.43466 0
M  V30 9297 H 884.584 3.45492 -4.26528 0
M  V30 9298 H 884.845 3.62118 -2.5362 0
M  V30 9299 N 883.904 1.48273 0.534124 0
M  V30 9300 C 884.851 1.62487 1.6391 0
M  V30 9301 C 885.821 0.467062 1.59398 0
M  V30 9302 O 887.006 0.690029 1.77885 0
M  V30 9303 C 884.146 1.66671 3.02183 0
M  V30 9304 C 883.259 2.9353 3.16961 0
M  V30 9305 C 882.394 2.88902 4.45768 0
M  V30 9306 C 881.433 4.10483 4.54059 0
M  V30 9307 N 880.57 4.03956 5.74251 0
M  V30 9308 H 885.41 2.56851 1.51101 0
M  V30 9309 H 882.947 1.27381 0.735704 0
M  V30 9310 H 884.905 1.67079 3.82283 0
M  V30 9311 H 883.535 0.758011 3.13774 0
M  V30 9312 H 882.587 3.02886 2.3014 0
M  V30 9313 H 883.899 3.83501 3.18949 0
M  V30 9314 H 883.053 2.87688 5.34154 0
M  V30 9315 H 881.792 1.96652 4.46295 0
M  V30 9316 H 880.797 4.11977 3.64081 0
M  V30 9317 H 882.022 5.03887 4.55274 0
M  V30 9318 H 879.968 3.14525 5.75682 0
M  V30 9319 H 879.885 4.87628 5.77715 0
M  V30 9320 H 881.153 4.06795 6.64935 0
M  V30 9321 N 885.382 -0.782676 1.36792 0
M  V30 9322 C 886.312 -1.90973 1.34356 0
M  V30 9323 C 887.293 -1.6875 0.213917 0
M  V30 9324 O 888.478 -1.89766 0.412601 0
M  V30 9325 C 885.608 -3.28097 1.13884 0
M  V30 9326 C 884.562 -3.6486 2.23744 0
M  V30 9327 C 883.888 -5.00406 1.88408 0
M  V30 9328 C 885.188 -3.72742 3.6587 0
M  V30 9329 H 886.882 -1.93268 2.28665 0
M  V30 9330 H 884.428 -0.928447 1.10072 0
M  V30 9331 H 886.381 -4.06569 1.10813 0
M  V30 9332 H 885.105 -3.26206 0.160275 0
M  V30 9333 H 883.764 -2.88689 2.25952 0
M  V30 9334 H 883.412 -4.95044 0.891083 0
M  V30 9335 H 883.112 -5.25973 2.61966 0
M  V30 9336 H 884.636 -5.81291 1.86905 0
M  V30 9337 H 886.05 -4.4139 3.65852 0
M  V30 9338 H 884.447 -4.09798 4.38389 0
M  V30 9339 H 885.517 -2.73676 4.00287 0
M  V30 9340 N 886.86 -1.21182 -1.00761 0
M  V30 9341 C 887.77 -0.984691 -2.12934 0
M  V30 9342 C 888.786 0.0623657 -1.73888 0
M  V30 9343 O 889.962 -0.1271 -2.00999 0
M  V30 9344 C 887.027 -0.549447 -3.42319 0
M  V30 9345 C 886.088 -1.66841 -3.95553 0
M  V30 9346 C 885.321 -1.25384 -5.18763 0
M  V30 9347 O 885.544 -0.126333 -5.7026 0
M  V30 9348 O 884.478 -2.06475 -5.65377 0
M  V30 9349 H 888.304 -1.92413 -2.3497 0
M  V30 9350 H 885.889 -0.99647 -1.11314 0
M  V30 9351 H 887.771 -0.316384 -4.20211 0
M  V30 9352 H 886.446 0.361304 -3.21677 0
M  V30 9353 H 885.353 -1.95585 -3.189 0
M  V30 9354 H 886.686 -2.55649 -4.206 0
M  V30 9355 N 888.338 1.20213 -1.01915 0
M  V30 9356 C 889.288 2.20957 -0.562327 0
M  V30 9357 C 890.272 1.56258 0.383704 0
M  V30 9358 O 891.464 1.75794 0.206255 0
M  V30 9359 C 888.593 3.43167 0.0954035 0
M  V30 9360 C 887.679 4.15028 -0.872487 0
M  V30 9361 N 888.07 4.63231 -2.03103 0
M  V30 9362 C 886.368 4.4057 -0.69385 0
M  V30 9363 C 887.069 5.18307 -2.64069 0
M  V30 9364 N 886.045 5.08522 -1.9211 0
M  V30 9365 H 889.847 2.55894 -1.44553 0
M  V30 9366 H 887.361 1.36178 -0.884831 0
M  V30 9367 H 889.358 4.14569 0.440232 0
M  V30 9368 H 888.018 3.09734 0.974413 0
M  V30 9369 H 889.029 4.58365 -2.41086 0
M  V30 9370 H 885.706 4.17276 0.136889 0
M  V30 9371 H 887.096 5.65961 -3.6213 0
M  V30 9372 N 889.816 0.795718 1.36037 0
M  V30 9373 C 891.062 0.380668 1.99806 0
M  V30 9374 C 891.417 -1.03783 1.62009 0
M  V30 9375 O 890.71 -1.70819 0.867831 0
M  V30 9376 C 890.904 0.489038 3.54038 0
M  V30 9377 C 890.733 1.91652 4.06817 0
M  V30 9378 C 889.503 2.54252 4.36674 0
M  V30 9379 C 891.701 2.87956 4.26129 0
M  V30 9380 N 889.683 3.88523 4.75314 0
M  V30 9381 C 891.054 4.07074 4.67644 0
M  V30 9382 C 893.109 2.8493 4.08313 0
M  V30 9383 C 891.812 5.23583 4.93208 0
M  V30 9384 C 893.838 4.00632 4.35027 0
M  V30 9385 C 893.2 5.18496 4.76804 0
M  V30 9386 H 889.299 0.186842 0.759351 0
M  V30 9387 H 891.883 1.03465 1.64933 0
M  V30 9388 H 890.054 -0.134893 3.88166 0
M  V30 9389 H 891.786 0.0496256 4.0467 0
M  V30 9390 H 888.541 2.05685 4.26604 0
M  V30 9391 H 888.965 4.57623 4.98909 0
M  V30 9392 H 893.607 1.94964 3.75165 0
M  V30 9393 H 891.325 6.14129 5.25234 0
M  V30 9394 H 894.911 3.99659 4.22805 0
M  V30 9395 H 893.791 6.06538 4.97073 0
M  V30 9396 N 891.294 -1.47756 0.548274 0
M  V30 9397 C 892.224 -2.32702 -0.19284 0
M  V30 9398 C 893.205 -1.43237 -0.917457 0
M  V30 9399 O 894.39 -1.72103 -0.89967 0
M  V30 9400 C 891.52 -3.24831 -1.22891 0
M  V30 9401 C 890.474 -4.23466 -0.621312 0
M  V30 9402 C 889.8 -5.04856 -1.76137 0
M  V30 9403 C 891.1 -5.20616 0.419055 0
M  V30 9404 H 892.794 -2.94914 0.516323 0
M  V30 9405 H 890.34 -1.41818 0.24975 0
M  V30 9406 H 892.293 -3.83094 -1.75547 0
M  V30 9407 H 891.017 -2.60656 -1.9679 0
M  V30 9408 H 889.676 -3.66416 -0.116123 0
M  V30 9409 H 889.324 -4.37091 -2.48918 0
M  V30 9410 H 889.024 -5.71629 -1.36065 0
M  V30 9411 H 890.548 -5.65976 -2.29136 0
M  V30 9412 H 891.962 -5.73296 -0.0211034 0
M  V30 9413 H 890.359 -5.95543 0.738163 0
M  V30 9414 H 891.429 -4.66638 1.31822 0
M  V30 9415 N 892.772 -0.284283 -1.55015 0
M  V30 9416 C 893.682 0.60906 -2.26556 0
M  V30 9417 C 894.698 1.16246 -1.29472 0
M  V30 9418 O 895.874 1.1908 -1.62425 0
M  V30 9419 C 892.939 1.77246 -2.97968 0
M  V30 9420 C 892 1.25482 -4.10552 0
M  V30 9421 C 891.233 2.36277 -4.78549 0
M  V30 9422 O 891.456 3.55829 -4.45805 0
M  V30 9423 O 890.39 2.03914 -5.66306 0
M  V30 9424 H 894.216 0.0292298 -3.03686 0
M  V30 9425 H 891.801 -0.0513466 -1.49312 0
M  V30 9426 H 893.683 2.45062 -3.42815 0
M  V30 9427 H 892.358 2.33921 -2.23747 0
M  V30 9428 H 891.265 0.542859 -3.7014 0
M  V30 9429 H 892.598 0.733708 -4.86701 0
M  V30 9430 N 894.251 1.57596 -0.0117121 0
M  V30 9431 C 895.479 1.9536 0.681334 0
M  V30 9432 C 895.894 0.887255 1.66653 0
M  V30 9433 O 895.251 -0.132692 1.82017 0
M  V30 9434 C 895.302 3.33165 1.40298 0
M  V30 9435 O 895.023 4.35707 0.45728 0
M  V30 9436 C 896.524 3.85458 2.18946 0
M  V30 9437 H 893.744 0.643826 0.189023 0
M  V30 9438 H 896.288 2.04392 -0.066311 0
M  V30 9439 H 894.443 3.25404 2.10216 0
M  V30 9440 H 894.857 5.15495 0.96773 0
M  V30 9441 H 896.331 4.84275 2.64918 0
M  V30 9442 H 896.808 3.18781 3.02118 0
M  V30 9443 H 897.414 3.96431 1.5402 0
M  V30 9444 N 895.729 -0.261212 1.5542 0
M  V30 9445 C 896.659 -1.32712 1.92119 0
M  V30 9446 C 897.64 -1.50934 0.784406 0
M  V30 9447 O 898.825 -1.63781 1.04352 0
M  V30 9448 C 895.955 -2.68453 2.20341 0
M  V30 9449 C 894.909 -2.64947 3.36136 0
M  V30 9450 C 894.235 -4.04349 3.49865 0
M  V30 9451 C 895.535 -2.23182 4.72215 0
M  V30 9452 H 897.229 -1.02245 2.81401 0
M  V30 9453 H 894.775 -0.490406 1.35392 0
M  V30 9454 H 896.728 -3.43144 2.44603 0
M  V30 9455 H 895.452 -3.00527 1.27871 0
M  V30 9456 H 894.111 -1.92714 3.11861 0
M  V30 9457 H 893.759 -4.33665 2.5484 0
M  V30 9458 H 893.459 -4.02895 4.27726 0
M  V30 9459 H 894.983 -4.80761 3.76432 0
M  V30 9460 H 896.397 -2.87599 4.95943 0
M  V30 9461 H 894.794 -2.32867 5.53076 0
M  V30 9462 H 895.864 -1.18327 4.70241 0
M  V30 9463 N 897.207 -1.48554 -0.526253 0
M  V30 9464 C 898.623 -1.34757 -0.855138 0
M  V30 9465 C 898.823 -0.36142 -1.98232 0
M  V30 9466 O 897.879 0.216026 -2.51574 0
M  V30 9467 C 899.192 -2.74877 -1.21915 0
M  V30 9468 C 900.74 -2.83393 -1.32882 0
M  V30 9469 C 901.215 -4.24223 -1.72624 0
M  V30 9470 N 902.706 -4.26913 -1.7972 0
M  V30 9471 C 903.441 -5.32824 -2.11863 0
M  V30 9472 N 902.937 -6.49008 -2.42405 0
M  V30 9473 N 904.73 -5.20221 -2.12901 0
M  V30 9474 H 896.881 -2.11284 0.217422 0
M  V30 9475 H 899.144 -0.947367 0.0346362 0
M  V30 9476 H 898.85 -3.48619 -0.464486 0
M  V30 9477 H 898.724 -3.0864 -2.16844 0
M  V30 9478 H 901.111 -2.09904 -2.07424 0
M  V30 9479 H 901.192 -2.53245 -0.360638 0
M  V30 9480 H 900.836 -4.98229 -0.986411 0
M  V30 9481 H 900.766 -4.51817 -2.70498 0
M  V30 9482 H 903.257 -3.4311 -1.58379 0
M  V30 9483 H 903.57 -7.25561 -2.66048 0
M  V30 9484 H 901.915 -6.52277 -2.39917 0
M  V30 9485 H 905.106 -4.28469 -1.885 0
M  V30 9486 H 905.279 -6.02861 -2.37619 0
M  V30 9487 N 898.685 0.775411 -1.37205 0
M  V30 9488 C 899.618 1.8957 -1.27037 0
M  V30 9489 C 900.596 1.61891 -0.151643 0
M  V30 9490 O 901.78 1.85673 -0.325218 0
M  V30 9491 C 898.907 3.24712 -0.963316 0
M  V30 9492 C 897.953 3.71306 -2.09842 0
M  V30 9493 S 898.786 3.8541 -3.71778 0
M  V30 9494 C 899.942 5.23406 -3.43216 0
M  V30 9495 H 900.175 1.97905 -2.21857 0
M  V30 9496 H 897.708 0.936127 -1.22784 0
M  V30 9497 H 899.666 4.02768 -0.792983 0
M  V30 9498 H 898.327 3.14083 -0.0326561 0
M  V30 9499 H 897.52 4.69271 -1.83849 0
M  V30 9500 H 897.122 3.00341 -2.2287 0
M  V30 9501 H 899.414 6.08454 -2.97977 0
M  V30 9502 H 900.357 5.54409 -4.40495 0
M  V30 9503 H 900.765 4.9117 -2.78231 0
M  V30 9504 N 900.163 1.21714 1.00117 0
M  V30 9505 C 901.113 0.947259 2.07391 0
M  V30 9506 C 902.097 -0.0989662 1.60595 0
M  V30 9507 O 903.289 0.11047 1.76655 0
M  V30 9508 C 900.418 0.517954 3.3937 0
M  V30 9509 C 899.504 1.59846 3.92823 0
M  V30 9510 N 899.895 2.82438 4.19598 0
M  V30 9511 C 898.193 1.46822 4.2114 0
M  V30 9512 C 898.894 3.52247 4.62922 0
M  V30 9513 N 897.87 2.79696 4.66124 0
M  V30 9514 H 901.672 1.8786 2.26022 0
M  V30 9515 H 899.186 1.11344 1.18221 0
M  V30 9516 H 901.183 0.305951 4.15776 0
M  V30 9517 H 899.843 -0.40658 3.22144 0
M  V30 9518 H 900.854 3.18944 4.08038 0
M  V30 9519 H 897.531 0.609259 4.13031 0
M  V30 9520 H 898.921 4.57232 4.9233 0
M  V30 9521 N 901.641 -1.19671 1.02551 0
M  V30 9522 C 902.571 -2.25009 0.623965 0
M  V30 9523 C 903.552 -1.66129 -0.36538 0
M  V30 9524 O 904.737 -1.92599 -0.248842 0
M  V30 9525 C 901.867 -3.47287 -0.0294869 0
M  V30 9526 C 900.821 -4.18818 0.881781 0
M  V30 9527 C 900.147 -5.34618 0.0936189 0
M  V30 9528 C 901.447 -4.73986 2.19396 0
M  V30 9529 H 903.141 -2.58851 1.50454 0
M  V30 9530 H 900.687 -1.24425 0.724872 0
M  V30 9531 H 902.64 -4.20168 -0.322016 0
M  V30 9532 H 901.364 -3.12635 -0.944838 0
M  V30 9533 H 900.023 -3.47815 1.15845 0
M  V30 9534 H 899.671 -4.9621 -0.823661 0
M  V30 9535 H 899.371 -5.83409 0.700568 0
M  V30 9536 H 900.895 -6.10297 -0.192249 0
M  V30 9537 H 902.309 -5.38639 1.96319 0
M  V30 9538 H 900.706 -5.3325 2.75254 0
M  V30 9539 H 901.776 -3.92238 2.85092 0
M  V30 9540 N 903.119 -0.802921 -1.35613 0
M  V30 9541 C 904.082 -0.216422 -2.28176 0
M  V30 9542 C 905.082 0.594101 -1.49422 0
M  V30 9543 O 906.272 0.41312 -1.6923 0
M  V30 9544 C 903.404 0.698746 -3.33662 0
M  V30 9545 H 904.597 -1.03276 -2.81557 0
M  V30 9546 H 902.15 -0.573307 -1.45406 0
M  V30 9547 H 902.885 1.53891 -2.85461 0
M  V30 9548 H 902.67 0.119314 -3.91918 0
M  V30 9549 H 904.16 1.10354 -4.02755 0
M  V30 9550 N 904.597 1.47463 -0.556102 0
M  V30 9551 C 905.845 2.02075 -0.0315712 0
M  V30 9552 C 906.166 1.43292 1.32259 0
M  V30 9553 O 905.436 0.60771 1.86236 0
M  V30 9554 H 904.016 0.74695 -0.0086816 0
M  V30 9555 H 906.678 1.80879 -0.725859 0
M  V30 9556 H 905.774 3.12047 0.0573538 0
M  V30 9557 N 906.075 0.2925 1.54862 0
M  V30 9558 C 907.025 -0.60226 2.19902 0
M  V30 9559 C 908.009 -1.10535 1.16923 0
M  V30 9560 O 909.201 -1.04753 1.42674 0
M  V30 9561 C 906.33 -1.77774 2.93686 0
M  V30 9562 C 905.416 -1.29101 4.03972 0
M  V30 9563 N 905.807 -0.521671 5.03103 0
M  V30 9564 C 904.105 -1.57248 4.17359 0
M  V30 9565 C 904.806 -0.263545 5.81103 0
M  V30 9566 N 903.782 -0.840937 5.37056 0
M  V30 9567 H 907.584 -0.00682274 2.93899 0
M  V30 9568 H 905.098 0.0968604 1.62111 0
M  V30 9569 H 907.095 -2.43021 3.38743 0
M  V30 9570 H 905.755 -2.37696 2.21203 0
M  V30 9571 H 906.766 -0.167364 5.1763 0
M  V30 9572 H 903.443 -2.1798 3.56077 0
M  V30 9573 H 904.833 0.353783 6.70968 0
M  V30 9574 N 907.553 -1.57587 0.0200696 0
M  V30 9575 C 908.483 -2.12702 -0.963333 0
M  V30 9576 C 909.464 -1.04094 -1.34531 0
M  V30 9577 O 910.649 -1.31881 -1.42552 0
M  V30 9578 C 907.779 -2.64673 -2.24868 0
M  V30 9579 C 906.733 -3.77987 -2.00772 0
M  V30 9580 C 906.059 -4.16351 -3.35494 0
M  V30 9581 C 907.359 -5.0444 -1.35416 0
M  V30 9582 H 909.053 -2.95121 -0.504363 0
M  V30 9583 H 906.599 -1.41966 -0.24116 0
M  V30 9584 H 908.552 -3.01862 -2.94036 0
M  V30 9585 H 907.276 -1.79403 -2.72914 0
M  V30 9586 H 905.935 -3.41223 -1.34025 0
M  V30 9587 H 905.583 -3.28075 -3.81282 0
M  V30 9588 H 905.283 -4.92705 -3.20181 0
M  V30 9589 H 906.807 -4.56115 -4.05945 0
M  V30 9590 H 908.221 -5.39273 -1.94571 0
M  V30 9591 H 906.618 -5.85732 -1.30529 0
M  V30 9592 H 907.688 -4.83803 -0.325923 0
M  V30 9593 N 909.032 0.252966 -1.55557 0
M  V30 9594 C 910.443 0.822503 -1.67606 0
M  V30 9595 C 910.794 1.86265 -0.616411 0
M  V30 9596 O 909.919 2.15082 0.238447 0
M  V30 9597 C 910.514 1.49866 -3.03852 0
M  V30 9598 C 909.073 2.01597 -3.17861 0
M  V30 9599 C 908.22 0.864943 -2.63465 0
M  V30 9600 H 911.171 0.0288958 -1.58674 0
M  V30 9601 H 911.192 2.36646 -2.97958 0
M  V30 9602 H 910.704 0.741378 -3.80953 0
M  V30 9603 H 908.805 2.80224 -2.45571 0
M  V30 9604 H 908.918 2.21752 -4.24692 0
M  V30 9605 H 907.282 1.2638 -2.21134 0
M  V30 9606 H 908.065 0.120847 -3.43087 0
M  V30 9607 N 910.51 1.48831 0.518367 0
M  V30 9608 C 911.44 1.67119 1.63075 0
M  V30 9609 C 912.421 0.519948 1.61958 0
M  V30 9610 O 913.606 0.753824 1.78972 0
M  V30 9611 C 910.736 1.72158 3.01627 0
M  V30 9612 C 909.69 2.86898 3.17606 0
M  V30 9613 C 909.016 2.77035 4.57335 0
M  V30 9614 C 910.316 4.28057 2.99274 0
M  V30 9615 H 912.01 2.60248 1.48025 0
M  V30 9616 H 909.556 1.2524 0.710694 0
M  V30 9617 H 911.509 1.83539 3.7933 0
M  V30 9618 H 910.233 0.756157 3.17726 0
M  V30 9619 H 908.892 2.75091 2.42323 0
M  V30 9620 H 908.54 1.78438 4.70286 0
M  V30 9621 H 908.24 3.54036 4.6897 0
M  V30 9622 H 909.764 2.904 5.37122 0
M  V30 9623 H 911.178 4.40636 3.6676 0
M  V30 9624 H 909.575 5.06145 3.22393 0
M  V30 9625 H 910.645 4.4371 1.95574 0
M  V30 9626 N 911.988 -0.768124 1.37614 0
M  V30 9627 C 913.236 -1.52379 1.3276 0
M  V30 9628 C 913.557 -1.94809 -0.0863564 0
M  V30 9629 O 912.827 -1.66568 -1.03112 0
M  V30 9630 H 911.407 -0.565179 0.488448 0
M  V30 9631 H 914.069 -0.913974 1.72141 0
M  V30 9632 H 913.165 -2.4215 1.96901 0
M  V30 9633 N 913.466 -1.22244 -0.994698 0
M  V30 9634 C 914.877 -1.043 -1.5485 0
M  V30 9635 C 915.228 0.394102 -1.92201 0
M  V30 9636 O 914.353 1.27883 -1.74571 0
M  V30 9637 C 914.948 -1.88708 -2.8138 0
M  V30 9638 C 913.507 -1.75067 -3.3321 0
M  V30 9639 C 912.654 -1.85286 -2.06312 0
M  V30 9640 H 915.605 -1.36115 -0.815988 0
M  V30 9641 H 915.626 -1.40342 -3.53673 0
M  V30 9642 H 915.138 -2.93296 -2.54164 0
M  V30 9643 H 913.239 -0.732047 -3.65338 0
M  V30 9644 H 913.352 -2.57632 -4.03934 0
M  V30 9645 H 911.716 -1.28706 -2.19788 0
M  V30 9646 H 912.499 -2.91401 -1.81494 0
M  V30 9647 N 914.944 1.19125 -1.03184 0
M  V30 9648 C 915.876 2.21914 -0.573294 0
M  V30 9649 C 916.889 1.5894 0.352397 0
M  V30 9650 O 918.078 1.77883 0.148318 0
M  V30 9651 C 915.178 3.38403 0.18355 0
M  V30 9652 C 914.351 4.3096 -0.747817 0
M  V30 9653 C 913.41 5.26188 -0.0358489 0
M  V30 9654 O 912.436 5.65321 -0.663388 0
M  V30 9655 N 913.638 5.67235 1.23387 0
M  V30 9656 H 916.403 2.61881 -1.45734 0
M  V30 9657 H 913.964 1.33821 -0.911231 0
M  V30 9658 H 915.956 3.99124 0.669468 0
M  V30 9659 H 914.526 2.97201 0.969043 0
M  V30 9660 H 913.746 3.67976 -1.41377 0
M  V30 9661 H 915.034 4.89708 -1.38071 0
M  V30 9662 H 914.432 5.37481 1.76439 0
M  V30 9663 H 912.989 6.30196 1.66423 0
M  V30 9664 N 916.422 0.810101 1.35185 0
M  V30 9665 C 917.352 0.237453 2.32289 0
M  V30 9666 C 918.333 -0.639032 1.5764 0
M  V30 9667 O 919.518 -0.568575 1.8569 0
M  V30 9668 C 916.648 -0.611964 3.41866 0
M  V30 9669 C 915.602 0.166318 4.27677 0
M  V30 9670 C 914.928 -0.805024 5.28605 0
M  V30 9671 C 916.228 1.36729 5.04086 0
M  V30 9672 H 917.922 1.04874 2.80432 0
M  V30 9673 H 915.468 0.505751 1.34826 0
M  V30 9674 H 917.421 -1.02267 4.08802 0
M  V30 9675 H 916.145 -1.45617 2.92341 0
M  V30 9676 H 914.804 0.558238 3.62325 0
M  V30 9677 H 914.452 -1.64483 4.75347 0
M  V30 9678 H 914.152 -0.288577 5.86891 0
M  V30 9679 H 915.676 -1.21386 5.98413 0
M  V30 9680 H 917.09 1.03128 5.63948 0
M  V30 9681 H 915.487 1.81848 5.71884 0
M  V30 9682 H 916.557 2.15214 4.34524 0
M  V30 9683 N 917.9 -1.47166 0.563914 0
M  V30 9684 C 918.81 -2.33885 -0.182977 0
M  V30 9685 C 919.826 -1.48605 -0.905132 0
M  V30 9686 O 921.002 -1.81518 -0.872527 0
M  V30 9687 C 918.067 -3.25433 -1.19558 0
M  V30 9688 C 917.128 -4.26607 -0.480129 0
M  V30 9689 C 916.361 -5.1378 -1.44449 0
M  V30 9690 O 916.584 -5.03531 -2.67979 0
M  V30 9691 O 915.518 -5.94109 -0.965321 0
M  V30 9692 H 919.344 -2.99065 0.528544 0
M  V30 9693 H 916.929 -1.45834 0.324468 0
M  V30 9694 H 918.811 -3.81964 -1.77993 0
M  V30 9695 H 917.486 -2.62873 -1.8889 0
M  V30 9696 H 916.393 -3.73817 0.145583 0
M  V30 9697 H 917.726 -4.919 0.171868 0
M  V30 9698 N 919.378 -0.300708 -1.54705 0
M  V30 9699 C 920.31 0.609179 -2.20956 0
M  V30 9700 C 921.323 1.09776 -1.20221 0
M  V30 9701 O 922.512 1.01527 -1.46815 0
M  V30 9702 C 919.612 1.84595 -2.84214 0
M  V30 9703 C 918.785 1.49991 -4.10879 0
M  V30 9704 C 917.844 2.5918 -4.57943 0
M  V30 9705 O 916.87 2.24285 -5.23149 0
M  V30 9706 N 918.072 3.89714 -4.30236 0
M  V30 9707 H 920.837 0.0420111 -2.99671 0
M  V30 9708 H 918.398 -0.122896 -1.61433 0
M  V30 9709 H 920.39 2.56988 -3.12633 0
M  V30 9710 H 918.96 2.32152 -2.09342 0
M  V30 9711 H 918.18 0.608637 -3.89473 0
M  V30 9712 H 919.468 1.24409 -4.93356 0
M  V30 9713 H 918.866 4.20874 -3.77997 0
M  V30 9714 H 917.423 4.58406 -4.63365 0
M  V30 9715 N 920.856 1.57574 -0.0284266 0
M  V30 9716 C 921.786 2.1321 0.952039 0
M  V30 9717 C 922.767 1.04806 1.33977 0
M  V30 9718 O 923.952 1.32635 1.41851 0
M  V30 9719 C 921.082 2.65862 2.23461 0
M  V30 9720 C 920.036 3.79047 1.98765 0
M  V30 9721 C 919.362 4.18124 3.33281 0
M  V30 9722 C 920.662 5.05151 1.32739 0
M  V30 9723 H 922.356 2.95385 0.488705 0
M  V30 9724 H 919.902 1.42092 0.233628 0
M  V30 9725 H 921.855 3.03417 2.92431 0
M  V30 9726 H 920.579 1.80848 2.71959 0
M  V30 9727 H 919.238 3.41929 1.32213 0
M  V30 9728 H 918.886 3.30092 3.79537 0
M  V30 9729 H 918.586 4.94396 3.17563 0
M  V30 9730 H 920.11 4.58262 4.0352 0
M  V30 9731 H 921.524 5.40297 1.91708 0
M  V30 9732 H 919.921 5.86416 1.27421 0
M  V30 9733 H 920.991 4.83969 0.300261 0
M  V30 9734 N 922.334 -0.244713 1.55689 0
M  V30 9735 C 923.611 -0.995407 1.68378 0
M  V30 9736 C 923.991 -2.03288 0.568949 0
M  V30 9737 O 923.339 -2.24469 -0.427299 0
M  V30 9738 C 923.549 -1.62678 3.08767 0
M  V30 9739 C 924.897 -2.1278 3.67437 0
M  V30 9740 O 925.921 -1.72614 3.11581 0
M  V30 9741 O 924.78 -2.86536 4.65359 0
M  V30 9742 H 921.874 -0.463476 0.684923 0
M  V30 9743 H 924.42 -0.238326 1.68018 0
M  V30 9744 H 923.192 -0.876469 3.81358 0
M  V30 9745 H 922.815 -2.45 3.13146 0
M  V30 9746 N 923.813 -1.49104 -0.510467 0
M  V30 9747 C 925.229 -1.35657 -0.840797 0
M  V30 9748 C 925.429 -0.382425 -1.97838 0
M  V30 9749 O 924.485 0.189331 -2.51789 0
M  V30 9750 C 925.798 -2.76155 -1.18992 0
M  V30 9751 C 927.346 -2.84786 -1.29868 0
M  V30 9752 C 927.821 -4.2603 -1.68115 0
M  V30 9753 N 929.312 -4.28796 -1.75181 0
M  V30 9754 C 930.047 -5.35041 -2.062 0
M  V30 9755 N 929.543 -6.51543 -2.35508 0
M  V30 9756 N 931.336 -5.2245 -2.07371 0
M  V30 9757 H 923.487 -2.11042 0.23982 0
M  V30 9758 H 925.75 -0.946946 0.0446824 0
M  V30 9759 H 925.456 -3.49092 -0.427484 0
M  V30 9760 H 925.33 -3.10922 -2.13558 0
M  V30 9761 H 927.717 -2.12092 -2.05186 0
M  V30 9762 H 927.798 -2.53613 -0.333758 0
M  V30 9763 H 927.442 -4.99247 -0.933512 0
M  V30 9764 H 927.372 -4.5466 -2.65691 0
M  V30 9765 H 929.863 -3.44771 -1.5473 0
M  V30 9766 H 930.176 -7.28342 -2.58337 0
M  V30 9767 H 928.521 -6.54785 -2.32985 0
M  V30 9768 H 931.712 -4.30444 -1.83945 0
M  V30 9769 H 931.885 -6.05347 -2.31212 0
M  V30 9770 N 925.291 0.760815 -1.38019 0
M  V30 9771 C 926.539 1.51673 -1.33566 0
M  V30 9772 C 926.86 1.94852 0.076024 0
M  V30 9773 O 926.13 1.67112 1.02227 0
M  V30 9774 H 924.71 0.562581 -0.491438 0
M  V30 9775 H 927.372 0.904832 -1.72623 0
M  V30 9776 H 926.468 2.41102 -1.98182 0
M  V30 9777 N 926.769 1.22769 0.988202 0
M  V30 9778 C 928.016 1.05509 1.72841 0
M  V30 9779 C 928.344 -0.409145 1.90148 0
M  V30 9780 O 927.599 -1.3195 1.44526 0
M  V30 9781 C 927.898 1.71679 3.13466 0
M  V30 9782 C 927.564 3.21584 3.16061 0
M  V30 9783 C 926.226 3.62486 3.16476 0
M  V30 9784 C 928.578 4.17511 3.11984 0
M  V30 9785 C 925.906 4.97789 3.10521 0
M  V30 9786 C 928.258 5.52796 3.0757 0
M  V30 9787 C 926.922 5.93072 3.06304 0
M  V30 9788 H 926.192 0.386085 0.632471 0
M  V30 9789 H 928.839 1.52596 1.157 0
M  V30 9790 H 927.144 1.1693 3.73945 0
M  V30 9791 H 928.841 1.55809 3.69492 0
M  V30 9792 H 925.431 2.89019 3.1649 0
M  V30 9793 H 929.615 3.86926 3.10809 0
M  V30 9794 H 924.871 5.28218 3.07888 0
M  V30 9795 H 929.045 6.26848 3.03372 0
M  V30 9796 H 926.672 6.97879 3.01444 0
M  V30 9797 N 928.247 -1.18576 1.03814 0
M  V30 9798 C 929.493 -1.89032 0.750892 0
M  V30 9799 C 929.848 -1.78683 -0.713444 0
M  V30 9800 O 929.141 -1.1746 -1.51373 0
M  V30 9801 C 929.335 -3.38448 1.14837 0
M  V30 9802 C 929.164 -3.63339 2.64981 0
M  V30 9803 C 927.934 -3.80847 3.3209 0
M  V30 9804 C 930.132 -3.64131 3.63198 0
M  V30 9805 N 928.114 -3.93453 4.71241 0
M  V30 9806 C 929.485 -3.82421 4.88011 0
M  V30 9807 C 931.54 -3.47206 3.56865 0
M  V30 9808 C 930.243 -3.85538 6.0725 0
M  V30 9809 C 932.269 -3.51605 4.75529 0
M  V30 9810 C 931.631 -3.70388 5.99159 0
M  V30 9811 H 927.73 -0.710447 0.326786 0
M  V30 9812 H 930.314 -1.42444 1.32732 0
M  V30 9813 H 928.485 -3.83737 0.600058 0
M  V30 9814 H 930.217 -3.96462 0.812406 0
M  V30 9815 H 926.972 -3.80122 2.82496 0
M  V30 9816 H 927.396 -4.03584 5.43552 0
M  V30 9817 H 932.038 -3.31632 2.6226 0
M  V30 9818 H 929.756 -3.99901 7.02214 0
M  V30 9819 H 933.342 -3.39787 4.72267 0
M  V30 9820 H 932.222 -3.73679 6.89445 0
M  V30 9821 N 929.725 -0.817259 -1.34754 0
M  V30 9822 C 930.635 -0.236946 -2.334 0
M  V30 9823 C 931.651 0.625685 -1.62361 0
M  V30 9824 O 932.827 0.534921 -1.94166 0
M  V30 9825 C 929.892 0.596215 -3.41535 0
M  V30 9826 C 928.953 -0.288154 -4.28332 0
M  V30 9827 C 928.186 0.505337 -5.31302 0
M  V30 9828 O 928.409 1.73912 -5.43241 0
M  V30 9829 O 927.343 -0.109374 -6.01801 0
M  V30 9830 H 931.169 -1.05327 -2.84851 0
M  V30 9831 H 928.754 -0.579275 -1.37713 0
M  V30 9832 H 930.636 1.07041 -4.07578 0
M  V30 9833 H 929.311 1.38997 -2.92338 0
M  V30 9834 H 928.218 -0.809724 -3.65232 0
M  V30 9835 H 929.551 -1.04612 -4.80955 0
M  V30 9836 N 931.203 1.46865 -0.571711 0
M  V30 9837 C 932.431 2.06818 -0.0583975 0
M  V30 9838 C 932.846 1.42218 1.24175 0
M  V30 9839 O 932.203 0.523655 1.74826 0
M  V30 9840 C 932.254 3.61281 0.125673 0
M  V30 9841 O 931.975 4.23462 -1.123 0
M  V30 9842 C 933.476 4.38137 0.674604 0
M  V30 9843 H 930.696 0.668948 -0.052438 0
M  V30 9844 H 933.24 1.88656 -0.789251 0
M  V30 9845 H 931.395 3.78908 0.806707 0
M  V30 9846 H 931.809 5.16192 -0.929869 0
M  V30 9847 H 933.283 5.46845 0.752626 0
M  V30 9848 H 933.76 4.05419 1.68915 0
M  V30 9849 H 934.366 4.2529 0.0287979 0
M  V30 9850 N 932.681 0.308908 1.54543 0
M  V30 9851 C 933.911 -0.299983 2.04411 0
M  V30 9852 C 934.319 -1.47463 1.18538 0
M  V30 9853 O 933.662 -1.82547 0.205463 0
M  V30 9854 C 933.724 -0.811579 3.50219 0
M  V30 9855 C 933.388 0.238834 4.56375 0
M  V30 9856 C 934.385 1.06997 5.08771 0
M  V30 9857 C 932.07 0.382808 5.00839 0
M  V30 9858 C 934.064 2.03096 6.04178 0
M  V30 9859 C 931.751 1.34723 5.96065 0
M  V30 9860 C 932.749 2.16978 6.47618 0
M  V30 9861 O 932.437 3.11783 7.40977 0
M  V30 9862 H 932.169 -0.0679682 0.672574 0
M  V30 9863 H 934.723 0.448815 2.00437 0
M  V30 9864 H 932.953 -1.61104 3.51543 0
M  V30 9865 H 934.642 -1.33721 3.83241 0
M  V30 9866 H 935.408 0.969654 4.75208 0
M  V30 9867 H 931.287 -0.247507 4.60335 0
M  V30 9868 H 934.831 2.67338 6.44342 0
M  V30 9869 H 930.728 1.44824 6.29044 0
M  V30 9870 H 931.496 3.06853 7.58804 0
M  V30 9871 N 934.159 -1.57557 0.0367827 0
M  V30 9872 C 935.575 -1.56366 -0.31967 0
M  V30 9873 C 935.775 -1.04313 -1.72398 0
M  V30 9874 O 934.831 -0.693278 -2.42796 0
M  V30 9875 C 936.144 -3.00267 -0.161274 0
M  V30 9876 C 937.692 -3.12128 -0.233464 0
M  V30 9877 C 938.167 -4.57882 -0.103767 0
M  V30 9878 N 939.658 -4.62922 -0.160506 0
M  V30 9879 C 940.393 -5.73338 -0.0840493 0
M  V30 9880 N 939.889 -6.92786 0.043933 0
M  V30 9881 N 941.682 -5.61929 -0.138592 0
M  V30 9882 H 933.833 -1.8972 0.954996 0
M  V30 9883 H 936.096 -0.87304 0.369467 0
M  V30 9884 H 935.802 -3.42331 0.80639 0
M  V30 9885 H 935.676 -3.65599 -0.928304 0
M  V30 9886 H 938.063 -2.69972 -1.19159 0
M  V30 9887 H 938.144 -2.49503 0.564075 0
M  V30 9888 H 937.788 -5.0072 0.850973 0
M  V30 9889 H 937.718 -5.18496 -0.920268 0
M  V30 9890 H 940.209 -3.7701 -0.259257 0
M  V30 9891 H 940.522 -7.72741 0.095372 0
M  V30 9892 H 938.867 -6.94955 0.0788211 0
M  V30 9893 H 942.058 -4.67499 -0.237031 0
M  V30 9894 H 942.231 -6.47956 -0.075546 0
M  V30 9895 N 935.637 0.236453 -1.55816 0
M  V30 9896 C 937.053 0.585465 -1.48474 0
M  V30 9897 C 937.253 1.8785 -0.72902 0
M  V30 9898 O 936.309 2.51131 -0.262614 0
M  V30 9899 C 937.622 0.678506 -2.92945 0
M  V30 9900 C 939.17 0.770135 -3.03378 0
M  V30 9901 C 939.645 0.894649 -4.49177 0
M  V30 9902 N 941.136 0.959253 -4.53158 0
M  V30 9903 C 941.871 1.07505 -5.63232 0
M  V30 9904 N 941.367 1.15572 -6.83092 0
M  V30 9905 N 943.16 1.10902 -5.51051 0
M  V30 9906 H 935.311 -0.612241 -2.03385 0
M  V30 9907 H 937.574 -0.212796 -0.923808 0
M  V30 9908 H 937.28 -0.201757 -3.51121 0
M  V30 9909 H 937.154 1.54703 -3.44016 0
M  V30 9910 H 939.541 1.64085 -2.45276 0
M  V30 9911 H 939.622 -0.123753 -2.555 0
M  V30 9912 H 939.266 0.0284537 -5.07892 0
M  V30 9913 H 939.196 1.80373 -4.94745 0
M  V30 9914 H 941.687 0.907827 -3.66834 0
M  V30 9915 H 942 1.24343 -7.62731 0
M  V30 9916 H 940.345 1.12511 -6.85833 0
M  V30 9917 H 943.536 1.04255 -4.56343 0
M  V30 9918 H 943.709 1.19581 -6.36871 0
M  V30 9919 N 937.115 1.49373 0.502552 0
M  V30 9920 C 938.363 1.58467 1.25429 0
M  V30 9921 C 938.684 0.272593 1.93085 0
M  V30 9922 O 937.954 -0.707947 1.82661 0
M  V30 9923 H 936.534 0.583866 0.46595 0
M  V30 9924 H 939.196 1.8599 0.582568 0
M  V30 9925 H 938.292 2.37993 2.01906 0
M  V30 9926 N 938.594 -0.753485 1.38421 0
M  V30 9927 C 939.504 -1.89797 1.37892 0
M  V30 9928 C 940.52 -1.71797 0.276023 0
M  V30 9929 O 941.696 -1.94718 0.514464 0
M  V30 9930 C 938.761 -3.25166 1.20284 0
M  V30 9931 C 937.822 -3.55691 2.4038 0
M  V30 9932 C 937.055 -4.84601 2.23602 0
M  V30 9933 O 937.278 -5.56985 1.22979 0
M  V30 9934 O 936.212 -5.14605 3.12194 0
M  V30 9935 H 940.038 -1.93197 2.34326 0
M  V30 9936 H 937.623 -0.898775 1.19342 0
M  V30 9937 H 939.505 -4.06099 1.12525 0
M  V30 9938 H 938.18 -3.22577 0.269352 0
M  V30 9939 H 937.087 -2.74919 2.53714 0
M  V30 9940 H 938.42 -3.6304 3.32359 0
M  V30 9941 N 940.072 -1.23292 -0.981677 0
M  V30 9942 C 941.297 -1.09176 -1.76339 0
M  V30 9943 C 941.722 0.352726 -1.84763 0
M  V30 9944 O 941.08 1.25509 -1.30832 0
M  V30 9945 C 941.128 -1.72046 -3.16911 0
M  V30 9946 O 940.232 -0.98174 -4.00544 0
M  V30 9947 H 939.573 -0.382755 -0.542581 0
M  V30 9948 H 942.103 -1.63319 -1.23239 0
M  V30 9949 H 942.113 -1.77232 -3.67495 0
M  V30 9950 H 940.788 -2.77154 -3.10095 0
M  V30 9951 H 939.365 -1.00672 -3.59054 0
M  V30 9952 N 941.55 1.18024 -1.04442 0
M  V30 9953 C 942.798 1.87727 -0.74854 0
M  V30 9954 C 943.119 1.80975 0.726156 0
M  V30 9955 O 942.389 1.23061 1.52423 0
M  V30 9956 H 940.969 0.694974 -0.273897 0
M  V30 9957 H 943.631 1.43213 -1.32197 0
M  V30 9958 H 942.727 2.93665 -1.05674 0
M  V30 9959 N 943.028 0.824394 1.34319 0
M  V30 9960 C 943.958 0.262077 2.32025 0
M  V30 9961 C 944.939 -0.622277 1.58309 0
M  V30 9962 O 946.124 -0.548848 1.86283 0
M  V30 9963 C 943.254 -0.57567 3.42496 0
M  V30 9964 C 942.208 0.21167 4.27476 0
M  V30 9965 C 941.534 -0.748913 5.29429 0
M  V30 9966 C 942.834 1.42068 5.02607 0
M  V30 9967 H 944.528 1.07842 2.79304 0
M  V30 9968 H 942.074 0.520022 1.34282 0
M  V30 9969 H 944.027 -0.979251 4.09864 0
M  V30 9970 H 942.751 -1.42508 2.93869 0
M  V30 9971 H 941.41 0.596636 3.61712 0
M  V30 9972 H 941.058 -1.59432 4.77064 0
M  V30 9973 H 940.758 -0.226313 5.87164 0
M  V30 9974 H 942.282 -1.15032 5.99667 0
M  V30 9975 H 943.696 1.09103 5.62823 0
M  V30 9976 H 942.093 1.87903 5.69923 0
M  V30 9977 H 943.163 2.1981 4.32217 0
M  V30 9978 N 944.506 -1.46559 0.579492 0
M  V30 9979 C 945.917 -1.8608 0.152052 0
M  V30 9980 C 946.268 -1.48346 -1.28405 0
M  V30 9981 O 945.393 -0.89685 -1.9694 0
M  V30 9982 C 945.988 -3.37729 0.269171 0
M  V30 9983 C 944.547 -3.76258 -0.103376 0
M  V30 9984 C 943.694 -2.70584 0.60659 0
M  V30 9985 H 946.645 -1.3776 0.787904 0
M  V30 9986 H 946.666 -3.77116 -0.506339 0
M  V30 9987 H 946.178 -3.65162 1.31448 0
M  V30 9988 H 944.279 -3.54443 -1.14895 0
M  V30 9989 H 944.392 -4.78335 0.270701 0
M  V30 9990 H 942.756 -2.54656 0.0471984 0
M  V30 9991 H 943.539 -3.00856 1.65349 0
M  V30 9992 N 945.984 -0.3171 -1.54377 0
M  V30 9993 C 946.947 0.53905 -2.22771 0
M  V30 9994 C 947.947 1.04865 -1.21901 0
M  V30 9995 O 949.137 0.942108 -1.46526 0
M  V30 9996 C 946.269 1.74804 -2.92671 0
M  V30 9997 H 947.462 -0.0587417 -2.99842 0
M  V30 9998 H 945.015 -0.068107 -1.56152 0
M  V30 9999 H 945.75 2.38524 -2.1972 0
M  V30 10000 H 945.535 1.39011 -3.66631 0
M  V30 10001 H 947.025 2.35592 -3.44799 0
M  V30 10002 N 947.462 1.57535 -0.0451378 0
M  V30 10003 C 948.412 2.07683 0.940829 0
M  V30 10004 C 949.396 0.9807 1.27558 0
M  V30 10005 O 950.588 1.2441 1.25901 0
M  V30 10006 C 947.717 2.62049 2.21778 0
M  V30 10007 C 946.803 3.78621 1.91068 0
M  V30 10008 N 947.194 4.88623 1.30694 0
M  V30 10009 C 945.492 3.87411 2.20972 0
M  V30 10010 C 946.193 5.69714 1.17478 0
M  V30 10011 N 945.169 5.17129 1.67566 0
M  V30 10012 H 948.971 2.90129 0.469267 0
M  V30 10013 H 946.485 1.61615 0.159472 0
M  V30 10014 H 948.482 2.96276 2.93302 0
M  V30 10015 H 947.142 1.81039 2.69546 0
M  V30 10016 H 948.153 5.08545 0.979907 0
M  V30 10017 H 944.83 3.17335 2.71302 0
M  V30 10018 H 946.22 6.68174 0.706574 0
M  V30 10019 N 948.94 -0.228186 1.55939 0
M  V30 10020 C 950.351 -0.795734 1.68893 0
M  V30 10021 C 950.702 -1.85261 0.645967 0
M  V30 10022 O 949.827 -2.15434 -0.2042 0
M  V30 10023 C 950.422 -1.45013 3.06197 0
M  V30 10024 C 948.981 -1.96514 3.21028 0
M  V30 10025 C 948.128 -0.822918 2.64808 0
M  V30 10026 H 951.079 -0.0036485 1.587 0
M  V30 10027 H 951.1 -2.31875 3.01685 0
M  V30 10028 H 950.612 -0.680678 3.82084 0
M  V30 10029 H 948.713 -2.76282 2.49998 0
M  V30 10030 H 948.826 -2.14967 4.28166 0
M  V30 10031 H 947.19 -1.22846 2.23116 0
M  V30 10032 H 947.973 -0.0662493 3.43236 0
M  V30 10033 N 950.418 -1.49637 -0.494624 0
M  V30 10034 C 951.328 -1.69522 -1.62172 0
M  V30 10035 C 952.344 -0.577894 -1.64123 0
M  V30 10036 O 953.52 -0.853382 -1.82426 0
M  V30 10037 C 950.585 -1.7633 -2.9851 0
M  V30 10038 C 949.646 -2.99944 -3.07135 0
M  V30 10039 C 948.879 -3.06419 -4.36971 0
M  V30 10040 O 949.102 -2.20312 -5.26136 0
M  V30 10041 O 948.036 -3.9894 -4.507 0
M  V30 10042 H 951.862 -2.65017 -1.48324 0
M  V30 10043 H 949.447 -1.33454 -0.671603 0
M  V30 10044 H 951.329 -1.83125 -3.7953 0
M  V30 10045 H 950.004 -0.840155 -3.12607 0
M  V30 10046 H 948.911 -2.98664 -2.2528 0
M  V30 10047 H 950.244 -3.9176 -2.97968 0
M  V30 10048 N 951.896 0.746133 -1.38819 0
M  V30 10049 C 953.142 1.50768 -1.35635 0
M  V30 10050 C 953.475 1.94132 0.0512435 0
M  V30 10051 O 952.75 1.65979 1.01396 0
M  V30 10052 C 953.033 2.7551 -2.31875 0
M  V30 10053 C 952.886 2.38236 -3.81528 0
M  V30 10054 C 954.205 3.77566 -2.26124 0
M  V30 10055 H 951.324 0.546922 -0.494009 0
M  V30 10056 H 953.966 0.854017 -1.69725 0
M  V30 10057 H 952.116 3.31285 -2.02935 0
M  V30 10058 H 953.788 1.88178 -4.21173 0
M  V30 10059 H 952.031 1.70601 -3.98846 0
M  V30 10060 H 952.702 3.27517 -4.44339 0
M  V30 10061 H 955.178 3.31349 -2.51689 0
M  V30 10062 H 954.054 4.62531 -2.95561 0
M  V30 10063 H 954.315 4.23689 -1.26254 0
M  V30 10064 N 953.375 1.23811 0.975125 0
M  V30 10065 C 954.786 1.0675 1.53171 0
M  V30 10066 C 955.137 -0.363475 1.92804 0
M  V30 10067 O 954.262 -1.25089 1.76583 0
M  V30 10068 C 954.857 1.93161 2.78342 0
M  V30 10069 C 953.416 1.80346 3.30382 0
M  V30 10070 C 952.563 1.88544 2.03338 0
M  V30 10071 H 955.514 1.37396 0.79423 0
M  V30 10072 H 955.535 1.45951 3.51395 0
M  V30 10073 H 955.047 2.97302 2.49465 0
M  V30 10074 H 953.148 0.790077 3.64127 0
M  V30 10075 H 953.261 2.64026 3.99784 0
M  V30 10076 H 951.625 1.32186 2.17713 0
M  V30 10077 H 952.408 2.94252 1.76836 0
M  V30 10078 N 954.853 -1.17469 1.05066 0
M  V30 10079 C 956.13 -1.83625 0.673872 0
M  V30 10080 C 956.51 -1.93412 -0.845871 0
M  V30 10081 O 955.858 -1.4677 -1.75131 0
M  V30 10082 C 956.068 -3.21352 1.36139 0
M  V30 10083 C 957.416 -3.97274 1.49863 0
M  V30 10084 O 958.44 -3.30827 1.3203 0
M  V30 10085 O 957.299 -5.16349 1.79013 0
M  V30 10086 H 954.393 -0.792297 0.237055 0
M  V30 10087 H 956.939 -1.24776 1.15017 0
M  V30 10088 H 955.711 -3.0919 2.39827 0
M  V30 10089 H 955.334 -3.87867 0.874364 0
M  V30 10090 O 956.37 -0.966437 -1.29392 0
M  V30 10091 H 957.061 -0.604752 -1.84018 0
M  V30 END ATOM
M  V30 BEGIN BOND
M  V30 END BOND
M  V30 END CTAB
M  END
$$$$
