drugbank_target|Q8N1Q1 Carbonic anhydrase 13 (DB00909; DB07115)
 OpenBabel12092120363D

  0  0  0     0  0            999 V3000
M  V30 BEGIN CTAB
M  V30 COUNTS 4122 4184 0 0 0
M  V30 BEGIN ATOM
M  V30 1 H -0.908 1.98254 -0.117106 0
M  V30 2 N 0 1.576 0 0
M  V30 3 C 0.933 2.03868 1.02534 0
M  V30 4 C 1.911 0.928543 1.3348 0
M  V30 5 O 3.095 1.19667 1.45644 0
M  V30 6 C 0.222 2.43627 2.35294 0
M  V30 7 C -0.732 3.65373 2.2001 0
M  V30 8 S 0.101 5.13292 1.52614 0
M  V30 9 C 1.257 5.56322 2.86805 0
M  V30 10 H 1.49 2.90518 0.631377 0
M  V30 11 H -0.977 1.52953 0.210867 0
M  V30 12 H 0.981 2.67203 3.11629 0
M  V30 13 H -0.358 1.57376 2.7183 0
M  V30 14 H -1.165 3.90944 3.18086 0
M  V30 15 H -1.563 3.418 1.51819 0
M  V30 16 H 0.729 5.58782 3.83104 0
M  V30 17 H 1.672 6.56266 2.65933 0
M  V30 18 H 2.08 4.83886 2.90714 0
M  V30 19 N 1.4781 -0.272755 1.55222 0
M  V30 20 C 2.7031 -1.02683 1.80197 0
M  V30 21 C 3.1281 -1.79142 0.573551 0
M  V30 22 O 2.4861 -1.74917 -0.476849 0
M  V30 23 C 2.5341 -1.9609 3.02624 0
M  V30 24 O 1.6381 -3.04863 2.77727 0
M  V30 25 H 0.9791 -0.293557 0.595584 0
M  V30 26 H 3.5091 -0.30159 2.02365 0
M  V30 27 H 3.5191 -2.38039 3.31363 0
M  V30 28 H 2.1941 -1.39851 3.91682 0
M  V30 29 H 0.7711 -2.67228 2.60084 0
M  V30 30 N 2.9562 -1.48159 -0.537278 0
M  V30 31 C 4.3722 -1.34118 -0.865129 0
M  V30 32 C 4.5722 -0.346678 -1.98495 0
M  V30 33 O 3.6282 0.234715 -2.51407 0
M  V30 34 C 4.9412 -2.73963 -1.23954 0
M  V30 35 C 6.4892 -2.82397 -1.34984 0
M  V30 36 C 6.9642 -4.22928 -1.75772 0
M  V30 37 N 8.4552 -4.25566 -1.82887 0
M  V30 38 C 9.1902 -5.31235 -2.15817 0
M  V30 39 N 8.6862 -6.47189 -2.47222 0
M  V30 40 N 10.4792 -5.18624 -2.16761 0
M  V30 41 H 2.6302 -2.1144 0.201715 0
M  V30 42 H 4.8932 -0.947598 0.0275949 0
M  V30 43 H 4.5992 -3.48264 -0.490381 0
M  V30 44 H 4.4732 -3.0702 -2.19132 0
M  V30 45 H 6.8602 -2.08356 -2.08978 0
M  V30 46 H 6.9412 -2.5297 -0.379448 0
M  V30 47 H 6.5852 -4.97482 -1.02341 0
M  V30 48 H 6.5152 -4.49794 -2.73848 0
M  V30 49 H 9.0062 -3.41924 -1.60924 0
M  V30 50 H 9.3192 -7.23564 -2.71433 0
M  V30 51 H 7.6642 -6.50476 -2.44757 0
M  V30 52 H 10.8552 -4.27056 -1.91679 0
M  V30 53 H 11.0282 -6.01078 -2.42093 0
M  V30 54 N 4.4343 0.785586 -1.36625 0
M  V30 55 C 5.3643 1.91259 -1.33949 0
M  V30 56 C 6.3453 1.68795 -0.210325 0
M  V30 57 O 7.5303 1.89854 -0.408561 0
M  V30 58 C 4.6603 3.28339 -1.13186 0
M  V30 59 C 3.6143 3.65335 -2.22967 0
M  V30 60 C 2.9403 5.00806 -1.87342 0
M  V30 61 C 4.2403 3.7352 -3.65075 0
M  V30 62 H 5.9343 1.93755 -2.28253 0
M  V30 63 H 3.4803 0.930788 -1.09874 0
M  V30 64 H 5.4333 4.06804 -1.09948 0
M  V30 65 H 4.1573 3.2624 -0.153332 0
M  V30 66 H 2.8163 2.89169 -2.25337 0
M  V30 67 H 2.4643 4.95233 -0.880545 0
M  V30 68 H 2.1643 5.26529 -2.60846 0
M  V30 69 H 3.6883 5.81687 -1.85667 0
M  V30 70 H 5.1023 4.42168 -3.64911 0
M  V30 71 H 3.4993 4.10731 -4.37516 0
M  V30 72 H 4.5693 2.74527 -3.99703 0
M  V30 73 N 5.9124 1.20967 1.01018 0
M  V30 74 C 7.1374 1.0503 1.78839 0
M  V30 75 C 7.5624 -0.395752 1.8389 0
M  V30 76 O 6.9204 -1.28529 1.27867 0
M  V30 77 C 6.9684 1.64602 3.2084 0
M  V30 78 O 6.0724 0.887988 4.02726 0
M  V30 79 H 5.4134 0.369987 0.551367 0
M  V30 80 H 7.9434 1.60399 1.27018 0
M  V30 81 H 7.9534 1.68607 3.71532 0
M  V30 82 H 6.6284 2.69841 3.16479 0
M  V30 83 H 5.2054 0.922648 3.61305 0
M  V30 84 N 7.3905 -1.2043 1.01659 0
M  V30 85 C 8.6365 -1.90356 0.716674 0
M  V30 86 C 8.9915 -1.77367 -0.745557 0
M  V30 87 O 8.2845 -1.1471 -1.53467 0
M  V30 88 C 8.4785 -3.40464 1.08714 0
M  V30 89 C 8.3075 -3.6806 2.58384 0
M  V30 90 C 7.0775 -3.86775 3.25167 0
M  V30 91 C 9.2755 -3.70623 3.56572 0
M  V30 92 N 7.2575 -4.01889 4.64067 0
M  V30 93 C 8.6285 -3.91161 4.81034 0
M  V30 94 C 10.6835 -3.53586 3.50544 0
M  V30 95 C 9.3865 -3.96428 6.00198 0
M  V30 96 C 11.4125 -3.60125 4.6911 0
M  V30 97 C 10.7745 -3.81135 5.92381 0
M  V30 98 H 6.8735 -0.716226 0.313918 0
M  V30 99 H 9.4575 -1.44815 1.30141 0
M  V30 100 H 7.6285 -3.84757 0.530745 0
M  V30 101 H 9.3605 -3.97863 0.740763 0
M  V30 102 H 6.1155 -3.85156 2.75594 0
M  V30 103 H 6.5395 -4.13323 5.36184 0
M  V30 104 H 11.1815 -3.36308 2.56235 0
M  V30 105 H 8.8995 -4.12502 6.94887 0
M  V30 106 H 12.4855 -3.4825 4.66062 0
M  V30 107 H 11.3655 -3.86054 6.82592 0
M  V30 108 N 8.8686 -0.792821 -1.36206 0
M  V30 109 C 10.1166 -0.366062 -1.98757 0
M  V30 110 C 10.4376 1.0668 -1.63231 0
M  V30 111 O 9.7076 1.73587 -0.907978 0
M  V30 112 H 8.2876 -0.132364 -0.735179 0
M  V30 113 H 10.9496 -1.01562 -1.66347 0
M  V30 114 H 10.0456 -0.460638 -3.08682 0
M  V30 115 N 10.3467 1.47872 -0.545128 0
M  V30 116 C 11.5767 2.06589 -0.0210534 0
M  V30 117 C 11.9847 1.39997 1.27269 0
M  V30 118 O 11.3277 0.486421 1.77143 0
M  V30 119 C 11.3897 3.58574 0.257933 0
M  V30 120 C 11.0537 4.47132 -0.944573 0
M  V30 121 C 12.0507 4.85986 -1.84699 0
M  V30 122 C 9.7357 4.88821 -1.15584 0
M  V30 123 C 11.7297 5.65314 -2.94446 0
M  V30 124 C 9.4167 5.67916 -2.25642 0
M  V30 125 C 10.4147 6.06073 -3.14905 0
M  V30 126 O 10.1027 6.83578 -4.23057 0
M  V30 127 H 9.8347 0.674971 -0.0372899 0
M  V30 128 H 12.3887 1.91037 -0.754599 0
M  V30 129 H 10.6187 3.72295 1.04564 0
M  V30 130 H 12.3077 3.99356 0.72592 0
M  V30 131 H 13.0737 4.54388 -1.69577 0
M  V30 132 H 8.9527 4.58595 -0.470279 0
M  V30 133 H 12.4967 5.95016 -3.64145 0
M  V30 134 H 8.3937 5.98927 -2.40742 0
M  V30 135 H 9.1617 7.01954 -4.20954 0
M  V30 136 N 11.8248 0.280983 1.55075 0
M  V30 137 C 13.2408 -0.0729964 1.59433 0
M  V30 138 C 13.4408 -1.5411 1.29817 0
M  V30 139 O 12.4968 -2.29086 1.06187 0
M  V30 140 C 13.8098 0.306921 2.9913 0
M  V30 141 C 15.3578 0.254023 3.11968 0
M  V30 142 C 15.8328 0.608467 4.5394 0
M  V30 143 N 17.3238 0.560241 4.59799 0
M  V30 144 C 18.0588 0.80722 5.6769 0
M  V30 145 N 17.5548 1.11912 6.83701 0
M  V30 146 N 19.3478 0.735623 5.57266 0
M  V30 147 H 11.4988 1.238 1.7259 0
M  V30 148 H 13.7618 0.500547 0.805082 0
M  V30 149 H 13.4678 1.32816 3.25657 0
M  V30 150 H 13.3418 -0.349363 3.75579 0
M  V30 151 H 15.7288 -0.75794 2.852 0
M  V30 152 H 15.8098 0.944649 2.37718 0
M  V30 153 H 15.4538 1.61814 4.81434 0
M  V30 154 H 15.3838 -0.104013 5.26497 0
M  V30 155 H 17.8748 0.329288 3.76463 0
M  V30 156 H 18.1878 1.29409 7.61888 0
M  V30 157 H 16.5328 1.15695 6.85303 0
M  V30 158 H 19.7238 0.491752 4.6551 0
M  V30 159 H 19.8968 0.931482 6.4127 0
M  V30 160 N 13.3029 -1.57598 0.00835791 0
M  V30 161 C 14.2129 -2.12385 -0.996487 0
M  V30 162 C 15.2289 -1.07108 -1.37127 0
M  V30 163 O 16.4049 -1.39055 -1.4569 0
M  V30 164 C 13.4699 -2.62314 -2.26699 0
M  V30 165 C 12.5309 -3.82225 -1.95456 0
M  V30 166 C 11.7639 -4.29763 -3.16449 0
M  V30 167 O 11.9869 -3.76584 -4.28416 0
M  V30 168 O 10.9209 -5.21832 -2.99958 0
M  V30 169 H 14.7469 -2.98479 -0.560725 0
M  V30 170 H 12.3319 -1.47903 -0.210987 0
M  V30 171 H 14.2139 -2.94589 -3.01322 0
M  V30 172 H 12.8889 -1.79313 -2.69497 0
M  V30 173 H 11.7959 -3.54909 -1.18282 0
M  V30 174 H 13.1289 -4.66324 -1.57489 0
M  V30 175 N 14.781 0.264519 -1.55364 0
M  V30 176 C 15.731 1.32966 -1.85214 0
M  V30 177 C 16.715 1.44306 -0.711653 0
M  V30 178 O 17.907 1.47844 -0.973192 0
M  V30 179 C 15.036 2.68839 -2.13495 0
M  V30 180 C 14.122 2.61575 -3.33825 0
M  V30 181 N 14.513 2.23933 -4.53528 0
M  V30 182 C 12.811 2.92621 -3.36584 0
M  V30 183 C 13.512 2.26868 -5.35636 0
M  V30 184 N 12.488 2.65677 -4.74254 0
M  V30 185 H 16.29 1.02884 -2.75304 0
M  V30 186 H 13.804 0.473157 -1.55354 0
M  V30 187 H 15.801 3.45685 -2.33039 0
M  V30 188 H 14.461 2.99802 -1.24694 0
M  V30 189 H 15.472 1.95769 -4.79474 0
M  V30 190 H 12.149 3.2824 -2.58002 0
M  V30 191 H 13.539 2.00254 -6.41364 0
M  V30 192 N 16.2591 1.48442 0.529413 0
M  V30 193 C 17.2071 1.63452 1.65487 0
M  V30 194 C 18.2011 0.500955 1.61823 0
M  V30 195 O 19.4071 0.679695 1.66674 0
M  V30 196 H 15.7821 0.514905 0.548066 0
M  V30 197 H 17.7531 2.57975 1.49971 0
M  V30 198 C 16.5021 1.69196 3.03756 0
M  V30 199 H 15.8251 2.55784 3.07269 0
M  V30 200 H 17.2651 1.83743 3.82119 0
M  V30 201 C 15.7241 0.430765 3.34135 0
M  V30 202 O 16.2541 -0.4561 3.99102 0
M  V30 203 N 14.4601 0.302293 2.89023 0
M  V30 204 H 14.0071 1.02496 2.36331 0
M  V30 205 H 13.9651 -0.540546 3.09718 0
M  V30 206 N 17.7372 -0.778329 1.37039 0
M  V30 207 C 18.9852 -1.53361 1.31623 0
M  V30 208 C 19.3062 -1.94739 -0.100831 0
M  V30 209 O 18.5762 -1.65797 -1.04347 0
M  V30 210 H 17.1562 -0.568794 0.484234 0
M  V30 211 H 19.8182 -0.926742 1.71457 0
M  V30 212 H 18.9142 -2.43606 1.95096 0
M  V30 213 N 19.2153 -1.21501 -1.00376 0
M  V30 214 C 20.6263 -1.03146 -1.55621 0
M  V30 215 C 20.9773 0.408375 -1.91903 0
M  V30 216 O 20.1023 1.29177 -1.73616 0
M  V30 217 C 20.6973 -1.86612 -2.82775 0
M  V30 218 C 19.2563 -1.72586 -3.34501 0
M  V30 219 C 18.4033 -1.83747 -2.07683 0
M  V30 220 H 21.3543 -1.35505 -0.826081 0
M  V30 221 H 21.3753 -1.3771 -3.54706 0
M  V30 222 H 20.8873 -2.91399 -2.56336 0
M  V30 223 H 18.9883 -0.704877 -3.65872 0
M  V30 224 H 19.1013 -2.54623 -4.05837 0
M  V30 225 H 17.4653 -1.27069 -2.20739 0
M  V30 226 H 18.2483 -2.90044 -1.83655 0
M  V30 227 N 20.6934 1.19889 -1.02296 0
M  V30 228 C 21.9424 1.88743 -0.711257 0
M  V30 229 C 22.2554 1.80112 0.762817 0
M  V30 230 O 23.4614 2.44161 1.18733 0
M  V30 231 C 21.9174 3.38525 -1.22185 0
M  V30 232 C 21.5254 3.55727 -2.72328 0
M  V30 233 C 23.2694 4.12893 -0.985864 0
M  V30 234 C 21.1764 4.99369 -3.16835 0
M  V30 235 H 20.1064 0.706885 -0.262353 0
M  V30 236 H 22.7574 1.35586 -1.23648 0
M  V30 237 H 21.1394 3.91044 -0.624571 0
M  V30 238 H 22.3134 3.13564 -3.3766 0
M  V30 239 H 20.6284 2.94739 -2.9414 0
M  V30 240 H 23.2254 5.18813 -1.29374 0
M  V30 241 H 23.5684 4.16228 0.0775055 0
M  V30 242 H 24.1014 3.66494 -1.54684 0
M  V30 243 H 20.8404 5.01193 -4.22476 0
M  V30 244 H 20.3604 5.42317 -2.56228 0
M  V30 245 H 22.0394 5.67988 -3.09837 0
M  V30 246 N 22.1715 0.800033 1.35784 0
M  V30 247 C 23.1215 0.178654 2.27299 0
M  V30 248 C 24.1055 -0.643667 1.47464 0
M  V30 249 O 25.2975 -0.502 1.69732 0
M  V30 250 C 22.4265 -0.677194 3.36555 0
M  V30 251 C 21.5125 0.154497 4.23818 0
M  V30 252 N 21.9035 1.21427 4.91008 0
M  V30 253 C 20.2015 -0.0649462 4.45953 0
M  V30 254 C 20.9025 1.72147 5.55644 0
M  V30 255 N 19.8785 1.02897 5.33773 0
M  V30 256 H 23.6805 0.989637 2.76737 0
M  V30 257 H 21.1945 0.64054 1.49234 0
M  V30 258 H 23.1915 -1.13835 4.01058 0
M  V30 259 H 21.8515 -1.4866 2.8867 0
M  V30 260 H 22.8625 1.59684 4.92668 0
M  V30 261 H 19.5395 -0.844016 4.0888 0
M  V30 262 H 20.9295 2.60683 6.19269 0
M  V30 263 N 23.6496 -1.47581 0.552962 0
M  V30 264 C 24.8956 -2.03369 0.0355807 0
M  V30 265 C 25.2506 -1.42016 -1.29805 0
M  V30 266 O 24.5436 -0.564917 -1.83083 0
M  V30 267 C 24.7376 -3.57199 -0.119728 0
M  V30 268 C 24.5666 -4.33468 1.1973 0
M  V30 269 C 23.3366 -4.7353 1.76345 0
M  V30 270 C 25.5346 -4.68866 2.11351 0
M  V30 271 N 23.5166 -5.34426 3.02097 0
M  V30 272 C 24.8876 -5.3002 3.21681 0
M  V30 273 C 26.9426 -4.50795 2.11397 0
M  V30 274 C 25.6456 -5.75011 4.32151 0
M  V30 275 C 27.6716 -4.96782 3.20876 0
M  V30 276 C 27.0336 -5.57981 4.29926 0
M  V30 277 H 23.1326 -0.780058 0.0550806 0
M  V30 278 H 25.7166 -1.80117 0.739315 0
M  V30 279 H 23.8876 -3.80227 -0.792579 0
M  V30 280 H 25.6196 -3.99627 -0.638792 0
M  V30 281 H 22.3746 -4.55352 1.30196 0
M  V30 282 H 22.7986 -5.69421 3.66182 0
M  V30 283 H 27.4406 -4.0284 1.28372 0
M  V30 284 H 25.1586 -6.21959 5.15938 0
M  V30 285 H 28.7446 -4.84573 3.21994 0
M  V30 286 H 27.6246 -5.92918 5.13243 0
M  V30 287 N 25.1277 -0.289203 -1.54924 0
M  V30 288 C 26.0747 0.592115 -2.23075 0
M  V30 289 C 27.0447 1.13881 -1.20915 0
M  V30 290 O 28.2297 1.18551 -1.495 0
M  V30 291 C 25.3697 1.76376 -2.96623 0
M  V30 292 C 24.4827 1.24959 -4.13533 0
M  V30 293 C 23.6177 2.38416 -4.74691 0
M  V30 294 C 22.6567 1.84072 -5.83767 0
M  V30 295 N 21.7937 2.91057 -6.38929 0
M  V30 296 H 26.6337 0.00432038 -2.98 0
M  V30 297 H 24.1707 -0.00963529 -1.47097 0
M  V30 298 H 26.1287 2.45268 -3.3749 0
M  V30 299 H 24.7587 2.32337 -2.24097 0
M  V30 300 H 23.8107 0.453307 -3.77689 0
M  V30 301 H 25.1227 0.811662 -4.92152 0
M  V30 302 H 24.2767 3.15276 -5.18349 0
M  V30 303 H 23.0157 2.8553 -3.95378 0
M  V30 304 H 22.0207 1.05697 -5.39545 0
M  V30 305 H 23.2457 1.37877 -6.64956 0
M  V30 306 H 21.1917 3.37526 -5.62505 0
M  V30 307 H 21.1087 2.51724 -7.12861 0
M  V30 308 H 22.3767 3.6785 -6.87246 0
M  V30 309 N 26.6058 1.57591 -0.0167156 0
M  V30 310 C 27.5158 2.1291 0.98521 0
M  V30 311 C 28.5318 1.07834 1.36557 0
M  V30 312 O 29.7078 1.39826 1.44951 0
M  V30 313 C 26.7728 2.63512 2.25305 0
M  V30 314 C 25.8338 3.83256 1.93426 0
M  V30 315 C 25.0668 4.31435 3.14165 0
M  V30 316 O 25.2898 3.78851 4.26413 0
M  V30 317 O 24.2238 5.23416 2.97186 0
M  V30 318 H 28.0498 2.98772 0.544888 0
M  V30 319 H 25.6348 1.48012 0.203141 0
M  V30 320 H 27.5168 2.96183 2.99756 0
M  V30 321 H 26.1918 1.8074 2.68542 0
M  V30 322 H 25.0988 3.55531 1.16398 0
M  V30 323 H 26.4318 4.67153 1.55013 0
M  V30 324 N 28.0839 -0.256276 1.55502 0
M  V30 325 C 29.3309 -0.985619 1.76895 0
M  V30 326 C 29.6589 -1.85671 0.579355 0
M  V30 327 O 28.9139 -1.90744 -0.437651 0
M  V30 328 C 29.2129 -1.88432 3.03691 0
M  V30 329 C 28.8789 -1.16936 4.35473 0
M  V30 330 C 27.5409 -0.97173 4.71286 0
M  V30 331 C 29.8929 -0.661889 5.1698 0
M  V30 332 C 27.2209 -0.254179 5.86149 0
M  V30 333 C 29.5729 0.042149 6.32586 0
M  V30 334 C 28.2369 0.25134 6.67027 0
M  V30 335 H 27.5069 -0.360663 0.647304 0
M  V30 336 H 30.1539 -0.256483 1.89775 0
M  V30 337 H 28.4589 -2.68021 2.85783 0
M  V30 338 H 30.1559 -2.45015 3.1744 0
M  V30 339 H 26.7459 -1.33332 4.07333 0
M  V30 340 H 30.9299 -0.802145 4.89775 0
M  V30 341 H 26.1859 -0.0815408 6.11346 0
M  V30 342 H 30.3599 0.443049 6.94989 0
M  V30 343 H 27.9869 0.809314 7.5588 0
M  V30 344 N 29.562 -1.4872 -0.521534 0
M  V30 345 C 30.809 -1.57168 -1.27689 0
M  V30 346 C 31.137 -0.249275 -1.92896 0
M  V30 347 O 30.392 0.761162 -1.80291 0
M  V30 348 C 30.691 -2.66497 -2.38148 0
M  V30 349 C 30.357 -4.08664 -1.90538 0
M  V30 350 C 29.019 -4.47357 -1.77271 0
M  V30 351 C 31.371 -4.97724 -1.54663 0
M  V30 352 C 28.699 -5.72905 -1.26478 0
M  V30 353 C 31.051 -6.2377 -1.05329 0
M  V30 354 C 29.715 -6.61311 -0.906861 0
M  V30 355 H 28.985 -0.575117 -0.467249 0
M  V30 356 H 31.632 -1.82472 -0.581051 0
M  V30 357 H 29.937 -2.35085 -3.13437 0
M  V30 358 H 31.634 -2.70246 -2.96257 0
M  V30 359 H 28.224 -3.78111 -2.01816 0
M  V30 360 H 32.408 -4.68501 -1.63768 0
M  V30 361 H 27.664 -6.00709 -1.13835 0
M  V30 362 H 31.838 -6.9217 -0.76644 0
M  V30 363 H 29.465 -7.5848 -0.511083 0
M  V30 364 N 31.0401 0.771051 -1.3745 0
M  V30 365 C 32.4511 1.34737 -1.29239 0
M  V30 366 C 32.8021 1.96109 0.0596908 0
M  V30 367 O 31.9271 1.93865 0.961534 0
M  V30 368 C 32.5221 2.44973 -2.34037 0
M  V30 369 C 31.0811 2.98372 -2.29458 0
M  V30 370 C 30.2281 1.71595 -2.17831 0
M  V30 371 H 33.1791 0.571256 -1.48062 0
M  V30 372 H 33.2001 3.24471 -1.98744 0
M  V30 373 H 32.7121 2.00276 -3.32432 0
M  V30 374 H 30.8131 3.47443 -1.34589 0
M  V30 375 H 30.9261 3.53939 -3.229 0
M  V30 376 H 29.2901 1.94547 -1.64388 0
M  V30 377 H 30.0731 1.29001 -3.18141 0
M  V30 378 N 32.5182 1.22032 0.997298 0
M  V30 379 C 33.7672 1.03637 1.73038 0
M  V30 380 C 34.0802 -0.429475 1.90827 0
M  V30 381 O 35.2862 -0.732995 2.61418 0
M  V30 382 C 33.7422 1.80582 3.11317 0
M  V30 383 C 33.3502 3.31387 3.01474 0
M  V30 384 C 35.0942 1.70621 3.88701 0
M  V30 385 C 33.0012 4.00791 4.3488 0
M  V30 386 H 31.9312 0.384179 0.648785 0
M  V30 387 H 34.5822 1.4584 1.11368 0
M  V30 388 H 32.9642 1.31175 3.73643 0
M  V30 389 H 34.1382 3.88155 2.4834 0
M  V30 390 H 32.4532 3.41976 2.37575 0
M  V30 391 H 35.0502 2.19799 4.87434 0
M  V30 392 H 35.3932 0.665823 4.10941 0
M  V30 393 H 35.9262 2.17547 3.33044 0
M  V30 394 H 32.6652 5.05064 4.1784 0
M  V30 395 H 32.1852 3.48811 4.87945 0
M  V30 396 H 33.8642 4.06139 5.03647 0
M  V30 397 N 33.9963 -1.19345 1.0293 0
M  V30 398 C 34.9593 -2.20793 0.615069 0
M  V30 399 C 35.9593 -1.57553 -0.321533 0
M  V30 400 O 37.1493 -1.73862 -0.108483 0
M  V30 401 C 34.2813 -3.40754 -0.0999222 0
M  V30 402 H 35.4743 -2.58955 1.51269 0
M  V30 403 H 33.0273 -1.3303 0.820534 0
M  V30 404 H 33.7623 -3.0811 -1.01187 0
M  V30 405 H 33.5473 -3.87889 0.57309 0
M  V30 406 H 35.0373 -4.15898 -0.376645 0
M  V30 407 N 35.4744 -0.807222 -1.35358 0
M  V30 408 C 36.7514 -0.311126 -1.9311 0
M  V30 409 C 37.1314 1.19937 -1.73719 0
M  V30 410 O 36.4794 1.99918 -1.10657 0
M  V30 411 C 36.6894 -0.723226 -3.41424 0
M  V30 412 C 38.0374 -0.713078 -4.18569 0
M  V30 413 O 39.0614 -0.664811 -3.49941 0
M  V30 414 O 37.9204 -0.772022 -5.41019 0
M  V30 415 H 35.0144 -0.081526 -0.822972 0
M  V30 416 H 37.5604 -0.890962 -1.4443 0
M  V30 417 H 36.3324 -1.76426 -3.4927 0
M  V30 418 H 35.9554 -0.118232 -3.97424 0
M  V30 419 N 36.9525 1.47285 -0.560781 0
M  V30 420 C 38.2005 2.02064 -0.0379868 0
M  V30 421 C 38.5215 1.43711 1.31803 0
M  V30 422 O 37.7915 0.61362 1.86042 0
M  V30 423 H 36.3715 0.746918 -0.0110531 0
M  V30 424 H 39.0335 1.80648 -0.731598 0
M  V30 425 H 38.1295 3.12064 0.0474463 0
M  V30 426 N 38.4306 0.297415 1.54768 0
M  V30 427 C 39.7076 -0.365847 1.92148 0
M  V30 428 C 40.0876 -1.71975 1.22424 0
M  V30 429 O 39.4356 -2.25666 0.358739 0
M  V30 430 C 39.6456 -0.484056 3.45627 0
M  V30 431 C 40.9936 -0.756594 4.17805 0
M  V30 432 O 42.0176 -0.568007 3.51642 0
M  V30 433 O 40.8766 -1.11863 5.34929 0
M  V30 434 H 37.9706 -0.203919 0.801465 0
M  V30 435 H 40.5166 0.34521 1.66152 0
M  V30 436 H 39.2886 0.467865 3.88493 0
M  V30 437 H 38.9116 -1.24372 3.77647 0
M  V30 438 N 39.9087 -1.5758 0.0250728 0
M  V30 439 C 40.8407 -2.06869 -0.986796 0
M  V30 440 C 41.8537 -0.991332 -1.29137 0
M  V30 441 O 43.0427 -1.26761 -1.25674 0
M  V30 442 C 40.1427 -2.47486 -2.31525 0
M  V30 443 C 39.3157 -3.78253 -2.19643 0
M  V30 444 C 38.3747 -4.05464 -3.35388 0
M  V30 445 O 37.4007 -4.75774 -3.12454 0
M  V30 446 N 38.6027 -3.55321 -4.59051 0
M  V30 447 H 41.3677 -2.94302 -0.566276 0
M  V30 448 H 38.9287 -1.6109 -0.161776 0
M  V30 449 H 40.9207 -2.62785 -3.07776 0
M  V30 450 H 39.4907 -1.65441 -2.65232 0
M  V30 451 H 38.7107 -3.7279 -1.28144 0
M  V30 452 H 39.9987 -4.63936 -2.08903 0
M  V30 453 H 39.3967 -2.98431 -4.80578 0
M  V30 454 H 37.9537 -3.75905 -5.32483 0
M  V30 455 N 41.3868 0.248026 -1.55636 0
M  V30 456 C 42.3188 1.32993 -1.8667 0
M  V30 457 C 43.3318 1.44345 -0.752877 0
M  V30 458 O 44.5208 1.45715 -1.03098 0
M  V30 459 C 41.6208 2.70863 -2.03682 0
M  V30 460 C 40.7938 2.81792 -3.34532 0
M  V30 461 C 39.8528 4.005 -3.41301 0
M  V30 462 O 38.8788 3.9008 -4.14519 0
M  V30 463 N 40.0808 5.13618 -2.70512 0
M  V30 464 H 42.8458 1.06707 -2.8006 0
M  V30 465 H 40.4068 0.438129 -1.55859 0
M  V30 466 H 42.3988 3.48612 -2.05553 0
M  V30 467 H 40.9688 2.89862 -1.17041 0
M  V30 468 H 40.1888 1.90729 -3.44987 0
M  V30 469 H 41.4768 2.86043 -4.20781 0
M  V30 470 H 40.8748 5.24975 -2.10755 0
M  V30 471 H 39.4318 5.89505 -2.78077 0
M  V30 472 N 42.8649 1.48995 0.513639 0
M  V30 473 C 44.0899 1.61792 1.29762 0
M  V30 474 C 44.5149 0.284475 1.85936 0
M  V30 475 O 43.8729 -0.746185 1.65232 0
M  V30 476 C 43.9209 2.67993 2.41272 0
M  V30 477 O 43.0249 2.26287 3.44772 0
M  V30 478 H 42.3659 0.541963 0.38363 0
M  V30 479 H 44.8959 1.95097 0.616307 0
M  V30 480 H 44.9059 2.89772 2.87221 0
M  V30 481 H 43.5809 3.64791 1.9975 0
M  V30 482 H 42.1579 2.14788 3.04829 0
M  V30 483 N 44.343 -0.763751 1.37857 0
M  V30 484 C 45.754 -1.3405 1.29952 0
M  V30 485 C 46.105 -1.96138 -0.0492898 0
M  V30 486 O 45.23 -1.94372 -0.951239 0
M  V30 487 C 45.825 -2.43729 2.35333 0
M  V30 488 C 44.384 -2.97151 2.31037 0
M  V30 489 C 43.531 -1.70438 2.18738 0
M  V30 490 H 46.482 -0.563396 1.48363 0
M  V30 491 H 46.503 -3.23412 2.00462 0
M  V30 492 H 46.015 -1.9851 3.33489 0
M  V30 493 H 44.116 -3.46724 1.3643 0
M  V30 494 H 44.229 -3.52221 3.24772 0
M  V30 495 H 42.593 -1.93673 1.65418 0
M  V30 496 H 43.376 -1.27312 3.18821 0
M  V30 497 N 45.8211 -1.22559 -0.990812 0
M  V30 498 C 47.0701 -1.04553 -1.72486 0
M  V30 499 C 47.3831 0.419349 -1.91052 0
M  V30 500 O 48.5891 0.719121 -2.61803 0
M  V30 501 C 47.0451 -1.82231 -3.10355 0
M  V30 502 C 46.6531 -3.32981 -2.99713 0
M  V30 503 C 48.3971 -1.7268 -3.87791 0
M  V30 504 C 46.3041 -4.03091 -4.32748 0
M  V30 505 H 45.2341 -0.387614 -0.646739 0
M  V30 506 H 47.8851 -1.46429 -1.10593 0
M  V30 507 H 46.2671 -1.33155 -3.72942 0
M  V30 508 H 47.4411 -3.89466 -2.46278 0
M  V30 509 H 45.7561 -3.43231 -2.35758 0
M  V30 510 H 48.3531 -2.22381 -4.86262 0
M  V30 511 H 48.6961 -0.687607 -4.10582 0
M  V30 512 H 49.2291 -2.1931 -3.31885 0
M  V30 513 H 45.9681 -5.07273 -4.15156 0
M  V30 514 H 45.4881 -3.51394 -4.86089 0
M  V30 515 H 47.1671 -4.08804 -5.01486 0
M  V30 516 N 47.2992 1.18797 -1.03562 0
M  V30 517 C 48.2092 2.25913 -0.632505 0
M  V30 518 C 49.2252 1.70668 0.338882 0
M  V30 519 O 50.4012 2.00453 0.195076 0
M  V30 520 C 47.4662 3.467 0.00350942 0
M  V30 521 C 46.5272 4.17098 -1.01624 0
M  V30 522 C 45.7602 5.32119 -0.410478 0
M  V30 523 O 45.9832 5.64976 0.784725 0
M  V30 524 O 44.9172 5.9107 -1.13667 0
M  V30 525 H 48.7432 2.62648 -1.52478 0
M  V30 526 H 46.3282 1.25781 -0.806195 0
M  V30 527 H 48.2102 4.19878 0.35781 0
M  V30 528 H 46.8852 3.11798 0.869686 0
M  V30 529 H 45.7922 3.4601 -1.42224 0
M  V30 530 H 47.1252 4.55987 -1.85301 0
M  V30 531 N 48.7773 0.814389 1.34928 0
M  V30 532 C 50.0263 0.394871 1.97797 0
M  V30 533 C 50.3393 -1.04555 1.65311 0
M  V30 534 O 51.5453 -1.56856 2.21604 0
M  V30 535 C 50.0013 0.655103 3.53888 0
M  V30 536 C 49.6093 2.10858 3.95276 0
M  V30 537 C 51.3533 0.301329 4.23429 0
M  V30 538 C 49.2603 2.31415 5.44244 0
M  V30 539 H 48.1903 0.143913 0.740139 0
M  V30 540 H 50.8413 0.999544 1.53888 0
M  V30 541 H 49.2233 -0.0196253 3.95995 0
M  V30 542 H 50.3973 2.82176 3.64298 0
M  V30 543 H 48.7123 2.42297 3.38646 0
M  V30 544 H 51.3093 0.432869 5.32945 0
M  V30 545 H 51.6523 -0.75331 4.09428 0
M  V30 546 H 52.1853 0.930288 3.86769 0
M  V30 547 H 48.9243 3.35353 5.63222 0
M  V30 548 H 48.4443 1.6463 5.76764 0
M  V30 549 H 50.1233 2.13352 6.10811 0
M  V30 550 N 50.2554 -1.46986 0.568584 0
M  V30 551 C 51.2024 -2.30153 -0.172707 0
M  V30 552 C 52.1724 -1.39759 -0.897586 0
M  V30 553 O 53.3574 -1.68716 -0.891044 0
M  V30 554 C 50.4974 -3.23952 -1.1895 0
M  V30 555 C 49.6104 -4.29441 -0.469517 0
M  V30 556 C 48.7454 -5.1038 -1.47259 0
M  V30 557 C 47.7844 -6.07632 -0.738225 0
M  V30 558 N 46.9214 -6.8149 -1.68868 0
M  V30 559 H 51.7614 -2.93019 0.542596 0
M  V30 560 H 49.2984 -1.44422 0.279401 0
M  V30 561 H 51.2564 -3.76767 -1.79173 0
M  V30 562 H 49.8864 -2.62926 -1.87269 0
M  V30 563 H 48.9384 -3.79594 0.247467 0
M  V30 564 H 50.2504 -4.98689 0.105241 0
M  V30 565 H 49.4044 -5.67402 -2.14803 0
M  V30 566 H 48.1434 -4.4106 -2.08128 0
M  V30 567 H 47.1484 -5.49778 -0.0489293 0
M  V30 568 H 48.3734 -6.78966 -0.135129 0
M  V30 569 H 46.3194 -6.14891 -2.28573 0
M  V30 570 H 46.2364 -7.46948 -1.16636 0
M  V30 571 H 47.5044 -7.43078 -2.3549 0
M  V30 572 N 51.7335 -0.305618 -1.54608 0
M  V30 573 C 52.9615 0.304775 -2.04643 0
M  V30 574 C 53.3765 1.47167 -1.18268 0
M  V30 575 O 52.7335 1.81296 -0.209328 0
M  V30 576 C 52.7845 0.756564 -3.53495 0
M  V30 577 O 52.5055 -0.36389 -4.36586 0
M  V30 578 C 54.0065 1.43163 -4.19546 0
M  V30 579 H 51.2265 0.0655481 -0.667791 0
M  V30 580 H 53.7705 -0.446592 -1.99564 0
M  V30 581 H 51.9255 1.45794 -3.58919 0
M  V30 582 H 52.3395 -0.0113121 -5.24499 0
M  V30 583 H 53.8135 1.69886 -5.25207 0
M  V30 584 H 54.2905 2.37318 -3.69563 0
M  V30 585 H 54.8965 0.773307 -4.18211 0
M  V30 586 N 53.2116 1.57565 -0.0334293 0
M  V30 587 C 54.1586 2.10478 0.946981 0
M  V30 588 C 55.1286 1.00787 1.32027 0
M  V30 589 O 56.3136 1.28232 1.41284 0
M  V30 590 C 53.4536 2.63994 2.22263 0
M  V30 591 C 52.5666 3.87709 1.90541 0
M  V30 592 C 51.7016 4.29604 3.12433 0
M  V30 593 C 50.7406 5.46065 2.76549 0
M  V30 594 N 49.8776 5.83096 3.9108 0
M  V30 595 H 54.7176 2.93963 0.488846 0
M  V30 596 H 52.2546 1.45296 0.22969 0
M  V30 597 H 54.2126 2.93114 2.96884 0
M  V30 598 H 52.8426 1.83333 2.65685 0
M  V30 599 H 51.8946 3.65291 1.06144 0
M  V30 600 H 53.2066 4.72403 1.60116 0
M  V30 601 H 52.3606 4.60182 3.9537 0
M  V30 602 H 51.0996 3.43685 3.46023 0
M  V30 603 H 50.1046 5.15176 1.92026 0
M  V30 604 H 51.3296 6.33685 2.44171 0
M  V30 605 H 49.2756 5.00132 4.24504 0
M  V30 606 H 49.1926 6.6244 3.64293 0
M  V30 607 H 50.4606 6.18282 4.74708 0
M  V30 608 N 54.6897 -0.239769 1.55765 0
M  V30 609 C 55.5997 -1.31831 1.94056 0
M  V30 610 C 56.6157 -1.52275 0.841925 0
M  V30 611 O 57.7917 -1.65759 1.14394 0
M  V30 612 C 54.8567 -2.65156 2.23368 0
M  V30 613 C 53.9177 -2.53173 3.46701 0
M  V30 614 C 53.1507 -3.8014 3.74606 0
M  V30 615 O 53.3737 -4.82343 3.04469 0
M  V30 616 O 52.3077 -3.78344 4.68123 0
M  V30 617 H 56.1337 -1.02347 2.85935 0
M  V30 618 H 53.7187 -0.441123 1.42739 0
M  V30 619 H 55.6007 -3.43929 2.43497 0
M  V30 620 H 54.2757 -2.94358 1.34666 0
M  V30 621 H 53.1827 -1.72662 3.31871 0
M  V30 622 H 54.5157 -2.28915 4.35728 0
M  V30 623 N 56.1678 -1.49265 -0.50573 0
M  V30 624 C 57.4138 -1.58748 -1.26202 0
M  V30 625 C 57.7468 -0.271227 -1.92297 0
M  V30 626 O 57.0218 0.724831 -1.80489 0
M  V30 627 C 57.3048 -2.74332 -2.33268 0
M  V30 628 C 57.1578 -4.15737 -1.71705 0
M  V30 629 C 58.4768 -2.85576 -3.34865 0
M  V30 630 H 55.5958 -0.577826 -0.457478 0
M  V30 631 H 58.2378 -1.81532 -0.560897 0
M  V30 632 H 56.3878 -2.55036 -2.93068 0
M  V30 633 H 58.0598 -4.46537 -1.15769 0
M  V30 634 H 56.3028 -4.21605 -1.02135 0
M  V30 635 H 56.9738 -4.92477 -2.49341 0
M  V30 636 H 59.4498 -3.03127 -2.8505 0
M  V30 637 H 58.3258 -3.68135 -4.07146 0
M  V30 638 H 58.5868 -1.94732 -3.96903 0
M  V30 639 N 57.6459 0.756429 -1.3826 0
M  V30 640 C 58.5929 1.87011 -1.35261 0
M  V30 641 C 59.5629 1.64695 -0.215616 0
M  V30 642 O 60.7479 1.864 -0.407399 0
M  V30 643 C 57.8879 3.24275 -1.18068 0
M  V30 644 C 57.0009 3.58442 -2.41129 0
M  V30 645 C 56.1359 4.84994 -2.16689 0
M  V30 646 C 55.1749 5.11939 -3.35537 0
M  V30 647 N 54.3119 6.29685 -3.10549 0
M  V30 648 H 59.1519 1.8891 -2.30472 0
M  V30 649 H 56.6889 0.923373 -1.14509 0
M  V30 650 H 58.6469 4.03479 -1.06116 0
M  V30 651 H 57.2769 3.21711 -0.264973 0
M  V30 652 H 56.3289 2.74103 -2.63764 0
M  V30 653 H 57.6409 3.74283 -3.29717 0
M  V30 654 H 56.7949 5.72135 -2.01857 0
M  V30 655 H 55.5339 4.71286 -1.25462 0
M  V30 656 H 54.5389 4.23268 -3.50891 0
M  V30 657 H 55.7639 5.27546 -4.27635 0
M  V30 658 H 53.7099 6.17306 -2.21967 0
M  V30 659 H 53.6269 6.46014 -3.92686 0
M  V30 660 H 54.8949 7.19722 -2.99367 0
M  V30 661 N 59.124 1.23083 0.984299 0
M  V30 662 C 60.354 1.08556 1.75781 0
M  V30 663 C 60.762 -0.366171 1.85623 0
M  V30 664 O 60.105 -1.26524 1.33182 0
M  V30 665 C 60.167 1.63208 3.20318 0
M  V30 666 C 59.831 3.11922 3.33997 0
M  V30 667 C 60.828 4.09259 3.2063 0
M  V30 668 C 58.513 3.51552 3.58771 0
M  V30 669 C 60.507 5.4421 3.31835 0
M  V30 670 C 58.194 4.86649 3.69616 0
M  V30 671 C 59.192 5.82787 3.56157 0
M  V30 672 O 58.88 7.15431 3.66626 0
M  V30 673 H 58.612 0.380713 0.5586 0
M  V30 674 H 61.166 1.63321 1.2456 0
M  V30 675 H 59.396 1.0286 3.72769 0
M  V30 676 H 61.085 1.44216 3.79416 0
M  V30 677 H 61.851 3.79984 3.01392 0
M  V30 678 H 57.73 2.77239 3.6832 0
M  V30 679 H 61.274 6.1923 3.21247 0
M  V30 680 H 57.171 5.15601 3.88363 0
M  V30 681 H 57.939 7.23127 3.83445 0
M  V30 682 N 60.6021 -1.18246 1.0419 0
M  V30 683 C 61.8791 -1.84121 0.660208 0
M  V30 684 C 62.2591 -1.92778 -0.860221 0
M  V30 685 O 61.6071 -1.45464 -1.76217 0
M  V30 686 C 61.8171 -3.22355 1.33747 0
M  V30 687 C 63.1651 -3.98376 1.46906 0
M  V30 688 O 64.1891 -3.31799 1.29568 0
M  V30 689 O 63.0481 -5.17665 1.75171 0
M  V30 690 H 60.1421 -0.794036 0.231161 0
M  V30 691 H 62.6881 -1.25628 1.14087 0
M  V30 692 H 61.4601 -3.10964 2.37522 0
M  V30 693 H 61.0831 -3.88506 0.845515 0
M  V30 694 N 62.0802 -0.821533 -1.34494 0
M  V30 695 C 63.3052 -0.420873 -2.03085 0
M  V30 696 C 63.7302 0.964915 -1.61465 0
M  V30 697 O 63.0882 1.62763 -0.798607 0
M  V30 698 C 63.1362 -0.529414 -3.56693 0
M  V30 699 O 62.2402 0.451302 -4.09923 0
M  V30 700 H 61.5812 -0.173489 -0.640935 0
M  V30 701 H 64.1112 -1.11157 -1.71771 0
M  V30 702 H 64.1212 -0.404671 -4.05988 0
M  V30 703 H 62.7962 -1.54014 -3.86332 0
M  V30 704 H 61.3732 0.285558 -3.71805 0
M  V30 705 N 63.5583 1.46682 -0.576371 0
M  V30 706 C 64.7833 2.07304 -0.0630475 0
M  V30 707 C 65.2083 1.42329 1.2298 0
M  V30 708 O 64.5663 0.504865 1.74129 0
M  V30 709 C 64.6143 3.60472 0.095895 0
M  V30 710 O 63.7183 3.95927 1.15394 0
M  V30 711 H 63.0593 0.661288 -0.0599463 0
M  V30 712 H 65.5893 1.88417 -0.797511 0
M  V30 713 H 65.5993 4.06865 0.304071 0
M  V30 714 H 64.2743 4.07157 -0.84828 0
M  V30 715 H 62.8513 3.61252 0.924724 0
M  V30 716 N 65.0364 0.313813 1.54444 0
M  V30 717 C 65.9664 -0.549454 2.26943 0
M  V30 718 C 66.9474 -1.12741 1.27372 0
M  V30 719 O 68.1324 -1.15436 1.56167 0
M  V30 720 C 65.2624 -1.71523 3.01989 0
M  V30 721 C 64.2164 -1.26703 4.08816 0
M  V30 722 C 63.5424 -2.51898 4.71647 0
M  V30 723 C 64.8424 -0.388962 5.2085 0
M  V30 724 H 66.5364 0.0552661 2.99349 0
M  V30 725 H 64.0824 0.0280207 1.43973 0
M  V30 726 H 66.0354 -2.32535 3.51433 0
M  V30 727 H 64.7594 -2.34639 2.27183 0
M  V30 728 H 63.4184 -0.679896 3.6024 0
M  V30 729 H 63.0664 -3.13356 3.93468 0
M  V30 730 H 62.7664 -2.22605 5.43802 0
M  V30 731 H 64.2904 -3.1369 5.23861 0
M  V30 732 H 65.7044 -0.905107 5.6611 0
M  V30 733 H 64.1014 -0.18924 5.99802 0
M  V30 734 H 65.1714 0.582699 4.81386 0
M  V30 735 N 66.5145 -1.57545 0.0417849 0
M  V30 736 C 67.9305 -1.56467 -0.314704 0
M  V30 737 C 68.1305 -1.04859 -1.72066 0
M  V30 738 O 67.1865 -0.700983 -2.42575 0
M  V30 739 C 68.4995 -3.00317 -0.15174 0
M  V30 740 C 70.0475 -3.12201 -0.223553 0
M  V30 741 C 70.5225 -4.57913 -0.0892295 0
M  V30 742 N 72.0135 -4.6297 -0.145808 0
M  V30 743 C 72.7485 -5.73362 -0.0658459 0
M  V30 744 N 72.2445 -6.92769 0.0659282 0
M  V30 745 N 74.0375 -5.6197 -0.12075 0
M  V30 746 H 66.1885 -1.89416 0.961014 0
M  V30 747 H 68.4515 -0.871862 0.372237 0
M  V30 748 H 68.1575 -3.42073 0.817254 0
M  V30 749 H 68.0315 -3.65892 -0.916692 0
M  V30 750 H 70.4185 -2.70349 -1.18301 0
M  V30 751 H 70.4995 -2.49323 0.571994 0
M  V30 752 H 70.1435 -5.00448 0.866867 0
M  V30 753 H 70.0735 -5.18786 -0.903802 0
M  V30 754 H 72.5645 -3.7709 -0.247286 0
M  V30 755 H 72.8775 -7.72707 0.119905 0
M  V30 756 H 71.2225 -6.94927 0.100885 0
M  V30 757 H 74.4135 -4.67572 -0.222187 0
M  V30 758 H 74.5865 -6.47977 -0.0549735 0
M  V30 759 N 67.9926 0.231505 -1.5589 0
M  V30 760 C 69.4036 0.799327 -1.68724 0
M  V30 761 C 69.7546 1.85398 -0.642022 0
M  V30 762 O 68.8796 2.1539 0.208784 0
M  V30 763 C 69.4746 1.45664 -3.05888 0
M  V30 764 C 68.0336 1.97197 -3.20609 0
M  V30 765 C 67.1806 0.828552 -2.64632 0
M  V30 766 H 70.1316 0.00702616 -1.58698 0
M  V30 767 H 70.1526 2.32517 -3.01191 0
M  V30 768 H 69.6646 0.688808 -3.81939 0
M  V30 769 H 67.7656 2.76813 -2.4941 0
M  V30 770 H 67.8786 2.15878 -4.27707 0
M  V30 771 H 66.2426 1.23321 -2.22854 0
M  V30 772 H 67.0256 0.0735544 -3.43221 0
M  V30 773 N 69.4707 1.49531 0.497807 0
M  V30 774 C 70.4007 1.6935 1.60757 0
M  V30 775 C 71.3817 0.542218 1.61227 0
M  V30 776 O 72.5667 0.778417 1.77917 0
M  V30 777 C 69.6967 1.76298 2.99226 0
M  V30 778 C 68.6507 2.91248 3.13622 0
M  V30 779 C 67.9767 2.83312 4.53474 0
M  V30 780 C 69.2767 4.3214 2.93346 0
M  V30 781 H 70.9707 2.62263 1.44425 0
M  V30 782 H 68.5167 1.26208 0.693367 0
M  V30 783 H 70.4697 1.88749 3.76765 0
M  V30 784 H 69.1937 0.799871 3.16654 0
M  V30 785 H 67.8527 2.78404 2.38509 0
M  V30 786 H 67.5007 1.84902 4.67782 0
M  V30 787 H 67.2007 3.60465 4.64046 0
M  V30 788 H 68.7247 2.97775 5.33069 0
M  V30 789 H 70.1387 4.45649 3.60652 0
M  V30 790 H 68.5357 5.1054 3.15387 0
M  V30 791 H 69.6057 4.46363 1.89441 0
M  V30 792 N 70.9488 -0.749086 1.3866 0
M  V30 793 C 72.1738 -1.54344 1.38538 0
M  V30 794 C 72.5988 -1.88088 -0.0216655 0
M  V30 795 O 71.9568 -1.50899 -1.00494 0
M  V30 796 C 72.0048 -2.8164 2.25192 0
M  V30 797 O 71.1088 -3.7698 1.67212 0
M  V30 798 H 70.4498 -0.466654 0.472367 0
M  V30 799 H 72.9798 -0.925355 1.82478 0
M  V30 800 H 72.9898 -3.30519 2.3921 0
M  V30 801 H 71.6648 -2.56411 3.27454 0
M  V30 802 H 70.2418 -3.35699 1.6236 0
M  V30 803 N 72.4269 -1.23603 -0.977757 0
M  V30 804 C 73.6759 -1.06377 -1.71368 0
M  V30 805 C 73.9889 0.399062 -1.91486 0
M  V30 806 O 75.1949 0.691312 -2.62551 0
M  V30 807 C 73.6509 -1.85512 -3.08404 0
M  V30 808 C 73.2589 -3.36141 -2.96164 0
M  V30 809 C 75.0029 -1.76783 -3.85938 0
M  V30 810 C 72.9099 -4.07659 -4.28449 0
M  V30 811 H 71.8399 -0.394452 -0.642591 0
M  V30 812 H 74.4909 -1.47594 -1.09034 0
M  V30 813 H 72.8729 -1.37103 -3.71509 0
M  V30 814 H 74.0469 -3.92056 -2.42133 0
M  V30 815 H 72.3619 -3.45712 -2.32104 0
M  V30 816 H 74.9589 -2.27526 -4.83876 0
M  V30 817 H 75.3019 -0.731116 -4.0983 0
M  V30 818 H 75.8349 -2.22818 -3.2954 0
M  V30 819 H 72.5739 -5.11648 -4.09752 0
M  V30 820 H 72.0939 -3.5653 -4.82334 0
M  V30 821 H 73.7729 -4.141 -4.97122 0
M  V30 822 N 73.905 1.17692 -1.04816 0
M  V30 823 C 74.852 2.21581 -0.645797 0
M  V30 824 C 75.822 1.62367 0.350159 0
M  V30 825 O 77.007 1.89254 0.242433 0
M  V30 826 C 74.147 3.45092 -0.0227568 0
M  V30 827 C 73.26 4.18613 -1.06709 0
M  V30 828 C 72.395 5.29602 -0.411767 0
M  V30 829 C 71.434 5.94904 -1.44067 0
M  V30 830 N 70.571 6.97414 -0.809781 0
M  V30 831 H 75.411 2.55353 -1.5362 0
M  V30 832 H 72.948 1.25438 -0.768364 0
M  V30 833 H 74.906 4.15679 0.35588 0
M  V30 834 H 73.536 3.11917 0.831122 0
M  V30 835 H 72.588 3.46779 -1.5636 0
M  V30 836 H 73.9 4.63293 -1.84827 0
M  V30 837 H 73.054 6.06696 0.0206623 0
M  V30 838 H 71.793 4.86045 0.401438 0
M  V30 839 H 70.798 5.16544 -1.88316 0
M  V30 840 H 72.023 6.40542 -2.25571 0
M  V30 841 H 69.969 6.55998 -0.0170186 0
M  V30 842 H 69.886 7.40386 -1.52856 0
M  V30 843 H 71.154 7.78463 -0.401999 0
M  V30 844 N 75.3831 0.828654 1.34056 0
M  V30 845 C 76.6131 0.431993 2.02033 0
M  V30 846 C 77.0211 -0.96844 1.62536 0
M  V30 847 O 76.3641 -1.6391 0.829408 0
M  V30 848 C 76.4261 0.461224 3.56529 0
M  V30 849 C 76.0901 1.81599 4.1937 0
M  V30 850 C 77.0871 2.7777 4.39477 0
M  V30 851 C 74.7721 2.10604 4.56017 0
M  V30 852 C 76.7661 4.01115 4.95364 0
M  V30 853 C 74.4531 3.34207 5.11614 0
M  V30 854 C 75.4511 4.2928 5.31232 0
M  V30 855 O 75.1391 5.50699 5.8565 0
M  V30 856 H 74.8711 0.170943 0.654029 0
M  V30 857 H 77.4251 1.11988 1.72185 0
M  V30 858 H 75.6551 -0.283388 3.8566 0
M  V30 859 H 77.3441 0.0838149 4.05813 0
M  V30 860 H 78.1101 2.56659 4.11523 0
M  V30 861 H 73.9891 1.37402 4.40047 0
M  V30 862 H 77.5331 4.75333 5.10592 0
M  V30 863 H 73.4301 3.55179 5.38997 0
M  V30 864 H 74.1981 5.52298 6.04077 0
M  V30 865 N 76.8612 -1.46375 0.584142 0
M  V30 866 C 78.1382 -1.956 0.0033388 0
M  V30 867 C 78.5182 -1.52679 -1.45782 0
M  V30 868 O 77.8662 -0.77816 -2.14842 0
M  V30 869 C 78.0762 -3.48551 0.176891 0
M  V30 870 C 79.4242 -4.24576 0.0454609 0
M  V30 871 O 80.4482 -3.56043 0.105801 0
M  V30 872 O 79.3072 -5.46427 -0.0890376 0
M  V30 873 H 76.4012 -0.825547 -0.0490066 0
M  V30 874 H 78.9472 -1.56652 0.65256 0
M  V30 875 H 77.7192 -3.72683 1.1926 0
M  V30 876 H 77.3422 -3.94332 -0.508695 0
M  V30 877 N 78.3393 -0.321999 -1.54275 0
M  V30 878 C 79.7503 0.166384 -1.85957 0
M  V30 879 C 80.1013 1.51747 -1.24367 0
M  V30 880 O 79.2263 2.09317 -0.549124 0
M  V30 881 C 79.8213 0.308681 -3.37391 0
M  V30 882 C 78.3803 0.741286 -3.69028 0
M  V30 883 C 77.5273 -0.137937 -2.76957 0
M  V30 884 H 80.4783 -0.542335 -1.49146 0
M  V30 885 H 80.4993 1.13984 -3.63026 0
M  V30 886 H 80.0113 -0.674809 -3.82188 0
M  V30 887 H 78.1123 1.73458 -3.29762 0
M  V30 888 H 78.2253 0.546118 -4.75977 0
M  V30 889 H 76.5893 0.386251 -2.51754 0
M  V30 890 H 77.3723 -1.11816 -3.2458 0
M  V30 891 N 79.8174 1.5752 -0.0501392 0
M  V30 892 C 81.0424 1.97376 0.636997 0
M  V30 893 C 81.4674 0.927466 1.63645 0
M  V30 894 O 80.8254 -0.10941 1.8097 0
M  V30 895 C 80.8734 3.36304 1.30123 0
M  V30 896 O 79.9774 3.34156 2.41689 0
M  V30 897 H 79.3184 0.642998 0.165679 0
M  V30 898 H 81.8484 2.04258 -0.118233 0
M  V30 899 H 81.8584 3.73008 1.65315 0
M  V30 900 H 80.5334 4.11993 0.568746 0
M  V30 901 H 79.1104 3.09196 2.08451 0
M  V30 902 N 81.2955 -0.223234 1.56011 0
M  V30 903 C 82.5205 -0.968978 1.83373 0
M  V30 904 C 82.9455 -1.77227 0.630254 0
M  V30 905 O 82.3035 -1.76345 -0.420959 0
M  V30 906 C 82.3515 -1.86363 3.08709 0
M  V30 907 O 81.4555 -2.95873 2.87285 0
M  V30 908 H 80.7965 -0.274461 0.604622 0
M  V30 909 H 83.3265 -0.237056 2.03222 0
M  V30 910 H 83.3365 -2.27376 3.38768 0
M  V30 911 H 82.0115 -1.27319 3.95933 0
M  V30 912 H 80.5885 -2.58818 2.68454 0
M  V30 913 N 82.7736 -1.49793 -0.48987 0
M  V30 914 C 83.7366 -1.66752 -1.57246 0
M  V30 915 C 84.7366 -0.538867 -1.51502 0
M  V30 916 O 85.9266 -0.805545 -1.54456 0
M  V30 917 C 83.0586 -1.67528 -2.96896 0
M  V30 918 H 84.2516 -2.63321 -1.43534 0
M  V30 919 H 81.8046 -1.38992 -0.714914 0
M  V30 920 H 82.5396 -0.725837 -3.16073 0
M  V30 921 H 82.3246 -2.49504 -3.02473 0
M  V30 922 H 83.8146 -1.82667 -3.7553 0
M  V30 923 N 84.2517 0.741722 -1.39055 0
M  V30 924 C 85.1987 1.85566 -1.37237 0
M  V30 925 C 86.1687 1.64457 -0.233072 0
M  V30 926 O 87.3537 1.85957 -0.427147 0
M  V30 927 C 84.4937 3.23004 -1.215 0
M  V30 928 C 83.6067 3.55864 -2.44918 0
M  V30 929 C 82.7417 4.82669 -2.21821 0
M  V30 930 C 81.7807 5.08351 -3.40948 0
M  V30 931 N 80.9177 6.26356 -3.17211 0
M  V30 932 H 85.7577 1.86455 -2.32462 0
M  V30 933 H 83.2947 0.911176 -1.15482 0
M  V30 934 H 85.2527 4.02331 -1.10389 0
M  V30 935 H 83.8827 3.21411 -0.29908 0
M  V30 936 H 82.9347 2.7129 -2.66657 0
M  V30 937 H 84.2467 3.70765 -3.33668 0
M  V30 938 H 83.4007 5.69962 -2.07914 0
M  V30 939 H 82.1397 4.69929 -1.30454 0
M  V30 940 H 81.1447 4.19522 -3.55361 0
M  V30 941 H 82.3697 5.22981 -4.33207 0
M  V30 942 H 80.3157 6.14917 -2.28502 0
M  V30 943 H 80.2327 6.41813 -3.99515 0
M  V30 944 H 81.5007 7.16506 -3.06984 0
M  V30 945 N 85.7298 1.2412 0.971189 0
M  V30 946 C 86.9788 1.07284 1.70801 0
M  V30 947 C 87.2918 -0.388902 1.91695 0
M  V30 948 O 88.4978 -0.677379 2.62914 0
M  V30 949 C 86.9538 1.87145 3.07416 0
M  V30 950 C 86.5618 3.37707 2.94377 0
M  V30 951 C 88.3058 1.78828 3.84995 0
M  V30 952 C 86.2128 4.09925 4.26281 0
M  V30 953 H 85.1428 0.397854 0.64049 0
M  V30 954 H 87.7938 1.4817 1.0825 0
M  V30 955 H 86.1758 1.39071 3.70777 0
M  V30 956 H 87.3498 3.93335 2.4005 0
M  V30 957 H 85.6648 3.46938 2.30267 0
M  V30 958 H 88.2618 2.30089 4.82662 0
M  V30 959 H 88.6048 0.75284 4.09436 0
M  V30 960 H 89.1378 2.24563 3.28354 0
M  V30 961 H 85.8768 5.13813 4.07033 0
M  V30 962 H 85.3968 3.59083 4.80437 0
M  V30 963 H 87.0758 4.1673 4.94919 0
M  V30 964 N 87.2079 -1.17134 1.05439 0
M  V30 965 C 88.4569 -1.86791 0.761049 0
M  V30 966 C 88.7699 -1.82072 -0.714795 0
M  V30 967 O 89.9759 -2.47223 -1.12218 0
M  V30 968 C 88.4319 -3.35166 1.31117 0
M  V30 969 C 88.0399 -3.48381 2.81664 0
M  V30 970 C 89.7839 -4.10134 1.09499 0
M  V30 971 C 87.6909 -4.90793 3.29964 0
M  V30 972 H 86.6209 -0.699681 0.281002 0
M  V30 973 H 89.2719 -1.3226 1.27199 0
M  V30 974 H 87.6539 -3.8925 0.72803 0
M  V30 975 H 88.8279 -3.04502 3.45855 0
M  V30 976 H 87.1429 -2.86836 3.01851 0
M  V30 977 H 89.7399 -5.152 1.43084 0
M  V30 978 H 90.0829 -4.16287 0.0328772 0
M  V30 979 H 90.6159 -3.62264 1.64346 0
M  V30 980 H 87.3549 -4.89816 4.35616 0
M  V30 981 H 86.8749 -5.35333 2.70516 0
M  V30 982 H 88.5539 -5.59573 3.24787 0
M  V30 983 N 88.686 -0.835752 -1.33615 0
M  V30 984 C 89.911 -0.442389 -2.02627 0
M  V30 985 C 90.336 0.947735 -1.62479 0
M  V30 986 O 89.694 1.61907 -0.815826 0
M  V30 987 C 89.742 -0.567216 -3.56111 0
M  V30 988 O 88.846 0.407799 -4.10379 0
M  V30 989 H 88.187 -0.180278 -0.639059 0
M  V30 990 H 90.717 -1.12972 -1.70583 0
M  V30 991 H 90.727 -0.447708 -4.05536 0
M  V30 992 H 89.402 -1.58103 -3.84677 0
M  V30 993 H 87.979 0.246107 -3.72087 0
M  V30 994 N 90.1641 1.46063 -0.591896 0
M  V30 995 C 91.1121 2.32124 0.148739 0
M  V30 996 C 92.1061 1.45035 0.875286 0
M  V30 997 O 93.3121 1.61609 0.792632 0
M  V30 998 H 89.6871 0.749024 0.066832 0
M  V30 999 H 91.6581 2.92392 -0.595783 0
M  V30 1000 C 90.4071 3.28373 1.1431 0
M  V30 1001 H 89.7301 3.95371 0.59346 0
M  V30 1002 H 91.1701 3.91352 1.63155 0
M  V30 1003 C 89.6291 2.54393 2.20875 0
M  V30 1004 O 90.1591 2.31373 3.28374 0
M  V30 1005 N 88.3651 2.14797 1.95731 0
M  V30 1006 H 87.9121 2.33719 1.08319 0
M  V30 1007 H 87.8701 1.65619 2.67241 0
M  V30 1008 N 91.6422 0.330177 1.54103 0
M  V30 1009 C 92.8672 -0.274893 2.0557 0
M  V30 1010 C 93.2922 -1.44487 1.20437 0
M  V30 1011 O 92.6502 -1.80021 0.214991 0
M  V30 1012 C 92.6982 -0.68079 3.54115 0
M  V30 1013 O 91.8022 -1.7824 3.71893 0
M  V30 1014 H 91.1432 -0.0483849 0.662235 0
M  V30 1015 H 93.6732 0.480508 1.98878 0
M  V30 1016 H 93.6832 -0.961635 3.96505 0
M  V30 1017 H 92.3582 0.174903 4.15532 0
M  V30 1018 H 90.9352 -1.49985 3.41407 0
M  V30 1019 N 93.1203 -1.57491 0.0584922 0
M  V30 1020 C 94.3683 -1.92597 -0.612436 0
M  V30 1021 C 94.6893 -0.938162 -1.70949 0
M  V30 1022 O 93.9593 0.0158301 -1.95894 0
M  V30 1023 H 92.5393 -0.710964 -0.229214 0
M  V30 1024 H 95.2013 -1.94571 0.113218 0
M  V30 1025 H 94.2973 -2.94038 -1.04633 0
M  V30 1026 N 94.5984 0.214957 -1.56127 0
M  V30 1027 C 95.5484 1.27006 -1.8935 0
M  V30 1028 C 96.5324 1.41969 -0.757202 0
M  V30 1029 O 97.7244 1.44673 -1.01973 0
M  V30 1030 C 94.8534 2.61911 -2.2194 0
M  V30 1031 C 93.9394 2.50822 -3.41978 0
M  V30 1032 N 94.3304 2.09391 -4.60423 0
M  V30 1033 C 92.6284 2.81765 -3.45723 0
M  V30 1034 C 93.3294 2.09712 -5.42582 0
M  V30 1035 N 92.3054 2.50454 -4.82466 0
M  V30 1036 H 96.1074 0.940734 -2.78437 0
M  V30 1037 H 93.6214 0.423492 -1.56781 0
M  V30 1038 H 95.6184 3.38096 -2.43919 0
M  V30 1039 H 94.2784 2.95684 -1.34169 0
M  V30 1040 H 95.2894 1.80416 -4.85459 0
M  V30 1041 H 91.9664 3.19865 -2.68314 0
M  V30 1042 H 93.3564 1.79748 -6.4741 0
M  V30 1043 N 96.0765 1.50051 0.48192 0
M  V30 1044 C 97.3015 1.64508 1.26301 0
M  V30 1045 C 97.7265 0.323851 1.85291 0
M  V30 1046 O 97.0845 -0.710969 1.66778 0
M  V30 1047 C 97.1325 2.7305 2.35533 0
M  V30 1048 O 96.2365 2.3355 3.39895 0
M  V30 1049 H 95.5775 0.549978 0.372048 0
M  V30 1050 H 98.1075 1.9636 0.574786 0
M  V30 1051 H 98.1175 2.95799 2.8101 0
M  V30 1052 H 96.7925 3.68946 1.91967 0
M  V30 1053 H 95.3695 2.21205 3.00204 0
M  V30 1054 N 97.5546 -0.734337 1.39446 0
M  V30 1055 C 98.8016 -1.49391 1.36706 0
M  V30 1056 C 99.1296 -1.94465 -0.0367813 0
M  V30 1057 O 98.3846 -1.67154 -1.01774 0
M  V30 1058 C 98.6836 -2.74711 2.28623 0
M  V30 1059 C 98.3496 -2.48501 3.76242 0
M  V30 1060 C 97.0116 -2.41062 4.16464 0
M  V30 1061 C 99.3636 -2.26098 4.69606 0
M  V30 1062 C 96.6916 -2.09262 5.48112 0
M  V30 1063 C 99.0436 -1.95814 6.01531 0
M  V30 1064 C 97.7076 -1.86845 6.40816 0
M  V30 1065 H 96.9776 -0.546661 0.500243 0
M  V30 1066 H 99.6246 -0.842788 1.71957 0
M  V30 1067 H 97.9296 -3.44569 1.86492 0
M  V30 1068 H 99.6266 -3.32741 2.23796 0
M  V30 1069 H 96.2166 -2.55169 3.44364 0
M  V30 1070 H 100.401 -2.30812 4.39363 0
M  V30 1071 H 95.6566 -2.00841 5.77471 0
M  V30 1072 H 99.8306 -1.77488 6.73403 0
M  V30 1073 H 97.4576 -1.6197 7.42745 0
M  V30 1074 N 99.0327 -1.24633 -0.964593 0
M  V30 1075 C 99.9807 -1.03917 -2.08096 0
M  V30 1076 C 100.975 0.0268581 -1.69379 0
M  V30 1077 O 102.181 -0.127952 -1.79545 0
M  V30 1078 H 98.5557 -0.319044 -0.680966 0
M  V30 1079 H 100.527 -1.98581 -2.22729 0
M  V30 1080 C 99.2757 -0.663983 -3.41301 0
M  V30 1081 H 98.5987 -1.47605 -3.71555 0
M  V30 1082 H 100.039 -0.558663 -4.20303 0
M  V30 1083 C 98.4977 0.629169 -3.30973 0
M  V30 1084 O 99.0277 1.67404 -3.65156 0
M  V30 1085 N 97.2337 0.611057 -2.84103 0
M  V30 1086 H 96.7807 -0.239593 -2.56483 0
M  V30 1087 H 96.7387 1.47647 -2.77575 0
M  V30 1088 N 100.511 1.16574 -1.06058 0
M  V30 1089 C 101.757 1.87324 -0.777022 0
M  V30 1090 C 102.09 1.81351 0.694645 0
M  V30 1091 O 101.365 1.22753 1.50871 0
M  V30 1092 C 101.648 3.36991 -1.26922 0
M  V30 1093 C 101.501 3.51667 -2.80447 0
M  V30 1094 C 102.82 4.3131 -0.87521 0
M  V30 1095 H 99.9388 0.680191 -0.28374 0
M  V30 1096 H 102.581 1.37036 -1.3161 0
M  V30 1097 H 100.731 3.79949 -0.81063 0
M  V30 1098 H 102.403 3.17664 -3.34495 0
M  V30 1099 H 100.646 2.93656 -3.19294 0
M  V30 1100 H 101.317 4.56766 -3.0995 0
M  V30 1101 H 103.793 3.9624 -1.27014 0
M  V30 1102 H 102.669 5.34545 -1.2471 0
M  V30 1103 H 102.93 4.41552 0.220071 0
M  V30 1104 N 101.989 0.842826 1.3317 0
M  V30 1105 C 103.266 0.362216 1.92217 0
M  V30 1106 C 103.646 -1.15289 1.76838 0
M  V30 1107 O 102.994 -1.96914 1.15919 0
M  V30 1108 C 103.204 0.813495 3.39387 0
M  V30 1109 C 104.552 0.823804 4.16532 0
M  V30 1110 O 105.576 0.757358 3.48055 0
M  V30 1111 O 104.435 0.915193 5.38782 0
M  V30 1112 H 101.529 0.103317 0.820521 0
M  V30 1113 H 104.075 0.928942 1.42017 0
M  V30 1114 H 102.847 1.85624 3.4447 0
M  V30 1115 H 102.47 0.223561 3.96971 0
M  V30 1116 N 103.467 -1.45747 0.599634 0
M  V30 1117 C 104.714 -2.02292 0.0917284 0
M  V30 1118 C 105.042 -1.46906 -1.27472 0
M  V30 1119 O 104.297 -0.630652 -1.8526 0
M  V30 1120 C 104.596 -3.57399 -0.00602758 0
M  V30 1121 C 104.262 -4.31902 1.29503 0
M  V30 1122 C 102.924 -4.51974 1.65144 0
M  V30 1123 C 105.276 -4.74551 2.15525 0
M  V30 1124 C 102.604 -5.11949 2.86574 0
M  V30 1125 C 104.956 -5.35868 3.36196 0
M  V30 1126 C 103.62 -5.54165 3.72099 0
M  V30 1127 H 102.89 -0.740239 0.0335658 0
M  V30 1128 H 105.537 -1.7491 0.779661 0
M  V30 1129 H 103.842 -3.84014 -0.777183 0
M  V30 1130 H 105.539 -3.98846 -0.415038 0
M  V30 1131 H 102.129 -4.16588 1.00761 0
M  V30 1132 H 106.313 -4.58784 1.8929 0
M  V30 1133 H 101.569 -5.24305 3.14507 0
M  V30 1134 H 105.743 -5.6787 4.03109 0
M  V30 1135 H 103.37 -6.00406 4.6628 0
M  V30 1136 N 104.945 -0.338344 -1.53925 0
M  V30 1137 C 106.222 0.314774 -1.93051 0
M  V30 1138 C 106.602 1.68669 -1.26941 0
M  V30 1139 O 105.95 2.24636 -0.418445 0
M  V30 1140 C 106.16 0.392249 -3.46789 0
M  V30 1141 C 107.508 0.645554 -4.19664 0
M  V30 1142 O 108.532 0.474575 -3.53024 0
M  V30 1143 O 107.391 0.976408 -5.37707 0
M  V30 1144 H 104.485 0.182598 -0.80659 0
M  V30 1145 H 107.031 -0.389141 -1.65178 0
M  V30 1146 H 105.803 -0.570702 -3.87116 0
M  V30 1147 H 105.426 1.14316 -3.80812 0
M  V30 1148 N 106.423 1.57458 -0.0668435 0
M  V30 1149 C 107.7 1.8469 0.644132 0
M  V30 1150 C 108.08 0.958343 1.88093 0
M  V30 1151 O 107.428 0.0233579 2.28488 0
M  V30 1152 C 107.638 3.34767 0.986509 0
M  V30 1153 C 108.986 4.02159 1.36212 0
M  V30 1154 O 110.01 3.39484 1.07839 0
M  V30 1155 O 108.869 5.12694 1.89227 0
M  V30 1156 H 105.963 0.762816 0.319437 0
M  V30 1157 H 108.509 1.6942 -0.0973986 0
M  V30 1158 H 107.281 3.91151 0.107883 0
M  V30 1159 H 106.904 3.55281 1.78497 0
M  V30 1160 N 107.901 -0.206675 1.56239 0
M  V30 1161 C 109.129 -0.945345 1.8404 0
M  V30 1162 C 109.544 -1.77336 0.647885 0
M  V30 1163 O 108.901 -1.78425 -0.383511 0
M  V30 1164 C 108.952 -1.8509 3.10522 0
M  V30 1165 O 108.673 -1.05634 4.25174 0
M  V30 1166 C 110.174 -2.70222 3.51418 0
M  V30 1167 H 107.394 -0.276372 0.61144 0
M  V30 1168 H 109.938 -0.217417 2.03341 0
M  V30 1169 H 108.093 -2.53259 2.93153 0
M  V30 1170 H 108.507 -1.67238 4.97124 0
M  V30 1171 H 109.981 -3.29438 4.42916 0
M  V30 1172 H 110.458 -3.43358 2.73864 0
M  V30 1173 H 111.064 -2.07443 3.71278 0
M  V30 1174 N 109.379 -1.50304 -0.473955 0
M  V30 1175 C 110.289 -1.7174 -1.5982 0
M  V30 1176 C 111.305 -0.600457 -1.63311 0
M  V30 1177 O 112.481 -0.878441 -1.81233 0
M  V30 1178 C 109.546 -1.80427 -2.96052 0
M  V30 1179 C 108.607 -3.04148 -3.02972 0
M  V30 1180 C 107.84 -3.12411 -4.32706 0
M  V30 1181 O 108.063 -2.27542 -5.23049 0
M  V30 1182 O 106.997 -4.05113 -4.45159 0
M  V30 1183 H 110.823 -2.67035 -1.44657 0
M  V30 1184 H 108.408 -1.34366 -0.653148 0
M  V30 1185 H 110.29 -1.88338 -3.7697 0
M  V30 1186 H 108.965 -0.883156 -3.11419 0
M  V30 1187 H 107.872 -3.0174 -2.21142 0
M  V30 1188 H 109.205 -3.95829 -2.92541 0
M  V30 1189 N 110.857 0.726932 -1.39834 0
M  V30 1190 C 111.805 1.86235 -1.39353 0
M  V30 1191 C 112.799 1.67144 -0.275555 0
M  V30 1192 O 114.005 1.74387 -0.44601 0
M  V30 1193 H 110.38 0.613174 -0.43534 0
M  V30 1194 H 112.351 1.83756 -2.35109 0
M  V30 1195 C 111.1 3.23995 -1.26185 0
M  V30 1196 H 110.423 3.39285 -2.11484 0
M  V30 1197 H 111.863 4.03609 -1.29907 0
M  V30 1198 C 110.322 3.36888 0.0290018 0
M  V30 1199 O 110.852 3.89152 0.99619 0
M  V30 1200 N 109.058 2.90446 0.0947437 0
M  V30 1201 H 108.605 2.48102 -0.693035 0
M  V30 1202 H 108.563 2.99451 0.957932 0
M  V30 1203 N 112.336 1.25143 0.95797 0
M  V30 1204 C 113.283 1.05235 2.05412 0
M  V30 1205 C 114.253 -0.0374561 1.66058 0
M  V30 1206 O 115.438 0.119073 1.90428 0
M  V30 1207 C 112.578 0.673589 3.38462 0
M  V30 1208 C 111.691 1.8379 3.90954 0
M  V30 1209 C 110.826 1.40381 5.12315 0
M  V30 1210 C 109.865 2.53746 5.57027 0
M  V30 1211 N 109.002 2.11136 6.69601 0
M  V30 1212 H 113.842 1.99048 2.21774 0
M  V30 1213 H 111.379 0.991277 1.08683 0
M  V30 1214 H 113.337 0.434964 4.14926 0
M  V30 1215 H 111.967 -0.227554 3.21997 0
M  V30 1216 H 111.019 2.18992 3.11041 0
M  V30 1217 H 112.331 2.68937 4.20089 0
M  V30 1218 H 111.485 1.12464 5.96185 0
M  V30 1219 H 110.224 0.523015 4.84887 0
M  V30 1220 H 109.229 2.82412 4.71724 0
M  V30 1221 H 110.454 3.42398 5.86464 0
M  V30 1222 H 108.4 1.25468 6.4389 0
M  V30 1223 H 108.317 2.89832 6.98236 0
M  V30 1224 H 109.585 1.86385 7.56889 0
M  V30 1225 N 113.814 -1.1601 1.06675 0
M  V30 1226 C 115.039 -1.91068 0.806706 0
M  V30 1227 C 115.464 -1.77112 -0.633485 0
M  V30 1228 O 114.822 -1.09908 -1.44187 0
M  V30 1229 C 114.87 -3.39655 1.21106 0
M  V30 1230 O 113.974 -4.10893 0.352189 0
M  V30 1231 H 113.315 -0.595125 0.294486 0
M  V30 1232 H 115.845 -1.46955 1.42356 0
M  V30 1233 H 115.855 -3.90434 1.18428 0
M  V30 1234 H 114.53 -3.49132 2.26008 0
M  V30 1235 H 113.107 -3.70285 0.440868 0
M  V30 1236 N 115.292 -0.849877 -1.32721 0
M  V30 1237 C 116.538 -0.451591 -1.97708 0
M  V30 1238 C 116.871 0.989175 -1.6712 0
M  V30 1239 O 116.146 1.69334 -0.956891 0
M  V30 1240 C 116.429 -0.685598 -3.53513 0
M  V30 1241 C 116.282 -2.17444 -3.93749 0
M  V30 1242 C 117.601 -0.138874 -4.39881 0
M  V30 1243 H 114.72 -0.16555 -0.718166 0
M  V30 1244 H 117.362 -1.06742 -1.57182 0
M  V30 1245 H 115.512 -0.161416 -3.88165 0
M  V30 1246 H 117.184 -2.76433 -3.693 0
M  V30 1247 H 115.427 -2.65476 -3.43081 0
M  V30 1248 H 116.098 -2.28888 -5.02309 0
M  V30 1249 H 118.574 -0.587068 -4.11938 0
M  V30 1250 H 117.45 -0.332213 -5.47894 0
M  V30 1251 H 117.711 0.95806 -4.31594 0
M  V30 1252 N 116.77 1.45427 -0.607355 0
M  V30 1253 C 117.7 2.3329 0.0989352 0
M  V30 1254 C 118.681 1.46816 0.859007 0
M  V30 1255 O 119.866 1.75588 0.829604 0
M  V30 1256 C 116.996 3.29518 1.09705 0
M  V30 1257 C 115.95 4.25626 0.450206 0
M  V30 1258 C 115.276 5.11542 1.55655 0
M  V30 1259 C 116.576 5.18505 -0.628455 0
M  V30 1260 H 118.27 2.92595 -0.634716 0
M  V30 1261 H 115.816 1.40696 -0.306681 0
M  V30 1262 H 117.769 3.89855 1.59971 0
M  V30 1263 H 116.493 2.68372 1.86129 0
M  V30 1264 H 115.152 3.66586 -0.0315886 0
M  V30 1265 H 114.8 4.46765 2.31107 0
M  V30 1266 H 114.5 5.76647 1.12925 0
M  V30 1267 H 116.024 5.74748 2.06148 0
M  V30 1268 H 117.438 5.72916 -0.209877 0
M  V30 1269 H 115.835 5.92085 -0.977489 0
M  V30 1270 H 116.905 4.60948 -1.50514 0
M  V30 1271 N 118.248 0.346503 1.53744 0
M  V30 1272 C 119.664 -0.00530975 1.59599 0
M  V30 1273 C 119.864 -1.48465 1.36236 0
M  V30 1274 O 118.92 -2.24376 1.15808 0
M  V30 1275 C 120.233 0.433516 2.97559 0
M  V30 1276 C 121.781 0.386111 3.10609 0
M  V30 1277 C 122.256 0.800451 4.50951 0
M  V30 1278 N 123.747 0.754753 4.5701 0
M  V30 1279 C 124.482 1.04727 5.63755 0
M  V30 1280 N 123.978 1.4081 6.7834 0
M  V30 1281 N 125.771 0.971316 5.53644 0
M  V30 1282 H 117.922 1.31009 1.67184 0
M  V30 1283 H 120.185 0.534242 0.783128 0
M  V30 1284 H 119.891 1.46509 3.19731 0
M  V30 1285 H 119.765 -0.189753 3.76722 0
M  V30 1286 H 122.152 -0.636295 2.88158 0
M  V30 1287 H 122.233 1.04462 2.33498 0
M  V30 1288 H 121.877 1.82088 4.74137 0
M  V30 1289 H 121.807 0.119386 5.26465 0
M  V30 1290 H 124.298 0.488662 3.74727 0
M  V30 1291 H 124.611 1.61607 7.55714 0
M  V30 1292 H 122.956 1.44657 6.79779 0
M  V30 1293 H 126.147 0.688748 4.63005 0
M  V30 1294 H 126.32 1.20263 6.36742 0
M  V30 1295 N 119.726 -1.57421 0.075193 0
M  V30 1296 C 120.974 -1.93236 -0.591974 0
M  V30 1297 C 121.295 -0.956241 -1.69944 0
M  V30 1298 O 120.565 -0.00494792 -1.95899 0
M  V30 1299 H 119.145 -0.713355 -0.22166 0
M  V30 1300 H 121.807 -1.9444 0.133848 0
M  V30 1301 H 120.903 -2.95131 -1.01509 0
M  V30 1302 N 121.204 0.198386 -1.56346 0
M  V30 1303 C 122.452 0.91747 -1.80075 0
M  V30 1304 C 122.773 1.83929 -0.647692 0
M  V30 1305 O 122.043 1.93029 0.334166 0
M  V30 1306 H 120.623 0.341774 -0.664228 0
M  V30 1307 H 123.285 0.204684 -1.93822 0
M  V30 1308 H 122.381 1.51055 -2.7311 0
M  V30 1309 N 122.682 1.50554 0.465978 0
M  V30 1310 C 124.093 1.54599 1.04671 0
M  V30 1311 C 124.444 0.352488 1.93008 0
M  V30 1312 O 123.569 -0.534044 2.09707 0
M  V30 1313 C 124.164 2.80166 1.90505 0
M  V30 1314 C 122.723 2.86876 2.43678 0
M  V30 1315 C 121.87 2.48947 1.22151 0
M  V30 1316 H 124.821 1.56744 0.248384 0
M  V30 1317 H 124.842 2.62311 2.75633 0
M  V30 1318 H 124.354 3.67013 1.26186 0
M  V30 1319 H 122.455 2.04393 3.11536 0
M  V30 1320 H 122.568 3.89885 2.78436 0
M  V30 1321 H 120.932 2.01498 1.5579 0
M  V30 1322 H 121.715 3.38107 0.594866 0
M  V30 1323 N 124.16 -0.719506 1.40217 0
M  V30 1324 C 125.09 -1.8465 1.42922 0
M  V30 1325 C 126.071 -1.67599 0.29062 0
M  V30 1326 O 127.256 -1.87688 0.498677 0
M  V30 1327 C 124.386 -3.22565 1.28722 0
M  V30 1328 C 123.34 -3.54281 2.40144 0
M  V30 1329 C 122.666 -4.91298 2.11023 0
M  V30 1330 C 123.966 -3.55676 3.82481 0
M  V30 1331 H 125.66 -1.82644 2.37237 0
M  V30 1332 H 123.206 -0.877305 1.1419 0
M  V30 1333 H 125.159 -4.01095 1.29232 0
M  V30 1334 H 123.883 -3.25137 0.308811 0
M  V30 1335 H 122.542 -2.78088 2.38877 0
M  V30 1336 H 122.19 -4.90468 1.11582 0
M  V30 1337 H 121.89 -5.13485 2.8567 0
M  V30 1338 H 123.414 -5.72166 2.13209 0
M  V30 1339 H 124.828 -4.24254 3.85592 0
M  V30 1340 H 123.225 -3.89388 4.56614 0
M  V30 1341 H 124.295 -2.55144 4.12346 0
M  V30 1342 N 125.638 -1.25649 -0.95132 0
M  V30 1343 C 126.866 -1.13343 -1.73092 0
M  V30 1344 C 127.281 0.312434 -1.86197 0
M  V30 1345 O 126.638 1.21465 -1.36207 0
M  V30 1346 C 126.689 -1.78602 -3.14299 0
M  V30 1347 O 126.41 -3.17537 -3.01831 0
M  V30 1348 C 127.911 -1.72119 -4.08522 0
M  V30 1349 H 125.131 -0.395181 -0.542285 0
M  V30 1350 H 127.675 -1.66076 -1.19328 0
M  V30 1351 H 125.83 -1.29832 -3.64996 0
M  V30 1352 H 126.244 -3.49676 -3.90931 0
M  V30 1353 H 127.718 -2.22435 -5.052 0
M  V30 1354 H 128.195 -0.685635 -4.33815 0
M  V30 1355 H 128.801 -2.20393 -3.63741 0
M  V30 1356 N 127.117 1.15442 -1.07289 0
M  V30 1357 C 128.365 1.85845 -0.794096 0
M  V30 1358 C 128.686 1.82692 0.681809 0
M  V30 1359 O 127.956 1.26741 1.49377 0
M  V30 1360 H 126.536 0.688089 -0.290763 0
M  V30 1361 H 129.198 1.39947 -1.3565 0
M  V30 1362 H 128.294 2.91001 -1.12804 0
M  V30 1363 N 128.595 0.856903 1.32268 0
M  V30 1364 C 129.82 0.474569 2.01897 0
M  V30 1365 C 130.245 -0.921766 1.63967 0
M  V30 1366 O 129.603 -1.60589 0.84148 0
M  V30 1367 C 129.651 0.623799 3.55164 0
M  V30 1368 O 128.755 -0.342459 4.10976 0
M  V30 1369 H 128.096 0.190422 0.63611 0
M  V30 1370 H 130.626 1.15672 1.68764 0
M  V30 1371 H 130.636 0.512169 4.04773 0
M  V30 1372 H 129.311 1.64202 3.82113 0
M  V30 1373 H 127.888 -0.18688 3.72431 0
M  V30 1374 N 130.073 -1.45103 0.615059 0
M  V30 1375 C 131.303 -2.06254 0.119596 0
M  V30 1376 C 131.711 -1.4591 -1.20445 0
M  V30 1377 O 131.054 -0.570384 -1.7462 0
M  V30 1378 C 131.116 -3.59396 -0.0865591 0
M  V30 1379 C 130.78 -4.42116 1.15683 0
M  V30 1380 C 131.777 -4.7662 2.07676 0
M  V30 1381 C 129.462 -4.82749 1.38775 0
M  V30 1382 C 131.456 -5.50622 3.21082 0
M  V30 1383 C 129.143 -5.56504 2.52481 0
M  V30 1384 C 130.141 -5.90358 3.43463 0
M  V30 1385 O 129.829 -6.62615 4.55189 0
M  V30 1386 H 129.561 -0.672423 0.0694512 0
M  V30 1387 H 132.115 -1.87219 0.844885 0
M  V30 1388 H 130.345 -3.76859 -0.866823 0
M  V30 1389 H 132.034 -4.02365 -0.534555 0
M  V30 1390 H 132.8 -4.4578 1.91063 0
M  V30 1391 H 128.679 -4.55829 0.688545 0
M  V30 1392 H 132.223 -5.76965 3.92119 0
M  V30 1393 H 128.12 -5.86759 2.69043 0
M  V30 1394 H 128.888 -6.81071 4.53966 0
M  V30 1395 N 131.551 -0.354651 -1.53558 0
M  V30 1396 C 132.967 -0.00315426 -1.596 0
M  V30 1397 C 133.167 1.47741 -1.37021 0
M  V30 1398 O 132.223 2.23759 -1.16996 0
M  V30 1399 C 133.536 -0.44929 -2.97325 0
M  V30 1400 C 135.084 -0.402578 -3.104 0
M  V30 1401 C 135.559 -0.824355 -4.5052 0
M  V30 1402 N 137.05 -0.778979 -4.56603 0
M  V30 1403 C 137.785 -1.07715 -5.63192 0
M  V30 1404 N 137.281 -1.44405 -6.77583 0
M  V30 1405 N 139.074 -1.00066 -5.53121 0
M  V30 1406 H 131.225 -1.31893 -1.66487 0
M  V30 1407 H 133.488 -0.538388 -0.780284 0
M  V30 1408 H 133.194 -1.48202 -3.1895 0
M  V30 1409 H 133.068 0.169772 -3.76818 0
M  V30 1410 H 135.455 0.621004 -2.88492 0
M  V30 1411 H 135.536 -1.05699 -2.32941 0
M  V30 1412 H 135.18 -1.846 -4.73165 0
M  V30 1413 H 135.11 -0.147304 -5.26394 0
M  V30 1414 H 137.601 -0.508528 -3.74463 0
M  V30 1415 H 137.914 -1.65612 -7.54846 0
M  V30 1416 H 136.259 -1.4826 -6.79002 0
M  V30 1417 H 139.45 -0.713293 -4.62633 0
M  V30 1418 H 139.623 -1.23638 -6.36096 0
M  V30 1419 N 133.029 1.57378 -0.0835403 0
M  V30 1420 C 133.959 2.1641 0.87686 0
M  V30 1421 C 134.94 1.09429 1.30228 0
M  V30 1422 O 136.125 1.37516 1.37124 0
M  V30 1423 C 133.255 2.73517 2.14022 0
M  V30 1424 C 132.209 3.85769 1.85381 0
M  V30 1425 C 131.535 4.29529 3.18448 0
M  V30 1426 C 132.835 5.09486 1.14984 0
M  V30 1427 H 134.529 2.96914 0.385059 0
M  V30 1428 H 132.075 1.42823 0.18377 0
M  V30 1429 H 134.028 3.13463 2.81636 0
M  V30 1430 H 132.752 1.90252 2.65465 0
M  V30 1431 H 131.411 3.46345 1.20169 0
M  V30 1432 H 131.059 3.43169 3.67755 0
M  V30 1433 H 130.759 5.05204 3.00071 0
M  V30 1434 H 132.283 4.72099 3.8724 0
M  V30 1435 H 133.697 5.46674 1.72687 0
M  V30 1436 H 132.094 5.90515 1.06826 0
M  V30 1437 H 133.164 4.84724 0.130749 0
M  V30 1438 N 134.507 -0.190092 1.56449 0
M  V30 1439 C 135.923 -0.54113 1.50146 0
M  V30 1440 C 136.123 -1.85603 0.784465 0
M  V30 1441 O 135.179 -2.5024 0.337051 0
M  V30 1442 C 136.492 -0.591241 2.9483 0
M  V30 1443 C 138.04 -0.679732 3.0553 0
M  V30 1444 C 138.515 -0.760908 4.51635 0
M  V30 1445 N 140.006 -0.824302 4.55806 0
M  V30 1446 C 140.741 -0.907365 5.66175 0
M  V30 1447 N 140.237 -0.952422 6.86222 0
M  V30 1448 N 142.03 -0.94494 5.541 0
M  V30 1449 H 134.181 0.67235 2.01478 0
M  V30 1450 H 136.444 0.240127 0.917084 0
M  V30 1451 H 136.15 0.305905 3.50367 0
M  V30 1452 H 136.024 -1.44422 3.48457 0
M  V30 1453 H 138.411 -1.56731 2.50039 0
M  V30 1454 H 138.492 0.199549 2.5502 0
M  V30 1455 H 138.136 0.122336 5.07753 0
M  V30 1456 H 138.066 -1.65606 4.99882 0
M  V30 1457 H 140.557 -0.798526 3.69367 0
M  V30 1458 H 140.87 -1.01645 7.66086 0
M  V30 1459 H 139.215 -0.921014 6.8887 0
M  V30 1460 H 142.406 -0.906612 4.59236 0
M  V30 1461 H 142.579 -1.00622 6.4014 0
M  V30 1462 N 135.985 -1.50799 -0.457987 0
M  V30 1463 C 136.917 -1.66786 -1.57211 0
M  V30 1464 C 137.93 -0.548962 -1.53265 0
M  V30 1465 O 139.119 -0.8226 -1.58416 0
M  V30 1466 C 136.219 -1.64834 -2.96113 0
M  V30 1467 C 135.392 -2.92971 -3.24787 0
M  V30 1468 C 134.451 -2.83485 -4.43309 0
M  V30 1469 O 133.477 -3.5744 -4.42973 0
M  V30 1470 N 134.679 -1.97929 -5.45714 0
M  V30 1471 H 137.444 -2.62889 -1.43909 0
M  V30 1472 H 135.005 -1.48427 -0.646617 0
M  V30 1473 H 136.997 -1.56084 -3.7339 0
M  V30 1474 H 135.567 -0.764118 -3.03117 0
M  V30 1475 H 134.787 -3.15749 -2.36 0
M  V30 1476 H 136.075 -3.77834 -3.40762 0
M  V30 1477 H 135.473 -1.37182 -5.48815 0
M  V30 1478 H 134.03 -1.95073 -6.21924 0
M  V30 1479 N 137.463 0.71206 -1.40597 0
M  V30 1480 C 138.709 1.47416 -1.39271 0
M  V30 1481 C 139.042 1.942 0.00388791 0
M  V30 1482 O 138.317 1.68403 0.973179 0
M  V30 1483 C 138.6 2.69774 -2.38525 0
M  V30 1484 C 138.453 2.28861 -3.87224 0
M  V30 1485 C 139.772 3.71939 -2.35264 0
M  V30 1486 H 136.891 0.534713 -0.5072 0
M  V30 1487 H 139.533 0.812375 -1.71757 0
M  V30 1488 H 137.683 3.26238 -2.10953 0
M  V30 1489 H 139.355 1.77852 -4.25636 0
M  V30 1490 H 137.598 1.60824 -4.02887 0
M  V30 1491 H 138.269 3.16584 -4.52193 0
M  V30 1492 H 140.745 3.25113 -2.59694 0
M  V30 1493 H 139.621 4.55186 -3.06753 0
M  V30 1494 H 139.882 4.20484 -1.36549 0
M  V30 1495 N 138.941 1.26152 0.944643 0
M  V30 1496 C 139.891 1.04081 2.02857 0
M  V30 1497 C 140.875 -0.0256555 1.6088 0
M  V30 1498 O 142.067 0.190884 1.75968 0
M  V30 1499 C 139.196 0.672118 3.36656 0
M  V30 1500 C 138.282 1.77586 3.85128 0
M  V30 1501 N 138.673 3.01272 4.06287 0
M  V30 1502 C 136.971 1.65867 4.1401 0
M  V30 1503 C 137.672 3.72983 4.46384 0
M  V30 1504 N 136.648 3.00653 4.52889 0
M  V30 1505 H 140.45 1.97968 2.17223 0
M  V30 1506 H 137.964 1.16618 1.13022 0
M  V30 1507 H 139.961 0.495166 4.13949 0
M  V30 1508 H 138.621 -0.259307 3.23663 0
M  V30 1509 H 139.632 3.37213 3.93075 0
M  V30 1510 H 136.309 0.796907 4.09824 0
M  V30 1511 H 137.699 4.792 4.70975 0
M  V30 1512 N 140.419 -1.14872 1.07899 0
M  V30 1513 C 141.349 -2.2193 0.725887 0
M  V30 1514 C 142.33 -1.67622 -0.28927 0
M  V30 1515 O 143.515 -1.93533 -0.160787 0
M  V30 1516 C 140.645 -3.47061 0.128856 0
M  V30 1517 C 139.599 -4.14363 1.07178 0
M  V30 1518 C 138.925 -5.33636 0.337229 0
M  V30 1519 C 140.225 -4.63492 2.40775 0
M  V30 1520 H 141.919 -2.51724 1.62097 0
M  V30 1521 H 139.465 -1.20991 0.780838 0
M  V30 1522 H 141.418 -4.21199 -0.130147 0
M  V30 1523 H 140.142 -3.16617 -0.80134 0
M  V30 1524 H 138.801 -3.42173 1.3158 0
M  V30 1525 H 138.449 -4.99449 -0.596606 0
M  V30 1526 H 138.149 -5.79609 0.965788 0
M  V30 1527 H 139.673 -6.10539 0.0861567 0
M  V30 1528 H 141.087 -5.2913 2.20669 0
M  V30 1529 H 139.484 -5.20148 2.99276 0
M  V30 1530 H 140.554 -3.78834 3.02676 0
M  V30 1531 N 141.898 -0.863906 -1.31812 0
M  V30 1532 C 142.848 -0.286898 -2.26188 0
M  V30 1533 C 143.832 0.572577 -1.50367 0
M  V30 1534 O 145.024 0.420447 -1.71934 0
M  V30 1535 C 142.153 0.515849 -3.39402 0
M  V30 1536 C 141.239 -0.356531 -4.22599 0
M  V30 1537 N 141.63 -1.44716 -4.84656 0
M  V30 1538 C 139.928 -0.147898 -4.45755 0
M  V30 1539 C 140.629 -1.98462 -5.46798 0
M  V30 1540 N 139.605 -1.28247 -5.28255 0
M  V30 1541 H 143.407 -1.12055 -2.717 0
M  V30 1542 H 140.921 -0.711012 -1.46008 0
M  V30 1543 H 142.918 0.945701 -4.06032 0
M  V30 1544 H 141.578 1.34718 -2.95434 0
M  V30 1545 H 142.589 -1.83008 -4.84488 0
M  V30 1546 H 139.266 0.647973 -4.12441 0
M  V30 1547 H 140.656 -2.89932 -6.06126 0
M  V30 1548 N 143.376 1.44774 -0.622745 0
M  V30 1549 C 144.622 2.02968 -0.13257 0
M  V30 1550 C 144.977 1.48047 1.22881 0
M  V30 1551 O 144.27 0.651625 1.80179 0
M  V30 1552 C 144.464 3.57364 -0.0508323 0
M  V30 1553 C 144.293 4.27262 -1.40275 0
M  V30 1554 C 143.063 4.64577 -1.98737 0
M  V30 1555 C 145.261 4.58248 -2.3348 0
M  V30 1556 N 143.243 5.19404 -3.27251 0
M  V30 1557 C 144.614 5.14069 -3.46603 0
M  V30 1558 C 146.669 4.40195 -2.32664 0
M  V30 1559 C 145.372 5.53738 -4.59093 0
M  V30 1560 C 147.398 4.80907 -3.44213 0
M  V30 1561 C 146.76 5.36834 -4.56058 0
M  V30 1562 H 142.859 0.776541 -0.0922354 0
M  V30 1563 H 145.443 1.76385 -0.82441 0
M  V30 1564 H 143.614 3.83576 0.610265 0
M  V30 1565 H 145.346 4.02219 0.447397 0
M  V30 1566 H 142.101 4.48622 -1.51774 0
M  V30 1567 H 142.525 5.51301 -3.92933 0
M  V30 1568 H 147.167 3.96257 -1.47446 0
M  V30 1569 H 144.885 5.96635 -5.45025 0
M  V30 1570 H 148.471 4.68659 -3.44747 0
M  V30 1571 H 147.351 5.67755 -5.40947 0
M  V30 1572 N 144.854 0.36279 1.53368 0
M  V30 1573 C 146.102 -0.227326 2.00817 0
M  V30 1574 C 146.423 -1.49511 1.25186 0
M  V30 1575 O 145.693 -1.92482 0.364348 0
M  V30 1576 H 144.273 -0.0869923 0.741917 0
M  V30 1577 H 146.935 0.488381 1.88682 0
M  V30 1578 H 146.031 -0.456273 3.08747 0
M  V30 1579 N 146.332 -1.57332 0.0918853 0
M  V30 1580 C 147.557 -1.98995 -0.584442 0
M  V30 1581 C 147.982 -0.970528 -1.61128 0
M  V30 1582 O 147.34 0.0613904 -1.81196 0
M  V30 1583 C 147.388 -3.39636 -1.21161 0
M  V30 1584 O 146.492 -3.40447 -2.32744 0
M  V30 1585 H 145.833 -0.647165 -0.148572 0
M  V30 1586 H 148.363 -2.03873 0.172347 0
M  V30 1587 H 148.373 -3.7726 -1.55367 0
M  V30 1588 H 147.048 -4.13356 -0.459313 0
M  V30 1589 H 145.625 -3.14614 -2.0018 0
M  V30 1590 N 147.81 0.181792 -1.56548 0
M  V30 1591 C 148.773 1.20894 -1.94724 0
M  V30 1592 C 149.773 1.37738 -0.829747 0
M  V30 1593 O 150.963 1.35323 -1.09697 0
M  V30 1594 C 148.095 2.57593 -2.23291 0
M  V30 1595 H 149.288 0.882275 -2.86629 0
M  V30 1596 H 146.841 0.423838 -1.50444 0
M  V30 1597 H 147.576 2.95291 -1.34067 0
M  V30 1598 H 147.361 2.46735 -3.04736 0
M  V30 1599 H 148.851 3.31637 -2.53785 0
M  V30 1600 N 149.288 1.51039 0.449983 0
M  V30 1601 C 150.565 1.53612 1.21089 0
M  V30 1602 C 150.945 0.292997 2.09057 0
M  V30 1603 O 150.293 -0.72259 2.16774 0
M  V30 1604 C 150.503 2.84337 2.0237 0
M  V30 1605 C 151.851 3.35807 2.59843 0
M  V30 1606 O 152.875 2.85802 2.12593 0
M  V30 1607 O 151.734 4.23029 3.45989 0
M  V30 1608 H 148.828 0.617057 0.550608 0
M  V30 1609 H 151.374 1.63344 0.460082 0
M  V30 1610 H 150.146 3.66278 1.37681 0
M  V30 1611 H 149.769 2.77708 2.84542 0
M  V30 1612 N 150.766 -0.704594 1.40972 0
M  V30 1613 C 152.043 -1.45847 1.30338 0
M  V30 1614 C 152.423 -2.10973 -0.0732344 0
M  V30 1615 O 151.771 -2.00997 -1.08685 0
M  V30 1616 C 151.981 -2.48525 2.45023 0
M  V30 1617 C 153.329 -3.1404 2.8577 0
M  V30 1618 O 154.353 -2.58848 2.44696 0
M  V30 1619 O 153.212 -4.13981 3.56766 0
M  V30 1620 H 150.306 -0.649092 0.512454 0
M  V30 1621 H 152.852 -0.735836 1.52917 0
M  V30 1622 H 151.624 -1.98994 3.36923 0
M  V30 1623 H 151.247 -3.2831 2.24272 0
M  V30 1624 N 152.244 -1.26651 -0.937939 0
M  V30 1625 C 153.194 -1.05156 -2.02302 0
M  V30 1626 C 154.178 0.0171233 -1.60891 0
M  V30 1627 O 155.37 -0.200213 -1.75864 0
M  V30 1628 C 152.499 -0.689962 -3.36295 0
M  V30 1629 C 151.585 -1.79626 -3.84181 0
M  V30 1630 N 151.976 -3.03422 -4.04684 0
M  V30 1631 C 150.274 -1.6806 -4.13124 0
M  V30 1632 C 150.975 -3.75345 -4.444 0
M  V30 1633 N 149.951 -3.03051 -4.51288 0
M  V30 1634 H 153.753 -1.99117 -2.1617 0
M  V30 1635 H 151.267 -1.17216 -1.12402 0
M  V30 1636 H 153.264 -0.517112 -4.13681 0
M  V30 1637 H 151.924 0.242139 -3.23796 0
M  V30 1638 H 152.935 -3.39293 -3.91281 0
M  V30 1639 H 149.612 -0.818629 -4.09396 0
M  V30 1640 H 151.002 -4.81691 -4.68427 0
M  V30 1641 N 153.722 1.14298 -1.08507 0
M  V30 1642 C 154.97 1.84993 -0.813763 0
M  V30 1643 C 155.291 1.83405 0.662393 0
M  V30 1644 O 154.561 1.28319 1.48024 0
M  V30 1645 H 153.141 0.684966 -0.298045 0
M  V30 1646 H 155.803 1.385 -1.37126 0
M  V30 1647 H 154.899 2.89788 -1.15884 0
M  V30 1648 N 155.201 0.870884 1.31352 0
M  V30 1649 C 156.426 0.495957 2.01383 0
M  V30 1650 C 156.851 -0.904324 1.64935 0
M  V30 1651 O 156.209 -1.59687 0.858466 0
M  V30 1652 C 156.257 0.661433 3.54482 0
M  V30 1653 O 155.361 -0.298851 4.11316 0
M  V30 1654 H 154.702 0.197158 0.634054 0
M  V30 1655 H 157.232 1.17455 1.67527 0
M  V30 1656 H 157.242 0.555072 4.04207 0
M  V30 1657 H 155.917 1.68246 3.8035 0
M  V30 1658 H 154.494 -0.147368 3.72609 0
M  V30 1659 N 156.679 -1.44442 0.630414 0
M  V30 1660 C 157.589 -2.34476 -0.0761693 0
M  V30 1661 C 158.605 -1.52576 -0.836449 0
M  V30 1662 O 159.781 -1.85307 -0.788874 0
M  V30 1663 C 156.846 -3.30545 -1.04599 0
M  V30 1664 C 155.907 -4.28352 -0.28516 0
M  V30 1665 C 155.14 -5.19831 -1.20878 0
M  V30 1666 O 155.363 -5.15223 -2.44747 0
M  V30 1667 O 154.297 -5.97892 -0.693491 0
M  V30 1668 H 158.123 -2.96345 0.664324 0
M  V30 1669 H 155.708 -1.44203 0.39061 0
M  V30 1670 H 157.59 -3.89681 -1.60396 0
M  V30 1671 H 156.265 -2.7121 -1.76711 0
M  V30 1672 H 155.172 -3.72764 0.315837 0
M  V30 1673 H 156.505 -4.90605 0.395924 0
M  V30 1674 N 158.157 -0.370918 -1.53173 0
M  V30 1675 C 159.107 0.489588 -2.22681 0
M  V30 1676 C 160.091 1.04442 -1.22395 0
M  V30 1677 O 161.283 0.973578 -1.47819 0
M  V30 1678 C 158.412 1.626 -3.02351 0
M  V30 1679 C 157.498 1.08379 -4.10018 0
M  V30 1680 N 157.889 0.265004 -5.05105 0
M  V30 1681 C 156.187 1.35809 -4.2482 0
M  V30 1682 C 156.888 -0.0324755 -5.81691 0
M  V30 1683 N 155.864 0.566581 -5.40639 0
M  V30 1684 H 159.666 -0.142729 -2.93553 0
M  V30 1685 H 157.18 -0.179221 -1.61408 0
M  V30 1686 H 159.177 2.2547 -3.50669 0
M  V30 1687 H 157.837 2.26132 -2.33011 0
M  V30 1688 H 158.848 -0.0962352 -5.17811 0
M  V30 1689 H 155.525 1.9958 -3.66707 0
M  V30 1690 H 156.915 -0.69473 -6.68299 0
M  V30 1691 N 159.635 1.57281 -0.100228 0
M  V30 1692 C 160.884 1.93713 0.561984 0
M  V30 1693 C 161.197 0.984492 1.69018 0
M  V30 1694 O 162.403 1.24273 2.41389 0
M  V30 1695 C 160.859 3.4421 1.05106 0
M  V30 1696 C 160.467 4.47975 -0.0476628 0
M  V30 1697 C 162.211 3.89595 1.68571 0
M  V30 1698 C 160.118 5.89631 0.457055 0
M  V30 1699 H 159.048 0.723082 0.2137 0
M  V30 1700 H 161.699 1.82644 -0.177057 0
M  V30 1701 H 160.081 3.50449 1.84395 0
M  V30 1702 H 161.255 4.53385 -0.823333 0
M  V30 1703 H 159.57 4.1223 -0.587816 0
M  V30 1704 H 162.167 4.92832 2.07414 0
M  V30 1705 H 162.51 3.28526 2.55688 0
M  V30 1706 H 163.043 3.86078 0.958562 0
M  V30 1707 H 159.782 6.54411 -0.377616 0
M  V30 1708 H 159.302 5.87681 1.19962 0
M  V30 1709 H 160.981 6.40363 0.92437 0
M  V30 1710 N 161.113 -0.173488 1.56642 0
M  V30 1711 C 162.359 -0.891784 1.8214 0
M  V30 1712 C 162.692 -1.8199 0.677736 0
M  V30 1713 O 161.967 -1.91842 -0.320446 0
M  V30 1714 C 162.25 -1.68933 3.18015 0
M  V30 1715 C 162.103 -0.784487 4.42906 0
M  V30 1716 C 163.422 -2.65748 3.50808 0
M  V30 1717 H 160.541 -0.322761 0.662567 0
M  V30 1718 H 163.183 -0.158095 1.89341 0
M  V30 1719 H 161.333 -2.31482 3.12007 0
M  V30 1720 H 163.005 -0.172046 4.60979 0
M  V30 1721 H 161.248 -0.0924117 4.33702 0
M  V30 1722 H 161.919 -1.37799 5.34524 0
M  V30 1723 H 164.395 -2.13327 3.57255 0
M  V30 1724 H 163.271 -3.18619 4.4696 0
M  V30 1725 H 163.532 -3.45842 2.75401 0
M  V30 1726 N 162.591 -1.51276 -0.441967 0
M  V30 1727 C 163.868 -1.54252 -1.20273 0
M  V30 1728 C 164.248 -0.30408 -2.08898 0
M  V30 1729 O 163.596 0.711084 -2.17154 0
M  V30 1730 C 163.806 -2.85406 -2.00859 0
M  V30 1731 C 165.154 -3.37181 -2.58059 0
M  V30 1732 O 166.178 -2.86925 -2.11074 0
M  V30 1733 O 165.037 -4.24858 -3.43741 0
M  V30 1734 H 162.131 -0.619969 -0.547328 0
M  V30 1735 H 164.677 -1.63586 -0.451413 0
M  V30 1736 H 163.449 -3.67003 -1.35736 0
M  V30 1737 H 163.072 -2.79213 -2.83065 0
M  V30 1738 N 164.069 0.697108 -1.41344 0
M  V30 1739 C 165.317 1.45426 -1.40341 0
M  V30 1740 C 165.638 1.94996 -0.0128787 0
M  V30 1741 O 164.908 1.71599 0.945027 0
M  V30 1742 H 163.488 0.539594 -0.516573 0
M  V30 1743 H 166.15 0.825201 -1.76569 0
M  V30 1744 H 165.246 2.31817 -2.08967 0
M  V30 1745 N 165.547 1.27147 0.931209 0
M  V30 1746 C 166.793 1.13446 1.68101 0
M  V30 1747 C 167.126 -0.319628 1.91552 0
M  V30 1748 O 166.401 -1.23407 1.50336 0
M  V30 1749 C 166.684 1.91482 3.0497 0
M  V30 1750 C 166.537 3.44855 2.88782 0
M  V30 1751 C 167.856 1.71651 4.05246 0
M  V30 1752 H 164.975 0.413498 0.610072 0
M  V30 1753 H 167.617 1.56261 1.08086 0
M  V30 1754 H 165.767 1.55095 3.56199 0
M  V30 1755 H 167.439 3.9105 2.44698 0
M  V30 1756 H 165.682 3.71373 2.24198 0
M  V30 1757 H 166.353 3.94694 3.85902 0
M  V30 1758 H 168.829 2.0337 3.63015 0
M  V30 1759 H 167.705 2.28651 4.99009 0
M  V30 1760 H 167.966 0.663555 4.37092 0
M  V30 1761 N 167.025 -1.13721 1.09112 0
M  V30 1762 C 168.25 -1.89314 0.847053 0
M  V30 1763 C 168.675 -1.78416 -0.595774 0
M  V30 1764 O 168.033 -1.12942 -1.41823 0
M  V30 1765 C 168.081 -3.3701 1.28284 0
M  V30 1766 O 167.185 -4.10054 0.439267 0
M  V30 1767 H 166.526 -0.588745 0.307044 0
M  V30 1768 H 169.056 -1.43902 1.45442 0
M  V30 1769 H 169.066 -3.87834 1.26683 0
M  V30 1770 H 167.741 -3.4426 2.33363 0
M  V30 1771 H 166.318 -3.69266 0.519312 0
M  V30 1772 N 168.503 -0.877838 -1.30888 0
M  V30 1773 C 169.733 -0.506678 -2.00291 0
M  V30 1774 C 170.141 0.907449 -1.66018 0
M  V30 1775 O 169.484 1.60719 -0.88967 0
M  V30 1776 C 169.546 -0.59323 -3.54572 0
M  V30 1777 C 169.21 -1.97038 -4.12341 0
M  V30 1778 C 170.207 -2.93889 -4.28865 0
M  V30 1779 C 167.892 -2.27383 -4.47886 0
M  V30 1780 C 169.886 -4.19224 -4.80136 0
M  V30 1781 C 167.573 -3.52965 -4.98857 0
M  V30 1782 C 168.571 -4.48701 -5.14934 0
M  V30 1783 O 168.259 -5.72056 -5.64808 0
M  V30 1784 H 167.991 -0.1951 -0.647234 0
M  V30 1785 H 170.545 -1.18301 -1.6791 0
M  V30 1786 H 168.775 0.140057 -3.86446 0
M  V30 1787 H 170.464 -0.234372 -4.05223 0
M  V30 1788 H 171.23 -2.71756 -4.01714 0
M  V30 1789 H 167.109 -1.53639 -4.34645 0
M  V30 1790 H 170.653 -4.93956 -4.92599 0
M  V30 1791 H 166.55 -3.74939 -5.25443 0
M  V30 1792 H 167.318 -5.74337 -5.83163 0
M  V30 1793 N 169.982 1.44106 -0.638065 0
M  V30 1794 C 170.945 2.29138 0.0531013 0
M  V30 1795 C 171.945 1.41409 0.765506 0
M  V30 1796 O 173.135 1.63206 0.609046 0
M  V30 1797 C 170.267 3.23144 1.08584 0
M  V30 1798 H 171.46 2.91739 -0.694883 0
M  V30 1799 H 169.013 1.51134 -0.398538 0
M  V30 1800 H 169.748 2.65408 1.86357 0
M  V30 1801 H 169.533 3.87804 0.578852 0
M  V30 1802 H 171.023 3.87004 1.56899 0
M  V30 1803 N 171.46 0.379036 1.52974 0
M  V30 1804 C 172.423 -0.448865 2.24762 0
M  V30 1805 C 173.423 -0.998689 1.26027 0
M  V30 1806 O 174.613 -0.882313 1.50203 0
M  V30 1807 C 171.745 -1.62872 2.99476 0
M  V30 1808 H 172.938 0.179491 2.99362 0
M  V30 1809 H 170.491 0.13096 1.5575 0
M  V30 1810 H 171.226 -2.29479 2.29151 0
M  V30 1811 H 171.011 -1.24128 3.71934 0
M  V30 1812 H 172.501 -2.2151 3.5401 0
M  V30 1813 N 172.938 -1.57226 0.108567 0
M  V30 1814 C 173.848 -2.18292 -0.859401 0
M  V30 1815 C 174.864 -1.15612 -1.30038 0
M  V30 1816 O 176.04 -1.48039 -1.36552 0
M  V30 1817 C 173.105 -2.762 -2.09558 0
M  V30 1818 C 172.166 -3.93881 -1.70752 0
M  V30 1819 C 171.399 -4.49018 -2.88477 0
M  V30 1820 O 171.622 -4.03068 -4.036 0
M  V30 1821 O 170.556 -5.39852 -2.66164 0
M  V30 1822 H 174.382 -3.01441 -0.369769 0
M  V30 1823 H 171.967 -1.48945 -0.1165 0
M  V30 1824 H 173.849 -3.13156 -2.81978 0
M  V30 1825 H 172.524 -1.96089 -2.57548 0
M  V30 1826 H 171.431 -3.61713 -0.954714 0
M  V30 1827 H 172.764 -4.75396 -1.27513 0
M  V30 1828 N 174.416 0.165178 -1.56732 0
M  V30 1829 C 175.346 1.20651 -1.99914 0
M  V30 1830 C 176.327 1.45827 -0.875705 0
M  V30 1831 O 177.512 1.57057 -1.14223 0
M  V30 1832 C 174.642 2.54401 -2.36427 0
M  V30 1833 C 173.596 2.43782 -3.51787 0
M  V30 1834 C 172.922 3.82078 -3.7406 0
M  V30 1835 C 174.222 1.93732 -4.85041 0
M  V30 1836 H 175.916 0.847534 -2.87154 0
M  V30 1837 H 173.462 0.40625 -1.38151 0
M  V30 1838 H 175.415 3.27458 -2.65234 0
M  V30 1839 H 174.139 2.92098 -1.46103 0
M  V30 1840 H 172.798 1.73178 -3.23117 0
M  V30 1841 H 172.446 4.17179 -2.81017 0
M  V30 1842 H 172.146 3.7584 -4.51684 0
M  V30 1843 H 173.67 4.56712 -4.05274 0
M  V30 1844 H 175.084 2.56569 -5.12684 0
M  V30 1845 H 173.481 1.98428 -5.66345 0
M  V30 1846 H 174.551 0.891962 -4.76626 0
M  V30 1847 N 175.894 1.51508 0.433938 0
M  V30 1848 C 176.844 1.69451 1.52546 0
M  V30 1849 C 177.828 0.548474 1.51263 0
M  V30 1850 O 179.02 0.804529 1.57659 0
M  V30 1851 C 176.149 1.82604 2.90707 0
M  V30 1852 C 175.235 3.03002 2.96733 0
M  V30 1853 N 175.626 4.26121 2.72496 0
M  V30 1854 C 173.924 3.02327 3.27894 0
M  V30 1855 C 174.625 5.07407 2.84452 0
M  V30 1856 N 173.601 4.42126 3.16269 0
M  V30 1857 H 177.403 2.62305 1.32564 0
M  V30 1858 H 174.917 1.49202 0.641297 0
M  V30 1859 H 176.914 1.93569 3.69238 0
M  V30 1860 H 175.574 0.909339 3.11707 0
M  V30 1861 H 176.585 4.55009 2.4736 0
M  V30 1862 H 173.262 2.20301 3.54646 0
M  V30 1863 H 174.652 6.15422 2.69639 0
M  V30 1864 N 177.372 -0.689602 1.41712 0
M  V30 1865 C 178.618 -1.45181 1.41599 0
M  V30 1866 C 178.951 -1.94181 0.0270081 0
M  V30 1867 O 178.226 -1.6993 -0.946265 0
M  V30 1868 C 178.509 -2.65945 2.42787 0
M  V30 1869 C 178.362 -2.22672 3.90816 0
M  V30 1870 C 179.681 -3.68149 2.41151 0
M  V30 1871 H 176.8 -0.526576 0.515642 0
M  V30 1872 H 179.442 -0.784947 1.73028 0
M  V30 1873 H 177.592 -3.2284 2.16116 0
M  V30 1874 H 179.264 -1.71058 4.28412 0
M  V30 1875 H 177.507 -1.54394 4.05395 0
M  V30 1876 H 178.178 -3.0935 4.57172 0
M  V30 1877 H 180.654 -3.2094 2.64834 0
M  V30 1878 H 179.53 -4.50248 3.13955 0
M  V30 1879 H 179.791 -4.18259 1.43221 0
M  V30 1880 N 178.85 -1.27639 -0.924453 0
M  V30 1881 C 180.096 -1.14336 -1.67497 0
M  V30 1882 C 180.429 0.309465 -1.91718 0
M  V30 1883 O 179.704 1.22608 -1.50989 0
M  V30 1884 C 179.987 -1.93096 -3.0395 0
M  V30 1885 C 179.84 -3.46381 -2.8695 0
M  V30 1886 C 181.159 -1.73798 -4.0433 0
M  V30 1887 H 178.278 -0.416728 -0.607871 0
M  V30 1888 H 180.92 -1.56832 -1.07256 0
M  V30 1889 H 179.07 -1.56982 -3.55372 0
M  V30 1890 H 180.742 -3.92343 -2.42621 0
M  V30 1891 H 178.985 -3.72557 -2.22225 0
M  V30 1892 H 179.656 -3.96735 -3.83804 0
M  V30 1893 H 182.132 -2.05293 -3.61931 0
M  V30 1894 H 181.008 -2.31294 -4.97789 0
M  V30 1895 H 181.269 -0.686725 -4.36734 0
M  V30 1896 N 180.328 1.1314 -1.09713 0
M  V30 1897 C 181.278 2.16709 -0.708593 0
M  V30 1898 C 182.262 1.58471 0.278523 0
M  V30 1899 O 183.454 1.76779 0.088427 0
M  V30 1900 C 180.583 3.43039 -0.133923 0
M  V30 1901 C 179.669 4.08277 -1.14763 0
M  V30 1902 N 180.06 4.48637 -2.33577 0
M  V30 1903 C 178.358 4.34954 -0.986446 0
M  V30 1904 C 179.059 4.9952 -2.98085 0
M  V30 1905 N 178.035 4.94561 -2.25632 0
M  V30 1906 H 181.837 2.45672 -1.61315 0
M  V30 1907 H 179.351 1.29967 -0.973775 0
M  V30 1908 H 181.348 4.16583 0.162465 0
M  V30 1909 H 180.008 3.15549 0.765447 0
M  V30 1910 H 181.019 4.41246 -2.7115 0
M  V30 1911 H 177.696 4.17258 -0.142008 0
M  V30 1912 H 179.086 5.40521 -3.99108 0
M  V30 1913 N 181.806 0.884767 1.30421 0
M  V30 1914 C 183.052 0.513218 1.96819 0
M  V30 1915 C 183.407 -0.927347 1.68577 0
M  V30 1916 O 182.7 -1.64644 0.979941 0
M  V30 1917 C 182.894 0.724318 3.49983 0
M  V30 1918 C 182.723 2.18385 3.93113 0
M  V30 1919 C 181.493 2.82839 4.18725 0
M  V30 1920 C 183.691 3.15763 4.05953 0
M  V30 1921 N 181.673 4.1939 4.48314 0
M  V30 1922 C 183.044 4.37387 4.39423 0
M  V30 1923 C 185.099 3.11555 3.88379 0
M  V30 1924 C 183.802 5.55343 4.5715 0
M  V30 1925 C 185.828 4.28782 4.07308 0
M  V30 1926 C 185.19 5.49172 4.41123 0
M  V30 1927 H 181.289 0.237123 0.745182 0
M  V30 1928 H 183.873 1.14246 1.57658 0
M  V30 1929 H 182.044 0.124565 3.882 0
M  V30 1930 H 183.776 0.31969 4.03435 0
M  V30 1931 H 180.531 2.33708 4.11919 0
M  V30 1932 H 180.955 4.89911 4.67243 0
M  V30 1933 H 185.597 2.19576 3.61312 0
M  V30 1934 H 183.315 6.47826 4.8306 0
M  V30 1935 H 186.901 4.26995 3.95179 0
M  V30 1936 H 185.781 6.38371 4.55469 0
M  V30 1937 N 183.284 -1.43765 0.645699 0
M  V30 1938 C 184.232 -2.32516 -0.0624849 0
M  V30 1939 C 185.226 -1.48183 -0.820855 0
M  V30 1940 O 186.432 -1.64439 -0.732106 0
M  V30 1941 H 182.807 -0.750989 -0.0389864 0
M  V30 1942 H 184.778 -2.89979 0.703892 0
M  V30 1943 C 183.527 -3.32389 -1.02044 0
M  V30 1944 H 182.85 -3.97301 -0.446312 0
M  V30 1945 H 184.29 -3.97138 -1.48517 0
M  V30 1946 C 182.749 -2.62416 -2.11281 0
M  V30 1947 O 183.279 -2.434 -3.19561 0
M  V30 1948 N 181.485 -2.21913 -1.87624 0
M  V30 1949 H 181.032 -2.37578 -0.995703 0
M  V30 1950 H 180.99 -1.75424 -2.6091 0
M  V30 1951 N 184.763 -0.387143 -1.52771 0
M  V30 1952 C 185.988 0.198407 -2.06449 0
M  V30 1953 C 186.413 1.39918 -1.25716 0
M  V30 1954 O 185.771 1.79099 -0.281657 0
M  V30 1955 C 185.819 0.548893 -3.56398 0
M  V30 1956 O 184.923 1.64315 -3.78252 0
M  V30 1957 H 184.264 0.0237731 -0.663574 0
M  V30 1958 H 186.794 -0.553989 -1.96957 0
M  V30 1959 H 186.804 0.813812 -3.99801 0
M  V30 1960 H 185.479 -0.329005 -4.14597 0
M  V30 1961 H 184.056 1.37211 -3.46738 0
M  V30 1962 N 186.241 1.57166 -0.116904 0
M  V30 1963 C 187.518 1.86645 0.585049 0
M  V30 1964 C 187.898 1.0177 1.84949 0
M  V30 1965 O 187.246 0.0960379 2.28298 0
M  V30 1966 C 187.456 3.37736 0.879507 0
M  V30 1967 C 188.804 4.06289 1.23348 0
M  V30 1968 O 189.828 3.42743 0.969836 0
M  V30 1969 O 188.687 5.18455 1.7282 0
M  V30 1970 H 185.781 0.772593 0.295007 0
M  V30 1971 H 188.327 1.69025 -0.151249 0
M  V30 1972 H 187.099 3.91296 -0.0166136 0
M  V30 1973 H 186.722 3.6078 1.67103 0
M  V30 1974 N 187.719 -0.156864 1.56817 0
M  V30 1975 C 188.666 -1.19394 1.97519 0
M  V30 1976 C 189.636 -1.4322 0.841265 0
M  V30 1977 O 190.821 -1.55719 1.10255 0
M  V30 1978 C 187.961 -2.52483 2.35258 0
M  V30 1979 C 187.074 -2.35914 3.61896 0
M  V30 1980 C 186.209 -3.61969 3.88782 0
M  V30 1981 C 185.248 -3.40395 5.08722 0
M  V30 1982 N 184.385 -4.58556 5.31668 0
M  V30 1983 H 189.225 -0.839845 2.85921 0
M  V30 1984 H 186.762 -0.403264 1.41464 0
M  V30 1985 H 188.72 -3.30071 2.55165 0
M  V30 1986 H 187.35 -2.85859 1.49949 0
M  V30 1987 H 186.402 -1.49429 3.49821 0
M  V30 1988 H 187.714 -2.15926 4.49641 0
M  V30 1989 H 186.868 -4.47989 4.09135 0
M  V30 1990 H 185.607 -3.84951 2.9944 0
M  V30 1991 H 184.612 -2.52763 4.88253 0
M  V30 1992 H 185.837 -3.18822 5.99608 0
M  V30 1993 H 183.783 -4.81729 4.45279 0
M  V30 1994 H 183.7 -4.41535 6.13664 0
M  V30 1995 H 184.968 -5.45817 5.5651 0
M  V30 1996 N 189.197 -1.51736 -0.425897 0
M  V30 1997 C 190.427 -1.68549 -1.19476 0
M  V30 1998 C 190.835 -0.387288 -1.85194 0
M  V30 1999 O 190.178 0.645142 -1.71999 0
M  V30 2000 C 190.24 -2.75275 -2.31223 0
M  V30 2001 C 189.904 -4.17534 -1.8578 0
M  V30 2002 C 190.901 -5.01936 -1.35485 0
M  V30 2003 C 188.586 -4.6369 -1.93123 0
M  V30 2004 C 190.58 -6.30559 -0.931347 0
M  V30 2005 C 188.267 -5.92307 -1.50384 0
M  V30 2006 C 189.265 -6.75569 -1.00473 0
M  V30 2007 O 188.953 -8.0178 -0.583452 0
M  V30 2008 H 188.685 -0.568525 -0.365725 0
M  V30 2009 H 191.239 -1.98982 -0.509444 0
M  V30 2010 H 189.469 -2.40182 -3.03067 0
M  V30 2011 H 191.158 -2.80853 -2.93047 0
M  V30 2012 H 191.924 -4.67475 -1.29197 0
M  V30 2013 H 187.803 -3.98997 -2.30916 0
M  V30 2014 H 191.347 -6.95498 -0.541084 0
M  V30 2015 H 187.244 -6.2628 -1.56346 0
M  V30 2016 H 188.012 -8.1543 -0.708275 0
M  V30 2017 N 190.675 0.682077 -1.42076 0
M  V30 2018 C 192.086 1.26246 -1.37546 0
M  V30 2019 C 192.437 1.96092 -0.0651481 0
M  V30 2020 O 191.562 1.99587 0.836297 0
M  V30 2021 C 192.157 2.29594 -2.49143 0
M  V30 2022 C 190.716 2.83175 -2.47969 0
M  V30 2023 C 189.863 1.57395 -2.28303 0
M  V30 2024 H 192.814 0.475937 -1.51395 0
M  V30 2025 H 192.835 3.11175 -2.18976 0
M  V30 2026 H 192.347 1.78729 -3.44496 0
M  V30 2027 H 190.448 3.3818 -1.56413 0
M  V30 2028 H 190.561 3.32687 -3.44755 0
M  V30 2029 H 188.925 1.83699 -1.76428 0
M  V30 2030 H 189.708 1.08507 -3.25701 0
M  V30 2031 N 192.153 1.28127 0.917671 0
M  V30 2032 C 193.378 1.18007 1.70555 0
M  V30 2033 C 193.803 -0.258257 1.86319 0
M  V30 2034 O 193.161 -1.1869 1.37049 0
M  V30 2035 C 193.209 1.87948 3.07746 0
M  V30 2036 O 192.313 1.18427 3.9503 0
M  V30 2037 H 191.654 0.409867 0.522403 0
M  V30 2038 H 194.184 1.69379 1.1477 0
M  V30 2039 H 194.194 1.95701 3.58001 0
M  V30 2040 H 192.869 2.92573 2.95591 0
M  V30 2041 H 191.446 1.18811 3.53466 0
M  V30 2042 N 193.631 -1.12557 1.10312 0
M  V30 2043 C 194.878 -1.84038 0.844759 0
M  V30 2044 C 195.206 -1.84026 -0.629668 0
M  V30 2045 O 194.461 -1.28026 -1.48013 0
M  V30 2046 C 194.76 -3.31462 1.33669 0
M  V30 2047 C 194.426 -3.51647 2.82232 0
M  V30 2048 C 193.088 -3.56864 3.22802 0
M  V30 2049 C 195.44 -3.58867 3.77974 0
M  V30 2050 C 192.768 -3.66844 4.57867 0
M  V30 2051 C 195.12 -3.70375 5.1284 0
M  V30 2052 C 193.784 -3.73848 5.52986 0
M  V30 2053 H 193.054 -0.673444 0.309119 0
M  V30 2054 H 195.701 -1.32824 1.37949 0
M  V30 2055 H 194.006 -3.85091 0.721949 0
M  V30 2056 H 195.703 -3.85236 1.11329 0
M  V30 2057 H 192.293 -3.48249 2.49842 0
M  V30 2058 H 196.477 -3.54107 3.47738 0
M  V30 2059 H 191.733 -3.67804 4.88396 0
M  V30 2060 H 195.907 -3.74904 5.86873 0
M  V30 2061 H 193.534 -3.81333 6.57639 0
M  V30 2062 N 195.109 -0.891671 -1.2995 0
M  V30 2063 C 196.355 -0.514261 -1.96171 0
M  V30 2064 C 196.688 0.935506 -1.70182 0
M  V30 2065 O 195.963 1.66204 -1.01028 0
M  V30 2066 C 196.246 -0.797719 -3.51153 0
M  V30 2067 C 196.099 -2.2986 -3.86632 0
M  V30 2068 C 197.418 -0.278749 -4.39216 0
M  V30 2069 H 194.537 -0.188314 -0.712535 0
M  V30 2070 H 197.179 -1.11689 -1.53706 0
M  V30 2071 H 195.329 -0.284826 -3.87455 0
M  V30 2072 H 197.001 -2.88042 -3.60319 0
M  V30 2073 H 195.244 -2.76257 -3.34462 0
M  V30 2074 H 195.915 -2.44753 -4.94773 0
M  V30 2075 H 198.391 -0.717825 -4.09862 0
M  V30 2076 H 197.267 -0.506353 -5.46559 0
M  V30 2077 H 197.528 0.820266 -4.34424 0
M  V30 2078 N 196.587 1.43421 -0.653314 0
M  V30 2079 C 197.497 2.34568 0.0388565 0
M  V30 2080 C 198.513 1.53888 0.81207 0
M  V30 2081 O 199.689 1.86539 0.759294 0
M  V30 2082 C 196.754 3.32167 0.993269 0
M  V30 2083 C 195.815 4.28751 0.216977 0
M  V30 2084 C 195.048 5.21688 1.12593 0
M  V30 2085 O 195.271 5.19052 2.36519 0
M  V30 2086 O 194.205 5.98919 0.598284 0
M  V30 2087 H 198.031 2.95251 -0.711386 0
M  V30 2088 H 195.616 1.43564 -0.413502 0
M  V30 2089 H 197.498 3.92183 1.54176 0
M  V30 2090 H 196.173 2.73987 1.72374 0
M  V30 2091 H 195.08 3.72215 -0.375101 0
M  V30 2092 H 196.413 4.89913 -0.473924 0
M  V30 2093 N 198.065 0.39524 1.52563 0
M  V30 2094 C 199.028 -0.425001 2.25225 0
M  V30 2095 C 200.028 -0.985266 1.27079 0
M  V30 2096 O 201.218 -0.866332 1.5113 0
M  V30 2097 C 198.35 -1.59686 3.01186 0
M  V30 2098 H 199.543 0.211233 2.99155 0
M  V30 2099 H 197.096 0.147472 1.55603 0
M  V30 2100 H 197.831 -2.27035 2.31572 0
M  V30 2101 H 197.616 -1.20176 3.73229 0
M  V30 2102 H 199.106 -2.17743 3.5634 0
M  V30 2103 N 199.544 -1.57102 0.125237 0
M  V30 2104 C 200.507 -2.14471 -0.80838 0
M  V30 2105 C 201.507 -1.0811 -1.19033 0
M  V30 2106 O 202.697 -1.33856 -1.11482 0
M  V30 2107 C 199.829 -2.69005 -2.09402 0
M  V30 2108 H 201.022 -2.98297 -0.309696 0
M  V30 2109 H 198.575 -1.55807 -0.124051 0
M  V30 2110 H 199.31 -1.88785 -2.63687 0
M  V30 2111 H 199.095 -3.46799 -1.82957 0
M  V30 2112 H 200.585 -3.13278 -2.76128 0
M  V30 2113 N 201.022 0.148545 -1.56898 0
M  V30 2114 C 201.972 1.1886 -1.94567 0
M  V30 2115 C 202.956 1.3863 -0.816735 0
M  V30 2116 O 204.148 1.40218 -1.08018 0
M  V30 2117 C 201.277 2.52262 -2.32849 0
M  V30 2118 C 200.363 2.36092 -3.52309 0
M  V30 2119 N 200.754 1.89674 -4.6889 0
M  V30 2120 C 199.052 2.66848 -3.57363 0
M  V30 2121 C 199.753 1.86511 -5.50989 0
M  V30 2122 N 198.729 2.29766 -4.92655 0
M  V30 2123 H 202.531 0.821793 -2.82177 0
M  V30 2124 H 200.045 0.356615 -1.58436 0
M  V30 2125 H 202.042 3.27447 -2.58039 0
M  V30 2126 H 200.702 2.89727 -1.46589 0
M  V30 2127 H 201.713 1.59663 -4.92674 0
M  V30 2128 H 198.39 3.08198 -2.81639 0
M  V30 2129 H 199.78 1.52128 -6.54452 0
M  V30 2130 N 202.5 1.5196 0.417844 0
M  V30 2131 C 203.41 1.77554 1.53336 0
M  V30 2132 C 204.426 0.660655 1.6097 0
M  V30 2133 O 205.602 0.945099 1.77848 0
M  V30 2134 C 202.667 1.91291 2.89152 0
M  V30 2135 C 201.728 3.15183 2.91475 0
M  V30 2136 C 200.961 3.28256 4.20813 0
M  V30 2137 O 201.184 2.46798 5.14244 0
M  V30 2138 O 200.118 4.21356 4.29817 0
M  V30 2139 H 203.944 2.7222 1.34647 0
M  V30 2140 H 201.529 1.36698 0.602828 0
M  V30 2141 H 203.411 2.02199 3.69721 0
M  V30 2142 H 202.086 0.998129 3.07927 0
M  V30 2143 H 200.993 3.09739 2.09791 0
M  V30 2144 H 202.326 4.06414 2.77648 0
M  V30 2145 N 203.978 -0.674533 1.42435 0
M  V30 2146 C 205.389 -1.25514 1.38214 0
M  V30 2147 C 205.74 -1.96055 0.0755464 0
M  V30 2148 O 204.865 -2.00028 -0.8257 0
M  V30 2149 C 205.46 -2.28269 2.50357 0
M  V30 2150 C 204.019 -2.81856 2.49467 0
M  V30 2151 C 203.166 -1.56182 2.29134 0
M  V30 2152 H 206.117 -0.467902 1.51646 0
M  V30 2153 H 206.138 -3.10009 2.20624 0
M  V30 2154 H 205.65 -1.769 3.45439 0
M  V30 2155 H 203.751 -3.37346 1.58204 0
M  V30 2156 H 203.864 -3.30854 3.46515 0
M  V30 2157 H 202.228 -1.82761 1.774 0
M  V30 2158 H 203.011 -1.06778 3.26272 0
M  V30 2159 N 205.456 -1.28612 -0.910864 0
M  V30 2160 C 206.733 -1.06632 -1.63979 0
M  V30 2161 C 207.113 0.393351 -2.07403 0
M  V30 2162 O 206.461 1.37999 -1.82122 0
M  V30 2163 C 206.671 -2.0436 -2.8291 0
M  V30 2164 C 208.019 -2.34666 -3.5386 0
M  V30 2165 O 209.043 -2.02467 -2.93062 0
M  V30 2166 O 207.902 -2.89631 -4.63439 0
M  V30 2167 H 204.996 -0.407737 -0.7195 0
M  V30 2168 H 207.542 -1.39942 -0.959914 0
M  V30 2169 H 206.314 -3.02727 -2.47936 0
M  V30 2170 H 205.937 -1.71714 -3.58609 0
M  V30 2171 N 206.934 1.1197 -1.10907 0
M  V30 2172 C 208.182 1.83225 -0.852819 0
M  V30 2173 C 208.503 1.84769 0.623341 0
M  V30 2174 O 207.773 1.3143 1.45269 0
M  V30 2175 H 206.353 0.67849 -0.312507 0
M  V30 2176 H 209.015 1.3556 -1.40033 0
M  V30 2177 H 208.111 2.87265 -1.22005 0
M  V30 2178 N 208.412 0.89855 1.29475 0
M  V30 2179 C 209.342 0.39201 2.30186 0
M  V30 2180 C 210.323 -0.532359 1.61555 0
M  V30 2181 O 211.508 -0.443331 1.89072 0
M  V30 2182 C 208.638 -0.382353 3.45189 0
M  V30 2183 C 207.592 0.451483 4.25612 0
M  V30 2184 C 206.918 -0.450307 5.328 0
M  V30 2185 C 208.218 1.70079 4.93832 0
M  V30 2186 H 209.912 1.23362 2.72804 0
M  V30 2187 H 207.458 0.594638 1.31149 0
M  V30 2188 H 209.411 -0.747451 4.14718 0
M  V30 2189 H 208.135 -1.25774 3.01411 0
M  V30 2190 H 206.794 0.798897 3.57789 0
M  V30 2191 H 206.442 -1.32379 4.85268 0
M  V30 2192 H 206.142 0.103902 5.87508 0
M  V30 2193 H 207.666 -0.811623 6.05182 0
M  V30 2194 H 209.08 1.40549 5.55805 0
M  V30 2195 H 207.477 2.19623 5.58467 0
M  V30 2196 H 208.547 2.43744 4.19186 0
M  V30 2197 N 209.89 -1.43072 0.660911 0
M  V30 2198 C 210.853 -2.29194 -0.0166406 0
M  V30 2199 C 211.853 -1.42609 -0.742912 0
M  V30 2200 O 213.043 -1.64155 -0.583004 0
M  V30 2201 C 210.175 -3.24831 -1.0343 0
M  V30 2202 H 211.368 -2.90596 0.741208 0
M  V30 2203 H 208.921 -1.5048 0.422532 0
M  V30 2204 H 209.656 -2.68339 -1.82111 0
M  V30 2205 H 209.441 -3.88676 -0.517082 0
M  V30 2206 H 210.931 -3.89451 -1.50723 0
M  V30 2207 N 211.368 -0.403325 -1.52352 0
M  V30 2208 C 212.614 0.174605 -2.02047 0
M  V30 2209 C 212.947 1.45282 -1.28867 0
M  V30 2210 O 212.222 1.90483 -0.393257 0
M  V30 2211 C 212.505 0.428238 -3.57545 0
M  V30 2212 C 212.358 -0.866248 -4.4138 0
M  V30 2213 C 213.677 1.21287 -4.23057 0
M  V30 2214 H 210.796 0.0619851 -0.734389 0
M  V30 2215 H 213.438 -0.53565 -1.82293 0
M  V30 2216 H 211.588 1.03327 -3.74507 0
M  V30 2217 H 213.26 -1.50265 -4.3614 0
M  V30 2218 H 211.503 -1.47851 -4.07827 0
M  V30 2219 H 212.174 -0.643249 -5.48239 0
M  V30 2220 H 214.65 0.700703 -4.10158 0
M  V30 2221 H 213.526 1.35909 -5.31808 0
M  V30 2222 H 213.787 2.23193 -3.81625 0
M  V30 2223 N 212.846 1.57033 -0.133567 0
M  V30 2224 C 213.776 2.1909 0.807567 0
M  V30 2225 C 214.757 1.13517 1.26681 0
M  V30 2226 O 215.942 1.41809 1.32679 0
M  V30 2227 C 213.072 2.80188 2.05212 0
M  V30 2228 C 212.026 3.91471 1.73015 0
M  V30 2229 C 211.352 4.39443 3.04622 0
M  V30 2230 C 212.652 5.12886 0.987168 0
M  V30 2231 H 214.346 2.97988 0.290403 0
M  V30 2232 H 211.892 1.43335 0.138239 0
M  V30 2233 H 213.845 3.22264 2.71521 0
M  V30 2234 H 212.569 1.98601 2.59278 0
M  V30 2235 H 211.228 3.49993 1.0909 0
M  V30 2236 H 210.876 3.54695 3.56651 0
M  V30 2237 H 210.576 5.14495 2.83847 0
M  V30 2238 H 212.1 4.8418 3.72024 0
M  V30 2239 H 213.514 5.51891 1.55208 0
M  V30 2240 H 211.911 5.93615 0.87985 0
M  V30 2241 H 212.981 4.84894 -0.0235286 0
M  V30 2242 N 214.325 -0.140222 1.56975 0
M  V30 2243 C 215.573 -0.850005 1.83356 0
M  V30 2244 C 215.894 -1.81399 0.71551 0
M  V30 2245 O 215.164 -1.94136 -0.262294 0
M  V30 2246 H 213.744 -0.316886 0.676456 0
M  V30 2247 H 216.406 -0.132608 1.94448 0
M  V30 2248 H 215.502 -1.40814 2.78528 0
M  V30 2249 N 215.803 -1.52179 -0.40978 0
M  V30 2250 C 217.049 -1.66453 -1.15851 0
M  V30 2251 C 217.382 -0.392972 -1.90182 0
M  V30 2252 O 216.657 0.608579 -1.84734 0
M  V30 2253 C 216.94 -2.88612 -2.15349 0
M  V30 2254 C 216.793 -4.25815 -1.44918 0
M  V30 2255 C 218.112 -3.06294 -3.16026 0
M  V30 2256 H 215.231 -0.60575 -0.419805 0
M  V30 2257 H 217.873 -1.84732 -0.444314 0
M  V30 2258 H 216.023 -2.73158 -2.76255 0
M  V30 2259 H 217.695 -4.52995 -0.871365 0
M  V30 2260 H 215.938 -4.27247 -0.751159 0
M  V30 2261 H 216.609 -5.07337 -2.17516 0
M  V30 2262 H 219.085 -3.20641 -2.65195 0
M  V30 2263 H 217.961 -3.93283 -3.8291 0
M  V30 2264 H 218.222 -2.19579 -3.83715 0
M  V30 2265 N 217.281 0.66697 -1.42791 0
M  V30 2266 C 218.528 1.42699 -1.43678 0
M  V30 2267 C 218.856 1.94419 -0.0560425 0
M  V30 2268 O 218.111 1.7182 0.936831 0
M  V30 2269 C 218.41 2.6349 -2.4147 0
M  V30 2270 C 218.076 2.30267 -3.8767 0
M  V30 2271 C 216.738 2.20918 -4.27491 0
M  V30 2272 C 219.09 2.03435 -4.79858 0
M  V30 2273 C 216.418 1.82873 -5.57471 0
M  V30 2274 C 218.77 1.66892 -6.10188 0
M  V30 2275 C 217.434 1.56058 -6.49001 0
M  V30 2276 H 216.704 0.522171 -0.525755 0
M  V30 2277 H 219.351 0.759785 -1.75783 0
M  V30 2278 H 217.656 3.35279 -2.0272 0
M  V30 2279 H 219.353 3.21684 -2.39417 0
M  V30 2280 H 215.943 2.38449 -3.56146 0
M  V30 2281 H 220.127 2.09586 -4.49875 0
M  V30 2282 H 215.383 1.7306 -5.86396 0
M  V30 2283 H 219.557 1.45157 -6.81104 0
M  V30 2284 H 217.184 1.26348 -7.49627 0
M  V30 2285 N 218.759 1.29093 0.90403 0
M  V30 2286 C 219.689 1.16401 2.02418 0
M  V30 2287 C 220.67 0.0593085 1.69997 0
M  V30 2288 O 221.855 0.238021 1.92736 0
M  V30 2289 C 218.985 0.835233 3.37107 0
M  V30 2290 C 217.939 1.89578 3.83724 0
M  V30 2291 C 217.265 1.42041 5.15489 0
M  V30 2292 C 218.565 3.30394 4.04521 0
M  V30 2293 H 220.259 2.10109 2.13295 0
M  V30 2294 H 217.805 1.01157 1.02486 0
M  V30 2295 H 219.758 0.733169 4.14973 0
M  V30 2296 H 218.482 -0.137543 3.2631 0
M  V30 2297 H 217.141 1.98715 3.08071 0
M  V30 2298 H 216.789 0.436426 5.01103 0
M  V30 2299 H 216.489 2.12964 5.4765 0
M  V30 2300 H 218.013 1.33176 5.959 0
M  V30 2301 H 219.427 3.24123 4.72882 0
M  V30 2302 H 217.824 3.99237 4.48029 0
M  V30 2303 H 218.894 3.73692 3.09002 0
M  V30 2304 N 220.237 -1.11381 1.11499 0
M  V30 2305 C 221.169 -2.17207 0.731704 0
M  V30 2306 C 222.182 -1.61066 -0.236957 0
M  V30 2307 O 223.371 -1.78489 -0.0197591 0
M  V30 2308 C 220.471 -3.38846 0.0607624 0
M  V30 2309 C 219.644 -4.24451 1.0564 0
M  V30 2310 C 218.703 -5.24562 0.4149 0
M  V30 2311 O 217.729 -5.59071 1.069 0
M  V30 2312 N 218.931 -5.74651 -0.821943 0
M  V30 2313 H 221.696 -2.50699 1.64225 0
M  V30 2314 H 219.257 -1.26908 1.00529 0
M  V30 2315 H 221.249 -4.02911 -0.380139 0
M  V30 2316 H 219.819 -3.03411 -0.752376 0
M  V30 2317 H 219.039 -3.56833 1.67524 0
M  V30 2318 H 220.327 -4.78486 1.72998 0
M  V30 2319 H 219.725 -5.48797 -1.37252 0
M  V30 2320 H 218.282 -6.40549 -1.20582 0
M  V30 2321 N 221.715 -0.905404 -1.28997 0
M  V30 2322 C 222.964 -0.530191 -1.94607 0
M  V30 2323 C 223.277 0.929185 -1.72121 0
M  V30 2324 O 224.483 1.41218 -2.31883 0
M  V30 2325 C 222.939 -0.897333 -3.48534 0
M  V30 2326 C 222.547 -2.37587 -3.79811 0
M  V30 2327 C 224.291 -0.592304 -4.20347 0
M  V30 2328 C 222.198 -2.68357 -5.27009 0
M  V30 2329 H 221.128 -0.194558 -0.728466 0
M  V30 2330 H 223.779 -1.10318 -1.46636 0
M  V30 2331 H 222.161 -0.253214 -3.9519 0
M  V30 2332 H 223.335 -3.06602 -3.43994 0
M  V30 2333 H 221.65 -2.6505 -3.2115 0
M  V30 2334 H 224.247 -0.798975 -5.28697 0
M  V30 2335 H 224.59 0.469474 -4.13644 0
M  V30 2336 H 225.123 -1.19452 -3.79442 0
M  V30 2337 H 221.862 -3.73355 -5.38782 0
M  V30 2338 H 221.382 -2.03971 -5.64053 0
M  V30 2339 H 223.061 -2.54922 -5.94663 0
M  V30 2340 N 223.193 1.4272 -0.668489 0
M  V30 2341 C 224.441 2.01226 -0.187769 0
M  V30 2342 C 224.762 1.53092 1.2078 0
M  V30 2343 O 224.032 0.74993 1.80977 0
M  V30 2344 H 222.612 0.744041 -0.0664272 0
M  V30 2345 H 225.274 1.74723 -0.863583 0
M  V30 2346 H 224.37 3.11556 -0.184166 0
M  V30 2347 N 224.671 0.411399 1.52136 0
M  V30 2348 C 225.581 -0.419774 2.30814 0
M  V30 2349 C 226.597 -1.0515 1.38634 0
M  V30 2350 O 227.773 -1.05252 1.71709 0
M  V30 2351 C 224.838 -1.52019 3.11594 0
M  V30 2352 C 223.899 -0.91129 4.19516 0
M  V30 2353 C 223.132 -1.95927 4.96436 0
M  V30 2354 O 223.355 -3.17775 4.73683 0
M  V30 2355 O 222.289 -1.56423 5.81219 0
M  V30 2356 H 226.115 0.221805 3.02889 0
M  V30 2357 H 223.7 0.174547 1.48377 0
M  V30 2358 H 225.582 -2.15898 3.61892 0
M  V30 2359 H 224.257 -2.14633 2.42311 0
M  V30 2360 H 223.164 -0.235157 3.7336 0
M  V30 2361 H 224.497 -0.32904 4.91099 0
M  V30 2362 N 226.149 -1.5696 0.141893 0
M  V30 2363 C 227.56 -1.82797 -0.379776 0
M  V30 2364 C 227.911 -1.06033 -1.6508 0
M  V30 2365 O 227.036 -0.304011 -2.14254 0
M  V30 2366 C 227.631 -3.31578 -0.695802 0
M  V30 2367 C 226.19 -3.58014 -1.16201 0
M  V30 2368 C 225.337 -2.76699 -0.182455 0
M  V30 2369 H 228.288 -1.54406 0.366675 0
M  V30 2370 H 228.309 -3.47454 -1.55099 0
M  V30 2371 H 227.821 -3.87421 0.229449 0
M  V30 2372 H 225.922 -3.07553 -2.10338 0
M  V30 2373 H 226.035 -4.66501 -1.09151 0
M  V30 2374 H 224.399 -2.45618 -0.674072 0
M  V30 2375 H 225.182 -3.35311 0.736297 0
M  V30 2376 N 227.627 0.131896 -1.57047 0
M  V30 2377 C 228.575 1.18146 -2.0036 0
M  V30 2378 C 229.569 1.43614 -0.898406 0
M  V30 2379 O 230.775 1.43729 -1.08361 0
M  V30 2380 H 227.15 0.398042 -0.638018 0
M  V30 2381 H 229.121 0.789564 -2.87765 0
M  V30 2382 C 227.87 2.50341 -2.41298 0
M  V30 2383 H 227.193 2.31578 -3.25902 0
M  V30 2384 H 228.633 3.22371 -2.75414 0
M  V30 2385 C 227.092 3.11984 -1.27153 0
M  V30 2386 O 227.622 3.97484 -0.580459 0
M  V30 2387 N 225.828 2.71662 -1.03189 0
M  V30 2388 H 225.375 2.02231 -1.59564 0
M  V30 2389 H 225.333 3.13238 -0.270077 0
M  V30 2390 N 229.106 1.52395 0.401703 0
M  V30 2391 C 230.331 1.70972 1.17403 0
M  V30 2392 C 230.756 0.421615 1.83314 0
M  V30 2393 O 230.114 -0.621564 1.70312 0
M  V30 2394 C 230.162 2.85151 2.20728 0
M  V30 2395 O 229.266 2.51238 3.27037 0
M  V30 2396 H 228.607 0.568927 0.342372 0
M  V30 2397 H 231.137 1.99131 0.469891 0
M  V30 2398 H 231.147 3.10279 2.64936 0
M  V30 2399 H 229.822 3.78603 1.7214 0
M  V30 2400 H 228.399 2.36808 2.88057 0
M  V30 2401 N 230.584 -0.659388 1.43143 0
M  V30 2402 C 231.516 -1.7849 1.43784 0
M  V30 2403 C 232.529 -1.5932 0.334787 0
M  V30 2404 O 233.718 -1.68155 0.598842 0
M  V30 2405 C 230.818 -3.15828 1.22906 0
M  V30 2406 C 229.991 -3.61711 2.45934 0
M  V30 2407 C 229.05 -4.77831 2.20371 0
M  V30 2408 O 228.076 -4.87586 2.93681 0
M  V30 2409 N 229.278 -5.67611 1.21647 0
M  V30 2410 H 232.043 -1.7842 2.40803 0
M  V30 2411 H 229.604 -0.84302 1.3822 0
M  V30 2412 H 231.596 -3.91189 1.03697 0
M  V30 2413 H 230.166 -3.10707 0.343542 0
M  V30 2414 H 229.386 -2.76861 2.80609 0
M  V30 2415 H 230.674 -3.89112 3.27825 0
M  V30 2416 H 230.072 -5.62397 0.610449 0
M  V30 2417 H 228.629 -6.42719 1.08423 0
M  V30 2418 N 232.062 -1.29571 -0.897171 0
M  V30 2419 C 232.992 -1.17473 -2.01798 0
M  V30 2420 C 233.973 -0.068323 -1.69963 0
M  V30 2421 O 235.158 -0.248239 -1.92607 0
M  V30 2422 C 232.288 -0.853099 -3.36659 0
M  V30 2423 C 231.242 -1.9161 -3.82713 0
M  V30 2424 C 230.568 -1.44773 -5.14728 0
M  V30 2425 C 231.868 -3.32535 -4.02763 0
M  V30 2426 H 233.562 -2.11237 -2.12177 0
M  V30 2427 H 231.108 -1.01699 -1.01948 0
M  V30 2428 H 233.061 -0.755165 -4.14578 0
M  V30 2429 H 231.785 0.120236 -3.26379 0
M  V30 2430 H 230.444 -2.00346 -3.07013 0
M  V30 2431 H 230.092 -0.462995 -5.00865 0
M  V30 2432 H 229.792 -2.15865 -5.46513 0
M  V30 2433 H 231.316 -1.36334 -5.95185 0
M  V30 2434 H 232.73 -3.26626 -4.71156 0
M  V30 2435 H 231.127 -4.01607 -4.45905 0
M  V30 2436 H 232.197 -3.75326 -3.07016 0
M  V30 2437 N 233.54 1.10788 -1.12088 0
M  V30 2438 C 234.472 2.16816 -0.743213 0
M  V30 2439 C 235.485 1.6119 0.228412 0
M  V30 2440 O 236.674 1.78497 0.0102931 0
M  V30 2441 C 233.774 3.38809 -0.0787313 0
M  V30 2442 C 232.947 4.23885 -1.0789 0
M  V30 2443 C 232.006 5.24334 -0.442713 0
M  V30 2444 O 231.032 5.58497 -1.09864 0
M  V30 2445 N 232.234 5.75079 0.791457 0
M  V30 2446 H 234.999 2.49825 -1.65552 0
M  V30 2447 H 232.56 1.26373 -1.012 0
M  V30 2448 H 234.552 4.03107 0.358766 0
M  V30 2449 H 233.122 3.03805 0.736275 0
M  V30 2450 H 232.342 3.55939 -1.69414 0
M  V30 2451 H 233.63 4.77562 -1.75533 0
M  V30 2452 H 233.028 5.49517 1.3434 0
M  V30 2453 H 231.585 6.4118 1.17183 0
M  V30 2454 N 235.018 0.912232 1.28515 0
M  V30 2455 C 235.965 0.397954 2.27343 0
M  V30 2456 C 236.935 -0.526766 1.57526 0
M  V30 2457 O 238.12 -0.449292 1.85435 0
M  V30 2458 C 235.26 -0.357263 3.43246 0
M  V30 2459 C 234.373 0.599788 4.27816 0
M  V30 2460 C 233.508 -0.173725 5.30916 0
M  V30 2461 C 232.547 0.777039 6.07148 0
M  V30 2462 N 231.684 0.0371398 7.0209 0
M  V30 2463 H 236.524 1.24577 2.70711 0
M  V30 2464 H 234.061 0.625612 1.33133 0
M  V30 2465 H 236.019 -0.8113 4.09236 0
M  V30 2466 H 234.649 -1.16943 3.00872 0
M  V30 2467 H 233.701 1.17235 3.61884 0
M  V30 2468 H 235.013 1.32704 4.80823 0
M  V30 2469 H 234.167 -0.688394 6.02782 0
M  V30 2470 H 232.906 -0.934041 4.78672 0
M  V30 2471 H 231.911 1.3031 5.34134 0
M  V30 2472 H 233.136 1.53689 6.61481 0
M  V30 2473 H 231.082 -0.705213 6.52198 0
M  V30 2474 H 230.999 0.704249 7.52713 0
M  V30 2475 H 232.267 -0.457383 7.78157 0
M  V30 2476 N 236.496 -1.42363 0.676048 0
M  V30 2477 C 237.745 -2.00745 0.196037 0
M  V30 2478 C 238.058 -1.54083 -1.20489 0
M  V30 2479 O 239.264 -2.04891 -1.78134 0
M  V30 2480 C 237.72 -3.58651 0.299616 0
M  V30 2481 C 237.328 -4.143 1.70468 0
M  V30 2482 C 239.072 -4.24326 -0.121619 0
M  V30 2483 C 236.979 -5.64574 1.76096 0
M  V30 2484 H 235.909 -0.750787 0.0695301 0
M  V30 2485 H 238.56 -1.63072 0.841412 0
M  V30 2486 H 236.942 -3.93833 -0.413673 0
M  V30 2487 H 238.116 -3.90575 2.44515 0
M  V30 2488 H 236.431 -3.61081 2.07387 0
M  V30 2489 H 239.028 -5.34607 -0.0997362 0
M  V30 2490 H 239.371 -3.99897 -1.15708 0
M  V30 2491 H 239.904 -3.94108 0.540706 0
M  V30 2492 H 236.643 -5.93804 2.77628 0
M  V30 2493 H 236.163 -5.90286 1.06406 0
M  V30 2494 H 237.842 -6.29013 1.51496 0
M  V30 2495 N 237.974 -0.419461 -1.51915 0
M  V30 2496 C 239.202 0.152136 -2.0634 0
M  V30 2497 C 239.617 1.37988 -1.28859 0
M  V30 2498 O 238.974 1.79243 -0.343232 0
M  V30 2499 C 239.025 0.492266 -3.58133 0
M  V30 2500 O 238.746 -0.686736 -4.32684 0
M  V30 2501 C 240.247 1.11648 -4.2901 0
M  V30 2502 H 237.467 0.0158325 -0.670813 0
M  V30 2503 H 240.011 -0.593394 -1.95702 0
M  V30 2504 H 238.166 1.18769 -3.68745 0
M  V30 2505 H 238.58 -0.400341 -5.2297 0
M  V30 2506 H 240.054 1.3046 -5.36362 0
M  V30 2507 H 240.531 2.09251 -3.86148 0
M  V30 2508 H 241.137 0.460958 -4.22795 0
M  V30 2509 N 239.452 1.56882 -0.150215 0
M  V30 2510 C 240.729 1.87844 0.545327 0
M  V30 2511 C 241.109 1.0567 1.82749 0
M  V30 2512 O 240.457 0.144442 2.28043 0
M  V30 2513 C 240.667 3.39526 0.80767 0
M  V30 2514 C 242.015 4.08814 1.14703 0
M  V30 2515 O 243.039 3.44723 0.896917 0
M  V30 2516 O 241.898 5.22004 1.61784 0
M  V30 2517 H 238.992 0.778677 0.278553 0
M  V30 2518 H 241.538 1.68666 -0.187068 0
M  V30 2519 H 240.31 3.91173 -0.0996096 0
M  V30 2520 H 239.933 3.64243 1.59413 0
M  V30 2521 N 240.93 -0.123565 1.57115 0
M  V30 2522 C 242.158 -0.846461 1.88793 0
M  V30 2523 C 242.573 -1.73652 0.740976 0
M  V30 2524 O 241.93 -1.80207 -0.288393 0
M  V30 2525 C 241.981 -1.6837 3.19897 0
M  V30 2526 O 241.702 -0.829477 4.30176 0
M  V30 2527 C 243.203 -2.51214 3.65248 0
M  V30 2528 H 240.423 -0.243573 0.625231 0
M  V30 2529 H 242.967 -0.109324 2.04208 0
M  V30 2530 H 241.122 -2.37364 3.06165 0
M  V30 2531 H 241.536 -1.40651 5.0529 0
M  V30 2532 H 243.01 -3.05497 4.59756 0
M  V30 2533 H 243.487 -3.28359 2.9168 0
M  V30 2534 H 244.093 -1.8747 3.81752 0
M  V30 2535 N 242.408 -1.52605 -0.393616 0
M  V30 2536 C 243.338 -1.80022 -1.48709 0
M  V30 2537 C 244.319 -0.651995 -1.57108 0
M  V30 2538 O 245.504 -0.89913 -1.72132 0
M  V30 2539 C 242.634 -1.96492 -2.86371 0
M  V30 2540 C 241.588 -3.12161 -2.92813 0
M  V30 2541 C 240.914 -3.13877 -4.3288 0
M  V30 2542 C 242.214 -4.51322 -2.6288 0
M  V30 2543 H 243.908 -2.71589 -1.26015 0
M  V30 2544 H 241.454 -1.30684 -0.604778 0
M  V30 2545 H 243.407 -2.14255 -3.62867 0
M  V30 2546 H 242.131 -1.01611 -3.10391 0
M  V30 2547 H 240.79 -2.94173 -2.18764 0
M  V30 2548 H 240.438 -2.16687 -4.53933 0
M  V30 2549 H 240.138 -3.91576 -4.38112 0
M  V30 2550 H 241.662 -3.33789 -5.1129 0
M  V30 2551 H 243.076 -4.69435 -3.29096 0
M  V30 2552 H 241.473 -5.31053 -2.79468 0
M  V30 2553 H 242.543 -4.58353 -1.58242 0
M  V30 2554 N 243.887 0.651787 -1.4349 0
M  V30 2555 C 245.164 1.40909 -1.35661 0
M  V30 2556 C 245.544 2.11099 -0.00511733 0
M  V30 2557 O 244.892 2.04892 1.0115 0
M  V30 2558 C 245.102 2.3926 -2.54078 0
M  V30 2559 C 246.45 3.03217 -2.97228 0
M  V30 2560 O 247.474 2.49588 -2.54135 0
M  V30 2561 O 246.333 4.00455 -3.71885 0
M  V30 2562 H 243.427 0.629625 -0.536191 0
M  V30 2563 H 245.973 0.678575 -1.55542 0
M  V30 2564 H 244.745 1.86352 -3.44076 0
M  V30 2565 H 244.368 3.1976 -2.36303 0
M  V30 2566 N 245.365 1.30045 0.890287 0
M  V30 2567 C 246.59 1.21598 1.68014 0
M  V30 2568 C 247.015 -0.218678 1.86825 0
M  V30 2569 O 246.373 -1.15756 1.39536 0
M  V30 2570 C 246.421 1.94434 3.03691 0
M  V30 2571 O 245.525 1.2678 3.92429 0
M  V30 2572 H 244.866 0.420856 0.513592 0
M  V30 2573 H 247.396 1.71775 1.11151 0
M  V30 2574 H 247.406 2.03251 3.5377 0
M  V30 2575 H 246.081 2.98777 2.89318 0
M  V30 2576 H 244.658 1.26282 3.50866 0
M  V30 2577 N 246.843 -1.10192 1.12674 0
M  V30 2578 C 248.092 -1.81573 0.8783 0
M  V30 2579 C 248.405 -1.86249 -0.597557 0
M  V30 2580 O 249.611 -2.5386 -0.962681 0
M  V30 2581 C 248.067 -3.26149 1.52167 0
M  V30 2582 C 247.675 -3.29763 3.03249 0
M  V30 2583 C 249.419 -4.0234 1.3536 0
M  V30 2584 C 247.326 -4.68815 3.60508 0
M  V30 2585 H 246.256 -0.680394 0.324931 0
M  V30 2586 H 248.907 -1.23902 1.35353 0
M  V30 2587 H 247.289 -3.83832 0.974104 0
M  V30 2588 H 248.463 -2.8189 3.6452 0
M  V30 2589 H 246.778 -2.67059 3.19481 0
M  V30 2590 H 249.375 -5.05058 1.75559 0
M  V30 2591 H 249.718 -4.15235 0.297554 0
M  V30 2592 H 250.251 -3.51079 1.87052 0
M  V30 2593 H 246.99 -4.61121 4.65884 0
M  V30 2594 H 246.51 -5.17045 3.04014 0
M  V30 2595 H 248.189 -5.37785 3.59717 0
M  V30 2596 N 248.321 -0.919034 -1.28029 0
M  V30 2597 C 249.268 -0.410005 -2.27129 0
M  V30 2598 C 250.238 0.518405 -1.57803 0
M  V30 2599 O 251.423 0.439451 -1.8567 0
M  V30 2600 C 248.563 0.339054 -3.4343 0
M  V30 2601 C 247.676 -0.622468 -4.27492 0
M  V30 2602 C 246.811 0.145567 -5.31001 0
M  V30 2603 C 245.85 -0.809226 -6.06727 0
M  V30 2604 N 244.987 -0.0743728 -7.02061 0
M  V30 2605 H 249.827 -1.26011 -2.70047 0
M  V30 2606 H 247.364 -0.632663 -1.328 0
M  V30 2607 H 249.322 0.789586 -4.0966 0
M  V30 2608 H 247.952 1.15346 -3.01488 0
M  V30 2609 H 247.004 -1.19153 -3.61257 0
M  V30 2610 H 248.316 -1.35252 -4.80113 0
M  V30 2611 H 247.47 0.656417 -6.03139 0
M  V30 2612 H 246.209 0.908643 -4.79161 0
M  V30 2613 H 245.214 -1.3314 -5.33436 0
M  V30 2614 H 246.439 -1.57194 -6.60656 0
M  V30 2615 H 244.385 0.670616 -6.52563 0
M  V30 2616 H 244.302 -0.744157 -7.52329 0
M  V30 2617 H 245.57 0.416109 -7.78389 0
M  V30 2618 N 249.799 1.42003 -0.683588 0
M  V30 2619 C 250.709 2.34597 -0.0109075 0
M  V30 2620 C 251.725 1.55576 0.779245 0
M  V30 2621 O 252.901 1.88107 0.719555 0
M  V30 2622 C 249.966 3.34199 0.922588 0
M  V30 2623 C 249.027 4.29115 0.125984 0
M  V30 2624 C 248.26 5.23959 1.01502 0
M  V30 2625 O 248.483 5.23952 2.25456 0
M  V30 2626 O 247.417 6.00053 0.47111 0
M  V30 2627 H 251.243 2.93675 -0.773853 0
M  V30 2628 H 248.828 1.42654 -0.443861 0
M  V30 2629 H 250.71 3.95365 1.45823 0
M  V30 2630 H 249.385 2.77582 1.66523 0
M  V30 2631 H 248.292 3.71335 -0.453969 0
M  V30 2632 H 249.625 4.88798 -0.577736 0
M  V30 2633 N 251.277 0.427512 1.51691 0
M  V30 2634 C 252.224 -0.388867 2.275 0
M  V30 2635 C 253.194 -1.02532 1.30677 0
M  V30 2636 O 254.379 -1.0461 1.59566 0
M  V30 2637 C 251.519 -1.48954 3.11298 0
M  V30 2638 C 250.632 -0.872194 4.23104 0
M  V30 2639 C 249.767 -1.94709 4.94228 0
M  V30 2640 C 248.806 -1.30766 5.97969 0
M  V30 2641 N 247.943 -2.32349 6.62539 0
M  V30 2642 H 252.783 0.263997 2.96828 0
M  V30 2643 H 250.32 0.142033 1.46413 0
M  V30 2644 H 252.278 -2.13887 3.58201 0
M  V30 2645 H 250.908 -2.11217 2.44105 0
M  V30 2646 H 249.96 -0.111419 3.80237 0
M  V30 2647 H 251.272 -0.365264 4.97461 0
M  V30 2648 H 250.426 -2.67327 5.44629 0
M  V30 2649 H 249.165 -2.48773 4.1948 0
M  V30 2650 H 248.17 -0.566902 5.4687 0
M  V30 2651 H 249.395 -0.774483 6.74669 0
M  V30 2652 H 247.341 -2.85511 5.90609 0
M  V30 2653 H 247.258 -1.8652 7.3263 0
M  V30 2654 H 248.526 -3.04481 7.17574 0
M  V30 2655 N 252.755 -1.56801 0.158532 0
M  V30 2656 C 254.003 -1.96102 -0.488712 0
M  V30 2657 C 254.324 -1.04498 -1.64636 0
M  V30 2658 O 253.594 -0.108783 -1.95598 0
M  V30 2659 H 252.174 -0.724102 -0.183535 0
M  V30 2660 H 254.836 -1.93457 0.236728 0
M  V30 2661 H 253.932 -3.00097 -0.857219 0
M  V30 2662 N 254.233 0.115231 -1.57178 0
M  V30 2663 C 255.18 1.14115 -2.00615 0
M  V30 2664 C 256.15 1.40939 -0.878941 0
M  V30 2665 O 257.335 1.52741 -1.14345 0
M  V30 2666 C 254.475 2.46156 -2.4187 0
M  V30 2667 C 253.588 2.26236 -3.68024 0
M  V30 2668 C 252.723 3.51534 -3.98243 0
M  V30 2669 C 251.762 3.26787 -5.17568 0
M  V30 2670 N 250.899 4.44298 -5.43639 0
M  V30 2671 H 255.739 0.763743 -2.88047 0
M  V30 2672 H 253.276 0.365615 -1.42484 0
M  V30 2673 H 255.234 3.23189 -2.63827 0
M  V30 2674 H 253.864 2.81783 -1.57475 0
M  V30 2675 H 252.916 1.40102 -3.5366 0
M  V30 2676 H 254.228 2.03929 -4.55208 0
M  V30 2677 H 253.382 4.36984 -4.20868 0
M  V30 2678 H 252.121 3.76876 -3.09541 0
M  V30 2679 H 251.126 2.39729 -4.94783 0
M  V30 2680 H 252.351 3.02812 -6.0785 0
M  V30 2681 H 250.297 4.69754 -4.57895 0
M  V30 2682 H 250.214 4.25109 -6.25154 0
M  V30 2683 H 251.482 5.3087 -5.70786 0
M  V30 2684 N 255.711 1.52812 0.385517 0
M  V30 2685 C 256.643 1.74096 1.49074 0
M  V30 2686 C 257.656 0.621462 1.50472 0
M  V30 2687 O 258.845 0.897245 1.54311 0
M  V30 2688 C 255.945 1.78774 2.87911 0
M  V30 2689 C 255.118 3.08134 3.10439 0
M  V30 2690 C 254.177 3.04313 4.29278 0
M  V30 2691 O 253.203 3.78168 4.25415 0
M  V30 2692 N 254.405 2.23741 5.35649 0
M  V30 2693 H 257.17 2.69455 1.31202 0
M  V30 2694 H 254.731 1.51343 0.575065 0
M  V30 2695 H 256.723 1.73721 3.65518 0
M  V30 2696 H 255.293 0.907869 2.99126 0
M  V30 2697 H 254.513 3.26649 2.20667 0
M  V30 2698 H 255.801 3.93662 3.22347 0
M  V30 2699 H 255.199 1.63211 5.41645 0
M  V30 2700 H 253.756 2.24524 6.11909 0
M  V30 2701 N 257.189 -0.644168 1.43834 0
M  V30 2702 C 258.417 -1.43147 1.49387 0
M  V30 2703 C 258.832 -1.88452 0.114583 0
M  V30 2704 O 258.189 -1.60047 -0.876989 0
M  V30 2705 C 258.24 -2.66046 2.44748 0
M  V30 2706 O 257.961 -2.22633 3.77314 0
M  V30 2707 C 259.462 -3.59311 2.59635 0
M  V30 2708 H 256.682 -0.439447 0.507077 0
M  V30 2709 H 259.226 -0.78895 1.88669 0
M  V30 2710 H 257.381 -3.26418 2.08638 0
M  V30 2711 H 257.795 -3.02216 4.28679 0
M  V30 2712 H 259.269 -4.42187 3.30416 0
M  V30 2713 H 259.746 -4.07259 1.64427 0
M  V30 2714 H 260.352 -3.04816 2.96593 0
M  V30 2715 N 258.668 -1.30515 -0.883378 0
M  V30 2716 C 260.084 -1.08881 -1.16692 0
M  V30 2717 C 260.284 0.149409 -2.00945 0
M  V30 2718 O 259.34 0.84257 -2.38027 0
M  V30 2719 C 260.653 -2.35319 -1.87204 0
M  V30 2720 C 262.201 -2.40799 -1.99962 0
M  V30 2721 C 262.676 -3.67083 -2.73887 0
M  V30 2722 N 264.167 -3.679 -2.81432 0
M  V30 2723 C 264.902 -4.62303 -3.3921 0
M  V30 2724 N 264.398 -5.67052 -3.98025 0
M  V30 2725 N 266.191 -4.49845 -3.3704 0
M  V30 2726 H 258.342 -2.09951 -0.321633 0
M  V30 2727 H 260.605 -0.92556 -0.205043 0
M  V30 2728 H 260.311 -3.25689 -1.3274 0
M  V30 2729 H 260.185 -2.44089 -2.87577 0
M  V30 2730 H 262.572 -1.50907 -2.53597 0
M  V30 2731 H 262.653 -2.36003 -0.98673 0
M  V30 2732 H 262.297 -4.57334 -2.20925 0
M  V30 2733 H 262.227 -3.69141 -3.75556 0
M  V30 2734 H 264.718 -2.92171 -2.39676 0
M  V30 2735 H 265.031 -6.35184 -4.40183 0
M  V30 2736 H 263.376 -5.70842 -3.96439 0
M  V30 2737 H 266.567 -3.67194 -2.90321 0
M  V30 2738 H 266.74 -5.23597 -3.81772 0
M  V30 2739 N 260.146 1.09593 -1.13257 0
M  V30 2740 C 261.393 1.81734 -0.893257 0
M  V30 2741 C 261.721 1.8563 0.580656 0
M  V30 2742 O 260.976 1.31906 1.44566 0
M  V30 2743 C 261.275 3.27802 -1.42411 0
M  V30 2744 C 260.941 3.44041 -2.91456 0
M  V30 2745 C 259.603 3.48181 -3.3215 0
M  V30 2746 C 261.955 3.48719 -3.87356 0
M  V30 2747 C 259.283 3.54575 -4.67433 0
M  V30 2748 C 261.635 3.56648 -5.2248 0
M  V30 2749 C 260.299 3.59055 -5.62704 0
M  V30 2750 H 259.569 0.665011 -0.326866 0
M  V30 2751 H 262.216 1.2912 -1.41422 0
M  V30 2752 H 260.521 3.83042 -0.823795 0
M  V30 2753 H 262.218 3.82149 -1.21503 0
M  V30 2754 H 258.808 3.41502 -2.58987 0
M  V30 2755 H 262.992 3.44763 -3.57004 0
M  V30 2756 H 258.248 3.54725 -4.97976 0
M  V30 2757 H 262.422 3.59212 -5.96607 0
M  V30 2758 H 260.049 3.63763 -6.67518 0
M  V30 2759 N 261.624 0.925811 1.2754 0
M  V30 2760 C 262.852 0.581509 1.9856 0
M  V30 2761 C 263.267 -0.840041 1.69082 0
M  V30 2762 O 262.624 -1.55805 0.950312 0
M  V30 2763 C 262.675 0.795589 3.52637 0
M  V30 2764 O 262.396 2.16121 3.81082 0
M  V30 2765 C 263.897 0.459744 4.4091 0
M  V30 2766 H 261.117 0.220538 0.633722 0
M  V30 2767 H 263.661 1.24232 1.6244 0
M  V30 2768 H 261.816 0.18161 3.86974 0
M  V30 2769 H 262.23 2.2098 4.75676 0
M  V30 2770 H 263.704 0.660244 5.48037 0
M  V30 2771 H 264.181 -0.604625 4.35018 0
M  V30 2772 H 264.787 1.05178 4.12089 0
M  V30 2773 N 263.102 -1.41638 0.69111 0
M  V30 2774 C 264.05 -2.32597 0.0115199 0
M  V30 2775 C 265.044 -1.5072 -0.773296 0
M  V30 2776 O 266.25 -1.66685 -0.67942 0
M  V30 2777 H 262.625 -0.751849 -0.0150746 0
M  V30 2778 H 264.596 -2.87593 0.795791 0
M  V30 2779 C 263.345 -3.35467 -0.914172 0
M  V30 2780 H 262.668 -3.9852 -0.319687 0
M  V30 2781 H 264.108 -4.01662 -1.35808 0
M  V30 2782 C 262.567 -2.69004 -2.02826 0
M  V30 2783 O 263.097 -2.53444 -3.11655 0
M  V30 2784 N 261.303 -2.2777 -1.80469 0
M  V30 2785 H 260.85 -2.40626 -0.919615 0
M  V30 2786 H 260.808 -1.83635 -2.55197 0
M  V30 2787 N 264.58 -0.43555 -1.51462 0
M  V30 2788 C 265.827 0.131514 -2.02072 0
M  V30 2789 C 266.155 1.42868 -1.31981 0
M  V30 2790 O 265.41 1.91076 -0.422883 0
M  V30 2791 C 265.709 0.39942 -3.55161 0
M  V30 2792 C 265.375 -0.81172 -4.43533 0
M  V30 2793 C 264.037 -1.14387 -4.67407 0
M  V30 2794 C 266.389 -1.61976 -4.95392 0
M  V30 2795 C 263.717 -2.28477 -5.40384 0
M  V30 2796 C 266.069 -2.75164 -5.6962 0
M  V30 2797 C 264.733 -3.08835 -5.91758 0
M  V30 2798 H 264.003 0.0481244 -0.739436 0
M  V30 2799 H 266.65 -0.58238 -1.8243 0
M  V30 2800 H 264.955 1.19519 -3.73125 0
M  V30 2801 H 266.652 0.85157 -3.91854 0
M  V30 2802 H 263.242 -0.542898 -4.25148 0
M  V30 2803 H 267.426 -1.37637 -4.76833 0
M  V30 2804 H 262.682 -2.5488 -5.55739 0
M  V30 2805 H 266.856 -3.38147 -6.08793 0
M  V30 2806 H 264.483 -3.97353 -6.48086 0
M  V30 2807 N 266.058 1.56714 -0.166846 0
M  V30 2808 C 267.335 1.88412 0.525373 0
M  V30 2809 C 267.715 1.07602 1.81618 0
M  V30 2810 O 267.063 0.168621 2.27877 0
M  V30 2811 C 267.273 3.40363 0.771613 0
M  V30 2812 C 268.621 4.10007 1.1036 0
M  V30 2813 O 269.645 3.45655 0.860304 0
M  V30 2814 O 268.504 5.2369 1.56239 0
M  V30 2815 H 265.598 0.781587 0.270278 0
M  V30 2816 H 268.144 1.68458 -0.204946 0
M  V30 2817 H 266.916 3.91046 -0.141093 0
M  V30 2818 H 266.539 3.65914 1.55541 0
M  V30 2819 N 267.536 -0.106894 1.57237 0
M  V30 2820 C 268.466 -1.13148 2.04254 0
M  V30 2821 C 269.447 -1.42476 0.929224 0
M  V30 2822 O 270.632 -1.52709 1.19973 0
M  V30 2823 C 267.762 -2.4545 2.45706 0
M  V30 2824 C 266.716 -2.30558 3.60592 0
M  V30 2825 C 266.042 -3.67931 3.87983 0
M  V30 2826 C 267.342 -1.75597 4.91897 0
M  V30 2827 H 269.036 -0.740374 2.90101 0
M  V30 2828 H 266.582 -0.354696 1.39563 0
M  V30 2829 H 268.535 -3.17389 2.77205 0
M  V30 2830 H 267.259 -2.86475 1.56843 0
M  V30 2831 H 265.918 -1.61067 3.29322 0
M  V30 2832 H 265.566 -4.06462 2.96306 0
M  V30 2833 H 265.266 -3.58817 4.65322 0
M  V30 2834 H 266.79 -4.41356 4.21945 0
M  V30 2835 H 268.204 -2.37364 5.21854 0
M  V30 2836 H 266.601 -1.77272 5.73319 0
M  V30 2837 H 267.671 -0.714451 4.79608 0
M  V30 2838 N 269.014 -1.53014 -0.377408 0
M  V30 2839 C 269.944 -1.81589 -1.46791 0
M  V30 2840 C 270.925 -0.668622 -1.56408 0
M  V30 2841 O 272.11 -0.917337 -1.71168 0
M  V30 2842 C 269.24 -1.99519 -2.8427 0
M  V30 2843 C 268.194 -3.15249 -2.89486 0
M  V30 2844 C 267.52 -3.18451 -4.29527 0
M  V30 2845 C 268.82 -4.54084 -2.58079 0
M  V30 2846 H 270.514 -2.7291 -1.23127 0
M  V30 2847 H 268.06 -1.31319 -0.590883 0
M  V30 2848 H 270.013 -2.18092 -3.60575 0
M  V30 2849 H 268.737 -1.04897 -3.09296 0
M  V30 2850 H 267.396 -2.96477 -2.15631 0
M  V30 2851 H 267.044 -2.2149 -4.5161 0
M  V30 2852 H 266.744 -3.962 -4.33934 0
M  V30 2853 H 268.268 -3.39193 -5.07721 0
M  V30 2854 H 269.682 -4.72899 -3.24098 0
M  V30 2855 H 268.079 -5.33987 -2.7382 0
M  V30 2856 H 269.149 -4.60006 -1.53372 0
M  V30 2857 N 270.492 0.636531 -1.44174 0
M  V30 2858 C 271.717 1.42847 -1.50364 0
M  V30 2859 C 272.142 1.87665 -0.127867 0
M  V30 2860 O 271.5 1.58408 0.88185 0
M  V30 2861 C 271.548 2.62854 -2.4686 0
M  V30 2862 O 270.652 3.62501 -1.9664 0
M  V30 2863 H 269.993 0.427642 -0.507955 0
M  V30 2864 H 272.523 0.777422 -1.89255 0
M  V30 2865 H 272.533 3.10465 -2.64718 0
M  V30 2866 H 271.208 2.29578 -3.46795 0
M  V30 2867 H 269.785 3.21735 -1.88523 0
M  V30 2868 N 271.97 1.30982 0.876444 0
M  V30 2869 C 272.9 1.20668 1.99903 0
M  V30 2870 C 273.881 0.095354 1.69833 0
M  V30 2871 O 275.066 0.27885 1.92188 0
M  V30 2872 C 272.196 0.90655 3.3526 0
M  V30 2873 C 271.15 1.97675 3.79617 0
M  V30 2874 C 270.476 1.52943 5.1236 0
M  V30 2875 C 271.776 3.389 3.97422 0
M  V30 2876 H 273.47 2.14586 2.0879 0
M  V30 2877 H 271.016 1.03308 1.00317 0
M  V30 2878 H 272.969 0.821025 4.13324 0
M  V30 2879 H 271.693 -0.0682969 3.26529 0
M  V30 2880 H 270.352 2.05205 3.03787 0
M  V30 2881 H 270 0.54262 5.00065 0
M  V30 2882 H 269.7 2.24532 5.43009 0
M  V30 2883 H 271.224 1.45786 5.92941 0
M  V30 2884 H 272.638 3.34081 4.659 0
M  V30 2885 H 271.035 4.0865 4.3946 0
M  V30 2886 H 272.105 3.80163 3.01006 0
M  V30 2887 N 273.449 -1.08991 1.13837 0
M  V30 2888 C 274.379 -2.17771 0.842507 0
M  V30 2889 C 275.36 -1.6892 -0.20001 0
M  V30 2890 O 276.545 -1.94113 -0.0579731 0
M  V30 2891 C 273.675 -3.4589 0.312644 0
M  V30 2892 C 272.629 -4.08099 1.28992 0
M  V30 2893 C 271.955 -5.31098 0.619623 0
M  V30 2894 C 273.255 -4.50077 2.65005 0
M  V30 2895 H 274.949 -2.42777 1.75213 0
M  V30 2896 H 272.495 -1.16682 0.843875 0
M  V30 2897 H 274.448 -4.21297 0.0933043 0
M  V30 2898 H 273.172 -3.20419 -0.632382 0
M  V30 2899 H 271.831 -3.34717 1.49533 0
M  V30 2900 H 271.479 -5.0191 -0.33102 0
M  V30 2901 H 271.179 -5.73674 1.27167 0
M  V30 2902 H 272.703 -6.09224 0.409669 0
M  V30 2903 H 274.117 -5.16688 2.48407 0
M  V30 2904 H 272.514 -5.03553 3.26427 0
M  V30 2905 H 273.584 -3.62257 3.22332 0
M  V30 2906 N 274.927 -0.932562 -1.27047 0
M  V30 2907 C 276.338 -0.619451 -1.76124 0
M  V30 2908 C 276.689 0.865397 -1.76083 0
M  V30 2909 O 275.814 1.67722 -1.36742 0
M  V30 2910 C 276.409 -1.11771 -3.19832 0
M  V30 2911 C 274.968 -0.855174 -3.66557 0
M  V30 2912 C 274.115 -1.27362 -2.46321 0
M  V30 2913 H 277.066 -1.11181 -1.13245 0
M  V30 2914 H 277.087 -0.46759 -3.77616 0
M  V30 2915 H 276.599 -2.19842 -3.1983 0
M  V30 2916 H 274.7 0.211524 -3.71999 0
M  V30 2917 H 274.813 -1.47613 -4.55793 0
M  V30 2918 H 273.177 -0.692119 -2.45116 0
M  V30 2919 H 273.96 -2.36307 -2.49025 0
M  V30 2920 N 276.405 1.4127 -0.698611 0
M  V30 2921 C 277.816 1.84187 -0.305289 0
M  V30 2922 C 278.167 1.58449 1.15708 0
M  V30 2923 O 277.292 1.05651 1.88856 0
M  V30 2924 C 277.887 3.3435 -0.547314 0
M  V30 2925 C 276.446 3.75826 -0.207878 0
M  V30 2926 C 275.593 2.64647 -0.828099 0
M  V30 2927 H 278.544 1.30778 -0.89904 0
M  V30 2928 H 278.565 3.8001 0.192998 0
M  V30 2929 H 278.077 3.53051 -1.61172 0
M  V30 2930 H 276.178 3.62725 0.852143 0
M  V30 2931 H 276.291 4.74462 -0.665021 0
M  V30 2932 H 274.655 2.53395 -0.257458 0
M  V30 2933 H 275.438 2.86165 -1.89643 0
M  V30 2934 N 277.883 0.443576 1.51229 0
M  V30 2935 C 279.108 -0.121648 2.07043 0
M  V30 2936 C 279.533 -1.35156 1.30823 0
M  V30 2937 O 278.891 -1.7793 0.347934 0
M  V30 2938 C 278.939 -0.41624 3.5819 0
M  V30 2939 O 278.043 -1.50163 3.8409 0
M  V30 2940 H 277.384 0.000871367 0.663999 0
M  V30 2941 H 279.914 0.626706 1.94765 0
M  V30 2942 H 279.924 -0.664867 4.02546 0
M  V30 2943 H 278.599 0.482653 4.1309 0
M  V30 2944 H 277.176 -1.24248 3.51592 0
M  V30 2945 N 279.361 -1.56624 0.175154 0
M  V30 2946 C 280.607 -1.98061 -0.462976 0
M  V30 2947 C 280.962 -1.05949 -1.60601 0
M  V30 2948 O 280.255 -0.0999027 -1.91339 0
M  V30 2949 C 280.449 -3.43419 -0.989864 0
M  V30 2950 C 280.278 -4.49587 0.100583 0
M  V30 2951 C 279.048 -5.02281 0.551539 0
M  V30 2952 C 281.246 -5.06322 0.902369 0
M  V30 2953 N 279.228 -5.92088 1.62189 0
M  V30 2954 C 280.599 -5.92607 1.82256 0
M  V30 2955 C 282.654 -4.88811 0.947019 0
M  V30 2956 C 281.357 -6.63254 2.78364 0
M  V30 2957 C 283.383 -5.60182 1.89606 0
M  V30 2958 C 282.745 -6.46197 2.80372 0
M  V30 2959 H 278.844 -0.769833 -0.137409 0
M  V30 2960 H 281.428 -1.9273 0.276256 0
M  V30 2961 H 279.599 -3.49288 -1.6986 0
M  V30 2962 H 281.331 -3.7186 -1.59694 0
M  V30 2963 H 278.086 -4.73367 0.148537 0
M  V30 2964 H 278.51 -6.41696 2.15767 0
M  V30 2965 H 283.152 -4.22004 0.259304 0
M  V30 2966 H 280.87 -7.29271 3.48122 0
M  V30 2967 H 284.456 -5.48617 1.93676 0
M  V30 2968 H 283.336 -7.00453 3.52612 0
M  V30 2969 N 280.839 0.0985539 -1.57292 0
M  V30 2970 C 282.116 0.834155 -1.76921 0
M  V30 2971 C 282.496 1.97101 -0.755928 0
M  V30 2972 O 281.844 2.27474 0.216245 0
M  V30 2973 C 282.054 1.33194 -3.22584 0
M  V30 2974 C 283.402 1.77611 -3.85668 0
M  V30 2975 O 284.426 1.42825 -3.26312 0
M  V30 2976 O 283.285 2.4192 -4.90038 0
M  V30 2977 H 280.379 0.397628 -0.725135 0
M  V30 2978 H 282.925 0.0807044 -1.69508 0
M  V30 2979 H 281.697 0.517248 -3.87866 0
M  V30 2980 H 281.32 2.1475 -3.34616 0
M  V30 2981 N 282.317 1.53212 0.369288 0
M  V30 2982 C 283.547 1.72868 1.13139 0
M  V30 2983 C 283.955 0.455754 1.83629 0
M  V30 2984 O 283.298 -0.580861 1.74275 0
M  V30 2985 C 283.36 2.83667 2.20847 0
M  V30 2986 C 283.024 4.24142 1.70155 0
M  V30 2987 C 284.021 5.06619 1.16763 0
M  V30 2988 C 281.706 4.70539 1.7578 0
M  V30 2989 C 283.7 6.33581 0.696678 0
M  V30 2990 C 281.387 5.97481 1.28297 0
M  V30 2991 C 282.385 6.78833 0.753307 0
M  V30 2992 O 282.073 8.03393 0.285475 0
M  V30 2993 H 281.805 0.581707 0.344373 0
M  V30 2994 H 284.359 2.00736 0.435243 0
M  V30 2995 H 282.589 2.51265 2.93944 0
M  V30 2996 H 284.278 2.91536 2.82421 0
M  V30 2997 H 285.044 4.71948 1.11758 0
M  V30 2998 H 280.923 4.07293 2.15949 0
M  V30 2999 H 284.467 6.97027 0.282581 0
M  V30 3000 H 280.364 6.31651 1.32994 0
M  V30 3001 H 281.132 8.17497 0.405145 0
M  V30 3002 N 283.795 -0.628877 1.44509 0
M  V30 3003 C 285.041 -1.38863 1.48623 0
M  V30 3004 C 285.396 -1.92038 0.117933 0
M  V30 3005 O 284.689 -1.70853 -0.86716 0
M  V30 3006 C 284.883 -2.56995 2.48371 0
M  V30 3007 C 284.712 -2.15385 3.94765 0
M  V30 3008 C 283.482 -2.02558 4.62924 0
M  V30 3009 C 285.68 -1.74158 4.83915 0
M  V30 3010 N 283.662 -1.54534 5.94132 0
M  V30 3011 C 285.033 -1.37396 6.04584 0
M  V30 3012 C 287.088 -1.61559 4.7096 0
M  V30 3013 C 285.791 -0.892948 7.13736 0
M  V30 3014 C 287.817 -1.14862 5.80139 0
M  V30 3015 C 287.179 -0.790516 6.9995 0
M  V30 3016 H 283.278 -0.502858 0.59888 0
M  V30 3017 H 285.862 -0.72121 1.8085 0
M  V30 3018 H 284.033 -3.21362 2.1813 0
M  V30 3019 H 285.765 -3.23801 2.42766 0
M  V30 3020 H 282.52 -2.23082 4.1777 0
M  V30 3021 H 282.944 -1.32815 6.63844 0
M  V30 3022 H 287.586 -1.87876 3.78764 0
M  V30 3023 H 285.304 -0.617291 8.05739 0
M  V30 3024 H 288.89 -1.05569 5.72142 0
M  V30 3025 H 287.77 -0.434713 7.82994 0
M  V30 3026 N 285.273 -1.31445 -0.869486 0
M  V30 3027 C 286.501 -1.24122 -1.65534 0
M  V30 3028 C 286.916 0.193387 -1.87807 0
M  V30 3029 O 286.273 1.12557 -1.43656 0
M  V30 3030 C 286.324 -1.98229 -3.02304 0
M  V30 3031 O 286.045 -3.3609 -2.81026 0
M  V30 3032 C 287.546 -1.97751 -3.96749 0
M  V30 3033 H 284.766 -0.428868 -0.516055 0
M  V30 3034 H 287.31 -1.73328 -1.08525 0
M  V30 3035 H 285.465 -1.52782 -3.56001 0
M  V30 3036 H 285.879 -3.7383 -3.67902 0
M  V30 3037 H 287.353 -2.54114 -4.90031 0
M  V30 3038 H 287.83 -0.960137 -4.28577 0
M  V30 3039 H 288.436 -2.43079 -3.48988 0
M  V30 3040 N 286.751 1.08385 -1.14413 0
M  V30 3041 C 287.981 1.8425 -0.934644 0
M  V30 3042 C 288.389 1.81907 0.520234 0
M  V30 3043 O 287.732 1.22126 1.37226 0
M  V30 3044 C 287.794 3.32853 -1.35828 0
M  V30 3045 C 287.458 3.5893 -2.82875 0
M  V30 3046 C 288.455 3.53756 -3.80989 0
M  V30 3047 C 286.14 3.86934 -3.20293 0
M  V30 3048 C 288.134 3.76216 -5.14529 0
M  V30 3049 C 285.821 4.09047 -4.54008 0
M  V30 3050 C 286.819 4.03682 -5.50936 0
M  V30 3051 O 286.507 4.25214 -6.82238 0
M  V30 3052 H 286.239 0.588502 -0.332628 0
M  V30 3053 H 288.793 1.37792 -1.52324 0
M  V30 3054 H 287.023 3.8007 -0.713019 0
M  V30 3055 H 288.712 3.90154 -1.11957 0
M  V30 3056 H 289.478 3.32135 -3.53428 0
M  V30 3057 H 285.357 3.9023 -2.45442 0
M  V30 3058 H 288.901 3.71943 -5.90173 0
M  V30 3059 H 284.798 4.30151 -4.8129 0
M  V30 3060 H 285.566 4.42619 -6.88499 0
M  V30 3061 N 288.23 0.939286 1.26551 0
M  V30 3062 C 289.641 0.628782 1.75793 0
M  V30 3063 C 289.992 -0.856046 1.7654 0
M  V30 3064 O 289.117 -1.66994 1.3763 0
M  V30 3065 C 289.712 1.13465 3.19235 0
M  V30 3066 C 288.271 0.874601 3.66098 0
M  V30 3067 C 287.418 1.28667 2.45642 0
M  V30 3068 H 290.369 1.1178 1.12654 0
M  V30 3069 H 290.39 0.487609 3.77363 0
M  V30 3070 H 289.902 2.21535 3.1866 0
M  V30 3071 H 288.003 -0.191793 3.72106 0
M  V30 3072 H 288.116 1.50028 4.55004 0
M  V30 3073 H 286.48 0.705109 2.44745 0
M  V30 3074 H 287.263 2.37625 2.47769 0
M  V30 3075 N 289.708 -1.40897 0.706093 0
M  V30 3076 C 290.956 -2.00657 0.241054 0
M  V30 3077 C 291.277 -1.56241 -1.16678 0
M  V30 3078 O 290.547 -0.79765 -1.78926 0
M  V30 3079 H 289.127 -0.742018 0.0861308 0
M  V30 3080 H 291.789 -1.72372 0.909604 0
M  V30 3081 H 290.885 -3.10958 0.266705 0
M  V30 3082 N 291.186 -0.45159 -1.50991 0
M  V30 3083 C 292.411 0.110667 -2.07105 0
M  V30 3084 C 292.836 1.3446 -1.31538 0
M  V30 3085 O 292.194 1.77743 -0.357365 0
M  V30 3086 C 292.242 0.397238 -3.58405 0
M  V30 3087 O 291.346 1.48124 -3.84881 0
M  V30 3088 H 290.687 -0.00439271 -0.663985 0
M  V30 3089 H 293.217 -0.637026 -1.9443 0
M  V30 3090 H 293.227 0.64351 -4.02893 0
M  V30 3091 H 291.902 -0.504553 -4.12828 0
M  V30 3092 H 290.479 1.22381 -3.52246 0
M  V30 3093 N 292.664 1.56529 -0.183458 0
M  V30 3094 C 293.594 2.21549 0.737456 0
M  V30 3095 C 294.575 1.17489 1.23005 0
M  V30 3096 O 295.76 1.45959 1.281 0
M  V30 3097 C 292.89 2.86575 1.96194 0
M  V30 3098 C 291.844 3.96778 1.60473 0
M  V30 3099 C 291.17 4.48911 2.90487 0
M  V30 3100 C 292.47 5.15767 0.823497 0
M  V30 3101 H 294.164 2.98761 0.195453 0
M  V30 3102 H 291.71 1.43702 0.0925686 0
M  V30 3103 H 293.663 3.30739 2.61131 0
M  V30 3104 H 292.387 2.06749 2.52828 0
M  V30 3105 H 291.046 3.53286 0.978997 0
M  V30 3106 H 290.694 3.65862 3.45186 0
M  V30 3107 H 290.394 5.23265 2.67335 0
M  V30 3108 H 291.918 4.95771 3.56432 0
M  V30 3109 H 293.332 5.56549 1.37571 0
M  V30 3110 H 291.729 5.96114 0.690551 0
M  V30 3111 H 292.799 4.84574 -0.177782 0
M  V30 3112 N 294.142 -0.090211 1.57342 0
M  V30 3113 C 295.37 -0.806224 1.90546 0
M  V30 3114 C 295.785 -1.72041 0.777644 0
M  V30 3115 O 295.142 -1.80778 -0.250103 0
M  V30 3116 C 295.193 -1.61546 3.23396 0
M  V30 3117 O 294.914 -0.738043 4.31839 0
M  V30 3118 C 296.415 -2.4341 3.70495 0
M  V30 3119 H 293.635 -0.230256 0.630257 0
M  V30 3120 H 296.179 -0.0659843 2.04394 0
M  V30 3121 H 294.334 -2.30816 3.11131 0
M  V30 3122 H 294.748 -1.29901 5.08159 0
M  V30 3123 H 296.222 -2.95676 4.66133 0
M  V30 3124 H 296.699 -3.22098 2.98579 0
M  V30 3125 H 297.305 -1.79331 3.85643 0
M  V30 3126 N 295.62 -1.53406 -0.361157 0
M  V30 3127 C 296.866 -1.70054 -1.10496 0
M  V30 3128 C 297.199 -0.453278 -1.88836 0
M  V30 3129 O 296.474 0.5495 -1.86576 0
M  V30 3130 C 296.757 -2.95317 -2.06058 0
M  V30 3131 C 296.61 -4.3021 -1.31298 0
M  V30 3132 C 297.929 -3.16193 -3.06121 0
M  V30 3133 H 295.048 -0.618799 -0.400321 0
M  V30 3134 H 297.69 -1.86052 -0.385318 0
M  V30 3135 H 295.84 -2.81809 -2.67425 0
M  V30 3136 H 297.512 -4.55538 -0.726807 0
M  V30 3137 H 295.755 -4.29421 -0.614853 0
M  V30 3138 H 296.426 -5.14 -2.01265 0
M  V30 3139 H 298.902 -3.28916 -2.5486 0
M  V30 3140 H 297.778 -4.05266 -3.70204 0
M  V30 3141 H 298.039 -2.31676 -3.76535 0
M  V30 3142 N 297.098 0.621204 -1.44841 0
M  V30 3143 C 298.509 1.20298 -1.42777 0
M  V30 3144 C 298.86 1.95639 -0.148259 0
M  V30 3145 O 297.985 2.02955 0.750892 0
M  V30 3146 C 298.58 2.1882 -2.58657 0
M  V30 3147 C 297.139 2.72403 -2.59756 0
M  V30 3148 C 296.286 1.4757 -2.34773 0
M  V30 3149 H 299.237 0.411297 -1.53278 0
M  V30 3150 H 299.258 3.01607 -2.31977 0
M  V30 3151 H 298.77 1.63957 -3.51766 0
M  V30 3152 H 296.871 3.31242 -1.70615 0
M  V30 3153 H 296.984 3.17765 -3.58556 0
M  V30 3154 H 295.348 1.76051 -1.8406 0
M  V30 3155 H 296.131 0.945954 -3.3001 0
M  V30 3156 N 298.576 1.31904 0.862503 0
M  V30 3157 C 299.987 1.19803 1.43193 0
M  V30 3158 C 300.338 -0.192567 1.95253 0
M  V30 3159 O 299.463 -1.09081 1.86896 0
M  V30 3160 C 300.058 2.16883 2.60283 0
M  V30 3161 C 298.617 2.08692 3.13248 0
M  V30 3162 C 297.764 2.05691 1.85975 0
M  V30 3163 H 300.715 1.43846 0.670365 0
M  V30 3164 H 300.736 1.76278 3.37204 0
M  V30 3165 H 300.248 3.18083 2.22363 0
M  V30 3166 H 298.349 1.10713 3.55771 0
M  V30 3167 H 298.462 2.9815 3.75025 0
M  V30 3168 H 296.826 1.50814 2.05249 0
M  V30 3169 H 297.609 3.08659 1.50282 0
M  V30 3170 N 300.054 -1.07777 1.14986 0
M  V30 3171 C 300.984 -2.16865 0.865557 0
M  V30 3172 C 301.965 -1.69123 -0.182083 0
M  V30 3173 O 303.15 -1.94164 -0.0373815 0
M  V30 3174 C 300.28 -3.45539 0.349313 0
M  V30 3175 C 299.234 -4.06708 1.33313 0
M  V30 3176 C 298.56 -5.30411 0.675918 0
M  V30 3177 C 299.86 -4.47241 2.69764 0
M  V30 3178 H 301.554 -2.40905 1.77778 0
M  V30 3179 H 299.1 -1.15781 0.856203 0
M  V30 3180 H 301.053 -4.21174 0.137983 0
M  V30 3181 H 299.777 -3.21072 -0.598362 0
M  V30 3182 H 298.436 -3.33112 1.53075 0
M  V30 3183 H 298.084 -5.02232 -0.277767 0
M  V30 3184 H 297.784 -5.72293 1.33244 0
M  V30 3185 H 299.308 -6.08755 0.474262 0
M  V30 3186 H 300.722 -5.14025 2.53873 0
M  V30 3187 H 299.119 -5.00062 3.3175 0
M  V30 3188 H 300.189 -3.58818 3.26156 0
M  V30 3189 N 301.532 -0.945985 -1.26051 0
M  V30 3190 C 302.462 -0.477172 -2.28572 0
M  V30 3191 C 303.443 0.472032 -1.63419 0
M  V30 3192 O 304.628 0.372853 -1.90587 0
M  V30 3193 C 301.758 0.253975 -3.4637 0
M  V30 3194 C 300.712 -0.609135 -4.23643 0
M  V30 3195 C 300.038 0.252252 -5.34105 0
M  V30 3196 C 301.338 -1.8829 -4.8718 0
M  V30 3197 H 303.032 -1.33402 -2.68038 0
M  V30 3198 H 300.578 -0.642904 -1.28852 0
M  V30 3199 H 302.531 0.593016 -4.17207 0
M  V30 3200 H 301.255 1.145 -3.05871 0
M  V30 3201 H 299.914 -0.931138 -3.54578 0
M  V30 3202 H 299.562 1.14278 -4.89846 0
M  V30 3203 H 299.262 -0.32188 -5.86718 0
M  V30 3204 H 300.786 0.586454 -6.07777 0
M  V30 3205 H 302.2 -1.61081 -5.50205 0
M  V30 3206 H 300.597 -2.40199 -5.49931 0
M  V30 3207 H 301.667 -2.59134 -4.09851 0
M  V30 3208 N 303.011 1.40521 -0.713556 0
M  V30 3209 C 303.921 2.34522 -0.0606667 0
M  V30 3210 C 304.937 1.57193 0.74607 0
M  V30 3211 O 306.113 1.89591 0.679493 0
M  V30 3212 C 303.178 3.36081 0.851491 0
M  V30 3213 C 302.239 4.29286 0.0349339 0
M  V30 3214 C 301.472 5.25994 0.903649 0
M  V30 3215 O 301.695 5.28616 2.14292 0
M  V30 3216 O 300.629 6.00918 0.343723 0
M  V30 3217 H 304.455 2.91968 -0.835972 0
M  V30 3218 H 302.04 1.41681 -0.47402 0
M  V30 3219 H 303.922 3.98369 1.37404 0
M  V30 3220 H 302.597 2.81052 1.60598 0
M  V30 3221 H 301.504 3.70289 -0.532633 0
M  V30 3222 H 302.837 4.87462 -0.681287 0
M  V30 3223 N 304.489 0.459591 1.5075 0
M  V30 3224 C 305.714 -0.0996819 2.0716 0
M  V30 3225 C 306.139 -1.33761 1.32249 0
M  V30 3226 O 305.497 -1.77551 0.366786 0
M  V30 3227 C 305.545 -0.378226 3.58611 0
M  V30 3228 O 304.649 -1.46081 3.85661 0
M  V30 3229 H 303.99 0.00791392 0.663953 0
M  V30 3230 H 306.52 0.647329 1.9409 0
M  V30 3231 H 306.53 -0.622135 4.03229 0
M  V30 3232 H 305.205 0.526439 4.12555 0
M  V30 3233 H 303.782 -1.20511 3.5289 0
M  V30 3234 N 305.967 -1.56429 0.191757 0
M  V30 3235 C 307.213 -1.97777 -0.448554 0
M  V30 3236 C 307.546 -1.07847 -1.61501 0
M  V30 3237 O 306.821 -0.129774 -1.94067 0
M  V30 3238 C 307.104 -3.48362 -0.911906 0
M  V30 3239 C 306.957 -4.4907 0.256136 0
M  V30 3240 C 308.276 -4.02561 -1.77857 0
M  V30 3241 H 305.395 -0.719071 -0.161572 0
M  V30 3242 H 308.037 -1.87896 0.282007 0
M  V30 3243 H 306.187 -3.56914 -1.53442 0
M  V30 3244 H 307.859 -4.5256 0.893733 0
M  V30 3245 H 306.102 -4.24181 0.908436 0
M  V30 3246 H 306.773 -5.51889 -0.11053 0
M  V30 3247 H 309.249 -3.96767 -1.25359 0
M  V30 3248 H 308.125 -5.08301 -2.07174 0
M  V30 3249 H 308.386 -3.47616 -2.73158 0
M  V30 3250 N 307.445 0.0818655 -1.57387 0
M  V30 3251 C 308.673 0.796108 -1.9097 0
M  V30 3252 C 309.088 1.71626 -0.786757 0
M  V30 3253 O 308.445 1.80908 0.240513 0
M  V30 3254 C 308.496 1.59829 -3.24248 0
M  V30 3255 O 308.217 0.715131 -4.32224 0
M  V30 3256 C 309.718 2.41442 -3.7178 0
M  V30 3257 H 306.938 0.22691 -0.631469 0
M  V30 3258 H 309.482 0.0551439 -2.04426 0
M  V30 3259 H 307.637 2.29163 -3.12351 0
M  V30 3260 H 308.051 1.27205 -5.08841 0
M  V30 3261 H 309.525 2.932 -4.67694 0
M  V30 3262 H 310.002 3.2051 -3.00283 0
M  V30 3263 H 310.608 1.77283 -3.86589 0
M  V30 3264 N 308.923 1.53595 0.353017 0
M  V30 3265 C 310.169 1.71581 1.09232 0
M  V30 3266 C 310.524 0.468328 1.86613 0
M  V30 3267 O 309.817 -0.538911 1.83865 0
M  V30 3268 C 310.011 2.91313 2.07054 0
M  V30 3269 C 309.84 4.27585 1.39287 0
M  V30 3270 C 308.61 4.92233 1.1417 0
M  V30 3271 C 310.808 5.07656 0.824005 0
M  V30 3272 N 308.79 6.124 0.428841 0
M  V30 3273 C 310.161 6.19531 0.241195 0
M  V30 3274 C 312.216 4.92609 0.723922 0
M  V30 3275 C 310.919 7.18002 -0.431952 0
M  V30 3276 C 312.945 5.91365 0.0645334 0
M  V30 3277 C 312.307 7.02571 -0.507347 0
M  V30 3278 H 308.406 0.680987 0.384422 0
M  V30 3279 H 310.99 1.91013 0.377096 0
M  V30 3280 H 309.161 2.73398 2.75877 0
M  V30 3281 H 310.893 2.98062 2.73753 0
M  V30 3282 H 307.648 4.51612 1.42631 0
M  V30 3283 H 308.072 6.76944 0.0874131 0
M  V30 3284 H 312.714 4.06808 1.15181 0
M  V30 3285 H 310.432 8.03384 -0.871758 0
M  V30 3286 H 314.018 5.81799 -0.0121469 0
M  V30 3287 H 312.898 7.77675 -1.0095 0
M  V30 3288 N 310.401 -0.613514 1.45168 0
M  V30 3289 C 311.65 -1.36874 1.4815 0
M  V30 3290 C 311.963 -1.952 0.124982 0
M  V30 3291 O 313.169 -2.71481 0.0324176 0
M  V30 3292 C 311.625 -2.47905 2.60904 0
M  V30 3293 C 311.233 -1.96016 4.02842 0
M  V30 3294 C 312.977 -3.24965 2.73126 0
M  V30 3295 C 310.884 -3.04494 5.06988 0
M  V30 3296 H 309.814 -0.514428 0.551253 0
M  V30 3297 H 312.465 -0.658182 1.7129 0
M  V30 3298 H 310.847 -3.21618 2.31037 0
M  V30 3299 H 312.021 -1.29051 4.4236 0
M  V30 3300 H 310.336 -1.31719 3.95018 0
M  V30 3301 H 312.933 -4.05865 3.48106 0
M  V30 3302 H 313.276 -3.75588 1.79553 0
M  V30 3303 H 313.809 -2.5835 3.0249 0
M  V30 3304 H 310.548 -2.58795 6.0225 0
M  V30 3305 H 310.068 -3.70044 4.72046 0
M  V30 3306 H 311.747 -3.68976 5.31475 0
M  V30 3307 N 311.879 -1.3236 -0.855495 0
M  V30 3308 C 313.125 -1.23054 -1.612 0
M  V30 3309 C 313.458 0.207404 -1.93089 0
M  V30 3310 O 312.733 1.14432 -1.57275 0
M  V30 3311 C 313.016 -2.08937 -2.93287 0
M  V30 3312 C 312.869 -3.61105 -2.68185 0
M  V30 3313 C 314.188 -1.94986 -3.94549 0
M  V30 3314 H 311.307 -0.448364 -0.584926 0
M  V30 3315 H 313.949 -1.62297 -0.987917 0
M  V30 3316 H 312.099 -1.75599 -3.46551 0
M  V30 3317 H 313.771 -4.04652 -2.21483 0
M  V30 3318 H 312.014 -3.83813 -2.02164 0
M  V30 3319 H 312.685 -4.16522 -3.62234 0
M  V30 3320 H 315.161 -2.24189 -3.5054 0
M  V30 3321 H 314.037 -2.57356 -4.84829 0
M  V30 3322 H 314.298 -0.917263 -4.3248 0
M  V30 3323 N 313.357 1.07166 -1.15556 0
M  V30 3324 C 314.287 2.16403 -0.877046 0
M  V30 3325 C 315.268 1.69217 0.173111 0
M  V30 3326 O 316.453 1.94181 0.027084 0
M  V30 3327 C 313.583 3.45349 -0.367632 0
M  V30 3328 C 312.537 4.05995 -1.35468 0
M  V30 3329 C 311.863 5.30045 -0.704038 0
M  V30 3330 C 313.163 4.45804 -2.72132 0
M  V30 3331 H 314.857 2.39959 -1.79053 0
M  V30 3332 H 312.403 1.15325 -0.862331 0
M  V30 3333 H 314.356 4.21095 -0.160317 0
M  V30 3334 H 313.08 3.21385 0.581326 0
M  V30 3335 H 311.739 3.32296 -1.54839 0
M  V30 3336 H 311.387 5.02373 0.251128 0
M  V30 3337 H 311.087 5.71579 -1.36277 0
M  V30 3338 H 312.611 6.08495 -0.50654 0
M  V30 3339 H 314.025 5.12671 -2.56595 0
M  V30 3340 H 312.422 4.98296 -3.34397 0
M  V30 3341 H 313.492 3.57083 -3.28054 0
M  V30 3342 N 314.835 0.952656 1.25548 0
M  V30 3343 C 315.782 0.47008 2.25962 0
M  V30 3344 C 316.752 -0.476384 1.59122 0
M  V30 3345 O 317.937 -0.39007 1.8677 0
M  V30 3346 C 315.077 -0.247881 3.44209 0
M  V30 3347 C 314.19 0.735591 4.25691 0
M  V30 3348 C 313.325 -0.0047306 5.312 0
M  V30 3349 C 312.364 0.969805 6.04368 0
M  V30 3350 N 311.501 0.260486 7.01617 0
M  V30 3351 H 316.341 1.33126 2.66611 0
M  V30 3352 H 313.878 0.66765 1.31076 0
M  V30 3353 H 315.836 -0.680695 4.1161 0
M  V30 3354 H 314.466 -1.07312 3.0444 0
M  V30 3355 H 313.518 1.28689 3.57971 0
M  V30 3356 H 314.83 1.47934 4.76358 0
M  V30 3357 H 313.984 -0.496275 6.04667 0
M  V30 3358 H 312.723 -0.781282 4.81401 0
M  V30 3359 H 311.728 1.47237 5.29718 0
M  V30 3360 H 312.953 1.74655 6.56256 0
M  V30 3361 H 310.899 -0.497364 6.54112 0
M  V30 3362 H 310.816 0.943362 7.50091 0
M  V30 3363 H 312.084 -0.209587 7.79218 0
M  V30 3364 N 316.313 -1.40141 0.720998 0
M  V30 3365 C 317.245 -2.29177 0.0324669 0
M  V30 3366 C 318.258 -1.46105 -0.718126 0
M  V30 3367 O 319.447 -1.69335 -0.564608 0
M  V30 3368 C 316.547 -3.24473 -0.978292 0
M  V30 3369 C 315.72 -4.36423 -0.292115 0
M  V30 3370 C 314.779 -5.12122 -1.20901 0
M  V30 3371 O 313.805 -5.64981 -0.691766 0
M  V30 3372 N 315.007 -5.21992 -2.53978 0
M  V30 3373 H 317.772 -2.88909 0.796984 0
M  V30 3374 H 315.333 -1.51569 0.569068 0
M  V30 3375 H 317.325 -3.71987 -1.59398 0
M  V30 3376 H 315.895 -2.65871 -1.64413 0
M  V30 3377 H 315.115 -3.90967 0.503847 0
M  V30 3378 H 316.403 -5.08467 0.183971 0
M  V30 3379 H 315.801 -4.8054 -2.98493 0
M  V30 3380 H 314.358 -5.72995 -3.10677 0
M  V30 3381 N 317.792 -0.46758 -1.50504 0
M  V30 3382 C 319.203 -0.0116166 -1.86696 0
M  V30 3383 C 319.554 1.39202 -1.38265 0
M  V30 3384 O 318.679 2.0313 -0.746132 0
M  V30 3385 C 319.274 -0.0143044 -3.38797 0
M  V30 3386 C 317.833 0.386175 -3.74414 0
M  V30 3387 C 316.98 -0.401287 -2.74381 0
M  V30 3388 H 319.931 -0.682022 -1.43297 0
M  V30 3389 H 319.952 0.788641 -3.72237 0
M  V30 3390 H 319.464 -1.03602 -3.74016 0
M  V30 3391 H 317.565 1.41237 -3.44794 0
M  V30 3392 H 317.678 0.0899596 -4.79016 0
M  V30 3393 H 316.042 0.144536 -2.5429 0
M  V30 3394 H 316.825 -1.42244 -3.12444 0
M  V30 3395 N 319.27 1.56325 -0.20005 0
M  V30 3396 C 320.519 1.96895 0.437652 0
M  V30 3397 C 320.832 1.08999 1.62415 0
M  V30 3398 O 322.038 1.39372 2.32997 0
M  V30 3399 C 320.494 3.50198 0.830025 0
M  V30 3400 C 320.102 4.46765 -0.332461 0
M  V30 3401 C 321.846 3.99526 1.43453 0
M  V30 3402 C 319.753 5.91344 0.0811468 0
M  V30 3403 H 318.683 0.735209 0.167282 0
M  V30 3404 H 321.334 1.81148 -0.292853 0
M  V30 3405 H 319.716 3.61467 1.61734 0
M  V30 3406 H 320.89 4.47231 -1.11 0
M  V30 3407 H 319.205 4.07657 -0.848789 0
M  V30 3408 H 321.802 5.05025 1.75652 0
M  V30 3409 H 322.145 3.44122 2.34277 0
M  V30 3410 H 322.678 3.91393 0.71109 0
M  V30 3411 H 319.417 6.50685 -0.793033 0
M  V30 3412 H 318.937 5.94121 0.823445 0
M  V30 3413 H 320.616 6.44945 0.515252 0
M  V30 3414 N 320.748 -0.0735177 1.57428 0
M  V30 3415 C 321.696 -1.10628 2.04607 0
M  V30 3416 C 322.69 -1.40181 0.951088 0
M  V30 3417 O 323.896 -1.39608 1.1362 0
M  V30 3418 H 320.271 -0.374088 0.652351 0
M  V30 3419 H 322.242 -0.682218 2.90497 0
M  V30 3420 C 320.991 -2.41212 2.50423 0
M  V30 3421 H 320.314 -2.19322 3.34272 0
M  V30 3422 H 321.754 -3.11927 2.87189 0
M  V30 3423 C 320.213 -3.0705 1.38644 0
M  V30 3424 O 320.743 -3.95056 0.727582 0
M  V30 3425 N 318.949 -2.67645 1.132 0
M  V30 3426 H 318.496 -1.96169 1.66959 0
M  V30 3427 H 318.454 -3.1202 0.386147 0
M  V30 3428 N 322.226 -1.5378 -0.344866 0
M  V30 3429 C 323.475 -1.7018 -1.08267 0
M  V30 3430 C 323.788 -0.471 -1.89845 0
M  V30 3431 O 324.994 -0.515917 -2.66553 0
M  V30 3432 C 323.45 -3.00923 -1.97417 0
M  V30 3433 C 323.058 -4.31335 -1.21053 0
M  V30 3434 C 324.802 -3.26688 -2.71063 0
M  V30 3435 C 322.709 -5.53153 -2.09225 0
M  V30 3436 H 321.639 -0.634138 -0.407903 0
M  V30 3437 H 324.29 -1.8028 -0.342246 0
M  V30 3438 H 322.672 -2.84676 -2.75274 0
M  V30 3439 H 323.846 -4.58281 -0.481159 0
M  V30 3440 H 322.161 -4.12173 -0.591813 0
M  V30 3441 H 324.758 -4.1489 -3.37299 0
M  V30 3442 H 325.101 -2.43639 -3.37558 0
M  V30 3443 H 325.634 -3.43705 -2.0028 0
M  V30 3444 H 322.373 -6.38741 -1.47274 0
M  V30 3445 H 321.893 -5.30458 -2.79955 0
M  V30 3446 H 323.572 -5.88744 -2.68308 0
M  V30 3447 N 323.704 0.605807 -1.45491 0
M  V30 3448 C 324.929 1.39625 -1.53361 0
M  V30 3449 C 325.354 1.87351 -0.167645 0
M  V30 3450 O 324.712 1.60243 0.848051 0
M  V30 3451 C 324.76 2.57559 -2.5238 0
M  V30 3452 O 323.864 3.58248 -2.04285 0
M  V30 3453 H 323.205 0.416771 -0.516912 0
M  V30 3454 H 325.735 0.737103 -1.90861 0
M  V30 3455 H 325.745 3.0478 -2.71244 0
M  V30 3456 H 324.42 2.22171 -3.51586 0
M  V30 3457 H 322.997 3.17664 -1.95305 0
M  V30 3458 N 325.182 1.32811 0.848464 0
M  V30 3459 C 326.407 1.26882 1.6406 0
M  V30 3460 C 326.832 -0.15913 1.87426 0
M  V30 3461 O 326.19 -1.11258 1.43148 0
M  V30 3462 C 326.238 2.03997 2.97351 0
M  V30 3463 O 325.342 1.39201 3.88197 0
M  V30 3464 H 324.683 0.436982 0.499943 0
M  V30 3465 H 327.213 1.75224 1.0563 0
M  V30 3466 H 327.223 2.14403 3.47124 0
M  V30 3467 H 325.898 3.0783 2.79666 0
M  V30 3468 H 324.475 1.37381 3.46671 0
M  V30 3469 N 326.66 -1.06551 1.16123 0
M  V30 3470 C 327.592 -2.13908 0.823171 0
M  V30 3471 C 328.605 -1.61926 -0.16843 0
M  V30 3472 O 329.794 -1.78412 0.055962 0
M  V30 3473 C 326.894 -3.38283 0.204424 0
M  V30 3474 C 326.067 -4.19589 1.23548 0
M  V30 3475 C 325.126 -5.2233 0.637011 0
M  V30 3476 O 324.152 -5.54034 1.30516 0
M  V30 3477 N 325.354 -5.77621 -0.577474 0
M  V30 3478 H 328.119 -2.43508 1.74711 0
M  V30 3479 H 325.68 -1.2253 1.05821 0
M  V30 3480 H 327.672 -4.0416 -0.208909 0
M  V30 3481 H 326.242 -3.06329 -0.623012 0
M  V30 3482 H 325.462 -3.49406 1.82507 0
M  V30 3483 H 326.75 -4.70718 1.93137 0
M  V30 3484 H 326.148 -5.54125 -1.13853 0
M  V30 3485 H 324.705 -6.45087 -0.933053 0
M  V30 3486 N 328.138 -0.959301 -1.25041 0
M  V30 3487 C 329.07 -0.440543 -2.24926 0
M  V30 3488 C 330.083 0.446131 -1.56568 0
M  V30 3489 O 331.272 0.253657 -1.76689 0
M  V30 3490 C 328.372 0.38412 -3.36716 0
M  V30 3491 C 327.545 -0.490658 -4.34639 0
M  V30 3492 C 326.604 0.276587 -5.25473 0
M  V30 3493 O 325.63 -0.326614 -5.68262 0
M  V30 3494 N 326.832 1.56844 -5.5891 0
M  V30 3495 H 329.597 -1.29931 -2.70071 0
M  V30 3496 H 327.158 -0.830181 -1.38995 0
M  V30 3497 H 329.15 0.905228 -3.94446 0
M  V30 3498 H 327.72 1.14377 -2.90924 0
M  V30 3499 H 326.94 -1.19282 -3.7572 0
M  V30 3500 H 328.228 -1.08756 -4.97041 0
M  V30 3501 H 327.626 2.08036 -5.26059 0
M  V30 3502 H 326.183 2.03541 -6.19205 0
M  V30 3503 N 329.616 1.39756 -0.72842 0
M  V30 3504 C 330.546 2.33289 -0.0991354 0
M  V30 3505 C 331.527 1.53568 0.731489 0
M  V30 3506 O 332.712 1.81987 0.677807 0
M  V30 3507 C 329.842 3.3763 0.813834 0
M  V30 3508 C 328.796 4.2791 0.0878663 0
M  V30 3509 C 328.122 5.22894 1.11741 0
M  V30 3510 C 329.422 5.11314 -1.06563 0
M  V30 3511 H 331.116 2.86163 -0.880408 0
M  V30 3512 H 328.662 1.37591 -0.424819 0
M  V30 3513 H 330.615 4.0201 1.26355 0
M  V30 3514 H 329.339 2.83181 1.62715 0
M  V30 3515 H 327.998 3.65 -0.342159 0
M  V30 3516 H 327.646 4.64744 1.92412 0
M  V30 3517 H 327.346 5.84143 0.636477 0
M  V30 3518 H 328.87 5.90151 1.56697 0
M  V30 3519 H 330.284 5.69076 -0.694671 0
M  V30 3520 H 328.681 5.81671 -1.47577 0
M  V30 3521 H 329.751 4.46534 -1.89038 0
M  V30 3522 N 331.094 0.475555 1.50254 0
M  V30 3523 C 332.057 -0.305016 2.27161 0
M  V30 3524 C 333.057 -0.916519 1.32123 0
M  V30 3525 O 334.247 -0.785003 1.5551 0
M  V30 3526 C 331.379 -1.43496 3.09227 0
M  V30 3527 H 332.572 0.369511 2.97615 0
M  V30 3528 H 330.125 0.229747 1.54602 0
M  V30 3529 H 330.86 -2.14441 2.43281 0
M  V30 3530 H 330.645 -1.00223 3.79075 0
M  V30 3531 H 332.135 -1.98548 3.67381 0
M  V30 3532 N 332.573 -1.56217 0.208337 0
M  V30 3533 C 333.52 -2.19699 -0.707192 0
M  V30 3534 C 334.49 -1.14836 -1.20008 0
M  V30 3535 O 335.675 -1.4314 -1.26157 0
M  V30 3536 C 332.815 -2.87061 -1.91546 0
M  V30 3537 C 331.928 -4.06483 -1.46271 0
M  V30 3538 C 331.063 -4.61665 -2.62752 0
M  V30 3539 C 330.102 -5.73417 -2.14147 0
M  V30 3540 N 329.239 -6.22948 -3.23853 0
M  V30 3541 H 334.079 -2.97575 -0.159111 0
M  V30 3542 H 331.616 -1.46948 -0.0667874 0
M  V30 3543 H 333.574 -3.24294 -2.62468 0
M  V30 3544 H 332.204 -2.11725 -2.43664 0
M  V30 3545 H 331.256 -3.74825 -0.648886 0
M  V30 3546 H 332.568 -4.87271 -1.06622 0
M  V30 3547 H 331.722 -5.01272 -3.41776 0
M  V30 3548 H 330.461 -3.80013 -3.05682 0
M  V30 3549 H 329.466 -5.33326 -1.33581 0
M  V30 3550 H 330.691 -6.56897 -1.72232 0
M  V30 3551 H 328.637 -5.44213 -3.6629 0
M  V30 3552 H 328.554 -6.98823 -2.88414 0
M  V30 3553 H 329.822 -6.6721 -4.03052 0
M  V30 3554 N 334.051 0.0651679 -1.57465 0
M  V30 3555 C 335.298 0.763063 -1.87573 0
M  V30 3556 C 335.626 1.77242 -0.800961 0
M  V30 3557 O 334.881 1.94651 0.202316 0
M  V30 3558 C 335.18 1.50081 -3.24362 0
M  V30 3559 C 334.846 0.630816 -4.46466 0
M  V30 3560 C 333.508 0.391082 -4.79608 0
M  V30 3561 C 335.86 0.0279465 -5.21193 0
M  V30 3562 C 333.188 -0.460894 -5.84887 0
M  V30 3563 C 335.54 -0.811522 -6.27373 0
M  V30 3564 C 334.204 -1.06106 -6.59013 0
M  V30 3565 H 333.474 0.279224 -0.686378 0
M  V30 3566 H 336.121 0.0236726 -1.91485 0
M  V30 3567 H 334.426 2.31258 -3.16271 0
M  V30 3568 H 336.123 2.04571 -3.44894 0
M  V30 3569 H 332.713 0.8278 -4.2053 0
M  V30 3570 H 336.897 0.200262 -4.95896 0
M  V30 3571 H 332.153 -0.662907 -6.07796 0
M  V30 3572 H 336.327 -1.28537 -6.84435 0
M  V30 3573 H 333.954 -1.723 -7.40417 0
M  V30 3574 N 335.529 1.53961 0.336706 0
M  V30 3575 C 336.945 1.44378 0.680241 0
M  V30 3576 C 337.145 0.606034 1.9217 0
M  V30 3577 O 336.201 0.099688 2.52303 0
M  V30 3578 C 337.514 2.87945 0.8665 0
M  V30 3579 C 339.062 2.97763 0.964682 0
M  V30 3580 C 339.537 4.42453 1.18321 0
M  V30 3581 N 341.028 4.46008 1.25025 0
M  V30 3582 C 341.763 5.55102 1.43697 0
M  V30 3583 N 341.259 6.7419 1.59498 0
M  V30 3584 N 343.052 5.42727 1.463 0
M  V30 3585 H 335.203 2.06918 -0.479455 0
M  V30 3586 H 337.466 0.935634 -0.152619 0
M  V30 3587 H 337.172 3.51691 0.0256937 0
M  V30 3588 H 337.046 3.33293 1.76623 0
M  V30 3589 H 339.433 2.34153 1.796 0
M  V30 3590 H 339.514 2.55766 0.041708 0
M  V30 3591 H 339.158 5.06645 0.356788 0
M  V30 3592 H 339.088 4.82048 2.11985 0
M  V30 3593 H 341.579 3.60196 1.14312 0
M  V30 3594 H 341.892 7.53095 1.734 0
M  V30 3595 H 340.237 6.77123 1.56621 0
M  V30 3596 H 343.428 4.48647 1.33543 0
M  V30 3597 H 343.601 6.27806 1.6051 0
M  V30 3598 N 337.007 -0.598083 1.45811 0
M  V30 3599 C 338.232 -1.3881 1.54099 0
M  V30 3600 C 338.657 -1.8726 0.177578 0
M  V30 3601 O 338.015 -1.6069 -0.839541 0
M  V30 3602 C 338.063 -2.56217 2.53743 0
M  V30 3603 O 337.167 -3.5716 2.06182 0
M  V30 3604 H 336.508 -0.414024 0.519115 0
M  V30 3605 H 339.038 -0.726971 1.91249 0
M  V30 3606 H 339.048 -3.03337 2.72856 0
M  V30 3607 H 337.723 -2.20303 3.5276 0
M  V30 3608 H 336.3 -3.16624 1.96987 0
M  V30 3609 N 338.485 -1.33259 -0.841409 0
M  V30 3610 C 339.415 -1.25926 -1.96634 0
M  V30 3611 C 340.396 -0.140349 -1.6952 0
M  V30 3612 O 341.581 -0.329707 -1.91381 0
M  V30 3613 C 338.711 -0.99512 -3.32738 0
M  V30 3614 C 337.665 -2.0767 -3.74242 0
M  V30 3615 C 336.991 -1.66474 -5.08125 0
M  V30 3616 C 338.291 -3.49318 -3.88297 0
M  V30 3617 H 339.985 -2.20046 -2.03027 0
M  V30 3618 H 337.531 -1.05931 -0.975425 0
M  V30 3619 H 339.484 -0.930323 -4.11002 0
M  V30 3620 H 338.208 -0.0183004 -3.26595 0
M  V30 3621 H 336.867 -2.13187 -2.98239 0
M  V30 3622 H 336.515 -0.675012 -4.9845 0
M  V30 3623 H 336.215 -2.3885 -5.36865 0
M  V30 3624 H 337.739 -1.61455 -5.88867 0
M  V30 3625 H 339.153 -3.46316 -4.56879 0
M  V30 3626 H 337.55 -4.20158 -4.28471 0
M  V30 3627 H 338.62 -3.8801 -2.9082 0
M  V30 3628 N 339.963 1.05934 -1.16686 0
M  V30 3629 C 340.893 2.1546 -0.899949 0
M  V30 3630 C 341.874 1.69391 0.155154 0
M  V30 3631 O 343.059 1.94199 0.00648693 0
M  V30 3632 C 340.189 3.44939 -0.404241 0
M  V30 3633 C 339.143 4.04536 -1.39767 0
M  V30 3634 C 338.469 5.29268 -0.760216 0
M  V30 3635 C 339.769 4.42893 -2.76845 0
M  V30 3636 H 341.463 2.38046 -1.81588 0
M  V30 3637 H 339.009 1.14404 -0.874514 0
M  V30 3638 H 340.962 4.20901 -0.204971 0
M  V30 3639 H 339.686 3.21983 0.547206 0
M  V30 3640 H 338.345 3.30635 -1.58355 0
M  V30 3641 H 337.993 5.02611 0.197831 0
M  V30 3642 H 337.693 5.70101 -1.42332 0
M  V30 3643 H 339.217 6.07924 -0.57105 0
M  V30 3644 H 340.631 5.09921 -2.62019 0
M  V30 3645 H 339.028 4.94721 -3.39663 0
M  V30 3646 H 340.098 3.53584 -3.31823 0
M  V30 3647 N 341.441 0.965919 1.2453 0
M  V30 3648 C 342.681 0.634656 1.94297 0
M  V30 3649 C 343.045 -0.814822 1.73852 0
M  V30 3650 O 344.246 -1.25622 2.3764 0
M  V30 3651 C 342.517 0.99702 3.43212 0
M  V30 3652 S 344.076 0.780038 4.31811 0
M  V30 3653 H 340.894 0.232893 0.671775 0
M  V30 3654 H 343.496 1.24249 1.50938 0
M  V30 3655 H 342.2 2.04886 3.55598 0
M  V30 3656 H 341.731 0.379888 3.91562 0
M  V30 3657 H 343.746 -0.343512 4.9501 0
M  V30 3658 N 342.919 -1.39368 0.735821 0
M  V30 3659 C 344.147 -2.04795 0.294393 0
M  V30 3660 C 344.562 -1.55478 -1.07107 0
M  V30 3661 O 343.919 -0.720038 -1.67695 0
M  V30 3662 C 343.97 -3.6035 0.288071 0
M  V30 3663 O 343.691 -4.07852 1.59963 0
M  V30 3664 C 345.192 -4.42976 -0.169422 0
M  V30 3665 H 342.412 -0.658571 0.128551 0
M  V30 3666 H 344.956 -1.78399 0.999701 0
M  V30 3667 H 343.111 -3.85645 -0.368355 0
M  V30 3668 H 343.525 -5.02181 1.51375 0
M  V30 3669 H 344.999 -5.51864 -0.122687 0
M  V30 3670 H 345.476 -4.22068 -1.21472 0
M  V30 3671 H 346.082 -4.22832 0.457469 0
M  V30 3672 N 344.397 -0.483516 -1.5 0
M  V30 3673 C 345.36 0.292965 -2.2732 0
M  V30 3674 C 346.36 0.909499 -1.32608 0
M  V30 3675 O 347.55 0.776745 -1.55924 0
M  V30 3676 C 344.682 1.41854 -3.09984 0
M  V30 3677 H 345.875 -0.385289 -2.97415 0
M  V30 3678 H 343.428 -0.237942 -1.54478 0
M  V30 3679 H 344.163 2.13148 -2.44414 0
M  V30 3680 H 343.948 0.982114 -3.79601 0
M  V30 3681 H 345.438 1.96597 -3.68429 0
M  V30 3682 N 345.875 1.56104 -0.216619 0
M  V30 3683 C 346.785 2.23694 0.706982 0
M  V30 3684 C 347.801 1.24295 1.21765 0
M  V30 3685 O 348.977 1.57094 1.2603 0
M  V30 3686 C 346.042 2.8998 1.90033 0
M  V30 3687 C 345.103 4.04708 1.43213 0
M  V30 3688 C 344.336 4.67824 2.56859 0
M  V30 3689 O 344.559 4.29913 3.74874 0
M  V30 3690 O 343.493 5.56905 2.28343 0
M  V30 3691 H 347.319 3.03272 0.161235 0
M  V30 3692 H 344.904 1.49394 0.0136177 0
M  V30 3693 H 346.786 3.31837 2.59735 0
M  V30 3694 H 345.461 2.13365 2.43428 0
M  V30 3695 H 344.368 3.6743 0.70327 0
M  V30 3696 H 345.701 4.83051 0.944615 0
M  V30 3697 N 347.353 -0.0568162 1.57498 0
M  V30 3698 C 348.601 -0.751617 1.87604 0
M  V30 3699 C 348.922 -1.77351 0.81066 0
M  V30 3700 O 348.192 -1.95254 -0.159018 0
M  V30 3701 H 346.772 -0.280583 0.692302 0
M  V30 3702 H 349.434 -0.0293483 1.94878 0
M  V30 3703 H 348.53 -1.25852 2.856 0
M  V30 3704 N 348.832 -1.54138 -0.328536 0
M  V30 3705 C 349.742 -1.86192 -1.42723 0
M  V30 3706 C 350.758 -0.753382 -1.56844 0
M  V30 3707 O 351.934 -1.04718 -1.72035 0
M  V30 3708 C 348.999 -2.07824 -2.77507 0
M  V30 3709 C 348.06 -3.31641 -2.72603 0
M  V30 3710 C 347.293 -3.52232 -4.00959 0
M  V30 3711 O 347.516 -2.7636 -4.9898 0
M  V30 3712 O 346.45 -4.45699 -4.0452 0
M  V30 3713 H 350.276 -2.79608 -1.18547 0
M  V30 3714 H 347.861 -1.3998 -0.522104 0
M  V30 3715 H 349.743 -2.23411 -3.57303 0
M  V30 3716 H 348.418 -1.17596 -3.01584 0
M  V30 3717 H 347.325 -3.21444 -1.91376 0
M  V30 3718 H 348.658 -4.2191 -2.53481 0
M  V30 3719 N 350.31 0.590341 -1.46126 0
M  V30 3720 C 351.273 1.68194 -1.55703 0
M  V30 3721 C 352.273 1.54808 -0.434868 0
M  V30 3722 O 353.463 1.59564 -0.698928 0
M  V30 3723 C 350.595 3.07575 -1.47005 0
M  V30 3724 H 351.788 1.61064 -2.52979 0
M  V30 3725 H 349.341 0.807541 -1.33823 0
M  V30 3726 H 350.076 3.20268 -0.509785 0
M  V30 3727 H 349.861 3.187 -2.28414 0
M  V30 3728 H 351.351 3.87055 -1.56776 0
M  V30 3729 N 351.788 1.33704 0.83433 0
M  V30 3730 C 352.751 1.24244 1.92603 0
M  V30 3731 C 353.751 0.160383 1.59998 0
M  V30 3732 O 354.941 0.412228 1.69252 0
M  V30 3733 C 352.073 0.91555 3.28376 0
M  V30 3734 H 353.266 2.21287 2.02416 0
M  V30 3735 H 350.819 1.17827 1.02696 0
M  V30 3736 H 351.554 -0.0521886 3.24258 0
M  V30 3737 H 351.339 1.69811 3.53422 0
M  V30 3738 H 352.829 0.874231 4.08347 0
M  V30 3739 N 353.266 -1.05314 1.17247 0
M  V30 3740 C 354.229 -2.112 0.890357 0
M  V30 3741 C 355.229 -1.60359 -0.118943 0
M  V30 3742 O 356.419 -1.73833 0.113086 0
M  V30 3743 C 353.551 -3.39266 0.333422 0
M  V30 3744 H 354.744 -2.37659 1.82916 0
M  V30 3745 H 352.297 -1.21538 0.982758 0
M  V30 3746 H 353.032 -3.18462 -0.612587 0
M  V30 3747 H 352.817 -3.77477 1.06082 0
M  V30 3748 H 354.307 -4.17315 0.154322 0
M  V30 3749 N 354.744 -0.972509 -1.24016 0
M  V30 3750 C 355.991 -0.637034 -1.92219 0
M  V30 3751 C 356.319 0.828418 -1.75976 0
M  V30 3752 O 355.574 1.61206 -1.10955 0
M  V30 3753 C 355.873 -0.963694 -3.44162 0
M  V30 3754 C 355.539 -2.41807 -3.80579 0
M  V30 3755 C 354.201 -2.81556 -3.9023 0
M  V30 3756 C 356.553 -3.36172 -3.98293 0
M  V30 3757 C 353.881 -4.14702 -4.15017 0
M  V30 3758 C 356.233 -4.68952 -4.24578 0
M  V30 3759 C 354.897 -5.08472 -4.32449 0
M  V30 3760 H 354.167 -0.233107 -0.703379 0
M  V30 3761 H 356.814 -1.2249 -1.47202 0
M  V30 3762 H 355.119 -0.29365 -3.90698 0
M  V30 3763 H 356.816 -0.682449 -3.9515 0
M  V30 3764 H 353.406 -2.09988 -3.73635 0
M  V30 3765 H 357.59 -3.06644 -3.90234 0
M  V30 3766 H 352.846 -4.4494 -4.19331 0
M  V30 3767 H 357.02 -5.42037 -4.37229 0
M  V30 3768 H 354.647 -6.11665 -4.51409 0
M  V30 3769 N 356.222 1.38976 -0.743202 0
M  V30 3770 C 357.152 2.33171 -0.123873 0
M  V30 3771 C 358.133 1.54336 0.71516 0
M  V30 3772 O 359.318 1.82696 0.658467 0
M  V30 3773 C 356.448 3.38474 0.777978 0
M  V30 3774 C 355.402 4.27979 0.0424758 0
M  V30 3775 C 354.728 5.2405 1.06189 0
M  V30 3776 C 356.028 5.10155 -1.1198 0
M  V30 3777 H 357.722 2.85213 -0.910709 0
M  V30 3778 H 355.268 1.37133 -0.439388 0
M  V30 3779 H 357.221 4.03328 1.22084 0
M  V30 3780 H 355.945 2.84891 1.59702 0
M  V30 3781 H 354.604 3.64616 -0.380853 0
M  V30 3782 H 354.252 4.66758 1.87472 0
M  V30 3783 H 353.952 5.84785 0.574485 0
M  V30 3784 H 355.476 5.9178 1.50428 0
M  V30 3785 H 356.89 5.68307 -0.75499 0
M  V30 3786 H 355.287 5.80073 -1.53738 0
M  V30 3787 H 356.357 4.44504 -1.93764 0
M  V30 3788 N 357.7 0.491464 1.49741 0
M  V30 3789 C 358.946 -0.0565092 2.02721 0
M  V30 3790 C 359.279 -1.37522 1.37118 0
M  V30 3791 O 358.554 -1.87866 0.503645 0
M  V30 3792 C 358.837 -0.219051 3.59433 0
M  V30 3793 C 358.69 1.12211 4.35579 0
M  V30 3794 C 360.009 -0.964157 4.29409 0
M  V30 3795 H 357.128 -0.0190627 0.736753 0
M  V30 3796 H 359.77 0.641021 1.7886 0
M  V30 3797 H 357.92 -0.813165 3.79895 0
M  V30 3798 H 359.592 1.75437 4.26637 0
M  V30 3799 H 357.835 1.71377 3.98513 0
M  V30 3800 H 358.506 0.961794 5.43556 0
M  V30 3801 H 360.982 -0.460378 4.13545 0
M  V30 3802 H 359.858 -1.04671 5.38828 0
M  V30 3803 H 360.119 -2.00563 3.93988 0
M  V30 3804 N 359.178 -1.55987 0.224894 0
M  V30 3805 C 360.403 -2.03232 -0.41369 0
M  V30 3806 C 360.828 -1.10359 -1.52323 0
M  V30 3807 O 360.186 -0.092395 -1.81064 0
M  V30 3808 C 360.234 -3.48682 -0.919405 0
M  V30 3809 O 359.338 -3.58947 -2.03054 0
M  V30 3810 H 358.679 -0.657428 -0.0931903 0
M  V30 3811 H 361.209 -2.01679 0.34451 0
M  V30 3812 H 361.219 -3.8907 -1.22835 0
M  V30 3813 H 359.894 -4.15761 -0.107339 0
M  V30 3814 H 358.471 -3.30448 -1.72796 0
M  V30 3815 N 360.656 0.0484629 -1.57525 0
M  V30 3816 C 361.604 1.07359 -2.06341 0
M  V30 3817 C 362.598 1.3865 -0.973269 0
M  V30 3818 O 363.804 1.37783 -1.15827 0
M  V30 3819 H 360.179 0.363662 -0.65822 0
M  V30 3820 H 362.15 0.635916 -2.91545 0
M  V30 3821 C 360.899 2.37198 -2.54229 0
M  V30 3822 H 360.222 2.13977 -3.37719 0
M  V30 3823 H 361.662 3.07319 -2.92115 0
M  V30 3824 C 360.121 3.04805 -1.43511 0
M  V30 3825 O 360.651 3.93848 -0.79034 0
M  V30 3826 N 358.857 2.65811 -1.17444 0
M  V30 3827 H 358.404 1.93488 -1.70059 0
M  V30 3828 H 358.362 3.11366 -0.435737 0
M  V30 3829 N 362.134 1.5431 0.320358 0
M  V30 3830 C 363.084 1.803 1.39556 0
M  V30 3831 C 364.068 0.659166 1.46778 0
M  V30 3832 O 365.26 0.91926 1.51257 0
M  V30 3833 C 362.389 2.03665 2.76361 0
M  V30 3834 C 361.475 3.24178 2.73439 0
M  V30 3835 N 361.866 4.4516 2.40137 0
M  V30 3836 C 360.164 3.25816 3.04565 0
M  V30 3837 C 360.865 5.27109 2.4603 0
M  V30 3838 N 359.841 4.64368 2.82601 0
M  V30 3839 H 363.643 2.71416 1.12742 0
M  V30 3840 H 361.157 1.53548 0.528856 0
M  V30 3841 H 363.154 2.20425 3.53862 0
M  V30 3842 H 361.814 1.13805 3.04103 0
M  V30 3843 H 362.825 4.72104 2.12927 0
M  V30 3844 H 359.502 2.46001 3.37328 0
M  V30 3845 H 360.892 6.33728 2.23246 0
M  V30 3846 N 363.613 -0.582584 1.46437 0
M  V30 3847 C 365.029 -0.905962 1.31394 0
M  V30 3848 C 365.229 -1.99468 0.285476 0
M  V30 3849 O 364.285 -2.50566 -0.311914 0
M  V30 3850 C 365.598 -1.3232 2.70022 0
M  V30 3851 C 367.146 -1.43604 2.78113 0
M  V30 3852 C 367.621 -1.88694 4.17323 0
M  V30 3853 N 369.112 -1.95887 4.19741 0
M  V30 3854 C 369.847 -2.32051 5.24347 0
M  V30 3855 N 369.343 -2.67006 6.39281 0
M  V30 3856 N 371.136 -2.32606 5.11713 0
M  V30 3857 H 363.287 0.1366 2.1196 0
M  V30 3858 H 365.55 -0.00155736 0.947999 0
M  V30 3859 H 365.256 -0.597242 3.46592 0
M  V30 3860 H 365.13 -2.28469 3.00136 0
M  V30 3861 H 367.517 -2.15286 2.01832 0
M  V30 3862 H 367.598 -0.457059 2.51684 0
M  V30 3863 H 367.242 -1.1759 4.941 0
M  V30 3864 H 367.172 -2.8755 4.4116 0
M  V30 3865 H 369.663 -1.71362 3.36814 0
M  V30 3866 H 369.976 -2.93554 7.14875 0
M  V30 3867 H 368.321 -2.64644 6.42642 0
M  V30 3868 H 371.512 -2.04721 4.2096 0
M  V30 3869 H 371.685 -2.60462 5.93349 0
M  V30 3870 N 365.091 -1.34144 -0.827227 0
M  V30 3871 C 366.502 -1.23557 -1.39966 0
M  V30 3872 C 366.853 0.140731 -1.95695 0
M  V30 3873 O 365.978 1.04087 -1.89723 0
M  V30 3874 C 366.573 -2.23708 -2.54441 0
M  V30 3875 C 365.132 -2.16924 -3.07605 0
M  V30 3876 C 364.279 -2.10549 -1.80456 0
M  V30 3877 H 367.23 -1.45573 -0.631991 0
M  V30 3878 H 367.251 -1.85157 -3.32411 0
M  V30 3879 H 366.763 -3.23866 -2.13851 0
M  V30 3880 H 364.864 -1.20107 -3.52711 0
M  V30 3881 H 364.977 -3.07988 -3.66988 0
M  V30 3882 H 363.341 -1.56203 -2.01178 0
M  V30 3883 H 364.124 -3.12535 -1.42046 0
M  V30 3884 N 366.569 1.04691 -1.17803 0
M  V30 3885 C 367.98 1.59238 -0.974689 0
M  V30 3886 C 368.331 1.90306 0.477292 0
M  V30 3887 O 367.456 1.68846 1.35352 0
M  V30 3888 C 368.051 2.89318 -1.76296 0
M  V30 3889 C 366.61 3.40506 -1.60414 0
M  V30 3890 C 365.757 2.14172 -1.76141 0
M  V30 3891 H 368.708 0.874395 -1.32439 0
M  V30 3892 H 368.729 3.5944 -1.24833 0
M  V30 3893 H 368.241 2.66675 -2.81968 0
M  V30 3894 H 366.342 3.68175 -0.572519 0
M  V30 3895 H 366.455 4.14753 -2.39827 0
M  V30 3896 H 364.819 2.25176 -1.19028 0
M  V30 3897 H 365.602 1.93992 -2.83235 0
M  V30 3898 N 368.047 0.979072 1.23499 0
M  V30 3899 C 368.979 0.476271 2.24197 0
M  V30 3900 C 369.992 -0.421166 1.57258 0
M  V30 3901 O 371.181 -0.225515 1.7707 0
M  V30 3902 C 368.281 -0.330503 3.37285 0
M  V30 3903 C 367.454 0.559744 4.33804 0
M  V30 3904 C 366.513 -0.192954 5.25846 0
M  V30 3905 O 365.539 0.416978 5.67671 0
M  V30 3906 N 366.741 -1.47932 5.61334 0
M  V30 3907 H 369.506 1.34211 2.67969 0
M  V30 3908 H 367.067 0.852189 1.37657 0
M  V30 3909 H 369.059 -0.842361 3.95836 0
M  V30 3910 H 367.629 -1.09734 2.92707 0
M  V30 3911 H 366.849 1.25245 3.73775 0
M  V30 3912 H 368.137 1.1665 4.95248 0
M  V30 3913 H 367.535 -1.9964 5.29302 0
M  V30 3914 H 366.092 -1.93664 6.22364 0
M  V30 3915 N 369.525 -1.3858 0.750561 0
M  V30 3916 C 370.936 -1.82927 0.373438 0
M  V30 3917 C 371.287 -1.62634 -1.09748 0
M  V30 3918 O 370.412 -1.12588 -1.84805 0
M  V30 3919 C 371.007 -3.32088 0.671029 0
M  V30 3920 C 369.566 -3.74795 0.34722 0
M  V30 3921 C 368.713 -2.61391 0.92575 0
M  V30 3922 H 371.664 -1.27351 0.946958 0
M  V30 3923 H 371.685 -3.80465 -0.0518269 0
M  V30 3924 H 371.197 -3.46826 1.74164 0
M  V30 3925 H 369.298 -3.65638 -0.716933 0
M  V30 3926 H 369.411 -4.71667 0.840656 0
M  V30 3927 H 367.775 -2.52265 0.351327 0
M  V30 3928 H 368.558 -2.78929 2.00133 0
M  V30 3929 N 371.003 -0.499398 -1.49478 0
M  V30 3930 C 371.933 0.269244 -2.31943 0
M  V30 3931 C 372.914 0.964054 -1.40143 0
M  V30 3932 O 374.099 0.955767 -1.69052 0
M  V30 3933 C 371.229 1.33504 -3.20615 0
M  V30 3934 C 370.183 0.760202 -4.21195 0
M  V30 3935 C 369.509 1.9264 -4.98792 0
M  V30 3936 C 370.809 -0.247661 -5.21712 0
M  V30 3937 H 372.503 -0.419082 -2.96452 0
M  V30 3938 H 370.049 -0.202988 -1.42562 0
M  V30 3939 H 372.002 1.88048 -3.77115 0
M  V30 3940 H 370.726 2.05253 -2.54045 0
M  V30 3941 H 369.385 0.23653 -3.65836 0
M  V30 3942 H 369.033 2.63154 -4.28671 0
M  V30 3943 H 368.733 1.54785 -5.66847 0
M  V30 3944 H 370.257 2.4762 -5.58137 0
M  V30 3945 H 371.671 0.209579 -5.72917 0
M  V30 3946 H 370.068 -0.541962 -5.97648 0
M  V30 3947 H 371.138 -1.16409 -4.7072 0
M  V30 3948 N 372.481 1.55866 -0.233164 0
M  V30 3949 C 373.428 2.20796 0.67215 0
M  V30 3950 C 374.398 1.16731 1.18166 0
M  V30 3951 O 375.583 1.45129 1.23864 0
M  V30 3952 C 372.723 2.90072 1.86955 0
M  V30 3953 C 371.836 4.08759 1.39786 0
M  V30 3954 C 370.971 4.65787 2.55374 0
M  V30 3955 C 370.01 5.76752 2.04998 0
M  V30 3956 N 369.147 6.28021 3.13901 0
M  V30 3957 H 373.987 2.9779 0.111749 0
M  V30 3958 H 371.524 1.47036 0.0434007 0
M  V30 3959 H 373.482 3.28428 2.57276 0
M  V30 3960 H 372.112 2.15575 2.40265 0
M  V30 3961 H 371.164 3.7581 0.589173 0
M  V30 3962 H 372.476 4.88906 0.98856 0
M  V30 3963 H 371.63 5.06646 3.33758 0
M  V30 3964 H 370.369 3.84828 2.99598 0
M  V30 3965 H 369.374 5.35383 1.25079 0
M  V30 3966 H 370.599 6.59553 1.61759 0
M  V30 3967 H 368.545 5.49971 3.57586 0
M  V30 3968 H 368.462 7.03323 2.7726 0
M  V30 3969 H 369.73 6.73538 3.92386 0
M  V30 3970 N 373.959 -0.0401083 1.57549 0
M  V30 3971 C 375.207 -0.731677 1.8839 0
M  V30 3972 C 375.528 -1.76481 0.829425 0
M  V30 3973 O 374.798 -1.95411 -0.1383 0
M  V30 3974 H 373.378 -0.273225 0.695239 0
M  V30 3975 H 376.04 -0.00867725 1.94898 0
M  V30 3976 H 375.136 -1.22816 2.86919 0
M  V30 3977 N 375.437 -1.54477 -0.31217 0
M  V30 3978 C 376.853 -1.45442 -0.657185 0
M  V30 3979 C 377.053 -0.63653 -1.91182 0
M  V30 3980 O 376.109 -0.139815 -2.52113 0
M  V30 3981 C 377.422 -2.89287 -0.82058 0
M  V30 3982 C 378.97 -2.9926 -0.917188 0
M  V30 3983 C 379.445 -4.44279 -1.11267 0
M  V30 3984 N 380.936 -4.4794 -1.17914 0
M  V30 3985 C 381.671 -5.57318 -1.34848 0
M  V30 3986 N 381.167 -6.76642 -1.48752 0
M  V30 3987 N 382.96 -5.44986 -1.37647 0
M  V30 3988 H 375.111 -2.06129 0.512313 0
M  V30 3989 H 377.374 -0.933088 0.167485 0
M  V30 3990 H 377.08 -3.51687 0.0302604 0
M  V30 3991 H 376.954 -3.36061 -1.71298 0
M  V30 3992 H 379.341 -2.36981 -1.75852 0
M  V30 3993 H 379.422 -2.558 -0.00101257 0
M  V30 3994 H 379.066 -5.07149 -0.27614 0
M  V30 3995 H 378.996 -4.85359 -2.04289 0
M  V30 3996 H 381.487 -3.61969 -1.08567 0
M  V30 3997 H 381.8 -7.55758 -1.61397 0
M  V30 3998 H 380.145 -6.79529 -1.45828 0
M  V30 3999 H 383.336 -4.50715 -1.26388 0
M  V30 4000 H 383.509 -6.3028 -1.50501 0
M  V30 4001 N 376.915 0.57481 -1.46744 0
M  V30 4002 C 377.862 1.68329 -1.57905 0
M  V30 4003 C 378.832 1.60625 -0.422927 0
M  V30 4004 O 380.017 1.79721 -0.640711 0
M  V30 4005 C 377.157 3.06665 -1.58274 0
M  V30 4006 C 376.27 3.24935 -2.84678 0
M  V30 4007 C 375.405 4.53566 -2.76499 0
M  V30 4008 C 374.444 4.65207 -3.97806 0
M  V30 4009 N 373.581 5.85172 -3.87967 0
M  V30 4010 H 378.421 1.58127 -2.52587 0
M  V30 4011 H 375.958 0.770552 -1.25303 0
M  V30 4012 H 377.916 3.86745 -1.56473 0
M  V30 4013 H 376.546 3.15745 -0.671194 0
M  V30 4014 H 375.598 2.38405 -2.96424 0
M  V30 4015 H 376.91 3.29403 -3.7456 0
M  V30 4016 H 376.064 5.41885 -2.72848 0
M  V30 4017 H 374.803 4.51548 -1.8427 0
M  V30 4018 H 373.808 3.75304 -4.0178 0
M  V30 4019 H 375.033 4.68997 -4.9114 0
M  V30 4020 H 372.979 5.84137 -2.98529 0
M  V30 4021 H 372.896 5.90943 -4.71511 0
M  V30 4022 H 374.164 6.759 -3.88303 0
M  V30 4023 N 378.394 1.34581 0.820102 0
M  V30 4024 C 379.64 1.27285 1.57881 0
M  V30 4025 C 379.973 -0.156137 1.93571 0
M  V30 4026 O 379.248 -1.10222 1.60254 0
M  V30 4027 C 379.531 2.16639 2.87645 0
M  V30 4028 C 379.384 3.68088 2.58517 0
M  V30 4029 C 380.703 2.05378 3.8924 0
M  V30 4030 H 377.822 0.463714 0.572833 0
M  V30 4031 H 380.464 1.64859 0.944539 0
M  V30 4032 H 378.614 1.84725 3.41773 0
M  V30 4033 H 380.286 4.10382 2.10676 0
M  V30 4034 H 378.529 3.89038 1.91917 0
M  V30 4035 H 379.2 4.2598 3.51063 0
M  V30 4036 H 381.676 2.33404 3.44473 0
M  V30 4037 H 380.552 2.7012 4.77835 0
M  V30 4038 H 380.813 1.0316 4.29896 0
M  V30 4039 N 379.872 -1.04064 1.18357 0
M  V30 4040 C 381.288 -1.2947 0.933258 0
M  V30 4041 C 381.488 -1.97466 -0.401169 0
M  V30 4042 O 380.544 -2.25528 -1.13549 0
M  V30 4043 C 381.857 -2.15337 2.09882 0
M  V30 4044 C 383.405 -2.28683 2.13712 0
M  V30 4045 C 383.88 -3.17917 3.29686 0
M  V30 4046 N 385.371 -3.25504 3.29547 0
M  V30 4047 C 386.106 -3.94706 4.15926 0
M  V30 4048 N 385.602 -4.66239 5.12439 0
M  V30 4049 N 387.395 -3.90986 4.0384 0
M  V30 4050 H 379.546 -0.583359 2.04232 0
M  V30 4051 H 381.809 -0.319921 0.892387 0
M  V30 4052 H 381.515 -1.72682 3.06389 0
M  V30 4053 H 381.389 -3.16015 2.05947 0
M  V30 4054 H 383.776 -2.70575 1.17784 0
M  V30 4055 H 383.857 -1.27596 2.21705 0
M  V30 4056 H 383.501 -2.76736 4.25887 0
M  V30 4057 H 383.431 -4.19036 3.1893 0
M  V30 4058 H 385.922 -2.74547 2.59677 0
M  V30 4059 H 386.235 -5.16638 5.74722 0
M  V30 4060 H 384.58 -4.65143 5.16398 0
M  V30 4061 H 387.771 -3.34234 3.27727 0
M  V30 4062 H 387.944 -4.44646 4.71375 0
M  V30 4063 N 381.35 -0.985608 -1.22978 0
M  V30 4064 C 382.313 -0.535071 -2.22867 0
M  V30 4065 C 383.313 0.378123 -1.56291 0
M  V30 4066 O 384.503 0.171092 -1.73358 0
M  V30 4067 C 381.635 0.222702 -3.40172 0
M  V30 4068 H 382.828 -1.41835 -2.6424 0
M  V30 4069 H 380.381 -0.772042 -1.35901 0
M  V30 4070 H 381.116 1.12229 -3.04262 0
M  V30 4071 H 380.901 -0.43288 -3.89703 0
M  V30 4072 H 382.391 0.526335 -4.1427 0
M  V30 4073 N 382.828 1.3818 -0.7579 0
M  V30 4074 C 384.053 2.04827 -0.325679 0
M  V30 4075 C 384.478 1.56788 1.03919 0
M  V30 4076 O 383.836 0.721811 1.66312 0
M  V30 4077 C 383.884 3.58774 -0.362447 0
M  V30 4078 O 382.988 4.07372 0.642033 0
M  V30 4079 H 382.329 0.64833 -0.143402 0
M  V30 4080 H 384.859 1.7677 -1.03023 0
M  V30 4081 H 384.869 4.07434 -0.214844 0
M  V30 4082 H 383.544 3.93096 -1.35824 0
M  V30 4083 H 382.121 3.70068 0.458688 0
M  V30 4084 N 384.306 0.507319 1.49211 0
M  V30 4085 C 385.553 -0.0349529 2.0247 0
M  V30 4086 C 385.881 -1.36409 1.38647 0
M  V30 4087 O 385.136 -1.88841 0.513566 0
M  V30 4088 C 385.435 -0.229513 3.56662 0
M  V30 4089 C 385.101 1.02241 4.39156 0
M  V30 4090 C 383.763 1.36557 4.61417 0
M  V30 4091 C 386.115 1.85428 4.871 0
M  V30 4092 C 383.443 2.53999 5.28868 0
M  V30 4093 C 385.795 3.02028 5.55843 0
M  V30 4094 C 384.459 3.36717 5.76349 0
M  V30 4095 H 383.729 -0.0127902 0.74089 0
M  V30 4096 H 386.376 0.668756 1.79443 0
M  V30 4097 H 384.681 -1.0158 3.78403 0
M  V30 4098 H 386.378 -0.663641 3.9547 0
M  V30 4099 H 382.968 0.745124 4.22073 0
M  V30 4100 H 387.152 1.6023 4.69723 0
M  V30 4101 H 382.408 2.81105 5.42946 0
M  V30 4102 H 386.582 3.66808 5.91967 0
M  V30 4103 H 384.209 4.27821 6.28389 0
M  V30 4104 N 385.784 -1.5574 0.241426 0
M  V30 4105 C 386.734 -2.17803 -0.674233 0
M  V30 4106 C 387.718 -1.13225 -1.14319 0
M  V30 4107 O 388.91 -1.39153 -1.09387 0
M  V30 4108 C 386.039 -2.87682 -1.87333 0
M  V30 4109 C 385.125 -3.99509 -1.42313 0
M  V30 4110 N 385.516 -5.01115 -0.686798 0
M  V30 4111 C 383.814 -4.11964 -1.70885 0
M  V30 4112 C 384.515 -5.79922 -0.454456 0
M  V30 4113 N 383.491 -5.34001 -1.01705 0
M  V30 4114 H 387.293 -2.93718 -0.103447 0
M  V30 4115 H 384.807 -1.62342 0.0435095 0
M  V30 4116 H 386.804 -3.3057 -2.54026 0
M  V30 4117 H 385.464 -2.13269 -2.4484 0
M  V30 4118 H 386.475 -5.16799 -0.337459 0
M  V30 4119 H 383.152 -3.48718 -2.2957 0
M  V30 4120 H 384.542 -6.71768 0.132992 0
M  V30 4121 O 387.301 -0.105854 -1.61153 0
M  V30 4122 H 387.992 0.494986 -1.87269 0
M  V30 END ATOM
M  V30 BEGIN BOND
M  V30 END BOND
M  V30 END CTAB
M  END
$$$$
