drugbank_target|O08398 Cell division protein FtsZ (DB03532)
 OpenBabel12092120003D

  0  0  0     0  0            999 V3000
M  V30 BEGIN CTAB
M  V30 COUNTS 5446 5482 0 0 0
M  V30 BEGIN ATOM
M  V30 1 H -0.908 1.98254 -0.117106 0
M  V30 2 N 0 1.576 0 0
M  V30 3 C 0.933 2.03868 1.02534 0
M  V30 4 C 1.911 0.928543 1.3348 0
M  V30 5 O 3.095 1.19667 1.45644 0
M  V30 6 C 0.222 2.43627 2.35294 0
M  V30 7 C -0.732 3.65373 2.2001 0
M  V30 8 S 0.101 5.13292 1.52614 0
M  V30 9 C 1.257 5.56322 2.86805 0
M  V30 10 H 1.49 2.90518 0.631377 0
M  V30 11 H -0.977 1.52953 0.210867 0
M  V30 12 H 0.981 2.67203 3.11629 0
M  V30 13 H -0.358 1.57376 2.7183 0
M  V30 14 H -1.165 3.90944 3.18086 0
M  V30 15 H -1.563 3.418 1.51819 0
M  V30 16 H 0.729 5.58782 3.83104 0
M  V30 17 H 1.672 6.56266 2.65933 0
M  V30 18 H 2.08 4.83886 2.90714 0
M  V30 19 N 1.4781 -0.272755 1.55222 0
M  V30 20 C 2.7261 -1.00234 1.75492 0
M  V30 21 C 3.0471 -1.8681 0.5592 0
M  V30 22 O 2.3171 -1.91215 -0.425882 0
M  V30 23 H 0.8971 -0.373076 0.647166 0
M  V30 24 H 3.5591 -0.296926 1.92625 0
M  V30 25 H 2.6551 -1.63913 2.65592 0
M  V30 26 N 2.9562 -1.48159 -0.537278 0
M  V30 27 C 4.2032 -1.55804 -1.29349 0
M  V30 28 C 4.5312 -0.228802 -1.9315 0
M  V30 29 O 3.7862 0.780242 -1.79473 0
M  V30 30 C 4.0852 -2.63956 -2.40961 0
M  V30 31 C 3.7512 -4.0662 -1.94861 0
M  V30 32 C 2.4132 -4.45452 -1.82006 0
M  V30 33 C 4.7652 -4.96055 -1.59933 0
M  V30 34 C 2.0932 -5.71531 -1.32547 0
M  V30 35 C 4.4452 -6.22617 -1.11939 0
M  V30 36 C 3.1092 -6.60312 -0.976951 0
M  V30 37 H 2.3792 -0.570129 -0.473322 0
M  V30 38 H 5.0262 -1.81845 -0.600372 0
M  V30 39 H 3.3312 -2.31747 -3.15912 0
M  V30 40 H 5.0282 -2.67089 -2.99107 0
M  V30 41 H 1.6182 -3.75949 -2.05815 0
M  V30 42 H 5.8022 -4.66738 -1.68728 0
M  V30 43 H 1.0582 -5.99468 -1.202 0
M  V30 44 H 5.2322 -6.91318 -0.839811 0
M  V30 45 H 2.8592 -7.57895 -0.591501 0
M  V30 46 N 4.4343 0.785586 -1.36625 0
M  V30 47 C 5.7113 1.53198 -1.21613 0
M  V30 48 C 6.0913 2.10187 0.196113 0
M  V30 49 O 5.4393 1.94318 1.20219 0
M  V30 50 C 5.6493 2.62388 -2.30116 0
M  V30 51 C 6.9973 3.30167 -2.66974 0
M  V30 52 O 8.0213 2.72674 -2.29188 0
M  V30 53 O 6.8803 4.34077 -3.32023 0
M  V30 54 H 3.9743 0.677865 -0.473738 0
M  V30 55 H 6.5203 0.823739 -1.48367 0
M  V30 56 H 5.2923 2.18299 -3.24748 0
M  V30 57 H 4.9153 3.40827 -2.0475 0
M  V30 58 N 5.9124 1.20967 1.01018 0
M  V30 59 C 6.8424 0.988272 2.11555 0
M  V30 60 C 7.8234 -0.0849778 1.69888 0
M  V30 61 O 9.0084 0.0738202 1.9406 0
M  V30 62 C 6.1384 0.546528 3.42973 0
M  V30 63 C 5.0924 1.56375 3.9841 0
M  V30 64 C 4.4184 0.97842 5.25672 0
M  V30 65 C 5.7184 2.94922 4.31066 0
M  V30 66 H 7.4124 1.91276 2.30334 0
M  V30 67 H 4.9584 0.921073 1.1069 0
M  V30 68 H 6.9114 0.378839 4.19694 0
M  V30 69 H 5.6354 -0.413598 3.23971 0
M  V30 70 H 4.2944 1.71891 3.23804 0
M  V30 71 H 3.9424 0.0101688 5.02999 0
M  V30 72 H 3.6424 1.65784 5.63728 0
M  V30 73 H 5.1664 0.821939 6.05043 0
M  V30 74 H 6.5804 2.8288 4.9865 0
M  V30 75 H 4.9774 3.5983 4.80253 0
M  V30 76 H 6.0474 3.4616 3.39561 0
M  V30 77 N 7.3905 -1.2043 1.01659 0
M  V30 78 C 8.6675 -1.8548 0.621004 0
M  V30 79 C 9.0475 -1.9091 -0.900919 0
M  V30 80 O 8.3955 -1.41694 -1.79263 0
M  V30 81 C 8.6055 -3.25119 1.2688 0
M  V30 82 C 9.9535 -4.01403 1.38423 0
M  V30 83 O 10.9775 -3.34473 1.22501 0
M  V30 84 O 9.8365 -5.21265 1.64151 0
M  V30 85 H 6.9305 -0.798761 0.214266 0
M  V30 86 H 9.4765 -1.28019 1.11396 0
M  V30 87 H 8.2485 -3.15932 2.30873 0
M  V30 88 H 7.8715 -3.90212 0.762917 0
M  V30 89 N 8.8686 -0.792821 -1.36206 0
M  V30 90 C 10.1146 -0.36733 -1.99446 0
M  V30 91 C 10.4476 1.05917 -1.62774 0
M  V30 92 O 9.7226 1.7324 -0.88421 0
M  V30 93 C 10.0056 -0.535044 -3.56103 0
M  V30 94 C 9.8586 -2.00548 -4.02617 0
M  V30 95 C 11.1776 0.0478191 -4.40074 0
M  V30 96 H 8.2966 -0.134941 -0.724541 0
M  V30 97 H 10.9386 -0.999794 -1.61568 0
M  V30 98 H 9.0886 0.00336329 -3.885 0
M  V30 99 H 10.7606 -2.60521 -3.80692 0
M  V30 100 H 9.0036 -2.50686 -3.54032 0
M  V30 101 H 9.6746 -2.07377 -5.11565 0
M  V30 102 H 12.1506 -0.411822 -4.14057 0
M  V30 103 H 11.0266 -0.0995336 -5.4881 0
M  V30 104 H 11.2876 1.14025 -4.27142 0
M  V30 105 N 10.3467 1.47872 -0.545128 0
M  V30 106 C 11.2567 2.33633 0.212746 0
M  V30 107 C 12.2727 1.4744 0.923983 0
M  V30 108 O 13.4487 1.80393 0.895572 0
M  V30 109 C 10.5137 3.23884 1.23693 0
M  V30 110 C 9.5747 4.25961 0.534417 0
M  V30 111 C 8.8077 5.11899 1.5098 0
M  V30 112 O 9.0307 5.00077 2.7437 0
M  V30 113 O 7.9647 5.92831 1.0409 0
M  V30 114 H 11.7907 2.99714 -0.490416 0
M  V30 115 H 9.3757 1.46235 -0.305871 0
M  V30 116 H 11.2577 3.79666 1.82843 0
M  V30 117 H 9.9327 2.60446 1.92222 0
M  V30 118 H 8.8397 3.73972 -0.0979679 0
M  V30 119 H 10.1727 4.92079 -0.109213 0
M  V30 120 N 11.8248 0.280983 1.55075 0
M  V30 121 C 12.7718 -0.603937 2.22758 0
M  V30 122 C 13.7418 -1.1452 1.20309 0
M  V30 123 O 14.9268 -1.19343 1.48869 0
M  V30 124 C 12.0668 -1.77947 2.95684 0
M  V30 125 C 11.1798 -1.2715 4.12864 0
M  V30 126 C 10.3148 -2.4093 4.7342 0
M  V30 127 C 9.3538 -1.87165 5.82783 0
M  V30 128 N 8.4908 -2.94441 6.37377 0
M  V30 129 H 13.3308 -0.020124 2.97993 0
M  V30 130 H 10.8678 0.00183425 1.471 0
M  V30 131 H 12.8258 -2.47055 3.36184 0
M  V30 132 H 11.4558 -2.33522 2.22861 0
M  V30 133 H 10.5078 -0.473331 3.77444 0
M  V30 134 H 11.8198 -0.837751 4.91715 0
M  V30 135 H 10.9738 -3.18021 5.1667 0
M  V30 136 H 9.7128 -2.87623 3.93859 0
M  V30 137 H 8.7178 -1.08556 5.38976 0
M  V30 138 H 9.9428 -1.41401 6.64216 0
M  V30 139 H 7.8888 -3.40505 5.60707 0
M  V30 140 H 7.8058 -2.55501 7.11516 0
M  V30 141 H 9.0738 -3.71489 6.85285 0
M  V30 142 N 13.3029 -1.57598 0.00835791 0
M  V30 143 C 14.2499 -2.08945 -0.980346 0
M  V30 144 C 15.2199 -0.986738 -1.33614 0
M  V30 145 O 16.4049 -1.25968 -1.43306 0
M  V30 146 C 13.5449 -2.60425 -2.26435 0
M  V30 147 C 12.6579 -3.84628 -1.96685 0
M  V30 148 C 11.7929 -4.24579 -3.19228 0
M  V30 149 C 10.8319 -5.41596 -2.85202 0
M  V30 150 N 9.9689 -5.768 -4.00307 0
M  V30 151 H 14.8089 -2.93148 -0.535551 0
M  V30 152 H 12.3459 -1.44912 -0.252776 0
M  V30 153 H 14.3039 -2.88354 -3.01509 0
M  V30 154 H 12.9339 -1.79083 -2.68568 0
M  V30 155 H 11.9859 -3.63556 -1.11942 0
M  V30 156 H 13.2979 -4.69796 -1.67611 0
M  V30 157 H 12.4519 -4.53834 -4.02641 0
M  V30 158 H 11.1909 -3.38137 -3.51447 0
M  V30 159 H 10.1959 -5.12056 -2.00198 0
M  V30 160 H 11.4209 -6.29721 -2.54222 0
M  V30 161 H 9.3669 -4.93316 -4.32407 0
M  V30 162 H 9.2839 -6.5656 -3.74786 0
M  V30 163 H 10.5519 -6.10652 -4.84484 0
M  V30 164 N 14.781 0.264519 -1.55364 0
M  V30 165 C 15.728 1.32717 -1.88825 0
M  V30 166 C 16.698 1.48675 -0.740605 0
M  V30 167 O 17.883 1.62945 -0.992657 0
M  V30 168 C 15.023 2.68089 -2.17307 0
M  V30 169 C 14.136 2.60284 -3.44785 0
M  V30 170 C 13.271 3.87892 -3.62924 0
M  V30 171 C 12.31 3.74631 -4.84064 0
M  V30 172 N 11.447 4.94092 -4.98816 0
M  V30 173 H 16.287 1.03481 -2.79456 0
M  V30 174 H 13.824 0.499757 -1.3835 0
M  V30 175 H 15.782 3.46864 -2.31821 0
M  V30 176 H 14.412 2.95509 -1.299 0
M  V30 177 H 13.464 1.73173 -3.38697 0
M  V30 178 H 14.776 2.46388 -4.33698 0
M  V30 179 H 13.93 4.75109 -3.77302 0
M  V30 180 H 12.669 4.04664 -2.7221 0
M  V30 181 H 11.674 2.85797 -4.69681 0
M  V30 182 H 12.899 3.5937 -5.76221 0
M  V30 183 H 10.845 5.11259 -4.11036 0
M  V30 184 H 10.762 4.8276 -5.81789 0
M  V30 185 H 12.03 5.82857 -5.17588 0
M  V30 186 N 16.2591 1.48442 0.529413 0
M  V30 187 C 17.1691 1.6569 1.66084 0
M  V30 188 C 18.1851 0.539432 1.65427 0
M  V30 189 O 19.3611 0.810572 1.84368 0
M  V30 190 C 16.4261 1.69315 3.02545 0
M  V30 191 C 15.4871 2.92694 3.14052 0
M  V30 192 C 14.7201 2.96137 4.44003 0
M  V30 193 O 14.9431 2.07973 5.31134 0
M  V30 194 O 13.8771 3.88312 4.59888 0
M  V30 195 H 17.7031 2.61483 1.54469 0
M  V30 196 H 15.2881 1.3185 0.702567 0
M  V30 197 H 17.1701 1.74217 3.83701 0
M  V30 198 H 15.8451 0.766966 3.14483 0
M  V30 199 H 14.7521 2.93324 2.32189 0
M  V30 200 H 16.0851 3.84699 3.0703 0
M  V30 201 N 17.7372 -0.778329 1.37039 0
M  V30 202 C 18.6852 -1.91278 1.32345 0
M  V30 203 C 19.6792 -1.68051 0.213331 0
M  V30 204 O 20.8852 -1.75922 0.38098 0
M  V30 205 H 17.2602 -0.628909 0.412283 0
M  V30 206 H 19.2312 -1.92355 2.28127 0
M  V30 207 C 17.9802 -3.28455 1.14073 0
M  V30 208 H 17.3032 -3.46901 1.98746 0
M  V30 209 H 18.7432 -4.08152 1.14837 0
M  V30 210 C 17.2022 -3.36548 -0.154015 0
M  V30 211 O 17.7322 -3.85186 -1.13993 0
M  V30 212 N 15.9382 -2.89894 -0.202475 0
M  V30 213 H 15.4852 -2.50504 0.600476 0
M  V30 214 H 15.4432 -2.9569 -1.06841 0
M  V30 215 N 19.2153 -1.21501 -1.00376 0
M  V30 216 C 20.6313 -0.972629 -1.26539 0
M  V30 217 C 20.8313 0.340257 -1.98606 0
M  V30 218 O 19.8873 1.06561 -2.28913 0
M  V30 219 C 21.2003 -2.16404 -2.08781 0
M  V30 220 C 22.7483 -2.20643 -2.22004 0
M  V30 221 C 23.2233 -3.39306 -3.07629 0
M  V30 222 N 24.7143 -3.39401 -3.15217 0
M  V30 223 C 25.4493 -4.27867 -3.81729 0
M  V30 224 N 24.9453 -5.26533 -4.5026 0
M  V30 225 N 26.7383 -4.15672 -3.78382 0
M  V30 226 H 18.8893 -2.05929 -0.520281 0
M  V30 227 H 21.1523 -0.901803 -0.292328 0
M  V30 228 H 20.8583 -3.11554 -1.63178 0
M  V30 229 H 20.7323 -2.15567 -3.09533 0
M  V30 230 H 23.1193 -1.26048 -2.66825 0
M  V30 231 H 23.2003 -2.25523 -1.20718 0
M  V30 232 H 22.8443 -4.34195 -2.63509 0
M  V30 233 H 22.7743 -3.31665 -4.09031 0
M  V30 234 H 25.2653 -2.67997 -2.66432 0
M  V30 235 H 25.5783 -5.90337 -4.98721 0
M  V30 236 H 23.9233 -5.30457 -4.49044 0
M  V30 237 H 27.1143 -3.3785 -3.23998 0
M  V30 238 H 27.2873 -4.84825 -4.2994 0
M  V30 239 N 20.6934 1.19889 -1.02296 0
M  V30 240 C 21.6414 2.24938 -0.592081 0
M  V30 241 C 22.6354 1.65257 0.372357 0
M  V30 242 O 23.8414 1.78371 0.241583 0
M  V30 243 H 20.2164 0.731787 -0.173182 0
M  V30 244 H 22.1874 2.58603 -1.48885 0
M  V30 245 C 20.9364 3.47668 0.047351 0
M  V30 246 H 20.2594 3.93875 -0.685772 0
M  V30 247 H 21.6994 4.22852 0.311862 0
M  V30 248 C 20.1584 3.11136 1.29212 0
M  V30 249 O 20.6884 3.2325 2.38479 0
M  V30 250 N 18.8944 2.65625 1.17863 0
M  V30 251 H 18.4414 2.55968 0.289493 0
M  V30 252 H 18.3994 2.41553 2.01245 0
M  V30 253 N 22.1715 0.800033 1.35784 0
M  V30 254 C 23.4205 0.37387 1.98205 0
M  V30 255 C 23.7335 -1.06302 1.64193 0
M  V30 256 O 24.9395 -1.59198 2.19928 0
M  V30 257 C 23.3955 0.617532 3.54562 0
M  V30 258 C 23.0035 2.06654 3.9749 0
M  V30 259 C 24.7475 0.256401 4.23725 0
M  V30 260 C 22.6545 2.2563 5.46667 0
M  V30 261 H 21.5845 0.136055 0.741623 0
M  V30 262 H 24.2355 0.983166 1.54939 0
M  V30 263 H 22.6175 -0.0616248 3.95952 0
M  V30 264 H 23.7915 2.78296 3.67271 0
M  V30 265 H 22.1065 2.38691 3.41197 0
M  V30 266 H 24.7035 0.376318 5.33374 0
M  V30 267 H 25.0465 -0.796692 4.08606 0
M  V30 268 H 25.5795 0.889214 3.87734 0
M  V30 269 H 22.3185 3.2936 5.66747 0
M  V30 270 H 21.8385 1.58504 5.78478 0
M  V30 271 H 23.5175 2.06861 6.1304 0
M  V30 272 N 23.6496 -1.47581 0.552962 0
M  V30 273 C 25.0606 -1.86324 0.118463 0
M  V30 274 C 25.4116 -1.46006 -1.3106 0
M  V30 275 O 24.5366 -0.861182 -1.98526 0
M  V30 276 C 25.1316 -3.3816 0.20821 0
M  V30 277 C 23.6906 -3.7601 -0.171226 0
M  V30 278 C 22.8376 -2.71634 0.557686 0
M  V30 279 H 25.7886 -1.39159 0.762928 0
M  V30 280 H 25.8096 -3.76141 -0.574278 0
M  V30 281 H 25.3216 -3.67473 1.24841 0
M  V30 282 H 23.4226 -3.52313 -1.21269 0
M  V30 283 H 23.5356 -4.78745 0.184379 0
M  V30 284 H 21.8996 -2.547 0.00125792 0
M  V30 285 H 22.6826 -3.0379 1.59896 0
M  V30 286 N 25.1277 -0.289203 -1.54924 0
M  V30 287 C 26.0597 0.625583 -2.20497 0
M  V30 288 C 27.0727 1.10667 -1.19402 0
M  V30 289 O 28.2617 1.02615 -1.46056 0
M  V30 290 C 25.3617 1.86702 -2.82835 0
M  V30 291 C 24.5347 1.5304 -4.09753 0
M  V30 292 C 23.5937 2.62576 -4.56005 0
M  V30 293 O 22.6197 2.28167 -5.21468 0
M  V30 294 N 23.8217 3.92901 -4.27328 0
M  V30 295 H 26.5867 0.0642801 -2.99631 0
M  V30 296 H 24.1477 -0.110896 -1.6152 0
M  V30 297 H 26.1397 2.59304 -3.10715 0
M  V30 298 H 24.7097 2.33702 -2.07611 0
M  V30 299 H 23.9297 0.637564 -3.8901 0
M  V30 300 H 25.2177 1.28072 -4.92418 0
M  V30 301 H 24.6157 4.23671 -3.74859 0
M  V30 302 H 23.1727 4.61837 -4.59946 0
M  V30 303 N 26.6058 1.57591 -0.0167156 0
M  V30 304 C 27.5688 2.08393 0.954204 0
M  V30 305 C 28.5688 0.996531 1.26198 0
M  V30 306 O 29.7588 1.25858 1.20438 0
M  V30 307 C 26.8908 2.5394 2.27436 0
M  V30 308 H 28.0838 2.95455 0.514451 0
M  V30 309 H 25.6368 1.54582 0.231089 0
M  V30 310 H 26.3718 1.70171 2.76066 0
M  V30 311 H 26.1568 3.33371 2.06412 0
M  V30 312 H 27.6468 2.93512 2.97053 0
M  V30 313 N 28.0839 -0.256276 1.55502 0
M  V30 314 C 29.0319 -1.33694 1.90338 0
M  V30 315 C 30.0259 -1.50299 0.781441 0
M  V30 316 O 31.2319 -1.51885 0.965966 0
M  V30 317 H 27.6069 -0.447483 0.60437 0
M  V30 318 H 29.5779 -1.01574 2.8058 0
M  V30 319 C 28.3269 -2.68724 2.20642 0
M  V30 320 H 27.6499 -2.56743 3.06469 0
M  V30 321 H 29.0899 -3.43237 2.48926 0
M  V30 322 C 27.5489 -3.21101 1.01959 0
M  V30 323 O 28.0789 -4.0084 0.262762 0
M  V30 324 N 26.2849 -2.79003 0.812746 0
M  V30 325 H 25.8319 -2.14271 1.42989 0
M  V30 326 H 25.7899 -3.14393 0.0203076 0
M  V30 327 N 29.562 -1.4872 -0.521534 0
M  V30 328 C 30.51 -1.64328 -1.64618 0
M  V30 329 C 31.504 -0.50953 -1.61555 0
M  V30 330 O 32.71 -0.688525 -1.66311 0
M  V30 331 H 29.085 -0.517805 -0.545328 0
M  V30 332 H 31.056 -2.58767 -1.48601 0
M  V30 333 C 29.805 -1.70805 -3.02855 0
M  V30 334 H 29.128 -2.5741 -3.05909 0
M  V30 335 H 30.568 -1.85766 -3.81139 0
M  V30 336 C 29.027 -0.448479 -3.33902 0
M  V30 337 O 29.557 0.434928 -3.99339 0
M  V30 338 N 27.763 -0.317616 -2.88859 0
M  V30 339 H 27.31 -1.03748 -2.35784 0
M  V30 340 H 27.268 0.524113 -3.10001 0
M  V30 341 N 31.0401 0.771051 -1.3745 0
M  V30 342 C 31.9701 1.89827 -1.3597 0
M  V30 343 C 32.9511 1.68562 -0.228216 0
M  V30 344 O 34.1361 1.8941 -0.428675 0
M  V30 345 C 31.2661 3.2712 -1.16662 0
M  V30 346 C 30.2201 3.6295 -2.2683 0
M  V30 347 C 29.5461 4.98791 -1.92644 0
M  V30 348 C 30.8461 3.69627 -3.69017 0
M  V30 349 H 32.5401 1.91323 -2.30295 0
M  V30 350 H 30.0861 0.919082 -1.10855 0
M  V30 351 H 32.0391 4.05615 -1.14256 0
M  V30 352 H 30.7631 3.26059 -0.187926 0
M  V30 353 H 29.4221 2.86763 -2.28392 0
M  V30 354 H 29.0701 4.94271 -0.933021 0
M  V30 355 H 28.7701 5.23733 -2.66416 0
M  V30 356 H 30.2941 5.79685 -1.91826 0
M  V30 357 H 31.7081 4.38273 -3.69581 0
M  V30 358 H 30.1051 4.06067 -4.41848 0
M  V30 359 H 31.1751 2.70273 -4.02592 0
M  V30 360 N 32.5182 1.22032 0.997298 0
M  V30 361 C 33.4652 0.986467 2.08656 0
M  V30 362 C 34.4352 -0.0902671 1.65855 0
M  V30 363 O 35.6202 0.0584294 1.90711 0
M  V30 364 C 32.7602 0.565569 3.40434 0
M  V30 365 C 31.8732 1.71259 3.96604 0
M  V30 366 C 31.0082 1.24011 5.16522 0
M  V30 367 C 30.0472 2.35896 5.64818 0
M  V30 368 N 29.1842 1.89726 6.7598 0
M  V30 369 H 34.0242 1.91892 2.27994 0
M  V30 370 H 31.5612 0.956199 1.11782 0
M  V30 371 H 33.5192 0.302738 4.161 0
M  V30 372 H 32.1492 -0.329879 3.2111 0
M  V30 373 H 31.2012 2.08986 3.17851 0
M  V30 374 H 32.5132 2.55436 4.28432 0
M  V30 375 H 31.6672 0.934395 5.99461 0
M  V30 376 H 30.4062 0.368487 4.86306 0
M  V30 377 H 29.4112 2.67261 4.8047 0
M  V30 378 H 30.6362 3.23567 5.97061 0
M  V30 379 H 28.5822 1.0492 6.47555 0
M  V30 380 H 28.4992 2.67471 7.07103 0
M  V30 381 H 29.7672 1.62211 7.62435 0
M  V30 382 N 33.9963 -1.19345 1.0293 0
M  V30 383 C 35.2453 -1.88363 0.721256 0
M  V30 384 C 35.5583 -1.80514 -0.753254 0
M  V30 385 O 36.7643 -2.44788 -1.17436 0
M  V30 386 C 35.2203 -3.37872 1.23978 0
M  V30 387 C 34.8283 -3.54278 2.74211 0
M  V30 388 C 36.5723 -4.12365 1.00775 0
M  V30 389 C 34.4793 -4.97682 3.19479 0
M  V30 390 H 33.4093 -0.705484 0.266098 0
M  V30 391 H 36.0603 -1.34928 1.24365 0
M  V30 392 H 34.4423 -3.90707 0.6453 0
M  V30 393 H 35.6163 -3.11769 3.39318 0
M  V30 394 H 33.9313 -2.93174 2.95699 0
M  V30 395 H 36.5283 -5.18119 1.32123 0
M  V30 396 H 36.8713 -4.16263 -0.0554308 0
M  V30 397 H 37.4043 -3.65668 1.56625 0
M  V30 398 H 34.1433 -4.98945 4.25128 0
M  V30 399 H 33.6633 -5.4095 2.591 0
M  V30 400 H 35.3423 -5.66337 3.12845 0
M  V30 401 N 35.4744 -0.807222 -1.35358 0
M  V30 402 C 36.4214 -0.216037 -2.29787 0
M  V30 403 C 37.3914 0.650278 -1.52842 0
M  V30 404 O 38.5764 0.595227 -1.81278 0
M  V30 405 C 35.7164 0.628893 -3.39321 0
M  V30 406 C 34.8294 -0.257927 -4.31229 0
M  V30 407 C 33.9644 0.595069 -5.27856 0
M  V30 408 C 33.0034 -0.292111 -6.11403 0
M  V30 409 N 32.1404 0.520895 -7.00165 0
M  V30 410 H 36.9804 -1.02671 -2.79755 0
M  V30 411 H 34.5174 -0.517839 -1.37684 0
M  V30 412 H 36.4754 1.13393 -4.01494 0
M  V30 413 H 35.1054 1.40482 -2.90628 0
M  V30 414 H 34.1574 -0.881076 -3.70056 0
M  V30 415 H 35.4694 -0.940759 -4.89848 0
M  V30 416 H 34.6234 1.16522 -5.95405 0
M  V30 417 H 33.3624 1.31146 -4.69736 0
M  V30 418 H 32.3674 -0.874525 -5.428 0
M  V30 419 H 33.5924 -1.00638 -6.71602 0
M  V30 420 H 31.5384 1.22125 -6.44532 0
M  V30 421 H 31.4554 -0.103877 -7.55929 0
M  V30 422 H 32.7234 1.0743 -7.72062 0
M  V30 423 N 36.9525 1.47285 -0.560781 0
M  V30 424 C 38.1985 2.02764 -0.0381184 0
M  V30 425 C 38.5315 1.43384 1.30976 0
M  V30 426 O 37.8065 0.590733 1.85312 0
M  V30 427 C 38.0895 3.60064 0.0511427 0
M  V30 428 C 37.9425 4.2987 -1.32408 0
M  V30 429 C 39.2615 4.33439 0.762795 0
M  V30 430 H 36.3805 0.736841 -0.0153264 0
M  V30 431 H 39.0225 1.75675 -0.723759 0
M  V30 432 H 37.1725 3.83274 0.635065 0
M  V30 433 H 38.8445 4.17989 -1.95148 0
M  V30 434 H 37.0875 3.90085 -1.8978 0
M  V30 435 H 37.7585 5.38478 -1.21431 0
M  V30 436 H 40.2345 4.15243 0.266965 0
M  V30 437 H 39.1105 5.43124 0.794221 0
M  V30 438 H 39.3715 4.02915 1.81966 0
M  V30 439 N 38.4306 0.297415 1.54768 0
M  V30 440 C 39.6796 -0.313669 1.99246 0
M  V30 441 C 39.9926 -1.55281 1.18942 0
M  V30 442 O 41.1986 -2.23825 1.5367 0
M  V30 443 C 39.6546 -0.609407 3.54703 0
M  V30 444 C 39.2626 0.611192 4.43811 0
M  V30 445 C 41.0066 -1.18188 4.07715 0
M  V30 446 C 38.9136 0.288805 5.90694 0
M  V30 447 H 37.8436 -0.120979 0.744231 0
M  V30 448 H 40.4946 0.40556 1.78962 0
M  V30 449 H 38.8766 -1.38813 3.70873 0
M  V30 450 H 40.0506 1.3875 4.39414 0
M  V30 451 H 38.3656 1.10205 4.01552 0
M  V30 452 H 40.9626 -1.43727 5.15021 0
M  V30 453 H 41.3056 -2.12299 3.58099 0
M  V30 454 H 41.8386 -0.464944 3.95074 0
M  V30 455 H 38.5776 1.19838 6.44453 0
M  V30 456 H 38.0976 -0.450305 5.98107 0
M  V30 457 H 39.7766 -0.110933 6.46905 0
M  V30 458 N 39.9087 -1.5758 0.0250728 0
M  V30 459 C 41.1567 -1.91255 -0.653151 0
M  V30 460 C 41.4777 -0.901691 -1.729 0
M  V30 461 O 40.7477 0.0573785 -1.95816 0
M  V30 462 H 39.3277 -0.705942 -0.244243 0
M  V30 463 H 41.9897 -1.94767 0.0719209 0
M  V30 464 H 41.0857 -2.91752 -1.10847 0
M  V30 465 N 41.3868 0.248026 -1.55636 0
M  V30 466 C 42.6328 0.97767 -1.77678 0
M  V30 467 C 42.9658 1.85016 -0.590135 0
M  V30 468 O 42.2408 1.90095 0.411611 0
M  V30 469 C 42.5238 1.83914 -3.09593 0
M  V30 470 C 42.3768 0.99491 -4.38659 0
M  V30 471 C 43.6958 2.82183 -3.37729 0
M  V30 472 H 40.8148 0.354005 -0.646413 0
M  V30 473 H 43.4568 0.248253 -1.88371 0
M  V30 474 H 41.6068 2.46104 -3.00608 0
M  V30 475 H 43.2788 0.391789 -4.59633 0
M  V30 476 H 41.5218 0.299231 -4.32767 0
M  V30 477 H 42.1928 1.63145 -5.2734 0
M  V30 478 H 44.6688 2.30129 -3.4667 0
M  V30 479 H 43.5448 3.39582 -4.31249 0
M  V30 480 H 43.8058 3.58588 -2.58586 0
M  V30 481 N 42.8649 1.48995 0.513639 0
M  V30 482 C 44.1129 1.57531 1.26604 0
M  V30 483 C 44.4339 0.258236 1.93283 0
M  V30 484 O 43.7039 -0.721502 1.8213 0
M  V30 485 H 42.2839 0.580387 0.470276 0
M  V30 486 H 44.9459 1.85552 0.596373 0
M  V30 487 H 44.0419 2.36486 2.03669 0
M  V30 488 N 44.343 -0.763751 1.37857 0
M  V30 489 C 45.591 -1.51957 1.33243 0
M  V30 490 C 45.912 -1.94835 -0.0801709 0
M  V30 491 O 45.182 -1.66894 -1.02582 0
M  V30 492 H 43.762 -0.563626 0.49024 0
M  V30 493 H 46.424 -0.908504 1.7243 0
M  V30 494 H 45.52 -2.41523 1.97669 0
M  V30 495 N 45.8211 -1.22559 -0.990812 0
M  V30 496 C 46.7841 -0.998863 -2.0629 0
M  V30 497 C 47.7841 0.0354834 -1.60761 0
M  V30 498 O 48.9741 -0.203231 -1.7301 0
M  V30 499 C 46.1061 -0.509203 -3.37076 0
M  V30 500 H 47.2991 -1.95014 -2.27837 0
M  V30 501 H 44.8521 -1.04456 -1.16269 0
M  V30 502 H 45.5871 0.446335 -3.21214 0
M  V30 503 H 45.3721 -1.25547 -3.71457 0
M  V30 504 H 46.8621 -0.370888 -4.1595 0
M  V30 505 N 47.2992 1.18797 -1.03562 0
M  V30 506 C 48.5472 1.88278 -0.734569 0
M  V30 507 C 48.8682 1.8043 0.739586 0
M  V30 508 O 48.1382 1.21925 1.53333 0
M  V30 509 H 46.7182 0.696991 -0.268725 0
M  V30 510 H 49.3802 1.44192 -1.31129 0
M  V30 511 H 48.4762 2.94443 -1.03489 0
M  V30 512 N 48.7773 0.814389 1.34928 0
M  V30 513 C 49.7253 0.218424 2.31572 0
M  V30 514 C 50.7193 -0.636128 1.57002 0
M  V30 515 O 51.9253 -0.52842 1.72069 0
M  V30 516 H 48.3003 0.0518799 0.750208 0
M  V30 517 H 50.2713 1.04852 2.79372 0
M  V30 518 C 49.0203 -0.61207 3.4227 0
M  V30 519 H 48.3433 0.0361578 3.99784 0
M  V30 520 H 49.7833 -0.995317 4.12152 0
M  V30 521 C 48.2423 -1.78087 2.85984 0
M  V30 522 O 48.7723 -2.8787 2.80168 0
M  V30 523 N 46.9783 -1.59488 2.42924 0
M  V30 524 H 46.5253 -0.701874 2.47854 0
M  V30 525 H 46.4833 -2.37846 2.05613 0
M  V30 526 N 50.2554 -1.46986 0.568584 0
M  V30 527 C 51.2034 -2.31858 -0.185649 0
M  V30 528 C 52.1974 -1.43624 -0.898249 0
M  V30 529 O 53.4034 -1.60327 -0.818242 0
M  V30 530 H 49.7784 -0.747866 -0.0787399 0
M  V30 531 H 51.7494 -2.93303 0.549191 0
M  V30 532 C 50.4984 -3.26513 -1.19519 0
M  V30 533 H 49.8214 -3.94377 -0.656285 0
M  V30 534 H 51.2614 -3.88707 -1.6936 0
M  V30 535 C 49.7204 -2.50847 -2.24894 0
M  V30 536 O 50.2504 -2.26119 -3.32014 0
M  V30 537 N 48.4564 -2.11656 -1.99124 0
M  V30 538 H 48.0034 -2.31966 -1.12024 0
M  V30 539 H 47.9614 -1.61347 -2.69842 0
M  V30 540 N 51.7335 -0.305618 -1.54608 0
M  V30 541 C 52.6965 0.555591 -2.22364 0
M  V30 542 C 53.6965 1.05768 -1.21119 0
M  V30 543 O 54.8865 0.952972 -1.45822 0
M  V30 544 C 52.0185 1.76974 -2.91364 0
M  V30 545 H 53.2115 -0.0364572 -2.99878 0
M  V30 546 H 50.7645 -0.0565007 -1.56198 0
M  V30 547 H 51.4995 2.40151 -2.17941 0
M  V30 548 H 51.2845 1.41732 -3.65588 0
M  V30 549 H 52.7745 2.38148 -3.43038 0
M  V30 550 N 53.2116 1.57565 -0.0334293 0
M  V30 551 C 54.4606 1.91155 0.643639 0
M  V30 552 C 54.7736 0.91192 1.73042 0
M  V30 553 O 55.9796 1.13923 2.46442 0
M  V30 554 C 54.4356 3.39443 1.1961 0
M  V30 555 C 54.0436 4.47774 0.142381 0
M  V30 556 C 55.7876 3.82094 1.84944 0
M  V30 557 C 53.6946 5.87162 0.706727 0
M  V30 558 H 52.6246 0.713368 0.244176 0
M  V30 559 H 55.2756 1.8323 -0.0994323 0
M  V30 560 H 53.6576 3.42313 1.99092 0
M  V30 561 H 54.8316 4.56469 -0.630296 0
M  V30 562 H 53.1466 4.14352 -0.412446 0
M  V30 563 H 55.7436 4.83591 2.2813 0
M  V30 564 H 56.0866 3.17386 2.69392 0
M  V30 565 H 56.6196 3.81665 1.12145 0
M  V30 566 H 53.3586 6.55424 -0.0997178 0
M  V30 567 H 52.8786 5.82064 1.44779 0
M  V30 568 H 54.5576 6.35866 1.19514 0
M  V30 569 N 54.6897 -0.239769 1.55765 0
M  V30 570 C 55.6377 -1.31668 1.91745 0
M  V30 571 C 56.6317 -1.49462 0.797338 0
M  V30 572 O 57.8377 -1.50852 0.982021 0
M  V30 573 H 54.2127 -0.441048 0.609082 0
M  V30 574 H 56.1837 -0.985923 2.81642 0
M  V30 575 C 54.9327 -2.66368 2.2348 0
M  V30 576 H 54.2557 -2.53478 3.09175 0
M  V30 577 H 55.6957 -3.40578 2.52553 0
M  V30 578 C 54.1547 -3.20002 1.05359 0
M  V30 579 O 54.6847 -4.00538 0.305261 0
M  V30 580 N 52.8907 -2.78126 0.842292 0
M  V30 581 H 52.4377 -2.12742 1.45253 0
M  V30 582 H 52.3957 -3.14354 0.053652 0
M  V30 583 N 56.1678 -1.49265 -0.50573 0
M  V30 584 C 57.5838 -1.35923 -0.836486 0
M  V30 585 C 57.7838 -0.388704 -1.97715 0
M  V30 586 O 56.8398 0.181336 -2.51848 0
M  V30 587 C 58.1528 -2.76531 -1.18115 0
M  V30 588 C 59.7008 -2.85197 -1.28964 0
M  V30 589 C 60.1758 -4.26561 -1.66761 0
M  V30 590 N 61.6668 -4.2935 -1.73819 0
M  V30 591 C 62.4018 -5.35693 -2.045 0
M  V30 592 N 61.8978 -6.52287 -2.33438 0
M  V30 593 N 63.6908 -5.23105 -2.05711 0
M  V30 594 H 55.8418 -2.10965 0.246519 0
M  V30 595 H 58.1048 -0.9468 0.0476887 0
M  V30 596 H 57.8108 -3.49226 -0.416398 0
M  V30 597 H 57.6848 -3.11599 -2.1257 0
M  V30 598 H 60.0718 -2.12742 -2.04511 0
M  V30 599 H 60.1528 -2.53718 -0.325704 0
M  V30 600 H 59.7968 -4.99541 -0.917656 0
M  V30 601 H 59.7268 -4.55502 -2.64246 0
M  V30 602 H 62.2178 -3.4526 -1.53635 0
M  V30 603 H 62.5308 -7.29158 -2.56024 0
M  V30 604 H 60.8758 -6.55521 -2.30905 0
M  V30 605 H 64.0668 -4.31026 -1.82577 0
M  V30 606 H 64.2398 -6.06078 -2.29289 0
M  V30 607 N 57.6459 0.756429 -1.3826 0
M  V30 608 C 58.5789 1.87802 -1.29637 0
M  V30 609 C 59.5569 1.61667 -0.173939 0
M  V30 610 O 60.7409 1.85208 -0.350775 0
M  V30 611 C 57.8679 3.23354 -1.00797 0
M  V30 612 C 56.9139 3.68379 -2.14939 0
M  V30 613 S 57.7469 3.8025 -3.77054 0
M  V30 614 C 58.9029 5.18626 -3.50396 0
M  V30 615 H 59.1359 1.94829 -2.24564 0
M  V30 616 H 56.6689 0.919117 -1.24063 0
M  V30 617 H 58.6269 4.01637 -0.848413 0
M  V30 618 H 57.2879 3.14008 -0.0759369 0
M  V30 619 H 56.4809 4.66693 -1.90299 0
M  V30 620 H 56.0829 2.97242 -2.26988 0
M  V30 621 H 58.3749 6.04289 -3.06334 0
M  V30 622 H 59.3179 5.48286 -4.48094 0
M  V30 623 H 59.7259 4.87289 -2.84973 0
M  V30 624 N 59.124 1.23083 0.984299 0
M  V30 625 C 60.373 1.05466 1.71929 0
M  V30 626 C 60.686 -0.409211 1.91272 0
M  V30 627 O 61.892 -0.705226 2.62181 0
M  V30 628 C 60.348 1.83874 3.09384 0
M  V30 629 C 59.956 3.34566 2.97943 0
M  V30 630 C 61.7 1.74734 3.8687 0
M  V30 631 C 59.607 4.05381 4.30605 0
M  V30 632 H 58.537 0.391039 0.644674 0
M  V30 633 H 61.188 1.47013 1.09815 0
M  V30 634 H 59.57 1.35131 3.72231 0
M  V30 635 H 60.744 3.90767 2.44209 0
M  V30 636 H 59.059 3.44476 2.33934 0
M  V30 637 H 61.656 2.24957 4.85076 0
M  V30 638 H 61.999 0.709372 4.10212 0
M  V30 639 H 62.532 2.21067 3.30717 0
M  V30 640 H 59.271 5.09467 4.1246 0
M  V30 641 H 58.791 3.53967 4.84218 0
M  V30 642 H 60.47 4.11458 4.99311 0
M  V30 643 N 60.6021 -1.18246 1.0419 0
M  V30 644 C 61.5121 -2.25574 0.644476 0
M  V30 645 C 62.5281 -1.70845 -0.329826 0
M  V30 646 O 63.7041 -2.00554 -0.184443 0
M  V30 647 C 60.7691 -3.46697 0.014877 0
M  V30 648 C 59.8301 -4.16554 1.03834 0
M  V30 649 C 59.0631 -5.31894 0.438692 0
M  V30 650 O 59.2861 -5.65385 -0.754752 0
M  V30 651 O 58.2201 -5.90459 1.168 0
M  V30 652 H 62.0461 -2.61836 1.53869 0
M  V30 653 H 59.6311 -1.25352 0.812854 0
M  V30 654 H 61.5131 -4.20062 -0.335538 0
M  V30 655 H 60.1881 -3.12255 -0.853138 0
M  V30 656 H 59.0951 -3.45251 1.44057 0
M  V30 657 H 60.4281 -4.54998 1.87716 0
M  V30 658 N 62.0802 -0.821533 -1.34494 0
M  V30 659 C 63.3292 -0.405355 -1.97585 0
M  V30 660 C 63.6422 1.03677 -1.65863 0
M  V30 661 O 64.8482 1.55679 -2.22433 0
M  V30 662 C 63.3042 -0.673861 -3.53535 0
M  V30 663 C 62.9122 -2.12951 -3.94152 0
M  V30 664 C 64.6562 -0.32378 -4.23263 0
M  V30 665 C 62.5632 -2.34298 -5.43009 0
M  V30 666 H 61.4932 -0.147836 -0.739365 0
M  V30 667 H 64.1442 -1.00769 -1.53355 0
M  V30 668 H 62.5262 -0.00137554 -3.96 0
M  V30 669 H 63.7002 -2.84104 -3.62797 0
M  V30 670 H 62.0152 -2.44089 -3.37356 0
M  V30 671 H 64.6122 -0.461126 -5.32708 0
M  V30 672 H 64.9552 0.731586 -4.09821 0
M  V30 673 H 65.4882 -0.950786 -3.8627 0
M  V30 674 H 62.2272 -3.38335 -5.61435 0
M  V30 675 H 61.7472 -1.67687 -5.75883 0
M  V30 676 H 63.4262 -2.16588 -6.09671 0
M  V30 677 N 63.5583 1.46682 -0.576371 0
M  V30 678 C 64.8063 2.02013 -0.0594163 0
M  V30 679 C 65.1273 1.45101 1.30271 0
M  V30 680 O 64.3973 0.633317 1.8538 0
M  V30 681 H 62.9773 0.746759 -0.0189745 0
M  V30 682 H 65.6393 1.79862 -0.750717 0
M  V30 683 H 64.7353 3.12097 0.014345 0
M  V30 684 N 65.0364 0.313813 1.54444 0
M  V30 685 C 66.2854 -0.292519 1.99568 0
M  V30 686 C 66.5984 -1.54011 1.20582 0
M  V30 687 O 67.8044 -2.22183 1.56035 0
M  V30 688 C 66.2604 -0.571752 3.55329 0
M  V30 689 C 65.8684 0.658229 4.43138 0
M  V30 690 C 67.6124 -1.13857 4.08946 0
M  V30 691 C 65.5194 0.351439 5.90355 0
M  V30 692 H 64.4494 -0.113079 0.745472 0
M  V30 693 H 67.1004 0.424518 1.78522 0
M  V30 694 H 65.4824 -1.34872 3.72325 0
M  V30 695 H 66.6564 1.43403 4.37918 0
M  V30 696 H 64.9714 1.14458 4.0036 0
M  V30 697 H 67.5684 -1.38257 5.16516 0
M  V30 698 H 67.9114 -2.08489 3.6033 0
M  V30 699 H 68.4444 -0.423015 3.95544 0
M  V30 700 H 65.1834 1.26667 6.43145 0
M  V30 701 H 64.7034 -0.386842 5.98551 0
M  V30 702 H 66.3824 -0.0423134 6.46986 0
M  V30 703 N 66.5145 -1.57545 0.0417849 0
M  V30 704 C 67.4645 -2.07483 -0.945247 0
M  V30 705 C 68.4485 -0.977983 -1.27767 0
M  V30 706 O 69.6405 -1.24142 -1.26166 0
M  V30 707 C 66.7695 -2.61576 -2.22335 0
M  V30 708 C 65.8555 -3.78213 -1.91874 0
M  V30 709 N 66.2465 -4.88344 -1.31733 0
M  V30 710 C 64.5445 -3.8694 -2.21796 0
M  V30 711 C 65.2455 -5.69462 -1.1869 0
M  V30 712 N 64.2215 -5.16771 -1.68666 0
M  V30 713 H 68.0235 -2.90029 -0.475441 0
M  V30 714 H 65.5375 -1.61581 -0.162911 0
M  V30 715 H 67.5345 -2.95651 -2.93932 0
M  V30 716 H 66.1945 -1.80465 -2.69931 0
M  V30 717 H 67.2055 -5.08335 -0.990729 0
M  V30 718 H 63.8825 -3.16757 -2.71977 0
M  V30 719 H 65.2725 -6.68023 -0.720793 0
M  V30 720 N 67.9926 0.231505 -1.5589 0
M  V30 721 C 69.2406 0.955461 -1.78088 0
M  V30 722 C 69.5616 1.85262 -0.608533 0
M  V30 723 O 68.8316 1.92277 0.375035 0
M  V30 724 H 67.4116 0.355787 -0.656829 0
M  V30 725 H 70.0736 0.245751 -1.93344 0
M  V30 726 H 69.1696 1.56814 -2.69844 0
M  V30 727 N 69.4707 1.49531 0.497807 0
M  V30 728 C 70.7167 1.59415 1.25358 0
M  V30 729 C 71.0497 0.281422 1.9215 0
M  V30 730 O 70.3247 -0.715249 1.80871 0
M  V30 731 C 70.6077 2.75566 2.3181 0
M  V30 732 C 70.4607 4.16642 1.69498 0
M  V30 733 C 71.7797 2.87347 3.33346 0
M  V30 734 H 68.8987 0.580244 0.454408 0
M  V30 735 H 71.5407 1.81827 0.551262 0
M  V30 736 H 69.6907 2.56587 2.91711 0
M  V30 737 H 71.3627 4.47145 1.13399 0
M  V30 738 H 69.6057 4.22141 0.998978 0
M  V30 739 H 70.2767 4.93792 2.46725 0
M  V30 740 H 72.7527 3.04634 2.83438 0
M  V30 741 H 71.6287 3.70289 4.05188 0
M  V30 742 H 71.8897 1.96834 3.95865 0
M  V30 743 N 70.9488 -0.749086 1.3866 0
M  V30 744 C 71.8588 -1.89358 1.38494 0
M  V30 745 C 72.8748 -1.71708 0.281476 0
M  V30 746 O 74.0508 -1.94554 0.520643 0
M  V30 747 C 71.1158 -3.24782 1.21316 0
M  V30 748 C 70.1768 -3.54926 2.41508 0
M  V30 749 C 69.4098 -4.83888 2.2514 0
M  V30 750 O 69.6328 -5.56592 1.24746 0
M  V30 751 O 68.5668 -5.13612 3.13826 0
M  V30 752 H 72.3928 -1.92452 2.34938 0
M  V30 753 H 69.9778 -0.894981 1.19626 0
M  V30 754 H 71.8598 -4.05739 1.13814 0
M  V30 755 H 70.5348 -3.2249 0.279592 0
M  V30 756 H 69.4418 -2.74112 2.54585 0
M  V30 757 H 70.7748 -3.61983 3.3351 0
M  V30 758 N 72.4269 -1.23603 -0.977757 0
M  V30 759 C 73.6739 -1.06971 -1.71941 0
M  V30 760 C 74.0019 0.393009 -1.90488 0
M  V30 761 O 73.2569 1.30719 -1.4564 0
M  V30 762 C 73.5559 -1.7433 -3.11999 0
M  V30 763 C 73.2219 -3.24252 -3.13323 0
M  V30 764 C 71.8839 -3.65156 -3.13392 0
M  V30 765 C 74.2359 -4.20141 -3.08433 0
M  V30 766 C 71.5639 -5.00403 -3.0629 0
M  V30 767 C 73.9159 -5.55384 -3.02873 0
M  V30 768 C 72.5799 -5.95647 -3.01265 0
M  V30 769 H 71.8499 -0.391433 -0.629175 0
M  V30 770 H 74.4969 -1.53572 -1.14403 0
M  V30 771 H 72.8019 -1.20096 -3.7294 0
M  V30 772 H 74.4989 -1.58936 -3.68158 0
M  V30 773 H 71.0889 -2.91692 -3.14029 0
M  V30 774 H 75.2729 -3.89547 -3.07517 0
M  V30 775 H 70.5289 -5.3081 -3.03399 0
M  V30 776 H 74.7029 -6.29398 -2.98046 0
M  V30 777 H 72.3299 -7.0041 -2.95516 0
M  V30 778 N 73.905 1.17692 -1.04816 0
M  V30 779 C 75.151 1.88137 -0.75711 0
M  V30 780 C 75.484 1.80604 0.713841 0
M  V30 781 O 74.759 1.21146 1.52164 0
M  V30 782 C 75.042 3.38318 -1.2334 0
M  V30 783 C 74.895 3.54622 -2.76701 0
M  V30 784 C 76.214 4.32214 -0.829415 0
M  V30 785 H 73.333 0.683163 -0.27651 0
M  V30 786 H 75.975 1.38424 -1.30149 0
M  V30 787 H 74.125 3.80787 -0.770286 0
M  V30 788 H 75.797 3.21194 -3.31107 0
M  V30 789 H 74.04 2.97026 -3.16161 0
M  V30 790 H 74.711 4.60028 -3.05088 0
M  V30 791 H 77.187 3.97565 -1.22805 0
M  V30 792 H 76.063 5.35838 -1.19033 0
M  V30 793 H 76.324 4.41294 0.266891 0
M  V30 794 N 75.3831 0.828654 1.34056 0
M  V30 795 C 76.3461 0.259927 2.27721 0
M  V30 796 C 77.3461 -0.565478 1.50529 0
M  V30 797 O 78.5361 -0.38075 1.69988 0
M  V30 798 C 75.6681 -0.634944 3.34935 0
M  V30 799 H 76.8611 1.0863 2.79534 0
M  V30 800 H 74.4141 0.600951 1.44285 0
M  V30 801 H 75.1491 -1.48416 2.88346 0
M  V30 802 H 74.9341 -0.0444999 3.92075 0
M  V30 803 H 76.4241 -1.02648 4.04788 0
M  V30 804 N 76.8612 -1.46375 0.584142 0
M  V30 805 C 78.1072 -2.02678 0.0703716 0
M  V30 806 C 78.4402 -1.4545 -1.28678 0
M  V30 807 O 77.7152 -0.62014 -1.84349 0
M  V30 808 C 77.9982 -3.60099 0.00614674 0
M  V30 809 C 77.8512 -4.27709 1.3923 0
M  V30 810 C 79.1702 -4.34598 -0.693742 0
M  V30 811 H 76.2892 -0.736504 0.027047 0
M  V30 812 H 78.9312 -1.74501 0.751615 0
M  V30 813 H 77.0812 -3.84236 -0.574009 0
M  V30 814 H 78.7532 -4.14832 2.01773 0
M  V30 815 H 76.9962 -3.87016 1.95962 0
M  V30 816 H 77.6672 -5.36478 1.29982 0
M  V30 817 H 80.1432 -4.15615 -0.200869 0
M  V30 818 H 79.0192 -5.44318 -0.707714 0
M  V30 819 H 79.2802 -4.05759 -1.75533 0
M  V30 820 N 78.3393 -0.321999 -1.54275 0
M  V30 821 C 79.2873 0.560206 -2.25753 0
M  V30 822 C 80.2813 1.11984 -1.27106 0
M  V30 823 O 81.4873 1.06806 -1.44888 0
M  V30 824 H 77.8623 0.199304 -0.725108 0
M  V30 825 H 79.8333 -0.0649365 -2.98329 0
M  V30 826 C 78.5823 1.71023 -3.02731 0
M  V30 827 H 77.9053 1.28885 -3.78456 0
M  V30 828 H 79.3453 2.30314 -3.55993 0
M  V30 829 C 77.8043 2.62692 -2.10938 0
M  V30 830 O 78.3343 3.64364 -1.6912 0
M  V30 831 N 76.5403 2.30891 -1.76459 0
M  V30 832 H 76.0873 1.48253 -2.10663 0
M  V30 833 H 76.0453 2.92487 -1.1532 0
M  V30 834 N 79.8174 1.5752 -0.0501392 0
M  V30 835 C 81.0454 1.96963 0.633492 0
M  V30 836 C 81.4604 0.927631 1.6444 0
M  V30 837 O 80.8174 -0.0882665 1.82286 0
M  V30 838 C 80.8684 3.36487 1.32132 0
M  V30 839 O 80.5894 4.36693 0.350894 0
M  V30 840 C 82.0904 3.90682 2.09481 0
M  V30 841 H 79.3104 0.648244 0.173266 0
M  V30 842 H 81.8544 2.0417 -0.116134 0
M  V30 843 H 80.0094 3.30434 2.02218 0
M  V30 844 H 80.4234 5.17702 0.841735 0
M  V30 845 H 81.8974 4.90591 2.5303 0
M  V30 846 H 82.3744 3.26053 2.94255 0
M  V30 847 H 82.9804 4.00069 1.44307 0
M  V30 848 N 81.2955 -0.223234 1.56011 0
M  V30 849 C 82.5725 -0.972108 1.69733 0
M  V30 850 C 82.9525 -2.02485 0.59691 0
M  V30 851 O 82.3005 -2.25037 -0.396324 0
M  V30 852 C 82.5105 -1.58407 3.10979 0
M  V30 853 C 83.8585 -2.07696 3.70334 0
M  V30 854 O 84.8825 -1.68304 3.1393 0
M  V30 855 O 83.7415 -2.80096 4.69264 0
M  V30 856 H 80.8355 -0.453993 0.691245 0
M  V30 857 H 83.3815 -0.215149 1.68331 0
M  V30 858 H 82.1535 -0.823831 3.82529 0
M  V30 859 H 81.7765 -2.40661 3.16493 0
M  V30 860 N 82.7736 -1.49793 -0.48987 0
M  V30 861 C 83.7036 -1.70201 -1.59856 0
M  V30 862 C 84.6846 -0.55076 -1.60937 0
M  V30 863 O 85.8696 -0.787841 -1.77501 0
M  V30 864 C 82.9996 -1.77882 -2.98287 0
M  V30 865 C 81.9536 -2.92907 -3.12073 0
M  V30 866 C 81.2796 -2.85712 -4.51965 0
M  V30 867 C 82.5796 -4.3369 -2.91051 0
M  V30 868 H 84.2736 -2.63025 -1.43032 0
M  V30 869 H 81.8196 -1.26574 -0.686664 0
M  V30 870 H 83.7726 -1.90744 -3.75759 0
M  V30 871 H 82.4966 -0.816653 -3.16225 0
M  V30 872 H 81.1556 -2.79665 -2.37029 0
M  V30 873 H 80.8036 -1.8738 -4.66795 0
M  V30 874 H 80.5036 -3.62921 -4.62128 0
M  V30 875 H 82.0276 -3.00598 -5.31482 0
M  V30 876 H 83.4416 -4.47555 -3.58284 0
M  V30 877 H 81.8386 -5.12205 -3.12675 0
M  V30 878 H 82.9086 -4.47362 -1.87071 0
M  V30 879 N 84.2517 0.741722 -1.39055 0
M  V30 880 C 85.1837 1.8657 -1.33133 0
M  V30 881 C 86.1967 1.61001 -0.241329 0
M  V30 882 O 87.3857 1.7136 -0.499784 0
M  V30 883 C 84.4857 3.22457 -1.04283 0
M  V30 884 C 83.6587 3.75435 -2.24427 0
M  V30 885 C 82.7177 4.89867 -1.92138 0
M  V30 886 O 81.7437 5.03879 -2.64754 0
M  V30 887 N 82.9457 5.73738 -0.88347 0
M  V30 888 H 85.7107 1.92156 -2.29991 0
M  V30 889 H 83.2717 0.922172 -1.3307 0
M  V30 890 H 85.2637 3.9657 -0.807128 0
M  V30 891 H 83.8337 3.12181 -0.161807 0
M  V30 892 H 83.0537 2.92751 -2.6399 0
M  V30 893 H 84.3417 4.07563 -3.04581 0
M  V30 894 H 83.7397 5.64999 -0.281517 0
M  V30 895 H 82.2967 6.47947 -0.707662 0
M  V30 896 N 85.7298 1.2412 0.971189 0
M  V30 897 C 86.9758 1.08041 1.71625 0
M  V30 898 C 87.3088 -0.380407 1.90438 0
M  V30 899 O 86.5838 -1.28127 1.46334 0
M  V30 900 C 86.8668 1.81682 3.10908 0
M  V30 901 C 86.7198 3.35493 2.99608 0
M  V30 902 C 88.0388 1.58671 4.10501 0
M  V30 903 H 85.1578 0.39388 0.622919 0
M  V30 904 H 87.7998 1.52743 1.13003 0
M  V30 905 H 85.9498 1.43684 3.60953 0
M  V30 906 H 87.6218 3.83068 2.57015 0
M  V30 907 H 85.8648 3.64052 2.35899 0
M  V30 908 H 86.5358 3.82217 3.98264 0
M  V30 909 H 89.0118 1.91719 3.69301 0
M  V30 910 H 87.8878 2.1266 5.06031 0
M  V30 911 H 88.1488 0.524161 4.38982 0
M  V30 912 N 87.2079 -1.17134 1.05439 0
M  V30 913 C 88.1379 -2.2342 0.678649 0
M  V30 914 C 89.1189 -1.66971 -0.32476 0
M  V30 915 O 90.3039 -1.93149 -0.201802 0
M  V30 916 C 87.4339 -3.47256 0.0552099 0
M  V30 917 C 86.3879 -4.16543 0.98365 0
M  V30 918 C 85.7139 -5.34231 0.223961 0
M  V30 919 C 87.0139 -4.68495 2.3089 0
M  V30 920 H 88.7079 -2.55105 1.56722 0
M  V30 921 H 86.2539 -1.2262 0.754998 0
M  V30 922 H 88.2069 -4.20828 -0.21946 0
M  V30 923 H 86.9309 -3.14846 -0.868319 0
M  V30 924 H 85.5899 -3.44887 1.24293 0
M  V30 925 H 85.2379 -4.98071 -0.702412 0
M  V30 926 H 84.9379 -5.81527 0.842627 0
M  V30 927 H 86.4619 -6.10585 -0.0433671 0
M  V30 928 H 87.8759 -5.33691 2.09396 0
M  V30 929 H 86.2729 -5.26379 2.88176 0
M  V30 930 H 87.3429 -3.85169 2.94572 0
M  V30 931 N 88.686 -0.835752 -1.33615 0
M  V30 932 C 89.596 -0.269088 -2.33052 0
M  V30 933 C 90.612 0.603251 -1.63208 0
M  V30 934 O 91.788 0.508112 -1.94885 0
M  V30 935 C 88.853 0.549091 -3.42324 0
M  V30 936 C 87.914 -0.347156 -4.27894 0
M  V30 937 C 87.147 0.43207 -5.31948 0
M  V30 938 O 87.37 1.66409 -5.45586 0
M  V30 939 O 86.304 -0.192298 -6.01593 0
M  V30 940 H 90.13 -1.09243 -2.83372 0
M  V30 941 H 87.715 -0.598198 -1.36901 0
M  V30 942 H 89.597 1.01414 -4.09015 0
M  V30 943 H 88.272 1.34955 -2.94226 0
M  V30 944 H 87.179 -0.859979 -3.64081 0
M  V30 945 H 88.512 -1.1123 -4.79467 0
M  V30 946 N 90.1641 1.46063 -0.591896 0
M  V30 947 C 91.1271 2.28854 0.125973 0
M  V30 948 C 92.1271 1.38903 0.810107 0
M  V30 949 O 93.3171 1.61186 0.66066 0
M  V30 950 C 90.4491 3.19526 1.1881 0
M  V30 951 H 91.6421 2.93802 -0.601717 0
M  V30 952 H 89.1951 1.52325 -0.350254 0
M  V30 953 H 89.9301 2.59345 1.94707 0
M  V30 954 H 89.7151 3.85766 0.701936 0
M  V30 955 H 91.2051 3.81817 1.69132 0
M  V30 956 N 91.6422 0.330177 1.54103 0
M  V30 957 C 92.8672 -0.274893 2.0557 0
M  V30 958 C 93.2922 -1.44487 1.20437 0
M  V30 959 O 92.6502 -1.80021 0.214991 0
M  V30 960 C 92.6982 -0.68079 3.54115 0
M  V30 961 O 91.8022 -1.7824 3.71893 0
M  V30 962 H 91.1432 -0.0483849 0.662235 0
M  V30 963 H 93.6732 0.480508 1.98878 0
M  V30 964 H 93.6832 -0.961635 3.96505 0
M  V30 965 H 92.3582 0.174903 4.15532 0
M  V30 966 H 90.9352 -1.49985 3.41407 0
M  V30 967 N 93.1203 -1.57491 0.0584922 0
M  V30 968 C 94.0683 -2.13148 -0.931168 0
M  V30 969 C 95.0623 -1.06507 -1.31729 0
M  V30 970 O 96.2683 -1.24906 -1.29609 0
M  V30 971 H 92.6433 -0.68137 -0.31818 0
M  V30 972 H 94.6143 -2.95187 -0.436707 0
M  V30 973 C 93.3633 -2.69732 -2.19408 0
M  V30 974 H 92.6863 -3.51454 -1.90578 0
M  V30 975 H 94.1263 -3.12287 -2.86798 0
M  V30 976 C 92.5853 -1.63855 -2.94369 0
M  V30 977 O 93.1153 -1.05565 -3.87581 0
M  V30 978 N 91.3213 -1.35202 -2.57233 0
M  V30 979 H 90.8683 -1.82791 -1.81508 0
M  V30 980 H 90.8263 -0.645922 -3.07693 0
M  V30 981 N 94.5984 0.214957 -1.56127 0
M  V30 982 C 95.5614 1.24997 -1.92116 0
M  V30 983 C 96.5614 1.39467 -0.800344 0
M  V30 984 O 97.7514 1.37619 -1.06802 0
M  V30 985 C 94.8834 2.62271 -2.17777 0
M  V30 986 H 96.0764 0.942875 -2.84693 0
M  V30 987 H 93.6294 0.455654 -1.49511 0
M  V30 988 H 94.3644 2.98068 -1.27773 0
M  V30 989 H 94.1494 2.53143 -2.99434 0
M  V30 990 H 95.6394 3.36946 -2.46693 0
M  V30 991 N 96.0765 1.50051 0.48192 0
M  V30 992 C 97.3535 1.51009 1.2432 0
M  V30 993 C 97.7335 0.248587 2.09631 0
M  V30 994 O 97.0815 -0.768409 2.15192 0
M  V30 995 C 97.2915 2.79981 2.08355 0
M  V30 996 C 98.6395 3.3022 2.66908 0
M  V30 997 O 99.6635 2.81228 2.18607 0
M  V30 998 O 98.5225 4.15595 3.54884 0
M  V30 999 H 95.6165 0.605239 0.563573 0
M  V30 1000 H 98.1625 1.62332 0.494627 0
M  V30 1001 H 96.9345 3.63275 1.45419 0
M  V30 1002 H 96.5575 2.7161 2.90368 0
M  V30 1003 N 97.5546 -0.734337 1.39446 0
M  V30 1004 C 98.8006 -1.49613 1.36908 0
M  V30 1005 C 99.1336 -1.94169 -0.0347829 0
M  V30 1006 O 98.4086 -1.66833 -0.999847 0
M  V30 1007 C 98.6916 -2.73534 2.34203 0
M  V30 1008 C 98.5446 -2.34993 3.83534 0
M  V30 1009 C 99.8636 -3.75635 2.29317 0
M  V30 1010 H 96.9826 -0.542714 0.498629 0
M  V30 1011 H 99.6246 -0.839597 1.70443 0
M  V30 1012 H 97.7746 -3.29553 2.05736 0
M  V30 1013 H 99.4466 -1.84601 4.22753 0
M  V30 1014 H 97.6896 -1.67213 4.00278 0
M  V30 1015 H 98.3606 -3.23738 4.47099 0
M  V30 1016 H 100.837 -3.29203 2.54489 0
M  V30 1017 H 99.7126 -4.60008 2.99472 0
M  V30 1018 H 99.9736 -4.22603 1.29842 0
M  V30 1019 N 99.0327 -1.24633 -0.964593 0
M  V30 1020 C 99.9797 -1.04144 -2.05968 0
M  V30 1021 C 100.95 0.046262 -1.66036 0
M  V30 1022 O 102.135 -0.108972 -1.90489 0
M  V30 1023 C 99.2747 -0.65563 -3.38815 0
M  V30 1024 C 98.3877 -1.81714 -3.91923 0
M  V30 1025 C 97.5227 -1.37662 -5.13052 0
M  V30 1026 C 96.5617 -2.50788 -5.58365 0
M  V30 1027 N 95.6987 -2.07582 -6.70712 0
M  V30 1028 H 100.539 -1.9787 -2.22827 0
M  V30 1029 H 98.0757 -0.9855 -1.09208 0
M  V30 1030 H 100.034 -0.412954 -4.15151 0
M  V30 1031 H 98.6637 0.244627 -3.21872 0
M  V30 1032 H 97.7157 -2.1734 -3.12198 0
M  V30 1033 H 99.0277 -2.66705 -4.21509 0
M  V30 1034 H 98.1817 -1.093 -5.96773 0
M  V30 1035 H 96.9207 -0.497293 -4.85158 0
M  V30 1036 H 95.9257 -2.79906 -4.73215 0
M  V30 1037 H 97.1507 -3.39283 -5.88272 0
M  V30 1038 H 95.0967 -1.22051 -6.44546 0
M  V30 1039 H 95.0137 -2.86125 -6.99763 0
M  V30 1040 H 96.2817 -1.82369 -7.57867 0
M  V30 1041 N 100.511 1.16574 -1.06058 0
M  V30 1042 C 101.76 1.86385 -0.770944 0
M  V30 1043 C 102.073 1.82448 0.705129 0
M  V30 1044 O 103.279 2.47815 1.10905 0
M  V30 1045 C 101.735 3.34466 -1.32893 0
M  V30 1046 C 101.343 3.46883 -2.83507 0
M  V30 1047 C 103.087 4.09548 -1.11672 0
M  V30 1048 C 100.994 4.89036 -3.32562 0
M  V30 1049 H 99.9238 0.698181 -0.284709 0
M  V30 1050 H 102.575 1.31583 -1.27899 0
M  V30 1051 H 100.957 3.88859 -0.748662 0
M  V30 1052 H 102.131 3.02663 -3.47465 0
M  V30 1053 H 100.446 2.85232 -3.03368 0
M  V30 1054 H 103.043 5.14434 -1.45814 0
M  V30 1055 H 103.386 4.16264 -0.0549535 0
M  V30 1056 H 103.919 3.61387 -1.66265 0
M  V30 1057 H 100.658 4.87499 -4.38207 0
M  V30 1058 H 100.178 5.3389 -2.73351 0
M  V30 1059 H 101.857 5.57843 -3.2775 0
M  V30 1060 N 101.989 0.842826 1.3317 0
M  V30 1061 C 102.921 0.236245 2.27979 0
M  V30 1062 C 103.934 -0.585282 1.51915 0
M  V30 1063 O 105.123 -0.411705 1.73687 0
M  V30 1064 C 102.223 -0.685717 3.3189 0
M  V30 1065 C 101.396 0.0973448 4.37292 0
M  V30 1066 C 100.455 -0.748565 5.20848 0
M  V30 1067 O 99.4809 -0.186339 5.68895 0
M  V30 1068 N 100.683 -2.06527 5.42519 0
M  V30 1069 H 103.448 1.05088 2.80672 0
M  V30 1070 H 101.009 0.701667 1.45905 0
M  V30 1071 H 103.001 -1.25669 3.84694 0
M  V30 1072 H 101.571 -1.40105 2.79445 0
M  V30 1073 H 100.791 0.849706 3.84933 0
M  V30 1074 H 102.079 0.635643 5.04814 0
M  V30 1075 H 101.477 -2.54554 5.05192 0
M  V30 1076 H 100.034 -2.58464 5.98364 0
M  V30 1077 N 103.467 -1.45747 0.599634 0
M  V30 1078 C 104.716 -2.01502 0.0893511 0
M  V30 1079 C 105.029 -1.4748 -1.28488 0
M  V30 1080 O 106.235 -1.95161 -1.88745 0
M  V30 1081 C 104.691 -3.59735 0.109082 0
M  V30 1082 C 104.299 -4.22754 1.48267 0
M  V30 1083 C 106.043 -4.23085 -0.346374 0
M  V30 1084 C 103.95 -5.73115 1.45921 0
M  V30 1085 H 102.88 -0.753417 0.0296347 0
M  V30 1086 H 105.531 -1.67303 0.753788 0
M  V30 1087 H 103.913 -3.91087 -0.621854 0
M  V30 1088 H 105.087 -4.02987 2.23468 0
M  V30 1089 H 103.402 -3.71567 1.87955 0
M  V30 1090 H 105.999 -5.33327 -0.38298 0
M  V30 1091 H 106.342 -3.93201 -1.36743 0
M  V30 1092 H 106.875 -3.9642 0.331038 0
M  V30 1093 H 103.614 -6.07685 2.45762 0
M  V30 1094 H 103.134 -5.95097 0.749665 0
M  V30 1095 H 104.813 -6.3616 1.17941 0
M  V30 1096 N 104.945 -0.338344 -1.53925 0
M  V30 1097 C 106.193 0.259245 -2.0043 0
M  V30 1098 C 106.514 1.51484 -1.22791 0
M  V30 1099 O 105.784 1.93037 -0.33368 0
M  V30 1100 H 104.364 0.0987845 -0.740439 0
M  V30 1101 H 107.026 -0.458302 -1.89435 0
M  V30 1102 H 106.122 0.505334 -3.07982 0
M  V30 1103 N 106.423 1.57458 -0.0668435 0
M  V30 1104 C 107.333 2.15937 0.916975 0
M  V30 1105 C 108.349 1.12123 1.33058 0
M  V30 1106 O 109.525 1.44366 1.40429 0
M  V30 1107 C 106.59 2.70547 2.16807 0
M  V30 1108 C 105.651 3.89215 1.81135 0
M  V30 1109 C 104.884 4.41211 3.0028 0
M  V30 1110 O 105.107 3.92225 4.14144 0
M  V30 1111 O 104.041 5.32605 2.80384 0
M  V30 1112 H 107.867 3.00354 0.449561 0
M  V30 1113 H 105.452 1.48584 0.155949 0
M  V30 1114 H 107.334 3.0557 2.90181 0
M  V30 1115 H 106.009 1.89192 2.62656 0
M  V30 1116 H 104.916 3.59054 1.05028 0
M  V30 1117 H 106.249 4.71848 1.40073 0
M  V30 1118 N 107.901 -0.206675 1.56239 0
M  V30 1119 C 108.849 -1.27571 1.94495 0
M  V30 1120 C 109.843 -1.47737 0.828862 0
M  V30 1121 O 111.049 -1.48735 1.0138 0
M  V30 1122 H 107.424 -0.428029 0.6183 0
M  V30 1123 H 109.395 -0.925961 2.8367 0
M  V30 1124 C 108.144 -2.61568 2.29079 0
M  V30 1125 H 107.467 -2.46863 3.14482 0
M  V30 1126 H 108.907 -3.35144 2.5972 0
M  V30 1127 C 107.366 -3.17695 1.12123 0
M  V30 1128 O 107.896 -3.99801 0.390153 0
M  V30 1129 N 106.102 -2.76276 0.901097 0
M  V30 1130 H 105.649 -2.09613 1.49733 0
M  V30 1131 H 105.607 -3.1417 0.120319 0
M  V30 1132 N 109.379 -1.50304 -0.473955 0
M  V30 1133 C 110.628 -1.60392 -1.22301 0
M  V30 1134 C 110.941 -0.308411 -1.93153 0
M  V30 1135 O 112.147 -0.288156 -2.69966 0
M  V30 1136 C 110.603 -2.83109 -2.2221 0
M  V30 1137 C 110.211 -4.19524 -1.57173 0
M  V30 1138 C 111.955 -3.0254 -2.97775 0
M  V30 1139 C 109.862 -5.33431 -2.55353 0
M  V30 1140 H 108.792 -0.597286 -0.460179 0
M  V30 1141 H 111.443 -1.76731 -0.493803 0
M  V30 1142 H 109.825 -2.60322 -2.9841 0
M  V30 1143 H 110.999 -4.52554 -0.867824 0
M  V30 1144 H 109.314 -4.05674 -0.939002 0
M  V30 1145 H 111.911 -3.84811 -3.71248 0
M  V30 1146 H 112.254 -2.14154 -3.56992 0
M  V30 1147 H 112.787 -3.25494 -2.28688 0
M  V30 1148 H 109.526 -6.23962 -2.00878 0
M  V30 1149 H 109.046 -5.04823 -3.23904 0
M  V30 1150 H 110.725 -5.63887 -3.17239 0
M  V30 1151 N 110.857 0.726932 -1.39834 0
M  V30 1152 C 112.085 1.51613 -1.40787 0
M  V30 1153 C 112.5 1.88799 -0.00451505 0
M  V30 1154 O 111.857 1.54662 0.968809 0
M  V30 1155 C 111.908 2.79863 -2.28821 0
M  V30 1156 O 111.629 2.44253 -3.63692 0
M  V30 1157 C 113.13 3.73837 -2.38245 0
M  V30 1158 H 110.35 0.468264 -0.480593 0
M  V30 1159 H 112.894 0.897607 -1.83748 0
M  V30 1160 H 111.049 3.38027 -1.89252 0
M  V30 1161 H 111.463 3.26695 -4.1033 0
M  V30 1162 H 112.937 4.60699 -3.04073 0
M  V30 1163 H 113.414 4.16153 -1.40403 0
M  V30 1164 H 114.02 3.21589 -2.78317 0
M  V30 1165 N 112.336 1.25143 0.95797 0
M  V30 1166 C 113.752 1.01892 1.22842 0
M  V30 1167 C 113.952 -0.266311 1.99732 0
M  V30 1168 O 113.008 -0.979913 2.3271 0
M  V30 1169 C 114.321 2.24004 2.00606 0
M  V30 1170 C 115.869 2.28731 2.13662 0
M  V30 1171 C 116.344 3.5049 2.94823 0
M  V30 1172 N 117.835 3.50866 3.02403 0
M  V30 1173 C 118.57 4.4174 3.65586 0
M  V30 1174 N 118.066 5.42882 4.30408 0
M  V30 1175 N 119.859 4.29429 3.62694 0
M  V30 1176 H 112.01 2.07718 0.443493 0
M  V30 1177 H 114.273 0.912031 0.258657 0
M  V30 1178 H 113.979 3.17395 1.51503 0
M  V30 1179 H 113.853 2.26907 3.01319 0
M  V30 1180 H 116.24 1.35865 2.61963 0
M  V30 1181 H 116.321 2.29848 1.12265 0
M  V30 1182 H 115.965 4.43676 2.47213 0
M  V30 1183 H 115.895 3.46617 3.96439 0
M  V30 1184 H 118.386 2.777 2.56302 0
M  V30 1185 H 118.699 6.0844 4.76467 0
M  V30 1186 H 117.044 5.46758 4.29047 0
M  V30 1187 H 120.235 3.49643 3.11236 0
M  V30 1188 H 120.408 5.00448 4.1165 0
M  V30 1189 N 113.814 -1.1601 1.06675 0
M  V30 1190 C 115.062 -1.86264 0.784229 0
M  V30 1191 C 115.383 -1.82328 -0.691488 0
M  V30 1192 O 114.653 -1.25947 -1.50047 0
M  V30 1193 H 113.233 -0.689621 0.28711 0
M  V30 1194 H 115.895 -1.40664 1.34906 0
M  V30 1195 H 114.991 -2.91595 1.11259 0
M  V30 1196 N 115.292 -0.849877 -1.32721 0
M  V30 1197 C 116.222 -0.306308 -2.31482 0
M  V30 1198 C 117.203 0.591952 -1.59468 0
M  V30 1199 O 118.388 0.513199 -1.87296 0
M  V30 1200 C 115.518 0.510204 -3.43532 0
M  V30 1201 C 114.472 -0.293209 -4.26994 0
M  V30 1202 C 113.798 0.647743 -5.30762 0
M  V30 1203 C 115.098 -1.51634 -4.99804 0
M  V30 1204 H 116.792 -1.13153 -2.77195 0
M  V30 1205 H 114.338 -0.545553 -1.33266 0
M  V30 1206 H 116.291 0.900856 -4.11658 0
M  V30 1207 H 115.015 1.36874 -2.96535 0
M  V30 1208 H 113.674 -0.665555 -3.60508 0
M  V30 1209 H 113.322 1.50299 -4.8002 0
M  V30 1210 H 113.022 0.11422 -5.87489 0
M  V30 1211 H 114.546 1.03567 -6.01753 0
M  V30 1212 H 115.96 -1.19824 -5.60638 0
M  V30 1213 H 114.357 -1.98745 -5.66234 0
M  V30 1214 H 115.427 -2.28018 -4.27943 0
M  V30 1215 N 116.77 1.45427 -0.607355 0
M  V30 1216 C 118.018 2.01841 -0.102253 0
M  V30 1217 C 118.339 1.47832 1.27164 0
M  V30 1218 O 117.609 0.672497 1.83995 0
M  V30 1219 H 116.189 0.746188 -0.0348101 0
M  V30 1220 H 118.851 1.78229 -0.7887 0
M  V30 1221 H 117.947 3.12057 -0.0518585 0
M  V30 1222 N 118.248 0.346503 1.53744 0
M  V30 1223 C 119.211 -0.496439 2.23759 0
M  V30 1224 C 120.211 -1.0252 1.2388 0
M  V30 1225 O 121.401 -0.913974 1.48297 0
M  V30 1226 C 118.533 -1.69187 2.95954 0
M  V30 1227 H 119.726 0.115952 2.99676 0
M  V30 1228 H 117.279 0.0978939 1.55993 0
M  V30 1229 H 118.014 -2.34288 2.24231 0
M  V30 1230 H 117.799 -1.31989 3.69217 0
M  V30 1231 H 119.289 -2.28969 3.49232 0
M  V30 1232 N 119.726 -1.57421 0.075193 0
M  V30 1233 C 120.974 -1.93236 -0.591974 0
M  V30 1234 C 121.295 -0.956241 -1.69944 0
M  V30 1235 O 120.565 -0.00494792 -1.95899 0
M  V30 1236 H 119.145 -0.713355 -0.22166 0
M  V30 1237 H 121.807 -1.9444 0.133848 0
M  V30 1238 H 120.903 -2.95131 -1.01509 0
M  V30 1239 N 121.204 0.198386 -1.56346 0
M  V30 1240 C 122.452 0.91747 -1.80075 0
M  V30 1241 C 122.773 1.83929 -0.647692 0
M  V30 1242 O 122.043 1.93029 0.334166 0
M  V30 1243 H 120.623 0.341774 -0.664228 0
M  V30 1244 H 123.285 0.204684 -1.93822 0
M  V30 1245 H 122.381 1.51055 -2.7311 0
M  V30 1246 N 122.682 1.50554 0.465978 0
M  V30 1247 C 124.098 1.38093 0.800154 0
M  V30 1248 C 124.298 0.440988 1.96615 0
M  V30 1249 O 123.354 -0.114499 2.5224 0
M  V30 1250 C 124.667 2.79565 1.10742 0
M  V30 1251 C 126.215 2.88516 1.21357 0
M  V30 1252 C 126.69 4.30833 1.55393 0
M  V30 1253 N 128.181 4.33807 1.62375 0
M  V30 1254 C 128.916 5.40927 1.90225 0
M  V30 1255 N 128.412 6.58247 2.16062 0
M  V30 1256 N 130.205 5.28376 1.9177 0
M  V30 1257 H 122.356 2.10237 -0.302366 0
M  V30 1258 H 124.619 0.945203 -0.0727746 0
M  V30 1259 H 124.325 3.50208 0.323661 0
M  V30 1260 H 124.199 3.17125 2.04234 0
M  V30 1261 H 126.586 2.1809 1.98799 0
M  V30 1262 H 126.667 2.54492 0.258321 0
M  V30 1263 H 126.311 5.01799 0.784889 0
M  V30 1264 H 126.241 4.62347 2.52076 0
M  V30 1265 H 128.732 3.49212 1.44427 0
M  V30 1266 H 129.045 7.3569 2.36601 0
M  V30 1267 H 127.39 6.61413 2.13444 0
M  V30 1268 H 130.581 4.35715 1.71085 0
M  V30 1269 H 130.754 6.11944 2.13139 0
M  V30 1270 N 124.16 -0.719506 1.40217 0
M  V30 1271 C 125.571 -1.29848 1.34151 0
M  V30 1272 C 125.922 -1.96196 0.0131349 0
M  V30 1273 O 125.047 -1.973 -0.88892 0
M  V30 1274 C 125.642 -2.36118 2.42968 0
M  V30 1275 C 124.201 -2.8965 2.40374 0
M  V30 1276 C 123.348 -1.63393 2.24049 0
M  V30 1277 H 126.299 -0.51591 1.5008 0
M  V30 1278 H 126.32 -3.16871 2.10649 0
M  V30 1279 H 125.832 -1.878 3.39636 0
M  V30 1280 H 123.933 -3.42208 1.47392 0
M  V30 1281 H 124.046 -3.4171 3.35814 0
M  V30 1282 H 122.41 -1.88312 1.71495 0
M  V30 1283 H 123.193 -1.17104 3.2271 0
M  V30 1284 N 125.638 -1.25649 -0.95132 0
M  V30 1285 C 126.548 -1.08073 -2.08224 0
M  V30 1286 C 127.564 -0.0169666 -1.73992 0
M  V30 1287 O 128.74 -0.218593 -2.0021 0
M  V30 1288 C 125.805 -0.704922 -3.39458 0
M  V30 1289 C 124.866 -1.84699 -3.87537 0
M  V30 1290 C 124.099 -1.48902 -5.12508 0
M  V30 1291 O 124.322 -0.386156 -5.69091 0
M  V30 1292 O 123.256 -2.32033 -5.55378 0
M  V30 1293 H 127.082 -2.02924 -2.25954 0
M  V30 1294 H 124.667 -1.04618 -1.06656 0
M  V30 1295 H 126.549 -0.507609 -4.18332 0
M  V30 1296 H 125.224 0.214291 -3.2299 0
M  V30 1297 H 124.131 -2.09919 -3.09653 0
M  V30 1298 H 125.464 -2.74557 -4.08509 0
M  V30 1299 N 127.117 1.15442 -1.07289 0
M  V30 1300 C 128.366 1.85557 -0.790669 0
M  V30 1301 C 128.679 1.83186 0.685739 0
M  V30 1302 O 129.885 2.48977 1.0827 0
M  V30 1303 C 128.341 3.33038 -1.36433 0
M  V30 1304 C 127.949 3.43856 -2.8717 0
M  V30 1305 C 129.693 4.0834 -1.1601 0
M  V30 1306 C 127.6 4.85482 -3.3773 0
M  V30 1307 H 126.53 0.695122 -0.292098 0
M  V30 1308 H 129.181 1.30219 -1.29287 0
M  V30 1309 H 127.563 3.88043 -0.789864 0
M  V30 1310 H 128.737 2.98961 -3.50655 0
M  V30 1311 H 127.052 2.81998 -3.06376 0
M  V30 1312 H 129.649 5.12859 -1.51262 0
M  V30 1313 H 129.992 4.16182 -0.0991007 0
M  V30 1314 H 130.525 3.59603 -1.70089 0
M  V30 1315 H 127.264 4.82823 -4.43353 0
M  V30 1316 H 126.784 5.30961 -2.78999 0
M  V30 1317 H 128.463 5.54335 -3.33648 0
M  V30 1318 N 128.595 0.856903 1.32268 0
M  V30 1319 C 129.843 0.460474 1.96784 0
M  V30 1320 C 130.164 -0.987701 1.68135 0
M  V30 1321 O 129.434 -1.69058 0.989765 0
M  V30 1322 H 128.014 0.167289 0.728027 0
M  V30 1323 H 130.676 1.09383 1.61312 0
M  V30 1324 H 129.772 0.60739 3.06133 0
M  V30 1325 N 130.073 -1.45103 0.615059 0
M  V30 1326 C 130.983 -2.34382 -0.101034 0
M  V30 1327 C 131.999 -1.51681 -0.852585 0
M  V30 1328 O 133.175 -1.8446 -0.808484 0
M  V30 1329 C 130.24 -3.29417 -1.08099 0
M  V30 1330 C 129.301 -4.28025 -0.330577 0
M  V30 1331 C 128.534 -5.1852 -1.26385 0
M  V30 1332 O 128.757 -5.12598 -2.50198 0
M  V30 1333 O 127.691 -5.97122 -0.756866 0
M  V30 1334 H 131.517 -2.97033 0.632855 0
M  V30 1335 H 129.102 -1.4461 0.375293 0
M  V30 1336 H 130.984 -3.87958 -1.6452 0
M  V30 1337 H 129.659 -2.69321 -1.79577 0
M  V30 1338 H 128.566 -3.73078 0.276283 0
M  V30 1339 H 129.899 -4.90997 0.343866 0
M  V30 1340 N 131.551 -0.354651 -1.53558 0
M  V30 1341 C 132.483 0.5315 -2.22952 0
M  V30 1342 C 133.496 1.05503 -1.23988 0
M  V30 1343 O 134.685 0.963279 -1.50277 0
M  V30 1344 C 131.785 1.74538 -2.90499 0
M  V30 1345 C 130.958 1.35524 -4.15875 0
M  V30 1346 C 130.017 2.42999 -4.66731 0
M  V30 1347 O 129.043 2.05844 -5.30676 0
M  V30 1348 N 130.245 3.74423 -4.43608 0
M  V30 1349 H 133.01 -0.0628615 -2.99634 0
M  V30 1350 H 130.571 -0.179302 -1.60904 0
M  V30 1351 H 132.563 2.45892 -3.21433 0
M  V30 1352 H 131.133 2.24686 -2.17336 0
M  V30 1353 H 130.353 0.471998 -3.91364 0
M  V30 1354 H 131.641 1.07071 -4.97406 0
M  V30 1355 H 131.039 4.07391 -3.92491 0
M  V30 1356 H 129.596 4.41913 -4.7912 0
M  V30 1357 N 133.029 1.57378 -0.0835403 0
M  V30 1358 C 133.992 2.12252 0.864959 0
M  V30 1359 C 134.992 1.04916 1.21858 0
M  V30 1360 O 136.182 1.30853 1.14991 0
M  V30 1361 C 133.314 2.63358 2.16461 0
M  V30 1362 H 134.507 2.97371 0.388676 0
M  V30 1363 H 132.06 1.55423 0.165317 0
M  V30 1364 H 132.795 1.81727 2.686 0
M  V30 1365 H 132.58 3.41826 1.92087 0
M  V30 1366 H 134.07 3.05847 2.84337 0
M  V30 1367 N 134.507 -0.190092 1.56449 0
M  V30 1368 C 135.47 -1.21925 1.9408 0
M  V30 1369 C 136.47 -1.38176 0.822431 0
M  V30 1370 O 137.66 -1.35903 1.08977 0
M  V30 1371 C 134.792 -2.58773 2.21922 0
M  V30 1372 H 135.985 -0.897464 2.86157 0
M  V30 1373 H 133.538 -0.43181 1.50217 0
M  V30 1374 H 134.273 -2.95998 1.32499 0
M  V30 1375 H 134.058 -2.48348 3.03424 0
M  V30 1376 H 135.548 -3.32978 2.52022 0
M  V30 1377 N 135.985 -1.50799 -0.457987 0
M  V30 1378 C 136.915 -1.73553 -1.5621 0
M  V30 1379 C 137.896 -0.584774 -1.59732 0
M  V30 1380 O 139.081 -0.825314 -1.7579 0
M  V30 1381 C 136.211 -1.84169 -2.94447 0
M  V30 1382 C 135.165 -2.99461 -3.0579 0
M  V30 1383 C 134.491 -2.95235 -4.45803 0
M  V30 1384 C 135.791 -4.39766 -2.81786 0
M  V30 1385 H 137.485 -2.66 -1.37421 0
M  V30 1386 H 135.031 -1.28002 -0.659662 0
M  V30 1387 H 136.984 -1.98672 -3.71628 0
M  V30 1388 H 135.708 -0.883545 -3.14422 0
M  V30 1389 H 134.367 -2.8463 -2.31044 0
M  V30 1390 H 134.015 -1.97239 -4.62715 0
M  V30 1391 H 133.715 -3.72642 -4.54326 0
M  V30 1392 H 135.239 -3.11803 -5.24987 0
M  V30 1393 H 136.653 -4.55054 -3.4871 0
M  V30 1394 H 135.05 -5.18722 -3.0174 0
M  V30 1395 H 136.12 -4.51229 -1.7754 0
M  V30 1396 N 137.463 0.71206 -1.40597 0
M  V30 1397 C 138.373 1.8562 -1.43466 0
M  V30 1398 C 139.389 1.70902 -0.326902 0
M  V30 1399 O 140.565 1.93105 -0.572043 0
M  V30 1400 C 137.63 3.21451 -1.29884 0
M  V30 1401 C 136.691 3.48398 -2.50833 0
M  V30 1402 C 135.924 4.77749 -2.3789 0
M  V30 1403 O 136.147 5.53089 -1.39459 0
M  V30 1404 O 135.081 5.05111 -3.27333 0
M  V30 1405 H 138.907 1.86155 -2.39958 0
M  V30 1406 H 136.492 0.86295 -1.21957 0
M  V30 1407 H 138.374 4.02579 -1.24531 0
M  V30 1408 H 137.049 3.21636 -0.364997 0
M  V30 1409 H 135.956 2.67265 -2.61763 0
M  V30 1410 H 137.289 3.53014 -3.4299 0
M  V30 1411 N 138.941 1.26152 0.944643 0
M  V30 1412 C 140.166 1.14363 1.7302 0
M  V30 1413 C 140.591 -0.29772 1.85729 0
M  V30 1414 O 139.949 -1.2157 1.34501 0
M  V30 1415 C 139.997 1.81378 3.11664 0
M  V30 1416 O 139.101 1.10022 3.97453 0
M  V30 1417 H 138.442 0.398694 0.53098 0
M  V30 1418 H 140.972 1.66906 1.18337 0
M  V30 1419 H 140.982 1.88064 3.62072 0
M  V30 1420 H 139.657 2.86237 3.0173 0
M  V30 1421 H 138.234 1.11287 3.55907 0
M  V30 1422 N 140.419 -1.14872 1.07899 0
M  V30 1423 C 141.329 -2.2341 0.715915 0
M  V30 1424 C 142.345 -1.71808 -0.275306 0
M  V30 1425 O 143.521 -2.01039 -0.120545 0
M  V30 1426 C 140.586 -3.46474 0.125168 0
M  V30 1427 C 139.647 -4.13039 1.17034 0
M  V30 1428 C 138.88 -5.30229 0.607688 0
M  V30 1429 O 139.103 -5.675 -0.574497 0
M  V30 1430 O 138.037 -5.86444 1.35526 0
M  V30 1431 H 141.863 -2.56808 1.62121 0
M  V30 1432 H 139.448 -1.22702 0.852322 0
M  V30 1433 H 141.33 -4.20917 -0.201729 0
M  V30 1434 H 140.005 -3.14811 -0.753364 0
M  V30 1435 H 138.912 -3.40493 1.54968 0
M  V30 1436 H 140.245 -4.48796 2.02097 0
M  V30 1437 N 141.898 -0.863906 -1.31812 0
M  V30 1438 C 142.808 -0.318461 -2.32428 0
M  V30 1439 C 143.824 0.568496 -1.64451 0
M  V30 1440 O 145 0.46666 -1.95919 0
M  V30 1441 C 142.065 0.476355 -3.43412 0
M  V30 1442 C 141.126 -0.43784 -4.27061 0
M  V30 1443 C 140.359 0.319138 -5.32745 0
M  V30 1444 O 140.582 1.54799 -5.48993 0
M  V30 1445 O 139.516 -0.319861 -6.01049 0
M  V30 1446 H 143.342 -1.15229 -2.80991 0
M  V30 1447 H 140.927 -0.627103 -1.35602 0
M  V30 1448 H 142.809 0.927156 -4.11074 0
M  V30 1449 H 141.484 1.28683 -2.97022 0
M  V30 1450 H 140.391 -0.937013 -3.62175 0
M  V30 1451 H 141.724 -1.21375 -4.77 0
M  V30 1452 N 143.376 1.44774 -0.622745 0
M  V30 1453 C 144.323 2.30635 0.0871679 0
M  V30 1454 C 145.293 1.42994 0.845097 0
M  V30 1455 O 146.478 1.71907 0.827812 0
M  V30 1456 C 143.618 3.28144 1.06844 0
M  V30 1457 C 142.731 4.30888 0.309809 0
M  V30 1458 C 141.866 5.15494 1.28215 0
M  V30 1459 C 140.905 6.09953 0.512198 0
M  V30 1460 N 140.042 6.87287 1.43458 0
M  V30 1461 H 144.882 2.90803 -0.650974 0
M  V30 1462 H 142.419 1.43286 -0.33281 0
M  V30 1463 H 144.377 3.83157 1.65066 0
M  V30 1464 H 143.007 2.69695 1.77382 0
M  V30 1465 H 142.059 3.78414 -0.388181 0
M  V30 1466 H 143.371 4.97955 -0.290254 0
M  V30 1467 H 142.525 5.74983 1.93596 0
M  V30 1468 H 141.264 4.48481 1.91614 0
M  V30 1469 H 140.269 5.49581 -0.155151 0
M  V30 1470 H 141.494 6.78999 -0.116958 0
M  V30 1471 H 139.44 6.2295 2.05594 0
M  V30 1472 H 139.357 7.50763 0.888335 0
M  V30 1473 H 140.625 7.51306 2.07749 0
M  V30 1474 N 144.854 0.36279 1.53368 0
M  V30 1475 C 146.103 -0.22888 2.00397 0
M  V30 1476 C 146.416 -1.50096 1.25421 0
M  V30 1477 O 147.622 -2.17106 1.63025 0
M  V30 1478 C 146.078 -0.458417 3.56969 0
M  V30 1479 C 145.686 0.798877 4.4082 0
M  V30 1480 C 147.43 -1.00789 4.12361 0
M  V30 1481 C 145.337 0.539078 5.88938 0
M  V30 1482 H 144.267 -0.089305 0.748693 0
M  V30 1483 H 146.918 0.481099 1.77081 0
M  V30 1484 H 145.3 -1.22959 3.76427 0
M  V30 1485 H 146.474 1.57262 4.33134 0
M  V30 1486 H 144.789 1.27137 3.96516 0
M  V30 1487 H 147.386 -1.21754 5.20653 0
M  V30 1488 H 147.729 -1.9692 3.66781 0
M  V30 1489 H 148.262 -0.296961 3.9669 0
M  V30 1490 H 145.001 1.47064 6.3879 0
M  V30 1491 H 144.521 -0.196222 5.99479 0
M  V30 1492 H 146.2 0.163542 6.46793 0
M  V30 1493 N 146.332 -1.57332 0.0918853 0
M  V30 1494 C 147.748 -1.57389 -0.264766 0
M  V30 1495 C 147.948 -1.10281 -1.68643 0
M  V30 1496 O 147.004 -0.777801 -2.40222 0
M  V30 1497 C 148.317 -3.00648 -0.0561195 0
M  V30 1498 C 149.865 -3.12754 -0.124116 0
M  V30 1499 C 150.34 -4.57965 0.0564972 0
M  V30 1500 N 151.831 -4.632 0.00155611 0
M  V30 1501 C 152.566 -5.73281 0.116598 0
M  V30 1502 N 152.062 -6.92208 0.286294 0
M  V30 1503 N 153.855 -5.6207 0.0580973 0
M  V30 1504 H 146.006 -1.86262 1.02079 0
M  V30 1505 H 148.269 -0.859579 0.399786 0
M  V30 1506 H 147.975 -3.393 0.925669 0
M  V30 1507 H 147.849 -3.68623 -0.799823 0
M  V30 1508 H 150.236 -2.73976 -1.09641 0
M  V30 1509 H 150.317 -2.47377 0.651024 0
M  V30 1510 H 149.961 -4.97436 1.02564 0
M  V30 1511 H 149.891 -5.21399 -0.738297 0
M  V30 1512 H 152.382 -3.77686 -0.127192 0
M  V30 1513 H 152.695 -7.71934 0.365676 0
M  V30 1514 H 151.04 -6.94254 0.32192 0
M  V30 1515 H 154.231 -4.68043 -0.0733204 0
M  V30 1516 H 154.404 -6.47824 0.151203 0
M  V30 1517 N 147.81 0.181792 -1.56548 0
M  V30 1518 C 148.72 1.24538 -1.98815 0
M  V30 1519 C 149.736 1.49045 -0.897861 0
M  V30 1520 O 150.912 1.61399 -1.20467 0
M  V30 1521 C 147.977 2.56683 -2.33055 0
M  V30 1522 C 147.038 2.40131 -3.55859 0
M  V30 1523 C 146.271 3.65975 -3.88456 0
M  V30 1524 O 146.494 4.70711 -3.22161 0
M  V30 1525 O 145.428 3.6071 -4.81842 0
M  V30 1526 H 149.254 0.916647 -2.89536 0
M  V30 1527 H 146.839 0.387842 -1.44278 0
M  V30 1528 H 148.721 3.34655 -2.56094 0
M  V30 1529 H 147.396 2.89157 -1.45498 0
M  V30 1530 H 146.303 1.60226 -3.38051 0
M  V30 1531 H 147.636 2.12585 -4.43924 0
M  V30 1532 N 149.288 1.51039 0.449983 0
M  V30 1533 C 150.534 1.63322 1.20223 0
M  V30 1534 C 150.867 0.34241 1.91158 0
M  V30 1535 O 150.142 -0.657344 1.83055 0
M  V30 1536 C 150.425 2.82801 2.22925 0
M  V30 1537 C 150.278 4.21823 1.56157 0
M  V30 1538 C 151.597 2.97807 3.24035 0
M  V30 1539 H 148.716 0.594407 0.435718 0
M  V30 1540 H 151.358 1.83489 0.493136 0
M  V30 1541 H 149.508 2.65738 2.834 0
M  V30 1542 H 151.18 4.50526 0.991162 0
M  V30 1543 H 149.423 4.25105 0.864172 0
M  V30 1544 H 150.094 5.01391 2.30891 0
M  V30 1545 H 152.57 3.13497 2.73603 0
M  V30 1546 H 151.446 3.82992 3.93202 0
M  V30 1547 H 151.707 2.09328 3.89402 0
M  V30 1548 N 150.766 -0.704594 1.40972 0
M  V30 1549 C 151.696 -1.83124 1.44872 0
M  V30 1550 C 152.677 -1.67281 0.30838 0
M  V30 1551 O 153.862 -1.87149 0.518556 0
M  V30 1552 C 150.992 -3.21181 1.32136 0
M  V30 1553 C 149.946 -3.51714 2.43888 0
M  V30 1554 C 149.272 -4.89032 2.16222 0
M  V30 1555 C 150.572 -3.516 3.86232 0
M  V30 1556 H 152.266 -1.80117 2.39161 0
M  V30 1557 H 149.812 -0.865145 1.15114 0
M  V30 1558 H 151.765 -3.99702 1.33479 0
M  V30 1559 H 150.489 -3.24791 0.343279 0
M  V30 1560 H 149.148 -2.75539 2.41813 0
M  V30 1561 H 148.796 -4.89256 1.16778 0
M  V30 1562 H 148.496 -5.10426 2.911 0
M  V30 1563 H 150.02 -5.69873 2.19265 0
M  V30 1564 H 151.434 -4.2014 3.9007 0
M  V30 1565 H 149.831 -3.84523 4.60719 0
M  V30 1566 H 150.901 -2.50757 4.15029 0
M  V30 1567 N 152.244 -1.26651 -0.937939 0
M  V30 1568 C 153.176 -1.04283 -2.04102 0
M  V30 1569 C 154.189 -0.00221014 -1.628 0
M  V30 1570 O 155.378 -0.242645 -1.76843 0
M  V30 1571 C 152.478 -0.557846 -3.34277 0
M  V30 1572 C 151.651 -1.66843 -4.04329 0
M  V30 1573 C 150.71 -1.18095 -5.12777 0
M  V30 1574 O 149.736 -1.87865 -5.37304 0
M  V30 1575 N 150.938 -0.0311006 -5.80492 0
M  V30 1576 H 153.703 -1.9927 -2.23856 0
M  V30 1577 H 151.264 -1.1808 -1.10764 0
M  V30 1578 H 153.256 -0.215836 -4.04124 0
M  V30 1579 H 151.826 0.298523 -3.11171 0
M  V30 1580 H 151.046 -2.18123 -3.28353 0
M  V30 1581 H 152.334 -2.41408 -4.47883 0
M  V30 1582 H 151.732 0.551486 -5.63005 0
M  V30 1583 H 150.289 0.251809 -6.51313 0
M  V30 1584 N 153.722 1.14298 -1.08507 0
M  V30 1585 C 154.999 1.81544 -0.728088 0
M  V30 1586 C 155.379 1.95838 0.78808 0
M  V30 1587 O 154.727 1.51904 1.70697 0
M  V30 1588 C 154.937 3.17169 -1.45619 0
M  V30 1589 C 156.285 3.9265 -1.61591 0
M  V30 1590 O 157.309 3.26762 -1.41793 0
M  V30 1591 O 156.168 5.10807 -1.94263 0
M  V30 1592 H 153.262 0.78491 -0.260471 0
M  V30 1593 H 155.808 1.21307 -1.18671 0
M  V30 1594 H 154.58 3.01934 -2.489 0
M  V30 1595 H 154.203 3.851 -0.989124 0
M  V30 1596 N 155.201 0.870884 1.31352 0
M  V30 1597 C 156.429 0.49677 2.00848 0
M  V30 1598 C 156.844 -0.910998 1.65367 0
M  V30 1599 O 156.201 -1.59696 0.883374 0
M  V30 1600 C 156.252 0.645308 3.55694 0
M  V30 1601 O 155.973 1.99764 3.89905 0
M  V30 1602 C 157.474 0.272326 4.42463 0
M  V30 1603 H 154.694 0.193462 0.642506 0
M  V30 1604 H 157.238 1.1723 1.67563 0
M  V30 1605 H 155.393 0.0173176 3.87396 0
M  V30 1606 H 155.807 2.00607 4.84621 0
M  V30 1607 H 157.281 0.427208 5.50344 0
M  V30 1608 H 157.758 -0.788587 4.32062 0
M  V30 1609 H 158.364 0.876054 4.1618 0
M  V30 1610 N 156.679 -1.44442 0.630414 0
M  V30 1611 C 157.629 -2.27794 -0.0968103 0
M  V30 1612 C 158.613 -1.38624 -0.816834 0
M  V30 1613 O 159.805 -1.62438 -0.70306 0
M  V30 1614 C 156.934 -3.25929 -1.07819 0
M  V30 1615 C 156.02 -4.22588 -0.357826 0
M  V30 1616 N 156.411 -5.0207 0.613169 0
M  V30 1617 C 154.709 -4.41914 -0.602365 0
M  V30 1618 C 155.41 -5.72351 1.03871 0
M  V30 1619 N 154.386 -5.42287 0.377642 0
M  V30 1620 H 158.188 -2.86653 0.648621 0
M  V30 1621 H 155.702 -1.55871 0.455862 0
M  V30 1622 H 157.699 -3.84399 -1.61378 0
M  V30 1623 H 156.359 -2.68631 -1.82393 0
M  V30 1624 H 157.37 -5.08331 0.990947 0
M  V30 1625 H 154.047 -3.95714 -1.33103 0
M  V30 1626 H 155.437 -6.4619 1.84086 0
M  V30 1627 N 158.157 -0.370918 -1.53173 0
M  V30 1628 C 159.09 0.516727 -2.22273 0
M  V30 1629 C 160.068 1.07877 -1.21661 0
M  V30 1630 O 161.252 1.13389 -1.50583 0
M  V30 1631 C 158.379 1.71346 -2.92161 0
M  V30 1632 C 157.425 1.27838 -4.0689 0
M  V30 1633 S 158.258 0.275217 -5.34792 0
M  V30 1634 C 159.414 1.47816 -6.08195 0
M  V30 1635 H 159.647 -0.0701054 -2.97217 0
M  V30 1636 H 157.18 -0.155038 -1.5362 0
M  V30 1637 H 159.138 2.39988 -3.3304 0
M  V30 1638 H 157.799 2.27156 -2.16931 0
M  V30 1639 H 156.992 2.17141 -4.54825 0
M  V30 1640 H 156.594 0.671105 -3.6793 0
M  V30 1641 H 158.886 2.40831 -6.33251 0
M  V30 1642 H 159.829 1.04008 -7.0042 0
M  V30 1643 H 160.237 1.68663 -5.38714 0
M  V30 1644 N 159.635 1.57281 -0.100228 0
M  V30 1645 C 160.881 1.94826 0.563101 0
M  V30 1646 C 161.214 0.982475 1.67514 0
M  V30 1647 O 160.489 0.0164069 1.94493 0
M  V30 1648 C 160.772 3.42453 1.11346 0
M  V30 1649 C 160.625 4.498 0.00612081 0
M  V30 1650 C 161.944 3.91506 2.01024 0
M  V30 1651 H 159.063 0.708428 0.203221 0
M  V30 1652 H 161.705 1.8922 -0.171979 0
M  V30 1653 H 159.855 3.47361 1.7399 0
M  V30 1654 H 161.527 4.57 -0.628357 0
M  V30 1655 H 159.77 4.28756 -0.659581 0
M  V30 1656 H 160.441 5.50306 0.432109 0
M  V30 1657 H 162.917 3.88784 1.48278 0
M  V30 1658 H 161.793 4.95358 2.36457 0
M  V30 1659 H 162.054 3.31099 2.92961 0
M  V30 1660 N 161.113 -0.173488 1.56642 0
M  V30 1661 C 162.36 -0.890465 1.81871 0
M  V30 1662 C 162.688 -1.82339 0.67696 0
M  V30 1663 O 161.943 -1.92795 -0.335926 0
M  V30 1664 C 162.242 -1.72069 3.13252 0
M  V30 1665 C 161.908 -0.936878 4.41059 0
M  V30 1666 C 160.57 -0.720545 4.75775 0
M  V30 1667 C 162.922 -0.386919 5.19762 0
M  V30 1668 C 160.25 0.0568829 5.86672 0
M  V30 1669 C 162.602 0.37741 6.31473 0
M  V30 1670 C 161.266 0.604563 6.64757 0
M  V30 1671 H 160.536 -0.325844 0.665512 0
M  V30 1672 H 163.183 -0.155527 1.90867 0
M  V30 1673 H 161.488 -2.52496 2.99588 0
M  V30 1674 H 163.185 -2.27844 3.29982 0
M  V30 1675 H 159.775 -1.11553 4.13828 0
M  V30 1676 H 163.959 -0.541398 4.93338 0
M  V30 1677 H 159.215 0.242635 6.10918 0
M  V30 1678 H 163.389 0.810825 6.91664 0
M  V30 1679 H 161.016 1.20885 7.50527 0
M  V30 1680 N 162.591 -1.51276 -0.441967 0
M  V30 1681 C 163.84 -1.6295 -1.18871 0
M  V30 1682 C 164.153 -0.349312 -1.92456 0
M  V30 1683 O 165.359 -0.345355 -2.69295 0
M  V30 1684 C 163.815 -2.87759 -2.16155 0
M  V30 1685 C 163.423 -4.22764 -1.48239 0
M  V30 1686 C 165.167 -3.08788 -2.91291 0
M  V30 1687 C 163.074 -5.38728 -2.4398 0
M  V30 1688 H 162.004 -0.606913 -0.447406 0
M  V30 1689 H 164.655 -1.77739 -0.456205 0
M  V30 1690 H 163.037 -2.66593 -2.92821 0
M  V30 1691 H 164.211 -4.54293 -0.771635 0
M  V30 1692 H 162.526 -4.07575 -0.852741 0
M  V30 1693 H 165.123 -3.92599 -3.63002 0
M  V30 1694 H 165.466 -2.21679 -3.5237 0
M  V30 1695 H 165.999 -3.30272 -2.21733 0
M  V30 1696 H 162.738 -6.28082 -1.87598 0
M  V30 1697 H 162.258 -5.1158 -3.13123 0
M  V30 1698 H 163.937 -5.70489 -3.05207 0
M  V30 1699 N 164.069 0.697108 -1.41344 0
M  V30 1700 C 165.297 1.48593 -1.43972 0
M  V30 1701 C 165.712 1.88747 -0.0445612 0
M  V30 1702 O 165.069 1.56682 0.935785 0
M  V30 1703 C 165.12 2.74946 -2.34706 0
M  V30 1704 O 164.841 2.36484 -3.68791 0
M  V30 1705 C 166.342 3.687 -2.46121 0
M  V30 1706 H 163.562 0.457964 -0.490418 0
M  V30 1707 H 166.106 0.858429 -1.8561 0
M  V30 1708 H 164.261 3.33937 -1.9638 0
M  V30 1709 H 164.675 3.17918 -4.17167 0
M  V30 1710 H 166.149 4.54145 -3.13777 0
M  V30 1711 H 166.626 4.13081 -1.49199 0
M  V30 1712 H 167.232 3.15613 -2.85076 0
M  V30 1713 N 165.547 1.27147 0.931209 0
M  V30 1714 C 166.51 1.09615 2.01289 0
M  V30 1715 C 167.51 0.0412581 1.60747 0
M  V30 1716 O 168.7 0.285545 1.71844 0
M  V30 1717 C 165.832 0.669447 3.34262 0
M  V30 1718 H 167.025 2.05662 2.18273 0
M  V30 1719 H 164.578 1.09885 1.11153 0
M  V30 1720 H 165.313 -0.292572 3.22978 0
M  V30 1721 H 165.098 1.43127 3.65044 0
M  V30 1722 H 166.588 0.568921 4.13706 0
M  V30 1723 N 167.025 -1.13721 1.09112 0
M  V30 1724 C 168.273 -1.84559 0.823562 0
M  V30 1725 C 168.594 -1.83754 -0.652658 0
M  V30 1726 O 167.864 -1.29102 -1.47342 0
M  V30 1727 H 166.444 -0.683376 0.301673 0
M  V30 1728 H 169.106 -1.37771 1.37859 0
M  V30 1729 H 168.202 -2.8917 1.17419 0
M  V30 1730 N 168.503 -0.877838 -1.30888 0
M  V30 1731 C 169.75 -0.492696 -1.96415 0
M  V30 1732 C 170.078 0.956671 -1.69346 0
M  V30 1733 O 169.333 1.68993 -0.986913 0
M  V30 1734 C 169.632 -0.705748 -3.50363 0
M  V30 1735 C 169.298 -2.1291 -3.97467 0
M  V30 1736 C 167.96 -2.51834 -4.1004 0
M  V30 1737 C 170.312 -3.05702 -4.22132 0
M  V30 1738 C 167.64 -3.82775 -4.44635 0
M  V30 1739 C 169.992 -4.36166 -4.58194 0
M  V30 1740 C 168.656 -4.74993 -4.68975 0
M  V30 1741 H 167.926 -0.18029 -0.718733 0
M  V30 1742 H 170.573 -1.11233 -1.55883 0
M  V30 1743 H 168.878 -0.00303058 -3.918 0
M  V30 1744 H 170.575 -0.387456 -3.99124 0
M  V30 1745 H 167.165 -1.81694 -3.88182 0
M  V30 1746 H 171.349 -2.76853 -4.11906 0
M  V30 1747 H 166.605 -4.12609 -4.51181 0
M  V30 1748 H 170.779 -5.08111 -4.76231 0
M  V30 1749 H 168.406 -5.76495 -4.95537 0
M  V30 1750 N 169.982 1.44106 -0.638065 0
M  V30 1751 C 171.23 2.01579 -0.145043 0
M  V30 1752 C 171.551 1.50496 1.24 0
M  V30 1753 O 170.821 0.711374 1.82527 0
M  V30 1754 H 169.401 0.745282 -0.05063 0
M  V30 1755 H 172.063 1.76516 -0.826327 0
M  V30 1756 H 171.159 3.11877 -0.118039 0
M  V30 1757 N 171.46 0.379036 1.52974 0
M  V30 1758 C 172.708 -0.206014 2.01047 0
M  V30 1759 C 173.029 -1.48175 1.26765 0
M  V30 1760 O 172.299 -1.92085 0.384743 0
M  V30 1761 H 170.879 -0.0791184 0.742798 0
M  V30 1762 H 173.541 0.508366 1.88153 0
M  V30 1763 H 172.637 -0.423501 3.09213 0
M  V30 1764 N 172.938 -1.57226 0.108567 0
M  V30 1765 C 174.186 -1.94448 -0.550853 0
M  V30 1766 C 174.507 -0.992074 -1.67878 0
M  V30 1767 O 173.777 -0.0465 -1.95845 0
M  V30 1768 H 172.357 -0.717897 -0.206479 0
M  V30 1769 H 175.019 -1.94112 0.175062 0
M  V30 1770 H 174.115 -2.97218 -0.952259 0
M  V30 1771 N 174.416 0.165178 -1.56732 0
M  V30 1772 C 175.644 0.896218 -1.86482 0
M  V30 1773 C 176.059 1.75555 -0.694675 0
M  V30 1774 O 175.416 1.79379 0.33607 0
M  V30 1775 C 175.467 1.76792 -3.1532 0
M  V30 1776 O 175.188 0.943239 -4.27825 0
M  V30 1777 C 176.689 2.6081 -3.58459 0
M  V30 1778 H 173.909 0.260064 -0.618553 0
M  V30 1779 H 176.453 0.163428 -2.03846 0
M  V30 1780 H 174.608 2.45398 -2.99764 0
M  V30 1781 H 175.022 1.53998 -5.01383 0
M  V30 1782 H 176.496 3.17579 -4.51495 0
M  V30 1783 H 176.973 3.35977 -2.82872 0
M  V30 1784 H 177.579 1.97526 -3.76648 0
M  V30 1785 N 175.894 1.51508 0.433938 0
M  V30 1786 C 177.142 1.6402 1.18075 0
M  V30 1787 C 177.463 0.360328 1.91642 0
M  V30 1788 O 176.733 -0.623945 1.85698 0
M  V30 1789 H 175.313 0.6045 0.43885 0
M  V30 1790 H 177.975 1.88452 0.497178 0
M  V30 1791 H 177.071 2.46949 1.90847 0
M  V30 1792 N 177.372 -0.689602 1.41712 0
M  V30 1793 C 178.6 -1.47827 1.44758 0
M  V30 1794 C 179.015 -1.88721 0.0545703 0
M  V30 1795 O 178.372 -1.57176 -0.927463 0
M  V30 1796 C 178.423 -2.73698 2.3616 0
M  V30 1797 O 178.144 -2.34524 3.7004 0
M  V30 1798 C 179.645 -3.67389 2.48072 0
M  V30 1799 H 176.865 -0.455357 0.49284 0
M  V30 1800 H 179.409 -0.848574 1.86063 0
M  V30 1801 H 177.564 -3.32891 1.98148 0
M  V30 1802 H 177.978 -3.15701 4.18847 0
M  V30 1803 H 179.452 -4.52475 3.16181 0
M  V30 1804 H 179.929 -4.12284 1.51388 0
M  V30 1805 H 180.535 -3.14097 2.86746 0
M  V30 1806 N 178.85 -1.27639 -0.924453 0
M  V30 1807 C 180.098 -1.13941 -1.66918 0
M  V30 1808 C 180.419 0.314589 -1.92446 0
M  V30 1809 O 179.689 1.21964 -1.53303 0
M  V30 1810 H 178.269 -0.418678 -0.618642 0
M  V30 1811 H 180.931 -1.60213 -1.10985 0
M  V30 1812 H 180.027 -1.67094 -2.63602 0
M  V30 1813 N 180.328 1.1314 -1.09713 0
M  V30 1814 C 181.291 2.16831 -0.742751 0
M  V30 1815 C 182.291 1.59159 0.229129 0
M  V30 1816 O 183.481 1.74199 0.00693237 0
M  V30 1817 C 180.613 3.40756 -0.0989168 0
M  V30 1818 H 181.806 2.49695 -1.66109 0
M  V30 1819 H 179.359 1.2802 -0.896699 0
M  V30 1820 H 180.094 3.13485 0.830514 0
M  V30 1821 H 179.879 3.83888 -0.798265 0
M  V30 1822 H 181.369 4.17386 0.133524 0
M  V30 1823 N 181.806 0.884767 1.30421 0
M  V30 1824 C 183.031 0.517288 2.00845 0
M  V30 1825 C 183.456 -0.886779 1.65885 0
M  V30 1826 O 182.814 -1.58768 0.875354 0
M  V30 1827 C 182.862 0.698994 3.5376 0
M  V30 1828 O 181.966 -0.255208 4.1161 0
M  V30 1829 H 181.307 0.203872 0.631927 0
M  V30 1830 H 183.837 1.19225 1.66272 0
M  V30 1831 H 183.847 0.597912 4.03595 0
M  V30 1832 H 182.522 1.72271 3.78544 0
M  V30 1833 H 181.099 -0.10784 3.72744 0
M  V30 1834 N 183.284 -1.43765 0.645699 0
M  V30 1835 C 184.695 -1.85193 0.236719 0
M  V30 1836 C 185.046 -1.54045 -1.21509 0
M  V30 1837 O 184.171 -0.985694 -1.92647 0
M  V30 1838 C 184.766 -3.36151 0.422845 0
M  V30 1839 C 183.325 -3.76338 0.0682492 0
M  V30 1840 C 182.472 -2.67538 0.729306 0
M  V30 1841 H 185.423 -1.34025 0.849883 0
M  V30 1842 H 185.444 -3.79032 -0.333904 0
M  V30 1843 H 184.956 -3.5879 1.47958 0
M  V30 1844 H 183.057 -3.59312 -0.986179 0
M  V30 1845 H 183.17 -4.76603 0.488469 0
M  V30 1846 H 181.534 -2.54176 0.163235 0
M  V30 1847 H 182.317 -2.93006 1.78892 0
M  V30 1848 N 184.763 -0.387143 -1.52771 0
M  V30 1849 C 186.009 0.196025 -2.0185 0
M  V30 1850 C 186.342 1.46641 -1.27319 0
M  V30 1851 O 185.617 1.90889 -0.373032 0
M  V30 1852 C 185.9 0.466136 -3.5707 0
M  V30 1853 C 185.753 -0.819385 -4.42274 0
M  V30 1854 C 187.072 1.25768 -4.21747 0
M  V30 1855 H 184.191 0.0697708 -0.73369 0
M  V30 1856 H 186.833 -0.516286 -1.82851 0
M  V30 1857 H 184.983 1.07293 -3.7339 0
M  V30 1858 H 186.655 -1.4563 -4.37709 0
M  V30 1859 H 184.898 -1.43517 -4.09372 0
M  V30 1860 H 185.569 -0.585065 -5.48891 0
M  V30 1861 H 188.045 0.744167 -4.09391 0
M  V30 1862 H 186.921 1.41541 -5.30337 0
M  V30 1863 H 187.182 2.27228 -3.79236 0
M  V30 1864 N 186.241 1.57166 -0.116904 0
M  V30 1865 C 187.49 1.94298 0.541407 0
M  V30 1866 C 187.803 1.00236 1.67964 0
M  V30 1867 O 189.009 1.26826 2.40057 0
M  V30 1868 C 187.465 3.45306 1.01449 0
M  V30 1869 C 187.073 4.47899 -0.0951738 0
M  V30 1870 C 188.817 3.91361 1.6443 0
M  V30 1871 C 186.724 5.90083 0.394491 0
M  V30 1872 H 185.654 0.725308 0.206019 0
M  V30 1873 H 188.305 1.82446 -0.196419 0
M  V30 1874 H 186.687 3.52385 1.80667 0
M  V30 1875 H 187.861 4.52486 -0.871374 0
M  V30 1876 H 186.176 4.11583 -0.631505 0
M  V30 1877 H 188.773 4.95004 2.02176 0
M  V30 1878 H 189.116 3.3122 2.52189 0
M  V30 1879 H 189.649 3.87073 0.917559 0
M  V30 1880 H 186.388 6.53974 -0.447004 0
M  V30 1881 H 185.908 5.88921 1.13722 0
M  V30 1882 H 187.587 6.41307 0.856399 0
M  V30 1883 N 187.719 -0.156864 1.56817 0
M  V30 1884 C 188.682 -1.17781 1.96622 0
M  V30 1885 C 189.682 -1.36401 0.851555 0
M  V30 1886 O 190.872 -1.33561 1.11836 0
M  V30 1887 C 188.004 -2.54008 2.27361 0
M  V30 1888 H 189.197 -0.836564 2.87996 0
M  V30 1889 H 186.75 -0.39985 1.51099 0
M  V30 1890 H 187.485 -2.9312 1.38748 0
M  V30 1891 H 187.27 -2.41856 3.08623 0
M  V30 1892 H 188.76 -3.27558 2.59029 0
M  V30 1893 N 189.197 -1.51736 -0.425897 0
M  V30 1894 C 190.144 -1.73875 -1.51776 0
M  V30 1895 C 191.114 -0.580702 -1.55618 0
M  V30 1896 O 192.299 -0.81641 -1.72451 0
M  V30 1897 C 189.439 -1.88012 -2.89388 0
M  V30 1898 C 188.552 -3.15606 -2.94986 0
M  V30 1899 C 187.687 -3.20271 -4.23793 0
M  V30 1900 C 186.726 -4.42134 -4.23302 0
M  V30 1901 N 185.863 -4.44284 -5.43651 0
M  V30 1902 H 190.703 -2.67071 -1.32201 0
M  V30 1903 H 188.24 -1.32351 -0.642008 0
M  V30 1904 H 190.198 -1.9419 -3.69251 0
M  V30 1905 H 188.828 -0.98213 -3.07496 0
M  V30 1906 H 187.88 -3.18681 -2.07717 0
M  V30 1907 H 189.192 -4.05486 -2.90486 0
M  V30 1908 H 188.346 -3.25428 -5.12036 0
M  V30 1909 H 187.085 -2.28299 -4.30965 0
M  V30 1910 H 186.09 -4.3714 -3.3345 0
M  V30 1911 H 187.315 -5.35382 -4.17783 0
M  V30 1912 H 185.261 -3.55188 -5.51523 0
M  V30 1913 H 185.178 -5.27988 -5.41078 0
M  V30 1914 H 186.446 -4.53649 -6.33895 0
M  V30 1915 N 190.675 0.682077 -1.42076 0
M  V30 1916 C 191.924 1.43786 -1.41451 0
M  V30 1917 C 192.237 1.95574 -0.0317074 0
M  V30 1918 O 193.443 2.71326 0.0971462 0
M  V30 1919 C 191.899 2.60071 -2.48779 0
M  V30 1920 C 191.507 2.15013 -3.93031 0
M  V30 1921 C 193.251 3.37626 -2.57311 0
M  V30 1922 C 191.158 3.28336 -4.91883 0
M  V30 1923 H 190.088 0.540143 -0.526082 0
M  V30 1924 H 192.739 0.739157 -1.67955 0
M  V30 1925 H 191.121 3.32275 -2.15429 0
M  V30 1926 H 192.295 1.5001 -4.35699 0
M  V30 1927 H 190.61 1.50416 -3.88284 0
M  V30 1928 H 193.207 4.22012 -3.28345 0
M  V30 1929 H 193.55 3.83727 -1.61429 0
M  V30 1930 H 194.083 2.72488 -2.89819 0
M  V30 1931 H 190.822 2.87234 -5.89217 0
M  V30 1932 H 190.342 3.92145 -4.53853 0
M  V30 1933 H 192.021 3.93913 -5.13265 0
M  V30 1934 N 192.153 1.28127 0.917671 0
M  V30 1935 C 193.116 1.11744 2.00115 0
M  V30 1936 C 194.116 0.0583052 1.60694 0
M  V30 1937 O 195.306 0.303755 1.71531 0
M  V30 1938 C 192.438 0.704862 3.33533 0
M  V30 1939 H 193.631 2.07966 2.16079 0
M  V30 1940 H 191.184 1.11058 1.09981 0
M  V30 1941 H 191.919 -0.258299 3.2327 0
M  V30 1942 H 191.704 1.4699 3.63505 0
M  V30 1943 H 193.194 0.612768 4.1308 0
M  V30 1944 N 193.631 -1.12557 1.10312 0
M  V30 1945 C 194.578 -2.18247 0.750781 0
M  V30 1946 C 195.548 -1.63853 -0.272293 0
M  V30 1947 O 196.733 -1.90195 -0.151862 0
M  V30 1948 C 193.873 -3.44591 0.187379 0
M  V30 1949 C 192.986 -4.13046 1.2656 0
M  V30 1950 C 192.121 -5.27034 0.663978 0
M  V30 1951 C 191.16 -5.87353 1.72287 0
M  V30 1952 N 190.297 -6.92757 1.1416 0
M  V30 1953 H 195.137 -2.47732 1.65628 0
M  V30 1954 H 192.674 -1.21629 0.827337 0
M  V30 1955 H 194.632 -4.16904 -0.157148 0
M  V30 1956 H 193.262 -3.15527 -0.681355 0
M  V30 1957 H 192.314 -3.38924 1.72727 0
M  V30 1958 H 193.626 -4.53947 2.06721 0
M  V30 1959 H 192.78 -6.06104 0.268824 0
M  V30 1960 H 191.519 -4.87407 -0.169082 0
M  V30 1961 H 190.524 -5.06971 2.12746 0
M  V30 1962 H 191.749 -6.29051 2.55875 0
M  V30 1963 H 189.695 -6.5517 0.329984 0
M  V30 1964 H 189.612 -7.3225 1.88007 0
M  V30 1965 H 190.88 -7.75658 0.772956 0
M  V30 1966 N 195.109 -0.891671 -1.2995 0
M  V30 1967 C 196.019 -0.367691 -2.31701 0
M  V30 1968 C 197.035 0.533486 -1.6562 0
M  V30 1969 O 198.211 0.424997 -1.96865 0
M  V30 1970 C 195.276 0.403406 -3.44345 0
M  V30 1971 C 194.337 -0.528328 -4.26037 0
M  V30 1972 C 193.57 0.206063 -5.33302 0
M  V30 1973 O 193.793 1.43119 -5.52153 0
M  V30 1974 O 192.727 -0.447281 -6.00236 0
M  V30 1975 H 196.553 -1.21163 -2.78484 0
M  V30 1976 H 194.138 -0.655725 -1.34241 0
M  V30 1977 H 196.02 0.839753 -4.12948 0
M  V30 1978 H 194.695 1.22354 -2.99685 0
M  V30 1979 H 193.602 -1.01362 -3.60106 0
M  V30 1980 H 194.935 -1.31465 -4.74318 0
M  V30 1981 N 196.587 1.43421 -0.653314 0
M  V30 1982 C 197.52 2.2803 0.0879804 0
M  V30 1983 C 198.498 1.39833 0.82979 0
M  V30 1984 O 199.682 1.69275 0.829341 0
M  V30 1985 C 196.809 3.19247 1.13132 0
M  V30 1986 C 195.855 4.23704 0.487546 0
M  V30 1987 S 196.688 5.30377 -0.738961 0
M  V30 1988 C 197.844 6.25162 0.30384 0
M  V30 1989 H 198.077 2.90554 -0.629739 0
M  V30 1990 H 195.61 1.47934 -0.442156 0
M  V30 1991 H 197.568 3.72346 1.72827 0
M  V30 1992 H 196.229 2.55901 1.82136 0
M  V30 1993 H 195.422 4.87631 1.27407 0
M  V30 1994 H 195.024 3.73983 -0.0352915 0
M  V30 1995 H 197.316 6.67321 1.17 0
M  V30 1996 H 198.259 7.07463 -0.300402 0
M  V30 1997 H 198.667 5.60864 0.63969 0
M  V30 1998 N 198.065 0.39524 1.52563 0
M  V30 1999 C 199.313 -0.184678 2.01254 0
M  V30 2000 C 199.634 -1.46822 1.28329 0
M  V30 2001 O 198.904 -1.91666 0.405094 0
M  V30 2002 H 197.484 -0.0712355 0.743596 0
M  V30 2003 H 200.146 0.528293 1.87603 0
M  V30 2004 H 199.242 -0.390681 3.09645 0
M  V30 2005 N 199.544 -1.57102 0.125237 0
M  V30 2006 C 200.793 -1.94582 -0.531095 0
M  V30 2007 C 201.106 -1.01126 -1.6743 0
M  V30 2008 O 202.312 -1.28097 -2.39381 0
M  V30 2009 C 200.768 -3.45839 -0.996164 0
M  V30 2010 C 200.376 -4.47842 0.118926 0
M  V30 2011 C 202.12 -3.92227 -1.62352 0
M  V30 2012 C 200.027 -5.90284 -0.363192 0
M  V30 2013 H 198.957 -0.726391 -0.20217 0
M  V30 2014 H 201.608 -1.82339 0.206092 0
M  V30 2015 H 199.99 -3.53338 -1.78796 0
M  V30 2016 H 201.164 -4.52018 0.895358 0
M  V30 2017 H 199.479 -4.11243 0.653324 0
M  V30 2018 H 202.076 -4.96069 -1.99548 0
M  V30 2019 H 202.419 -3.32552 -2.50429 0
M  V30 2020 H 202.952 -3.87554 -0.897019 0
M  V30 2021 H 199.691 -6.53728 0.481679 0
M  V30 2022 H 199.211 -5.89515 -1.10597 0
M  V30 2023 H 200.89 -6.41752 -0.822377 0
M  V30 2024 N 201.022 0.148545 -1.56898 0
M  V30 2025 C 201.952 1.18524 -2.01182 0
M  V30 2026 C 202.933 1.4489 -0.891123 0
M  V30 2027 O 204.118 1.55836 -1.15882 0
M  V30 2028 C 201.248 2.51879 -2.39112 0
M  V30 2029 C 200.202 2.40038 -3.54353 0
M  V30 2030 C 199.528 3.78089 -3.78091 0
M  V30 2031 C 200.828 1.88577 -4.87069 0
M  V30 2032 H 202.522 0.817029 -2.88036 0
M  V30 2033 H 200.068 0.391575 -1.38574 0
M  V30 2034 H 202.021 3.24627 -2.68692 0
M  V30 2035 H 200.745 2.90532 -1.49193 0
M  V30 2036 H 199.404 1.69742 -3.24936 0
M  V30 2037 H 199.052 4.14175 -2.85426 0
M  V30 2038 H 198.752 3.71028 -4.55645 0
M  V30 2039 H 200.276 4.52387 -4.10095 0
M  V30 2040 H 201.69 2.51117 -5.15377 0
M  V30 2041 H 200.087 1.9241 -5.68417 0
M  V30 2042 H 201.157 0.84136 -4.77545 0
M  V30 2043 N 202.5 1.5196 0.417844 0
M  V30 2044 C 203.728 1.69426 1.18753 0
M  V30 2045 C 204.143 0.399955 1.84515 0
M  V30 2046 O 203.5 -0.623288 1.71527 0
M  V30 2047 C 203.551 2.82375 2.25714 0
M  V30 2048 O 203.272 4.06793 1.62638 0
M  V30 2049 C 204.773 3.11277 3.15628 0
M  V30 2050 H 201.993 0.568031 0.357186 0
M  V30 2051 H 204.537 1.98475 0.49273 0
M  V30 2052 H 202.692 2.5587 2.90877 0
M  V30 2053 H 203.106 4.69667 2.3348 0
M  V30 2054 H 204.58 3.93843 3.86771 0
M  V30 2055 H 205.057 2.24473 3.77503 0
M  V30 2056 H 205.663 3.39515 2.56144 0
M  V30 2057 N 203.978 -0.674533 1.42435 0
M  V30 2058 C 205.224 -1.43671 1.43131 0
M  V30 2059 C 205.557 -1.94142 0.0476021 0
M  V30 2060 O 204.832 -1.70924 -0.928188 0
M  V30 2061 C 205.115 -2.63355 2.45594 0
M  V30 2062 C 204.968 -2.18514 3.93156 0
M  V30 2063 C 206.287 -3.65571 2.45043 0
M  V30 2064 H 203.406 -0.521077 0.521198 0
M  V30 2065 H 206.048 -0.766551 1.7385 0
M  V30 2066 H 204.198 -3.2053 2.19528 0
M  V30 2067 H 205.87 -1.66504 4.30202 0
M  V30 2068 H 204.113 -1.50086 4.07009 0
M  V30 2069 H 204.784 -3.04484 4.60428 0
M  V30 2070 H 207.26 -3.18113 2.68223 0
M  V30 2071 H 206.136 -4.46893 3.18713 0
M  V30 2072 H 206.397 -4.16716 1.47649 0
M  V30 2073 N 205.456 -1.28612 -0.910864 0
M  V30 2074 C 206.419 -1.12803 -1.9952 0
M  V30 2075 C 207.419 -0.0668264 -1.60661 0
M  V30 2076 O 208.609 -0.312847 -1.71368 0
M  V30 2077 C 205.741 -0.72254 -3.33155 0
M  V30 2078 H 206.934 -2.09109 -2.14973 0
M  V30 2079 H 204.487 -1.11639 -1.09391 0
M  V30 2080 H 205.222 0.241152 -3.23402 0
M  V30 2081 H 205.007 -1.48916 -3.62721 0
M  V30 2082 H 206.497 -0.634666 -4.12749 0
M  V30 2083 N 206.934 1.1197 -1.10907 0
M  V30 2084 C 208.183 1.82947 -0.849302 0
M  V30 2085 C 208.496 1.85275 0.627112 0
M  V30 2086 O 209.702 2.52296 1.00295 0
M  V30 2087 C 208.158 3.28529 -1.46959 0
M  V30 2088 C 207.766 3.34546 -2.97965 0
M  V30 2089 C 209.51 4.04443 -1.28942 0
M  V30 2090 C 207.417 4.74491 -3.53004 0
M  V30 2091 H 206.347 0.685477 -0.314065 0
M  V30 2092 H 208.998 1.2604 -1.33365 0
M  V30 2093 H 207.38 3.85333 -0.912917 0
M  V30 2094 H 208.554 2.87654 -3.59989 0
M  V30 2095 H 206.869 2.72108 -3.15192 0
M  V30 2096 H 209.466 5.07787 -1.67502 0
M  V30 2097 H 209.809 4.15656 -0.231456 0
M  V30 2098 H 210.342 3.5401 -1.81443 0
M  V30 2099 H 207.081 4.68474 -4.58489 0
M  V30 2100 H 206.601 5.21816 -2.9575 0
M  V30 2101 H 208.28 5.4344 -3.51115 0
M  V30 2102 N 208.412 0.89855 1.29475 0
M  V30 2103 C 209.658 0.524658 1.95896 0
M  V30 2104 C 209.991 -0.926468 1.70676 0
M  V30 2105 O 209.266 -1.65665 1.01908 0
M  V30 2106 C 209.549 0.81633 3.50725 0
M  V30 2107 C 209.402 2.31907 3.85408 0
M  V30 2108 C 210.721 0.302038 4.39062 0
M  V30 2109 H 207.84 0.19209 0.711527 0
M  V30 2110 H 210.482 1.12502 1.53112 0
M  V30 2111 H 208.632 0.305369 3.87298 0
M  V30 2112 H 210.304 2.89949 3.58786 0
M  V30 2113 H 208.547 2.78027 3.32992 0
M  V30 2114 H 209.218 2.47373 4.93468 0
M  V30 2115 H 211.694 0.739551 4.09475 0
M  V30 2116 H 210.57 0.535331 5.46283 0
M  V30 2117 H 210.831 -0.797216 4.34853 0
M  V30 2118 N 209.89 -1.43072 0.660911 0
M  V30 2119 C 211.118 -2.06067 0.185422 0
M  V30 2120 C 211.533 -1.49582 -1.15198 0
M  V30 2121 O 210.89 -0.630134 -1.71276 0
M  V30 2122 C 210.941 -3.61371 0.0966523 0
M  V30 2123 O 210.662 -4.15758 1.38119 0
M  V30 2124 C 212.163 -4.41455 -0.403996 0
M  V30 2125 H 209.383 -0.664459 0.0934604 0
M  V30 2126 H 211.927 -1.83447 0.90373 0
M  V30 2127 H 210.082 -3.8315 -0.572259 0
M  V30 2128 H 210.496 -5.09499 1.24542 0
M  V30 2129 H 211.97 -5.50437 -0.415045 0
M  V30 2130 H 212.447 -4.15036 -1.43674 0
M  V30 2131 H 213.053 -4.24663 0.232691 0
M  V30 2132 N 211.368 -0.403325 -1.52352 0
M  V30 2133 C 212.596 0.174012 -2.06167 0
M  V30 2134 C 213.011 1.39347 -1.27388 0
M  V30 2135 O 212.368 1.79597 -0.324201 0
M  V30 2136 C 212.419 0.530223 -3.5759 0
M  V30 2137 O 212.14 -0.640806 -4.33388 0
M  V30 2138 C 213.641 1.16192 -4.27802 0
M  V30 2139 H 210.861 0.0229464 -0.670608 0
M  V30 2140 H 213.405 -0.572604 -1.9632 0
M  V30 2141 H 211.56 1.22673 -3.67464 0
M  V30 2142 H 211.974 -0.344851 -5.23365 0
M  V30 2143 H 213.448 1.36141 -5.34948 0
M  V30 2144 H 213.925 2.13335 -3.83907 0
M  V30 2145 H 214.531 0.505775 -4.22282 0
M  V30 2146 N 212.846 1.57033 -0.133567 0
M  V30 2147 C 214.257 1.82593 0.389464 0
M  V30 2148 C 214.608 1.05156 1.6564 0
M  V30 2149 O 213.733 0.292644 2.14412 0
M  V30 2150 C 214.328 3.31204 0.713377 0
M  V30 2151 C 212.887 3.57393 1.18098 0
M  V30 2152 C 212.034 2.76598 0.197126 0
M  V30 2153 H 214.985 1.54598 -0.358481 0
M  V30 2154 H 215.006 3.46627 1.56939 0
M  V30 2155 H 214.518 3.87537 -0.2089 0
M  V30 2156 H 212.619 3.06433 2.11966 0
M  V30 2157 H 212.732 4.65915 1.11624 0
M  V30 2158 H 211.096 2.45257 0.687088 0
M  V30 2159 H 211.879 3.35697 -0.718504 0
M  V30 2160 N 214.325 -0.140222 1.56975 0
M  V30 2161 C 215.572 -0.851687 1.83719 0
M  V30 2162 C 215.9 -1.80862 0.715485 0
M  V30 2163 O 215.155 -1.93464 -0.294956 0
M  V30 2164 C 215.454 -1.65386 3.16832 0
M  V30 2165 C 215.12 -0.843112 4.42947 0
M  V30 2166 C 213.782 -0.619464 4.77196 0
M  V30 2167 C 216.134 -0.276582 5.20466 0
M  V30 2168 C 213.462 0.181312 5.8642 0
M  V30 2169 C 215.814 0.51127 6.30531 0
M  V30 2170 C 214.478 0.745432 6.63325 0
M  V30 2171 H 213.748 -0.311654 0.672274 0
M  V30 2172 H 216.395 -0.115006 1.91154 0
M  V30 2173 H 214.7 -2.46084 3.04877 0
M  V30 2174 H 216.397 -2.20793 3.34741 0
M  V30 2175 H 212.987 -1.0275 4.16101 0
M  V30 2176 H 217.171 -0.436632 4.94376 0
M  V30 2177 H 212.427 0.372165 6.10266 0
M  V30 2178 H 216.601 0.957354 6.89788 0
M  V30 2179 H 214.228 1.36778 7.47794 0
M  V30 2180 N 215.803 -1.52179 -0.40978 0
M  V30 2181 C 217.033 -1.69807 -1.17682 0
M  V30 2182 C 217.441 -0.406908 -1.84773 0
M  V30 2183 O 216.784 0.626863 -1.72673 0
M  V30 2184 C 216.846 -2.77712 -2.2829 0
M  V30 2185 C 216.51 -4.19481 -1.81341 0
M  V30 2186 C 217.507 -5.03345 -1.30154 0
M  V30 2187 C 215.192 -4.65713 -1.88194 0
M  V30 2188 C 217.186 -6.31511 -0.864416 0
M  V30 2189 C 214.873 -5.93869 -1.44093 0
M  V30 2190 C 215.871 -6.76597 -0.933023 0
M  V30 2191 O 215.559 -8.02354 -0.49838 0
M  V30 2192 H 215.291 -0.572372 -0.359675 0
M  V30 2193 H 217.845 -1.99511 -0.488311 0
M  V30 2194 H 216.075 -2.43383 -3.00502 0
M  V30 2195 H 217.764 -2.83946 -2.90051 0
M  V30 2196 H 218.53 -4.68819 -1.24232 0
M  V30 2197 H 214.409 -4.01424 -2.26671 0
M  V30 2198 H 217.953 -6.96033 -0.467286 0
M  V30 2199 H 213.85 -6.27903 -1.49694 0
M  V30 2200 H 214.618 -8.16135 -0.621747 0
M  V30 2201 N 217.281 0.66697 -1.42791 0
M  V30 2202 C 218.528 1.42699 -1.43678 0
M  V30 2203 C 218.856 1.94419 -0.0560425 0
M  V30 2204 O 218.111 1.7182 0.936831 0
M  V30 2205 C 218.41 2.6349 -2.4147 0
M  V30 2206 C 218.076 2.30267 -3.8767 0
M  V30 2207 C 216.738 2.20918 -4.27491 0
M  V30 2208 C 219.09 2.03435 -4.79858 0
M  V30 2209 C 216.418 1.82873 -5.57471 0
M  V30 2210 C 218.77 1.66892 -6.10188 0
M  V30 2211 C 217.434 1.56058 -6.49001 0
M  V30 2212 H 216.704 0.522171 -0.525755 0
M  V30 2213 H 219.351 0.759785 -1.75783 0
M  V30 2214 H 217.656 3.35279 -2.0272 0
M  V30 2215 H 219.353 3.21684 -2.39417 0
M  V30 2216 H 215.943 2.38449 -3.56146 0
M  V30 2217 H 220.127 2.09586 -4.49875 0
M  V30 2218 H 215.383 1.7306 -5.86396 0
M  V30 2219 H 219.557 1.45157 -6.81104 0
M  V30 2220 H 217.184 1.26348 -7.49627 0
M  V30 2221 N 218.759 1.29093 0.90403 0
M  V30 2222 C 219.669 1.15727 2.0407 0
M  V30 2223 C 220.685 0.0815308 1.73809 0
M  V30 2224 O 221.861 0.292749 1.99261 0
M  V30 2225 C 218.926 0.830424 3.36608 0
M  V30 2226 C 217.987 1.98955 3.80415 0
M  V30 2227 C 217.22 1.6782 5.06628 0
M  V30 2228 O 217.443 0.597105 5.67266 0
M  V30 2229 O 216.377 2.52486 5.46383 0
M  V30 2230 H 220.203 2.11171 2.18267 0
M  V30 2231 H 217.788 1.08504 1.027 0
M  V30 2232 H 219.67 0.662521 4.16159 0
M  V30 2233 H 218.345 -0.0942678 3.23563 0
M  V30 2234 H 217.252 2.21267 3.01648 0
M  V30 2235 H 218.585 2.89529 3.98037 0
M  V30 2236 N 220.237 -1.11381 1.11499 0
M  V30 2237 C 221.485 -1.8277 0.862524 0
M  V30 2238 C 221.806 -1.85097 -0.613534 0
M  V30 2239 O 221.076 -1.32198 -1.4457 0
M  V30 2240 H 219.656 -0.676823 0.316101 0
M  V30 2241 H 222.318 -1.34816 1.4075 0
M  V30 2242 H 221.414 -2.86614 1.23527 0
M  V30 2243 N 221.715 -0.905404 -1.28997 0
M  V30 2244 C 223.126 -0.581953 -1.77398 0
M  V30 2245 C 223.477 0.902552 -1.74208 0
M  V30 2246 O 222.602 1.70584 -1.33154 0
M  V30 2247 C 223.197 -1.04961 -3.22131 0
M  V30 2248 C 221.756 -0.777229 -3.68288 0
M  V30 2249 C 220.903 -1.22109 -2.48967 0
M  V30 2250 H 223.854 -1.08754 -1.15578 0
M  V30 2251 H 223.875 -0.387387 -3.78523 0
M  V30 2252 H 223.387 -2.13008 -3.24421 0
M  V30 2253 H 221.488 0.290383 -3.71467 0
M  V30 2254 H 221.601 -1.37911 -4.58822 0
M  V30 2255 H 219.965 -0.639971 -2.46529 0
M  V30 2256 H 220.748 -2.30972 -2.53982 0
M  V30 2257 N 223.193 1.4272 -0.668489 0
M  V30 2258 C 224.103 2.34596 0.0139753 0
M  V30 2259 C 225.119 1.5474 0.795703 0
M  V30 2260 O 226.295 1.87334 0.739466 0
M  V30 2261 C 223.36 3.33202 0.957982 0
M  V30 2262 C 222.421 4.28957 0.17149 0
M  V30 2263 C 221.654 5.22853 1.07053 0
M  V30 2264 O 221.877 5.21531 2.31001 0
M  V30 2265 O 220.811 5.9952 0.534727 0
M  V30 2266 H 224.637 2.9448 -0.742661 0
M  V30 2267 H 222.222 1.43117 -0.428705 0
M  V30 2268 H 224.104 3.93796 1.50008 0
M  V30 2269 H 222.779 2.758 1.69458 0
M  V30 2270 H 221.686 3.71796 -0.414558 0
M  V30 2271 H 223.019 4.89383 -0.52586 0
M  V30 2272 N 224.671 0.411399 1.52136 0
M  V30 2273 C 226.087 0.0623865 1.59478 0
M  V30 2274 C 226.287 -1.42554 1.4241 0
M  V30 2275 O 225.343 -2.19263 1.2522 0
M  V30 2276 C 226.656 0.559331 2.95452 0
M  V30 2277 C 228.204 0.517503 3.08692 0
M  V30 2278 C 228.679 0.990994 4.4715 0
M  V30 2279 N 230.17 0.947908 4.53397 0
M  V30 2280 C 230.905 1.28544 5.58806 0
M  V30 2281 N 230.401 1.69454 6.71757 0
M  V30 2282 N 232.194 1.20526 5.49026 0
M  V30 2283 H 224.345 1.37982 1.61477 0
M  V30 2284 H 226.608 0.566977 0.759764 0
M  V30 2285 H 226.314 1.59938 3.1323 0
M  V30 2286 H 226.188 -0.0298014 3.77188 0
M  V30 2287 H 228.575 -0.513505 2.90598 0
M  V30 2288 H 228.656 1.14272 2.28857 0
M  V30 2289 H 228.3 2.02034 4.65988 0
M  V30 2290 H 228.23 0.34257 5.25485 0
M  V30 2291 H 230.721 0.647157 3.72317 0
M  V30 2292 H 231.034 1.93513 7.48179 0
M  V30 2293 H 229.379 1.73359 6.73032 0
M  V30 2294 H 232.57 0.884505 4.59667 0
M  V30 2295 H 232.743 1.47161 6.31069 0
M  V30 2296 N 226.149 -1.5696 0.141893 0
M  V30 2297 C 227.079 -2.19516 -0.795936 0
M  V30 2298 C 228.06 -1.14187 -1.26077 0
M  V30 2299 O 229.245 -1.42511 -1.31925 0
M  V30 2300 C 226.375 -2.81272 -2.03723 0
M  V30 2301 C 225.329 -3.92384 -1.70936 0
M  V30 2302 C 224.655 -4.41052 -3.02287 0
M  V30 2303 C 225.955 -5.13403 -0.959954 0
M  V30 2304 H 227.649 -2.98138 -0.274596 0
M  V30 2305 H 225.195 -1.43406 -0.130636 0
M  V30 2306 H 227.148 -3.237 -2.69808 0
M  V30 2307 H 225.872 -1.99973 -2.58221 0
M  V30 2308 H 224.531 -3.50566 -1.07232 0
M  V30 2309 H 224.179 -3.56582 -3.54765 0
M  V30 2310 H 223.879 -5.15993 -2.81114 0
M  V30 2311 H 225.403 -4.86146 -3.69451 0
M  V30 2312 H 226.817 -5.52706 -1.52279 0
M  V30 2313 H 225.214 -5.94073 -0.848357 0
M  V30 2314 H 226.284 -4.84875 0.0492434 0
M  V30 2315 N 227.627 0.131896 -1.57047 0
M  V30 2316 C 228.574 1.16236 -1.99393 0
M  V30 2317 C 229.544 1.41863 -0.863943 0
M  V30 2318 O 230.729 1.53946 -1.12718 0
M  V30 2319 C 227.869 2.48708 -2.39245 0
M  V30 2320 C 226.982 2.30127 -3.65603 0
M  V30 2321 C 226.117 3.55738 -3.94492 0
M  V30 2322 C 225.156 3.32259 -5.14073 0
M  V30 2323 N 224.293 4.50039 -5.38896 0
M  V30 2324 H 229.133 0.794251 -2.87221 0
M  V30 2325 H 226.67 0.380707 -1.42088 0
M  V30 2326 H 228.628 3.25969 -2.60384 0
M  V30 2327 H 227.258 2.83437 -1.54478 0
M  V30 2328 H 226.31 1.43845 -3.52154 0
M  V30 2329 H 227.622 2.08746 -4.5302 0
M  V30 2330 H 226.776 4.41423 -4.1621 0
M  V30 2331 H 225.515 3.80138 -3.05526 0
M  V30 2332 H 224.52 2.44963 -4.92212 0
M  V30 2333 H 225.745 3.09242 -6.04604 0
M  V30 2334 H 223.691 4.74584 -4.52886 0
M  V30 2335 H 223.608 4.31716 -6.2061 0
M  V30 2336 H 224.876 5.36895 -5.65123 0
M  V30 2337 N 229.106 1.52395 0.401703 0
M  V30 2338 C 230.053 1.76268 1.48991 0
M  V30 2339 C 231.023 0.605386 1.54675 0
M  V30 2340 O 232.208 0.843742 1.7113 0
M  V30 2341 C 229.348 1.92592 2.86361 0
M  V30 2342 C 228.461 3.20259 2.89928 0
M  V30 2343 C 227.596 3.26972 4.18644 0
M  V30 2344 C 226.635 4.48812 4.16214 0
M  V30 2345 N 225.772 4.52877 5.36514 0
M  V30 2346 H 230.612 2.6914 1.27935 0
M  V30 2347 H 228.149 1.33355 0.620871 0
M  V30 2348 H 230.107 2.0004 3.66115 0
M  V30 2349 H 228.737 1.03093 3.05895 0
M  V30 2350 H 227.789 3.21945 2.02621 0
M  V30 2351 H 229.101 4.10056 2.83999 0
M  V30 2352 H 228.255 3.33533 5.06794 0
M  V30 2353 H 226.994 2.35126 4.27278 0
M  V30 2354 H 225.999 4.4239 3.26453 0
M  V30 2355 H 227.224 5.41961 4.09213 0
M  V30 2356 H 225.17 3.63917 5.45802 0
M  V30 2357 H 225.087 5.36529 5.32609 0
M  V30 2358 H 226.355 4.63676 6.26597 0
M  V30 2359 N 230.584 -0.659388 1.43143 0
M  V30 2360 C 231.547 -1.75432 1.47501 0
M  V30 2361 C 232.547 -1.56707 0.360512 0
M  V30 2362 O 233.737 -1.62717 0.622002 0
M  V30 2363 C 230.869 -3.14239 1.32162 0
M  V30 2364 H 232.062 -1.7295 2.45006 0
M  V30 2365 H 229.615 -0.870469 1.29817 0
M  V30 2366 H 230.35 -3.22336 0.356401 0
M  V30 2367 H 230.135 -3.29235 2.12948 0
M  V30 2368 H 231.625 -3.94094 1.3813 0
M  V30 2369 N 232.062 -1.29571 -0.897171 0
M  V30 2370 C 233.311 -1.1706 -1.64256 0
M  V30 2371 C 233.624 0.276476 -1.93636 0
M  V30 2372 O 234.83 0.52294 -2.66416 0
M  V30 2373 C 233.286 -2.0475 -2.95982 0
M  V30 2374 C 232.894 -3.54295 -2.74187 0
M  V30 2375 C 234.638 -2.0097 -3.73914 0
M  V30 2376 C 232.545 -4.34081 -4.01656 0
M  V30 2377 H 231.475 -0.43452 -0.616205 0
M  V30 2378 H 234.126 -1.54229 -0.994268 0
M  V30 2379 H 232.508 -1.60452 -3.62038 0
M  V30 2380 H 233.682 -4.06662 -2.1671 0
M  V30 2381 H 231.997 -3.59773 -2.09648 0
M  V30 2382 H 234.594 -2.57838 -4.68427 0
M  V30 2383 H 234.937 -0.990273 -4.0435 0
M  V30 2384 H 235.47 -2.43325 -3.14703 0
M  V30 2385 H 232.209 -5.36671 -3.76384 0
M  V30 2386 H 231.729 -3.86483 -4.58684 0
M  V30 2387 H 233.408 -4.44877 -4.69781 0
M  V30 2388 N 233.54 1.10788 -1.12088 0
M  V30 2389 C 234.45 2.20599 -0.798338 0
M  V30 2390 C 235.466 1.72712 0.21135 0
M  V30 2391 O 236.642 2.01348 0.0458477 0
M  V30 2392 C 233.707 3.45771 -0.253674 0
M  V30 2393 C 232.768 4.08411 -1.32283 0
M  V30 2394 C 232.001 5.27608 -0.80406 0
M  V30 2395 O 232.224 5.69241 0.363478 0
M  V30 2396 O 231.158 5.8101 -1.57198 0
M  V30 2397 H 234.984 2.50614 -1.7154 0
M  V30 2398 H 232.569 1.19454 -0.897275 0
M  V30 2399 H 234.451 4.21376 0.0453691 0
M  V30 2400 H 233.126 3.1739 0.636005 0
M  V30 2401 H 232.033 3.34507 -1.67499 0
M  V30 2402 H 233.366 4.40986 -2.18614 0
M  V30 2403 N 235.018 0.912232 1.28515 0
M  V30 2404 C 236.266 0.543523 1.94654 0
M  V30 2405 C 236.587 -0.9155 1.72173 0
M  V30 2406 O 235.857 -1.64708 1.06058 0
M  V30 2407 H 234.437 0.198017 0.720277 0
M  V30 2408 H 237.099 1.16126 1.56527 0
M  V30 2409 H 236.195 0.736684 3.03281 0
M  V30 2410 N 236.496 -1.42363 0.676048 0
M  V30 2411 C 237.426 -2.33497 0.0124832 0
M  V30 2412 C 238.407 -1.50748 -0.787981 0
M  V30 2413 O 239.592 -1.79346 -0.744884 0
M  V30 2414 C 236.722 -3.34377 -0.938582 0
M  V30 2415 C 235.676 -4.27289 -0.246622 0
M  V30 2416 C 235.002 -5.18386 -1.31071 0
M  V30 2417 C 236.302 -5.14916 0.875125 0
M  V30 2418 H 237.996 -2.89233 0.773593 0
M  V30 2419 H 235.542 -1.39073 0.37346 0
M  V30 2420 H 237.495 -3.97044 -1.41188 0
M  V30 2421 H 236.219 -2.76947 -1.73113 0
M  V30 2422 H 234.878 -3.66018 0.206456 0
M  V30 2423 H 234.526 -4.57282 -2.09528 0
M  V30 2424 H 234.226 -5.81378 -0.852839 0
M  V30 2425 H 235.75 -5.83929 -1.78492 0
M  V30 2426 H 237.164 -5.71262 0.482983 0
M  V30 2427 H 235.561 -5.86747 1.25887 0
M  V30 2428 H 236.631 -4.53242 1.72335 0
M  V30 2429 N 237.974 -0.419461 -1.51915 0
M  V30 2430 C 238.921 0.400927 -2.27291 0
M  V30 2431 C 239.891 1.03224 -1.30131 0
M  V30 2432 O 241.076 1.05455 -1.59009 0
M  V30 2433 C 238.216 1.50603 -3.10504 0
M  V30 2434 C 237.329 0.89462 -4.22635 0
M  V30 2435 C 236.464 1.97328 -4.93189 0
M  V30 2436 C 235.503 1.33935 -5.97267 0
M  V30 2437 N 234.64 2.3586 -6.61298 0
M  V30 2438 H 239.48 -0.248251 -2.96964 0
M  V30 2439 H 237.017 -0.134266 -1.46486 0
M  V30 2440 H 238.975 2.15783 -3.57062 0
M  V30 2441 H 237.605 2.12509 -2.42981 0
M  V30 2442 H 236.657 0.131583 -3.80172 0
M  V30 2443 H 237.969 0.391641 -4.9726 0
M  V30 2444 H 237.123 2.70211 -5.43204 0
M  V30 2445 H 235.862 2.50994 -4.18155 0
M  V30 2446 H 234.867 0.595896 -5.46561 0
M  V30 2447 H 236.092 0.810252 -6.74249 0
M  V30 2448 H 234.038 2.88639 -5.89087 0
M  V30 2449 H 233.955 1.90403 -7.3163 0
M  V30 2450 H 235.223 3.08282 -7.15949 0
M  V30 2451 N 239.452 1.56882 -0.150215 0
M  V30 2452 C 240.399 2.16922 0.788244 0
M  V30 2453 C 241.369 1.10303 1.24187 0
M  V30 2454 O 242.554 1.38359 1.31383 0
M  V30 2455 C 239.694 2.79754 2.02068 0
M  V30 2456 C 238.807 4.00775 1.61257 0
M  V30 2457 C 237.942 4.51595 2.79705 0
M  V30 2458 C 236.981 5.65074 2.35282 0
M  V30 2459 N 236.118 6.10499 3.4675 0
M  V30 2460 H 240.958 2.96779 0.269444 0
M  V30 2461 H 238.495 1.46599 0.12128 0
M  V30 2462 H 240.453 3.14329 2.74323 0
M  V30 2463 H 239.083 2.02536 2.51354 0
M  V30 2464 H 238.135 3.72158 0.787553 0
M  V30 2465 H 239.447 4.82978 1.24633 0
M  V30 2466 H 238.601 4.88242 3.60145 0
M  V30 2467 H 237.34 3.68406 3.19576 0
M  V30 2468 H 236.345 5.28 1.53283 0
M  V30 2469 H 237.57 6.50052 1.96493 0
M  V30 2470 H 235.516 5.30243 3.86236 0
M  V30 2471 H 235.433 6.87637 3.14152 0
M  V30 2472 H 236.701 6.51791 4.27537 0
M  V30 2473 N 240.93 -0.123565 1.57115 0
M  V30 2474 C 241.86 -1.15309 2.03042 0
M  V30 2475 C 242.841 -1.43454 0.914061 0
M  V30 2476 O 244.026 -1.53973 1.18347 0
M  V30 2477 C 241.156 -2.48043 2.43089 0
M  V30 2478 C 240.11 -2.3437 3.58127 0
M  V30 2479 C 239.436 -3.72026 3.84059 0
M  V30 2480 C 240.736 -1.80804 4.90007 0
M  V30 2481 H 242.43 -0.771102 2.893 0
M  V30 2482 H 239.976 -0.369479 1.39179 0
M  V30 2483 H 241.929 -3.20311 2.73823 0
M  V30 2484 H 240.653 -2.88122 1.53796 0
M  V30 2485 H 239.312 -1.64551 3.27595 0
M  V30 2486 H 238.96 -4.09582 2.91979 0
M  V30 2487 H 238.66 -3.63732 4.6149 0
M  V30 2488 H 240.184 -4.45806 4.1724 0
M  V30 2489 H 241.598 -2.42886 5.19307 0
M  V30 2490 H 239.995 -1.83343 5.71407 0
M  V30 2491 H 241.065 -0.76528 4.78823 0
M  V30 2492 N 242.408 -1.52605 -0.393616 0
M  V30 2493 C 243.824 -1.41753 -0.733357 0
M  V30 2494 C 244.024 -0.534293 -1.94287 0
M  V30 2495 O 243.08 -0.0059787 -2.52499 0
M  V30 2496 C 244.393 -2.84531 -0.972772 0
M  V30 2497 C 245.941 -2.93978 -1.07453 0
M  V30 2498 C 246.416 -4.37756 -1.3466 0
M  V30 2499 N 247.907 -4.4106 -1.41492 0
M  V30 2500 C 248.642 -5.49387 -1.642 0
M  V30 2501 N 248.138 -6.67806 -1.8441 0
M  V30 2502 N 249.931 -5.36923 -1.66342 0
M  V30 2503 H 242.082 -2.08555 0.402328 0
M  V30 2504 H 244.345 -0.940654 0.117789 0
M  V30 2505 H 244.051 -3.51353 -0.156204 0
M  V30 2506 H 243.925 -3.26508 -1.88871 0
M  V30 2507 H 246.312 -2.27326 -1.88167 0
M  V30 2508 H 246.393 -2.55435 -0.136605 0
M  V30 2509 H 246.037 -5.04972 -0.544581 0
M  V30 2510 H 245.967 -4.73848 -2.2973 0
M  V30 2511 H 248.458 -3.55705 -1.27601 0
M  V30 2512 H 248.771 -7.46141 -2.01231 0
M  V30 2513 H 247.116 -6.70843 -1.81644 0
M  V30 2514 H 250.307 -4.43381 -1.50102 0
M  V30 2515 H 250.48 -6.21416 -1.837 0
M  V30 2516 N 243.887 0.651787 -1.4349 0
M  V30 2517 C 244.834 1.76462 -1.4876 0
M  V30 2518 C 245.804 1.62641 -0.337189 0
M  V30 2519 O 246.989 1.82864 -0.544544 0
M  V30 2520 C 244.129 3.14623 -1.41796 0
M  V30 2521 C 243.242 3.39568 -2.67053 0
M  V30 2522 C 242.377 4.67585 -2.52068 0
M  V30 2523 C 241.416 4.85639 -3.72587 0
M  V30 2524 N 240.553 6.04915 -3.56402 0
M  V30 2525 H 245.393 1.71293 -2.43849 0
M  V30 2526 H 242.93 0.835889 -1.21043 0
M  V30 2527 H 244.888 3.94496 -1.35753 0
M  V30 2528 H 243.518 3.18859 -0.50288 0
M  V30 2529 H 242.57 2.53783 -2.8337 0
M  V30 2530 H 243.882 3.48795 -3.56572 0
M  V30 2531 H 243.036 5.55586 -2.4374 0
M  V30 2532 H 241.775 4.60681 -1.60075 0
M  V30 2533 H 240.78 3.96073 -3.81321 0
M  V30 2534 H 242.005 4.94372 -4.65589 0
M  V30 2535 H 239.951 5.9914 -2.67146 0
M  V30 2536 H 239.868 6.15106 -4.39524 0
M  V30 2537 H 241.136 6.95533 -3.51929 0
M  V30 2538 N 245.365 1.30045 0.890287 0
M  V30 2539 C 246.315 1.12592 1.9826 0
M  V30 2540 C 247.299 0.0426021 1.60844 0
M  V30 2541 O 248.491 0.265346 1.75 0
M  V30 2542 C 245.62 0.814301 3.33503 0
M  V30 2543 C 244.706 1.93761 3.7725 0
M  V30 2544 N 245.097 3.18232 3.93143 0
M  V30 2545 C 243.395 1.83277 4.06602 0
M  V30 2546 C 244.096 3.9158 4.30163 0
M  V30 2547 N 243.072 3.19591 4.3973 0
M  V30 2548 H 246.874 2.07003 2.08631 0
M  V30 2549 H 244.388 1.21307 1.07974 0
M  V30 2550 H 246.385 0.67029 4.11476 0
M  V30 2551 H 245.045 -0.121797 3.24471 0
M  V30 2552 H 246.056 3.53581 3.78419 0
M  V30 2553 H 242.733 0.97001 4.06075 0
M  V30 2554 H 244.123 4.98744 4.50226 0
M  V30 2555 N 246.843 -1.10192 1.12674 0
M  V30 2556 C 248.089 -1.82475 0.884915 0
M  V30 2557 C 248.422 -1.85093 -0.58773 0
M  V30 2558 O 247.697 -1.3134 -1.43457 0
M  V30 2559 C 247.98 -3.29018 1.46353 0
M  V30 2560 C 247.833 -3.34718 3.00473 0
M  V30 2561 C 249.152 -4.25473 1.12519 0
M  V30 2562 H 246.271 -0.662492 0.322915 0
M  V30 2563 H 248.913 -1.2913 1.39375 0
M  V30 2564 H 247.063 -3.74576 1.03077 0
M  V30 2565 H 248.735 -2.97622 3.52447 0
M  V30 2566 H 246.978 -2.74541 3.35872 0
M  V30 2567 H 247.649 -4.37918 3.36053 0
M  V30 2568 H 250.125 -3.88161 1.499 0
M  V30 2569 H 249.001 -5.26365 1.55663 0
M  V30 2570 H 249.262 -4.42084 0.0377407 0
M  V30 2571 N 248.321 -0.919034 -1.28029 0
M  V30 2572 C 249.598 -0.473668 -1.89778 0
M  V30 2573 C 249.978 1.04783 -1.83259 0
M  V30 2574 O 249.326 1.8982 -1.27202 0
M  V30 2575 C 249.536 -1.00998 -3.34066 0
M  V30 2576 C 250.884 -1.06525 -4.1102 0
M  V30 2577 O 251.908 -0.958996 -3.43048 0
M  V30 2578 O 250.767 -1.22776 -5.3253 0
M  V30 2579 H 247.861 -0.15098 -0.813101 0
M  V30 2580 H 250.407 -1.01016 -1.36359 0
M  V30 2581 H 249.179 -2.05392 -3.33061 0
M  V30 2582 H 248.802 -0.454626 -3.94992 0
M  V30 2583 N 249.799 1.42003 -0.683588 0
M  V30 2584 C 251.027 2.05746 -0.218182 0
M  V30 2585 C 251.442 1.51396 1.12804 0
M  V30 2586 O 250.799 0.657303 1.70252 0
M  V30 2587 C 250.85 3.61171 -0.154131 0
M  V30 2588 O 250.571 4.13508 -1.44716 0
M  V30 2589 C 252.072 4.42042 0.333713 0
M  V30 2590 H 249.292 0.662888 -0.10402 0
M  V30 2591 H 251.836 1.81987 -0.9328 0
M  V30 2592 H 249.991 3.84012 0.511231 0
M  V30 2593 H 250.405 5.07453 -1.32632 0
M  V30 2594 H 251.879 5.51028 0.327423 0
M  V30 2595 H 252.356 4.17269 1.37053 0
M  V30 2596 H 252.962 4.24239 -0.300222 0
M  V30 2597 N 251.277 0.427512 1.51691 0
M  V30 2598 C 252.207 -0.3796 2.30394 0
M  V30 2599 C 253.188 -1.02982 1.35384 0
M  V30 2600 O 254.373 -1.03534 1.643 0
M  V30 2601 C 251.503 -1.48649 3.1388 0
M  V30 2602 C 250.457 -0.960294 4.17088 0
M  V30 2603 C 249.783 -2.16219 4.89033 0
M  V30 2604 C 251.083 -0.00153679 5.223 0
M  V30 2605 H 252.777 0.277164 2.98114 0
M  V30 2606 H 250.323 0.134739 1.43368 0
M  V30 2607 H 252.276 -2.05826 3.67714 0
M  V30 2608 H 251 -2.1714 2.43962 0
M  V30 2609 H 249.659 -0.410806 3.64291 0
M  V30 2610 H 249.307 -2.83307 4.15628 0
M  V30 2611 H 249.007 -1.81654 5.58816 0
M  V30 2612 H 250.531 -2.73968 5.45687 0
M  V30 2613 H 251.945 -0.482687 5.71264 0
M  V30 2614 H 250.342 0.256199 5.99553 0
M  V30 2615 H 251.412 0.938174 4.75738 0
M  V30 2616 N 252.755 -1.56801 0.158532 0
M  V30 2617 C 254.004 -1.95665 -0.489702 0
M  V30 2618 C 254.317 -1.04654 -1.65248 0
M  V30 2619 O 255.523 -1.33146 -2.3661 0
M  V30 2620 C 253.979 -3.47874 -0.922582 0
M  V30 2621 C 253.587 -4.47489 0.213893 0
M  V30 2622 C 255.331 -3.95583 -1.53996 0
M  V30 2623 C 253.238 -5.90921 -0.237903 0
M  V30 2624 H 252.168 -0.730516 -0.186716 0
M  V30 2625 H 254.819 -1.81861 0.244722 0
M  V30 2626 H 253.201 -3.57051 -1.71261 0
M  V30 2627 H 254.375 -4.50017 0.991036 0
M  V30 2628 H 252.69 -4.09764 0.740407 0
M  V30 2629 H 255.287 -5.0019 -1.8898 0
M  V30 2630 H 255.63 -3.37789 -2.43319 0
M  V30 2631 H 256.163 -3.8937 -0.814611 0
M  V30 2632 H 252.902 -6.52559 0.620236 0
M  V30 2633 H 252.422 -5.91729 -0.980676 0
M  V30 2634 H 254.101 -6.43352 -0.686067 0
M  V30 2635 N 254.233 0.115231 -1.57178 0
M  V30 2636 C 255.18 1.14115 -2.00615 0
M  V30 2637 C 256.15 1.40939 -0.878941 0
M  V30 2638 O 257.335 1.52741 -1.14345 0
M  V30 2639 C 254.475 2.46156 -2.4187 0
M  V30 2640 C 253.588 2.26236 -3.68024 0
M  V30 2641 C 252.723 3.51534 -3.98243 0
M  V30 2642 C 251.762 3.26787 -5.17568 0
M  V30 2643 N 250.899 4.44298 -5.43639 0
M  V30 2644 H 255.739 0.763743 -2.88047 0
M  V30 2645 H 253.276 0.365615 -1.42484 0
M  V30 2646 H 255.234 3.23189 -2.63827 0
M  V30 2647 H 253.864 2.81783 -1.57475 0
M  V30 2648 H 252.916 1.40102 -3.5366 0
M  V30 2649 H 254.228 2.03929 -4.55208 0
M  V30 2650 H 253.382 4.36984 -4.20868 0
M  V30 2651 H 252.121 3.76876 -3.09541 0
M  V30 2652 H 251.126 2.39729 -4.94783 0
M  V30 2653 H 252.351 3.02812 -6.0785 0
M  V30 2654 H 250.297 4.69754 -4.57895 0
M  V30 2655 H 250.214 4.25109 -6.25154 0
M  V30 2656 H 251.482 5.3087 -5.70786 0
M  V30 2657 N 255.711 1.52812 0.385517 0
M  V30 2658 C 256.96 1.67249 1.12741 0
M  V30 2659 C 257.273 0.4205 1.91027 0
M  V30 2660 O 258.479 0.445064 2.67827 0
M  V30 2661 C 256.935 2.95583 2.05326 0
M  V30 2662 C 256.543 4.27974 1.32447 0
M  V30 2663 C 258.287 3.19386 2.7963 0
M  V30 2664 C 256.194 5.47412 2.23818 0
M  V30 2665 H 255.124 0.6231 0.424573 0
M  V30 2666 H 257.775 1.79309 0.389924 0
M  V30 2667 H 256.157 2.77277 2.82725 0
M  V30 2668 H 257.331 4.56844 0.602495 0
M  V30 2669 H 255.646 4.10459 0.700885 0
M  V30 2670 H 258.243 4.05801 3.48181 0
M  V30 2671 H 258.586 2.34604 3.43899 0
M  V30 2672 H 259.119 3.38274 2.09322 0
M  V30 2673 H 255.858 6.34612 1.64157 0
M  V30 2674 H 255.378 5.22849 2.93921 0
M  V30 2675 H 257.057 5.81423 2.83824 0
M  V30 2676 N 257.189 -0.644168 1.43834 0
M  V30 2677 C 258.414 -1.43642 1.49605 0
M  V30 2678 C 258.839 -1.8773 0.117913 0
M  V30 2679 O 258.197 -1.57938 -0.890239 0
M  V30 2680 C 258.245 -2.6416 2.45463 0
M  V30 2681 O 257.349 -3.63538 1.94714 0
M  V30 2682 H 256.69 -0.430329 0.50568 0
M  V30 2683 H 259.22 -0.787448 1.8884 0
M  V30 2684 H 259.23 -3.11864 2.63068 0
M  V30 2685 H 257.905 -2.31414 3.45572 0
M  V30 2686 H 256.482 -3.2273 1.86814 0
M  V30 2687 N 258.668 -1.30515 -0.883378 0
M  V30 2688 C 259.616 -1.16941 -2.01066 0
M  V30 2689 C 260.61 -0.0809148 -1.69207 0
M  V30 2690 O 261.816 -0.241877 -1.78367 0
M  V30 2691 H 258.191 -0.361705 -0.659298 0
M  V30 2692 H 260.162 -2.12344 -2.09649 0
M  V30 2693 C 258.911 -0.879694 -3.36388 0
M  V30 2694 H 258.234 -1.70936 -3.61415 0
M  V30 2695 H 259.674 -0.82483 -4.159 0
M  V30 2696 C 258.133 0.417409 -3.34304 0
M  V30 2697 O 258.663 1.43843 -3.75063 0
M  V30 2698 N 256.869 0.429141 -2.87414 0
M  V30 2699 H 256.416 -0.402222 -2.5444 0
M  V30 2700 H 256.374 1.29696 -2.86403 0
M  V30 2701 N 260.146 1.09593 -1.13257 0
M  V30 2702 C 261.094 2.18271 -0.803783 0
M  V30 2703 C 262.088 1.68054 0.213148 0
M  V30 2704 O 263.294 1.79862 0.0704699 0
M  V30 2705 H 259.669 0.711949 -0.242143 0
M  V30 2706 H 261.64 2.43235 -1.72856 0
M  V30 2707 C 260.389 3.46536 -0.28424 0
M  V30 2708 H 259.712 3.85545 -1.05807 0
M  V30 2709 H 261.152 4.23899 -0.0925945 0
M  V30 2710 C 259.611 3.22036 0.989684 0
M  V30 2711 O 260.141 3.44509 2.06584 0
M  V30 2712 N 258.347 2.7565 0.920086 0
M  V30 2713 H 257.894 2.57562 0.0442019 0
M  V30 2714 H 257.852 2.59635 1.77306 0
M  V30 2715 N 261.624 0.925811 1.2754 0
M  V30 2716 C 262.571 0.422045 2.26908 0
M  V30 2717 C 263.541 -0.510029 1.58076 0
M  V30 2718 O 264.726 -0.429599 1.85901 0
M  V30 2719 C 261.866 -0.320837 3.43605 0
M  V30 2720 C 260.979 0.64513 4.27156 0
M  V30 2721 C 260.114 -0.117405 5.3107 0
M  V30 2722 C 259.153 0.841391 6.0629 0
M  V30 2723 N 258.29 0.111604 7.02011 0
M  V30 2724 H 263.13 1.27441 2.69375 0
M  V30 2725 H 260.667 0.639697 1.32462 0
M  V30 2726 H 262.625 -0.76785 4.10073 0
M  V30 2727 H 261.255 -1.13745 3.02096 0
M  V30 2728 H 260.307 1.21067 3.6062 0
M  V30 2729 H 261.619 1.37797 4.79389 0
M  V30 2730 H 260.773 -0.624422 6.03478 0
M  V30 2731 H 259.512 -0.883219 4.79636 0
M  V30 2732 H 258.517 1.35967 5.32722 0
M  V30 2733 H 259.742 1.60696 6.59813 0
M  V30 2734 H 257.688 -0.635999 6.5291 0
M  V30 2735 H 257.605 0.784044 7.51923 0
M  V30 2736 H 258.873 -0.374823 7.78598 0
M  V30 2737 N 263.102 -1.41638 0.69111 0
M  V30 2738 C 264.032 -2.3347 0.037248 0
M  V30 2739 C 265.013 -1.51575 -0.771947 0
M  V30 2740 O 266.198 -1.80126 -0.72582 0
M  V30 2741 C 263.328 -3.35354 -0.903064 0
M  V30 2742 C 262.282 -4.27526 -0.201288 0
M  V30 2743 C 261.608 -5.19747 -1.25565 0
M  V30 2744 C 262.908 -5.13959 0.929689 0
M  V30 2745 H 264.602 -2.88397 0.804227 0
M  V30 2746 H 262.148 -1.38669 0.388189 0
M  V30 2747 H 264.101 -3.98519 -1.36969 0
M  V30 2748 H 262.825 -2.78767 -1.70166 0
M  V30 2749 H 261.484 -3.65779 0.245265 0
M  V30 2750 H 261.132 -4.59479 -2.04666 0
M  V30 2751 H 260.832 -5.8225 -0.791128 0
M  V30 2752 H 262.356 -5.85789 -1.72288 0
M  V30 2753 H 263.77 -5.70718 0.543546 0
M  V30 2754 H 262.167 -5.85379 1.32103 0
M  V30 2755 H 263.237 -4.51389 1.77133 0
M  V30 2756 N 264.58 -0.43555 -1.51462 0
M  V30 2757 C 265.513 0.421989 -2.24264 0
M  V30 2758 C 266.491 1.02619 -1.26127 0
M  V30 2759 O 267.675 1.069 -1.55257 0
M  V30 2760 C 264.802 1.588 -2.99166 0
M  V30 2761 C 263.848 1.10465 -4.11946 0
M  V30 2762 S 264.681 0.048146 -5.35478 0
M  V30 2763 C 265.837 1.21887 -6.13917 0
M  V30 2764 H 266.07 -0.196102 -2.96653 0
M  V30 2765 H 263.603 -0.220054 -1.52824 0
M  V30 2766 H 265.561 2.25647 -3.42919 0
M  V30 2767 H 264.222 2.1775 -2.26371 0
M  V30 2768 H 263.415 1.97654 -4.63626 0
M  V30 2769 H 263.017 0.51445 -3.70445 0
M  V30 2770 H 265.309 2.13756 -6.42895 0
M  V30 2771 H 266.252 0.742076 -7.04201 0
M  V30 2772 H 266.66 1.45663 -5.45383 0
M  V30 2773 N 266.058 1.56714 -0.166846 0
M  V30 2774 C 266.968 2.21331 0.777791 0
M  V30 2775 C 267.984 1.20358 1.25658 0
M  V30 2776 O 269.16 1.53005 1.30964 0
M  V30 2777 C 266.225 2.83787 1.99163 0
M  V30 2778 C 265.286 3.99947 1.56016 0
M  V30 2779 C 264.519 4.59415 2.71613 0
M  V30 2780 O 264.742 4.17769 3.88362 0
M  V30 2781 O 263.676 5.49359 2.45945 0
M  V30 2782 H 267.502 3.02605 0.257636 0
M  V30 2783 H 265.087 1.49275 0.0611393 0
M  V30 2784 H 266.969 3.23405 2.70161 0
M  V30 2785 H 265.644 2.05513 2.50092 0
M  V30 2786 H 264.551 3.65007 0.819809 0
M  V30 2787 H 265.884 4.79801 1.09782 0
M  V30 2788 N 267.536 -0.106894 1.57237 0
M  V30 2789 C 268.446 -1.14911 2.0453 0
M  V30 2790 C 269.462 -1.44592 0.96795 0
M  V30 2791 O 270.638 -1.55468 1.2803 0
M  V30 2792 C 267.703 -2.45272 2.45036 0
M  V30 2793 C 266.764 -2.22879 3.66911 0
M  V30 2794 C 265.997 -3.47024 4.05475 0
M  V30 2795 O 266.22 -4.54804 3.44252 0
M  V30 2796 O 265.154 -3.3731 4.98504 0
M  V30 2797 H 268.98 -0.777461 2.9358 0
M  V30 2798 H 266.565 -0.318563 1.45964 0
M  V30 2799 H 268.447 -3.22055 2.71769 0
M  V30 2800 H 267.122 -2.81886 1.59129 0
M  V30 2801 H 266.029 -1.43915 3.45311 0
M  V30 2802 H 267.362 -1.91163 4.53561 0
M  V30 2803 N 269.014 -1.53014 -0.377408 0
M  V30 2804 C 269.944 -1.81589 -1.46791 0
M  V30 2805 C 270.925 -0.668622 -1.56408 0
M  V30 2806 O 272.11 -0.917337 -1.71168 0
M  V30 2807 C 269.24 -1.99519 -2.8427 0
M  V30 2808 C 268.194 -3.15249 -2.89486 0
M  V30 2809 C 267.52 -3.18451 -4.29527 0
M  V30 2810 C 268.82 -4.54084 -2.58079 0
M  V30 2811 H 270.514 -2.7291 -1.23127 0
M  V30 2812 H 268.06 -1.31319 -0.590883 0
M  V30 2813 H 270.013 -2.18092 -3.60575 0
M  V30 2814 H 268.737 -1.04897 -3.09296 0
M  V30 2815 H 267.396 -2.96477 -2.15631 0
M  V30 2816 H 267.044 -2.2149 -4.5161 0
M  V30 2817 H 266.744 -3.962 -4.33934 0
M  V30 2818 H 268.268 -3.39193 -5.07721 0
M  V30 2819 H 269.682 -4.72899 -3.24098 0
M  V30 2820 H 268.079 -5.33987 -2.7382 0
M  V30 2821 H 269.149 -4.60006 -1.53372 0
M  V30 2822 N 270.492 0.636531 -1.44174 0
M  V30 2823 C 271.903 1.21806 -1.41493 0
M  V30 2824 C 272.254 1.95785 -0.1275 0
M  V30 2825 O 271.379 2.02147 0.772376 0
M  V30 2826 C 271.974 2.21551 -2.56321 0
M  V30 2827 C 270.533 2.75143 -2.56853 0
M  V30 2828 C 269.68 1.50052 -2.33195 0
M  V30 2829 H 272.631 0.427531 -1.52833 0
M  V30 2830 H 272.652 3.0405 -2.28765 0
M  V30 2831 H 272.164 1.67679 -3.50008 0
M  V30 2832 H 270.265 3.33033 -1.67093 0
M  V30 2833 H 270.378 3.2155 -3.55165 0
M  V30 2834 H 268.742 1.77993 -1.82183 0
M  V30 2835 H 269.525 0.980903 -3.28988 0
M  V30 2836 N 271.97 1.30982 0.876444 0
M  V30 2837 C 273.386 1.09498 1.16113 0
M  V30 2838 C 273.586 -0.13875 2.01022 0
M  V30 2839 O 272.642 -0.829935 2.38471 0
M  V30 2840 C 273.955 2.36308 1.85954 0
M  V30 2841 C 275.503 2.41856 1.98683 0
M  V30 2842 C 275.978 3.6853 2.71937 0
M  V30 2843 N 277.469 3.69387 2.79477 0
M  V30 2844 C 278.204 4.64096 3.36753 0
M  V30 2845 N 277.7 5.69155 3.95012 0
M  V30 2846 N 279.493 4.51626 3.3465 0
M  V30 2847 H 271.644 2.10118 0.310494 0
M  V30 2848 H 273.907 0.926634 0.200131 0
M  V30 2849 H 273.613 3.26388 1.31011 0
M  V30 2850 H 273.487 2.4561 2.86278 0
M  V30 2851 H 275.874 1.52249 2.52793 0
M  V30 2852 H 275.955 2.36523 0.9742 0
M  V30 2853 H 275.599 4.58499 2.18496 0
M  V30 2854 H 275.529 3.71127 3.73593 0
M  V30 2855 H 278.02 2.93438 2.38123 0
M  V30 2856 H 278.333 6.3751 4.36808 0
M  V30 2857 H 276.678 5.72937 3.93406 0
M  V30 2858 H 279.869 3.68728 2.8837 0
M  V30 2859 H 280.042 5.25614 3.7899 0
M  V30 2860 N 273.449 -1.08991 1.13837 0
M  V30 2861 C 274.726 -1.77863 0.813876 0
M  V30 2862 C 275.106 -1.99375 -0.693746 0
M  V30 2863 O 274.454 -1.59875 -1.63255 0
M  V30 2864 C 274.664 -3.0986 1.60586 0
M  V30 2865 C 276.012 -3.84493 1.8014 0
M  V30 2866 O 277.036 -3.19624 1.57222 0
M  V30 2867 O 275.895 -5.00957 2.18413 0
M  V30 2868 H 272.989 -0.771589 0.297624 0
M  V30 2869 H 275.535 -1.15507 1.24323 0
M  V30 2870 H 274.307 -2.89715 2.63022 0
M  V30 2871 H 273.93 -3.79942 1.17173 0
M  V30 2872 N 274.927 -0.932562 -1.27047 0
M  V30 2873 C 276.173 -0.576412 -1.94436 0
M  V30 2874 C 276.506 0.880891 -1.73072 0
M  V30 2875 O 275.781 1.62905 -1.06264 0
M  V30 2876 C 276.064 -0.909031 -3.48437 0
M  V30 2877 C 275.917 -2.42044 -3.79123 0
M  V30 2878 C 277.236 -0.418341 -4.38107 0
M  V30 2879 H 274.355 -0.210888 -0.706184 0
M  V30 2880 H 276.997 -1.16522 -1.50075 0
M  V30 2881 H 275.147 -0.407947 -3.86352 0
M  V30 2882 H 276.819 -2.99359 -3.50973 0
M  V30 2883 H 275.062 -2.86758 -3.25503 0
M  V30 2884 H 275.733 -2.6037 -4.86736 0
M  V30 2885 H 278.209 -0.847856 -4.0737 0
M  V30 2886 H 277.085 -0.679981 -5.44672 0
M  V30 2887 H 277.346 0.681642 -4.36814 0
M  V30 2888 N 276.405 1.4127 -0.698611 0
M  V30 2889 C 277.352 2.30773 -0.0352094 0
M  V30 2890 C 278.322 1.47273 0.768111 0
M  V30 2891 O 279.507 1.76053 0.735524 0
M  V30 2892 C 276.647 3.33346 0.893 0
M  V30 2893 C 275.76 4.31924 0.0809695 0
M  V30 2894 C 274.895 5.21566 1.0071 0
M  V30 2895 C 273.934 6.11811 0.188155 0
M  V30 2896 N 273.071 6.93926 1.06825 0
M  V30 2897 H 277.911 2.86943 -0.804207 0
M  V30 2898 H 275.448 1.4132 -0.408294 0
M  V30 2899 H 277.406 3.91368 1.44523 0
M  V30 2900 H 276.036 2.78719 1.62836 0
M  V30 2901 H 275.088 3.75825 -0.588224 0
M  V30 2902 H 276.4 4.95716 -0.553801 0
M  V30 2903 H 275.554 5.84437 1.62845 0
M  V30 2904 H 274.293 4.58008 1.67572 0
M  V30 2905 H 273.298 5.47986 -0.446254 0
M  V30 2906 H 274.523 6.77425 -0.476716 0
M  V30 2907 H 272.469 6.32973 1.72283 0
M  V30 2908 H 272.386 7.54416 0.489123 0
M  V30 2909 H 273.654 7.61262 1.67632 0
M  V30 2910 N 277.883 0.443576 1.51229 0
M  V30 2911 C 279.132 -0.122332 2.01329 0
M  V30 2912 C 279.445 -1.43237 1.33201 0
M  V30 2913 O 280.651 -2.0816 1.74304 0
M  V30 2914 C 279.107 -0.268551 3.58897 0
M  V30 2915 C 278.715 1.03142 4.35965 0
M  V30 2916 C 280.459 -0.787894 4.17124 0
M  V30 2917 C 278.366 0.850504 5.85252 0
M  V30 2918 H 277.296 -0.0494929 0.752374 0
M  V30 2919 H 279.947 0.574289 1.74282 0
M  V30 2920 H 278.329 -1.02832 3.82415 0
M  V30 2921 H 279.503 1.80001 4.24189 0
M  V30 2922 H 277.818 1.47977 3.89219 0
M  V30 2923 H 280.415 -0.939841 5.26375 0
M  V30 2924 H 280.758 -1.77201 3.76703 0
M  V30 2925 H 281.291 -0.0862669 3.97706 0
M  V30 2926 H 278.03 1.80718 6.30096 0
M  V30 2927 H 277.55 0.121825 5.99676 0
M  V30 2928 H 279.229 0.506163 6.45017 0
M  V30 2929 N 279.361 -1.56624 0.175154 0
M  V30 2930 C 280.308 -2.18149 -0.753634 0
M  V30 2931 C 281.278 -1.12265 -1.22417 0
M  V30 2932 O 282.463 -1.40432 -1.29165 0
M  V30 2933 C 279.603 -2.82933 -1.97592 0
M  V30 2934 C 278.716 -4.03289 -1.5486 0
M  V30 2935 C 277.851 -4.55988 -2.72485 0
M  V30 2936 C 276.89 -5.68746 -2.26262 0
M  V30 2937 N 276.027 -6.15938 -3.36994 0
M  V30 2938 H 280.867 -2.9717 -0.222195 0
M  V30 2939 H 278.404 -1.46774 -0.0979422 0
M  V30 2940 H 280.362 -3.18653 -2.69288 0
M  V30 2941 H 278.992 -2.06509 -2.481 0
M  V30 2942 H 278.044 -3.73364 -0.728246 0
M  V30 2943 H 279.356 -4.849 -1.16933 0
M  V30 2944 H 278.51 -4.9391 -3.52332 0
M  V30 2945 H 277.249 -3.73443 -3.13674 0
M  V30 2946 H 276.254 -5.30372 -1.44863 0
M  V30 2947 H 277.479 -6.53095 -1.86127 0
M  V30 2948 H 275.425 -5.36321 -3.77751 0
M  V30 2949 H 275.342 -6.92548 -3.03172 0
M  V30 2950 H 276.61 -6.58511 -4.17114 0
M  V30 2951 N 280.839 0.0985539 -1.57292 0
M  V30 2952 C 282.116 0.834155 -1.76921 0
M  V30 2953 C 282.496 1.97101 -0.755928 0
M  V30 2954 O 281.844 2.27474 0.216245 0
M  V30 2955 C 282.054 1.33194 -3.22584 0
M  V30 2956 C 283.402 1.77611 -3.85668 0
M  V30 2957 O 284.426 1.42825 -3.26312 0
M  V30 2958 O 283.285 2.4192 -4.90038 0
M  V30 2959 H 280.379 0.397628 -0.725135 0
M  V30 2960 H 282.925 0.0807044 -1.69508 0
M  V30 2961 H 281.697 0.517248 -3.87866 0
M  V30 2962 H 281.32 2.1475 -3.34616 0
M  V30 2963 N 282.317 1.53212 0.369288 0
M  V30 2964 C 283.28 1.7872 1.43498 0
M  V30 2965 C 284.28 0.657554 1.46741 0
M  V30 2966 O 285.47 0.925736 1.47566 0
M  V30 2967 C 282.602 1.90591 2.82645 0
M  V30 2968 H 283.795 2.73894 1.22156 0
M  V30 2969 H 281.348 1.44233 0.602203 0
M  V30 2970 H 282.083 0.974709 3.09306 0
M  V30 2971 H 281.868 2.72751 2.8169 0
M  V30 2972 H 283.358 2.11931 3.59826 0
M  V30 2973 N 283.795 -0.628877 1.44509 0
M  V30 2974 C 285.042 -1.38839 1.47411 0
M  V30 2975 C 285.37 -1.94202 0.10757 0
M  V30 2976 O 284.625 -1.74243 -0.890947 0
M  V30 2977 C 284.924 -2.56995 2.48371 0
M  V30 2978 C 284.59 -2.19908 3.93639 0
M  V30 2979 C 283.252 -2.09506 4.33198 0
M  V30 2980 C 285.604 -1.9064 4.85083 0
M  V30 2981 C 282.932 -1.68028 5.62124 0
M  V30 2982 C 285.284 -1.50655 6.14399 0
M  V30 2983 C 283.948 -1.38796 6.5291 0
M  V30 2984 H 283.218 -0.508048 0.539414 0
M  V30 2985 H 285.865 -0.712913 1.77735 0
M  V30 2986 H 284.17 -3.29786 2.11538 0
M  V30 2987 H 285.867 -3.15223 2.47861 0
M  V30 2988 H 282.457 -2.28922 3.62343 0
M  V30 2989 H 286.641 -1.97585 4.55273 0
M  V30 2990 H 281.897 -1.57452 5.90778 0
M  V30 2991 H 286.071 -1.27048 6.84713 0
M  V30 2992 H 283.698 -1.06429 7.52713 0
M  V30 2993 N 285.273 -1.31445 -0.869486 0
M  V30 2994 C 286.203 -1.21727 -1.99261 0
M  V30 2995 C 287.184 -0.104359 -1.6978 0
M  V30 2996 O 288.369 -0.289038 -1.92037 0
M  V30 2997 C 285.499 -0.924317 -3.34774 0
M  V30 2998 C 284.453 -1.99685 -3.78563 0
M  V30 2999 C 283.779 -1.55658 -5.11541 0
M  V30 3000 C 285.079 -3.41003 -3.95619 0
M  V30 3001 H 286.773 -2.1569 -2.07649 0
M  V30 3002 H 284.319 -1.03839 -0.997675 0
M  V30 3003 H 286.272 -0.842934 -4.12883 0
M  V30 3004 H 284.996 0.0509793 -3.2656 0
M  V30 3005 H 283.655 -2.06813 -3.02694 0
M  V30 3006 H 283.303 -0.569132 -4.9977 0
M  V30 3007 H 283.003 -2.27409 -5.41811 0
M  V30 3008 H 284.527 -1.48928 -5.92159 0
M  V30 3009 H 285.941 -3.36547 -4.64122 0
M  V30 3010 H 284.338 -4.10975 -4.37286 0
M  V30 3011 H 285.408 -3.81754 -2.98985 0
M  V30 3012 N 286.751 1.08385 -1.14413 0
M  V30 3013 C 287.698 2.15311 -0.831265 0
M  V30 3014 C 288.668 1.64751 0.211292 0
M  V30 3015 O 289.853 1.90627 0.0811674 0
M  V30 3016 C 286.993 3.43658 -0.315143 0
M  V30 3017 C 286.106 4.08064 -1.41802 0
M  V30 3018 C 285.241 5.24207 -0.859126 0
M  V30 3019 C 284.28 5.80554 -1.93967 0
M  V30 3020 N 283.417 6.88042 -1.39793 0
M  V30 3021 H 288.257 2.41415 -1.74708 0
M  V30 3022 H 285.794 1.18474 -0.871909 0
M  V30 3023 H 287.752 4.172 0.00230884 0
M  V30 3024 H 286.382 3.17839 0.56378 0
M  V30 3025 H 285.434 3.3228 -1.85187 0
M  V30 3026 H 286.746 4.45962 -2.23427 0
M  V30 3027 H 285.9 6.04689 -0.49359 0
M  V30 3028 H 284.639 4.87699 -0.011932 0
M  V30 3029 H 283.644 4.98725 -2.31415 0
M  V30 3030 H 284.869 6.19121 -2.79046 0
M  V30 3031 H 282.815 6.53493 -0.572919 0
M  V30 3032 H 282.732 7.24767 -2.15054 0
M  V30 3033 H 284 7.72255 -1.0603 0
M  V30 3034 N 288.23 0.939286 1.26551 0
M  V30 3035 C 289.193 0.451987 2.24699 0
M  V30 3036 C 290.193 -0.435869 1.5478 0
M  V30 3037 O 291.383 -0.235314 1.72603 0
M  V30 3038 C 288.515 -0.348801 3.39111 0
M  V30 3039 H 289.708 1.3193 2.69322 0
M  V30 3040 H 287.261 0.721072 1.38673 0
M  V30 3041 H 287.996 -1.23444 2.99887 0
M  V30 3042 H 287.781 0.287945 3.91041 0
M  V30 3043 H 289.271 -0.679726 4.12031 0
M  V30 3044 N 289.708 -1.40897 0.706093 0
M  V30 3045 C 290.985 -1.94868 0.169099 0
M  V30 3046 C 291.365 -1.64485 -1.32318 0
M  V30 3047 O 290.713 -0.95744 -2.07474 0
M  V30 3048 C 290.923 -3.45798 0.471654 0
M  V30 3049 C 292.271 -4.22663 0.405127 0
M  V30 3050 O 293.295 -3.53865 0.407168 0
M  V30 3051 O 292.154 -5.45216 0.374383 0
M  V30 3052 H 289.248 -0.82673 0.0211352 0
M  V30 3053 H 291.794 -1.50558 0.782976 0
M  V30 3054 H 290.566 -3.61235 1.50416 0
M  V30 3055 H 290.189 -3.97225 -0.172666 0
M  V30 3056 N 291.186 -0.45159 -1.50991 0
M  V30 3057 C 292.096 0.358431 -2.31846 0
M  V30 3058 C 293.112 1.01438 -1.41373 0
M  V30 3059 O 294.288 1.00663 -1.74439 0
M  V30 3060 C 291.353 1.43704 -3.15515 0
M  V30 3061 C 290.414 0.799742 -4.21785 0
M  V30 3062 C 289.647 1.82696 -5.01456 0
M  V30 3063 O 289.87 3.05105 -4.81941 0
M  V30 3064 O 288.804 1.40958 -5.85162 0
M  V30 3065 H 292.63 -0.302032 -3.02194 0
M  V30 3066 H 290.215 -0.213825 -1.47862 0
M  V30 3067 H 292.097 2.06227 -3.67489 0
M  V30 3068 H 290.772 2.08133 -2.47916 0
M  V30 3069 H 289.679 0.136084 -3.73852 0
M  V30 3070 H 291.012 0.198718 -4.91799 0
M  V30 3071 N 292.664 1.56529 -0.183458 0
M  V30 3072 C 293.892 2.01623 0.464285 0
M  V30 3073 C 294.307 1.06366 1.55986 0
M  V30 3074 O 293.664 0.0665398 1.82379 0
M  V30 3075 C 293.715 3.46475 1.03139 0
M  V30 3076 O 293.436 4.38095 -0.0204675 0
M  V30 3077 C 294.937 4.0703 1.75617 0
M  V30 3078 H 292.157 0.660596 0.117704 0
M  V30 3079 H 294.701 2.02451 -0.288751 0
M  V30 3080 H 292.856 3.46383 1.73486 0
M  V30 3081 H 293.27 5.22973 0.399952 0
M  V30 3082 H 294.744 5.10271 2.10542 0
M  V30 3083 H 295.221 3.49819 2.65563 0
M  V30 3084 H 295.827 4.1086 1.09882 0
M  V30 3085 N 294.142 -0.090211 1.57342 0
M  V30 3086 C 295.072 -1.10976 2.05443 0
M  V30 3087 C 296.053 -1.41482 0.944284 0
M  V30 3088 O 297.238 -1.51428 1.21586 0
M  V30 3089 C 294.368 -2.42831 2.48295 0
M  V30 3090 C 293.322 -2.26721 3.63018 0
M  V30 3091 C 292.648 -3.63796 3.91863 0
M  V30 3092 C 293.948 -1.7037 4.93732 0
M  V30 3093 H 295.642 -0.709564 2.9087 0
M  V30 3094 H 293.188 -0.339874 1.39932 0
M  V30 3095 H 295.141 -3.14431 2.80555 0
M  V30 3096 H 293.865 -2.84795 1.59873 0
M  V30 3097 H 292.524 -1.57565 3.31012 0
M  V30 3098 H 292.172 -4.03297 3.00601 0
M  V30 3099 H 291.872 -3.53861 4.69101 0
M  V30 3100 H 293.396 -4.36855 4.26603 0
M  V30 3101 H 294.81 -2.31816 5.24342 0
M  V30 3102 H 293.207 -1.71181 5.75167 0
M  V30 3103 H 294.277 -0.663542 4.80339 0
M  V30 3104 N 295.62 -1.53406 -0.361157 0
M  V30 3105 C 296.57 -1.76536 -1.44287 0
M  V30 3106 C 297.554 -0.620019 -1.48474 0
M  V30 3107 O 298.746 -0.878834 -1.53641 0
M  V30 3108 C 295.875 -1.96266 -2.81664 0
M  V30 3109 C 294.961 -3.16815 -2.81938 0
M  V30 3110 N 295.352 -4.38637 -2.51855 0
M  V30 3111 C 293.65 -3.17627 -3.13096 0
M  V30 3112 C 294.351 -5.20401 -2.59919 0
M  V30 3113 N 293.327 -4.56712 -2.94814 0
M  V30 3114 H 297.129 -2.68331 -1.19899 0
M  V30 3115 H 294.643 -1.52091 -0.56938 0
M  V30 3116 H 296.64 -2.10966 -3.59582 0
M  V30 3117 H 295.3 -1.05702 -3.07013 0
M  V30 3118 H 296.311 -4.66293 -2.25369 0
M  V30 3119 H 292.988 -2.36971 -3.43731 0
M  V30 3120 H 294.378 -6.27586 -2.39969 0
M  V30 3121 N 297.098 0.621204 -1.44841 0
M  V30 3122 C 298.03 1.74615 -1.48466 0
M  V30 3123 C 299.043 1.58377 -0.37691 0
M  V30 3124 O 300.232 1.66508 -0.643215 0
M  V30 3125 C 297.332 3.12459 -1.31236 0
M  V30 3126 C 296.505 3.55064 -2.55438 0
M  V30 3127 C 295.564 4.71821 -2.32963 0
M  V30 3128 O 294.59 4.79628 -3.06505 0
M  V30 3129 N 295.792 5.64186 -1.36654 0
M  V30 3130 H 298.557 1.71973 -2.45449 0
M  V30 3131 H 296.118 0.806077 -1.40407 0
M  V30 3132 H 298.11 3.88302 -1.14032 0
M  V30 3133 H 296.68 3.09686 -0.4258 0
M  V30 3134 H 295.9 2.69324 -2.87851 0
M  V30 3135 H 297.188 3.80284 -3.38026 0
M  V30 3136 H 296.586 5.6058 -0.759344 0
M  V30 3137 H 295.143 6.39618 -1.25425 0
M  V30 3138 N 298.576 1.31904 0.862503 0
M  V30 3139 C 299.824 1.21776 1.61292 0
M  V30 3140 C 300.145 -0.222413 1.93727 0
M  V30 3141 O 299.415 -1.1451 1.58947 0
M  V30 3142 H 297.995 0.447717 0.597962 0
M  V30 3143 H 300.657 1.65326 1.03215 0
M  V30 3144 H 299.753 1.7948 2.5533 0
M  V30 3145 N 300.054 -1.07777 1.14986 0
M  V30 3146 C 301.3 -1.80557 0.923422 0
M  V30 3147 C 301.633 -1.86298 -0.548337 0
M  V30 3148 O 300.908 -1.34354 -1.40639 0
M  V30 3149 C 301.191 -3.25839 1.53299 0
M  V30 3150 C 301.044 -3.28269 3.07505 0
M  V30 3151 C 302.363 -4.22991 1.21518 0
M  V30 3152 H 299.482 -0.655493 0.336894 0
M  V30 3153 H 302.124 -1.26144 1.42083 0
M  V30 3154 H 300.274 -3.72306 1.10999 0
M  V30 3155 H 301.946 -2.90079 3.58681 0
M  V30 3156 H 300.189 -2.67355 3.4162 0
M  V30 3157 H 300.86 -4.30691 3.45266 0
M  V30 3158 H 303.336 -3.84894 1.581 0
M  V30 3159 H 302.212 -5.22945 1.66793 0
M  V30 3160 H 302.473 -4.41904 0.131505 0
M  V30 3161 N 301.532 -0.945985 -1.26051 0
M  V30 3162 C 302.479 -0.45809 -2.26208 0
M  V30 3163 C 303.449 0.484816 -1.58867 0
M  V30 3164 O 304.634 0.399969 -1.86561 0
M  V30 3165 C 301.774 0.266131 -3.44072 0
M  V30 3166 C 300.887 -0.713005 -4.26075 0
M  V30 3167 C 300.022 0.0329013 -5.3119 0
M  V30 3168 C 299.061 -0.93774 -6.04874 0
M  V30 3169 N 298.198 -0.223274 -7.01745 0
M  V30 3170 H 303.038 -1.3171 -2.67313 0
M  V30 3171 H 300.575 -0.66069 -1.31428 0
M  V30 3172 H 302.533 0.702514 -4.11243 0
M  V30 3173 H 301.163 1.08925 -3.03867 0
M  V30 3174 H 300.215 -1.26789 -3.58648 0
M  V30 3175 H 301.527 -1.45406 -4.77136 0
M  V30 3176 H 300.681 0.528335 -6.04395 0
M  V30 3177 H 299.42 0.806801 -4.8098 0
M  V30 3178 H 298.425 -1.44425 -5.30492 0
M  V30 3179 H 299.65 -1.71172 -6.57173 0
M  V30 3180 H 297.596 0.532046 -6.53839 0
M  V30 3181 H 297.513 -0.90357 -7.50581 0
M  V30 3182 H 298.781 0.250907 -7.79096 0
M  V30 3183 N 303.011 1.40521 -0.713556 0
M  V30 3184 C 304.259 2.00527 -0.251692 0
M  V30 3185 C 304.58 1.56857 1.15848 0
M  V30 3186 O 303.85 0.807127 1.785 0
M  V30 3187 H 302.43 0.741551 -0.0900646 0
M  V30 3188 H 305.092 1.71887 -0.918733 0
M  V30 3189 H 304.188 3.10813 -0.283192 0
M  V30 3190 N 304.489 0.459591 1.5075 0
M  V30 3191 C 305.738 -0.100971 2.01447 0
M  V30 3192 C 306.051 -1.41816 1.34713 0
M  V30 3193 O 307.257 -2.06299 1.76502 0
M  V30 3194 C 305.713 -0.23047 3.59161 0
M  V30 3195 C 305.321 1.0776 4.34847 0
M  V30 3196 C 307.065 -0.743608 4.17936 0
M  V30 3197 C 304.972 0.91253 5.84317 0
M  V30 3198 H 303.902 -0.0415102 0.752856 0
M  V30 3199 H 306.553 0.592742 1.73663 0
M  V30 3200 H 304.935 -0.987703 3.83485 0
M  V30 3201 H 306.109 1.8449 4.22256 0
M  V30 3202 H 304.424 1.52097 3.87628 0
M  V30 3203 H 307.021 -0.883959 5.27343 0
M  V30 3204 H 307.364 -1.73196 3.78562 0
M  V30 3205 H 307.897 -0.04408 3.97776 0
M  V30 3206 H 304.636 1.87391 6.28144 0
M  V30 3207 H 304.156 0.185422 5.99513 0
M  V30 3208 H 305.835 0.574547 6.44444 0
M  V30 3209 N 305.967 -1.56429 0.191757 0
M  V30 3210 C 307.192 -2.02309 -0.456706 0
M  V30 3211 C 307.617 -1.07103 -1.5463 0
M  V30 3212 O 306.975 -0.0539677 -1.8122 0
M  V30 3213 C 307.023 -3.46654 -0.993159 0
M  V30 3214 O 306.127 -3.54559 -2.10622 0
M  V30 3215 H 305.468 -0.655303 -0.107114 0
M  V30 3216 H 307.998 -2.02364 0.301653 0
M  V30 3217 H 308.008 -3.86377 -1.31061 0
M  V30 3218 H 306.683 -4.1544 -0.195504 0
M  V30 3219 H 305.26 -3.26708 -1.79767 0
M  V30 3220 N 307.445 0.0818655 -1.57387 0
M  V30 3221 C 308.355 1.11642 -2.06333 0
M  V30 3222 C 309.371 1.43033 -0.99083 0
M  V30 3223 O 310.547 1.53411 -1.30488 0
M  V30 3224 C 307.612 2.41342 -2.48907 0
M  V30 3225 C 306.673 2.17014 -3.7041 0
M  V30 3226 C 305.906 3.4053 -4.10944 0
M  V30 3227 O 306.129 4.4927 -3.51444 0
M  V30 3228 O 305.063 3.29336 -5.03807 0
M  V30 3229 H 308.889 0.730657 -2.9478 0
M  V30 3230 H 306.474 0.295301 -1.46452 0
M  V30 3231 H 308.356 3.17691 -2.76858 0
M  V30 3232 H 307.031 2.79319 -1.63593 0
M  V30 3233 H 305.938 1.38403 -3.47556 0
M  V30 3234 H 307.271 1.83923 -4.56545 0
M  V30 3235 N 308.923 1.53595 0.353017 0
M  V30 3236 C 309.853 1.83902 1.43883 0
M  V30 3237 C 310.834 0.693421 1.55324 0
M  V30 3238 O 312.019 0.944452 1.69687 0
M  V30 3239 C 309.149 2.04016 2.8106 0
M  V30 3240 C 308.103 3.19814 2.84434 0
M  V30 3241 C 307.429 3.25244 4.24406 0
M  V30 3242 C 308.729 4.58133 2.50822 0
M  V30 3243 H 310.423 2.74835 1.1877 0
M  V30 3244 H 307.969 1.32242 0.569917 0
M  V30 3245 H 309.922 2.238 3.57059 0
M  V30 3246 H 308.646 1.09804 3.07588 0
M  V30 3247 H 307.305 2.9987 2.10887 0
M  V30 3248 H 306.953 2.28646 4.48029 0
M  V30 3249 H 306.653 4.03054 4.27576 0
M  V30 3250 H 308.177 3.47228 5.0226 0
M  V30 3251 H 309.591 4.77995 3.16534 0
M  V30 3252 H 307.988 5.38276 2.6529 0
M  V30 3253 H 309.058 4.62387 1.46034 0
M  V30 3254 N 310.401 -0.613514 1.45168 0
M  V30 3255 C 311.65 -1.36874 1.4815 0
M  V30 3256 C 311.963 -1.952 0.124982 0
M  V30 3257 O 313.169 -2.71481 0.0324176 0
M  V30 3258 C 311.625 -2.47905 2.60904 0
M  V30 3259 C 311.233 -1.96016 4.02842 0
M  V30 3260 C 312.977 -3.24965 2.73126 0
M  V30 3261 C 310.884 -3.04494 5.06988 0
M  V30 3262 H 309.814 -0.514428 0.551253 0
M  V30 3263 H 312.465 -0.658182 1.7129 0
M  V30 3264 H 310.847 -3.21618 2.31037 0
M  V30 3265 H 312.021 -1.29051 4.4236 0
M  V30 3266 H 310.336 -1.31719 3.95018 0
M  V30 3267 H 312.933 -4.05865 3.48106 0
M  V30 3268 H 313.276 -3.75588 1.79553 0
M  V30 3269 H 313.809 -2.5835 3.0249 0
M  V30 3270 H 310.548 -2.58795 6.0225 0
M  V30 3271 H 310.068 -3.70044 4.72046 0
M  V30 3272 H 311.747 -3.68976 5.31475 0
M  V30 3273 N 311.879 -1.3236 -0.855495 0
M  V30 3274 C 313.107 -1.2587 -1.64208 0
M  V30 3275 C 313.522 0.173457 -1.88002 0
M  V30 3276 O 312.879 1.11027 -1.44842 0
M  V30 3277 C 312.93 -2.01424 -3.00184 0
M  V30 3278 O 312.651 -3.39051 -2.77445 0
M  V30 3279 C 314.152 -2.01948 -3.94629 0
M  V30 3280 H 311.372 -0.434318 -0.511477 0
M  V30 3281 H 313.916 -1.74469 -1.0668 0
M  V30 3282 H 312.071 -1.56549 -3.5436 0
M  V30 3283 H 312.485 -3.77711 -3.63916 0
M  V30 3284 H 313.959 -2.59297 -4.87308 0
M  V30 3285 H 314.436 -1.00554 -4.27534 0
M  V30 3286 H 315.042 -2.46767 -3.4639 0
M  V30 3287 N 313.357 1.07166 -1.15556 0
M  V30 3288 C 314.304 2.14417 -0.854055 0
M  V30 3289 C 315.274 1.64965 0.193806 0
M  V30 3290 O 316.459 1.90703 0.0609443 0
M  V30 3291 C 313.599 3.43304 -0.351574 0
M  V30 3292 C 312.712 4.06537 -1.46123 0
M  V30 3293 C 311.847 5.23266 -0.914677 0
M  V30 3294 C 310.886 5.78464 -2.00114 0
M  V30 3295 N 310.023 6.86521 -1.47083 0
M  V30 3296 H 314.863 2.39548 -1.77259 0
M  V30 3297 H 312.4 1.17543 -0.884425 0
M  V30 3298 H 314.358 4.17179 -0.0419409 0
M  V30 3299 H 312.988 3.18419 0.530037 0
M  V30 3300 H 312.04 3.30297 -1.88701 0
M  V30 3301 H 313.352 4.43567 -2.28144 0
M  V30 3302 H 312.506 6.04131 -0.557698 0
M  V30 3303 H 311.245 4.87658 -0.0636583 0
M  V30 3304 H 310.25 4.96243 -2.36692 0
M  V30 3305 H 311.475 6.16126 -2.85597 0
M  V30 3306 H 309.421 6.52849 -0.642198 0
M  V30 3307 H 309.338 7.22446 -2.22729 0
M  V30 3308 H 310.606 7.71087 -1.14215 0
M  V30 3309 N 314.835 0.952656 1.25548 0
M  V30 3310 C 316.251 0.656769 1.4546 0
M  V30 3311 C 316.451 -0.78633 1.85524 0
M  V30 3312 O 315.507 -1.56183 1.98402 0
M  V30 3313 C 316.82 1.62801 2.52817 0
M  V30 3314 C 318.368 1.63897 2.66659 0
M  V30 3315 C 318.843 2.5978 3.77198 0
M  V30 3316 N 320.334 2.58133 3.84606 0
M  V30 3317 C 321.069 3.29003 4.69621 0
M  V30 3318 N 320.565 4.09339 5.58939 0
M  V30 3319 N 322.358 3.179 4.63569 0
M  V30 3320 H 314.509 1.88526 0.978344 0
M  V30 3321 H 316.772 0.810815 0.491206 0
M  V30 3322 H 316.478 2.65869 2.30232 0
M  V30 3323 H 316.352 1.38898 3.50695 0
M  V30 3324 H 318.739 0.615481 2.8861 0
M  V30 3325 H 318.82 1.91858 1.69187 0
M  V30 3326 H 318.464 3.62254 3.55997 0
M  V30 3327 H 318.394 2.29105 4.7415 0
M  V30 3328 H 320.885 1.99809 3.20757 0
M  V30 3329 H 321.198 4.6034 6.20731 0
M  V30 3330 H 319.543 4.13438 5.58654 0
M  V30 3331 H 322.734 2.54612 3.92798 0
M  V30 3332 H 322.907 3.73398 5.29602 0
M  V30 3333 N 316.313 -1.40141 0.720998 0
M  V30 3334 C 317.561 -2.0039 0.262323 0
M  V30 3335 C 317.882 -1.57469 -1.15015 0
M  V30 3336 O 317.152 -0.816582 -1.78069 0
M  V30 3337 H 315.732 -0.741063 0.093996 0
M  V30 3338 H 318.394 -1.71398 0.927835 0
M  V30 3339 H 317.49 -3.10658 0.299671 0
M  V30 3340 N 317.792 -0.46758 -1.50504 0
M  V30 3341 C 319.022 0.086288 -2.0642 0
M  V30 3342 C 319.43 1.34369 -1.33197 0
M  V30 3343 O 318.773 1.79431 -0.393747 0
M  V30 3344 C 318.835 0.443846 -3.5675 0
M  V30 3345 C 318.499 -0.711035 -4.51435 0
M  V30 3346 C 319.496 -1.59205 -4.94924 0
M  V30 3347 C 317.181 -0.900363 -4.94165 0
M  V30 3348 C 319.175 -2.64683 -5.79846 0
M  V30 3349 C 316.862 -1.95837 -5.7887 0
M  V30 3350 C 317.86 -2.82997 -6.21612 0
M  V30 3351 O 317.548 -3.86977 -7.0463 0
M  V30 3352 H 317.28 -0.00217814 -0.675996 0
M  V30 3353 H 319.834 -0.654346 -1.94698 0
M  V30 3354 H 318.064 1.23762 -3.6636 0
M  V30 3355 H 319.753 0.932386 -3.95046 0
M  V30 3356 H 320.519 -1.45745 -4.62583 0
M  V30 3357 H 316.398 -0.231427 -4.60419 0
M  V30 3358 H 319.942 -3.32745 -6.13128 0
M  V30 3359 H 315.839 -2.09305 -6.10624 0
M  V30 3360 H 316.607 -3.83923 -7.22873 0
M  V30 3361 N 319.27 1.56325 -0.20005 0
M  V30 3362 C 320.519 1.96895 0.437652 0
M  V30 3363 C 320.832 1.08999 1.62415 0
M  V30 3364 O 322.038 1.39372 2.32997 0
M  V30 3365 C 320.494 3.50198 0.830025 0
M  V30 3366 C 320.102 4.46765 -0.332461 0
M  V30 3367 C 321.846 3.99526 1.43453 0
M  V30 3368 C 319.753 5.91344 0.0811468 0
M  V30 3369 H 318.683 0.735209 0.167282 0
M  V30 3370 H 321.334 1.81148 -0.292853 0
M  V30 3371 H 319.716 3.61467 1.61734 0
M  V30 3372 H 320.89 4.47231 -1.11 0
M  V30 3373 H 319.205 4.07657 -0.848789 0
M  V30 3374 H 321.802 5.05025 1.75652 0
M  V30 3375 H 322.145 3.44122 2.34277 0
M  V30 3376 H 322.678 3.91393 0.71109 0
M  V30 3377 H 319.417 6.50685 -0.793033 0
M  V30 3378 H 318.937 5.94121 0.823445 0
M  V30 3379 H 320.616 6.44945 0.515252 0
M  V30 3380 N 320.748 -0.0735177 1.57428 0
M  V30 3381 C 321.696 -1.10628 2.04607 0
M  V30 3382 C 322.69 -1.40181 0.951088 0
M  V30 3383 O 323.896 -1.39608 1.1362 0
M  V30 3384 H 320.271 -0.374088 0.652351 0
M  V30 3385 H 322.242 -0.682218 2.90497 0
M  V30 3386 C 320.991 -2.41212 2.50423 0
M  V30 3387 H 320.314 -2.19322 3.34272 0
M  V30 3388 H 321.754 -3.11927 2.87189 0
M  V30 3389 C 320.213 -3.0705 1.38644 0
M  V30 3390 O 320.743 -3.95056 0.727582 0
M  V30 3391 N 318.949 -2.67645 1.132 0
M  V30 3392 H 318.496 -1.96169 1.66959 0
M  V30 3393 H 318.454 -3.1202 0.386147 0
M  V30 3394 N 322.226 -1.5378 -0.344866 0
M  V30 3395 C 323.156 -1.84662 -1.42906 0
M  V30 3396 C 324.137 -0.701648 -1.54955 0
M  V30 3397 O 325.322 -0.953438 -1.69184 0
M  V30 3398 C 322.452 -2.05503 -2.79974 0
M  V30 3399 C 321.406 -3.21318 -2.82734 0
M  V30 3400 C 320.732 -3.2749 -4.22675 0
M  V30 3401 C 322.032 -4.59456 -2.48389 0
M  V30 3402 H 323.726 -2.75461 -1.17311 0
M  V30 3403 H 321.272 -1.32542 -0.562896 0
M  V30 3404 H 323.225 -2.25691 -3.55867 0
M  V30 3405 H 321.949 -1.11434 -3.07002 0
M  V30 3406 H 320.608 -3.00984 -2.09294 0
M  V30 3407 H 320.256 -2.31019 -4.4681 0
M  V30 3408 H 319.956 -4.05316 -4.25433 0
M  V30 3409 H 321.48 -3.49887 -5.00412 0
M  V30 3410 H 322.894 -4.79667 -3.13995 0
M  V30 3411 H 321.291 -5.39675 -2.62432 0
M  V30 3412 H 322.361 -4.63155 -1.4358 0
M  V30 3413 N 323.704 0.605807 -1.45491 0
M  V30 3414 C 324.981 1.36522 -1.40075 0
M  V30 3415 C 325.361 2.10976 -0.0722744 0
M  V30 3416 O 324.709 2.08007 0.945808 0
M  V30 3417 C 324.919 2.31056 -2.61561 0
M  V30 3418 C 326.267 2.93608 -3.06724 0
M  V30 3419 O 327.291 2.41376 -2.61946 0
M  V30 3420 O 326.15 3.88421 -3.84437 0
M  V30 3421 H 323.244 0.612248 -0.555951 0
M  V30 3422 H 325.79 0.628747 -1.57623 0
M  V30 3423 H 324.562 1.75311 -3.49831 0
M  V30 3424 H 324.185 3.12081 -2.46356 0
M  V30 3425 N 325.182 1.32811 0.848464 0
M  V30 3426 C 326.429 1.23724 1.60308 0
M  V30 3427 C 326.757 -0.1994 1.93475 0
M  V30 3428 O 326.012 -1.15406 1.5805 0
M  V30 3429 C 326.311 2.04831 2.92881 0
M  V30 3430 C 325.977 3.54125 2.79117 0
M  V30 3431 C 324.639 3.94829 2.7507 0
M  V30 3432 C 326.991 4.49036 2.64606 0
M  V30 3433 C 324.319 5.28675 2.544 0
M  V30 3434 C 326.671 5.83033 2.4547 0
M  V30 3435 C 325.335 6.22931 2.39819 0
M  V30 3436 H 324.605 0.452737 0.586609 0
M  V30 3437 H 327.252 1.64301 0.983743 0
M  V30 3438 H 325.557 1.57001 3.58968 0
M  V30 3439 H 327.254 1.95164 3.50303 0
M  V30 3440 H 323.844 3.21801 2.83094 0
M  V30 3441 H 328.028 4.18505 2.66772 0
M  V30 3442 H 323.284 5.58637 2.48465 0
M  V30 3443 H 327.458 6.56186 2.33222 0
M  V30 3444 H 325.085 7.26584 2.23562 0
M  V30 3445 N 326.66 -1.06551 1.16123 0
M  V30 3446 C 327.623 -2.12132 0.867906 0
M  V30 3447 C 328.623 -1.60224 -0.135944 0
M  V30 3448 O 329.813 -1.73943 0.0946422 0
M  V30 3449 C 326.945 -3.396 0.297419 0
M  V30 3450 H 328.138 -2.39586 1.80385 0
M  V30 3451 H 325.691 -1.22574 0.969812 0
M  V30 3452 H 326.426 -3.17794 -0.64633 0
M  V30 3453 H 326.211 -3.78581 1.02073 0
M  V30 3454 H 327.701 -4.17455 0.110052 0
M  V30 3455 N 328.138 -0.959301 -1.25041 0
M  V30 3456 C 329.415 -0.533805 -1.88175 0
M  V30 3457 C 329.795 0.988994 -1.865 0
M  V30 3458 O 329.143 1.85677 -1.33177 0
M  V30 3459 C 329.353 -1.11575 -3.30684 0
M  V30 3460 C 330.701 -1.19548 -4.07423 0
M  V30 3461 O 331.725 -1.06765 -3.39823 0
M  V30 3462 O 330.584 -1.39656 -5.28354 0
M  V30 3463 H 327.678 -0.176772 -0.807887 0
M  V30 3464 H 330.224 -1.05303 -1.33076 0
M  V30 3465 H 328.996 -2.15884 -3.26358 0
M  V30 3466 H 328.619 -0.580059 -3.93346 0
M  V30 3467 N 329.616 1.39756 -0.72842 0
M  V30 3468 C 330.865 1.99879 -0.270407 0
M  V30 3469 C 331.178 1.58449 1.14688 0
M  V30 3470 O 332.384 2.11362 1.70407 0
M  V30 3471 C 330.84 3.57292 -0.43252 0
M  V30 3472 C 330.448 4.07688 -1.85727 0
M  V30 3473 C 332.192 4.24485 -0.0359507 0
M  V30 3474 C 330.099 5.5765 -1.96928 0
M  V30 3475 H 329.029 0.747689 -0.0973472 0
M  V30 3476 H 331.68 1.59837 -0.901355 0
M  V30 3477 H 330.062 3.95097 0.267219 0
M  V30 3478 H 331.236 3.81231 -2.58843 0
M  V30 3479 H 329.551 3.53135 -2.20646 0
M  V30 3480 H 332.148 5.34609 -0.0987484 0
M  V30 3481 H 332.491 4.03915 1.00787 0
M  V30 3482 H 333.024 3.9183 -0.686604 0
M  V30 3483 H 329.763 5.8309 -2.99476 0
M  V30 3484 H 329.283 5.8593 -1.28241 0
M  V30 3485 H 330.962 6.22957 -1.74737 0
M  V30 3486 N 331.094 0.475555 1.50254 0
M  V30 3487 C 332.004 -0.321501 2.32387 0
M  V30 3488 C 333.02 -0.991755 1.42969 0
M  V30 3489 O 334.196 -0.978747 1.76018 0
M  V30 3490 C 331.261 -1.38667 3.17762 0
M  V30 3491 C 330.322 -0.732538 4.23004 0
M  V30 3492 C 329.555 -1.74695 5.04299 0
M  V30 3493 O 329.778 -2.97399 4.86734 0
M  V30 3494 O 328.712 -1.31631 5.8733 0
M  V30 3495 H 332.538 0.350071 3.01676 0
M  V30 3496 H 330.123 0.237321 1.47503 0
M  V30 3497 H 332.005 -2.00354 3.70724 0
M  V30 3498 H 330.68 -2.04163 2.51196 0
M  V30 3499 H 329.587 -0.0765902 3.74022 0
M  V30 3500 H 330.92 -0.120452 4.92053 0
M  V30 3501 N 332.573 -1.56217 0.208337 0
M  V30 3502 C 333.798 -2.02782 -0.435222 0
M  V30 3503 C 334.223 -1.08738 -1.53485 0
M  V30 3504 O 333.581 -0.0731855 -1.81152 0
M  V30 3505 C 333.629 -3.47687 -0.956335 0
M  V30 3506 O 332.733 -3.56773 -2.06849 0
M  V30 3507 H 332.074 -0.656403 -0.100158 0
M  V30 3508 H 334.604 -2.02033 0.3231 0
M  V30 3509 H 334.614 -3.87745 -1.26955 0
M  V30 3510 H 333.289 -4.15624 -0.15143 0
M  V30 3511 H 331.866 -3.28597 -1.76292 0
M  V30 3512 N 334.051 0.0651679 -1.57465 0
M  V30 3513 C 335.297 0.764193 -1.87851 0
M  V30 3514 C 335.63 1.76889 -0.801495 0
M  V30 3515 O 334.905 1.93594 0.187528 0
M  V30 3516 C 335.188 1.46625 -3.28897 0
M  V30 3517 C 335.041 0.477515 -4.47258 0
M  V30 3518 C 336.36 2.4095 -3.68281 0
M  V30 3519 H 333.479 0.276351 -0.683227 0
M  V30 3520 H 336.121 0.0272868 -1.8998 0
M  V30 3521 H 334.271 2.09438 -3.27212 0
M  V30 3522 H 335.943 -0.145922 -4.61069 0
M  V30 3523 H 334.186 -0.206576 -4.33308 0
M  V30 3524 H 334.857 1.0065 -5.42746 0
M  V30 3525 H 337.333 1.88209 -3.71102 0
M  V30 3526 H 336.209 2.87072 -4.67847 0
M  V30 3527 H 336.47 3.26049 -2.98571 0
M  V30 3528 N 335.529 1.53961 0.336706 0
M  V30 3529 C 336.462 1.77255 1.43722 0
M  V30 3530 C 337.44 0.62193 1.50236 0
M  V30 3531 O 338.624 0.857874 1.67847 0
M  V30 3532 C 335.751 1.87733 2.81912 0
M  V30 3533 C 334.797 3.09933 2.92991 0
M  V30 3534 S 335.63 4.68836 2.58753 0
M  V30 3535 C 336.786 4.82202 3.99039 0
M  V30 3536 H 337.019 2.70322 1.23748 0
M  V30 3537 H 334.552 1.44917 0.532777 0
M  V30 3538 H 336.51 1.94455 3.61521 0
M  V30 3539 H 335.171 0.956666 2.99177 0
M  V30 3540 H 334.364 3.1396 3.94265 0
M  V30 3541 H 333.966 3.01472 2.21338 0
M  V30 3542 H 336.258 4.64032 4.9364 0
M  V30 3543 H 337.201 5.84298 4.00002 0
M  V30 3544 H 337.609 4.10604 3.87382 0
M  V30 3545 N 337.007 -0.598083 1.45811 0
M  V30 3546 C 337.954 -1.7082 1.55207 0
M  V30 3547 C 338.924 -1.61278 0.39732 0
M  V30 3548 O 340.109 -1.80717 0.612038 0
M  V30 3549 C 337.249 -3.09144 1.53376 0
M  V30 3550 C 336.362 -3.29423 2.79472 0
M  V30 3551 C 335.497 -4.57907 2.69248 0
M  V30 3552 C 334.536 -4.71476 3.90354 0
M  V30 3553 N 333.673 -5.9127 3.78608 0
M  V30 3554 H 338.513 -1.62125 2.50039 0
M  V30 3555 H 336.05 -0.790389 1.24062 0
M  V30 3556 H 338.008 -3.89186 1.50301 0
M  V30 3557 H 336.638 -3.16773 0.620876 0
M  V30 3558 H 335.69 -2.43091 2.92594 0
M  V30 3559 H 337.002 -3.3532 3.69272 0
M  V30 3560 H 336.156 -5.46157 2.64192 0
M  V30 3561 H 334.895 -4.54423 1.77063 0
M  V30 3562 H 333.9 -3.81648 3.95759 0
M  V30 3563 H 335.125 -4.76751 4.83617 0
M  V30 3564 H 333.071 -5.88813 2.89199 0
M  V30 3565 H 332.988 -5.98369 4.6205 0
M  V30 3566 H 334.256 -6.81992 3.77501 0
M  V30 3567 N 338.485 -1.33259 -0.841409 0
M  V30 3568 C 339.762 -1.15174 -1.58096 0
M  V30 3569 C 340.142 0.282858 -2.09196 0
M  V30 3570 O 339.49 1.28151 -1.89181 0
M  V30 3571 C 339.7 -2.1907 -2.71679 0
M  V30 3572 C 341.048 -2.53093 -3.40924 0
M  V30 3573 O 342.072 -2.17717 -2.81918 0
M  V30 3574 O 340.931 -3.1379 -4.47435 0
M  V30 3575 H 338.025 -0.445303 -0.696875 0
M  V30 3576 H 340.571 -1.44833 -0.884385 0
M  V30 3577 H 339.343 -3.15443 -2.31541 0
M  V30 3578 H 338.966 -1.90481 -3.49002 0
M  V30 3579 N 339.963 1.05934 -1.16686 0
M  V30 3580 C 340.926 2.11669 -0.879144 0
M  V30 3581 C 341.926 1.60294 0.127445 0
M  V30 3582 O 343.116 1.7389 -0.103865 0
M  V30 3583 C 340.248 3.39438 -0.315425 0
M  V30 3584 H 341.441 2.38626 -1.81653 0
M  V30 3585 H 338.994 1.22058 -0.976299 0
M  V30 3586 H 339.729 3.18132 0.629468 0
M  V30 3587 H 339.514 3.78034 -1.04079 0
M  V30 3588 H 341.004 4.17391 -0.132189 0
M  V30 3589 N 341.441 0.965919 1.2453 0
M  V30 3590 C 342.689 0.625593 1.92174 0
M  V30 3591 C 343.01 -0.841652 1.75901 0
M  V30 3592 O 342.28 -1.60061 1.12948 0
M  V30 3593 H 340.86 0.228388 0.71123 0
M  V30 3594 H 343.522 1.2266 1.51461 0
M  V30 3595 H 342.618 0.864653 2.99884 0
M  V30 3596 N 342.919 -1.39368 0.735821 0
M  V30 3597 C 343.882 -2.2896 0.104874 0
M  V30 3598 C 344.882 -1.46347 -0.666274 0
M  V30 3599 O 346.072 -1.67014 -0.49517 0
M  V30 3600 C 343.204 -3.29857 -0.860656 0
M  V30 3601 H 344.397 -2.86259 0.894205 0
M  V30 3602 H 341.95 -1.48029 0.501704 0
M  V30 3603 H 342.685 -2.77615 -1.67631 0
M  V30 3604 H 342.47 -3.9087 -0.310327 0
M  V30 3605 H 343.96 -3.96893 -1.29867 0
M  V30 3606 N 344.397 -0.483516 -1.5 0
M  V30 3607 C 345.36 0.292965 -2.2732 0
M  V30 3608 C 346.36 0.909499 -1.32608 0
M  V30 3609 O 347.55 0.776745 -1.55924 0
M  V30 3610 C 344.682 1.41854 -3.09984 0
M  V30 3611 H 345.875 -0.385289 -2.97415 0
M  V30 3612 H 343.428 -0.237942 -1.54478 0
M  V30 3613 H 344.163 2.13148 -2.44414 0
M  V30 3614 H 343.948 0.982114 -3.79601 0
M  V30 3615 H 345.438 1.96597 -3.68429 0
M  V30 3616 N 345.875 1.56104 -0.216619 0
M  V30 3617 C 347.124 1.97348 0.416744 0
M  V30 3618 C 347.437 1.10715 1.6125 0
M  V30 3619 O 348.643 1.41836 2.31506 0
M  V30 3620 C 347.099 3.51059 0.792835 0
M  V30 3621 C 346.707 4.46387 -0.379828 0
M  V30 3622 C 348.451 4.01026 1.39208 0
M  V30 3623 C 346.358 5.91397 0.0184223 0
M  V30 3624 H 345.288 0.736942 0.159475 0
M  V30 3625 H 347.939 1.80827 -0.31205 0
M  V30 3626 H 346.321 3.63162 1.57891 0
M  V30 3627 H 347.495 4.46029 -1.15737 0
M  V30 3628 H 345.81 4.06734 -0.891979 0
M  V30 3629 H 348.407 5.0686 1.70286 0
M  V30 3630 H 348.75 3.46587 2.30614 0
M  V30 3631 H 349.283 3.92125 0.669537 0
M  V30 3632 H 346.022 6.49807 -0.862002 0
M  V30 3633 H 345.542 5.94961 0.760384 0
M  V30 3634 H 347.221 6.45455 0.446818 0
M  V30 3635 N 347.353 -0.0568162 1.57498 0
M  V30 3636 C 348.283 -1.06593 2.0775 0
M  V30 3637 C 349.264 -1.39448 0.974082 0
M  V30 3638 O 350.449 -1.48815 1.24771 0
M  V30 3639 C 347.579 -2.37509 2.5339 0
M  V30 3640 C 346.533 -2.1897 3.67745 0
M  V30 3641 C 345.859 -3.55402 3.99492 0
M  V30 3642 C 347.159 -1.59859 4.97235 0
M  V30 3643 H 348.853 -0.647706 2.9231 0
M  V30 3644 H 346.399 -0.310116 1.40621 0
M  V30 3645 H 348.352 -3.08409 2.87162 0
M  V30 3646 H 347.076 -2.8134 1.65878 0
M  V30 3647 H 345.735 -1.50508 3.3428 0
M  V30 3648 H 345.383 -3.9683 3.09088 0
M  V30 3649 H 345.083 -3.43831 4.76502 0
M  V30 3650 H 346.607 -4.27708 4.35773 0
M  V30 3651 H 348.021 -2.20642 5.29141 0
M  V30 3652 H 346.418 -1.58942 5.78669 0
M  V30 3653 H 347.488 -0.561506 4.81638 0
M  V30 3654 N 348.832 -1.54138 -0.328536 0
M  V30 3655 C 350.08 -1.71765 -1.06496 0
M  V30 3656 C 350.401 -0.49149 -1.88704 0
M  V30 3657 O 349.671 0.494539 -1.89555 0
M  V30 3658 H 348.251 -0.633295 -0.396164 0
M  V30 3659 H 350.913 -1.91429 -0.366176 0
M  V30 3660 H 350.009 -2.5951 -1.73381 0
M  V30 3661 N 350.31 0.590341 -1.46126 0
M  V30 3662 C 351.559 1.34499 -1.50309 0
M  V30 3663 C 351.872 1.94977 -0.156021 0
M  V30 3664 O 353.078 2.71395 -0.0756037 0
M  V30 3665 C 351.534 2.43723 -2.64815 0
M  V30 3666 C 351.142 1.89582 -4.0591 0
M  V30 3667 C 352.886 3.20579 -2.78262 0
M  V30 3668 C 350.793 2.9639 -5.11769 0
M  V30 3669 H 349.723 0.505593 -0.559368 0
M  V30 3670 H 352.374 0.630848 -1.72315 0
M  V30 3671 H 350.756 3.17902 -2.36124 0
M  V30 3672 H 351.93 1.21997 -4.44357 0
M  V30 3673 H 350.245 1.25418 -3.97063 0
M  V30 3674 H 352.842 4.00276 -3.54519 0
M  V30 3675 H 353.185 3.72684 -1.85505 0
M  V30 3676 H 353.718 2.53505 -3.06562 0
M  V30 3677 H 350.457 2.49181 -6.06291 0
M  V30 3678 H 349.977 3.62487 -4.77873 0
M  V30 3679 H 351.656 3.60474 -5.37278 0
M  V30 3680 N 351.788 1.33704 0.83433 0
M  V30 3681 C 353.036 1.25169 1.58673 0
M  V30 3682 C 353.357 -0.18127 1.94156 0
M  V30 3683 O 352.627 -1.11113 1.6134 0
M  V30 3684 H 351.207 0.4603 0.58833 0
M  V30 3685 H 353.869 1.67478 0.996847 0
M  V30 3686 H 352.965 1.84856 2.51465 0
M  V30 3687 N 353.266 -1.05314 1.17247 0
M  V30 3688 C 354.512 -1.78557 0.961513 0
M  V30 3689 C 354.845 -1.87419 -0.508697 0
M  V30 3690 O 354.12 -1.37307 -1.37757 0
M  V30 3691 C 354.403 -3.22514 1.60176 0
M  V30 3692 C 354.256 -3.21673 3.14399 0
M  V30 3693 C 355.575 -4.20318 1.30463 0
M  V30 3694 H 352.694 -0.6482 0.350723 0
M  V30 3695 H 355.336 -1.23102 1.44727 0
M  V30 3696 H 353.486 -3.69867 1.18871 0
M  V30 3697 H 355.158 -2.82405 3.64753 0
M  V30 3698 H 353.401 -2.60048 3.47214 0
M  V30 3699 H 354.072 -4.23271 3.54324 0
M  V30 3700 H 356.548 -3.81454 1.66229 0
M  V30 3701 H 355.424 -5.19289 1.77848 0
M  V30 3702 H 355.685 -4.41526 0.22521 0
M  V30 3703 N 354.744 -0.972509 -1.24016 0
M  V30 3704 C 355.992 -0.635776 -1.91839 0
M  V30 3705 C 356.313 0.832312 -1.76345 0
M  V30 3706 O 355.583 1.5946 -1.13795 0
M  V30 3707 H 354.163 -0.232157 -0.710009 0
M  V30 3708 H 356.825 -1.23462 -1.50809 0
M  V30 3709 H 355.921 -0.880545 -2.99421 0
M  V30 3710 N 356.222 1.38976 -0.743202 0
M  V30 3711 C 357.169 2.30544 -0.10861 0
M  V30 3712 C 358.139 1.49642 0.720869 0
M  V30 3713 O 359.324 1.78304 0.679142 0
M  V30 3714 C 356.464 3.36018 0.786496 0
M  V30 3715 C 355.577 4.31963 -0.0564849 0
M  V30 3716 C 354.712 5.24506 0.840657 0
M  V30 3717 C 353.751 6.121 -0.00658363 0
M  V30 3718 N 352.888 6.96973 0.846943 0
M  V30 3719 H 357.728 2.8424 -0.895088 0
M  V30 3720 H 355.265 1.3995 -0.453048 0
M  V30 3721 H 357.223 3.95768 1.31999 0
M  V30 3722 H 355.853 2.83758 1.53887 0
M  V30 3723 H 354.905 3.73763 -0.707492 0
M  V30 3724 H 356.217 4.93703 -0.711229 0
M  V30 3725 H 355.371 5.89322 1.4417 0
M  V30 3726 H 354.11 4.63107 1.52916 0
M  V30 3727 H 353.115 5.46289 -0.620366 0
M  V30 3728 H 354.34 6.75565 -0.691992 0
M  V30 3729 H 352.286 6.38133 1.52059 0
M  V30 3730 H 352.203 7.5559 0.248864 0
M  V30 3731 H 353.471 7.6621 1.43328 0
M  V30 3732 N 357.7 0.491464 1.49741 0
M  V30 3733 C 358.948 -0.0563141 2.02022 0
M  V30 3734 C 359.269 -1.38363 1.37407 0
M  V30 3735 O 358.539 -1.88702 0.526166 0
M  V30 3736 H 357.119 -0.0238014 0.746621 0
M  V30 3737 H 359.781 0.646533 1.83864 0
M  V30 3738 H 358.877 -0.192967 3.11503 0
M  V30 3739 N 359.178 -1.55987 0.224894 0
M  V30 3740 C 360.088 -2.24066 -0.69511 0
M  V30 3741 C 361.104 -1.24939 -1.21104 0
M  V30 3742 O 362.28 -1.5776 -1.25195 0
M  V30 3743 C 359.345 -2.90983 -1.88493 0
M  V30 3744 C 358.406 -4.05462 -1.41064 0
M  V30 3745 C 357.639 -4.69179 -2.54375 0
M  V30 3746 O 357.862 -4.31895 -3.72589 0
M  V30 3747 O 356.796 -5.58108 -2.25386 0
M  V30 3748 H 360.622 -3.03353 -0.145149 0
M  V30 3749 H 358.207 -1.49399 -0.00569476 0
M  V30 3750 H 360.089 -3.33209 -2.57972 0
M  V30 3751 H 358.764 -2.14653 -2.42293 0
M  V30 3752 H 357.671 -3.67798 -0.683774 0
M  V30 3753 H 359.004 -4.83545 -0.918985 0
M  V30 3754 N 360.656 0.0484629 -1.57525 0
M  V30 3755 C 361.606 1.06246 -2.01732 0
M  V30 3756 C 362.59 1.33155 -0.903245 0
M  V30 3757 O 363.782 1.33065 -1.16717 0
M  V30 3758 C 360.911 2.36943 -2.48421 0
M  V30 3759 C 359.997 2.13208 -3.6661 0
M  V30 3760 N 360.388 1.5947 -4.80003 0
M  V30 3761 C 358.686 2.43581 -3.7361 0
M  V30 3762 C 359.387 1.51092 -5.61735 0
M  V30 3763 N 358.363 1.9797 -5.0627 0
M  V30 3764 H 362.165 0.640675 -2.86832 0
M  V30 3765 H 359.679 0.255134 -1.60383 0
M  V30 3766 H 361.676 3.10374 -2.78341 0
M  V30 3767 H 360.336 2.79818 -1.64718 0
M  V30 3768 H 361.347 1.28008 -5.01831 0
M  V30 3769 H 358.024 2.89662 -3.00669 0
M  V30 3770 H 359.414 1.10199 -6.62801 0
M  V30 3771 N 362.134 1.5431 0.320358 0
M  V30 3772 C 363.55 1.45091 0.664889 0
M  V30 3773 C 363.75 0.626382 1.91517 0
M  V30 3774 O 362.806 0.126443 2.52183 0
M  V30 3775 C 364.119 2.88848 0.83591 0
M  V30 3776 C 365.667 2.9877 0.933046 0
M  V30 3777 C 366.142 4.43683 1.13621 0
M  V30 3778 N 367.633 4.47309 1.20287 0
M  V30 3779 C 368.368 5.56595 1.37801 0
M  V30 3780 N 367.864 6.75844 1.52338 0
M  V30 3781 N 369.657 5.44248 1.40535 0
M  V30 3782 H 361.808 2.06398 -0.501374 0
M  V30 3783 H 364.071 0.933963 -0.162534 0
M  V30 3784 H 363.777 3.51698 -0.0116092 0
M  V30 3785 H 363.651 3.35148 1.73078 0
M  V30 3786 H 366.038 2.36045 1.77107 0
M  V30 3787 H 366.119 2.55796 0.0145782 0
M  V30 3788 H 365.763 5.06995 0.303032 0
M  V30 3789 H 365.693 4.84269 2.0686 0
M  V30 3790 H 368.184 3.61388 1.10485 0
M  V30 3791 H 368.497 7.54892 1.65403 0
M  V30 3792 H 366.842 6.78746 1.4943 0
M  V30 3793 H 370.033 4.50038 1.28777 0
M  V30 3794 H 370.206 6.29473 1.53842 0
M  V30 3795 N 363.613 -0.582584 1.46437 0
M  V30 3796 C 364.576 -1.67366 1.56592 0
M  V30 3797 C 365.576 -1.54575 0.443072 0
M  V30 3798 O 366.766 -1.59191 0.707381 0
M  V30 3799 C 363.898 -3.06791 1.48634 0
M  V30 3800 H 365.091 -1.5972 2.5383 0
M  V30 3801 H 362.644 -0.800432 1.34249 0
M  V30 3802 H 363.379 -3.19993 0.526763 0
M  V30 3803 H 363.164 -3.17484 2.30101 0
M  V30 3804 H 364.654 -3.86218 1.58826 0
M  V30 3805 N 365.091 -1.34144 -0.827227 0
M  V30 3806 C 366.507 -1.13732 -1.11969 0
M  V30 3807 C 366.707 0.0640463 -2.01398 0
M  V30 3808 O 365.763 0.740856 -2.41387 0
M  V30 3809 C 367.076 -2.43047 -1.77055 0
M  V30 3810 C 368.624 -2.49063 -1.89569 0
M  V30 3811 C 369.099 -3.78369 -2.58072 0
M  V30 3812 N 370.59 -3.79505 -2.65575 0
M  V30 3813 C 371.325 -4.76274 -3.19297 0
M  V30 3814 N 370.821 -5.83424 -3.73616 0
M  V30 3815 N 372.614 -4.63735 -3.17658 0
M  V30 3816 H 364.765 -2.11126 -0.232296 0
M  V30 3817 H 367.028 -0.933424 -0.165602 0
M  V30 3818 H 366.734 -3.31025 -1.18807 0
M  V30 3819 H 366.608 -2.56066 -2.76966 0
M  V30 3820 H 368.995 -1.61527 -2.46968 0
M  V30 3821 H 369.076 -2.39975 -0.885745 0
M  V30 3822 H 368.72 -4.66293 -2.01329 0
M  V30 3823 H 368.65 -3.84737 -3.59562 0
M  V30 3824 H 371.141 -3.02074 -2.27068 0
M  V30 3825 H 371.454 -6.53282 -4.12846 0
M  V30 3826 H 369.799 -5.87143 -3.71871 0
M  V30 3827 H 372.99 -3.79177 -2.74486 0
M  V30 3828 H 373.163 -5.39318 -3.59221 0
M  V30 3829 N 366.569 1.04691 -1.17803 0
M  V30 3830 C 367.479 2.16057 -0.914151 0
M  V30 3831 C 368.495 1.73589 0.119503 0
M  V30 3832 O 369.671 2.01308 -0.0609468 0
M  V30 3833 C 366.736 3.4394 -0.436603 0
M  V30 3834 C 365.797 4.00825 -1.53746 0
M  V30 3835 C 365.03 5.22604 -1.0826 0
M  V30 3836 O 365.253 5.70367 0.0612244 0
M  V30 3837 O 364.187 5.7186 -1.87775 0
M  V30 3838 H 368.013 2.41169 -1.84584 0
M  V30 3839 H 365.598 1.1453 -0.959334 0
M  V30 3840 H 367.48 4.21024 -0.178057 0
M  V30 3841 H 366.155 3.20316 0.466869 0
M  V30 3842 H 365.062 3.25158 -1.84995 0
M  V30 3843 H 366.395 4.28778 -2.41683 0
M  V30 3844 N 368.047 0.979072 1.23499 0
M  V30 3845 C 369.01 0.523244 2.23147 0
M  V30 3846 C 370.01 -0.386406 1.56088 0
M  V30 3847 O 371.2 -0.180283 1.73265 0
M  V30 3848 C 368.332 -0.240739 3.40049 0
M  V30 3849 H 369.525 1.40432 2.64989 0
M  V30 3850 H 367.078 0.764824 1.36309 0
M  V30 3851 H 367.813 -1.13841 3.03662 0
M  V30 3852 H 367.598 0.412207 3.89927 0
M  V30 3853 H 369.088 -0.548297 4.13985 0
M  V30 3854 N 369.525 -1.3858 0.750561 0
M  V30 3855 C 370.488 -2.28836 0.129152 0
M  V30 3856 C 371.488 -1.47045 -0.650714 0
M  V30 3857 O 372.678 -1.6753 -0.477428 0
M  V30 3858 C 369.81 -3.30751 -0.825622 0
M  V30 3859 H 371.003 -2.85294 0.924516 0
M  V30 3860 H 368.556 -1.47489 0.517376 0
M  V30 3861 H 369.291 -2.79378 -1.64677 0
M  V30 3862 H 369.076 -3.91177 -0.268852 0
M  V30 3863 H 370.566 -3.98249 -1.2565 0
M  V30 3864 N 371.003 -0.499398 -1.49478 0
M  V30 3865 C 371.95 0.279881 -2.29097 0
M  V30 3866 C 372.92 0.961805 -1.3542 0
M  V30 3867 O 374.105 0.968777 -1.64376 0
M  V30 3868 C 371.245 1.33932 -3.18051 0
M  V30 3869 C 370.358 0.669333 -4.26783 0
M  V30 3870 C 369.493 1.70907 -5.02955 0
M  V30 3871 C 368.532 1.02087 -6.03527 0
M  V30 3872 N 367.669 2.00474 -6.7287 0
M  V30 3873 H 372.509 -0.405317 -2.95231 0
M  V30 3874 H 370.046 -0.211726 -1.45568 0
M  V30 3875 H 372.004 1.96553 -3.67998 0
M  V30 3876 H 370.634 1.9933 -2.53904 0
M  V30 3877 H 369.686 -0.0701234 -3.80335 0
M  V30 3878 H 370.998 0.127503 -4.98637 0
M  V30 3879 H 370.152 2.41037 -5.56764 0
M  V30 3880 H 368.891 2.28476 -4.30871 0
M  V30 3881 H 367.896 0.305338 -5.48951 0
M  V30 3882 H 369.121 0.451708 -6.77596 0
M  V30 3883 H 367.067 2.57007 -6.03559 0
M  V30 3884 H 366.984 1.51353 -7.40694 0
M  V30 3885 H 368.252 2.69897 -7.31284 0
M  V30 3886 N 372.481 1.55866 -0.233164 0
M  V30 3887 C 373.428 2.20796 0.67215 0
M  V30 3888 C 374.398 1.16731 1.18166 0
M  V30 3889 O 375.583 1.45129 1.23864 0
M  V30 3890 C 372.723 2.90072 1.86955 0
M  V30 3891 C 371.836 4.08759 1.39786 0
M  V30 3892 C 370.971 4.65787 2.55374 0
M  V30 3893 C 370.01 5.76752 2.04998 0
M  V30 3894 N 369.147 6.28021 3.13901 0
M  V30 3895 H 373.987 2.9779 0.111749 0
M  V30 3896 H 371.524 1.47036 0.0434007 0
M  V30 3897 H 373.482 3.28428 2.57276 0
M  V30 3898 H 372.112 2.15575 2.40265 0
M  V30 3899 H 371.164 3.7581 0.589173 0
M  V30 3900 H 372.476 4.88906 0.98856 0
M  V30 3901 H 371.63 5.06646 3.33758 0
M  V30 3902 H 370.369 3.84828 2.99598 0
M  V30 3903 H 369.374 5.35383 1.25079 0
M  V30 3904 H 370.599 6.59553 1.61759 0
M  V30 3905 H 368.545 5.49971 3.57586 0
M  V30 3906 H 368.462 7.03323 2.7726 0
M  V30 3907 H 369.73 6.73538 3.92386 0
M  V30 3908 N 373.959 -0.0401083 1.57549 0
M  V30 3909 C 374.922 -1.02871 2.04817 0
M  V30 3910 C 375.922 -1.29708 0.950388 0
M  V30 3911 O 377.112 -1.24897 1.21435 0
M  V30 3912 C 374.244 -2.36443 2.45576 0
M  V30 3913 H 375.437 -0.620631 2.93408 0
M  V30 3914 H 372.99 -0.286667 1.53649 0
M  V30 3915 H 373.725 -2.82021 1.60108 0
M  V30 3916 H 373.51 -2.18296 3.25713 0
M  V30 3917 H 375 -3.07441 2.82612 0
M  V30 3918 N 375.437 -1.54477 -0.31217 0
M  V30 3919 C 376.37 -1.79519 -1.40884 0
M  V30 3920 C 377.348 -0.645753 -1.49227 0
M  V30 3921 O 378.532 -0.884468 -1.66461 0
M  V30 3922 C 375.659 -1.92194 -2.78889 0
M  V30 3923 C 374.705 -3.14555 -2.88023 0
M  V30 3924 S 375.538 -4.72893 -2.51262 0
M  V30 3925 C 376.694 -4.8849 -3.91317 0
M  V30 3926 H 376.927 -2.72256 -1.19432 0
M  V30 3927 H 374.46 -1.45746 -0.509654 0
M  V30 3928 H 376.418 -2.00182 -3.58382 0
M  V30 3929 H 375.079 -1.00414 -2.97617 0
M  V30 3930 H 374.272 -3.20193 -3.89221 0
M  V30 3931 H 373.874 -3.04955 -2.16514 0
M  V30 3932 H 376.166 -4.71826 -4.86196 0
M  V30 3933 H 377.109 -5.90588 -3.90656 0
M  V30 3934 H 377.517 -4.16715 -3.80801 0
M  V30 3935 N 376.915 0.57481 -1.46744 0
M  V30 3936 C 377.825 1.711 -1.60505 0
M  V30 3937 C 378.841 1.67008 -0.488307 0
M  V30 3938 O 380.017 1.86774 -0.753495 0
M  V30 3939 C 377.082 3.07608 -1.59932 0
M  V30 3940 C 376.143 3.22904 -2.82898 0
M  V30 3941 C 375.376 4.529 -2.82343 0
M  V30 3942 O 375.599 5.37278 -1.91542 0
M  V30 3943 O 374.533 4.71611 -3.73987 0
M  V30 3944 H 378.359 1.62436 -2.56609 0
M  V30 3945 H 375.944 0.742779 -1.29627 0
M  V30 3946 H 377.826 3.88877 -1.62336 0
M  V30 3947 H 376.501 3.16692 -0.669898 0
M  V30 3948 H 375.408 2.41099 -2.86046 0
M  V30 3949 H 376.741 3.18715 -3.75076 0
M  V30 3950 N 378.394 1.34581 0.820102 0
M  V30 3951 C 379.619 1.30333 1.61332 0
M  V30 3952 C 380.044 -0.119339 1.87721 0
M  V30 3953 O 379.402 -1.08197 1.45475 0
M  V30 3954 C 379.45 2.10258 2.92957 0
M  V30 3955 O 378.554 1.47404 3.85157 0
M  V30 3956 H 377.895 0.447488 0.490561 0
M  V30 3957 H 380.425 1.77425 1.01889 0
M  V30 3958 H 380.435 2.21718 3.42498 0
M  V30 3959 H 379.11 3.13693 2.73074 0
M  V30 3960 H 377.687 1.44703 3.43679 0
M  V30 3961 N 379.872 -1.04064 1.18357 0
M  V30 3962 C 380.819 -2.12077 0.910603 0
M  V30 3963 C 381.789 -1.65421 -0.15 0
M  V30 3964 O 382.974 -1.90797 -0.0103614 0
M  V30 3965 C 380.114 -3.42252 0.442472 0
M  V30 3966 C 379.227 -4.0252 1.5685 0
M  V30 3967 C 378.362 -5.20657 1.05309 0
M  V30 3968 C 377.401 -5.72955 2.1538 0
M  V30 3969 N 376.538 -6.8238 1.65233 0
M  V30 3970 H 381.378 -2.34764 1.83548 0
M  V30 3971 H 378.915 -1.15157 0.915279 0
M  V30 3972 H 380.873 -4.16921 0.152534 0
M  V30 3973 H 379.503 -3.19712 -0.445428 0
M  V30 3974 H 378.555 -3.25178 1.97391 0
M  V30 3975 H 379.867 -4.37362 2.39824 0
M  V30 3976 H 379.021 -6.0244 0.717677 0
M  V30 3977 H 377.76 -4.87318 0.19293 0
M  V30 3978 H 376.765 -4.89793 2.49766 0
M  V30 3979 H 377.99 -6.08337 3.01832 0
M  V30 3980 H 375.936 -6.50917 0.815064 0
M  V30 3981 H 375.853 -7.16286 2.41805 0
M  V30 3982 H 377.121 -7.67788 1.34619 0
M  V30 3983 N 381.35 -0.985608 -1.22978 0
M  V30 3984 C 382.28 -0.549649 -2.26939 0
M  V30 3985 C 383.261 0.419803 -1.64838 0
M  V30 3986 O 384.446 0.31203 -1.91677 0
M  V30 3987 C 381.576 0.143652 -3.47003 0
M  V30 3988 C 380.53 -0.743606 -4.21491 0
M  V30 3989 C 379.856 0.0822027 -5.34637 0
M  V30 3990 C 381.156 -2.03694 -4.80943 0
M  V30 3991 H 382.85 -1.41862 -2.63658 0
M  V30 3992 H 380.396 -0.683571 -1.26741 0
M  V30 3993 H 382.349 0.459985 -4.18882 0
M  V30 3994 H 381.073 1.04711 -3.09359 0
M  V30 3995 H 379.732 -1.04347 -3.51436 0
M  V30 3996 H 379.38 0.986359 -4.93234 0
M  V30 3997 H 379.08 -0.508377 -5.85397 0
M  V30 3998 H 380.604 0.392797 -6.09335 0
M  V30 3999 H 382.018 -1.78504 -5.44802 0
M  V30 4000 H 380.415 -2.57573 -5.42011 0
M  V30 4001 H 381.485 -2.72042 -4.01399 0
M  V30 4002 N 382.828 1.3818 -0.7579 0
M  V30 4003 C 384.077 1.99261 -0.312744 0
M  V30 4004 C 384.39 1.60846 1.11301 0
M  V30 4005 O 385.596 2.14929 1.65885 0
M  V30 4006 C 384.052 3.56294 -0.50821 0
M  V30 4007 C 383.66 4.03657 -1.94333 0
M  V30 4008 C 385.404 4.24313 -0.125982 0
M  V30 4009 C 383.311 5.53347 -2.08712 0
M  V30 4010 H 382.241 0.745456 -0.113185 0
M  V30 4011 H 384.892 1.57889 -0.935056 0
M  V30 4012 H 383.274 3.95575 0.183353 0
M  V30 4013 H 384.448 3.75655 -2.66871 0
M  V30 4014 H 382.763 3.48376 -2.28086 0
M  V30 4015 H 385.36 5.34279 -0.212125 0
M  V30 4016 H 385.703 4.05962 0.921964 0
M  V30 4017 H 386.236 3.90285 -0.769563 0
M  V30 4018 H 382.975 5.76607 -3.11777 0
M  V30 4019 H 382.495 5.83078 -1.4064 0
M  V30 4020 H 384.174 6.19111 -1.87912 0
M  V30 4021 N 384.306 0.507319 1.49211 0
M  V30 4022 C 385.216 -0.272136 2.33016 0
M  V30 4023 C 386.232 -0.961206 1.45041 0
M  V30 4024 O 387.408 -0.941191 1.78055 0
M  V30 4025 C 384.473 -1.31895 3.20631 0
M  V30 4026 C 383.534 -0.642648 4.24463 0
M  V30 4027 C 382.767 -1.63959 5.07891 0
M  V30 4028 O 382.99 -2.87007 4.92933 0
M  V30 4029 O 381.924 -1.19143 5.8999 0
M  V30 4030 H 385.75 0.413982 3.00865 0
M  V30 4031 H 383.335 0.268556 1.46966 0
M  V30 4032 H 385.217 -1.92446 3.7489 0
M  V30 4033 H 383.892 -1.98788 2.5547 0
M  V30 4034 H 382.799 0.00276252 3.741 0
M  V30 4035 H 384.132 -0.0160534 4.92197 0
M  V30 4036 N 385.784 -1.5574 0.241426 0
M  V30 4037 C 386.734 -2.17803 -0.674233 0
M  V30 4038 C 387.718 -1.13225 -1.14319 0
M  V30 4039 O 388.91 -1.39153 -1.09387 0
M  V30 4040 C 386.039 -2.87682 -1.87333 0
M  V30 4041 C 385.125 -3.99509 -1.42313 0
M  V30 4042 N 385.516 -5.01115 -0.686798 0
M  V30 4043 C 383.814 -4.11964 -1.70885 0
M  V30 4044 C 384.515 -5.79922 -0.454456 0
M  V30 4045 N 383.491 -5.34001 -1.01705 0
M  V30 4046 H 387.293 -2.93718 -0.103447 0
M  V30 4047 H 384.807 -1.62342 0.0435095 0
M  V30 4048 H 386.804 -3.3057 -2.54026 0
M  V30 4049 H 385.464 -2.13269 -2.4484 0
M  V30 4050 H 386.475 -5.16799 -0.337459 0
M  V30 4051 H 383.152 -3.48718 -2.2957 0
M  V30 4052 H 384.542 -6.71768 0.132992 0
M  V30 4053 N 387.262 0.0317525 -1.57568 0
M  V30 4054 C 388.673 0.578692 -1.77505 0
M  V30 4055 C 389.024 1.75749 -0.872164 0
M  V30 4056 O 388.149 2.16298 -0.0663106 0
M  V30 4057 C 388.744 1.05658 -3.21904 0
M  V30 4058 C 387.303 1.54906 -3.43047 0
M  V30 4059 C 386.45 0.485939 -2.73009 0
M  V30 4060 H 389.401 -0.194475 -1.57504 0
M  V30 4061 H 389.422 1.92404 -3.28269 0
M  V30 4062 H 388.934 0.198422 -3.87592 0
M  V30 4063 H 387.035 2.42915 -2.82529 0
M  V30 4064 H 387.148 1.59841 -4.5165 0
M  V30 4065 H 385.512 0.940354 -2.36705 0
M  V30 4066 H 386.295 -0.362709 -3.41379 0
M  V30 4067 N 388.74 1.54641 0.303973 0
M  V30 4068 C 389.986 1.74038 1.04109 0
M  V30 4069 C 390.319 0.523051 1.87024 0
M  V30 4070 O 389.594 -0.479874 1.88487 0
M  V30 4071 C 389.877 3.02761 1.94955 0
M  V30 4072 C 389.73 4.34787 1.1524 0
M  V30 4073 C 391.049 3.27336 2.94175 0
M  V30 4074 H 388.168 0.63323 0.377079 0
M  V30 4075 H 390.81 1.87354 0.316001 0
M  V30 4076 H 388.96 2.9154 2.56782 0
M  V30 4077 H 390.632 4.57922 0.557236 0
M  V30 4078 H 388.875 4.31407 0.455053 0
M  V30 4079 H 389.546 5.21116 1.8205 0
M  V30 4080 H 392.022 3.38148 2.42477 0
M  V30 4081 H 390.898 4.18726 3.54908 0
M  V30 4082 H 391.159 2.45491 3.67677 0
M  V30 4083 N 390.218 -0.567019 1.47046 0
M  V30 4084 C 391.128 -1.70247 1.6141 0
M  V30 4085 C 392.144 -1.66746 0.497157 0
M  V30 4086 O 393.32 -1.86371 0.763389 0
M  V30 4087 C 390.385 -3.06756 1.61561 0
M  V30 4088 C 389.446 -3.21399 2.84607 0
M  V30 4089 C 388.679 -4.51396 2.84741 0
M  V30 4090 O 388.902 -5.36255 1.94388 0
M  V30 4091 O 387.836 -4.69621 3.76483 0
M  V30 4092 H 391.662 -1.61073 2.57467 0
M  V30 4093 H 389.247 -0.735894 1.30019 0
M  V30 4094 H 391.129 -3.8801 1.64396 0
M  V30 4095 H 389.804 -3.16333 0.686684 0
M  V30 4096 H 388.711 -2.39579 2.8732 0
M  V30 4097 H 390.044 -3.16721 3.76761 0
M  V30 4098 N 391.696 -1.35014 -0.812953 0
M  V30 4099 C 392.644 -1.27435 -1.94585 0
M  V30 4100 C 393.638 -0.170494 -1.6854 0
M  V30 4101 O 394.844 -0.336085 -1.76835 0
M  V30 4102 H 391.219 -0.396144 -0.639198 0
M  V30 4103 H 393.19 -2.23158 -1.98098 0
M  V30 4104 C 391.939 -1.05677 -3.31252 0
M  V30 4105 H 391.262 -1.89853 -3.51846 0
M  V30 4106 H 392.702 -1.04413 -4.10943 0
M  V30 4107 C 391.161 0.239615 -3.36047 0
M  V30 4108 O 391.691 1.23759 -3.8216 0
M  V30 4109 N 389.897 0.276186 -2.89285 0
M  V30 4110 H 389.444 -0.53653 -2.51951 0
M  V30 4111 H 389.402 1.14332 -2.92875 0
M  V30 4112 N 393.175 1.03435 -1.18907 0
M  V30 4113 C 394.138 2.09756 -0.923844 0
M  V30 4114 C 395.138 1.60528 0.093416 0
M  V30 4115 O 396.328 1.73631 -0.140727 0
M  V30 4116 C 393.46 3.38692 -0.387354 0
M  V30 4117 H 394.653 2.34719 -1.86674 0
M  V30 4118 H 392.206 1.19959 -1.00197 0
M  V30 4119 H 392.941 3.19396 0.561845 0
M  V30 4120 H 392.726 3.75742 -1.12074 0
M  V30 4121 H 394.216 4.17016 -0.220694 0
M  V30 4122 N 394.653 0.992116 1.22453 0
M  V30 4123 C 395.878 0.685644 1.95739 0
M  V30 4124 C 396.303 -0.743 1.72804 0
M  V30 4125 O 395.661 -1.50778 1.00676 0
M  V30 4126 C 395.709 0.996293 3.46564 0
M  V30 4127 O 394.813 0.0945512 4.12292 0
M  V30 4128 H 394.154 0.256694 0.612376 0
M  V30 4129 H 396.684 1.32888 1.5557 0
M  V30 4130 H 396.694 0.93781 3.97076 0
M  V30 4131 H 395.369 2.03733 3.62582 0
M  V30 4132 H 393.946 0.208451 3.72317 0
M  V30 4133 N 396.131 -1.37776 0.765217 0
M  V30 4134 C 397.356 -2.04651 0.336537 0
M  V30 4135 C 397.781 -1.57337 -1.03086 0
M  V30 4136 O 397.139 -0.730621 -1.65927 0
M  V30 4137 C 397.187 -3.58577 0.381468 0
M  V30 4138 O 396.291 -4.07706 -0.62042 0
M  V30 4139 H 395.632 -0.64756 0.146838 0
M  V30 4140 H 398.162 -1.76221 1.03959 0
M  V30 4141 H 398.172 -4.07314 0.236448 0
M  V30 4142 H 396.847 -3.9237 1.37907 0
M  V30 4143 H 395.424 -3.70306 -0.439056 0
M  V30 4144 N 397.609 -0.515225 -1.4894 0
M  V30 4145 C 398.858 0.0261361 -2.01683 0
M  V30 4146 C 399.171 1.36719 -1.39883 0
M  V30 4147 O 400.377 1.99606 -1.84037 0
M  V30 4148 C 398.833 0.0970111 -3.59769 0
M  V30 4149 C 398.441 -1.23825 -4.30548 0
M  V30 4150 C 400.185 0.587981 -4.20408 0
M  V30 4151 C 398.092 -1.12877 -5.80528 0
M  V30 4152 H 397.022 0.0135398 -0.753878 0
M  V30 4153 H 399.673 -0.656787 -1.71343 0
M  V30 4154 H 398.055 0.844694 -3.86886 0
M  V30 4155 H 399.229 -2.00034 -4.15118 0
M  V30 4156 H 397.544 -1.66379 -3.81716 0
M  V30 4157 H 400.141 0.68763 -5.3026 0
M  V30 4158 H 400.484 1.59026 -3.84729 0
M  V30 4159 H 401.017 -0.103582 -3.97665 0
M  V30 4160 H 397.756 -2.10575 -6.20756 0
M  V30 4161 H 397.276 -0.407799 -5.98412 0
M  V30 4162 H 398.955 -0.813332 -6.41868 0
M  V30 4163 N 399.087 1.5561 -0.249682 0
M  V30 4164 C 400.333 1.99306 0.374841 0
M  V30 4165 C 400.666 1.13767 1.57387 0
M  V30 4166 O 399.941 0.201711 1.93451 0
M  V30 4167 C 400.224 3.51507 0.781986 0
M  V30 4168 C 400.077 4.4781 -0.422629 0
M  V30 4169 C 401.396 4.08884 1.62793 0
M  V30 4170 H 398.515 0.724572 0.134773 0
M  V30 4171 H 401.157 1.86719 -0.351549 0
M  V30 4172 H 399.307 3.62363 1.4009 0
M  V30 4173 H 400.979 4.48931 -1.06108 0
M  V30 4174 H 399.222 4.20518 -1.06524 0
M  V30 4175 H 399.893 5.51919 -0.0943766 0
M  V30 4176 H 402.369 4.01147 1.10547 0
M  V30 4177 H 401.245 5.1564 1.88166 0
M  V30 4178 H 401.506 3.57515 2.60068 0
M  V30 4179 N 400.565 -0.0233959 1.57583 0
M  V30 4180 C 401.812 -0.713063 1.8953 0
M  V30 4181 C 402.14 -1.75056 0.847673 0
M  V30 4182 O 401.395 -1.95119 -0.150636 0
M  V30 4183 C 401.694 -1.41428 3.28227 0
M  V30 4184 C 401.36 -0.512222 4.47981 0
M  V30 4185 C 400.022 -0.263785 4.80476 0
M  V30 4186 C 402.374 0.110248 5.21083 0
M  V30 4187 C 399.702 0.615804 5.83459 0
M  V30 4188 C 402.054 0.977573 6.25001 0
M  V30 4189 C 400.718 1.23542 6.55968 0
M  V30 4190 H 399.988 -0.260928 0.69354 0
M  V30 4191 H 402.635 0.0271047 1.91481 0
M  V30 4192 H 400.94 -2.22791 3.22291 0
M  V30 4193 H 402.637 -1.95355 3.50196 0
M  V30 4194 H 399.227 -0.716013 4.22577 0
M  V30 4195 H 403.411 -0.0687137 4.96252 0
M  V30 4196 H 398.667 0.82382 6.05824 0
M  V30 4197 H 402.841 1.46638 6.80786 0
M  V30 4198 H 400.468 1.91871 7.35588 0
M  V30 4199 N 402.043 -1.548 -0.295768 0
M  V30 4200 C 402.991 -1.86874 -1.38495 0
M  V30 4201 C 403.985 -0.742938 -1.52239 0
M  V30 4202 O 405.191 -0.926999 -1.54294 0
M  V30 4203 H 401.566 -0.592786 -0.462719 0
M  V30 4204 H 403.537 -2.77904 -1.08682 0
M  V30 4205 C 402.286 -2.13732 -2.74252 0
M  V30 4206 H 401.609 -2.99835 -2.64459 0
M  V30 4207 H 403.049 -2.4011 -3.49461 0
M  V30 4208 C 401.508 -0.937539 -3.23592 0
M  V30 4209 O 402.038 -0.160665 -4.01379 0
M  V30 4210 N 400.244 -0.741478 -2.80981 0
M  V30 4211 H 399.791 -1.37489 -2.1784 0
M  V30 4212 H 399.749 0.0597103 -3.14343 0
M  V30 4213 N 403.521 0.559213 -1.47345 0
M  V30 4214 C 404.77 1.31281 -1.53128 0
M  V30 4215 C 405.083 1.94602 -0.197344 0
M  V30 4216 O 406.289 2.71173 -0.133154 0
M  V30 4217 C 404.745 2.38051 -2.69925 0
M  V30 4218 C 404.353 1.8093 -4.0984 0
M  V30 4219 C 406.097 3.14604 -2.84999 0
M  V30 4220 C 404.004 2.85468 -5.1794 0
M  V30 4221 H 402.934 0.493614 -0.569966 0
M  V30 4222 H 405.585 0.594155 -1.73615 0
M  V30 4223 H 403.967 3.12822 -2.42814 0
M  V30 4224 H 405.141 1.12544 -4.46845 0
M  V30 4225 H 403.456 1.16967 -3.99634 0
M  V30 4226 H 406.053 3.92666 -3.62929 0
M  V30 4227 H 406.396 3.68665 -1.93369 0
M  V30 4228 H 406.929 2.46945 -3.1187 0
M  V30 4229 H 403.668 2.36264 -6.1144 0
M  V30 4230 H 403.188 3.52269 -4.85455 0
M  V30 4231 H 404.867 3.48996 -5.44803 0
M  V30 4232 N 404.999 1.35443 0.805782 0
M  V30 4233 C 406.227 1.31878 1.59423 0
M  V30 4234 C 406.642 -0.103562 1.88516 0
M  V30 4235 O 405.999 -1.05575 1.48863 0
M  V30 4236 C 406.05 2.12426 2.92502 0
M  V30 4237 O 405.771 3.49115 2.6467 0
M  V30 4238 C 407.272 2.16455 3.86862 0
M  V30 4239 H 404.492 0.453002 0.495005 0
M  V30 4240 H 407.036 1.78309 1.00131 0
M  V30 4241 H 405.191 1.69593 3.48306 0
M  V30 4242 H 405.605 3.90957 3.49647 0
M  V30 4243 H 407.079 2.77204 4.77349 0
M  V30 4244 H 407.556 1.16352 4.23508 0
M  V30 4245 H 408.162 2.59453 3.36993 0
M  V30 4246 N 406.477 -1.02803 1.19454 0
M  V30 4247 C 407.44 -2.09264 0.934955 0
M  V30 4248 C 408.44 -1.60576 -0.0849015 0
M  V30 4249 O 409.63 -1.73554 0.149933 0
M  V30 4250 C 406.762 -3.38482 0.40531 0
M  V30 4251 H 407.955 -2.33726 1.87916 0
M  V30 4252 H 405.508 -1.19426 1.00832 0
M  V30 4253 H 406.243 -3.19689 -0.544899 0
M  V30 4254 H 406.028 -3.75142 1.14065 0
M  V30 4255 H 407.518 -4.16894 0.242806 0
M  V30 4256 N 407.956 -0.998596 -1.21925 0
M  V30 4257 C 409.367 -0.711939 -1.72593 0
M  V30 4258 C 409.718 0.770842 -1.80423 0
M  V30 4259 O 408.843 1.60237 -1.4544 0
M  V30 4260 C 409.438 -1.28567 -3.13458 0
M  V30 4261 C 407.997 -1.04828 -3.61508 0
M  V30 4262 C 407.144 -1.4024 -2.39224 0
M  V30 4263 H 410.095 -1.17027 -1.07193 0
M  V30 4264 H 410.116 -0.667098 -3.74607 0
M  V30 4265 H 409.628 -2.36486 -3.07727 0
M  V30 4266 H 407.729 0.0140383 -3.72597 0
M  V30 4267 H 407.842 -1.71566 -4.47328 0
M  V30 4268 H 406.206 -0.821077 -2.41103 0
M  V30 4269 H 406.989 -2.49176 -2.36149 0
M  V30 4270 N 409.434 1.37368 -0.772513 0
M  V30 4271 C 410.659 2.0447 -0.347386 0
M  V30 4272 C 411.084 1.57882 1.0225 0
M  V30 4273 O 410.442 0.73941 1.65537 0
M  V30 4274 C 410.49 3.58369 -0.400479 0
M  V30 4275 O 409.594 4.0803 0.598789 0
M  V30 4276 H 408.935 0.646773 -0.15027 0
M  V30 4277 H 411.465 1.75667 -1.04892 0
M  V30 4278 H 411.475 4.07183 -0.258045 0
M  V30 4279 H 410.15 3.91633 -1.39986 0
M  V30 4280 H 408.727 3.70534 0.419411 0
M  V30 4281 N 410.912 0.523116 1.48665 0
M  V30 4282 C 411.86 -0.256859 2.31177 0
M  V30 4283 C 412.854 -0.94199 1.40794 0
M  V30 4284 O 414.06 -0.867157 1.57735 0
M  V30 4285 H 410.435 -0.1017 0.745091 0
M  V30 4286 H 412.406 0.458739 2.94853 0
M  V30 4287 C 411.155 -1.29503 3.22683 0
M  V30 4288 H 410.478 -0.777248 3.92172 0
M  V30 4289 H 411.918 -1.81233 3.83315 0
M  V30 4290 C 410.377 -2.32501 2.43813 0
M  V30 4291 O 410.907 -3.3881 2.15803 0
M  V30 4292 N 409.113 -2.05538 2.05432 0
M  V30 4293 H 408.66 -1.19104 2.28412 0
M  V30 4294 H 408.618 -2.74676 1.52973 0
M  V30 4295 N 412.39 -1.55475 0.257931 0
M  V30 4296 C 413.639 -1.98383 -0.364275 0
M  V30 4297 C 413.952 -1.14952 -1.58258 0
M  V30 4298 O 415.158 -1.47924 -2.27664 0
M  V30 4299 C 413.614 -3.53037 -0.699479 0
M  V30 4300 C 413.222 -4.45223 0.498046 0
M  V30 4301 C 414.966 -4.04575 -1.28526 0
M  V30 4302 C 412.873 -5.91238 0.138383 0
M  V30 4303 H 411.803 -0.740911 -0.13988 0
M  V30 4304 H 414.454 -1.79936 0.359883 0
M  V30 4305 H 412.836 -3.6722 -1.48207 0
M  V30 4306 H 414.01 -4.42803 1.27522 0
M  V30 4307 H 412.325 -4.04226 0.999503 0
M  V30 4308 H 414.922 -5.11196 -1.56788 0
M  V30 4309 H 415.265 -3.5258 -2.21344 0
M  V30 4310 H 415.798 -3.93762 -0.565337 0
M  V30 4311 H 412.537 -6.47294 1.03398 0
M  V30 4312 H 412.057 -5.96768 -0.602374 0
M  V30 4313 H 413.736 -6.46413 -0.27553 0
M  V30 4314 N 413.868 0.0150385 -1.57593 0
M  V30 4315 C 415.284 0.370907 -1.5523 0
M  V30 4316 C 415.484 1.75735 -0.985882 0
M  V30 4317 O 414.54 2.44944 -0.613077 0
M  V30 4318 C 415.853 0.259908 -2.99575 0
M  V30 4319 C 417.401 0.335959 -3.11192 0
M  V30 4320 C 417.876 0.254253 -4.57294 0
M  V30 4321 N 419.367 0.312618 -4.62144 0
M  V30 4322 C 420.102 0.272505 -5.72752 0
M  V30 4323 N 419.598 0.183864 -6.92556 0
M  V30 4324 N 421.391 0.323267 -5.6117 0
M  V30 4325 H 413.542 -0.892104 -1.92757 0
M  V30 4326 H 415.805 -0.340563 -0.884715 0
M  V30 4327 H 415.511 -0.693403 -3.44797 0
M  V30 4328 H 415.385 1.048 -3.62349 0
M  V30 4329 H 417.772 1.27971 -2.65909 0
M  V30 4330 H 417.853 -0.481739 -2.51223 0
M  V30 4331 H 417.497 -0.685887 -5.03247 0
M  V30 4332 H 417.427 1.09024 -5.15191 0
M  V30 4333 H 419.918 0.38307 -3.75953 0
M  V30 4334 H 420.231 0.15874 -7.72637 0
M  V30 4335 H 418.576 0.149708 -6.94839 0
M  V30 4336 H 421.767 0.390607 -4.66467 0
M  V30 4337 H 421.94 0.288539 -6.47357 0
M  V30 4338 N 415.346 1.54954 0.287554 0
M  V30 4339 C 416.279 1.81737 1.3801 0
M  V30 4340 C 417.257 0.669412 1.48181 0
M  V30 4341 O 418.441 0.910839 1.65033 0
M  V30 4342 C 415.568 1.96606 2.75796 0
M  V30 4343 C 414.614 3.19098 2.82982 0
M  V30 4344 S 415.447 4.7683 2.43707 0
M  V30 4345 C 416.603 4.94653 3.83496 0
M  V30 4346 H 416.836 2.74122 1.15085 0
M  V30 4347 H 414.369 1.46538 0.486403 0
M  V30 4348 H 416.327 2.05858 3.55152 0
M  V30 4349 H 414.988 1.05136 2.95982 0
M  V30 4350 H 414.181 3.26344 3.84077 0
M  V30 4351 H 413.783 3.08361 2.11635 0
M  V30 4352 H 416.075 4.79502 4.78628 0
M  V30 4353 H 417.018 5.96728 3.8121 0
M  V30 4354 H 417.426 4.2272 3.74123 0
M  V30 4355 N 416.824 -0.551391 1.4764 0
M  V30 4356 C 417.734 -1.68525 1.63207 0
M  V30 4357 C 418.75 -1.6621 0.514815 0
M  V30 4358 O 419.926 -1.85551 0.783113 0
M  V30 4359 C 416.991 -3.05025 1.64805 0
M  V30 4360 C 416.052 -3.18362 2.88 0
M  V30 4361 C 415.285 -4.4835 2.89513 0
M  V30 4362 O 415.508 -5.34163 2.00065 0
M  V30 4363 O 414.442 -4.65602 3.81443 0
M  V30 4364 H 418.268 -1.58333 2.59161 0
M  V30 4365 H 415.853 -0.722063 1.30792 0
M  V30 4366 H 417.735 -3.86245 1.68502 0
M  V30 4367 H 416.41 -3.15587 0.720197 0
M  V30 4368 H 415.317 -2.36518 2.89845 0
M  V30 4369 H 416.65 -3.12707 3.80099 0
M  V30 4370 N 418.302 -1.35869 -0.798587 0
M  V30 4371 C 419.212 -1.31578 -1.94228 0
M  V30 4372 C 420.228 -0.21939 -1.72611 0
M  V30 4373 O 421.404 -0.450167 -1.96305 0
M  V30 4374 C 418.469 -1.09528 -3.28944 0
M  V30 4375 C 417.53 -2.28556 -3.63402 0
M  V30 4376 C 416.763 -2.07549 -4.9169 0
M  V30 4377 O 416.986 -1.046 -5.60727 0
M  V30 4378 O 415.92 -2.95106 -5.24591 0
M  V30 4379 H 419.746 -2.27847 -2.00796 0
M  V30 4380 H 417.331 -1.16322 -0.937526 0
M  V30 4381 H 419.213 -0.991127 -4.09579 0
M  V30 4382 H 417.888 -0.16315 -3.23289 0
M  V30 4383 H 416.795 -2.44538 -2.83112 0
M  V30 4384 H 418.128 -3.20244 -3.73771 0
M  V30 4385 N 419.78 1.02168 -1.19998 0
M  V30 4386 C 421.026 1.75945 -1.00852 0
M  V30 4387 C 421.359 1.88702 0.458828 0
M  V30 4388 O 420.634 1.40911 1.34069 0
M  V30 4389 C 420.917 3.18154 -1.68671 0
M  V30 4390 C 420.77 3.13224 -3.22817 0
M  V30 4391 C 422.089 4.16711 -1.41561 0
M  V30 4392 H 419.208 0.638673 -0.367785 0
M  V30 4393 H 421.85 1.19222 -1.4794 0
M  V30 4394 H 420 3.66586 -1.28636 0
M  V30 4395 H 421.672 2.72635 -3.72112 0
M  V30 4396 H 419.915 2.50751 -3.53986 0
M  V30 4397 H 420.586 4.13728 -3.65422 0
M  V30 4398 H 423.062 3.76913 -1.76284 0
M  V30 4399 H 421.938 5.14391 -1.91553 0
M  V30 4400 H 422.199 4.40774 -0.342193 0
M  V30 4401 N 421.258 1.00505 1.21394 0
M  V30 4402 C 422.208 0.536503 2.21598 0
M  V30 4403 C 423.192 -0.401914 1.55799 0
M  V30 4404 O 424.384 -0.226757 1.75541 0
M  V30 4405 C 421.513 -0.135446 3.43033 0
M  V30 4406 C 420.599 0.823992 4.16018 0
M  V30 4407 N 420.99 1.97683 4.6557 0
M  V30 4408 C 419.288 0.642387 4.4135 0
M  V30 4409 C 419.989 2.58003 5.21354 0
M  V30 4410 N 418.965 1.86162 5.1073 0
M  V30 4411 H 422.767 1.41557 2.57563 0
M  V30 4412 H 420.281 0.868878 1.37202 0
M  V30 4413 H 422.278 -0.488584 4.14027 0
M  V30 4414 H 420.938 -1.01049 3.08576 0
M  V30 4415 H 421.949 2.3572 4.61147 0
M  V30 4416 H 418.626 -0.185578 4.17087 0
M  V30 4417 H 420.016 3.555 5.70149 0
M  V30 4418 N 422.737 -1.36956 0.779787 0
M  V30 4419 C 423.647 -2.33965 0.172491 0
M  V30 4420 C 424.663 -1.60574 -0.670222 0
M  V30 4421 O 425.839 -1.92617 -0.588263 0
M  V30 4422 C 422.904 -3.39761 -0.690173 0
M  V30 4423 C 421.965 -4.28964 0.169924 0
M  V30 4424 C 421.198 -5.29707 -0.651662 0
M  V30 4425 O 421.421 -5.38238 -1.88827 0
M  V30 4426 O 420.355 -6.01873 -0.0566264 0
M  V30 4427 H 424.181 -2.87647 0.974321 0
M  V30 4428 H 421.766 -1.39258 0.541078 0
M  V30 4429 H 423.648 -4.04471 -1.1824 0
M  V30 4430 H 422.323 -2.88394 -1.47006 0
M  V30 4431 H 421.23 -3.67326 0.708696 0
M  V30 4432 H 422.563 -4.83656 0.913085 0
M  V30 4433 N 424.215 -0.530993 -1.48385 0
M  V30 4434 C 425.178 0.220497 -2.28137 0
M  V30 4435 C 426.178 0.866851 -1.35434 0
M  V30 4436 O 427.368 0.726746 -1.58316 0
M  V30 4437 C 424.5 1.31921 -3.1434 0
M  V30 4438 H 425.693 -0.479714 -2.96038 0
M  V30 4439 H 423.246 -0.286968 -1.53643 0
M  V30 4440 H 423.981 2.05264 -2.51072 0
M  V30 4441 H 423.766 0.86085 -3.82533 0
M  V30 4442 H 425.256 1.84776 -3.74497 0
M  V30 4443 N 425.693 1.55336 -0.266172 0
M  V30 4444 C 426.656 2.20878 0.612001 0
M  V30 4445 C 427.656 1.18388 1.08816 0
M  V30 4446 O 428.846 1.4335 0.989774 0
M  V30 4447 C 425.978 2.86765 1.84332 0
M  V30 4448 H 427.171 2.99873 0.0398718 0
M  V30 4449 H 424.724 1.56291 -0.0167309 0
M  V30 4450 H 425.459 2.11759 2.45619 0
M  V30 4451 H 425.244 3.61862 1.5099 0
M  V30 4452 H 426.734 3.36867 2.46801 0
M  V30 4453 N 427.171 -0.0066808 1.57599 0
M  V30 4454 C 428.104 -1.03397 2.03431 0
M  V30 4455 C 429.082 -1.33872 0.922877 0
M  V30 4456 O 430.266 -1.4615 1.19048 0
M  V30 4457 C 427.393 -2.36325 2.42628 0
M  V30 4458 C 426.439 -2.21557 3.64438 0
M  V30 4459 S 427.272 -1.54789 5.12641 0
M  V30 4460 C 428.428 -2.8916 5.55101 0
M  V30 4461 H 428.661 -0.643687 2.90248 0
M  V30 4462 H 426.194 -0.217349 1.52863 0
M  V30 4463 H 428.152 -3.12759 2.65879 0
M  V30 4464 H 426.813 -2.72495 1.56222 0
M  V30 4465 H 426.006 -3.1974 3.89592 0
M  V30 4466 H 425.608 -1.53267 3.41153 0
M  V30 4467 H 427.9 -3.8547 5.57153 0
M  V30 4468 H 428.843 -2.68713 6.55133 0
M  V30 4469 H 429.251 -2.92762 4.82649 0
M  V30 4470 N 428.649 -1.55105 -0.279332 0
M  V30 4471 C 429.898 -1.74618 -1.00952 0
M  V30 4472 C 430.211 -0.551096 -1.87676 0
M  V30 4473 O 431.417 -0.628507 -2.64125 0
M  V30 4474 C 429.873 -3.09025 -1.84476 0
M  V30 4475 C 429.481 -4.36081 -1.0265 0
M  V30 4476 C 431.225 -3.37891 -2.56963 0
M  V30 4477 C 429.132 -5.6153 -1.85576 0
M  V30 4478 H 428.062 -0.650868 -0.38064 0
M  V30 4479 H 430.713 -1.81569 -0.265475 0
M  V30 4480 H 429.095 -2.96095 -2.62952 0
M  V30 4481 H 430.269 -4.59909 -0.286354 0
M  V30 4482 H 428.584 -4.14312 -0.416464 0
M  V30 4483 H 431.181 -4.28822 -3.19399 0
M  V30 4484 H 431.524 -2.57737 -3.26921 0
M  V30 4485 H 432.057 -3.5189 -1.85522 0
M  V30 4486 H 428.796 -6.44413 -1.2005 0
M  V30 4487 H 428.316 -5.41854 -2.57204 0
M  V30 4488 H 429.995 -5.99594 -2.43096 0
M  V30 4489 N 430.127 0.543554 -1.4793 0
M  V30 4490 C 431.376 1.29649 -1.54512 0
M  V30 4491 C 431.689 1.94382 -0.217973 0
M  V30 4492 O 432.895 2.71017 -0.161908 0
M  V30 4493 C 431.351 2.35175 -2.72435 0
M  V30 4494 C 430.959 1.76572 -4.11736 0
M  V30 4495 C 432.703 3.11564 -2.8832 0
M  V30 4496 C 430.61 2.79958 -5.20939 0
M  V30 4497 H 429.54 0.487541 -0.57517 0
M  V30 4498 H 432.191 0.575708 -1.74235 0
M  V30 4499 H 430.573 3.10229 -2.46118 0
M  V30 4500 H 431.747 1.07799 -4.48013 0
M  V30 4501 H 430.062 1.12722 -4.00852 0
M  V30 4502 H 432.659 3.88794 -3.67074 0
M  V30 4503 H 433.002 3.66594 -1.97268 0
M  V30 4504 H 433.535 2.43623 -3.14472 0
M  V30 4505 H 430.274 2.29766 -6.13912 0
M  V30 4506 H 429.794 3.47101 -4.89164 0
M  V30 4507 H 431.473 3.43198 -5.48474 0
M  V30 4508 N 431.605 1.3629 0.791371 0
M  V30 4509 C 433.021 1.16661 1.08914 0
M  V30 4510 C 433.221 -0.0106266 2.01497 0
M  V30 4511 O 432.277 -0.676596 2.43266 0
M  V30 4512 C 433.59 2.47656 1.70549 0
M  V30 4513 C 435.138 2.54002 1.82899 0
M  V30 4514 C 435.613 3.85078 2.47949 0
M  V30 4515 N 437.104 3.86413 2.5542 0
M  V30 4516 C 437.839 4.84572 3.06557 0
M  V30 4517 N 437.335 5.93124 3.58016 0
M  V30 4518 N 439.128 4.71994 3.05251 0
M  V30 4519 H 431.279 2.11668 0.176238 0
M  V30 4520 H 433.542 0.937486 0.140796 0
M  V30 4521 H 433.248 3.34059 1.09989 0
M  V30 4522 H 433.122 2.63319 2.70079 0
M  V30 4523 H 435.509 1.68018 2.42598 0
M  V30 4524 H 435.59 2.42239 0.821808 0
M  V30 4525 H 435.234 4.71467 1.88895 0
M  V30 4526 H 435.164 3.94135 3.49235 0
M  V30 4527 H 437.655 3.07988 2.18979 0
M  V30 4528 H 437.968 6.63999 3.95381 0
M  V30 4529 H 436.313 5.96796 3.56173 0
M  V30 4530 H 439.504 3.86321 2.64336 0
M  V30 4531 H 439.677 5.48653 3.44796 0
M  V30 4532 N 433.083 -1.0153 1.20538 0
M  V30 4533 C 434.015 -2.10224 0.913155 0
M  V30 4534 C 435.028 -1.62495 -0.0995998 0
M  V30 4535 O 436.217 -1.78014 0.131582 0
M  V30 4536 C 433.317 -3.37111 0.347717 0
M  V30 4537 C 432.49 -4.13971 1.41233 0
M  V30 4538 C 431.549 -5.19158 0.857976 0
M  V30 4539 O 430.575 -5.48 1.53897 0
M  V30 4540 N 431.777 -5.7955 -0.331966 0
M  V30 4541 H 434.542 -2.35879 1.84881 0
M  V30 4542 H 432.103 -1.17931 1.10923 0
M  V30 4543 H 434.095 -4.04683 -0.0373026 0
M  V30 4544 H 432.665 -3.08696 -0.492527 0
M  V30 4545 H 431.885 -3.41351 1.97163 0
M  V30 4546 H 433.173 -4.62103 2.12928 0
M  V30 4547 H 432.571 -5.58455 -0.902478 0
M  V30 4548 H 431.128 -6.48464 -0.65861 0
M  V30 4549 N 434.561 -1.01147 -1.20859 0
M  V30 4550 C 435.509 -0.57059 -2.25493 0
M  V30 4551 C 436.503 0.388109 -1.64894 0
M  V30 4552 O 437.709 0.258592 -1.78133 0
M  V30 4553 H 434.084 -0.166191 -0.733406 0
M  V30 4554 H 436.055 -1.46411 -2.60012 0
M  V30 4555 C 434.804 0.0805241 -3.47607 0
M  V30 4556 H 434.127 -0.648156 -3.94511 0
M  V30 4557 H 435.567 0.352197 -4.22535 0
M  V30 4558 C 434.026 1.32175 -3.09889 0
M  V30 4559 O 434.556 2.41553 -3.20959 0
M  V30 4560 N 432.762 1.20392 -2.64488 0
M  V30 4561 H 432.309 0.313905 -2.5568 0
M  V30 4562 H 432.267 2.03541 -2.39621 0
M  V30 4563 N 436.039 1.36541 -0.78704 0
M  V30 4564 C 437.264 2.0409 -0.369053 0
M  V30 4565 C 437.689 1.58957 1.00569 0
M  V30 4566 O 437.047 0.756926 1.64743 0
M  V30 4567 C 437.095 3.57924 -0.438466 0
M  V30 4568 O 436.199 4.08642 0.555479 0
M  V30 4569 H 435.54 0.645142 -0.157122 0
M  V30 4570 H 438.07 1.74545 -1.06749 0
M  V30 4571 H 438.08 4.06887 -0.301218 0
M  V30 4572 H 436.755 3.90127 -1.44132 0
M  V30 4573 H 435.332 3.70958 0.380088 0
M  V30 4574 N 437.518 0.538854 1.48102 0
M  V30 4575 C 438.743 0.0102694 2.07397 0
M  V30 4576 C 439.168 -1.26562 1.39153 0
M  V30 4577 O 438.526 -1.75357 0.460387 0
M  V30 4578 C 438.574 -0.187602 3.60112 0
M  V30 4579 O 437.678 -1.25432 3.92862 0
M  V30 4580 H 437.019 0.0430975 0.6626 0
M  V30 4581 H 439.549 0.749301 1.90385 0
M  V30 4582 H 439.559 -0.407517 4.0596 0
M  V30 4583 H 438.234 0.744386 4.09184 0
M  V30 4584 H 436.811 -1.01636 3.58782 0
M  V30 4585 N 438.996 -1.55193 0.274407 0
M  V30 4586 C 439.906 -2.26164 -0.623473 0
M  V30 4587 C 440.922 -1.28729 -1.17068 0
M  V30 4588 O 442.098 -1.61663 -1.20112 0
M  V30 4589 C 439.163 -2.96833 -1.7914 0
M  V30 4590 C 438.224 -4.09745 -1.28093 0
M  V30 4591 C 437.457 -4.77034 -2.3932 0
M  V30 4592 O 437.68 -4.4353 -3.5866 0
M  V30 4593 O 436.614 -5.64996 -2.07516 0
M  V30 4594 H 440.44 -3.03661 -0.0485661 0
M  V30 4595 H 438.025 -1.49341 0.0418382 0
M  V30 4596 H 439.907 -3.41248 -2.4724 0
M  V30 4597 H 438.582 -2.22253 -2.35341 0
M  V30 4598 H 437.489 -3.69787 -0.566416 0
M  V30 4599 H 438.822 -4.86224 -0.764683 0
M  V30 4600 N 440.474 -0.00167713 -1.576 0
M  V30 4601 C 441.751 0.719951 -1.81868 0
M  V30 4602 C 442.131 1.91895 -0.879747 0
M  V30 4603 O 441.479 2.28389 0.0711423 0
M  V30 4604 C 441.689 1.12409 -3.30402 0
M  V30 4605 C 443.037 1.52724 -3.96182 0
M  V30 4606 O 444.061 1.21784 -3.34734 0
M  V30 4607 O 442.92 2.10265 -5.04431 0
M  V30 4608 H 440.014 0.350707 -0.748955 0
M  V30 4609 H 442.56 -0.0272597 -1.69678 0
M  V30 4610 H 441.332 0.269532 -3.90371 0
M  V30 4611 H 440.955 1.93035 -3.47596 0
M  V30 4612 N 441.952 1.55251 0.271103 0
M  V30 4613 C 442.915 1.87484 1.31842 0
M  V30 4614 C 443.915 0.749545 1.42262 0
M  V30 4615 O 445.105 1.01771 1.4138 0
M  V30 4616 C 442.237 2.0818 2.69951 0
M  V30 4617 H 443.43 2.81108 1.0449 0
M  V30 4618 H 440.983 1.47771 0.509258 0
M  V30 4619 H 441.718 1.16944 3.02481 0
M  V30 4620 H 441.503 2.90114 2.63774 0
M  V30 4621 H 442.993 2.34385 3.4562 0
M  V30 4622 N 443.43 -0.535701 1.48216 0
M  V30 4623 C 444.707 -1.29683 1.46429 0
M  V30 4624 C 445.087 -2.10391 0.172852 0
M  V30 4625 O 444.435 -2.12282 -0.845488 0
M  V30 4626 C 444.645 -2.18313 2.72287 0
M  V30 4627 C 445.993 -2.78639 3.20383 0
M  V30 4628 O 447.017 -2.28604 2.73164 0
M  V30 4629 O 445.876 -3.69636 4.02531 0
M  V30 4630 H 442.97 -0.585026 0.584529 0
M  V30 4631 H 445.516 -0.552827 1.60443 0
M  V30 4632 H 444.288 -1.58421 3.57797 0
M  V30 4633 H 443.911 -2.99971 2.60966 0
M  V30 4634 N 444.908 -1.36708 -0.784132 0
M  V30 4635 C 446.154 -1.31426 -1.54451 0
M  V30 4636 C 446.487 0.10476 -1.93917 0
M  V30 4637 O 445.762 1.05934 -1.6312 0
M  V30 4638 C 446.045 -2.24189 -2.818 0
M  V30 4639 C 445.898 -3.74813 -2.48667 0
M  V30 4640 C 447.217 -2.15626 -3.83658 0
M  V30 4641 H 444.336 -0.478739 -0.560337 0
M  V30 4642 H 446.978 -1.67305 -0.900498 0
M  V30 4643 H 445.128 -1.93722 -3.36755 0
M  V30 4644 H 446.8 -4.15823 -1.99722 0
M  V30 4645 H 445.043 -3.93989 -1.81535 0
M  V30 4646 H 445.714 -4.35138 -3.39646 0
M  V30 4647 H 448.19 -2.42456 -3.38163 0
M  V30 4648 H 447.066 -2.82694 -4.70506 0
M  V30 4649 H 447.327 -1.14522 -4.27009 0
M  V30 4650 N 446.386 1.0089 -1.21074 0
M  V30 4651 C 447.333 2.09588 -0.966512 0
M  V30 4652 C 448.303 1.65761 0.106089 0
M  V30 4653 O 449.488 1.90758 -0.0402287 0
M  V30 4654 C 446.628 3.40958 -0.533058 0
M  V30 4655 C 445.741 3.9822 -1.67467 0
M  V30 4656 C 444.876 5.17682 -1.19076 0
M  V30 4657 C 443.915 5.67043 -2.30496 0
M  V30 4658 N 443.052 6.77759 -1.83267 0
M  V30 4659 H 447.892 2.29815 -1.89708 0
M  V30 4660 H 445.429 1.12689 -0.945489 0
M  V30 4661 H 447.387 4.1637 -0.263019 0
M  V30 4662 H 446.017 3.20781 0.360505 0
M  V30 4663 H 445.069 3.1983 -2.05944 0
M  V30 4664 H 446.381 4.3085 -2.51336 0
M  V30 4665 H 445.535 6.00326 -0.877151 0
M  V30 4666 H 444.274 4.86635 -0.322066 0
M  V30 4667 H 443.279 4.82999 -2.62664 0
M  V30 4668 H 444.504 6.00121 -3.17855 0
M  V30 4669 H 442.45 6.48527 -0.987356 0
M  V30 4670 H 442.367 7.09624 -2.60711 0
M  V30 4671 H 443.635 7.63949 -1.54928 0
M  V30 4672 N 447.864 1.01787 1.20321 0
M  V30 4673 C 449.111 0.707936 1.89722 0
M  V30 4674 C 449.439 -0.762535 1.78929 0
M  V30 4675 O 448.694 -1.56977 1.16861 0
M  V30 4676 C 448.993 1.09076 3.40349 0
M  V30 4677 C 448.659 2.55765 3.71342 0
M  V30 4678 C 447.321 2.95845 3.79511 0
M  V30 4679 C 449.673 3.50723 3.85542 0
M  V30 4680 C 447.001 4.2982 3.99339 0
M  V30 4681 C 449.353 4.84387 4.06881 0
M  V30 4682 C 448.017 5.24172 4.1328 0
M  V30 4683 H 447.287 0.259052 0.694243 0
M  V30 4684 H 449.934 1.27868 1.42555 0
M  V30 4685 H 448.239 0.438453 3.89339 0
M  V30 4686 H 449.936 0.828636 3.92345 0
M  V30 4687 H 446.526 2.2371 3.65584 0
M  V30 4688 H 450.71 3.20916 3.78585 0
M  V30 4689 H 445.966 4.60196 4.02529 0
M  V30 4690 H 450.14 5.57891 4.1681 0
M  V30 4691 H 447.767 6.27997 4.28396 0
M  V30 4692 N 449.342 -1.36122 0.79427 0
M  V30 4693 C 450.59 -1.98718 0.368177 0
M  V30 4694 C 450.911 -1.63345 -1.06506 0
M  V30 4695 O 450.181 -0.909825 -1.73491 0
M  V30 4696 H 448.761 -0.735038 0.133146 0
M  V30 4697 H 451.423 -1.66239 1.01739 0
M  V30 4698 H 450.519 -3.08633 0.463923 0
M  V30 4699 N 450.82 -0.546701 -1.47814 0
M  V30 4700 C 451.75 0.195317 -2.32682 0
M  V30 4701 C 452.731 0.918981 -1.43139 0
M  V30 4702 O 453.916 0.901501 -1.72008 0
M  V30 4703 C 451.046 1.23237 -3.247 0
M  V30 4704 C 450 0.625818 -4.234 0
M  V30 4705 C 449.326 1.76674 -5.04669 0
M  V30 4706 C 450.626 -0.413515 -5.2066 0
M  V30 4707 H 452.32 -0.513184 -2.94969 0
M  V30 4708 H 449.866 -0.248241 -1.41844 0
M  V30 4709 H 451.819 1.75955 -3.82907 0
M  V30 4710 H 450.543 1.97067 -2.60446 0
M  V30 4711 H 449.202 0.120023 -3.66403 0
M  V30 4712 H 448.85 2.49383 -4.36826 0
M  V30 4713 H 448.55 1.36673 -5.71484 0
M  V30 4714 H 450.074 2.29738 -5.65732 0
M  V30 4715 H 451.488 0.0272042 -5.73294 0
M  V30 4716 H 449.885 -0.731825 -5.95621 0
M  V30 4717 H 450.955 -1.31325 -4.66778 0
M  V30 4718 N 452.299 1.55045 -0.282633 0
M  V30 4719 C 453.548 1.98938 0.332667 0
M  V30 4720 C 453.861 1.17455 1.56409 0
M  V30 4721 O 455.067 1.51527 2.25282 0
M  V30 4722 C 453.523 3.54105 0.643226 0
M  V30 4723 C 453.131 4.44374 -0.568814 0
M  V30 4724 C 454.875 4.06569 1.22074 0
M  V30 4725 C 452.782 5.90943 -0.232426 0
M  V30 4726 H 451.712 0.743043 0.128075 0
M  V30 4727 H 454.363 1.79341 -0.388464 0
M  V30 4728 H 452.745 3.69532 1.42346 0
M  V30 4729 H 453.919 4.40718 -1.34551 0
M  V30 4730 H 452.234 4.02585 -1.06369 0
M  V30 4731 H 454.831 5.13626 1.48635 0
M  V30 4732 H 455.174 3.56057 2.15707 0
M  V30 4733 H 455.707 3.94612 0.502621 0
M  V30 4734 H 452.446 6.45567 -1.13683 0
M  V30 4735 H 451.966 5.9765 0.507357 0
M  V30 4736 H 453.645 6.4677 0.172657 0
M  V30 4737 N 453.777 0.010035 1.57597 0
M  V30 4738 C 455.024 -0.6727 1.91 0
M  V30 4739 C 455.352 -1.73219 0.884614 0
M  V30 4740 O 454.607 -1.95395 -0.109215 0
M  V30 4741 C 454.906 -1.34434 3.31153 0
M  V30 4742 C 454.572 -0.417083 4.48967 0
M  V30 4743 C 453.234 -0.161809 4.80928 0
M  V30 4744 C 455.586 0.220753 5.20732 0
M  V30 4745 C 452.914 0.739426 5.82022 0
M  V30 4746 C 455.266 1.10993 6.22787 0
M  V30 4747 C 453.93 1.37428 6.532 0
M  V30 4748 H 453.2 -0.246158 0.698918 0
M  V30 4749 H 455.847 0.0677145 1.9138 0
M  V30 4750 H 454.152 -2.15905 3.26944 0
M  V30 4751 H 455.849 -1.87883 3.54261 0
M  V30 4752 H 452.439 -0.626217 4.24001 0
M  V30 4753 H 456.623 0.0365643 4.96287 0
M  V30 4754 H 451.879 0.952139 6.03941 0
M  V30 4755 H 456.053 1.61046 6.77523 0
M  V30 4756 H 453.68 2.0743 7.31353 0
M  V30 4757 N 455.255 -1.55392 -0.262866 0
M  V30 4758 C 456.532 -1.67204 -1.01499 0
M  V30 4759 C 456.912 -0.545186 -2.03939 0
M  V30 4760 O 456.26 0.453467 -2.23955 0
M  V30 4761 C 456.47 -3.06847 -1.6627 0
M  V30 4762 C 457.818 -3.64928 -2.17054 0
M  V30 4763 O 458.842 -3.09545 -1.76239 0
M  V30 4764 O 457.701 -4.61984 -2.91947 0
M  V30 4765 H 454.795 -0.679467 -0.471438 0
M  V30 4766 H 457.341 -1.67729 -0.257918 0
M  V30 4767 H 456.113 -3.80309 -0.920915 0
M  V30 4768 H 455.736 -3.10266 -2.48638 0
M  V30 4769 N 456.733 0.527833 -1.48498 0
M  V30 4770 C 458.01 1.28905 -1.47115 0
M  V30 4771 C 458.39 2.10297 -0.184007 0
M  V30 4772 O 457.738 2.12728 0.834218 0
M  V30 4773 C 457.948 2.16866 -2.73441 0
M  V30 4774 C 459.296 2.76936 -3.21857 0
M  V30 4775 O 460.32 2.27152 -2.74373 0
M  V30 4776 O 459.179 3.67496 -4.04486 0
M  V30 4777 H 456.273 0.581918 -0.587623 0
M  V30 4778 H 458.819 0.544311 -1.60734 0
M  V30 4779 H 457.591 1.56521 -3.58632 0
M  V30 4780 H 457.214 2.98583 -2.62553 0
M  V30 4781 N 458.211 1.37122 0.776871 0
M  V30 4782 C 459.121 1.34651 1.9211 0
M  V30 4783 C 460.137 0.246824 1.7224 0
M  V30 4784 O 461.313 0.48134 1.95563 0
M  V30 4785 C 458.378 1.14748 3.2716 0
M  V30 4786 C 457.439 2.34308 3.5972 0
M  V30 4787 C 456.672 2.15345 4.88326 0
M  V30 4788 O 456.895 1.13507 5.58992 0
M  V30 4789 O 455.829 3.03414 5.1983 0
M  V30 4790 H 459.655 2.31013 1.97146 0
M  V30 4791 H 457.24 1.17799 0.918901 0
M  V30 4792 H 459.122 1.05616 4.0795 0
M  V30 4793 H 457.797 0.214562 3.22988 0
M  V30 4794 H 456.704 2.49011 2.79185 0
M  V30 4795 H 458.037 3.26149 3.68629 0
M  V30 4796 N 459.689 -1.00246 1.21608 0
M  V30 4797 C 460.935 -1.74319 1.03638 0
M  V30 4798 C 461.268 -1.89408 -0.428749 0
M  V30 4799 O 460.543 -1.43026 -1.3181 0
M  V30 4800 C 460.826 -3.15431 1.73711 0
M  V30 4801 C 460.679 -3.08049 3.27759 0
M  V30 4802 C 461.998 -4.14407 1.48173 0
M  V30 4803 H 459.117 -0.632741 0.377899 0
M  V30 4804 H 461.759 -1.16853 1.49818 0
M  V30 4805 H 459.909 -3.64493 1.34452 0
M  V30 4806 H 461.581 -2.66681 3.76403 0
M  V30 4807 H 459.824 -2.45088 3.57931 0
M  V30 4808 H 460.495 -4.07862 3.71958 0
M  V30 4809 H 462.971 -3.74061 1.82258 0
M  V30 4810 H 461.847 -5.11279 1.99713 0
M  V30 4811 H 462.108 -4.40174 0.412273 0
M  V30 4812 N 461.167 -1.02423 -1.1978 0
M  V30 4813 C 462.578 -0.748389 -1.71044 0
M  V30 4814 C 462.929 0.732398 -1.82017 0
M  V30 4815 O 462.054 1.57116 -1.48807 0
M  V30 4816 C 462.649 -1.35187 -3.1066 0
M  V30 4817 C 461.208 -1.12472 -3.59203 0
M  V30 4818 C 460.355 -1.45283 -2.36195 0
M  V30 4819 H 463.306 -1.19275 -1.04686 0
M  V30 4820 H 463.327 -0.746408 -3.73107 0
M  V30 4821 H 462.839 -2.4296 -3.02642 0
M  V30 4822 H 460.94 -0.0649983 -3.72543 0
M  V30 4823 H 461.053 -1.81016 -4.43588 0
M  V30 4824 H 459.417 -0.872034 -2.39307 0
M  V30 4825 H 460.2 -2.54129 -2.30811 0
M  V30 4826 N 462.645 1.35699 -0.801477 0
M  V30 4827 C 463.922 1.9324 -0.302937 0
M  V30 4828 C 464.302 1.73209 1.20672 0
M  V30 4829 O 463.65 1.09809 2.00385 0
M  V30 4830 C 463.86 3.41728 -0.708747 0
M  V30 4831 C 465.208 4.18868 -0.695328 0
M  V30 4832 O 466.232 3.5022 -0.649971 0
M  V30 4833 O 465.091 5.41342 -0.749081 0
M  V30 4834 H 462.185 0.82331 -0.0780367 0
M  V30 4835 H 464.731 1.44806 -0.884832 0
M  V30 4836 H 463.503 3.50015 -1.74944 0
M  V30 4837 H 463.126 3.97471 -0.101384 0
M  V30 4838 N 464.123 0.554532 1.47522 0
M  V30 4839 C 465.4 -0.0360704 1.95567 0
M  V30 4840 C 465.78 -1.48828 1.49711 0
M  V30 4841 O 465.128 -2.16366 0.734717 0
M  V30 4842 C 465.338 0.106631 3.48837 0
M  V30 4843 C 466.686 -0.0400899 4.24581 0
M  V30 4844 O 467.71 0.0340453 3.56184 0
M  V30 4845 O 466.569 -0.199111 5.46137 0
M  V30 4846 H 463.663 -0.0656294 0.824392 0
M  V30 4847 H 466.209 0.620867 1.57935 0
M  V30 4848 H 464.981 1.11727 3.7501 0
M  V30 4849 H 464.604 -0.58804 3.93227 0
M  V30 4850 N 465.601 -1.54893 0.290851 0
M  V30 4851 C 466.511 -2.26812 -0.59945 0
M  V30 4852 C 467.527 -1.29963 -1.15696 0
M  V30 4853 O 468.703 -1.62928 -1.18391 0
M  V30 4854 C 465.768 -2.98716 -1.75982 0
M  V30 4855 C 464.829 -4.1108 -1.2374 0
M  V30 4856 C 464.062 -4.79546 -2.34246 0
M  V30 4857 O 464.285 -4.47309 -3.53936 0
M  V30 4858 O 463.219 -5.67165 -2.01512 0
M  V30 4859 H 467.045 -3.03696 -0.0163561 0
M  V30 4860 H 464.63 -1.49289 0.0576755 0
M  V30 4861 H 466.512 -3.43851 -2.43607 0
M  V30 4862 H 465.187 -2.24737 -2.3297 0
M  V30 4863 H 464.094 -3.70367 -0.527163 0
M  V30 4864 H 465.427 -4.87007 -0.71307 0
M  V30 4865 N 467.08 -0.0183926 -1.57589 0
M  V30 4866 C 468.329 0.66185 -1.90532 0
M  V30 4867 C 468.642 1.73904 -0.895366 0
M  V30 4868 O 469.848 2.47518 -1.11566 0
M  V30 4869 C 468.304 1.22844 -3.38286 0
M  V30 4870 C 467.912 0.185103 -4.47617 0
M  V30 4871 C 469.656 1.88581 -3.80312 0
M  V30 4872 C 467.563 0.762723 -5.86461 0
M  V30 4873 H 466.493 0.250972 -0.711006 0
M  V30 4874 H 469.144 -0.0819435 -1.83317 0
M  V30 4875 H 467.526 2.0235 -3.40398 0
M  V30 4876 H 468.7 -0.58671 -4.5705 0
M  V30 4877 H 467.015 -0.372889 -4.14727 0
M  V30 4878 H 469.612 2.32735 -4.81392 0
M  V30 4879 H 469.955 2.72408 -3.14801 0
M  V30 4880 H 470.488 1.15782 -3.80578 0
M  V30 4881 H 467.227 -0.0371713 -6.55489 0
M  V30 4882 H 466.747 1.50327 -5.80656 0
M  V30 4883 H 468.426 1.25576 -6.34697 0
M  V30 4884 N 468.558 1.5553 0.254621 0
M  V30 4885 C 469.974 1.4778 0.602753 0
M  V30 4886 C 470.174 0.707047 1.88688 0
M  V30 4887 O 469.23 0.233288 2.5142 0
M  V30 4888 C 470.543 2.92133 0.712648 0
M  V30 4889 C 472.091 3.02458 0.805488 0
M  V30 4890 C 472.566 4.48102 0.947009 0
M  V30 4891 N 474.057 4.52008 1.01207 0
M  V30 4892 C 474.792 5.61939 1.1407 0
M  V30 4893 N 474.288 6.81697 1.23536 0
M  V30 4894 N 476.081 5.49719 1.17325 0
M  V30 4895 H 468.232 2.04085 -0.588463 0
M  V30 4896 H 470.495 0.926229 -0.202001 0
M  V30 4897 H 470.201 3.51332 -0.160766 0
M  V30 4898 H 470.075 3.42187 1.58707 0
M  V30 4899 H 472.462 2.43344 1.66936 0
M  V30 4900 H 472.543 2.55627 -0.0939266 0
M  V30 4901 H 472.187 5.07824 0.087725 0
M  V30 4902 H 472.117 4.92607 1.86135 0
M  V30 4903 H 474.608 3.65749 0.950577 0
M  V30 4904 H 474.921 7.61228 1.33236 0
M  V30 4905 H 473.266 6.84473 1.20508 0
M  V30 4906 H 476.457 4.55095 1.09573 0
M  V30 4907 H 476.63 6.35432 1.27005 0
M  V30 4908 N 470.036 -0.519951 1.48776 0
M  V30 4909 C 471.282 -1.27711 1.57536 0
M  V30 4910 C 471.615 -1.92547 0.252866 0
M  V30 4911 O 470.89 -1.7979 -0.742021 0
M  V30 4912 C 471.173 -2.35875 2.72094 0
M  V30 4913 C 471.026 -1.75664 4.1408 0
M  V30 4914 C 472.345 -3.37575 2.82367 0
M  V30 4915 H 469.464 -0.462971 0.573434 0
M  V30 4916 H 472.106 -0.578194 1.80989 0
M  V30 4917 H 470.256 -2.95488 2.52228 0
M  V30 4918 H 471.928 -1.20025 4.45412 0
M  V30 4919 H 470.171 -1.06154 4.20611 0
M  V30 4920 H 470.842 -2.54029 4.90075 0
M  V30 4921 H 473.318 -2.87929 3.00393 0
M  V30 4922 H 472.194 -4.1064 3.64233 0
M  V30 4923 H 472.455 -3.98743 1.90936 0
M  V30 4924 N 471.514 -1.37532 -0.769588 0
M  V30 4925 C 472.763 -1.32183 -1.5235 0
M  V30 4926 C 473.076 0.0906555 -1.9539 0
M  V30 4927 O 474.282 0.266628 -2.70188 0
M  V30 4928 C 472.738 -2.32029 -2.75119 0
M  V30 4929 C 472.346 -3.78816 -2.3917 0
M  V30 4930 C 474.09 -2.35694 -3.53056 0
M  V30 4931 C 471.997 -4.70388 -3.58453 0
M  V30 4932 H 470.927 -0.491275 -0.571984 0
M  V30 4933 H 473.578 -1.63004 -0.842739 0
M  V30 4934 H 471.96 -1.94229 -3.45096 0
M  V30 4935 H 473.134 -4.25466 -1.76962 0
M  V30 4936 H 471.449 -3.78117 -1.74402 0
M  V30 4937 H 474.046 -3.01312 -4.41718 0
M  V30 4938 H 474.389 -1.37117 -3.93071 0
M  V30 4939 H 474.922 -2.72212 -2.90078 0
M  V30 4940 H 471.661 -5.70102 -3.23518 0
M  V30 4941 H 471.181 -4.28442 -4.19758 0
M  V30 4942 H 472.86 -4.87628 -4.25239 0
M  V30 4943 N 472.992 0.995999 -1.22138 0
M  V30 4944 C 474.239 1.7351 -1.04406 0
M  V30 4945 C 474.567 1.89884 0.421244 0
M  V30 4946 O 473.822 1.43683 1.32867 0
M  V30 4947 C 474.121 3.14553 -1.6968 0
M  V30 4948 C 473.787 3.18102 -3.19565 0
M  V30 4949 C 472.449 3.18778 -3.60464 0
M  V30 4950 C 474.801 3.14636 -4.15516 0
M  V30 4951 C 472.129 3.13684 -4.95801 0
M  V30 4952 C 474.481 3.11084 -5.50826 0
M  V30 4953 C 473.145 3.10074 -5.91109 0
M  V30 4954 H 472.415 0.634916 -0.38205 0
M  V30 4955 H 475.062 1.1667 -1.51857 0
M  V30 4956 H 473.367 3.74682 -1.14546 0
M  V30 4957 H 475.064 3.70477 -1.53454 0
M  V30 4958 H 471.654 3.18324 -2.86998 0
M  V30 4959 H 475.838 3.13266 -3.84939 0
M  V30 4960 H 471.094 3.11245 -5.26247 0
M  V30 4961 H 475.268 3.07357 -6.24904 0
M  V30 4962 H 472.895 3.05882 -6.95946 0
M  V30 4963 N 474.47 1.03057 1.19235 0
M  V30 4964 C 475.719 0.72326 1.88287 0
M  V30 4965 C 476.032 -0.751333 1.80594 0
M  V30 4966 O 477.238 -1.17176 2.44912 0
M  V30 4967 C 475.694 1.24338 3.3774 0
M  V30 4968 C 475.302 2.74587 3.53986 0
M  V30 4969 C 477.046 1.01213 4.12257 0
M  V30 4970 C 474.953 3.20009 4.97341 0
M  V30 4971 H 473.883 0.266848 0.705201 0
M  V30 4972 H 476.534 1.24509 1.34795 0
M  V30 4973 H 474.916 0.649457 3.90638 0
M  V30 4974 H 476.09 3.39649 3.11408 0
M  V30 4975 H 474.405 2.9601 2.9286 0
M  V30 4976 H 477.002 1.32675 5.17978 0
M  V30 4977 H 477.345 -0.051001 4.16269 0
M  V30 4978 H 477.878 1.57014 3.65501 0
M  V30 4979 H 474.617 4.25659 4.98493 0
M  V30 4980 H 474.137 2.59676 5.40674 0
M  V30 4981 H 475.816 3.13447 5.66003 0
M  V30 4982 N 475.948 -1.35272 0.808662 0
M  V30 4983 C 476.911 -2.28082 0.226093 0
M  V30 4984 C 477.911 -1.49673 -0.587762 0
M  V30 4985 O 479.101 -1.69404 -0.405943 0
M  V30 4986 C 476.233 -3.33955 -0.684596 0
M  V30 4987 H 477.426 -2.81116 1.04469 0
M  V30 4988 H 474.979 -1.45162 0.579466 0
M  V30 4989 H 475.714 -2.86111 -1.5268 0
M  V30 4990 H 475.499 -3.91965 -0.102699 0
M  V30 4991 H 476.989 -4.03219 -1.08646 0
M  V30 4992 N 477.426 -0.562348 -1.47226 0
M  V30 4993 C 478.654 -0.0452275 -2.06851 0
M  V30 4994 C 479.069 1.25078 -1.41424 0
M  V30 4995 O 478.426 1.75156 -0.512513 0
M  V30 4996 C 478.477 0.148674 -3.61194 0
M  V30 4997 O 478.198 -1.09602 -4.24169 0
M  V30 4998 C 479.699 0.702488 -4.37699 0
M  V30 4999 H 476.919 -0.0481775 -0.669268 0
M  V30 5000 H 479.463 -0.777223 -1.89155 0
M  V30 5001 H 477.618 0.830817 -3.78386 0
M  V30 5002 H 478.032 -0.896982 -5.16773 0
M  V30 5003 H 479.506 0.78743 -5.46355 0
M  V30 5004 H 479.983 1.71493 -4.04335 0
M  V30 5005 H 480.589 0.0558772 -4.25263 0
M  V30 5006 N 478.904 1.54736 -0.299062 0
M  V30 5007 C 480.32 1.59507 0.0543849 0
M  V30 5008 C 480.52 1.31606 1.52585 0
M  V30 5009 O 479.576 1.08853 2.27832 0
M  V30 5010 C 480.889 2.98751 -0.34181 0
M  V30 5011 C 482.437 3.1165 -0.290414 0
M  V30 5012 C 482.912 4.53199 -0.661402 0
M  V30 5013 N 484.403 4.59114 -0.613863 0
M  V30 5014 C 485.138 5.66709 -0.873417 0
M  V30 5015 N 484.634 6.82349 -1.19884 0
M  V30 5016 N 486.427 5.56369 -0.800608 0
M  V30 5017 H 478.578 1.71133 -1.25806 0
M  V30 5018 H 480.841 0.799186 -0.509908 0
M  V30 5019 H 480.547 3.24085 -1.36608 0
M  V30 5020 H 480.421 3.75961 0.305508 0
M  V30 5021 H 482.808 2.86066 0.724605 0
M  V30 5022 H 482.889 2.366 -0.972327 0
M  V30 5023 H 482.533 4.79513 -1.67422 0
M  V30 5024 H 482.463 5.26583 0.0425612 0
M  V30 5025 H 484.954 3.76053 -0.3732 0
M  V30 5026 H 485.267 7.60326 -1.38291 0
M  V30 5027 H 483.612 6.83906 -1.23685 0
M  V30 5028 H 486.803 4.64904 -0.546045 0
M  V30 5029 H 486.976 6.40139 -1.00626 0
M  V30 5030 N 480.382 0.0267497 1.57577 0
M  V30 5031 C 481.629 -0.652404 1.91703 0
M  V30 5032 C 481.957 -1.72271 0.902936 0
M  V30 5033 O 481.212 -1.955 -0.0884843 0
M  V30 5034 C 481.511 -1.30914 3.3256 0
M  V30 5035 C 481.177 -0.369441 4.49384 0
M  V30 5036 C 479.839 -0.110791 4.81072 0
M  V30 5037 C 482.191 0.275971 5.20469 0
M  V30 5038 C 479.519 0.801116 5.81205 0
M  V30 5039 C 481.871 1.17592 6.21575 0
M  V30 5040 C 480.535 1.44348 6.51705 0
M  V30 5041 H 479.805 -0.238732 0.70149 0
M  V30 5042 H 482.452 0.0880091 1.91298 0
M  V30 5043 H 480.757 -2.12425 3.29216 0
M  V30 5044 H 482.454 -1.84115 3.56234 0
M  V30 5045 H 479.044 -0.581211 4.24641 0
M  V30 5046 H 483.228 0.0892 4.9622 0
M  V30 5047 H 478.484 1.01614 6.02897 0
M  V30 5048 H 482.658 1.68223 6.75777 0
M  V30 5049 H 480.285 2.15176 7.29111 0
M  V30 5050 N 481.861 -1.55662 -0.24637 0
M  V30 5051 C 483.272 -1.67953 -0.81539 0
M  V30 5052 C 483.623 -0.624302 -1.86002 0
M  V30 5053 O 482.748 0.229328 -2.15181 0
M  V30 5054 C 483.343 -3.04484 -1.48576 0
M  V30 5055 C 481.902 -3.18713 -2.00248 0
M  V30 5056 C 481.049 -2.6383 -0.853766 0
M  V30 5057 H 484 -1.58685 -0.0221692 0
M  V30 5058 H 484.021 -2.98959 -2.3538 0
M  V30 5059 H 483.533 -3.81264 -0.725222 0
M  V30 5060 H 481.634 -2.46757 -2.79181 0
M  V30 5061 H 481.747 -4.25628 -2.1995 0
M  V30 5062 H 480.111 -2.21667 -1.25442 0
M  V30 5063 H 480.894 -3.43135 -0.106302 0
M  V30 5064 N 483.339 0.512053 -1.4905 0
M  V30 5065 C 484.616 1.27337 -1.48474 0
M  V30 5066 C 484.996 2.1009 -0.206301 0
M  V30 5067 O 484.344 2.136 0.811609 0
M  V30 5068 C 484.554 2.13954 -2.75726 0
M  V30 5069 C 485.902 2.73507 -3.24776 0
M  V30 5070 O 486.926 2.24229 -2.76767 0
M  V30 5071 O 485.785 3.63186 -4.08361 0
M  V30 5072 H 482.879 0.575652 -0.593762 0
M  V30 5073 H 485.425 0.527232 -1.61302 0
M  V30 5074 H 484.197 1.52709 -3.60272 0
M  V30 5075 H 483.82 2.95782 -2.65705 0
M  V30 5076 N 484.817 1.37938 0.762283 0
M  V30 5077 C 485.727 1.36681 1.90671 0
M  V30 5078 C 486.743 0.265078 1.71969 0
M  V30 5079 O 487.919 0.502055 1.95042 0
M  V30 5080 C 484.984 1.18211 3.25925 0
M  V30 5081 C 484.045 2.3811 3.57214 0
M  V30 5082 C 483.278 2.20512 4.86014 0
M  V30 5083 O 483.501 1.19429 5.57757 0
M  V30 5084 O 482.435 3.08911 5.16583 0
M  V30 5085 H 486.261 2.33091 1.94685 0
M  V30 5086 H 483.846 1.18767 0.906356 0
M  V30 5087 H 485.728 1.09937 4.06807 0
M  V30 5088 H 484.403 0.248807 3.22742 0
M  V30 5089 H 483.31 2.51958 2.76529 0
M  V30 5090 H 484.643 3.30041 3.65149 0
M  V30 5091 N 486.295 -0.989507 1.22664 0
M  V30 5092 C 487.572 -1.70326 0.961688 0
M  V30 5093 C 487.952 -2.04537 -0.522279 0
M  V30 5094 O 487.3 -1.73136 -1.49118 0
M  V30 5095 C 487.51 -2.95135 1.86269 0
M  V30 5096 C 488.858 -3.67842 2.12078 0
M  V30 5097 O 489.882 -3.0515 1.83745 0
M  V30 5098 O 488.741 -4.80644 2.60083 0
M  V30 5099 H 485.835 -0.743589 0.361946 0
M  V30 5100 H 488.381 -1.04555 1.33665 0
M  V30 5101 H 487.153 -2.66382 2.8663 0
M  V30 5102 H 486.776 -3.68645 1.48952 0
M  V30 5103 N 487.773 -1.03688 -1.18687 0
M  V30 5104 C 488.72 -0.624624 -2.22187 0
M  V30 5105 C 489.69 0.365636 -1.62026 0
M  V30 5106 O 490.875 0.260481 -1.89014 0
M  V30 5107 C 488.015 0.0101738 -3.45099 0
M  V30 5108 C 487.128 -1.02709 -4.19613 0
M  V30 5109 C 486.263 -0.361213 -5.2997 0
M  V30 5110 C 485.302 -1.38384 -5.96252 0
M  V30 5111 N 484.439 -0.743196 -6.98155 0
M  V30 5112 H 489.279 -1.51176 -2.56807 0
M  V30 5113 H 486.816 -0.75636 -1.26165 0
M  V30 5114 H 488.774 0.395528 -4.15321 0
M  V30 5115 H 487.404 0.860848 -3.1111 0
M  V30 5116 H 486.456 -1.53043 -3.48256 0
M  V30 5117 H 487.768 -1.80398 -4.65036 0
M  V30 5118 H 486.922 0.0785537 -6.06649 0
M  V30 5119 H 485.661 0.447799 -4.8564 0
M  V30 5120 H 484.666 -1.83378 -5.18317 0
M  V30 5121 H 485.891 -2.19448 -6.42666 0
M  V30 5122 H 483.837 0.0455789 -6.55984 0
M  V30 5123 H 483.754 -1.45784 -7.41811 0
M  V30 5124 H 485.022 -0.327698 -7.78811 0
M  V30 5125 N 489.251 1.34841 -0.815825 0
M  V30 5126 C 490.5 1.97755 -0.396976 0
M  V30 5127 C 490.813 1.65422 1.04379 0
M  V30 5128 O 492.019 2.21771 1.5662 0
M  V30 5129 C 490.475 3.53818 -0.658869 0
M  V30 5130 C 490.083 3.95051 -2.11278 0
M  V30 5131 C 491.827 4.23397 -0.305834 0
M  V30 5132 C 489.734 5.43997 -2.31994 0
M  V30 5133 H 488.664 0.739985 -0.1447 0
M  V30 5134 H 491.315 1.53781 -1.00118 0
M  V30 5135 H 489.697 3.95997 0.0154112 0
M  V30 5136 H 490.871 3.63998 -2.82564 0
M  V30 5137 H 489.186 3.38388 -2.42657 0
M  V30 5138 H 491.783 5.32899 -0.43854 0
M  V30 5139 H 492.126 4.09508 0.748952 0
M  V30 5140 H 492.659 3.8667 -0.934403 0
M  V30 5141 H 489.398 5.62865 -3.35952 0
M  V30 5142 H 488.918 5.76589 -1.65244 0
M  V30 5143 H 490.597 6.10584 -2.14001 0
M  V30 5144 N 490.729 0.570148 1.46925 0
M  V30 5145 C 491.659 -0.158274 2.32963 0
M  V30 5146 C 492.64 -0.896093 1.44583 0
M  V30 5147 O 493.825 -0.874022 1.7342 0
M  V30 5148 C 490.955 -1.18055 3.26619 0
M  V30 5149 C 489.909 -0.558379 4.24342 0
M  V30 5150 C 489.235 -1.68623 5.07415 0
M  V30 5151 C 490.535 0.496295 5.19937 0
M  V30 5152 H 492.229 0.560046 2.94115 0
M  V30 5153 H 489.775 0.270775 1.41431 0
M  V30 5154 H 491.728 -1.69841 3.85658 0
M  V30 5155 H 490.452 -1.92899 2.63548 0
M  V30 5156 H 489.111 -0.0617157 3.66548 0
M  V30 5157 H 488.759 -2.42402 4.40738 0
M  V30 5158 H 488.459 -1.27564 5.73586 0
M  V30 5159 H 489.983 -2.20709 5.69315 0
M  V30 5160 H 491.397 0.0640052 5.73264 0
M  V30 5161 H 489.794 0.82649 5.94381 0
M  V30 5162 H 490.864 1.38735 4.6463 0
M  V30 5163 N 492.207 -1.54576 0.307264 0
M  V30 5164 C 493.454 -2.00263 -0.300167 0
M  V30 5165 C 493.782 -1.19561 -1.53413 0
M  V30 5166 O 493.037 -0.261487 -1.93945 0
M  V30 5167 C 493.336 -3.50572 -0.695253 0
M  V30 5168 C 493.002 -4.48771 0.437679 0
M  V30 5169 C 491.664 -4.7534 0.748681 0
M  V30 5170 C 494.016 -5.0721 1.19949 0
M  V30 5171 C 491.344 -5.5761 1.8245 0
M  V30 5172 C 493.696 -5.90651 2.26527 0
M  V30 5173 C 492.36 -6.15528 2.58227 0
M  V30 5174 H 491.63 -0.732814 -0.109839 0
M  V30 5175 H 494.277 -1.86664 0.427661 0
M  V30 5176 H 492.582 -3.61814 -1.50326 0
M  V30 5177 H 494.279 -3.83352 -1.17653 0
M  V30 5178 H 490.869 -4.282 0.185187 0
M  V30 5179 H 495.053 -4.86679 0.972474 0
M  V30 5180 H 490.309 -5.75121 2.07476 0
M  V30 5181 H 494.483 -6.34957 2.86011 0
M  V30 5182 H 492.11 -6.79066 3.4172 0
M  V30 5183 N 493.685 -0.035106 -1.57561 0
M  V30 5184 C 495.096 0.502885 -1.798 0
M  V30 5185 C 495.447 1.71892 -0.945921 0
M  V30 5186 O 494.572 2.15822 -0.157991 0
M  V30 5187 C 495.167 0.919097 -3.26095 0
M  V30 5188 C 493.726 1.40216 -3.49308 0
M  V30 5189 C 492.873 0.369709 -2.74824 0
M  V30 5190 H 495.824 -0.261102 -1.56537 0
M  V30 5191 H 495.845 1.78308 -3.36135 0
M  V30 5192 H 495.357 0.0338526 -3.88085 0
M  V30 5193 H 493.458 2.30714 -2.92578 0
M  V30 5194 H 493.571 1.40541 -4.58023 0
M  V30 5195 H 491.935 0.839113 -2.40481 0
M  V30 5196 H 492.718 -0.507173 -3.39533 0
M  V30 5197 N 495.163 1.55791 0.238111 0
M  V30 5198 C 496.073 1.94196 1.31625 0
M  V30 5199 C 497.089 0.843545 1.52185 0
M  V30 5200 O 498.265 1.1457 1.65637 0
M  V30 5201 C 495.33 2.2365 2.64918 0
M  V30 5202 C 494.391 3.46971 2.52804 0
M  V30 5203 C 493.624 3.7501 3.79741 0
M  V30 5204 O 493.847 3.04982 4.82019 0
M  V30 5205 O 492.781 4.68525 3.77846 0
M  V30 5206 H 496.607 2.86044 1.02043 0
M  V30 5207 H 494.192 1.42786 0.439603 0
M  V30 5208 H 496.074 2.43863 3.4367 0
M  V30 5209 H 494.749 1.34979 2.94215 0
M  V30 5210 H 493.656 3.32055 1.72309 0
M  V30 5211 H 494.989 4.35971 2.28451 0
M  V30 5212 N 496.642 -0.504142 1.49319 0
M  V30 5213 C 497.89 -1.25598 1.58334 0
M  V30 5214 C 498.211 -1.93114 0.270538 0
M  V30 5215 O 497.481 -1.82585 -0.709891 0
M  V30 5216 H 496.061 -0.466571 0.58337 0
M  V30 5217 H 498.723 -0.584547 1.85928 0
M  V30 5218 H 497.819 -2.02159 2.37778 0
M  V30 5219 N 498.12 -1.38341 -0.754957 0
M  V30 5220 C 499.397 -1.24995 -1.50451 0
M  V30 5221 C 499.777 0.149244 -2.10572 0
M  V30 5222 O 499.125 1.15861 -1.96948 0
M  V30 5223 C 499.335 -2.35904 -2.57197 0
M  V30 5224 C 500.683 -2.74262 -3.24138 0
M  V30 5225 O 501.707 -2.35205 -2.67501 0
M  V30 5226 O 500.566 -3.4161 -4.26574 0
M  V30 5227 H 497.66 -0.48872 -0.667144 0
M  V30 5228 H 500.206 -1.50165 -0.790486 0
M  V30 5229 H 498.978 -3.2953 -2.11011 0
M  V30 5230 H 498.601 -2.12291 -3.36182 0
M  V30 5231 N 499.598 0.982988 -1.23187 0
M  V30 5232 C 500.847 1.71817 -1.05649 0
M  V30 5233 C 501.16 1.91315 0.407176 0
M  V30 5234 O 502.366 2.62256 0.702436 0
M  V30 5235 C 500.822 3.09188 -1.84203 0
M  V30 5236 C 500.43 2.97586 -3.34882 0
M  V30 5237 C 502.174 3.86684 -1.75146 0
M  V30 5238 C 500.081 4.30173 -4.05839 0
M  V30 5239 H 499.011 0.644258 -0.391724 0
M  V30 5240 H 501.662 1.09659 -1.4713 0
M  V30 5241 H 500.044 3.72087 -1.35527 0
M  V30 5242 H 501.218 2.43793 -3.91026 0
M  V30 5243 H 499.533 2.33567 -3.44725 0
M  V30 5244 H 502.13 4.84836 -2.25473 0
M  V30 5245 H 502.473 4.10136 -0.713737 0
M  V30 5246 H 503.006 3.30482 -2.21419 0
M  V30 5247 H 499.745 4.11918 -5.09906 0
M  V30 5248 H 499.265 4.83841 -3.54482 0
M  V30 5249 H 500.944 4.98873 -4.11989 0
M  V30 5250 N 501.076 1.04316 1.18135 0
M  V30 5251 C 502.487 0.775505 1.69832 0
M  V30 5252 C 502.838 -0.703348 1.8316 0
M  V30 5253 O 501.963 -1.54729 1.51287 0
M  V30 5254 C 502.558 1.40112 3.0847 0
M  V30 5255 C 501.117 1.18172 3.57368 0
M  V30 5256 C 500.264 1.49022 2.33854 0
M  V30 5257 H 503.215 1.20925 1.02775 0
M  V30 5258 H 503.236 0.805672 3.71873 0
M  V30 5259 H 502.748 2.47744 2.98738 0
M  V30 5260 H 500.849 0.124258 3.72393 0
M  V30 5261 H 500.962 1.8805 4.40652 0
M  V30 5262 H 499.326 0.909995 2.37889 0
M  V30 5263 H 500.109 2.57768 2.26738 0
M  V30 5264 N 502.554 -1.34406 0.822964 0
M  V30 5265 C 503.517 -2.2783 0.250271 0
M  V30 5266 C 504.517 -1.50288 -0.571854 0
M  V30 5267 O 505.707 -1.69825 -0.387952 0
M  V30 5268 C 502.839 -3.34663 -0.649137 0
M  V30 5269 H 504.032 -2.79992 1.07444 0
M  V30 5270 H 501.585 -1.44539 0.594829 0
M  V30 5271 H 502.32 -2.87714 -1.49637 0
M  V30 5272 H 502.105 -3.92052 -0.0611199 0
M  V30 5273 H 503.595 -4.04349 -1.04363 0
M  V30 5274 N 504.032 -0.577932 -1.46621 0
M  V30 5275 C 505.281 -0.0594281 -2.01612 0
M  V30 5276 C 505.594 1.30663 -1.45556 0
M  V30 5277 O 506.8 1.91621 -1.92337 0
M  V30 5278 C 505.256 -0.0556666 -3.59857 0
M  V30 5279 C 504.864 -1.41975 -4.24908 0
M  V30 5280 C 506.608 0.409143 -4.22524 0
M  V30 5281 C 504.515 -1.37397 -5.75218 0
M  V30 5282 H 503.445 -0.0184469 -0.753774 0
M  V30 5283 H 506.096 -0.728869 -1.68404 0
M  V30 5284 H 504.478 0.679843 -3.90121 0
M  V30 5285 H 505.652 -2.17461 -4.0626 0
M  V30 5286 H 503.967 -1.82419 -3.74316 0
M  V30 5287 H 506.564 0.46211 -5.32699 0
M  V30 5288 H 506.907 1.42565 -3.91128 0
M  V30 5289 H 507.44 -0.272152 -3.96868 0
M  V30 5290 H 504.179 -2.36714 -6.11267 0
M  V30 5291 H 503.699 -0.661239 -5.96144 0
M  V30 5292 H 505.378 -1.08484 -6.3784 0
M  V30 5293 N 505.51 1.54411 -0.315457 0
M  V30 5294 C 506.74 2.04536 0.291315 0
M  V30 5295 C 507.148 1.19162 1.4696 0
M  V30 5296 O 506.491 0.213199 1.82459 0
M  V30 5297 C 506.553 3.5056 0.796725 0
M  V30 5298 C 506.217 4.5627 -0.258178 0
M  V30 5299 C 507.214 5.08312 -1.09153 0
M  V30 5300 C 504.899 5.00672 -0.404036 0
M  V30 5301 C 506.893 6.03312 -2.05655 0
M  V30 5302 C 504.58 5.95488 -1.37248 0
M  V30 5303 C 505.578 6.46693 -2.19721 0
M  V30 5304 O 505.266 7.39648 -3.14921 0
M  V30 5305 H 504.998 0.672856 0.0651165 0
M  V30 5306 H 507.552 2.00244 -0.457308 0
M  V30 5307 H 505.782 3.52223 1.59612 0
M  V30 5308 H 507.471 3.83804 1.32096 0
M  V30 5309 H 508.237 4.74793 -0.98979 0
M  V30 5310 H 504.116 4.60436 0.22799 0
M  V30 5311 H 507.66 6.43203 -2.70067 0
M  V30 5312 H 503.557 6.28424 -1.47489 0
M  V30 5313 H 504.325 7.57496 -3.10067 0
M  V30 5314 N 506.988 0.0434614 1.5754 0
M  V30 5315 C 508.404 -0.313039 1.565 0
M  V30 5316 C 508.604 -1.71954 1.05043 0
M  V30 5317 O 507.66 -2.425 0.703564 0
M  V30 5318 C 508.973 -0.148544 3.00333 0
M  V30 5319 C 510.521 -0.220231 3.12224 0
M  V30 5320 C 510.996 -0.0843565 4.57922 0
M  V30 5321 N 512.487 -0.140881 4.62986 0
M  V30 5322 C 513.222 -0.0597443 5.73369 0
M  V30 5323 N 512.718 0.0733004 6.92761 0
M  V30 5324 N 514.511 -0.11477 5.61983 0
M  V30 5325 H 506.662 0.96303 1.89313 0
M  V30 5326 H 508.925 0.373164 0.871466 0
M  V30 5327 H 508.631 0.820894 3.41986 0
M  V30 5328 H 508.505 -0.912798 3.65989 0
M  V30 5329 H 510.892 -1.18014 2.70475 0
M  V30 5330 H 510.973 0.574646 2.49262 0
M  V30 5331 H 510.617 0.872192 5.00355 0
M  V30 5332 H 510.547 -0.898281 5.18882 0
M  V30 5333 H 513.038 -0.243273 3.77116 0
M  V30 5334 H 513.351 0.128128 7.72694 0
M  V30 5335 H 511.696 0.10828 6.94916 0
M  V30 5336 H 514.887 -0.217212 4.67596 0
M  V30 5337 H 515.06 -0.0480779 6.47982 0
M  V30 5338 N 508.466 -1.55915 -0.229846 0
M  V30 5339 C 509.696 -1.82352 -0.971152 0
M  V30 5340 C 510.104 -0.619231 -1.7878 0
M  V30 5341 O 509.447 0.421597 -1.78797 0
M  V30 5342 C 509.509 -3.02399 -1.9441 0
M  V30 5343 C 509.173 -4.37739 -1.31277 0
M  V30 5344 C 510.17 -5.15074 -0.706757 0
M  V30 5345 C 507.855 -4.84454 -1.32702 0
M  V30 5346 C 509.849 -6.37281 -0.123413 0
M  V30 5347 C 507.536 -6.06605 -0.739831 0
M  V30 5348 C 508.534 -6.82858 -0.139071 0
M  V30 5349 O 508.222 -8.027 0.439007 0
M  V30 5350 H 507.954 -0.61035 -0.290601 0
M  V30 5351 H 510.508 -2.03839 -0.252746 0
M  V30 5352 H 508.738 -2.76709 -2.70128 0
M  V30 5353 H 510.427 -3.15779 -2.55026 0
M  V30 5354 H 511.193 -4.80093 -0.688131 0
M  V30 5355 H 507.072 -4.25081 -1.78402 0
M  V30 5356 H 510.616 -6.96741 0.346124 0
M  V30 5357 H 506.513 -6.4106 -0.755841 0
M  V30 5358 H 507.281 -8.17824 0.332521 0
M  V30 5359 N 509.944 0.496216 -1.49584 0
M  V30 5360 C 511.192 1.24756 -1.58998 0
M  V30 5361 C 511.513 1.92968 -0.280775 0
M  V30 5362 O 510.783 1.82959 0.700198 0
M  V30 5363 H 509.363 0.463471 -0.585836 0
M  V30 5364 H 512.025 0.574678 -1.86235 0
M  V30 5365 H 511.121 2.00895 -2.38847 0
M  V30 5366 N 511.423 1.38739 0.74761 0
M  V30 5367 C 512.353 1.39173 1.87492 0
M  V30 5368 C 513.334 0.256794 1.6815 0
M  V30 5369 O 514.519 0.460762 1.88655 0
M  V30 5370 C 511.649 1.22197 3.25093 0
M  V30 5371 C 510.603 2.32957 3.59047 0
M  V30 5372 C 509.929 2.01082 4.95449 0
M  V30 5373 C 511.229 3.75237 3.6331 0
M  V30 5374 H 512.923 2.3351 1.87386 0
M  V30 5375 H 510.469 1.12399 0.900134 0
M  V30 5376 H 512.422 1.21124 4.03617 0
M  V30 5377 H 511.146 0.243241 3.25693 0
M  V30 5378 H 509.805 2.33226 2.82845 0
M  V30 5379 H 509.453 1.01678 4.92616 0
M  V30 5380 H 509.153 2.75267 5.19136 0
M  V30 5381 H 510.677 2.01638 5.76346 0
M  V30 5382 H 512.091 3.76966 4.31937 0
M  V30 5383 H 510.488 4.48677 3.98509 0
M  V30 5384 H 511.558 4.07122 2.634 0
M  V30 5385 N 512.901 -0.976442 1.23707 0
M  V30 5386 C 513.811 -2.10359 1.03856 0
M  V30 5387 C 514.827 -1.73991 -0.0180919 0
M  V30 5388 O 516.003 -2.0061 0.178211 0
M  V30 5389 C 513.068 -3.40809 0.636387 0
M  V30 5390 C 512.129 -3.91179 1.76854 0
M  V30 5391 C 511.362 -5.15404 1.38546 0
M  V30 5392 O 511.585 -5.69754 0.27142 0
M  V30 5393 O 510.519 -5.5994 2.20797 0
M  V30 5394 H 514.345 -2.29997 1.98331 0
M  V30 5395 H 511.93 -1.08742 1.02448 0
M  V30 5396 H 513.812 -4.19269 0.423223 0
M  V30 5397 H 512.487 -3.22493 -0.279322 0
M  V30 5398 H 511.394 -3.13819 2.03638 0
M  V30 5399 H 512.727 -4.13958 2.6627 0
M  V30 5400 N 514.379 -1.04941 -1.1758 0
M  V30 5401 C 515.627 -0.756492 -1.87408 0
M  V30 5402 C 515.948 0.718478 -1.81281 0
M  V30 5403 O 515.218 1.519 -1.23706 0
M  V30 5404 H 513.798 -0.276841 -0.693807 0
M  V30 5405 H 516.46 -1.32803 -1.42652 0
M  V30 5406 H 515.556 -1.06918 -2.93215 0
M  V30 5407 N 515.857 1.33968 -0.830081 0
M  V30 5408 C 516.787 2.31911 -0.271911 0
M  V30 5409 C 517.768 1.58571 0.61556 0
M  V30 5410 O 518.953 1.86514 0.540946 0
M  V30 5411 C 516.083 3.42737 0.561146 0
M  V30 5412 C 515.037 4.27383 -0.229789 0
M  V30 5413 C 514.363 5.29742 0.726463 0
M  V30 5414 C 515.663 5.02 -1.44197 0
M  V30 5415 H 517.357 2.78844 -1.09025 0
M  V30 5416 H 514.903 1.34061 -0.52571 0
M  V30 5417 H 516.856 4.10276 0.961867 0
M  V30 5418 H 515.58 2.94471 1.41261 0
M  V30 5419 H 514.239 3.61456 -0.611964 0
M  V30 5420 H 513.887 4.77736 1.57408 0
M  V30 5421 H 513.587 5.87255 0.20142 0
M  V30 5422 H 515.111 6.00149 1.12489 0
M  V30 5423 H 516.525 5.62355 -1.11488 0
M  V30 5424 H 514.922 5.69122 -1.90317 0
M  V30 5425 H 515.992 4.31281 -2.2164 0
M  V30 5426 N 517.335 0.585699 1.46312 0
M  V30 5427 C 518.265 -0.133556 2.33118 0
M  V30 5428 C 519.246 -0.880707 1.45525 0
M  V30 5429 O 520.431 -0.855579 1.74337 0
M  V30 5430 C 517.561 -1.14585 3.27853 0
M  V30 5431 C 516.515 -0.513341 4.2491 0
M  V30 5432 C 515.841 -1.63231 5.09175 0
M  V30 5433 C 517.141 0.551413 5.19381 0
M  V30 5434 H 518.835 0.59121 2.93505 0
M  V30 5435 H 516.381 0.285761 1.41136 0
M  V30 5436 H 518.334 -1.65741 3.87438 0
M  V30 5437 H 517.058 -1.90093 2.65579 0
M  V30 5438 H 515.717 -0.0228349 3.66593 0
M  V30 5439 H 515.365 -2.37713 4.43285 0
M  V30 5440 H 515.065 -1.21473 5.74907 0
M  V30 5441 H 516.589 -2.14658 5.71624 0
M  V30 5442 H 518.003 0.124804 5.73164 0
M  V30 5443 H 516.4 0.889486 5.93471 0
M  V30 5444 H 517.47 1.43655 4.63132 0
M  V30 5445 O 518.852 -1.54637 0.465785 0
M  V30 5446 H 519.543 -1.93604 -0.0608748 0
M  V30 END ATOM
M  V30 BEGIN BOND
M  V30 END BOND
M  V30 END CTAB
M  END
$$$$
